
 OpenBabel03232221553D

 37 40  0  0  1  0  0  0  0  0999 V2000
   14.4380  -24.0900  -42.8920 B   0  0  0  0  0  0  0  0  0  0  0  0
   12.9590  -25.0720  -43.6300 C   0  0  0  0  0  0  0  0  0  0  0  0
   13.1030  -25.6340  -44.8780 C   0  0  0  0  0  0  0  0  0  0  0  0
   12.0600  -26.3120  -45.3700 N   0  0  0  0  0  0  0  0  0  0  0  0
   10.8900  -26.4550  -44.6810 C   0  0  0  0  0  0  0  0  0  0  0  0
   10.6880  -25.9180  -43.4350 C   0  0  0  0  0  0  0  0  0  0  0  0
   11.7900  -25.2070  -42.9260 C   0  0  0  0  0  0  0  0  0  0  0  0
    9.4860  -26.0120  -42.6440 C   0  0  0  0  0  0  0  0  0  0  0  0
    9.4940  -26.7860  -41.6370 O   0  0  0  0  0  0  0  0  0  0  0  0
    8.3160  -25.2970  -42.9300 N   0  0  0  0  0  0  0  0  0  0  0  0
    6.8860  -25.4550  -42.9370 C   0  0  0  0  0  0  0  0  0  0  0  0
    6.6780  -24.1170  -43.6310 C   0  0  0  0  0  0  0  0  0  0  0  0
    8.1390  -23.9010  -43.3770 C   0  0  0  0  0  0  0  0  0  0  0  0
    5.8060  -23.2180  -43.0200 O   0  0  0  0  0  0  0  0  0  0  0  0
    6.1440  -21.9900  -42.4900 C   0  0  2  0  0  0  0  0  0  0  0  0
    6.8880  -21.1460  -43.2020 C   0  0  0  0  0  0  0  0  0  0  0  0
    7.2770  -19.8350  -42.6980 C   0  0  0  0  0  0  0  0  0  0  0  0
    8.0150  -19.0210  -43.4320 C   0  0  0  0  0  0  0  0  0  0  0  0
    6.8350  -19.4730  -41.3970 N   0  0  0  0  0  0  0  0  0  0  0  0
    6.0350  -20.4050  -40.6530 C   0  0  0  0  0  0  0  0  0  0  0  0
    5.7100  -21.5970  -41.1730 N   0  0  0  0  0  0  0  0  0  0  0  0
    4.9720  -22.2680  -40.2830 N   0  0  0  0  0  0  0  0  0  0  0  0
    4.8430  -21.4830  -39.2080 C   0  0  0  0  0  0  0  0  0  0  0  0
    5.4950  -20.3380  -39.4320 N   0  0  0  0  0  0  0  0  0  0  0  0
   14.0360  -25.5310  -45.4510 H   0  0  0  0  0  0  0  0  0  0  0  0
   10.0730  -27.0230  -45.1210 H   0  0  0  0  0  0  0  0  0  0  0  0
   11.6940  -24.7600  -41.9470 H   0  0  0  0  0  0  0  0  0  0  0  0
    6.5150  -26.2730  -43.6080 H   0  0  0  0  0  0  0  0  0  0  0  0
    6.4970  -25.5040  -41.9140 H   0  0  0  0  0  0  0  0  0  0  0  0
    6.4130  -24.2430  -44.7130 H   0  0  0  0  0  0  0  0  0  0  0  0
    8.3780  -23.2490  -42.5400 H   0  0  0  0  0  0  0  0  0  0  0  0
    8.7140  -23.6580  -44.2790 H   0  0  0  0  0  0  0  0  0  0  0  0
    7.2140  -21.4730  -44.2010 H   0  0  0  0  0  0  0  0  0  0  0  0
    8.2830  -18.0670  -43.0300 H   0  0  0  0  0  0  0  0  0  0  0  0
    8.3440  -19.2960  -44.4030 H   0  0  0  0  0  0  0  0  0  0  0  0
    7.1050  -18.5460  -41.0300 H   0  0  0  0  0  0  0  0  0  0  0  0
    4.3020  -21.7030  -38.2790 H   0  0  0  0  0  0  0  0  0  0  0  0
  2  7  1  0  0  0  0
  2  1  1  0  0  0  0
  3  2  2  0  0  0  0
  4  3  1  0  0  0  0
  4  5  2  0  0  0  0
  5  6  1  0  0  0  0
  6  7  2  0  0  0  0
  6  8  1  0  0  0  0
  7 27  1  0  0  0  0
  8  9  2  0  0  0  0
 10  8  1  0  0  0  0
 11 10  1  0  0  0  0
 11 29  1  0  0  0  0
 12 13  1  0  0  0  0
 12 14  1  0  0  0  0
 12 11  1  0  0  0  0
 13 10  1  0  0  0  0
 13 31  1  0  0  0  0
 15 14  1  1  0  0  0
 15 21  1  0  0  0  0
 16 17  2  0  0  0  0
 16 15  1  0  0  0  0
 17 19  1  0  0  0  0
 18 34  1  0  0  0  0
 18 17  1  0  0  0  0
 19 36  1  0  0  0  0
 19 20  1  0  0  0  0
 20 24  2  0  0  0  0
 21 20  1  0  0  0  0
 21 22  1  0  0  0  0
 22 23  2  0  0  0  0
 23 37  1  0  0  0  0
 24 23  1  0  0  0  0
 25  3  1  0  0  0  0
 26  5  1  0  0  0  0
 28 11  1  0  0  0  0
 30 12  1  0  0  0  0
 32 13  1  0  0  0  0
 33 16  1  0  0  0  0
 35 18  1  0  0  0  0
M  END
>  <Pose>
1

>  <Score>
-5.07

$$$$
