
 OpenBabel03232221553D

 57 60  0  0  0  0  0  0  0  0999 V2000
    1.8050  -14.8470  -41.3250 B   0  0  0  0  0  0  0  0  0  0  0  0
    1.7770  -16.2130  -40.0050 C   0  0  0  0  0  0  0  0  0  0  0  0
    1.9670  -17.5280  -40.3840 C   0  0  0  0  0  0  0  0  0  0  0  0
    1.9570  -18.5850  -39.4610 C   0  0  0  0  0  0  0  0  0  0  0  0
    1.7500  -18.3080  -38.1320 C   0  0  0  0  0  0  0  0  0  0  0  0
    1.5600  -16.9950  -37.7470 C   0  0  0  0  0  0  0  0  0  0  0  0
    1.5700  -15.9570  -38.6530 C   0  0  0  0  0  0  0  0  0  0  0  0
    1.2720  -16.5750  -35.9130 B   0  0  0  0  0  0  0  0  0  0  0  0
    2.1480  -19.9580  -39.9110 C   0  0  0  0  0  0  0  0  0  0  0  0
    1.6960  -20.8550  -39.1480 O   0  0  0  0  0  0  0  0  0  0  0  0
    2.8190  -20.2850  -41.1650 C   0  0  0  0  0  0  0  0  0  0  0  0
    3.0950  -18.9670  -41.9370 C   0  0  0  0  0  0  0  0  0  0  0  0
    2.1860  -17.9600  -41.6810 O   0  0  0  0  0  0  0  0  0  0  0  0
    4.1250  -20.9310  -41.0910 C   0  0  0  0  0  0  0  0  0  0  0  0
    5.1090  -20.7120  -40.1350 N   0  0  0  0  0  4  0  0  0  0  0  0
    5.1450  -21.4790  -38.9300 C   0  0  0  0  0  0  0  0  0  0  0  0
    6.6160  -21.4400  -38.4410 C   0  0  0  0  0  0  0  0  0  0  0  0
    6.8150  -20.0380  -37.9030 C   0  0  0  0  0  0  0  0  0  0  0  0
    5.7480  -19.0890  -38.4020 C   0  0  0  0  0  0  0  0  0  0  0  0
    5.4290  -19.3180  -39.8640 C   0  0  0  0  0  0  0  0  0  0  0  0
    1.8690  -21.1370  -41.9920 C   0  0  0  0  0  0  0  0  0  0  0  0
    0.5830  -20.5150  -42.1910 N   0  0  0  0  0  4  0  0  0  0  0  0
   -0.4030  -21.2780  -41.4390 C   0  0  0  0  0  0  0  0  0  0  0  0
   -0.3160  -22.7140  -41.8370 C   0  0  0  0  0  0  0  0  0  0  0  0
   -0.4170  -22.9740  -43.2950 C   0  0  0  0  0  0  0  0  0  0  0  0
    0.1970  -21.9410  -44.1750 C   0  0  0  0  0  0  0  0  0  0  0  0
    0.1040  -20.5620  -43.5610 C   0  0  0  0  0  0  0  0  0  0  0  0
    1.7380  -19.1200  -37.3910 H   0  0  0  0  0  0  0  0  0  0  0  0
    1.4210  -14.9270  -38.3560 H   0  0  0  0  0  0  0  0  0  0  0  0
    3.2230  -19.2030  -43.0190 H   0  0  0  0  0  0  0  0  0  0  0  0
    4.1050  -18.6450  -41.6130 H   0  0  0  0  0  0  0  0  0  0  0  0
    4.6500  -20.8120  -42.0980 H   0  0  0  0  0  0  0  0  0  0  0  0
    3.9100  -22.0550  -41.1150 H   0  0  0  0  0  0  0  0  0  0  0  0
    6.0160  -21.0470  -40.6300 H   0  0  0  0  0  0  0  0  0  0  0  0
    4.9000  -22.5350  -39.0960 H   0  0  0  0  0  0  0  0  0  0  0  0
    4.6320  -21.0150  -38.0580 H   0  0  0  0  0  0  0  0  0  0  0  0
    7.2990  -21.6530  -39.2840 H   0  0  0  0  0  0  0  0  0  0  0  0
    6.7160  -22.2050  -37.6450 H   0  0  0  0  0  0  0  0  0  0  0  0
    6.6630  -20.1110  -36.7900 H   0  0  0  0  0  0  0  0  0  0  0  0
    7.8360  -19.6610  -38.0500 H   0  0  0  0  0  0  0  0  0  0  0  0
    6.2240  -18.0640  -38.3590 H   0  0  0  0  0  0  0  0  0  0  0  0
    4.8680  -19.0190  -37.7580 H   0  0  0  0  0  0  0  0  0  0  0  0
    6.3540  -18.9710  -40.4160 H   0  0  0  0  0  0  0  0  0  0  0  0
    4.6610  -18.6080  -40.1720 H   0  0  0  0  0  0  0  0  0  0  0  0
    2.3400  -21.4710  -42.9210 H   0  0  0  0  0  0  0  0  0  0  0  0
    1.6820  -22.0290  -41.3640 H   0  0  0  0  0  0  0  0  0  0  0  0
    0.5940  -19.5170  -41.9190 H   0  0  0  0  0  0  0  0  0  0  0  0
   -0.2730  -21.1830  -40.3570 H   0  0  0  0  0  0  0  0  0  0  0  0
   -1.4100  -20.9100  -41.7660 H   0  0  0  0  0  0  0  0  0  0  0  0
   -1.1800  -23.2380  -41.3290 H   0  0  0  0  0  0  0  0  0  0  0  0
    0.5820  -23.2380  -41.4520 H   0  0  0  0  0  0  0  0  0  0  0  0
    0.0920  -23.9540  -43.5340 H   0  0  0  0  0  0  0  0  0  0  0  0
   -1.4960  -23.1670  -43.5570 H   0  0  0  0  0  0  0  0  0  0  0  0
   -0.4460  -21.8910  -45.1050 H   0  0  0  0  0  0  0  0  0  0  0  0
    1.2050  -22.1870  -44.5520 H   0  0  0  0  0  0  0  0  0  0  0  0
    0.4890  -19.7890  -44.2170 H   0  0  0  0  0  0  0  0  0  0  0  0
   -1.0070  -20.3560  -43.4850 H   0  0  0  0  0  0  0  0  0  0  0  0
  1  2  1  0  0  0  0
  2  7  1  0  0  0  0
  3  2  2  0  0  0  0
  3  4  1  0  0  0  0
  4  5  2  0  0  0  0
  5  6  1  0  0  0  0
  5 28  1  0  0  0  0
  6  8  1  0  0  0  0
  7 29  1  0  0  0  0
  7  6  2  0  0  0  0
  9  4  1  0  0  0  0
  9 10  2  0  0  0  0
 11 14  1  0  0  0  0
 11  9  1  0  0  0  0
 12 13  1  0  0  0  0
 12 31  1  0  0  0  0
 12 11  1  0  0  0  0
 13  3  1  0  0  0  0
 14 15  1  0  0  0  0
 15 20  1  0  0  0  0
 15 16  1  0  0  0  0
 16 17  1  0  0  0  0
 16 36  1  0  0  0  0
 17 18  1  0  0  0  0
 17 38  1  0  0  0  0
 18 39  1  0  0  0  0
 19 41  1  0  0  0  0
 19 18  1  0  0  0  0
 19 42  1  0  0  0  0
 20 19  1  0  0  0  0
 21 46  1  0  0  0  0
 21 11  1  0  0  0  0
 22 21  1  0  0  0  0
 22 47  1  0  0  0  0
 22 23  1  0  0  0  0
 23 48  1  0  0  0  0
 24 51  1  0  0  0  0
 24 23  1  0  0  0  0
 24 50  1  0  0  0  0
 25 24  1  0  0  0  0
 26 27  1  0  0  0  0
 26 25  1  0  0  0  0
 27 57  1  0  0  0  0
 27 22  1  0  0  0  0
 30 12  1  0  0  0  0
 32 14  1  0  0  0  0
 33 14  1  0  0  0  0
 34 15  1  0  0  0  0
 35 16  1  0  0  0  0
 37 17  1  0  0  0  0
 40 18  1  0  0  0  0
 43 20  1  0  0  0  0
 44 20  1  0  0  0  0
 45 21  1  0  0  0  0
 49 23  1  0  0  0  0
 52 25  1  0  0  0  0
 53 25  1  0  0  0  0
 54 26  1  0  0  0  0
 55 26  1  0  0  0  0
 56 27  1  0  0  0  0
M  END
>  <Pose>
1

>  <Score>
-3.39

$$$$
