
 OpenBabel03232221553D

 56 59  0  0  1  0  0  0  0  0999 V2000
    6.6740  -19.2400  -37.7760 B   0  0  0  0  0  0  0  0  0  0  0  0
    5.0340  -19.7840  -38.5600 C   0  0  0  0  0  0  0  0  0  0  0  0
    5.0580  -20.5790  -39.7140 C   0  0  0  0  0  0  0  0  0  0  0  0
    3.9140  -21.0070  -40.3160 C   0  0  0  0  0  0  0  0  0  0  0  0
    2.6990  -20.6380  -39.7650 C   0  0  0  0  0  0  0  0  0  0  0  0
    2.6650  -19.8500  -38.6200 C   0  0  0  0  0  0  0  0  0  0  0  0
    3.8230  -19.4200  -38.0140 C   0  0  0  0  0  0  0  0  0  0  0  0
    1.3780  -19.4320  -37.9960 C   0  0  0  0  0  0  0  0  0  0  0  0
    3.9650  -21.8850  -41.5160 C   0  0  1  0  0  0  0  0  0  0  0  0
    5.1320  -21.7120  -42.4210 C   0  0  0  0  0  0  0  0  0  0  0  0
    6.2340  -20.8570  -41.7500 C   0  0  0  0  0  0  0  0  0  0  0  0
    6.2260  -20.9920  -40.3380 O   0  0  0  0  0  0  0  0  0  0  0  0
    4.8030  -20.9100  -43.6660 C   0  0  0  0  0  0  0  0  0  0  0  0
    4.4300  -19.5340  -43.4160 N   0  0  0  0  0  4  0  0  0  0  0  0
    3.5300  -19.0730  -44.4720 C   0  0  0  0  0  0  0  0  0  0  0  0
    3.6300  -17.5940  -44.5370 C   0  0  0  0  0  0  0  0  0  0  0  0
    4.7810  -17.2670  -43.6460 C   0  0  0  0  0  0  0  0  0  0  0  0
    5.5300  -18.6050  -43.6140 C   0  0  0  0  0  0  0  0  0  0  0  0
    5.8170  -22.9920  -42.7170 C   0  0  0  0  0  0  0  0  0  0  0  0
    5.7190  -23.8100  -43.8120 N   0  0  0  0  0  4  0  0  0  0  0  0
    7.0520  -24.3440  -44.1710 C   0  0  0  0  0  0  0  0  0  0  0  0
    6.8330  -25.7100  -44.6950 C   0  0  0  0  0  0  0  0  0  0  0  0
    5.5520  -26.1840  -44.1220 C   0  0  0  0  0  0  0  0  0  0  0  0
    4.8180  -24.8860  -43.7930 C   0  0  0  0  0  0  0  0  0  0  0  0
    3.8770  -23.1850  -40.9450 O   0  0  0  0  0  0  0  0  0  0  0  0
    1.7610  -20.9350  -40.1830 H   0  0  0  0  0  0  0  0  0  0  0  0
    3.8370  -18.8100  -37.1270 H   0  0  0  0  0  0  0  0  0  0  0  0
    0.5500  -19.4330  -38.7280 H   0  0  0  0  0  0  0  0  0  0  0  0
    1.1770  -20.1260  -37.1370 H   0  0  0  0  0  0  0  0  0  0  0  0
    1.4960  -18.4200  -37.5160 H   0  0  0  0  0  0  0  0  0  0  0  0
    2.9780  -21.7780  -42.0560 H   0  0  0  0  0  0  0  0  0  0  0  0
    6.2350  -19.8280  -42.1060 H   0  0  0  0  0  0  0  0  0  0  0  0
    7.2210  -21.2790  -42.0830 H   0  0  0  0  0  0  0  0  0  0  0  0
    5.7580  -20.8330  -44.2810 H   0  0  0  0  0  0  0  0  0  0  0  0
    4.0920  -21.3330  -44.3510 H   0  0  0  0  0  0  0  0  0  0  0  0
    4.0460  -19.3410  -42.4800 H   0  0  0  0  0  0  0  0  0  0  0  0
    2.5010  -19.3890  -44.3360 H   0  0  0  0  0  0  0  0  0  0  0  0
    3.9070  -19.5450  -45.4140 H   0  0  0  0  0  0  0  0  0  0  0  0
    2.6840  -17.1030  -44.2670 H   0  0  0  0  0  0  0  0  0  0  0  0
    3.8520  -17.2650  -45.5940 H   0  0  0  0  0  0  0  0  0  0  0  0
    4.3890  -17.0700  -42.6120 H   0  0  0  0  0  0  0  0  0  0  0  0
    5.4320  -16.4610  -44.0070 H   0  0  0  0  0  0  0  0  0  0  0  0
    6.0000  -18.7510  -44.6120 H   0  0  0  0  0  0  0  0  0  0  0  0
    6.2740  -18.5920  -42.8240 H   0  0  0  0  0  0  0  0  0  0  0  0
    6.9720  -22.8270  -42.5630 H   0  0  0  0  0  0  0  0  0  0  0  0
    5.6850  -23.7010  -41.7980 H   0  0  0  0  0  0  0  0  0  0  0  0
    5.5320  -23.2200  -44.7380 H   0  0  0  0  0  0  0  0  0  0  0  0
    7.5250  -23.7520  -44.9990 H   0  0  0  0  0  0  0  0  0  0  0  0
    7.7660  -24.3010  -43.3510 H   0  0  0  0  0  0  0  0  0  0  0  0
    6.7610  -25.7330  -45.8070 H   0  0  0  0  0  0  0  0  0  0  0  0
    7.6430  -26.4190  -44.3780 H   0  0  0  0  0  0  0  0  0  0  0  0
    4.9340  -26.7460  -44.8420 H   0  0  0  0  0  0  0  0  0  0  0  0
    5.6720  -26.8230  -43.2150 H   0  0  0  0  0  0  0  0  0  0  0  0
    4.2810  -25.1020  -42.8760 H   0  0  0  0  0  0  0  0  0  0  0  0
    3.9910  -24.7490  -44.5750 H   0  0  0  0  0  0  0  0  0  0  0  0
    4.4730  -23.2770  -40.1820 H   0  0  0  0  0  0  0  0  0  0  0  0
  2  7  1  0  0  0  0
  2  1  1  0  0  0  0
  3  2  2  0  0  0  0
  4  5  2  0  0  0  0
  4  3  1  0  0  0  0
  5  6  1  0  0  0  0
  6  7  2  0  0  0  0
  6  8  1  0  0  0  0
  7 27  1  0  0  0  0
  8 30  1  0  0  0  0
  8 29  1  0  0  0  0
  9 31  1  6  0  0  0
  9 25  1  0  0  0  0
  9  4  1  0  0  0  0
 10 11  1  0  0  0  0
 10  9  1  0  0  0  0
 11 12  1  0  0  0  0
 12  3  1  0  0  0  0
 13 14  1  0  0  0  0
 13 10  1  0  0  0  0
 14 36  1  0  0  0  0
 15 37  1  0  0  0  0
 15 14  1  0  0  0  0
 16 15  1  0  0  0  0
 16 39  1  0  0  0  0
 16 17  1  0  0  0  0
 17 18  1  0  0  0  0
 17 41  1  0  0  0  0
 18 14  1  0  0  0  0
 18 44  1  0  0  0  0
 19 45  1  0  0  0  0
 19 10  1  0  0  0  0
 19 46  1  0  0  0  0
 20 24  1  0  0  0  0
 20 19  1  0  0  0  0
 21 20  1  0  0  0  0
 21 49  1  0  0  0  0
 22 51  1  0  0  0  0
 22 21  1  0  0  0  0
 22 23  1  0  0  0  0
 23 24  1  0  0  0  0
 23 53  1  0  0  0  0
 24 54  1  0  0  0  0
 25 56  1  0  0  0  0
 26  5  1  0  0  0  0
 28  8  1  0  0  0  0
 32 11  1  0  0  0  0
 33 11  1  0  0  0  0
 34 13  1  0  0  0  0
 35 13  1  0  0  0  0
 38 15  1  0  0  0  0
 40 16  1  0  0  0  0
 42 17  1  0  0  0  0
 43 18  1  0  0  0  0
 47 20  1  0  0  0  0
 48 21  1  0  0  0  0
 50 22  1  0  0  0  0
 52 23  1  0  0  0  0
 55 24  1  0  0  0  0
M  END
>  <Pose>
1

>  <Score>
-3.90

$$$$
