
 OpenBabel03232221553D

 56 59  0  0  1  0  0  0  0  0999 V2000
    1.2120  -19.7120  -40.2770 B   0  0  0  0  0  0  0  0  0  0  0  0
    1.9110  -19.0040  -38.6550 C   0  0  0  0  0  0  0  0  0  0  0  0
    1.2230  -17.9990  -38.0040 C   0  0  0  0  0  0  0  0  0  0  0  0
    1.7050  -17.4670  -36.8260 C   0  0  0  0  0  0  0  0  0  0  0  0
    2.8900  -17.9840  -36.3420 C   0  0  0  0  0  0  0  0  0  0  0  0
    3.5710  -18.9890  -36.9990 C   0  0  0  0  0  0  0  0  0  0  0  0
    3.0960  -19.5280  -38.1780 C   0  0  0  0  0  0  0  0  0  0  0  0
    3.7750  -20.5420  -38.8500 O   0  0  0  0  0  0  0  0  0  0  0  0
    5.1240  -20.7760  -38.4960 C   0  0  0  0  0  0  0  0  0  0  0  0
    6.0830  -20.0470  -39.4020 C   0  0  2  0  0  0  0  0  0  0  0  0
    6.1370  -18.6990  -39.1570 O   0  0  0  0  0  0  0  0  0  0  0  0
    5.8000  -20.3540  -40.8320 C   0  0  0  0  0  0  0  0  0  0  0  0
    6.0380  -21.7330  -41.1940 N   0  0  0  0  0  4  0  0  0  0  0  0
    6.4780  -21.7360  -42.5780 C   0  0  0  0  0  0  0  0  0  0  0  0
    6.5210  -23.1550  -43.1640 C   0  0  0  0  0  0  0  0  0  0  0  0
    5.2320  -23.7370  -43.0480 N   0  0  0  0  0  0  0  0  0  0  0  0
    4.2310  -22.8930  -42.3620 C   0  0  0  0  0  0  0  0  0  0  0  0
    4.7930  -22.4720  -41.0450 C   0  0  0  0  0  0  0  0  0  0  0  0
    4.8700  -25.0020  -43.5240 C   0  0  0  0  0  0  0  0  0  0  0  0
    5.8410  -25.8950  -43.4190 O   0  0  0  0  0  0  0  0  0  0  0  0
    3.6640  -25.5050  -44.0960 C   0  0  0  0  0  0  0  0  0  0  0  0
    2.3890  -25.2360  -43.6870 C   0  0  0  0  0  0  0  0  0  0  0  0
    1.2540  -25.7600  -44.2900 C   0  0  0  0  0  0  0  0  0  0  0  0
    1.3720  -26.5940  -45.3550 C   0  0  0  0  0  0  0  0  0  0  0  0
    2.6470  -26.8860  -45.7940 C   0  0  0  0  0  0  0  0  0  0  0  0
    3.7690  -26.3690  -45.1970 C   0  0  0  0  0  0  0  0  0  0  0  0
    1.0150  -16.4590  -36.1740 C   0  0  0  0  0  0  0  0  0  0  0  0
   -0.1690  -15.9420  -36.6570 C   0  0  0  0  0  0  0  0  0  0  0  0
   -0.6530  -16.4730  -37.8370 C   0  0  0  0  0  0  0  0  0  0  0  0
    0.0350  -17.4780  -38.4870 C   0  0  0  0  0  0  0  0  0  0  0  0
    3.2760  -17.5720  -35.4170 H   0  0  0  0  0  0  0  0  0  0  0  0
    4.5060  -19.3940  -36.6130 H   0  0  0  0  0  0  0  0  0  0  0  0
    5.2580  -20.4090  -37.4580 H   0  0  0  0  0  0  0  0  0  0  0  0
    5.2900  -21.8750  -38.5240 H   0  0  0  0  0  0  0  0  0  0  0  0
    7.1020  -20.4800  -39.1810 H   0  0  0  0  0  0  0  0  0  0  0  0
    6.8910  -18.2350  -39.5640 H   0  0  0  0  0  0  0  0  0  0  0  0
    6.4990  -19.7400  -41.4620 H   0  0  0  0  0  0  0  0  0  0  0  0
    4.7510  -20.1260  -41.0880 H   0  0  0  0  0  0  0  0  0  0  0  0
    6.7790  -22.1950  -40.6260 H   0  0  0  0  0  0  0  0  0  0  0  0
    5.8710  -21.0460  -43.1840 H   0  0  0  0  0  0  0  0  0  0  0  0
    7.5290  -21.3780  -42.5810 H   0  0  0  0  0  0  0  0  0  0  0  0
    6.7660  -23.0100  -44.2320 H   0  0  0  0  0  0  0  0  0  0  0  0
    7.3460  -23.6950  -42.6650 H   0  0  0  0  0  0  0  0  0  0  0  0
    4.0980  -22.0040  -43.0030 H   0  0  0  0  0  0  0  0  0  0  0  0
    3.2990  -23.4350  -42.2190 H   0  0  0  0  0  0  0  0  0  0  0  0
    4.9250  -23.3670  -40.4040 H   0  0  0  0  0  0  0  0  0  0  0  0
    4.0180  -21.8400  -40.5410 H   0  0  0  0  0  0  0  0  0  0  0  0
    2.2000  -24.5940  -42.8630 H   0  0  0  0  0  0  0  0  0  0  0  0
    0.2650  -25.5050  -43.9150 H   0  0  0  0  0  0  0  0  0  0  0  0
    0.5120  -27.0210  -45.8490 H   0  0  0  0  0  0  0  0  0  0  0  0
    2.7390  -27.5530  -46.6420 H   0  0  0  0  0  0  0  0  0  0  0  0
    4.7160  -26.6650  -45.6220 H   0  0  0  0  0  0  0  0  0  0  0  0
    1.3930  -16.0420  -35.2500 H   0  0  0  0  0  0  0  0  0  0  0  0
   -0.6850  -15.1520  -36.1220 H   0  0  0  0  0  0  0  0  0  0  0  0
   -1.5870  -16.0610  -38.2110 H   0  0  0  0  0  0  0  0  0  0  0  0
   -0.3460  -17.8950  -39.4130 H   0  0  0  0  0  0  0  0  0  0  0  0
  1  2  1  0  0  0  0
  2  7  2  0  0  0  0
  2  3  1  0  0  0  0
  3  4  1  0  0  0  0
  4  5  1  0  0  0  0
  4 27  2  0  0  0  0
  5 31  1  0  0  0  0
  6 32  1  0  0  0  0
  6  5  2  0  0  0  0
  7  6  1  0  0  0  0
  8  9  1  0  0  0  0
  8  7  1  0  0  0  0
  9 33  1  0  0  0  0
 10 35  1  1  0  0  0
 10 11  1  0  0  0  0
 10  9  1  0  0  0  0
 12 10  1  0  0  0  0
 13 18  1  0  0  0  0
 13 12  1  0  0  0  0
 13 39  1  0  0  0  0
 14 13  1  0  0  0  0
 15 16  1  0  0  0  0
 15 43  1  0  0  0  0
 15 14  1  0  0  0  0
 16 17  1  0  0  0  0
 17 45  1  0  0  0  0
 17 18  1  0  0  0  0
 18 47  1  0  0  0  0
 18 46  1  0  0  0  0
 19 20  2  0  0  0  0
 19 16  1  0  0  0  0
 21 22  1  0  0  0  0
 21 19  1  0  0  0  0
 22 48  1  0  0  0  0
 23 49  1  0  0  0  0
 23 22  2  0  0  0  0
 24 23  1  0  0  0  0
 25 24  2  0  0  0  0
 25 26  1  0  0  0  0
 26 21  2  0  0  0  0
 27 53  1  0  0  0  0
 28 27  1  0  0  0  0
 28 54  1  0  0  0  0
 29 28  2  0  0  0  0
 30  3  2  0  0  0  0
 30 29  1  0  0  0  0
 34  9  1  0  0  0  0
 36 11  1  0  0  0  0
 37 12  1  0  0  0  0
 38 12  1  0  0  0  0
 40 14  1  0  0  0  0
 41 14  1  0  0  0  0
 42 15  1  0  0  0  0
 44 17  1  0  0  0  0
 50 24  1  0  0  0  0
 51 25  1  0  0  0  0
 52 26  1  0  0  0  0
 55 29  1  0  0  0  0
 56 30  1  0  0  0  0
M  END
>  <Pose>
1

>  <Score>
-4.83

$$$$
