
 OpenBabel03232221553D

 40 43  0  0  0  0  0  0  0  0999 V2000
    6.6540  -19.2470  -42.3990 B   0  0  0  0  0  0  0  0  0  0  0  0
    6.3920  -21.1060  -42.7510 C   0  0  0  0  0  0  0  0  0  0  0  0
    5.2530  -21.7630  -42.4300 N   0  0  0  0  0  0  0  0  0  0  0  0
    5.4350  -23.0440  -42.8280 C   0  0  0  0  0  0  0  0  0  0  0  0
    6.6940  -23.1920  -43.4020 C   0  0  0  0  0  0  0  0  0  0  0  0
    7.2490  -21.9610  -43.3300 N   0  0  0  0  0  0  0  0  0  0  0  0
    7.1050  -24.3800  -43.8810 N   0  0  0  0  0  0  0  0  0  0  0  0
    6.3030  -25.4570  -43.8170 C   0  0  0  0  0  0  0  0  0  0  0  0
    6.6830  -26.5840  -44.2670 O   0  0  0  0  0  0  0  0  0  0  0  0
    5.0740  -25.3730  -43.2750 N   0  0  0  0  0  0  0  0  0  0  0  0
    4.6550  -24.1760  -42.7900 C   0  0  0  0  0  0  0  0  0  0  0  0
    3.5050  -24.0560  -42.2750 O   0  0  0  0  0  0  0  0  0  0  0  0
    8.4120  -24.5400  -44.4770 C   0  0  0  0  0  0  0  0  0  0  0  0
    4.1130  -21.1770  -41.8130 C   0  0  0  0  0  0  0  0  0  0  0  0
    3.7470  -21.6690  -40.4580 C   0  0  0  0  0  0  0  0  0  0  0  0
    3.6340  -20.7230  -39.4050 N   0  0  0  0  0  0  0  0  0  0  0  0
    2.5430  -20.0310  -39.0350 C   0  0  0  0  0  0  0  0  0  0  0  0
    2.8680  -19.2140  -37.9720 C   0  0  0  0  0  0  0  0  0  0  0  0
    4.1740  -19.4560  -37.7380 N   0  0  0  0  0  0  0  0  0  0  0  0
    4.6610  -20.3590  -38.5820 C   0  0  0  0  0  0  0  0  0  0  0  0
    6.4610  -21.0420  -38.6610 B   0  0  0  0  0  0  0  0  0  0  0  0
    1.9430  -18.4290  -37.4210 N   0  0  0  0  0  0  0  0  0  0  0  0
    0.6930  -18.4220  -37.8900 C   0  0  0  0  0  0  0  0  0  0  0  0
   -0.2140  -17.6800  -37.3850 O   0  0  0  0  0  0  0  0  0  0  0  0
    0.2970  -19.1880  -38.9220 N   0  0  0  0  0  0  0  0  0  0  0  0
    1.2290  -19.9770  -39.4730 C   0  0  0  0  0  0  0  0  0  0  0  0
    0.8700  -20.6960  -40.4320 O   0  0  0  0  0  0  0  0  0  0  0  0
    2.2690  -17.5680  -36.3090 C   0  0  0  0  0  0  0  0  0  0  0  0
    4.4360  -26.1950  -43.2160 H   0  0  0  0  0  0  0  0  0  0  0  0
    8.2770  -24.8320  -45.5500 H   0  0  0  0  0  0  0  0  0  0  0  0
    8.9490  -25.3060  -43.8980 H   0  0  0  0  0  0  0  0  0  0  0  0
    8.9770  -23.5800  -44.3930 H   0  0  0  0  0  0  0  0  0  0  0  0
    3.2380  -21.1630  -42.5060 H   0  0  0  0  0  0  0  0  0  0  0  0
    4.3300  -20.0680  -41.6800 H   0  0  0  0  0  0  0  0  0  0  0  0
    4.4340  -22.5220  -40.2060 H   0  0  0  0  0  0  0  0  0  0  0  0
    2.7280  -22.1560  -40.5710 H   0  0  0  0  0  0  0  0  0  0  0  0
   -0.6960  -19.1590  -39.2670 H   0  0  0  0  0  0  0  0  0  0  0  0
    3.1140  -18.0400  -35.7720 H   0  0  0  0  0  0  0  0  0  0  0  0
    2.5240  -16.5460  -36.5950 H   0  0  0  0  0  0  0  0  0  0  0  0
    1.4320  -17.5200  -35.5680 H   0  0  0  0  0  0  0  0  0  0  0  0
  2  3  1  0  0  0  0
  2  1  1  0  0  0  0
  3 14  1  0  0  0  0
  4 11  1  0  0  0  0
  4  3  1  0  0  0  0
  5  6  1  0  0  0  0
  5  4  2  0  0  0  0
  6  2  2  0  0  0  0
  7  8  1  0  0  0  0
  7  5  1  0  0  0  0
  8 10  1  0  0  0  0
  9  8  2  0  0  0  0
 10 29  1  0  0  0  0
 10 11  1  0  0  0  0
 11 12  2  0  0  0  0
 13 32  1  0  0  0  0
 13 31  1  0  0  0  0
 13  7  1  0  0  0  0
 14 34  1  0  0  0  0
 14 15  1  0  0  0  0
 15 35  1  0  0  0  0
 15 16  1  0  0  0  0
 16 17  1  0  0  0  0
 16 20  1  0  0  0  0
 17 18  2  0  0  0  0
 18 19  1  0  0  0  0
 18 22  1  0  0  0  0
 20 19  2  0  0  0  0
 21 20  1  0  0  0  0
 22 28  1  0  0  0  0
 23 22  1  0  0  0  0
 23 24  2  0  0  0  0
 25 23  1  0  0  0  0
 26 17  1  0  0  0  0
 26 25  1  0  0  0  0
 27 26  2  0  0  0  0
 28 38  1  0  0  0  0
 28 40  1  0  0  0  0
 30 13  1  0  0  0  0
 33 14  1  0  0  0  0
 36 15  1  0  0  0  0
 37 25  1  0  0  0  0
 39 28  1  0  0  0  0
M  END
>  <Pose>
1

>  <Score>
-5.04

$$$$
