
 OpenBabel03232221553D

 35 38  0  0  0  0  0  0  0  0999 V2000
    1.7470  -20.4710  -40.0150 B   0  0  0  0  0  0  0  0  0  0  0  0
    2.9000  -19.8070  -38.6530 C   0  0  0  0  0  0  0  0  0  0  0  0
    2.5200  -19.4300  -37.3970 N   0  0  0  0  0  0  0  0  0  0  0  0
    3.5850  -19.0480  -36.7330 N   0  0  0  0  0  0  0  0  0  0  0  0
    4.6740  -19.1590  -37.5120 C   0  0  0  0  0  0  0  0  0  0  0  0
    5.9810  -18.9180  -37.3220 N   0  0  0  0  0  0  0  0  0  0  0  0
    6.8810  -19.1280  -38.2790 C   0  0  0  0  0  0  0  0  0  0  0  0
    6.4890  -19.5900  -39.4630 N   0  0  0  0  0  0  0  0  0  0  0  0
    5.1780  -19.8700  -39.7640 C   0  0  0  0  0  0  0  0  0  0  0  0
    4.2640  -19.6480  -38.7640 C   0  0  0  0  0  0  0  0  0  0  0  0
    4.8110  -20.3140  -41.0340 N   0  0  0  0  0  0  0  0  0  0  0  0
    4.6660  -19.3920  -42.1390 C   0  0  0  0  0  0  0  0  0  0  0  0
    5.8600  -19.6270  -43.0880 C   0  0  0  0  0  0  0  0  0  0  0  0
    6.1670  -21.0730  -43.1380 C   0  0  0  0  0  0  0  0  0  0  0  0
    7.0540  -21.6880  -43.9540 N   0  0  0  0  0  0  0  0  0  0  0  0
    7.0240  -23.0020  -43.6760 C   0  0  0  0  0  0  0  0  0  0  0  0
    6.1430  -23.2480  -42.7080 N   0  0  0  0  0  0  0  0  0  0  0  0
    5.6100  -22.0530  -42.3720 C   0  0  0  0  0  0  0  0  0  0  0  0
    4.5840  -21.6980  -41.3610 C   0  0  0  0  0  0  0  0  0  0  0  0
    7.9040  -21.0960  -44.9540 C   0  0  0  0  0  0  0  0  0  0  0  0
    3.6640  -18.5610  -35.3480 C   0  0  0  0  0  0  0  0  0  0  0  0
    7.9130  -18.9270  -38.0960 H   0  0  0  0  0  0  0  0  0  0  0  0
    4.7040  -18.3330  -41.8550 H   0  0  0  0  0  0  0  0  0  0  0  0
    3.7250  -19.5610  -42.7140 H   0  0  0  0  0  0  0  0  0  0  0  0
    6.7520  -19.0700  -42.7440 H   0  0  0  0  0  0  0  0  0  0  0  0
    5.5580  -19.2060  -44.0630 H   0  0  0  0  0  0  0  0  0  0  0  0
    7.6210  -23.7940  -44.1540 H   0  0  0  0  0  0  0  0  0  0  0  0
    4.6040  -22.3630  -40.4760 H   0  0  0  0  0  0  0  0  0  0  0  0
    3.5930  -21.7760  -41.8980 H   0  0  0  0  0  0  0  0  0  0  0  0
    8.9290  -21.5230  -44.9260 H   0  0  0  0  0  0  0  0  0  0  0  0
    7.5070  -21.3290  -45.9720 H   0  0  0  0  0  0  0  0  0  0  0  0
    8.0020  -19.9950  -44.7970 H   0  0  0  0  0  0  0  0  0  0  0  0
    4.3890  -19.1730  -34.7780 H   0  0  0  0  0  0  0  0  0  0  0  0
    2.6550  -18.5870  -34.9000 H   0  0  0  0  0  0  0  0  0  0  0  0
    3.9880  -17.4950  -35.3530 H   0  0  0  0  0  0  0  0  0  0  0  0
  1  2  1  0  0  0  0
  2  3  2  0  0  0  0
  3  4  1  0  0  0  0
  4 21  1  0  0  0  0
  5  6  1  0  0  0  0
  5  4  1  0  0  0  0
  7 22  1  0  0  0  0
  7  6  2  0  0  0  0
  8  7  1  0  0  0  0
  9  8  2  0  0  0  0
  9 10  1  0  0  0  0
 10  2  1  0  0  0  0
 10  5  2  0  0  0  0
 11  9  1  0  0  0  0
 12 23  1  0  0  0  0
 12 11  1  0  0  0  0
 13 25  1  0  0  0  0
 13 12  1  0  0  0  0
 14 13  1  0  0  0  0
 14 18  2  0  0  0  0
 15 16  1  0  0  0  0
 15 14  1  0  0  0  0
 16 17  2  0  0  0  0
 17 18  1  0  0  0  0
 18 19  1  0  0  0  0
 19 11  1  0  0  0  0
 19 28  1  0  0  0  0
 20 30  1  0  0  0  0
 20 32  1  0  0  0  0
 20 15  1  0  0  0  0
 21 34  1  0  0  0  0
 21 33  1  0  0  0  0
 24 12  1  0  0  0  0
 26 13  1  0  0  0  0
 27 16  1  0  0  0  0
 29 19  1  0  0  0  0
 31 20  1  0  0  0  0
 35 21  1  0  0  0  0
M  END
>  <Pose>
1

>  <Score>
-3.42

$$$$
