
 OpenBabel03232221553D

 32 35  0  0  1  0  0  0  0  0999 V2000
    6.0900  -20.6710  -42.1080 B   0  0  0  0  0  0  0  0  0  0  0  0
    5.2180  -20.9380  -40.4210 C   0  0  0  0  0  0  0  0  0  0  0  0
    4.3700  -20.1190  -39.7890 N   0  0  0  0  0  0  0  0  0  0  0  0
    3.9870  -20.6750  -38.6410 C   0  0  0  0  0  0  0  0  0  0  0  0
    4.6140  -21.8770  -38.5510 N   0  0  0  0  0  0  0  0  0  0  0  0
    5.3800  -22.0630  -39.6410 C   0  0  0  0  0  0  0  0  0  0  0  0
    3.0360  -19.9680  -37.7320 C   0  0  0  0  0  0  0  0  0  0  0  0
    2.1430  -19.1310  -38.4940 N   0  0  2  0  0  0  0  0  0  0  0  0
    2.4580  -18.5890  -39.7950 C   0  0  0  0  0  0  0  0  0  0  0  0
    3.8840  -18.8170  -40.2020 C   0  0  0  0  0  0  0  0  0  0  0  0
    0.8890  -18.8220  -37.9320 C   0  0  2  0  0  0  0  0  0  0  0  0
   -0.1740  -19.4840  -38.3260 C   0  0  0  0  0  0  0  0  0  0  0  0
   -1.5090  -19.2050  -37.7750 C   0  0  0  0  0  0  0  0  0  0  0  0
   -2.5870  -19.8630  -38.1620 C   0  0  0  0  0  0  0  0  0  0  0  0
   -1.5590  -18.1770  -36.7970 N   0  0  0  0  0  0  0  0  0  0  0  0
   -0.3860  -17.4640  -36.3800 C   0  0  0  0  0  0  0  0  0  0  0  0
    0.7980  -17.8040  -36.9550 N   0  0  0  0  0  0  0  0  0  0  0  0
    1.7130  -17.0020  -36.3980 N   0  0  0  0  0  0  0  0  0  0  0  0
    1.1510  -16.1780  -35.5020 C   0  0  0  0  0  0  0  0  0  0  0  0
   -0.1590  -16.4750  -35.4980 N   0  0  0  0  0  0  0  0  0  0  0  0
    6.0110  -22.9330  -39.8680 H   0  0  0  0  0  0  0  0  0  0  0  0
    2.5000  -20.7150  -37.1130 H   0  0  0  0  0  0  0  0  0  0  0  0
    3.6110  -19.2910  -37.0450 H   0  0  0  0  0  0  0  0  0  0  0  0
    2.2990  -17.4790  -39.7320 H   0  0  0  0  0  0  0  0  0  0  0  0
    1.7360  -18.9770  -40.5170 H   0  0  0  0  0  0  0  0  0  0  0  0
    3.9340  -18.7080  -41.3050 H   0  0  0  0  0  0  0  0  0  0  0  0
    4.5800  -18.0600  -39.7870 H   0  0  0  0  0  0  0  0  0  0  0  0
   -0.1300  -20.2760  -39.0810 H   0  0  0  0  0  0  0  0  0  0  0  0
   -2.5570  -20.6490  -38.9080 H   0  0  0  0  0  0  0  0  0  0  0  0
   -3.5670  -19.6560  -37.7560 H   0  0  0  0  0  0  0  0  0  0  0  0
   -2.4760  -17.9310  -36.3680 H   0  0  0  0  0  0  0  0  0  0  0  0
    1.6650  -15.4150  -34.8950 H   0  0  0  0  0  0  0  0  0  0  0  0
  1  2  1  0  0  0  0
  2  3  1  0  0  0  0
  2  6  2  0  0  0  0
  3  4  1  0  0  0  0
  4  5  2  0  0  0  0
  4  7  1  0  0  0  0
  6  5  1  0  0  0  0
  7 22  1  0  0  0  0
  7 23  1  0  0  0  0
  8  9  1  1  0  0  0
  8 11  1  0  0  0  0
  8  7  1  0  0  0  0
  9 24  1  0  0  0  0
 10  9  1  0  0  0  0
 10  3  1  0  0  0  0
 10 27  1  0  0  0  0
 11 12  1  6  0  0  0
 11 17  1  0  0  0  0
 12 13  2  0  0  0  0
 13 15  1  0  0  0  0
 14 13  1  0  0  0  0
 14 30  1  0  0  0  0
 15 16  1  0  0  0  0
 15 31  1  0  0  0  0
 16 20  2  0  0  0  0
 17 18  1  0  0  0  0
 17 16  1  0  0  0  0
 18 19  2  0  0  0  0
 19 20  1  0  0  0  0
 19 32  1  0  0  0  0
 21  6  1  0  0  0  0
 25  9  1  0  0  0  0
 26 10  1  0  0  0  0
 28 12  1  0  0  0  0
 29 14  1  0  0  0  0
M  END
>  <Pose>
1

>  <Score>
-4.00

$$$$
