
 OpenBabel03232221553D

 49 52  0  0  0  0  0  0  0  0999 V2000
   13.3360  -18.8610  -41.7090 B   0  0  0  0  0  0  0  0  0  0  0  0
   12.0050  -19.3790  -42.9980 C   0  0  0  0  0  0  0  0  0  0  0  0
   11.0110  -18.6860  -43.4670 O   0  0  0  0  0  0  0  0  0  0  0  0
   10.3090  -19.3470  -44.3260 C   0  0  0  0  0  0  0  0  0  0  0  0
   10.8790  -20.6190  -44.4610 C   0  0  0  0  0  0  0  0  0  0  0  0
   11.9580  -20.6140  -43.6030 C   0  0  0  0  0  0  0  0  0  0  0  0
    9.1430  -18.8800  -45.0330 C   0  0  0  0  0  0  0  0  0  0  0  0
    9.1140  -18.9820  -46.2950 O   0  0  0  0  0  0  0  0  0  0  0  0
    8.0140  -18.3040  -44.3900 N   0  0  0  0  0  0  0  0  0  0  0  0
    7.7400  -18.4950  -43.0000 C   0  0  0  0  0  0  0  0  0  0  0  0
    6.5190  -17.7690  -42.5260 C   0  0  0  0  0  0  0  0  0  0  0  0
    5.2820  -18.5470  -42.6930 C   0  0  0  0  0  0  0  0  0  0  0  0
    4.5270  -18.2180  -43.6680 O   0  0  0  0  0  0  0  0  0  0  0  0
    4.9150  -19.6150  -41.8300 N   0  0  0  0  0  0  0  0  0  0  0  0
    5.4340  -20.9330  -42.0710 C   0  0  0  0  0  0  0  0  0  0  0  0
    5.6630  -21.7360  -40.8270 C   0  0  0  0  0  0  0  0  0  0  0  0
    4.8150  -21.3020  -39.6680 C   0  0  0  0  0  0  0  0  0  0  0  0
    4.5460  -22.4040  -38.7940 N   0  0  0  0  0  0  0  0  0  0  0  0
    3.7090  -22.0870  -37.6870 C   0  0  0  0  0  0  0  0  0  0  0  0
    4.0270  -20.8060  -36.9890 C   0  0  0  0  0  0  0  0  0  0  0  0
    5.1750  -20.0820  -37.5920 C   0  0  0  0  0  0  0  0  0  0  0  0
    5.9970  -19.1560  -37.0970 N   0  0  0  0  0  0  0  0  0  0  0  0
    6.8850  -18.8040  -38.0370 C   0  0  0  0  0  0  0  0  0  0  0  0
    6.6370  -19.5060  -39.1510 N   0  0  0  0  0  0  0  0  0  0  0  0
    5.5880  -20.2930  -38.8850 C   0  0  0  0  0  0  0  0  0  0  0  0
    3.5530  -20.6180  -40.1690 C   0  0  0  0  0  0  0  0  0  0  0  0
    4.0120  -19.2890  -40.7310 C   0  0  0  0  0  0  0  0  0  0  0  0
   10.5480  -21.4160  -45.0870 H   0  0  0  0  0  0  0  0  0  0  0  0
   12.6680  -21.4330  -43.4180 H   0  0  0  0  0  0  0  0  0  0  0  0
    7.3710  -17.7250  -44.9640 H   0  0  0  0  0  0  0  0  0  0  0  0
    7.6930  -19.5640  -42.7200 H   0  0  0  0  0  0  0  0  0  0  0  0
    8.6350  -18.0920  -42.4390 H   0  0  0  0  0  0  0  0  0  0  0  0
    6.6490  -17.5990  -41.4200 H   0  0  0  0  0  0  0  0  0  0  0  0
    6.4790  -16.7590  -42.9820 H   0  0  0  0  0  0  0  0  0  0  0  0
    6.3610  -20.8320  -42.6720 H   0  0  0  0  0  0  0  0  0  0  0  0
    4.6990  -21.4730  -42.7040 H   0  0  0  0  0  0  0  0  0  0  0  0
    6.7260  -21.6190  -40.5340 H   0  0  0  0  0  0  0  0  0  0  0  0
    5.5100  -22.8260  -40.9880 H   0  0  0  0  0  0  0  0  0  0  0  0
    4.0900  -23.1570  -39.3550 H   0  0  0  0  0  0  0  0  0  0  0  0
    3.8420  -22.9120  -36.9280 H   0  0  0  0  0  0  0  0  0  0  0  0
    2.6260  -22.1310  -37.9540 H   0  0  0  0  0  0  0  0  0  0  0  0
    3.1300  -20.1310  -37.0270 H   0  0  0  0  0  0  0  0  0  0  0  0
    4.2480  -20.9340  -35.9090 H   0  0  0  0  0  0  0  0  0  0  0  0
    7.6970  -18.0770  -37.9720 H   0  0  0  0  0  0  0  0  0  0  0  0
    7.1730  -19.4510  -40.0760 H   0  0  0  0  0  0  0  0  0  0  0  0
    2.7990  -20.5040  -39.3750 H   0  0  0  0  0  0  0  0  0  0  0  0
    3.1220  -21.1820  -41.0460 H   0  0  0  0  0  0  0  0  0  0  0  0
    4.5770  -18.6860  -40.0050 H   0  0  0  0  0  0  0  0  0  0  0  0
    3.1010  -18.7800  -41.1050 H   0  0  0  0  0  0  0  0  0  0  0  0
  2  1  1  0  0  0  0
  3  2  1  0  0  0  0
  4  3  1  0  0  0  0
  5  4  2  0  0  0  0
  5  6  1  0  0  0  0
  6 29  1  0  0  0  0
  6  2  2  0  0  0  0
  7  9  1  0  0  0  0
  7  4  1  0  0  0  0
  8  7  2  0  0  0  0
  9 10  1  0  0  0  0
 10 31  1  0  0  0  0
 10 11  1  0  0  0  0
 10 32  1  0  0  0  0
 11 33  1  0  0  0  0
 12 11  1  0  0  0  0
 12 14  1  0  0  0  0
 13 12  2  0  0  0  0
 14 27  1  0  0  0  0
 15 14  1  0  0  0  0
 15 16  1  0  0  0  0
 16 37  1  0  0  0  0
 16 17  1  0  0  0  0
 17 25  1  0  0  0  0
 17 18  1  0  0  0  0
 18 19  1  0  0  0  0
 19 20  1  0  0  0  0
 19 40  1  0  0  0  0
 20 43  1  0  0  0  0
 21 22  1  0  0  0  0
 21 20  1  0  0  0  0
 23 44  1  0  0  0  0
 23 22  2  0  0  0  0
 24 25  1  0  0  0  0
 24 23  1  0  0  0  0
 25 21  2  0  0  0  0
 26 17  1  0  0  0  0
 26 46  1  0  0  0  0
 27 26  1  0  0  0  0
 27 48  1  0  0  0  0
 28  5  1  0  0  0  0
 30  9  1  0  0  0  0
 34 11  1  0  0  0  0
 35 15  1  0  0  0  0
 36 15  1  0  0  0  0
 38 16  1  0  0  0  0
 39 18  1  0  0  0  0
 41 19  1  0  0  0  0
 42 20  1  0  0  0  0
 45 24  1  0  0  0  0
 47 26  1  0  0  0  0
 49 27  1  0  0  0  0
M  END
>  <Pose>
1

>  <Score>
-4.55

$$$$
