
 OpenBabel03232221553D

 43 46  0  0  0  0  0  0  0  0999 V2000
   13.7170  -24.3130  -42.5270 B   0  0  0  0  0  0  0  0  0  0  0  0
   12.1040  -25.1610  -43.0570 C   0  0  0  0  0  0  0  0  0  0  0  0
   10.8940  -24.6910  -43.0470 O   0  0  0  0  0  0  0  0  0  0  0  0
   10.0180  -25.5600  -43.4840 C   0  0  0  0  0  0  0  0  0  0  0  0
   10.7270  -26.7020  -43.8090 C   0  0  0  0  0  0  0  0  0  0  0  0
   12.0670  -26.4690  -43.5430 C   0  0  0  0  0  0  0  0  0  0  0  0
    8.5760  -25.3870  -43.6150 C   0  0  0  0  0  0  0  0  0  0  0  0
    7.6340  -26.3510  -43.7180 N   0  0  0  0  0  0  0  0  0  0  0  0
    6.4570  -25.8010  -43.8170 O   0  0  0  0  0  0  0  0  0  0  0  0
    6.5620  -24.4970  -43.7860 C   0  0  0  0  0  0  0  0  0  0  0  0
    7.8700  -24.2440  -43.6620 N   0  0  0  0  0  0  0  0  0  0  0  0
    5.4230  -23.5920  -43.8760 C   0  0  0  0  0  0  0  0  0  0  0  0
    4.5620  -23.7440  -44.8080 O   0  0  0  0  0  0  0  0  0  0  0  0
    5.2290  -22.5290  -42.9510 N   0  0  0  0  0  0  0  0  0  0  0  0
    4.5600  -22.7250  -41.7100 C   0  0  0  0  0  0  0  0  0  0  0  0
    5.3640  -22.2400  -40.5230 C   0  0  0  0  0  0  0  0  0  0  0  0
    4.5300  -22.1130  -39.3350 N   0  0  0  0  0  0  0  0  0  0  0  0
    4.4710  -20.8750  -38.6730 C   0  0  0  0  0  0  0  0  0  0  0  0
    5.5920  -20.4380  -38.2270 O   0  0  0  0  0  0  0  0  0  0  0  0
    3.3140  -20.0490  -38.4380 C   0  0  0  0  0  0  0  0  0  0  0  0
    3.3590  -19.1180  -37.4020 C   0  0  0  0  0  0  0  0  0  0  0  0
    2.2750  -18.3110  -37.1630 C   0  0  0  0  0  0  0  0  0  0  0  0
    1.1580  -18.4180  -37.9320 C   0  0  0  0  0  0  0  0  0  0  0  0
    0.0560  -17.5950  -37.6850 C   0  0  0  0  0  0  0  0  0  0  0  0
    0.0630  -16.6640  -36.6750 C   0  0  0  0  0  0  0  0  0  0  0  0
    1.1920  -16.5620  -35.9030 C   0  0  0  0  0  0  0  0  0  0  0  0
    2.2860  -17.3660  -36.1330 C   0  0  0  0  0  0  0  0  0  0  0  0
    1.1460  -19.2970  -38.8920 O   0  0  0  0  0  0  0  0  0  0  0  0
    2.1590  -20.1080  -39.1770 C   0  0  0  0  0  0  0  0  0  0  0  0
    2.0180  -20.9110  -40.1290 O   0  0  0  0  0  0  0  0  0  0  0  0
   10.2760  -27.5830  -44.1940 H   0  0  0  0  0  0  0  0  0  0  0  0
   12.8940  -27.1600  -43.6860 H   0  0  0  0  0  0  0  0  0  0  0  0
    5.5870  -21.5870  -43.1960 H   0  0  0  0  0  0  0  0  0  0  0  0
    4.4320  -23.8340  -41.5690 H   0  0  0  0  0  0  0  0  0  0  0  0
    3.5360  -22.3030  -41.7140 H   0  0  0  0  0  0  0  0  0  0  0  0
    6.1150  -23.0260  -40.2970 H   0  0  0  0  0  0  0  0  0  0  0  0
    5.9100  -21.3090  -40.7570 H   0  0  0  0  0  0  0  0  0  0  0  0
    3.9790  -22.9110  -38.9700 H   0  0  0  0  0  0  0  0  0  0  0  0
    4.2480  -19.0170  -36.7740 H   0  0  0  0  0  0  0  0  0  0  0  0
   -0.8130  -17.7040  -38.3130 H   0  0  0  0  0  0  0  0  0  0  0  0
   -0.8080  -16.0480  -36.5180 H   0  0  0  0  0  0  0  0  0  0  0  0
    1.2070  -15.8350  -35.1070 H   0  0  0  0  0  0  0  0  0  0  0  0
    3.1770  -17.2930  -35.5320 H   0  0  0  0  0  0  0  0  0  0  0  0
  2  3  1  0  0  0  0
  2  1  1  0  0  0  0
  4  3  1  0  0  0  0
  5  6  1  0  0  0  0
  5  4  2  0  0  0  0
  6  2  2  0  0  0  0
  7  4  1  0  0  0  0
  8  7  2  0  0  0  0
  9 10  1  0  0  0  0
  9  8  1  0  0  0  0
 10 11  2  0  0  0  0
 11  7  1  0  0  0  0
 12 10  1  0  0  0  0
 12 14  1  0  0  0  0
 13 12  2  0  0  0  0
 14 15  1  0  0  0  0
 15 34  1  0  0  0  0
 15 16  1  0  0  0  0
 16 36  1  0  0  0  0
 16 17  1  0  0  0  0
 17 38  1  0  0  0  0
 17 18  1  0  0  0  0
 18 20  1  0  0  0  0
 18 19  2  0  0  0  0
 20 21  2  0  0  0  0
 21 22  1  0  0  0  0
 21 39  1  0  0  0  0
 22 27  1  0  0  0  0
 23 24  1  0  0  0  0
 23 22  2  0  0  0  0
 24 25  2  0  0  0  0
 25 41  1  0  0  0  0
 25 26  1  0  0  0  0
 26 42  1  0  0  0  0
 27 26  2  0  0  0  0
 27 43  1  0  0  0  0
 28 23  1  0  0  0  0
 29 28  1  0  0  0  0
 29 20  1  0  0  0  0
 30 29  2  0  0  0  0
 31  5  1  0  0  0  0
 32  6  1  0  0  0  0
 33 14  1  0  0  0  0
 35 15  1  0  0  0  0
 37 16  1  0  0  0  0
 40 24  1  0  0  0  0
M  END
>  <Pose>
1

>  <Score>
-5.89

$$$$
