
 OpenBabel03232221553D

 64 67  0  0  1  0  0  0  0  0999 V2000
   13.1180  -18.7910  -42.0550 B   0  0  0  0  0  0  0  0  0  0  0  0
   13.2410  -20.3510  -43.1220 C   0  0  0  0  0  0  0  0  0  0  0  0
   12.1730  -21.2480  -43.1210 C   0  0  0  0  0  0  0  0  0  0  0  0
   12.1860  -22.3680  -43.8470 N   0  0  0  0  0  0  0  0  0  0  0  0
   13.3080  -22.5910  -44.5970 C   0  0  0  0  0  0  0  0  0  0  0  0
   13.3690  -23.6350  -45.3010 O   0  0  0  0  0  0  0  0  0  0  0  0
   14.3510  -21.7450  -44.6180 N   0  0  0  0  0  0  0  0  0  0  0  0
   14.3530  -20.6130  -43.8910 C   0  0  0  0  0  0  0  0  0  0  0  0
   15.3420  -19.8100  -43.9110 O   0  0  0  0  0  0  0  0  0  0  0  0
   11.1540  -23.3220  -43.9020 C   0  0  1  0  0  0  0  0  0  0  0  0
   10.0480  -22.9500  -44.9030 C   0  0  1  0  0  0  0  0  0  0  0  0
    8.8360  -23.7670  -44.4340 C   0  0  0  0  0  0  0  0  0  0  0  0
    9.1990  -25.2180  -44.2860 C   0  0  2  0  0  0  0  0  0  0  0  0
   10.4600  -25.4220  -44.7930 O   0  0  0  0  0  0  0  0  0  0  0  0
   11.4770  -24.7420  -44.1280 C   0  0  0  0  0  0  0  0  0  0  0  0
    8.2370  -25.9890  -45.1800 C   0  0  0  0  0  0  0  0  0  0  0  0
    6.9520  -26.2530  -44.4360 C   0  0  0  0  0  0  0  0  0  0  0  0
    6.7900  -25.2870  -43.3370 N   0  0  0  0  0  0  0  0  0  0  0  0
    7.7270  -25.4200  -42.2610 C   0  0  0  0  0  0  0  0  0  0  0  0
    9.0680  -25.7590  -42.9070 C   0  0  0  0  0  0  0  0  0  0  0  0
    5.8180  -24.2870  -43.3560 C   0  0  0  0  0  0  0  0  0  0  0  0
    4.6170  -24.5380  -43.7630 O   0  0  0  0  0  0  0  0  0  0  0  0
    6.0710  -22.9190  -42.9330 C   0  0  1  0  0  0  0  0  0  0  0  0
    6.2150  -22.0430  -44.0710 N   0  0  0  0  0  0  0  0  0  0  0  0
    5.9640  -20.6790  -44.1560 C   0  0  0  0  0  0  0  0  0  0  0  0
    4.8380  -20.1540  -44.2850 O   0  0  0  0  0  0  0  0  0  0  0  0
    7.1020  -19.6770  -44.0930 C   0  0  0  0  0  0  0  0  0  0  0  0
    4.9220  -22.3750  -42.0270 C   0  0  0  0  0  0  0  0  0  0  0  0
    5.4910  -21.6630  -40.8690 C   0  0  0  0  0  0  0  0  0  0  0  0
    5.4630  -21.9780  -39.5840 N   0  0  0  0  0  0  0  0  0  0  0  0
    6.1120  -21.0480  -38.8290 C   0  0  0  0  0  0  0  0  0  0  0  0
    6.5610  -20.1150  -39.6890 N   0  0  0  0  0  0  0  0  0  0  0  0
    6.1920  -20.4710  -40.9380 C   0  0  0  0  0  0  0  0  0  0  0  0
    9.7260  -21.6120  -44.8470 O   0  0  0  0  0  0  0  0  0  0  0  0
   10.4460  -23.2900  -46.3050 C   0  0  0  0  0  0  0  0  0  0  0  0
   11.2900  -21.0640  -42.5210 H   0  0  0  0  0  0  0  0  0  0  0  0
   15.1790  -21.9910  -45.2230 H   0  0  0  0  0  0  0  0  0  0  0  0
   10.6160  -23.2810  -42.9020 H   0  0  0  0  0  0  0  0  0  0  0  0
    8.0180  -23.5820  -45.1570 H   0  0  0  0  0  0  0  0  0  0  0  0
    8.5430  -23.3130  -43.4690 H   0  0  0  0  0  0  0  0  0  0  0  0
   11.6160  -25.2850  -43.1460 H   0  0  0  0  0  0  0  0  0  0  0  0
   12.4000  -24.9730  -44.6870 H   0  0  0  0  0  0  0  0  0  0  0  0
    7.9900  -25.4600  -46.1040 H   0  0  0  0  0  0  0  0  0  0  0  0
    8.7510  -26.9310  -45.4660 H   0  0  0  0  0  0  0  0  0  0  0  0
    6.9310  -27.2520  -43.9470 H   0  0  0  0  0  0  0  0  0  0  0  0
    6.0730  -26.1560  -45.0860 H   0  0  0  0  0  0  0  0  0  0  0  0
    7.8370  -24.5080  -41.6270 H   0  0  0  0  0  0  0  0  0  0  0  0
    7.3980  -26.2390  -41.5950 H   0  0  0  0  0  0  0  0  0  0  0  0
    9.8320  -25.4400  -42.1930 H   0  0  0  0  0  0  0  0  0  0  0  0
    9.1080  -26.8660  -42.9660 H   0  0  0  0  0  0  0  0  0  0  0  0
    6.9500  -22.7510  -42.2660 H   0  0  0  0  0  0  0  0  0  0  0  0
    6.5590  -22.5280  -44.9570 H   0  0  0  0  0  0  0  0  0  0  0  0
    6.8890  -18.8010  -44.7060 H   0  0  0  0  0  0  0  0  0  0  0  0
    7.2440  -19.3600  -43.0380 H   0  0  0  0  0  0  0  0  0  0  0  0
    8.0330  -20.1660  -44.4220 H   0  0  0  0  0  0  0  0  0  0  0  0
    4.2690  -21.7140  -42.5850 H   0  0  0  0  0  0  0  0  0  0  0  0
    4.3250  -23.2600  -41.6810 H   0  0  0  0  0  0  0  0  0  0  0  0
    6.2310  -21.0750  -37.7480 H   0  0  0  0  0  0  0  0  0  0  0  0
    7.1020  -19.2690  -39.3880 H   0  0  0  0  0  0  0  0  0  0  0  0
    6.4290  -19.8880  -41.8160 H   0  0  0  0  0  0  0  0  0  0  0  0
    9.7460  -21.3120  -43.9030 H   0  0  0  0  0  0  0  0  0  0  0  0
   10.5320  -22.3770  -46.9580 H   0  0  0  0  0  0  0  0  0  0  0  0
   11.4430  -23.7900  -46.3710 H   0  0  0  0  0  0  0  0  0  0  0  0
    9.7260  -23.9530  -46.7870 H   0  0  0  0  0  0  0  0  0  0  0  0
  2  3  2  0  0  0  0
  2  1  1  0  0  0  0
  3 36  1  0  0  0  0
  4  3  1  0  0  0  0
  5  4  1  0  0  0  0
  6  5  2  0  0  0  0
  7  5  1  0  0  0  0
  7  8  1  0  0  0  0
  8  2  1  0  0  0  0
  9  8  2  0  0  0  0
 10  4  1  0  0  0  0
 10 38  1  1  0  0  0
 11 34  1  1  0  0  0
 11 12  1  0  0  0  0
 11 10  1  0  0  0  0
 12 13  1  0  0  0  0
 12 40  1  0  0  0  0
 13 14  1  6  0  0  0
 13 20  1  0  0  0  0
 14 15  1  0  0  0  0
 15 10  1  0  0  0  0
 15 41  1  0  0  0  0
 16 17  1  0  0  0  0
 16 13  1  0  0  0  0
 17 45  1  0  0  0  0
 17 18  1  0  0  0  0
 18 19  1  0  0  0  0
 19 47  1  0  0  0  0
 19 48  1  0  0  0  0
 20 19  1  0  0  0  0
 20 49  1  0  0  0  0
 21 18  1  0  0  0  0
 21 23  1  0  0  0  0
 22 21  2  0  0  0  0
 23 51  1  1  0  0  0
 23 28  1  0  0  0  0
 24 23  1  0  0  0  0
 25 27  1  0  0  0  0
 25 24  1  0  0  0  0
 26 25  2  0  0  0  0
 27 54  1  0  0  0  0
 28 57  1  0  0  0  0
 28 29  1  0  0  0  0
 29 30  1  0  0  0  0
 30 31  2  0  0  0  0
 31 58  1  0  0  0  0
 32 59  1  0  0  0  0
 32 31  1  0  0  0  0
 33 29  2  0  0  0  0
 33 32  1  0  0  0  0
 34 61  1  0  0  0  0
 35 11  1  0  0  0  0
 37  7  1  0  0  0  0
 39 12  1  0  0  0  0
 42 15  1  0  0  0  0
 43 16  1  0  0  0  0
 44 16  1  0  0  0  0
 46 17  1  0  0  0  0
 50 20  1  0  0  0  0
 52 24  1  0  0  0  0
 53 27  1  0  0  0  0
 55 27  1  0  0  0  0
 56 28  1  0  0  0  0
 60 33  1  0  0  0  0
 62 35  1  0  0  0  0
 63 35  1  0  0  0  0
 64 35  1  0  0  0  0
M  END
>  <Pose>
1

>  <Score>
-3.73

$$$$
