
 OpenBabel03232221553D

 45 48  0  0  0  0  0  0  0  0999 V2000
   14.4480  -24.2720  -42.8930 B   0  0  0  0  0  0  0  0  0  0  0  0
   12.6080  -24.2770  -43.4080 C   0  0  0  0  0  0  0  0  0  0  0  0
   11.7450  -25.1580  -42.7940 C   0  0  0  0  0  0  0  0  0  0  0  0
   10.4500  -25.1640  -43.1540 N   0  0  0  0  0  0  0  0  0  0  0  0
    9.9720  -24.3290  -44.0990 C   0  0  0  0  0  0  0  0  0  0  0  0
    8.6630  -24.3520  -44.4470 N   0  0  0  0  0  0  0  0  0  0  0  0
    7.7850  -25.1940  -43.8750 C   0  0  0  0  0  0  0  0  0  0  0  0
    8.2540  -26.0520  -42.9080 C   0  0  0  0  0  0  0  0  0  0  0  0
    9.6060  -26.0290  -42.5490 C   0  0  0  0  0  0  0  0  0  0  0  0
   10.0400  -26.8000  -41.6770 O   0  0  0  0  0  0  0  0  0  0  0  0
    6.3530  -25.2090  -44.2640 C   0  0  0  0  0  0  0  0  0  0  0  0
    5.5650  -25.0760  -43.0960 O   0  0  0  0  0  0  0  0  0  0  0  0
    4.4680  -24.2510  -43.0240 C   0  0  0  0  0  0  0  0  0  0  0  0
    3.3590  -24.7590  -42.7160 O   0  0  0  0  0  0  0  0  0  0  0  0
    4.4960  -22.7880  -43.2870 C   0  0  0  0  0  0  0  0  0  0  0  0
    4.9520  -22.0350  -42.1570 N   0  0  0  0  0  0  0  0  0  0  0  0
    6.2680  -22.0430  -41.6050 C   0  0  0  0  0  0  0  0  0  0  0  0
    7.2340  -22.7300  -42.0450 O   0  0  0  0  0  0  0  0  0  0  0  0
    6.2850  -21.1550  -40.4930 N   0  0  0  0  0  0  0  0  0  0  0  0
    4.9410  -20.7030  -40.2380 C   0  0  0  0  0  0  0  0  0  0  0  0
    4.3550  -21.2880  -38.9810 C   0  0  0  0  0  0  0  0  0  0  0  0
    3.2310  -20.3540  -38.6590 C   0  0  0  0  0  0  0  0  0  0  0  0
    3.4290  -19.0990  -39.4580 C   0  0  0  0  0  0  0  0  0  0  0  0
    4.8330  -19.2340  -40.0060 C   0  0  0  0  0  0  0  0  0  0  0  0
    4.1490  -21.1390  -41.3860 C   0  0  0  0  0  0  0  0  0  0  0  0
    2.9760  -20.8190  -41.6910 O   0  0  0  0  0  0  0  0  0  0  0  0
   10.8330  -23.4440  -44.7190 C   0  0  0  0  0  0  0  0  0  0  0  0
   12.1680  -23.3990  -44.3870 C   0  0  0  0  0  0  0  0  0  0  0  0
   12.0820  -25.8470  -42.0290 H   0  0  0  0  0  0  0  0  0  0  0  0
    7.5690  -26.7420  -42.4300 H   0  0  0  0  0  0  0  0  0  0  0  0
    6.1470  -24.3510  -44.9310 H   0  0  0  0  0  0  0  0  0  0  0  0
    6.1190  -26.1620  -44.7920 H   0  0  0  0  0  0  0  0  0  0  0  0
    5.0950  -22.5790  -44.2020 H   0  0  0  0  0  0  0  0  0  0  0  0
    3.4420  -22.5050  -43.5470 H   0  0  0  0  0  0  0  0  0  0  0  0
    7.1430  -20.8970  -39.9760 H   0  0  0  0  0  0  0  0  0  0  0  0
    3.9320  -22.2970  -39.2580 H   0  0  0  0  0  0  0  0  0  0  0  0
    5.0720  -21.4070  -38.1670 H   0  0  0  0  0  0  0  0  0  0  0  0
    3.3020  -20.0770  -37.5700 H   0  0  0  0  0  0  0  0  0  0  0  0
    2.2470  -20.8390  -38.8540 H   0  0  0  0  0  0  0  0  0  0  0  0
    3.3380  -18.1860  -38.8270 H   0  0  0  0  0  0  0  0  0  0  0  0
    2.6840  -18.9810  -40.2830 H   0  0  0  0  0  0  0  0  0  0  0  0
    4.9780  -18.6160  -40.9130 H   0  0  0  0  0  0  0  0  0  0  0  0
    5.5420  -18.9090  -39.2080 H   0  0  0  0  0  0  0  0  0  0  0  0
   10.4230  -22.7900  -45.4710 H   0  0  0  0  0  0  0  0  0  0  0  0
   12.8560  -22.7130  -44.8590 H   0  0  0  0  0  0  0  0  0  0  0  0
  2  1  1  0  0  0  0
  2  3  1  0  0  0  0
  3 29  1  0  0  0  0
  4  3  1  0  0  0  0
  4  9  1  0  0  0  0
  5  4  1  0  0  0  0
  6  5  1  0  0  0  0
  6  7  2  0  0  0  0
  7  8  1  0  0  0  0
  8  9  1  0  0  0  0
  8 30  1  0  0  0  0
  9 10  2  0  0  0  0
 11  7  1  0  0  0  0
 11 12  1  0  0  0  0
 12 13  1  0  0  0  0
 13 14  2  0  0  0  0
 15 13  1  0  0  0  0
 15 16  1  0  0  0  0
 16 17  1  0  0  0  0
 16 25  1  0  0  0  0
 17 19  1  0  0  0  0
 18 17  2  0  0  0  0
 19 20  1  0  0  0  0
 19 35  1  0  0  0  0
 20 24  1  0  0  0  0
 20 21  1  0  0  0  0
 21 22  1  0  0  0  0
 21 37  1  0  0  0  0
 22 38  1  0  0  0  0
 23 40  1  0  0  0  0
 23 22  1  0  0  0  0
 24 23  1  0  0  0  0
 24 43  1  0  0  0  0
 25 20  1  0  0  0  0
 26 25  2  0  0  0  0
 27 28  1  0  0  0  0
 27  5  2  0  0  0  0
 28  2  2  0  0  0  0
 31 11  1  0  0  0  0
 32 11  1  0  0  0  0
 33 15  1  0  0  0  0
 34 15  1  0  0  0  0
 36 21  1  0  0  0  0
 39 22  1  0  0  0  0
 41 23  1  0  0  0  0
 42 24  1  0  0  0  0
 44 27  1  0  0  0  0
 45 28  1  0  0  0  0
M  END
>  <Pose>
1

>  <Score>
-4.60

$$$$
