
 OpenBabel03232221553D

 53 56  0  0  1  0  0  0  0  0999 V2000
    3.0470  -19.6090  -47.6420 B   0  0  0  0  0  0  0  0  0  0  0  0
    4.1410  -19.7320  -46.1020 C   0  0  0  0  0  0  0  0  0  0  0  0
    5.4170  -19.2020  -46.1310 C   0  0  0  0  0  0  0  0  0  0  0  0
    6.2280  -19.2750  -45.0180 C   0  0  0  0  0  0  0  0  0  0  0  0
    5.7810  -19.8750  -43.8630 C   0  0  0  0  0  0  0  0  0  0  0  0
    4.5230  -20.3970  -43.8380 C   0  0  0  0  0  0  0  0  0  0  0  0
    3.6830  -20.3340  -44.9570 C   0  0  0  0  0  0  0  0  0  0  0  0
    6.6220  -19.9850  -42.6370 C   0  0  2  0  0  0  0  0  0  0  0  0
    6.2400  -21.1560  -41.8520 N   0  0  0  0  0  4  0  0  0  0  0  0
    5.4180  -20.7730  -40.8200 C   0  0  0  0  0  0  0  0  0  0  0  0
    5.1040  -21.4070  -39.7180 C   0  0  0  0  0  0  0  0  0  0  0  0
    4.2300  -21.0960  -38.5490 C   0  0  0  0  0  0  0  0  0  0  0  0
    3.7010  -19.6960  -38.5350 C   0  0  0  0  0  0  0  0  0  0  0  0
    2.9230  -19.3820  -39.7920 C   0  0  0  0  0  0  0  0  0  0  0  0
    3.8190  -18.6740  -40.7900 C   0  0  0  0  0  0  0  0  0  0  0  0
    5.0030  -19.4130  -41.0860 N   0  0  0  0  0  0  0  0  0  0  0  0
    6.1270  -18.7740  -41.7840 C   0  0  0  0  0  0  0  0  0  0  0  0
    6.1390  -22.3370  -42.5380 C   0  0  0  0  0  0  0  0  0  0  0  0
    5.0630  -23.1730  -42.5290 C   0  0  0  0  0  0  0  0  0  0  0  0
    5.0830  -24.4520  -43.1100 C   0  0  0  0  0  0  0  0  0  0  0  0
    6.2120  -24.9250  -43.7250 C   0  0  0  0  0  0  0  0  0  0  0  0
    7.3120  -24.0790  -43.7410 C   0  0  0  0  0  0  0  0  0  0  0  0
    7.2880  -22.8260  -43.1680 C   0  0  0  0  0  0  0  0  0  0  0  0
    6.2540  -26.1870  -44.2940 O   0  0  0  0  0  0  0  0  0  0  0  0
    5.6220  -26.5590  -45.4930 C   0  0  0  0  0  0  0  0  0  0  0  0
    5.3440  -28.0690  -45.3630 C   0  0  0  0  0  0  0  0  0  0  0  0
    7.9470  -19.8500  -42.7930 O   0  0  0  0  0  0  0  0  0  0  0  0
    5.8210  -18.7160  -47.0040 H   0  0  0  0  0  0  0  0  0  0  0  0
    7.2260  -18.8340  -45.0960 H   0  0  0  0  0  0  0  0  0  0  0  0
    4.1650  -20.8690  -42.9450 H   0  0  0  0  0  0  0  0  0  0  0  0
    2.6800  -20.7400  -44.9470 H   0  0  0  0  0  0  0  0  0  0  0  0
    7.2240  -21.3040  -41.2970 H   0  0  0  0  0  0  0  0  0  0  0  0
    5.6030  -22.3610  -39.5610 H   0  0  0  0  0  0  0  0  0  0  0  0
    4.8010  -21.2610  -37.6190 H   0  0  0  0  0  0  0  0  0  0  0  0
    3.3360  -21.7730  -38.6150 H   0  0  0  0  0  0  0  0  0  0  0  0
    4.4400  -18.9480  -38.2750 H   0  0  0  0  0  0  0  0  0  0  0  0
    2.9370  -19.6750  -37.7020 H   0  0  0  0  0  0  0  0  0  0  0  0
    2.4610  -20.2760  -40.1920 H   0  0  0  0  0  0  0  0  0  0  0  0
    2.1040  -18.6420  -39.5370 H   0  0  0  0  0  0  0  0  0  0  0  0
    3.2440  -18.3040  -41.6510 H   0  0  0  0  0  0  0  0  0  0  0  0
    4.1610  -17.7430  -40.2420 H   0  0  0  0  0  0  0  0  0  0  0  0
    6.8770  -18.4510  -41.0680 H   0  0  0  0  0  0  0  0  0  0  0  0
    5.7390  -17.9890  -42.4240 H   0  0  0  0  0  0  0  0  0  0  0  0
    4.1210  -22.8880  -42.1040 H   0  0  0  0  0  0  0  0  0  0  0  0
    4.1970  -25.0570  -43.0540 H   0  0  0  0  0  0  0  0  0  0  0  0
    8.2530  -24.3820  -44.2210 H   0  0  0  0  0  0  0  0  0  0  0  0
    8.2140  -22.2310  -43.2070 H   0  0  0  0  0  0  0  0  0  0  0  0
    6.3270  -26.4090  -46.3760 H   0  0  0  0  0  0  0  0  0  0  0  0
    4.7250  -25.9690  -45.7010 H   0  0  0  0  0  0  0  0  0  0  0  0
    4.2490  -28.1220  -45.2290 H   0  0  0  0  0  0  0  0  0  0  0  0
    5.8220  -28.4810  -44.4570 H   0  0  0  0  0  0  0  0  0  0  0  0
    5.7240  -28.6400  -46.2230 H   0  0  0  0  0  0  0  0  0  0  0  0
    8.4930  -19.4650  -42.0920 H   0  0  0  0  0  0  0  0  0  0  0  0
  1  2  1  0  0  0  0
  2  7  1  0  0  0  0
  3  2  2  0  0  0  0
  3  4  1  0  0  0  0
  4  5  2  0  0  0  0
  5  6  1  0  0  0  0
  5  8  1  0  0  0  0
  6 30  1  0  0  0  0
  7 31  1  0  0  0  0
  7  6  2  0  0  0  0
  8 27  1  6  0  0  0
  8  9  1  0  0  0  0
  8 17  1  0  0  0  0
  9 32  1  0  0  0  0
  9 10  1  0  0  0  0
 10 11  2  0  0  0  0
 11 33  1  0  0  0  0
 11 12  1  0  0  0  0
 12 13  1  0  0  0  0
 12 34  1  0  0  0  0
 13 36  1  0  0  0  0
 13 37  1  0  0  0  0
 14 39  1  0  0  0  0
 14 13  1  0  0  0  0
 15 41  1  0  0  0  0
 15 14  1  0  0  0  0
 16 10  1  0  0  0  0
 16 15  1  0  0  0  0
 17 16  1  0  0  0  0
 17 42  1  0  0  0  0
 18 19  1  0  0  0  0
 18  9  1  0  0  0  0
 19 44  1  0  0  0  0
 20 45  1  0  0  0  0
 20 19  2  0  0  0  0
 21 20  1  0  0  0  0
 22 21  2  0  0  0  0
 22 23  1  0  0  0  0
 23 18  2  0  0  0  0
 24 21  1  0  0  0  0
 25 26  1  0  0  0  0
 25 24  1  0  0  0  0
 26 50  1  0  0  0  0
 26 51  1  0  0  0  0
 27 53  1  0  0  0  0
 28  3  1  0  0  0  0
 29  4  1  0  0  0  0
 35 12  1  0  0  0  0
 38 14  1  0  0  0  0
 40 15  1  0  0  0  0
 43 17  1  0  0  0  0
 46 22  1  0  0  0  0
 47 23  1  0  0  0  0
 48 25  1  0  0  0  0
 49 25  1  0  0  0  0
 52 26  1  0  0  0  0
M  END
>  <Pose>
1

>  <Score>
-3.10

$$$$
