
 OpenBabel03232221553D

 47 50  0  0  1  0  0  0  0  0999 V2000
    0.9460  -17.4720  -36.9070 B   0  0  0  0  0  0  0  0  0  0  0  0
    2.3320  -18.3530  -37.8780 C   0  0  0  0  0  0  0  0  0  0  0  0
    3.4090  -18.9360  -37.2380 C   0  0  0  0  0  0  0  0  0  0  0  0
    4.4010  -19.5720  -37.9560 C   0  0  0  0  0  0  0  0  0  0  0  0
    4.3860  -19.6660  -39.3310 C   0  0  0  0  0  0  0  0  0  0  0  0
    3.2990  -19.0760  -39.9650 C   0  0  0  0  0  0  0  0  0  0  0  0
    2.3000  -18.4370  -39.2530 C   0  0  0  0  0  0  0  0  0  0  0  0
    5.4660  -20.3520  -40.0370 C   0  0  2  0  0  0  0  0  0  0  0  0
    5.5580  -20.0520  -41.4440 N   0  0  0  0  0  0  0  0  0  0  0  0
    5.2520  -18.9050  -42.2880 C   0  0  0  0  0  0  0  0  0  0  0  0
    6.0980  -18.7750  -43.4940 C   0  0  0  0  0  0  0  0  0  0  0  0
    7.2250  -19.7710  -43.6150 C   0  0  0  0  0  0  0  0  0  0  0  0
    6.8840  -21.0930  -43.0980 C   0  0  0  0  0  0  0  0  0  0  0  0
    6.0840  -21.2200  -42.0560 C   0  0  0  0  0  0  0  0  0  0  0  0
    5.5840  -22.3490  -41.3470 N   0  0  0  0  0  4  0  0  0  0  0  0
    5.3160  -21.8560  -40.0310 C   0  0  0  0  0  0  0  0  0  0  0  0
    4.4900  -22.8660  -42.0290 C   0  0  0  0  0  0  0  0  0  0  0  0
    4.6470  -23.8810  -42.9420 C   0  0  0  0  0  0  0  0  0  0  0  0
    3.5390  -24.4020  -43.6310 C   0  0  0  0  0  0  0  0  0  0  0  0
    2.2760  -23.9240  -43.4230 C   0  0  0  0  0  0  0  0  0  0  0  0
    2.1190  -22.8850  -42.4870 C   0  0  0  0  0  0  0  0  0  0  0  0
    3.2270  -22.3960  -41.8260 C   0  0  0  0  0  0  0  0  0  0  0  0
    1.1340  -24.3930  -44.0700 O   0  0  0  0  0  0  0  0  0  0  0  0
    0.3490  -25.4730  -43.6820 C   0  0  0  0  0  0  0  0  0  0  0  0
    6.6890  -19.9670  -39.4520 O   0  0  0  0  0  0  0  0  0  0  0  0
    3.4270  -18.8660  -36.1560 H   0  0  0  0  0  0  0  0  0  0  0  0
    5.2440  -20.0260  -37.4270 H   0  0  0  0  0  0  0  0  0  0  0  0
    3.2560  -19.1290  -41.0380 H   0  0  0  0  0  0  0  0  0  0  0  0
    1.4460  -17.9750  -39.7450 H   0  0  0  0  0  0  0  0  0  0  0  0
    5.3310  -17.9550  -41.6900 H   0  0  0  0  0  0  0  0  0  0  0  0
    4.1670  -18.9230  -42.5960 H   0  0  0  0  0  0  0  0  0  0  0  0
    6.4800  -17.7260  -43.6110 H   0  0  0  0  0  0  0  0  0  0  0  0
    5.4680  -18.9330  -44.4190 H   0  0  0  0  0  0  0  0  0  0  0  0
    7.5780  -19.8650  -44.6620 H   0  0  0  0  0  0  0  0  0  0  0  0
    8.0910  -19.3410  -43.0400 H   0  0  0  0  0  0  0  0  0  0  0  0
    7.2880  -21.9660  -43.5700 H   0  0  0  0  0  0  0  0  0  0  0  0
    6.3640  -23.0600  -41.3240 H   0  0  0  0  0  0  0  0  0  0  0  0
    6.0890  -22.2470  -39.3320 H   0  0  0  0  0  0  0  0  0  0  0  0
    4.3450  -22.1830  -39.6170 H   0  0  0  0  0  0  0  0  0  0  0  0
    5.6040  -24.3210  -43.1710 H   0  0  0  0  0  0  0  0  0  0  0  0
    3.6770  -25.2050  -44.3490 H   0  0  0  0  0  0  0  0  0  0  0  0
    1.1160  -22.5080  -42.3200 H   0  0  0  0  0  0  0  0  0  0  0  0
    3.0810  -21.6070  -41.1210 H   0  0  0  0  0  0  0  0  0  0  0  0
    0.6640  -25.9700  -42.7720 H   0  0  0  0  0  0  0  0  0  0  0  0
    0.2020  -26.1700  -44.5420 H   0  0  0  0  0  0  0  0  0  0  0  0
   -0.6900  -25.0830  -43.4670 H   0  0  0  0  0  0  0  0  0  0  0  0
    7.0990  -19.3260  -40.0840 H   0  0  0  0  0  0  0  0  0  0  0  0
  2  3  1  0  0  0  0
  2  1  1  0  0  0  0
  3 26  1  0  0  0  0
  4 27  1  0  0  0  0
  4  3  2  0  0  0  0
  5  4  1  0  0  0  0
  6  5  2  0  0  0  0
  6  7  1  0  0  0  0
  7  2  2  0  0  0  0
  8 16  1  0  0  0  0
  8 25  1  1  0  0  0
  8  5  1  0  0  0  0
  9  8  1  0  0  0  0
 10 30  1  0  0  0  0
 10  9  1  0  0  0  0
 11 10  1  0  0  0  0
 12 11  1  0  0  0  0
 12 13  1  0  0  0  0
 12 35  1  0  0  0  0
 13 14  2  0  0  0  0
 14  9  1  0  0  0  0
 14 15  1  0  0  0  0
 15 37  1  0  0  0  0
 15 16  1  0  0  0  0
 16 39  1  0  0  0  0
 16 38  1  0  0  0  0
 17 22  1  0  0  0  0
 17 15  1  0  0  0  0
 18 17  2  0  0  0  0
 19 20  2  0  0  0  0
 19 18  1  0  0  0  0
 20 21  1  0  0  0  0
 21 42  1  0  0  0  0
 21 22  2  0  0  0  0
 22 43  1  0  0  0  0
 23 24  1  0  0  0  0
 23 20  1  0  0  0  0
 24 46  1  0  0  0  0
 24 44  1  0  0  0  0
 28  6  1  0  0  0  0
 29  7  1  0  0  0  0
 31 10  1  0  0  0  0
 32 11  1  0  0  0  0
 33 11  1  0  0  0  0
 34 12  1  0  0  0  0
 36 13  1  0  0  0  0
 40 18  1  0  0  0  0
 41 19  1  0  0  0  0
 45 24  1  0  0  0  0
 47 25  1  0  0  0  0
M  END
>  <Pose>
1

>  <Score>
-3.41

$$$$
