
 OpenBabel03232221553D

 56 59  0  0  1  0  0  0  0  0999 V2000
    1.5590  -19.4530  -37.9320 B   0  0  0  0  0  0  0  0  0  0  0  0
    3.1550  -19.4810  -38.9630 C   0  0  0  0  0  0  0  0  0  0  0  0
    4.3470  -19.9220  -38.3960 C   0  0  0  0  0  0  0  0  0  0  0  0
    5.4970  -19.9410  -39.1390 C   0  0  0  0  0  0  0  0  0  0  0  0
    5.4810  -19.5230  -40.4520 C   0  0  0  0  0  0  0  0  0  0  0  0
    4.2920  -19.0900  -40.9980 C   0  0  0  0  0  0  0  0  0  0  0  0
    3.1190  -19.0580  -40.2790 C   0  0  0  0  0  0  0  0  0  0  0  0
    6.6840  -19.5370  -41.2320 N   0  0  0  0  0  0  0  0  0  0  0  0
    6.6900  -19.8110  -42.6550 C   0  0  0  0  0  0  0  0  0  0  0  0
    8.0420  -19.6170  -43.2730 C   0  0  0  0  0  0  0  0  0  0  0  0
    8.5620  -18.5380  -43.8790 N   0  0  0  0  0  0  0  0  0  0  0  0
    9.8130  -18.8440  -44.2710 C   0  0  1  0  0  0  0  0  0  0  0  0
   10.0730  -20.1410  -43.8980 N   0  0  0  0  0  0  0  0  0  0  0  0
    8.9780  -20.5730  -43.2980 N   0  0  0  0  0  0  0  0  0  0  0  0
   11.2270  -20.9150  -44.1320 C   0  0  0  0  0  0  0  0  0  0  0  0
   12.4460  -20.5530  -43.4570 C   0  0  2  0  0  0  0  0  0  0  0  0
   13.2270  -21.6070  -43.2160 O   0  0  0  0  0  0  0  0  0  0  0  0
   13.0080  -19.3190  -42.9860 C   0  0  0  0  0  0  0  0  0  0  0  0
   12.9130  -18.9620  -41.6230 C   0  0  0  0  0  0  0  0  0  0  0  0
   13.4260  -17.7950  -41.1220 C   0  0  0  0  0  0  0  0  0  0  0  0
   14.0710  -16.9010  -41.9400 C   0  0  0  0  0  0  0  0  0  0  0  0
   14.1850  -17.2090  -43.2680 C   0  0  0  0  0  0  0  0  0  0  0  0
   13.6530  -18.4110  -43.7690 C   0  0  0  0  0  0  0  0  0  0  0  0
   14.5930  -15.7150  -41.4280 O   0  0  0  0  0  0  0  0  0  0  0  0
   13.8620  -14.8770  -40.5670 C   0  0  0  0  0  0  0  0  0  0  0  0
   10.8480  -18.0810  -44.9740 C   0  0  0  0  0  0  0  0  0  0  0  0
   10.8630  -16.6050  -44.6770 C   0  0  0  0  0  0  0  0  0  0  0  0
    9.6030  -15.9020  -45.0620 C   0  0  0  0  0  0  0  0  0  0  0  0
    8.6350  -16.0620  -43.9120 C   0  0  0  0  0  0  0  0  0  0  0  0
    7.8230  -17.3280  -44.0320 C   0  0  0  0  0  0  0  0  0  0  0  0
    4.3120  -20.2420  -37.3510 H   0  0  0  0  0  0  0  0  0  0  0  0
    6.4080  -20.2820  -38.6980 H   0  0  0  0  0  0  0  0  0  0  0  0
    4.2760  -18.7650  -42.0190 H   0  0  0  0  0  0  0  0  0  0  0  0
    2.1720  -18.7240  -40.6840 H   0  0  0  0  0  0  0  0  0  0  0  0
    7.5700  -19.3390  -40.7180 H   0  0  0  0  0  0  0  0  0  0  0  0
    6.3090  -20.8460  -42.8720 H   0  0  0  0  0  0  0  0  0  0  0  0
    5.9570  -19.1320  -43.1410 H   0  0  0  0  0  0  0  0  0  0  0  0
   11.4040  -21.0510  -45.2600 H   0  0  0  0  0  0  0  0  0  0  0  0
   11.0410  -22.0220  -43.8490 H   0  0  0  0  0  0  0  0  0  0  0  0
   12.4060  -19.6620  -40.9740 H   0  0  0  0  0  0  0  0  0  0  0  0
   13.3200  -17.5820  -40.0610 H   0  0  0  0  0  0  0  0  0  0  0  0
   14.6920  -16.5110  -43.9280 H   0  0  0  0  0  0  0  0  0  0  0  0
   13.7900  -18.5480  -44.8010 H   0  0  0  0  0  0  0  0  0  0  0  0
   12.8610  -14.6730  -41.0150 H   0  0  0  0  0  0  0  0  0  0  0  0
   14.3930  -13.9050  -40.5010 H   0  0  0  0  0  0  0  0  0  0  0  0
   13.7590  -15.3040  -39.5510 H   0  0  0  0  0  0  0  0  0  0  0  0
   10.7570  -18.1950  -46.0740 H   0  0  0  0  0  0  0  0  0  0  0  0
   11.8420  -18.4650  -44.6640 H   0  0  0  0  0  0  0  0  0  0  0  0
   11.6880  -16.1700  -45.2860 H   0  0  0  0  0  0  0  0  0  0  0  0
   11.1150  -16.3860  -43.6210 H   0  0  0  0  0  0  0  0  0  0  0  0
    9.8140  -14.8070  -45.1720 H   0  0  0  0  0  0  0  0  0  0  0  0
    9.1390  -16.3100  -45.9630 H   0  0  0  0  0  0  0  0  0  0  0  0
    7.9200  -15.2170  -43.9690 H   0  0  0  0  0  0  0  0  0  0  0  0
    9.1370  -15.9800  -42.9190 H   0  0  0  0  0  0  0  0  0  0  0  0
    7.3610  -17.3110  -45.0410 H   0  0  0  0  0  0  0  0  0  0  0  0
    7.0660  -17.2760  -43.2220 H   0  0  0  0  0  0  0  0  0  0  0  0
  2  3  1  0  0  0  0
  2  1  1  0  0  0  0
  3 31  1  0  0  0  0
  4 32  1  0  0  0  0
  4  3  2  0  0  0  0
  5  4  1  0  0  0  0
  6  5  2  0  0  0  0
  6  7  1  0  0  0  0
  7  2  2  0  0  0  0
  8 35  1  0  0  0  0
  8  5  1  0  0  0  0
  9  8  1  0  0  0  0
 10  9  1  0  0  0  0
 11 10  1  0  0  0  0
 12 26  1  6  0  0  0
 12 13  1  0  0  0  0
 12 11  1  0  0  0  0
 13 14  1  0  0  0  0
 14 10  2  0  0  0  0
 15 13  1  0  0  0  0
 15 39  1  0  0  0  0
 15 16  1  0  0  0  0
 16 17  1  1  0  0  0
 16 18  1  0  0  0  0
 18 19  1  0  0  0  0
 19 20  2  0  0  0  0
 19 40  1  0  0  0  0
 20 41  1  0  0  0  0
 21 24  1  0  0  0  0
 21 20  1  0  0  0  0
 22 21  2  0  0  0  0
 23 22  1  0  0  0  0
 23 18  2  0  0  0  0
 24 25  1  0  0  0  0
 25 45  1  0  0  0  0
 25 46  1  0  0  0  0
 26 27  1  0  0  0  0
 26 48  1  0  0  0  0
 27 50  1  0  0  0  0
 28 27  1  0  0  0  0
 28 29  1  0  0  0  0
 29 54  1  0  0  0  0
 30 29  1  0  0  0  0
 30 11  1  0  0  0  0
 30 56  1  0  0  0  0
 33  6  1  0  0  0  0
 34  7  1  0  0  0  0
 36  9  1  0  0  0  0
 37  9  1  0  0  0  0
 38 15  1  0  0  0  0
 42 22  1  0  0  0  0
 43 23  1  0  0  0  0
 44 25  1  0  0  0  0
 47 26  1  0  0  0  0
 49 27  1  0  0  0  0
 51 28  1  0  0  0  0
 52 28  1  0  0  0  0
 53 29  1  0  0  0  0
 55 30  1  0  0  0  0
M  END
>  <Pose>
1

>  <Score>
-4.85

$$$$
