
 OpenBabel03232221553D

 55 58  0  0  1  0  0  0  0  0999 V2000
    5.4130  -26.2650  -44.6040 B   0  0  0  0  0  0  0  0  0  0  0  0
    6.1570  -24.5650  -44.1300 C   0  0  0  0  0  0  0  0  0  0  0  0
    5.3720  -23.4340  -44.0320 C   0  0  0  0  0  0  0  0  0  0  0  0
    5.9110  -22.2140  -43.6910 C   0  0  0  0  0  0  0  0  0  0  0  0
    7.2700  -22.1790  -43.4540 C   0  0  0  0  0  0  0  0  0  0  0  0
    8.0600  -23.3060  -43.5500 C   0  0  0  0  0  0  0  0  0  0  0  0
    7.5150  -24.5260  -43.8920 C   0  0  0  0  0  0  0  0  0  0  0  0
    8.3780  -25.7380  -43.9920 C   0  0  0  0  0  0  0  0  0  0  0  0
    7.7920  -20.9330  -43.1110 O   0  0  0  0  0  0  0  0  0  0  0  0
    7.1240  -19.7300  -43.2940 C   0  0  0  0  0  0  0  0  0  0  0  0
    5.6400  -19.7910  -43.1610 C   0  0  2  0  0  0  0  0  0  0  0  0
    5.0090  -21.0610  -43.6100 C   0  0  2  0  0  0  0  0  0  0  0  0
    3.9520  -21.4330  -42.7450 O   0  0  0  0  0  0  0  0  0  0  0  0
    5.1260  -18.7330  -44.0370 N   0  0  0  0  0  4  0  0  0  0  0  0
    5.7400  -17.4690  -43.8160 C   0  0  0  0  0  0  0  0  0  0  0  0
    5.3780  -16.5990  -45.0300 C   0  0  0  0  0  0  0  0  0  0  0  0
    4.0040  -16.4370  -44.9950 O   0  0  0  0  0  0  0  0  0  0  0  0
    3.3060  -17.6350  -45.0910 C   0  0  0  0  0  0  0  0  0  0  0  0
    3.7040  -18.5920  -43.9580 C   0  0  0  0  0  0  0  0  0  0  0  0
    5.1640  -19.4540  -41.7620 C   0  0  0  0  0  0  0  0  0  0  0  0
    6.1060  -19.7810  -40.7360 N   0  0  0  0  0  4  0  0  0  0  0  0
    5.8200  -19.1150  -39.4780 C   0  0  0  0  0  0  0  0  0  0  0  0
    5.9460  -20.0620  -38.2950 C   0  0  0  0  0  0  0  0  0  0  0  0
    5.0260  -21.0960  -38.3480 O   0  0  0  0  0  0  0  0  0  0  0  0
    4.7810  -21.4910  -39.6600 C   0  0  0  0  0  0  0  0  0  0  0  0
    6.0500  -21.2220  -40.4420 C   0  0  0  0  0  0  0  0  0  0  0  0
    4.2980  -23.5140  -44.2310 H   0  0  0  0  0  0  0  0  0  0  0  0
    9.1220  -23.2530  -43.3590 H   0  0  0  0  0  0  0  0  0  0  0  0
    8.8810  -25.7810  -44.9840 H   0  0  0  0  0  0  0  0  0  0  0  0
    9.1660  -25.7470  -43.2220 H   0  0  0  0  0  0  0  0  0  0  0  0
    7.7250  -26.6330  -43.9270 H   0  0  0  0  0  0  0  0  0  0  0  0
    7.5510  -18.9870  -42.5850 H   0  0  0  0  0  0  0  0  0  0  0  0
    7.4210  -19.3440  -44.3150 H   0  0  0  0  0  0  0  0  0  0  0  0
    4.5040  -20.9610  -44.6160 H   0  0  0  0  0  0  0  0  0  0  0  0
    4.2340  -22.0890  -42.0750 H   0  0  0  0  0  0  0  0  0  0  0  0
    5.3580  -19.0440  -45.0080 H   0  0  0  0  0  0  0  0  0  0  0  0
    6.8260  -17.4670  -43.7500 H   0  0  0  0  0  0  0  0  0  0  0  0
    5.2540  -16.9420  -42.9460 H   0  0  0  0  0  0  0  0  0  0  0  0
    5.8550  -15.6300  -44.8940 H   0  0  0  0  0  0  0  0  0  0  0  0
    5.7270  -17.1620  -45.9130 H   0  0  0  0  0  0  0  0  0  0  0  0
    2.2330  -17.3990  -45.0660 H   0  0  0  0  0  0  0  0  0  0  0  0
    3.6390  -18.1250  -46.0290 H   0  0  0  0  0  0  0  0  0  0  0  0
    3.3510  -18.0980  -43.0310 H   0  0  0  0  0  0  0  0  0  0  0  0
    3.1450  -19.5300  -44.1340 H   0  0  0  0  0  0  0  0  0  0  0  0
    4.8660  -18.4010  -41.6480 H   0  0  0  0  0  0  0  0  0  0  0  0
    4.2290  -20.0600  -41.5870 H   0  0  0  0  0  0  0  0  0  0  0  0
    7.0930  -19.5860  -40.9610 H   0  0  0  0  0  0  0  0  0  0  0  0
    4.7570  -18.7840  -39.4920 H   0  0  0  0  0  0  0  0  0  0  0  0
    6.5140  -18.2750  -39.2710 H   0  0  0  0  0  0  0  0  0  0  0  0
    6.9810  -20.3910  -38.1210 H   0  0  0  0  0  0  0  0  0  0  0  0
    5.6690  -19.4450  -37.3970 H   0  0  0  0  0  0  0  0  0  0  0  0
    3.9360  -20.8710  -40.0290 H   0  0  0  0  0  0  0  0  0  0  0  0
    4.5300  -22.5640  -39.6440 H   0  0  0  0  0  0  0  0  0  0  0  0
    6.9410  -21.4920  -39.8370 H   0  0  0  0  0  0  0  0  0  0  0  0
    6.1060  -21.8210  -41.3750 H   0  0  0  0  0  0  0  0  0  0  0  0
  1  2  1  0  0  0  0
  2  3  2  0  0  0  0
  2  7  1  0  0  0  0
  3  4  1  0  0  0  0
  4 12  1  0  0  0  0
  4  5  2  0  0  0  0
  5  9  1  0  0  0  0
  6  5  1  0  0  0  0
  6 28  1  0  0  0  0
  7  6  2  0  0  0  0
  8 31  1  0  0  0  0
  8  7  1  0  0  0  0
  8 30  1  0  0  0  0
 10 11  1  0  0  0  0
 10  9  1  0  0  0  0
 10 32  1  0  0  0  0
 11 20  1  1  0  0  0
 12 34  1  6  0  0  0
 12 11  1  0  0  0  0
 12 13  1  0  0  0  0
 13 35  1  0  0  0  0
 14 19  1  0  0  0  0
 14 15  1  0  0  0  0
 14 11  1  0  0  0  0
 15 37  1  0  0  0  0
 15 38  1  0  0  0  0
 16 17  1  0  0  0  0
 16 39  1  0  0  0  0
 16 15  1  0  0  0  0
 18 41  1  0  0  0  0
 18 17  1  0  0  0  0
 18 19  1  0  0  0  0
 19 43  1  0  0  0  0
 20 45  1  0  0  0  0
 20 46  1  0  0  0  0
 20 21  1  0  0  0  0
 21 26  1  0  0  0  0
 21 22  1  0  0  0  0
 22 49  1  0  0  0  0
 22 23  1  0  0  0  0
 23 50  1  0  0  0  0
 23 51  1  0  0  0  0
 24 23  1  0  0  0  0
 25 53  1  0  0  0  0
 25 24  1  0  0  0  0
 26 54  1  0  0  0  0
 26 25  1  0  0  0  0
 27  3  1  0  0  0  0
 29  8  1  0  0  0  0
 33 10  1  0  0  0  0
 36 14  1  0  0  0  0
 40 16  1  0  0  0  0
 42 18  1  0  0  0  0
 44 19  1  0  0  0  0
 47 21  1  0  0  0  0
 48 22  1  0  0  0  0
 52 25  1  0  0  0  0
 55 26  1  0  0  0  0
M  END
>  <Pose>
1

>  <Score>
-3.24

$$$$
