
 OpenBabel03232221553D

 60 63  0  0  0  0  0  0  0  0999 V2000
    8.4060  -19.9620  -43.8690 B   0  0  0  0  0  0  0  0  0  0  0  0
    7.0750  -21.1960  -43.3520 C   0  0  0  0  0  0  0  0  0  0  0  0
    6.3860  -20.9490  -42.1900 C   0  0  0  0  0  0  0  0  0  0  0  0
    5.3740  -21.7940  -41.7040 C   0  0  0  0  0  0  0  0  0  0  0  0
    5.0530  -22.9430  -42.4370 C   0  0  0  0  0  0  0  0  0  0  0  0
    5.7530  -23.1780  -43.6000 C   0  0  0  0  0  0  0  0  0  0  0  0
    6.7460  -22.3330  -44.0600 C   0  0  0  0  0  0  0  0  0  0  0  0
    7.4920  -22.6180  -45.3330 C   0  0  0  0  0  0  0  0  0  0  0  0
    5.3140  -24.7420  -44.5980 B   0  0  0  0  0  0  0  0  0  0  0  0
    4.6850  -21.4860  -40.4660 C   0  0  0  0  0  0  0  0  0  0  0  0
    4.2920  -22.4670  -39.7870 O   0  0  0  0  0  0  0  0  0  0  0  0
    4.5120  -20.0610  -40.1250 C   0  0  0  0  0  0  0  0  0  0  0  0
    6.0360  -19.5930  -40.1590 C   0  0  0  0  0  0  0  0  0  0  0  0
    6.6190  -19.8480  -41.3860 O   0  0  0  0  0  0  0  0  0  0  0  0
    4.0430  -19.7520  -38.7890 C   0  0  0  0  0  0  0  0  0  0  0  0
    2.8090  -20.0180  -38.2170 N   0  0  0  0  0  4  0  0  0  0  0  0
    1.6160  -20.1040  -38.9660 C   0  0  0  0  0  0  0  0  0  0  0  0
    0.3680  -19.7330  -38.1760 C   0  0  0  0  0  0  0  0  0  0  0  0
    0.3660  -18.2900  -37.7830 C   0  0  0  0  0  0  0  0  0  0  0  0
    1.7800  -17.8740  -37.5150 C   0  0  0  0  0  0  0  0  0  0  0  0
    2.5790  -19.0680  -37.1050 C   0  0  0  0  0  0  0  0  0  0  0  0
    3.8160  -19.3570  -41.2270 C   0  0  0  0  0  0  0  0  0  0  0  0
    3.5340  -17.9860  -41.1440 N   0  0  0  0  0  4  0  0  0  0  0  0
    3.3830  -17.4650  -42.5090 C   0  0  0  0  0  0  0  0  0  0  0  0
    3.3690  -15.9510  -42.5430 C   0  0  0  0  0  0  0  0  0  0  0  0
    2.0940  -15.5330  -41.7950 C   0  0  0  0  0  0  0  0  0  0  0  0
    2.2880  -16.0740  -40.3970 C   0  0  0  0  0  0  0  0  0  0  0  0
    2.2920  -17.6090  -40.4900 C   0  0  0  0  0  0  0  0  0  0  0  0
    4.2820  -23.5850  -42.0610 H   0  0  0  0  0  0  0  0  0  0  0  0
    6.7560  -22.4320  -46.1570 H   0  0  0  0  0  0  0  0  0  0  0  0
    8.3720  -21.9770  -45.3980 H   0  0  0  0  0  0  0  0  0  0  0  0
    7.7150  -23.7030  -45.3360 H   0  0  0  0  0  0  0  0  0  0  0  0
    6.5040  -20.2450  -39.3940 H   0  0  0  0  0  0  0  0  0  0  0  0
    6.0850  -18.5650  -39.8230 H   0  0  0  0  0  0  0  0  0  0  0  0
    4.2560  -18.6430  -38.5710 H   0  0  0  0  0  0  0  0  0  0  0  0
    4.8290  -20.2130  -38.0700 H   0  0  0  0  0  0  0  0  0  0  0  0
    2.8380  -20.9530  -37.6300 H   0  0  0  0  0  0  0  0  0  0  0  0
    1.4780  -21.1530  -39.3320 H   0  0  0  0  0  0  0  0  0  0  0  0
    1.5590  -19.4730  -39.8570 H   0  0  0  0  0  0  0  0  0  0  0  0
    0.3570  -20.3510  -37.2660 H   0  0  0  0  0  0  0  0  0  0  0  0
   -0.5430  -19.9390  -38.7440 H   0  0  0  0  0  0  0  0  0  0  0  0
   -0.2760  -18.0530  -36.9250 H   0  0  0  0  0  0  0  0  0  0  0  0
   -0.0160  -17.7300  -38.6880 H   0  0  0  0  0  0  0  0  0  0  0  0
    1.7690  -17.1890  -36.6400 H   0  0  0  0  0  0  0  0  0  0  0  0
    2.2400  -17.2900  -38.3340 H   0  0  0  0  0  0  0  0  0  0  0  0
    3.5600  -18.8130  -36.6200 H   0  0  0  0  0  0  0  0  0  0  0  0
    1.9880  -19.6040  -36.3440 H   0  0  0  0  0  0  0  0  0  0  0  0
    2.8890  -19.9110  -41.5330 H   0  0  0  0  0  0  0  0  0  0  0  0
    4.4350  -19.4810  -42.2090 H   0  0  0  0  0  0  0  0  0  0  0  0
    4.2490  -17.3570  -40.7240 H   0  0  0  0  0  0  0  0  0  0  0  0
    2.3500  -17.7770  -42.8420 H   0  0  0  0  0  0  0  0  0  0  0  0
    4.0760  -17.8710  -43.2280 H   0  0  0  0  0  0  0  0  0  0  0  0
    4.2670  -15.5520  -42.0420 H   0  0  0  0  0  0  0  0  0  0  0  0
    3.2660  -15.6460  -43.5820 H   0  0  0  0  0  0  0  0  0  0  0  0
    1.9530  -14.4530  -41.8240 H   0  0  0  0  0  0  0  0  0  0  0  0
    1.2620  -16.1160  -42.2460 H   0  0  0  0  0  0  0  0  0  0  0  0
    3.3300  -15.8120  -40.0550 H   0  0  0  0  0  0  0  0  0  0  0  0
    1.5690  -15.7160  -39.6600 H   0  0  0  0  0  0  0  0  0  0  0  0
    2.2070  -17.9170  -39.4390 H   0  0  0  0  0  0  0  0  0  0  0  0
    1.4150  -17.8780  -41.1010 H   0  0  0  0  0  0  0  0  0  0  0  0
  1  2  1  0  0  0  0
  2  3  1  0  0  0  0
  3  4  2  0  0  0  0
  3 14  1  0  0  0  0
  4 10  1  0  0  0  0
  5 29  1  0  0  0  0
  5  4  1  0  0  0  0
  6  5  2  0  0  0  0
  7  6  1  0  0  0  0
  7  2  2  0  0  0  0
  8  7  1  0  0  0  0
  9  6  1  0  0  0  0
 10 12  1  0  0  0  0
 10 11  2  0  0  0  0
 12 15  1  0  0  0  0
 13 12  1  0  0  0  0
 13 34  1  0  0  0  0
 13 33  1  0  0  0  0
 14 13  1  0  0  0  0
 15 35  1  0  0  0  0
 15 16  1  0  0  0  0
 15 36  1  0  0  0  0
 16 37  1  0  0  0  0
 16 21  1  0  0  0  0
 17 16  1  0  0  0  0
 17 18  1  0  0  0  0
 18 19  1  0  0  0  0
 18 40  1  0  0  0  0
 19 20  1  0  0  0  0
 19 42  1  0  0  0  0
 20 21  1  0  0  0  0
 20 44  1  0  0  0  0
 21 46  1  0  0  0  0
 21 47  1  0  0  0  0
 22 23  1  0  0  0  0
 22 12  1  0  0  0  0
 23 50  1  0  0  0  0
 23 28  1  0  0  0  0
 24 23  1  0  0  0  0
 25 24  1  0  0  0  0
 25 53  1  0  0  0  0
 25 26  1  0  0  0  0
 26 27  1  0  0  0  0
 27 57  1  0  0  0  0
 27 58  1  0  0  0  0
 28 27  1  0  0  0  0
 28 59  1  0  0  0  0
 30  8  1  0  0  0  0
 31  8  1  0  0  0  0
 32  8  1  0  0  0  0
 38 17  1  0  0  0  0
 39 17  1  0  0  0  0
 41 18  1  0  0  0  0
 43 19  1  0  0  0  0
 45 20  1  0  0  0  0
 48 22  1  0  0  0  0
 49 22  1  0  0  0  0
 51 24  1  0  0  0  0
 52 24  1  0  0  0  0
 54 25  1  0  0  0  0
 55 26  1  0  0  0  0
 56 26  1  0  0  0  0
 60 28  1  0  0  0  0
M  END
>  <Pose>
1

>  <Score>
-3.51

$$$$
