
 OpenBabel03232221553D

 41 44  0  0  0  0  0  0  0  0999 V2000
    4.6150  -24.8390  -42.6960 F   0  0  0  0  0  0  0  0  0  0  0  0
    3.4700  -24.1040  -42.7530 C   0  0  0  0  0  0  0  0  0  0  0  0
    3.3340  -23.0420  -41.8440 C   0  0  0  0  0  0  0  0  0  0  0  0
    2.1910  -22.3050  -41.8970 C   0  0  0  0  0  0  0  0  0  0  0  0
    1.1530  -22.5630  -42.8180 C   0  0  0  0  0  0  0  0  0  0  0  0
    1.3250  -23.6110  -43.6910 C   0  0  0  0  0  0  0  0  0  0  0  0
    2.4750  -24.3730  -43.6560 C   0  0  0  0  0  0  0  0  0  0  0  0
    0.3670  -23.9100  -44.5980 F   0  0  0  0  0  0  0  0  0  0  0  0
    4.3770  -22.8010  -40.9370 N   0  0  0  0  0  0  0  0  0  0  0  0
    5.4740  -21.9790  -41.1770 C   0  0  0  0  0  0  0  0  0  0  0  0
    6.6150  -22.3960  -41.4030 O   0  0  0  0  0  0  0  0  0  0  0  0
    5.2910  -20.4750  -41.1660 C   0  0  0  0  0  0  0  0  0  0  0  0
    5.2520  -20.0150  -39.7950 N   0  0  0  0  0  0  0  0  0  0  0  0
    6.3310  -19.8730  -39.0460 N   0  0  0  0  0  0  0  0  0  0  0  0
    5.9030  -19.4460  -37.8710 N   0  0  0  0  0  0  0  0  0  0  0  0
    4.5610  -19.3130  -37.8610 C   0  0  0  0  0  0  0  0  0  0  0  0
    4.1590  -19.6780  -39.0900 C   0  0  0  0  0  0  0  0  0  0  0  0
    2.7910  -19.5360  -39.0630 C   0  0  0  0  0  0  0  0  0  0  0  0
    2.0270  -19.7810  -40.0360 O   0  0  0  0  0  0  0  0  0  0  0  0
    2.3550  -19.1000  -37.8640 N   0  0  0  0  0  0  0  0  0  0  0  0
    3.4560  -18.9580  -37.1080 C   0  0  0  0  0  0  0  0  0  0  0  0
    3.4690  -18.5670  -35.9110 O   0  0  0  0  0  0  0  0  0  0  0  0
    0.9830  -18.8500  -37.5110 C   0  0  0  0  0  0  0  0  0  0  0  0
    0.0120  -19.8060  -37.7360 C   0  0  0  0  0  0  0  0  0  0  0  0
   -1.3150  -19.6110  -37.4130 C   0  0  0  0  0  0  0  0  0  0  0  0
   -1.6530  -18.3990  -36.8440 C   0  0  0  0  0  0  0  0  0  0  0  0
   -0.7220  -17.4030  -36.5950 C   0  0  0  0  0  0  0  0  0  0  0  0
    0.5880  -17.6630  -36.9420 C   0  0  0  0  0  0  0  0  0  0  0  0
   -3.5060  -18.1490  -36.4030 B   0  0  0  0  0  0  0  0  0  0  0  0
    2.0060  -21.4830  -41.2460 H   0  0  0  0  0  0  0  0  0  0  0  0
    0.2620  -21.9560  -42.8280 H   0  0  0  0  0  0  0  0  0  0  0  0
    2.6020  -25.2080  -44.3570 H   0  0  0  0  0  0  0  0  0  0  0  0
    4.3500  -23.2750  -39.9700 H   0  0  0  0  0  0  0  0  0  0  0  0
    4.3260  -20.2250  -41.6650 H   0  0  0  0  0  0  0  0  0  0  0  0
    6.0980  -20.0440  -41.7610 H   0  0  0  0  0  0  0  0  0  0  0  0
    7.3390  -20.0590  -39.3170 H   0  0  0  0  0  0  0  0  0  0  0  0
    6.5570  -19.2460  -37.0690 H   0  0  0  0  0  0  0  0  0  0  0  0
    0.3360  -20.7340  -38.1840 H   0  0  0  0  0  0  0  0  0  0  0  0
   -2.0730  -20.3850  -37.6000 H   0  0  0  0  0  0  0  0  0  0  0  0
   -1.0550  -16.4820  -36.1480 H   0  0  0  0  0  0  0  0  0  0  0  0
    1.3210  -16.8880  -36.7490 H   0  0  0  0  0  0  0  0  0  0  0  0
  2  1  1  0  0  0  0
  2  3  1  0  0  0  0
  3  9  1  0  0  0  0
  4  3  2  0  0  0  0
  4 30  1  0  0  0  0
  5  4  1  0  0  0  0
  6  7  1  0  0  0  0
  6  5  2  0  0  0  0
  7  2  2  0  0  0  0
  8  6  1  0  0  0  0
  9 33  1  0  0  0  0
 10 12  1  0  0  0  0
 10  9  1  0  0  0  0
 11 10  2  0  0  0  0
 12 13  1  0  0  0  0
 13 17  1  0  0  0  0
 13 14  1  0  0  0  0
 14 15  1  0  0  0  0
 15 16  1  0  0  0  0
 15 37  1  0  0  0  0
 16 21  1  0  0  0  0
 17 18  1  0  0  0  0
 17 16  2  0  0  0  0
 18 20  1  0  0  0  0
 19 18  2  0  0  0  0
 20 23  1  0  0  0  0
 20 21  1  0  0  0  0
 21 22  2  0  0  0  0
 23 28  1  0  0  0  0
 24 23  2  0  0  0  0
 24 25  1  0  0  0  0
 25 26  2  0  0  0  0
 26 27  1  0  0  0  0
 26 29  1  0  0  0  0
 27 40  1  0  0  0  0
 28 41  1  0  0  0  0
 28 27  2  0  0  0  0
 31  5  1  0  0  0  0
 32  7  1  0  0  0  0
 34 12  1  0  0  0  0
 35 12  1  0  0  0  0
 36 14  1  0  0  0  0
 38 24  1  0  0  0  0
 39 25  1  0  0  0  0
M  END
>  <Pose>
1

>  <Score>
-5.97

$$$$
