
 OpenBabel03232221553D

 53 56  0  0  1  0  0  0  0  0999 V2000
    5.7020  -24.9500  -46.0410 F   0  0  0  0  0  0  0  0  0  0  0  0
    5.2950  -23.6940  -46.1400 C   0  0  0  0  0  0  0  0  0  0  0  0
    5.1690  -22.8780  -45.0340 C   0  0  0  0  0  0  0  0  0  0  0  0
    4.7370  -21.6020  -45.2970 C   0  0  0  0  0  0  0  0  0  0  0  0
    4.4340  -21.1200  -46.5610 C   0  0  0  0  0  0  0  0  0  0  0  0
    4.5710  -21.9580  -47.6310 C   0  0  0  0  0  0  0  0  0  0  0  0
    4.9980  -23.2290  -47.4240 C   0  0  0  0  0  0  0  0  0  0  0  0
    5.5020  -23.3190  -43.6700 C   0  0  2  0  0  0  0  0  0  0  0  0
    5.8760  -22.2480  -42.7600 N   0  0  0  0  0  0  0  0  0  0  0  0
    7.1150  -21.7940  -43.3450 C   0  0  0  0  0  0  0  0  0  0  0  0
    7.6060  -20.6350  -43.3440 O   0  0  0  0  0  0  0  0  0  0  0  0
    7.7850  -22.9530  -44.0000 C   0  0  0  0  0  0  0  0  0  0  0  0
    8.8430  -23.0580  -44.6180 O   0  0  0  0  0  0  0  0  0  0  0  0
    6.8210  -24.0590  -43.7250 C   0  0  0  0  0  0  0  0  0  0  0  0
    7.1000  -25.3320  -43.5840 C   0  0  0  0  0  0  0  0  0  0  0  0
    6.0520  -26.2420  -43.3370 O   0  0  0  0  0  0  0  0  0  0  0  0
    8.4630  -25.8360  -43.6730 C   0  0  0  0  0  0  0  0  0  0  0  0
    8.8800  -26.4310  -44.8430 C   0  0  0  0  0  0  0  0  0  0  0  0
   10.1540  -26.9560  -44.9860 C   0  0  0  0  0  0  0  0  0  0  0  0
   11.0450  -26.8890  -43.9360 C   0  0  0  0  0  0  0  0  0  0  0  0
   10.6530  -26.3060  -42.7700 C   0  0  0  0  0  0  0  0  0  0  0  0
    9.3570  -25.7770  -42.6370 C   0  0  0  0  0  0  0  0  0  0  0  0
   12.8240  -27.6120  -44.1070 B   0  0  0  0  0  0  0  0  0  0  0  0
    5.3100  -21.6960  -41.6050 C   0  0  0  0  0  0  0  0  0  0  0  0
    5.9960  -21.8230  -40.2920 C   0  0  0  0  0  0  0  0  0  0  0  0
    6.4750  -20.5810  -39.7540 N   0  0  0  0  0  4  0  0  0  0  0  0
    6.4780  -20.6670  -38.3090 C   0  0  0  0  0  0  0  0  0  0  0  0
    7.0900  -19.4190  -37.6980 C   0  0  0  0  0  0  0  0  0  0  0  0
    6.3560  -18.3170  -38.0950 O   0  0  0  0  0  0  0  0  0  0  0  0
    6.3050  -18.2370  -39.4830 C   0  0  0  0  0  0  0  0  0  0  0  0
    5.5650  -19.4560  -40.0520 C   0  0  0  0  0  0  0  0  0  0  0  0
    4.6270  -20.9160  -44.5000 H   0  0  0  0  0  0  0  0  0  0  0  0
    4.0960  -20.1100  -46.7390 H   0  0  0  0  0  0  0  0  0  0  0  0
    4.3400  -21.6010  -48.6280 H   0  0  0  0  0  0  0  0  0  0  0  0
    5.0990  -23.8810  -48.2850 H   0  0  0  0  0  0  0  0  0  0  0  0
    4.7490  -24.0020  -43.3060 H   0  0  0  0  0  0  0  0  0  0  0  0
    8.2320  -26.5200  -45.7140 H   0  0  0  0  0  0  0  0  0  0  0  0
   10.5090  -27.4280  -45.8900 H   0  0  0  0  0  0  0  0  0  0  0  0
   11.3490  -26.2510  -41.9430 H   0  0  0  0  0  0  0  0  0  0  0  0
    9.0600  -25.3360  -41.7130 H   0  0  0  0  0  0  0  0  0  0  0  0
    4.2750  -22.1150  -41.4470 H   0  0  0  0  0  0  0  0  0  0  0  0
    5.0870  -20.5810  -41.6890 H   0  0  0  0  0  0  0  0  0  0  0  0
    5.2060  -22.1780  -39.5700 H   0  0  0  0  0  0  0  0  0  0  0  0
    6.7500  -22.6440  -40.2600 H   0  0  0  0  0  0  0  0  0  0  0  0
    7.3810  -20.2630  -40.1550 H   0  0  0  0  0  0  0  0  0  0  0  0
    5.3910  -20.6520  -38.0030 H   0  0  0  0  0  0  0  0  0  0  0  0
    6.8830  -21.5980  -37.9150 H   0  0  0  0  0  0  0  0  0  0  0  0
    8.1550  -19.3830  -38.0080 H   0  0  0  0  0  0  0  0  0  0  0  0
    7.0050  -19.5220  -36.6010 H   0  0  0  0  0  0  0  0  0  0  0  0
    7.3690  -18.3130  -39.8400 H   0  0  0  0  0  0  0  0  0  0  0  0
    5.8600  -17.3060  -39.8480 H   0  0  0  0  0  0  0  0  0  0  0  0
    4.6130  -19.6170  -39.5430 H   0  0  0  0  0  0  0  0  0  0  0  0
    5.5180  -19.3470  -41.1450 H   0  0  0  0  0  0  0  0  0  0  0  0
  2  1  1  0  0  0  0
  2  3  1  0  0  0  0
  3  8  1  0  0  0  0
  4  3  2  0  0  0  0
  4 32  1  0  0  0  0
  5  4  1  0  0  0  0
  6  7  1  0  0  0  0
  6  5  2  0  0  0  0
  7  2  2  0  0  0  0
  8 36  1  1  0  0  0
  8  9  1  0  0  0  0
  9 24  1  0  0  0  0
 10 11  2  0  0  0  0
 10  9  1  0  0  0  0
 12 14  1  0  0  0  0
 12 10  1  0  0  0  0
 13 12  2  0  0  0  0
 14  8  1  0  0  0  0
 14 15  2  0  0  0  0
 15 16  1  0  0  0  0
 17 15  1  0  0  0  0
 17 22  1  0  0  0  0
 18 17  2  0  0  0  0
 19 18  1  0  0  0  0
 19 20  2  0  0  0  0
 20 21  1  0  0  0  0
 21 22  2  0  0  0  0
 21 39  1  0  0  0  0
 22 40  1  0  0  0  0
 23 20  1  0  0  0  0
 24 41  1  0  0  0  0
 24 25  1  0  0  0  0
 25 44  1  0  0  0  0
 25 26  1  0  0  0  0
 25 43  1  0  0  0  0
 26 27  1  0  0  0  0
 27 46  1  0  0  0  0
 27 47  1  0  0  0  0
 27 28  1  0  0  0  0
 28 49  1  0  0  0  0
 29 28  1  0  0  0  0
 30 29  1  0  0  0  0
 31 26  1  0  0  0  0
 31 52  1  0  0  0  0
 31 30  1  0  0  0  0
 33  5  1  0  0  0  0
 34  6  1  0  0  0  0
 35  7  1  0  0  0  0
 37 18  1  0  0  0  0
 38 19  1  0  0  0  0
 42 24  1  0  0  0  0
 45 26  1  0  0  0  0
 48 28  1  0  0  0  0
 50 30  1  0  0  0  0
 51 30  1  0  0  0  0
 53 31  1  0  0  0  0
M  END
>  <Pose>
1

>  <Score>
-3.92

$$$$
