
 OpenBabel03232221553D

 40 43  0  0  1  0  0  0  0  0999 V2000
    4.2360   -9.7520  -37.6580 I   0  0  0  0  0  0  0  0  0  0  0  0
    2.8520  -11.3050  -37.7340 C   0  0  0  0  0  0  0  0  0  0  0  0
    2.8740  -12.4090  -36.9040 C   0  0  0  0  0  0  0  0  0  0  0  0
    1.9470  -13.4130  -36.9800 C   0  0  0  0  0  0  0  0  0  0  0  0
    0.9380  -13.3760  -37.8940 C   0  0  0  0  0  0  0  0  0  0  0  0
    0.8990  -12.2690  -38.7410 C   0  0  0  0  0  0  0  0  0  0  0  0
    1.8150  -11.2740  -38.6680 C   0  0  0  0  0  0  0  0  0  0  0  0
   -0.0630  -14.4030  -37.9900 C   0  0  2  0  0  0  0  0  0  0  0  0
   -0.9730  -14.3460  -37.0550 O   0  0  0  0  0  0  0  0  0  0  0  0
   -0.2760  -15.4920  -38.9070 C   0  0  0  0  0  0  0  0  0  0  0  0
    0.7300  -16.4490  -39.1770 N   0  0  0  0  0  0  0  0  0  0  0  0
    1.4340  -17.0750  -38.2870 C   0  0  1  0  0  0  0  0  0  0  0  0
    1.6420  -17.1950  -36.5030 S   0  0  0  0  0  0  0  0  0  0  0  0
    2.9300  -18.4150  -36.6140 C   0  0  0  0  0  0  0  0  0  0  0  0
    3.1530  -18.6830  -37.8810 C   0  0  0  0  0  0  0  0  0  0  0  0
    2.3600  -17.9760  -38.8180 N   0  0  0  0  0  0  0  0  0  0  0  0
    2.2040  -17.9050  -40.2930 C   0  0  0  0  0  0  0  0  0  0  0  0
    1.1700  -16.8510  -40.4850 C   0  0  0  0  0  0  0  0  0  0  0  0
    4.2100  -19.6860  -38.2070 C   0  0  0  0  0  0  0  0  0  0  0  0
    3.9100  -20.9670  -38.5870 C   0  0  0  0  0  0  0  0  0  0  0  0
    4.9110  -21.9080  -38.9030 C   0  0  0  0  0  0  0  0  0  0  0  0
    6.2390  -21.5540  -38.8350 C   0  0  0  0  0  0  0  0  0  0  0  0
    6.5450  -20.2710  -38.4540 C   0  0  0  0  0  0  0  0  0  0  0  0
    5.5510  -19.3510  -38.1450 C   0  0  0  0  0  0  0  0  0  0  0  0
    3.6840  -12.4440  -36.1670 H   0  0  0  0  0  0  0  0  0  0  0  0
    2.0600  -14.2220  -36.3040 H   0  0  0  0  0  0  0  0  0  0  0  0
    0.1150  -12.2180  -39.4670 H   0  0  0  0  0  0  0  0  0  0  0  0
    1.7960  -10.3930  -39.3320 H   0  0  0  0  0  0  0  0  0  0  0  0
   -1.2190  -16.0940  -38.6350 H   0  0  0  0  0  0  0  0  0  0  0  0
   -0.6220  -15.0180  -39.8890 H   0  0  0  0  0  0  0  0  0  0  0  0
    3.3850  -18.8030  -35.7040 H   0  0  0  0  0  0  0  0  0  0  0  0
    1.8370  -18.8510  -40.7150 H   0  0  0  0  0  0  0  0  0  0  0  0
    3.1330  -17.5400  -40.7810 H   0  0  0  0  0  0  0  0  0  0  0  0
    0.3390  -17.2600  -41.0960 H   0  0  0  0  0  0  0  0  0  0  0  0
    1.5800  -15.9490  -41.0300 H   0  0  0  0  0  0  0  0  0  0  0  0
    2.8830  -21.2680  -38.6460 H   0  0  0  0  0  0  0  0  0  0  0  0
    4.6180  -22.8830  -39.1920 H   0  0  0  0  0  0  0  0  0  0  0  0
    7.0490  -22.2270  -39.0640 H   0  0  0  0  0  0  0  0  0  0  0  0
    7.5790  -19.9810  -38.3960 H   0  0  0  0  0  0  0  0  0  0  0  0
    5.8650  -18.3530  -37.8510 H   0  0  0  0  0  0  0  0  0  0  0  0
  2  1  1  0  0  0  0
  2  3  1  0  0  0  0
  3 25  1  0  0  0  0
  4  3  2  0  0  0  0
  4 26  1  0  0  0  0
  5  4  1  0  0  0  0
  6  7  1  0  0  0  0
  6  5  2  0  0  0  0
  7  2  2  0  0  0  0
  8  5  1  0  0  0  0
  8  9  1  1  0  0  0
 10 29  1  0  0  0  0
 10  8  1  0  0  0  0
 11 10  1  0  0  0  0
 11 12  1  0  0  0  0
 12 13  1  1  0  0  0
 14 13  1  0  0  0  0
 14 31  1  0  0  0  0
 15 14  2  0  0  0  0
 16 12  1  0  0  0  0
 16 15  1  0  0  0  0
 17 16  1  0  0  0  0
 18 17  1  0  0  0  0
 18 11  1  0  0  0  0
 19 24  1  0  0  0  0
 19 15  1  0  0  0  0
 20 19  2  0  0  0  0
 21 22  2  0  0  0  0
 21 20  1  0  0  0  0
 22 23  1  0  0  0  0
 23 39  1  0  0  0  0
 23 24  2  0  0  0  0
 24 40  1  0  0  0  0
 27  6  1  0  0  0  0
 28  7  1  0  0  0  0
 30 10  1  0  0  0  0
 32 17  1  0  0  0  0
 33 17  1  0  0  0  0
 34 18  1  0  0  0  0
 35 18  1  0  0  0  0
 36 20  1  0  0  0  0
 37 21  1  0  0  0  0
 38 22  1  0  0  0  0
M  END
>  <Pose>
1

>  <Score>
-4.19

$$$$
