
 OpenBabel03232221553D

 40 43  0  0  0  0  0  0  0  0999 V2000
    3.9470  -22.9340  -42.4880 I   0  0  0  0  0  0  0  0  0  0  0  0
    5.1070  -21.2810  -41.9730 C   0  0  0  0  0  0  0  0  0  0  0  0
    5.7980  -20.4920  -42.8930 C   0  0  0  0  0  0  0  0  0  0  0  0
    6.4480  -19.5370  -42.2250 N   0  0  0  0  0  0  0  0  0  0  0  0
    6.1920  -19.7030  -40.9570 N   0  0  0  0  0  0  0  0  0  0  0  0
    5.3590  -20.7770  -40.7440 C   0  0  0  0  0  0  0  0  0  0  0  0
    4.8960  -21.1640  -39.3990 C   0  0  0  0  0  0  0  0  0  0  0  0
    4.7200  -22.4190  -39.2220 O   0  0  0  0  0  0  0  0  0  0  0  0
    4.6530  -20.2790  -38.3580 N   0  0  0  0  0  0  0  0  0  0  0  0
    3.5980  -19.3420  -38.2610 C   0  0  0  0  0  0  0  0  0  0  0  0
    3.3860  -18.7430  -37.0150 C   0  0  0  0  0  0  0  0  0  0  0  0
    4.0170  -18.8910  -35.8370 N   0  0  0  0  0  0  0  0  0  0  0  0
    3.4490  -18.1120  -34.9650 O   0  0  0  0  0  0  0  0  0  0  0  0
    2.4720  -17.4580  -35.5140 N   0  0  0  0  0  0  0  0  0  0  0  0
    2.3930  -17.8220  -36.8080 C   0  0  0  0  0  0  0  0  0  0  0  0
    1.5650  -17.4610  -37.8490 C   0  0  0  0  0  0  0  0  0  0  0  0
    1.7820  -18.0540  -39.0670 C   0  0  0  0  0  0  0  0  0  0  0  0
    2.7940  -18.9970  -39.2890 C   0  0  0  0  0  0  0  0  0  0  0  0
    0.5430  -16.5070  -37.6150 N   0  0  0  0  0  0  0  0  0  0  0  0
   -0.8010  -16.9320  -37.2810 C   0  0  0  0  0  0  0  0  0  0  0  0
   -1.6370  -15.7300  -37.0100 C   0  0  0  0  0  0  0  0  0  0  0  0
   -1.0630  -14.8220  -36.1420 O   0  0  0  0  0  0  0  0  0  0  0  0
    0.1580  -14.3570  -36.5150 C   0  0  0  0  0  0  0  0  0  0  0  0
    0.7680  -15.0770  -37.6920 C   0  0  0  0  0  0  0  0  0  0  0  0
    7.2900  -18.5050  -42.8450 C   0  0  0  0  0  0  0  0  0  0  0  0
    5.8210  -20.6080  -43.9740 H   0  0  0  0  0  0  0  0  0  0  0  0
    5.3460  -20.3370  -37.5460 H   0  0  0  0  0  0  0  0  0  0  0  0
    1.1320  -17.7700  -39.8810 H   0  0  0  0  0  0  0  0  0  0  0  0
    2.8680  -19.3960  -40.2940 H   0  0  0  0  0  0  0  0  0  0  0  0
   -0.7130  -17.5800  -36.3850 H   0  0  0  0  0  0  0  0  0  0  0  0
   -1.2700  -17.4830  -38.1350 H   0  0  0  0  0  0  0  0  0  0  0  0
   -2.6270  -16.0710  -36.6480 H   0  0  0  0  0  0  0  0  0  0  0  0
   -1.7890  -15.1980  -37.9880 H   0  0  0  0  0  0  0  0  0  0  0  0
    0.0620  -13.2880  -36.7990 H   0  0  0  0  0  0  0  0  0  0  0  0
    0.8770  -14.3790  -35.6520 H   0  0  0  0  0  0  0  0  0  0  0  0
    1.8660  -14.9200  -37.6400 H   0  0  0  0  0  0  0  0  0  0  0  0
    0.4220  -14.6710  -38.6600 H   0  0  0  0  0  0  0  0  0  0  0  0
    6.8940  -18.3200  -43.8500 H   0  0  0  0  0  0  0  0  0  0  0  0
    7.1450  -17.5810  -42.2390 H   0  0  0  0  0  0  0  0  0  0  0  0
    8.3340  -18.8540  -42.8570 H   0  0  0  0  0  0  0  0  0  0  0  0
  1  2  1  0  0  0  0
  2  6  1  0  0  0  0
  3  4  1  0  0  0  0
  3  2  2  0  0  0  0
  4  5  1  0  0  0  0
  5  6  2  0  0  0  0
  6  7  1  0  0  0  0
  7  8  2  0  0  0  0
  7  9  1  0  0  0  0
  9 10  1  0  0  0  0
  9 27  1  0  0  0  0
 10 11  1  0  0  0  0
 11 15  1  0  0  0  0
 11 12  2  0  0  0  0
 12 13  1  0  0  0  0
 14 13  1  0  0  0  0
 15 14  2  0  0  0  0
 16 19  1  0  0  0  0
 16 15  1  0  0  0  0
 17 16  2  0  0  0  0
 18 17  1  0  0  0  0
 18 10  2  0  0  0  0
 19 20  1  0  0  0  0
 20 21  1  0  0  0  0
 20 30  1  0  0  0  0
 21 32  1  0  0  0  0
 21 22  1  0  0  0  0
 23 22  1  0  0  0  0
 23 35  1  0  0  0  0
 24 36  1  0  0  0  0
 24 19  1  0  0  0  0
 24 23  1  0  0  0  0
 25 39  1  0  0  0  0
 25  4  1  0  0  0  0
 26  3  1  0  0  0  0
 28 17  1  0  0  0  0
 29 18  1  0  0  0  0
 31 20  1  0  0  0  0
 33 21  1  0  0  0  0
 34 23  1  0  0  0  0
 37 24  1  0  0  0  0
 38 25  1  0  0  0  0
 40 25  1  0  0  0  0
M  END
>  <Pose>
1

>  <Score>
-4.53

$$$$
