
 OpenBabel03232221553D

 44 47  0  0  1  0  0  0  0  0999 V2000
    4.0660  -17.5090  -42.8770 I   0  0  0  0  0  0  0  0  0  0  0  0
    3.5920  -18.5970  -41.1340 C   0  0  0  0  0  0  0  0  0  0  0  0
    4.4560  -19.3390  -40.3840 C   0  0  0  0  0  0  0  0  0  0  0  0
    3.6700  -19.8540  -39.3530 C   0  0  0  0  0  0  0  0  0  0  0  0
    2.4000  -19.4580  -39.4540 N   0  0  0  0  0  0  0  0  0  0  0  0
    2.3440  -18.6900  -40.5420 C   0  0  0  0  0  0  0  0  0  0  0  0
    1.2920  -19.7670  -38.6010 C   0  0  2  0  0  0  0  0  0  0  0  0
    0.5510  -20.8650  -39.0230 O   0  0  0  0  0  0  0  0  0  0  0  0
   -0.5150  -20.8670  -38.1280 C   0  0  1  0  0  0  0  0  0  0  0  0
   -0.9160  -19.4260  -37.9160 C   0  0  2  0  0  0  0  0  0  0  0  0
    0.2200  -18.6750  -38.6200 C   0  0  0  0  0  0  0  0  0  0  0  0
   -0.8470  -19.0630  -36.5700 O   0  0  0  0  0  0  0  0  0  0  0  0
   -1.7280  -21.5620  -38.7630 C   0  0  0  0  0  0  0  0  0  0  0  0
   -1.9850  -22.7480  -38.0620 O   0  0  0  0  0  0  0  0  0  0  0  0
    4.2720  -20.6380  -38.4430 N   0  0  0  0  0  0  0  0  0  0  0  0
    5.5830  -20.9150  -38.5260 C   0  0  0  0  0  0  0  0  0  0  0  0
    6.3330  -20.4200  -39.5150 N   0  0  0  0  0  0  0  0  0  0  0  0
    5.8010  -19.6130  -40.4840 C   0  0  0  0  0  0  0  0  0  0  0  0
    6.6470  -19.1140  -41.5140 N   0  0  0  0  0  0  0  0  0  0  0  0
    6.6110  -19.7430  -42.7920 C   0  0  0  0  0  0  0  0  0  0  0  0
    5.6240  -20.4800  -43.0430 O   0  0  0  0  0  0  0  0  0  0  0  0
    7.6220  -19.5890  -43.8010 C   0  0  0  0  0  0  0  0  0  0  0  0
    7.4270  -18.7770  -44.8840 C   0  0  0  0  0  0  0  0  0  0  0  0
    8.4010  -18.6140  -45.8720 C   0  0  0  0  0  0  0  0  0  0  0  0
    9.5850  -19.2810  -45.7610 C   0  0  0  0  0  0  0  0  0  0  0  0
    9.8090  -20.1020  -44.6860 C   0  0  0  0  0  0  0  0  0  0  0  0
    8.8190  -20.2510  -43.7080 C   0  0  0  0  0  0  0  0  0  0  0  0
    1.4710  -18.1770  -40.9580 H   0  0  0  0  0  0  0  0  0  0  0  0
    1.6020  -19.8680  -37.5530 H   0  0  0  0  0  0  0  0  0  0  0  0
   -0.2400  -21.3780  -37.1810 H   0  0  0  0  0  0  0  0  0  0  0  0
   -1.8960  -19.1740  -38.3390 H   0  0  0  0  0  0  0  0  0  0  0  0
   -0.0910  -18.5070  -39.6660 H   0  0  0  0  0  0  0  0  0  0  0  0
    0.5270  -17.7780  -38.0780 H   0  0  0  0  0  0  0  0  0  0  0  0
   -1.1130  -19.8880  -36.0590 H   0  0  0  0  0  0  0  0  0  0  0  0
   -2.6240  -20.9340  -38.6920 H   0  0  0  0  0  0  0  0  0  0  0  0
   -1.4870  -21.8220  -39.8000 H   0  0  0  0  0  0  0  0  0  0  0  0
   -1.3620  -22.8390  -37.2740 H   0  0  0  0  0  0  0  0  0  0  0  0
    6.0440  -21.5620  -37.7630 H   0  0  0  0  0  0  0  0  0  0  0  0
    7.2960  -18.3270  -41.4250 H   0  0  0  0  0  0  0  0  0  0  0  0
    6.5120  -18.2050  -45.0590 H   0  0  0  0  0  0  0  0  0  0  0  0
    8.2340  -17.9740  -46.7150 H   0  0  0  0  0  0  0  0  0  0  0  0
   10.3870  -19.1870  -46.5140 H   0  0  0  0  0  0  0  0  0  0  0  0
   10.7440  -20.6170  -44.6150 H   0  0  0  0  0  0  0  0  0  0  0  0
    9.0520  -20.9010  -42.8990 H   0  0  0  0  0  0  0  0  0  0  0  0
  1  2  1  0  0  0  0
  2  6  2  0  0  0  0
  2  3  1  0  0  0  0
  3  4  2  0  0  0  0
  4 15  1  0  0  0  0
  5  4  1  0  0  0  0
  5  7  1  0  0  0  0
  6  5  1  0  0  0  0
  7 29  1  1  0  0  0
  8  7  1  0  0  0  0
  8  9  1  0  0  0  0
  9 10  1  0  0  0  0
  9 30  1  1  0  0  0
 10 31  1  6  0  0  0
 10 12  1  0  0  0  0
 11  7  1  0  0  0  0
 11 33  1  0  0  0  0
 11 10  1  0  0  0  0
 12 34  1  0  0  0  0
 13 35  1  0  0  0  0
 13  9  1  0  0  0  0
 13 14  1  0  0  0  0
 14 37  1  0  0  0  0
 16 15  2  0  0  0  0
 16 38  1  0  0  0  0
 17 16  1  0  0  0  0
 18  3  1  0  0  0  0
 18 17  2  0  0  0  0
 19 39  1  0  0  0  0
 19 18  1  0  0  0  0
 20 19  1  0  0  0  0
 21 20  2  0  0  0  0
 22 27  1  0  0  0  0
 22 20  1  0  0  0  0
 23 22  2  0  0  0  0
 24 25  2  0  0  0  0
 24 23  1  0  0  0  0
 25 26  1  0  0  0  0
 26 43  1  0  0  0  0
 26 27  2  0  0  0  0
 27 44  1  0  0  0  0
 28  6  1  0  0  0  0
 32 11  1  0  0  0  0
 36 13  1  0  0  0  0
 40 23  1  0  0  0  0
 41 24  1  0  0  0  0
 42 25  1  0  0  0  0
M  END
>  <Pose>
1

>  <Score>
-4.23

$$$$
