
 OpenBabel03232221553D

 48 52  0  0  1  0  0  0  0  0999 V2000
    1.2290  -16.2880  -35.9070 B   0  0  0  0  0  0  0  0  0  0  0  0
   -0.0400  -17.4710  -36.6960 C   0  0  0  0  0  0  0  0  0  0  0  0
   -1.3970  -17.3140  -36.3190 C   0  0  0  0  0  0  0  0  0  0  0  0
   -2.3590  -18.1570  -36.8070 C   0  0  0  0  0  0  0  0  0  0  0  0
   -1.9780  -19.1600  -37.6710 C   0  0  0  0  0  0  0  0  0  0  0  0
   -0.6570  -19.3030  -38.0310 C   0  0  0  0  0  0  0  0  0  0  0  0
    0.3640  -18.4470  -37.5460 C   0  0  0  0  0  0  0  0  0  0  0  0
    1.7020  -18.6610  -38.0460 C   0  0  0  0  0  0  0  0  0  0  0  0
    2.7070  -19.3170  -37.5810 C   0  0  0  0  0  0  0  0  0  0  0  0
    4.0470  -19.5390  -38.0910 C   0  0  1  0  0  0  0  0  0  0  0  0
    5.1670  -19.0730  -37.5910 N   0  0  0  0  0  0  0  0  0  0  0  0
    6.3650  -19.4570  -38.1260 C   0  0  0  0  0  0  0  0  0  0  0  0
    6.4850  -20.3130  -39.1770 C   0  0  0  0  0  0  0  0  0  0  0  0
    5.3310  -20.8210  -39.7310 C   0  0  0  0  0  0  0  0  0  0  0  0
    5.0600  -21.6860  -40.7690 N   0  0  0  0  0  0  0  0  0  0  0  0
    3.7520  -21.8420  -40.8810 C   0  0  0  0  0  0  0  0  0  0  0  0
    3.1980  -21.0680  -39.9080 N   0  0  0  0  0  0  0  0  0  0  0  0
    4.1370  -20.4370  -39.1930 C   0  0  0  0  0  0  0  0  0  0  0  0
    2.9900  -22.6440  -41.8450 C   0  0  0  0  0  0  0  0  0  0  0  0
    1.8280  -22.2660  -42.4330 C   0  0  0  0  0  0  0  0  0  0  0  0
    1.1690  -23.1340  -43.3230 C   0  0  0  0  0  0  0  0  0  0  0  0
    1.6990  -24.3730  -43.6040 C   0  0  0  0  0  0  0  0  0  0  0  0
    2.8890  -24.7840  -43.0170 C   0  0  0  0  0  0  0  0  0  0  0  0
    3.4900  -23.9170  -42.1660 C   0  0  0  0  0  0  0  0  0  0  0  0
    6.1330  -22.2410  -41.5440 C   0  0  0  0  0  0  0  0  0  0  0  0
    5.1910  -18.1040  -36.5350 C   0  0  0  0  0  0  0  0  0  0  0  0
   -3.1390  -19.8710  -38.0150 O   0  0  0  0  0  0  0  0  0  0  0  0
   -4.2200  -18.9920  -37.7790 C   0  0  0  0  0  0  0  0  0  0  0  0
   -3.7420  -18.2740  -36.6420 O   0  0  0  0  0  0  0  0  0  0  0  0
   -1.6330  -16.5120  -35.6410 H   0  0  0  0  0  0  0  0  0  0  0  0
   -0.3760  -20.1010  -38.7150 H   0  0  0  0  0  0  0  0  0  0  0  0
    1.9090  -18.1290  -38.9940 H   0  0  0  0  0  0  0  0  0  0  0  0
    2.5010  -19.7910  -36.5990 H   0  0  0  0  0  0  0  0  0  0  0  0
    7.2670  -19.0480  -37.6760 H   0  0  0  0  0  0  0  0  0  0  0  0
    7.4270  -20.6240  -39.6080 H   0  0  0  0  0  0  0  0  0  0  0  0
    1.3840  -21.2960  -42.2500 H   0  0  0  0  0  0  0  0  0  0  0  0
    0.2470  -22.8100  -43.7750 H   0  0  0  0  0  0  0  0  0  0  0  0
    1.1950  -25.0470  -44.2900 H   0  0  0  0  0  0  0  0  0  0  0  0
    3.3240  -25.7500  -43.2210 H   0  0  0  0  0  0  0  0  0  0  0  0
    4.4270  -24.2330  -41.6980 H   0  0  0  0  0  0  0  0  0  0  0  0
    6.3280  -23.3080  -41.3920 H   0  0  0  0  0  0  0  0  0  0  0  0
    7.1200  -21.7140  -41.2850 H   0  0  0  0  0  0  0  0  0  0  0  0
    6.0670  -22.0410  -42.6370 H   0  0  0  0  0  0  0  0  0  0  0  0
    5.2890  -18.5090  -35.5200 H   0  0  0  0  0  0  0  0  0  0  0  0
    6.1970  -17.5420  -36.6570 H   0  0  0  0  0  0  0  0  0  0  0  0
    4.4790  -17.2670  -36.6720 H   0  0  0  0  0  0  0  0  0  0  0  0
   -4.3240  -18.3160  -38.6530 H   0  0  0  0  0  0  0  0  0  0  0  0
   -5.1570  -19.5370  -37.5380 H   0  0  0  0  0  0  0  0  0  0  0  0
  2  3  1  0  0  0  0
  2  1  1  0  0  0  0
  3 30  1  0  0  0  0
  4 29  1  0  0  0  0
  4  3  2  0  0  0  0
  5  4  1  0  0  0  0
  6  5  2  0  0  0  0
  6  7  1  0  0  0  0
  7  2  2  0  0  0  0
  8  9  2  0  0  0  0
  8  7  1  0  0  0  0
  9 33  1  0  0  0  0
 10 11  1  0  0  0  0
 10  9  1  1  0  0  0
 11 26  1  0  0  0  0
 12 34  1  0  0  0  0
 12 11  1  0  0  0  0
 13 12  2  0  0  0  0
 14 18  2  0  0  0  0
 14 13  1  0  0  0  0
 15 14  1  0  0  0  0
 16 15  1  0  0  0  0
 16 17  2  0  0  0  0
 17 18  1  0  0  0  0
 18 10  1  0  0  0  0
 19 16  1  0  0  0  0
 20 36  1  0  0  0  0
 20 19  2  0  0  0  0
 21 20  1  0  0  0  0
 22 21  2  0  0  0  0
 22 23  1  0  0  0  0
 23 24  2  0  0  0  0
 24 19  1  0  0  0  0
 24 40  1  0  0  0  0
 25 41  1  0  0  0  0
 25 42  1  0  0  0  0
 25 15  1  0  0  0  0
 26 44  1  0  0  0  0
 27 28  1  0  0  0  0
 27  5  1  0  0  0  0
 28 48  1  0  0  0  0
 28 29  1  0  0  0  0
 31  6  1  0  0  0  0
 32  8  1  0  0  0  0
 35 13  1  0  0  0  0
 37 21  1  0  0  0  0
 38 22  1  0  0  0  0
 39 23  1  0  0  0  0
 43 25  1  0  0  0  0
 45 26  1  0  0  0  0
 46 26  1  0  0  0  0
 47 28  1  0  0  0  0
M  END
>  <Pose>
1

>  <Score>
-4.50

$$$$
