
 OpenBabel03232221553D

 35 38  0  0  1  0  0  0  0  0999 V2000
    4.2600  -23.5440  -42.4340 B   0  0  0  0  0  0  0  0  0  0  0  0
    3.8520  -22.1120  -41.2520 C   0  0  0  0  0  0  0  0  0  0  0  0
    2.5770  -21.5700  -41.1200 C   0  0  2  0  0  0  0  0  0  0  0  0
    2.3320  -20.5240  -40.2440 C   0  0  0  0  0  0  0  0  0  0  0  0
    3.3590  -20.0030  -39.4850 C   0  0  0  0  0  0  0  0  0  0  0  0
    4.6150  -20.5300  -39.6090 C   0  0  0  0  0  0  0  0  0  0  0  0
    4.8500  -21.5650  -40.4770 C   0  0  0  0  0  0  0  0  0  0  0  0
    6.1670  -22.0560  -40.5490 O   0  0  0  0  0  0  0  0  0  0  0  0
    5.9970  -19.7600  -38.5210 B   0  0  0  0  0  0  0  0  0  0  0  0
    1.0790  -19.9690  -40.0950 C   0  0  0  0  0  0  0  0  0  0  0  0
    0.0580  -20.4970  -40.8570 C   0  0  0  0  0  0  0  0  0  0  0  0
    0.4090  -21.6010  -41.7580 C   0  0  0  0  0  0  0  0  0  0  0  0
   -0.6350  -22.1230  -42.5230 C   0  0  1  0  0  0  0  0  0  0  0  0
   -1.9070  -21.6110  -42.4160 C   0  0  0  0  0  0  0  0  0  0  0  0
   -2.8160  -22.1130  -43.1250 O   0  0  0  0  0  0  0  0  0  0  0  0
   -2.2080  -20.5620  -41.5530 C   0  0  0  0  0  0  0  0  0  0  0  0
   -1.2350  -20.0050  -40.7750 C   0  0  0  0  0  0  0  0  0  0  0  0
   -4.0030  -19.9120  -41.4680 B   0  0  0  0  0  0  0  0  0  0  0  0
   -0.2480  -23.5710  -43.7260 B   0  0  0  0  0  0  0  0  0  0  0  0
    1.6240  -22.0860  -41.8530 O   0  0  0  0  0  0  0  0  0  0  0  0
    0.8240  -18.8600  -39.1750 C   0  0  0  0  0  0  0  0  0  0  0  0
    0.0670  -19.0500  -38.0340 C   0  0  0  0  0  0  0  0  0  0  0  0
   -0.1920  -18.0200  -37.1550 C   0  0  0  0  0  0  0  0  0  0  0  0
    0.3240  -16.7710  -37.4330 C   0  0  0  0  0  0  0  0  0  0  0  0
    1.0740  -16.5390  -38.5440 C   0  0  0  0  0  0  0  0  0  0  0  0
    1.3230  -17.5800  -39.4120 C   0  0  0  0  0  0  0  0  0  0  0  0
    2.1130  -17.3420  -40.5960 C   0  0  0  0  0  0  0  0  0  0  0  0
    1.6060  -17.3160  -41.7510 O   0  0  0  0  0  0  0  0  0  0  0  0
    3.4860  -17.1310  -40.4960 O   0  0  0  0  0  0  0  0  0  0  0  0
    1.6930  -14.9190  -38.8200 Cl  0  0  0  0  0  0  0  0  0  0  0  0
   -0.5810  -20.6600  -37.6990 Cl  0  0  0  0  0  0  0  0  0  0  0  0
    3.1440  -19.1720  -38.7960 H   0  0  0  0  0  0  0  0  0  0  0  0
   -1.4120  -19.1930  -40.0890 H   0  0  0  0  0  0  0  0  0  0  0  0
   -0.7960  -18.2030  -36.2590 H   0  0  0  0  0  0  0  0  0  0  0  0
    0.1250  -15.9560  -36.7460 H   0  0  0  0  0  0  0  0  0  0  0  0
  1  2  1  0  0  0  0
  2  3  1  0  0  0  0
  2  7  2  0  0  0  0
  3 20  1  1  0  0  0
  3  4  1  0  0  0  0
  4 10  2  0  0  0  0
  4  5  1  0  0  0  0
  5 32  1  0  0  0  0
  6  5  2  0  0  0  0
  6  9  1  0  0  0  0
  7  6  1  0  0  0  0
  8  7  1  0  0  0  0
 10 21  1  0  0  0  0
 11 17  1  0  0  0  0
 11 10  1  0  0  0  0
 12 11  2  0  0  0  0
 13 19  1  6  0  0  0
 13 14  1  0  0  0  0
 13 12  1  0  0  0  0
 14 16  1  0  0  0  0
 15 14  2  0  0  0  0
 16 18  1  0  0  0  0
 16 17  2  0  0  0  0
 17 33  1  0  0  0  0
 20 12  1  0  0  0  0
 21 22  1  0  0  0  0
 22 31  1  0  0  0  0
 22 23  2  0  0  0  0
 23 34  1  0  0  0  0
 24 23  1  0  0  0  0
 24 35  1  0  0  0  0
 25 24  2  0  0  0  0
 26 21  2  0  0  0  0
 26 25  1  0  0  0  0
 27 29  1  0  0  0  0
 27 26  1  0  0  0  0
 28 27  2  0  0  0  0
 30 25  1  0  0  0  0
M  END
>  <Pose>
1

>  <Score>
-3.93

$$$$
