
 OpenBabel03232221553D

 35 39  0  0  0  0  0  0  0  0999 V2000
   14.2170  -24.2500  -42.7460 B   0  0  0  0  0  0  0  0  0  0  0  0
   13.3020  -22.6810  -43.3280 C   0  0  0  0  0  0  0  0  0  0  0  0
   11.9480  -22.7200  -43.7090 C   0  0  0  0  0  0  0  0  0  0  0  0
   11.2580  -21.6220  -44.1300 C   0  0  0  0  0  0  0  0  0  0  0  0
   11.9460  -20.4080  -44.1790 C   0  0  0  0  0  0  0  0  0  0  0  0
   13.2580  -20.3700  -43.8110 C   0  0  0  0  0  0  0  0  0  0  0  0
   13.9610  -21.4770  -43.3830 C   0  0  0  0  0  0  0  0  0  0  0  0
   15.3130  -21.3630  -43.0170 O   0  0  0  0  0  0  0  0  0  0  0  0
   14.2050  -18.7150  -43.8740 B   0  0  0  0  0  0  0  0  0  0  0  0
    9.8550  -21.6940  -44.5180 C   0  0  0  0  0  0  0  0  0  0  0  0
    9.1370  -20.8730  -43.6000 O   0  0  0  0  0  0  0  0  0  0  0  0
    8.4910  -19.8430  -44.2270 C   0  0  0  0  0  0  0  0  0  0  0  0
    7.7870  -18.9730  -43.6640 O   0  0  0  0  0  0  0  0  0  0  0  0
    8.7930  -19.9840  -45.6380 C   0  0  0  0  0  0  0  0  0  0  0  0
    9.6040  -21.0750  -45.8510 C   0  0  0  0  0  0  0  0  0  0  0  0
    9.9840  -21.3520  -47.1230 C   0  0  0  0  0  0  0  0  0  0  0  0
    9.5590  -20.5490  -48.1600 C   0  0  0  0  0  0  0  0  0  0  0  0
    8.7470  -19.4540  -47.9510 C   0  0  0  0  0  0  0  0  0  0  0  0
    8.3540  -19.1620  -46.6720 C   0  0  0  0  0  0  0  0  0  0  0  0
    9.2830  -23.0320  -44.4110 C   0  0  0  0  0  0  0  0  0  0  0  0
   10.0270  -24.0950  -43.9810 C   0  0  0  0  0  0  0  0  0  0  0  0
    9.4560  -25.3810  -43.8830 C   0  0  0  0  0  0  0  0  0  0  0  0
    8.1360  -25.5480  -44.2290 C   0  0  0  0  0  0  0  0  0  0  0  0
    7.3740  -24.4730  -44.6660 C   0  0  0  0  0  0  0  0  0  0  0  0
    7.9340  -23.2300  -44.7580 C   0  0  0  0  0  0  0  0  0  0  0  0
    5.5440  -24.6890  -45.1480 B   0  0  0  0  0  0  0  0  0  0  0  0
    7.5870  -26.8170  -44.1280 O   0  0  0  0  0  0  0  0  0  0  0  0
   10.5290  -26.8450  -43.2780 B   0  0  0  0  0  0  0  0  0  0  0  0
   11.3620  -23.9850  -43.6190 O   0  0  0  0  0  0  0  0  0  0  0  0
   11.3760  -19.5490  -44.5180 H   0  0  0  0  0  0  0  0  0  0  0  0
   10.6180  -22.1980  -47.3270 H   0  0  0  0  0  0  0  0  0  0  0  0
    9.8450  -20.7420  -49.1960 H   0  0  0  0  0  0  0  0  0  0  0  0
    8.4040  -18.8120  -48.7660 H   0  0  0  0  0  0  0  0  0  0  0  0
    7.7190  -18.3120  -46.4820 H   0  0  0  0  0  0  0  0  0  0  0  0
    7.3960  -22.3540  -45.0910 H   0  0  0  0  0  0  0  0  0  0  0  0
  2  1  1  0  0  0  0
  3 29  1  0  0  0  0
  3  2  2  0  0  0  0
  4  3  1  0  0  0  0
  5  4  2  0  0  0  0
  5  6  1  0  0  0  0
  6  7  2  0  0  0  0
  7  2  1  0  0  0  0
  7  8  1  0  0  0  0
  9  6  1  0  0  0  0
 10 20  1  0  0  0  0
 10  4  1  0  0  0  0
 10 11  1  0  0  0  0
 12 13  2  0  0  0  0
 12 11  1  0  0  0  0
 14 12  1  0  0  0  0
 15 14  1  0  0  0  0
 15 10  1  0  0  0  0
 16 15  2  0  0  0  0
 17 18  2  0  0  0  0
 17 16  1  0  0  0  0
 18 19  1  0  0  0  0
 19 34  1  0  0  0  0
 19 14  2  0  0  0  0
 20 21  1  0  0  0  0
 21 22  2  0  0  0  0
 21 29  1  0  0  0  0
 22 28  1  0  0  0  0
 23 27  1  0  0  0  0
 23 22  1  0  0  0  0
 24 23  2  0  0  0  0
 25 24  1  0  0  0  0
 25 20  2  0  0  0  0
 26 24  1  0  0  0  0
 30  5  1  0  0  0  0
 31 16  1  0  0  0  0
 32 17  1  0  0  0  0
 33 18  1  0  0  0  0
 35 25  1  0  0  0  0
M  END
>  <Pose>
1

>  <Score>
-3.97

$$$$
