
 OpenBabel03232221553D

 35 39  0  0  0  0  0  0  0  0999 V2000
   11.4990  -21.0390  -44.2400 I   0  0  0  0  0  0  0  0  0  0  0  0
    9.7430  -19.8790  -44.0720 C   0  0  0  0  0  0  0  0  0  0  0  0
    8.5420  -20.5640  -43.9140 C   0  0  0  0  0  0  0  0  0  0  0  0
    7.3970  -19.8460  -43.8030 C   0  0  0  0  0  0  0  0  0  0  0  0
    7.4620  -18.4510  -43.8530 C   0  0  0  0  0  0  0  0  0  0  0  0
    8.6460  -17.7640  -44.0100 C   0  0  0  0  0  0  0  0  0  0  0  0
    9.8070  -18.5020  -44.1210 C   0  0  0  0  0  0  0  0  0  0  0  0
   11.0100  -17.8310  -44.2800 O   0  0  0  0  0  0  0  0  0  0  0  0
    8.6900  -15.6460  -44.0790 I   0  0  0  0  0  0  0  0  0  0  0  0
    6.0920  -20.4590  -43.6350 C   0  0  0  0  0  0  0  0  0  0  0  0
    5.2040  -20.1000  -44.7040 O   0  0  0  0  0  0  0  0  0  0  0  0
    4.0690  -19.4840  -44.2480 C   0  0  0  0  0  0  0  0  0  0  0  0
    3.0780  -19.0360  -44.8940 O   0  0  0  0  0  0  0  0  0  0  0  0
    4.1930  -19.4220  -42.7980 C   0  0  0  0  0  0  0  0  0  0  0  0
    5.3760  -19.9920  -42.4370 C   0  0  0  0  0  0  0  0  0  0  0  0
    5.7430  -20.0620  -41.0930 C   0  0  0  0  0  0  0  0  0  0  0  0
    4.9240  -19.5610  -40.1050 C   0  0  0  0  0  0  0  0  0  0  0  0
    3.7150  -18.9790  -40.4770 C   0  0  0  0  0  0  0  0  0  0  0  0
    3.3510  -18.9080  -41.7970 C   0  0  0  0  0  0  0  0  0  0  0  0
    1.8520  -18.1840  -42.2420 Cl  0  0  0  0  0  0  0  0  0  0  0  0
    2.6350  -18.3270  -39.2770 Cl  0  0  0  0  0  0  0  0  0  0  0  0
    5.4150  -19.6670  -38.4300 Cl  0  0  0  0  0  0  0  0  0  0  0  0
    7.2610  -20.8000  -40.7040 Cl  0  0  0  0  0  0  0  0  0  0  0  0
    6.1740  -21.9440  -43.6000 C   0  0  0  0  0  0  0  0  0  0  0  0
    7.3350  -22.6290  -43.7130 C   0  0  0  0  0  0  0  0  0  0  0  0
    7.2680  -24.0200  -43.6640 C   0  0  0  0  0  0  0  0  0  0  0  0
    6.0860  -24.7070  -43.5070 C   0  0  0  0  0  0  0  0  0  0  0  0
    4.9210  -23.9750  -43.3950 C   0  0  0  0  0  0  0  0  0  0  0  0
    4.9490  -22.6050  -43.4400 C   0  0  0  0  0  0  0  0  0  0  0  0
    3.0950  -24.9980  -43.1540 I   0  0  0  0  0  0  0  0  0  0  0  0
    6.0200  -26.0760  -43.4580 O   0  0  0  0  0  0  0  0  0  0  0  0
    9.0630  -25.0950  -43.8380 I   0  0  0  0  0  0  0  0  0  0  0  0
    8.5410  -21.9730  -43.8720 O   0  0  0  0  0  0  0  0  0  0  0  0
    6.5640  -17.8410  -43.7680 H   0  0  0  0  0  0  0  0  0  0  0  0
    4.0310  -22.0710  -43.3500 H   0  0  0  0  0  0  0  0  0  0  0  0
  1  2  1  0  0  0  0
  2  3  1  0  0  0  0
  3 33  1  0  0  0  0
  3  4  2  0  0  0  0
  4 10  1  0  0  0  0
  5  4  1  0  0  0  0
  5 34  1  0  0  0  0
  6  5  2  0  0  0  0
  7  2  2  0  0  0  0
  7  6  1  0  0  0  0
  8  7  1  0  0  0  0
  9  6  1  0  0  0  0
 10 24  1  0  0  0  0
 10 15  1  0  0  0  0
 11 12  1  0  0  0  0
 11 10  1  0  0  0  0
 12 14  1  0  0  0  0
 13 12  2  0  0  0  0
 14 15  2  0  0  0  0
 14 19  1  0  0  0  0
 15 16  1  0  0  0  0
 16 23  1  0  0  0  0
 16 17  2  0  0  0  0
 17 22  1  0  0  0  0
 18 17  1  0  0  0  0
 18 21  1  0  0  0  0
 19 18  2  0  0  0  0
 20 19  1  0  0  0  0
 24 29  1  0  0  0  0
 25 26  1  0  0  0  0
 25 24  2  0  0  0  0
 26 27  2  0  0  0  0
 27 31  1  0  0  0  0
 27 28  1  0  0  0  0
 28 30  1  0  0  0  0
 29 28  2  0  0  0  0
 29 35  1  0  0  0  0
 32 26  1  0  0  0  0
 33 25  1  0  0  0  0
M  END
>  <Pose>
1

>  <Score>
-4.48

$$$$
