
 OpenBabel03232221553D

 35 38  0  0  1  0  0  0  0  0999 V2000
   10.4920  -26.6530  -43.1510 I   0  0  0  0  0  0  0  0  0  0  0  0
    9.5420  -24.9780  -44.0050 C   0  0  0  0  0  0  0  0  0  0  0  0
   10.1790  -23.7630  -44.1640 C   0  0  0  0  0  0  0  0  0  0  0  0
    9.5620  -22.6650  -44.7220 C   0  0  0  0  0  0  0  0  0  0  0  0
    8.2490  -22.8100  -45.1320 C   0  0  0  0  0  0  0  0  0  0  0  0
    7.6010  -24.0260  -44.9770 C   0  0  0  0  0  0  0  0  0  0  0  0
    8.2320  -25.1280  -44.4120 C   0  0  0  0  0  0  0  0  0  0  0  0
    7.5340  -26.3260  -44.2800 O   0  0  0  0  0  0  0  0  0  0  0  0
   10.1820  -21.4430  -44.8900 C   0  0  0  0  0  0  0  0  0  0  0  0
   11.5020  -21.3700  -44.4540 C   0  0  0  0  0  0  0  0  0  0  0  0
   12.1210  -22.5560  -43.8680 C   0  0  0  0  0  0  0  0  0  0  0  0
   13.4300  -22.4220  -43.4560 C   0  0  2  0  0  0  0  0  0  0  0  0
   14.1380  -21.2460  -43.5790 C   0  0  0  0  0  0  0  0  0  0  0  0
   15.3410  -21.1420  -43.1940 O   0  0  0  0  0  0  0  0  0  0  0  0
   13.5530  -20.1240  -44.1330 C   0  0  0  0  0  0  0  0  0  0  0  0
   12.2430  -20.2260  -44.5560 C   0  0  0  0  0  0  0  0  0  0  0  0
   14.4070  -24.0740  -42.6000 I   0  0  0  0  0  0  0  0  0  0  0  0
   11.4220  -23.6600  -43.7650 O   0  0  0  0  0  0  0  0  0  0  0  0
    9.5310  -20.2780  -45.4800 C   0  0  0  0  0  0  0  0  0  0  0  0
    8.9300  -19.3550  -44.6310 C   0  0  0  0  0  0  0  0  0  0  0  0
    8.3080  -18.2450  -45.1390 C   0  0  0  0  0  0  0  0  0  0  0  0
    8.2770  -18.0460  -46.5010 C   0  0  0  0  0  0  0  0  0  0  0  0
    8.8650  -18.9440  -47.3640 C   0  0  0  0  0  0  0  0  0  0  0  0
    9.4860  -20.0520  -46.8310 C   0  0  0  0  0  0  0  0  0  0  0  0
    8.9560  -19.5560  -43.1850 C   0  0  0  0  0  0  0  0  0  0  0  0
   10.0010  -19.4610  -42.5040 O   0  0  0  0  0  0  0  0  0  0  0  0
    7.7930  -19.8690  -42.4960 O   0  0  0  0  0  0  0  0  0  0  0  0
    7.7680  -21.9470  -45.5700 H   0  0  0  0  0  0  0  0  0  0  0  0
    6.5730  -24.0750  -45.3180 H   0  0  0  0  0  0  0  0  0  0  0  0
   14.1330  -19.2140  -44.2170 H   0  0  0  0  0  0  0  0  0  0  0  0
   11.7720  -19.3570  -44.9920 H   0  0  0  0  0  0  0  0  0  0  0  0
    7.8230  -17.4960  -44.4950 H   0  0  0  0  0  0  0  0  0  0  0  0
    7.7800  -17.1620  -46.8850 H   0  0  0  0  0  0  0  0  0  0  0  0
    8.8210  -18.7520  -48.4410 H   0  0  0  0  0  0  0  0  0  0  0  0
    9.9580  -20.7810  -47.4800 H   0  0  0  0  0  0  0  0  0  0  0  0
  2  1  1  0  0  0  0
  3  2  2  0  0  0  0
  3 18  1  0  0  0  0
  4  3  1  0  0  0  0
  5  6  1  0  0  0  0
  5  4  1  0  0  0  0
  6  7  2  0  0  0  0
  7  8  1  0  0  0  0
  7  2  1  0  0  0  0
  9  4  2  0  0  0  0
  9 10  1  0  0  0  0
 10 11  2  0  0  0  0
 11 18  1  0  0  0  0
 11 12  1  0  0  0  0
 12 17  1  6  0  0  0
 13 12  1  0  0  0  0
 13 14  2  0  0  0  0
 15 13  1  0  0  0  0
 16 10  1  0  0  0  0
 16 15  2  0  0  0  0
 19  9  1  0  0  0  0
 19 20  1  0  0  0  0
 20 25  1  0  0  0  0
 21 20  2  0  0  0  0
 21 32  1  0  0  0  0
 22 21  1  0  0  0  0
 23 24  1  0  0  0  0
 23 22  2  0  0  0  0
 24 19  2  0  0  0  0
 25 26  2  0  0  0  0
 25 27  1  0  0  0  0
 28  5  1  0  0  0  0
 29  6  1  0  0  0  0
 30 15  1  0  0  0  0
 31 16  1  0  0  0  0
 33 22  1  0  0  0  0
 34 23  1  0  0  0  0
 35 24  1  0  0  0  0
M  END
>  <Pose>
1

>  <Score>
-3.76

$$$$
