
 OpenBabel03232221553D

 38 41  0  0  0  0  0  0  0  0999 V2000
   -1.1110  -18.0310  -36.8570 S   0  0  0  0  0  0  0  0  0  0  0  0
   -1.0330  -17.2830  -35.5550 O   0  0  0  0  0  0  0  0  0  0  0  0
   -1.8920  -17.2070  -37.8510 O   0  0  0  0  0  0  0  0  0  0  0  0
   -1.8700  -19.5020  -36.5620 O   0  0  0  0  0  0  0  0  0  0  0  0
    0.5010  -18.2620  -37.3860 O   0  0  0  0  0  0  0  0  0  0  0  0
    1.1120  -17.3590  -38.2490 C   0  0  0  0  0  0  0  0  0  0  0  0
    1.1130  -15.9760  -38.0200 C   0  0  0  0  0  0  0  0  0  0  0  0
    1.8110  -15.4450  -39.0820 C   0  0  0  0  0  0  0  0  0  0  0  0
    2.1970  -16.4470  -39.8840 N   0  0  0  0  0  0  0  0  0  0  0  0
    1.7820  -17.6600  -39.4050 C   0  0  0  0  0  0  0  0  0  0  0  0
    2.0010  -18.9440  -40.0610 C   0  0  0  0  0  0  0  0  0  0  0  0
    0.9820  -19.7220  -40.5170 N   0  0  0  0  0  0  0  0  0  0  0  0
    1.4540  -20.8540  -41.0620 C   0  0  0  0  0  0  0  0  0  0  0  0
    2.8290  -20.8500  -40.9770 C   0  0  0  0  0  0  0  0  0  0  0  0
    3.1350  -19.6400  -40.3430 C   0  0  0  0  0  0  0  0  0  0  0  0
    4.4350  -19.2600  -40.0630 O   0  0  0  0  0  0  0  0  0  0  0  0
    5.4920  -20.2330  -39.1440 S   0  0  0  0  0  0  0  0  0  0  0  0
    6.4720  -20.9450  -40.0300 O   0  0  0  0  0  0  0  0  0  0  0  0
    4.7490  -21.2800  -38.3640 O   0  0  0  0  0  0  0  0  0  0  0  0
    6.2930  -19.2690  -37.9990 O   0  0  0  0  0  0  0  0  0  0  0  0
    3.6000  -21.8890  -41.4580 C   0  0  0  0  0  0  0  0  0  0  0  0
    3.0020  -22.9890  -42.0520 C   0  0  0  0  0  0  0  0  0  0  0  0
    1.6200  -23.0080  -42.1460 C   0  0  0  0  0  0  0  0  0  0  0  0
    0.8670  -21.9590  -41.6600 C   0  0  0  0  0  0  0  0  0  0  0  0
   -1.0310  -22.0500  -41.8210 B   0  0  0  0  0  0  0  0  0  0  0  0
    4.0520  -24.4440  -42.7270 B   0  0  0  0  0  0  0  0  0  0  0  0
    1.9860  -14.0650  -39.1390 C   0  0  0  0  0  0  0  0  0  0  0  0
    1.4640  -13.2780  -38.1500 C   0  0  0  0  0  0  0  0  0  0  0  0
    0.7540  -13.8130  -37.0690 C   0  0  0  0  0  0  0  0  0  0  0  0
    0.5810  -15.1990  -37.0150 C   0  0  0  0  0  0  0  0  0  0  0  0
    0.0540  -12.6670  -35.7270 B   0  0  0  0  0  0  0  0  0  0  0  0
    2.9420  -13.3060  -40.5870 B   0  0  0  0  0  0  0  0  0  0  0  0
    2.7520  -16.3360  -40.7790 H   0  0  0  0  0  0  0  0  0  0  0  0
   -0.0370  -19.5000  -40.4660 H   0  0  0  0  0  0  0  0  0  0  0  0
    4.6610  -21.8350  -41.3650 H   0  0  0  0  0  0  0  0  0  0  0  0
    1.1480  -23.8800  -42.6180 H   0  0  0  0  0  0  0  0  0  0  0  0
    1.5780  -12.2020  -38.1580 H   0  0  0  0  0  0  0  0  0  0  0  0
    0.0350  -15.6480  -36.1930 H   0  0  0  0  0  0  0  0  0  0  0  0
  1  4  1  0  0  0  0
  1  2  1  0  0  0  0
  3  1  1  0  0  0  0
  5  1  1  0  0  0  0
  6  7  1  0  0  0  0
  6  5  1  0  0  0  0
  7 30  1  0  0  0  0
  8  7  2  0  0  0  0
  9 10  1  0  0  0  0
  9  8  1  0  0  0  0
 10  6  2  0  0  0  0
 11 10  1  0  0  0  0
 12 34  1  0  0  0  0
 12 11  1  0  0  0  0
 13 14  1  0  0  0  0
 13 12  1  0  0  0  0
 14 15  1  0  0  0  0
 15 16  1  0  0  0  0
 15 11  2  0  0  0  0
 16 17  1  0  0  0  0
 17 19  1  0  0  0  0
 17 20  1  0  0  0  0
 18 17  1  0  0  0  0
 21 35  1  0  0  0  0
 21 14  2  0  0  0  0
 22 21  1  0  0  0  0
 23 22  2  0  0  0  0
 23 24  1  0  0  0  0
 24 13  2  0  0  0  0
 25 24  1  0  0  0  0
 26 22  1  0  0  0  0
 27  8  1  0  0  0  0
 27 28  2  0  0  0  0
 28 29  1  0  0  0  0
 29 30  2  0  0  0  0
 29 31  1  0  0  0  0
 30 38  1  0  0  0  0
 32 27  1  0  0  0  0
 33  9  1  0  0  0  0
 36 23  1  0  0  0  0
 37 28  1  0  0  0  0
M  END
>  <Pose>
1

>  <Score>
-5.59

$$$$
