
 OpenBabel03232221553D

 33 36  0  0  1  0  0  0  0  0999 V2000
    5.8360  -19.8280  -38.6440 P   0  0  2  0  0  0  0  0  0  0  0  0
    5.8110  -21.5430  -38.9670 S   0  0  0  0  0  0  0  0  0  0  0  0
    4.5320  -19.4170  -37.6210 O   0  0  0  0  0  0  0  0  0  0  0  0
    3.3900  -19.5020  -38.3780 C   0  0  2  0  0  0  0  0  0  0  0  0
    3.4770  -18.4730  -39.5140 C   0  0  2  0  0  0  0  0  0  0  0  0
    2.1470  -18.4570  -39.9300 O   0  0  0  0  0  0  0  0  0  0  0  0
    1.3980  -18.3330  -38.7850 C   0  0  2  0  0  0  0  0  0  0  0  0
    2.1580  -18.9870  -37.6590 C   0  0  2  0  0  0  0  0  0  0  0  0
    2.5940  -17.9620  -36.8080 O   0  0  0  0  0  0  0  0  0  0  0  0
    0.1090  -18.9910  -38.8780 N   0  0  0  0  0  0  0  0  0  0  0  0
   -0.9510  -18.7060  -38.0800 C   0  0  0  0  0  0  0  0  0  0  0  0
   -1.1110  -17.8190  -37.0640 N   0  0  0  0  0  0  0  0  0  0  0  0
   -2.2830  -17.7180  -36.4070 C   0  0  0  0  0  0  0  0  0  0  0  0
   -3.3240  -18.5110  -36.7620 N   0  0  0  0  0  0  0  0  0  0  0  0
   -3.2040  -19.4020  -37.7620 C   0  0  0  0  0  0  0  0  0  0  0  0
   -2.0070  -19.5160  -38.4450 C   0  0  0  0  0  0  0  0  0  0  0  0
   -1.5870  -20.2890  -39.4620 N   0  0  0  0  0  0  0  0  0  0  0  0
   -0.3010  -19.9600  -39.7140 C   0  0  0  0  0  0  0  0  0  0  0  0
    0.8470  -20.7170  -41.0550 B   0  0  0  0  0  0  0  0  0  0  0  0
   -4.3120  -20.2320  -38.1250 N   0  0  0  0  0  0  0  0  0  0  0  0
    4.4220  -18.9230  -40.5840 C   0  0  0  0  0  0  0  0  0  0  0  0
    5.7010  -18.9460  -40.0570 O   0  0  0  0  0  0  0  0  0  0  0  0
    7.2570  -19.4720  -37.8430 O   0  0  0  0  0  0  0  0  0  0  0  0
    3.2370  -20.4760  -38.8430 H   0  0  0  0  0  0  0  0  0  0  0  0
    3.7480  -17.5120  -39.0570 H   0  0  0  0  0  0  0  0  0  0  0  0
    1.1990  -17.2520  -38.6000 H   0  0  0  0  0  0  0  0  0  0  0  0
    1.5990  -19.7690  -37.1440 H   0  0  0  0  0  0  0  0  0  0  0  0
    3.5610  -17.8380  -36.8200 H   0  0  0  0  0  0  0  0  0  0  0  0
   -2.3670  -16.9890  -35.5950 H   0  0  0  0  0  0  0  0  0  0  0  0
   -4.4110  -20.5250  -39.1350 H   0  0  0  0  0  0  0  0  0  0  0  0
   -5.0180  -20.5550  -37.4340 H   0  0  0  0  0  0  0  0  0  0  0  0
    4.3980  -18.1990  -41.3980 H   0  0  0  0  0  0  0  0  0  0  0  0
    4.0800  -19.9080  -40.9540 H   0  0  0  0  0  0  0  0  0  0  0  0
  1  2  1  6  0  0  0
  1 23  2  0  0  0  0
  1  3  1  0  0  0  0
  4 24  1  6  0  0  0
  4  8  1  0  0  0  0
  4  3  1  0  0  0  0
  5 25  1  1  0  0  0
  5  4  1  0  0  0  0
  6  5  1  0  0  0  0
  6  7  1  0  0  0  0
  7 26  1  1  0  0  0
  7  8  1  0  0  0  0
  8 27  1  1  0  0  0
  8  9  1  0  0  0  0
 10  7  1  0  0  0  0
 10 11  1  0  0  0  0
 11 12  1  0  0  0  0
 12 13  2  0  0  0  0
 13 29  1  0  0  0  0
 14 13  1  0  0  0  0
 15 14  2  0  0  0  0
 16 11  2  0  0  0  0
 16 15  1  0  0  0  0
 17 16  1  0  0  0  0
 18 17  2  0  0  0  0
 18 10  1  0  0  0  0
 19 18  1  0  0  0  0
 20 15  1  0  0  0  0
 20 31  1  0  0  0  0
 21 22  1  0  0  0  0
 21  5  1  0  0  0  0
 22  1  1  0  0  0  0
 28  9  1  0  0  0  0
 30 20  1  0  0  0  0
 32 21  1  0  0  0  0
 33 21  1  0  0  0  0
M  END
>  <Pose>
1

>  <Score>
-4.71

$$$$
