
 OpenBabel03232221553D

 47 50  0  0  1  0  0  0  0  0999 V2000
   10.8140  -26.4800  -42.2020 S   0  0  0  0  0  0  0  0  0  0  0  0
    9.7310  -27.0530  -41.3110 O   0  0  0  0  0  0  0  0  0  0  0  0
   11.8200  -25.7710  -41.3290 O   0  0  0  0  0  0  0  0  0  0  0  0
   11.5290  -27.7960  -43.0360 N   0  0  0  0  0  0  0  0  0  0  0  0
   10.0870  -25.3730  -43.3280 C   0  0  0  0  0  0  0  0  0  0  0  0
    8.7550  -25.0530  -43.2040 C   0  0  0  0  0  0  0  0  0  0  0  0
    8.1250  -24.1730  -44.0780 C   0  0  0  0  0  0  0  0  0  0  0  0
    8.8840  -23.6220  -45.0870 C   0  0  0  0  0  0  0  0  0  0  0  0
   10.2350  -23.9410  -45.2190 C   0  0  0  0  0  0  0  0  0  0  0  0
   10.8410  -24.8140  -44.3440 C   0  0  0  0  0  0  0  0  0  0  0  0
    8.0990  -22.4140  -46.3170 B   0  0  0  0  0  0  0  0  0  0  0  0
    6.7200  -23.8470  -43.9350 C   0  0  0  0  0  0  0  0  0  0  0  0
    6.3760  -22.6420  -43.8500 O   0  0  0  0  0  0  0  0  0  0  0  0
    5.7320  -24.8740  -43.8940 N   0  0  0  0  0  0  0  0  0  0  0  0
    4.6790  -24.8440  -42.9020 C   0  0  0  0  0  0  0  0  0  0  0  0
    3.3460  -25.2580  -43.4430 C   0  0  2  0  0  0  0  0  0  0  0  0
    3.4500  -25.1990  -44.9700 C   0  0  0  0  0  0  0  0  0  0  0  0
    4.3940  -26.3170  -45.3560 C   0  0  0  0  0  0  0  0  0  0  0  0
    5.7630  -25.9630  -44.8360 C   0  0  0  0  0  0  0  0  0  0  0  0
    2.2190  -24.4020  -42.9530 C   0  0  0  0  0  0  0  0  0  0  0  0
    1.0920  -24.8310  -42.3260 N   0  0  0  0  0  0  0  0  0  0  0  0
    0.3040  -23.7940  -42.0300 C   0  0  0  0  0  0  0  0  0  0  0  0
    0.9770  -22.6970  -42.4930 N   0  0  0  0  0  0  0  0  0  0  0  0
    2.1170  -23.0670  -43.0420 N   0  0  0  0  0  0  0  0  0  0  0  0
   -0.9500  -24.2140  -41.3380 C   0  0  0  0  0  0  0  0  0  0  0  0
   -0.6350  -25.6280  -40.9610 C   0  0  0  0  0  0  0  0  0  0  0  0
    0.4830  -26.0720  -41.8810 C   0  0  0  0  0  0  0  0  0  0  0  0
   11.4570  -28.6890  -42.4900 H   0  0  0  0  0  0  0  0  0  0  0  0
   12.5360  -27.5870  -43.2510 H   0  0  0  0  0  0  0  0  0  0  0  0
    8.1960  -25.5220  -42.3800 H   0  0  0  0  0  0  0  0  0  0  0  0
   10.7820  -23.4800  -46.0290 H   0  0  0  0  0  0  0  0  0  0  0  0
   11.8820  -25.0730  -44.4300 H   0  0  0  0  0  0  0  0  0  0  0  0
    4.6420  -23.8890  -42.3460 H   0  0  0  0  0  0  0  0  0  0  0  0
    4.9650  -25.6170  -42.1310 H   0  0  0  0  0  0  0  0  0  0  0  0
    3.0840  -26.3130  -43.2240 H   0  0  0  0  0  0  0  0  0  0  0  0
    2.4520  -25.3150  -45.4240 H   0  0  0  0  0  0  0  0  0  0  0  0
    3.8920  -24.2350  -45.2760 H   0  0  0  0  0  0  0  0  0  0  0  0
    4.0090  -27.2640  -44.8940 H   0  0  0  0  0  0  0  0  0  0  0  0
    4.3680  -26.4280  -46.4580 H   0  0  0  0  0  0  0  0  0  0  0  0
    6.3550  -25.6180  -45.7310 H   0  0  0  0  0  0  0  0  0  0  0  0
    6.2650  -26.8700  -44.4250 H   0  0  0  0  0  0  0  0  0  0  0  0
   -1.1160  -23.6250  -40.4030 H   0  0  0  0  0  0  0  0  0  0  0  0
   -1.7970  -24.1230  -42.0470 H   0  0  0  0  0  0  0  0  0  0  0  0
   -0.3150  -25.7340  -39.8880 H   0  0  0  0  0  0  0  0  0  0  0  0
   -1.5500  -26.2500  -41.1070 H   0  0  0  0  0  0  0  0  0  0  0  0
    0.0090  -26.6270  -42.7160 H   0  0  0  0  0  0  0  0  0  0  0  0
    1.1760  -26.7430  -41.3770 H   0  0  0  0  0  0  0  0  0  0  0  0
  1  3  2  0  0  0  0
  1  2  2  0  0  0  0
  4 28  1  0  0  0  0
  4  1  1  0  0  0  0
  5  6  1  0  0  0  0
  5  1  1  0  0  0  0
  6 30  1  0  0  0  0
  7 12  1  0  0  0  0
  7  6  2  0  0  0  0
  8  7  1  0  0  0  0
  9  8  2  0  0  0  0
  9 10  1  0  0  0  0
 10  5  2  0  0  0  0
 11  8  1  0  0  0  0
 12 14  1  0  0  0  0
 12 13  2  0  0  0  0
 14 15  1  0  0  0  0
 15 33  1  0  0  0  0
 15 34  1  0  0  0  0
 16 35  1  1  0  0  0
 16 20  1  0  0  0  0
 16 15  1  0  0  0  0
 17 16  1  0  0  0  0
 18 17  1  0  0  0  0
 18 38  1  0  0  0  0
 18 19  1  0  0  0  0
 19 41  1  0  0  0  0
 19 14  1  0  0  0  0
 20 21  1  0  0  0  0
 21 22  1  0  0  0  0
 21 27  1  0  0  0  0
 22 25  1  0  0  0  0
 23 22  2  0  0  0  0
 24 20  2  0  0  0  0
 24 23  1  0  0  0  0
 25 26  1  0  0  0  0
 25 42  1  0  0  0  0
 26 44  1  0  0  0  0
 27 47  1  0  0  0  0
 27 26  1  0  0  0  0
 29  4  1  0  0  0  0
 31  9  1  0  0  0  0
 32 10  1  0  0  0  0
 36 17  1  0  0  0  0
 37 17  1  0  0  0  0
 39 18  1  0  0  0  0
 40 19  1  0  0  0  0
 43 25  1  0  0  0  0
 45 26  1  0  0  0  0
 46 27  1  0  0  0  0
M  END
>  <Pose>
1

>  <Score>
-4.60

$$$$
