
 OpenBabel03232221553D

 43 46  0  0  0  0  0  0  0  0999 V2000
    6.7130  -22.8910  -43.6270 S   0  0  0  0  0  0  0  0  0  0  0  0
    7.8820  -23.0750  -42.7140 O   0  0  0  0  0  0  0  0  0  0  0  0
    7.1880  -22.1490  -44.8680 O   0  0  0  0  0  0  0  0  0  0  0  0
    5.5300  -21.8850  -42.8810 N   0  0  0  0  0  0  0  0  0  0  0  0
    6.0330  -20.6420  -42.4270 C   0  0  0  0  0  0  0  0  0  0  0  0
    6.0250  -20.4150  -40.9540 C   0  0  0  0  0  0  0  0  0  0  0  0
    4.9100  -21.0190  -40.2740 N   0  0  0  0  0  0  0  0  0  0  0  0
    3.9580  -21.7280  -41.1000 C   0  0  0  0  0  0  0  0  0  0  0  0
    4.7990  -22.6660  -41.9420 C   0  0  0  0  0  0  0  0  0  0  0  0
    4.6980  -20.9590  -38.8840 C   0  0  0  0  0  0  0  0  0  0  0  0
    5.3720  -21.6840  -38.1190 O   0  0  0  0  0  0  0  0  0  0  0  0
    3.6960  -20.0580  -38.3260 C   0  0  0  0  0  0  0  0  0  0  0  0
    2.4060  -20.0340  -38.6450 N   0  0  0  0  0  0  0  0  0  0  0  0
    1.7720  -19.0880  -37.9480 N   0  0  0  0  0  0  0  0  0  0  0  0
    2.6550  -18.4590  -37.1400 C   0  0  0  0  0  0  0  0  0  0  0  0
    3.8860  -19.0800  -37.3830 C   0  0  0  0  0  0  0  0  0  0  0  0
    2.2810  -17.4480  -36.3160 N   0  0  0  0  0  0  0  0  0  0  0  0
    0.9760  -17.0490  -36.2970 C   0  0  0  0  0  0  0  0  0  0  0  0
    0.0520  -17.6720  -37.1080 C   0  0  0  0  0  0  0  0  0  0  0  0
    0.4820  -18.6920  -37.9270 C   0  0  0  0  0  0  0  0  0  0  0  0
   -1.7870  -17.1080  -37.0800 B   0  0  0  0  0  0  0  0  0  0  0  0
    6.0670  -24.4560  -44.0510 C   0  0  0  0  0  0  0  0  0  0  0  0
    4.9310  -24.7210  -44.7810 C   0  0  0  0  0  0  0  0  0  0  0  0
    4.7670  -26.0400  -44.8950 N   0  0  0  0  0  0  0  0  0  0  0  0
    5.7580  -26.6400  -44.2640 N   0  0  0  0  0  0  0  0  0  0  0  0
    6.5870  -25.7100  -43.7260 C   0  0  0  0  0  0  0  0  0  0  0  0
    3.7080  -26.7320  -45.5790 C   0  0  0  0  0  0  0  0  0  0  0  0
    7.0690  -20.5070  -42.8020 H   0  0  0  0  0  0  0  0  0  0  0  0
    5.4300  -19.8330  -42.8990 H   0  0  0  0  0  0  0  0  0  0  0  0
    6.9690  -20.7990  -40.4670 H   0  0  0  0  0  0  0  0  0  0  0  0
    6.0000  -19.3310  -40.7110 H   0  0  0  0  0  0  0  0  0  0  0  0
    3.2250  -22.3040  -40.5060 H   0  0  0  0  0  0  0  0  0  0  0  0
    3.4740  -20.9670  -41.7520 H   0  0  0  0  0  0  0  0  0  0  0  0
    4.1210  -23.3430  -42.5050 H   0  0  0  0  0  0  0  0  0  0  0  0
    5.4310  -23.2720  -41.2750 H   0  0  0  0  0  0  0  0  0  0  0  0
    4.8160  -18.8370  -36.9140 H   0  0  0  0  0  0  0  0  0  0  0  0
    0.6320  -16.2490  -35.6570 H   0  0  0  0  0  0  0  0  0  0  0  0
   -0.2330  -19.1920  -38.5730 H   0  0  0  0  0  0  0  0  0  0  0  0
    4.2350  -24.0040  -45.2230 H   0  0  0  0  0  0  0  0  0  0  0  0
    7.4860  -25.8870  -43.1510 H   0  0  0  0  0  0  0  0  0  0  0  0
    3.0380  -27.1830  -44.8180 H   0  0  0  0  0  0  0  0  0  0  0  0
    4.1220  -27.5790  -46.1620 H   0  0  0  0  0  0  0  0  0  0  0  0
    3.1200  -26.0470  -46.2230 H   0  0  0  0  0  0  0  0  0  0  0  0
  1  4  1  0  0  0  0
  1  2  2  0  0  0  0
  3  1  2  0  0  0  0
  4  5  1  0  0  0  0
  4  9  1  0  0  0  0
  5  6  1  0  0  0  0
  6 31  1  0  0  0  0
  6 30  1  0  0  0  0
  6  7  1  0  0  0  0
  7 10  1  0  0  0  0
  8 32  1  0  0  0  0
  8  7  1  0  0  0  0
  9 35  1  0  0  0  0
  9  8  1  0  0  0  0
 10 12  1  0  0  0  0
 10 11  2  0  0  0  0
 12 16  1  0  0  0  0
 13 12  2  0  0  0  0
 13 14  1  0  0  0  0
 14 20  1  0  0  0  0
 14 15  1  0  0  0  0
 15 17  1  0  0  0  0
 16 15  2  0  0  0  0
 16 36  1  0  0  0  0
 17 18  2  0  0  0  0
 18 37  1  0  0  0  0
 19 21  1  0  0  0  0
 19 18  1  0  0  0  0
 20 19  2  0  0  0  0
 22 26  1  0  0  0  0
 22  1  1  0  0  0  0
 23 22  2  0  0  0  0
 24 23  1  0  0  0  0
 24 25  1  0  0  0  0
 25 26  2  0  0  0  0
 26 40  1  0  0  0  0
 27 24  1  0  0  0  0
 27 41  1  0  0  0  0
 28  5  1  0  0  0  0
 29  5  1  0  0  0  0
 33  8  1  0  0  0  0
 34  9  1  0  0  0  0
 38 20  1  0  0  0  0
 39 23  1  0  0  0  0
 42 27  1  0  0  0  0
 43 27  1  0  0  0  0
M  END
>  <Pose>
1

>  <Score>
-4.82

$$$$
