
 OpenBabel03232221553D

 49 52  0  0  1  0  0  0  0  0999 V2000
    0.1040  -13.9890  -37.0410 S   0  0  0  0  0  0  0  0  0  0  0  0
   -0.9540  -13.1300  -36.4410 O   0  0  0  0  0  0  0  0  0  0  0  0
    0.8550  -14.6720  -35.9240 O   0  0  0  0  0  0  0  0  0  0  0  0
   -0.5850  -15.1770  -38.0280 N   0  0  0  0  0  0  0  0  0  0  0  0
   -1.5890  -15.9800  -37.4410 C   0  0  0  0  0  0  0  0  0  0  0  0
   -1.2100  -17.3410  -37.0250 C   0  0  0  0  0  0  0  0  0  0  0  0
   -0.3170  -17.9610  -37.9580 N   0  0  0  0  0  0  0  0  0  0  0  0
    0.0370  -17.2660  -39.1610 C   0  0  0  0  0  0  0  0  0  0  0  0
    0.2820  -15.8030  -38.9590 C   0  0  0  0  0  0  0  0  0  0  0  0
    0.2130  -19.2420  -37.7050 C   0  0  0  0  0  0  0  0  0  0  0  0
   -0.5260  -20.1140  -37.1950 O   0  0  0  0  0  0  0  0  0  0  0  0
    1.5880  -19.6220  -38.0040 C   0  0  1  0  0  0  0  0  0  0  0  0
    2.6110  -19.2220  -37.1640 C   0  0  0  0  0  0  0  0  0  0  0  0
    3.8770  -19.5720  -37.4380 N   0  0  0  0  0  0  0  0  0  0  0  0
    4.2070  -20.3130  -38.5180 C   0  0  1  0  0  0  0  0  0  0  0  0
    3.2370  -20.7180  -39.3550 N   0  0  0  0  0  0  0  0  0  0  0  0
    3.5660  -21.4660  -40.4460 C   0  0  0  0  0  0  0  0  0  0  0  0
    4.8700  -21.8210  -40.7200 C   0  0  0  0  0  0  0  0  0  0  0  0
    5.8870  -21.4140  -39.8710 C   0  0  0  0  0  0  0  0  0  0  0  0
    5.5290  -20.6610  -38.7770 C   0  0  0  0  0  0  0  0  0  0  0  0
    5.2670  -22.6340  -41.8970 C   0  0  0  0  0  0  0  0  0  0  0  0
    1.9450  -20.3780  -39.1020 C   0  0  0  0  0  0  0  0  0  0  0  0
    1.0510  -20.7540  -39.8750 O   0  0  0  0  0  0  0  0  0  0  0  0
    1.2400  -13.0340  -37.9550 C   0  0  0  0  0  0  0  0  0  0  0  0
    2.3090  -12.4340  -37.3240 C   0  0  0  0  0  0  0  0  0  0  0  0
    3.1760  -11.6870  -38.1140 C   0  0  0  0  0  0  0  0  0  0  0  0
    2.9930  -11.5410  -39.4640 C   0  0  0  0  0  0  0  0  0  0  0  0
    1.9140  -12.1490  -40.0900 C   0  0  0  0  0  0  0  0  0  0  0  0
    1.0290  -12.9060  -39.3130 C   0  0  0  0  0  0  0  0  0  0  0  0
    4.6690  -10.8340  -37.3020 B   0  0  0  0  0  0  0  0  0  0  0  0
   -2.0050  -15.4300  -36.5570 H   0  0  0  0  0  0  0  0  0  0  0  0
   -2.4450  -16.0550  -38.1610 H   0  0  0  0  0  0  0  0  0  0  0  0
   -0.7210  -17.2570  -36.0090 H   0  0  0  0  0  0  0  0  0  0  0  0
   -2.0880  -18.0360  -36.9140 H   0  0  0  0  0  0  0  0  0  0  0  0
    0.9130  -17.7530  -39.6360 H   0  0  0  0  0  0  0  0  0  0  0  0
   -0.8120  -17.4360  -39.8880 H   0  0  0  0  0  0  0  0  0  0  0  0
    0.1940  -15.2930  -39.9400 H   0  0  0  0  0  0  0  0  0  0  0  0
    1.3290  -15.6680  -38.6220 H   0  0  0  0  0  0  0  0  0  0  0  0
    2.3590  -18.6210  -36.2830 H   0  0  0  0  0  0  0  0  0  0  0  0
    2.7800  -21.7880  -41.1150 H   0  0  0  0  0  0  0  0  0  0  0  0
    6.9260  -21.6620  -40.0330 H   0  0  0  0  0  0  0  0  0  0  0  0
    6.3100  -20.3350  -38.1050 H   0  0  0  0  0  0  0  0  0  0  0  0
    5.2210  -23.7280  -41.6480 H   0  0  0  0  0  0  0  0  0  0  0  0
    6.3090  -22.3880  -42.2180 H   0  0  0  0  0  0  0  0  0  0  0  0
    4.5540  -22.5010  -42.7400 H   0  0  0  0  0  0  0  0  0  0  0  0
    2.4560  -12.5460  -36.2630 H   0  0  0  0  0  0  0  0  0  0  0  0
    3.6930  -10.9500  -40.0380 H   0  0  0  0  0  0  0  0  0  0  0  0
    1.7810  -12.0270  -41.1520 H   0  0  0  0  0  0  0  0  0  0  0  0
    0.1880  -13.3840  -39.7810 H   0  0  0  0  0  0  0  0  0  0  0  0
  1  2  2  0  0  0  0
  1  3  2  0  0  0  0
  4  5  1  0  0  0  0
  4  1  1  0  0  0  0
  5  6  1  0  0  0  0
  5 31  1  0  0  0  0
  6 34  1  0  0  0  0
  6 33  1  0  0  0  0
  7 10  1  0  0  0  0
  7  6  1  0  0  0  0
  8  9  1  0  0  0  0
  8  7  1  0  0  0  0
  9 38  1  0  0  0  0
  9  4  1  0  0  0  0
 10 11  2  0  0  0  0
 12 10  1  1  0  0  0
 12 13  1  0  0  0  0
 13 39  1  0  0  0  0
 14 13  2  0  0  0  0
 15 20  1  6  0  0  0
 15 14  1  0  0  0  0
 16 22  1  0  0  0  0
 16 15  1  0  0  0  0
 17 16  1  0  0  0  0
 18 17  2  0  0  0  0
 18 19  1  0  0  0  0
 19 20  2  0  0  0  0
 20 42  1  0  0  0  0
 21 43  1  0  0  0  0
 21 18  1  0  0  0  0
 22 12  1  0  0  0  0
 23 22  2  0  0  0  0
 24 25  1  0  0  0  0
 24  1  1  0  0  0  0
 25 46  1  0  0  0  0
 26 25  2  0  0  0  0
 26 30  1  0  0  0  0
 27 26  1  0  0  0  0
 28 27  2  0  0  0  0
 28 29  1  0  0  0  0
 29 24  2  0  0  0  0
 32  5  1  0  0  0  0
 35  8  1  0  0  0  0
 36  8  1  0  0  0  0
 37  9  1  0  0  0  0
 40 17  1  0  0  0  0
 41 19  1  0  0  0  0
 44 21  1  0  0  0  0
 45 21  1  0  0  0  0
 47 27  1  0  0  0  0
 48 28  1  0  0  0  0
 49 29  1  0  0  0  0
M  END
>  <Pose>
1

>  <Score>
-4.71

$$$$
