
 OpenBabel03232221553D

 53 56  0  0  0  0  0  0  0  0999 V2000
    5.8590  -20.5900  -38.7240 S   0  0  0  0  0  0  0  0  0  0  0  0
    5.9710  -22.0570  -38.3400 O   0  0  0  0  0  0  0  0  0  0  0  0
    6.7300  -19.8000  -37.7910 O   0  0  0  0  0  0  0  0  0  0  0  0
    6.4570  -20.4200  -40.3370 N   0  0  0  0  0  0  0  0  0  0  0  0
    6.1770  -19.0940  -40.7760 C   0  0  0  0  0  0  0  0  0  0  0  0
    5.9360  -18.9910  -42.2670 C   0  0  0  0  0  0  0  0  0  0  0  0
    6.6410  -20.0700  -42.8950 N   0  0  0  0  0  0  0  0  0  0  0  0
    6.2590  -21.4150  -42.5780 C   0  0  0  0  0  0  0  0  0  0  0  0
    5.8350  -21.4520  -41.1320 C   0  0  0  0  0  0  0  0  0  0  0  0
    7.6810  -19.8030  -43.8000 C   0  0  0  0  0  0  0  0  0  0  0  0
    8.9190  -19.4650  -43.4040 N   0  0  0  0  0  0  0  0  0  0  0  0
    9.9370  -19.2010  -44.2040 C   0  0  0  0  0  0  0  0  0  0  0  0
    9.7160  -19.2790  -45.5690 C   0  0  0  0  0  0  0  0  0  0  0  0
    8.4630  -19.6230  -46.0250 C   0  0  0  0  0  0  0  0  0  0  0  0
    7.4830  -19.8750  -45.1390 N   0  0  0  0  0  0  0  0  0  0  0  0
    8.1850  -19.7180  -47.4830 C   0  0  0  0  0  0  0  0  0  0  0  0
   11.1960  -18.8540  -43.6590 N   0  0  0  0  0  0  0  0  0  0  0  0
   11.8150  -19.5620  -42.5570 C   0  0  0  0  0  0  0  0  0  0  0  0
   13.3150  -19.2920  -42.6650 C   0  0  0  0  0  0  0  0  0  0  0  0
   13.6500  -19.3880  -44.0170 O   0  0  0  0  0  0  0  0  0  0  0  0
   13.2350  -18.3060  -44.7600 C   0  0  0  0  0  0  0  0  0  0  0  0
   11.9180  -17.7350  -44.2210 C   0  0  0  0  0  0  0  0  0  0  0  0
    4.1890  -20.1130  -38.6080 C   0  0  0  0  0  0  0  0  0  0  0  0
    3.7610  -19.4610  -37.4590 C   0  0  0  0  0  0  0  0  0  0  0  0
    2.4560  -19.0540  -37.2970 C   0  0  0  0  0  0  0  0  0  0  0  0
    1.5400  -19.2940  -38.2920 C   0  0  0  0  0  0  0  0  0  0  0  0
    1.9260  -19.9400  -39.4510 C   0  0  0  0  0  0  0  0  0  0  0  0
    3.2540  -20.3390  -39.5840 C   0  0  0  0  0  0  0  0  0  0  0  0
   -0.2630  -18.7240  -38.0520 B   0  0  0  0  0  0  0  0  0  0  0  0
    5.3560  -18.5880  -40.2420 H   0  0  0  0  0  0  0  0  0  0  0  0
    7.0920  -18.4670  -40.5740 H   0  0  0  0  0  0  0  0  0  0  0  0
    6.1940  -18.0020  -42.6710 H   0  0  0  0  0  0  0  0  0  0  0  0
    4.8240  -19.1050  -42.4110 H   0  0  0  0  0  0  0  0  0  0  0  0
    7.0850  -22.1320  -42.7840 H   0  0  0  0  0  0  0  0  0  0  0  0
    5.3880  -21.7750  -43.1770 H   0  0  0  0  0  0  0  0  0  0  0  0
    6.1620  -22.4280  -40.7160 H   0  0  0  0  0  0  0  0  0  0  0  0
    4.7300  -21.4110  -41.0060 H   0  0  0  0  0  0  0  0  0  0  0  0
   10.5370  -19.0670  -46.2280 H   0  0  0  0  0  0  0  0  0  0  0  0
    8.0570  -20.7870  -47.7930 H   0  0  0  0  0  0  0  0  0  0  0  0
    7.2190  -19.2180  -47.6840 H   0  0  0  0  0  0  0  0  0  0  0  0
    8.9530  -19.1920  -48.0770 H   0  0  0  0  0  0  0  0  0  0  0  0
   11.4690  -19.2090  -41.5680 H   0  0  0  0  0  0  0  0  0  0  0  0
   11.6750  -20.6690  -42.6650 H   0  0  0  0  0  0  0  0  0  0  0  0
   13.8880  -20.0220  -42.0930 H   0  0  0  0  0  0  0  0  0  0  0  0
   13.5360  -18.2760  -42.2940 H   0  0  0  0  0  0  0  0  0  0  0  0
   13.0190  -18.6210  -45.8230 H   0  0  0  0  0  0  0  0  0  0  0  0
   13.9980  -17.5190  -44.8020 H   0  0  0  0  0  0  0  0  0  0  0  0
   12.1410  -16.9690  -43.4410 H   0  0  0  0  0  0  0  0  0  0  0  0
   11.3440  -17.2470  -45.0290 H   0  0  0  0  0  0  0  0  0  0  0  0
    4.4890  -19.2740  -36.6760 H   0  0  0  0  0  0  0  0  0  0  0  0
    2.1290  -18.5460  -36.3990 H   0  0  0  0  0  0  0  0  0  0  0  0
    1.2090  -20.1330  -40.2420 H   0  0  0  0  0  0  0  0  0  0  0  0
    3.5730  -20.8500  -40.4910 H   0  0  0  0  0  0  0  0  0  0  0  0
  1 23  1  0  0  0  0
  1  2  2  0  0  0  0
  1  3  2  0  0  0  0
  4  1  1  0  0  0  0
  5 31  1  0  0  0  0
  5  4  1  0  0  0  0
  5 30  1  0  0  0  0
  6  5  1  0  0  0  0
  7  8  1  0  0  0  0
  7  6  1  0  0  0  0
  8  9  1  0  0  0  0
  9 37  1  0  0  0  0
  9 36  1  0  0  0  0
  9  4  1  0  0  0  0
 10 11  2  0  0  0  0
 10  7  1  0  0  0  0
 12 17  1  0  0  0  0
 12 11  1  0  0  0  0
 13 12  2  0  0  0  0
 14 13  1  0  0  0  0
 14 15  2  0  0  0  0
 15 10  1  0  0  0  0
 16 14  1  0  0  0  0
 17 18  1  0  0  0  0
 18 42  1  0  0  0  0
 19 18  1  0  0  0  0
 19 45  1  0  0  0  0
 19 44  1  0  0  0  0
 20 19  1  0  0  0  0
 21 22  1  0  0  0  0
 21 20  1  0  0  0  0
 22 17  1  0  0  0  0
 22 48  1  0  0  0  0
 23 24  1  0  0  0  0
 24 25  2  0  0  0  0
 24 50  1  0  0  0  0
 25 51  1  0  0  0  0
 26 29  1  0  0  0  0
 26 25  1  0  0  0  0
 27 26  2  0  0  0  0
 28 27  1  0  0  0  0
 28 23  2  0  0  0  0
 32  6  1  0  0  0  0
 33  6  1  0  0  0  0
 34  8  1  0  0  0  0
 35  8  1  0  0  0  0
 38 13  1  0  0  0  0
 39 16  1  0  0  0  0
 40 16  1  0  0  0  0
 41 16  1  0  0  0  0
 43 18  1  0  0  0  0
 46 21  1  0  0  0  0
 47 21  1  0  0  0  0
 49 22  1  0  0  0  0
 52 27  1  0  0  0  0
 53 28  1  0  0  0  0
M  END
>  <Pose>
1

>  <Score>
-4.29

$$$$
