
 OpenBabel03232221553D

 46 49  0  0  0  0  0  0  0  0999 V2000
    5.6180  -19.5110  -42.0880 S   0  0  0  0  0  0  0  0  0  0  0  0
    7.0070  -18.8950  -41.9810 O   0  0  0  0  0  0  0  0  0  0  0  0
    5.7410  -20.5740  -43.1620 O   0  0  0  0  0  0  0  0  0  0  0  0
    4.5410  -18.3100  -42.5390 N   0  0  0  0  0  0  0  0  0  0  0  0
    3.3060  -18.2330  -41.8770 C   0  0  0  0  0  0  0  0  0  0  0  0
    2.9750  -16.8160  -41.5130 C   0  0  0  0  0  0  0  0  0  0  0  0
    2.9880  -16.0700  -42.6790 O   0  0  0  0  0  0  0  0  0  0  0  0
    4.2580  -15.9620  -43.2300 C   0  0  0  0  0  0  0  0  0  0  0  0
    4.9950  -17.2420  -43.3190 C   0  0  0  0  0  0  0  0  0  0  0  0
    5.2540  -20.2740  -40.5570 C   0  0  0  0  0  0  0  0  0  0  0  0
    5.0330  -21.5760  -40.3140 N   0  0  0  0  0  0  0  0  0  0  0  0
    4.7880  -21.7400  -38.9890 C   0  0  0  0  0  0  0  0  0  0  0  0
    4.8510  -20.5450  -38.3760 N   0  0  0  0  0  0  0  0  0  0  0  0
    5.1310  -19.6500  -39.3110 C   0  0  0  0  0  0  0  0  0  0  0  0
    4.6410  -20.3310  -36.9590 C   0  0  0  0  0  0  0  0  0  0  0  0
    3.6350  -19.2710  -36.7090 C   0  0  0  0  0  0  0  0  0  0  0  0
    3.4940  -18.5860  -35.5440 N   0  0  0  0  0  0  0  0  0  0  0  0
    2.5180  -17.7410  -35.6890 O   0  0  0  0  0  0  0  0  0  0  0  0
    1.9930  -17.8180  -36.8860 C   0  0  0  0  0  0  0  0  0  0  0  0
    2.7000  -18.7840  -37.5270 N   0  0  0  0  0  0  0  0  0  0  0  0
    0.8600  -17.0270  -37.4550 C   0  0  0  0  0  0  0  0  0  0  0  0
    1.3440  -15.6260  -37.6010 C   0  0  0  0  0  0  0  0  0  0  0  0
    1.8880  -15.2400  -38.8150 C   0  0  0  0  0  0  0  0  0  0  0  0
    2.3580  -13.9730  -39.0390 C   0  0  0  0  0  0  0  0  0  0  0  0
    2.2810  -13.0650  -38.0190 C   0  0  0  0  0  0  0  0  0  0  0  0
    1.7560  -13.3940  -36.8070 C   0  0  0  0  0  0  0  0  0  0  0  0
    1.2870  -14.6900  -36.6080 C   0  0  0  0  0  0  0  0  0  0  0  0
    2.9250  -11.2900  -38.2920 B   0  0  0  0  0  0  0  0  0  0  0  0
    3.3090  -18.9140  -41.0000 H   0  0  0  0  0  0  0  0  0  0  0  0
    2.4960  -18.5740  -42.5870 H   0  0  0  0  0  0  0  0  0  0  0  0
    1.9540  -16.7200  -41.0830 H   0  0  0  0  0  0  0  0  0  0  0  0
    3.7620  -16.4350  -40.8400 H   0  0  0  0  0  0  0  0  0  0  0  0
    4.1230  -15.4920  -44.2370 H   0  0  0  0  0  0  0  0  0  0  0  0
    4.8550  -15.2240  -42.6470 H   0  0  0  0  0  0  0  0  0  0  0  0
    6.0920  -17.0690  -43.1020 H   0  0  0  0  0  0  0  0  0  0  0  0
    4.9960  -17.5640  -44.4020 H   0  0  0  0  0  0  0  0  0  0  0  0
    4.5760  -22.6960  -38.5160 H   0  0  0  0  0  0  0  0  0  0  0  0
    5.2570  -18.5850  -39.1800 H   0  0  0  0  0  0  0  0  0  0  0  0
    5.5870  -20.0440  -36.4560 H   0  0  0  0  0  0  0  0  0  0  0  0
    4.3180  -21.2810  -36.4860 H   0  0  0  0  0  0  0  0  0  0  0  0
    0.0330  -17.0740  -36.7250 H   0  0  0  0  0  0  0  0  0  0  0  0
    0.5480  -17.4470  -38.4350 H   0  0  0  0  0  0  0  0  0  0  0  0
    1.9380  -15.9830  -39.6120 H   0  0  0  0  0  0  0  0  0  0  0  0
    2.7880  -13.6670  -39.9970 H   0  0  0  0  0  0  0  0  0  0  0  0
    1.6910  -12.6770  -35.9900 H   0  0  0  0  0  0  0  0  0  0  0  0
    0.8660  -14.9640  -35.6490 H   0  0  0  0  0  0  0  0  0  0  0  0
  1  2  2  0  0  0  0
  1 10  1  0  0  0  0
  3  1  2  0  0  0  0
  4  1  1  0  0  0  0
  4  5  1  0  0  0  0
  5  6  1  0  0  0  0
  5 29  1  0  0  0  0
  6 31  1  0  0  0  0
  6 32  1  0  0  0  0
  7  6  1  0  0  0  0
  8  7  1  0  0  0  0
  8 34  1  0  0  0  0
  9  8  1  0  0  0  0
  9 35  1  0  0  0  0
  9  4  1  0  0  0  0
 10 11  1  0  0  0  0
 10 14  2  0  0  0  0
 11 12  2  0  0  0  0
 12 37  1  0  0  0  0
 12 13  1  0  0  0  0
 13 15  1  0  0  0  0
 14 38  1  0  0  0  0
 14 13  1  0  0  0  0
 15 16  1  0  0  0  0
 15 40  1  0  0  0  0
 15 39  1  0  0  0  0
 16 17  2  0  0  0  0
 18 17  1  0  0  0  0
 19 18  1  0  0  0  0
 20 19  2  0  0  0  0
 20 16  1  0  0  0  0
 21 19  1  0  0  0  0
 21 41  1  0  0  0  0
 22 21  1  0  0  0  0
 22 27  1  0  0  0  0
 23 22  2  0  0  0  0
 24 23  1  0  0  0  0
 24 25  2  0  0  0  0
 25 26  1  0  0  0  0
 26 27  2  0  0  0  0
 26 45  1  0  0  0  0
 27 46  1  0  0  0  0
 28 25  1  0  0  0  0
 30  5  1  0  0  0  0
 33  8  1  0  0  0  0
 36  9  1  0  0  0  0
 42 21  1  0  0  0  0
 43 23  1  0  0  0  0
 44 24  1  0  0  0  0
M  END
>  <Pose>
1

>  <Score>
-4.10

$$$$
