
 OpenBabel03232221553D

 43 46  0  0  0  0  0  0  0  0999 V2000
    5.7820  -19.9940  -38.8890 S   0  0  0  0  0  0  0  0  0  0  0  0
    6.5720  -18.7790  -38.4830 O   0  0  0  0  0  0  0  0  0  0  0  0
    6.3450  -21.1640  -38.1480 O   0  0  0  0  0  0  0  0  0  0  0  0
    5.9270  -20.1950  -40.5810 N   0  0  0  0  0  0  0  0  0  0  0  0
    5.5090  -19.0790  -41.3440 C   0  0  0  0  0  0  0  0  0  0  0  0
    4.8340  -19.3690  -42.6430 C   0  0  0  0  0  0  0  0  0  0  0  0
    5.4460  -20.5240  -43.1820 O   0  0  0  0  0  0  0  0  0  0  0  0
    4.9570  -21.5720  -42.3960 C   0  0  0  0  0  0  0  0  0  0  0  0
    5.5760  -21.4870  -41.0460 C   0  0  0  0  0  0  0  0  0  0  0  0
    4.1010  -19.7030  -38.4240 C   0  0  0  0  0  0  0  0  0  0  0  0
    3.3520  -20.4280  -37.5750 N   0  0  0  0  0  0  0  0  0  0  0  0
    2.1300  -19.8710  -37.4990 C   0  0  0  0  0  0  0  0  0  0  0  0
    2.0610  -18.7860  -38.2840 N   0  0  0  0  0  0  0  0  0  0  0  0
    3.2720  -18.6800  -38.8540 C   0  0  0  0  0  0  0  0  0  0  0  0
    0.9150  -17.9190  -38.4710 C   0  0  0  0  0  0  0  0  0  0  0  0
    1.0060  -16.6730  -37.6760 C   0  0  0  0  0  0  0  0  0  0  0  0
    1.7390  -16.5300  -36.5560 N   0  0  0  0  0  0  0  0  0  0  0  0
    1.5910  -15.3170  -36.1170 O   0  0  0  0  0  0  0  0  0  0  0  0
    0.7910  -14.6350  -36.8900 C   0  0  0  0  0  0  0  0  0  0  0  0
    0.4230  -15.4800  -37.8670 N   0  0  0  0  0  0  0  0  0  0  0  0
    0.4060  -13.2370  -36.6900 C   0  0  0  0  0  0  0  0  0  0  0  0
   -0.5600  -12.8680  -35.7770 C   0  0  0  0  0  0  0  0  0  0  0  0
   -0.9150  -11.5330  -35.5990 C   0  0  0  0  0  0  0  0  0  0  0  0
   -0.3110  -10.5340  -36.3290 C   0  0  0  0  0  0  0  0  0  0  0  0
    0.6540  -10.8990  -37.2420 C   0  0  0  0  0  0  0  0  0  0  0  0
    1.0080  -12.2390  -37.4190 C   0  0  0  0  0  0  0  0  0  0  0  0
   -2.2570  -11.0430  -34.3270 B   0  0  0  0  0  0  0  0  0  0  0  0
    4.8860  -18.3840  -40.7230 H   0  0  0  0  0  0  0  0  0  0  0  0
    6.4390  -18.4860  -41.5980 H   0  0  0  0  0  0  0  0  0  0  0  0
    5.0590  -18.5600  -43.3770 H   0  0  0  0  0  0  0  0  0  0  0  0
    3.7480  -19.5200  -42.5820 H   0  0  0  0  0  0  0  0  0  0  0  0
    3.8550  -21.4640  -42.3910 H   0  0  0  0  0  0  0  0  0  0  0  0
    5.1780  -22.5610  -42.8330 H   0  0  0  0  0  0  0  0  0  0  0  0
    6.5140  -22.1080  -41.0720 H   0  0  0  0  0  0  0  0  0  0  0  0
    4.9380  -21.9910  -40.2740 H   0  0  0  0  0  0  0  0  0  0  0  0
    1.3040  -20.2280  -36.8950 H   0  0  0  0  0  0  0  0  0  0  0  0
    3.5630  -17.9110  -39.5510 H   0  0  0  0  0  0  0  0  0  0  0  0
    0.0160  -18.4770  -38.1670 H   0  0  0  0  0  0  0  0  0  0  0  0
    0.7740  -17.6180  -39.5290 H   0  0  0  0  0  0  0  0  0  0  0  0
   -1.0370  -13.6480  -35.2020 H   0  0  0  0  0  0  0  0  0  0  0  0
   -0.5990   -9.4920  -36.1790 H   0  0  0  0  0  0  0  0  0  0  0  0
    1.1520  -10.1460  -37.8350 H   0  0  0  0  0  0  0  0  0  0  0  0
    1.7640  -12.5480  -38.1310 H   0  0  0  0  0  0  0  0  0  0  0  0
  1  2  2  0  0  0  0
  1 10  1  0  0  0  0
  1  3  2  0  0  0  0
  4  1  1  0  0  0  0
  5 28  1  0  0  0  0
  5  4  1  0  0  0  0
  6 31  1  0  0  0  0
  6  5  1  0  0  0  0
  7  6  1  0  0  0  0
  7  8  1  0  0  0  0
  8 32  1  0  0  0  0
  8  9  1  0  0  0  0
  9  4  1  0  0  0  0
  9 35  1  0  0  0  0
 10 11  1  0  0  0  0
 11 12  2  0  0  0  0
 12 36  1  0  0  0  0
 13 12  1  0  0  0  0
 14 10  2  0  0  0  0
 14 13  1  0  0  0  0
 15 13  1  0  0  0  0
 15 38  1  0  0  0  0
 15 16  1  0  0  0  0
 16 17  2  0  0  0  0
 17 18  1  0  0  0  0
 19 21  1  0  0  0  0
 19 18  1  0  0  0  0
 20 16  1  0  0  0  0
 20 19  2  0  0  0  0
 21 22  1  0  0  0  0
 22 23  2  0  0  0  0
 22 40  1  0  0  0  0
 23 27  1  0  0  0  0
 24 41  1  0  0  0  0
 24 23  1  0  0  0  0
 25 24  2  0  0  0  0
 26 25  1  0  0  0  0
 26 21  2  0  0  0  0
 29  5  1  0  0  0  0
 30  6  1  0  0  0  0
 33  8  1  0  0  0  0
 34  9  1  0  0  0  0
 37 14  1  0  0  0  0
 39 15  1  0  0  0  0
 42 25  1  0  0  0  0
 43 26  1  0  0  0  0
M  END
>  <Pose>
1

>  <Score>
-4.78

$$$$
