
 OpenBabel03232221553D

 37 40  0  0  0  0  0  0  0  0999 V2000
    6.6000  -25.1820  -45.4800 S   0  0  0  0  0  0  0  0  0  0  0  0
    7.4900  -26.6510  -44.9000 C   0  0  0  0  0  0  0  0  0  0  0  0
    8.8390  -26.6660  -45.5360 C   0  0  0  0  0  0  0  0  0  0  0  0
    8.9880  -26.3580  -46.7610 O   0  0  0  0  0  0  0  0  0  0  0  0
    9.9940  -27.0220  -44.8080 N   0  0  0  0  0  0  0  0  0  0  0  0
   10.0970  -26.7800  -43.4170 C   0  0  0  0  0  0  0  0  0  0  0  0
    9.4270  -25.8790  -42.6810 N   0  0  0  0  0  0  0  0  0  0  0  0
    9.7900  -25.9510  -41.4300 O   0  0  0  0  0  0  0  0  0  0  0  0
   10.6810  -26.8790  -41.3370 N   0  0  0  0  0  0  0  0  0  0  0  0
   10.9310  -27.4450  -42.5250 C   0  0  0  0  0  0  0  0  0  0  0  0
   11.8470  -28.4870  -42.7830 N   0  0  0  0  0  0  0  0  0  0  0  0
    6.3430  -24.0890  -44.0670 C   0  0  0  0  0  0  0  0  0  0  0  0
    7.3810  -23.5390  -43.4140 N   0  0  0  0  0  0  0  0  0  0  0  0
    7.2520  -22.7320  -42.3740 N   0  0  0  0  0  0  0  0  0  0  0  0
    6.0310  -22.4060  -41.8970 C   0  0  0  0  0  0  0  0  0  0  0  0
    4.9500  -22.9580  -42.5520 C   0  0  0  0  0  0  0  0  0  0  0  0
    3.8600  -22.4970  -41.9070 N   0  0  0  0  0  0  0  0  0  0  0  0
    4.2030  -21.6910  -40.8890 C   0  0  0  0  0  0  0  0  0  0  0  0
    5.5790  -21.6110  -40.8570 C   0  0  0  0  0  0  0  0  0  0  0  0
    6.2640  -20.8540  -39.9190 C   0  0  0  0  0  0  0  0  0  0  0  0
    5.5000  -20.1620  -38.9950 C   0  0  0  0  0  0  0  0  0  0  0  0
    4.1220  -20.2240  -39.0060 C   0  0  0  0  0  0  0  0  0  0  0  0
    3.4640  -20.9810  -39.9440 C   0  0  0  0  0  0  0  0  0  0  0  0
    6.4460  -19.1170  -37.7010 B   0  0  0  0  0  0  0  0  0  0  0  0
    2.5070  -22.8480  -42.2910 C   0  0  0  0  0  0  0  0  0  0  0  0
    5.1100  -23.7890  -43.6240 N   0  0  0  0  0  0  0  0  0  0  0  0
    7.5380  -26.7050  -43.8040 H   0  0  0  0  0  0  0  0  0  0  0  0
    6.9470  -27.5360  -45.3440 H   0  0  0  0  0  0  0  0  0  0  0  0
   10.7830  -27.4730  -45.3200 H   0  0  0  0  0  0  0  0  0  0  0  0
   12.0120  -29.2100  -42.0580 H   0  0  0  0  0  0  0  0  0  0  0  0
   12.3710  -28.5660  -43.6780 H   0  0  0  0  0  0  0  0  0  0  0  0
    7.3520  -20.8120  -39.9190 H   0  0  0  0  0  0  0  0  0  0  0  0
    3.5370  -19.6710  -38.2690 H   0  0  0  0  0  0  0  0  0  0  0  0
    2.3820  -21.0520  -39.9820 H   0  0  0  0  0  0  0  0  0  0  0  0
    2.4200  -22.9170  -43.3800 H   0  0  0  0  0  0  0  0  0  0  0  0
    2.1590  -23.7590  -41.7610 H   0  0  0  0  0  0  0  0  0  0  0  0
    1.8430  -22.0190  -41.9560 H   0  0  0  0  0  0  0  0  0  0  0  0
  1  2  1  0  0  0  0
  1 12  1  0  0  0  0
  2 27  1  0  0  0  0
  3  2  1  0  0  0  0
  3  5  1  0  0  0  0
  4  3  2  0  0  0  0
  5  6  1  0  0  0  0
  6  7  2  0  0  0  0
  6 10  1  0  0  0  0
  7  8  1  0  0  0  0
  8  9  1  0  0  0  0
 10  9  2  0  0  0  0
 11 10  1  0  0  0  0
 11 30  1  0  0  0  0
 12 26  1  0  0  0  0
 12 13  2  0  0  0  0
 13 14  1  0  0  0  0
 14 15  1  0  0  0  0
 15 19  1  0  0  0  0
 16 17  1  0  0  0  0
 16 15  2  0  0  0  0
 17 18  1  0  0  0  0
 18 19  2  0  0  0  0
 18 23  1  0  0  0  0
 19 20  1  0  0  0  0
 20 21  2  0  0  0  0
 21 24  1  0  0  0  0
 22 21  1  0  0  0  0
 22 33  1  0  0  0  0
 23 22  2  0  0  0  0
 25 37  1  0  0  0  0
 25 17  1  0  0  0  0
 25 36  1  0  0  0  0
 26 16  1  0  0  0  0
 28  2  1  0  0  0  0
 29  5  1  0  0  0  0
 31 11  1  0  0  0  0
 32 20  1  0  0  0  0
 34 23  1  0  0  0  0
 35 25  1  0  0  0  0
M  END
>  <Pose>
1

>  <Score>
-5.52

$$$$
