
 OpenBabel03232221553D

 36 39  0  0  1  0  0  0  0  0999 V2000
    1.2690  -14.0730  -36.2950 S   0  0  0  0  0  0  0  0  0  0  0  0
    0.9150  -15.7030  -36.6510 C   0  0  0  0  0  0  0  0  0  0  0  0
   -0.4340  -15.6740  -36.8930 C   0  0  0  0  0  0  0  0  0  0  0  0
   -1.0560  -14.4970  -36.7970 C   0  0  0  0  0  0  0  0  0  0  0  0
   -0.2920  -13.4090  -36.4620 C   0  0  0  0  0  0  0  0  0  0  0  0
   -2.9560  -14.2540  -37.1020 B   0  0  0  0  0  0  0  0  0  0  0  0
    1.8180  -16.8760  -36.6950 C   0  0  0  0  0  0  0  0  0  0  0  0
    2.4450  -17.1220  -35.6350 O   0  0  0  0  0  0  0  0  0  0  0  0
    1.9490  -17.6530  -37.8670 N   0  0  0  0  0  0  0  0  0  0  0  0
    0.9410  -18.6260  -38.2630 C   0  0  2  0  0  0  0  0  0  0  0  0
    1.4850  -20.0310  -38.2560 C   0  0  0  0  0  0  0  0  0  0  0  0
    2.3590  -20.0140  -39.4190 N   0  0  0  0  0  0  0  0  0  0  0  0
    1.5840  -19.3920  -40.4670 C   0  0  0  0  0  0  0  0  0  0  0  0
    0.6750  -18.4200  -39.7390 C   0  0  0  0  0  0  0  0  0  0  0  0
    3.7020  -20.5240  -39.4570 C   0  0  0  0  0  0  0  0  0  0  0  0
    4.0200  -21.5900  -40.2160 N   0  0  0  0  0  0  0  0  0  0  0  0
    5.2850  -22.0450  -40.2300 C   0  0  0  0  0  0  0  0  0  0  0  0
    6.2790  -21.4570  -39.4910 C   0  0  0  0  0  0  0  0  0  0  0  0
    5.9780  -20.3910  -38.7290 N   0  0  0  0  0  0  0  0  0  0  0  0
    4.7070  -19.9440  -38.7220 C   0  0  0  0  0  0  0  0  0  0  0  0
    4.7170  -18.8890  -37.8830 N   0  0  0  0  0  0  0  0  0  0  0  0
    5.9260  -18.6850  -37.3900 N   0  0  0  0  0  0  0  0  0  0  0  0
    6.7360  -19.6220  -37.9110 C   0  0  0  0  0  0  0  0  0  0  0  0
   -0.9460  -16.6250  -37.1570 H   0  0  0  0  0  0  0  0  0  0  0  0
   -0.5770  -12.3560  -36.3270 H   0  0  0  0  0  0  0  0  0  0  0  0
    2.8000  -17.5120  -38.4550 H   0  0  0  0  0  0  0  0  0  0  0  0
    0.0460  -18.5760  -37.6440 H   0  0  0  0  0  0  0  0  0  0  0  0
    2.0000  -20.3090  -37.3360 H   0  0  0  0  0  0  0  0  0  0  0  0
    0.6380  -20.7080  -38.4820 H   0  0  0  0  0  0  0  0  0  0  0  0
    2.1700  -18.9050  -41.2500 H   0  0  0  0  0  0  0  0  0  0  0  0
    0.9400  -20.1840  -40.9020 H   0  0  0  0  0  0  0  0  0  0  0  0
    0.9510  -17.3940  -40.0720 H   0  0  0  0  0  0  0  0  0  0  0  0
   -0.3940  -18.6390  -39.9440 H   0  0  0  0  0  0  0  0  0  0  0  0
    5.5290  -22.9110  -40.8500 H   0  0  0  0  0  0  0  0  0  0  0  0
    7.3000  -21.8200  -39.5000 H   0  0  0  0  0  0  0  0  0  0  0  0
    7.7820  -19.7550  -37.7300 H   0  0  0  0  0  0  0  0  0  0  0  0
  2  1  1  0  0  0  0
  3  4  1  0  0  0  0
  3  2  2  0  0  0  0
  4  5  2  0  0  0  0
  5 25  1  0  0  0  0
  5  1  1  0  0  0  0
  6  4  1  0  0  0  0
  7  2  1  0  0  0  0
  7  8  2  0  0  0  0
  9  7  1  0  0  0  0
 10 11  1  0  0  0  0
 10  9  1  0  0  0  0
 10 27  1  1  0  0  0
 11 28  1  0  0  0  0
 12 11  1  0  0  0  0
 13 14  1  0  0  0  0
 13 12  1  0  0  0  0
 14 10  1  0  0  0  0
 15 12  1  0  0  0  0
 15 20  1  0  0  0  0
 16 15  2  0  0  0  0
 17 16  1  0  0  0  0
 17 18  2  0  0  0  0
 18 19  1  0  0  0  0
 19 20  1  0  0  0  0
 19 23  1  0  0  0  0
 20 21  2  0  0  0  0
 21 22  1  0  0  0  0
 23 36  1  0  0  0  0
 23 22  2  0  0  0  0
 24  3  1  0  0  0  0
 26  9  1  0  0  0  0
 29 11  1  0  0  0  0
 30 13  1  0  0  0  0
 31 13  1  0  0  0  0
 32 14  1  0  0  0  0
 33 14  1  0  0  0  0
 34 17  1  0  0  0  0
 35 18  1  0  0  0  0
M  END
>  <Pose>
1

>  <Score>
-4.84

$$$$
