
 OpenBabel03232221553D

 51 54  0  0  0  0  0  0  0  0999 V2000
   -1.4660  -12.2210  -35.5170 S   0  0  0  0  0  0  0  0  0  0  0  0
   -2.1450  -11.1110  -34.4220 C   0  0  0  0  0  0  0  0  0  0  0  0
   -1.5860   -9.9250  -34.8090 C   0  0  0  0  0  0  0  0  0  0  0  0
   -0.7390   -9.9450  -35.8400 C   0  0  0  0  0  0  0  0  0  0  0  0
   -0.4920  -11.1550  -36.4370 C   0  0  0  0  0  0  0  0  0  0  0  0
    0.3840  -11.4310  -37.5810 C   0  0  0  0  0  0  0  0  0  0  0  0
    0.0780  -10.8980  -38.6770 O   0  0  0  0  0  0  0  0  0  0  0  0
    1.5820  -12.2970  -37.4610 C   0  0  0  0  0  0  0  0  0  0  0  0
    1.2850  -13.6730  -37.7690 N   0  0  0  0  0  0  0  0  0  0  0  0
    0.9110  -14.1200  -38.9920 C   0  0  0  0  0  0  0  0  0  0  0  0
    0.7040  -15.4650  -38.9480 C   0  0  0  0  0  0  0  0  0  0  0  0
    0.3110  -16.1520  -40.0810 C   0  0  0  0  0  0  0  0  0  0  0  0
    0.1310  -15.4570  -41.2550 C   0  0  0  0  0  0  0  0  0  0  0  0
    0.3310  -14.1020  -41.3260 C   0  0  0  0  0  0  0  0  0  0  0  0
    0.7230  -13.4480  -40.1790 C   0  0  0  0  0  0  0  0  0  0  0  0
    0.9560  -15.8490  -37.6920 N   0  0  0  0  0  0  0  0  0  0  0  0
    1.3130  -14.7460  -36.9740 C   0  0  0  0  0  0  0  0  0  0  0  0
    1.6170  -14.8530  -35.7340 N   0  0  0  0  0  0  0  0  0  0  0  0
    0.8430  -17.2170  -37.2060 C   0  0  0  0  0  0  0  0  0  0  0  0
    2.1740  -17.9330  -37.4770 C   0  0  0  0  0  0  0  0  0  0  0  0
    1.9830  -19.3180  -37.8000 N   0  0  0  0  0  4  0  0  0  0  0  0
    1.8930  -19.5850  -39.2220 C   0  0  0  0  0  0  0  0  0  0  0  0
    3.0440  -18.9890  -39.9810 C   0  0  0  0  0  0  0  0  0  0  0  0
    4.3720  -19.2850  -39.3700 C   0  0  0  0  0  0  0  0  0  0  0  0
    4.3770  -19.5220  -37.9030 C   0  0  0  0  0  0  0  0  0  0  0  0
    3.1210  -20.0620  -37.3170 C   0  0  0  0  0  0  0  0  0  0  0  0
   -3.3780  -11.4670  -33.0110 B   0  0  0  0  0  0  0  0  0  0  0  0
   -1.8620   -8.9960  -34.2490 H   0  0  0  0  0  0  0  0  0  0  0  0
   -0.2420   -9.0220  -36.2200 H   0  0  0  0  0  0  0  0  0  0  0  0
    2.0550  -12.1880  -36.4480 H   0  0  0  0  0  0  0  0  0  0  0  0
    2.3680  -11.9280  -38.1660 H   0  0  0  0  0  0  0  0  0  0  0  0
    0.1560  -17.2230  -40.0050 H   0  0  0  0  0  0  0  0  0  0  0  0
   -0.1790  -15.9560  -42.1640 H   0  0  0  0  0  0  0  0  0  0  0  0
    0.1970  -13.5250  -42.2360 H   0  0  0  0  0  0  0  0  0  0  0  0
    0.8900  -12.3890  -40.1950 H   0  0  0  0  0  0  0  0  0  0  0  0
    1.9090  -14.1290  -35.0810 H   0  0  0  0  0  0  0  0  0  0  0  0
    0.0230  -17.7850  -37.6890 H   0  0  0  0  0  0  0  0  0  0  0  0
    0.7320  -17.2350  -36.0930 H   0  0  0  0  0  0  0  0  0  0  0  0
    2.7390  -17.8790  -36.5200 H   0  0  0  0  0  0  0  0  0  0  0  0
    2.6430  -17.3600  -38.3020 H   0  0  0  0  0  0  0  0  0  0  0  0
    1.0920  -19.6690  -37.3880 H   0  0  0  0  0  0  0  0  0  0  0  0
    1.8860  -20.6820  -39.3400 H   0  0  0  0  0  0  0  0  0  0  0  0
    0.9510  -19.1560  -39.6130 H   0  0  0  0  0  0  0  0  0  0  0  0
    2.8890  -17.8830  -40.1400 H   0  0  0  0  0  0  0  0  0  0  0  0
    3.0160  -19.4280  -41.0010 H   0  0  0  0  0  0  0  0  0  0  0  0
    4.8190  -20.1670  -39.8900 H   0  0  0  0  0  0  0  0  0  0  0  0
    5.0460  -18.4020  -39.5740 H   0  0  0  0  0  0  0  0  0  0  0  0
    5.2350  -20.2290  -37.6890 H   0  0  0  0  0  0  0  0  0  0  0  0
    4.6700  -18.5890  -37.3660 H   0  0  0  0  0  0  0  0  0  0  0  0
    3.0260  -21.1480  -37.5370 H   0  0  0  0  0  0  0  0  0  0  0  0
    3.1590  -19.8780  -36.2170 H   0  0  0  0  0  0  0  0  0  0  0  0
  1  2  1  0  0  0  0
  2 27  1  0  0  0  0
  3  2  2  0  0  0  0
  3 28  1  0  0  0  0
  4  3  1  0  0  0  0
  5  4  2  0  0  0  0
  5  1  1  0  0  0  0
  6  8  1  0  0  0  0
  6  5  1  0  0  0  0
  7  6  2  0  0  0  0
  8 30  1  0  0  0  0
  9  8  1  0  0  0  0
  9 17  1  0  0  0  0
 10 11  1  0  0  0  0
 10  9  1  0  0  0  0
 11 16  1  0  0  0  0
 12 32  1  0  0  0  0
 12 11  2  0  0  0  0
 13 12  1  0  0  0  0
 14 13  2  0  0  0  0
 14 15  1  0  0  0  0
 15 10  2  0  0  0  0
 16 19  1  0  0  0  0
 16 17  1  0  0  0  0
 17 18  2  0  0  0  0
 18 36  1  0  0  0  0
 19 38  1  0  0  0  0
 20 19  1  0  0  0  0
 20 39  1  0  0  0  0
 21 20  1  0  0  0  0
 21 41  1  0  0  0  0
 21 26  1  0  0  0  0
 22 21  1  0  0  0  0
 23 24  1  0  0  0  0
 23 22  1  0  0  0  0
 24 25  1  0  0  0  0
 25 48  1  0  0  0  0
 25 49  1  0  0  0  0
 25 26  1  0  0  0  0
 26 51  1  0  0  0  0
 29  4  1  0  0  0  0
 31  8  1  0  0  0  0
 33 13  1  0  0  0  0
 34 14  1  0  0  0  0
 35 15  1  0  0  0  0
 37 19  1  0  0  0  0
 40 20  1  0  0  0  0
 42 22  1  0  0  0  0
 43 22  1  0  0  0  0
 44 23  1  0  0  0  0
 45 23  1  0  0  0  0
 46 24  1  0  0  0  0
 47 24  1  0  0  0  0
 50 26  1  0  0  0  0
M  END
>  <Pose>
1

>  <Score>
-4.39

$$$$
