
 OpenBabel03232221553D

 58 61  0  0  1  0  0  0  0  0999 V2000
    6.6150  -18.4200  -42.7980 S   0  0  0  0  0  0  0  0  0  0  0  0
    8.0970  -18.9440  -43.4550 C   0  0  0  0  0  0  0  0  0  0  0  0
    7.9580  -20.2540  -43.4610 N   0  0  0  0  0  0  0  0  0  0  0  0
    6.8620  -20.7920  -43.0210 C   0  0  0  0  0  0  0  0  0  0  0  0
    5.8800  -19.9490  -42.5610 C   0  0  0  0  0  0  0  0  0  0  0  0
    4.5650  -20.2740  -41.9660 C   0  0  0  0  0  0  0  0  0  0  0  0
    4.4040  -20.2840  -40.6750 C   0  0  0  0  0  0  0  0  0  0  0  0
    3.1220  -20.5900  -39.9670 C   0  0  1  0  0  0  0  0  0  0  0  0
    3.2000  -19.7510  -38.8010 N   0  0  0  0  0  0  0  0  0  0  0  0
    4.5880  -19.7300  -38.4410 C   0  0  0  0  0  0  0  0  0  0  0  0
    5.0490  -19.4690  -37.3150 O   0  0  0  0  0  0  0  0  0  0  0  0
    5.3800  -20.0680  -39.6150 C   0  0  0  0  0  0  0  0  0  0  0  0
    6.6270  -20.1770  -39.7690 O   0  0  0  0  0  0  0  0  0  0  0  0
    2.0880  -19.1140  -38.1610 C   0  0  0  0  0  0  0  0  0  0  0  0
    2.4240  -17.9860  -37.2770 C   0  0  0  0  0  0  0  0  0  0  0  0
    1.5940  -16.8100  -37.3160 C   0  0  0  0  0  0  0  0  0  0  0  0
    1.1570  -15.9990  -36.2820 N   0  0  0  0  0  4  0  0  0  0  0  0
   -0.2710  -16.3260  -35.9160 C   0  0  0  0  0  0  0  0  0  0  0  0
   -1.1880  -15.6750  -36.8980 C   0  0  0  0  0  0  0  0  0  0  0  0
   -1.1050  -14.3020  -36.6940 O   0  0  0  0  0  0  0  0  0  0  0  0
    0.1750  -13.9330  -37.1640 C   0  0  0  0  0  0  0  0  0  0  0  0
    1.2530  -14.5820  -36.3410 C   0  0  0  0  0  0  0  0  0  0  0  0
    1.9660  -20.3590  -40.8450 C   0  0  0  0  0  0  0  0  0  0  0  0
    1.5220  -19.1500  -41.3070 C   0  0  0  0  0  0  0  0  0  0  0  0
    0.4300  -18.9760  -42.1270 C   0  0  0  0  0  0  0  0  0  0  0  0
   -0.2770  -20.0840  -42.5200 C   0  0  0  0  0  0  0  0  0  0  0  0
    0.1170  -21.3230  -42.0890 C   0  0  0  0  0  0  0  0  0  0  0  0
    1.2140  -21.4620  -41.2710 C   0  0  0  0  0  0  0  0  0  0  0  0
   -1.7970  -19.8380  -43.6630 B   0  0  0  0  0  0  0  0  0  0  0  0
    3.4730  -20.5770  -42.7970 O   0  0  0  0  0  0  0  0  0  0  0  0
    6.6840  -22.3070  -42.9710 C   0  0  0  0  0  0  0  0  0  0  0  0
    9.2860  -18.1490  -43.9230 C   0  0  0  0  0  0  0  0  0  0  0  0
    3.1260  -21.6390  -39.6110 H   0  0  0  0  0  0  0  0  0  0  0  0
    1.3100  -18.8940  -38.8690 H   0  0  0  0  0  0  0  0  0  0  0  0
    1.6240  -19.9470  -37.4980 H   0  0  0  0  0  0  0  0  0  0  0  0
    2.6120  -18.4220  -36.2540 H   0  0  0  0  0  0  0  0  0  0  0  0
    3.5060  -17.7090  -37.5580 H   0  0  0  0  0  0  0  0  0  0  0  0
    2.0550  -16.1530  -38.1790 H   0  0  0  0  0  0  0  0  0  0  0  0
    0.6320  -17.1220  -37.8910 H   0  0  0  0  0  0  0  0  0  0  0  0
    1.6370  -16.2720  -35.3900 H   0  0  0  0  0  0  0  0  0  0  0  0
   -0.3440  -17.3910  -35.7840 H   0  0  0  0  0  0  0  0  0  0  0  0
   -0.4460  -15.8380  -34.9410 H   0  0  0  0  0  0  0  0  0  0  0  0
   -2.2070  -16.0690  -36.7170 H   0  0  0  0  0  0  0  0  0  0  0  0
   -0.9110  -15.8450  -37.9560 H   0  0  0  0  0  0  0  0  0  0  0  0
    0.2400  -12.8340  -37.0290 H   0  0  0  0  0  0  0  0  0  0  0  0
    0.1970  -14.1430  -38.2300 H   0  0  0  0  0  0  0  0  0  0  0  0
    1.0610  -14.1370  -35.2850 H   0  0  0  0  0  0  0  0  0  0  0  0
    2.2200  -14.1970  -36.5890 H   0  0  0  0  0  0  0  0  0  0  0  0
    2.0690  -18.2660  -41.0110 H   0  0  0  0  0  0  0  0  0  0  0  0
    0.1600  -17.9690  -42.4400 H   0  0  0  0  0  0  0  0  0  0  0  0
   -0.4730  -22.1860  -42.4240 H   0  0  0  0  0  0  0  0  0  0  0  0
    1.5080  -22.4450  -40.9420 H   0  0  0  0  0  0  0  0  0  0  0  0
    5.8800  -22.5770  -42.3010 H   0  0  0  0  0  0  0  0  0  0  0  0
    6.5370  -22.7220  -43.9850 H   0  0  0  0  0  0  0  0  0  0  0  0
    7.6260  -22.7720  -42.5810 H   0  0  0  0  0  0  0  0  0  0  0  0
    9.3360  -17.2100  -43.3120 H   0  0  0  0  0  0  0  0  0  0  0  0
   10.2330  -18.6970  -43.6780 H   0  0  0  0  0  0  0  0  0  0  0  0
    9.2260  -17.9180  -44.9900 H   0  0  0  0  0  0  0  0  0  0  0  0
  1  5  1  0  0  0  0
  2  1  1  0  0  0  0
  3  2  2  0  0  0  0
  3  4  1  0  0  0  0
  4 31  1  0  0  0  0
  4  5  2  0  0  0  0
  5  6  1  0  0  0  0
  6  7  2  0  0  0  0
  7  8  1  0  0  0  0
  7 12  1  0  0  0  0
  8 33  1  1  0  0  0
  8  9  1  0  0  0  0
  9 10  1  0  0  0  0
  9 14  1  0  0  0  0
 10 11  2  0  0  0  0
 12 10  1  0  0  0  0
 13 12  2  0  0  0  0
 14 35  1  0  0  0  0
 14 15  1  0  0  0  0
 15 36  1  0  0  0  0
 16 15  1  0  0  0  0
 16 17  1  0  0  0  0
 17 18  1  0  0  0  0
 17 40  1  0  0  0  0
 18 41  1  0  0  0  0
 18 42  1  0  0  0  0
 19 43  1  0  0  0  0
 19 20  1  0  0  0  0
 19 18  1  0  0  0  0
 21 45  1  0  0  0  0
 21 20  1  0  0  0  0
 21 22  1  0  0  0  0
 22 17  1  0  0  0  0
 22 47  1  0  0  0  0
 23  8  1  0  0  0  0
 24 49  1  0  0  0  0
 24 23  2  0  0  0  0
 25 24  1  0  0  0  0
 26 25  2  0  0  0  0
 26 27  1  0  0  0  0
 27 28  2  0  0  0  0
 28 52  1  0  0  0  0
 28 23  1  0  0  0  0
 29 26  1  0  0  0  0
 30  6  1  0  0  0  0
 31 55  1  0  0  0  0
 31 53  1  0  0  0  0
 32 57  1  0  0  0  0
 32  2  1  0  0  0  0
 32 56  1  0  0  0  0
 34 14  1  0  0  0  0
 37 15  1  0  0  0  0
 38 16  1  0  0  0  0
 39 16  1  0  0  0  0
 44 19  1  0  0  0  0
 46 21  1  0  0  0  0
 48 22  1  0  0  0  0
 50 25  1  0  0  0  0
 51 27  1  0  0  0  0
 54 31  1  0  0  0  0
 58 32  1  0  0  0  0
M  END
>  <Pose>
1

>  <Score>
-4.02

$$$$
