
 OpenBabel03232221553D

 55 58  0  0  1  0  0  0  0  0999 V2000
    4.4120  -22.6010  -41.8950 S   0  0  0  0  0  0  0  0  0  0  0  0
    6.0650  -22.2350  -42.0630 C   0  0  0  0  0  0  0  0  0  0  0  0
    6.1510  -21.0500  -41.4920 N   0  0  0  0  0  0  0  0  0  0  0  0
    5.0950  -20.4900  -40.9890 C   0  0  0  0  0  0  0  0  0  0  0  0
    3.9050  -21.1730  -41.0750 C   0  0  0  0  0  0  0  0  0  0  0  0
    2.5530  -20.7890  -40.6420 C   0  0  0  0  0  0  0  0  0  0  0  0
    2.4090  -20.4290  -39.3840 C   0  0  0  0  0  0  0  0  0  0  0  0
    1.1780  -19.9860  -38.6620 C   0  0  1  0  0  0  0  0  0  0  0  0
    1.6680  -18.8610  -37.9640 N   0  0  0  0  0  0  0  0  0  0  0  0
    2.9210  -19.3870  -37.3740 C   0  0  0  0  0  0  0  0  0  0  0  0
    3.4610  -19.0270  -36.2940 O   0  0  0  0  0  0  0  0  0  0  0  0
    3.3950  -20.4050  -38.3050 C   0  0  0  0  0  0  0  0  0  0  0  0
    4.4250  -21.1460  -38.2550 O   0  0  0  0  0  0  0  0  0  0  0  0
    1.3100  -17.5260  -37.6250 C   0  0  0  0  0  0  0  0  0  0  0  0
    0.5930  -17.2450  -36.3750 C   0  0  0  0  0  0  0  0  0  0  0  0
   -0.8100  -17.2700  -36.2910 N   0  0  0  0  0  4  0  0  0  0  0  0
   -1.4890  -16.4200  -37.2460 C   0  0  0  0  0  0  0  0  0  0  0  0
   -2.9720  -16.4840  -36.8960 C   0  0  0  0  0  0  0  0  0  0  0  0
   -3.2420  -17.5730  -36.0670 O   0  0  0  0  0  0  0  0  0  0  0  0
   -2.6980  -18.6930  -36.7270 C   0  0  0  0  0  0  0  0  0  0  0  0
   -1.1970  -18.6470  -36.7420 C   0  0  0  0  0  0  0  0  0  0  0  0
   -0.0580  -20.0550  -39.3610 C   0  0  0  0  0  0  0  0  0  0  0  0
   -0.9620  -21.0720  -39.0420 C   0  0  0  0  0  0  0  0  0  0  0  0
   -2.1660  -21.2210  -39.6790 C   0  0  0  0  0  0  0  0  0  0  0  0
   -2.4880  -20.3210  -40.6740 C   0  0  0  0  0  0  0  0  0  0  0  0
   -1.6100  -19.3100  -41.0040 C   0  0  0  0  0  0  0  0  0  0  0  0
   -0.4060  -19.1820  -40.3500 C   0  0  0  0  0  0  0  0  0  0  0  0
   -4.1490  -20.4570  -41.6130 B   0  0  0  0  0  0  0  0  0  0  0  0
    1.4600  -20.7930  -41.4910 O   0  0  0  0  0  0  0  0  0  0  0  0
    5.1640  -19.1040  -40.3650 C   0  0  0  0  0  0  0  0  0  0  0  0
    7.1570  -23.0520  -42.6980 C   0  0  0  0  0  0  0  0  0  0  0  0
    1.1010  -20.7970  -37.8360 H   0  0  0  0  0  0  0  0  0  0  0  0
    0.6600  -17.1170  -38.4650 H   0  0  0  0  0  0  0  0  0  0  0  0
    2.1840  -16.8250  -37.6480 H   0  0  0  0  0  0  0  0  0  0  0  0
    0.9080  -16.2010  -36.0420 H   0  0  0  0  0  0  0  0  0  0  0  0
    1.0560  -17.9250  -35.5810 H   0  0  0  0  0  0  0  0  0  0  0  0
   -1.1420  -17.1930  -35.3240 H   0  0  0  0  0  0  0  0  0  0  0  0
   -1.1960  -15.3690  -37.1920 H   0  0  0  0  0  0  0  0  0  0  0  0
   -1.3100  -16.8440  -38.2670 H   0  0  0  0  0  0  0  0  0  0  0  0
   -3.5130  -16.5640  -37.8760 H   0  0  0  0  0  0  0  0  0  0  0  0
   -3.2890  -15.5800  -36.3350 H   0  0  0  0  0  0  0  0  0  0  0  0
   -3.0620  -19.6250  -36.2650 H   0  0  0  0  0  0  0  0  0  0  0  0
   -3.0600  -18.5890  -37.7910 H   0  0  0  0  0  0  0  0  0  0  0  0
   -0.7120  -19.3700  -36.0890 H   0  0  0  0  0  0  0  0  0  0  0  0
   -0.8030  -18.7090  -37.7780 H   0  0  0  0  0  0  0  0  0  0  0  0
   -0.7310  -21.8080  -38.2530 H   0  0  0  0  0  0  0  0  0  0  0  0
   -2.8620  -22.0280  -39.4130 H   0  0  0  0  0  0  0  0  0  0  0  0
   -1.8900  -18.6130  -41.7930 H   0  0  0  0  0  0  0  0  0  0  0  0
    0.2720  -18.3560  -40.6690 H   0  0  0  0  0  0  0  0  0  0  0  0
    5.8280  -18.4810  -41.0090 H   0  0  0  0  0  0  0  0  0  0  0  0
    5.6130  -19.1160  -39.3750 H   0  0  0  0  0  0  0  0  0  0  0  0
    4.1630  -18.6560  -40.3180 H   0  0  0  0  0  0  0  0  0  0  0  0
    7.8450  -22.4250  -43.2920 H   0  0  0  0  0  0  0  0  0  0  0  0
    6.6480  -23.8290  -43.3390 H   0  0  0  0  0  0  0  0  0  0  0  0
    7.6630  -23.6090  -41.8850 H   0  0  0  0  0  0  0  0  0  0  0  0
  1  5  1  0  0  0  0
  2  1  1  0  0  0  0
  2  3  2  0  0  0  0
  3  4  1  0  0  0  0
  4 30  1  0  0  0  0
  5  4  2  0  0  0  0
  5  6  1  0  0  0  0
  6  7  2  0  0  0  0
  7  8  1  0  0  0  0
  7 12  1  0  0  0  0
  8  9  1  0  0  0  0
  8 32  1  1  0  0  0
  9 14  1  0  0  0  0
  9 10  1  0  0  0  0
 10 11  2  0  0  0  0
 12 13  2  0  0  0  0
 12 10  1  0  0  0  0
 14 15  1  0  0  0  0
 15 16  1  0  0  0  0
 15 35  1  0  0  0  0
 15 36  1  0  0  0  0
 16 37  1  0  0  0  0
 17 38  1  0  0  0  0
 17 18  1  0  0  0  0
 17 16  1  0  0  0  0
 18 41  1  0  0  0  0
 18 19  1  0  0  0  0
 20 42  1  0  0  0  0
 20 19  1  0  0  0  0
 21 20  1  0  0  0  0
 21 16  1  0  0  0  0
 21 44  1  0  0  0  0
 22 23  1  0  0  0  0
 22  8  1  0  0  0  0
 23 46  1  0  0  0  0
 24 47  1  0  0  0  0
 24 23  2  0  0  0  0
 25 24  1  0  0  0  0
 26 25  2  0  0  0  0
 26 27  1  0  0  0  0
 27 22  2  0  0  0  0
 28 25  1  0  0  0  0
 29  6  1  0  0  0  0
 30 52  1  0  0  0  0
 30 51  1  0  0  0  0
 31  2  1  0  0  0  0
 31 55  1  0  0  0  0
 33 14  1  0  0  0  0
 34 14  1  0  0  0  0
 39 17  1  0  0  0  0
 40 18  1  0  0  0  0
 43 20  1  0  0  0  0
 45 21  1  0  0  0  0
 48 26  1  0  0  0  0
 49 27  1  0  0  0  0
 50 30  1  0  0  0  0
 53 31  1  0  0  0  0
 54 31  1  0  0  0  0
M  END
>  <Pose>
1

>  <Score>
-3.92

$$$$
