
 OpenBabel03232221553D

 45 48  0  0  1  0  0  0  0  0999 V2000
    4.3980  -21.2710  -38.5960 S   0  0  0  0  0  0  0  0  0  0  0  0
    6.2240  -21.0920  -38.5660 C   0  0  0  0  0  0  0  0  0  0  0  0
    6.4830  -19.7350  -39.2240 C   0  0  0  0  0  0  0  0  0  0  0  0
    6.0800  -19.8480  -40.6900 C   0  0  0  0  0  0  0  0  0  0  0  0
    4.6580  -19.6200  -40.7620 N   0  0  1  0  0  0  0  0  0  0  0  0
    3.8470  -20.1860  -39.9060 C   0  0  2  0  0  0  0  0  0  0  0  0
    2.5020  -19.7460  -40.2330 N   0  0  0  0  0  0  0  0  0  0  0  0
    2.5630  -19.6910  -41.6770 C   0  0  2  0  0  0  0  0  0  0  0  0
    3.8570  -18.7950  -41.6720 C   0  0  0  0  0  0  0  0  0  0  0  0
    1.5250  -19.0680  -42.2940 O   0  0  0  0  0  0  0  0  0  0  0  0
    2.9260  -21.0100  -42.2070 C   0  0  0  0  0  0  0  0  0  0  0  0
    2.4190  -22.1940  -41.6990 C   0  0  0  0  0  0  0  0  0  0  0  0
    2.8400  -23.4190  -42.2370 C   0  0  0  0  0  0  0  0  0  0  0  0
    3.7300  -23.4980  -43.2410 C   0  0  0  0  0  0  0  0  0  0  0  0
    4.2640  -22.3110  -43.7850 C   0  0  0  0  0  0  0  0  0  0  0  0
    3.8240  -21.1240  -43.2260 C   0  0  0  0  0  0  0  0  0  0  0  0
    4.1830  -24.7160  -43.8110 O   0  0  0  0  0  0  0  0  0  0  0  0
    5.4710  -25.2090  -43.5110 C   0  0  0  0  0  0  0  0  0  0  0  0
    1.4780  -19.4000  -39.3270 C   0  0  0  0  0  0  0  0  0  0  0  0
    0.4650  -20.3580  -39.0830 C   0  0  0  0  0  0  0  0  0  0  0  0
   -0.6090  -20.0890  -38.2520 C   0  0  0  0  0  0  0  0  0  0  0  0
   -0.7340  -18.8770  -37.6300 C   0  0  0  0  0  0  0  0  0  0  0  0
    0.2370  -17.9220  -37.8490 C   0  0  0  0  0  0  0  0  0  0  0  0
    1.3270  -18.2040  -38.6940 C   0  0  0  0  0  0  0  0  0  0  0  0
   -2.2070  -18.4530  -36.4920 B   0  0  0  0  0  0  0  0  0  0  0  0
    6.5100  -21.0470  -37.5000 H   0  0  0  0  0  0  0  0  0  0  0  0
    6.7070  -21.9020  -39.1290 H   0  0  0  0  0  0  0  0  0  0  0  0
    7.5100  -19.4010  -39.0770 H   0  0  0  0  0  0  0  0  0  0  0  0
    5.7880  -19.0160  -38.6980 H   0  0  0  0  0  0  0  0  0  0  0  0
    6.6220  -19.0650  -41.2690 H   0  0  0  0  0  0  0  0  0  0  0  0
    6.3630  -20.8050  -41.1450 H   0  0  0  0  0  0  0  0  0  0  0  0
    4.2650  -18.6530  -42.6460 H   0  0  0  0  0  0  0  0  0  0  0  0
    3.5350  -17.8870  -41.1210 H   0  0  0  0  0  0  0  0  0  0  0  0
    1.0810  -19.7270  -42.9110 H   0  0  0  0  0  0  0  0  0  0  0  0
    1.7130  -22.1710  -40.8980 H   0  0  0  0  0  0  0  0  0  0  0  0
    2.4150  -24.3180  -41.8060 H   0  0  0  0  0  0  0  0  0  0  0  0
    4.9750  -22.3560  -44.5770 H   0  0  0  0  0  0  0  0  0  0  0  0
    4.2510  -20.2350  -43.6730 H   0  0  0  0  0  0  0  0  0  0  0  0
    5.4930  -26.2820  -43.7660 H   0  0  0  0  0  0  0  0  0  0  0  0
    5.7420  -25.1350  -42.4400 H   0  0  0  0  0  0  0  0  0  0  0  0
    6.2690  -24.6660  -44.0970 H   0  0  0  0  0  0  0  0  0  0  0  0
    0.5280  -21.3150  -39.5530 H   0  0  0  0  0  0  0  0  0  0  0  0
   -1.3810  -20.8370  -38.0750 H   0  0  0  0  0  0  0  0  0  0  0  0
    0.1520  -16.9620  -37.3750 H   0  0  0  0  0  0  0  0  0  0  0  0
    2.0760  -17.4290  -38.8540 H   0  0  0  0  0  0  0  0  0  0  0  0
  1  2  1  0  0  0  0
  2 26  1  0  0  0  0
  3 28  1  0  0  0  0
  3 29  1  0  0  0  0
  3  2  1  0  0  0  0
  4  3  1  0  0  0  0
  5  9  1  1  0  0  0
  5  4  1  0  0  0  0
  5  6  1  0  0  0  0
  6  1  1  1  0  0  0
  7  6  1  0  0  0  0
  7 19  1  0  0  0  0
  8 10  1  6  0  0  0
  8  9  1  0  0  0  0
  8  7  1  0  0  0  0
  9 33  1  0  0  0  0
 11 12  1  0  0  0  0
 11  8  1  0  0  0  0
 12 35  1  0  0  0  0
 13 36  1  0  0  0  0
 13 12  2  0  0  0  0
 14 13  1  0  0  0  0
 15 14  2  0  0  0  0
 15 16  1  0  0  0  0
 16 11  2  0  0  0  0
 17 18  1  0  0  0  0
 17 14  1  0  0  0  0
 18 40  1  0  0  0  0
 19 20  2  0  0  0  0
 19 24  1  0  0  0  0
 20 21  1  0  0  0  0
 21 43  1  0  0  0  0
 21 22  2  0  0  0  0
 22 25  1  0  0  0  0
 23 22  1  0  0  0  0
 23 44  1  0  0  0  0
 24 23  2  0  0  0  0
 27  2  1  0  0  0  0
 30  4  1  0  0  0  0
 31  4  1  0  0  0  0
 32  9  1  0  0  0  0
 34 10  1  0  0  0  0
 37 15  1  0  0  0  0
 38 16  1  0  0  0  0
 39 18  1  0  0  0  0
 41 18  1  0  0  0  0
 42 20  1  0  0  0  0
 45 24  1  0  0  0  0
M  END
>  <Pose>
1

>  <Score>
-3.69

$$$$
