
 OpenBabel03232221553D

 49 52  0  0  1  0  0  0  0  0999 V2000
   -0.2500  -17.2320  -38.6270 S   0  0  0  0  0  0  0  0  0  0  0  0
    0.2150  -15.7390  -37.7860 C   0  0  0  0  0  0  0  0  0  0  0  0
    1.6720  -15.8170  -37.3780 C   0  0  0  0  0  0  0  0  0  0  0  0
    1.8680  -16.9960  -36.4400 C   0  0  0  0  0  0  0  0  0  0  0  0
    1.8330  -18.2320  -37.1880 N   0  0  2  0  0  0  0  0  0  0  0  0
    2.7660  -19.3060  -37.2970 C   0  0  2  0  0  0  0  0  0  0  0  0
    1.7980  -20.4680  -37.4610 C   0  0  0  0  0  0  0  0  0  0  0  0
    0.7320  -19.8940  -38.2510 N   0  0  0  0  0  0  0  0  0  0  0  0
    0.7420  -18.6240  -38.0400 C   0  0  2  0  0  0  0  0  0  0  0  0
   -0.1480  -20.5710  -39.1360 C   0  0  0  0  0  0  0  0  0  0  0  0
   -1.4440  -20.7940  -38.6900 C   0  0  0  0  0  0  0  0  0  0  0  0
   -2.3620  -21.4770  -39.4930 C   0  0  0  0  0  0  0  0  0  0  0  0
   -1.9730  -21.9360  -40.7400 C   0  0  0  0  0  0  0  0  0  0  0  0
   -0.6990  -21.7320  -41.2130 C   0  0  0  0  0  0  0  0  0  0  0  0
    0.1760  -21.0370  -40.3560 C   0  0  0  0  0  0  0  0  0  0  0  0
   -0.2500  -22.1640  -42.4490 O   0  0  0  0  0  0  0  0  0  0  0  0
    0.5310  -23.3000  -42.6890 C   0  0  0  0  0  0  0  0  0  0  0  0
   -1.8260  -20.3390  -37.4460 O   0  0  0  0  0  0  0  0  0  0  0  0
   -2.2330  -19.0230  -37.1530 C   0  0  0  0  0  0  0  0  0  0  0  0
    3.4990  -19.4300  -36.1220 O   0  0  0  0  0  0  0  0  0  0  0  0
    3.6350  -19.2810  -38.4900 C   0  0  0  0  0  0  0  0  0  0  0  0
    3.2710  -18.9040  -39.7440 C   0  0  0  0  0  0  0  0  0  0  0  0
    4.1690  -18.9550  -40.8120 C   0  0  0  0  0  0  0  0  0  0  0  0
    5.4650  -19.3920  -40.6350 C   0  0  0  0  0  0  0  0  0  0  0  0
    5.8400  -19.7720  -39.3830 C   0  0  0  0  0  0  0  0  0  0  0  0
    4.9600  -19.7230  -38.3380 C   0  0  0  0  0  0  0  0  0  0  0  0
    6.6860  -19.4620  -42.1130 B   0  0  0  0  0  0  0  0  0  0  0  0
    0.0770  -14.8320  -38.4340 H   0  0  0  0  0  0  0  0  0  0  0  0
   -0.3820  -15.6250  -36.8370 H   0  0  0  0  0  0  0  0  0  0  0  0
    2.3030  -15.9550  -38.2870 H   0  0  0  0  0  0  0  0  0  0  0  0
    1.9710  -14.9120  -36.8290 H   0  0  0  0  0  0  0  0  0  0  0  0
    2.8880  -16.8660  -35.9890 H   0  0  0  0  0  0  0  0  0  0  0  0
    1.0620  -16.9660  -35.6840 H   0  0  0  0  0  0  0  0  0  0  0  0
    2.3900  -21.2430  -37.9460 H   0  0  0  0  0  0  0  0  0  0  0  0
    1.4380  -20.7790  -36.4640 H   0  0  0  0  0  0  0  0  0  0  0  0
   -3.3770  -21.6420  -39.1270 H   0  0  0  0  0  0  0  0  0  0  0  0
   -2.6640  -22.4730  -41.3860 H   0  0  0  0  0  0  0  0  0  0  0  0
    1.1510  -20.9030  -40.7560 H   0  0  0  0  0  0  0  0  0  0  0  0
    0.4360  -23.6220  -43.7730 H   0  0  0  0  0  0  0  0  0  0  0  0
    1.5930  -22.9590  -42.5150 H   0  0  0  0  0  0  0  0  0  0  0  0
    0.2620  -24.1710  -42.0590 H   0  0  0  0  0  0  0  0  0  0  0  0
   -1.5900  -18.3030  -37.6710 H   0  0  0  0  0  0  0  0  0  0  0  0
   -3.2650  -18.8270  -37.5430 H   0  0  0  0  0  0  0  0  0  0  0  0
   -2.1670  -18.8140  -36.0570 H   0  0  0  0  0  0  0  0  0  0  0  0
    3.2930  -20.2850  -35.6800 H   0  0  0  0  0  0  0  0  0  0  0  0
    2.2780  -18.5590  -39.9180 H   0  0  0  0  0  0  0  0  0  0  0  0
    3.8480  -18.6390  -41.8240 H   0  0  0  0  0  0  0  0  0  0  0  0
    6.8640  -20.1110  -39.2750 H   0  0  0  0  0  0  0  0  0  0  0  0
    5.2970  -20.0350  -37.3640 H   0  0  0  0  0  0  0  0  0  0  0  0
  1  2  1  0  0  0  0
  2  3  1  0  0  0  0
  2 29  1  0  0  0  0
  3 31  1  0  0  0  0
  3  4  1  0  0  0  0
  4 32  1  0  0  0  0
  4 33  1  0  0  0  0
  5  4  1  6  0  0  0
  6  5  1  0  0  0  0
  6 20  1  1  0  0  0
  7  6  1  0  0  0  0
  7 35  1  0  0  0  0
  8  9  1  0  0  0  0
  8  7  1  0  0  0  0
  9  1  1  6  0  0  0
  9  5  1  0  0  0  0
 10 11  1  0  0  0  0
 10  8  1  0  0  0  0
 11 18  1  0  0  0  0
 12 36  1  0  0  0  0
 12 11  2  0  0  0  0
 13 12  1  0  0  0  0
 14 13  2  0  0  0  0
 14 15  1  0  0  0  0
 15 10  2  0  0  0  0
 16 14  1  0  0  0  0
 17 40  1  0  0  0  0
 17 16  1  0  0  0  0
 17 41  1  0  0  0  0
 18 19  1  0  0  0  0
 19 44  1  0  0  0  0
 20 45  1  0  0  0  0
 21 26  1  0  0  0  0
 21  6  1  0  0  0  0
 22 21  2  0  0  0  0
 23 24  2  0  0  0  0
 23 22  1  0  0  0  0
 24 25  1  0  0  0  0
 25 48  1  0  0  0  0
 25 26  2  0  0  0  0
 26 49  1  0  0  0  0
 27 24  1  0  0  0  0
 28  2  1  0  0  0  0
 30  3  1  0  0  0  0
 34  7  1  0  0  0  0
 37 13  1  0  0  0  0
 38 15  1  0  0  0  0
 39 17  1  0  0  0  0
 42 19  1  0  0  0  0
 43 19  1  0  0  0  0
 46 22  1  0  0  0  0
 47 23  1  0  0  0  0
M  END
>  <Pose>
1

>  <Score>
-3.49

$$$$
