
 OpenBabel03232221553D

 43 46  0  0  1  0  0  0  0  0999 V2000
    6.6690  -22.5530  -42.7080 S   0  0  0  0  0  0  0  0  0  0  0  0
    5.0140  -23.3030  -42.9880 C   0  0  0  0  0  0  0  0  0  0  0  0
    4.0180  -22.9210  -41.9760 C   0  0  0  0  0  0  0  0  0  0  0  0
    4.4540  -22.2250  -40.7520 C   0  0  0  0  0  0  0  0  0  0  0  0
    5.3020  -21.1120  -40.8810 N   0  0  1  0  0  0  0  0  0  0  0  0
    5.5200  -19.9280  -40.1080 C   0  0  2  0  0  0  0  0  0  0  0  0
    5.8480  -18.9360  -41.2020 C   0  0  0  0  0  0  0  0  0  0  0  0
    6.5610  -19.7670  -42.1480 N   0  0  0  0  0  0  0  0  0  0  0  0
    6.2470  -20.9630  -41.9710 C   0  0  1  0  0  0  0  0  0  0  0  0
    7.4940  -19.2860  -43.1230 C   0  0  0  0  0  0  0  0  0  0  0  0
    7.5830  -17.9170  -43.3350 C   0  0  0  0  0  0  0  0  0  0  0  0
    8.4520  -17.3790  -44.2810 C   0  0  0  0  0  0  0  0  0  0  0  0
    9.2550  -18.1990  -45.0420 C   0  0  0  0  0  0  0  0  0  0  0  0
    9.1780  -19.5560  -44.8440 C   0  0  0  0  0  0  0  0  0  0  0  0
    8.2930  -20.0690  -43.8870 C   0  0  0  0  0  0  0  0  0  0  0  0
   10.4400  -17.4490  -46.3590 B   0  0  0  0  0  0  0  0  0  0  0  0
    6.6850  -20.0800  -39.3520 O   0  0  0  0  0  0  0  0  0  0  0  0
    4.3890  -19.4730  -39.2770 C   0  0  0  0  0  0  0  0  0  0  0  0
    3.3580  -18.7950  -39.9210 C   0  0  0  0  0  0  0  0  0  0  0  0
    2.2580  -18.3350  -39.2320 C   0  0  0  0  0  0  0  0  0  0  0  0
    2.1230  -18.5240  -37.8670 C   0  0  0  0  0  0  0  0  0  0  0  0
    3.1420  -19.1980  -37.2240 C   0  0  0  0  0  0  0  0  0  0  0  0
    4.2590  -19.6640  -37.9260 C   0  0  0  0  0  0  0  0  0  0  0  0
    0.9810  -18.0430  -37.1830 N   0  0  0  0  0  0  0  0  0  0  0  0
    1.0010  -17.0710  -36.4190 O   0  0  0  0  0  0  0  0  0  0  0  0
   -0.2210  -18.6760  -37.3700 O   0  0  0  0  0  0  0  0  0  0  0  0
    4.6890  -22.9840  -44.0210 H   0  0  0  0  0  0  0  0  0  0  0  0
    5.1800  -24.3770  -43.0640 H   0  0  0  0  0  0  0  0  0  0  0  0
    3.1990  -22.3460  -42.4630 H   0  0  0  0  0  0  0  0  0  0  0  0
    3.5050  -23.8800  -41.6410 H   0  0  0  0  0  0  0  0  0  0  0  0
    4.9820  -22.9720  -40.0800 H   0  0  0  0  0  0  0  0  0  0  0  0
    3.5420  -21.9730  -40.1640 H   0  0  0  0  0  0  0  0  0  0  0  0
    4.8400  -18.6430  -41.6250 H   0  0  0  0  0  0  0  0  0  0  0  0
    6.4080  -18.0720  -40.8260 H   0  0  0  0  0  0  0  0  0  0  0  0
    6.9630  -17.2430  -42.7620 H   0  0  0  0  0  0  0  0  0  0  0  0
    8.4970  -16.2980  -44.4260 H   0  0  0  0  0  0  0  0  0  0  0  0
    9.7840  -20.2100  -45.4350 H   0  0  0  0  0  0  0  0  0  0  0  0
    8.2460  -21.1500  -43.7590 H   0  0  0  0  0  0  0  0  0  0  0  0
    7.3300  -19.4080  -39.6260 H   0  0  0  0  0  0  0  0  0  0  0  0
    3.4390  -18.6300  -40.9970 H   0  0  0  0  0  0  0  0  0  0  0  0
    1.4320  -17.7970  -39.7080 H   0  0  0  0  0  0  0  0  0  0  0  0
    3.0600  -19.3580  -36.1490 H   0  0  0  0  0  0  0  0  0  0  0  0
    5.0480  -20.1890  -37.3960 H   0  0  0  0  0  0  0  0  0  0  0  0
  2  1  1  0  0  0  0
  2  3  1  0  0  0  0
  3 30  1  0  0  0  0
  3  4  1  0  0  0  0
  4 32  1  0  0  0  0
  4 31  1  0  0  0  0
  5  4  1  1  0  0  0
  5  6  1  0  0  0  0
  6 17  1  1  0  0  0
  6 18  1  0  0  0  0
  7 34  1  0  0  0  0
  7  6  1  0  0  0  0
  8  9  1  0  0  0  0
  8  7  1  0  0  0  0
  9  1  1  1  0  0  0
  9  5  1  0  0  0  0
 10  8  1  0  0  0  0
 11 10  1  0  0  0  0
 11 35  1  0  0  0  0
 12 11  2  0  0  0  0
 13 14  2  0  0  0  0
 13 12  1  0  0  0  0
 14 15  1  0  0  0  0
 15 38  1  0  0  0  0
 15 10  2  0  0  0  0
 16 13  1  0  0  0  0
 18 23  1  0  0  0  0
 19 18  2  0  0  0  0
 19 20  1  0  0  0  0
 20 21  2  0  0  0  0
 21 22  1  0  0  0  0
 21 24  1  0  0  0  0
 22 42  1  0  0  0  0
 23 43  1  0  0  0  0
 23 22  2  0  0  0  0
 24 25  2  0  0  0  0
 26 24  2  0  0  0  0
 27  2  1  0  0  0  0
 28  2  1  0  0  0  0
 29  3  1  0  0  0  0
 33  7  1  0  0  0  0
 36 12  1  0  0  0  0
 37 14  1  0  0  0  0
 39 17  1  0  0  0  0
 40 19  1  0  0  0  0
 41 20  1  0  0  0  0
M  END
>  <Pose>
1

>  <Score>
-3.58

$$$$
