
 OpenBabel03232221553D

 25 28  0  0  0  0  0  0  0  0999 V2000
   -0.0640  -17.2120  -37.3990 S   0  0  0  0  0  0  0  0  0  0  0  0
    0.6910  -18.6920  -37.8360 C   0  0  0  0  0  0  0  0  0  0  0  0
    1.9740  -18.3330  -37.8520 N   0  0  0  0  0  0  0  0  0  0  0  0
    2.6390  -19.4860  -38.1990 C   0  0  0  0  0  0  0  0  0  0  0  0
    1.7590  -20.4710  -38.3740 N   0  0  0  0  0  0  0  0  0  0  0  0
    0.5410  -20.0170  -38.1570 N   0  0  0  0  0  0  0  0  0  0  0  0
    4.1000  -19.6330  -38.3580 C   0  0  0  0  0  0  0  0  0  0  0  0
    4.9570  -18.8810  -37.6420 N   0  0  0  0  0  0  0  0  0  0  0  0
    6.2920  -19.0240  -37.7970 C   0  0  0  0  0  0  0  0  0  0  0  0
    6.7910  -19.9370  -38.6840 C   0  0  0  0  0  0  0  0  0  0  0  0
    5.9300  -20.6760  -39.3850 N   0  0  0  0  0  0  0  0  0  0  0  0
    4.5910  -20.5530  -39.2510 C   0  0  0  0  0  0  0  0  0  0  0  0
    2.2840  -17.1310  -37.5750 N   0  0  0  0  0  0  0  0  0  0  0  0
    1.3570  -16.2430  -37.2740 C   0  0  0  0  0  0  0  0  0  0  0  0
    1.4830  -14.8240  -36.9260 C   0  0  0  0  0  0  0  0  0  0  0  0
    1.2710  -14.2720  -35.7250 N   0  0  0  0  0  0  0  0  0  0  0  0
    1.4880  -12.9490  -35.8030 N   0  0  0  0  0  0  0  0  0  0  0  0
    1.8430  -12.6420  -37.0660 C   0  0  0  0  0  0  0  0  0  0  0  0
    1.8400  -13.8420  -37.7830 C   0  0  0  0  0  0  0  0  0  0  0  0
    2.2690  -13.9720  -39.6140 B   0  0  0  0  0  0  0  0  0  0  0  0
    6.9340  -18.4090  -37.2110 H   0  0  0  0  0  0  0  0  0  0  0  0
    7.8420  -20.0500  -38.8050 H   0  0  0  0  0  0  0  0  0  0  0  0
    3.8960  -21.1620  -39.8300 H   0  0  0  0  0  0  0  0  0  0  0  0
    1.3910  -12.2830  -35.0030 H   0  0  0  0  0  0  0  0  0  0  0  0
    2.0730  -11.6420  -37.4000 H   0  0  0  0  0  0  0  0  0  0  0  0
  1 14  1  0  0  0  0
  2  1  1  0  0  0  0
  3  2  1  0  0  0  0
  3 13  1  0  0  0  0
  4  3  1  0  0  0  0
  5  4  2  0  0  0  0
  5  6  1  0  0  0  0
  6  2  2  0  0  0  0
  7  4  1  0  0  0  0
  7  8  1  0  0  0  0
  9  8  2  0  0  0  0
  9 21  1  0  0  0  0
 10  9  1  0  0  0  0
 11 12  1  0  0  0  0
 11 10  2  0  0  0  0
 12  7  2  0  0  0  0
 13 14  2  0  0  0  0
 14 15  1  0  0  0  0
 15 16  2  0  0  0  0
 17 16  1  0  0  0  0
 17 24  1  0  0  0  0
 18 17  1  0  0  0  0
 19 18  2  0  0  0  0
 19 15  1  0  0  0  0
 20 19  1  0  0  0  0
 22 10  1  0  0  0  0
 23 12  1  0  0  0  0
 25 18  1  0  0  0  0
M  END
>  <Pose>
1

>  <Score>
-5.03

$$$$
