
 OpenBabel03232221553D

 60 63  0  0  1  0  0  0  0  0999 V2000
   12.8420  -21.5260  -46.0750 B   0  0  0  0  0  0  0  0  0  0  0  0
   12.7880  -22.9010  -44.7490 C   0  0  0  0  0  0  0  0  0  0  0  0
   12.1000  -24.0490  -44.9890 C   0  0  0  0  0  0  0  0  0  0  0  0
   12.0510  -25.0650  -44.0290 C   0  0  0  0  0  0  0  0  0  0  0  0
   12.7180  -24.8610  -42.8410 C   0  0  0  0  0  0  0  0  0  0  0  0
   13.4210  -23.6880  -42.5960 C   0  0  0  0  0  0  0  0  0  0  0  0
   13.4500  -22.7080  -43.5610 C   0  0  0  0  0  0  0  0  0  0  0  0
   11.2880  -26.2770  -44.3540 C   0  0  1  0  0  0  0  0  0  0  0  0
   11.5760  -27.4180  -43.5080 N   0  0  0  0  0  0  0  0  0  0  0  0
   10.8230  -27.2660  -42.2850 C   0  0  0  0  0  0  0  0  0  0  0  0
   11.0680  -27.7570  -41.1760 O   0  0  0  0  0  0  0  0  0  0  0  0
    9.7030  -26.4020  -42.6470 C   0  0  0  0  0  0  0  0  0  0  0  0
    8.7650  -25.9770  -41.9090 O   0  0  0  0  0  0  0  0  0  0  0  0
    9.8240  -26.0740  -44.0580 C   0  0  0  0  0  0  0  0  0  0  0  0
    8.8860  -25.6490  -44.8890 C   0  0  0  0  0  0  0  0  0  0  0  0
    9.2800  -25.3350  -46.2210 O   0  0  0  0  0  0  0  0  0  0  0  0
    7.5110  -25.5130  -44.4790 C   0  0  0  0  0  0  0  0  0  0  0  0
    6.9420  -24.5170  -43.7670 N   0  0  0  0  0  0  0  0  0  0  0  0
    5.6190  -24.7800  -43.6420 C   0  0  0  0  0  0  0  0  0  0  0  0
    5.3310  -25.9510  -44.2750 N   0  0  0  0  0  0  0  0  0  0  0  0
    6.5040  -26.3930  -44.7860 C   0  0  0  0  0  0  0  0  0  0  0  0
    6.6520  -27.6550  -45.5630 C   0  0  0  0  0  0  0  0  0  0  0  0
    4.7280  -23.9870  -42.9670 C   0  0  0  0  0  0  0  0  0  0  0  0
    5.2140  -22.8430  -42.3730 C   0  0  0  0  0  0  0  0  0  0  0  0
    6.5620  -22.5710  -42.4960 C   0  0  0  0  0  0  0  0  0  0  0  0
    7.4080  -23.3990  -43.1840 C   0  0  0  0  0  0  0  0  0  0  0  0
    3.2790  -24.3250  -42.8620 C   0  0  0  0  0  0  0  0  0  0  0  0
   12.4670  -28.5250  -43.8140 C   0  0  0  0  0  0  0  0  0  0  0  0
   13.6760  -28.1400  -44.5960 C   0  0  0  0  0  0  0  0  0  0  0  0
   14.8400  -29.0910  -44.4690 C   0  0  0  0  0  0  0  0  0  0  0  0
   14.5110  -30.3510  -45.0920 N   0  0  0  0  0  4  0  0  0  0  0  0
   15.3300  -30.5650  -46.2710 C   0  0  0  0  0  0  0  0  0  0  0  0
   14.8330  -31.4180  -44.1650 C   0  0  0  0  0  0  0  0  0  0  0  0
   11.5940  -24.1480  -45.9490 H   0  0  0  0  0  0  0  0  0  0  0  0
   12.7010  -25.6320  -42.0630 H   0  0  0  0  0  0  0  0  0  0  0  0
   13.9460  -23.5380  -41.6500 H   0  0  0  0  0  0  0  0  0  0  0  0
   13.9960  -21.7850  -43.3810 H   0  0  0  0  0  0  0  0  0  0  0  0
   11.4310  -26.5190  -45.4290 H   0  0  0  0  0  0  0  0  0  0  0  0
    7.2760  -28.3800  -45.0180 H   0  0  0  0  0  0  0  0  0  0  0  0
    7.1000  -27.4590  -46.5570 H   0  0  0  0  0  0  0  0  0  0  0  0
    5.6760  -28.1290  -45.7370 H   0  0  0  0  0  0  0  0  0  0  0  0
    4.5410  -22.1760  -41.8230 H   0  0  0  0  0  0  0  0  0  0  0  0
    6.9470  -21.6500  -42.0160 H   0  0  0  0  0  0  0  0  0  0  0  0
    8.4670  -23.1780  -43.2730 H   0  0  0  0  0  0  0  0  0  0  0  0
    3.0910  -25.3060  -43.3200 H   0  0  0  0  0  0  0  0  0  0  0  0
    2.6560  -23.5180  -43.3200 H   0  0  0  0  0  0  0  0  0  0  0  0
    3.0720  -24.4190  -41.7640 H   0  0  0  0  0  0  0  0  0  0  0  0
   11.8860  -29.2500  -44.4150 H   0  0  0  0  0  0  0  0  0  0  0  0
   12.7690  -29.0610  -42.8910 H   0  0  0  0  0  0  0  0  0  0  0  0
   14.0270  -27.1080  -44.3520 H   0  0  0  0  0  0  0  0  0  0  0  0
   13.4210  -28.1050  -45.6770 H   0  0  0  0  0  0  0  0  0  0  0  0
   15.7490  -28.7130  -44.9820 H   0  0  0  0  0  0  0  0  0  0  0  0
   15.0890  -29.2710  -43.4210 H   0  0  0  0  0  0  0  0  0  0  0  0
   13.4920  -30.4420  -45.2980 H   0  0  0  0  0  0  0  0  0  0  0  0
   15.4510  -31.6680  -46.4710 H   0  0  0  0  0  0  0  0  0  0  0  0
   16.3690  -30.2350  -45.9790 H   0  0  0  0  0  0  0  0  0  0  0  0
   14.9930  -30.0140  -47.1510 H   0  0  0  0  0  0  0  0  0  0  0  0
   14.5610  -32.4160  -44.5960 H   0  0  0  0  0  0  0  0  0  0  0  0
   14.3600  -31.2650  -43.1730 H   0  0  0  0  0  0  0  0  0  0  0  0
   15.9330  -31.4050  -44.0230 H   0  0  0  0  0  0  0  0  0  0  0  0
  1  2  1  0  0  0  0
  2  7  1  0  0  0  0
  3  2  2  0  0  0  0
  3  4  1  0  0  0  0
  4  5  2  0  0  0  0
  5  6  1  0  0  0  0
  5 35  1  0  0  0  0
  6 36  1  0  0  0  0
  7 37  1  0  0  0  0
  7  6  2  0  0  0  0
  8 38  1  6  0  0  0
  8 14  1  0  0  0  0
  8  4  1  0  0  0  0
  8  9  1  0  0  0  0
  9 10  1  0  0  0  0
 10 11  2  0  0  0  0
 12 10  1  0  0  0  0
 12 13  2  0  0  0  0
 14 12  1  0  0  0  0
 15 17  1  0  0  0  0
 15 14  2  0  0  0  0
 16 15  1  0  0  0  0
 17 18  1  0  0  0  0
 18 19  1  0  0  0  0
 18 26  1  0  0  0  0
 19 23  1  0  0  0  0
 20 19  2  0  0  0  0
 21 17  2  0  0  0  0
 21 20  1  0  0  0  0
 22 39  1  0  0  0  0
 22 21  1  0  0  0  0
 23 27  1  0  0  0  0
 23 24  2  0  0  0  0
 24 42  1  0  0  0  0
 25 24  1  0  0  0  0
 25 43  1  0  0  0  0
 26 25  2  0  0  0  0
 27 47  1  0  0  0  0
 28  9  1  0  0  0  0
 28 49  1  0  0  0  0
 29 30  1  0  0  0  0
 29 50  1  0  0  0  0
 29 28  1  0  0  0  0
 30 53  1  0  0  0  0
 31 30  1  0  0  0  0
 31 33  1  0  0  0  0
 32 56  1  0  0  0  0
 32 31  1  0  0  0  0
 33 60  1  0  0  0  0
 33 59  1  0  0  0  0
 34  3  1  0  0  0  0
 40 22  1  0  0  0  0
 41 22  1  0  0  0  0
 44 26  1  0  0  0  0
 45 27  1  0  0  0  0
 46 27  1  0  0  0  0
 48 28  1  0  0  0  0
 51 29  1  0  0  0  0
 52 30  1  0  0  0  0
 54 31  1  0  0  0  0
 55 32  1  0  0  0  0
 57 32  1  0  0  0  0
 58 33  1  0  0  0  0
M  END
>  <Pose>
1

>  <Score>
-4.55

$$$$
