
 OpenBabel03232221553D

 47 50  0  0  0  0  0  0  0  0999 V2000
   -0.9080  -11.3770  -36.2660 B   0  0  0  0  0  0  0  0  0  0  0  0
    0.8110  -11.4740  -37.0410 C   0  0  0  0  0  0  0  0  0  0  0  0
    1.4130  -12.6970  -37.2180 C   0  0  0  0  0  0  0  0  0  0  0  0
    2.6100  -12.8270  -37.7900 C   0  0  0  0  0  0  0  0  0  0  0  0
    3.3170  -11.6740  -38.2520 C   0  0  0  0  0  0  0  0  0  0  0  0
    2.7380  -10.4570  -38.1160 C   0  0  0  0  0  0  0  0  0  0  0  0
    1.4830  -10.3410  -37.5110 C   0  0  0  0  0  0  0  0  0  0  0  0
    0.5080  -13.9400  -37.0320 C   0  0  0  0  0  0  0  0  0  0  0  0
    1.0110  -14.6850  -36.1730 N   0  0  0  0  0  0  0  0  0  0  0  0
    1.1170  -15.7200  -35.4080 N   0  0  0  0  0  0  0  0  0  0  0  0
    1.2550  -16.9000  -36.3980 C   0  0  0  0  0  0  0  0  0  0  0  0
    0.2330  -17.0990  -37.0450 O   0  0  0  0  0  0  0  0  0  0  0  0
    2.4410  -17.6480  -36.5020 C   0  0  0  0  0  0  0  0  0  0  0  0
    3.2660  -18.0810  -35.5980 N   0  0  0  0  0  0  0  0  0  0  0  0
    4.0580  -18.9540  -36.1200 N   0  0  0  0  0  0  0  0  0  0  0  0
    3.7930  -19.1620  -37.4670 N   0  0  0  0  0  0  0  0  0  0  0  0
    2.7900  -18.3580  -37.7410 C   0  0  0  0  0  0  0  0  0  0  0  0
    2.0890  -17.8950  -38.9360 C   0  0  0  0  0  0  0  0  0  0  0  0
    2.2140  -18.2380  -40.2220 N   0  0  0  0  0  0  0  0  0  0  0  0
    1.1380  -17.6490  -41.0070 C   0  0  0  0  0  0  0  0  0  0  0  0
    1.7660  -17.0490  -42.2290 C   0  0  0  0  0  0  0  0  0  0  0  0
    3.2670  -17.2750  -42.0750 C   0  0  0  0  0  0  0  0  0  0  0  0
    3.2770  -18.4420  -41.0570 C   0  0  0  0  0  0  0  0  0  0  0  0
    4.5520  -20.1310  -38.1230 C   0  0  0  0  0  0  0  0  0  0  0  0
    4.0010  -21.3550  -38.5020 N   0  0  0  0  0  0  0  0  0  0  0  0
    4.9330  -22.0850  -38.9720 O   0  0  0  0  0  0  0  0  0  0  0  0
    6.0560  -21.4870  -38.9580 N   0  0  0  0  0  0  0  0  0  0  0  0
    5.8450  -20.2510  -38.4250 C   0  0  0  0  0  0  0  0  0  0  0  0
    6.9370  -19.3380  -38.2570 N   0  0  0  0  0  0  0  0  0  0  0  0
    3.0810  -13.7910  -37.8510 H   0  0  0  0  0  0  0  0  0  0  0  0
    4.2770  -11.7500  -38.6640 H   0  0  0  0  0  0  0  0  0  0  0  0
    3.2220   -9.5200  -38.4960 H   0  0  0  0  0  0  0  0  0  0  0  0
    1.0270   -9.3500  -37.4720 H   0  0  0  0  0  0  0  0  0  0  0  0
   -0.3190  -14.0780  -37.5720 H   0  0  0  0  0  0  0  0  0  0  0  0
    1.1060  -15.9940  -34.4300 H   0  0  0  0  0  0  0  0  0  0  0  0
    1.1090  -17.3370  -38.7280 H   0  0  0  0  0  0  0  0  0  0  0  0
    2.6840  -16.7350  -39.0550 H   0  0  0  0  0  0  0  0  0  0  0  0
    0.5460  -16.9660  -40.4000 H   0  0  0  0  0  0  0  0  0  0  0  0
    0.3860  -18.4400  -41.3280 H   0  0  0  0  0  0  0  0  0  0  0  0
    1.3660  -17.4740  -43.1620 H   0  0  0  0  0  0  0  0  0  0  0  0
    1.5190  -15.9460  -42.2760 H   0  0  0  0  0  0  0  0  0  0  0  0
    3.6900  -17.5680  -43.0220 H   0  0  0  0  0  0  0  0  0  0  0  0
    3.7080  -16.4440  -41.5350 H   0  0  0  0  0  0  0  0  0  0  0  0
    3.0530  -19.3430  -41.7290 H   0  0  0  0  0  0  0  0  0  0  0  0
    4.2840  -18.5430  -40.6300 H   0  0  0  0  0  0  0  0  0  0  0  0
    7.7310  -19.4330  -38.9060 H   0  0  0  0  0  0  0  0  0  0  0  0
    6.9470  -18.6710  -37.4880 H   0  0  0  0  0  0  0  0  0  0  0  0
  2  1  1  0  0  0  0
  3  2  1  0  0  0  0
  3  8  1  0  0  0  0
  4  3  2  0  0  0  0
  5  6  2  0  0  0  0
  5  4  1  0  0  0  0
  6  7  1  0  0  0  0
  7 33  1  0  0  0  0
  7  2  2  0  0  0  0
  8  9  1  0  0  0  0
  9 10  1  0  0  0  0
 10 35  1  0  0  0  0
 11 10  1  0  0  0  0
 12 11  2  0  0  0  0
 13 11  1  0  0  0  0
 13 14  1  0  0  0  0
 15 14  2  0  0  0  0
 16 15  1  0  0  0  0
 17 16  1  0  0  0  0
 17 13  2  0  0  0  0
 18 36  1  0  0  0  0
 18 17  1  0  0  0  0
 19 18  1  0  0  0  0
 20 38  1  0  0  0  0
 20 19  1  0  0  0  0
 21 22  1  0  0  0  0
 21 20  1  0  0  0  0
 22 43  1  0  0  0  0
 22 23  1  0  0  0  0
 23 45  1  0  0  0  0
 23 19  1  0  0  0  0
 24 16  1  0  0  0  0
 25 24  2  0  0  0  0
 26 27  1  0  0  0  0
 26 25  1  0  0  0  0
 27 28  2  0  0  0  0
 28 29  1  0  0  0  0
 28 24  1  0  0  0  0
 29 47  1  0  0  0  0
 30  4  1  0  0  0  0
 31  5  1  0  0  0  0
 32  6  1  0  0  0  0
 34  8  1  0  0  0  0
 37 18  1  0  0  0  0
 39 20  1  0  0  0  0
 40 21  1  0  0  0  0
 41 21  1  0  0  0  0
 42 22  1  0  0  0  0
 44 23  1  0  0  0  0
 46 29  1  0  0  0  0
M  END
>  <Pose>
1

>  <Score>
-6.53

$$$$
