
 OpenBabel03232221553D

 33 36  0  0  1  0  0  0  0  0999 V2000
    7.2340  -19.9290  -43.0970 B   0  0  0  0  0  0  0  0  0  0  0  0
    5.6240  -18.9320  -42.8490 C   0  0  0  0  0  0  0  0  0  0  0  0
    4.9820  -18.8870  -41.6370 C   0  0  0  0  0  0  0  0  0  0  0  0
    3.8210  -18.1640  -41.4980 C   0  0  0  0  0  0  0  0  0  0  0  0
    3.2690  -17.4650  -42.5630 C   0  0  0  0  0  0  0  0  0  0  0  0
    3.8960  -17.4970  -43.7850 C   0  0  0  0  0  0  0  0  0  0  0  0
    5.0770  -18.2350  -43.9180 C   0  0  0  0  0  0  0  0  0  0  0  0
    5.5010  -19.5970  -40.4400 C   0  0  1  0  0  0  0  0  0  0  0  0
    4.8330  -19.3820  -39.2330 C   0  0  1  0  0  0  0  0  0  0  0  0
    3.5150  -19.7240  -38.6330 C   0  0  0  0  0  0  0  0  0  0  0  0
    4.0190  -20.9320  -37.9320 N   0  0  0  0  0  0  0  0  0  0  0  0
    4.8470  -21.5340  -38.7270 C   0  0  1  0  0  0  0  0  0  0  0  0
    4.9040  -20.7730  -39.9360 C   0  0  2  0  0  0  0  0  0  0  0  0
    3.7340  -21.1770  -40.7740 C   0  0  0  0  0  0  0  0  0  0  0  0
    2.7920  -21.4810  -41.4220 N   0  0  0  0  0  0  0  0  0  0  0  0
    5.5700  -22.7490  -38.4280 N   0  0  0  0  0  0  0  0  0  0  0  0
    3.2020  -18.7440  -37.6840 O   0  0  0  0  0  0  0  0  0  0  0  0
    1.9170  -18.3150  -37.9540 C   0  0  0  0  0  0  0  0  0  0  0  0
    1.3200  -19.5130  -38.6720 C   0  0  0  0  0  0  0  0  0  0  0  0
    2.4530  -19.9140  -39.4220 O   0  0  0  0  0  0  0  0  0  0  0  0
    5.7830  -19.2110  -38.0770 C   0  0  0  0  0  0  0  0  0  0  0  0
    6.5160  -19.0600  -37.1620 N   0  0  0  0  0  0  0  0  0  0  0  0
    3.2640  -18.0920  -40.5510 H   0  0  0  0  0  0  0  0  0  0  0  0
    2.3630  -16.8950  -42.4710 H   0  0  0  0  0  0  0  0  0  0  0  0
    3.4890  -16.9660  -44.6090 H   0  0  0  0  0  0  0  0  0  0  0  0
    5.6090  -18.2880  -44.8650 H   0  0  0  0  0  0  0  0  0  0  0  0
    6.6270  -19.6060  -40.4890 H   0  0  0  0  0  0  0  0  0  0  0  0
    6.6070  -22.7770  -38.4600 H   0  0  0  0  0  0  0  0  0  0  0  0
    5.0640  -23.6180  -38.1760 H   0  0  0  0  0  0  0  0  0  0  0  0
    1.9710  -17.4550  -38.6560 H   0  0  0  0  0  0  0  0  0  0  0  0
    1.3540  -18.0560  -37.0320 H   0  0  0  0  0  0  0  0  0  0  0  0
    1.0480  -20.3010  -37.9380 H   0  0  0  0  0  0  0  0  0  0  0  0
    0.4750  -19.2500  -39.3220 H   0  0  0  0  0  0  0  0  0  0  0  0
  1  2  1  0  0  0  0
  2  3  1  0  0  0  0
  3  4  2  0  0  0  0
  3  8  1  0  0  0  0
  4 23  1  0  0  0  0
  5 24  1  0  0  0  0
  5  4  1  0  0  0  0
  6  5  2  0  0  0  0
  7  6  1  0  0  0  0
  7  2  2  0  0  0  0
  8 27  1  1  0  0  0
  8 13  1  0  0  0  0
  8  9  1  0  0  0  0
  9 10  1  0  0  0  0
  9 21  1  1  0  0  0
 10 11  1  0  0  0  0
 10 17  1  0  0  0  0
 12 16  1  1  0  0  0
 12 11  1  0  0  0  0
 13 14  1  6  0  0  0
 13  9  1  0  0  0  0
 13 12  1  0  0  0  0
 15 14  3  0  0  0  0
 16 29  1  0  0  0  0
 18 17  1  0  0  0  0
 18 31  1  0  0  0  0
 19 18  1  0  0  0  0
 19 32  1  0  0  0  0
 20 19  1  0  0  0  0
 20 10  1  0  0  0  0
 21 22  3  0  0  0  0
 25  6  1  0  0  0  0
 26  7  1  0  0  0  0
 28 16  1  0  0  0  0
 30 18  1  0  0  0  0
 33 19  1  0  0  0  0
M  END
>  <Pose>
1

>  <Score>
-3.54

$$$$
