
 OpenBabel03232221553D

 52 55  0  0  1  0  0  0  0  0999 V2000
    3.3220  -12.4640  -39.4090 B   0  0  0  0  0  0  0  0  0  0  0  0
    2.0580  -13.3430  -38.2460 C   0  0  0  0  0  0  0  0  0  0  0  0
    1.1140  -14.1900  -38.7720 C   0  0  0  0  0  0  0  0  0  0  0  0
    0.1590  -14.8580  -37.9870 C   0  0  0  0  0  0  0  0  0  0  0  0
    0.1880  -14.6480  -36.6420 C   0  0  0  0  0  0  0  0  0  0  0  0
    1.1380  -13.7910  -36.0970 C   0  0  0  0  0  0  0  0  0  0  0  0
    2.0700  -13.1390  -36.8870 C   0  0  0  0  0  0  0  0  0  0  0  0
   -0.7870  -15.7530  -38.6730 C   0  0  0  0  0  0  0  0  0  0  0  0
   -1.9620  -15.4350  -38.8930 O   0  0  0  0  0  0  0  0  0  0  0  0
   -0.2530  -17.0370  -39.0940 N   0  0  0  0  0  0  0  0  0  0  0  0
    0.5240  -17.1080  -40.3070 C   0  0  2  0  0  0  0  0  0  0  0  0
   -0.3940  -17.8990  -41.2760 C   0  0  0  0  0  0  0  0  0  0  0  0
    1.7820  -17.9050  -40.1740 C   0  0  0  0  0  0  0  0  0  0  0  0
    2.8480  -17.2800  -39.9970 O   0  0  0  0  0  0  0  0  0  0  0  0
    1.7880  -19.3030  -40.2310 N   0  0  0  0  0  0  0  0  0  0  0  0
    1.6970  -20.1860  -41.3440 C   0  0  0  0  0  0  0  0  0  0  0  0
    2.5090  -21.4190  -40.9170 C   0  0  0  0  0  0  0  0  0  0  0  0
    3.6250  -21.0600  -39.9670 C   0  0  1  0  0  0  0  0  0  0  0  0
    4.3690  -22.2250  -39.5710 N   0  0  0  0  0  0  0  0  0  0  0  0
    5.3680  -21.7980  -38.5810 C   0  0  0  0  0  0  0  0  0  0  0  0
    6.4100  -20.9110  -39.1870 C   0  0  0  0  0  0  0  0  0  0  0  0
    5.8760  -20.0630  -40.2770 C   0  0  0  0  0  0  0  0  0  0  0  0
    6.4850  -19.1490  -41.0390 N   0  0  0  0  0  0  0  0  0  0  0  0
    5.5810  -18.6340  -41.8960 C   0  0  0  0  0  0  0  0  0  0  0  0
    4.4110  -19.2400  -41.6510 N   0  0  0  0  0  0  0  0  0  0  0  0
    4.5300  -20.1360  -40.6600 C   0  0  0  0  0  0  0  0  0  0  0  0
    3.1060  -20.4700  -38.6470 C   0  0  0  0  0  0  0  0  0  0  0  0
    1.7250  -20.0620  -38.9370 C   0  0  0  0  0  0  0  0  0  0  0  0
    1.0720  -14.3570  -39.8390 H   0  0  0  0  0  0  0  0  0  0  0  0
   -0.5390  -15.1510  -36.0060 H   0  0  0  0  0  0  0  0  0  0  0  0
    1.1890  -13.6200  -35.0550 H   0  0  0  0  0  0  0  0  0  0  0  0
    2.8250  -12.4540  -36.5010 H   0  0  0  0  0  0  0  0  0  0  0  0
   -0.4310  -17.8740  -38.5420 H   0  0  0  0  0  0  0  0  0  0  0  0
    0.6660  -16.1300  -40.7970 H   0  0  0  0  0  0  0  0  0  0  0  0
   -0.5500  -18.8720  -40.6940 H   0  0  0  0  0  0  0  0  0  0  0  0
   -1.3490  -17.4200  -41.3860 H   0  0  0  0  0  0  0  0  0  0  0  0
    0.1260  -18.1230  -42.2100 H   0  0  0  0  0  0  0  0  0  0  0  0
    0.6250  -20.5070  -41.4110 H   0  0  0  0  0  0  0  0  0  0  0  0
    2.0180  -19.7850  -42.2980 H   0  0  0  0  0  0  0  0  0  0  0  0
    2.9920  -21.7660  -41.8390 H   0  0  0  0  0  0  0  0  0  0  0  0
    1.8690  -22.2430  -40.5830 H   0  0  0  0  0  0  0  0  0  0  0  0
    3.7340  -22.8850  -39.0620 H   0  0  0  0  0  0  0  0  0  0  0  0
    4.9570  -21.2810  -37.7160 H   0  0  0  0  0  0  0  0  0  0  0  0
    5.8980  -22.7170  -38.1940 H   0  0  0  0  0  0  0  0  0  0  0  0
    7.3360  -21.4720  -39.4940 H   0  0  0  0  0  0  0  0  0  0  0  0
    6.7920  -20.1920  -38.3980 H   0  0  0  0  0  0  0  0  0  0  0  0
    7.4790  -18.8300  -41.0390 H   0  0  0  0  0  0  0  0  0  0  0  0
    5.7080  -17.8840  -42.6520 H   0  0  0  0  0  0  0  0  0  0  0  0
    3.8040  -19.6830  -38.3620 H   0  0  0  0  0  0  0  0  0  0  0  0
    3.0280  -21.2680  -37.8530 H   0  0  0  0  0  0  0  0  0  0  0  0
    1.1150  -19.5440  -38.2250 H   0  0  0  0  0  0  0  0  0  0  0  0
    1.1500  -21.0280  -39.1460 H   0  0  0  0  0  0  0  0  0  0  0  0
  1  2  1  0  0  0  0
  2  7  1  0  0  0  0
  3  2  2  0  0  0  0
  3  4  1  0  0  0  0
  4  5  2  0  0  0  0
  5  6  1  0  0  0  0
  5 30  1  0  0  0  0
  6 31  1  0  0  0  0
  7 32  1  0  0  0  0
  7  6  2  0  0  0  0
  8  4  1  0  0  0  0
  9  8  2  0  0  0  0
 10  8  1  0  0  0  0
 10 33  1  0  0  0  0
 11 34  1  6  0  0  0
 11 13  1  0  0  0  0
 11 10  1  0  0  0  0
 12 35  1  0  0  0  0
 12 11  1  0  0  0  0
 13 14  2  0  0  0  0
 15 13  1  0  0  0  0
 15 28  1  0  0  0  0
 16 17  1  0  0  0  0
 16 15  1  0  0  0  0
 17 41  1  0  0  0  0
 17 18  1  0  0  0  0
 18 26  1  6  0  0  0
 18 19  1  0  0  0  0
 18 27  1  0  0  0  0
 19 42  1  0  0  0  0
 19 20  1  0  0  0  0
 20 44  1  0  0  0  0
 20 43  1  0  0  0  0
 21 20  1  0  0  0  0
 21 46  1  0  0  0  0
 22 21  1  0  0  0  0
 23 47  1  0  0  0  0
 23 22  1  0  0  0  0
 24 25  2  0  0  0  0
 24 23  1  0  0  0  0
 25 26  1  0  0  0  0
 26 22  2  0  0  0  0
 27 49  1  0  0  0  0
 27 50  1  0  0  0  0
 28 27  1  0  0  0  0
 28 51  1  0  0  0  0
 29  3  1  0  0  0  0
 36 12  1  0  0  0  0
 37 12  1  0  0  0  0
 38 16  1  0  0  0  0
 39 16  1  0  0  0  0
 40 17  1  0  0  0  0
 45 21  1  0  0  0  0
 48 24  1  0  0  0  0
 52 28  1  0  0  0  0
M  END
>  <Pose>
1

>  <Score>
-4.42

$$$$
