
 OpenBabel03232221553D

 49 52  0  0  0  0  0  0  0  0999 V2000
    3.0590  -24.1130  -42.1280 B   0  0  0  0  0  0  0  0  0  0  0  0
    4.5940  -23.0870  -42.5510 C   0  0  0  0  0  0  0  0  0  0  0  0
    4.6970  -21.7960  -42.0680 C   0  0  0  0  0  0  0  0  0  0  0  0
    5.7900  -20.9950  -42.3410 C   0  0  0  0  0  0  0  0  0  0  0  0
    6.8030  -21.5280  -43.1260 C   0  0  0  0  0  0  0  0  0  0  0  0
    6.6940  -22.8130  -43.6040 C   0  0  0  0  0  0  0  0  0  0  0  0
    5.6120  -23.6230  -43.3410 C   0  0  0  0  0  0  0  0  0  0  0  0
    5.9270  -19.6330  -41.8470 C   0  0  0  0  0  0  0  0  0  0  0  0
    5.7210  -18.6680  -42.6270 O   0  0  0  0  0  0  0  0  0  0  0  0
    6.2850  -19.3280  -40.5140 N   0  0  0  0  0  0  0  0  0  0  0  0
    5.8200  -20.1210  -39.3960 C   0  0  0  0  0  0  0  0  0  0  0  0
    5.5760  -19.2820  -38.1930 C   0  0  0  0  0  0  0  0  0  0  0  0
    6.5470  -18.6170  -37.7550 O   0  0  0  0  0  0  0  0  0  0  0  0
    4.3370  -19.2010  -37.5380 N   0  0  0  0  0  0  0  0  0  0  0  0
    3.2990  -20.1850  -37.7190 C   0  0  0  0  0  0  0  0  0  0  0  0
    2.1330  -19.4770  -38.3740 C   0  0  0  0  0  0  0  0  0  0  0  0
    1.7990  -18.2240  -37.6010 C   0  0  0  0  0  0  0  0  0  0  0  0
    2.0150  -17.0890  -38.4730 N   0  0  0  0  0  0  0  0  0  0  0  0
    1.6240  -15.8350  -37.9320 C   0  0  0  0  0  0  0  0  0  0  0  0
    0.3720  -15.8020  -37.1340 C   0  0  0  0  0  0  0  0  0  0  0  0
   -0.3660  -17.0810  -37.0910 C   0  0  0  0  0  0  0  0  0  0  0  0
   -1.6810  -17.3810  -36.8590 N   0  0  0  0  0  0  0  0  0  0  0  0
   -1.7900  -18.7130  -36.9380 C   0  0  0  0  0  0  0  0  0  0  0  0
   -0.5850  -19.2390  -37.2120 N   0  0  0  0  0  0  0  0  0  0  0  0
    0.3330  -18.2450  -37.3150 C   0  0  0  0  0  0  0  0  0  0  0  0
    2.5630  -18.0630  -36.3260 C   0  0  0  0  0  0  0  0  0  0  0  0
    4.0610  -18.1060  -36.6440 C   0  0  0  0  0  0  0  0  0  0  0  0
    3.9020  -21.4240  -41.4710 H   0  0  0  0  0  0  0  0  0  0  0  0
    7.6970  -20.9670  -43.3880 H   0  0  0  0  0  0  0  0  0  0  0  0
    7.4760  -23.2470  -44.2200 H   0  0  0  0  0  0  0  0  0  0  0  0
    5.4960  -24.6220  -43.6940 H   0  0  0  0  0  0  0  0  0  0  0  0
    6.9000  -18.5110  -40.3340 H   0  0  0  0  0  0  0  0  0  0  0  0
    6.5810  -20.8740  -39.1020 H   0  0  0  0  0  0  0  0  0  0  0  0
    4.9100  -20.6500  -39.7370 H   0  0  0  0  0  0  0  0  0  0  0  0
    2.9630  -20.5900  -36.7310 H   0  0  0  0  0  0  0  0  0  0  0  0
    3.6330  -21.0640  -38.2990 H   0  0  0  0  0  0  0  0  0  0  0  0
    1.2490  -20.1440  -38.4700 H   0  0  0  0  0  0  0  0  0  0  0  0
    2.4820  -19.2270  -39.4130 H   0  0  0  0  0  0  0  0  0  0  0  0
    3.0420  -17.0410  -38.7020 H   0  0  0  0  0  0  0  0  0  0  0  0
    1.4730  -15.1380  -38.8100 H   0  0  0  0  0  0  0  0  0  0  0  0
    2.4500  -15.3380  -37.3540 H   0  0  0  0  0  0  0  0  0  0  0  0
   -0.3540  -15.0160  -37.5020 H   0  0  0  0  0  0  0  0  0  0  0  0
    0.5640  -15.4800  -36.0700 H   0  0  0  0  0  0  0  0  0  0  0  0
   -2.4330  -16.6590  -36.6570 H   0  0  0  0  0  0  0  0  0  0  0  0
   -2.6990  -19.2760  -36.8040 H   0  0  0  0  0  0  0  0  0  0  0  0
    2.2810  -18.7750  -35.5510 H   0  0  0  0  0  0  0  0  0  0  0  0
    2.3690  -17.0470  -35.9400 H   0  0  0  0  0  0  0  0  0  0  0  0
    4.6500  -18.2500  -35.7140 H   0  0  0  0  0  0  0  0  0  0  0  0
    4.3230  -17.1280  -37.0550 H   0  0  0  0  0  0  0  0  0  0  0  0
  2  1  1  0  0  0  0
  2  3  1  0  0  0  0
  3 28  1  0  0  0  0
  4  3  2  0  0  0  0
  4  8  1  0  0  0  0
  5  4  1  0  0  0  0
  6  7  1  0  0  0  0
  6  5  2  0  0  0  0
  7  2  2  0  0  0  0
  8 10  1  0  0  0  0
  9  8  2  0  0  0  0
 10 32  1  0  0  0  0
 10 11  1  0  0  0  0
 11 33  1  0  0  0  0
 11 12  1  0  0  0  0
 12 13  2  0  0  0  0
 12 14  1  0  0  0  0
 14 27  1  0  0  0  0
 15 14  1  0  0  0  0
 15 35  1  0  0  0  0
 16 15  1  0  0  0  0
 16 17  1  0  0  0  0
 17 25  1  0  0  0  0
 17 26  1  0  0  0  0
 18 19  1  0  0  0  0
 18 17  1  0  0  0  0
 19 41  1  0  0  0  0
 19 20  1  0  0  0  0
 20 21  1  0  0  0  0
 20 43  1  0  0  0  0
 21 22  1  0  0  0  0
 22 44  1  0  0  0  0
 23 22  1  0  0  0  0
 23 45  1  0  0  0  0
 24 23  2  0  0  0  0
 25 24  1  0  0  0  0
 25 21  2  0  0  0  0
 26 47  1  0  0  0  0
 26 46  1  0  0  0  0
 27 26  1  0  0  0  0
 27 48  1  0  0  0  0
 29  5  1  0  0  0  0
 30  6  1  0  0  0  0
 31  7  1  0  0  0  0
 34 11  1  0  0  0  0
 36 15  1  0  0  0  0
 37 16  1  0  0  0  0
 38 16  1  0  0  0  0
 39 18  1  0  0  0  0
 40 19  1  0  0  0  0
 42 20  1  0  0  0  0
 49 27  1  0  0  0  0
M  END
>  <Pose>
1

>  <Score>
-4.90

$$$$
