
 OpenBabel03232221553D

 36 39  0  0  1  0  0  0  0  0999 V2000
    3.6830  -24.6520  -42.8300 B   0  0  0  0  0  0  0  0  0  0  0  0
    3.4960  -22.7350  -42.7850 C   0  0  0  0  0  0  0  0  0  0  0  0
    3.4310  -22.0590  -41.5960 C   0  0  0  0  0  0  0  0  0  0  0  0
    3.2980  -20.6860  -41.5890 C   0  0  0  0  0  0  0  0  0  0  0  0
    3.2360  -20.0470  -42.7970 C   0  0  0  0  0  0  0  0  0  0  0  0
    3.3030  -20.7440  -44.0210 C   0  0  0  0  0  0  0  0  0  0  0  0
    3.4360  -22.1070  -44.0090 C   0  0  0  0  0  0  0  0  0  0  0  0
    3.1000  -18.6400  -42.6270 N   0  0  0  0  0  0  0  0  0  0  0  0
    3.0740  -18.3730  -41.2520 C   0  0  0  0  0  0  0  0  0  0  0  0
    2.9620  -17.2200  -40.7340 O   0  0  0  0  0  0  0  0  0  0  0  0
    3.2000  -19.6750  -40.5070 C   0  0  2  0  0  0  0  0  0  0  0  0
    4.4190  -19.5650  -39.7140 C   0  0  0  0  0  0  0  0  0  0  0  0
    4.3810  -19.5910  -38.3550 C   0  0  0  0  0  0  0  0  0  0  0  0
    5.6720  -19.4680  -37.9270 N   0  0  0  0  0  0  0  0  0  0  0  0
    6.4860  -19.3680  -38.9570 N   0  0  0  0  0  0  0  0  0  0  0  0
    5.7630  -19.4220  -40.0730 C   0  0  0  0  0  0  0  0  0  0  0  0
    6.2140  -19.3520  -41.4980 C   0  0  0  0  0  0  0  0  0  0  0  0
    3.1910  -19.7240  -37.6320 O   0  0  0  0  0  0  0  0  0  0  0  0
    2.0300  -19.8290  -38.3920 C   0  0  0  0  0  0  0  0  0  0  0  0
    2.0030  -19.8100  -39.6990 C   0  0  0  0  0  0  0  0  0  0  0  0
    0.6810  -19.9340  -40.3380 C   0  0  0  0  0  0  0  0  0  0  0  0
   -0.3740  -20.0130  -40.8330 N   0  0  0  0  0  0  0  0  0  0  0  0
    0.7600  -19.9700  -37.6950 N   0  0  0  0  0  0  0  0  0  0  0  0
    3.0010  -17.6340  -43.6950 C   0  0  0  0  0  0  0  0  0  0  0  0
    3.4820  -22.5780  -40.6520 H   0  0  0  0  0  0  0  0  0  0  0  0
    3.2540  -20.2360  -44.9740 H   0  0  0  0  0  0  0  0  0  0  0  0
    3.4910  -22.6770  -44.9490 H   0  0  0  0  0  0  0  0  0  0  0  0
    7.5330  -19.2620  -38.9570 H   0  0  0  0  0  0  0  0  0  0  0  0
    7.3290  -19.2400  -41.4630 H   0  0  0  0  0  0  0  0  0  0  0  0
    6.0410  -20.3200  -42.0290 H   0  0  0  0  0  0  0  0  0  0  0  0
    5.8300  -18.4800  -42.0250 H   0  0  0  0  0  0  0  0  0  0  0  0
    0.3970  -20.9430  -37.6480 H   0  0  0  0  0  0  0  0  0  0  0  0
    0.2560  -19.1880  -37.2830 H   0  0  0  0  0  0  0  0  0  0  0  0
    2.0290  -17.1180  -43.5740 H   0  0  0  0  0  0  0  0  0  0  0  0
    3.7930  -16.8850  -43.4560 H   0  0  0  0  0  0  0  0  0  0  0  0
    3.1550  -18.0760  -44.6790 H   0  0  0  0  0  0  0  0  0  0  0  0
  1  2  1  0  0  0  0
  2  3  1  0  0  0  0
  3  4  2  0  0  0  0
  3 25  1  0  0  0  0
  5  8  1  0  0  0  0
  5  4  1  0  0  0  0
  6  7  1  0  0  0  0
  6  5  2  0  0  0  0
  7  2  2  0  0  0  0
  8  9  1  0  0  0  0
  9 10  2  0  0  0  0
  9 11  1  0  0  0  0
 11  4  1  6  0  0  0
 11 12  1  0  0  0  0
 11 20  1  0  0  0  0
 12 13  1  0  0  0  0
 13 14  2  0  0  0  0
 13 18  1  0  0  0  0
 15 28  1  0  0  0  0
 15 14  1  0  0  0  0
 16 12  2  0  0  0  0
 16 15  1  0  0  0  0
 17 29  1  0  0  0  0
 17 16  1  0  0  0  0
 19 23  1  0  0  0  0
 19 18  1  0  0  0  0
 20 19  2  0  0  0  0
 21 20  1  0  0  0  0
 22 21  3  0  0  0  0
 23 32  1  0  0  0  0
 23 33  1  0  0  0  0
 24 34  1  0  0  0  0
 24 35  1  0  0  0  0
 24  8  1  0  0  0  0
 26  6  1  0  0  0  0
 27  7  1  0  0  0  0
 30 17  1  0  0  0  0
 31 17  1  0  0  0  0
 36 24  1  0  0  0  0
M  END
>  <Pose>
1

>  <Score>
-4.01

$$$$
