
 OpenBabel03232221553D

 38 41  0  0  0  0  0  0  0  0999 V2000
    5.5350  -21.7190  -41.2840 B   0  0  0  0  0  0  0  0  0  0  0  0
    4.7130  -20.7590  -39.8730 C   0  0  0  0  0  0  0  0  0  0  0  0
    5.4970  -20.1150  -38.9780 C   0  0  0  0  0  0  0  0  0  0  0  0
    6.8370  -20.0080  -38.8750 N   0  0  0  0  0  0  0  0  0  0  0  0
    7.0280  -19.2520  -37.7970 N   0  0  0  0  0  0  0  0  0  0  0  0
    5.9060  -18.8920  -37.2390 N   0  0  0  0  0  0  0  0  0  0  0  0
    4.8820  -19.4210  -37.9600 C   0  0  0  0  0  0  0  0  0  0  0  0
    3.4960  -19.3830  -37.8550 C   0  0  0  0  0  0  0  0  0  0  0  0
    2.7130  -20.0210  -38.7400 N   0  0  0  0  0  0  0  0  0  0  0  0
    3.3270  -20.6980  -39.7350 C   0  0  0  0  0  0  0  0  0  0  0  0
    1.2610  -20.0100  -38.6710 C   0  0  0  0  0  0  0  0  0  0  0  0
    0.7040  -18.8740  -37.9420 C   0  0  0  0  0  0  0  0  0  0  0  0
   -0.2060  -19.1390  -37.0990 O   0  0  0  0  0  0  0  0  0  0  0  0
    1.0920  -17.4750  -38.0920 C   0  0  0  0  0  0  0  0  0  0  0  0
    0.8440  -16.6060  -37.0670 C   0  0  0  0  0  0  0  0  0  0  0  0
    1.1920  -15.2850  -37.1820 C   0  0  0  0  0  0  0  0  0  0  0  0
    1.7970  -14.7820  -38.3190 C   0  0  0  0  0  0  0  0  0  0  0  0
    2.0340  -15.6940  -39.3460 C   0  0  0  0  0  0  0  0  0  0  0  0
    1.6890  -17.0130  -39.2350 C   0  0  0  0  0  0  0  0  0  0  0  0
    2.1560  -13.4580  -38.4580 C   0  0  0  0  0  0  0  0  0  0  0  0
    1.8910  -12.6110  -37.4030 C   0  0  0  0  0  0  0  0  0  0  0  0
    1.2880  -13.1010  -36.2630 C   0  0  0  0  0  0  0  0  0  0  0  0
    0.9320  -14.4240  -36.1300 C   0  0  0  0  0  0  0  0  0  0  0  0
    7.8850  -20.5310  -39.6660 C   0  0  0  0  0  0  0  0  0  0  0  0
    3.0710  -18.8330  -37.0490 H   0  0  0  0  0  0  0  0  0  0  0  0
    2.7180  -21.2180  -40.4580 H   0  0  0  0  0  0  0  0  0  0  0  0
    0.8190  -20.0140  -39.7040 H   0  0  0  0  0  0  0  0  0  0  0  0
    0.9290  -20.9470  -38.1870 H   0  0  0  0  0  0  0  0  0  0  0  0
    0.3690  -16.9210  -36.1300 H   0  0  0  0  0  0  0  0  0  0  0  0
    2.5140  -15.2890  -40.2490 H   0  0  0  0  0  0  0  0  0  0  0  0
    1.8890  -17.7000  -40.0630 H   0  0  0  0  0  0  0  0  0  0  0  0
    2.6250  -13.1250  -39.3740 H   0  0  0  0  0  0  0  0  0  0  0  0
    2.1680  -11.5580  -37.4920 H   0  0  0  0  0  0  0  0  0  0  0  0
    1.0870  -12.4220  -35.4430 H   0  0  0  0  0  0  0  0  0  0  0  0
    0.4540  -14.8030  -35.2220 H   0  0  0  0  0  0  0  0  0  0  0  0
    8.8420  -20.4390  -39.1130 H   0  0  0  0  0  0  0  0  0  0  0  0
    8.0290  -19.8930  -40.5900 H   0  0  0  0  0  0  0  0  0  0  0  0
    7.8210  -21.5520  -40.0070 H   0  0  0  0  0  0  0  0  0  0  0  0
  1  2  1  0  0  0  0
  2 10  2  0  0  0  0
  2  3  1  0  0  0  0
  3  4  1  0  0  0  0
  3  7  2  0  0  0  0
  4  5  1  0  0  0  0
  5  6  2  0  0  0  0
  7  8  1  0  0  0  0
  7  6  1  0  0  0  0
  8 25  1  0  0  0  0
  9 11  1  0  0  0  0
  9  8  1  0  0  0  0
 10  9  1  0  0  0  0
 11 28  1  0  0  0  0
 11 12  1  0  0  0  0
 12 13  2  0  0  0  0
 14 12  1  0  0  0  0
 14 15  1  0  0  0  0
 15 29  1  0  0  0  0
 16 15  2  0  0  0  0
 16 23  1  0  0  0  0
 17 16  1  0  0  0  0
 18 19  1  0  0  0  0
 18 17  2  0  0  0  0
 19 14  2  0  0  0  0
 20 17  1  0  0  0  0
 20 21  2  0  0  0  0
 21 22  1  0  0  0  0
 22 23  2  0  0  0  0
 22 34  1  0  0  0  0
 23 35  1  0  0  0  0
 24 36  1  0  0  0  0
 24  4  1  0  0  0  0
 26 10  1  0  0  0  0
 27 11  1  0  0  0  0
 30 18  1  0  0  0  0
 31 19  1  0  0  0  0
 32 20  1  0  0  0  0
 33 21  1  0  0  0  0
 37 24  1  0  0  0  0
 38 24  1  0  0  0  0
M  END
>  <Pose>
1

>  <Score>
-4.11

$$$$
