
 OpenBabel03232221553D

 55 58  0  0  1  0  0  0  0  0999 V2000
    2.5560  -24.3250  -42.0850 Cl  0  0  0  0  0  0  0  0  0  0  0  0
    3.5850  -24.7790  -43.4400 C   0  0  0  0  0  0  0  0  0  0  0  0
    4.9510  -24.7060  -43.3710 C   0  0  0  0  0  0  0  0  0  0  0  0
    5.7090  -25.0730  -44.4600 C   0  0  0  0  0  0  0  0  0  0  0  0
    5.0590  -25.5030  -45.5880 C   0  0  0  0  0  0  0  0  0  0  0  0
    3.6650  -25.5770  -45.6540 C   0  0  0  0  0  0  0  0  0  0  0  0
    2.9250  -25.2100  -44.5690 C   0  0  0  0  0  0  0  0  0  0  0  0
    5.9620  -25.8620  -46.6280 N   0  0  0  0  0  0  0  0  0  0  0  0
    7.2490  -25.6430  -46.1200 C   0  0  0  0  0  0  0  0  0  0  0  0
    8.2940  -25.8860  -46.8080 O   0  0  0  0  0  0  0  0  0  0  0  0
    7.1620  -25.1220  -44.7480 C   0  0  2  0  0  0  0  0  0  0  0  0
    7.8570  -26.0360  -43.8860 N   0  0  0  0  0  0  0  0  0  0  0  0
    9.0370  -25.3990  -43.3900 C   0  0  2  0  0  0  0  0  0  0  0  0
    9.2510  -24.1620  -44.2020 C   0  0  0  0  0  0  0  0  0  0  0  0
    7.8560  -23.8330  -44.6550 C   0  0  2  0  0  0  0  0  0  0  0  0
    7.2090  -22.7930  -43.8140 C   0  0  0  0  0  0  0  0  0  0  0  0
    7.3010  -22.9540  -42.5730 O   0  0  0  0  0  0  0  0  0  0  0  0
    6.5250  -21.6870  -44.3320 N   0  0  0  0  0  0  0  0  0  0  0  0
    6.5380  -20.3630  -43.8920 C   0  0  0  0  0  0  0  0  0  0  0  0
    7.7430  -19.6770  -43.8400 C   0  0  0  0  0  0  0  0  0  0  0  0
    7.8300  -18.3670  -43.4170 C   0  0  0  0  0  0  0  0  0  0  0  0
    6.7140  -17.6730  -43.0210 C   0  0  0  0  0  0  0  0  0  0  0  0
    5.5130  -18.3220  -43.0610 C   0  0  0  0  0  0  0  0  0  0  0  0
    5.4400  -19.6450  -43.4910 C   0  0  0  0  0  0  0  0  0  0  0  0
    4.3640  -17.6580  -42.6710 O   0  0  0  0  0  0  0  0  0  0  0  0
    4.0080  -16.3840  -43.1760 C   0  0  0  0  0  0  0  0  0  0  0  0
    8.9140  -20.3090  -44.2230 O   0  0  0  0  0  0  0  0  0  0  0  0
   10.1610  -20.0610  -43.6500 C   0  0  0  0  0  0  0  0  0  0  0  0
   10.2400  -26.3280  -43.4350 C   0  0  0  0  0  0  0  0  0  0  0  0
   10.6390  -26.7790  -42.0950 C   0  0  0  0  0  0  0  0  0  0  0  0
   10.4220  -26.0650  -41.1030 O   0  0  0  0  0  0  0  0  0  0  0  0
   11.2690  -28.0270  -41.9360 N   0  0  0  0  0  0  0  0  0  0  0  0
    5.4160  -24.3670  -42.4800 H   0  0  0  0  0  0  0  0  0  0  0  0
    3.1640  -25.9230  -46.5640 H   0  0  0  0  0  0  0  0  0  0  0  0
    1.8380  -25.2690  -44.6260 H   0  0  0  0  0  0  0  0  0  0  0  0
    5.7180  -26.2210  -47.5890 H   0  0  0  0  0  0  0  0  0  0  0  0
    7.2280  -26.4050  -43.1420 H   0  0  0  0  0  0  0  0  0  0  0  0
    8.9150  -25.0930  -42.3220 H   0  0  0  0  0  0  0  0  0  0  0  0
    9.8580  -24.3600  -45.1220 H   0  0  0  0  0  0  0  0  0  0  0  0
    9.7020  -23.3300  -43.6170 H   0  0  0  0  0  0  0  0  0  0  0  0
    7.9160  -23.4070  -45.7080 H   0  0  0  0  0  0  0  0  0  0  0  0
    5.9240  -21.9040  -45.1850 H   0  0  0  0  0  0  0  0  0  0  0  0
    8.7940  -17.8490  -43.3850 H   0  0  0  0  0  0  0  0  0  0  0  0
    6.7800  -16.6510  -42.6910 H   0  0  0  0  0  0  0  0  0  0  0  0
    4.4720  -20.0720  -43.4900 H   0  0  0  0  0  0  0  0  0  0  0  0
    4.0590  -16.3450  -44.2810 H   0  0  0  0  0  0  0  0  0  0  0  0
    4.7120  -15.6570  -42.7210 H   0  0  0  0  0  0  0  0  0  0  0  0
    2.9890  -16.0920  -42.8750 H   0  0  0  0  0  0  0  0  0  0  0  0
   10.1310  -20.4890  -42.6100 H   0  0  0  0  0  0  0  0  0  0  0  0
   10.9350  -20.6120  -44.2220 H   0  0  0  0  0  0  0  0  0  0  0  0
   10.4050  -18.9950  -43.5340 H   0  0  0  0  0  0  0  0  0  0  0  0
   11.0780  -25.8360  -43.9750 H   0  0  0  0  0  0  0  0  0  0  0  0
    9.9920  -27.2340  -44.0270 H   0  0  0  0  0  0  0  0  0  0  0  0
   10.6990  -28.8880  -42.0780 H   0  0  0  0  0  0  0  0  0  0  0  0
   12.2790  -28.1540  -41.6840 H   0  0  0  0  0  0  0  0  0  0  0  0
  2  3  1  0  0  0  0
  2  1  1  0  0  0  0
  3 33  1  0  0  0  0
  4  3  2  0  0  0  0
  5  4  1  0  0  0  0
  6  5  2  0  0  0  0
  6  7  1  0  0  0  0
  7  2  2  0  0  0  0
  8  9  1  0  0  0  0
  8  5  1  0  0  0  0
 10  9  2  0  0  0  0
 11  9  1  6  0  0  0
 11 15  1  0  0  0  0
 11  4  1  0  0  0  0
 11 12  1  0  0  0  0
 12 13  1  0  0  0  0
 12 37  1  0  0  0  0
 13 38  1  1  0  0  0
 14 40  1  0  0  0  0
 14 13  1  0  0  0  0
 15 41  1  6  0  0  0
 15 14  1  0  0  0  0
 15 16  1  0  0  0  0
 16 17  2  0  0  0  0
 18 19  1  0  0  0  0
 18 16  1  0  0  0  0
 19 20  2  0  0  0  0
 19 24  1  0  0  0  0
 20 21  1  0  0  0  0
 21 43  1  0  0  0  0
 21 22  2  0  0  0  0
 22 44  1  0  0  0  0
 23 22  1  0  0  0  0
 23 25  1  0  0  0  0
 24 45  1  0  0  0  0
 24 23  2  0  0  0  0
 26 48  1  0  0  0  0
 26 47  1  0  0  0  0
 26 25  1  0  0  0  0
 27 20  1  0  0  0  0
 27 28  1  0  0  0  0
 28 51  1  0  0  0  0
 28 49  1  0  0  0  0
 29 13  1  0  0  0  0
 29 30  1  0  0  0  0
 30 32  1  0  0  0  0
 30 31  2  0  0  0  0
 32 55  1  0  0  0  0
 34  6  1  0  0  0  0
 35  7  1  0  0  0  0
 36  8  1  0  0  0  0
 39 14  1  0  0  0  0
 42 18  1  0  0  0  0
 46 26  1  0  0  0  0
 50 28  1  0  0  0  0
 52 29  1  0  0  0  0
 53 29  1  0  0  0  0
 54 32  1  0  0  0  0
M  END
>  <Pose>
1

>  <Score>
-5.01

$$$$
