
 OpenBabel03232221553D

 46 49  0  0  0  0  0  0  0  0999 V2000
    6.0260  -18.8200  -44.7650 B   0  0  0  0  0  0  0  0  0  0  0  0
    5.5450  -19.5080  -43.0500 C   0  0  0  0  0  0  0  0  0  0  0  0
    6.1780  -20.5550  -42.4660 N   0  0  0  0  0  0  0  0  0  0  0  0
    5.5480  -20.7240  -41.2830 C   0  0  0  0  0  0  0  0  0  0  0  0
    4.5370  -19.8000  -41.1260 C   0  0  0  0  0  0  0  0  0  0  0  0
    4.5620  -19.0510  -42.2530 N   0  0  0  0  0  0  0  0  0  0  0  0
    3.7530  -19.7560  -40.0240 N   0  0  0  0  0  0  0  0  0  0  0  0
    3.9850  -20.6590  -39.0540 C   0  0  0  0  0  0  0  0  0  0  0  0
    3.2970  -20.6800  -38.0000 O   0  0  0  0  0  0  0  0  0  0  0  0
    4.9740  -21.5870  -39.1740 N   0  0  0  0  0  0  0  0  0  0  0  0
    5.7550  -21.6380  -40.2630 C   0  0  0  0  0  0  0  0  0  0  0  0
    6.6760  -22.4700  -40.4190 O   0  0  0  0  0  0  0  0  0  0  0  0
    2.6940  -18.7760  -39.8750 C   0  0  0  0  0  0  0  0  0  0  0  0
    7.2820  -21.3380  -42.9670 C   0  0  0  0  0  0  0  0  0  0  0  0
    6.7950  -22.5710  -43.7160 C   0  0  0  0  0  0  0  0  0  0  0  0
    7.9530  -23.3990  -44.2070 C   0  0  0  0  0  0  0  0  0  0  0  0
    8.2990  -24.5720  -43.3400 C   0  0  0  0  0  0  0  0  0  0  0  0
    9.2190  -25.4320  -44.0070 N   0  0  0  0  0  0  0  0  0  0  0  0
   10.0390  -26.3680  -43.5310 C   0  0  0  0  0  0  0  0  0  0  0  0
   10.7090  -26.9590  -44.5960 C   0  0  0  0  0  0  0  0  0  0  0  0
   10.2610  -26.3460  -45.6890 N   0  0  0  0  0  0  0  0  0  0  0  0
    9.3620  -25.4190  -45.3560 C   0  0  0  0  0  0  0  0  0  0  0  0
    8.4630  -24.3000  -46.6110 B   0  0  0  0  0  0  0  0  0  0  0  0
   11.6000  -27.9320  -44.3890 N   0  0  0  0  0  0  0  0  0  0  0  0
   11.8740  -28.3660  -43.1430 C   0  0  0  0  0  0  0  0  0  0  0  0
   12.7130  -29.2820  -42.9570 O   0  0  0  0  0  0  0  0  0  0  0  0
   11.2380  -27.8060  -42.1100 N   0  0  0  0  0  0  0  0  0  0  0  0
   10.3360  -26.8260  -42.2750 C   0  0  0  0  0  0  0  0  0  0  0  0
    9.7550  -26.3140  -41.2980 O   0  0  0  0  0  0  0  0  0  0  0  0
   12.3170  -28.5700  -45.4880 C   0  0  0  0  0  0  0  0  0  0  0  0
    5.1240  -22.2730  -38.3970 H   0  0  0  0  0  0  0  0  0  0  0  0
    2.8520  -17.8990  -40.5370 H   0  0  0  0  0  0  0  0  0  0  0  0
    1.7140  -19.2270  -40.2020 H   0  0  0  0  0  0  0  0  0  0  0  0
    2.6230  -18.3760  -38.8430 H   0  0  0  0  0  0  0  0  0  0  0  0
    7.9980  -21.5860  -42.1860 H   0  0  0  0  0  0  0  0  0  0  0  0
    7.7970  -20.7050  -43.7330 H   0  0  0  0  0  0  0  0  0  0  0  0
    6.2360  -23.2480  -43.0030 H   0  0  0  0  0  0  0  0  0  0  0  0
    6.1150  -22.3180  -44.5380 H   0  0  0  0  0  0  0  0  0  0  0  0
    7.7780  -23.6890  -45.2660 H   0  0  0  0  0  0  0  0  0  0  0  0
    8.8980  -22.7800  -44.2580 H   0  0  0  0  0  0  0  0  0  0  0  0
    8.7280  -24.1520  -42.3960 H   0  0  0  0  0  0  0  0  0  0  0  0
    7.3580  -25.0710  -43.0360 H   0  0  0  0  0  0  0  0  0  0  0  0
   11.4250  -28.1180  -41.1140 H   0  0  0  0  0  0  0  0  0  0  0  0
   11.8500  -28.2210  -46.4350 H   0  0  0  0  0  0  0  0  0  0  0  0
   12.1470  -29.6640  -45.3700 H   0  0  0  0  0  0  0  0  0  0  0  0
   13.3950  -28.3390  -45.4620 H   0  0  0  0  0  0  0  0  0  0  0  0
  1  2  1  0  0  0  0
  2  3  1  0  0  0  0
  2  6  2  0  0  0  0
  3  4  1  0  0  0  0
  4  5  2  0  0  0  0
  4 11  1  0  0  0  0
  5  7  1  0  0  0  0
  6  5  1  0  0  0  0
  7 13  1  0  0  0  0
  7  8  1  0  0  0  0
  8  9  2  0  0  0  0
 10  8  1  0  0  0  0
 10 31  1  0  0  0  0
 11 10  1  0  0  0  0
 12 11  2  0  0  0  0
 13 34  1  0  0  0  0
 14  3  1  0  0  0  0
 14 35  1  0  0  0  0
 15 37  1  0  0  0  0
 15 14  1  0  0  0  0
 16 15  1  0  0  0  0
 16 17  1  0  0  0  0
 17 42  1  0  0  0  0
 17 41  1  0  0  0  0
 18 19  1  0  0  0  0
 18 17  1  0  0  0  0
 19 28  1  0  0  0  0
 20 24  1  0  0  0  0
 20 19  2  0  0  0  0
 21 22  2  0  0  0  0
 21 20  1  0  0  0  0
 22 18  1  0  0  0  0
 23 22  1  0  0  0  0
 24 25  1  0  0  0  0
 25 26  2  0  0  0  0
 25 27  1  0  0  0  0
 27 43  1  0  0  0  0
 28 27  1  0  0  0  0
 28 29  2  0  0  0  0
 30 46  1  0  0  0  0
 30 45  1  0  0  0  0
 30 24  1  0  0  0  0
 32 13  1  0  0  0  0
 33 13  1  0  0  0  0
 36 14  1  0  0  0  0
 38 15  1  0  0  0  0
 39 16  1  0  0  0  0
 40 16  1  0  0  0  0
 44 30  1  0  0  0  0
M  END
>  <Pose>
1

>  <Score>
-4.97

$$$$
