
 OpenBabel03232221553D

 51 54  0  0  0  0  0  0  0  0999 V2000
   12.8240  -19.1980  -42.4810 Cl  0  0  0  0  0  0  0  0  0  0  0  0
   11.5290  -19.8680  -43.4460 C   0  0  0  0  0  0  0  0  0  0  0  0
   10.4290  -19.1110  -43.7250 C   0  0  0  0  0  0  0  0  0  0  0  0
    9.4400  -19.6900  -44.4890 C   0  0  0  0  0  0  0  0  0  0  0  0
    9.5360  -20.9740  -44.9600 C   0  0  0  0  0  0  0  0  0  0  0  0
   10.6510  -21.7300  -44.6710 C   0  0  0  0  0  0  0  0  0  0  0  0
   11.6440  -21.1590  -43.9080 C   0  0  0  0  0  0  0  0  0  0  0  0
   10.2470  -17.7240  -43.2600 C   0  0  0  0  0  0  0  0  0  0  0  0
    9.1210  -17.0600  -43.8180 N   0  0  0  0  0  0  0  0  0  0  0  0
    9.1400  -16.1250  -44.7600 N   0  0  0  0  0  0  0  0  0  0  0  0
    7.9190  -15.7100  -45.0510 C   0  0  0  0  0  0  0  0  0  0  0  0
    7.0530  -16.4430  -44.2260 C   0  0  0  0  0  0  0  0  0  0  0  0
    7.8220  -17.2860  -43.4570 C   0  0  0  0  0  0  0  0  0  0  0  0
    7.3650  -18.2260  -42.5420 N   0  0  0  0  0  0  0  0  0  0  0  0
    6.3650  -19.1400  -42.4400 C   0  0  0  0  0  0  0  0  0  0  0  0
    6.9110  -20.3820  -42.6630 O   0  0  0  0  0  0  0  0  0  0  0  0
    4.9400  -19.2660  -42.1780 C   0  0  0  0  0  0  0  0  0  0  0  0
    4.1680  -20.4250  -42.3180 N   0  0  0  0  0  0  0  0  0  0  0  0
    3.2590  -20.6540  -43.4720 C   0  0  0  0  0  0  0  0  0  0  0  0
    2.3860  -21.8150  -43.0440 C   0  0  0  0  0  0  0  0  0  0  0  0
    3.2550  -23.0340  -42.8760 C   0  0  0  0  0  0  0  0  0  0  0  0
    4.1620  -22.8420  -41.6790 C   0  0  0  0  0  0  0  0  0  0  0  0
    4.1700  -21.4070  -41.2720 C   0  0  0  0  0  0  0  0  0  0  0  0
    4.0810  -21.0730  -39.9830 C   0  0  0  0  0  0  0  0  0  0  0  0
    4.0970  -22.0720  -38.9490 N   0  0  0  0  0  0  0  0  0  0  0  0
    3.9230  -21.4510  -37.6990 N   0  0  0  0  0  0  0  0  0  0  0  0
    3.7960  -20.0630  -37.9150 C   0  0  0  0  0  0  0  0  0  0  0  0
    3.6280  -19.1400  -37.0860 O   0  0  0  0  0  0  0  0  0  0  0  0
    3.8960  -19.8550  -39.3350 N   0  0  0  0  0  0  0  0  0  0  0  0
    8.5540  -19.1260  -44.7330 H   0  0  0  0  0  0  0  0  0  0  0  0
    8.7460  -21.4030  -45.5560 H   0  0  0  0  0  0  0  0  0  0  0  0
   10.7220  -22.7440  -45.0450 H   0  0  0  0  0  0  0  0  0  0  0  0
   12.5140  -21.7510  -43.6840 H   0  0  0  0  0  0  0  0  0  0  0  0
   11.2130  -17.1650  -43.3560 H   0  0  0  0  0  0  0  0  0  0  0  0
   10.1020  -17.7980  -42.1400 H   0  0  0  0  0  0  0  0  0  0  0  0
    7.5770  -14.9640  -45.7650 H   0  0  0  0  0  0  0  0  0  0  0  0
    5.9880  -16.3350  -44.2410 H   0  0  0  0  0  0  0  0  0  0  0  0
    8.0790  -18.2880  -41.6760 H   0  0  0  0  0  0  0  0  0  0  0  0
    4.9070  -18.9390  -41.0530 H   0  0  0  0  0  0  0  0  0  0  0  0
    4.3780  -18.3970  -42.7180 H   0  0  0  0  0  0  0  0  0  0  0  0
    2.5530  -19.7910  -43.5410 H   0  0  0  0  0  0  0  0  0  0  0  0
    3.7480  -20.9070  -44.3870 H   0  0  0  0  0  0  0  0  0  0  0  0
    1.6200  -22.0190  -43.8480 H   0  0  0  0  0  0  0  0  0  0  0  0
    1.8390  -21.5990  -42.1040 H   0  0  0  0  0  0  0  0  0  0  0  0
    2.6190  -23.9420  -42.7250 H   0  0  0  0  0  0  0  0  0  0  0  0
    3.8320  -23.1790  -43.8020 H   0  0  0  0  0  0  0  0  0  0  0  0
    3.8630  -23.5190  -40.8460 H   0  0  0  0  0  0  0  0  0  0  0  0
    5.1800  -23.1370  -41.9490 H   0  0  0  0  0  0  0  0  0  0  0  0
    4.2130  -23.1030  -38.9910 H   0  0  0  0  0  0  0  0  0  0  0  0
    3.8900  -21.9050  -36.7530 H   0  0  0  0  0  0  0  0  0  0  0  0
    3.8130  -18.9310  -39.7900 H   0  0  0  0  0  0  0  0  0  0  0  0
  2  1  1  0  0  0  0
  3  2  1  0  0  0  0
  3  8  1  0  0  0  0
  4  3  2  0  0  0  0
  5  6  2  0  0  0  0
  5  4  1  0  0  0  0
  6  7  1  0  0  0  0
  7 33  1  0  0  0  0
  7  2  2  0  0  0  0
  8 35  1  0  0  0  0
  9 13  1  0  0  0  0
  9  8  1  0  0  0  0
 10  9  1  0  0  0  0
 11 10  2  0  0  0  0
 11 12  1  0  0  0  0
 12 13  2  0  0  0  0
 13 14  1  0  0  0  0
 14 15  1  0  0  0  0
 14 38  1  0  0  0  0
 15 17  1  0  0  0  0
 16 15  2  0  0  0  0
 17 39  1  0  0  0  0
 18 17  1  0  0  0  0
 18 23  1  0  0  0  0
 19 20  1  0  0  0  0
 19 18  1  0  0  0  0
 20 21  1  0  0  0  0
 20 44  1  0  0  0  0
 21 45  1  0  0  0  0
 21 22  1  0  0  0  0
 22 23  1  0  0  0  0
 22 47  1  0  0  0  0
 23 24  2  0  0  0  0
 24 29  1  0  0  0  0
 24 25  1  0  0  0  0
 25 26  1  0  0  0  0
 26 50  1  0  0  0  0
 27 26  1  0  0  0  0
 27 28  2  0  0  0  0
 29 27  1  0  0  0  0
 30  4  1  0  0  0  0
 31  5  1  0  0  0  0
 32  6  1  0  0  0  0
 34  8  1  0  0  0  0
 36 11  1  0  0  0  0
 37 12  1  0  0  0  0
 40 17  1  0  0  0  0
 41 19  1  0  0  0  0
 42 19  1  0  0  0  0
 43 20  1  0  0  0  0
 46 21  1  0  0  0  0
 48 22  1  0  0  0  0
 49 25  1  0  0  0  0
 51 29  1  0  0  0  0
M  END
>  <Pose>
1

>  <Score>
-4.22

$$$$
