
 OpenBabel03232221553D

 50 53  0  0  0  0  0  0  0  0999 V2000
    4.3150  -10.1240  -37.1310 B   0  0  0  0  0  0  0  0  0  0  0  0
    4.4420  -10.9340  -38.8390 C   0  0  0  0  0  0  0  0  0  0  0  0
    5.1340  -10.3160  -39.8380 C   0  0  0  0  0  0  0  0  0  0  0  0
    5.2080  -10.9360  -41.0830 C   0  0  0  0  0  0  0  0  0  0  0  0
    4.5790  -12.1620  -41.2790 C   0  0  0  0  0  0  0  0  0  0  0  0
    3.8820  -12.7890  -40.2810 C   0  0  0  0  0  0  0  0  0  0  0  0
    3.8170  -12.1640  -39.0560 C   0  0  0  0  0  0  0  0  0  0  0  0
    3.1090  -12.8080  -38.0530 O   0  0  0  0  0  0  0  0  0  0  0  0
    3.2320  -14.0700  -40.5070 C   0  0  0  0  0  0  0  0  0  0  0  0
    2.3930  -14.2850  -41.4570 N   0  0  0  0  0  0  0  0  0  0  0  0
    1.8080  -15.5900  -41.5930 N   0  0  0  0  0  0  0  0  0  0  0  0
    2.4810  -16.5060  -42.3890 C   0  0  0  0  0  0  0  0  0  0  0  0
    2.3790  -16.3470  -43.6630 O   0  0  0  0  0  0  0  0  0  0  0  0
    3.2960  -17.6380  -41.9890 C   0  0  0  0  0  0  0  0  0  0  0  0
    4.3680  -18.1290  -42.6910 N   0  0  0  0  0  0  0  0  0  0  0  0
    4.8770  -19.1440  -42.0510 N   0  0  0  0  0  0  0  0  0  0  0  0
    4.2150  -19.3920  -40.9340 N   0  0  0  0  0  0  0  0  0  0  0  0
    3.2350  -18.4750  -40.8700 C   0  0  0  0  0  0  0  0  0  0  0  0
    2.2080  -18.3550  -39.8300 C   0  0  0  0  0  0  0  0  0  0  0  0
    2.3250  -19.3380  -38.7500 N   0  0  0  0  0  0  0  0  0  0  0  0
    1.0970  -19.2820  -37.9320 C   0  0  0  0  0  0  0  0  0  0  0  0
    0.7640  -17.8650  -37.6200 C   0  0  0  0  0  0  0  0  0  0  0  0
    1.8480  -17.2520  -37.0420 O   0  0  0  0  0  0  0  0  0  0  0  0
    2.8690  -18.1030  -36.7090 C   0  0  0  0  0  0  0  0  0  0  0  0
    3.4250  -18.9080  -37.8550 C   0  0  0  0  0  0  0  0  0  0  0  0
    4.5210  -20.4560  -40.0500 C   0  0  0  0  0  0  0  0  0  0  0  0
    3.8710  -21.6230  -39.8550 N   0  0  0  0  0  0  0  0  0  0  0  0
    4.4950  -22.3320  -38.9520 O   0  0  0  0  0  0  0  0  0  0  0  0
    5.5520  -21.6920  -38.5200 N   0  0  0  0  0  0  0  0  0  0  0  0
    5.5990  -20.5230  -39.1800 C   0  0  0  0  0  0  0  0  0  0  0  0
    6.6000  -19.5450  -38.9930 N   0  0  0  0  0  0  0  0  0  0  0  0
    6.1630  -10.1040  -42.4930 B   0  0  0  0  0  0  0  0  0  0  0  0
    5.7680   -9.0950  -39.6630 O   0  0  0  0  0  0  0  0  0  0  0  0
    4.6370  -12.6380  -42.2360 H   0  0  0  0  0  0  0  0  0  0  0  0
    3.5550  -13.5260  -37.4960 H   0  0  0  0  0  0  0  0  0  0  0  0
    3.4530  -14.9050  -39.8460 H   0  0  0  0  0  0  0  0  0  0  0  0
    0.9090  -15.7370  -41.0750 H   0  0  0  0  0  0  0  0  0  0  0  0
    1.2010  -18.4640  -40.2380 H   0  0  0  0  0  0  0  0  0  0  0  0
    2.3020  -17.3810  -39.3320 H   0  0  0  0  0  0  0  0  0  0  0  0
    0.2730  -19.8230  -38.4230 H   0  0  0  0  0  0  0  0  0  0  0  0
    1.3370  -19.8150  -36.9940 H   0  0  0  0  0  0  0  0  0  0  0  0
    0.4400  -17.2820  -38.4980 H   0  0  0  0  0  0  0  0  0  0  0  0
   -0.0510  -17.8640  -36.8370 H   0  0  0  0  0  0  0  0  0  0  0  0
    3.7200  -17.4440  -36.3590 H   0  0  0  0  0  0  0  0  0  0  0  0
    2.5950  -18.7310  -35.8360 H   0  0  0  0  0  0  0  0  0  0  0  0
    3.8590  -19.8170  -37.4200 H   0  0  0  0  0  0  0  0  0  0  0  0
    4.1770  -18.3230  -38.3740 H   0  0  0  0  0  0  0  0  0  0  0  0
    6.3550  -18.6650  -38.5060 H   0  0  0  0  0  0  0  0  0  0  0  0
    7.5740  -19.6720  -39.3240 H   0  0  0  0  0  0  0  0  0  0  0  0
    6.3010   -8.9000  -38.8310 H   0  0  0  0  0  0  0  0  0  0  0  0
  2  1  1  0  0  0  0
  3 33  1  0  0  0  0
  3  2  2  0  0  0  0
  4  3  1  0  0  0  0
  5  4  2  0  0  0  0
  5  6  1  0  0  0  0
  6  7  2  0  0  0  0
  7  2  1  0  0  0  0
  7  8  1  0  0  0  0
  8 35  1  0  0  0  0
  9  6  1  0  0  0  0
  9 36  1  0  0  0  0
 10  9  2  0  0  0  0
 11 10  1  0  0  0  0
 11 37  1  0  0  0  0
 12 14  1  0  0  0  0
 12 11  1  0  0  0  0
 13 12  2  0  0  0  0
 14 18  2  0  0  0  0
 15 16  2  0  0  0  0
 15 14  1  0  0  0  0
 16 17  1  0  0  0  0
 17 18  1  0  0  0  0
 17 26  1  0  0  0  0
 18 19  1  0  0  0  0
 19 39  1  0  0  0  0
 19 20  1  0  0  0  0
 20 21  1  0  0  0  0
 20 25  1  0  0  0  0
 21 22  1  0  0  0  0
 21 41  1  0  0  0  0
 22 23  1  0  0  0  0
 22 43  1  0  0  0  0
 23 24  1  0  0  0  0
 24 44  1  0  0  0  0
 24 45  1  0  0  0  0
 25 46  1  0  0  0  0
 25 24  1  0  0  0  0
 26 27  2  0  0  0  0
 26 30  1  0  0  0  0
 27 28  1  0  0  0  0
 28 29  1  0  0  0  0
 30 31  1  0  0  0  0
 30 29  2  0  0  0  0
 31 48  1  0  0  0  0
 32  4  1  0  0  0  0
 33 50  1  0  0  0  0
 34  5  1  0  0  0  0
 38 19  1  0  0  0  0
 40 21  1  0  0  0  0
 42 22  1  0  0  0  0
 47 25  1  0  0  0  0
 49 31  1  0  0  0  0
M  END
>  <Pose>
1

>  <Score>
-5.35

$$$$
