
 OpenBabel03232221553D

 41 44  0  0  0  0  0  0  0  0999 V2000
    3.3130  -11.8510  -37.8080 B   0  0  0  0  0  0  0  0  0  0  0  0
    1.7770  -12.8460  -37.2600 C   0  0  0  0  0  0  0  0  0  0  0  0
    0.5600  -12.2040  -37.2120 C   0  0  0  0  0  0  0  0  0  0  0  0
   -0.5470  -12.8810  -36.8270 N   0  0  0  0  0  0  0  0  0  0  0  0
   -0.4240  -14.1800  -36.4990 C   0  0  0  0  0  0  0  0  0  0  0  0
    0.7510  -14.8760  -36.5250 C   0  0  0  0  0  0  0  0  0  0  0  0
    1.8870  -14.1930  -36.9160 C   0  0  0  0  0  0  0  0  0  0  0  0
    0.7720  -16.2820  -36.1500 C   0  0  0  0  0  0  0  0  0  0  0  0
   -0.3380  -16.9110  -36.1530 O   0  0  0  0  0  0  0  0  0  0  0  0
    1.9650  -16.9610  -35.7870 N   0  0  0  0  0  0  0  0  0  0  0  0
    2.6110  -17.7930  -36.7900 C   0  0  0  0  0  0  0  0  0  0  0  0
    3.6460  -18.6930  -36.1550 C   0  0  0  0  0  0  0  0  0  0  0  0
    4.5930  -19.0390  -37.2210 N   0  0  0  0  0  0  0  0  0  0  0  0
    5.9140  -19.0610  -37.1660 N   0  0  0  0  0  0  0  0  0  0  0  0
    6.4220  -19.4260  -38.3360 N   0  0  0  0  0  0  0  0  0  0  0  0
    5.4210  -19.6550  -39.2010 C   0  0  0  0  0  0  0  0  0  0  0  0
    4.2710  -19.4090  -38.4890 C   0  0  0  0  0  0  0  0  0  0  0  0
    5.5250  -20.0730  -40.5870 C   0  0  0  0  0  0  0  0  0  0  0  0
    5.8480  -21.2950  -41.0460 N   0  0  0  0  0  0  0  0  0  0  0  0
    5.8380  -21.2830  -42.3890 C   0  0  0  0  0  0  0  0  0  0  0  0
    5.5020  -20.0310  -42.7390 N   0  0  0  0  0  0  0  0  0  0  0  0
    5.3250  -19.3430  -41.6530 O   0  0  0  0  0  0  0  0  0  0  0  0
    6.1350  -22.4130  -43.2950 C   0  0  0  0  0  0  0  0  0  0  0  0
    7.3570  -23.0420  -43.2260 C   0  0  0  0  0  0  0  0  0  0  0  0
    7.6380  -24.0730  -44.0460 N   0  0  0  0  0  0  0  0  0  0  0  0
    6.7660  -24.5430  -44.9610 C   0  0  0  0  0  0  0  0  0  0  0  0
    5.5420  -23.9050  -45.0220 C   0  0  0  0  0  0  0  0  0  0  0  0
    5.2150  -22.8530  -44.2070 C   0  0  0  0  0  0  0  0  0  0  0  0
    0.4520  -11.1420  -37.4780 H   0  0  0  0  0  0  0  0  0  0  0  0
   -1.3490  -14.6800  -36.1960 H   0  0  0  0  0  0  0  0  0  0  0  0
    2.8470  -14.6850  -36.9590 H   0  0  0  0  0  0  0  0  0  0  0  0
    2.3590  -16.8620  -34.8310 H   0  0  0  0  0  0  0  0  0  0  0  0
    1.8180  -18.4690  -37.2090 H   0  0  0  0  0  0  0  0  0  0  0  0
    3.0310  -17.1590  -37.5930 H   0  0  0  0  0  0  0  0  0  0  0  0
    4.1480  -18.1220  -35.3560 H   0  0  0  0  0  0  0  0  0  0  0  0
    3.2210  -19.6410  -35.7930 H   0  0  0  0  0  0  0  0  0  0  0  0
    3.2660  -19.4920  -38.8620 H   0  0  0  0  0  0  0  0  0  0  0  0
    8.0920  -22.6830  -42.4890 H   0  0  0  0  0  0  0  0  0  0  0  0
    7.0120  -25.3780  -45.6160 H   0  0  0  0  0  0  0  0  0  0  0  0
    4.8150  -24.2590  -45.7490 H   0  0  0  0  0  0  0  0  0  0  0  0
    4.2500  -22.3470  -44.2510 H   0  0  0  0  0  0  0  0  0  0  0  0
  1  2  1  0  0  0  0
  2  3  2  0  0  0  0
  2  7  1  0  0  0  0
  3  4  1  0  0  0  0
  4  5  2  0  0  0  0
  5 30  1  0  0  0  0
  6  5  1  0  0  0  0
  6  8  1  0  0  0  0
  7  6  2  0  0  0  0
  8 10  1  0  0  0  0
  9  8  2  0  0  0  0
 10 32  1  0  0  0  0
 11 12  1  0  0  0  0
 11 10  1  0  0  0  0
 12 36  1  0  0  0  0
 12 35  1  0  0  0  0
 13 14  1  0  0  0  0
 13 12  1  0  0  0  0
 15 14  2  0  0  0  0
 16 17  2  0  0  0  0
 16 15  1  0  0  0  0
 17 13  1  0  0  0  0
 18 16  1  0  0  0  0
 19 18  2  0  0  0  0
 20 19  1  0  0  0  0
 21 20  2  0  0  0  0
 21 22  1  0  0  0  0
 22 18  1  0  0  0  0
 23 24  1  0  0  0  0
 23 20  1  0  0  0  0
 24 38  1  0  0  0  0
 25 24  2  0  0  0  0
 26 25  1  0  0  0  0
 27 26  2  0  0  0  0
 27 28  1  0  0  0  0
 28 23  2  0  0  0  0
 29  3  1  0  0  0  0
 31  7  1  0  0  0  0
 33 11  1  0  0  0  0
 34 11  1  0  0  0  0
 37 17  1  0  0  0  0
 39 26  1  0  0  0  0
 40 27  1  0  0  0  0
 41 28  1  0  0  0  0
M  END
>  <Pose>
1

>  <Score>
-5.07

$$$$
