
 OpenBabel03232221553D

 54 57  0  0  0  0  0  0  0  0999 V2000
    0.0650  -26.8600  -41.8350 Cl  0  0  0  0  0  0  0  0  0  0  0  0
   -0.8100  -25.3850  -41.4130 C   0  0  0  0  0  0  0  0  0  0  0  0
   -0.2500  -24.1600  -41.7040 C   0  0  0  0  0  0  0  0  0  0  0  0
   -0.9500  -23.0330  -41.3670 C   0  0  0  0  0  0  0  0  0  0  0  0
   -2.1910  -23.0780  -40.7500 C   0  0  0  0  0  0  0  0  0  0  0  0
   -2.7250  -24.3410  -40.4720 C   0  0  0  0  0  0  0  0  0  0  0  0
   -2.0410  -25.4850  -40.8010 C   0  0  0  0  0  0  0  0  0  0  0  0
    1.0060  -24.0440  -42.3300 N   0  0  0  0  0  0  0  0  0  0  0  0
    2.1910  -24.6190  -41.7490 C   0  0  0  0  0  0  0  0  0  0  0  0
    3.3620  -23.6690  -41.7210 C   0  0  0  0  0  0  0  0  0  0  0  0
    3.0730  -22.5740  -42.6070 N   0  0  0  0  0  0  0  0  0  0  0  0
    2.4910  -22.8870  -43.8870 C   0  0  0  0  0  0  0  0  0  0  0  0
    1.0430  -23.3080  -43.6030 C   0  0  0  0  0  0  0  0  0  0  0  0
    3.3300  -21.2220  -42.2880 C   0  0  0  0  0  0  0  0  0  0  0  0
    3.5830  -20.3710  -43.1900 O   0  0  0  0  0  0  0  0  0  0  0  0
    3.3190  -20.7340  -40.9190 C   0  0  0  0  0  0  0  0  0  0  0  0
    2.1510  -20.6670  -40.2100 C   0  0  0  0  0  0  0  0  0  0  0  0
    2.0580  -20.2200  -38.9200 N   0  0  0  0  0  0  0  0  0  0  0  0
    3.1810  -19.8280  -38.3290 C   0  0  0  0  0  0  0  0  0  0  0  0
    4.3990  -19.8570  -38.9560 C   0  0  0  0  0  0  0  0  0  0  0  0
    4.4800  -20.3330  -40.3240 C   0  0  0  0  0  0  0  0  0  0  0  0
    5.7780  -20.2490  -40.6720 N   0  0  0  0  0  0  0  0  0  0  0  0
    6.4860  -19.7730  -39.6610 N   0  0  0  0  0  0  0  0  0  0  0  0
    5.6960  -19.5230  -38.6090 C   0  0  0  0  0  0  0  0  0  0  0  0
    6.0000  -19.0640  -37.4660 O   0  0  0  0  0  0  0  0  0  0  0  0
    0.7680  -20.2270  -38.2480 C   0  0  0  0  0  0  0  0  0  0  0  0
    0.0100  -18.9750  -38.2940 C   0  0  0  0  0  0  0  0  0  0  0  0
   -0.7190  -18.4080  -37.1580 C   0  0  0  0  0  0  0  0  0  0  0  0
   -1.8520  -18.9570  -36.6900 O   0  0  0  0  0  0  0  0  0  0  0  0
   -2.8810  -18.2490  -36.2210 C   0  0  0  0  0  0  0  0  0  0  0  0
   -0.5260  -22.0720  -41.5870 H   0  0  0  0  0  0  0  0  0  0  0  0
   -2.7130  -22.1800  -40.4980 H   0  0  0  0  0  0  0  0  0  0  0  0
   -3.6920  -24.3480  -39.9910 H   0  0  0  0  0  0  0  0  0  0  0  0
   -2.4690  -26.4340  -40.5790 H   0  0  0  0  0  0  0  0  0  0  0  0
    2.4940  -25.5660  -42.2420 H   0  0  0  0  0  0  0  0  0  0  0  0
    1.9650  -24.8790  -40.6930 H   0  0  0  0  0  0  0  0  0  0  0  0
    3.6120  -23.3370  -40.6960 H   0  0  0  0  0  0  0  0  0  0  0  0
    4.2760  -24.1880  -42.1230 H   0  0  0  0  0  0  0  0  0  0  0  0
    2.9610  -23.8070  -44.3420 H   0  0  0  0  0  0  0  0  0  0  0  0
    2.5280  -22.0480  -44.5950 H   0  0  0  0  0  0  0  0  0  0  0  0
    0.6220  -23.9040  -44.4220 H   0  0  0  0  0  0  0  0  0  0  0  0
    0.4650  -22.3740  -43.4410 H   0  0  0  0  0  0  0  0  0  0  0  0
    1.1870  -20.9790  -40.6470 H   0  0  0  0  0  0  0  0  0  0  0  0
    3.1980  -19.4830  -37.2990 H   0  0  0  0  0  0  0  0  0  0  0  0
    7.5280  -19.5920  -39.6280 H   0  0  0  0  0  0  0  0  0  0  0  0
    0.8040  -20.7320  -37.2570 H   0  0  0  0  0  0  0  0  0  0  0  0
    0.1610  -20.9830  -38.8660 H   0  0  0  0  0  0  0  0  0  0  0  0
    0.6590  -18.1630  -38.7820 H   0  0  0  0  0  0  0  0  0  0  0  0
   -0.7730  -19.1110  -39.1300 H   0  0  0  0  0  0  0  0  0  0  0  0
   -0.0100  -18.1320  -36.2990 H   0  0  0  0  0  0  0  0  0  0  0  0
   -1.0150  -17.3410  -37.4930 H   0  0  0  0  0  0  0  0  0  0  0  0
   -3.3190  -17.5700  -37.0010 H   0  0  0  0  0  0  0  0  0  0  0  0
   -2.7410  -17.6500  -35.3170 H   0  0  0  0  0  0  0  0  0  0  0  0
   -3.7590  -18.9710  -36.0400 H   0  0  0  0  0  0  0  0  0  0  0  0
  1  2  1  0  0  0  0
  2  7  1  0  0  0  0
  3  2  2  0  0  0  0
  3  4  1  0  0  0  0
  4  5  2  0  0  0  0
  5 32  1  0  0  0  0
  5  6  1  0  0  0  0
  6 33  1  0  0  0  0
  7 34  1  0  0  0  0
  7  6  2  0  0  0  0
  8  9  1  0  0  0  0
  8  3  1  0  0  0  0
  9 10  1  0  0  0  0
  9 36  1  0  0  0  0
 10 37  1  0  0  0  0
 11 14  1  0  0  0  0
 11 10  1  0  0  0  0
 12 13  1  0  0  0  0
 12 11  1  0  0  0  0
 13 42  1  0  0  0  0
 13  8  1  0  0  0  0
 14 16  1  0  0  0  0
 15 14  2  0  0  0  0
 16 21  2  0  0  0  0
 16 17  1  0  0  0  0
 17 18  1  0  0  0  0
 18 19  1  0  0  0  0
 18 26  1  0  0  0  0
 19 44  1  0  0  0  0
 20 24  1  0  0  0  0
 20 19  2  0  0  0  0
 21 20  1  0  0  0  0
 22 21  1  0  0  0  0
 22 23  1  0  0  0  0
 23 45  1  0  0  0  0
 23 24  1  0  0  0  0
 24 25  2  0  0  0  0
 26 46  1  0  0  0  0
 27 26  1  0  0  0  0
 27 28  1  0  0  0  0
 28 29  1  0  0  0  0
 28 50  1  0  0  0  0
 29 30  1  0  0  0  0
 30 54  1  0  0  0  0
 30 53  1  0  0  0  0
 31  4  1  0  0  0  0
 35  9  1  0  0  0  0
 38 10  1  0  0  0  0
 39 12  1  0  0  0  0
 40 12  1  0  0  0  0
 41 13  1  0  0  0  0
 43 17  1  0  0  0  0
 47 26  1  0  0  0  0
 48 27  1  0  0  0  0
 49 27  1  0  0  0  0
 51 28  1  0  0  0  0
 52 30  1  0  0  0  0
M  END
>  <Pose>
1

>  <Score>
-4.41

$$$$
