
 OpenBabel03232221553D

 56 59  0  0  1  0  0  0  0  0999 V2000
    7.4990  -25.6790  -44.2590 B   0  0  0  0  0  0  0  0  0  0  0  0
    5.8420  -24.8750  -43.6980 C   0  0  0  0  0  0  0  0  0  0  0  0
    5.7990  -23.5250  -43.3990 C   0  0  0  0  0  0  0  0  0  0  0  0
    4.6040  -22.9380  -42.9920 C   0  0  0  0  0  0  0  0  0  0  0  0
    3.4470  -23.6730  -42.8780 C   0  0  0  0  0  0  0  0  0  0  0  0
    3.5260  -25.0130  -43.1830 C   0  0  0  0  0  0  0  0  0  0  0  0
    4.6910  -25.6190  -43.5870 C   0  0  0  0  0  0  0  0  0  0  0  0
    2.1980  -23.0770  -42.4570 C   0  0  0  0  0  0  0  0  0  0  0  0
    1.2610  -23.8200  -42.0610 O   0  0  0  0  0  0  0  0  0  0  0  0
    1.9550  -21.6100  -42.4670 C   0  0  0  0  0  0  0  0  0  0  0  0
    2.0570  -21.0440  -41.1540 N   0  0  0  0  0  0  0  0  0  0  0  0
    1.0970  -20.9450  -40.2630 N   0  0  0  0  0  0  0  0  0  0  0  0
    1.5520  -20.3610  -39.1440 C   0  0  0  0  0  0  0  0  0  0  0  0
    2.8480  -20.0850  -39.3470 N   0  0  0  0  0  0  0  0  0  0  0  0
    3.1560  -20.5160  -40.6060 C   0  0  2  0  0  0  0  0  0  0  0  0
    4.4630  -20.4180  -41.2530 C   0  0  0  0  0  0  0  0  0  0  0  0
    5.5570  -21.1190  -40.4840 C   0  0  0  0  0  0  0  0  0  0  0  0
    5.9340  -20.3680  -39.2250 C   0  0  0  0  0  0  0  0  0  0  0  0
    4.8830  -20.4360  -38.1610 C   0  0  0  0  0  0  0  0  0  0  0  0
    3.7490  -19.4500  -38.4050 C   0  0  0  0  0  0  0  0  0  0  0  0
    0.8040  -20.0640  -37.9140 C   0  0  0  0  0  0  0  0  0  0  0  0
   -0.5470  -20.5330  -37.9650 N   0  0  0  0  0  0  0  0  0  0  0  0
   -1.6630  -19.7190  -37.6180 C   0  0  0  0  0  0  0  0  0  0  0  0
   -1.6430  -18.8630  -36.5400 C   0  0  0  0  0  0  0  0  0  0  0  0
   -2.7220  -18.0810  -36.2190 C   0  0  0  0  0  0  0  0  0  0  0  0
   -3.8480  -18.1450  -36.9790 C   0  0  0  0  0  0  0  0  0  0  0  0
   -3.8720  -19.0010  -38.0580 C   0  0  0  0  0  0  0  0  0  0  0  0
   -2.7920  -19.7910  -38.3910 C   0  0  0  0  0  0  0  0  0  0  0  0
   -4.9450  -17.3730  -36.6810 O   0  0  0  0  0  0  0  0  0  0  0  0
   -4.9720  -15.9790  -36.8620 C   0  0  0  0  0  0  0  0  0  0  0  0
    6.7050  -22.9580  -43.4900 H   0  0  0  0  0  0  0  0  0  0  0  0
    4.5950  -21.8860  -42.7650 H   0  0  0  0  0  0  0  0  0  0  0  0
    2.6130  -25.6180  -43.0980 H   0  0  0  0  0  0  0  0  0  0  0  0
    4.6910  -26.6670  -43.8100 H   0  0  0  0  0  0  0  0  0  0  0  0
    2.5880  -21.0950  -43.2150 H   0  0  0  0  0  0  0  0  0  0  0  0
    0.8830  -21.4880  -42.8010 H   0  0  0  0  0  0  0  0  0  0  0  0
    4.4460  -20.8590  -42.2650 H   0  0  0  0  0  0  0  0  0  0  0  0
    4.8110  -19.3540  -41.3920 H   0  0  0  0  0  0  0  0  0  0  0  0
    5.3400  -22.1640  -40.2600 H   0  0  0  0  0  0  0  0  0  0  0  0
    6.4620  -21.1060  -41.1400 H   0  0  0  0  0  0  0  0  0  0  0  0
    6.2560  -19.3460  -39.4350 H   0  0  0  0  0  0  0  0  0  0  0  0
    6.8400  -20.9000  -38.8150 H   0  0  0  0  0  0  0  0  0  0  0  0
    4.4470  -21.4310  -38.0780 H   0  0  0  0  0  0  0  0  0  0  0  0
    5.3780  -20.1820  -37.1840 H   0  0  0  0  0  0  0  0  0  0  0  0
    4.1210  -18.4760  -38.7580 H   0  0  0  0  0  0  0  0  0  0  0  0
    3.2190  -19.2890  -37.4550 H   0  0  0  0  0  0  0  0  0  0  0  0
    0.8090  -18.9530  -37.7680 H   0  0  0  0  0  0  0  0  0  0  0  0
    1.3020  -20.4920  -37.0280 H   0  0  0  0  0  0  0  0  0  0  0  0
   -0.7490  -21.4980  -38.2630 H   0  0  0  0  0  0  0  0  0  0  0  0
   -0.7100  -18.8500  -35.9610 H   0  0  0  0  0  0  0  0  0  0  0  0
   -2.6600  -17.4280  -35.3690 H   0  0  0  0  0  0  0  0  0  0  0  0
   -4.7620  -19.0750  -38.6890 H   0  0  0  0  0  0  0  0  0  0  0  0
   -2.8300  -20.4660  -39.2580 H   0  0  0  0  0  0  0  0  0  0  0  0
   -5.8240  -15.5330  -36.3340 H   0  0  0  0  0  0  0  0  0  0  0  0
   -4.0310  -15.5550  -36.4590 H   0  0  0  0  0  0  0  0  0  0  0  0
   -5.0250  -15.7050  -37.9400 H   0  0  0  0  0  0  0  0  0  0  0  0
  1  2  1  0  0  0  0
  2  7  2  0  0  0  0
  2  3  1  0  0  0  0
  3  4  2  0  0  0  0
  4  5  1  0  0  0  0
  4 32  1  0  0  0  0
  5  8  1  0  0  0  0
  6 33  1  0  0  0  0
  6  5  2  0  0  0  0
  7  6  1  0  0  0  0
  8  9  2  0  0  0  0
 10  8  1  0  0  0  0
 10 11  1  0  0  0  0
 11 15  1  0  0  0  0
 11 12  1  0  0  0  0
 12 13  2  0  0  0  0
 13 21  1  0  0  0  0
 14 13  1  0  0  0  0
 14 20  1  0  0  0  0
 15 16  1  6  0  0  0
 15 14  1  0  0  0  0
 16 17  1  0  0  0  0
 17 39  1  0  0  0  0
 17 18  1  0  0  0  0
 18 42  1  0  0  0  0
 18 19  1  0  0  0  0
 19 43  1  0  0  0  0
 19 44  1  0  0  0  0
 20 19  1  0  0  0  0
 20 46  1  0  0  0  0
 21 47  1  0  0  0  0
 21 48  1  0  0  0  0
 22 21  1  0  0  0  0
 22 23  1  0  0  0  0
 23 24  1  0  0  0  0
 24 25  2  0  0  0  0
 24 50  1  0  0  0  0
 25 51  1  0  0  0  0
 26 29  1  0  0  0  0
 26 25  1  0  0  0  0
 27 26  2  0  0  0  0
 28 27  1  0  0  0  0
 28 23  2  0  0  0  0
 30 29  1  0  0  0  0
 30 55  1  0  0  0  0
 30 54  1  0  0  0  0
 31  3  1  0  0  0  0
 34  7  1  0  0  0  0
 35 10  1  0  0  0  0
 36 10  1  0  0  0  0
 37 16  1  0  0  0  0
 38 16  1  0  0  0  0
 40 17  1  0  0  0  0
 41 18  1  0  0  0  0
 45 20  1  0  0  0  0
 49 22  1  0  0  0  0
 52 27  1  0  0  0  0
 53 28  1  0  0  0  0
 56 30  1  0  0  0  0
M  END
>  <Pose>
1

>  <Score>
-4.08

$$$$
