
 OpenBabel03232221553D

 48 51  0  0  1  0  0  0  0  0999 V2000
    5.1000  -26.3980  -44.8070 Cl  0  0  0  0  0  0  0  0  0  0  0  0
    4.4630  -25.1850  -43.7070 C   0  0  0  0  0  0  0  0  0  0  0  0
    5.2900  -24.1890  -43.1950 C   0  0  0  0  0  0  0  0  0  0  0  0
    4.8410  -23.2370  -42.3130 C   0  0  0  0  0  0  0  0  0  0  0  0
    3.4910  -23.3220  -41.9550 C   0  0  0  0  0  0  0  0  0  0  0  0
    2.6480  -24.3090  -42.4540 C   0  0  0  0  0  0  0  0  0  0  0  0
    3.1370  -25.2420  -43.3290 C   0  0  0  0  0  0  0  0  0  0  0  0
    5.6470  -22.1530  -41.8740 N   0  0  0  0  0  4  0  0  0  0  0  0
    5.5800  -21.8640  -40.4630 C   0  0  0  0  0  0  0  0  0  0  0  0
    5.3330  -20.4350  -40.2150 C   0  0  2  0  0  0  0  0  0  0  0  0
    5.2940  -19.8680  -41.5340 N   0  0  0  0  0  0  0  0  0  0  0  0
    5.5050  -18.5260  -42.0220 C   0  0  0  0  0  0  0  0  0  0  0  0
    4.3380  -17.9190  -42.7310 C   0  0  0  0  0  0  0  0  0  0  0  0
    3.2240  -18.8580  -43.0410 C   0  0  0  0  0  0  0  0  0  0  0  0
    3.6640  -19.7440  -44.2280 C   0  0  0  0  0  0  0  0  0  0  0  0
    4.3410  -20.9310  -43.5670 C   0  0  0  0  0  0  0  0  0  0  0  0
    5.0230  -20.9680  -42.4450 C   0  0  0  0  0  0  0  0  0  0  0  0
    6.4650  -19.8650  -39.5680 O   0  0  0  0  0  0  0  0  0  0  0  0
    4.2070  -20.0900  -39.3820 C   0  0  0  0  0  0  0  0  0  0  0  0
    4.3340  -19.4760  -38.1360 C   0  0  0  0  0  0  0  0  0  0  0  0
    3.2460  -19.1230  -37.3490 C   0  0  0  0  0  0  0  0  0  0  0  0
    1.9630  -19.3940  -37.8250 C   0  0  0  0  0  0  0  0  0  0  0  0
    1.7950  -19.9950  -39.0390 C   0  0  0  0  0  0  0  0  0  0  0  0
    2.9200  -20.3360  -39.8060 C   0  0  0  0  0  0  0  0  0  0  0  0
    3.4490  -18.5040  -36.0960 N   0  0  0  0  0  0  0  0  0  0  0  0
    4.1980  -19.0620  -35.2340 O   0  0  0  0  0  0  0  0  0  0  0  0
    2.8850  -17.3350  -35.7450 O   0  0  0  0  0  0  0  0  0  0  0  0
    6.3400  -24.2520  -43.5280 H   0  0  0  0  0  0  0  0  0  0  0  0
    3.1010  -22.5890  -41.2700 H   0  0  0  0  0  0  0  0  0  0  0  0
    1.5850  -24.3590  -42.1540 H   0  0  0  0  0  0  0  0  0  0  0  0
    2.5070  -26.0130  -43.7220 H   0  0  0  0  0  0  0  0  0  0  0  0
    6.5660  -22.2250  -42.2960 H   0  0  0  0  0  0  0  0  0  0  0  0
    5.0290  -22.6380  -39.9680 H   0  0  0  0  0  0  0  0  0  0  0  0
    6.6640  -22.0550  -40.1220 H   0  0  0  0  0  0  0  0  0  0  0  0
    5.8930  -17.8140  -41.2720 H   0  0  0  0  0  0  0  0  0  0  0  0
    6.3330  -18.5020  -42.8230 H   0  0  0  0  0  0  0  0  0  0  0  0
    4.6400  -17.3840  -43.6610 H   0  0  0  0  0  0  0  0  0  0  0  0
    3.8690  -17.0960  -42.0890 H   0  0  0  0  0  0  0  0  0  0  0  0
    2.8930  -19.5100  -42.2070 H   0  0  0  0  0  0  0  0  0  0  0  0
    2.3080  -18.3300  -43.4280 H   0  0  0  0  0  0  0  0  0  0  0  0
    4.3540  -19.1930  -44.8570 H   0  0  0  0  0  0  0  0  0  0  0  0
    2.7680  -20.1390  -44.7510 H   0  0  0  0  0  0  0  0  0  0  0  0
    4.2130  -21.8400  -44.1270 H   0  0  0  0  0  0  0  0  0  0  0  0
    7.0980  -19.6080  -40.3160 H   0  0  0  0  0  0  0  0  0  0  0  0
    5.3100  -19.2770  -37.7940 H   0  0  0  0  0  0  0  0  0  0  0  0
    1.1430  -19.0990  -37.1790 H   0  0  0  0  0  0  0  0  0  0  0  0
    0.7730  -20.2070  -39.4090 H   0  0  0  0  0  0  0  0  0  0  0  0
    2.6620  -20.8070  -40.7500 H   0  0  0  0  0  0  0  0  0  0  0  0
  1  2  1  0  0  0  0
  2  7  2  0  0  0  0
  2  3  1  0  0  0  0
  3  4  2  0  0  0  0
  4  5  1  0  0  0  0
  4  8  1  0  0  0  0
  5 29  1  0  0  0  0
  6 30  1  0  0  0  0
  6  5  2  0  0  0  0
  7  6  1  0  0  0  0
  8  9  1  0  0  0  0
  9 10  1  0  0  0  0
  9 34  1  0  0  0  0
  9 33  1  0  0  0  0
 10 18  1  1  0  0  0
 10 19  1  0  0  0  0
 11 10  1  0  0  0  0
 12 11  1  0  0  0  0
 12 35  1  0  0  0  0
 13 38  1  0  0  0  0
 13 12  1  0  0  0  0
 14 13  1  0  0  0  0
 14 39  1  0  0  0  0
 15 16  1  0  0  0  0
 15 14  1  0  0  0  0
 16 17  2  0  0  0  0
 17  8  1  0  0  0  0
 17 11  1  0  0  0  0
 19 20  1  0  0  0  0
 20 45  1  0  0  0  0
 20 21  2  0  0  0  0
 21 25  1  0  0  0  0
 22 21  1  0  0  0  0
 22 46  1  0  0  0  0
 23 22  2  0  0  0  0
 24 19  2  0  0  0  0
 24 23  1  0  0  0  0
 25 27  2  0  0  0  0
 25 26  2  0  0  0  0
 28  3  1  0  0  0  0
 31  7  1  0  0  0  0
 32  8  1  0  0  0  0
 36 12  1  0  0  0  0
 37 13  1  0  0  0  0
 40 14  1  0  0  0  0
 41 15  1  0  0  0  0
 42 15  1  0  0  0  0
 43 16  1  0  0  0  0
 44 18  1  0  0  0  0
 47 23  1  0  0  0  0
 48 24  1  0  0  0  0
M  END
>  <Pose>
1

>  <Score>
-3.79

$$$$
