
 OpenBabel03232221553D

 54 58  0  0  0  0  0  0  0  0999 V2000
    3.5640  -25.5510  -44.5790 F   0  0  0  0  0  0  0  0  0  0  0  0
    3.7520  -24.5000  -43.7610 C   0  0  0  0  0  0  0  0  0  0  0  0
    2.5750  -23.9610  -43.2480 C   0  0  0  0  0  0  0  0  0  0  0  0
    2.6160  -22.8850  -42.3900 C   0  0  0  0  0  0  0  0  0  0  0  0
    3.8460  -22.3680  -42.0580 C   0  0  0  0  0  0  0  0  0  0  0  0
    5.0100  -22.9220  -42.5800 C   0  0  0  0  0  0  0  0  0  0  0  0
    4.9830  -23.9910  -43.4350 C   0  0  0  0  0  0  0  0  0  0  0  0
    6.1720  -24.5120  -43.9450 N   0  0  0  0  0  4  0  0  0  0  0  0
    6.4860  -25.8590  -43.5420 C   0  0  0  0  0  0  0  0  0  0  0  0
    7.7430  -26.3520  -44.2970 C   0  0  0  0  0  0  0  0  0  0  0  0
    8.7920  -25.5110  -43.8730 N   0  0  0  0  0  0  0  0  0  0  0  0
    8.5830  -24.1090  -44.4060 C   0  0  0  0  0  0  0  0  0  0  0  0
    7.3150  -23.6860  -43.7320 C   0  0  0  0  0  0  0  0  0  0  0  0
    9.8700  -25.6960  -43.0760 C   0  0  0  0  0  0  0  0  0  0  0  0
    9.6020  -25.9150  -41.8110 O   0  0  0  0  0  0  0  0  0  0  0  0
   11.2770  -25.6940  -43.3660 C   0  0  0  0  0  0  0  0  0  0  0  0
   12.1450  -24.7400  -42.9430 C   0  0  0  0  0  0  0  0  0  0  0  0
   13.5090  -24.8080  -43.2020 C   0  0  0  0  0  0  0  0  0  0  0  0
   14.0020  -25.8720  -43.9120 C   0  0  0  0  0  0  0  0  0  0  0  0
   13.1710  -26.8580  -44.3640 C   0  0  0  0  0  0  0  0  0  0  0  0
   11.8400  -26.7640  -44.0930 C   0  0  0  0  0  0  0  0  0  0  0  0
   14.6000  -23.5460  -42.6280 Cl  0  0  0  0  0  0  0  0  0  0  0  0
    3.8610  -21.3160  -41.2160 N   0  0  0  0  0  0  0  0  0  0  0  0
    2.7380  -20.7770  -40.7080 C   0  0  0  0  0  0  0  0  0  0  0  0
    1.4910  -21.2710  -41.0210 C   0  0  0  0  0  0  0  0  0  0  0  0
    1.4280  -22.3450  -41.8770 C   0  0  0  0  0  0  0  0  0  0  0  0
    0.3250  -22.8440  -42.2020 O   0  0  0  0  0  0  0  0  0  0  0  0
    0.2690  -20.6680  -40.4550 C   0  0  0  0  0  0  0  0  0  0  0  0
   -0.8300  -21.2450  -40.4750 O   0  0  0  0  0  0  0  0  0  0  0  0
    0.3680  -19.4190  -39.8870 O   0  0  0  0  0  0  0  0  0  0  0  0
    5.1820  -20.7770  -40.8730 C   0  0  0  0  0  0  0  0  0  0  0  0
    6.0410  -21.4480  -39.8930 C   0  0  0  0  0  0  0  0  0  0  0  0
    5.2930  -20.2950  -39.3890 C   0  0  0  0  0  0  0  0  0  0  0  0
    1.5970  -24.3480  -43.4930 H   0  0  0  0  0  0  0  0  0  0  0  0
    5.9320  -22.4380  -42.2550 H   0  0  0  0  0  0  0  0  0  0  0  0
    6.0440  -24.5620  -45.0030 H   0  0  0  0  0  0  0  0  0  0  0  0
    6.7860  -25.8520  -42.4850 H   0  0  0  0  0  0  0  0  0  0  0  0
    5.7310  -26.6120  -43.8260 H   0  0  0  0  0  0  0  0  0  0  0  0
    7.8070  -27.4160  -44.1950 H   0  0  0  0  0  0  0  0  0  0  0  0
    7.5280  -26.1990  -45.4180 H   0  0  0  0  0  0  0  0  0  0  0  0
    8.3840  -24.2580  -45.4790 H   0  0  0  0  0  0  0  0  0  0  0  0
    9.4400  -23.4830  -44.1900 H   0  0  0  0  0  0  0  0  0  0  0  0
    7.0640  -22.6680  -44.1560 H   0  0  0  0  0  0  0  0  0  0  0  0
    7.5530  -23.4910  -42.6720 H   0  0  0  0  0  0  0  0  0  0  0  0
   11.8370  -23.8550  -42.4150 H   0  0  0  0  0  0  0  0  0  0  0  0
   15.0670  -25.9070  -44.1040 H   0  0  0  0  0  0  0  0  0  0  0  0
   13.6240  -27.6690  -44.9190 H   0  0  0  0  0  0  0  0  0  0  0  0
   11.1760  -27.5560  -44.4550 H   0  0  0  0  0  0  0  0  0  0  0  0
    2.8020  -19.9340  -40.0370 H   0  0  0  0  0  0  0  0  0  0  0  0
    5.6260  -20.0730  -41.5990 H   0  0  0  0  0  0  0  0  0  0  0  0
    5.8170  -22.4600  -39.4950 H   0  0  0  0  0  0  0  0  0  0  0  0
    7.1530  -21.3170  -40.0470 H   0  0  0  0  0  0  0  0  0  0  0  0
    4.3960  -20.4610  -38.7610 H   0  0  0  0  0  0  0  0  0  0  0  0
    5.7410  -19.2940  -39.2400 H   0  0  0  0  0  0  0  0  0  0  0  0
  1  2  1  0  0  0  0
  2  7  2  0  0  0  0
  2  3  1  0  0  0  0
  3  4  2  0  0  0  0
  4  5  1  0  0  0  0
  4 26  1  0  0  0  0
  5 23  1  0  0  0  0
  6 35  1  0  0  0  0
  6  5  2  0  0  0  0
  7  6  1  0  0  0  0
  8 13  1  0  0  0  0
  8  9  1  0  0  0  0
  8  7  1  0  0  0  0
  9 37  1  0  0  0  0
 10 39  1  0  0  0  0
 10 11  1  0  0  0  0
 10  9  1  0  0  0  0
 11 14  1  0  0  0  0
 12 42  1  0  0  0  0
 12 11  1  0  0  0  0
 12 13  1  0  0  0  0
 13 44  1  0  0  0  0
 14 15  2  0  0  0  0
 16 14  1  0  0  0  0
 16 17  1  0  0  0  0
 17 45  1  0  0  0  0
 18 17  2  0  0  0  0
 18 22  1  0  0  0  0
 19 18  1  0  0  0  0
 20 21  1  0  0  0  0
 20 19  2  0  0  0  0
 21 16  2  0  0  0  0
 23 31  1  0  0  0  0
 23 24  1  0  0  0  0
 24 49  1  0  0  0  0
 25 24  2  0  0  0  0
 25 28  1  0  0  0  0
 26 25  1  0  0  0  0
 27 26  2  0  0  0  0
 28 30  1  0  0  0  0
 29 28  2  0  0  0  0
 31 32  1  0  0  0  0
 31 33  1  0  0  0  0
 32 51  1  0  0  0  0
 32 33  1  0  0  0  0
 33 54  1  0  0  0  0
 33 53  1  0  0  0  0
 34  3  1  0  0  0  0
 36  8  1  0  0  0  0
 38  9  1  0  0  0  0
 40 10  1  0  0  0  0
 41 12  1  0  0  0  0
 43 13  1  0  0  0  0
 46 19  1  0  0  0  0
 47 20  1  0  0  0  0
 48 21  1  0  0  0  0
 50 31  1  0  0  0  0
 52 32  1  0  0  0  0
M  END
>  <Pose>
1

>  <Score>
-4.59

$$$$
