
 OpenBabel03232221553D

 52 55  0  0  0  0  0  0  0  0999 V2000
   -1.4820  -30.4300  -39.7330 Cl  0  0  0  0  0  0  0  0  0  0  0  0
   -0.8670  -28.9120  -40.3550 C   0  0  0  0  0  0  0  0  0  0  0  0
   -0.6550  -28.7900  -41.7210 C   0  0  0  0  0  0  0  0  0  0  0  0
   -0.1710  -27.6170  -42.2800 C   0  0  0  0  0  0  0  0  0  0  0  0
    0.1100  -26.5420  -41.4670 C   0  0  0  0  0  0  0  0  0  0  0  0
   -0.1130  -26.6920  -40.0990 C   0  0  0  0  0  0  0  0  0  0  0  0
   -0.5910  -27.8410  -39.5310 C   0  0  0  0  0  0  0  0  0  0  0  0
    0.6220  -25.2790  -41.9940 C   0  0  0  0  0  0  0  0  0  0  0  0
   -0.1500  -24.5990  -42.7170 O   0  0  0  0  0  0  0  0  0  0  0  0
    1.9110  -24.8210  -41.7230 N   0  0  0  0  0  0  0  0  0  0  0  0
    2.4910  -23.6330  -42.3200 C   0  0  0  0  0  0  0  0  0  0  0  0
    3.8900  -23.9260  -42.7620 C   0  0  0  0  0  0  0  0  0  0  0  0
    4.7460  -22.7190  -42.7900 C   0  0  0  0  0  0  0  0  0  0  0  0
    5.4070  -22.4850  -43.8320 O   0  0  0  0  0  0  0  0  0  0  0  0
    4.8290  -21.8460  -41.6800 N   0  0  0  0  0  0  0  0  0  0  0  0
    3.8920  -20.7630  -41.4570 C   0  0  0  0  0  0  0  0  0  0  0  0
    4.6470  -19.6310  -40.7770 C   0  0  0  0  0  0  0  0  0  0  0  0
    5.1440  -20.0760  -39.4020 C   0  0  0  0  0  0  0  0  0  0  0  0
    6.4000  -19.4180  -39.1840 N   0  0  0  0  0  0  0  0  0  0  0  0
    6.7450  -19.3570  -37.7800 C   0  0  0  0  0  0  0  0  0  0  0  0
    5.8160  -18.3580  -37.0950 C   0  0  0  0  0  0  0  0  0  0  0  0
    4.4320  -18.8800  -37.2840 C   0  0  0  0  0  0  0  0  0  0  0  0
    3.2910  -18.7190  -36.5480 N   0  0  0  0  0  0  0  0  0  0  0  0
    2.3080  -19.4040  -37.1570 C   0  0  0  0  0  0  0  0  0  0  0  0
    2.8250  -19.9820  -38.2560 N   0  0  0  0  0  0  0  0  0  0  0  0
    4.1520  -19.6770  -38.3700 C   0  0  0  0  0  0  0  0  0  0  0  0
    5.3570  -21.5740  -39.3680 C   0  0  0  0  0  0  0  0  0  0  0  0
    5.8850  -22.0120  -40.7020 C   0  0  0  0  0  0  0  0  0  0  0  0
   -0.8770  -29.6380  -42.3540 H   0  0  0  0  0  0  0  0  0  0  0  0
   -0.0140  -27.5590  -43.3720 H   0  0  0  0  0  0  0  0  0  0  0  0
    0.1110  -25.8410  -39.4720 H   0  0  0  0  0  0  0  0  0  0  0  0
   -0.7640  -27.9640  -38.4770 H   0  0  0  0  0  0  0  0  0  0  0  0
    2.5360  -25.3330  -41.0550 H   0  0  0  0  0  0  0  0  0  0  0  0
    2.5530  -22.8720  -41.5100 H   0  0  0  0  0  0  0  0  0  0  0  0
    1.8510  -23.2310  -43.1170 H   0  0  0  0  0  0  0  0  0  0  0  0
    4.3450  -24.6870  -42.0610 H   0  0  0  0  0  0  0  0  0  0  0  0
    3.8680  -24.4160  -43.7370 H   0  0  0  0  0  0  0  0  0  0  0  0
    3.5910  -20.3540  -42.4590 H   0  0  0  0  0  0  0  0  0  0  0  0
    3.0130  -21.0650  -40.8900 H   0  0  0  0  0  0  0  0  0  0  0  0
    5.4640  -19.2630  -41.3960 H   0  0  0  0  0  0  0  0  0  0  0  0
    3.9220  -18.8110  -40.6010 H   0  0  0  0  0  0  0  0  0  0  0  0
    7.1680  -19.8640  -39.7230 H   0  0  0  0  0  0  0  0  0  0  0  0
    6.5040  -20.3430  -37.3340 H   0  0  0  0  0  0  0  0  0  0  0  0
    7.7950  -19.1380  -37.6010 H   0  0  0  0  0  0  0  0  0  0  0  0
    6.1060  -18.3200  -36.0310 H   0  0  0  0  0  0  0  0  0  0  0  0
    5.8910  -17.3570  -37.5680 H   0  0  0  0  0  0  0  0  0  0  0  0
    3.2760  -18.1460  -35.6740 H   0  0  0  0  0  0  0  0  0  0  0  0
    1.2960  -19.4420  -36.7770 H   0  0  0  0  0  0  0  0  0  0  0  0
    6.0700  -21.8840  -38.5970 H   0  0  0  0  0  0  0  0  0  0  0  0
    4.3890  -22.1010  -39.1930 H   0  0  0  0  0  0  0  0  0  0  0  0
    6.1960  -23.0720  -40.6020 H   0  0  0  0  0  0  0  0  0  0  0  0
    6.7840  -21.4130  -40.9930 H   0  0  0  0  0  0  0  0  0  0  0  0
  2  1  1  0  0  0  0
  2  7  1  0  0  0  0
  3  2  2  0  0  0  0
  4  3  1  0  0  0  0
  4  5  2  0  0  0  0
  5  6  1  0  0  0  0
  6  7  2  0  0  0  0
  6 31  1  0  0  0  0
  7 32  1  0  0  0  0
  8 10  1  0  0  0  0
  8  5  1  0  0  0  0
  9  8  2  0  0  0  0
 10 33  1  0  0  0  0
 11 10  1  0  0  0  0
 11 34  1  0  0  0  0
 12 11  1  0  0  0  0
 12 36  1  0  0  0  0
 13 12  1  0  0  0  0
 13 15  1  0  0  0  0
 14 13  2  0  0  0  0
 15 16  1  0  0  0  0
 15 28  1  0  0  0  0
 16 39  1  0  0  0  0
 16 17  1  0  0  0  0
 17 41  1  0  0  0  0
 17 18  1  0  0  0  0
 18 27  1  0  0  0  0
 18 19  1  0  0  0  0
 18 26  1  0  0  0  0
 19 20  1  0  0  0  0
 20 44  1  0  0  0  0
 20 43  1  0  0  0  0
 20 21  1  0  0  0  0
 21 45  1  0  0  0  0
 22 21  1  0  0  0  0
 22 23  1  0  0  0  0
 23 47  1  0  0  0  0
 24 48  1  0  0  0  0
 24 23  1  0  0  0  0
 25 24  2  0  0  0  0
 26 25  1  0  0  0  0
 26 22  2  0  0  0  0
 27 50  1  0  0  0  0
 27 49  1  0  0  0  0
 28 51  1  0  0  0  0
 28 27  1  0  0  0  0
 29  3  1  0  0  0  0
 30  4  1  0  0  0  0
 35 11  1  0  0  0  0
 37 12  1  0  0  0  0
 38 16  1  0  0  0  0
 40 17  1  0  0  0  0
 42 19  1  0  0  0  0
 46 21  1  0  0  0  0
 52 28  1  0  0  0  0
M  END
>  <Pose>
1

>  <Score>
-4.77

$$$$
