
 OpenBabel03232221553D

 41 44  0  0  1  0  0  0  0  0999 V2000
    7.7390  -20.3180  -43.6870 Cl  0  0  0  0  0  0  0  0  0  0  0  0
    6.3620  -21.0760  -42.9140 C   0  0  0  0  0  0  0  0  0  0  0  0
    6.0900  -20.7980  -41.5960 C   0  0  0  0  0  0  0  0  0  0  0  0
    6.6600  -20.0240  -40.6580 N   0  0  0  0  0  0  0  0  0  0  0  0
    5.9970  -20.0950  -39.4880 C   0  0  0  0  0  0  0  0  0  0  0  0
    4.9520  -20.9670  -39.7100 C   0  0  0  0  0  0  0  0  0  0  0  0
    4.9950  -21.4130  -41.0130 C   0  0  0  0  0  0  0  0  0  0  0  0
    4.2210  -22.2730  -41.7650 C   0  0  0  0  0  0  0  0  0  0  0  0
    4.4710  -22.5670  -43.0820 C   0  0  0  0  0  0  0  0  0  0  0  0
    5.5730  -21.9480  -43.6640 C   0  0  0  0  0  0  0  0  0  0  0  0
    4.0610  -21.2100  -38.5480 C   0  0  0  0  0  0  0  0  0  0  0  0
    3.6980  -19.8920  -38.0790 N   0  0  0  0  0  0  0  0  0  0  0  0
    4.7610  -19.1450  -37.5260 C   0  0  0  0  0  0  0  0  0  0  0  0
    6.0940  -19.5280  -38.1270 C   0  0  0  0  0  0  0  0  0  0  0  0
    2.4280  -19.8000  -37.4960 C   0  0  0  0  0  0  0  0  0  0  0  0
    1.7840  -18.4610  -37.6910 C   0  0  1  0  0  0  0  0  0  0  0  0
    2.0270  -17.8740  -39.0390 C   0  0  0  0  0  0  0  0  0  0  0  0
    0.7930  -17.5790  -39.6810 N   0  0  0  0  0  0  0  0  0  0  0  0
   -0.2850  -17.9990  -38.8460 C   0  0  0  0  0  0  0  0  0  0  0  0
    0.2900  -18.6340  -37.6250 C   0  0  0  0  0  0  0  0  0  0  0  0
    2.1330  -17.5790  -36.6610 O   0  0  0  0  0  0  0  0  0  0  0  0
    7.5200  -19.4180  -40.7770 H   0  0  0  0  0  0  0  0  0  0  0  0
    3.3750  -22.7370  -41.2870 H   0  0  0  0  0  0  0  0  0  0  0  0
    3.8590  -23.2430  -43.6680 H   0  0  0  0  0  0  0  0  0  0  0  0
    5.7860  -22.1660  -44.7020 H   0  0  0  0  0  0  0  0  0  0  0  0
    4.6930  -21.7540  -37.7890 H   0  0  0  0  0  0  0  0  0  0  0  0
    3.1470  -21.7460  -38.7980 H   0  0  0  0  0  0  0  0  0  0  0  0
    4.6410  -18.0460  -37.7410 H   0  0  0  0  0  0  0  0  0  0  0  0
    4.8720  -19.2790  -36.4190 H   0  0  0  0  0  0  0  0  0  0  0  0
    6.7600  -18.6390  -38.1660 H   0  0  0  0  0  0  0  0  0  0  0  0
    6.6280  -20.2580  -37.4670 H   0  0  0  0  0  0  0  0  0  0  0  0
    2.3730  -20.0530  -36.4190 H   0  0  0  0  0  0  0  0  0  0  0  0
    1.7500  -20.5510  -38.0000 H   0  0  0  0  0  0  0  0  0  0  0  0
    2.7350  -17.0130  -39.0410 H   0  0  0  0  0  0  0  0  0  0  0  0
    2.5400  -18.6640  -39.6610 H   0  0  0  0  0  0  0  0  0  0  0  0
    0.7000  -16.5800  -39.9850 H   0  0  0  0  0  0  0  0  0  0  0  0
   -0.9730  -17.1590  -38.6270 H   0  0  0  0  0  0  0  0  0  0  0  0
   -0.9110  -18.7770  -39.3570 H   0  0  0  0  0  0  0  0  0  0  0  0
   -0.1520  -18.0900  -36.7450 H   0  0  0  0  0  0  0  0  0  0  0  0
    0.0150  -19.7100  -37.5210 H   0  0  0  0  0  0  0  0  0  0  0  0
    2.0950  -18.1120  -35.8230 H   0  0  0  0  0  0  0  0  0  0  0  0
  1  2  1  0  0  0  0
  2  3  1  0  0  0  0
  3  7  2  0  0  0  0
  3  4  1  0  0  0  0
  4  5  1  0  0  0  0
  5 14  1  0  0  0  0
  6  5  2  0  0  0  0
  6 11  1  0  0  0  0
  7  6  1  0  0  0  0
  8 23  1  0  0  0  0
  8  7  1  0  0  0  0
  9  8  2  0  0  0  0
 10  9  1  0  0  0  0
 10  2  2  0  0  0  0
 11 12  1  0  0  0  0
 11 26  1  0  0  0  0
 12 13  1  0  0  0  0
 12 15  1  0  0  0  0
 13 29  1  0  0  0  0
 14 13  1  0  0  0  0
 14 31  1  0  0  0  0
 15 32  1  0  0  0  0
 16 20  1  0  0  0  0
 16 15  1  0  0  0  0
 16 21  1  1  0  0  0
 17 16  1  0  0  0  0
 18 17  1  0  0  0  0
 18 19  1  0  0  0  0
 19 37  1  0  0  0  0
 19 20  1  0  0  0  0
 20 40  1  0  0  0  0
 20 39  1  0  0  0  0
 21 41  1  0  0  0  0
 22  4  1  0  0  0  0
 24  9  1  0  0  0  0
 25 10  1  0  0  0  0
 27 11  1  0  0  0  0
 28 13  1  0  0  0  0
 30 14  1  0  0  0  0
 33 15  1  0  0  0  0
 34 17  1  0  0  0  0
 35 17  1  0  0  0  0
 36 18  1  0  0  0  0
 38 19  1  0  0  0  0
M  END
>  <Pose>
1

>  <Score>
-3.69

$$$$
