
 OpenBabel03232221553D

 44 47  0  0  1  0  0  0  0  0999 V2000
    2.9060  -12.5670  -39.0900 B   0  0  0  0  0  0  0  0  0  0  0  0
    2.0860  -13.8370  -37.9330 C   0  0  0  0  0  0  0  0  0  0  0  0
    2.0520  -15.1920  -38.2500 C   0  0  0  0  0  0  0  0  0  0  0  0
    1.4560  -16.1060  -37.4070 C   0  0  0  0  0  0  0  0  0  0  0  0
    0.8990  -15.5960  -36.2390 C   0  0  0  0  0  0  0  0  0  0  0  0
    0.9230  -14.2680  -35.9100 C   0  0  0  0  0  0  0  0  0  0  0  0
    1.5210  -13.3740  -36.7640 C   0  0  0  0  0  0  0  0  0  0  0  0
    1.3920  -17.5050  -37.6870 N   0  0  0  0  0  0  0  0  0  0  0  0
    0.3290  -18.1300  -38.3950 C   0  0  0  0  0  0  0  0  0  0  0  0
   -0.8230  -17.6400  -38.4870 O   0  0  0  0  0  0  0  0  0  0  0  0
    0.8590  -19.3740  -38.9410 C   0  0  2  0  0  0  0  0  0  0  0  0
    1.9270  -19.7610  -37.9390 C   0  0  0  0  0  0  0  0  0  0  0  0
    2.3630  -18.4940  -37.3220 C   0  0  0  0  0  0  0  0  0  0  0  0
    3.3830  -18.2970  -36.6100 O   0  0  0  0  0  0  0  0  0  0  0  0
    1.3360  -19.3300  -40.2650 N   0  0  0  0  0  0  0  0  0  0  0  0
    1.4800  -20.5460  -40.9580 C   0  0  0  0  0  0  0  0  0  0  0  0
    2.9440  -20.9960  -40.8570 C   0  0  0  0  0  0  0  0  0  0  0  0
    3.7770  -19.8740  -40.4540 N   0  0  0  0  0  0  0  0  0  0  0  0
    3.5060  -18.5200  -40.8950 C   0  0  0  0  0  0  0  0  0  0  0  0
    2.0340  -18.2200  -40.7400 C   0  0  0  0  0  0  0  0  0  0  0  0
    4.8980  -20.0640  -39.5800 C   0  0  0  0  0  0  0  0  0  0  0  0
    5.3660  -21.3000  -39.3080 N   0  0  0  0  0  0  0  0  0  0  0  0
    6.4300  -21.4700  -38.4990 C   0  0  0  0  0  0  0  0  0  0  0  0
    7.0810  -20.3880  -37.9190 C   0  0  0  0  0  0  0  0  0  0  0  0
    6.5970  -19.1240  -38.2030 C   0  0  0  0  0  0  0  0  0  0  0  0
    5.5320  -19.0200  -39.0170 N   0  0  0  0  0  0  0  0  0  0  0  0
    2.5000  -15.5300  -39.1700 H   0  0  0  0  0  0  0  0  0  0  0  0
    0.4250  -16.3120  -35.5690 H   0  0  0  0  0  0  0  0  0  0  0  0
    0.4800  -13.8770  -34.9870 H   0  0  0  0  0  0  0  0  0  0  0  0
    1.5360  -12.3260  -36.4990 H   0  0  0  0  0  0  0  0  0  0  0  0
    0.0620  -20.1690  -38.8770 H   0  0  0  0  0  0  0  0  0  0  0  0
    1.4530  -20.3610  -37.1450 H   0  0  0  0  0  0  0  0  0  0  0  0
    2.7650  -20.3000  -38.4300 H   0  0  0  0  0  0  0  0  0  0  0  0
    1.2860  -20.3820  -42.0380 H   0  0  0  0  0  0  0  0  0  0  0  0
    0.8300  -21.3460  -40.6360 H   0  0  0  0  0  0  0  0  0  0  0  0
    3.0410  -21.7910  -40.0730 H   0  0  0  0  0  0  0  0  0  0  0  0
    3.3430  -21.3560  -41.8090 H   0  0  0  0  0  0  0  0  0  0  0  0
    3.8630  -18.3790  -41.9550 H   0  0  0  0  0  0  0  0  0  0  0  0
    4.0360  -17.7820  -40.2290 H   0  0  0  0  0  0  0  0  0  0  0  0
    1.8500  -17.3040  -40.1430 H   0  0  0  0  0  0  0  0  0  0  0  0
    1.6600  -17.9830  -41.7810 H   0  0  0  0  0  0  0  0  0  0  0  0
    6.8220  -22.4620  -38.2710 H   0  0  0  0  0  0  0  0  0  0  0  0
    7.9440  -20.5590  -37.2660 H   0  0  0  0  0  0  0  0  0  0  0  0
    7.0910  -18.2460  -37.7670 H   0  0  0  0  0  0  0  0  0  0  0  0
  1  2  1  0  0  0  0
  2  7  1  0  0  0  0
  3  2  2  0  0  0  0
  3  4  1  0  0  0  0
  4  5  2  0  0  0  0
  5  6  1  0  0  0  0
  5 28  1  0  0  0  0
  6 29  1  0  0  0  0
  7 30  1  0  0  0  0
  7  6  2  0  0  0  0
  8  4  1  0  0  0  0
  8 13  1  0  0  0  0
  9  8  1  0  0  0  0
 10  9  2  0  0  0  0
 11 31  1  1  0  0  0
 11  9  1  0  0  0  0
 11 12  1  0  0  0  0
 12 13  1  0  0  0  0
 12 32  1  0  0  0  0
 13 14  2  0  0  0  0
 15 11  1  0  0  0  0
 16 17  1  0  0  0  0
 16 35  1  0  0  0  0
 16 15  1  0  0  0  0
 17 18  1  0  0  0  0
 17 36  1  0  0  0  0
 18 21  1  0  0  0  0
 19 20  1  0  0  0  0
 19 18  1  0  0  0  0
 19 39  1  0  0  0  0
 20 15  1  0  0  0  0
 20 40  1  0  0  0  0
 21 22  2  0  0  0  0
 21 26  1  0  0  0  0
 22 23  1  0  0  0  0
 23 42  1  0  0  0  0
 23 24  2  0  0  0  0
 24 43  1  0  0  0  0
 25 24  1  0  0  0  0
 25 44  1  0  0  0  0
 26 25  2  0  0  0  0
 27  3  1  0  0  0  0
 33 12  1  0  0  0  0
 34 16  1  0  0  0  0
 37 17  1  0  0  0  0
 38 19  1  0  0  0  0
 41 20  1  0  0  0  0
M  END
>  <Pose>
1

>  <Score>
-3.79

$$$$
