
 OpenBabel03232221553D

 46 49  0  0  1  0  0  0  0  0999 V2000
    4.4800   -9.9880  -37.2990 B   0  0  0  0  0  0  0  0  0  0  0  0
    3.5590  -11.5410  -37.9740 C   0  0  0  0  0  0  0  0  0  0  0  0
    2.7850  -12.3200  -37.1470 C   0  0  0  0  0  0  0  0  0  0  0  0
    2.1330  -13.4050  -37.5850 N   0  0  0  0  0  0  0  0  0  0  0  0
    2.2100  -13.7860  -38.8860 C   0  0  0  0  0  0  0  0  0  0  0  0
    1.5780  -14.8570  -39.3720 N   0  0  0  0  0  0  0  0  0  0  0  0
    0.8110  -15.6460  -38.5940 C   0  0  0  0  0  0  0  0  0  0  0  0
    0.7090  -15.2900  -37.2650 C   0  0  0  0  0  0  0  0  0  0  0  0
    1.3670  -14.1800  -36.7750 C   0  0  0  0  0  0  0  0  0  0  0  0
    1.3000  -13.8200  -35.5660 O   0  0  0  0  0  0  0  0  0  0  0  0
    0.0990  -16.8410  -39.1050 C   0  0  0  0  0  0  0  0  0  0  0  0
    0.6430  -18.0410  -38.6330 O   0  0  0  0  0  0  0  0  0  0  0  0
    1.3780  -18.9340  -39.3780 C   0  0  0  0  0  0  0  0  0  0  0  0
    1.6990  -18.5520  -40.5390 O   0  0  0  0  0  0  0  0  0  0  0  0
    1.7790  -20.2720  -38.8670 C   0  0  0  0  0  0  0  0  0  0  0  0
    3.1850  -20.5580  -39.1570 N   0  0  0  0  0  0  0  0  0  0  0  0
    3.7060  -21.3310  -40.2340 C   0  0  0  0  0  0  0  0  0  0  0  0
    3.0610  -21.7550  -41.2250 O   0  0  0  0  0  0  0  0  0  0  0  0
    5.1500  -21.5480  -39.9800 C   0  0  2  0  0  0  0  0  0  0  0  0
    5.4920  -20.2750  -39.2410 C   0  0  1  0  0  0  0  0  0  0  0  0
    5.6070  -19.0740  -40.1590 C   0  0  0  0  0  0  0  0  0  0  0  0
    5.5370  -19.4370  -41.6180 C   0  0  0  0  0  0  0  0  0  0  0  0
    6.4250  -20.6080  -41.9290 C   0  0  0  0  0  0  0  0  0  0  0  0
    5.9590  -21.8080  -41.1840 C   0  0  0  0  0  0  0  0  0  0  0  0
    4.2900  -20.1100  -38.3910 C   0  0  0  0  0  0  0  0  0  0  0  0
    4.2340  -19.6580  -37.2040 O   0  0  0  0  0  0  0  0  0  0  0  0
    2.9840  -13.0200  -39.7550 C   0  0  0  0  0  0  0  0  0  0  0  0
    3.6510  -11.9060  -39.2920 C   0  0  0  0  0  0  0  0  0  0  0  0
    2.7100  -12.0380  -36.1110 H   0  0  0  0  0  0  0  0  0  0  0  0
    0.1110  -15.8660  -36.5560 H   0  0  0  0  0  0  0  0  0  0  0  0
   -0.9490  -16.7680  -38.7530 H   0  0  0  0  0  0  0  0  0  0  0  0
    0.1750  -16.8030  -40.2220 H   0  0  0  0  0  0  0  0  0  0  0  0
    1.6350  -20.3750  -37.7810 H   0  0  0  0  0  0  0  0  0  0  0  0
    1.1350  -21.0220  -39.3630 H   0  0  0  0  0  0  0  0  0  0  0  0
    5.2410  -22.3730  -39.2500 H   0  0  0  0  0  0  0  0  0  0  0  0
    6.4160  -20.3980  -38.6290 H   0  0  0  0  0  0  0  0  0  0  0  0
    6.5750  -18.5320  -39.9870 H   0  0  0  0  0  0  0  0  0  0  0  0
    4.8260  -18.3230  -39.9640 H   0  0  0  0  0  0  0  0  0  0  0  0
    5.9670  -18.5680  -42.1910 H   0  0  0  0  0  0  0  0  0  0  0  0
    4.5160  -19.5600  -42.0010 H   0  0  0  0  0  0  0  0  0  0  0  0
    7.4680  -20.3070  -41.6690 H   0  0  0  0  0  0  0  0  0  0  0  0
    6.4130  -20.7500  -43.0370 H   0  0  0  0  0  0  0  0  0  0  0  0
    6.8770  -22.3840  -40.8670 H   0  0  0  0  0  0  0  0  0  0  0  0
    5.4040  -22.5150  -41.8410 H   0  0  0  0  0  0  0  0  0  0  0  0
    3.0500  -13.3130  -40.7840 H   0  0  0  0  0  0  0  0  0  0  0  0
    4.2530  -11.3050  -39.9530 H   0  0  0  0  0  0  0  0  0  0  0  0
  2  1  1  0  0  0  0
  2  3  1  0  0  0  0
  3 29  1  0  0  0  0
  4  3  1  0  0  0  0
  4  9  1  0  0  0  0
  5  4  1  0  0  0  0
  6  5  1  0  0  0  0
  6  7  2  0  0  0  0
  7  8  1  0  0  0  0
  8  9  1  0  0  0  0
  8 30  1  0  0  0  0
  9 10  2  0  0  0  0
 11 31  1  0  0  0  0
 11 12  1  0  0  0  0
 11  7  1  0  0  0  0
 13 15  1  0  0  0  0
 13 12  1  0  0  0  0
 14 13  2  0  0  0  0
 15 33  1  0  0  0  0
 16 15  1  0  0  0  0
 16 25  1  0  0  0  0
 17 19  1  0  0  0  0
 17 16  1  0  0  0  0
 18 17  2  0  0  0  0
 19 35  1  1  0  0  0
 19 20  1  0  0  0  0
 20 36  1  1  0  0  0
 20 25  1  0  0  0  0
 21 37  1  0  0  0  0
 21 38  1  0  0  0  0
 21 20  1  0  0  0  0
 22 21  1  0  0  0  0
 23 41  1  0  0  0  0
 23 22  1  0  0  0  0
 23 24  1  0  0  0  0
 24 43  1  0  0  0  0
 24 19  1  0  0  0  0
 25 26  2  0  0  0  0
 27 28  1  0  0  0  0
 27  5  2  0  0  0  0
 28  2  2  0  0  0  0
 32 11  1  0  0  0  0
 34 15  1  0  0  0  0
 39 22  1  0  0  0  0
 40 22  1  0  0  0  0
 42 23  1  0  0  0  0
 44 24  1  0  0  0  0
 45 27  1  0  0  0  0
 46 28  1  0  0  0  0
M  END
>  <Pose>
1

>  <Score>
-4.20

$$$$
