
 OpenBabel03232221553D

 46 49  0  0  1  0  0  0  0  0999 V2000
    6.6690  -26.8760  -45.4220 Cl  0  0  0  0  0  0  0  0  0  0  0  0
    6.4320  -25.4340  -44.4450 C   0  0  0  0  0  0  0  0  0  0  0  0
    5.2270  -25.2920  -43.7960 C   0  0  0  0  0  0  0  0  0  0  0  0
    5.0480  -24.1770  -43.0430 N   0  0  0  0  0  0  0  0  0  0  0  0
    5.9980  -23.2370  -42.9210 C   0  0  0  0  0  0  0  0  0  0  0  0
    5.8290  -22.1290  -42.1750 N   0  0  0  0  0  0  0  0  0  0  0  0
    4.6950  -21.8790  -41.4950 C   0  0  0  0  0  0  0  0  0  0  0  0
    3.7150  -22.8480  -41.6200 C   0  0  0  0  0  0  0  0  0  0  0  0
    3.8880  -23.9810  -42.3830 C   0  0  0  0  0  0  0  0  0  0  0  0
    2.9610  -24.8440  -42.4690 O   0  0  0  0  0  0  0  0  0  0  0  0
    4.4700  -20.6830  -40.6720 C   0  0  0  0  0  0  0  0  0  0  0  0
    4.1390  -20.9030  -39.3270 N   0  0  0  0  0  0  0  0  0  0  0  0
    5.0840  -20.5830  -38.3400 C   0  0  0  0  0  0  0  0  0  0  0  0
    4.9110  -19.2580  -37.6760 C   0  0  0  0  0  0  0  0  0  0  0  0
    3.5210  -18.8270  -37.6630 N   0  0  0  0  0  0  0  0  0  0  0  0
    3.0450  -17.7230  -37.0890 N   0  0  0  0  0  0  0  0  0  0  0  0
    1.7250  -17.6610  -37.2830 C   0  0  0  0  0  0  0  0  0  0  0  0
    1.3720  -18.7720  -38.0070 C   0  0  0  0  0  0  0  0  0  0  0  0
    2.5300  -19.5180  -38.2480 C   0  0  0  0  0  0  0  0  0  0  0  0
    2.7700  -20.7940  -38.9670 C   0  0  0  0  0  0  0  0  0  0  0  0
    0.8120  -16.5780  -36.7980 C   0  0  1  0  0  0  0  0  0  0  0  0
    1.0130  -16.4390  -35.4150 O   0  0  0  0  0  0  0  0  0  0  0  0
    1.2180  -15.2410  -37.4120 C   0  0  0  0  0  0  0  0  0  0  0  0
    0.5390  -14.1280  -36.6270 C   0  0  0  0  0  0  0  0  0  0  0  0
    7.2250  -23.3760  -43.5770 C   0  0  0  0  0  0  0  0  0  0  0  0
    7.4360  -24.4930  -44.3470 C   0  0  0  0  0  0  0  0  0  0  0  0
    4.4600  -26.0250  -43.8790 H   0  0  0  0  0  0  0  0  0  0  0  0
    2.7690  -22.6970  -41.0880 H   0  0  0  0  0  0  0  0  0  0  0  0
    5.3920  -20.0480  -40.7140 H   0  0  0  0  0  0  0  0  0  0  0  0
    3.6720  -20.0350  -41.1390 H   0  0  0  0  0  0  0  0  0  0  0  0
    5.0140  -21.3620  -37.5230 H   0  0  0  0  0  0  0  0  0  0  0  0
    6.1050  -20.7180  -38.7590 H   0  0  0  0  0  0  0  0  0  0  0  0
    5.5540  -18.5140  -38.1810 H   0  0  0  0  0  0  0  0  0  0  0  0
    5.2710  -19.2760  -36.6060 H   0  0  0  0  0  0  0  0  0  0  0  0
    0.3890  -19.0530  -38.3470 H   0  0  0  0  0  0  0  0  0  0  0  0
    2.5220  -21.6660  -38.2920 H   0  0  0  0  0  0  0  0  0  0  0  0
    2.1520  -20.8770  -39.8840 H   0  0  0  0  0  0  0  0  0  0  0  0
   -0.2430  -16.7850  -37.0120 H   0  0  0  0  0  0  0  0  0  0  0  0
    1.9030  -16.0210  -35.2290 H   0  0  0  0  0  0  0  0  0  0  0  0
    0.8250  -15.2220  -38.4300 H   0  0  0  0  0  0  0  0  0  0  0  0
    2.3000  -15.0990  -37.4320 H   0  0  0  0  0  0  0  0  0  0  0  0
    0.0150  -14.5460  -35.7510 H   0  0  0  0  0  0  0  0  0  0  0  0
    1.2630  -13.3320  -36.3340 H   0  0  0  0  0  0  0  0  0  0  0  0
   -0.2370  -13.6060  -37.2530 H   0  0  0  0  0  0  0  0  0  0  0  0
    7.9720  -22.5990  -43.4590 H   0  0  0  0  0  0  0  0  0  0  0  0
    8.3840  -24.6040  -44.8570 H   0  0  0  0  0  0  0  0  0  0  0  0
  1  2  1  0  0  0  0
  2 26  2  0  0  0  0
  2  3  1  0  0  0  0
  3  4  1  0  0  0  0
  4  5  1  0  0  0  0
  4  9  1  0  0  0  0
  5  6  1  0  0  0  0
  6  7  2  0  0  0  0
  7 11  1  0  0  0  0
  8  7  1  0  0  0  0
  8 28  1  0  0  0  0
  9  8  1  0  0  0  0
 10  9  2  0  0  0  0
 11 12  1  0  0  0  0
 12 20  1  0  0  0  0
 12 13  1  0  0  0  0
 13 14  1  0  0  0  0
 13 31  1  0  0  0  0
 14 15  1  0  0  0  0
 14 34  1  0  0  0  0
 15 16  1  0  0  0  0
 17 16  2  0  0  0  0
 17 21  1  0  0  0  0
 18 17  1  0  0  0  0
 19 18  2  0  0  0  0
 19 15  1  0  0  0  0
 20 36  1  0  0  0  0
 20 19  1  0  0  0  0
 21 38  1  6  0  0  0
 21 22  1  0  0  0  0
 22 39  1  0  0  0  0
 23 21  1  0  0  0  0
 23 24  1  0  0  0  0
 24 43  1  0  0  0  0
 24 42  1  0  0  0  0
 25 45  1  0  0  0  0
 25  5  2  0  0  0  0
 26 25  1  0  0  0  0
 27  3  1  0  0  0  0
 29 11  1  0  0  0  0
 30 11  1  0  0  0  0
 32 13  1  0  0  0  0
 33 14  1  0  0  0  0
 35 18  1  0  0  0  0
 37 20  1  0  0  0  0
 40 23  1  0  0  0  0
 41 23  1  0  0  0  0
 44 24  1  0  0  0  0
 46 26  1  0  0  0  0
M  END
>  <Pose>
1

>  <Score>
-4.26

$$$$
