
 OpenBabel03232221553D

 53 56  0  0  0  0  0  0  0  0999 V2000
    6.6420  -24.0840  -44.0310 Cl  0  0  0  0  0  0  0  0  0  0  0  0
    5.0830  -23.7320  -43.2870 C   0  0  0  0  0  0  0  0  0  0  0  0
    4.7750  -22.4000  -43.0420 C   0  0  0  0  0  0  0  0  0  0  0  0
    3.5740  -22.1020  -42.4640 C   0  0  0  0  0  0  0  0  0  0  0  0
    2.6940  -23.1520  -42.1380 C   0  0  0  0  0  0  0  0  0  0  0  0
    3.0230  -24.4530  -42.3910 C   0  0  0  0  0  0  0  0  0  0  0  0
    4.2360  -24.7720  -42.9760 C   0  0  0  0  0  0  0  0  0  0  0  0
    3.1460  -20.7050  -42.2100 C   0  0  0  0  0  0  0  0  0  0  0  0
    3.0360  -20.3250  -40.8380 N   0  0  0  0  0  0  0  0  0  0  0  0
    4.1030  -19.9930  -40.0820 C   0  0  0  0  0  0  0  0  0  0  0  0
    3.6340  -19.7400  -38.8150 C   0  0  0  0  0  0  0  0  0  0  0  0
    2.3280  -19.9210  -38.8360 N   0  0  0  0  0  0  0  0  0  0  0  0
    1.9340  -20.2860  -40.0820 C   0  0  0  0  0  0  0  0  0  0  0  0
    0.5860  -20.6280  -40.4370 N   0  0  0  0  0  0  0  0  0  0  0  0
   -0.5050  -19.8350  -39.8340 C   0  0  0  0  0  0  0  0  0  0  0  0
   -1.3890  -19.2250  -40.8750 C   0  0  0  0  0  0  0  0  0  0  0  0
   -1.3200  -19.9600  -42.1170 N   0  0  0  0  0  0  0  0  0  0  0  0
   -1.1040  -21.3890  -42.0330 C   0  0  0  0  0  0  0  0  0  0  0  0
    0.2140  -21.6640  -41.3310 C   0  0  0  0  0  0  0  0  0  0  0  0
   -1.4690  -19.2980  -43.3650 C   0  0  0  0  0  0  0  0  0  0  0  0
   -2.6080  -19.0820  -43.8350 O   0  0  0  0  0  0  0  0  0  0  0  0
   -0.2910  -18.8460  -44.1420 C   0  0  0  0  0  0  0  0  0  0  0  0
    0.4490  -17.8220  -43.2850 C   0  0  0  0  0  0  0  0  0  0  0  0
    4.5390  -19.3810  -37.8610 N   0  0  0  0  0  0  0  0  0  0  0  0
    5.8450  -19.2760  -38.1340 C   0  0  0  0  0  0  0  0  0  0  0  0
    6.6430  -18.9420  -37.2150 O   0  0  0  0  0  0  0  0  0  0  0  0
    6.3430  -19.5140  -39.3540 N   0  0  0  0  0  0  0  0  0  0  0  0
    5.4670  -19.8720  -40.3230 C   0  0  0  0  0  0  0  0  0  0  0  0
    5.9270  -20.0960  -41.4640 O   0  0  0  0  0  0  0  0  0  0  0  0
    4.0620  -19.1140  -36.5060 C   0  0  0  0  0  0  0  0  0  0  0  0
    5.5110  -21.6370  -43.3040 H   0  0  0  0  0  0  0  0  0  0  0  0
    1.7300  -22.9050  -41.6740 H   0  0  0  0  0  0  0  0  0  0  0  0
    2.3760  -25.2870  -42.1550 H   0  0  0  0  0  0  0  0  0  0  0  0
    4.5190  -25.7980  -43.1870 H   0  0  0  0  0  0  0  0  0  0  0  0
    2.1460  -20.5490  -42.7170 H   0  0  0  0  0  0  0  0  0  0  0  0
    3.8350  -20.0600  -42.7920 H   0  0  0  0  0  0  0  0  0  0  0  0
   -1.0540  -20.5230  -39.1640 H   0  0  0  0  0  0  0  0  0  0  0  0
   -0.0510  -18.9910  -39.2590 H   0  0  0  0  0  0  0  0  0  0  0  0
   -2.4530  -19.2960  -40.5150 H   0  0  0  0  0  0  0  0  0  0  0  0
   -1.1530  -18.1560  -41.0650 H   0  0  0  0  0  0  0  0  0  0  0  0
   -1.9310  -21.8010  -41.3820 H   0  0  0  0  0  0  0  0  0  0  0  0
   -1.1770  -21.9180  -42.9870 H   0  0  0  0  0  0  0  0  0  0  0  0
    1.0020  -21.7970  -42.0930 H   0  0  0  0  0  0  0  0  0  0  0  0
    0.1130  -22.6620  -40.7980 H   0  0  0  0  0  0  0  0  0  0  0  0
    0.4050  -19.7080  -44.3350 H   0  0  0  0  0  0  0  0  0  0  0  0
   -0.5570  -18.4610  -45.1330 H   0  0  0  0  0  0  0  0  0  0  0  0
    1.3080  -18.2650  -42.7400 H   0  0  0  0  0  0  0  0  0  0  0  0
   -0.2130  -17.3640  -42.5210 H   0  0  0  0  0  0  0  0  0  0  0  0
    0.8040  -16.9840  -43.9310 H   0  0  0  0  0  0  0  0  0  0  0  0
    7.3690  -19.4200  -39.5230 H   0  0  0  0  0  0  0  0  0  0  0  0
    4.6720  -18.3060  -36.0440 H   0  0  0  0  0  0  0  0  0  0  0  0
    4.2180  -20.0700  -35.9290 H   0  0  0  0  0  0  0  0  0  0  0  0
    2.9860  -18.8970  -36.5030 H   0  0  0  0  0  0  0  0  0  0  0  0
  1  2  1  0  0  0  0
  2  3  2  0  0  0  0
  2  7  1  0  0  0  0
  3  4  1  0  0  0  0
  4  8  1  0  0  0  0
  4  5  2  0  0  0  0
  5 32  1  0  0  0  0
  6 33  1  0  0  0  0
  6  5  1  0  0  0  0
  7  6  2  0  0  0  0
  8  9  1  0  0  0  0
  9 13  1  0  0  0  0
  9 10  1  0  0  0  0
 10 11  2  0  0  0  0
 11 24  1  0  0  0  0
 12 11  1  0  0  0  0
 13 12  2  0  0  0  0
 14 13  1  0  0  0  0
 14 15  1  0  0  0  0
 15 38  1  0  0  0  0
 15 37  1  0  0  0  0
 16 39  1  0  0  0  0
 16 15  1  0  0  0  0
 17 18  1  0  0  0  0
 17 16  1  0  0  0  0
 18 41  1  0  0  0  0
 18 19  1  0  0  0  0
 19 44  1  0  0  0  0
 19 14  1  0  0  0  0
 20 17  1  0  0  0  0
 21 20  2  0  0  0  0
 22 20  1  0  0  0  0
 22 23  1  0  0  0  0
 23 47  1  0  0  0  0
 23 48  1  0  0  0  0
 24 30  1  0  0  0  0
 25 24  1  0  0  0  0
 25 26  2  0  0  0  0
 27 25  1  0  0  0  0
 28 10  1  0  0  0  0
 28 27  1  0  0  0  0
 29 28  2  0  0  0  0
 30 53  1  0  0  0  0
 30 51  1  0  0  0  0
 30 52  1  0  0  0  0
 31  3  1  0  0  0  0
 34  7  1  0  0  0  0
 35  8  1  0  0  0  0
 36  8  1  0  0  0  0
 40 16  1  0  0  0  0
 42 18  1  0  0  0  0
 43 19  1  0  0  0  0
 45 22  1  0  0  0  0
 46 22  1  0  0  0  0
 49 23  1  0  0  0  0
 50 27  1  0  0  0  0
M  END
>  <Pose>
1

>  <Score>
-4.30

$$$$
