
 OpenBabel03232221553D

 45 48  0  0  0  0  0  0  0  0999 V2000
    6.3690  -19.3310  -37.9420 Cl  0  0  0  0  0  0  0  0  0  0  0  0
    4.6040  -19.4500  -37.9370 C   0  0  0  0  0  0  0  0  0  0  0  0
    3.9980  -20.3210  -38.8170 C   0  0  0  0  0  0  0  0  0  0  0  0
    2.6240  -20.4230  -38.8220 C   0  0  0  0  0  0  0  0  0  0  0  0
    1.8510  -19.6700  -37.9650 C   0  0  0  0  0  0  0  0  0  0  0  0
    2.5030  -18.8090  -37.0970 C   0  0  0  0  0  0  0  0  0  0  0  0
    3.8710  -18.6770  -37.0600 C   0  0  0  0  0  0  0  0  0  0  0  0
    0.4270  -19.7590  -37.9520 N   0  0  0  0  0  0  0  0  0  0  0  0
   -0.3270  -20.8280  -38.0350 N   0  0  0  0  0  0  0  0  0  0  0  0
   -1.6420  -20.4660  -37.9840 C   0  0  0  0  0  0  0  0  0  0  0  0
   -1.7030  -19.0960  -37.8630 C   0  0  0  0  0  0  0  0  0  0  0  0
   -0.3680  -18.6800  -37.8460 C   0  0  0  0  0  0  0  0  0  0  0  0
    4.8040  -21.1300  -39.7360 C   0  0  0  0  0  0  0  0  0  0  0  0
    4.8960  -22.3530  -39.4590 O   0  0  0  0  0  0  0  0  0  0  0  0
    5.4420  -20.5570  -40.8700 N   0  0  0  0  0  0  0  0  0  0  0  0
    6.0840  -21.4350  -41.8230 C   0  0  0  0  0  0  0  0  0  0  0  0
    6.0720  -20.7180  -43.1600 C   0  0  0  0  0  0  0  0  0  0  0  0
    4.8170  -19.8950  -43.3500 C   0  0  0  0  0  0  0  0  0  0  0  0
    4.8060  -19.4450  -44.7230 N   0  0  0  0  0  0  0  0  0  0  0  0
    4.2010  -20.4530  -45.5180 C   0  0  0  0  0  0  0  0  0  0  0  0
    4.2970  -20.6230  -46.7740 O   0  0  0  0  0  0  0  0  0  0  0  0
    3.4430  -21.2620  -44.6140 N   0  0  0  0  0  0  0  0  0  0  0  0
    3.5960  -20.7390  -43.2940 C   0  0  0  0  0  0  0  0  0  0  0  0
    2.8330  -20.9720  -42.3180 O   0  0  0  0  0  0  0  0  0  0  0  0
    2.6300  -22.4380  -44.9360 C   0  0  0  0  0  0  0  0  0  0  0  0
    4.7260  -18.7620  -42.3710 C   0  0  0  0  0  0  0  0  0  0  0  0
    5.4900  -19.1380  -41.1380 C   0  0  0  0  0  0  0  0  0  0  0  0
    2.0870  -21.0880  -39.4890 H   0  0  0  0  0  0  0  0  0  0  0  0
    1.9000  -18.2120  -36.4180 H   0  0  0  0  0  0  0  0  0  0  0  0
    4.3500  -17.9790  -36.3550 H   0  0  0  0  0  0  0  0  0  0  0  0
   -2.5200  -21.0950  -38.0260 H   0  0  0  0  0  0  0  0  0  0  0  0
   -2.5940  -18.4730  -37.7950 H   0  0  0  0  0  0  0  0  0  0  0  0
   -0.0500  -17.6500  -37.7600 H   0  0  0  0  0  0  0  0  0  0  0  0
    7.1280  -21.6220  -41.4980 H   0  0  0  0  0  0  0  0  0  0  0  0
    5.5050  -22.3720  -41.9530 H   0  0  0  0  0  0  0  0  0  0  0  0
    6.9650  -20.0670  -43.2440 H   0  0  0  0  0  0  0  0  0  0  0  0
    6.1440  -21.4460  -43.9930 H   0  0  0  0  0  0  0  0  0  0  0  0
    5.1840  -18.5350  -45.0470 H   0  0  0  0  0  0  0  0  0  0  0  0
    2.6690  -23.1920  -44.1130 H   0  0  0  0  0  0  0  0  0  0  0  0
    2.9850  -22.8870  -45.8800 H   0  0  0  0  0  0  0  0  0  0  0  0
    1.5660  -22.1520  -45.0350 H   0  0  0  0  0  0  0  0  0  0  0  0
    3.6490  -18.6050  -42.1460 H   0  0  0  0  0  0  0  0  0  0  0  0
    5.1860  -17.8670  -42.8420 H   0  0  0  0  0  0  0  0  0  0  0  0
    6.5720  -18.8870  -41.3260 H   0  0  0  0  0  0  0  0  0  0  0  0
    5.1970  -18.5350  -40.2470 H   0  0  0  0  0  0  0  0  0  0  0  0
  1  2  1  0  0  0  0
  2  7  1  0  0  0  0
  3  2  2  0  0  0  0
  4  3  1  0  0  0  0
  4  5  2  0  0  0  0
  5  8  1  0  0  0  0
  5  6  1  0  0  0  0
  6  7  2  0  0  0  0
  6 29  1  0  0  0  0
  7 30  1  0  0  0  0
  8 12  1  0  0  0  0
  9 10  2  0  0  0  0
  9  8  1  0  0  0  0
 10 11  1  0  0  0  0
 11 12  2  0  0  0  0
 11 32  1  0  0  0  0
 12 33  1  0  0  0  0
 13 14  2  0  0  0  0
 13  3  1  0  0  0  0
 15 13  1  0  0  0  0
 16 34  1  0  0  0  0
 16 15  1  0  0  0  0
 17 16  1  0  0  0  0
 18 23  1  0  0  0  0
 18 17  1  0  0  0  0
 18 26  1  0  0  0  0
 19 18  1  0  0  0  0
 20 19  1  0  0  0  0
 20 22  1  0  0  0  0
 21 20  2  0  0  0  0
 22 23  1  0  0  0  0
 23 24  2  0  0  0  0
 25 22  1  0  0  0  0
 25 39  1  0  0  0  0
 26 42  1  0  0  0  0
 26 27  1  0  0  0  0
 27 15  1  0  0  0  0
 27 45  1  0  0  0  0
 28  4  1  0  0  0  0
 31 10  1  0  0  0  0
 35 16  1  0  0  0  0
 36 17  1  0  0  0  0
 37 17  1  0  0  0  0
 38 19  1  0  0  0  0
 40 25  1  0  0  0  0
 41 25  1  0  0  0  0
 43 26  1  0  0  0  0
 44 27  1  0  0  0  0
M  END
>  <Pose>
1

>  <Score>
-3.78

$$$$
