
 OpenBabel03232221553D

 53 56  0  0  1  0  0  0  0  0999 V2000
   10.9150  -23.6110  -44.4360 Cl  0  0  0  0  0  0  0  0  0  0  0  0
    9.2730  -24.1700  -44.2740 C   0  0  0  0  0  0  0  0  0  0  0  0
    8.2370  -23.5330  -44.8910 C   0  0  0  0  0  0  0  0  0  0  0  0
    6.9490  -24.0200  -44.7280 C   0  0  0  0  0  0  0  0  0  0  0  0
    6.6530  -25.1120  -43.9770 C   0  0  0  0  0  0  0  0  0  0  0  0
    7.7150  -25.7610  -43.3480 C   0  0  0  0  0  0  0  0  0  0  0  0
    9.0030  -25.2970  -43.4940 C   0  0  0  0  0  0  0  0  0  0  0  0
    5.2960  -25.6140  -43.8030 C   0  0  1  0  0  0  0  0  0  0  0  0
    4.3670  -24.4850  -43.6130 N   0  0  0  0  0  0  0  0  0  0  0  0
    3.9470  -24.0360  -44.8940 C   0  0  0  0  0  0  0  0  0  0  0  0
    3.4760  -22.9340  -45.1840 O   0  0  0  0  0  0  0  0  0  0  0  0
    4.1740  -25.1450  -45.8420 C   0  0  0  0  0  0  0  0  0  0  0  0
    3.9400  -25.1650  -47.0930 O   0  0  0  0  0  0  0  0  0  0  0  0
    4.7330  -26.2280  -45.0500 C   0  0  0  0  0  0  0  0  0  0  0  0
    4.7430  -27.4830  -45.4230 C   0  0  0  0  0  0  0  0  0  0  0  0
    5.3530  -28.4090  -44.5830 O   0  0  0  0  0  0  0  0  0  0  0  0
    4.1650  -28.0150  -46.6530 C   0  0  0  0  0  0  0  0  0  0  0  0
    5.0280  -28.7240  -47.4800 C   0  0  0  0  0  0  0  0  0  0  0  0
    4.5490  -29.2730  -48.6360 C   0  0  0  0  0  0  0  0  0  0  0  0
    3.2230  -29.1370  -48.9990 C   0  0  0  0  0  0  0  0  0  0  0  0
    2.3710  -28.4340  -48.1750 C   0  0  0  0  0  0  0  0  0  0  0  0
    2.8660  -27.8850  -47.0100 C   0  0  0  0  0  0  0  0  0  0  0  0
    2.6620  -29.8510  -50.4750 Cl  0  0  0  0  0  0  0  0  0  0  0  0
    4.0140  -24.0150  -42.2980 C   0  0  0  0  0  0  0  0  0  0  0  0
    4.6800  -22.7690  -41.8550 C   0  0  0  0  0  0  0  0  0  0  0  0
    4.5140  -22.3430  -40.5150 N   0  0  0  0  0  4  0  0  0  0  0  0
    3.5710  -21.2570  -40.3520 C   0  0  0  0  0  0  0  0  0  0  0  0
    4.1490  -20.0510  -39.6500 C   0  0  0  0  0  0  0  0  0  0  0  0
    4.8280  -20.3300  -38.4930 O   0  0  0  0  0  0  0  0  0  0  0  0
    5.7200  -21.3790  -38.6110 C   0  0  0  0  0  0  0  0  0  0  0  0
    5.8060  -21.7970  -40.0480 C   0  0  0  0  0  0  0  0  0  0  0  0
    8.4520  -22.6610  -45.4930 H   0  0  0  0  0  0  0  0  0  0  0  0
    6.1720  -23.4860  -45.2370 H   0  0  0  0  0  0  0  0  0  0  0  0
    7.4950  -26.6310  -42.7470 H   0  0  0  0  0  0  0  0  0  0  0  0
    9.8480  -25.7700  -43.0250 H   0  0  0  0  0  0  0  0  0  0  0  0
    5.1940  -26.3140  -42.9420 H   0  0  0  0  0  0  0  0  0  0  0  0
    6.0890  -28.8400  -47.2040 H   0  0  0  0  0  0  0  0  0  0  0  0
    5.2620  -29.8200  -49.2550 H   0  0  0  0  0  0  0  0  0  0  0  0
    1.3390  -28.3450  -48.4850 H   0  0  0  0  0  0  0  0  0  0  0  0
    2.1690  -27.3460  -46.3590 H   0  0  0  0  0  0  0  0  0  0  0  0
    4.3220  -24.8270  -41.5680 H   0  0  0  0  0  0  0  0  0  0  0  0
    2.9030  -23.9850  -42.1630 H   0  0  0  0  0  0  0  0  0  0  0  0
    5.7900  -22.8200  -42.0900 H   0  0  0  0  0  0  0  0  0  0  0  0
    4.3650  -21.8820  -42.5000 H   0  0  0  0  0  0  0  0  0  0  0  0
    4.3220  -23.1150  -39.8550 H   0  0  0  0  0  0  0  0  0  0  0  0
    2.6950  -21.6410  -39.7970 H   0  0  0  0  0  0  0  0  0  0  0  0
    3.1970  -20.8810  -41.3280 H   0  0  0  0  0  0  0  0  0  0  0  0
    3.2660  -19.4060  -39.3960 H   0  0  0  0  0  0  0  0  0  0  0  0
    4.7430  -19.4440  -40.3700 H   0  0  0  0  0  0  0  0  0  0  0  0
    6.7330  -21.1190  -38.2700 H   0  0  0  0  0  0  0  0  0  0  0  0
    5.3630  -22.2550  -38.0270 H   0  0  0  0  0  0  0  0  0  0  0  0
    6.0570  -20.9590  -40.7180 H   0  0  0  0  0  0  0  0  0  0  0  0
    6.6080  -22.5630  -40.1720 H   0  0  0  0  0  0  0  0  0  0  0  0
  1  2  1  0  0  0  0
  2  7  1  0  0  0  0
  3  4  1  0  0  0  0
  3  2  2  0  0  0  0
  4  5  2  0  0  0  0
  5  8  1  0  0  0  0
  5  6  1  0  0  0  0
  6 34  1  0  0  0  0
  7  6  2  0  0  0  0
  7 35  1  0  0  0  0
  8  9  1  0  0  0  0
  8 36  1  1  0  0  0
  9 24  1  0  0  0  0
 10  9  1  0  0  0  0
 11 10  2  0  0  0  0
 12 14  1  0  0  0  0
 12 10  1  0  0  0  0
 13 12  2  0  0  0  0
 14  8  1  0  0  0  0
 15 14  2  0  0  0  0
 15 16  1  0  0  0  0
 17 15  1  0  0  0  0
 18 37  1  0  0  0  0
 18 17  2  0  0  0  0
 19 18  1  0  0  0  0
 20 19  2  0  0  0  0
 20 21  1  0  0  0  0
 21 22  2  0  0  0  0
 22 17  1  0  0  0  0
 22 40  1  0  0  0  0
 23 20  1  0  0  0  0
 24 42  1  0  0  0  0
 24 25  1  0  0  0  0
 24 41  1  0  0  0  0
 25 26  1  0  0  0  0
 26 27  1  0  0  0  0
 26 31  1  0  0  0  0
 26 45  1  0  0  0  0
 27 46  1  0  0  0  0
 27 28  1  0  0  0  0
 28 48  1  0  0  0  0
 28 29  1  0  0  0  0
 30 29  1  0  0  0  0
 30 50  1  0  0  0  0
 30 51  1  0  0  0  0
 31 30  1  0  0  0  0
 32  3  1  0  0  0  0
 33  4  1  0  0  0  0
 38 19  1  0  0  0  0
 39 21  1  0  0  0  0
 43 25  1  0  0  0  0
 44 25  1  0  0  0  0
 47 27  1  0  0  0  0
 49 28  1  0  0  0  0
 52 31  1  0  0  0  0
 53 31  1  0  0  0  0
M  END
>  <Pose>
1

>  <Score>
-4.01

$$$$
