
 OpenBabel03232221553D

 60 64  0  0  1  0  0  0  0  0999 V2000
    3.6430  -18.9410  -36.3530 Cl  0  0  0  0  0  0  0  0  0  0  0  0
    3.8440  -19.7450  -37.9170 C   0  0  0  0  0  0  0  0  0  0  0  0
    5.0470  -19.6750  -38.5770 C   0  0  0  0  0  0  0  0  0  0  0  0
    5.2080  -20.3050  -39.8040 C   0  0  0  0  0  0  0  0  0  0  0  0
    4.2130  -21.0160  -40.4190 C   0  0  0  0  0  0  0  0  0  0  0  0
    2.9960  -21.0710  -39.7220 C   0  0  0  0  0  0  0  0  0  0  0  0
    2.8250  -20.4500  -38.5040 C   0  0  0  0  0  0  0  0  0  0  0  0
    4.7030  -21.5430  -41.6820 C   0  0  1  0  0  0  0  0  0  0  0  0
    4.6650  -23.0010  -41.6030 N   0  0  0  0  0  0  0  0  0  0  0  0
    3.5120  -23.3400  -42.3910 C   0  0  1  0  0  0  0  0  0  0  0  0
    3.6770  -22.4360  -43.5910 C   0  0  2  0  0  0  0  0  0  0  0  0
    3.9620  -21.1200  -42.9020 C   0  0  1  0  0  0  0  0  0  0  0  0
    2.6580  -20.5150  -42.7150 C   0  0  0  0  0  0  0  0  0  0  0  0
    2.3750  -19.5650  -41.9530 O   0  0  0  0  0  0  0  0  0  0  0  0
    1.7150  -21.1780  -43.5460 N   0  0  0  0  0  0  0  0  0  0  0  0
    2.3830  -22.2040  -44.2830 C   0  0  0  0  0  0  0  0  0  0  0  0
    2.0140  -22.8250  -45.3080 O   0  0  0  0  0  0  0  0  0  0  0  0
    0.2950  -20.9220  -43.6930 C   0  0  0  0  0  0  0  0  0  0  0  0
   -0.5180  -21.7600  -42.7920 C   0  0  0  0  0  0  0  0  0  0  0  0
   -0.9390  -21.2070  -41.6020 C   0  0  0  0  0  0  0  0  0  0  0  0
   -1.7030  -22.0010  -40.7590 C   0  0  0  0  0  0  0  0  0  0  0  0
   -2.0310  -23.2860  -41.0880 C   0  0  0  0  0  0  0  0  0  0  0  0
   -1.5920  -23.8010  -42.2840 C   0  0  0  0  0  0  0  0  0  0  0  0
   -0.8300  -23.0640  -43.1640 C   0  0  0  0  0  0  0  0  0  0  0  0
   -0.5970  -19.9080  -41.2910 O   0  0  0  0  0  0  0  0  0  0  0  0
   -0.0840  -19.4890  -40.0650 C   0  0  0  0  0  0  0  0  0  0  0  0
    3.5160  -24.8030  -42.7760 C   0  0  0  0  0  0  0  0  0  0  0  0
    4.7830  -25.0420  -43.5690 C   0  0  0  0  0  0  0  0  0  0  0  0
    4.6910  -26.2700  -44.3970 C   0  0  0  0  0  0  0  0  0  0  0  0
    5.7240  -26.9750  -44.5800 O   0  0  0  0  0  0  0  0  0  0  0  0
    3.4210  -26.5910  -44.9490 N   0  0  0  0  0  0  0  0  0  0  0  0
    6.1100  -21.0860  -41.7700 C   0  0  0  0  0  0  0  0  0  0  0  0
    6.9430  -21.3110  -42.6970 O   0  0  0  0  0  0  0  0  0  0  0  0
    6.3800  -20.3320  -40.6100 N   0  0  0  0  0  0  0  0  0  0  0  0
    6.1620  -18.9130  -37.9490 C   0  0  0  0  0  0  0  0  0  0  0  0
    2.1680  -21.6150  -40.1470 H   0  0  0  0  0  0  0  0  0  0  0  0
    1.8700  -20.5140  -37.9940 H   0  0  0  0  0  0  0  0  0  0  0  0
    4.6120  -23.2970  -40.6050 H   0  0  0  0  0  0  0  0  0  0  0  0
    2.5440  -23.1320  -41.9360 H   0  0  0  0  0  0  0  0  0  0  0  0
    4.4780  -22.7580  -44.2660 H   0  0  0  0  0  0  0  0  0  0  0  0
    4.5580  -20.4680  -43.5800 H   0  0  0  0  0  0  0  0  0  0  0  0
    0.0680  -19.8570  -43.4960 H   0  0  0  0  0  0  0  0  0  0  0  0
    0.0510  -21.0920  -44.7710 H   0  0  0  0  0  0  0  0  0  0  0  0
   -2.0380  -21.5750  -39.8260 H   0  0  0  0  0  0  0  0  0  0  0  0
   -2.6380  -23.8760  -40.3890 H   0  0  0  0  0  0  0  0  0  0  0  0
   -1.8460  -24.8160  -42.5530 H   0  0  0  0  0  0  0  0  0  0  0  0
   -0.4820  -23.4810  -44.1190 H   0  0  0  0  0  0  0  0  0  0  0  0
    0.0300  -18.3820  -40.1070 H   0  0  0  0  0  0  0  0  0  0  0  0
    0.9460  -19.8930  -39.9620 H   0  0  0  0  0  0  0  0  0  0  0  0
   -0.7520  -19.7710  -39.2390 H   0  0  0  0  0  0  0  0  0  0  0  0
    2.6120  -25.0950  -43.3340 H   0  0  0  0  0  0  0  0  0  0  0  0
    3.6330  -25.3770  -41.8250 H   0  0  0  0  0  0  0  0  0  0  0  0
    5.0730  -24.1550  -44.1850 H   0  0  0  0  0  0  0  0  0  0  0  0
    5.6010  -25.1870  -42.8360 H   0  0  0  0  0  0  0  0  0  0  0  0
    2.9690  -25.8990  -45.5690 H   0  0  0  0  0  0  0  0  0  0  0  0
    3.0110  -27.5240  -44.6910 H   0  0  0  0  0  0  0  0  0  0  0  0
    7.3050  -19.8720  -40.3930 H   0  0  0  0  0  0  0  0  0  0  0  0
    6.3040  -17.9420  -38.4450 H   0  0  0  0  0  0  0  0  0  0  0  0
    5.9770  -18.7570  -36.8860 H   0  0  0  0  0  0  0  0  0  0  0  0
    7.1370  -19.4640  -38.0600 H   0  0  0  0  0  0  0  0  0  0  0  0
  2  1  1  0  0  0  0
  3 35  1  0  0  0  0
  3  2  2  0  0  0  0
  4  3  1  0  0  0  0
  5  4  2  0  0  0  0
  5  6  1  0  0  0  0
  6  7  2  0  0  0  0
  7 37  1  0  0  0  0
  7  2  1  0  0  0  0
  8 32  1  6  0  0  0
  8  9  1  0  0  0  0
  8  5  1  0  0  0  0
  9 38  1  0  0  0  0
 10 39  1  1  0  0  0
 10  9  1  0  0  0  0
 11 40  1  6  0  0  0
 11 12  1  0  0  0  0
 11 10  1  0  0  0  0
 12 41  1  6  0  0  0
 12 13  1  0  0  0  0
 12  8  1  0  0  0  0
 13 14  2  0  0  0  0
 15 13  1  0  0  0  0
 16 11  1  0  0  0  0
 16 15  1  0  0  0  0
 17 16  2  0  0  0  0
 18 15  1  0  0  0  0
 18 42  1  0  0  0  0
 18 19  1  0  0  0  0
 19 20  1  0  0  0  0
 20 25  1  0  0  0  0
 20 21  2  0  0  0  0
 21 44  1  0  0  0  0
 22 21  1  0  0  0  0
 22 45  1  0  0  0  0
 23 22  2  0  0  0  0
 24 19  2  0  0  0  0
 24 23  1  0  0  0  0
 25 26  1  0  0  0  0
 26 49  1  0  0  0  0
 26 50  1  0  0  0  0
 27 10  1  0  0  0  0
 27 52  1  0  0  0  0
 28 54  1  0  0  0  0
 28 27  1  0  0  0  0
 29 28  1  0  0  0  0
 30 29  2  0  0  0  0
 31 56  1  0  0  0  0
 31 29  1  0  0  0  0
 32 34  1  0  0  0  0
 33 32  2  0  0  0  0
 34 57  1  0  0  0  0
 34  4  1  0  0  0  0
 35 59  1  0  0  0  0
 36  6  1  0  0  0  0
 43 18  1  0  0  0  0
 46 23  1  0  0  0  0
 47 24  1  0  0  0  0
 48 26  1  0  0  0  0
 51 27  1  0  0  0  0
 53 28  1  0  0  0  0
 55 31  1  0  0  0  0
 58 35  1  0  0  0  0
 60 35  1  0  0  0  0
M  END
>  <Pose>
1

>  <Score>
-4.77

$$$$
