
 OpenBabel03232221553D

 42 45  0  0  1  0  0  0  0  0999 V2000
    1.9840  -24.4760  -42.1260 Cl  0  0  0  0  0  0  0  0  0  0  0  0
    3.6270  -24.0000  -42.4920 C   0  0  0  0  0  0  0  0  0  0  0  0
    4.2040  -22.8770  -41.9490 C   0  0  0  0  0  0  0  0  0  0  0  0
    5.5050  -22.4730  -42.2240 C   0  0  0  0  0  0  0  0  0  0  0  0
    6.2360  -23.2700  -43.0980 C   0  0  0  0  0  0  0  0  0  0  0  0
    5.6830  -24.4000  -43.6560 C   0  0  0  0  0  0  0  0  0  0  0  0
    4.3870  -24.7610  -43.3540 C   0  0  0  0  0  0  0  0  0  0  0  0
    6.0870  -21.2510  -41.6140 C   0  0  1  0  0  0  0  0  0  0  0  0
    6.4210  -20.2310  -42.5670 N   0  0  0  0  0  0  0  0  0  0  0  0
    5.3750  -19.2690  -42.6600 C   0  0  0  0  0  0  0  0  0  0  0  0
    5.2010  -18.4080  -43.5710 O   0  0  0  0  0  0  0  0  0  0  0  0
    4.4990  -19.4470  -41.4830 C   0  0  0  0  0  0  0  0  0  0  0  0
    3.4730  -18.7710  -41.2400 O   0  0  0  0  0  0  0  0  0  0  0  0
    5.0970  -20.5420  -40.7310 C   0  0  0  0  0  0  0  0  0  0  0  0
    4.7670  -20.8480  -39.4940 C   0  0  0  0  0  0  0  0  0  0  0  0
    5.4020  -21.9700  -38.9220 O   0  0  0  0  0  0  0  0  0  0  0  0
    3.8050  -20.1070  -38.6900 C   0  0  0  0  0  0  0  0  0  0  0  0
    4.2400  -19.4270  -37.5440 C   0  0  0  0  0  0  0  0  0  0  0  0
    3.3580  -18.6950  -36.7800 C   0  0  0  0  0  0  0  0  0  0  0  0
    2.0200  -18.5900  -37.0970 C   0  0  0  0  0  0  0  0  0  0  0  0
    1.5730  -19.2490  -38.2190 C   0  0  0  0  0  0  0  0  0  0  0  0
    2.4680  -19.9920  -38.9910 C   0  0  0  0  0  0  0  0  0  0  0  0
    7.6140  -20.1740  -43.3190 C   0  0  1  0  0  0  0  0  0  0  0  0
    8.6090  -19.4070  -42.8000 N   0  0  0  0  0  0  0  0  0  0  0  0
    9.7840  -19.2730  -43.4140 C   0  0  0  0  0  0  0  0  0  0  0  0
    9.9740  -19.9390  -44.6030 C   0  0  0  0  0  0  0  0  0  0  0  0
    8.9510  -20.7110  -45.1100 C   0  0  0  0  0  0  0  0  0  0  0  0
    7.7680  -20.8400  -44.4850 N   0  0  0  0  0  0  0  0  0  0  0  0
    3.5870  -22.2950  -41.2790 H   0  0  0  0  0  0  0  0  0  0  0  0
    7.2540  -22.9660  -43.3250 H   0  0  0  0  0  0  0  0  0  0  0  0
    6.2650  -25.0280  -44.3480 H   0  0  0  0  0  0  0  0  0  0  0  0
    3.9620  -25.6510  -43.7960 H   0  0  0  0  0  0  0  0  0  0  0  0
    6.9790  -21.5740  -41.0370 H   0  0  0  0  0  0  0  0  0  0  0  0
    5.2960  -19.5130  -37.3000 H   0  0  0  0  0  0  0  0  0  0  0  0
    3.7390  -18.1880  -35.9040 H   0  0  0  0  0  0  0  0  0  0  0  0
    1.3110  -18.0190  -36.5140 H   0  0  0  0  0  0  0  0  0  0  0  0
    0.5130  -19.1830  -38.4910 H   0  0  0  0  0  0  0  0  0  0  0  0
    2.0760  -20.4830  -39.8870 H   0  0  0  0  0  0  0  0  0  0  0  0
    8.4730  -18.8950  -41.8850 H   0  0  0  0  0  0  0  0  0  0  0  0
   10.5490  -18.6510  -42.9670 H   0  0  0  0  0  0  0  0  0  0  0  0
   10.9250  -19.8370  -45.1100 H   0  0  0  0  0  0  0  0  0  0  0  0
    9.1510  -21.2150  -46.0460 H   0  0  0  0  0  0  0  0  0  0  0  0
  2  1  1  0  0  0  0
  2  3  1  0  0  0  0
  3 29  1  0  0  0  0
  4  3  2  0  0  0  0
  4  8  1  0  0  0  0
  5  4  1  0  0  0  0
  6  7  1  0  0  0  0
  6  5  2  0  0  0  0
  7  2  2  0  0  0  0
  8 33  1  1  0  0  0
  8 14  1  0  0  0  0
  9  8  1  0  0  0  0
 10  9  1  0  0  0  0
 10 12  1  0  0  0  0
 11 10  2  0  0  0  0
 12 13  2  0  0  0  0
 12 14  1  0  0  0  0
 14 15  2  0  0  0  0
 15 16  1  0  0  0  0
 15 17  1  0  0  0  0
 17 18  1  0  0  0  0
 18 34  1  0  0  0  0
 18 19  2  0  0  0  0
 19 35  1  0  0  0  0
 20 19  1  0  0  0  0
 20 36  1  0  0  0  0
 21 20  2  0  0  0  0
 22 17  2  0  0  0  0
 22 21  1  0  0  0  0
 23 24  1  0  0  0  0
 23  9  1  1  0  0  0
 24 39  1  0  0  0  0
 25 40  1  0  0  0  0
 25 24  1  0  0  0  0
 26 25  2  0  0  0  0
 27 26  1  0  0  0  0
 27 28  2  0  0  0  0
 28 23  1  0  0  0  0
 30  5  1  0  0  0  0
 31  6  1  0  0  0  0
 32  7  1  0  0  0  0
 37 21  1  0  0  0  0
 38 22  1  0  0  0  0
 41 26  1  0  0  0  0
 42 27  1  0  0  0  0
M  END
>  <Pose>
1

>  <Score>
-4.19

$$$$
