
 OpenBabel03232221553D

 32 35  0  0  1  0  0  0  0  0999 V2000
    3.1420  -25.0700  -42.8530 Cl  0  0  0  0  0  0  0  0  0  0  0  0
    2.6430  -23.5090  -42.1950 C   0  0  0  0  0  0  0  0  0  0  0  0
    3.5310  -22.6770  -41.5580 C   0  0  0  0  0  0  0  0  0  0  0  0
    3.1110  -21.4410  -41.0440 C   0  0  0  0  0  0  0  0  0  0  0  0
    1.8140  -21.0260  -41.1590 C   0  0  0  0  0  0  0  0  0  0  0  0
    0.8990  -21.8720  -41.8100 C   0  0  0  0  0  0  0  0  0  0  0  0
    1.3440  -23.0740  -42.3010 C   0  0  0  0  0  0  0  0  0  0  0  0
    1.6060  -19.7510  -40.5730 N   0  0  0  0  0  0  0  0  0  0  0  0
    2.8590  -19.3390  -40.0540 C   0  0  0  0  0  0  0  0  0  0  0  0
    3.0460  -18.2390  -39.4570 O   0  0  0  0  0  0  0  0  0  0  0  0
    3.8680  -20.3860  -40.3280 C   0  0  1  0  0  0  0  0  0  0  0  0
    4.3650  -20.8740  -38.9840 C   0  0  0  0  0  0  0  0  0  0  0  0
    5.1950  -19.7460  -38.4410 C   0  0  0  0  0  0  0  0  0  0  0  0
    5.0080  -19.2400  -37.3190 O   0  0  0  0  0  0  0  0  0  0  0  0
    6.2390  -19.2640  -39.2940 N   0  0  0  0  0  0  0  0  0  0  0  0
    6.0890  -19.3560  -40.7050 C   0  0  0  0  0  0  0  0  0  0  0  0
    6.8880  -19.0020  -41.7470 N   0  0  0  0  0  0  0  0  0  0  0  0
    6.2720  -19.3150  -42.8610 N   0  0  0  0  0  0  0  0  0  0  0  0
    5.0770  -19.8720  -42.6100 C   0  0  0  0  0  0  0  0  0  0  0  0
    4.9410  -19.9060  -41.2170 C   0  0  0  0  0  0  0  0  0  0  0  0
    0.3350  -19.0210  -40.5240 C   0  0  0  0  0  0  0  0  0  0  0  0
    4.5470  -22.9590  -41.4460 H   0  0  0  0  0  0  0  0  0  0  0  0
   -0.1280  -21.5390  -41.8990 H   0  0  0  0  0  0  0  0  0  0  0  0
    0.6240  -23.7230  -42.8050 H   0  0  0  0  0  0  0  0  0  0  0  0
    4.9360  -21.8020  -39.0350 H   0  0  0  0  0  0  0  0  0  0  0  0
    3.4770  -20.9390  -38.3240 H   0  0  0  0  0  0  0  0  0  0  0  0
    7.1090  -18.8460  -38.8970 H   0  0  0  0  0  0  0  0  0  0  0  0
    7.8270  -18.5580  -41.6180 H   0  0  0  0  0  0  0  0  0  0  0  0
    4.3270  -20.2390  -43.2870 H   0  0  0  0  0  0  0  0  0  0  0  0
    0.4980  -18.1330  -39.8800 H   0  0  0  0  0  0  0  0  0  0  0  0
   -0.0370  -18.7690  -41.5220 H   0  0  0  0  0  0  0  0  0  0  0  0
   -0.4620  -19.6510  -40.0390 H   0  0  0  0  0  0  0  0  0  0  0  0
  1  2  1  0  0  0  0
  2  3  1  0  0  0  0
  3 22  1  0  0  0  0
  3  4  2  0  0  0  0
  4 11  1  0  0  0  0
  5  4  1  0  0  0  0
  5  8  1  0  0  0  0
  6  5  2  0  0  0  0
  7  2  2  0  0  0  0
  7  6  1  0  0  0  0
  8 21  1  0  0  0  0
  8  9  1  0  0  0  0
  9 10  2  0  0  0  0
 11 20  1  6  0  0  0
 11  9  1  0  0  0  0
 11 12  1  0  0  0  0
 12 13  1  0  0  0  0
 12 26  1  0  0  0  0
 13 14  2  0  0  0  0
 15 27  1  0  0  0  0
 15 13  1  0  0  0  0
 16 15  1  0  0  0  0
 17 28  1  0  0  0  0
 17 16  1  0  0  0  0
 18 19  2  0  0  0  0
 18 17  1  0  0  0  0
 19 20  1  0  0  0  0
 20 16  2  0  0  0  0
 21 32  1  0  0  0  0
 21 30  1  0  0  0  0
 23  6  1  0  0  0  0
 24  7  1  0  0  0  0
 25 12  1  0  0  0  0
 29 19  1  0  0  0  0
 31 21  1  0  0  0  0
M  END
>  <Pose>
1

>  <Score>
-4.26

$$$$
