
 OpenBabel03232221553D

 61 64  0  0  1  0  0  0  0  0999 V2000
   -0.1540  -27.2800  -44.4810 Cl  0  0  0  0  0  0  0  0  0  0  0  0
    1.0540  -26.2280  -43.7320 C   0  0  0  0  0  0  0  0  0  0  0  0
    2.2210  -25.9250  -44.4010 C   0  0  0  0  0  0  0  0  0  0  0  0
    3.1440  -25.1150  -43.8230 C   0  0  0  0  0  0  0  0  0  0  0  0
    2.9220  -24.5830  -42.5460 C   0  0  0  0  0  0  0  0  0  0  0  0
    1.7520  -24.8990  -41.8980 C   0  0  0  0  0  0  0  0  0  0  0  0
    0.7960  -25.7250  -42.4740 C   0  0  0  0  0  0  0  0  0  0  0  0
    3.8860  -23.7330  -41.9340 N   0  0  0  0  0  0  0  0  0  0  0  0
    4.7830  -22.9620  -42.7820 C   0  0  2  0  0  0  0  0  0  0  0  0
    5.3100  -23.8840  -43.7610 N   0  0  0  0  0  0  0  0  0  0  0  0
    4.4090  -24.7360  -44.4490 C   0  0  0  0  0  0  0  0  0  0  0  0
    4.6400  -25.1980  -45.5960 O   0  0  0  0  0  0  0  0  0  0  0  0
    5.8870  -22.4220  -41.9350 C   0  0  0  0  0  0  0  0  0  0  0  0
    5.5530  -21.0980  -41.2860 C   0  0  0  0  0  0  0  0  0  0  0  0
    4.2480  -21.1160  -40.6580 N   0  0  0  0  0  0  0  0  0  0  0  0
    3.0210  -21.3460  -41.3930 C   0  0  0  0  0  0  0  0  0  0  0  0
    1.9930  -21.4710  -40.6890 O   0  0  0  0  0  0  0  0  0  0  0  0
    2.7910  -21.4560  -42.8430 C   0  0  0  0  0  0  0  0  0  0  0  0
    4.0300  -21.9030  -43.5610 C   0  0  0  0  0  0  0  0  0  0  0  0
    4.1060  -20.9290  -39.2720 C   0  0  0  0  0  0  0  0  0  0  0  0
    3.8550  -19.6310  -38.6880 C   0  0  0  0  0  0  0  0  0  0  0  0
    4.9590  -18.8820  -38.6910 O   0  0  0  0  0  0  0  0  0  0  0  0
    2.7080  -19.0810  -38.1620 N   0  0  0  0  0  0  0  0  0  0  0  0
    2.7320  -18.6030  -36.7550 C   0  0  0  0  0  0  0  0  0  0  0  0
    2.0380  -17.2330  -36.8160 C   0  0  0  0  0  0  0  0  0  0  0  0
    2.0770  -16.6880  -38.1320 N   0  0  0  0  0  0  0  0  0  0  0  0
    1.2910  -17.3720  -39.1150 C   0  0  0  0  0  0  0  0  0  0  0  0
    1.4730  -18.8870  -38.8140 C   0  0  0  0  0  0  0  0  0  0  0  0
    2.0450  -15.2680  -38.2240 C   0  0  0  0  0  0  0  0  0  0  0  0
    2.2870  -14.7420  -39.6240 C   0  0  0  0  0  0  0  0  0  0  0  0
    0.7830  -14.6570  -37.6790 C   0  0  0  0  0  0  0  0  0  0  0  0
    2.4360  -26.3130  -45.3880 H   0  0  0  0  0  0  0  0  0  0  0  0
    1.5900  -24.4760  -40.8970 H   0  0  0  0  0  0  0  0  0  0  0  0
   -0.1180  -25.9650  -41.9540 H   0  0  0  0  0  0  0  0  0  0  0  0
    3.9000  -23.7050  -40.8930 H   0  0  0  0  0  0  0  0  0  0  0  0
    6.3210  -23.9550  -43.9900 H   0  0  0  0  0  0  0  0  0  0  0  0
    6.7550  -22.2120  -42.6250 H   0  0  0  0  0  0  0  0  0  0  0  0
    6.1950  -23.1960  -41.2260 H   0  0  0  0  0  0  0  0  0  0  0  0
    6.3540  -20.8090  -40.6090 H   0  0  0  0  0  0  0  0  0  0  0  0
    5.5250  -20.3520  -42.1030 H   0  0  0  0  0  0  0  0  0  0  0  0
    1.9760  -22.1990  -43.0320 H   0  0  0  0  0  0  0  0  0  0  0  0
    2.4800  -20.4630  -43.2830 H   0  0  0  0  0  0  0  0  0  0  0  0
    4.6980  -21.0580  -43.8220 H   0  0  0  0  0  0  0  0  0  0  0  0
    3.6950  -22.3100  -44.5620 H   0  0  0  0  0  0  0  0  0  0  0  0
    5.0200  -21.3420  -38.7000 H   0  0  0  0  0  0  0  0  0  0  0  0
    3.3090  -21.6490  -38.9140 H   0  0  0  0  0  0  0  0  0  0  0  0
    2.1400  -19.2990  -36.1270 H   0  0  0  0  0  0  0  0  0  0  0  0
    3.7530  -18.5490  -36.3850 H   0  0  0  0  0  0  0  0  0  0  0  0
    1.0130  -17.3280  -36.3890 H   0  0  0  0  0  0  0  0  0  0  0  0
    2.6300  -16.5700  -36.1550 H   0  0  0  0  0  0  0  0  0  0  0  0
    1.7570  -17.2270  -40.1100 H   0  0  0  0  0  0  0  0  0  0  0  0
    0.2320  -17.1100  -39.1380 H   0  0  0  0  0  0  0  0  0  0  0  0
    1.2200  -19.4790  -39.6790 H   0  0  0  0  0  0  0  0  0  0  0  0
    0.6570  -19.1630  -38.0510 H   0  0  0  0  0  0  0  0  0  0  0  0
    2.8820  -14.8740  -37.6000 H   0  0  0  0  0  0  0  0  0  0  0  0
    3.3000  -15.0800  -39.9450 H   0  0  0  0  0  0  0  0  0  0  0  0
    1.4950  -15.0400  -40.3090 H   0  0  0  0  0  0  0  0  0  0  0  0
    2.3510  -13.6310  -39.5390 H   0  0  0  0  0  0  0  0  0  0  0  0
   -0.0810  -14.7790  -38.3530 H   0  0  0  0  0  0  0  0  0  0  0  0
    0.5940  -15.1230  -36.6680 H   0  0  0  0  0  0  0  0  0  0  0  0
    0.9890  -13.5740  -37.5320 H   0  0  0  0  0  0  0  0  0  0  0  0
  1  2  1  0  0  0  0
  2  7  1  0  0  0  0
  3  4  1  0  0  0  0
  3  2  2  0  0  0  0
  4  5  2  0  0  0  0
  5  8  1  0  0  0  0
  5  6  1  0  0  0  0
  6 33  1  0  0  0  0
  7 34  1  0  0  0  0
  7  6  2  0  0  0  0
  8 35  1  0  0  0  0
  9 10  1  6  0  0  0
  9 13  1  0  0  0  0
  9  8  1  0  0  0  0
 11  4  1  0  0  0  0
 11 10  1  0  0  0  0
 12 11  2  0  0  0  0
 13 14  1  0  0  0  0
 13 38  1  0  0  0  0
 14 15  1  0  0  0  0
 14 39  1  0  0  0  0
 15 20  1  0  0  0  0
 16 17  2  0  0  0  0
 16 15  1  0  0  0  0
 18 16  1  0  0  0  0
 19 18  1  0  0  0  0
 19  9  1  0  0  0  0
 20 46  1  0  0  0  0
 20 45  1  0  0  0  0
 20 21  1  0  0  0  0
 21 23  1  0  0  0  0
 22 21  2  0  0  0  0
 23 24  1  0  0  0  0
 24 48  1  0  0  0  0
 24 47  1  0  0  0  0
 25 24  1  0  0  0  0
 25 49  1  0  0  0  0
 25 50  1  0  0  0  0
 26 25  1  0  0  0  0
 27 28  1  0  0  0  0
 27 26  1  0  0  0  0
 28 23  1  0  0  0  0
 28 54  1  0  0  0  0
 29 26  1  0  0  0  0
 29 31  1  0  0  0  0
 29 55  1  0  0  0  0
 30 58  1  0  0  0  0
 30 29  1  0  0  0  0
 31 61  1  0  0  0  0
 31 60  1  0  0  0  0
 32  3  1  0  0  0  0
 36 10  1  0  0  0  0
 37 13  1  0  0  0  0
 40 14  1  0  0  0  0
 41 18  1  0  0  0  0
 42 18  1  0  0  0  0
 43 19  1  0  0  0  0
 44 19  1  0  0  0  0
 51 27  1  0  0  0  0
 52 27  1  0  0  0  0
 53 28  1  0  0  0  0
 56 30  1  0  0  0  0
 57 30  1  0  0  0  0
 59 31  1  0  0  0  0
M  END
>  <Pose>
1

>  <Score>
-3.77

$$$$
