
 OpenBabel03232221553D

 52 55  0  0  0  0  0  0  0  0999 V2000
    3.5440  -28.6350  -46.4100 Cl  0  0  0  0  0  0  0  0  0  0  0  0
    4.1220  -27.2250  -45.5830 C   0  0  0  0  0  0  0  0  0  0  0  0
    3.3130  -26.1980  -45.1540 C   0  0  0  0  0  0  0  0  0  0  0  0
    3.7930  -25.0840  -44.4930 C   0  0  0  0  0  0  0  0  0  0  0  0
    5.1320  -24.9560  -44.2310 C   0  0  0  0  0  0  0  0  0  0  0  0
    5.9360  -25.9960  -44.6680 C   0  0  0  0  0  0  0  0  0  0  0  0
    5.4770  -27.1140  -45.3290 C   0  0  0  0  0  0  0  0  0  0  0  0
    5.7300  -23.8750  -43.5330 N   0  0  0  0  0  0  0  0  0  0  0  0
    7.0000  -23.5810  -43.4660 N   0  0  0  0  0  0  0  0  0  0  0  0
    7.2400  -22.5050  -42.7090 C   0  0  0  0  0  0  0  0  0  0  0  0
    6.0090  -22.0630  -42.2430 C   0  0  0  0  0  0  0  0  0  0  0  0
    5.0860  -22.9510  -42.7840 C   0  0  0  0  0  0  0  0  0  0  0  0
    3.8040  -22.7300  -42.4800 N   0  0  0  0  0  0  0  0  0  0  0  0
    3.4290  -21.7000  -41.6900 C   0  0  0  0  0  0  0  0  0  0  0  0
    4.2970  -20.8280  -41.1530 N   0  0  0  0  0  0  0  0  0  0  0  0
    5.6100  -21.0190  -41.4410 C   0  0  0  0  0  0  0  0  0  0  0  0
    6.4590  -20.2260  -40.9620 O   0  0  0  0  0  0  0  0  0  0  0  0
    3.8970  -19.7170  -40.2830 C   0  0  0  0  0  0  0  0  0  0  0  0
    3.8460  -20.1160  -38.8650 C   0  0  0  0  0  0  0  0  0  0  0  0
    4.6100  -21.0980  -38.5590 O   0  0  0  0  0  0  0  0  0  0  0  0
    3.0710  -19.5440  -37.8590 N   0  0  0  0  0  0  0  0  0  0  0  0
    1.6050  -19.6710  -37.8640 C   0  0  0  0  0  0  0  0  0  0  0  0
    1.1050  -18.2330  -38.0590 C   0  0  0  0  0  0  0  0  0  0  0  0
    1.7080  -17.3580  -37.0890 N   0  0  0  0  0  0  0  0  0  0  0  0
    2.5810  -17.9570  -36.0980 C   0  0  0  0  0  0  0  0  0  0  0  0
    3.6350  -18.8230  -36.7400 C   0  0  0  0  0  0  0  0  0  0  0  0
    1.4800  -15.9640  -37.1140 C   0  0  0  0  0  0  0  0  0  0  0  0
    0.6470  -15.4850  -36.2570 O   0  0  0  0  0  0  0  0  0  0  0  0
    2.0670  -15.0580  -37.9680 O   0  0  0  0  0  0  0  0  0  0  0  0
    1.5760  -13.7070  -38.0610 C   0  0  0  0  0  0  0  0  0  0  0  0
    1.8660  -13.0580  -36.7200 C   0  0  0  0  0  0  0  0  0  0  0  0
    2.2390  -26.3310  -45.3740 H   0  0  0  0  0  0  0  0  0  0  0  0
    3.1250  -24.3040  -44.1770 H   0  0  0  0  0  0  0  0  0  0  0  0
    7.0190  -25.9140  -44.4710 H   0  0  0  0  0  0  0  0  0  0  0  0
    6.2000  -27.8690  -45.6250 H   0  0  0  0  0  0  0  0  0  0  0  0
    8.1530  -22.0010  -42.4450 H   0  0  0  0  0  0  0  0  0  0  0  0
    2.3700  -21.5390  -41.4520 H   0  0  0  0  0  0  0  0  0  0  0  0
    2.8500  -19.3850  -40.5640 H   0  0  0  0  0  0  0  0  0  0  0  0
    4.5950  -18.8870  -40.4770 H   0  0  0  0  0  0  0  0  0  0  0  0
    1.2380  -20.1070  -36.9250 H   0  0  0  0  0  0  0  0  0  0  0  0
    1.3270  -20.2340  -38.7530 H   0  0  0  0  0  0  0  0  0  0  0  0
    0.0050  -18.2650  -38.0420 H   0  0  0  0  0  0  0  0  0  0  0  0
    1.3980  -17.9140  -39.1040 H   0  0  0  0  0  0  0  0  0  0  0  0
    1.9430  -18.5130  -35.3990 H   0  0  0  0  0  0  0  0  0  0  0  0
    3.1100  -17.1220  -35.5640 H   0  0  0  0  0  0  0  0  0  0  0  0
    3.8690  -19.6170  -35.9640 H   0  0  0  0  0  0  0  0  0  0  0  0
    4.5600  -18.2880  -37.0090 H   0  0  0  0  0  0  0  0  0  0  0  0
    2.1830  -13.1610  -38.8510 H   0  0  0  0  0  0  0  0  0  0  0  0
    0.5290  -13.6300  -38.2960 H   0  0  0  0  0  0  0  0  0  0  0  0
    2.3030  -12.0590  -36.7860 H   0  0  0  0  0  0  0  0  0  0  0  0
    0.8920  -13.0890  -36.1430 H   0  0  0  0  0  0  0  0  0  0  0  0
    2.5560  -13.7040  -36.1640 H   0  0  0  0  0  0  0  0  0  0  0  0
  1  2  1  0  0  0  0
  2  7  2  0  0  0  0
  2  3  1  0  0  0  0
  3  4  2  0  0  0  0
  4  5  1  0  0  0  0
  4 33  1  0  0  0  0
  5  8  1  0  0  0  0
  6 34  1  0  0  0  0
  6  5  2  0  0  0  0
  7  6  1  0  0  0  0
  8  9  1  0  0  0  0
  8 12  1  0  0  0  0
  9 10  2  0  0  0  0
 10 36  1  0  0  0  0
 10 11  1  0  0  0  0
 11 16  1  0  0  0  0
 12 13  1  0  0  0  0
 12 11  2  0  0  0  0
 13 14  2  0  0  0  0
 14 37  1  0  0  0  0
 14 15  1  0  0  0  0
 15 18  1  0  0  0  0
 16 15  1  0  0  0  0
 16 17  2  0  0  0  0
 18 19  1  0  0  0  0
 19 20  2  0  0  0  0
 19 21  1  0  0  0  0
 21 26  1  0  0  0  0
 22 21  1  0  0  0  0
 22 40  1  0  0  0  0
 23 42  1  0  0  0  0
 23 22  1  0  0  0  0
 23 24  1  0  0  0  0
 24 25  1  0  0  0  0
 25 45  1  0  0  0  0
 25 44  1  0  0  0  0
 26 25  1  0  0  0  0
 26 46  1  0  0  0  0
 27 24  1  0  0  0  0
 27 28  2  0  0  0  0
 29 27  1  0  0  0  0
 30 29  1  0  0  0  0
 30 31  1  0  0  0  0
 31 52  1  0  0  0  0
 31 51  1  0  0  0  0
 32  3  1  0  0  0  0
 35  7  1  0  0  0  0
 38 18  1  0  0  0  0
 39 18  1  0  0  0  0
 41 22  1  0  0  0  0
 43 23  1  0  0  0  0
 47 26  1  0  0  0  0
 48 30  1  0  0  0  0
 49 30  1  0  0  0  0
 50 31  1  0  0  0  0
M  END
>  <Pose>
1

>  <Score>
-4.17

$$$$
