
 OpenBabel03232221553D

 51 55  0  0  1  0  0  0  0  0999 V2000
    6.5610  -18.8840  -37.6170 Cl  0  0  0  0  0  0  0  0  0  0  0  0
    5.1510  -19.4940  -38.4520 C   0  0  0  0  0  0  0  0  0  0  0  0
    5.3350  -19.9620  -39.7530 C   0  0  0  0  0  0  0  0  0  0  0  0
    4.2490  -20.4510  -40.4450 C   0  0  0  0  0  0  0  0  0  0  0  0
    3.0090  -20.4520  -39.8020 C   0  0  0  0  0  0  0  0  0  0  0  0
    2.8370  -19.9870  -38.5160 C   0  0  0  0  0  0  0  0  0  0  0  0
    3.9260  -19.4990  -37.8240 C   0  0  0  0  0  0  0  0  0  0  0  0
    4.6390  -20.8890  -41.7840 C   0  0  1  0  0  0  0  0  0  0  0  0
    4.3110  -22.2780  -42.0430 N   0  0  0  0  0  0  0  0  0  0  0  0
    4.2660  -22.3960  -43.4940 C   0  0  2  0  0  0  0  0  0  0  0  0
    3.7580  -21.0770  -44.0080 C   0  0  1  0  0  0  0  0  0  0  0  0
    3.9730  -20.0930  -42.8850 C   0  0  2  0  0  0  0  0  0  0  0  0
    4.8770  -19.0480  -43.4280 C   0  0  0  0  0  0  0  0  0  0  0  0
    5.3590  -18.1430  -42.6910 O   0  0  0  0  0  0  0  0  0  0  0  0
    5.0640  -19.2580  -44.8170 N   0  0  0  0  0  0  0  0  0  0  0  0
    4.6830  -20.5980  -45.0930 C   0  0  0  0  0  0  0  0  0  0  0  0
    5.0220  -21.3270  -46.0670 O   0  0  0  0  0  0  0  0  0  0  0  0
    5.5400  -18.3080  -45.7560 C   0  0  0  0  0  0  0  0  0  0  0  0
    6.6380  -17.4180  -45.3240 C   0  0  2  0  0  0  0  0  0  0  0  0
    7.1970  -16.6400  -46.3260 O   0  0  0  0  0  0  0  0  0  0  0  0
    8.0910  -15.8610  -45.5900 C   0  0  0  0  0  0  0  0  0  0  0  0
    8.7910  -16.8530  -44.6520 C   0  0  0  0  0  0  0  0  0  0  0  0
    7.8240  -18.0480  -44.6920 C   0  0  0  0  0  0  0  0  0  0  0  0
    3.3660  -23.5380  -43.8630 C   0  0  0  0  0  0  0  0  0  0  0  0
    2.5910  -23.9020  -42.6340 C   0  0  0  0  0  0  0  0  0  0  0  0
    1.4960  -23.3080  -42.4630 O   0  0  0  0  0  0  0  0  0  0  0  0
    3.0500  -24.8630  -41.6980 N   0  0  0  0  0  0  0  0  0  0  0  0
    6.0860  -20.6310  -41.8530 C   0  0  0  0  0  0  0  0  0  0  0  0
    6.8750  -20.8630  -42.8410 O   0  0  0  0  0  0  0  0  0  0  0  0
    6.4660  -20.0690  -40.6090 N   0  0  0  0  0  0  0  0  0  0  0  0
    2.1190  -20.8250  -40.2990 H   0  0  0  0  0  0  0  0  0  0  0  0
    1.8750  -19.9900  -38.0210 H   0  0  0  0  0  0  0  0  0  0  0  0
    3.7720  -19.1380  -36.8150 H   0  0  0  0  0  0  0  0  0  0  0  0
    3.4010  -22.5530  -41.6080 H   0  0  0  0  0  0  0  0  0  0  0  0
    5.3030  -22.5730  -43.8260 H   0  0  0  0  0  0  0  0  0  0  0  0
    2.7230  -21.1420  -44.3470 H   0  0  0  0  0  0  0  0  0  0  0  0
    3.0230  -19.6750  -42.5580 H   0  0  0  0  0  0  0  0  0  0  0  0
    5.9050  -18.8290  -46.6920 H   0  0  0  0  0  0  0  0  0  0  0  0
    4.7230  -17.6370  -46.1550 H   0  0  0  0  0  0  0  0  0  0  0  0
    6.2110  -16.7000  -44.5820 H   0  0  0  0  0  0  0  0  0  0  0  0
    7.5800  -15.1190  -44.9580 H   0  0  0  0  0  0  0  0  0  0  0  0
    8.8120  -15.3270  -46.2300 H   0  0  0  0  0  0  0  0  0  0  0  0
    9.7670  -17.0880  -45.0680 H   0  0  0  0  0  0  0  0  0  0  0  0
    8.8230  -16.4580  -43.6090 H   0  0  0  0  0  0  0  0  0  0  0  0
    8.3360  -18.8160  -45.2690 H   0  0  0  0  0  0  0  0  0  0  0  0
    7.6350  -18.3850  -43.6460 H   0  0  0  0  0  0  0  0  0  0  0  0
    4.0200  -24.3850  -44.1680 H   0  0  0  0  0  0  0  0  0  0  0  0
    2.7020  -23.2480  -44.6840 H   0  0  0  0  0  0  0  0  0  0  0  0
    3.3050  -25.8060  -42.0510 H   0  0  0  0  0  0  0  0  0  0  0  0
    3.1480  -24.6850  -40.6790 H   0  0  0  0  0  0  0  0  0  0  0  0
    7.4430  -19.7690  -40.3430 H   0  0  0  0  0  0  0  0  0  0  0  0
  2  7  1  0  0  0  0
  2  1  1  0  0  0  0
  3  2  2  0  0  0  0
  4  5  2  0  0  0  0
  4  3  1  0  0  0  0
  5  6  1  0  0  0  0
  6 32  1  0  0  0  0
  6  7  2  0  0  0  0
  7 33  1  0  0  0  0
  8 28  1  6  0  0  0
  8  4  1  0  0  0  0
  9  8  1  0  0  0  0
  9 34  1  0  0  0  0
 10 35  1  6  0  0  0
 10  9  1  0  0  0  0
 11 36  1  6  0  0  0
 11 10  1  0  0  0  0
 11 12  1  0  0  0  0
 12 37  1  1  0  0  0
 12  8  1  0  0  0  0
 13 12  1  0  0  0  0
 13 14  2  0  0  0  0
 15 13  1  0  0  0  0
 16 15  1  0  0  0  0
 16 11  1  0  0  0  0
 17 16  2  0  0  0  0
 18 19  1  0  0  0  0
 18 15  1  0  0  0  0
 19 23  1  0  0  0  0
 19 40  1  1  0  0  0
 20 21  1  0  0  0  0
 20 19  1  0  0  0  0
 21 41  1  0  0  0  0
 21 22  1  0  0  0  0
 22 44  1  0  0  0  0
 23 22  1  0  0  0  0
 23 46  1  0  0  0  0
 24 10  1  0  0  0  0
 24 25  1  0  0  0  0
 25 26  2  0  0  0  0
 25 27  1  0  0  0  0
 27 50  1  0  0  0  0
 28 30  1  0  0  0  0
 29 28  2  0  0  0  0
 30 51  1  0  0  0  0
 30  3  1  0  0  0  0
 31  5  1  0  0  0  0
 38 18  1  0  0  0  0
 39 18  1  0  0  0  0
 42 21  1  0  0  0  0
 43 22  1  0  0  0  0
 45 23  1  0  0  0  0
 47 24  1  0  0  0  0
 48 24  1  0  0  0  0
 49 27  1  0  0  0  0
M  END
>  <Pose>
1

>  <Score>
-4.23

$$$$
