
 OpenBabel03232221553D

 53 56  0  0  1  0  0  0  0  0999 V2000
    6.6110  -19.7300  -38.4010 B   0  0  0  0  0  0  0  0  0  0  0  0
    4.7770  -19.6820  -38.9140 C   0  0  0  0  0  0  0  0  0  0  0  0
    4.4230  -20.2190  -40.1310 C   0  0  0  0  0  0  0  0  0  0  0  0
    3.0930  -20.1770  -40.4870 C   0  0  0  0  0  0  0  0  0  0  0  0
    2.1390  -19.6060  -39.6400 C   0  0  0  0  0  0  0  0  0  0  0  0
    2.5260  -19.0740  -38.4250 C   0  0  0  0  0  0  0  0  0  0  0  0
    3.8390  -19.1080  -38.0580 C   0  0  0  0  0  0  0  0  0  0  0  0
    1.5240  -18.4570  -37.5010 C   0  0  0  0  0  0  0  0  0  0  0  0
    2.5710  -20.9120  -42.1630 B   0  0  0  0  0  0  0  0  0  0  0  0
    5.3640  -20.7690  -40.9360 O   0  0  0  0  0  0  0  0  0  0  0  0
    5.8750  -22.0700  -40.8960 C   0  0  0  0  0  0  0  0  0  0  0  0
    6.2690  -22.4290  -42.3280 C   0  0  1  0  0  0  0  0  0  0  0  0
    5.2000  -22.9940  -43.0210 O   0  0  0  0  0  0  0  0  0  0  0  0
    6.6880  -21.1560  -42.9890 C   0  0  0  0  0  0  0  0  0  0  0  0
    7.4580  -21.3490  -44.2020 N   0  0  0  0  0  4  0  0  0  0  0  0
    7.5670  -20.0790  -44.8390 C   0  0  0  0  0  0  0  0  0  0  0  0
    8.9540  -19.6770  -45.2320 C   0  0  1  0  0  0  0  0  0  0  0  0
    9.8310  -19.2910  -44.0940 C   0  0  0  0  0  0  0  0  0  0  0  0
   10.9320  -20.1790  -43.8480 N   0  0  0  0  0  0  0  0  0  0  0  0
   10.9740  -21.4690  -44.2310 C   0  0  0  0  0  0  0  0  0  0  0  0
   12.0200  -22.3140  -43.9970 C   0  0  0  0  0  0  0  0  0  0  0  0
   13.1220  -21.8310  -43.3220 C   0  0  0  0  0  0  0  0  0  0  0  0
   13.0870  -20.5150  -42.9270 C   0  0  0  0  0  0  0  0  0  0  0  0
   12.0160  -19.6920  -43.1790 C   0  0  0  0  0  0  0  0  0  0  0  0
   12.0200  -18.4910  -42.8020 O   0  0  0  0  0  0  0  0  0  0  0  0
    9.7360  -21.9360  -44.9640 C   0  0  1  0  0  0  0  0  0  0  0  0
    8.6580  -22.0530  -43.9610 C   0  0  0  0  0  0  0  0  0  0  0  0
    9.5110  -20.8730  -46.0120 C   0  0  0  0  0  0  0  0  0  0  0  0
    1.0950  -19.5670  -39.9110 H   0  0  0  0  0  0  0  0  0  0  0  0
    4.1130  -18.6820  -37.0980 H   0  0  0  0  0  0  0  0  0  0  0  0
    1.9610  -17.5360  -37.0730 H   0  0  0  0  0  0  0  0  0  0  0  0
    1.3440  -19.1510  -36.6320 H   0  0  0  0  0  0  0  0  0  0  0  0
    0.5560  -18.2650  -38.0170 H   0  0  0  0  0  0  0  0  0  0  0  0
    6.7050  -22.2190  -40.1940 H   0  0  0  0  0  0  0  0  0  0  0  0
    5.0590  -22.7670  -40.6150 H   0  0  0  0  0  0  0  0  0  0  0  0
    7.0490  -23.1880  -42.2540 H   0  0  0  0  0  0  0  0  0  0  0  0
    4.8920  -23.7660  -42.4680 H   0  0  0  0  0  0  0  0  0  0  0  0
    5.7750  -20.5870  -43.2590 H   0  0  0  0  0  0  0  0  0  0  0  0
    7.2780  -20.5000  -42.3170 H   0  0  0  0  0  0  0  0  0  0  0  0
    6.8450  -21.9620  -44.8210 H   0  0  0  0  0  0  0  0  0  0  0  0
    6.9400  -20.0190  -45.7780 H   0  0  0  0  0  0  0  0  0  0  0  0
    7.1610  -19.2330  -44.2090 H   0  0  0  0  0  0  0  0  0  0  0  0
    8.8580  -18.8530  -45.9960 H   0  0  0  0  0  0  0  0  0  0  0  0
   10.2840  -18.2830  -44.3280 H   0  0  0  0  0  0  0  0  0  0  0  0
    9.2600  -19.1110  -43.1430 H   0  0  0  0  0  0  0  0  0  0  0  0
   11.9490  -23.3320  -44.3490 H   0  0  0  0  0  0  0  0  0  0  0  0
   13.9520  -22.4930  -43.1340 H   0  0  0  0  0  0  0  0  0  0  0  0
   13.9390  -20.1020  -42.3930 H   0  0  0  0  0  0  0  0  0  0  0  0
    9.9720  -22.8770  -45.5060 H   0  0  0  0  0  0  0  0  0  0  0  0
    8.4020  -23.1540  -43.8940 H   0  0  0  0  0  0  0  0  0  0  0  0
    8.9920  -21.8070  -42.9090 H   0  0  0  0  0  0  0  0  0  0  0  0
    8.8090  -21.1610  -46.7930 H   0  0  0  0  0  0  0  0  0  0  0  0
   10.4900  -20.5100  -46.4270 H   0  0  0  0  0  0  0  0  0  0  0  0
  2  1  1  0  0  0  0
  2  7  1  0  0  0  0
  3  2  2  0  0  0  0
  4  3  1  0  0  0  0
  4  5  2  0  0  0  0
  5  6  1  0  0  0  0
  6  7  2  0  0  0  0
  6  8  1  0  0  0  0
  7 30  1  0  0  0  0
  8 31  1  0  0  0  0
  8 32  1  0  0  0  0
  9  4  1  0  0  0  0
 10 11  1  0  0  0  0
 10  3  1  0  0  0  0
 11 35  1  0  0  0  0
 11 34  1  0  0  0  0
 12 36  1  1  0  0  0
 12 11  1  0  0  0  0
 13 37  1  0  0  0  0
 13 12  1  0  0  0  0
 14 12  1  0  0  0  0
 14 39  1  0  0  0  0
 15 27  1  0  0  0  0
 15 14  1  0  0  0  0
 16 42  1  0  0  0  0
 16 15  1  0  0  0  0
 17 43  1  6  0  0  0
 17 16  1  0  0  0  0
 17 18  1  0  0  0  0
 18 19  1  0  0  0  0
 18 45  1  0  0  0  0
 19 24  1  0  0  0  0
 20 21  2  0  0  0  0
 20 19  1  0  0  0  0
 21 22  1  0  0  0  0
 22 47  1  0  0  0  0
 22 23  2  0  0  0  0
 23 48  1  0  0  0  0
 24 23  1  0  0  0  0
 24 25  2  0  0  0  0
 26 49  1  6  0  0  0
 26 20  1  0  0  0  0
 26 27  1  0  0  0  0
 27 50  1  0  0  0  0
 27 51  1  0  0  0  0
 28 17  1  0  0  0  0
 28 26  1  0  0  0  0
 29  5  1  0  0  0  0
 33  8  1  0  0  0  0
 38 14  1  0  0  0  0
 40 15  1  0  0  0  0
 41 16  1  0  0  0  0
 44 18  1  0  0  0  0
 46 21  1  0  0  0  0
 52 28  1  0  0  0  0
 53 28  1  0  0  0  0
M  END
>  <Pose>
1

>  <Score>
-3.67

$$$$
