
 OpenBabel03232221553D

 54 58  0  0  1  0  0  0  0  0999 V2000
    2.7010  -15.9060  -42.7580 Cl  0  0  0  0  0  0  0  0  0  0  0  0
    2.8390  -17.6700  -42.8340 C   0  0  0  0  0  0  0  0  0  0  0  0
    3.3400  -18.3840  -41.7740 C   0  0  0  0  0  0  0  0  0  0  0  0
    3.4430  -19.7480  -41.8410 C   0  0  0  0  0  0  0  0  0  0  0  0
    3.0420  -20.3970  -42.9820 C   0  0  0  0  0  0  0  0  0  0  0  0
    2.5290  -19.6990  -44.0740 C   0  0  0  0  0  0  0  0  0  0  0  0
    2.4380  -18.3280  -43.9760 C   0  0  0  0  0  0  0  0  0  0  0  0
    3.2270  -21.7960  -42.8660 N   0  0  0  0  0  0  0  0  0  0  0  0
    3.7760  -22.0260  -41.5770 C   0  0  0  0  0  0  0  0  0  0  0  0
    4.0830  -23.1410  -41.1060 O   0  0  0  0  0  0  0  0  0  0  0  0
    3.9350  -20.7450  -40.8630 C   0  0  1  0  0  0  0  0  0  0  0  0
    5.3000  -20.4980  -40.4670 N   0  0  0  0  0  0  0  0  0  0  0  0
    5.2730  -19.8440  -39.1960 C   0  0  1  0  0  0  0  0  0  0  0  0
    4.0670  -20.3730  -38.4560 C   0  0  2  0  0  0  0  0  0  0  0  0
    3.1630  -20.7700  -39.5950 C   0  0  1  0  0  0  0  0  0  0  0  0
    2.0090  -19.8380  -39.5600 C   0  0  0  0  0  0  0  0  0  0  0  0
    1.1980  -19.5470  -40.4750 O   0  0  0  0  0  0  0  0  0  0  0  0
    1.9800  -19.2990  -38.2220 N   0  0  0  0  0  0  0  0  0  0  0  0
    3.3290  -19.3200  -37.7120 C   0  0  0  0  0  0  0  0  0  0  0  0
    3.8130  -18.5930  -36.8050 O   0  0  0  0  0  0  0  0  0  0  0  0
    0.8190  -18.8180  -37.5040 C   0  0  0  0  0  0  0  0  0  0  0  0
    0.8540  -17.3270  -37.4130 C   0  0  0  0  0  0  0  0  0  0  0  0
    0.0940  -16.6590  -36.4770 C   0  0  0  0  0  0  0  0  0  0  0  0
    0.1440  -15.2770  -36.4130 C   0  0  0  0  0  0  0  0  0  0  0  0
    0.9390  -14.5330  -37.2630 C   0  0  0  0  0  0  0  0  0  0  0  0
    1.7020  -15.1910  -38.2020 C   0  0  0  0  0  0  0  0  0  0  0  0
    1.6440  -16.5650  -38.2550 C   0  0  0  0  0  0  0  0  0  0  0  0
   -0.7110  -17.4130  -35.6170 O   0  0  0  0  0  0  0  0  0  0  0  0
   -1.9600  -17.9040  -36.1140 C   0  0  0  0  0  0  0  0  0  0  0  0
    6.5510  -20.0730  -38.4180 C   0  0  2  0  0  0  0  0  0  0  0  0
    6.9850  -18.8360  -37.9490 O   0  0  0  0  0  0  0  0  0  0  0  0
    7.5950  -20.5390  -39.4270 C   0  0  0  0  0  0  0  0  0  0  0  0
    3.6350  -17.8020  -40.9110 H   0  0  0  0  0  0  0  0  0  0  0  0
    2.2110  -20.2040  -44.9760 H   0  0  0  0  0  0  0  0  0  0  0  0
    2.0450  -17.7240  -44.7980 H   0  0  0  0  0  0  0  0  0  0  0  0
    3.0130  -22.5580  -43.5740 H   0  0  0  0  0  0  0  0  0  0  0  0
    5.7860  -19.9490  -41.1830 H   0  0  0  0  0  0  0  0  0  0  0  0
    5.1540  -18.7700  -39.3300 H   0  0  0  0  0  0  0  0  0  0  0  0
    4.3260  -21.2150  -37.7870 H   0  0  0  0  0  0  0  0  0  0  0  0
    2.8480  -21.8210  -39.3870 H   0  0  0  0  0  0  0  0  0  0  0  0
   -0.1380  -19.1050  -37.9890 H   0  0  0  0  0  0  0  0  0  0  0  0
    0.7690  -19.2320  -36.4730 H   0  0  0  0  0  0  0  0  0  0  0  0
   -0.4450  -14.7470  -35.6880 H   0  0  0  0  0  0  0  0  0  0  0  0
    0.9920  -13.4540  -37.2290 H   0  0  0  0  0  0  0  0  0  0  0  0
    2.3460  -14.6640  -38.8970 H   0  0  0  0  0  0  0  0  0  0  0  0
    2.2360  -17.0610  -38.9810 H   0  0  0  0  0  0  0  0  0  0  0  0
   -2.5610  -17.0320  -36.4190 H   0  0  0  0  0  0  0  0  0  0  0  0
   -2.4520  -18.4820  -35.3020 H   0  0  0  0  0  0  0  0  0  0  0  0
   -1.8330  -18.5620  -36.9760 H   0  0  0  0  0  0  0  0  0  0  0  0
    6.4250  -20.7730  -37.5870 H   0  0  0  0  0  0  0  0  0  0  0  0
    7.3090  -18.2930  -38.7030 H   0  0  0  0  0  0  0  0  0  0  0  0
    8.5760  -20.0310  -39.2490 H   0  0  0  0  0  0  0  0  0  0  0  0
    7.6930  -21.6420  -39.4280 H   0  0  0  0  0  0  0  0  0  0  0  0
    7.3020  -20.2470  -40.4630 H   0  0  0  0  0  0  0  0  0  0  0  0
  2  1  1  0  0  0  0
  2  3  1  0  0  0  0
  3 33  1  0  0  0  0
  4  3  2  0  0  0  0
  5  8  1  0  0  0  0
  5  4  1  0  0  0  0
  6  7  1  0  0  0  0
  6  5  2  0  0  0  0
  7  2  2  0  0  0  0
  8  9  1  0  0  0  0
  9 10  2  0  0  0  0
  9 11  1  0  0  0  0
 11  4  1  6  0  0  0
 11 12  1  0  0  0  0
 11 15  1  0  0  0  0
 12 13  1  0  0  0  0
 13 38  1  6  0  0  0
 13 14  1  0  0  0  0
 13 30  1  0  0  0  0
 14 39  1  1  0  0  0
 14 19  1  0  0  0  0
 15 16  1  0  0  0  0
 15 40  1  1  0  0  0
 15 14  1  0  0  0  0
 16 18  1  0  0  0  0
 17 16  2  0  0  0  0
 18 19  1  0  0  0  0
 18 21  1  0  0  0  0
 19 20  2  0  0  0  0
 21 22  1  0  0  0  0
 21 42  1  0  0  0  0
 22 23  1  0  0  0  0
 23 24  2  0  0  0  0
 23 28  1  0  0  0  0
 24 43  1  0  0  0  0
 25 44  1  0  0  0  0
 25 24  1  0  0  0  0
 26 25  2  0  0  0  0
 27 26  1  0  0  0  0
 27 22  2  0  0  0  0
 29 28  1  0  0  0  0
 29 48  1  0  0  0  0
 30 31  1  0  0  0  0
 30 50  1  1  0  0  0
 32 52  1  0  0  0  0
 32 30  1  0  0  0  0
 34  6  1  0  0  0  0
 35  7  1  0  0  0  0
 36  8  1  0  0  0  0
 37 12  1  0  0  0  0
 41 21  1  0  0  0  0
 45 26  1  0  0  0  0
 46 27  1  0  0  0  0
 47 29  1  0  0  0  0
 49 29  1  0  0  0  0
 51 31  1  0  0  0  0
 53 32  1  0  0  0  0
 54 32  1  0  0  0  0
M  END
>  <Pose>
1

>  <Score>
-4.10

$$$$
