
 OpenBabel03232221553D

 53 56  0  0  0  0  0  0  0  0999 V2000
    4.0890  -12.2040  -40.2900 B   0  0  0  0  0  0  0  0  0  0  0  0
    2.5990  -12.8650  -39.2800 C   0  0  0  0  0  0  0  0  0  0  0  0
    2.2920  -12.2970  -38.0420 C   0  0  0  0  0  0  0  0  0  0  0  0
    1.2060  -12.7930  -37.3280 C   0  0  0  0  0  0  0  0  0  0  0  0
    0.4300  -13.8230  -37.8070 C   0  0  0  0  0  0  0  0  0  0  0  0
   -0.5650  -14.1170  -36.9210 N   0  0  0  0  0  0  0  0  0  0  0  0
   -0.3990  -13.2680  -35.8990 C   0  0  0  0  0  0  0  0  0  0  0  0
    0.6800  -12.4330  -36.1060 C   0  0  0  0  0  0  0  0  0  0  0  0
   -1.5650  -15.1490  -37.0980 C   0  0  0  0  0  0  0  0  0  0  0  0
   -0.9960  -16.5210  -36.8720 C   0  0  0  0  0  0  0  0  0  0  0  0
   -0.3690  -16.7410  -35.8170 O   0  0  0  0  0  0  0  0  0  0  0  0
   -1.1620  -17.5380  -37.8230 N   0  0  0  0  0  0  0  0  0  0  0  0
   -1.0320  -17.3240  -39.2470 C   0  0  0  0  0  0  0  0  0  0  0  0
   -0.0500  -18.3640  -39.7620 C   0  0  0  0  0  0  0  0  0  0  0  0
    0.5420  -19.0840  -38.7130 N   0  0  0  0  0  0  0  0  0  0  0  0
   -0.2620  -19.7680  -37.7860 C   0  0  0  0  0  0  0  0  0  0  0  0
   -1.4830  -18.9220  -37.4420 C   0  0  0  0  0  0  0  0  0  0  0  0
    1.9240  -18.9790  -38.4900 C   0  0  0  0  0  0  0  0  0  0  0  0
    2.6990  -20.1960  -38.8500 C   0  0  0  0  0  0  0  0  0  0  0  0
    2.0990  -21.0600  -39.5380 O   0  0  0  0  0  0  0  0  0  0  0  0
    4.0310  -20.4160  -38.4680 N   0  0  0  0  0  0  0  0  0  0  0  0
    4.6140  -21.7390  -38.5730 C   0  0  0  0  0  0  0  0  0  0  0  0
    5.8840  -21.6030  -39.3860 C   0  0  0  0  0  0  0  0  0  0  0  0
    6.7480  -20.8230  -38.6030 O   0  0  0  0  0  0  0  0  0  0  0  0
    6.2930  -19.5320  -38.4760 C   0  0  0  0  0  0  0  0  0  0  0  0
    4.9070  -19.3830  -37.9530 C   0  0  0  0  0  0  0  0  0  0  0  0
    0.7250  -14.3870  -39.0260 C   0  0  0  0  0  0  0  0  0  0  0  0
    1.8100  -13.8960  -39.7440 C   0  0  0  0  0  0  0  0  0  0  0  0
    2.9100  -11.4980  -37.6880 H   0  0  0  0  0  0  0  0  0  0  0  0
   -1.0340  -13.2410  -35.0190 H   0  0  0  0  0  0  0  0  0  0  0  0
    1.0770  -11.6490  -35.4840 H   0  0  0  0  0  0  0  0  0  0  0  0
   -2.4150  -15.0300  -36.3910 H   0  0  0  0  0  0  0  0  0  0  0  0
   -1.9550  -15.1650  -38.1390 H   0  0  0  0  0  0  0  0  0  0  0  0
   -0.7640  -16.2960  -39.5020 H   0  0  0  0  0  0  0  0  0  0  0  0
   -2.0120  -17.5200  -39.7670 H   0  0  0  0  0  0  0  0  0  0  0  0
    0.7660  -17.7720  -40.2710 H   0  0  0  0  0  0  0  0  0  0  0  0
   -0.4990  -18.9720  -40.5790 H   0  0  0  0  0  0  0  0  0  0  0  0
   -0.5480  -20.7910  -38.0460 H   0  0  0  0  0  0  0  0  0  0  0  0
    0.3070  -19.8530  -36.8120 H   0  0  0  0  0  0  0  0  0  0  0  0
   -2.2950  -19.2400  -38.1260 H   0  0  0  0  0  0  0  0  0  0  0  0
   -1.7440  -18.9600  -36.3870 H   0  0  0  0  0  0  0  0  0  0  0  0
    2.3090  -18.0660  -39.0250 H   0  0  0  0  0  0  0  0  0  0  0  0
    2.0840  -18.7470  -37.4010 H   0  0  0  0  0  0  0  0  0  0  0  0
    4.9490  -22.0480  -37.5390 H   0  0  0  0  0  0  0  0  0  0  0  0
    3.9100  -22.4810  -38.9760 H   0  0  0  0  0  0  0  0  0  0  0  0
    6.3560  -22.6100  -39.4820 H   0  0  0  0  0  0  0  0  0  0  0  0
    5.6540  -21.1480  -40.3570 H   0  0  0  0  0  0  0  0  0  0  0  0
    6.9810  -19.0050  -37.7730 H   0  0  0  0  0  0  0  0  0  0  0  0
    6.4490  -19.0420  -39.4600 H   0  0  0  0  0  0  0  0  0  0  0  0
    4.9250  -19.4350  -36.8460 H   0  0  0  0  0  0  0  0  0  0  0  0
    4.5510  -18.3650  -38.2040 H   0  0  0  0  0  0  0  0  0  0  0  0
    0.1360  -15.2020  -39.4380 H   0  0  0  0  0  0  0  0  0  0  0  0
    2.0250  -14.3540  -40.7010 H   0  0  0  0  0  0  0  0  0  0  0  0
  1  2  1  0  0  0  0
  2  3  1  0  0  0  0
  3 29  1  0  0  0  0
  3  4  2  0  0  0  0
  4  8  1  0  0  0  0
  5  4  1  0  0  0  0
  5  6  1  0  0  0  0
  6  7  1  0  0  0  0
  7 30  1  0  0  0  0
  8  7  2  0  0  0  0
  8 31  1  0  0  0  0
  9  6  1  0  0  0  0
  9 10  1  0  0  0  0
  9 32  1  0  0  0  0
 10 11  2  0  0  0  0
 12 17  1  0  0  0  0
 12 10  1  0  0  0  0
 13 12  1  0  0  0  0
 14 13  1  0  0  0  0
 14 15  1  0  0  0  0
 15 18  1  0  0  0  0
 15 16  1  0  0  0  0
 16 17  1  0  0  0  0
 16 39  1  0  0  0  0
 17 41  1  0  0  0  0
 18 43  1  0  0  0  0
 19 18  1  0  0  0  0
 19 21  1  0  0  0  0
 20 19  2  0  0  0  0
 21 26  1  0  0  0  0
 22 21  1  0  0  0  0
 22 44  1  0  0  0  0
 23 24  1  0  0  0  0
 23 22  1  0  0  0  0
 24 25  1  0  0  0  0
 25 26  1  0  0  0  0
 25 48  1  0  0  0  0
 26 50  1  0  0  0  0
 27  5  2  0  0  0  0
 28  2  2  0  0  0  0
 28 27  1  0  0  0  0
 33  9  1  0  0  0  0
 34 13  1  0  0  0  0
 35 13  1  0  0  0  0
 36 14  1  0  0  0  0
 37 14  1  0  0  0  0
 38 16  1  0  0  0  0
 40 17  1  0  0  0  0
 42 18  1  0  0  0  0
 45 22  1  0  0  0  0
 46 23  1  0  0  0  0
 47 23  1  0  0  0  0
 49 25  1  0  0  0  0
 51 26  1  0  0  0  0
 52 27  1  0  0  0  0
 53 28  1  0  0  0  0
M  END
>  <Pose>
1

>  <Score>
-3.95

$$$$
