
 OpenBabel03232221553D

 47 51  0  0  1  0  0  0  0  0999 V2000
    4.9160  -25.6220  -45.1790 I   0  0  0  0  0  0  0  0  0  0  0  0
    4.8420  -24.2670  -43.5680 C   0  0  0  0  0  0  0  0  0  0  0  0
    3.8580  -24.3410  -42.6050 C   0  0  0  0  0  0  0  0  0  0  0  0
    3.8060  -23.4440  -41.5360 C   0  0  0  0  0  0  0  0  0  0  0  0
    4.7510  -22.4730  -41.4420 C   0  0  0  0  0  0  0  0  0  0  0  0
    5.7330  -22.4090  -42.4140 C   0  0  0  0  0  0  0  0  0  0  0  0
    5.8010  -23.2850  -43.4760 C   0  0  0  0  0  0  0  0  0  0  0  0
    4.7850  -21.5000  -40.3790 N   0  0  0  0  0  0  0  0  0  0  0  0
    5.8460  -21.1230  -39.6880 N   0  0  0  0  0  0  0  0  0  0  0  0
    5.5360  -20.1930  -38.7620 C   0  0  0  0  0  0  0  0  0  0  0  0
    6.3180  -19.5900  -37.8990 C   0  0  0  0  0  0  0  0  0  0  0  0
    4.1790  -19.9660  -38.8780 C   0  0  0  0  0  0  0  0  0  0  0  0
    3.4530  -19.1100  -38.1430 C   0  0  0  0  0  0  0  0  0  0  0  0
    2.0640  -19.0410  -38.4390 N   0  0  0  0  0  4  0  0  0  0  0  0
    1.3060  -17.8950  -37.9640 C   0  0  1  0  0  0  0  0  0  0  0  0
   -0.1120  -18.3210  -37.6160 C   0  0  0  0  0  0  0  0  0  0  0  0
   -0.8280  -17.1900  -37.0920 N   0  0  2  0  0  0  0  0  0  0  0  0
   -0.8560  -16.1710  -38.1360 C   0  0  0  0  0  0  0  0  0  0  0  0
    0.4660  -15.7120  -38.4610 N   0  0  1  0  0  0  0  0  0  0  0  0
    1.1430  -15.2300  -37.2770 C   0  0  0  0  0  0  0  0  0  0  0  0
    1.2010  -16.2270  -36.2420 N   0  0  1  0  0  0  0  0  0  0  0  0
   -0.1360  -16.7130  -35.9160 C   0  0  0  0  0  0  0  0  0  0  0  0
    1.9690  -17.3550  -36.7160 C   0  0  0  0  0  0  0  0  0  0  0  0
    1.2150  -16.8170  -39.0020 C   0  0  0  0  0  0  0  0  0  0  0  0
    3.7500  -20.7960  -39.8910 C   0  0  0  0  0  0  0  0  0  0  0  0
    2.5660  -20.8860  -40.3050 O   0  0  0  0  0  0  0  0  0  0  0  0
    3.1250  -25.1320  -42.7210 H   0  0  0  0  0  0  0  0  0  0  0  0
    3.0290  -23.5150  -40.7900 H   0  0  0  0  0  0  0  0  0  0  0  0
    6.4840  -21.6270  -42.3280 H   0  0  0  0  0  0  0  0  0  0  0  0
    6.5930  -23.2090  -44.2320 H   0  0  0  0  0  0  0  0  0  0  0  0
    6.8180  -21.4890  -39.8240 H   0  0  0  0  0  0  0  0  0  0  0  0
    5.9170  -18.8610  -37.2180 H   0  0  0  0  0  0  0  0  0  0  0  0
    7.3720  -19.8050  -37.8520 H   0  0  0  0  0  0  0  0  0  0  0  0
    3.9130  -18.5080  -37.3690 H   0  0  0  0  0  0  0  0  0  0  0  0
    1.5480  -19.7630  -38.9790 H   0  0  0  0  0  0  0  0  0  0  0  0
   -0.5590  -18.7060  -38.5620 H   0  0  0  0  0  0  0  0  0  0  0  0
   -0.0530  -19.1780  -36.9300 H   0  0  0  0  0  0  0  0  0  0  0  0
   -1.5630  -15.3520  -37.8990 H   0  0  0  0  0  0  0  0  0  0  0  0
   -1.2680  -16.6890  -39.0490 H   0  0  0  0  0  0  0  0  0  0  0  0
    0.5940  -14.3460  -36.8600 H   0  0  0  0  0  0  0  0  0  0  0  0
    2.1780  -14.9380  -37.5390 H   0  0  0  0  0  0  0  0  0  0  0  0
    0.0050  -17.5900  -35.2400 H   0  0  0  0  0  0  0  0  0  0  0  0
   -0.7290  -15.9580  -35.3590 H   0  0  0  0  0  0  0  0  0  0  0  0
    2.9820  -16.9790  -36.9860 H   0  0  0  0  0  0  0  0  0  0  0  0
    2.0160  -18.1730  -35.9740 H   0  0  0  0  0  0  0  0  0  0  0  0
    0.7410  -17.2420  -39.9080 H   0  0  0  0  0  0  0  0  0  0  0  0
    2.2250  -16.4490  -39.3040 H   0  0  0  0  0  0  0  0  0  0  0  0
  1  2  1  0  0  0  0
  2  7  2  0  0  0  0
  2  3  1  0  0  0  0
  3  4  2  0  0  0  0
  4  5  1  0  0  0  0
  4 28  1  0  0  0  0
  5  8  1  0  0  0  0
  6 29  1  0  0  0  0
  6  5  2  0  0  0  0
  7  6  1  0  0  0  0
  8 25  1  0  0  0  0
  8  9  1  0  0  0  0
  9 10  1  0  0  0  0
 10 11  1  0  0  0  0
 11 33  1  0  0  0  0
 11 32  1  0  0  0  0
 12 10  2  0  0  0  0
 12 13  1  0  0  0  0
 13 34  1  0  0  0  0
 14 13  2  0  0  0  0
 15 14  1  6  0  0  0
 15 16  1  0  0  0  0
 15 23  1  0  0  0  0
 16 17  1  0  0  0  0
 16 37  1  0  0  0  0
 17 18  1  6  0  0  0
 17 22  1  0  0  0  0
 18 38  1  0  0  0  0
 19 24  1  1  0  0  0
 19 18  1  0  0  0  0
 19 20  1  0  0  0  0
 20 40  1  0  0  0  0
 21 20  1  6  0  0  0
 21 22  1  0  0  0  0
 22 43  1  0  0  0  0
 22 42  1  0  0  0  0
 23 21  1  0  0  0  0
 23 45  1  0  0  0  0
 24 15  1  0  0  0  0
 25 12  1  0  0  0  0
 26 25  2  0  0  0  0
 27  3  1  0  0  0  0
 30  7  1  0  0  0  0
 31  9  1  0  0  0  0
 35 14  1  0  0  0  0
 36 16  1  0  0  0  0
 39 18  1  0  0  0  0
 41 20  1  0  0  0  0
 44 23  1  0  0  0  0
 46 24  1  0  0  0  0
 47 24  1  0  0  0  0
M  END
>  <Pose>
1

>  <Score>
-4.05

$$$$
