
 OpenBabel03232221553D

 61 64  0  0  1  0  0  0  0  0999 V2000
   12.3510  -22.3470  -44.3900 S   0  0  0  0  0  0  0  0  0  0  0  0
   13.3230  -22.3540  -43.2120 O   0  0  0  0  0  0  0  0  0  0  0  0
   13.2120  -22.8140  -45.5650 O   0  0  0  0  0  0  0  0  0  0  0  0
   11.7740  -20.8290  -44.7360 N   0  0  0  0  0  0  0  0  0  0  0  0
   12.4070  -19.6390  -44.4330 C   0  0  1  0  0  0  0  0  0  0  0  0
   12.8280  -19.0430  -45.7840 C   0  0  0  0  0  0  0  0  0  0  0  0
   11.6640  -19.4370  -46.6660 C   0  0  0  0  0  0  0  0  0  0  0  0
   11.1480  -20.7150  -46.0500 C   0  0  0  0  0  0  0  0  0  0  0  0
   11.3930  -18.7030  -43.7970 C   0  0  0  0  0  0  0  0  0  0  0  0
   10.5210  -19.2460  -43.1050 O   0  0  0  0  0  0  0  0  0  0  0  0
   11.4940  -17.3180  -44.0160 N   0  0  0  0  0  0  0  0  0  0  0  0
   12.6190  -16.5800  -43.4960 C   0  0  0  0  0  0  0  0  0  0  0  0
   12.6780  -15.1490  -43.8680 C   0  0  0  0  0  0  0  0  0  0  0  0
   13.1450  -14.2520  -42.8710 N   0  0  0  0  0  0  0  0  0  0  0  0
   12.3840  -14.2160  -41.6650 C   0  0  0  0  0  0  0  0  0  0  0  0
   13.3540  -14.0910  -40.5070 C   0  0  0  0  0  0  0  0  0  0  0  0
   14.2850  -12.9250  -40.7750 C   0  0  0  0  0  0  0  0  0  0  0  0
   13.4570  -11.7510  -41.2230 C   0  0  0  0  0  0  0  0  0  0  0  0
   13.0480  -11.7910  -42.6480 C   0  0  0  0  0  0  0  0  0  0  0  0
   13.4830  -12.9800  -43.4190 C   0  0  0  0  0  0  0  0  0  0  0  0
   11.1370  -23.5640  -44.1320 C   0  0  0  0  0  0  0  0  0  0  0  0
    9.7870  -23.2200  -44.3090 C   0  0  0  0  0  0  0  0  0  0  0  0
    8.7480  -24.0750  -44.0760 C   0  0  0  0  0  0  0  0  0  0  0  0
    9.0640  -25.3490  -43.6410 C   0  0  0  0  0  0  0  0  0  0  0  0
   10.3520  -25.7500  -43.4490 C   0  0  0  0  0  0  0  0  0  0  0  0
   11.3710  -24.8400  -43.7020 C   0  0  0  0  0  0  0  0  0  0  0  0
   12.9980  -25.4620  -43.5340 Cl  0  0  0  0  0  0  0  0  0  0  0  0
    7.9810  -26.2600  -43.3980 N   0  0  0  0  0  0  0  0  0  0  0  0
    6.6390  -25.8280  -43.6090 C   0  0  0  0  0  0  0  0  0  0  0  0
    5.7030  -26.3860  -43.0110 O   0  0  0  0  0  0  0  0  0  0  0  0
    6.4270  -24.7070  -44.5590 C   0  0  0  0  0  0  0  0  0  0  0  0
    7.4170  -23.7290  -44.2530 O   0  0  0  0  0  0  0  0  0  0  0  0
   13.3220  -19.6350  -43.8390 H   0  0  0  0  0  0  0  0  0  0  0  0
   13.0300  -17.9780  -45.7380 H   0  0  0  0  0  0  0  0  0  0  0  0
   13.7440  -19.5730  -46.1000 H   0  0  0  0  0  0  0  0  0  0  0  0
   10.9240  -18.6030  -46.5970 H   0  0  0  0  0  0  0  0  0  0  0  0
   11.9610  -19.6360  -47.7030 H   0  0  0  0  0  0  0  0  0  0  0  0
   11.3890  -21.6020  -46.6790 H   0  0  0  0  0  0  0  0  0  0  0  0
   10.0600  -20.6330  -45.8870 H   0  0  0  0  0  0  0  0  0  0  0  0
   10.7780  -16.7780  -44.5430 H   0  0  0  0  0  0  0  0  0  0  0  0
   12.5370  -16.6250  -42.3700 H   0  0  0  0  0  0  0  0  0  0  0  0
   13.5790  -17.0640  -43.7370 H   0  0  0  0  0  0  0  0  0  0  0  0
   11.6840  -14.8220  -44.1990 H   0  0  0  0  0  0  0  0  0  0  0  0
   13.3600  -15.0430  -44.7560 H   0  0  0  0  0  0  0  0  0  0  0  0
   11.7010  -15.0740  -41.5440 H   0  0  0  0  0  0  0  0  0  0  0  0
   11.7510  -13.3050  -41.6650 H   0  0  0  0  0  0  0  0  0  0  0  0
   12.8130  -13.8380  -39.5510 H   0  0  0  0  0  0  0  0  0  0  0  0
   13.8980  -15.0300  -40.2990 H   0  0  0  0  0  0  0  0  0  0  0  0
   14.9130  -12.6610  -39.9320 H   0  0  0  0  0  0  0  0  0  0  0  0
   14.9430  -13.2080  -41.6220 H   0  0  0  0  0  0  0  0  0  0  0  0
   14.0330  -10.8230  -40.9370 H   0  0  0  0  0  0  0  0  0  0  0  0
   12.5320  -11.7070  -40.5970 H   0  0  0  0  0  0  0  0  0  0  0  0
   11.9420  -11.6040  -42.7730 H   0  0  0  0  0  0  0  0  0  0  0  0
   13.5130  -10.8930  -43.1530 H   0  0  0  0  0  0  0  0  0  0  0  0
   14.5760  -12.9550  -43.6050 H   0  0  0  0  0  0  0  0  0  0  0  0
   13.0190  -12.8980  -44.4380 H   0  0  0  0  0  0  0  0  0  0  0  0
    9.5570  -22.2090  -44.6530 H   0  0  0  0  0  0  0  0  0  0  0  0
   10.5600  -26.7600  -43.1070 H   0  0  0  0  0  0  0  0  0  0  0  0
    8.2060  -27.2310  -43.0670 H   0  0  0  0  0  0  0  0  0  0  0  0
    5.4310  -24.2640  -44.5100 H   0  0  0  0  0  0  0  0  0  0  0  0
    6.6680  -25.0680  -45.5960 H   0  0  0  0  0  0  0  0  0  0  0  0
  1 21  1  0  0  0  0
  1  2  2  0  0  0  0
  3  1  2  0  0  0  0
  4  5  1  0  0  0  0
  4  1  1  0  0  0  0
  5 33  1  1  0  0  0
  5  9  1  0  0  0  0
  6 34  1  0  0  0  0
  6  5  1  0  0  0  0
  7 36  1  0  0  0  0
  7  8  1  0  0  0  0
  7  6  1  0  0  0  0
  8 39  1  0  0  0  0
  8  4  1  0  0  0  0
  9 10  2  0  0  0  0
 11  9  1  0  0  0  0
 11 12  1  0  0  0  0
 12 41  1  0  0  0  0
 13 12  1  0  0  0  0
 13 14  1  0  0  0  0
 14 15  1  0  0  0  0
 15 45  1  0  0  0  0
 15 16  1  0  0  0  0
 16 48  1  0  0  0  0
 16 47  1  0  0  0  0
 17 16  1  0  0  0  0
 17 49  1  0  0  0  0
 18 51  1  0  0  0  0
 18 17  1  0  0  0  0
 18 52  1  0  0  0  0
 19 18  1  0  0  0  0
 20 14  1  0  0  0  0
 20 19  1  0  0  0  0
 21 26  1  0  0  0  0
 22 21  2  0  0  0  0
 22 23  1  0  0  0  0
 23 24  2  0  0  0  0
 24 25  1  0  0  0  0
 24 28  1  0  0  0  0
 25 58  1  0  0  0  0
 26 27  1  0  0  0  0
 26 25  2  0  0  0  0
 28 59  1  0  0  0  0
 29 28  1  0  0  0  0
 29 30  2  0  0  0  0
 31 60  1  0  0  0  0
 31 32  1  0  0  0  0
 31 29  1  0  0  0  0
 32 23  1  0  0  0  0
 35  6  1  0  0  0  0
 37  7  1  0  0  0  0
 38  8  1  0  0  0  0
 40 11  1  0  0  0  0
 42 12  1  0  0  0  0
 43 13  1  0  0  0  0
 44 13  1  0  0  0  0
 46 15  1  0  0  0  0
 50 17  1  0  0  0  0
 53 19  1  0  0  0  0
 54 19  1  0  0  0  0
 55 20  1  0  0  0  0
 56 20  1  0  0  0  0
 57 22  1  0  0  0  0
 61 31  1  0  0  0  0
M  END
>  <Pose>
1

>  <Score>
-3.81

$$$$
