
 OpenBabel03232221553D

 42 45  0  0  0  0  0  0  0  0999 V2000
    0.1660  -17.2700  -36.5620 Cl  0  0  0  0  0  0  0  0  0  0  0  0
    1.5050  -17.9490  -37.4910 C   0  0  0  0  0  0  0  0  0  0  0  0
    1.4970  -18.0150  -38.8550 C   0  0  0  0  0  0  0  0  0  0  0  0
    2.5230  -18.5380  -39.6150 C   0  0  0  0  0  0  0  0  0  0  0  0
    3.6310  -19.0250  -38.9290 C   0  0  0  0  0  0  0  0  0  0  0  0
    3.6460  -18.9610  -37.5300 C   0  0  0  0  0  0  0  0  0  0  0  0
    2.6030  -18.4330  -36.8230 C   0  0  0  0  0  0  0  0  0  0  0  0
    4.7200  -19.5740  -39.6400 N   0  0  0  0  0  0  0  0  0  0  0  0
    5.9710  -19.1950  -39.5270 N   0  0  0  0  0  0  0  0  0  0  0  0
    6.6770  -19.9540  -40.3590 N   0  0  0  0  0  0  0  0  0  0  0  0
    5.8790  -20.8230  -41.0080 C   0  0  0  0  0  0  0  0  0  0  0  0
    4.6510  -20.5690  -40.5430 C   0  0  0  0  0  0  0  0  0  0  0  0
    3.8260  -21.4640  -41.2090 C   0  0  0  0  0  0  0  0  0  0  0  0
    2.5880  -21.5310  -41.0380 O   0  0  0  0  0  0  0  0  0  0  0  0
    4.5150  -22.2430  -42.0570 N   0  0  0  0  0  0  0  0  0  0  0  0
    5.7940  -21.8450  -41.9320 C   0  0  0  0  0  0  0  0  0  0  0  0
    6.7750  -22.3340  -42.5680 O   0  0  0  0  0  0  0  0  0  0  0  0
    4.0410  -23.2750  -42.9170 C   0  0  0  0  0  0  0  0  0  0  0  0
    4.7160  -24.4650  -43.1060 C   0  0  0  0  0  0  0  0  0  0  0  0
    4.2500  -25.4600  -43.9400 C   0  0  0  0  0  0  0  0  0  0  0  0
    3.0700  -25.3050  -44.6370 C   0  0  0  0  0  0  0  0  0  0  0  0
    2.3850  -24.1210  -44.4600 C   0  0  0  0  0  0  0  0  0  0  0  0
    2.8600  -23.1300  -43.6200 C   0  0  0  0  0  0  0  0  0  0  0  0
    2.6070  -26.3140  -45.4780 O   0  0  0  0  0  0  0  0  0  0  0  0
    1.4270  -27.0240  -45.2600 C   0  0  0  0  0  0  0  0  0  0  0  0
    4.9300  -26.6580  -44.1300 O   0  0  0  0  0  0  0  0  0  0  0  0
    6.0870  -26.6270  -44.9450 C   0  0  0  0  0  0  0  0  0  0  0  0
    0.6250  -17.6310  -39.3850 H   0  0  0  0  0  0  0  0  0  0  0  0
    2.4840  -18.5750  -40.6970 H   0  0  0  0  0  0  0  0  0  0  0  0
    4.5140  -19.3420  -36.9830 H   0  0  0  0  0  0  0  0  0  0  0  0
    2.6010  -18.3760  -35.7270 H   0  0  0  0  0  0  0  0  0  0  0  0
    6.3540  -18.4300  -38.8960 H   0  0  0  0  0  0  0  0  0  0  0  0
    7.7150  -19.8630  -40.4720 H   0  0  0  0  0  0  0  0  0  0  0  0
    5.6400  -24.5940  -42.5640 H   0  0  0  0  0  0  0  0  0  0  0  0
    1.4580  -23.9980  -45.0050 H   0  0  0  0  0  0  0  0  0  0  0  0
    2.3120  -22.2030  -43.4880 H   0  0  0  0  0  0  0  0  0  0  0  0
    1.3970  -28.0020  -45.7820 H   0  0  0  0  0  0  0  0  0  0  0  0
    1.2620  -27.2530  -44.1740 H   0  0  0  0  0  0  0  0  0  0  0  0
    0.5740  -26.4030  -45.5970 H   0  0  0  0  0  0  0  0  0  0  0  0
    6.7550  -25.8070  -44.6310 H   0  0  0  0  0  0  0  0  0  0  0  0
    6.6310  -27.5890  -44.9330 H   0  0  0  0  0  0  0  0  0  0  0  0
    5.7580  -26.4640  -45.9910 H   0  0  0  0  0  0  0  0  0  0  0  0
  2  7  1  0  0  0  0
  2  1  1  0  0  0  0
  3  2  2  0  0  0  0
  4  5  2  0  0  0  0
  4  3  1  0  0  0  0
  5  6  1  0  0  0  0
  6 30  1  0  0  0  0
  6  7  2  0  0  0  0
  7 31  1  0  0  0  0
  8  9  1  0  0  0  0
  8  5  1  0  0  0  0
  9 32  1  0  0  0  0
 10  9  1  0  0  0  0
 11 12  2  0  0  0  0
 11 10  1  0  0  0  0
 12  8  1  0  0  0  0
 13 14  2  0  0  0  0
 13 12  1  0  0  0  0
 15 16  1  0  0  0  0
 15 13  1  0  0  0  0
 16 11  1  0  0  0  0
 17 16  2  0  0  0  0
 18 15  1  0  0  0  0
 19 18  1  0  0  0  0
 19 34  1  0  0  0  0
 20 19  2  0  0  0  0
 21 22  2  0  0  0  0
 21 20  1  0  0  0  0
 22 23  1  0  0  0  0
 23 36  1  0  0  0  0
 23 18  2  0  0  0  0
 24 25  1  0  0  0  0
 24 21  1  0  0  0  0
 25 38  1  0  0  0  0
 26 20  1  0  0  0  0
 27 41  1  0  0  0  0
 27 40  1  0  0  0  0
 27 26  1  0  0  0  0
 28  3  1  0  0  0  0
 29  4  1  0  0  0  0
 33 10  1  0  0  0  0
 35 22  1  0  0  0  0
 37 25  1  0  0  0  0
 39 25  1  0  0  0  0
 42 27  1  0  0  0  0
M  END
>  <Pose>
1

>  <Score>
-4.51

$$$$
