
 OpenBabel03232221553D

 42 45  0  0  0  0  0  0  0  0999 V2000
    6.6150  -21.0040  -45.4010 Cl  0  0  0  0  0  0  0  0  0  0  0  0
    6.4090  -20.5870  -43.6950 C   0  0  0  0  0  0  0  0  0  0  0  0
    6.0590  -21.5630  -42.7840 C   0  0  0  0  0  0  0  0  0  0  0  0
    5.8900  -21.2840  -41.4530 C   0  0  0  0  0  0  0  0  0  0  0  0
    6.0650  -19.9970  -40.9690 C   0  0  0  0  0  0  0  0  0  0  0  0
    6.4160  -19.0300  -41.8980 C   0  0  0  0  0  0  0  0  0  0  0  0
    6.5870  -19.3080  -43.2380 C   0  0  0  0  0  0  0  0  0  0  0  0
    5.8980  -19.6710  -39.6000 N   0  0  0  0  0  0  0  0  0  0  0  0
    6.8690  -19.4980  -38.7250 N   0  0  0  0  0  0  0  0  0  0  0  0
    6.2750  -19.2090  -37.5740 N   0  0  0  0  0  0  0  0  0  0  0  0
    4.9370  -19.1940  -37.6990 C   0  0  0  0  0  0  0  0  0  0  0  0
    4.7100  -19.4890  -38.9900 C   0  0  0  0  0  0  0  0  0  0  0  0
    3.3340  -19.4740  -39.1170 C   0  0  0  0  0  0  0  0  0  0  0  0
    2.7510  -19.7130  -40.2160 O   0  0  0  0  0  0  0  0  0  0  0  0
    2.7260  -19.1820  -37.9540 N   0  0  0  0  0  0  0  0  0  0  0  0
    3.7240  -19.0080  -37.0710 C   0  0  0  0  0  0  0  0  0  0  0  0
    3.5490  -18.7160  -35.8510 O   0  0  0  0  0  0  0  0  0  0  0  0
    1.3170  -19.0910  -37.7580 C   0  0  0  0  0  0  0  0  0  0  0  0
    0.7070  -17.9330  -37.3210 C   0  0  0  0  0  0  0  0  0  0  0  0
   -0.6540  -17.8210  -37.1240 C   0  0  0  0  0  0  0  0  0  0  0  0
   -1.4440  -18.9230  -37.3770 C   0  0  0  0  0  0  0  0  0  0  0  0
   -0.8890  -20.1070  -37.8160 C   0  0  0  0  0  0  0  0  0  0  0  0
    0.4890  -20.1710  -37.9990 C   0  0  0  0  0  0  0  0  0  0  0  0
   -1.7170  -21.1950  -38.0600 O   0  0  0  0  0  0  0  0  0  0  0  0
   -2.0070  -21.6300  -39.3590 C   0  0  0  0  0  0  0  0  0  0  0  0
   -1.2270  -16.6150  -36.6760 O   0  0  0  0  0  0  0  0  0  0  0  0
   -0.4610  -15.4340  -36.7280 C   0  0  0  0  0  0  0  0  0  0  0  0
    5.9210  -22.5820  -43.1690 H   0  0  0  0  0  0  0  0  0  0  0  0
    5.6150  -22.0550  -40.7460 H   0  0  0  0  0  0  0  0  0  0  0  0
    6.5550  -18.0090  -41.5130 H   0  0  0  0  0  0  0  0  0  0  0  0
    6.8580  -18.5360  -43.9210 H   0  0  0  0  0  0  0  0  0  0  0  0
    7.8950  -19.5770  -38.9230 H   0  0  0  0  0  0  0  0  0  0  0  0
    6.7800  -19.0150  -36.6820 H   0  0  0  0  0  0  0  0  0  0  0  0
    1.3730  -17.0850  -37.1320 H   0  0  0  0  0  0  0  0  0  0  0  0
   -2.5200  -18.8370  -37.2220 H   0  0  0  0  0  0  0  0  0  0  0  0
    0.9320  -21.1170  -38.3490 H   0  0  0  0  0  0  0  0  0  0  0  0
   -2.7160  -20.8880  -39.8050 H   0  0  0  0  0  0  0  0  0  0  0  0
   -1.1110  -21.7780  -39.9830 H   0  0  0  0  0  0  0  0  0  0  0  0
   -2.5090  -22.6370  -39.2650 H   0  0  0  0  0  0  0  0  0  0  0  0
    0.0530  -15.2960  -37.6910 H   0  0  0  0  0  0  0  0  0  0  0  0
   -1.1090  -14.5550  -36.5510 H   0  0  0  0  0  0  0  0  0  0  0  0
    0.3310  -15.4180  -35.9380 H   0  0  0  0  0  0  0  0  0  0  0  0
  1  2  1  0  0  0  0
  2  7  2  0  0  0  0
  2  3  1  0  0  0  0
  3  4  2  0  0  0  0
  4  5  1  0  0  0  0
  4 29  1  0  0  0  0
  5  8  1  0  0  0  0
  6 30  1  0  0  0  0
  6  5  2  0  0  0  0
  7  6  1  0  0  0  0
  8 12  1  0  0  0  0
  8  9  1  0  0  0  0
  9 10  1  0  0  0  0
 10 33  1  0  0  0  0
 11 10  1  0  0  0  0
 11 16  1  0  0  0  0
 12 11  2  0  0  0  0
 13 12  1  0  0  0  0
 13 15  1  0  0  0  0
 14 13  2  0  0  0  0
 15 18  1  0  0  0  0
 15 16  1  0  0  0  0
 16 17  2  0  0  0  0
 18 19  1  0  0  0  0
 19 34  1  0  0  0  0
 19 20  2  0  0  0  0
 20 26  1  0  0  0  0
 21 35  1  0  0  0  0
 21 20  1  0  0  0  0
 22 21  2  0  0  0  0
 23 22  1  0  0  0  0
 23 18  2  0  0  0  0
 24 22  1  0  0  0  0
 25 39  1  0  0  0  0
 25 24  1  0  0  0  0
 27 26  1  0  0  0  0
 27 41  1  0  0  0  0
 27 42  1  0  0  0  0
 28  3  1  0  0  0  0
 31  7  1  0  0  0  0
 32  9  1  0  0  0  0
 36 23  1  0  0  0  0
 37 25  1  0  0  0  0
 38 25  1  0  0  0  0
 40 27  1  0  0  0  0
M  END
>  <Pose>
1

>  <Score>
-5.31

$$$$
