
 OpenBabel03232221553D

 43 47  0  0  1  0  0  0  0  0999 V2000
   -1.4030  -19.6880  -39.1760 Cl  0  0  0  0  0  0  0  0  0  0  0  0
    0.3360  -19.7240  -38.9850 C   0  0  0  0  0  0  0  0  0  0  0  0
    1.1780  -20.3770  -39.8700 C   0  0  0  0  0  0  0  0  0  0  0  0
    2.5430  -20.3970  -39.7090 C   0  0  1  0  0  0  0  0  0  0  0  0
    3.0450  -19.7320  -38.6170 C   0  0  0  0  0  0  0  0  0  0  0  0
    2.2570  -19.0670  -37.7070 C   0  0  0  0  0  0  0  0  0  0  0  0
    0.8740  -19.0660  -37.8990 C   0  0  0  0  0  0  0  0  0  0  0  0
    4.5070  -19.7330  -38.4120 C   0  0  0  0  0  0  0  0  0  0  0  0
    5.2380  -19.2060  -37.4990 N   0  0  0  0  0  0  0  0  0  0  0  0
    6.6370  -19.4690  -37.7070 C   0  0  0  0  0  0  0  0  0  0  0  0
    6.6790  -20.2870  -38.9580 C   0  0  0  0  0  0  0  0  0  0  0  0
    5.3020  -20.4210  -39.3550 N   0  0  0  0  0  0  0  0  0  0  0  0
    4.7190  -21.1020  -40.4850 C   0  0  0  0  0  0  0  0  0  0  0  0
    5.2630  -21.8100  -41.4940 N   0  0  0  0  0  0  0  0  0  0  0  0
    4.3020  -22.2420  -42.2930 N   0  0  0  0  0  0  0  0  0  0  0  0
    3.1570  -21.7880  -41.7580 C   0  0  0  0  0  0  0  0  0  0  0  0
    2.0240  -22.0180  -42.2700 O   0  0  0  0  0  0  0  0  0  0  0  0
    3.3840  -21.0770  -40.6320 N   0  0  0  0  0  0  0  0  0  0  0  0
    4.4450  -23.0510  -43.5130 C   0  0  0  0  0  0  0  0  0  0  0  0
    4.1140  -24.4600  -43.1740 C   0  0  0  0  0  0  0  0  0  0  0  0
    5.0840  -25.2310  -42.9620 O   0  0  0  0  0  0  0  0  0  0  0  0
    2.7730  -24.9210  -43.0920 N   0  0  0  0  0  0  0  0  0  0  0  0
    1.9760  -25.3360  -44.2310 C   0  0  0  0  0  0  0  0  0  0  0  0
    0.5790  -25.5550  -43.7130 C   0  0  0  0  0  0  0  0  0  0  0  0
    0.5820  -24.7300  -42.4430 C   0  0  0  0  0  0  0  0  0  0  0  0
    1.9750  -25.0610  -41.8970 C   0  0  0  0  0  0  0  0  0  0  0  0
    0.7430  -20.8780  -40.7000 H   0  0  0  0  0  0  0  0  0  0  0  0
    2.6760  -18.5590  -36.8670 H   0  0  0  0  0  0  0  0  0  0  0  0
    0.2790  -18.5380  -37.1740 H   0  0  0  0  0  0  0  0  0  0  0  0
    7.0700  -20.0810  -36.8730 H   0  0  0  0  0  0  0  0  0  0  0  0
    7.2200  -18.5250  -37.8300 H   0  0  0  0  0  0  0  0  0  0  0  0
    7.1710  -21.2720  -38.7980 H   0  0  0  0  0  0  0  0  0  0  0  0
    7.1930  -19.7000  -39.7560 H   0  0  0  0  0  0  0  0  0  0  0  0
    5.4860  -22.9680  -43.8860 H   0  0  0  0  0  0  0  0  0  0  0  0
    3.7230  -22.6550  -44.2410 H   0  0  0  0  0  0  0  0  0  0  0  0
    2.4270  -26.2750  -44.6070 H   0  0  0  0  0  0  0  0  0  0  0  0
    2.0060  -24.5210  -44.9880 H   0  0  0  0  0  0  0  0  0  0  0  0
    0.4490  -26.6170  -43.4030 H   0  0  0  0  0  0  0  0  0  0  0  0
   -0.2090  -25.2280  -44.4200 H   0  0  0  0  0  0  0  0  0  0  0  0
   -0.2150  -25.0310  -41.7600 H   0  0  0  0  0  0  0  0  0  0  0  0
    0.5370  -23.6400  -42.7110 H   0  0  0  0  0  0  0  0  0  0  0  0
    2.2690  -24.4170  -41.0710 H   0  0  0  0  0  0  0  0  0  0  0  0
    1.9620  -26.1420  -41.6470 H   0  0  0  0  0  0  0  0  0  0  0  0
  1  2  1  0  0  0  0
  2  7  1  0  0  0  0
  3  2  2  0  0  0  0
  4  3  1  1  0  0  0
  4  5  1  0  0  0  0
  5  8  2  0  0  0  0
  5  6  1  0  0  0  0
  6 28  1  0  0  0  0
  7  6  2  0  0  0  0
  7 29  1  0  0  0  0
  8  9  1  0  0  0  0
 10  9  1  0  0  0  0
 10 30  1  0  0  0  0
 11 32  1  0  0  0  0
 11 10  1  0  0  0  0
 12 11  1  0  0  0  0
 12  8  1  0  0  0  0
 13 12  1  0  0  0  0
 14 13  2  0  0  0  0
 15 16  1  0  0  0  0
 15 14  1  0  0  0  0
 16 18  1  0  0  0  0
 17 16  2  0  0  0  0
 18 13  1  0  0  0  0
 18  4  1  0  0  0  0
 19 20  1  0  0  0  0
 19 15  1  0  0  0  0
 20 22  1  0  0  0  0
 20 21  2  0  0  0  0
 22 26  1  0  0  0  0
 23 24  1  0  0  0  0
 23 22  1  0  0  0  0
 24 38  1  0  0  0  0
 24 25  1  0  0  0  0
 25 26  1  0  0  0  0
 25 40  1  0  0  0  0
 26 43  1  0  0  0  0
 26 42  1  0  0  0  0
 27  3  1  0  0  0  0
 31 10  1  0  0  0  0
 33 11  1  0  0  0  0
 34 19  1  0  0  0  0
 35 19  1  0  0  0  0
 36 23  1  0  0  0  0
 37 23  1  0  0  0  0
 39 24  1  0  0  0  0
 41 25  1  0  0  0  0
M  END
>  <Pose>
1

>  <Score>
-3.94

$$$$
