
 OpenBabel03232221553D

 57 60  0  0  1  0  0  0  0  0999 V2000
    4.9690  -19.7030  -41.2490 S   0  0  0  0  0  0  0  0  0  0  0  0
    4.5330  -18.3230  -41.6500 O   0  0  0  0  0  0  0  0  0  0  0  0
    6.4770  -19.6420  -41.1320 O   0  0  0  0  0  0  0  0  0  0  0  0
    4.6160  -20.8600  -42.4700 N   0  0  0  0  0  0  0  0  0  0  0  0
    5.0200  -20.3900  -43.7710 C   0  0  0  0  0  0  0  0  0  0  0  0
    5.0080  -21.5720  -44.7130 C   0  0  0  0  0  0  0  0  0  0  0  0
    4.3380  -22.6790  -44.0810 N   0  0  0  0  0  0  0  0  0  0  0  0
    3.1200  -22.4930  -43.3010 C   0  0  0  0  0  0  0  0  0  0  0  0
    3.2020  -21.1710  -42.5340 C   0  0  0  0  0  0  0  0  0  0  0  0
    4.8670  -23.9770  -44.2020 C   0  0  0  0  0  0  0  0  0  0  0  0
    4.9780  -24.7020  -43.1530 O   0  0  0  0  0  0  0  0  0  0  0  0
    5.2940  -24.5000  -45.5280 C   0  0  1  0  0  0  0  0  0  0  0  0
    6.7780  -24.7070  -45.6210 C   0  0  0  0  0  0  0  0  0  0  0  0
    6.9800  -26.1480  -45.5010 N   0  0  0  0  0  0  0  0  0  0  0  0
    5.7370  -26.7860  -45.2730 C   0  0  0  0  0  0  0  0  0  0  0  0
    5.6030  -27.9110  -44.7350 O   0  0  0  0  0  0  0  0  0  0  0  0
    4.7090  -25.8600  -45.7940 C   0  0  0  0  0  0  0  0  0  0  0  0
    8.2620  -26.8080  -45.5970 C   0  0  0  0  0  0  0  0  0  0  0  0
    9.0970  -26.5660  -44.3960 C   0  0  0  0  0  0  0  0  0  0  0  0
   10.2930  -27.2550  -44.2550 C   0  0  0  0  0  0  0  0  0  0  0  0
   11.1250  -27.0830  -43.1620 C   0  0  0  0  0  0  0  0  0  0  0  0
   10.7180  -26.1870  -42.1950 C   0  0  0  0  0  0  0  0  0  0  0  0
    9.5310  -25.4830  -42.3040 C   0  0  0  0  0  0  0  0  0  0  0  0
    8.7130  -25.6760  -43.4170 C   0  0  0  0  0  0  0  0  0  0  0  0
   10.7510  -28.3730  -45.5110 Cl  0  0  0  0  0  0  0  0  0  0  0  0
    4.3070  -20.1700  -39.7120 C   0  0  0  0  0  0  0  0  0  0  0  0
    4.8090  -20.9880  -38.7250 C   0  0  0  0  0  0  0  0  0  0  0  0
    3.8860  -21.0330  -37.7160 N   0  0  0  0  0  0  0  0  0  0  0  0
    2.8970  -20.2990  -38.0620 O   0  0  0  0  0  0  0  0  0  0  0  0
    3.0770  -19.7520  -39.2400 C   0  0  0  0  0  0  0  0  0  0  0  0
    2.0920  -18.8560  -39.8840 C   0  0  0  0  0  0  0  0  0  0  0  0
    6.1160  -21.6720  -38.7700 C   0  0  0  0  0  0  0  0  0  0  0  0
    4.2910  -19.6390  -44.1850 H   0  0  0  0  0  0  0  0  0  0  0  0
    6.0090  -19.8870  -43.7520 H   0  0  0  0  0  0  0  0  0  0  0  0
    4.5190  -21.3060  -45.6860 H   0  0  0  0  0  0  0  0  0  0  0  0
    6.0560  -21.8590  -44.9020 H   0  0  0  0  0  0  0  0  0  0  0  0
    2.2300  -22.5490  -43.9540 H   0  0  0  0  0  0  0  0  0  0  0  0
    3.0600  -23.3350  -42.5880 H   0  0  0  0  0  0  0  0  0  0  0  0
    2.7280  -21.3070  -41.5640 H   0  0  0  0  0  0  0  0  0  0  0  0
    2.6190  -20.4360  -43.1260 H   0  0  0  0  0  0  0  0  0  0  0  0
    4.9400  -23.7700  -46.3190 H   0  0  0  0  0  0  0  0  0  0  0  0
    7.1420  -24.3320  -46.6110 H   0  0  0  0  0  0  0  0  0  0  0  0
    7.3500  -24.1890  -44.7930 H   0  0  0  0  0  0  0  0  0  0  0  0
    3.7310  -25.9990  -45.2860 H   0  0  0  0  0  0  0  0  0  0  0  0
    4.6240  -25.9950  -46.8950 H   0  0  0  0  0  0  0  0  0  0  0  0
    8.8350  -26.5100  -46.4990 H   0  0  0  0  0  0  0  0  0  0  0  0
    8.0830  -27.9140  -45.6370 H   0  0  0  0  0  0  0  0  0  0  0  0
   12.0420  -27.6490  -43.1110 H   0  0  0  0  0  0  0  0  0  0  0  0
   11.3570  -26.0320  -41.3190 H   0  0  0  0  0  0  0  0  0  0  0  0
    9.2540  -24.7940  -41.5250 H   0  0  0  0  0  0  0  0  0  0  0  0
    7.7870  -25.1290  -43.5020 H   0  0  0  0  0  0  0  0  0  0  0  0
    2.4390  -18.6420  -40.9170 H   0  0  0  0  0  0  0  0  0  0  0  0
    1.1350  -19.4500  -39.9620 H   0  0  0  0  0  0  0  0  0  0  0  0
    1.9230  -17.9670  -39.2740 H   0  0  0  0  0  0  0  0  0  0  0  0
    6.3960  -21.8630  -37.6900 H   0  0  0  0  0  0  0  0  0  0  0  0
    6.0940  -22.6590  -39.2410 H   0  0  0  0  0  0  0  0  0  0  0  0
    6.9100  -21.0260  -39.2410 H   0  0  0  0  0  0  0  0  0  0  0  0
  1  3  2  0  0  0  0
  1 26  1  0  0  0  0
  2  1  2  0  0  0  0
  4  1  1  0  0  0  0
  5 34  1  0  0  0  0
  5  4  1  0  0  0  0
  6  7  1  0  0  0  0
  6  5  1  0  0  0  0
  7  8  1  0  0  0  0
  8 38  1  0  0  0  0
  8  9  1  0  0  0  0
  9  4  1  0  0  0  0
  9 39  1  0  0  0  0
 10  7  1  0  0  0  0
 10 11  2  0  0  0  0
 12 41  1  6  0  0  0
 12 10  1  0  0  0  0
 13 12  1  0  0  0  0
 13 14  1  0  0  0  0
 13 43  1  0  0  0  0
 14 15  1  0  0  0  0
 15 16  2  0  0  0  0
 17 12  1  0  0  0  0
 17 44  1  0  0  0  0
 17 15  1  0  0  0  0
 18 14  1  0  0  0  0
 18 19  1  0  0  0  0
 19 20  2  0  0  0  0
 19 24  1  0  0  0  0
 20 21  1  0  0  0  0
 21 48  1  0  0  0  0
 21 22  2  0  0  0  0
 22 49  1  0  0  0  0
 23 22  1  0  0  0  0
 23 50  1  0  0  0  0
 24 23  2  0  0  0  0
 25 20  1  0  0  0  0
 26 30  2  0  0  0  0
 26 27  1  0  0  0  0
 27 28  2  0  0  0  0
 29 28  1  0  0  0  0
 30 29  1  0  0  0  0
 31 54  1  0  0  0  0
 31 30  1  0  0  0  0
 32 27  1  0  0  0  0
 32 55  1  0  0  0  0
 33  5  1  0  0  0  0
 35  6  1  0  0  0  0
 36  6  1  0  0  0  0
 37  8  1  0  0  0  0
 40  9  1  0  0  0  0
 42 13  1  0  0  0  0
 45 17  1  0  0  0  0
 46 18  1  0  0  0  0
 47 18  1  0  0  0  0
 51 24  1  0  0  0  0
 52 31  1  0  0  0  0
 53 31  1  0  0  0  0
 56 32  1  0  0  0  0
 57 32  1  0  0  0  0
M  END
>  <Pose>
1

>  <Score>
-4.44

$$$$
