
 OpenBabel03232221553D

 47 50  0  0  1  0  0  0  0  0999 V2000
    1.0070  -15.9480  -35.9280 Cl  0  0  0  0  0  0  0  0  0  0  0  0
    0.7310  -14.3950  -36.6810 C   0  0  0  0  0  0  0  0  0  0  0  0
    0.5490  -14.3580  -38.0470 C   0  0  0  0  0  0  0  0  0  0  0  0
    0.3310  -13.1310  -38.6360 C   0  0  0  0  0  0  0  0  0  0  0  0
    0.2950  -11.9610  -37.8890 C   0  0  0  0  0  0  0  0  0  0  0  0
    0.4770  -11.9890  -36.5220 C   0  0  0  0  0  0  0  0  0  0  0  0
    0.6940  -13.2160  -35.9330 C   0  0  0  0  0  0  0  0  0  0  0  0
    0.0970  -13.0780  -40.3790 Cl  0  0  0  0  0  0  0  0  0  0  0  0
    0.5830  -15.5810  -38.8540 C   0  0  0  0  0  0  0  0  0  0  0  0
    1.6840  -16.1320  -39.2120 N   0  0  0  0  0  0  0  0  0  0  0  0
    1.6280  -17.2970  -39.9820 N   0  0  0  0  0  0  0  0  0  0  0  0
    2.4940  -18.3990  -39.7530 C   0  0  0  0  0  0  0  0  0  0  0  0
    2.2070  -19.4730  -39.0000 N   0  0  0  0  0  0  0  0  0  0  0  0
    3.2930  -20.2640  -39.0540 C   0  0  0  0  0  0  0  0  0  0  0  0
    3.5870  -21.4650  -38.5000 N   0  0  0  0  0  0  0  0  0  0  0  0
    4.7730  -22.0710  -38.7070 C   0  0  0  0  0  0  0  0  0  0  0  0
    5.7080  -21.4820  -39.4830 N   0  0  0  0  0  0  0  0  0  0  0  0
    5.4910  -20.2900  -40.0680 C   0  0  0  0  0  0  0  0  0  0  0  0
    4.2680  -19.6880  -39.8410 C   0  0  0  0  0  0  0  0  0  0  0  0
    3.7400  -18.5180  -40.2680 N   0  0  0  0  0  0  0  0  0  0  0  0
    6.4890  -19.6990  -40.8750 N   0  0  0  0  0  0  0  0  0  0  0  0
    1.0230  -19.7960  -38.2600 C   0  0  1  0  0  0  0  0  0  0  0  0
    0.4320  -18.6770  -37.6770 O   0  0  0  0  0  0  0  0  0  0  0  0
   -0.8210  -19.1790  -37.3270 C   0  0  2  0  0  0  0  0  0  0  0  0
   -1.2980  -19.7210  -38.6660 C   0  0  1  0  0  0  0  0  0  0  0  0
   -0.0390  -20.4040  -39.1590 C   0  0  2  0  0  0  0  0  0  0  0  0
   -0.1930  -21.7700  -38.9140 O   0  0  0  0  0  0  0  0  0  0  0  0
   -2.3490  -20.6150  -38.5160 O   0  0  0  0  0  0  0  0  0  0  0  0
   -1.7430  -18.1170  -36.7920 C   0  0  0  0  0  0  0  0  0  0  0  0
   -1.7260  -18.0280  -35.4220 O   0  0  0  0  0  0  0  0  0  0  0  0
    0.1250  -10.9950  -38.3450 H   0  0  0  0  0  0  0  0  0  0  0  0
    0.4570  -11.1050  -35.9000 H   0  0  0  0  0  0  0  0  0  0  0  0
    0.8420  -13.2640  -34.8500 H   0  0  0  0  0  0  0  0  0  0  0  0
   -0.3420  -16.0410  -39.1620 H   0  0  0  0  0  0  0  0  0  0  0  0
    0.9110  -17.3190  -40.7460 H   0  0  0  0  0  0  0  0  0  0  0  0
    5.0160  -23.0300  -38.2680 H   0  0  0  0  0  0  0  0  0  0  0  0
    6.3470  -19.5340  -41.8870 H   0  0  0  0  0  0  0  0  0  0  0  0
    7.3890  -19.4250  -40.4430 H   0  0  0  0  0  0  0  0  0  0  0  0
    1.2100  -20.5190  -37.4350 H   0  0  0  0  0  0  0  0  0  0  0  0
   -0.6770  -20.0200  -36.6520 H   0  0  0  0  0  0  0  0  0  0  0  0
   -1.5680  -18.8650  -39.3420 H   0  0  0  0  0  0  0  0  0  0  0  0
    0.1620  -20.1980  -40.2290 H   0  0  0  0  0  0  0  0  0  0  0  0
   -0.3820  -21.9570  -37.9730 H   0  0  0  0  0  0  0  0  0  0  0  0
   -2.0640  -21.2990  -37.8510 H   0  0  0  0  0  0  0  0  0  0  0  0
   -2.7670  -18.3770  -37.1350 H   0  0  0  0  0  0  0  0  0  0  0  0
   -1.4820  -17.1710  -37.3110 H   0  0  0  0  0  0  0  0  0  0  0  0
   -1.8590  -18.9010  -34.9930 H   0  0  0  0  0  0  0  0  0  0  0  0
  2  7  1  0  0  0  0
  2  1  1  0  0  0  0
  3  2  2  0  0  0  0
  4  3  1  0  0  0  0
  4  5  2  0  0  0  0
  5  6  1  0  0  0  0
  6  7  2  0  0  0  0
  6 32  1  0  0  0  0
  7 33  1  0  0  0  0
  8  4  1  0  0  0  0
  9  3  1  0  0  0  0
 10  9  2  0  0  0  0
 11 12  1  0  0  0  0
 11 10  1  0  0  0  0
 12 13  1  0  0  0  0
 13 22  1  0  0  0  0
 14 13  1  0  0  0  0
 14 15  1  0  0  0  0
 16 15  2  0  0  0  0
 16 36  1  0  0  0  0
 17 16  1  0  0  0  0
 18 19  1  0  0  0  0
 18 17  2  0  0  0  0
 19 14  2  0  0  0  0
 20 19  1  0  0  0  0
 20 12  2  0  0  0  0
 21 38  1  0  0  0  0
 21 18  1  0  0  0  0
 22 23  1  0  0  0  0
 22 39  1  1  0  0  0
 23 24  1  0  0  0  0
 24 29  1  0  0  0  0
 24 40  1  1  0  0  0
 25 41  1  6  0  0  0
 25 28  1  0  0  0  0
 25 24  1  0  0  0  0
 26 42  1  6  0  0  0
 26 27  1  0  0  0  0
 26 25  1  0  0  0  0
 26 22  1  0  0  0  0
 27 43  1  0  0  0  0
 28 44  1  0  0  0  0
 29 30  1  0  0  0  0
 30 47  1  0  0  0  0
 31  5  1  0  0  0  0
 34  9  1  0  0  0  0
 35 11  1  0  0  0  0
 37 21  1  0  0  0  0
 45 29  1  0  0  0  0
 46 29  1  0  0  0  0
M  END
>  <Pose>
1

>  <Score>
-5.22

$$$$
