
 OpenBabel03232221553D

 51 54  0  0  0  0  0  0  0  0999 V2000
   -0.8230  -30.7910  -43.2890 B   0  0  0  0  0  0  0  0  0  0  0  0
   -0.6660  -29.5250  -41.8710 C   0  0  0  0  0  0  0  0  0  0  0  0
   -0.3270  -28.2320  -42.1360 C   0  0  0  0  0  0  0  0  0  0  0  0
   -0.2130  -27.3030  -41.0890 C   0  0  0  0  0  0  0  0  0  0  0  0
   -0.4470  -27.7250  -39.8090 C   0  0  0  0  0  0  0  0  0  0  0  0
   -0.7960  -29.0590  -39.5430 C   0  0  0  0  0  0  0  0  0  0  0  0
   -0.9020  -29.9490  -40.5820 C   0  0  0  0  0  0  0  0  0  0  0  0
   -0.3500  -26.8550  -38.7410 O   0  0  0  0  0  0  0  0  0  0  0  0
    0.1500  -25.9270  -41.3920 C   0  0  0  0  0  0  0  0  0  0  0  0
    1.3160  -25.6730  -41.9450 N   0  0  0  0  0  0  0  0  0  0  0  0
    1.6250  -24.3400  -42.2180 N   0  0  0  0  0  0  0  0  0  0  0  0
    2.9630  -23.8680  -42.1630 C   0  0  0  0  0  0  0  0  0  0  0  0
    3.9230  -24.3730  -42.9530 N   0  0  0  0  0  4  0  0  0  0  0  0
    5.2160  -23.9540  -42.9360 C   0  0  0  0  0  0  0  0  0  0  0  0
    5.4870  -22.9630  -42.0460 N   0  0  0  0  0  0  0  0  0  0  0  0
    4.5700  -22.4190  -41.2310 C   0  0  0  0  0  0  0  0  0  0  0  0
    3.3290  -22.8830  -41.3070 N   0  0  0  0  0  0  0  0  0  0  0  0
    4.9230  -21.3900  -40.3280 N   0  0  0  0  0  0  0  0  0  0  0  0
    5.5680  -21.6400  -39.0550 C   0  0  0  0  0  0  0  0  0  0  0  0
    6.4420  -20.4620  -38.6850 C   0  0  0  0  0  0  0  0  0  0  0  0
    5.7710  -19.2690  -38.6420 O   0  0  0  0  0  0  0  0  0  0  0  0
    4.5290  -19.3020  -39.2620 C   0  0  0  0  0  0  0  0  0  0  0  0
    4.6550  -19.9790  -40.6240 C   0  0  0  0  0  0  0  0  0  0  0  0
    6.2000  -24.5050  -43.7780 N   0  0  0  0  0  0  0  0  0  0  0  0
    7.5850  -24.2000  -43.5780 C   0  0  0  0  0  0  0  0  0  0  0  0
    8.3240  -25.5240  -43.4740 C   0  0  0  0  0  0  0  0  0  0  0  0
    8.0830  -26.2190  -44.6690 O   0  0  0  0  0  0  0  0  0  0  0  0
    6.7470  -26.6150  -44.7340 C   0  0  0  0  0  0  0  0  0  0  0  0
    5.8440  -25.3810  -44.8530 C   0  0  0  0  0  0  0  0  0  0  0  0
   -0.1350  -27.8710  -43.1420 H   0  0  0  0  0  0  0  0  0  0  0  0
   -0.9750  -29.3600  -38.5200 H   0  0  0  0  0  0  0  0  0  0  0  0
   -1.1720  -30.9940  -40.4070 H   0  0  0  0  0  0  0  0  0  0  0  0
    0.5060  -26.5990  -38.2930 H   0  0  0  0  0  0  0  0  0  0  0  0
   -0.5090  -25.1060  -41.1780 H   0  0  0  0  0  0  0  0  0  0  0  0
    0.8400  -23.7050  -42.4650 H   0  0  0  0  0  0  0  0  0  0  0  0
    6.2160  -22.5320  -39.1320 H   0  0  0  0  0  0  0  0  0  0  0  0
    4.7850  -21.7340  -38.2850 H   0  0  0  0  0  0  0  0  0  0  0  0
    7.3550  -20.4390  -39.3160 H   0  0  0  0  0  0  0  0  0  0  0  0
    6.8080  -20.6770  -37.6380 H   0  0  0  0  0  0  0  0  0  0  0  0
    4.1180  -18.2930  -39.3420 H   0  0  0  0  0  0  0  0  0  0  0  0
    3.8700  -19.9460  -38.6420 H   0  0  0  0  0  0  0  0  0  0  0  0
    3.7720  -19.8450  -41.2420 H   0  0  0  0  0  0  0  0  0  0  0  0
    5.5920  -19.5860  -41.0770 H   0  0  0  0  0  0  0  0  0  0  0  0
    7.9830  -23.6850  -44.4770 H   0  0  0  0  0  0  0  0  0  0  0  0
    7.7170  -23.5960  -42.6560 H   0  0  0  0  0  0  0  0  0  0  0  0
    7.9560  -26.1420  -42.6320 H   0  0  0  0  0  0  0  0  0  0  0  0
    9.4170  -25.3700  -43.3730 H   0  0  0  0  0  0  0  0  0  0  0  0
    6.5110  -27.0850  -43.7570 H   0  0  0  0  0  0  0  0  0  0  0  0
    6.6070  -27.2920  -45.5840 H   0  0  0  0  0  0  0  0  0  0  0  0
    5.9440  -24.9190  -45.8530 H   0  0  0  0  0  0  0  0  0  0  0  0
    4.7960  -25.7310  -44.7150 H   0  0  0  0  0  0  0  0  0  0  0  0
  1  2  1  0  0  0  0
  2  7  1  0  0  0  0
  3  2  2  0  0  0  0
  3  4  1  0  0  0  0
  4  5  2  0  0  0  0
  5  6  1  0  0  0  0
  5  8  1  0  0  0  0
  6 31  1  0  0  0  0
  7 32  1  0  0  0  0
  7  6  2  0  0  0  0
  8 33  1  0  0  0  0
  9 34  1  0  0  0  0
  9  4  1  0  0  0  0
 10  9  2  0  0  0  0
 11 12  1  0  0  0  0
 11 10  1  0  0  0  0
 12 17  1  0  0  0  0
 13 14  2  0  0  0  0
 13 12  2  0  0  0  0
 14 15  1  0  0  0  0
 15 16  2  0  0  0  0
 16 18  1  0  0  0  0
 17 16  1  0  0  0  0
 18 19  1  0  0  0  0
 19 20  1  0  0  0  0
 19 37  1  0  0  0  0
 20 21  1  0  0  0  0
 20 39  1  0  0  0  0
 22 21  1  0  0  0  0
 22 41  1  0  0  0  0
 23 18  1  0  0  0  0
 23 22  1  0  0  0  0
 24 25  1  0  0  0  0
 24 14  1  0  0  0  0
 25 26  1  0  0  0  0
 25 45  1  0  0  0  0
 26 47  1  0  0  0  0
 26 46  1  0  0  0  0
 27 26  1  0  0  0  0
 28 27  1  0  0  0  0
 28 48  1  0  0  0  0
 29 28  1  0  0  0  0
 29 51  1  0  0  0  0
 29 24  1  0  0  0  0
 30  3  1  0  0  0  0
 35 11  1  0  0  0  0
 36 19  1  0  0  0  0
 38 20  1  0  0  0  0
 40 22  1  0  0  0  0
 42 23  1  0  0  0  0
 43 23  1  0  0  0  0
 44 25  1  0  0  0  0
 49 28  1  0  0  0  0
 50 29  1  0  0  0  0
M  END
>  <Pose>
1

>  <Score>
-5.27

$$$$
