
 OpenBabel03232221553D

 60 63  0  0  1  0  0  0  0  0999 V2000
   10.8080  -26.8240  -42.0810 Cl  0  0  0  0  0  0  0  0  0  0  0  0
   10.1220  -26.0150  -43.4910 C   0  0  0  0  0  0  0  0  0  0  0  0
   10.0240  -24.6500  -43.5010 C   0  0  0  0  0  0  0  0  0  0  0  0
    9.4950  -23.9950  -44.5830 C   0  0  0  0  0  0  0  0  0  0  0  0
    9.0600  -24.7800  -45.6690 C   0  0  0  0  0  0  0  0  0  0  0  0
    9.1640  -26.1310  -45.6410 C   0  0  0  0  0  0  0  0  0  0  0  0
    9.6950  -26.7830  -44.5580 C   0  0  0  0  0  0  0  0  0  0  0  0
    9.3610  -22.7050  -44.6900 O   0  0  0  0  0  0  0  0  0  0  0  0
    8.6720  -21.6350  -45.0120 C   0  0  0  0  0  0  0  0  0  0  0  0
    7.5250  -21.1620  -44.1650 C   0  0  1  0  0  0  0  0  0  0  0  0
    6.5290  -20.7540  -45.0640 O   0  0  0  0  0  0  0  0  0  0  0  0
    5.7290  -21.7640  -45.5240 C   0  0  0  0  0  0  0  0  0  0  0  0
    4.7860  -22.3300  -44.4810 C   0  0  0  0  0  0  0  0  0  0  0  0
    5.5980  -22.3450  -43.2380 N   0  0  0  0  0  0  0  0  0  0  0  0
    6.9920  -22.4160  -43.4480 C   0  0  0  0  0  0  0  0  0  0  0  0
    4.9370  -22.2910  -42.0280 C   0  0  0  0  0  0  0  0  0  0  0  0
    3.8420  -22.9680  -41.8500 O   0  0  0  0  0  0  0  0  0  0  0  0
    5.3580  -21.5260  -40.8940 C   0  0  0  0  0  0  0  0  0  0  0  0
    5.7910  -20.2670  -40.9680 N   0  0  0  0  0  0  0  0  0  0  0  0
    6.1890  -19.5410  -39.9050 C   0  0  0  0  0  0  0  0  0  0  0  0
    6.1560  -20.1100  -38.6420 C   0  0  0  0  0  0  0  0  0  0  0  0
    5.7310  -21.3580  -38.5300 N   0  0  0  0  0  0  0  0  0  0  0  0
    5.3400  -22.0640  -39.6030 C   0  0  0  0  0  0  0  0  0  0  0  0
    6.6050  -19.2650  -37.5090 C   0  0  0  0  0  0  0  0  0  0  0  0
    7.7930  -20.0620  -43.2430 C   0  0  0  0  0  0  0  0  0  0  0  0
    8.5520  -18.9080  -43.7300 C   0  0  0  0  0  0  0  0  0  0  0  0
    9.7870  -18.9700  -43.8810 O   0  0  0  0  0  0  0  0  0  0  0  0
    7.9090  -17.6780  -44.0470 N   0  0  0  0  0  0  0  0  0  0  0  0
    7.1760  -16.9190  -43.0390 C   0  0  0  0  0  0  0  0  0  0  0  0
    5.8450  -16.5380  -43.6520 C   0  0  0  0  0  0  0  0  0  0  0  0
    6.0780  -15.8030  -44.8180 O   0  0  0  0  0  0  0  0  0  0  0  0
    6.5900  -16.6630  -45.7890 C   0  0  0  0  0  0  0  0  0  0  0  0
    7.9540  -17.1180  -45.3820 C   0  0  0  0  0  0  0  0  0  0  0  0
   10.3490  -24.0720  -42.6490 H   0  0  0  0  0  0  0  0  0  0  0  0
    8.6300  -24.3100  -46.5560 H   0  0  0  0  0  0  0  0  0  0  0  0
    8.8350  -26.7560  -46.4690 H   0  0  0  0  0  0  0  0  0  0  0  0
    9.7990  -27.8430  -44.4860 H   0  0  0  0  0  0  0  0  0  0  0  0
    9.3630  -20.7210  -45.2080 H   0  0  0  0  0  0  0  0  0  0  0  0
    8.2340  -21.7670  -46.0770 H   0  0  0  0  0  0  0  0  0  0  0  0
    5.1000  -21.3580  -46.3320 H   0  0  0  0  0  0  0  0  0  0  0  0
    6.3540  -22.5560  -45.9740 H   0  0  0  0  0  0  0  0  0  0  0  0
    4.5110  -23.3400  -44.7890 H   0  0  0  0  0  0  0  0  0  0  0  0
    3.9610  -21.6430  -44.2880 H   0  0  0  0  0  0  0  0  0  0  0  0
    7.1390  -23.2450  -44.2250 H   0  0  0  0  0  0  0  0  0  0  0  0
    7.6410  -22.6940  -42.6380 H   0  0  0  0  0  0  0  0  0  0  0  0
    6.5250  -18.5240  -40.0670 H   0  0  0  0  0  0  0  0  0  0  0  0
    4.9980  -23.0800  -39.4810 H   0  0  0  0  0  0  0  0  0  0  0  0
    6.2520  -19.6700  -36.5320 H   0  0  0  0  0  0  0  0  0  0  0  0
    7.7120  -19.2340  -37.5550 H   0  0  0  0  0  0  0  0  0  0  0  0
    6.2460  -18.2210  -37.5830 H   0  0  0  0  0  0  0  0  0  0  0  0
    8.3390  -20.4760  -42.3080 H   0  0  0  0  0  0  0  0  0  0  0  0
    6.8300  -19.7160  -42.7620 H   0  0  0  0  0  0  0  0  0  0  0  0
    7.0240  -17.5100  -42.1170 H   0  0  0  0  0  0  0  0  0  0  0  0
    7.7090  -15.9600  -42.8150 H   0  0  0  0  0  0  0  0  0  0  0  0
    5.2760  -17.4570  -43.8490 H   0  0  0  0  0  0  0  0  0  0  0  0
    5.2630  -15.8640  -42.9810 H   0  0  0  0  0  0  0  0  0  0  0  0
    5.9560  -17.5550  -45.9430 H   0  0  0  0  0  0  0  0  0  0  0  0
    6.7040  -16.0670  -46.7260 H   0  0  0  0  0  0  0  0  0  0  0  0
    8.3090  -17.8520  -46.1330 H   0  0  0  0  0  0  0  0  0  0  0  0
    8.7050  -16.3000  -45.3760 H   0  0  0  0  0  0  0  0  0  0  0  0
  2  1  1  0  0  0  0
  3  2  1  0  0  0  0
  3 34  1  0  0  0  0
  4  3  2  0  0  0  0
  5  6  2  0  0  0  0
  5  4  1  0  0  0  0
  6  7  1  0  0  0  0
  7 37  1  0  0  0  0
  7  2  2  0  0  0  0
  8  4  1  0  0  0  0
  9  8  1  0  0  0  0
 10  9  1  6  0  0  0
 10 15  1  0  0  0  0
 10 25  1  0  0  0  0
 11 10  1  0  0  0  0
 12 11  1  0  0  0  0
 12 13  1  0  0  0  0
 13 43  1  0  0  0  0
 13 14  1  0  0  0  0
 14 16  1  0  0  0  0
 15 14  1  0  0  0  0
 15 45  1  0  0  0  0
 16 17  2  0  0  0  0
 16 18  1  0  0  0  0
 18 23  1  0  0  0  0
 19 18  2  0  0  0  0
 19 20  1  0  0  0  0
 20 21  2  0  0  0  0
 21 22  1  0  0  0  0
 21 24  1  0  0  0  0
 23 47  1  0  0  0  0
 23 22  2  0  0  0  0
 24 48  1  0  0  0  0
 25 52  1  0  0  0  0
 25 51  1  0  0  0  0
 26 25  1  0  0  0  0
 27 26  2  0  0  0  0
 28 26  1  0  0  0  0
 28 29  1  0  0  0  0
 29 54  1  0  0  0  0
 29 53  1  0  0  0  0
 30 29  1  0  0  0  0
 30 56  1  0  0  0  0
 31 30  1  0  0  0  0
 32 33  1  0  0  0  0
 32 31  1  0  0  0  0
 33 60  1  0  0  0  0
 33 28  1  0  0  0  0
 35  5  1  0  0  0  0
 36  6  1  0  0  0  0
 38  9  1  0  0  0  0
 39  9  1  0  0  0  0
 40 12  1  0  0  0  0
 41 12  1  0  0  0  0
 42 13  1  0  0  0  0
 44 15  1  0  0  0  0
 46 20  1  0  0  0  0
 49 24  1  0  0  0  0
 50 24  1  0  0  0  0
 55 30  1  0  0  0  0
 57 32  1  0  0  0  0
 58 32  1  0  0  0  0
 59 33  1  0  0  0  0
M  END
>  <Pose>
1

>  <Score>
-4.72

$$$$
