
 OpenBabel03232221553D

 51 54  0  0  1  0  0  0  0  0999 V2000
   -2.6810  -21.9840  -39.1120 Cl  0  0  0  0  0  0  0  0  0  0  0  0
   -1.6060  -20.7540  -38.5340 C   0  0  0  0  0  0  0  0  0  0  0  0
   -2.0860  -19.7230  -37.8360 N   0  0  0  0  0  4  0  0  0  0  0  0
   -1.3020  -18.7470  -37.3680 C   0  0  0  0  0  0  0  0  0  0  0  0
   -1.5510  -17.6530  -36.6590 N   0  0  0  0  0  0  0  0  0  0  0  0
   -0.3610  -17.0650  -36.4830 C   0  0  0  0  0  0  0  0  0  0  0  0
    0.6300  -17.7570  -37.0590 N   0  0  0  0  0  0  0  0  0  0  0  0
    0.0720  -18.8340  -37.6340 C   0  0  0  0  0  0  0  0  0  0  0  0
    0.5770  -19.8870  -38.3500 C   0  0  0  0  0  0  0  0  0  0  0  0
   -0.2970  -20.8400  -38.7900 N   0  0  0  0  0  0  0  0  0  0  0  0
    1.9550  -19.9660  -38.6370 N   0  0  0  0  0  0  0  0  0  0  0  0
    2.6740  -21.1330  -38.1820 C   0  0  0  0  0  0  0  0  0  0  0  0
    4.1560  -21.0570  -38.4310 C   0  0  0  0  0  0  0  0  0  0  0  0
    4.4030  -20.5660  -39.8150 C   0  0  2  0  0  0  0  0  0  0  0  0
    3.8950  -19.1720  -39.9550 C   0  0  0  0  0  0  0  0  0  0  0  0
    2.5630  -18.8930  -39.3620 C   0  0  0  0  0  0  0  0  0  0  0  0
    3.9350  -21.5000  -40.8410 C   0  0  0  0  0  0  0  0  0  0  0  0
    3.1060  -21.0900  -41.6900 O   0  0  0  0  0  0  0  0  0  0  0  0
    4.3680  -22.8390  -40.9210 N   0  0  0  0  0  0  0  0  0  0  0  0
    4.8760  -23.4480  -42.1290 C   0  0  0  0  0  0  0  0  0  0  0  0
    3.8820  -24.3340  -42.8220 C   0  0  0  0  0  0  0  0  0  0  0  0
    4.4180  -24.8450  -44.0710 N   0  0  0  0  0  0  0  0  0  0  0  0
    3.4090  -25.2750  -44.9780 C   0  0  0  0  0  0  0  0  0  0  0  0
    3.4130  -26.7860  -45.0970 C   0  0  0  0  0  0  0  0  0  0  0  0
    4.6170  -27.1610  -45.6390 O   0  0  0  0  0  0  0  0  0  0  0  0
    5.7370  -26.7080  -44.9950 C   0  0  0  0  0  0  0  0  0  0  0  0
    5.5120  -25.7310  -43.8940 C   0  0  0  0  0  0  0  0  0  0  0  0
   -0.2120  -16.1450  -35.9430 H   0  0  0  0  0  0  0  0  0  0  0  0
    1.6550  -17.5430  -37.0790 H   0  0  0  0  0  0  0  0  0  0  0  0
    2.2430  -22.0890  -38.5090 H   0  0  0  0  0  0  0  0  0  0  0  0
    2.5750  -21.1680  -37.0490 H   0  0  0  0  0  0  0  0  0  0  0  0
    4.6480  -20.3880  -37.7070 H   0  0  0  0  0  0  0  0  0  0  0  0
    4.5600  -22.0810  -38.3030 H   0  0  0  0  0  0  0  0  0  0  0  0
    5.5250  -20.5150  -39.9350 H   0  0  0  0  0  0  0  0  0  0  0  0
    4.6380  -18.5020  -39.4310 H   0  0  0  0  0  0  0  0  0  0  0  0
    3.9690  -18.8810  -41.0240 H   0  0  0  0  0  0  0  0  0  0  0  0
    1.8880  -18.5610  -40.2010 H   0  0  0  0  0  0  0  0  0  0  0  0
    2.5740  -18.0010  -38.6680 H   0  0  0  0  0  0  0  0  0  0  0  0
    4.3210  -23.4380  -40.0460 H   0  0  0  0  0  0  0  0  0  0  0  0
    5.3210  -22.7130  -42.7940 H   0  0  0  0  0  0  0  0  0  0  0  0
    5.7190  -24.1210  -41.7990 H   0  0  0  0  0  0  0  0  0  0  0  0
    3.7280  -25.2180  -42.1660 H   0  0  0  0  0  0  0  0  0  0  0  0
    2.9110  -23.8520  -42.9930 H   0  0  0  0  0  0  0  0  0  0  0  0
    3.5120  -24.8400  -45.9990 H   0  0  0  0  0  0  0  0  0  0  0  0
    2.4220  -24.9400  -44.5980 H   0  0  0  0  0  0  0  0  0  0  0  0
    3.2240  -27.2390  -44.1040 H   0  0  0  0  0  0  0  0  0  0  0  0
    2.6120  -27.0670  -45.8090 H   0  0  0  0  0  0  0  0  0  0  0  0
    6.3920  -27.5620  -44.6630 H   0  0  0  0  0  0  0  0  0  0  0  0
    6.3670  -26.1830  -45.7720 H   0  0  0  0  0  0  0  0  0  0  0  0
    6.4180  -25.1390  -43.6780 H   0  0  0  0  0  0  0  0  0  0  0  0
    5.3160  -26.3300  -42.9570 H   0  0  0  0  0  0  0  0  0  0  0  0
  1  2  1  0  0  0  0
  2  3  2  0  0  0  0
  3  4  2  0  0  0  0
  4  5  1  0  0  0  0
  5  6  2  0  0  0  0
  6 28  1  0  0  0  0
  7  6  1  0  0  0  0
  8  4  1  0  0  0  0
  8  7  1  0  0  0  0
  9  8  2  0  0  0  0
 10  2  1  0  0  0  0
 10  9  1  0  0  0  0
 11  9  1  0  0  0  0
 11 12  1  0  0  0  0
 12 31  1  0  0  0  0
 13 33  1  0  0  0  0
 13 12  1  0  0  0  0
 13 32  1  0  0  0  0
 14 34  1  6  0  0  0
 14 13  1  0  0  0  0
 15 14  1  0  0  0  0
 15 35  1  0  0  0  0
 15 16  1  0  0  0  0
 16 38  1  0  0  0  0
 16 11  1  0  0  0  0
 17 14  1  0  0  0  0
 18 17  2  0  0  0  0
 19 17  1  0  0  0  0
 19 39  1  0  0  0  0
 20 41  1  0  0  0  0
 20 19  1  0  0  0  0
 21 42  1  0  0  0  0
 21 20  1  0  0  0  0
 22 27  1  0  0  0  0
 22 21  1  0  0  0  0
 23 45  1  0  0  0  0
 23 22  1  0  0  0  0
 24 23  1  0  0  0  0
 24 46  1  0  0  0  0
 25 24  1  0  0  0  0
 25 26  1  0  0  0  0
 26 48  1  0  0  0  0
 26 27  1  0  0  0  0
 27 50  1  0  0  0  0
 27 51  1  0  0  0  0
 29  7  1  0  0  0  0
 30 12  1  0  0  0  0
 36 15  1  0  0  0  0
 37 16  1  0  0  0  0
 40 20  1  0  0  0  0
 43 21  1  0  0  0  0
 44 23  1  0  0  0  0
 47 24  1  0  0  0  0
 49 26  1  0  0  0  0
M  END
>  <Pose>
1

>  <Score>
-3.76

$$$$
