
 OpenBabel03232221553D

 39 42  0  0  0  0  0  0  0  0999 V2000
   12.6460  -27.7720  -43.9580 Cl  0  0  0  0  0  0  0  0  0  0  0  0
   11.0270  -27.1050  -43.8300 C   0  0  0  0  0  0  0  0  0  0  0  0
   10.1430  -27.1580  -44.8920 C   0  0  0  0  0  0  0  0  0  0  0  0
    8.8730  -26.6270  -44.7720 C   0  0  0  0  0  0  0  0  0  0  0  0
    8.4350  -26.0310  -43.6130 C   0  0  0  0  0  0  0  0  0  0  0  0
    9.3130  -25.9740  -42.5490 C   0  0  0  0  0  0  0  0  0  0  0  0
   10.5890  -26.5040  -42.6580 C   0  0  0  0  0  0  0  0  0  0  0  0
    7.0950  -25.4740  -43.4970 C   0  0  0  0  0  0  0  0  0  0  0  0
    5.9670  -26.1820  -43.3330 N   0  0  0  0  0  0  0  0  0  0  0  0
    4.9430  -25.3850  -43.2650 O   0  0  0  0  0  0  0  0  0  0  0  0
    5.3580  -24.1480  -43.3820 C   0  0  0  0  0  0  0  0  0  0  0  0
    6.7090  -24.1900  -43.5280 N   0  0  0  0  0  0  0  0  0  0  0  0
    4.4770  -22.9640  -43.3530 C   0  0  0  0  0  0  0  0  0  0  0  0
    4.9910  -21.9840  -42.3950 N   0  0  0  0  0  0  0  0  0  0  0  0
    4.6850  -22.1370  -41.0910 C   0  0  0  0  0  0  0  0  0  0  0  0
    5.1420  -21.2470  -40.1520 C   0  0  0  0  0  0  0  0  0  0  0  0
    5.9740  -20.1170  -40.5810 C   0  0  0  0  0  0  0  0  0  0  0  0
    6.2740  -19.4170  -39.4650 N   0  0  0  0  0  0  0  0  0  0  0  0
    5.7190  -19.9990  -38.4220 N   0  0  0  0  0  0  0  0  0  0  0  0
    5.0300  -21.0950  -38.7710 C   0  0  0  0  0  0  0  0  0  0  0  0
    4.3890  -21.8720  -38.0230 O   0  0  0  0  0  0  0  0  0  0  0  0
    6.2600  -20.0020  -41.9250 C   0  0  0  0  0  0  0  0  0  0  0  0
    5.7480  -20.9520  -42.7640 C   0  0  0  0  0  0  0  0  0  0  0  0
    7.0870  -18.8890  -42.3900 C   0  0  0  0  0  0  0  0  0  0  0  0
    8.2960  -19.0460  -42.6090 O   0  0  0  0  0  0  0  0  0  0  0  0
    6.5420  -17.6330  -42.5970 O   0  0  0  0  0  0  0  0  0  0  0  0
    7.2290  -16.5780  -43.2280 C   0  0  0  0  0  0  0  0  0  0  0  0
   10.4710  -27.6260  -45.8210 H   0  0  0  0  0  0  0  0  0  0  0  0
    8.1850  -26.6710  -45.6050 H   0  0  0  0  0  0  0  0  0  0  0  0
    8.9720  -25.5050  -41.6310 H   0  0  0  0  0  0  0  0  0  0  0  0
   11.2780  -26.4630  -41.8310 H   0  0  0  0  0  0  0  0  0  0  0  0
    4.5030  -22.4870  -44.3470 H   0  0  0  0  0  0  0  0  0  0  0  0
    3.4380  -23.2330  -43.0430 H   0  0  0  0  0  0  0  0  0  0  0  0
    4.0750  -22.9660  -40.7690 H   0  0  0  0  0  0  0  0  0  0  0  0
    5.8040  -19.6480  -37.4500 H   0  0  0  0  0  0  0  0  0  0  0  0
    5.9840  -20.8460  -43.8240 H   0  0  0  0  0  0  0  0  0  0  0  0
    8.2770  -16.8170  -43.4550 H   0  0  0  0  0  0  0  0  0  0  0  0
    6.7410  -16.3000  -44.2070 H   0  0  0  0  0  0  0  0  0  0  0  0
    7.1030  -15.6810  -42.5870 H   0  0  0  0  0  0  0  0  0  0  0  0
  1  2  1  0  0  0  0
  2  7  1  0  0  0  0
  3  4  1  0  0  0  0
  3  2  2  0  0  0  0
  4  5  2  0  0  0  0
  5  8  1  0  0  0  0
  5  6  1  0  0  0  0
  6 30  1  0  0  0  0
  7  6  2  0  0  0  0
  7 31  1  0  0  0  0
  8  9  2  0  0  0  0
  9 10  1  0  0  0  0
 11 13  1  0  0  0  0
 11 10  1  0  0  0  0
 12  8  1  0  0  0  0
 12 11  2  0  0  0  0
 13 33  1  0  0  0  0
 13 14  1  0  0  0  0
 14 15  1  0  0  0  0
 15 34  1  0  0  0  0
 15 16  1  0  0  0  0
 16 20  1  0  0  0  0
 17 16  2  0  0  0  0
 17 18  1  0  0  0  0
 18 19  1  0  0  0  0
 19 35  1  0  0  0  0
 20 19  1  0  0  0  0
 20 21  2  0  0  0  0
 22 17  1  0  0  0  0
 23 14  1  0  0  0  0
 23 22  2  0  0  0  0
 24 22  1  0  0  0  0
 25 24  2  0  0  0  0
 26 24  1  0  0  0  0
 27 26  1  0  0  0  0
 27 39  1  0  0  0  0
 28  3  1  0  0  0  0
 29  4  1  0  0  0  0
 32 13  1  0  0  0  0
 36 23  1  0  0  0  0
 37 27  1  0  0  0  0
 38 27  1  0  0  0  0
M  END
>  <Pose>
1

>  <Score>
-4.71

$$$$
