
 OpenBabel03232221553D

 58 61  0  0  1  0  0  0  0  0999 V2000
   14.5490  -20.2930  -42.8720 Cl  0  0  0  0  0  0  0  0  0  0  0  0
   12.8500  -20.4690  -43.2840 C   0  0  0  0  0  0  0  0  0  0  0  0
   11.8820  -19.5990  -42.8490 C   0  0  0  0  0  0  0  0  0  0  0  0
   10.5440  -19.7450  -43.1790 C   0  0  0  0  0  0  0  0  0  0  0  0
    9.4100  -19.0770  -42.9100 N   0  0  0  0  0  0  0  0  0  0  0  0
    8.3530  -19.6640  -43.4970 C   0  0  0  0  0  0  0  0  0  0  0  0
    8.8690  -20.7420  -44.1550 N   0  0  0  0  0  0  0  0  0  0  0  0
   10.1930  -20.8130  -43.9780 C   0  0  0  0  0  0  0  0  0  0  0  0
   11.1340  -21.7100  -44.4380 C   0  0  0  0  0  0  0  0  0  0  0  0
   12.4650  -21.5260  -44.0820 C   0  0  0  0  0  0  0  0  0  0  0  0
    8.0250  -21.6510  -44.9290 C   0  0  0  0  0  0  0  0  0  0  0  0
    6.9230  -19.2680  -43.4670 C   0  0  0  0  0  0  0  0  0  0  0  0
    6.5240  -18.5370  -42.2280 C   0  0  0  0  0  0  0  0  0  0  0  0
    5.0960  -18.7150  -41.8670 C   0  0  0  0  0  0  0  0  0  0  0  0
    4.2270  -18.0390  -42.4730 O   0  0  0  0  0  0  0  0  0  0  0  0
    4.6990  -19.6200  -40.8650 N   0  0  0  0  0  0  0  0  0  0  0  0
    3.3030  -19.7730  -40.4530 C   0  0  0  0  0  0  0  0  0  0  0  0
    3.2580  -19.3080  -39.0110 C   0  0  2  0  0  0  0  0  0  0  0  0
    4.2490  -20.0720  -38.1650 C   0  0  1  0  0  0  0  0  0  0  0  0
    4.9380  -21.1580  -39.0010 C   0  0  0  0  0  0  0  0  0  0  0  0
    5.6400  -20.4760  -40.1630 C   0  0  0  0  0  0  0  0  0  0  0  0
    5.3130  -19.2510  -37.7200 O   0  0  0  0  0  0  0  0  0  0  0  0
    3.6510  -20.6800  -36.9330 C   0  0  0  0  0  0  0  0  0  0  0  0
    1.9520  -19.2190  -38.4600 N   0  0  0  0  0  0  0  0  0  0  0  0
    0.9930  -20.1500  -38.7380 C   0  0  0  0  0  0  0  0  0  0  0  0
   -0.2760  -20.0650  -38.2050 C   0  0  0  0  0  0  0  0  0  0  0  0
   -0.5910  -19.0170  -37.3700 C   0  0  0  0  0  0  0  0  0  0  0  0
   -1.7560  -18.9020  -36.8560 O   0  0  0  0  0  0  0  0  0  0  0  0
    0.3580  -18.1030  -37.1010 N   0  0  0  0  0  0  0  0  0  0  0  0
    1.5990  -18.2300  -37.6520 C   0  0  0  0  0  0  0  0  0  0  0  0
    2.4420  -17.3500  -37.3660 O   0  0  0  0  0  0  0  0  0  0  0  0
   -1.3400  -21.0600  -38.4870 C   0  0  0  0  0  0  0  0  0  0  0  0
   12.1730  -18.7650  -42.2220 H   0  0  0  0  0  0  0  0  0  0  0  0
   10.8560  -22.5460  -45.0640 H   0  0  0  0  0  0  0  0  0  0  0  0
   13.2070  -22.2220  -44.4370 H   0  0  0  0  0  0  0  0  0  0  0  0
    7.6570  -21.1520  -45.8700 H   0  0  0  0  0  0  0  0  0  0  0  0
    7.1070  -21.9260  -44.3630 H   0  0  0  0  0  0  0  0  0  0  0  0
    8.6260  -22.5500  -45.2050 H   0  0  0  0  0  0  0  0  0  0  0  0
    6.2520  -20.1430  -43.6640 H   0  0  0  0  0  0  0  0  0  0  0  0
    6.7610  -18.5820  -44.3250 H   0  0  0  0  0  0  0  0  0  0  0  0
    7.1610  -18.9210  -41.3810 H   0  0  0  0  0  0  0  0  0  0  0  0
    6.7790  -17.4660  -42.3720 H   0  0  0  0  0  0  0  0  0  0  0  0
    3.0930  -20.8550  -40.5770 H   0  0  0  0  0  0  0  0  0  0  0  0
    2.6270  -19.1350  -41.0490 H   0  0  0  0  0  0  0  0  0  0  0  0
    3.6670  -18.2510  -39.0670 H   0  0  0  0  0  0  0  0  0  0  0  0
    5.7290  -21.6090  -38.3700 H   0  0  0  0  0  0  0  0  0  0  0  0
    4.2550  -21.9480  -39.3060 H   0  0  0  0  0  0  0  0  0  0  0  0
    5.9720  -21.2540  -40.8810 H   0  0  0  0  0  0  0  0  0  0  0  0
    6.5150  -19.9230  -39.7890 H   0  0  0  0  0  0  0  0  0  0  0  0
    5.3010  -19.3080  -36.7330 H   0  0  0  0  0  0  0  0  0  0  0  0
    4.3650  -20.6400  -36.0590 H   0  0  0  0  0  0  0  0  0  0  0  0
    3.4340  -21.7780  -37.0520 H   0  0  0  0  0  0  0  0  0  0  0  0
    2.7400  -20.1670  -36.6020 H   0  0  0  0  0  0  0  0  0  0  0  0
    1.2470  -20.9870  -39.4060 H   0  0  0  0  0  0  0  0  0  0  0  0
    0.1250  -17.3130  -36.4720 H   0  0  0  0  0  0  0  0  0  0  0  0
   -1.2540  -21.8410  -37.6900 H   0  0  0  0  0  0  0  0  0  0  0  0
   -2.3490  -20.6130  -38.3740 H   0  0  0  0  0  0  0  0  0  0  0  0
   -1.2030  -21.4960  -39.4980 H   0  0  0  0  0  0  0  0  0  0  0  0
  2  1  1  0  0  0  0
  2  3  1  0  0  0  0
  3 33  1  0  0  0  0
  4  5  1  0  0  0  0
  4  3  2  0  0  0  0
  6 12  1  0  0  0  0
  6  5  2  0  0  0  0
  7  8  1  0  0  0  0
  7  6  1  0  0  0  0
  8  4  1  0  0  0  0
  9 10  1  0  0  0  0
  9  8  2  0  0  0  0
 10  2  2  0  0  0  0
 11 37  1  0  0  0  0
 11  7  1  0  0  0  0
 12 13  1  0  0  0  0
 13 14  1  0  0  0  0
 13 41  1  0  0  0  0
 14 16  1  0  0  0  0
 15 14  2  0  0  0  0
 16 17  1  0  0  0  0
 16 21  1  0  0  0  0
 17 18  1  0  0  0  0
 18 45  1  6  0  0  0
 18 24  1  0  0  0  0
 18 19  1  0  0  0  0
 19 22  1  1  0  0  0
 19 23  1  0  0  0  0
 20 46  1  0  0  0  0
 20 19  1  0  0  0  0
 21 49  1  0  0  0  0
 21 20  1  0  0  0  0
 22 50  1  0  0  0  0
 23 53  1  0  0  0  0
 23 51  1  0  0  0  0
 24 30  1  0  0  0  0
 25 24  1  0  0  0  0
 25 26  2  0  0  0  0
 26 27  1  0  0  0  0
 27 29  1  0  0  0  0
 27 28  2  0  0  0  0
 29 55  1  0  0  0  0
 30 31  2  0  0  0  0
 30 29  1  0  0  0  0
 32 57  1  0  0  0  0
 32 26  1  0  0  0  0
 32 56  1  0  0  0  0
 34  9  1  0  0  0  0
 35 10  1  0  0  0  0
 36 11  1  0  0  0  0
 38 11  1  0  0  0  0
 39 12  1  0  0  0  0
 40 12  1  0  0  0  0
 42 13  1  0  0  0  0
 43 17  1  0  0  0  0
 44 17  1  0  0  0  0
 47 20  1  0  0  0  0
 48 21  1  0  0  0  0
 52 23  1  0  0  0  0
 54 25  1  0  0  0  0
 58 32  1  0  0  0  0
M  END
>  <Pose>
1

>  <Score>
-4.26

$$$$
