
 OpenBabel03232221553D

 54 57  0  0  1  0  0  0  0  0999 V2000
   -0.5800  -11.9920  -35.7930 Cl  0  0  0  0  0  0  0  0  0  0  0  0
    0.7940  -12.3160  -36.8220 C   0  0  0  0  0  0  0  0  0  0  0  0
    1.1220  -13.6420  -37.0850 C   0  0  0  0  0  0  0  0  0  0  0  0
    2.1720  -13.8530  -37.9380 C   0  0  0  0  0  0  0  0  0  0  0  0
    2.8740  -12.7910  -38.4950 C   0  0  0  0  0  0  0  0  0  0  0  0
    2.5450  -11.4450  -38.2300 C   0  0  0  0  0  0  0  0  0  0  0  0
    1.4720  -11.2810  -37.3770 C   0  0  0  0  0  0  0  0  0  0  0  0
    0.4380  -14.7010  -36.2970 C   0  0  0  0  0  0  0  0  0  0  0  0
    1.3320  -15.6800  -35.7930 N   0  0  0  0  0  0  0  0  0  0  0  0
    1.6850  -16.8930  -36.3870 C   0  0  0  0  0  0  0  0  0  0  0  0
    2.6790  -17.5030  -36.0880 O   0  0  0  0  0  0  0  0  0  0  0  0
    0.7400  -17.4610  -37.4520 C   0  0  0  0  0  0  0  0  0  0  0  0
    1.5110  -18.3980  -38.2330 N   0  0  0  0  0  0  0  0  0  0  0  0
    1.3060  -19.7710  -38.1930 C   0  0  0  0  0  0  0  0  0  0  0  0
    2.1150  -20.4010  -39.4050 C   0  0  0  0  0  0  0  0  0  0  0  0
    3.1930  -19.4550  -39.5240 N   0  0  0  0  0  0  0  0  0  0  0  0
    2.7620  -18.2610  -40.3080 C   0  0  0  0  0  0  0  0  0  0  0  0
    1.4560  -17.9050  -39.6550 C   0  0  0  0  0  0  0  0  0  0  0  0
    4.4640  -19.6430  -39.0710 C   0  0  0  0  0  0  0  0  0  0  0  0
    5.3300  -18.7430  -39.3450 O   0  0  0  0  0  0  0  0  0  0  0  0
    5.0030  -20.8050  -38.2960 C   0  0  1  0  0  0  0  0  0  0  0  0
    4.6910  -21.9650  -39.1350 O   0  0  0  0  0  0  0  0  0  0  0  0
    4.8240  -21.6280  -40.5130 C   0  0  0  0  0  0  0  0  0  0  0  0
    5.8090  -20.7370  -40.8510 C   0  0  0  0  0  0  0  0  0  0  0  0
    6.0100  -20.3410  -42.1680 C   0  0  0  0  0  0  0  0  0  0  0  0
    5.1610  -20.9000  -43.1170 C   0  0  0  0  0  0  0  0  0  0  0  0
    4.1680  -21.8040  -42.8130 C   0  0  0  0  0  0  0  0  0  0  0  0
    4.0020  -22.1730  -41.4930 C   0  0  0  0  0  0  0  0  0  0  0  0
    6.6300  -20.2150  -39.8450 O   0  0  0  0  0  0  0  0  0  0  0  0
    6.5410  -20.6970  -38.4810 C   0  0  0  0  0  0  0  0  0  0  0  0
    2.5160  -14.8390  -38.2070 H   0  0  0  0  0  0  0  0  0  0  0  0
    3.7230  -12.9070  -39.1620 H   0  0  0  0  0  0  0  0  0  0  0  0
    3.1060  -10.6410  -38.6780 H   0  0  0  0  0  0  0  0  0  0  0  0
    1.1820  -10.2660  -37.1890 H   0  0  0  0  0  0  0  0  0  0  0  0
    0.0190  -14.1160  -35.3980 H   0  0  0  0  0  0  0  0  0  0  0  0
   -0.3630  -15.1360  -36.9010 H   0  0  0  0  0  0  0  0  0  0  0  0
    1.7370  -15.5330  -34.8010 H   0  0  0  0  0  0  0  0  0  0  0  0
   -0.1050  -17.9840  -36.9860 H   0  0  0  0  0  0  0  0  0  0  0  0
    0.4100  -16.6250  -38.0770 H   0  0  0  0  0  0  0  0  0  0  0  0
    0.3200  -20.1890  -38.2550 H   0  0  0  0  0  0  0  0  0  0  0  0
    1.9070  -20.1960  -37.3280 H   0  0  0  0  0  0  0  0  0  0  0  0
    1.4500  -20.3650  -40.2790 H   0  0  0  0  0  0  0  0  0  0  0  0
    2.4670  -21.3930  -39.1490 H   0  0  0  0  0  0  0  0  0  0  0  0
    2.5150  -18.6620  -41.3070 H   0  0  0  0  0  0  0  0  0  0  0  0
    3.5090  -17.4970  -40.3590 H   0  0  0  0  0  0  0  0  0  0  0  0
    0.6220  -18.4800  -40.0940 H   0  0  0  0  0  0  0  0  0  0  0  0
    1.1960  -16.8560  -39.6080 H   0  0  0  0  0  0  0  0  0  0  0  0
    4.6810  -20.8960  -37.2910 H   0  0  0  0  0  0  0  0  0  0  0  0
    6.7970  -19.6140  -42.4100 H   0  0  0  0  0  0  0  0  0  0  0  0
    5.3070  -20.5780  -44.1410 H   0  0  0  0  0  0  0  0  0  0  0  0
    3.5080  -22.2110  -43.6020 H   0  0  0  0  0  0  0  0  0  0  0  0
    3.2380  -22.8790  -41.1930 H   0  0  0  0  0  0  0  0  0  0  0  0
    6.8230  -19.8120  -37.8510 H   0  0  0  0  0  0  0  0  0  0  0  0
    7.0610  -21.6090  -38.2900 H   0  0  0  0  0  0  0  0  0  0  0  0
  2  1  1  0  0  0  0
  3  2  1  0  0  0  0
  3  8  1  0  0  0  0
  4  3  2  0  0  0  0
  5  6  2  0  0  0  0
  5  4  1  0  0  0  0
  6  7  1  0  0  0  0
  7 34  1  0  0  0  0
  7  2  2  0  0  0  0
  8  9  1  0  0  0  0
  8 35  1  0  0  0  0
  9 37  1  0  0  0  0
 10 11  2  0  0  0  0
 10  9  1  0  0  0  0
 12 38  1  0  0  0  0
 12 10  1  0  0  0  0
 13 14  1  0  0  0  0
 13 12  1  0  0  0  0
 14 41  1  0  0  0  0
 15 43  1  0  0  0  0
 15 14  1  0  0  0  0
 16 15  1  0  0  0  0
 16 19  1  0  0  0  0
 17 18  1  0  0  0  0
 17 16  1  0  0  0  0
 18 47  1  0  0  0  0
 18 13  1  0  0  0  0
 19 21  1  0  0  0  0
 20 19  2  0  0  0  0
 21 48  1  1  0  0  0
 22 21  1  0  0  0  0
 23 22  1  0  0  0  0
 24 23  1  0  0  0  0
 24 29  1  0  0  0  0
 25 24  2  0  0  0  0
 26 27  2  0  0  0  0
 26 25  1  0  0  0  0
 27 28  1  0  0  0  0
 28 52  1  0  0  0  0
 28 23  2  0  0  0  0
 29 30  1  0  0  0  0
 30 21  1  0  0  0  0
 30 54  1  0  0  0  0
 30 53  1  0  0  0  0
 31  4  1  0  0  0  0
 32  5  1  0  0  0  0
 33  6  1  0  0  0  0
 36  8  1  0  0  0  0
 39 12  1  0  0  0  0
 40 14  1  0  0  0  0
 42 15  1  0  0  0  0
 44 17  1  0  0  0  0
 45 17  1  0  0  0  0
 46 18  1  0  0  0  0
 49 25  1  0  0  0  0
 50 26  1  0  0  0  0
 51 27  1  0  0  0  0
M  END
>  <Pose>
1

>  <Score>
-4.84

$$$$
