
 OpenBabel03232221553D

 45 48  0  0  0  0  0  0  0  0999 V2000
    5.6990  -25.8540  -43.8060 Cl  0  0  0  0  0  0  0  0  0  0  0  0
    5.0050  -24.2980  -43.4040 C   0  0  0  0  0  0  0  0  0  0  0  0
    3.8830  -24.2620  -42.6320 C   0  0  0  0  0  0  0  0  0  0  0  0
    3.2990  -23.0380  -42.2890 C   0  0  0  0  0  0  0  0  0  0  0  0
    3.8050  -21.8480  -42.6970 C   0  0  0  0  0  0  0  0  0  0  0  0
    4.9610  -21.9210  -43.4900 C   0  0  0  0  0  0  0  0  0  0  0  0
    5.5520  -23.1130  -43.8400 C   0  0  0  0  0  0  0  0  0  0  0  0
    3.2640  -20.5440  -42.3230 C   0  0  0  0  0  0  0  0  0  0  0  0
    3.0740  -20.2950  -40.9190 N   0  0  0  0  0  0  0  0  0  0  0  0
    4.0910  -19.8940  -40.0970 C   0  0  0  0  0  0  0  0  0  0  0  0
    3.6230  -19.7320  -38.8220 C   0  0  0  0  0  0  0  0  0  0  0  0
    2.3350  -20.0380  -38.9010 N   0  0  0  0  0  0  0  0  0  0  0  0
    1.9700  -20.3870  -40.1770 C   0  0  0  0  0  0  0  0  0  0  0  0
    0.6460  -20.7430  -40.5160 N   0  0  0  0  0  0  0  0  0  0  0  0
   -0.3800  -20.5950  -39.4920 C   0  0  0  0  0  0  0  0  0  0  0  0
   -1.6190  -20.1510  -40.2900 C   0  0  0  0  0  0  0  0  0  0  0  0
   -1.2550  -19.3370  -41.4280 N   0  0  0  0  0  0  0  0  0  0  0  0
   -0.5170  -20.0500  -42.4490 C   0  0  0  0  0  0  0  0  0  0  0  0
    0.1430  -21.2280  -41.7480 C   0  0  0  0  0  0  0  0  0  0  0  0
    4.4270  -19.3330  -37.8190 N   0  0  0  0  0  0  0  0  0  0  0  0
    5.7390  -19.0810  -38.0670 C   0  0  0  0  0  0  0  0  0  0  0  0
    6.4480  -18.7130  -37.1030 O   0  0  0  0  0  0  0  0  0  0  0  0
    6.2450  -19.2250  -39.3030 N   0  0  0  0  0  0  0  0  0  0  0  0
    5.4340  -19.6230  -40.2950 C   0  0  0  0  0  0  0  0  0  0  0  0
    5.9530  -19.7410  -41.4270 O   0  0  0  0  0  0  0  0  0  0  0  0
    3.8470  -19.1880  -36.4950 C   0  0  0  0  0  0  0  0  0  0  0  0
    3.4170  -25.1620  -42.2650 H   0  0  0  0  0  0  0  0  0  0  0  0
    2.4070  -23.0820  -41.6840 H   0  0  0  0  0  0  0  0  0  0  0  0
    5.3900  -20.9720  -43.8330 H   0  0  0  0  0  0  0  0  0  0  0  0
    6.4420  -23.1690  -44.4510 H   0  0  0  0  0  0  0  0  0  0  0  0
    2.3380  -20.2750  -42.9200 H   0  0  0  0  0  0  0  0  0  0  0  0
    3.9890  -19.7800  -42.7240 H   0  0  0  0  0  0  0  0  0  0  0  0
   -0.1170  -19.8590  -38.7290 H   0  0  0  0  0  0  0  0  0  0  0  0
   -0.6510  -21.5520  -39.0220 H   0  0  0  0  0  0  0  0  0  0  0  0
   -2.2600  -21.0160  -40.5420 H   0  0  0  0  0  0  0  0  0  0  0  0
   -2.2050  -19.4810  -39.6140 H   0  0  0  0  0  0  0  0  0  0  0  0
   -2.1390  -19.0090  -41.8540 H   0  0  0  0  0  0  0  0  0  0  0  0
    0.2270  -19.4110  -42.9670 H   0  0  0  0  0  0  0  0  0  0  0  0
   -1.1940  -20.4480  -43.2410 H   0  0  0  0  0  0  0  0  0  0  0  0
   -0.7540  -21.9270  -41.5590 H   0  0  0  0  0  0  0  0  0  0  0  0
    0.7670  -21.8420  -42.3710 H   0  0  0  0  0  0  0  0  0  0  0  0
    7.2570  -19.0190  -39.4390 H   0  0  0  0  0  0  0  0  0  0  0  0
    3.5670  -20.1860  -36.0810 H   0  0  0  0  0  0  0  0  0  0  0  0
    2.9130  -18.5620  -36.5170 H   0  0  0  0  0  0  0  0  0  0  0  0
    4.5320  -18.7240  -35.7770 H   0  0  0  0  0  0  0  0  0  0  0  0
  1  2  1  0  0  0  0
  2  3  1  0  0  0  0
  3  4  2  0  0  0  0
  3 27  1  0  0  0  0
  4 28  1  0  0  0  0
  5  8  1  0  0  0  0
  5  4  1  0  0  0  0
  6  5  2  0  0  0  0
  7  6  1  0  0  0  0
  7  2  2  0  0  0  0
  8  9  1  0  0  0  0
  9 13  1  0  0  0  0
  9 10  1  0  0  0  0
 10 11  2  0  0  0  0
 11 20  1  0  0  0  0
 12 11  1  0  0  0  0
 13 12  2  0  0  0  0
 14 13  1  0  0  0  0
 14 15  1  0  0  0  0
 15 34  1  0  0  0  0
 15 33  1  0  0  0  0
 16 36  1  0  0  0  0
 16 15  1  0  0  0  0
 17 16  1  0  0  0  0
 18 19  1  0  0  0  0
 18 17  1  0  0  0  0
 19 40  1  0  0  0  0
 19 14  1  0  0  0  0
 20 26  1  0  0  0  0
 21 20  1  0  0  0  0
 21 22  2  0  0  0  0
 23 21  1  0  0  0  0
 24 10  1  0  0  0  0
 24 23  1  0  0  0  0
 25 24  2  0  0  0  0
 26 43  1  0  0  0  0
 26 45  1  0  0  0  0
 29  6  1  0  0  0  0
 30  7  1  0  0  0  0
 31  8  1  0  0  0  0
 32  8  1  0  0  0  0
 35 16  1  0  0  0  0
 37 17  1  0  0  0  0
 38 18  1  0  0  0  0
 39 18  1  0  0  0  0
 41 19  1  0  0  0  0
 42 23  1  0  0  0  0
 44 26  1  0  0  0  0
M  END
>  <Pose>
1

>  <Score>
-4.42

$$$$
