
 OpenBabel03232221553D

 50 53  0  0  1  0  0  0  0  0999 V2000
   14.5740  -30.1620  -46.0020 Cl  0  0  0  0  0  0  0  0  0  0  0  0
   13.7770  -28.8210  -45.2170 C   0  0  0  0  0  0  0  0  0  0  0  0
   14.4170  -27.6290  -44.9570 C   0  0  0  0  0  0  0  0  0  0  0  0
   13.7260  -26.6100  -44.3300 C   0  0  0  0  0  0  0  0  0  0  0  0
   12.4140  -26.7280  -43.9480 C   0  0  0  0  0  0  0  0  0  0  0  0
   11.7820  -27.9420  -44.2190 C   0  0  0  0  0  0  0  0  0  0  0  0
   12.4650  -28.9620  -44.8440 C   0  0  0  0  0  0  0  0  0  0  0  0
   11.6850  -25.6310  -43.2640 C   0  0  1  0  0  0  0  0  0  0  0  0
   12.0700  -24.3290  -43.8230 N   0  0  0  0  0  0  0  0  0  0  0  0
   11.6000  -24.3390  -45.1590 C   0  0  0  0  0  0  0  0  0  0  0  0
   12.0930  -23.7170  -46.1300 O   0  0  0  0  0  0  0  0  0  0  0  0
   10.4190  -25.2220  -45.1920 C   0  0  0  0  0  0  0  0  0  0  0  0
    9.7040  -25.5110  -46.1780 O   0  0  0  0  0  0  0  0  0  0  0  0
   10.2720  -25.6890  -43.8200 C   0  0  0  0  0  0  0  0  0  0  0  0
    9.1860  -26.0520  -43.2310 C   0  0  0  0  0  0  0  0  0  0  0  0
    9.1930  -26.4660  -41.9000 O   0  0  0  0  0  0  0  0  0  0  0  0
    7.9110  -26.0420  -43.9420 C   0  0  0  0  0  0  0  0  0  0  0  0
    7.4460  -26.7790  -44.8870 O   0  0  0  0  0  0  0  0  0  0  0  0
    6.2440  -26.4070  -45.2210 C   0  0  0  0  0  0  0  0  0  0  0  0
    5.8680  -25.3410  -44.4450 C   0  0  0  0  0  0  0  0  0  0  0  0
    6.9300  -25.0960  -43.6190 C   0  0  0  0  0  0  0  0  0  0  0  0
   12.7920  -23.2740  -43.1260 C   0  0  0  0  0  0  0  0  0  0  0  0
   14.2820  -23.3640  -43.2480 C   0  0  0  0  0  0  0  0  0  0  0  0
   15.0240  -22.2820  -42.6990 N   0  0  0  0  0  4  0  0  0  0  0  0
   16.2790  -21.9850  -43.3100 C   0  0  0  0  0  0  0  0  0  0  0  0
   16.1640  -21.5270  -44.7460 C   0  0  0  0  0  0  0  0  0  0  0  0
   15.3390  -20.4120  -44.8460 O   0  0  0  0  0  0  0  0  0  0  0  0
   14.1170  -20.6070  -44.2100 C   0  0  0  0  0  0  0  0  0  0  0  0
   14.2560  -21.0210  -42.7690 C   0  0  0  0  0  0  0  0  0  0  0  0
   15.4480  -27.5530  -45.2630 H   0  0  0  0  0  0  0  0  0  0  0  0
   14.2620  -25.6890  -44.1460 H   0  0  0  0  0  0  0  0  0  0  0  0
   10.7310  -28.0350  -43.9100 H   0  0  0  0  0  0  0  0  0  0  0  0
   11.9660  -29.9040  -45.0530 H   0  0  0  0  0  0  0  0  0  0  0  0
   11.7110  -25.6670  -42.1790 H   0  0  0  0  0  0  0  0  0  0  0  0
    5.5860  -26.8310  -45.9880 H   0  0  0  0  0  0  0  0  0  0  0  0
    4.9250  -24.7770  -44.4540 H   0  0  0  0  0  0  0  0  0  0  0  0
    6.9890  -24.3260  -42.8680 H   0  0  0  0  0  0  0  0  0  0  0  0
   12.4910  -23.2410  -42.0510 H   0  0  0  0  0  0  0  0  0  0  0  0
   12.4420  -22.3170  -43.6040 H   0  0  0  0  0  0  0  0  0  0  0  0
   14.6360  -24.3630  -42.9120 H   0  0  0  0  0  0  0  0  0  0  0  0
   14.4960  -23.3630  -44.3560 H   0  0  0  0  0  0  0  0  0  0  0  0
   15.2030  -22.4860  -41.6910 H   0  0  0  0  0  0  0  0  0  0  0  0
   16.6770  -21.0790  -42.7570 H   0  0  0  0  0  0  0  0  0  0  0  0
   17.0540  -22.7390  -43.2130 H   0  0  0  0  0  0  0  0  0  0  0  0
   17.1970  -21.1540  -45.0140 H   0  0  0  0  0  0  0  0  0  0  0  0
   15.9310  -22.3280  -45.4560 H   0  0  0  0  0  0  0  0  0  0  0  0
   13.4890  -21.3590  -44.7380 H   0  0  0  0  0  0  0  0  0  0  0  0
   13.5850  -19.6320  -44.2350 H   0  0  0  0  0  0  0  0  0  0  0  0
   14.8470  -20.2520  -42.2460 H   0  0  0  0  0  0  0  0  0  0  0  0
   13.2320  -21.1470  -42.3720 H   0  0  0  0  0  0  0  0  0  0  0  0
  1  2  1  0  0  0  0
  2  3  2  0  0  0  0
  2  7  1  0  0  0  0
  3  4  1  0  0  0  0
  4 31  1  0  0  0  0
  4  5  2  0  0  0  0
  5  8  1  0  0  0  0
  6  5  1  0  0  0  0
  6 32  1  0  0  0  0
  7  6  2  0  0  0  0
  8 34  1  1  0  0  0
  9  8  1  0  0  0  0
  9 22  1  0  0  0  0
 10  9  1  0  0  0  0
 11 10  2  0  0  0  0
 12 10  1  0  0  0  0
 12 14  1  0  0  0  0
 13 12  2  0  0  0  0
 14  8  1  0  0  0  0
 14 15  2  0  0  0  0
 15 16  1  0  0  0  0
 17 21  2  0  0  0  0
 17 15  1  0  0  0  0
 18 17  1  0  0  0  0
 19 18  1  0  0  0  0
 19 20  2  0  0  0  0
 20 21  1  0  0  0  0
 21 37  1  0  0  0  0
 22 38  1  0  0  0  0
 23 22  1  0  0  0  0
 23 40  1  0  0  0  0
 23 24  1  0  0  0  0
 24 42  1  0  0  0  0
 25 44  1  0  0  0  0
 25 43  1  0  0  0  0
 25 24  1  0  0  0  0
 26 25  1  0  0  0  0
 27 26  1  0  0  0  0
 27 28  1  0  0  0  0
 28 29  1  0  0  0  0
 29 24  1  0  0  0  0
 29 50  1  0  0  0  0
 29 49  1  0  0  0  0
 30  3  1  0  0  0  0
 33  7  1  0  0  0  0
 35 19  1  0  0  0  0
 36 20  1  0  0  0  0
 39 22  1  0  0  0  0
 41 23  1  0  0  0  0
 45 26  1  0  0  0  0
 46 26  1  0  0  0  0
 47 28  1  0  0  0  0
 48 28  1  0  0  0  0
M  END
>  <Pose>
1

>  <Score>
-3.94

$$$$
