
 OpenBabel03232221553D

 40 43  0  0  0  0  0  0  0  0999 V2000
    6.8230  -19.1730  -37.7250 Cl  0  0  0  0  0  0  0  0  0  0  0  0
    5.5840  -19.7170  -38.8380 C   0  0  0  0  0  0  0  0  0  0  0  0
    5.6580  -19.4610  -40.1880 C   0  0  0  0  0  0  0  0  0  0  0  0
    4.6630  -19.9000  -41.0650 C   0  0  0  0  0  0  0  0  0  0  0  0
    3.5910  -20.6070  -40.5400 C   0  0  0  0  0  0  0  0  0  0  0  0
    3.5040  -20.8720  -39.1950 C   0  0  0  0  0  0  0  0  0  0  0  0
    4.4860  -20.4340  -38.3440 C   0  0  0  0  0  0  0  0  0  0  0  0
    2.5180  -21.0910  -41.4270 C   0  0  0  0  0  0  0  0  0  0  0  0
    1.4360  -21.7570  -41.2070 N   0  0  0  0  0  0  0  0  0  0  0  0
    0.6870  -22.0030  -42.4090 C   0  0  0  0  0  0  0  0  0  0  0  0
    1.5010  -21.3590  -43.4880 C   0  0  0  0  0  0  0  0  0  0  0  0
    2.6390  -20.8030  -42.8070 N   0  0  0  0  0  0  0  0  0  0  0  0
    3.7500  -20.0760  -43.3140 C   0  0  0  0  0  0  0  0  0  0  0  0
    3.8780  -19.8100  -44.5430 O   0  0  0  0  0  0  0  0  0  0  0  0
    4.7990  -19.6020  -42.4500 N   0  0  0  0  0  0  0  0  0  0  0  0
    5.9280  -18.8600  -42.9930 C   0  0  0  0  0  0  0  0  0  0  0  0
    7.1690  -19.6660  -42.9500 C   0  0  0  0  0  0  0  0  0  0  0  0
    7.0770  -20.9050  -43.1340 O   0  0  0  0  0  0  0  0  0  0  0  0
    8.4480  -19.1080  -42.7130 N   0  0  0  0  0  0  0  0  0  0  0  0
    9.5000  -19.1590  -43.6990 C   0  0  0  0  0  0  0  0  0  0  0  0
   10.7220  -19.8200  -43.1170 C   0  0  0  0  0  0  0  0  0  0  0  0
   12.0690  -19.2760  -43.4340 C   0  0  0  0  0  0  0  0  0  0  0  0
   11.6280  -20.5380  -44.0720 C   0  0  0  0  0  0  0  0  0  0  0  0
    6.5010  -18.9060  -40.6000 H   0  0  0  0  0  0  0  0  0  0  0  0
    2.6730  -21.4160  -38.8010 H   0  0  0  0  0  0  0  0  0  0  0  0
    4.4720  -20.6130  -37.2640 H   0  0  0  0  0  0  0  0  0  0  0  0
   -0.3460  -21.5980  -42.3610 H   0  0  0  0  0  0  0  0  0  0  0  0
    0.6500  -23.1060  -42.6280 H   0  0  0  0  0  0  0  0  0  0  0  0
    1.8040  -22.0880  -44.2830 H   0  0  0  0  0  0  0  0  0  0  0  0
    0.8750  -20.5490  -43.9320 H   0  0  0  0  0  0  0  0  0  0  0  0
    6.0280  -17.8470  -42.5940 H   0  0  0  0  0  0  0  0  0  0  0  0
    5.6910  -18.7300  -44.0920 H   0  0  0  0  0  0  0  0  0  0  0  0
    8.6140  -18.6500  -41.7940 H   0  0  0  0  0  0  0  0  0  0  0  0
    9.7320  -18.1160  -44.0540 H   0  0  0  0  0  0  0  0  0  0  0  0
    9.1370  -19.7270  -44.5710 H   0  0  0  0  0  0  0  0  0  0  0  0
   10.5320  -20.3740  -42.1740 H   0  0  0  0  0  0  0  0  0  0  0  0
   12.1260  -18.3370  -44.0310 H   0  0  0  0  0  0  0  0  0  0  0  0
   12.8200  -19.2960  -42.6110 H   0  0  0  0  0  0  0  0  0  0  0  0
   11.3490  -20.4700  -45.1480 H   0  0  0  0  0  0  0  0  0  0  0  0
   12.1100  -21.4850  -43.7410 H   0  0  0  0  0  0  0  0  0  0  0  0
  2  7  1  0  0  0  0
  2  1  1  0  0  0  0
  3  2  2  0  0  0  0
  4  5  2  0  0  0  0
  4  3  1  0  0  0  0
  5  6  1  0  0  0  0
  6 25  1  0  0  0  0
  6  7  2  0  0  0  0
  7 26  1  0  0  0  0
  8  9  2  0  0  0  0
  8  5  1  0  0  0  0
 10 27  1  0  0  0  0
 10  9  1  0  0  0  0
 11 12  1  0  0  0  0
 11 10  1  0  0  0  0
 12  8  1  0  0  0  0
 13 12  1  0  0  0  0
 13 15  1  0  0  0  0
 14 13  2  0  0  0  0
 15  4  1  0  0  0  0
 16 17  1  0  0  0  0
 16 31  1  0  0  0  0
 16 15  1  0  0  0  0
 17 19  1  0  0  0  0
 18 17  2  0  0  0  0
 19 33  1  0  0  0  0
 20 21  1  0  0  0  0
 20 19  1  0  0  0  0
 21 36  1  0  0  0  0
 22 21  1  0  0  0  0
 22 38  1  0  0  0  0
 23 40  1  0  0  0  0
 23 22  1  0  0  0  0
 23 21  1  0  0  0  0
 24  3  1  0  0  0  0
 28 10  1  0  0  0  0
 29 11  1  0  0  0  0
 30 11  1  0  0  0  0
 32 16  1  0  0  0  0
 34 20  1  0  0  0  0
 35 20  1  0  0  0  0
 37 22  1  0  0  0  0
 39 23  1  0  0  0  0
M  END
>  <Pose>
1

>  <Score>
-3.83

$$$$
