
 OpenBabel03232221553D

 42 45  0  0  1  0  0  0  0  0999 V2000
    1.2820  -16.4620  -35.7680 Cl  0  0  0  0  0  0  0  0  0  0  0  0
    1.2590  -17.6200  -37.0970 C   0  0  0  0  0  0  0  0  0  0  0  0
    2.3820  -18.3320  -37.4650 C   0  0  0  0  0  0  0  0  0  0  0  0
    2.3840  -19.2270  -38.4830 N   0  0  0  0  0  0  0  0  0  0  0  0
    1.2760  -19.4760  -39.2060 C   0  0  0  0  0  0  0  0  0  0  0  0
    1.2590  -20.3690  -40.2300 N   0  0  0  0  0  0  0  0  0  0  0  0
    2.3490  -21.0680  -40.5950 C   0  0  0  0  0  0  0  0  0  0  0  0
    3.5030  -20.8210  -39.8590 C   0  0  2  0  0  0  0  0  0  0  0  0
    4.7080  -21.5920  -40.2610 C   0  0  0  0  0  0  0  0  0  0  0  0
    4.7480  -21.5060  -41.7260 N   0  0  0  0  0  0  0  0  0  0  0  0
    3.6490  -22.0740  -42.4540 C   0  0  0  0  0  0  0  0  0  0  0  0
    2.3430  -22.0480  -41.7110 C   0  0  0  0  0  0  0  0  0  0  0  0
    5.8310  -20.8790  -42.3800 C   0  0  0  0  0  0  0  0  0  0  0  0
    6.5960  -20.1490  -41.6640 O   0  0  0  0  0  0  0  0  0  0  0  0
    6.0980  -21.0380  -43.8270 C   0  0  0  0  0  0  0  0  0  0  0  0
    6.0590  -22.4870  -44.2600 C   0  0  0  0  0  0  0  0  0  0  0  0
    6.7810  -23.2650  -43.1680 C   0  0  0  0  0  0  0  0  0  0  0  0
    7.8740  -22.5360  -42.7020 O   0  0  0  0  0  0  0  0  0  0  0  0
    8.4300  -21.7430  -43.7150 C   0  0  0  0  0  0  0  0  0  0  0  0
    7.5380  -20.5740  -44.0880 C   0  0  0  0  0  0  0  0  0  0  0  0
    3.4910  -19.9110  -38.8250 C   0  0  0  0  0  0  0  0  0  0  0  0
    4.5600  -19.7030  -38.1660 O   0  0  0  0  0  0  0  0  0  0  0  0
    0.1380  -18.7700  -38.8520 C   0  0  0  0  0  0  0  0  0  0  0  0
    0.1090  -17.8550  -37.8210 C   0  0  0  0  0  0  0  0  0  0  0  0
    3.3000  -18.1630  -36.9090 H   0  0  0  0  0  0  0  0  0  0  0  0
    4.6040  -22.6210  -39.9040 H   0  0  0  0  0  0  0  0  0  0  0  0
    5.6360  -21.1710  -39.8490 H   0  0  0  0  0  0  0  0  0  0  0  0
    3.4740  -21.5260  -43.4090 H   0  0  0  0  0  0  0  0  0  0  0  0
    3.9490  -23.1360  -42.6940 H   0  0  0  0  0  0  0  0  0  0  0  0
    2.1320  -23.0600  -41.2560 H   0  0  0  0  0  0  0  0  0  0  0  0
    1.4830  -21.7970  -42.3670 H   0  0  0  0  0  0  0  0  0  0  0  0
    5.3830  -20.4150  -44.4100 H   0  0  0  0  0  0  0  0  0  0  0  0
    6.7290  -22.5700  -45.1620 H   0  0  0  0  0  0  0  0  0  0  0  0
    5.0710  -22.8750  -44.4920 H   0  0  0  0  0  0  0  0  0  0  0  0
    6.0810  -23.3680  -42.3220 H   0  0  0  0  0  0  0  0  0  0  0  0
    7.0600  -24.2820  -43.4950 H   0  0  0  0  0  0  0  0  0  0  0  0
    9.3660  -21.3130  -43.3030 H   0  0  0  0  0  0  0  0  0  0  0  0
    8.7160  -22.3460  -44.5960 H   0  0  0  0  0  0  0  0  0  0  0  0
    7.7710  -19.6590  -43.5350 H   0  0  0  0  0  0  0  0  0  0  0  0
    7.6170  -20.4670  -45.1950 H   0  0  0  0  0  0  0  0  0  0  0  0
   -0.7640  -18.9680  -39.4340 H   0  0  0  0  0  0  0  0  0  0  0  0
   -0.7870  -17.3070  -37.5490 H   0  0  0  0  0  0  0  0  0  0  0  0
  2  1  1  0  0  0  0
  3  2  1  0  0  0  0
  3 25  1  0  0  0  0
  4  3  1  0  0  0  0
  5 23  2  0  0  0  0
  5  4  1  0  0  0  0
  6  5  1  0  0  0  0
  7  6  2  0  0  0  0
  8  7  1  1  0  0  0
  8 21  1  0  0  0  0
  9 26  1  0  0  0  0
  9  8  1  0  0  0  0
  9 27  1  0  0  0  0
 10  9  1  0  0  0  0
 11 10  1  0  0  0  0
 11 12  1  0  0  0  0
 12 30  1  0  0  0  0
 12  7  1  0  0  0  0
 13 10  1  0  0  0  0
 13 14  2  0  0  0  0
 15 13  1  0  0  0  0
 16 15  1  0  0  0  0
 16 17  1  0  0  0  0
 17 18  1  0  0  0  0
 17 35  1  0  0  0  0
 19 37  1  0  0  0  0
 19 18  1  0  0  0  0
 20 15  1  0  0  0  0
 20 19  1  0  0  0  0
 20 39  1  0  0  0  0
 21  4  1  0  0  0  0
 21 22  2  0  0  0  0
 23 24  1  0  0  0  0
 24 42  1  0  0  0  0
 24  2  2  0  0  0  0
 28 11  1  0  0  0  0
 29 11  1  0  0  0  0
 31 12  1  0  0  0  0
 32 15  1  0  0  0  0
 33 16  1  0  0  0  0
 34 16  1  0  0  0  0
 36 17  1  0  0  0  0
 38 19  1  0  0  0  0
 40 20  1  0  0  0  0
 41 23  1  0  0  0  0
M  END
>  <Pose>
1

>  <Score>
-3.12

$$$$
