
 OpenBabel03232221553D

 41 44  0  0  0  0  0  0  0  0999 V2000
    6.1550  -21.4690  -38.8920 Cl  0  0  0  0  0  0  0  0  0  0  0  0
    4.8070  -20.3940  -39.1540 C   0  0  0  0  0  0  0  0  0  0  0  0
    3.7530  -20.3200  -38.2570 C   0  0  0  0  0  0  0  0  0  0  0  0
    2.6770  -19.4740  -38.4510 C   0  0  0  0  0  0  0  0  0  0  0  0
    2.6780  -18.6840  -39.5850 C   0  0  0  0  0  0  0  0  0  0  0  0
    3.7380  -18.7710  -40.4680 C   0  0  0  0  0  0  0  0  0  0  0  0
    4.8230  -19.6110  -40.2920 C   0  0  0  0  0  0  0  0  0  0  0  0
    5.9410  -19.6560  -41.2830 C   0  0  0  0  0  0  0  0  0  0  0  0
    5.4820  -20.3020  -42.5540 C   0  0  0  0  0  0  0  0  0  0  0  0
    4.9600  -19.5410  -43.4410 O   0  0  0  0  0  0  0  0  0  0  0  0
    5.6250  -21.7000  -42.7590 N   0  0  0  0  0  0  0  0  0  0  0  0
    6.6710  -22.3950  -42.0960 C   0  0  0  0  0  0  0  0  0  0  0  0
    7.3940  -23.2650  -43.1320 C   0  0  0  0  0  0  0  0  0  0  0  0
    6.3170  -24.2420  -43.5540 C   0  0  0  0  0  0  0  0  0  0  0  0
    5.0340  -23.7830  -43.7680 C   0  0  0  0  0  0  0  0  0  0  0  0
    4.0760  -24.6810  -44.1360 N   0  0  0  0  0  0  0  0  0  0  0  0
    4.3320  -25.9890  -44.2960 C   0  0  0  0  0  0  0  0  0  0  0  0
    5.5880  -26.4200  -44.0830 N   0  0  0  0  0  0  0  0  0  0  0  0
    6.5920  -25.5690  -43.7140 C   0  0  0  0  0  0  0  0  0  0  0  0
    7.8850  -26.0090  -43.4940 O   0  0  0  0  0  0  0  0  0  0  0  0
    4.6980  -22.3530  -43.6200 C   0  0  0  0  0  0  0  0  0  0  0  0
    1.6050  -17.8400  -39.7770 O   0  0  0  0  0  0  0  0  0  0  0  0
    0.7080  -17.4280  -38.7650 C   0  0  0  0  0  0  0  0  0  0  0  0
    0.7360  -18.2680  -37.5380 C   0  0  0  0  0  0  0  0  0  0  0  0
    1.6100  -19.3630  -37.5940 O   0  0  0  0  0  0  0  0  0  0  0  0
    3.7310  -20.9250  -37.3680 H   0  0  0  0  0  0  0  0  0  0  0  0
    3.7300  -18.1450  -41.3590 H   0  0  0  0  0  0  0  0  0  0  0  0
    6.7520  -20.2550  -40.8140 H   0  0  0  0  0  0  0  0  0  0  0  0
    6.3570  -18.6690  -41.4920 H   0  0  0  0  0  0  0  0  0  0  0  0
    6.2800  -23.0990  -41.3050 H   0  0  0  0  0  0  0  0  0  0  0  0
    7.3890  -21.7420  -41.5650 H   0  0  0  0  0  0  0  0  0  0  0  0
    8.2590  -23.7790  -42.7120 H   0  0  0  0  0  0  0  0  0  0  0  0
    7.6750  -22.5950  -43.9680 H   0  0  0  0  0  0  0  0  0  0  0  0
    3.5550  -26.6950  -44.5900 H   0  0  0  0  0  0  0  0  0  0  0  0
    8.0330  -26.7080  -42.7750 H   0  0  0  0  0  0  0  0  0  0  0  0
    4.6440  -21.8440  -44.6220 H   0  0  0  0  0  0  0  0  0  0  0  0
    3.6480  -22.3180  -43.2350 H   0  0  0  0  0  0  0  0  0  0  0  0
    1.0400  -16.3900  -38.4650 H   0  0  0  0  0  0  0  0  0  0  0  0
   -0.3050  -17.2820  -39.1880 H   0  0  0  0  0  0  0  0  0  0  0  0
    1.0090  -17.6880  -36.6210 H   0  0  0  0  0  0  0  0  0  0  0  0
   -0.3130  -18.6300  -37.3460 H   0  0  0  0  0  0  0  0  0  0  0  0
  2  1  1  0  0  0  0
  2  3  1  0  0  0  0
  3 26  1  0  0  0  0
  4  3  2  0  0  0  0
  4 25  1  0  0  0  0
  5  4  1  0  0  0  0
  6  7  1  0  0  0  0
  6  5  2  0  0  0  0
  7  2  2  0  0  0  0
  8 28  1  0  0  0  0
  8  7  1  0  0  0  0
  9  8  1  0  0  0  0
 10  9  2  0  0  0  0
 11  9  1  0  0  0  0
 11 12  1  0  0  0  0
 12 31  1  0  0  0  0
 12 30  1  0  0  0  0
 13 32  1  0  0  0  0
 13 12  1  0  0  0  0
 14 13  1  0  0  0  0
 15 21  1  0  0  0  0
 15 14  2  0  0  0  0
 16 15  1  0  0  0  0
 17 16  2  0  0  0  0
 17 18  1  0  0  0  0
 18 19  2  0  0  0  0
 19 14  1  0  0  0  0
 19 20  1  0  0  0  0
 20 35  1  0  0  0  0
 21 37  1  0  0  0  0
 21 11  1  0  0  0  0
 22  5  1  0  0  0  0
 22 23  1  0  0  0  0
 23 38  1  0  0  0  0
 23 24  1  0  0  0  0
 24 41  1  0  0  0  0
 24 40  1  0  0  0  0
 25 24  1  0  0  0  0
 27  6  1  0  0  0  0
 29  8  1  0  0  0  0
 33 13  1  0  0  0  0
 34 17  1  0  0  0  0
 36 21  1  0  0  0  0
 39 23  1  0  0  0  0
M  END
>  <Pose>
1

>  <Score>
-3.94

$$$$
