
 OpenBabel03232221553D

 35 37  0  0  1  0  0  0  0  0999 V2000
    7.5590  -18.4220  -43.2310 B   0  0  0  0  0  0  0  0  0  0  0  0
    6.5780  -19.9840  -42.7640 C   0  0  0  0  0  0  0  0  0  0  0  0
    6.2450  -20.2270  -41.4290 C   0  0  0  0  0  0  0  0  0  0  0  0
    5.5160  -21.3640  -41.0580 C   0  0  0  0  0  0  0  0  0  0  0  0
    5.1580  -22.2140  -42.0890 C   0  0  0  0  0  0  0  0  0  0  0  0
    5.4970  -21.9550  -43.4060 C   0  0  0  0  0  0  0  0  0  0  0  0
    6.2100  -20.8410  -43.7500 C   0  0  0  0  0  0  0  0  0  0  0  0
    4.4570  -23.3240  -41.7100 O   0  0  0  0  0  0  0  0  0  0  0  0
    3.8740  -24.1490  -42.6820 C   0  0  0  0  0  0  0  0  0  0  0  0
    5.1390  -21.4740  -39.6540 C   0  0  2  0  0  0  0  0  0  0  0  0
    3.8970  -20.5450  -39.5600 C   0  0  2  0  0  0  0  0  0  0  0  0
    4.5040  -19.3200  -40.2700 C   0  0  0  0  0  0  0  0  0  0  0  0
    3.9470  -18.7090  -41.1630 O   0  0  0  0  0  0  0  0  0  0  0  0
    5.8080  -19.0120  -39.7250 N   0  0  0  0  0  0  0  0  0  0  0  0
    6.0510  -19.5910  -38.3910 C   0  0  1  0  0  0  0  0  0  0  0  0
    4.8180  -19.2720  -37.6580 N   0  0  0  0  0  0  0  0  0  0  0  0
    3.6920  -20.0060  -38.1800 C   0  0  0  0  0  0  0  0  0  0  0  0
    2.6330  -20.1820  -37.5510 O   0  0  0  0  0  0  0  0  0  0  0  0
    6.0190  -21.1320  -38.5740 C   0  0  0  0  0  0  0  0  0  0  0  0
    7.2730  -19.1440  -37.7180 C   0  0  0  0  0  0  0  0  0  0  0  0
    6.5840  -19.4780  -40.7360 H   0  0  0  0  0  0  0  0  0  0  0  0
    5.1700  -22.6750  -44.1300 H   0  0  0  0  0  0  0  0  0  0  0  0
    6.4420  -20.7150  -44.8230 H   0  0  0  0  0  0  0  0  0  0  0  0
    3.3160  -23.5570  -43.4220 H   0  0  0  0  0  0  0  0  0  0  0  0
    4.7650  -24.5900  -43.2430 H   0  0  0  0  0  0  0  0  0  0  0  0
    3.3060  -24.9910  -42.2650 H   0  0  0  0  0  0  0  0  0  0  0  0
    4.6850  -22.4920  -39.5270 H   0  0  0  0  0  0  0  0  0  0  0  0
    3.0110  -20.9010  -40.0080 H   0  0  0  0  0  0  0  0  0  0  0  0
    6.5160  -18.4610  -40.2160 H   0  0  0  0  0  0  0  0  0  0  0  0
    4.7810  -18.6060  -36.8790 H   0  0  0  0  0  0  0  0  0  0  0  0
    5.5280  -21.4950  -37.6140 H   0  0  0  0  0  0  0  0  0  0  0  0
    7.0000  -21.5910  -38.5000 H   0  0  0  0  0  0  0  0  0  0  0  0
    7.0170  -19.0320  -36.6080 H   0  0  0  0  0  0  0  0  0  0  0  0
    8.1320  -19.8350  -37.7800 H   0  0  0  0  0  0  0  0  0  0  0  0
    7.6020  -18.1680  -38.0620 H   0  0  0  0  0  0  0  0  0  0  0  0
  1  2  1  0  0  0  0
  2  3  1  0  0  0  0
  3  4  2  0  0  0  0
  3 21  1  0  0  0  0
  4 10  1  0  0  0  0
  5  8  1  0  0  0  0
  5  4  1  0  0  0  0
  6  5  2  0  0  0  0
  7  6  1  0  0  0  0
  7  2  2  0  0  0  0
  9 26  1  0  0  0  0
  9  8  1  0  0  0  0
 10 11  1  0  0  0  0
 10 27  1  1  0  0  0
 10 19  1  0  0  0  0
 11 28  1  6  0  0  0
 11 17  1  0  0  0  0
 12 14  1  0  0  0  0
 12 11  1  0  0  0  0
 13 12  2  0  0  0  0
 14 15  1  0  0  0  0
 15 20  1  1  0  0  0
 15 16  1  0  0  0  0
 16 30  1  0  0  0  0
 17 16  1  0  0  0  0
 17 18  2  0  0  0  0
 19 32  1  0  0  0  0
 19 15  1  0  0  0  0
 19 31  1  0  0  0  0
 20 33  1  0  0  0  0
 22  6  1  0  0  0  0
 23  7  1  0  0  0  0
 24  9  1  0  0  0  0
 25  9  1  0  0  0  0
 29 14  1  0  0  0  0
 34 20  1  0  0  0  0
 35 20  1  0  0  0  0
M  END
>  <Pose>
1

>  <Score>
-3.65

$$$$
