
 OpenBabel03232221553D

 49 52  0  0  1  0  0  0  0  0999 V2000
    4.3060  -21.0770  -38.9850 S   0  0  0  0  0  0  0  0  0  0  0  0
    5.3790  -20.2120  -38.3660 O   0  0  0  0  0  0  0  0  0  0  0  0
    4.1340  -22.2630  -38.0990 O   0  0  0  0  0  0  0  0  0  0  0  0
    2.8810  -20.1180  -39.0710 N   0  0  0  0  0  0  0  0  0  0  0  0
    3.0620  -19.0450  -40.0280 C   0  0  0  0  0  0  0  0  0  0  0  0
    1.9080  -18.0540  -39.9380 C   0  0  0  0  0  0  0  0  0  0  0  0
    1.9000  -17.5020  -38.5840 N   0  0  0  0  0  0  0  0  0  0  0  0
    2.7540  -18.1760  -37.6510 C   0  0  0  0  0  0  0  0  0  0  0  0
    2.4950  -19.6540  -37.7730 C   0  0  0  0  0  0  0  0  0  0  0  0
    1.1020  -16.3880  -38.3040 C   0  0  0  0  0  0  0  0  0  0  0  0
   -0.1200  -16.5800  -37.9120 O   0  0  0  0  0  0  0  0  0  0  0  0
    1.4540  -14.9670  -38.3940 C   0  0  0  0  0  0  0  0  0  0  0  0
    1.4680  -14.1060  -36.8270 S   0  0  0  0  0  0  0  0  0  0  0  0
    1.0290  -12.3800  -36.9380 C   0  0  1  0  0  0  0  0  0  0  0  0
    1.6060  -11.5770  -37.8220 N   0  0  0  0  0  0  0  0  0  0  0  0
    1.3010  -10.2840  -37.9570 C   0  0  0  0  0  0  0  0  0  0  0  0
    0.3390   -9.7590  -37.1360 N   0  0  0  0  0  0  0  0  0  0  0  0
   -0.2620  -10.5410  -36.2340 C   0  0  0  0  0  0  0  0  0  0  0  0
   -1.2400  -10.2740  -35.3200 N   0  0  0  0  0  0  0  0  0  0  0  0
   -1.5050  -11.3830  -34.6610 N   0  0  0  0  0  0  0  0  0  0  0  0
   -0.7380  -12.3820  -35.1030 C   0  0  0  0  0  0  0  0  0  0  0  0
    0.0580  -11.8790  -36.0980 C   0  0  0  0  0  0  0  0  0  0  0  0
   -1.8730   -9.0020  -35.1250 C   0  0  0  0  0  0  0  0  0  0  0  0
    4.7830  -21.5620  -40.5970 C   0  0  0  0  0  0  0  0  0  0  0  0
    4.1450  -22.5330  -41.3340 C   0  0  0  0  0  0  0  0  0  0  0  0
    4.5740  -22.8770  -42.5940 C   0  0  0  0  0  0  0  0  0  0  0  0
    5.6790  -22.2370  -43.1540 C   0  0  0  0  0  0  0  0  0  0  0  0
    6.3380  -21.2480  -42.4160 C   0  0  0  0  0  0  0  0  0  0  0  0
    5.8890  -20.9200  -41.1550 C   0  0  0  0  0  0  0  0  0  0  0  0
    6.2120  -22.6830  -44.7540 Cl  0  0  0  0  0  0  0  0  0  0  0  0
    3.0370  -19.4790  -41.0360 H   0  0  0  0  0  0  0  0  0  0  0  0
    4.0080  -18.5140  -39.8930 H   0  0  0  0  0  0  0  0  0  0  0  0
    2.1230  -17.2490  -40.6700 H   0  0  0  0  0  0  0  0  0  0  0  0
    0.9890  -18.6030  -40.1620 H   0  0  0  0  0  0  0  0  0  0  0  0
    2.6700  -17.8100  -36.6100 H   0  0  0  0  0  0  0  0  0  0  0  0
    3.8150  -17.9400  -37.9370 H   0  0  0  0  0  0  0  0  0  0  0  0
    2.9130  -20.2240  -36.9330 H   0  0  0  0  0  0  0  0  0  0  0  0
    1.3720  -19.7640  -37.6640 H   0  0  0  0  0  0  0  0  0  0  0  0
    0.6960  -14.4730  -39.0350 H   0  0  0  0  0  0  0  0  0  0  0  0
    2.4280  -14.7650  -38.8890 H   0  0  0  0  0  0  0  0  0  0  0  0
    1.7940   -9.6710  -38.6900 H   0  0  0  0  0  0  0  0  0  0  0  0
   -0.7460  -13.3890  -34.7520 H   0  0  0  0  0  0  0  0  0  0  0  0
   -2.0520   -8.4540  -36.0910 H   0  0  0  0  0  0  0  0  0  0  0  0
   -2.8520   -9.1650  -34.5940 H   0  0  0  0  0  0  0  0  0  0  0  0
   -1.2130   -8.3850  -34.4860 H   0  0  0  0  0  0  0  0  0  0  0  0
    3.2920  -23.0240  -40.9030 H   0  0  0  0  0  0  0  0  0  0  0  0
    4.0940  -23.6290  -43.1970 H   0  0  0  0  0  0  0  0  0  0  0  0
    7.2000  -20.7680  -42.8790 H   0  0  0  0  0  0  0  0  0  0  0  0
    6.3870  -20.1680  -40.5890 H   0  0  0  0  0  0  0  0  0  0  0  0
  1  2  2  0  0  0  0
  1  3  2  0  0  0  0
  4  1  1  0  0  0  0
  4  9  1  0  0  0  0
  5  6  1  0  0  0  0
  5 32  1  0  0  0  0
  5  4  1  0  0  0  0
  6  7  1  0  0  0  0
  7 10  1  0  0  0  0
  7  8  1  0  0  0  0
  8 35  1  0  0  0  0
  9 38  1  0  0  0  0
  9  8  1  0  0  0  0
  9 37  1  0  0  0  0
 10 11  2  0  0  0  0
 12 10  1  0  0  0  0
 12 13  1  0  0  0  0
 14 13  1  6  0  0  0
 14 22  1  0  0  0  0
 15 14  1  0  0  0  0
 16 15  2  0  0  0  0
 16 17  1  0  0  0  0
 17 18  1  0  0  0  0
 18 22  2  0  0  0  0
 18 19  1  0  0  0  0
 19 23  1  0  0  0  0
 19 20  1  0  0  0  0
 21 42  1  0  0  0  0
 21 20  2  0  0  0  0
 22 21  1  0  0  0  0
 23 44  1  0  0  0  0
 23 45  1  0  0  0  0
 24  1  1  0  0  0  0
 25 46  1  0  0  0  0
 25 24  2  0  0  0  0
 26 25  1  0  0  0  0
 27 26  2  0  0  0  0
 27 28  1  0  0  0  0
 28 29  2  0  0  0  0
 29 24  1  0  0  0  0
 29 49  1  0  0  0  0
 30 27  1  0  0  0  0
 31  5  1  0  0  0  0
 33  6  1  0  0  0  0
 34  6  1  0  0  0  0
 36  8  1  0  0  0  0
 39 12  1  0  0  0  0
 40 12  1  0  0  0  0
 41 16  1  0  0  0  0
 43 23  1  0  0  0  0
 47 26  1  0  0  0  0
 48 28  1  0  0  0  0
M  END
>  <Pose>
1

>  <Score>
-4.69

$$$$
