
 OpenBabel03232221553D

 44 47  0  0  0  0  0  0  0  0999 V2000
    6.4460  -18.7430  -41.7940 Cl  0  0  0  0  0  0  0  0  0  0  0  0
    5.5500  -20.2190  -41.6170 C   0  0  0  0  0  0  0  0  0  0  0  0
    5.1760  -20.6800  -40.3810 C   0  0  0  0  0  0  0  0  0  0  0  0
    4.4680  -21.8580  -40.3070 C   0  0  0  0  0  0  0  0  0  0  0  0
    4.1120  -22.6000  -41.4130 C   0  0  0  0  0  0  0  0  0  0  0  0
    4.4950  -22.1230  -42.6460 C   0  0  0  0  0  0  0  0  0  0  0  0
    5.2060  -20.9450  -42.7300 C   0  0  0  0  0  0  0  0  0  0  0  0
    3.3650  -23.8370  -41.3050 N   0  0  0  0  0  0  0  0  0  0  0  0
    2.6270  -24.2340  -42.4540 C   0  0  0  0  0  0  0  0  0  0  0  0
    1.1700  -24.1650  -42.4020 C   0  0  0  0  0  0  0  0  0  0  0  0
    0.7240  -22.9360  -42.4820 O   0  0  0  0  0  0  0  0  0  0  0  0
    0.2040  -25.1340  -42.2880 N   0  0  0  0  0  0  0  0  0  0  0  0
   -0.3640  -25.8940  -43.3550 C   0  0  0  0  0  0  0  0  0  0  0  0
   -0.1110  -27.3730  -43.0790 C   0  0  0  0  0  0  0  0  0  0  0  0
   -0.8290  -27.6440  -41.8940 O   0  0  0  0  0  0  0  0  0  0  0  0
   -0.1850  -27.0220  -40.8470 C   0  0  0  0  0  0  0  0  0  0  0  0
   -0.3160  -25.4990  -40.9520 C   0  0  0  0  0  0  0  0  0  0  0  0
    5.4980  -20.0020  -39.1920 N   0  0  0  0  0  0  0  0  0  0  0  0
    6.7210  -19.6850  -38.8190 N   0  0  0  0  0  0  0  0  0  0  0  0
    6.6930  -19.0450  -37.6660 N   0  0  0  0  0  0  0  0  0  0  0  0
    5.4250  -18.9660  -37.3160 N   0  0  0  0  0  0  0  0  0  0  0  0
    4.6510  -19.5650  -38.2700 C   0  0  0  0  0  0  0  0  0  0  0  0
    3.1950  -19.6490  -38.1630 C   0  0  0  0  0  0  0  0  0  0  0  0
    2.3330  -18.6770  -37.5010 C   0  0  0  0  0  0  0  0  0  0  0  0
    2.4190  -18.6190  -39.0350 C   0  0  0  0  0  0  0  0  0  0  0  0
    4.1560  -22.2500  -39.3220 H   0  0  0  0  0  0  0  0  0  0  0  0
    4.2140  -22.7110  -43.5160 H   0  0  0  0  0  0  0  0  0  0  0  0
    5.4860  -20.6110  -43.7390 H   0  0  0  0  0  0  0  0  0  0  0  0
    3.3720  -24.3900  -40.4430 H   0  0  0  0  0  0  0  0  0  0  0  0
    2.8830  -25.3240  -42.6360 H   0  0  0  0  0  0  0  0  0  0  0  0
    3.0200  -23.7400  -43.3880 H   0  0  0  0  0  0  0  0  0  0  0  0
   -1.5040  -25.8090  -43.1760 H   0  0  0  0  0  0  0  0  0  0  0  0
   -0.1850  -25.5740  -44.3670 H   0  0  0  0  0  0  0  0  0  0  0  0
   -0.4550  -27.9710  -43.9250 H   0  0  0  0  0  0  0  0  0  0  0  0
    0.9290  -27.6050  -42.8570 H   0  0  0  0  0  0  0  0  0  0  0  0
    0.8840  -27.3160  -40.8450 H   0  0  0  0  0  0  0  0  0  0  0  0
   -0.6120  -27.3440  -39.8880 H   0  0  0  0  0  0  0  0  0  0  0  0
    0.2280  -25.0140  -40.1470 H   0  0  0  0  0  0  0  0  0  0  0  0
   -1.4020  -25.2840  -40.9930 H   0  0  0  0  0  0  0  0  0  0  0  0
    2.7340  -20.6770  -38.3160 H   0  0  0  0  0  0  0  0  0  0  0  0
    1.3570  -19.0470  -37.0640 H   0  0  0  0  0  0  0  0  0  0  0  0
    2.6230  -17.7300  -37.0530 H   0  0  0  0  0  0  0  0  0  0  0  0
    1.5000  -18.9500  -39.5350 H   0  0  0  0  0  0  0  0  0  0  0  0
    2.9910  -17.8320  -39.5200 H   0  0  0  0  0  0  0  0  0  0  0  0
  1  2  1  0  0  0  0
  2  3  1  0  0  0  0
  3  4  2  0  0  0  0
  3 18  1  0  0  0  0
  4 26  1  0  0  0  0
  5  8  1  0  0  0  0
  5  4  1  0  0  0  0
  6  5  2  0  0  0  0
  7  6  1  0  0  0  0
  7  2  2  0  0  0  0
  8 29  1  0  0  0  0
  9 10  1  0  0  0  0
  9  8  1  0  0  0  0
 10 12  1  0  0  0  0
 11 10  2  0  0  0  0
 12 17  1  0  0  0  0
 13 32  1  0  0  0  0
 13 14  1  0  0  0  0
 13 12  1  0  0  0  0
 14 35  1  0  0  0  0
 14 15  1  0  0  0  0
 15 16  1  0  0  0  0
 16 36  1  0  0  0  0
 16 37  1  0  0  0  0
 17 16  1  0  0  0  0
 17 38  1  0  0  0  0
 18 19  1  0  0  0  0
 18 22  1  0  0  0  0
 19 20  2  0  0  0  0
 20 21  1  0  0  0  0
 22 23  1  0  0  0  0
 22 21  2  0  0  0  0
 23 24  1  0  0  0  0
 24 41  1  0  0  0  0
 24 42  1  0  0  0  0
 25 23  1  0  0  0  0
 25 24  1  0  0  0  0
 27  6  1  0  0  0  0
 28  7  1  0  0  0  0
 30  9  1  0  0  0  0
 31  9  1  0  0  0  0
 33 13  1  0  0  0  0
 34 14  1  0  0  0  0
 39 17  1  0  0  0  0
 40 23  1  0  0  0  0
 43 25  1  0  0  0  0
 44 25  1  0  0  0  0
M  END
>  <Pose>
1

>  <Score>
-4.66

$$$$
