
 OpenBabel03232221553D

 45 48  0  0  0  0  0  0  0  0999 V2000
    5.4230  -20.1490  -38.8750 S   0  0  0  0  0  0  0  0  0  0  0  0
    5.8110  -18.7060  -39.1120 O   0  0  0  0  0  0  0  0  0  0  0  0
    6.5510  -20.8140  -38.1790 O   0  0  0  0  0  0  0  0  0  0  0  0
    3.9810  -20.1780  -37.9330 N   0  0  0  0  0  0  0  0  0  0  0  0
    2.8580  -20.1860  -38.7980 C   0  0  0  0  0  0  0  0  0  0  0  0
    1.7770  -19.1750  -38.5410 C   0  0  0  0  0  0  0  0  0  0  0  0
    2.3630  -17.9880  -38.0100 N   0  0  0  0  0  0  0  0  0  0  0  0
    2.8940  -18.3510  -36.6970 C   0  0  0  0  0  0  0  0  0  0  0  0
    4.0670  -19.2360  -36.8980 C   0  0  0  0  0  0  0  0  0  0  0  0
    1.4900  -16.8680  -37.9220 C   0  0  0  0  0  0  0  0  0  0  0  0
    1.2410  -16.4640  -36.5090 C   0  0  0  0  0  0  0  0  0  0  0  0
    0.4480  -15.2570  -36.4110 N   0  0  0  0  0  0  0  0  0  0  0  0
   -0.8730  -15.1450  -36.5430 N   0  0  0  0  0  0  0  0  0  0  0  0
   -1.2540  -13.8710  -36.3740 C   0  0  0  0  0  0  0  0  0  0  0  0
   -0.1480  -13.1570  -36.1290 N   0  0  0  0  0  0  0  0  0  0  0  0
   -0.2070  -11.8210  -35.9130 C   0  0  0  0  0  0  0  0  0  0  0  0
   -1.3970  -11.1280  -35.9330 C   0  0  0  0  0  0  0  0  0  0  0  0
   -2.5540  -11.8390  -36.1840 C   0  0  0  0  0  0  0  0  0  0  0  0
   -2.4610  -13.1970  -36.3990 C   0  0  0  0  0  0  0  0  0  0  0  0
    0.9020  -14.0290  -36.1540 C   0  0  0  0  0  0  0  0  0  0  0  0
    2.0790  -13.6410  -35.9580 O   0  0  0  0  0  0  0  0  0  0  0  0
    5.1640  -20.9830  -40.4140 C   0  0  0  0  0  0  0  0  0  0  0  0
    4.3700  -22.4600  -40.7230 S   0  0  0  0  0  0  0  0  0  0  0  0
    4.5630  -22.5300  -42.4120 C   0  0  0  0  0  0  0  0  0  0  0  0
    5.2520  -21.3810  -42.6940 C   0  0  0  0  0  0  0  0  0  0  0  0
    5.5620  -20.5840  -41.6640 C   0  0  0  0  0  0  0  0  0  0  0  0
    3.9690  -23.8770  -43.6560 B   0  0  0  0  0  0  0  0  0  0  0  0
    3.2370  -19.9740  -39.8470 H   0  0  0  0  0  0  0  0  0  0  0  0
    2.4260  -21.2330  -38.7910 H   0  0  0  0  0  0  0  0  0  0  0  0
    1.2370  -19.0430  -39.5010 H   0  0  0  0  0  0  0  0  0  0  0  0
    1.0990  -19.6620  -37.7780 H   0  0  0  0  0  0  0  0  0  0  0  0
    3.1900  -17.4690  -36.1150 H   0  0  0  0  0  0  0  0  0  0  0  0
    2.0880  -18.9490  -36.2110 H   0  0  0  0  0  0  0  0  0  0  0  0
    4.9660  -18.5660  -37.0290 H   0  0  0  0  0  0  0  0  0  0  0  0
    4.2210  -19.7970  -35.9320 H   0  0  0  0  0  0  0  0  0  0  0  0
    1.9040  -15.9610  -38.4620 H   0  0  0  0  0  0  0  0  0  0  0  0
    0.5100  -17.1390  -38.4100 H   0  0  0  0  0  0  0  0  0  0  0  0
    0.6430  -17.2740  -36.0040 H   0  0  0  0  0  0  0  0  0  0  0  0
    2.1940  -16.2940  -35.9400 H   0  0  0  0  0  0  0  0  0  0  0  0
    0.7050  -11.2660  -35.7160 H   0  0  0  0  0  0  0  0  0  0  0  0
   -1.4620  -10.0630  -35.7620 H   0  0  0  0  0  0  0  0  0  0  0  0
   -3.5030  -11.3040  -36.2030 H   0  0  0  0  0  0  0  0  0  0  0  0
   -3.3700  -13.7400  -36.5940 H   0  0  0  0  0  0  0  0  0  0  0  0
    5.5260  -21.1530  -43.7480 H   0  0  0  0  0  0  0  0  0  0  0  0
    6.1230  -19.6250  -41.7910 H   0  0  0  0  0  0  0  0  0  0  0  0
  1  3  2  0  0  0  0
  1  4  1  0  0  0  0
  2  1  2  0  0  0  0
  4  9  1  0  0  0  0
  5 29  1  0  0  0  0
  5  6  1  0  0  0  0
  5  4  1  0  0  0  0
  6  7  1  0  0  0  0
  6 31  1  0  0  0  0
  7 10  1  0  0  0  0
  7  8  1  0  0  0  0
  8 33  1  0  0  0  0
  8 32  1  0  0  0  0
  9  8  1  0  0  0  0
  9 35  1  0  0  0  0
 10 11  1  0  0  0  0
 11 12  1  0  0  0  0
 11 38  1  0  0  0  0
 11 39  1  0  0  0  0
 12 20  1  0  0  0  0
 13 12  1  0  0  0  0
 13 14  2  0  0  0  0
 14 15  1  0  0  0  0
 15 16  1  0  0  0  0
 16 40  1  0  0  0  0
 17 16  2  0  0  0  0
 17 41  1  0  0  0  0
 18 17  1  0  0  0  0
 19 14  1  0  0  0  0
 19 18  2  0  0  0  0
 20 15  1  0  0  0  0
 20 21  2  0  0  0  0
 22  1  1  0  0  0  0
 23 22  1  0  0  0  0
 24 23  1  0  0  0  0
 25 24  2  0  0  0  0
 25 26  1  0  0  0  0
 26 22  2  0  0  0  0
 27 24  1  0  0  0  0
 28  5  1  0  0  0  0
 30  6  1  0  0  0  0
 34  9  1  0  0  0  0
 36 10  1  0  0  0  0
 37 10  1  0  0  0  0
 42 18  1  0  0  0  0
 43 19  1  0  0  0  0
 44 25  1  0  0  0  0
 45 26  1  0  0  0  0
M  END
>  <Pose>
1

>  <Score>
-4.48

$$$$
