
 OpenBabel03232221553D

 52 55  0  0  0  0  0  0  0  0999 V2000
    0.1350  -19.4940  -38.1960 Cl  0  0  0  0  0  0  0  0  0  0  0  0
    1.5350  -20.0290  -39.1580 C   0  0  0  0  0  0  0  0  0  0  0  0
    2.8280  -20.0600  -38.6490 C   0  0  0  0  0  0  0  0  0  0  0  0
    3.9160  -20.4090  -39.4290 C   0  0  0  0  0  0  0  0  0  0  0  0
    3.7310  -20.7430  -40.7840 C   0  0  0  0  0  0  0  0  0  0  0  0
    2.4650  -20.7110  -41.2480 C   0  0  0  0  0  0  0  0  0  0  0  0
    1.3620  -20.3640  -40.4900 C   0  0  0  0  0  0  0  0  0  0  0  0
    4.9480  -21.0480  -41.5640 C   0  0  0  0  0  0  0  0  0  0  0  0
    5.7100  -20.0540  -42.1320 C   0  0  0  0  0  0  0  0  0  0  0  0
    6.7850  -20.4160  -42.9550 C   0  0  0  0  0  0  0  0  0  0  0  0
    7.0900  -21.7370  -43.1980 C   0  0  0  0  0  0  0  0  0  0  0  0
    8.1350  -22.1940  -44.0020 C   0  0  0  0  0  0  0  0  0  0  0  0
    8.8910  -21.1480  -44.5890 C   0  0  0  0  0  0  0  0  0  0  0  0
    8.6110  -19.8020  -44.3730 C   0  0  0  0  0  0  0  0  0  0  0  0
    7.5510  -19.4480  -43.5540 C   0  0  0  0  0  0  0  0  0  0  0  0
    9.9660  -21.3790  -45.4240 O   0  0  0  0  0  0  0  0  0  0  0  0
    8.4090  -23.5220  -44.4250 C   0  0  0  0  0  0  0  0  0  0  0  0
    7.4310  -24.4310  -44.9660 N   0  0  0  0  0  4  0  0  0  0  0  0
    8.0590  -25.4390  -45.8660 C   0  0  0  0  0  0  0  0  0  0  0  0
    9.3540  -25.8920  -45.2930 C   0  0  0  0  0  0  0  0  0  0  0  0
    9.2690  -26.5220  -43.9950 N   0  0  0  0  0  0  0  0  0  0  0  0
    8.1710  -26.0550  -43.2190 C   0  0  0  0  0  0  0  0  0  0  0  0
    7.0580  -25.3630  -43.8540 C   0  0  0  0  0  0  0  0  0  0  0  0
   10.5290  -26.3400  -43.2580 C   0  0  0  0  0  0  0  0  0  0  0  0
   10.3570  -26.5650  -41.7740 C   0  0  0  0  0  0  0  0  0  0  0  0
   11.0900  -27.6460  -41.3070 O   0  0  0  0  0  0  0  0  0  0  0  0
    6.3600  -22.6230  -42.6520 O   0  0  0  0  0  0  0  0  0  0  0  0
    5.3150  -22.3780  -41.8560 C   0  0  0  0  0  0  0  0  0  0  0  0
    4.6510  -23.2920  -41.3530 O   0  0  0  0  0  0  0  0  0  0  0  0
    2.9480  -19.7860  -37.6160 H   0  0  0  0  0  0  0  0  0  0  0  0
    4.9170  -20.4210  -39.0140 H   0  0  0  0  0  0  0  0  0  0  0  0
    2.2380  -20.9640  -42.2780 H   0  0  0  0  0  0  0  0  0  0  0  0
    0.3660  -20.3570  -40.9060 H   0  0  0  0  0  0  0  0  0  0  0  0
    5.5150  -19.0090  -41.9670 H   0  0  0  0  0  0  0  0  0  0  0  0
    9.2030  -19.0140  -44.7730 H   0  0  0  0  0  0  0  0  0  0  0  0
    7.2940  -18.3800  -43.4150 H   0  0  0  0  0  0  0  0  0  0  0  0
    8.5020  -24.0770  -43.3380 H   0  0  0  0  0  0  0  0  0  0  0  0
    9.4160  -23.6920  -44.7270 H   0  0  0  0  0  0  0  0  0  0  0  0
    6.5660  -24.0920  -45.3170 H   0  0  0  0  0  0  0  0  0  0  0  0
    8.0830  -25.1600  -46.9020 H   0  0  0  0  0  0  0  0  0  0  0  0
    7.3420  -26.3390  -45.8250 H   0  0  0  0  0  0  0  0  0  0  0  0
   10.1020  -25.0910  -45.2900 H   0  0  0  0  0  0  0  0  0  0  0  0
    9.7340  -26.6850  -45.9990 H   0  0  0  0  0  0  0  0  0  0  0  0
    8.5790  -25.4730  -42.3600 H   0  0  0  0  0  0  0  0  0  0  0  0
    7.7130  -26.9790  -42.7040 H   0  0  0  0  0  0  0  0  0  0  0  0
    6.4700  -24.7510  -43.1320 H   0  0  0  0  0  0  0  0  0  0  0  0
    6.3870  -26.1440  -44.3320 H   0  0  0  0  0  0  0  0  0  0  0  0
   10.8580  -25.3170  -43.4500 H   0  0  0  0  0  0  0  0  0  0  0  0
   11.3290  -27.0330  -43.5900 H   0  0  0  0  0  0  0  0  0  0  0  0
    9.3350  -26.5350  -41.4180 H   0  0  0  0  0  0  0  0  0  0  0  0
   10.8280  -25.6260  -41.3130 H   0  0  0  0  0  0  0  0  0  0  0  0
   10.5610  -28.4860  -41.4940 H   0  0  0  0  0  0  0  0  0  0  0  0
  2  3  1  0  0  0  0
  2  1  1  0  0  0  0
  3 30  1  0  0  0  0
  4 31  1  0  0  0  0
  4  3  2  0  0  0  0
  5  4  1  0  0  0  0
  6  5  2  0  0  0  0
  6  7  1  0  0  0  0
  7  2  2  0  0  0  0
  8  5  1  0  0  0  0
  9 34  1  0  0  0  0
  9  8  2  0  0  0  0
 10  9  1  0  0  0  0
 11 10  1  0  0  0  0
 11 27  1  0  0  0  0
 12 11  2  0  0  0  0
 13 14  2  0  0  0  0
 13 12  1  0  0  0  0
 14 15  1  0  0  0  0
 15 36  1  0  0  0  0
 15 10  2  0  0  0  0
 16 13  1  0  0  0  0
 17 12  1  0  0  0  0
 17 37  1  0  0  0  0
 18 17  1  0  0  0  0
 18 23  1  0  0  0  0
 19 41  1  0  0  0  0
 19 20  1  0  0  0  0
 19 18  1  0  0  0  0
 20 42  1  0  0  0  0
 20 21  1  0  0  0  0
 21 24  1  0  0  0  0
 21 22  1  0  0  0  0
 22 45  1  0  0  0  0
 22 44  1  0  0  0  0
 23 22  1  0  0  0  0
 23 46  1  0  0  0  0
 24 25  1  0  0  0  0
 25 50  1  0  0  0  0
 25 51  1  0  0  0  0
 25 26  1  0  0  0  0
 27 28  1  0  0  0  0
 28  8  1  0  0  0  0
 28 29  2  0  0  0  0
 32  6  1  0  0  0  0
 33  7  1  0  0  0  0
 35 14  1  0  0  0  0
 38 17  1  0  0  0  0
 39 18  1  0  0  0  0
 40 19  1  0  0  0  0
 43 20  1  0  0  0  0
 47 23  1  0  0  0  0
 48 24  1  0  0  0  0
 49 24  1  0  0  0  0
 52 26  1  0  0  0  0
M  END
>  <Pose>
1

>  <Score>
-3.85

$$$$
