
 OpenBabel03232221553D

 43 46  0  0  0  0  0  0  0  0999 V2000
    1.7380  -19.8570  -38.1400 B   0  0  0  0  0  0  0  0  0  0  0  0
    3.5800  -19.4730  -38.4620 C   0  0  0  0  0  0  0  0  0  0  0  0
    4.4460  -19.3180  -37.4260 C   0  0  0  0  0  0  0  0  0  0  0  0
    5.7340  -19.0500  -37.6360 N   0  0  0  0  0  0  0  0  0  0  0  0
    6.1910  -18.9300  -38.8910 C   0  0  0  0  0  0  0  0  0  0  0  0
    5.3520  -19.0790  -39.9890 C   0  0  0  0  0  0  0  0  0  0  0  0
    4.0200  -19.3560  -39.7800 C   0  0  0  0  0  0  0  0  0  0  0  0
    5.9300  -18.9390  -41.3040 C   0  0  0  0  0  0  0  0  0  0  0  0
    5.5090  -18.0810  -42.0970 O   0  0  0  0  0  0  0  0  0  0  0  0
    7.0380  -19.8150  -41.7380 N   0  0  0  0  0  0  0  0  0  0  0  0
    6.8440  -20.4720  -42.9560 C   0  0  0  0  0  0  0  0  0  0  0  0
    6.5890  -21.8870  -43.1220 C   0  0  0  0  0  0  0  0  0  0  0  0
    5.2050  -22.2030  -42.8820 C   0  0  0  0  0  0  0  0  0  0  0  0
    4.7800  -23.4770  -42.9780 C   0  0  0  0  0  0  0  0  0  0  0  0
    5.6680  -24.5160  -43.3100 C   0  0  0  0  0  0  0  0  0  0  0  0
    6.9910  -24.2330  -43.5450 C   0  0  0  0  0  0  0  0  0  0  0  0
    7.4450  -22.9080  -43.4500 C   0  0  0  0  0  0  0  0  0  0  0  0
    8.8510  -22.5700  -43.7920 C   0  0  0  0  0  0  0  0  0  0  0  0
    9.5560  -23.6470  -44.6110 C   0  0  0  0  0  0  0  0  0  0  0  0
    9.3320  -24.9650  -44.0670 N   0  0  0  0  0  0  0  0  0  0  0  0
    7.9500  -25.2880  -43.8590 C   0  0  0  0  0  0  0  0  0  0  0  0
    7.6390  -26.4930  -43.9620 O   0  0  0  0  0  0  0  0  0  0  0  0
   10.4100  -25.8790  -43.7570 C   0  0  0  0  0  0  0  0  0  0  0  0
    5.1660  -25.7620  -43.3860 O   0  0  0  0  0  0  0  0  0  0  0  0
    3.4050  -23.4770  -42.6950 O   0  0  0  0  0  0  0  0  0  0  0  0
    3.0230  -22.2220  -42.1720 C   0  0  0  0  0  0  0  0  0  0  0  0
    4.1120  -21.4000  -42.5400 O   0  0  0  0  0  0  0  0  0  0  0  0
    4.1340  -19.4040  -36.3720 H   0  0  0  0  0  0  0  0  0  0  0  0
    7.2360  -18.7130  -39.1010 H   0  0  0  0  0  0  0  0  0  0  0  0
    3.3440  -19.4800  -40.6090 H   0  0  0  0  0  0  0  0  0  0  0  0
    7.7930  -19.8370  -41.0380 H   0  0  0  0  0  0  0  0  0  0  0  0
    5.9900  -19.8870  -43.5050 H   0  0  0  0  0  0  0  0  0  0  0  0
    7.7100  -20.1510  -43.6760 H   0  0  0  0  0  0  0  0  0  0  0  0
    9.4890  -22.3910  -42.9210 H   0  0  0  0  0  0  0  0  0  0  0  0
    8.8880  -21.6880  -44.4760 H   0  0  0  0  0  0  0  0  0  0  0  0
   10.6390  -23.3700  -44.5870 H   0  0  0  0  0  0  0  0  0  0  0  0
    9.1490  -23.5720  -45.6440 H   0  0  0  0  0  0  0  0  0  0  0  0
   10.8640  -25.5190  -42.8010 H   0  0  0  0  0  0  0  0  0  0  0  0
   11.1900  -25.8270  -44.5380 H   0  0  0  0  0  0  0  0  0  0  0  0
   10.0060  -26.8840  -43.5800 H   0  0  0  0  0  0  0  0  0  0  0  0
    5.3250  -26.5480  -42.8550 H   0  0  0  0  0  0  0  0  0  0  0  0
    2.0660  -21.8650  -42.6060 H   0  0  0  0  0  0  0  0  0  0  0  0
    2.9230  -22.3390  -41.0810 H   0  0  0  0  0  0  0  0  0  0  0  0
  2  1  1  0  0  0  0
  2  3  1  0  0  0  0
  3 28  1  0  0  0  0
  4  3  2  0  0  0  0
  5  4  1  0  0  0  0
  6  7  1  0  0  0  0
  6  5  2  0  0  0  0
  7  2  2  0  0  0  0
  8  6  1  0  0  0  0
  9  8  2  0  0  0  0
 10  8  1  0  0  0  0
 10 31  1  0  0  0  0
 11 10  1  0  0  0  0
 12 11  1  0  0  0  0
 12 13  1  0  0  0  0
 13 27  1  0  0  0  0
 14 13  2  0  0  0  0
 14 25  1  0  0  0  0
 15 14  1  0  0  0  0
 16 17  1  0  0  0  0
 16 15  2  0  0  0  0
 17 12  2  0  0  0  0
 18 17  1  0  0  0  0
 18 34  1  0  0  0  0
 19 36  1  0  0  0  0
 19 20  1  0  0  0  0
 19 18  1  0  0  0  0
 20 21  1  0  0  0  0
 20 23  1  0  0  0  0
 21 16  1  0  0  0  0
 22 21  2  0  0  0  0
 23 40  1  0  0  0  0
 23 38  1  0  0  0  0
 24 15  1  0  0  0  0
 24 41  1  0  0  0  0
 25 26  1  0  0  0  0
 26 43  1  0  0  0  0
 27 26  1  0  0  0  0
 29  5  1  0  0  0  0
 30  7  1  0  0  0  0
 32 11  1  0  0  0  0
 33 11  1  0  0  0  0
 35 18  1  0  0  0  0
 37 19  1  0  0  0  0
 39 23  1  0  0  0  0
 42 26  1  0  0  0  0
M  END
>  <Pose>
1

>  <Score>
-5.08

$$$$
