
 OpenBabel03232221553D

 56 59  0  0  1  0  0  0  0  0999 V2000
   -0.1900  -25.5320  -45.4190 Cl  0  0  0  0  0  0  0  0  0  0  0  0
    0.8950  -24.9640  -44.1470 C   0  0  0  0  0  0  0  0  0  0  0  0
    1.6080  -23.8290  -44.3660 C   0  0  0  0  0  0  0  0  0  0  0  0
    2.4610  -23.4050  -43.3410 C   0  0  0  0  0  0  0  0  0  0  0  0
    2.5840  -24.0800  -42.1760 C   0  0  0  0  0  0  0  0  0  0  0  0
    3.4940  -23.4010  -41.4120 N   0  0  0  0  0  0  0  0  0  0  0  0
    3.9460  -22.3240  -42.0570 C   0  0  0  0  0  0  0  0  0  0  0  0
    3.2980  -22.3080  -43.2910 C   0  0  0  0  0  0  0  0  0  0  0  0
    4.9210  -21.3420  -41.6670 C   0  0  0  0  0  0  0  0  0  0  0  0
    5.5490  -20.7840  -42.7110 O   0  0  0  0  0  0  0  0  0  0  0  0
    5.3480  -20.8520  -40.4520 N   0  0  0  0  0  0  0  0  0  0  0  0
    5.5190  -19.3720  -40.4920 C   0  0  0  0  0  0  0  0  0  0  0  0
    4.2120  -18.7140  -40.0970 C   0  0  0  0  0  0  0  0  0  0  0  0
    3.4230  -19.6990  -39.3230 C   0  0  1  0  0  0  0  0  0  0  0  0
    4.1600  -20.1430  -38.1010 C   0  0  2  0  0  0  0  0  0  0  0  0
    4.4470  -21.6420  -38.3000 C   0  0  0  0  0  0  0  0  0  0  0  0
    5.6090  -21.6580  -39.3100 C   0  0  0  0  0  0  0  0  0  0  0  0
    3.4720  -19.9170  -36.9100 O   0  0  0  0  0  0  0  0  0  0  0  0
    2.0710  -19.3740  -38.9970 N   0  0  0  0  0  0  0  0  0  0  0  0
    1.0930  -19.7920  -39.9700 C   0  0  0  0  0  0  0  0  0  0  0  0
    1.2700  -19.1000  -41.2670 C   0  0  0  0  0  0  0  0  0  0  0  0
    1.2230  -17.6610  -40.9830 N   0  0  0  0  0  0  0  0  0  0  0  0
    0.9970  -17.3020  -39.6070 C   0  0  0  0  0  0  0  0  0  0  0  0
    1.8820  -18.0000  -38.6180 C   0  0  0  0  0  0  0  0  0  0  0  0
    1.3780  -16.7180  -42.0440 C   0  0  0  0  0  0  0  0  0  0  0  0
    0.5130  -16.6490  -42.9280 O   0  0  0  0  0  0  0  0  0  0  0  0
    2.5920  -15.8420  -42.0480 C   0  0  0  0  0  0  0  0  0  0  0  0
    1.8580  -25.2220  -41.9710 C   0  0  0  0  0  0  0  0  0  0  0  0
    1.0030  -25.6700  -42.9670 C   0  0  0  0  0  0  0  0  0  0  0  0
    1.5330  -23.2740  -45.2770 H   0  0  0  0  0  0  0  0  0  0  0  0
    3.7330  -23.7300  -40.4680 H   0  0  0  0  0  0  0  0  0  0  0  0
    3.4430  -21.5620  -44.0450 H   0  0  0  0  0  0  0  0  0  0  0  0
    5.7720  -19.0420  -41.5020 H   0  0  0  0  0  0  0  0  0  0  0  0
    6.3660  -19.1290  -39.8330 H   0  0  0  0  0  0  0  0  0  0  0  0
    3.6920  -18.2750  -40.9620 H   0  0  0  0  0  0  0  0  0  0  0  0
    4.5460  -17.8420  -39.4480 H   0  0  0  0  0  0  0  0  0  0  0  0
    3.3030  -20.5870  -40.0510 H   0  0  0  0  0  0  0  0  0  0  0  0
    5.1740  -19.6790  -37.9740 H   0  0  0  0  0  0  0  0  0  0  0  0
    4.7390  -22.1390  -37.3850 H   0  0  0  0  0  0  0  0  0  0  0  0
    3.5380  -22.0490  -38.8000 H   0  0  0  0  0  0  0  0  0  0  0  0
    5.9230  -22.6700  -39.4530 H   0  0  0  0  0  0  0  0  0  0  0  0
    6.4690  -21.1800  -38.7010 H   0  0  0  0  0  0  0  0  0  0  0  0
    3.3800  -20.8250  -36.4740 H   0  0  0  0  0  0  0  0  0  0  0  0
    0.0870  -19.5390  -39.5370 H   0  0  0  0  0  0  0  0  0  0  0  0
    1.1430  -20.9080  -40.0600 H   0  0  0  0  0  0  0  0  0  0  0  0
    2.1810  -19.4030  -41.7860 H   0  0  0  0  0  0  0  0  0  0  0  0
    0.3690  -19.3390  -41.8900 H   0  0  0  0  0  0  0  0  0  0  0  0
   -0.0850  -17.5170  -39.4030 H   0  0  0  0  0  0  0  0  0  0  0  0
    1.0980  -16.1770  -39.4790 H   0  0  0  0  0  0  0  0  0  0  0  0
    1.3490  -17.9890  -37.6340 H   0  0  0  0  0  0  0  0  0  0  0  0
    2.8220  -17.4470  -38.4390 H   0  0  0  0  0  0  0  0  0  0  0  0
    3.1770  -16.0040  -41.1300 H   0  0  0  0  0  0  0  0  0  0  0  0
    3.1970  -16.1000  -42.9590 H   0  0  0  0  0  0  0  0  0  0  0  0
    2.2680  -14.8050  -42.1300 H   0  0  0  0  0  0  0  0  0  0  0  0
    1.9300  -25.7850  -41.0490 H   0  0  0  0  0  0  0  0  0  0  0  0
    0.4090  -26.5600  -42.8630 H   0  0  0  0  0  0  0  0  0  0  0  0
  1  2  1  0  0  0  0
  2 29  1  0  0  0  0
  3  2  2  0  0  0  0
  3  4  1  0  0  0  0
  4  8  1  0  0  0  0
  4  5  2  0  0  0  0
  5 28  1  0  0  0  0
  5  6  1  0  0  0  0
  6 31  1  0  0  0  0
  7  9  1  0  0  0  0
  7  6  1  0  0  0  0
  8  7  2  0  0  0  0
  9 11  1  0  0  0  0
 10  9  2  0  0  0  0
 11 17  1  0  0  0  0
 12 11  1  0  0  0  0
 12 13  1  0  0  0  0
 12 34  1  0  0  0  0
 13 36  1  0  0  0  0
 13 14  1  0  0  0  0
 14 37  1  6  0  0  0
 14 19  1  0  0  0  0
 14 15  1  0  0  0  0
 15 38  1  1  0  0  0
 15 18  1  0  0  0  0
 16 15  1  0  0  0  0
 16 39  1  0  0  0  0
 17 42  1  0  0  0  0
 17 16  1  0  0  0  0
 18 43  1  0  0  0  0
 19 24  1  0  0  0  0
 20 44  1  0  0  0  0
 20 19  1  0  0  0  0
 21 22  1  0  0  0  0
 21 20  1  0  0  0  0
 22 23  1  0  0  0  0
 23 49  1  0  0  0  0
 23 48  1  0  0  0  0
 23 24  1  0  0  0  0
 24 51  1  0  0  0  0
 24 50  1  0  0  0  0
 25 22  1  0  0  0  0
 26 25  2  0  0  0  0
 27 25  1  0  0  0  0
 27 52  1  0  0  0  0
 28 55  1  0  0  0  0
 29 56  1  0  0  0  0
 29 28  2  0  0  0  0
 30  3  1  0  0  0  0
 32  8  1  0  0  0  0
 33 12  1  0  0  0  0
 35 13  1  0  0  0  0
 40 16  1  0  0  0  0
 41 17  1  0  0  0  0
 45 20  1  0  0  0  0
 46 21  1  0  0  0  0
 47 21  1  0  0  0  0
 53 27  1  0  0  0  0
 54 27  1  0  0  0  0
M  END
>  <Pose>
1

>  <Score>
-3.64

$$$$
