
 OpenBabel03232221553D

 49 52  0  0  0  0  0  0  0  0999 V2000
    0.5090  -16.4630  -36.6940 Cl  0  0  0  0  0  0  0  0  0  0  0  0
    1.5350  -17.8450  -37.0990 C   0  0  0  0  0  0  0  0  0  0  0  0
    1.1180  -18.7790  -38.0120 C   0  0  0  0  0  0  0  0  0  0  0  0
    1.9730  -19.8280  -38.2690 C   0  0  0  0  0  0  0  0  0  0  0  0
    3.2080  -19.9460  -37.6370 C   0  0  0  0  0  0  0  0  0  0  0  0
    3.5860  -18.9750  -36.7200 C   0  0  0  0  0  0  0  0  0  0  0  0
    2.7400  -17.9220  -36.4540 C   0  0  0  0  0  0  0  0  0  0  0  0
    4.0710  -21.0420  -37.9230 N   0  0  0  0  0  0  0  0  0  0  0  0
    5.2620  -20.9720  -38.6670 C   0  0  0  0  0  0  0  0  0  0  0  0
    5.9430  -22.0260  -38.7820 O   0  0  0  0  0  0  0  0  0  0  0  0
    5.7360  -19.7970  -39.2840 N   0  0  0  0  0  0  0  0  0  0  0  0
    6.3110  -19.6920  -40.5450 N   0  0  0  0  0  0  0  0  0  0  0  0
    5.5810  -20.1630  -41.6630 C   0  0  0  0  0  0  0  0  0  0  0  0
    4.6970  -19.4150  -42.1890 O   0  0  0  0  0  0  0  0  0  0  0  0
    5.8500  -21.4910  -42.1790 C   0  0  0  0  0  0  0  0  0  0  0  0
    7.0330  -21.9240  -42.5410 N   0  0  0  0  0  0  0  0  0  0  0  0
    7.0050  -23.2190  -42.9920 N   0  0  0  0  0  0  0  0  0  0  0  0
    5.6410  -23.6330  -42.9000 C   0  0  0  0  0  0  0  0  0  0  0  0
    5.0340  -24.7450  -43.1890 N   0  0  0  0  0  0  0  0  0  0  0  0
    3.6360  -24.9080  -42.9990 N   0  0  0  0  0  0  0  0  0  0  0  0
    2.8290  -23.8750  -42.4870 C   0  0  0  0  0  0  0  0  0  0  0  0
    1.5240  -24.0150  -42.2960 C   0  0  0  0  0  0  0  0  0  0  0  0
    3.4910  -22.6170  -42.1590 C   0  0  0  0  0  0  0  0  0  0  0  0
    2.8010  -21.6970  -41.7100 O   0  0  0  0  0  0  0  0  0  0  0  0
    4.8990  -22.5310  -42.3800 N   0  0  0  0  0  0  0  0  0  0  0  0
    8.1250  -23.9930  -43.4120 C   0  0  0  0  0  0  0  0  0  0  0  0
    8.1130  -25.3650  -43.3470 C   0  0  0  0  0  0  0  0  0  0  0  0
    9.1600  -26.1670  -43.7800 C   0  0  0  0  0  0  0  0  0  0  0  0
   10.2950  -25.5890  -44.3120 C   0  0  0  0  0  0  0  0  0  0  0  0
   10.3320  -24.2120  -44.3850 C   0  0  0  0  0  0  0  0  0  0  0  0
    9.2650  -23.4310  -43.9410 C   0  0  0  0  0  0  0  0  0  0  0  0
   11.4290  -26.4160  -44.8250 C   0  0  0  0  0  0  0  0  0  0  0  0
    0.1520  -18.6970  -38.5140 H   0  0  0  0  0  0  0  0  0  0  0  0
    1.6860  -20.6010  -38.9890 H   0  0  0  0  0  0  0  0  0  0  0  0
    4.5590  -19.0980  -36.2490 H   0  0  0  0  0  0  0  0  0  0  0  0
    3.0640  -17.1620  -35.7310 H   0  0  0  0  0  0  0  0  0  0  0  0
    3.7610  -21.9660  -37.5330 H   0  0  0  0  0  0  0  0  0  0  0  0
    5.6560  -18.8620  -38.7670 H   0  0  0  0  0  0  0  0  0  0  0  0
    7.2460  -19.2660  -40.6280 H   0  0  0  0  0  0  0  0  0  0  0  0
    3.2490  -25.8420  -43.2630 H   0  0  0  0  0  0  0  0  0  0  0  0
    0.9880  -24.9220  -42.5150 H   0  0  0  0  0  0  0  0  0  0  0  0
    0.9380  -23.1970  -41.8920 H   0  0  0  0  0  0  0  0  0  0  0  0
    7.2130  -25.8330  -42.9260 H   0  0  0  0  0  0  0  0  0  0  0  0
    9.1170  -27.2390  -43.7130 H   0  0  0  0  0  0  0  0  0  0  0  0
   11.2350  -23.7690  -44.8010 H   0  0  0  0  0  0  0  0  0  0  0  0
    9.3250  -22.3470  -44.0090 H   0  0  0  0  0  0  0  0  0  0  0  0
   12.0730  -26.8220  -44.0410 H   0  0  0  0  0  0  0  0  0  0  0  0
   12.0480  -25.8710  -45.5480 H   0  0  0  0  0  0  0  0  0  0  0  0
   11.0150  -27.2930  -45.4140 H   0  0  0  0  0  0  0  0  0  0  0  0
  2  1  1  0  0  0  0
  2  7  1  0  0  0  0
  3  2  2  0  0  0  0
  4  3  1  0  0  0  0
  4  5  2  0  0  0  0
  5  6  1  0  0  0  0
  6  7  2  0  0  0  0
  6 35  1  0  0  0  0
  7 36  1  0  0  0  0
  8  5  1  0  0  0  0
  8 37  1  0  0  0  0
  9  8  1  0  0  0  0
 10  9  2  0  0  0  0
 11 38  1  0  0  0  0
 11  9  1  0  0  0  0
 12 11  1  0  0  0  0
 13 12  1  0  0  0  0
 14 13  2  0  0  0  0
 15 13  1  0  0  0  0
 16 15  2  0  0  0  0
 17 18  1  0  0  0  0
 17 16  1  0  0  0  0
 18 25  1  0  0  0  0
 19 20  1  0  0  0  0
 19 18  2  0  0  0  0
 20 21  1  0  0  0  0
 21 22  2  0  0  0  0
 21 23  1  0  0  0  0
 22 42  1  0  0  0  0
 23 24  2  0  0  0  0
 25 15  1  0  0  0  0
 25 23  1  0  0  0  0
 26 27  1  0  0  0  0
 26 17  1  0  0  0  0
 27 43  1  0  0  0  0
 28 44  1  0  0  0  0
 28 27  2  0  0  0  0
 29 28  1  0  0  0  0
 30 29  2  0  0  0  0
 30 31  1  0  0  0  0
 31 26  2  0  0  0  0
 32 29  1  0  0  0  0
 32 47  1  0  0  0  0
 33  3  1  0  0  0  0
 34  4  1  0  0  0  0
 39 12  1  0  0  0  0
 40 20  1  0  0  0  0
 41 22  1  0  0  0  0
 45 30  1  0  0  0  0
 46 31  1  0  0  0  0
 48 32  1  0  0  0  0
 49 32  1  0  0  0  0
M  END
>  <Pose>
1

>  <Score>
-6.04

$$$$
