
 OpenBabel03232221553D

 53 57  0  0  1  0  0  0  0  0999 V2000
    6.6390  -19.2160  -37.4960 Cl  0  0  0  0  0  0  0  0  0  0  0  0
    5.2430  -19.4860  -38.5190 C   0  0  0  0  0  0  0  0  0  0  0  0
    5.3380  -19.6190  -39.8890 C   0  0  0  0  0  0  0  0  0  0  0  0
    4.2090  -19.8330  -40.6720 C   0  0  0  0  0  0  0  0  0  0  0  0
    3.0110  -19.9040  -40.0160 C   0  0  0  0  0  0  0  0  0  0  0  0
    2.8970  -19.7750  -38.6520 C   0  0  0  0  0  0  0  0  0  0  0  0
    4.0060  -19.5660  -37.8890 C   0  0  0  0  0  0  0  0  0  0  0  0
    4.6390  -19.9300  -42.0730 C   0  0  2  0  0  0  0  0  0  0  0  0
    4.0060  -18.9340  -42.9190 N   0  0  0  0  0  0  0  0  0  0  0  0
    4.2770  -19.4590  -44.2590 C   0  0  1  0  0  0  0  0  0  0  0  0
    4.2060  -20.9360  -44.1620 C   0  0  2  0  0  0  0  0  0  0  0  0
    4.1680  -21.2180  -42.6940 C   0  0  1  0  0  0  0  0  0  0  0  0
    5.0550  -22.3510  -42.4140 C   0  0  0  0  0  0  0  0  0  0  0  0
    5.0480  -22.9970  -41.3370 O   0  0  0  0  0  0  0  0  0  0  0  0
    5.8660  -22.5320  -43.5680 N   0  0  0  0  0  0  0  0  0  0  0  0
    5.5060  -21.5880  -44.5680 C   0  0  0  0  0  0  0  0  0  0  0  0
    6.1130  -21.2940  -45.6340 O   0  0  0  0  0  0  0  0  0  0  0  0
    6.9120  -23.5440  -43.6930 C   0  0  0  0  0  0  0  0  0  0  0  0
    6.2360  -24.8950  -43.8720 C   0  0  0  0  0  0  0  0  0  0  0  0
    7.0830  -25.9250  -43.4950 O   0  0  0  0  0  0  0  0  0  0  0  0
    7.7870  -26.3690  -44.5980 C   0  0  0  0  0  0  0  0  0  0  0  0
    3.2950  -18.9270  -45.2590 C   0  0  0  0  0  0  0  0  0  0  0  0
    3.1870  -17.4590  -45.2910 C   0  0  0  0  0  0  0  0  0  0  0  0
    2.3000  -16.8580  -44.4000 C   0  0  0  0  0  0  0  0  0  0  0  0
    2.1920  -15.4910  -44.3900 C   0  0  0  0  0  0  0  0  0  0  0  0
    2.9220  -14.6790  -45.2240 C   0  0  0  0  0  0  0  0  0  0  0  0
    3.7870  -15.3110  -46.0910 C   0  0  0  0  0  0  0  0  0  0  0  0
    3.9360  -16.6810  -46.1420 C   0  0  0  0  0  0  0  0  0  0  0  0
    6.1000  -19.7550  -42.0780 C   0  0  0  0  0  0  0  0  0  0  0  0
    6.8790  -19.7620  -43.0420 O   0  0  0  0  0  0  0  0  0  0  0  0
    6.4860  -19.5700  -40.7240 N   0  0  0  0  0  0  0  0  0  0  0  0
    2.1130  -20.0750  -40.6350 H   0  0  0  0  0  0  0  0  0  0  0  0
    1.9350  -19.8400  -38.1970 H   0  0  0  0  0  0  0  0  0  0  0  0
    3.9390  -19.4620  -36.8170 H   0  0  0  0  0  0  0  0  0  0  0  0
    4.4400  -17.9780  -42.7930 H   0  0  0  0  0  0  0  0  0  0  0  0
    5.2840  -19.0910  -44.5950 H   0  0  0  0  0  0  0  0  0  0  0  0
    3.3720  -21.4240  -44.7000 H   0  0  0  0  0  0  0  0  0  0  0  0
    3.1320  -21.3760  -42.3140 H   0  0  0  0  0  0  0  0  0  0  0  0
    7.5090  -23.5960  -42.7790 H   0  0  0  0  0  0  0  0  0  0  0  0
    7.5830  -23.3310  -44.5440 H   0  0  0  0  0  0  0  0  0  0  0  0
    5.2990  -24.8740  -43.2760 H   0  0  0  0  0  0  0  0  0  0  0  0
    5.9860  -25.0570  -44.9400 H   0  0  0  0  0  0  0  0  0  0  0  0
    8.3950  -25.5630  -45.0440 H   0  0  0  0  0  0  0  0  0  0  0  0
    7.1380  -26.7740  -45.4020 H   0  0  0  0  0  0  0  0  0  0  0  0
    8.4380  -27.2090  -44.2670 H   0  0  0  0  0  0  0  0  0  0  0  0
    3.4970  -19.3630  -46.2610 H   0  0  0  0  0  0  0  0  0  0  0  0
    2.2890  -19.3400  -44.9530 H   0  0  0  0  0  0  0  0  0  0  0  0
    1.7070  -17.4920  -43.7240 H   0  0  0  0  0  0  0  0  0  0  0  0
    1.5030  -15.0280  -43.6980 H   0  0  0  0  0  0  0  0  0  0  0  0
    2.8480  -13.6010  -45.2290 H   0  0  0  0  0  0  0  0  0  0  0  0
    4.3880  -14.7220  -46.7700 H   0  0  0  0  0  0  0  0  0  0  0  0
    4.6560  -17.1280  -46.8470 H   0  0  0  0  0  0  0  0  0  0  0  0
    7.4660  -19.4170  -40.3630 H   0  0  0  0  0  0  0  0  0  0  0  0
  2  7  1  0  0  0  0
  2  1  1  0  0  0  0
  3  2  2  0  0  0  0
  4  5  2  0  0  0  0
  4  3  1  0  0  0  0
  5  6  1  0  0  0  0
  6 33  1  0  0  0  0
  6  7  2  0  0  0  0
  7 34  1  0  0  0  0
  8 29  1  6  0  0  0
  8  4  1  0  0  0  0
  9 35  1  0  0  0  0
  9  8  1  0  0  0  0
 10 36  1  6  0  0  0
 10 11  1  0  0  0  0
 10  9  1  0  0  0  0
 11 37  1  6  0  0  0
 11 12  1  0  0  0  0
 12 13  1  0  0  0  0
 12 38  1  1  0  0  0
 12  8  1  0  0  0  0
 13 14  2  0  0  0  0
 15 13  1  0  0  0  0
 16 11  1  0  0  0  0
 16 15  1  0  0  0  0
 17 16  2  0  0  0  0
 18 15  1  0  0  0  0
 18 39  1  0  0  0  0
 19 18  1  0  0  0  0
 19 20  1  0  0  0  0
 19 41  1  0  0  0  0
 21 45  1  0  0  0  0
 21 20  1  0  0  0  0
 22 47  1  0  0  0  0
 22 10  1  0  0  0  0
 23 22  1  0  0  0  0
 23 24  1  0  0  0  0
 24 25  2  0  0  0  0
 24 48  1  0  0  0  0
 25 49  1  0  0  0  0
 26 25  1  0  0  0  0
 27 26  2  0  0  0  0
 28 27  1  0  0  0  0
 28 23  2  0  0  0  0
 29 31  1  0  0  0  0
 30 29  2  0  0  0  0
 31 53  1  0  0  0  0
 31  3  1  0  0  0  0
 32  5  1  0  0  0  0
 40 18  1  0  0  0  0
 42 19  1  0  0  0  0
 43 21  1  0  0  0  0
 44 21  1  0  0  0  0
 46 22  1  0  0  0  0
 50 26  1  0  0  0  0
 51 27  1  0  0  0  0
 52 28  1  0  0  0  0
M  END
>  <Pose>
1

>  <Score>
-4.18

$$$$
