
 OpenBabel03232221553D

 42 45  0  0  0  0  0  0  0  0999 V2000
   -0.0880  -13.5710  -37.3590 Cl  0  0  0  0  0  0  0  0  0  0  0  0
    0.7390  -15.1160  -37.1890 C   0  0  0  0  0  0  0  0  0  0  0  0
    0.9700  -15.6360  -35.9410 C   0  0  0  0  0  0  0  0  0  0  0  0
    1.6220  -16.8530  -35.8250 C   0  0  0  0  0  0  0  0  0  0  0  0
    2.0400  -17.5470  -36.9270 C   0  0  0  0  0  0  0  0  0  0  0  0
    1.8090  -17.0290  -38.1790 C   0  0  0  0  0  0  0  0  0  0  0  0
    1.1640  -15.8240  -38.2950 C   0  0  0  0  0  0  0  0  0  0  0  0
    2.7310  -18.8440  -36.7060 C   0  0  0  0  0  0  0  0  0  0  0  0
    2.8740  -19.4970  -38.0060 N   0  0  0  0  0  0  0  0  0  0  0  0
    1.9430  -20.0610  -38.7530 N   0  0  0  0  0  0  0  0  0  0  0  0
    2.4570  -20.5480  -39.8680 N   0  0  0  0  0  0  0  0  0  0  0  0
    3.7680  -20.3060  -39.8720 C   0  0  0  0  0  0  0  0  0  0  0  0
    4.0340  -19.6410  -38.6940 C   0  0  0  0  0  0  0  0  0  0  0  0
    5.3020  -19.2800  -38.4530 N   0  0  0  0  0  0  0  0  0  0  0  0
    6.2800  -19.5580  -39.3320 C   0  0  0  0  0  0  0  0  0  0  0  0
    5.9960  -20.2080  -40.4750 N   0  0  0  0  0  0  0  0  0  0  0  0
    4.7440  -20.6160  -40.8110 C   0  0  0  0  0  0  0  0  0  0  0  0
    4.4420  -21.2960  -42.0040 N   0  0  0  0  0  0  0  0  0  0  0  0
    4.4550  -20.7480  -43.3340 C   0  0  0  0  0  0  0  0  0  0  0  0
    5.4280  -21.5180  -44.1470 C   0  0  0  0  0  0  0  0  0  0  0  0
    5.8390  -22.7740  -43.6770 N   0  0  0  0  0  0  0  0  0  0  0  0
    5.0750  -23.4620  -42.7260 C   0  0  0  0  0  0  0  0  0  0  0  0
    4.0730  -22.6890  -41.9550 C   0  0  0  0  0  0  0  0  0  0  0  0
    7.2150  -22.6890  -43.2220 C   0  0  0  0  0  0  0  0  0  0  0  0
    0.6530  -15.1120  -35.0520 H   0  0  0  0  0  0  0  0  0  0  0  0
    1.8010  -17.2560  -34.8280 H   0  0  0  0  0  0  0  0  0  0  0  0
    2.1340  -17.5710  -39.0360 H   0  0  0  0  0  0  0  0  0  0  0  0
    0.9560  -15.3690  -39.2730 H   0  0  0  0  0  0  0  0  0  0  0  0
    3.7290  -18.6830  -36.2820 H   0  0  0  0  0  0  0  0  0  0  0  0
    2.1300  -19.4630  -36.0080 H   0  0  0  0  0  0  0  0  0  0  0  0
    7.2910  -19.2510  -39.1050 H   0  0  0  0  0  0  0  0  0  0  0  0
    4.7080  -19.6710  -43.3590 H   0  0  0  0  0  0  0  0  0  0  0  0
    3.4320  -20.8210  -43.7620 H   0  0  0  0  0  0  0  0  0  0  0  0
    4.9710  -21.6630  -45.1710 H   0  0  0  0  0  0  0  0  0  0  0  0
    6.3250  -20.8710  -44.3610 H   0  0  0  0  0  0  0  0  0  0  0  0
    4.5170  -24.2930  -43.2540 H   0  0  0  0  0  0  0  0  0  0  0  0
    5.7380  -24.0210  -42.0020 H   0  0  0  0  0  0  0  0  0  0  0  0
    3.0460  -22.8180  -42.3610 H   0  0  0  0  0  0  0  0  0  0  0  0
    4.0580  -23.0530  -40.8890 H   0  0  0  0  0  0  0  0  0  0  0  0
    7.6710  -21.6970  -43.4950 H   0  0  0  0  0  0  0  0  0  0  0  0
    7.2380  -22.7360  -42.1120 H   0  0  0  0  0  0  0  0  0  0  0  0
    7.8570  -23.4580  -43.6900 H   0  0  0  0  0  0  0  0  0  0  0  0
  1  2  1  0  0  0  0
  2  3  1  0  0  0  0
  3  4  2  0  0  0  0
  3 25  1  0  0  0  0
  4 26  1  0  0  0  0
  5  8  1  0  0  0  0
  5  4  1  0  0  0  0
  6  5  2  0  0  0  0
  7  6  1  0  0  0  0
  7  2  2  0  0  0  0
  8 29  1  0  0  0  0
  8 30  1  0  0  0  0
  9  8  1  0  0  0  0
 10  9  1  0  0  0  0
 11 10  2  0  0  0  0
 12 11  1  0  0  0  0
 12 13  2  0  0  0  0
 13 14  1  0  0  0  0
 13  9  1  0  0  0  0
 15 31  1  0  0  0  0
 15 14  2  0  0  0  0
 16 15  1  0  0  0  0
 17 16  2  0  0  0  0
 17 12  1  0  0  0  0
 18 23  1  0  0  0  0
 18 17  1  0  0  0  0
 19 18  1  0  0  0  0
 20 21  1  0  0  0  0
 20 19  1  0  0  0  0
 21 24  1  0  0  0  0
 21 22  1  0  0  0  0
 22 37  1  0  0  0  0
 22 23  1  0  0  0  0
 23 39  1  0  0  0  0
 24 41  1  0  0  0  0
 27  6  1  0  0  0  0
 28  7  1  0  0  0  0
 32 19  1  0  0  0  0
 33 19  1  0  0  0  0
 34 20  1  0  0  0  0
 35 20  1  0  0  0  0
 36 22  1  0  0  0  0
 38 23  1  0  0  0  0
 40 24  1  0  0  0  0
 42 24  1  0  0  0  0
M  END
>  <Pose>
1

>  <Score>
-3.71

$$$$
