
 OpenBabel03232221553D

 48 52  0  0  1  0  0  0  0  0999 V2000
   -3.8570  -17.6970  -36.3060 Cl  0  0  0  0  0  0  0  0  0  0  0  0
   -2.2980  -18.2220  -36.9500 C   0  0  0  0  0  0  0  0  0  0  0  0
   -1.1430  -17.6100  -36.5170 C   0  0  0  0  0  0  0  0  0  0  0  0
    0.0850  -17.9950  -36.9990 C   0  0  0  0  0  0  0  0  0  0  0  0
    0.2030  -19.0070  -37.9300 C   0  0  0  0  0  0  0  0  0  0  0  0
   -0.9640  -19.6080  -38.3520 C   0  0  0  0  0  0  0  0  0  0  0  0
   -2.2010  -19.2330  -37.8790 C   0  0  0  0  0  0  0  0  0  0  0  0
    1.4980  -19.3590  -38.3900 N   0  0  0  0  0  0  0  0  0  0  0  0
    2.7010  -18.7360  -37.9520 C   0  0  0  0  0  0  0  0  0  0  0  0
    3.8860  -19.0860  -38.3970 C   0  0  0  0  0  0  0  0  0  0  0  0
    4.1280  -20.1090  -39.3540 N   0  0  0  0  0  0  0  0  0  0  0  0
    3.9740  -19.7780  -40.7510 C   0  0  0  0  0  0  0  0  0  0  0  0
    5.2260  -20.1990  -41.4750 C   0  0  0  0  0  0  0  0  0  0  0  0
    5.6920  -21.5180  -41.0950 N   0  0  2  0  0  0  0  0  0  0  0  0
    5.8020  -21.8400  -39.6860 C   0  0  0  0  0  0  0  0  0  0  0  0
    4.5120  -21.4590  -39.0090 C   0  0  0  0  0  0  0  0  0  0  0  0
    6.0330  -22.4710  -42.1030 C   0  0  2  0  0  0  0  0  0  0  0  0
    7.2870  -22.4740  -42.5980 N   0  0  0  0  0  0  0  0  0  0  0  0
    7.6550  -23.3660  -43.5600 C   0  0  0  0  0  0  0  0  0  0  0  0
    6.7690  -24.2660  -44.0410 N   0  0  0  0  0  0  0  0  0  0  0  0
    5.5110  -24.3130  -43.5900 C   0  0  0  0  0  0  0  0  0  0  0  0
    4.4510  -25.0860  -43.8850 N   0  0  0  0  0  0  0  0  0  0  0  0
    3.4470  -24.6870  -43.1240 N   0  0  0  0  0  0  0  0  0  0  0  0
    3.8450  -23.6530  -42.3300 C   0  0  0  0  0  0  0  0  0  0  0  0
    5.1510  -23.3930  -42.6040 C   0  0  0  0  0  0  0  0  0  0  0  0
    4.3870  -26.1780  -44.8620 C   0  0  0  0  0  0  0  0  0  0  0  0
    2.5900  -17.6950  -36.9940 N   0  0  0  0  0  0  0  0  0  0  0  0
    1.3150  -17.3290  -36.5240 C   0  0  0  0  0  0  0  0  0  0  0  0
    1.1380  -16.4040  -35.6650 O   0  0  0  0  0  0  0  0  0  0  0  0
   -1.2250  -16.8100  -35.7800 H   0  0  0  0  0  0  0  0  0  0  0  0
   -0.8970  -20.4000  -39.0800 H   0  0  0  0  0  0  0  0  0  0  0  0
   -3.1110  -19.7020  -38.2080 H   0  0  0  0  0  0  0  0  0  0  0  0
    1.5970  -20.1220  -39.0930 H   0  0  0  0  0  0  0  0  0  0  0  0
    4.7650  -18.5680  -38.0210 H   0  0  0  0  0  0  0  0  0  0  0  0
    3.1280  -20.3180  -41.2230 H   0  0  0  0  0  0  0  0  0  0  0  0
    3.8630  -18.6850  -40.9030 H   0  0  0  0  0  0  0  0  0  0  0  0
    4.9360  -20.2310  -42.5690 H   0  0  0  0  0  0  0  0  0  0  0  0
    6.0320  -19.4320  -41.4430 H   0  0  0  0  0  0  0  0  0  0  0  0
    5.9160  -22.9620  -39.6110 H   0  0  0  0  0  0  0  0  0  0  0  0
    6.6410  -21.3300  -39.1830 H   0  0  0  0  0  0  0  0  0  0  0  0
    4.5400  -21.6240  -37.9160 H   0  0  0  0  0  0  0  0  0  0  0  0
    3.7230  -22.1390  -39.4440 H   0  0  0  0  0  0  0  0  0  0  0  0
    8.6770  -23.3300  -43.9290 H   0  0  0  0  0  0  0  0  0  0  0  0
    3.2480  -23.1170  -41.6060 H   0  0  0  0  0  0  0  0  0  0  0  0
    3.7330  -26.9970  -44.4920 H   0  0  0  0  0  0  0  0  0  0  0  0
    5.4040  -26.6330  -44.9730 H   0  0  0  0  0  0  0  0  0  0  0  0
    3.9720  -25.8240  -45.8230 H   0  0  0  0  0  0  0  0  0  0  0  0
    3.4260  -17.1890  -36.6230 H   0  0  0  0  0  0  0  0  0  0  0  0
  2  3  1  0  0  0  0
  2  1  1  0  0  0  0
  3 30  1  0  0  0  0
  4 28  1  0  0  0  0
  4  3  2  0  0  0  0
  5  4  1  0  0  0  0
  6  5  2  0  0  0  0
  6  7  1  0  0  0  0
  7  2  2  0  0  0  0
  8  9  1  0  0  0  0
  8  5  1  0  0  0  0
  9 27  1  0  0  0  0
 10 34  1  0  0  0  0
 10  9  2  0  0  0  0
 11 16  1  0  0  0  0
 11 10  1  0  0  0  0
 12 11  1  0  0  0  0
 13 38  1  0  0  0  0
 13 12  1  0  0  0  0
 14 13  1  1  0  0  0
 14 15  1  0  0  0  0
 15 39  1  0  0  0  0
 15 40  1  0  0  0  0
 15 16  1  0  0  0  0
 16 41  1  0  0  0  0
 17 25  1  6  0  0  0
 17 14  1  0  0  0  0
 18 17  1  0  0  0  0
 19 18  2  0  0  0  0
 20 21  1  0  0  0  0
 20 19  1  0  0  0  0
 21 25  2  0  0  0  0
 22 21  1  0  0  0  0
 22 23  1  0  0  0  0
 23 24  2  0  0  0  0
 24 44  1  0  0  0  0
 25 24  1  0  0  0  0
 26 45  1  0  0  0  0
 26 22  1  0  0  0  0
 27 48  1  0  0  0  0
 27 28  1  0  0  0  0
 28 29  2  0  0  0  0
 31  6  1  0  0  0  0
 32  7  1  0  0  0  0
 33  8  1  0  0  0  0
 35 12  1  0  0  0  0
 36 12  1  0  0  0  0
 37 13  1  0  0  0  0
 42 16  1  0  0  0  0
 43 19  1  0  0  0  0
 46 26  1  0  0  0  0
 47 26  1  0  0  0  0
M  END
>  <Pose>
1

>  <Score>
-4.57

$$$$
