
 OpenBabel03232221553D

 54 57  0  0  1  0  0  0  0  0999 V2000
    9.6900  -25.7160  -42.7710 S   0  0  0  0  0  0  0  0  0  0  0  0
   10.0880  -25.5090  -41.3040 O   0  0  0  0  0  0  0  0  0  0  0  0
    8.3840  -26.4690  -42.6920 O   0  0  0  0  0  0  0  0  0  0  0  0
    9.5450  -24.1910  -43.4710 N   0  0  0  0  0  0  0  0  0  0  0  0
    8.2580  -23.5540  -43.1240 C   0  0  0  0  0  0  0  0  0  0  0  0
    7.1850  -24.3560  -43.7620 C   0  0  2  0  0  0  0  0  0  0  0  0
    7.3160  -24.7050  -45.0550 O   0  0  0  0  0  0  0  0  0  0  0  0
    8.5120  -24.6370  -45.6570 C   0  0  0  0  0  0  0  0  0  0  0  0
    9.6420  -24.0590  -44.8780 C   0  0  0  0  0  0  0  0  0  0  0  0
    5.9110  -23.5980  -43.5890 C   0  0  0  0  0  0  0  0  0  0  0  0
    4.8910  -24.0490  -44.1740 O   0  0  0  0  0  0  0  0  0  0  0  0
    5.7720  -22.4250  -42.8250 N   0  0  0  0  0  0  0  0  0  0  0  0
    5.8770  -22.3750  -41.3780 C   0  0  0  0  0  0  0  0  0  0  0  0
    5.7860  -20.9170  -40.9720 C   0  0  0  0  0  0  0  0  0  0  0  0
    4.5260  -20.3080  -41.3540 N   0  0  0  0  0  0  0  0  0  0  0  0
    4.2550  -20.5950  -42.7270 C   0  0  0  0  0  0  0  0  0  0  0  0
    5.4990  -21.1240  -43.4540 C   0  0  0  0  0  0  0  0  0  0  0  0
    3.5230  -20.7340  -40.4330 C   0  0  0  0  0  0  0  0  0  0  0  0
    3.1750  -19.7060  -39.3920 C   0  0  0  0  0  0  0  0  0  0  0  0
    4.2600  -19.5350  -38.3300 C   0  0  0  0  0  0  0  0  0  0  0  0
    2.8970  -20.0560  -37.9980 C   0  0  0  0  0  0  0  0  0  0  0  0
   10.9490  -26.6890  -43.4620 C   0  0  0  0  0  0  0  0  0  0  0  0
   12.2090  -26.1860  -43.7010 C   0  0  0  0  0  0  0  0  0  0  0  0
   13.2000  -26.9370  -44.3040 C   0  0  0  0  0  0  0  0  0  0  0  0
   12.9350  -28.2290  -44.6810 C   0  0  0  0  0  0  0  0  0  0  0  0
   11.6720  -28.7540  -44.4460 C   0  0  0  0  0  0  0  0  0  0  0  0
   10.6960  -28.0060  -43.8510 C   0  0  0  0  0  0  0  0  0  0  0  0
   12.6490  -24.5550  -43.1600 Cl  0  0  0  0  0  0  0  0  0  0  0  0
    8.2760  -22.5530  -43.5530 H   0  0  0  0  0  0  0  0  0  0  0  0
    8.0970  -23.5130  -42.0480 H   0  0  0  0  0  0  0  0  0  0  0  0
    7.0120  -25.3180  -43.1820 H   0  0  0  0  0  0  0  0  0  0  0  0
    8.3940  -24.0160  -46.5980 H   0  0  0  0  0  0  0  0  0  0  0  0
    8.8070  -25.6340  -46.0300 H   0  0  0  0  0  0  0  0  0  0  0  0
   10.6290  -24.3360  -45.2400 H   0  0  0  0  0  0  0  0  0  0  0  0
    9.6160  -22.9220  -45.0590 H   0  0  0  0  0  0  0  0  0  0  0  0
    5.1070  -22.9930  -40.9120 H   0  0  0  0  0  0  0  0  0  0  0  0
    6.8790  -22.7130  -41.0440 H   0  0  0  0  0  0  0  0  0  0  0  0
    5.8830  -20.8760  -39.8480 H   0  0  0  0  0  0  0  0  0  0  0  0
    6.6640  -20.4010  -41.3680 H   0  0  0  0  0  0  0  0  0  0  0  0
    3.9700  -19.6740  -43.2500 H   0  0  0  0  0  0  0  0  0  0  0  0
    3.4970  -21.4010  -42.8160 H   0  0  0  0  0  0  0  0  0  0  0  0
    5.1700  -21.3390  -44.4900 H   0  0  0  0  0  0  0  0  0  0  0  0
    6.3440  -20.4410  -43.3820 H   0  0  0  0  0  0  0  0  0  0  0  0
    2.6400  -21.1040  -40.9820 H   0  0  0  0  0  0  0  0  0  0  0  0
    3.9340  -21.6230  -39.8880 H   0  0  0  0  0  0  0  0  0  0  0  0
    2.7600  -18.7530  -39.7800 H   0  0  0  0  0  0  0  0  0  0  0  0
    5.1120  -20.2360  -38.3220 H   0  0  0  0  0  0  0  0  0  0  0  0
    4.5290  -18.5130  -38.0120 H   0  0  0  0  0  0  0  0  0  0  0  0
    2.2720  -19.3730  -37.3990 H   0  0  0  0  0  0  0  0  0  0  0  0
    2.8860  -21.0980  -37.6260 H   0  0  0  0  0  0  0  0  0  0  0  0
   14.1910  -26.5430  -44.4950 H   0  0  0  0  0  0  0  0  0  0  0  0
   13.7160  -28.8060  -45.1500 H   0  0  0  0  0  0  0  0  0  0  0  0
   11.5110  -29.7740  -44.7580 H   0  0  0  0  0  0  0  0  0  0  0  0
    9.7040  -28.4020  -43.6610 H   0  0  0  0  0  0  0  0  0  0  0  0
  1  3  2  0  0  0  0
  1  2  2  0  0  0  0
  4  5  1  0  0  0  0
  4  1  1  0  0  0  0
  5 30  1  0  0  0  0
  6 10  1  0  0  0  0
  6 31  1  1  0  0  0
  6  5  1  0  0  0  0
  7  6  1  0  0  0  0
  8  7  1  0  0  0  0
  8  9  1  0  0  0  0
  9  4  1  0  0  0  0
 10 12  1  0  0  0  0
 11 10  2  0  0  0  0
 12 13  1  0  0  0  0
 13 37  1  0  0  0  0
 13 14  1  0  0  0  0
 13 36  1  0  0  0  0
 14 38  1  0  0  0  0
 15 14  1  0  0  0  0
 15 18  1  0  0  0  0
 16 15  1  0  0  0  0
 17 43  1  0  0  0  0
 17 12  1  0  0  0  0
 17 16  1  0  0  0  0
 18 45  1  0  0  0  0
 18 19  1  0  0  0  0
 19 20  1  0  0  0  0
 19 21  1  0  0  0  0
 20 47  1  0  0  0  0
 20 48  1  0  0  0  0
 20 21  1  0  0  0  0
 21 50  1  0  0  0  0
 21 49  1  0  0  0  0
 22  1  1  0  0  0  0
 23 22  1  0  0  0  0
 23 28  1  0  0  0  0
 24 23  2  0  0  0  0
 25 26  2  0  0  0  0
 25 24  1  0  0  0  0
 26 27  1  0  0  0  0
 27 54  1  0  0  0  0
 27 22  2  0  0  0  0
 29  5  1  0  0  0  0
 32  8  1  0  0  0  0
 33  8  1  0  0  0  0
 34  9  1  0  0  0  0
 35  9  1  0  0  0  0
 39 14  1  0  0  0  0
 40 16  1  0  0  0  0
 41 16  1  0  0  0  0
 42 17  1  0  0  0  0
 44 18  1  0  0  0  0
 46 19  1  0  0  0  0
 51 24  1  0  0  0  0
 52 25  1  0  0  0  0
 53 26  1  0  0  0  0
M  END
>  <Pose>
1

>  <Score>
-3.96

$$$$
