
 OpenBabel03232221553D

 46 49  0  0  1  0  0  0  0  0999 V2000
    3.0220  -25.0060  -42.6690 Cl  0  0  0  0  0  0  0  0  0  0  0  0
    4.5210  -24.1480  -42.9490 C   0  0  0  0  0  0  0  0  0  0  0  0
    5.4600  -24.7230  -43.8170 C   0  0  0  0  0  0  0  0  0  0  0  0
    6.6440  -24.0760  -44.0560 C   0  0  0  0  0  0  0  0  0  0  0  0
    6.8460  -22.8530  -43.4060 C   0  0  0  0  0  0  0  0  0  0  0  0
    5.9160  -22.2980  -42.5560 C   0  0  0  0  0  0  0  0  0  0  0  0
    4.7200  -22.9480  -42.3110 C   0  0  0  0  0  0  0  0  0  0  0  0
    6.1940  -20.7590  -41.7500 Cl  0  0  0  0  0  0  0  0  0  0  0  0
    7.6850  -24.6050  -44.9500 C   0  0  2  0  0  0  0  0  0  0  0  0
    7.2780  -25.8940  -45.5330 C   0  0  0  0  0  0  0  0  0  0  0  0
    6.0980  -26.5210  -45.2820 C   0  0  0  0  0  0  0  0  0  0  0  0
    5.7690  -27.7180  -45.8490 N   0  0  0  0  0  0  0  0  0  0  0  0
    6.6540  -28.2720  -46.6740 C   0  0  0  0  0  0  0  0  0  0  0  0
    6.3930  -29.3870  -47.2260 O   0  0  0  0  0  0  0  0  0  0  0  0
    7.8370  -27.6860  -46.9510 N   0  0  0  0  0  0  0  0  0  0  0  0
    8.1690  -26.5120  -46.4010 C   0  0  0  0  0  0  0  0  0  0  0  0
    9.2710  -25.9650  -46.6590 O   0  0  0  0  0  0  0  0  0  0  0  0
    8.7620  -28.3420  -47.8640 C   0  0  0  0  0  0  0  0  0  0  0  0
    4.5040  -28.3580  -45.5600 C   0  0  0  0  0  0  0  0  0  0  0  0
    5.2010  -25.9350  -44.4310 O   0  0  0  0  0  0  0  0  0  0  0  0
    9.0070  -24.7110  -44.2470 C   0  0  0  0  0  0  0  0  0  0  0  0
    9.2170  -25.6040  -43.2240 C   0  0  0  0  0  0  0  0  0  0  0  0
   10.3840  -25.7150  -42.5700 N   0  0  0  0  0  0  0  0  0  0  0  0
   11.3960  -24.9070  -42.9380 C   0  0  0  0  0  0  0  0  0  0  0  0
   12.4920  -25.0190  -42.3140 O   0  0  0  0  0  0  0  0  0  0  0  0
   11.2350  -24.0180  -43.9340 N   0  0  0  0  0  0  0  0  0  0  0  0
   10.0790  -23.8930  -44.6000 C   0  0  0  0  0  0  0  0  0  0  0  0
    9.8990  -23.0730  -45.5320 O   0  0  0  0  0  0  0  0  0  0  0  0
   12.3510  -23.1730  -44.2900 C   0  0  0  0  0  0  0  0  0  0  0  0
   10.5750  -26.6710  -41.4960 C   0  0  0  0  0  0  0  0  0  0  0  0
    8.1780  -26.4310  -42.8480 O   0  0  0  0  0  0  0  0  0  0  0  0
    7.7810  -22.3360  -43.5910 H   0  0  0  0  0  0  0  0  0  0  0  0
    3.9720  -22.5410  -41.6520 H   0  0  0  0  0  0  0  0  0  0  0  0
    7.8570  -23.9030  -45.8160 H   0  0  0  0  0  0  0  0  0  0  0  0
    8.3490  -29.3420  -48.1640 H   0  0  0  0  0  0  0  0  0  0  0  0
    9.7730  -28.4580  -47.4450 H   0  0  0  0  0  0  0  0  0  0  0  0
    8.8720  -27.7870  -48.8230 H   0  0  0  0  0  0  0  0  0  0  0  0
    3.9630  -27.8180  -44.7430 H   0  0  0  0  0  0  0  0  0  0  0  0
    4.6350  -29.3970  -45.1920 H   0  0  0  0  0  0  0  0  0  0  0  0
    3.8710  -28.3090  -46.4650 H   0  0  0  0  0  0  0  0  0  0  0  0
   12.3770  -23.0210  -45.3790 H   0  0  0  0  0  0  0  0  0  0  0  0
   13.3230  -23.6140  -43.9840 H   0  0  0  0  0  0  0  0  0  0  0  0
   12.3030  -22.1890  -43.7370 H   0  0  0  0  0  0  0  0  0  0  0  0
   11.4000  -27.3630  -41.8410 H   0  0  0  0  0  0  0  0  0  0  0  0
   10.9740  -26.1980  -40.5700 H   0  0  0  0  0  0  0  0  0  0  0  0
    9.6960  -27.2970  -41.3370 H   0  0  0  0  0  0  0  0  0  0  0  0
  2  1  1  0  0  0  0
  2  7  1  0  0  0  0
  3  2  2  0  0  0  0
  4  3  1  0  0  0  0
  4  5  2  0  0  0  0
  5  6  1  0  0  0  0
  6  7  2  0  0  0  0
  6  8  1  0  0  0  0
  7 33  1  0  0  0  0
  9 34  1  6  0  0  0
  9 21  1  0  0  0  0
  9  4  1  0  0  0  0
 10 11  2  0  0  0  0
 10  9  1  0  0  0  0
 11 20  1  0  0  0  0
 12 19  1  0  0  0  0
 12 11  1  0  0  0  0
 13 12  1  0  0  0  0
 14 13  2  0  0  0  0
 15 13  1  0  0  0  0
 15 16  1  0  0  0  0
 16 10  1  0  0  0  0
 17 16  2  0  0  0  0
 18 36  1  0  0  0  0
 18 15  1  0  0  0  0
 19 39  1  0  0  0  0
 19 38  1  0  0  0  0
 20  3  1  0  0  0  0
 21 22  1  0  0  0  0
 22 31  2  0  0  0  0
 22 23  1  0  0  0  0
 23 30  1  0  0  0  0
 24 23  1  0  0  0  0
 24 25  2  0  0  0  0
 26 24  1  0  0  0  0
 27 21  1  0  0  0  0
 27 26  1  0  0  0  0
 28 27  2  0  0  0  0
 29 42  1  0  0  0  0
 29 26  1  0  0  0  0
 29 43  1  0  0  0  0
 30 46  1  0  0  0  0
 30 45  1  0  0  0  0
 32  5  1  0  0  0  0
 35 18  1  0  0  0  0
 37 18  1  0  0  0  0
 40 19  1  0  0  0  0
 41 29  1  0  0  0  0
 44 30  1  0  0  0  0
M  END
>  <Pose>
1

>  <Score>
-4.07

$$$$
