
 OpenBabel03232221553D

 51 55  0  0  1  0  0  0  0  0999 V2000
    0.7590  -16.3180  -36.1550 Cl  0  0  0  0  0  0  0  0  0  0  0  0
    1.0080  -16.7040  -37.8440 C   0  0  0  0  0  0  0  0  0  0  0  0
    1.8540  -17.7020  -38.2490 C   0  0  0  0  0  0  0  0  0  0  0  0
    2.0240  -17.9760  -39.6080 C   0  0  0  0  0  0  0  0  0  0  0  0
    1.3250  -17.2240  -40.5050 C   0  0  0  0  0  0  0  0  0  0  0  0
    0.4570  -16.2000  -40.0930 C   0  0  0  0  0  0  0  0  0  0  0  0
    0.2910  -15.9310  -38.7640 C   0  0  0  0  0  0  0  0  0  0  0  0
    1.6470  -17.6670  -41.8200 N   0  0  0  0  0  0  0  0  0  0  0  0
    2.5710  -18.7260  -41.7460 C   0  0  0  0  0  0  0  0  0  0  0  0
    3.0470  -19.3260  -42.7610 O   0  0  0  0  0  0  0  0  0  0  0  0
    2.8440  -18.9660  -40.3260 C   0  0  1  0  0  0  0  0  0  0  0  0
    4.2210  -18.6990  -39.9740 N   0  0  0  0  0  0  0  0  0  0  0  0
    4.8610  -19.9040  -39.5520 C   0  0  2  0  0  0  0  0  0  0  0  0
    3.9100  -20.9900  -39.8650 C   0  0  1  0  0  0  0  0  0  0  0  0
    2.5350  -20.3830  -39.9040 C   0  0  2  0  0  0  0  0  0  0  0  0
    1.8680  -21.1640  -40.9690 C   0  0  0  0  0  0  0  0  0  0  0  0
    0.6370  -21.2970  -41.1850 O   0  0  0  0  0  0  0  0  0  0  0  0
    2.8600  -21.8060  -41.7970 N   0  0  0  0  0  0  0  0  0  0  0  0
    4.1300  -21.4110  -41.2930 C   0  0  0  0  0  0  0  0  0  0  0  0
    5.2000  -21.4280  -41.9470 O   0  0  0  0  0  0  0  0  0  0  0  0
    2.5900  -22.6780  -42.9220 C   0  0  0  0  0  0  0  0  0  0  0  0
    2.9420  -24.1160  -42.6540 C   0  0  1  0  0  0  0  0  0  0  0  0
    1.9890  -24.6800  -41.8110 O   0  0  0  0  0  0  0  0  0  0  0  0
    1.0220  -25.2460  -42.6100 C   0  0  0  0  0  0  0  0  0  0  0  0
    1.6670  -25.6410  -43.9200 C   0  0  0  0  0  0  0  0  0  0  0  0
    3.0260  -24.9700  -43.8700 C   0  0  0  0  0  0  0  0  0  0  0  0
    5.3050  -19.8580  -38.1140 C   0  0  0  0  0  0  0  0  0  0  0  0
    6.7430  -19.8750  -37.9170 C   0  0  0  0  0  0  0  0  0  0  0  0
    7.3540  -20.9620  -37.8440 O   0  0  0  0  0  0  0  0  0  0  0  0
    7.4760  -18.6730  -37.8020 N   0  0  0  0  0  0  0  0  0  0  0  0
    2.3950  -18.2850  -37.5490 H   0  0  0  0  0  0  0  0  0  0  0  0
   -0.0630  -15.6450  -40.8430 H   0  0  0  0  0  0  0  0  0  0  0  0
   -0.3800  -15.1410  -38.4650 H   0  0  0  0  0  0  0  0  0  0  0  0
    1.2600  -17.2750  -42.7310 H   0  0  0  0  0  0  0  0  0  0  0  0
    4.3170  -18.0000  -39.2040 H   0  0  0  0  0  0  0  0  0  0  0  0
    5.7630  -20.0260  -40.2220 H   0  0  0  0  0  0  0  0  0  0  0  0
    3.9620  -21.8800  -39.2070 H   0  0  0  0  0  0  0  0  0  0  0  0
    2.0000  -20.4420  -38.9390 H   0  0  0  0  0  0  0  0  0  0  0  0
    1.5180  -22.6100  -43.1980 H   0  0  0  0  0  0  0  0  0  0  0  0
    3.1570  -22.3080  -43.8200 H   0  0  0  0  0  0  0  0  0  0  0  0
    3.9130  -24.1530  -42.1190 H   0  0  0  0  0  0  0  0  0  0  0  0
    0.6560  -26.1600  -42.0900 H   0  0  0  0  0  0  0  0  0  0  0  0
    0.1360  -24.5950  -42.7600 H   0  0  0  0  0  0  0  0  0  0  0  0
    1.8170  -26.7340  -43.9440 H   0  0  0  0  0  0  0  0  0  0  0  0
    1.0890  -25.2650  -44.7870 H   0  0  0  0  0  0  0  0  0  0  0  0
    3.2650  -24.4260  -44.7880 H   0  0  0  0  0  0  0  0  0  0  0  0
    3.8360  -25.7510  -43.7700 H   0  0  0  0  0  0  0  0  0  0  0  0
    4.9070  -18.8900  -37.6940 H   0  0  0  0  0  0  0  0  0  0  0  0
    4.7580  -20.6480  -37.5550 H   0  0  0  0  0  0  0  0  0  0  0  0
    7.9230  -18.4300  -36.8880 H   0  0  0  0  0  0  0  0  0  0  0  0
    7.6090  -17.9940  -38.5750 H   0  0  0  0  0  0  0  0  0  0  0  0
  2  1  1  0  0  0  0
  3  2  1  0  0  0  0
  3 31  1  0  0  0  0
  4  3  2  0  0  0  0
  5  6  2  0  0  0  0
  5  4  1  0  0  0  0
  6  7  1  0  0  0  0
  7 33  1  0  0  0  0
  7  2  2  0  0  0  0
  8  9  1  0  0  0  0
  8  5  1  0  0  0  0
 10  9  2  0  0  0  0
 11  9  1  6  0  0  0
 11 12  1  0  0  0  0
 11 15  1  0  0  0  0
 11  4  1  0  0  0  0
 12 13  1  0  0  0  0
 12 35  1  0  0  0  0
 13 36  1  6  0  0  0
 13 27  1  0  0  0  0
 14 13  1  0  0  0  0
 14 37  1  1  0  0  0
 15 14  1  0  0  0  0
 15 38  1  1  0  0  0
 16 15  1  0  0  0  0
 17 16  2  0  0  0  0
 18 19  1  0  0  0  0
 18 16  1  0  0  0  0
 19 14  1  0  0  0  0
 20 19  2  0  0  0  0
 21 22  1  0  0  0  0
 21 18  1  0  0  0  0
 22 41  1  1  0  0  0
 22 23  1  0  0  0  0
 24 42  1  0  0  0  0
 24 23  1  0  0  0  0
 25 26  1  0  0  0  0
 25 24  1  0  0  0  0
 26 47  1  0  0  0  0
 26 22  1  0  0  0  0
 27 28  1  0  0  0  0
 27 48  1  0  0  0  0
 27 49  1  0  0  0  0
 28 29  2  0  0  0  0
 28 30  1  0  0  0  0
 30 50  1  0  0  0  0
 32  6  1  0  0  0  0
 34  8  1  0  0  0  0
 39 21  1  0  0  0  0
 40 21  1  0  0  0  0
 43 24  1  0  0  0  0
 44 25  1  0  0  0  0
 45 25  1  0  0  0  0
 46 26  1  0  0  0  0
 51 30  1  0  0  0  0
M  END
>  <Pose>
1

>  <Score>
-4.88

$$$$
