
 OpenBabel03232221553D

 45 49  0  0  0  0  0  0  0  0999 V2000
    0.9130  -14.1600  -36.4110 Cl  0  0  0  0  0  0  0  0  0  0  0  0
    1.4410  -15.5490  -37.3110 C   0  0  0  0  0  0  0  0  0  0  0  0
    1.6700  -16.7360  -36.6620 C   0  0  0  0  0  0  0  0  0  0  0  0
    2.0900  -17.8390  -37.3700 C   0  0  0  0  0  0  0  0  0  0  0  0
    2.2890  -17.7950  -38.7310 C   0  0  0  0  0  0  0  0  0  0  0  0
    2.0510  -16.5900  -39.3540 C   0  0  0  0  0  0  0  0  0  0  0  0
    1.6300  -15.4710  -38.6600 C   0  0  0  0  0  0  0  0  0  0  0  0
    2.7190  -18.8980  -39.5140 N   0  0  0  0  0  0  0  0  0  0  0  0
    2.1230  -19.4120  -40.5760 N   0  0  0  0  0  0  0  0  0  0  0  0
    2.7940  -20.4370  -41.0640 N   0  0  0  0  0  0  0  0  0  0  0  0
    3.8920  -20.6420  -40.3160 C   0  0  0  0  0  0  0  0  0  0  0  0
    3.8270  -19.6630  -39.3450 C   0  0  0  0  0  0  0  0  0  0  0  0
    4.8200  -19.6190  -38.4290 N   0  0  0  0  0  0  0  0  0  0  0  0
    5.8200  -20.5180  -38.4950 C   0  0  0  0  0  0  0  0  0  0  0  0
    5.8790  -21.4770  -39.4520 N   0  0  0  0  0  0  0  0  0  0  0  0
    4.9160  -21.5650  -40.3890 C   0  0  0  0  0  0  0  0  0  0  0  0
    4.9610  -22.5690  -41.4030 N   0  0  0  0  0  0  0  0  0  0  0  0
    3.7820  -23.4030  -41.5390 C   0  0  0  0  0  0  0  0  0  0  0  0
    3.6890  -23.9860  -42.9470 C   0  0  0  0  0  0  0  0  0  0  0  0
    4.9710  -24.3010  -43.4660 N   0  0  0  0  0  0  0  0  0  0  0  0
    5.8480  -23.0990  -43.6200 C   0  0  0  0  0  0  0  0  0  0  0  0
    6.1460  -22.6720  -42.1950 C   0  0  0  0  0  0  0  0  0  0  0  0
    5.4400  -25.5570  -43.8080 C   0  0  0  0  0  0  0  0  0  0  0  0
    6.5540  -25.9060  -43.1870 O   0  0  0  0  0  0  0  0  0  0  0  0
    4.9530  -26.5830  -44.7180 C   0  0  0  0  0  0  0  0  0  0  0  0
    3.5870  -26.4500  -45.2760 C   0  0  0  0  0  0  0  0  0  0  0  0
    4.8070  -26.4920  -46.1670 C   0  0  0  0  0  0  0  0  0  0  0  0
    1.5090  -16.7620  -35.5770 H   0  0  0  0  0  0  0  0  0  0  0  0
    2.2600  -18.7550  -36.8290 H   0  0  0  0  0  0  0  0  0  0  0  0
    2.2010  -16.5260  -40.4330 H   0  0  0  0  0  0  0  0  0  0  0  0
    1.4640  -14.5520  -39.2350 H   0  0  0  0  0  0  0  0  0  0  0  0
    6.6220  -20.4740  -37.7460 H   0  0  0  0  0  0  0  0  0  0  0  0
    3.7770  -24.1810  -40.7570 H   0  0  0  0  0  0  0  0  0  0  0  0
    2.8700  -22.7920  -41.3930 H   0  0  0  0  0  0  0  0  0  0  0  0
    3.3030  -23.1330  -43.6110 H   0  0  0  0  0  0  0  0  0  0  0  0
    2.9050  -24.7120  -42.9590 H   0  0  0  0  0  0  0  0  0  0  0  0
    6.7570  -23.3500  -44.1610 H   0  0  0  0  0  0  0  0  0  0  0  0
    5.2480  -22.3190  -44.0890 H   0  0  0  0  0  0  0  0  0  0  0  0
    6.8850  -23.4170  -41.8030 H   0  0  0  0  0  0  0  0  0  0  0  0
    6.6780  -21.6990  -42.2550 H   0  0  0  0  0  0  0  0  0  0  0  0
    5.2100  -27.6540  -44.3590 H   0  0  0  0  0  0  0  0  0  0  0  0
    2.9980  -25.5320  -45.1320 H   0  0  0  0  0  0  0  0  0  0  0  0
    2.9130  -27.3450  -45.3280 H   0  0  0  0  0  0  0  0  0  0  0  0
    4.9540  -27.4600  -46.7560 H   0  0  0  0  0  0  0  0  0  0  0  0
    4.9670  -25.6360  -46.8050 H   0  0  0  0  0  0  0  0  0  0  0  0
  2  3  1  0  0  0  0
  2  1  1  0  0  0  0
  3 28  1  0  0  0  0
  4 29  1  0  0  0  0
  4  3  2  0  0  0  0
  5  4  1  0  0  0  0
  6  5  2  0  0  0  0
  6  7  1  0  0  0  0
  7  2  2  0  0  0  0
  8 12  1  0  0  0  0
  8  5  1  0  0  0  0
  9  8  1  0  0  0  0
 10  9  2  0  0  0  0
 10 11  1  0  0  0  0
 11 12  2  0  0  0  0
 12 13  1  0  0  0  0
 14 13  2  0  0  0  0
 14 32  1  0  0  0  0
 15 14  1  0  0  0  0
 16 11  1  0  0  0  0
 16 15  2  0  0  0  0
 17 16  1  0  0  0  0
 18 17  1  0  0  0  0
 18 34  1  0  0  0  0
 18 33  1  0  0  0  0
 19 18  1  0  0  0  0
 20 19  1  0  0  0  0
 21 20  1  0  0  0  0
 21 22  1  0  0  0  0
 22 39  1  0  0  0  0
 22 17  1  0  0  0  0
 23 20  1  0  0  0  0
 23 24  2  0  0  0  0
 25 41  1  0  0  0  0
 25 23  1  0  0  0  0
 26 42  1  0  0  0  0
 26 25  1  0  0  0  0
 27 26  1  0  0  0  0
 27 25  1  0  0  0  0
 30  6  1  0  0  0  0
 31  7  1  0  0  0  0
 35 19  1  0  0  0  0
 36 19  1  0  0  0  0
 37 21  1  0  0  0  0
 38 21  1  0  0  0  0
 40 22  1  0  0  0  0
 43 26  1  0  0  0  0
 44 27  1  0  0  0  0
 45 27  1  0  0  0  0
M  END
>  <Pose>
1

>  <Score>
-4.32

$$$$
