
 OpenBabel03232221553D

 41 44  0  0  1  0  0  0  0  0999 V2000
    0.1750  -17.4990  -38.8430 S   0  0  0  0  0  0  0  0  0  0  0  0
    0.9630  -17.0540  -40.0530 O   0  0  0  0  0  0  0  0  0  0  0  0
   -1.0610  -18.1760  -39.3570 O   0  0  0  0  0  0  0  0  0  0  0  0
    1.1030  -18.5410  -37.9280 N   0  0  0  0  0  0  0  0  0  0  0  0
    1.9420  -18.0240  -36.9420 C   0  0  0  0  0  0  0  0  0  0  0  0
    3.2480  -18.7710  -36.8010 C   0  0  0  0  0  0  0  0  0  0  0  0
    3.6900  -19.4310  -38.0520 C   0  0  2  0  0  0  0  0  0  0  0  0
    2.7120  -19.9700  -38.8510 C   0  0  0  0  0  0  0  0  0  0  0  0
    3.0180  -20.5870  -39.9990 N   0  0  0  0  0  0  0  0  0  0  0  0
    4.3330  -20.6800  -40.3820 C   0  0  1  0  0  0  0  0  0  0  0  0
    5.2800  -20.1450  -39.5840 N   0  0  0  0  0  0  0  0  0  0  0  0
    6.4580  -20.3670  -40.1730 N   0  0  0  0  0  0  0  0  0  0  0  0
    6.2860  -21.0230  -41.3140 C   0  0  0  0  0  0  0  0  0  0  0  0
    4.9230  -21.2480  -41.4910 C   0  0  0  0  0  0  0  0  0  0  0  0
    5.0310  -19.5180  -38.4280 C   0  0  0  0  0  0  0  0  0  0  0  0
    5.9130  -19.0200  -37.6870 O   0  0  0  0  0  0  0  0  0  0  0  0
    1.3100  -19.8520  -38.4180 C   0  0  0  0  0  0  0  0  0  0  0  0
   -0.3220  -16.0450  -38.0060 C   0  0  0  0  0  0  0  0  0  0  0  0
    0.5800  -15.1460  -37.4630 C   0  0  0  0  0  0  0  0  0  0  0  0
    0.1290  -14.0090  -36.8110 C   0  0  0  0  0  0  0  0  0  0  0  0
   -1.2100  -13.7210  -36.6730 C   0  0  0  0  0  0  0  0  0  0  0  0
   -2.1080  -14.6160  -37.2140 C   0  0  0  0  0  0  0  0  0  0  0  0
   -1.6600  -15.7460  -37.8620 C   0  0  0  0  0  0  0  0  0  0  0  0
   -1.6440  -12.5630  -36.0090 O   0  0  0  0  0  0  0  0  0  0  0  0
   -3.0180  -12.2250  -36.0160 C   0  0  0  0  0  0  0  0  0  0  0  0
    1.2840  -12.8810  -36.1290 Cl  0  0  0  0  0  0  0  0  0  0  0  0
    2.1210  -16.9230  -37.0570 H   0  0  0  0  0  0  0  0  0  0  0  0
    1.4260  -18.1340  -35.9410 H   0  0  0  0  0  0  0  0  0  0  0  0
    4.0420  -18.1340  -36.3610 H   0  0  0  0  0  0  0  0  0  0  0  0
    3.1210  -19.6100  -36.0550 H   0  0  0  0  0  0  0  0  0  0  0  0
    7.3900  -20.0720  -39.8010 H   0  0  0  0  0  0  0  0  0  0  0  0
    7.0380  -21.3430  -42.0060 H   0  0  0  0  0  0  0  0  0  0  0  0
    4.4770  -21.7530  -42.3160 H   0  0  0  0  0  0  0  0  0  0  0  0
    0.5850  -20.0630  -39.2140 H   0  0  0  0  0  0  0  0  0  0  0  0
    1.1880  -20.5650  -37.5500 H   0  0  0  0  0  0  0  0  0  0  0  0
    1.6310  -15.3810  -37.5780 H   0  0  0  0  0  0  0  0  0  0  0  0
   -3.1800  -14.3990  -37.1110 H   0  0  0  0  0  0  0  0  0  0  0  0
   -2.3880  -16.4400  -38.2820 H   0  0  0  0  0  0  0  0  0  0  0  0
   -3.5660  -13.1490  -35.6730 H   0  0  0  0  0  0  0  0  0  0  0  0
   -3.2290  -11.4700  -35.2240 H   0  0  0  0  0  0  0  0  0  0  0  0
   -3.3630  -11.8960  -37.0080 H   0  0  0  0  0  0  0  0  0  0  0  0
  1 18  1  0  0  0  0
  1  4  1  0  0  0  0
  2  1  2  0  0  0  0
  3  1  2  0  0  0  0
  4  5  1  0  0  0  0
  5  6  1  0  0  0  0
  5 28  1  0  0  0  0
  6 29  1  0  0  0  0
  6 30  1  0  0  0  0
  7  8  1  1  0  0  0
  7  6  1  0  0  0  0
  8 17  1  0  0  0  0
  9  8  2  0  0  0  0
 10 14  1  1  0  0  0
 10  9  1  0  0  0  0
 10 11  1  0  0  0  0
 11 15  1  0  0  0  0
 12 31  1  0  0  0  0
 12 11  1  0  0  0  0
 13 12  1  0  0  0  0
 14 13  2  0  0  0  0
 15  7  1  0  0  0  0
 15 16  2  0  0  0  0
 17  4  1  0  0  0  0
 17 35  1  0  0  0  0
 18 23  2  0  0  0  0
 18 19  1  0  0  0  0
 19 20  2  0  0  0  0
 20 21  1  0  0  0  0
 20 26  1  0  0  0  0
 21 24  1  0  0  0  0
 22 37  1  0  0  0  0
 22 21  2  0  0  0  0
 23 22  1  0  0  0  0
 25 24  1  0  0  0  0
 25 39  1  0  0  0  0
 25 40  1  0  0  0  0
 27  5  1  0  0  0  0
 32 13  1  0  0  0  0
 33 14  1  0  0  0  0
 34 17  1  0  0  0  0
 36 19  1  0  0  0  0
 38 23  1  0  0  0  0
 41 25  1  0  0  0  0
M  END
>  <Pose>
1

>  <Score>
-4.28

$$$$
