
 OpenBabel03232221553D

 36 39  0  0  1  0  0  0  0  0999 V2000
    6.6760  -19.6430  -37.8960 Cl  0  0  0  0  0  0  0  0  0  0  0  0
    5.1350  -19.3840  -38.6900 C   0  0  0  0  0  0  0  0  0  0  0  0
    5.1260  -19.2740  -40.0650 C   0  0  0  0  0  0  0  0  0  0  0  0
    3.8620  -19.0620  -40.6310 C   0  0  0  0  0  0  0  0  0  0  0  0
    3.7950  -18.9560  -41.8710 O   0  0  0  0  0  0  0  0  0  0  0  0
    2.7640  -18.9790  -39.8700 N   0  0  0  0  0  0  0  0  0  0  0  0
    2.7810  -19.0850  -38.5500 N   0  0  0  0  0  0  0  0  0  0  0  0
    1.4950  -18.9760  -37.8750 C   0  0  1  0  0  0  0  0  0  0  0  0
    0.9080  -17.6370  -38.2810 C   0  0  1  0  0  0  0  0  0  0  0  0
    0.9250  -17.4820  -39.7400 C   0  0  1  0  0  0  0  0  0  0  0  0
    1.4340  -18.7510  -40.4380 C   0  0  2  0  0  0  0  0  0  0  0  0
    0.6030  -19.8780  -39.8910 C   0  0  0  0  0  0  0  0  0  0  0  0
    0.6300  -19.9990  -38.5750 C   0  0  0  0  0  0  0  0  0  0  0  0
   -0.4020  -17.5810  -38.9750 C   0  0  0  0  0  0  0  0  0  0  0  0
    3.9540  -19.2850  -37.9590 C   0  0  0  0  0  0  0  0  0  0  0  0
    3.9800  -19.3880  -36.7060 O   0  0  0  0  0  0  0  0  0  0  0  0
    6.2850  -19.3660  -40.8880 N   0  0  0  0  0  0  0  0  0  0  0  0
    6.4820  -20.3070  -41.9280 C   0  0  0  0  0  0  0  0  0  0  0  0
    5.5600  -21.4980  -41.8830 C   0  0  0  0  0  0  0  0  0  0  0  0
    6.3380  -19.7030  -43.3190 C   0  0  0  0  0  0  0  0  0  0  0  0
    1.5440  -19.1310  -36.8030 H   0  0  0  0  0  0  0  0  0  0  0  0
    1.1150  -16.8160  -37.5750 H   0  0  0  0  0  0  0  0  0  0  0  0
    1.1360  -16.5200  -40.2430 H   0  0  0  0  0  0  0  0  0  0  0  0
    1.4230  -18.6810  -41.5150 H   0  0  0  0  0  0  0  0  0  0  0  0
    0.0580  -20.4940  -40.5830 H   0  0  0  0  0  0  0  0  0  0  0  0
    0.1160  -20.7240  -37.9750 H   0  0  0  0  0  0  0  0  0  0  0  0
   -1.0090  -16.6790  -38.8780 H   0  0  0  0  0  0  0  0  0  0  0  0
   -0.9160  -18.5720  -39.1290 H   0  0  0  0  0  0  0  0  0  0  0  0
    7.0310  -18.6680  -40.6820 H   0  0  0  0  0  0  0  0  0  0  0  0
    7.5140  -20.7090  -41.8870 H   0  0  0  0  0  0  0  0  0  0  0  0
    5.7710  -22.1880  -41.0410 H   0  0  0  0  0  0  0  0  0  0  0  0
    5.7070  -22.1360  -42.8050 H   0  0  0  0  0  0  0  0  0  0  0  0
    4.5020  -21.2560  -41.8670 H   0  0  0  0  0  0  0  0  0  0  0  0
    6.6120  -20.5370  -44.0270 H   0  0  0  0  0  0  0  0  0  0  0  0
    7.0960  -18.9190  -43.4880 H   0  0  0  0  0  0  0  0  0  0  0  0
    5.3150  -19.4220  -43.5630 H   0  0  0  0  0  0  0  0  0  0  0  0
  2 15  1  0  0  0  0
  2  1  1  0  0  0  0
  3  2  2  0  0  0  0
  4  3  1  0  0  0  0
  4  6  1  0  0  0  0
  5  4  2  0  0  0  0
  6  7  1  0  0  0  0
  7 15  1  0  0  0  0
  7  8  1  0  0  0  0
  8 21  1  1  0  0  0
  9  8  1  0  0  0  0
  9 22  1  1  0  0  0
 10 23  1  6  0  0  0
 10 14  1  0  0  0  0
 10  9  1  0  0  0  0
 11 24  1  6  0  0  0
 11 12  1  0  0  0  0
 11  6  1  0  0  0  0
 11 10  1  0  0  0  0
 12 13  2  0  0  0  0
 13 26  1  0  0  0  0
 13  8  1  0  0  0  0
 14 27  1  0  0  0  0
 14  9  1  0  0  0  0
 15 16  2  0  0  0  0
 17 29  1  0  0  0  0
 17  3  1  0  0  0  0
 18 30  1  0  0  0  0
 18 19  1  0  0  0  0
 18 17  1  0  0  0  0
 19 33  1  0  0  0  0
 19 31  1  0  0  0  0
 20 18  1  0  0  0  0
 25 12  1  0  0  0  0
 28 14  1  0  0  0  0
 32 19  1  0  0  0  0
 34 20  1  0  0  0  0
 35 20  1  0  0  0  0
 36 20  1  0  0  0  0
M  END
>  <Pose>
1

>  <Score>
-3.60

$$$$
