
 OpenBabel03232221553D

 56 59  0  0  1  0  0  0  0  0999 V2000
    4.8100  -24.6220  -45.0910 Cl  0  0  0  0  0  0  0  0  0  0  0  0
    6.3420  -24.3050  -44.3060 C   0  0  0  0  0  0  0  0  0  0  0  0
    6.5430  -23.0230  -43.8020 C   0  0  0  0  0  0  0  0  0  0  0  0
    7.7590  -22.8090  -43.1900 C   0  0  0  0  0  0  0  0  0  0  0  0
    8.6650  -23.7980  -43.1050 N   0  0  0  0  0  0  0  0  0  0  0  0
    8.4940  -25.0210  -43.5760 N   0  0  0  0  0  0  0  0  0  0  0  0
    7.3190  -25.2740  -44.1830 C   0  0  0  0  0  0  0  0  0  0  0  0
    7.1310  -26.4350  -44.6410 O   0  0  0  0  0  0  0  0  0  0  0  0
    9.5090  -26.0260  -43.4520 C   0  0  0  0  0  0  0  0  0  0  0  0
   10.0950  -26.2670  -42.2310 C   0  0  0  0  0  0  0  0  0  0  0  0
   11.0860  -27.2460  -42.0970 C   0  0  0  0  0  0  0  0  0  0  0  0
   11.5030  -27.9930  -43.1750 C   0  0  0  0  0  0  0  0  0  0  0  0
   10.9210  -27.7580  -44.4020 C   0  0  0  0  0  0  0  0  0  0  0  0
    9.9370  -26.7820  -44.5220 C   0  0  0  0  0  0  0  0  0  0  0  0
    5.5590  -22.0070  -43.9210 N   0  0  0  0  0  0  0  0  0  0  0  0
    5.7940  -20.7770  -44.6380 C   0  0  0  0  0  0  0  0  0  0  0  0
    5.2910  -19.6160  -43.8390 C   0  0  0  0  0  0  0  0  0  0  0  0
    4.9950  -20.1020  -42.5150 N   0  0  0  0  0  0  0  0  0  0  0  0
    3.8510  -20.9380  -42.5780 C   0  0  0  0  0  0  0  0  0  0  0  0
    4.2760  -22.2210  -43.3000 C   0  0  0  0  0  0  0  0  0  0  0  0
    5.0910  -19.1650  -41.4670 C   0  0  0  0  0  0  0  0  0  0  0  0
    5.5650  -19.7140  -40.1920 C   0  0  0  0  0  0  0  0  0  0  0  0
    5.5210  -20.9860  -40.0800 O   0  0  0  0  0  0  0  0  0  0  0  0
    6.0610  -18.9720  -39.0930 N   0  0  0  0  0  0  0  0  0  0  0  0
    5.7490  -19.2570  -37.7150 C   0  0  0  0  0  0  0  0  0  0  0  0
    4.2900  -19.5640  -37.5850 C   0  0  1  0  0  0  0  0  0  0  0  0
    3.7800  -18.9020  -36.5000 O   0  0  0  0  0  0  0  0  0  0  0  0
    2.7430  -18.0880  -36.8660 C   0  0  0  0  0  0  0  0  0  0  0  0
    2.1750  -18.7750  -38.0900 C   0  0  0  0  0  0  0  0  0  0  0  0
    3.5020  -19.0930  -38.7990 C   0  0  0  0  0  0  0  0  0  0  0  0
    7.9420  -21.8140  -42.7870 H   0  0  0  0  0  0  0  0  0  0  0  0
    9.7670  -25.6750  -41.3710 H   0  0  0  0  0  0  0  0  0  0  0  0
   11.5490  -27.4400  -41.1440 H   0  0  0  0  0  0  0  0  0  0  0  0
   12.2750  -28.7670  -43.1100 H   0  0  0  0  0  0  0  0  0  0  0  0
   11.2530  -28.3480  -45.2490 H   0  0  0  0  0  0  0  0  0  0  0  0
    9.4740  -26.5910  -45.4810 H   0  0  0  0  0  0  0  0  0  0  0  0
    5.4010  -20.8000  -45.6750 H   0  0  0  0  0  0  0  0  0  0  0  0
    6.9040  -20.6010  -44.7720 H   0  0  0  0  0  0  0  0  0  0  0  0
    4.2950  -19.2980  -44.2750 H   0  0  0  0  0  0  0  0  0  0  0  0
    5.9800  -18.7720  -43.7690 H   0  0  0  0  0  0  0  0  0  0  0  0
    3.3650  -21.1390  -41.6160 H   0  0  0  0  0  0  0  0  0  0  0  0
    3.0990  -20.4450  -43.2390 H   0  0  0  0  0  0  0  0  0  0  0  0
    3.5010  -22.5520  -44.0360 H   0  0  0  0  0  0  0  0  0  0  0  0
    4.3470  -22.9910  -42.4930 H   0  0  0  0  0  0  0  0  0  0  0  0
    4.1250  -18.6110  -41.2960 H   0  0  0  0  0  0  0  0  0  0  0  0
    5.8310  -18.3740  -41.7960 H   0  0  0  0  0  0  0  0  0  0  0  0
    6.6980  -18.1770  -39.3000 H   0  0  0  0  0  0  0  0  0  0  0  0
    5.9970  -18.3830  -37.0560 H   0  0  0  0  0  0  0  0  0  0  0  0
    6.3520  -20.1170  -37.3860 H   0  0  0  0  0  0  0  0  0  0  0  0
    4.1030  -20.6450  -37.4950 H   0  0  0  0  0  0  0  0  0  0  0  0
    3.1510  -17.1160  -37.2060 H   0  0  0  0  0  0  0  0  0  0  0  0
    1.9970  -17.9830  -36.0590 H   0  0  0  0  0  0  0  0  0  0  0  0
    1.5180  -18.1490  -38.6880 H   0  0  0  0  0  0  0  0  0  0  0  0
    1.7400  -19.7480  -37.7800 H   0  0  0  0  0  0  0  0  0  0  0  0
    3.8790  -18.1060  -39.1550 H   0  0  0  0  0  0  0  0  0  0  0  0
    3.3810  -19.8410  -39.5760 H   0  0  0  0  0  0  0  0  0  0  0  0
  1  2  1  0  0  0  0
  2  7  1  0  0  0  0
  2  3  2  0  0  0  0
  3  4  1  0  0  0  0
  4  5  2  0  0  0  0
  4 31  1  0  0  0  0
  6  9  1  0  0  0  0
  6  5  1  0  0  0  0
  7  6  1  0  0  0  0
  8  7  2  0  0  0  0
  9 10  1  0  0  0  0
 10 11  2  0  0  0  0
 10 32  1  0  0  0  0
 11 33  1  0  0  0  0
 12 34  1  0  0  0  0
 12 11  1  0  0  0  0
 13 12  2  0  0  0  0
 14 13  1  0  0  0  0
 14  9  2  0  0  0  0
 15  3  1  0  0  0  0
 15 20  1  0  0  0  0
 16 15  1  0  0  0  0
 16 17  1  0  0  0  0
 17 40  1  0  0  0  0
 17 18  1  0  0  0  0
 18 21  1  0  0  0  0
 19 18  1  0  0  0  0
 19 41  1  0  0  0  0
 20 19  1  0  0  0  0
 20 44  1  0  0  0  0
 21 45  1  0  0  0  0
 21 22  1  0  0  0  0
 22 23  2  0  0  0  0
 22 24  1  0  0  0  0
 24 25  1  0  0  0  0
 25 26  1  0  0  0  0
 25 49  1  0  0  0  0
 25 48  1  0  0  0  0
 26 50  1  1  0  0  0
 26 27  1  0  0  0  0
 28 27  1  0  0  0  0
 28 52  1  0  0  0  0
 29 54  1  0  0  0  0
 29 28  1  0  0  0  0
 30 29  1  0  0  0  0
 30 26  1  0  0  0  0
 35 13  1  0  0  0  0
 36 14  1  0  0  0  0
 37 16  1  0  0  0  0
 38 16  1  0  0  0  0
 39 17  1  0  0  0  0
 42 19  1  0  0  0  0
 43 20  1  0  0  0  0
 46 21  1  0  0  0  0
 47 24  1  0  0  0  0
 51 28  1  0  0  0  0
 53 29  1  0  0  0  0
 55 30  1  0  0  0  0
 56 30  1  0  0  0  0
M  END
>  <Pose>
1

>  <Score>
-4.24

$$$$
