
 OpenBabel03232221553D

 56 59  0  0  0  0  0  0  0  0999 V2000
   -0.4060  -12.4700  -36.3820 S   0  0  0  0  0  0  0  0  0  0  0  0
    0.2410  -11.2830  -37.0260 O   0  0  0  0  0  0  0  0  0  0  0  0
    0.5070  -12.9690  -35.3010 O   0  0  0  0  0  0  0  0  0  0  0  0
   -0.6860  -13.6730  -37.5660 N   0  0  0  0  0  0  0  0  0  0  0  0
    0.4410  -13.9990  -38.3630 C   0  0  0  0  0  0  0  0  0  0  0  0
    1.3250  -15.0670  -37.7760 C   0  0  0  0  0  0  0  0  0  0  0  0
    0.5620  -16.1170  -37.1360 N   0  0  0  0  0  0  0  0  0  0  0  0
   -0.8670  -16.1140  -37.3880 C   0  0  0  0  0  0  0  0  0  0  0  0
   -1.4780  -14.7620  -37.1160 C   0  0  0  0  0  0  0  0  0  0  0  0
    1.2140  -17.0580  -36.3290 C   0  0  0  0  0  0  0  0  0  0  0  0
    1.8860  -16.6590  -35.3490 O   0  0  0  0  0  0  0  0  0  0  0  0
    1.1410  -18.5180  -36.5910 C   0  0  0  0  0  0  0  0  0  0  0  0
    2.0070  -18.9200  -37.6640 N   0  0  0  0  0  0  0  0  0  0  0  0
    1.5770  -19.1630  -38.9950 C   0  0  0  0  0  0  0  0  0  0  0  0
    0.3710  -19.0550  -39.4000 O   0  0  0  0  0  0  0  0  0  0  0  0
    2.6600  -19.5460  -39.8340 N   0  0  0  0  0  0  0  0  0  0  0  0
    3.8000  -19.7750  -38.9660 C   0  0  0  0  0  0  0  0  0  0  0  0
    5.0360  -19.0780  -39.4540 C   0  0  0  0  0  0  0  0  0  0  0  0
    5.8070  -19.8570  -40.4780 C   0  0  0  0  0  0  0  0  0  0  0  0
    6.0820  -21.2760  -40.0760 C   0  0  0  0  0  0  0  0  0  0  0  0
    5.4340  -21.6400  -38.7580 C   0  0  0  0  0  0  0  0  0  0  0  0
    3.9700  -21.2710  -38.8460 C   0  0  0  0  0  0  0  0  0  0  0  0
    3.4080  -19.1590  -37.6740 C   0  0  0  0  0  0  0  0  0  0  0  0
    4.1650  -18.8790  -36.7150 O   0  0  0  0  0  0  0  0  0  0  0  0
    2.6070  -19.6740  -41.2900 C   0  0  0  0  0  0  0  0  0  0  0  0
   -1.9100  -11.9790  -35.5840 C   0  0  0  0  0  0  0  0  0  0  0  0
   -2.1120  -11.1770  -34.1000 S   0  0  0  0  0  0  0  0  0  0  0  0
   -3.8090  -11.0840  -34.0640 C   0  0  0  0  0  0  0  0  0  0  0  0
   -4.1840  -11.6930  -35.2320 C   0  0  0  0  0  0  0  0  0  0  0  0
   -3.1920  -12.1590  -36.0250 C   0  0  0  0  0  0  0  0  0  0  0  0
   -4.8730  -10.3790  -32.8280 Cl  0  0  0  0  0  0  0  0  0  0  0  0
    1.0740  -13.0810  -38.4590 H   0  0  0  0  0  0  0  0  0  0  0  0
    0.1140  -14.3110  -39.3740 H   0  0  0  0  0  0  0  0  0  0  0  0
    2.0970  -14.6530  -37.0960 H   0  0  0  0  0  0  0  0  0  0  0  0
    1.8630  -15.5450  -38.6350 H   0  0  0  0  0  0  0  0  0  0  0  0
   -1.3730  -16.8480  -36.7210 H   0  0  0  0  0  0  0  0  0  0  0  0
   -1.0930  -16.4080  -38.4220 H   0  0  0  0  0  0  0  0  0  0  0  0
   -1.8020  -14.6650  -36.0420 H   0  0  0  0  0  0  0  0  0  0  0  0
   -2.4470  -14.7410  -37.6950 H   0  0  0  0  0  0  0  0  0  0  0  0
    0.1180  -18.8210  -36.8440 H   0  0  0  0  0  0  0  0  0  0  0  0
    1.3910  -19.0200  -35.6300 H   0  0  0  0  0  0  0  0  0  0  0  0
    4.7770  -18.0990  -39.9010 H   0  0  0  0  0  0  0  0  0  0  0  0
    5.6940  -18.8980  -38.5700 H   0  0  0  0  0  0  0  0  0  0  0  0
    6.7850  -19.3260  -40.6160 H   0  0  0  0  0  0  0  0  0  0  0  0
    5.2880  -19.8030  -41.4550 H   0  0  0  0  0  0  0  0  0  0  0  0
    5.7380  -21.9400  -40.8970 H   0  0  0  0  0  0  0  0  0  0  0  0
    7.1870  -21.4490  -39.9440 H   0  0  0  0  0  0  0  0  0  0  0  0
    5.5340  -22.7230  -38.6050 H   0  0  0  0  0  0  0  0  0  0  0  0
    5.9000  -21.0500  -37.9620 H   0  0  0  0  0  0  0  0  0  0  0  0
    3.4510  -21.6910  -37.9620 H   0  0  0  0  0  0  0  0  0  0  0  0
    3.5410  -21.7730  -39.7390 H   0  0  0  0  0  0  0  0  0  0  0  0
    3.0450  -20.6360  -41.6260 H   0  0  0  0  0  0  0  0  0  0  0  0
    1.5630  -19.6140  -41.6110 H   0  0  0  0  0  0  0  0  0  0  0  0
    3.1270  -18.7870  -41.7040 H   0  0  0  0  0  0  0  0  0  0  0  0
   -5.2680  -11.7900  -35.5020 H   0  0  0  0  0  0  0  0  0  0  0  0
   -3.4300  -12.6690  -36.9990 H   0  0  0  0  0  0  0  0  0  0  0  0
  1 26  1  0  0  0  0
  1  3  2  0  0  0  0
  2  1  2  0  0  0  0
  4  9  1  0  0  0  0
  4  1  1  0  0  0  0
  5  6  1  0  0  0  0
  5  4  1  0  0  0  0
  6  7  1  0  0  0  0
  6 34  1  0  0  0  0
  7 10  1  0  0  0  0
  8  7  1  0  0  0  0
  8  9  1  0  0  0  0
  8 36  1  0  0  0  0
  9 38  1  0  0  0  0
 10 11  2  0  0  0  0
 12 10  1  0  0  0  0
 12 41  1  0  0  0  0
 13 12  1  0  0  0  0
 14 13  1  0  0  0  0
 15 14  2  0  0  0  0
 16 14  1  0  0  0  0
 16 17  1  0  0  0  0
 17 22  1  0  0  0  0
 17 23  1  0  0  0  0
 18 17  1  0  0  0  0
 18 43  1  0  0  0  0
 19 20  1  0  0  0  0
 19 18  1  0  0  0  0
 20 47  1  0  0  0  0
 20 21  1  0  0  0  0
 21 48  1  0  0  0  0
 21 49  1  0  0  0  0
 22 21  1  0  0  0  0
 22 50  1  0  0  0  0
 23 13  1  0  0  0  0
 23 24  2  0  0  0  0
 25 16  1  0  0  0  0
 26 27  1  0  0  0  0
 27 28  1  0  0  0  0
 28 31  1  0  0  0  0
 29 28  2  0  0  0  0
 30 26  2  0  0  0  0
 30 29  1  0  0  0  0
 32  5  1  0  0  0  0
 33  5  1  0  0  0  0
 35  6  1  0  0  0  0
 37  8  1  0  0  0  0
 39  9  1  0  0  0  0
 40 12  1  0  0  0  0
 42 18  1  0  0  0  0
 44 19  1  0  0  0  0
 45 19  1  0  0  0  0
 46 20  1  0  0  0  0
 51 22  1  0  0  0  0
 52 25  1  0  0  0  0
 53 25  1  0  0  0  0
 54 25  1  0  0  0  0
 55 29  1  0  0  0  0
 56 30  1  0  0  0  0
M  END
>  <Pose>
1

>  <Score>
-4.75

$$$$
