
 OpenBabel03232221553D

 39 42  0  0  0  0  0  0  0  0999 V2000
    7.8690  -21.2060  -45.0000 Cl  0  0  0  0  0  0  0  0  0  0  0  0
    8.6010  -22.6740  -44.3680 C   0  0  0  0  0  0  0  0  0  0  0  0
    7.9000  -23.3750  -43.4090 C   0  0  0  0  0  0  0  0  0  0  0  0
    8.4920  -24.5230  -42.9270 C   0  0  0  0  0  0  0  0  0  0  0  0
    9.7110  -24.9950  -43.3380 C   0  0  0  0  0  0  0  0  0  0  0  0
   10.3820  -24.2490  -44.3130 C   0  0  0  0  0  0  0  0  0  0  0  0
    9.8440  -23.0990  -44.8300 C   0  0  0  0  0  0  0  0  0  0  0  0
   10.3170  -26.2110  -42.8160 C   0  0  0  0  0  0  0  0  0  0  0  0
   10.2850  -26.7130  -41.5770 N   0  0  0  0  0  0  0  0  0  0  0  0
   10.9830  -27.8590  -41.5530 N   0  0  0  0  0  0  0  0  0  0  0  0
   11.4550  -28.0810  -42.7670 N   0  0  0  0  0  0  0  0  0  0  0  0
   11.0460  -27.0730  -43.5410 N   0  0  0  0  0  0  0  0  0  0  0  0
    6.5840  -22.9250  -42.9200 C   0  0  0  0  0  0  0  0  0  0  0  0
    5.5810  -23.2540  -43.5940 O   0  0  0  0  0  0  0  0  0  0  0  0
    6.4110  -22.1650  -41.7620 N   0  0  0  0  0  0  0  0  0  0  0  0
    5.3510  -21.3410  -41.3430 C   0  0  0  0  0  0  0  0  0  0  0  0
    5.6040  -20.0150  -40.7650 C   0  0  0  0  0  0  0  0  0  0  0  0
    5.0480  -19.6800  -39.4560 C   0  0  0  0  0  0  0  0  0  0  0  0
    3.7590  -19.5700  -39.1180 N   0  0  0  0  0  0  0  0  0  0  0  0
    3.6900  -19.2940  -37.8260 C   0  0  0  0  0  0  0  0  0  0  0  0
    4.9430  -19.2320  -37.3550 N   0  0  0  0  0  0  0  0  0  0  0  0
    5.7610  -19.4660  -38.3450 N   0  0  0  0  0  0  0  0  0  0  0  0
    2.4910  -19.1190  -37.1680 C   0  0  0  0  0  0  0  0  0  0  0  0
    1.3340  -19.2430  -37.9150 C   0  0  0  0  0  0  0  0  0  0  0  0
    1.4150  -19.5270  -39.2510 C   0  0  0  0  0  0  0  0  0  0  0  0
    2.6310  -19.6910  -39.8460 C   0  0  0  0  0  0  0  0  0  0  0  0
    7.9450  -25.0740  -42.1760 H   0  0  0  0  0  0  0  0  0  0  0  0
   11.3510  -24.6380  -44.6300 H   0  0  0  0  0  0  0  0  0  0  0  0
   10.3800  -22.5370  -45.5830 H   0  0  0  0  0  0  0  0  0  0  0  0
   11.1400  -28.4820  -40.7280 H   0  0  0  0  0  0  0  0  0  0  0  0
    7.2470  -22.2300  -41.0780 H   0  0  0  0  0  0  0  0  0  0  0  0
    4.6300  -21.1970  -42.2240 H   0  0  0  0  0  0  0  0  0  0  0  0
    4.6720  -21.9050  -40.6270 H   0  0  0  0  0  0  0  0  0  0  0  0
    5.3360  -19.2090  -41.5280 H   0  0  0  0  0  0  0  0  0  0  0  0
    6.7290  -19.8490  -40.6810 H   0  0  0  0  0  0  0  0  0  0  0  0
    2.4750  -18.8980  -36.1250 H   0  0  0  0  0  0  0  0  0  0  0  0
    0.3750  -19.1180  -37.4610 H   0  0  0  0  0  0  0  0  0  0  0  0
    0.5320  -19.6300  -39.8590 H   0  0  0  0  0  0  0  0  0  0  0  0
    2.7320  -19.9170  -40.9040 H   0  0  0  0  0  0  0  0  0  0  0  0
  1  2  1  0  0  0  0
  2  3  1  0  0  0  0
  3  4  2  0  0  0  0
  3 13  1  0  0  0  0
  4 27  1  0  0  0  0
  5  4  1  0  0  0  0
  5  8  1  0  0  0  0
  6  5  2  0  0  0  0
  7  2  2  0  0  0  0
  7  6  1  0  0  0  0
  8  9  2  0  0  0  0
  9 10  1  0  0  0  0
 10 30  1  0  0  0  0
 11 10  1  0  0  0  0
 12  8  1  0  0  0  0
 12 11  2  0  0  0  0
 13 15  1  0  0  0  0
 14 13  2  0  0  0  0
 15 16  1  0  0  0  0
 15 31  1  0  0  0  0
 16 17  1  0  0  0  0
 16 33  1  0  0  0  0
 17 35  1  0  0  0  0
 17 18  1  0  0  0  0
 18 19  1  0  0  0  0
 18 22  2  0  0  0  0
 19 20  1  0  0  0  0
 20 21  2  0  0  0  0
 20 23  1  0  0  0  0
 22 21  1  0  0  0  0
 23 36  1  0  0  0  0
 24 37  1  0  0  0  0
 24 23  2  0  0  0  0
 25 24  1  0  0  0  0
 26 25  2  0  0  0  0
 26 19  1  0  0  0  0
 28  6  1  0  0  0  0
 29  7  1  0  0  0  0
 32 16  1  0  0  0  0
 34 17  1  0  0  0  0
 38 25  1  0  0  0  0
 39 26  1  0  0  0  0
M  END
>  <Pose>
1

>  <Score>
-5.72

$$$$
