
 OpenBabel03232221553D

 47 50  0  0  1  0  0  0  0  0999 V2000
   -0.9450  -26.8940  -43.4940 Cl  0  0  0  0  0  0  0  0  0  0  0  0
    0.6350  -26.1340  -43.4770 C   0  0  0  0  0  0  0  0  0  0  0  0
    1.4790  -26.2140  -44.5740 C   0  0  0  0  0  0  0  0  0  0  0  0
    2.7010  -25.6130  -44.5300 C   0  0  0  0  0  0  0  0  0  0  0  0
    3.1440  -24.9130  -43.4140 C   0  0  0  0  0  0  0  0  0  0  0  0
    2.3020  -24.8360  -42.3270 C   0  0  0  0  0  0  0  0  0  0  0  0
    1.0450  -25.4440  -42.3480 C   0  0  0  0  0  0  0  0  0  0  0  0
    4.4200  -24.2880  -43.3730 N   0  0  0  0  0  0  0  0  0  0  0  0
    5.6370  -25.0190  -43.4200 C   0  0  0  0  0  0  0  0  0  0  0  0
    5.5750  -26.2810  -43.4980 O   0  0  0  0  0  0  0  0  0  0  0  0
    6.8920  -24.3700  -43.3800 N   0  0  0  0  0  0  0  0  0  0  0  0
    6.9700  -22.9610  -43.2920 C   0  0  0  0  0  0  0  0  0  0  0  0
    8.0830  -22.3440  -43.4350 O   0  0  0  0  0  0  0  0  0  0  0  0
    5.7850  -22.1430  -43.0350 C   0  0  1  0  0  0  0  0  0  0  0  0
    4.5370  -22.8760  -43.2840 C   0  0  0  0  0  0  0  0  0  0  0  0
    3.4490  -22.2200  -43.4400 O   0  0  0  0  0  0  0  0  0  0  0  0
    5.8390  -21.5740  -41.6560 C   0  0  0  0  0  0  0  0  0  0  0  0
    6.0170  -20.3290  -41.3010 C   0  0  0  0  0  0  0  0  0  0  0  0
    5.9890  -20.2880  -39.8180 C   0  0  2  0  0  0  0  0  0  0  0  0
    6.2220  -21.6610  -39.4260 N   0  0  0  0  0  0  0  0  0  0  0  0
    5.6900  -22.3880  -40.4970 N   0  0  0  0  0  0  0  0  0  0  0  0
    4.6590  -19.8300  -39.3300 C   0  0  0  0  0  0  0  0  0  0  0  0
    3.8730  -18.9580  -40.0490 C   0  0  0  0  0  0  0  0  0  0  0  0
    2.6370  -18.5260  -39.6040 C   0  0  0  0  0  0  0  0  0  0  0  0
    2.1470  -18.9690  -38.3970 C   0  0  0  0  0  0  0  0  0  0  0  0
    2.9170  -19.8400  -37.6650 C   0  0  0  0  0  0  0  0  0  0  0  0
    4.1470  -20.2640  -38.1170 C   0  0  0  0  0  0  0  0  0  0  0  0
    0.9160  -18.5500  -37.9340 O   0  0  0  0  0  0  0  0  0  0  0  0
    0.8090  -17.3240  -37.2480 C   0  0  0  0  0  0  0  0  0  0  0  0
    1.8920  -17.6500  -40.3700 O   0  0  0  0  0  0  0  0  0  0  0  0
    1.1620  -26.7460  -45.4440 H   0  0  0  0  0  0  0  0  0  0  0  0
    3.3630  -25.6800  -45.4010 H   0  0  0  0  0  0  0  0  0  0  0  0
    2.6560  -24.2890  -41.4630 H   0  0  0  0  0  0  0  0  0  0  0  0
    0.4160  -25.3550  -41.4660 H   0  0  0  0  0  0  0  0  0  0  0  0
    7.7830  -24.9310  -43.4150 H   0  0  0  0  0  0  0  0  0  0  0  0
    5.8290  -21.2830  -43.7650 H   0  0  0  0  0  0  0  0  0  0  0  0
    6.1570  -19.5100  -42.0040 H   0  0  0  0  0  0  0  0  0  0  0  0
    6.7910  -19.6140  -39.4310 H   0  0  0  0  0  0  0  0  0  0  0  0
    7.2430  -21.8560  -39.2970 H   0  0  0  0  0  0  0  0  0  0  0  0
    5.2730  -23.3500  -40.4020 H   0  0  0  0  0  0  0  0  0  0  0  0
    4.2830  -18.6200  -41.0050 H   0  0  0  0  0  0  0  0  0  0  0  0
    2.5340  -20.1990  -36.7010 H   0  0  0  0  0  0  0  0  0  0  0  0
    4.7680  -20.9590  -37.5400 H   0  0  0  0  0  0  0  0  0  0  0  0
    1.0760  -16.4560  -37.8810 H   0  0  0  0  0  0  0  0  0  0  0  0
   -0.2180  -17.2320  -36.8490 H   0  0  0  0  0  0  0  0  0  0  0  0
    1.4850  -17.3790  -36.3680 H   0  0  0  0  0  0  0  0  0  0  0  0
    2.0990  -16.6710  -40.3900 H   0  0  0  0  0  0  0  0  0  0  0  0
  1  2  1  0  0  0  0
  2  7  1  0  0  0  0
  3  4  1  0  0  0  0
  3  2  2  0  0  0  0
  4  5  2  0  0  0  0
  5  8  1  0  0  0  0
  5  6  1  0  0  0  0
  6 33  1  0  0  0  0
  7  6  2  0  0  0  0
  7 34  1  0  0  0  0
  8 15  1  0  0  0  0
  9 11  1  0  0  0  0
  9  8  1  0  0  0  0
 10  9  2  0  0  0  0
 11 12  1  0  0  0  0
 12 14  1  0  0  0  0
 13 12  2  0  0  0  0
 14 36  1  6  0  0  0
 14 17  1  0  0  0  0
 15 14  1  0  0  0  0
 16 15  2  0  0  0  0
 17 18  2  0  0  0  0
 17 21  1  0  0  0  0
 18 19  1  0  0  0  0
 19 38  1  1  0  0  0
 19 20  1  0  0  0  0
 19 22  1  0  0  0  0
 20 39  1  0  0  0  0
 21 40  1  0  0  0  0
 21 20  1  0  0  0  0
 22 27  1  0  0  0  0
 23 24  1  0  0  0  0
 23 22  2  0  0  0  0
 24 25  2  0  0  0  0
 25 28  1  0  0  0  0
 25 26  1  0  0  0  0
 26 42  1  0  0  0  0
 27 26  2  0  0  0  0
 27 43  1  0  0  0  0
 28 29  1  0  0  0  0
 29 45  1  0  0  0  0
 29 46  1  0  0  0  0
 30 24  1  0  0  0  0
 31  3  1  0  0  0  0
 32  4  1  0  0  0  0
 35 11  1  0  0  0  0
 37 18  1  0  0  0  0
 41 23  1  0  0  0  0
 44 29  1  0  0  0  0
 47 30  1  0  0  0  0
M  END
>  <Pose>
1

>  <Score>
-4.60

$$$$
