
 OpenBabel03232221553D

 43 46  0  0  1  0  0  0  0  0999 V2000
    0.4940  -16.1520  -36.1600 Cl  0  0  0  0  0  0  0  0  0  0  0  0
    1.5890  -17.2280  -36.9770 C   0  0  0  0  0  0  0  0  0  0  0  0
    1.5510  -17.2750  -38.3640 C   0  0  0  0  0  0  0  0  0  0  0  0
    2.4130  -18.1220  -39.0350 C   0  0  0  0  0  0  0  0  0  0  0  0
    3.3230  -18.9360  -38.3880 C   0  0  0  0  0  0  0  0  0  0  0  0
    3.3460  -18.8750  -37.0080 C   0  0  0  0  0  0  0  0  0  0  0  0
    2.4990  -18.0400  -36.3030 C   0  0  0  0  0  0  0  0  0  0  0  0
    4.2130  -19.8090  -39.1200 N   0  0  0  0  0  0  0  0  0  0  0  0
    5.6210  -19.6500  -38.8850 C   0  0  0  0  0  0  0  0  0  0  0  0
    6.0620  -18.7820  -38.0700 O   0  0  0  0  0  0  0  0  0  0  0  0
    6.4900  -20.5090  -39.6080 N   0  0  0  0  0  0  0  0  0  0  0  0
    5.9600  -21.4880  -40.5300 C   0  0  0  0  0  0  0  0  0  0  0  0
    6.6750  -22.4690  -40.7720 O   0  0  0  0  0  0  0  0  0  0  0  0
    4.6490  -21.2800  -41.1120 C   0  0  2  0  0  0  0  0  0  0  0  0
    3.7400  -20.7850  -40.0350 C   0  0  0  0  0  0  0  0  0  0  0  0
    2.5580  -21.1840  -39.8780 O   0  0  0  0  0  0  0  0  0  0  0  0
    4.0730  -22.3550  -41.8870 C   0  0  0  0  0  0  0  0  0  0  0  0
    3.9160  -22.4510  -43.1880 C   0  0  0  0  0  0  0  0  0  0  0  0
    3.2760  -23.7360  -43.5610 C   0  0  2  0  0  0  0  0  0  0  0  0
    3.3290  -24.4870  -42.3270 N   0  0  0  0  0  0  0  0  0  0  0  0
    3.5390  -23.5630  -41.3060 N   0  0  0  0  0  0  0  0  0  0  0  0
    4.0300  -24.4840  -44.5740 C   0  0  0  0  0  0  0  0  0  0  0  0
    5.1170  -25.2370  -44.1560 C   0  0  0  0  0  0  0  0  0  0  0  0
    5.8440  -25.9500  -45.0800 C   0  0  0  0  0  0  0  0  0  0  0  0
    5.5220  -25.9400  -46.4170 C   0  0  0  0  0  0  0  0  0  0  0  0
    4.4470  -25.1980  -46.8470 C   0  0  0  0  0  0  0  0  0  0  0  0
    3.7130  -24.4750  -45.9070 C   0  0  0  0  0  0  0  0  0  0  0  0
    6.9440  -26.7160  -44.6710 O   0  0  0  0  0  0  0  0  0  0  0  0
    0.8380  -16.6410  -38.9100 H   0  0  0  0  0  0  0  0  0  0  0  0
    2.3840  -18.1600  -40.1050 H   0  0  0  0  0  0  0  0  0  0  0  0
    4.0290  -19.4800  -36.4510 H   0  0  0  0  0  0  0  0  0  0  0  0
    2.4910  -17.9670  -35.2210 H   0  0  0  0  0  0  0  0  0  0  0  0
    7.5080  -20.4110  -39.4520 H   0  0  0  0  0  0  0  0  0  0  0  0
    4.7730  -20.3970  -41.8370 H   0  0  0  0  0  0  0  0  0  0  0  0
    4.1830  -21.7370  -43.9690 H   0  0  0  0  0  0  0  0  0  0  0  0
    2.2200  -23.5550  -43.8850 H   0  0  0  0  0  0  0  0  0  0  0  0
    4.0390  -25.2500  -42.3460 H   0  0  0  0  0  0  0  0  0  0  0  0
    3.3240  -23.7690  -40.3080 H   0  0  0  0  0  0  0  0  0  0  0  0
    5.3790  -25.2540  -43.1010 H   0  0  0  0  0  0  0  0  0  0  0  0
    6.0990  -26.5060  -47.1490 H   0  0  0  0  0  0  0  0  0  0  0  0
    4.1390  -25.1450  -47.8910 H   0  0  0  0  0  0  0  0  0  0  0  0
    2.8640  -23.8870  -46.2330 H   0  0  0  0  0  0  0  0  0  0  0  0
    6.9160  -27.7140  -44.7870 H   0  0  0  0  0  0  0  0  0  0  0  0
  2  7  1  0  0  0  0
  2  1  1  0  0  0  0
  3  2  2  0  0  0  0
  4  5  2  0  0  0  0
  4  3  1  0  0  0  0
  5  6  1  0  0  0  0
  6 31  1  0  0  0  0
  6  7  2  0  0  0  0
  7 32  1  0  0  0  0
  8  9  1  0  0  0  0
  8  5  1  0  0  0  0
  9 10  2  0  0  0  0
 11 33  1  0  0  0  0
 11  9  1  0  0  0  0
 12 11  1  0  0  0  0
 13 12  2  0  0  0  0
 14 34  1  6  0  0  0
 14 12  1  0  0  0  0
 14 15  1  0  0  0  0
 15 16  2  0  0  0  0
 15  8  1  0  0  0  0
 17 21  1  0  0  0  0
 17 14  1  0  0  0  0
 18 17  2  0  0  0  0
 19 36  1  6  0  0  0
 19 18  1  0  0  0  0
 19 20  1  0  0  0  0
 20 21  1  0  0  0  0
 21 38  1  0  0  0  0
 22 23  1  0  0  0  0
 22 19  1  0  0  0  0
 23 39  1  0  0  0  0
 24 28  1  0  0  0  0
 24 23  2  0  0  0  0
 25 24  1  0  0  0  0
 26 25  2  0  0  0  0
 26 27  1  0  0  0  0
 27 22  2  0  0  0  0
 29  3  1  0  0  0  0
 30  4  1  0  0  0  0
 35 18  1  0  0  0  0
 37 20  1  0  0  0  0
 40 25  1  0  0  0  0
 41 26  1  0  0  0  0
 42 27  1  0  0  0  0
 43 28  1  0  0  0  0
M  END
>  <Pose>
1

>  <Score>
-5.14

$$$$
