
 OpenBabel03232221553D

 53 56  0  0  1  0  0  0  0  0999 V2000
   -1.4320  -13.4280  -36.4630 Cl  0  0  0  0  0  0  0  0  0  0  0  0
   -0.3510  -14.7630  -36.8790 C   0  0  0  0  0  0  0  0  0  0  0  0
    0.8030  -14.4960  -37.5800 C   0  0  0  0  0  0  0  0  0  0  0  0
    1.6590  -15.5430  -37.9110 C   0  0  0  0  0  0  0  0  0  0  0  0
    1.3680  -16.8310  -37.5490 C   0  0  0  0  0  0  0  0  0  0  0  0
    0.2060  -17.0670  -36.8480 C   0  0  0  0  0  0  0  0  0  0  0  0
   -0.6670  -16.0510  -36.5030 C   0  0  0  0  0  0  0  0  0  0  0  0
    2.2610  -17.9460  -37.8920 N   0  0  0  0  0  0  0  0  0  0  0  0
    2.3040  -18.4220  -39.2280 C   0  0  2  0  0  0  0  0  0  0  0  0
    3.1350  -19.6000  -39.4280 C   0  0  0  0  0  0  0  0  0  0  0  0
    3.8900  -20.1460  -38.4350 C   0  0  0  0  0  0  0  0  0  0  0  0
    4.6890  -21.2740  -38.7060 C   0  0  0  0  0  0  0  0  0  0  0  0
    4.7470  -21.8640  -39.9430 C   0  0  0  0  0  0  0  0  0  0  0  0
    3.9720  -21.2950  -40.9400 C   0  0  0  0  0  0  0  0  0  0  0  0
    3.2000  -20.2080  -40.6860 C   0  0  0  0  0  0  0  0  0  0  0  0
    3.8850  -19.6250  -37.0960 N   0  0  0  0  0  0  0  0  0  0  0  0
    3.0450  -18.5100  -36.8740 C   0  0  0  0  0  0  0  0  0  0  0  0
    2.9860  -17.9870  -35.7140 O   0  0  0  0  0  0  0  0  0  0  0  0
    2.9180  -17.3490  -39.9660 O   0  0  0  0  0  0  0  0  0  0  0  0
    0.9500  -18.5740  -39.8190 C   0  0  0  0  0  0  0  0  0  0  0  0
    0.4040  -17.6170  -40.3710 O   0  0  0  0  0  0  0  0  0  0  0  0
    0.3270  -19.8320  -39.7240 N   0  0  0  0  0  0  0  0  0  0  0  0
   -0.6530  -20.1490  -38.6840 C   0  0  0  0  0  0  0  0  0  0  0  0
   -1.9740  -20.5200  -39.2390 C   0  0  0  0  0  0  0  0  0  0  0  0
   -2.1810  -21.8730  -39.5830 N   0  0  0  0  0  0  0  0  0  0  0  0
   -1.5960  -22.3710  -40.7590 C   0  0  0  0  0  0  0  0  0  0  0  0
   -1.7310  -23.8970  -40.7630 C   0  0  0  0  0  0  0  0  0  0  0  0
   -2.9360  -24.2800  -40.1480 O   0  0  0  0  0  0  0  0  0  0  0  0
   -2.8900  -24.0730  -38.7720 C   0  0  0  0  0  0  0  0  0  0  0  0
   -2.1240  -22.8050  -38.5090 C   0  0  0  0  0  0  0  0  0  0  0  0
    1.0090  -13.4790  -37.8530 H   0  0  0  0  0  0  0  0  0  0  0  0
    2.5490  -15.3100  -38.4560 H   0  0  0  0  0  0  0  0  0  0  0  0
   -0.0430  -18.0690  -36.5530 H   0  0  0  0  0  0  0  0  0  0  0  0
   -1.5760  -16.2090  -35.9580 H   0  0  0  0  0  0  0  0  0  0  0  0
    5.2680  -21.6720  -37.8930 H   0  0  0  0  0  0  0  0  0  0  0  0
    5.3500  -22.7260  -40.1700 H   0  0  0  0  0  0  0  0  0  0  0  0
    4.0030  -21.7560  -41.9440 H   0  0  0  0  0  0  0  0  0  0  0  0
    2.6050  -19.7770  -41.4650 H   0  0  0  0  0  0  0  0  0  0  0  0
    4.4750  -20.0650  -36.3680 H   0  0  0  0  0  0  0  0  0  0  0  0
    3.9030  -17.4680  -39.9640 H   0  0  0  0  0  0  0  0  0  0  0  0
    0.5320  -20.6190  -40.4000 H   0  0  0  0  0  0  0  0  0  0  0  0
   -0.1830  -20.8900  -38.0340 H   0  0  0  0  0  0  0  0  0  0  0  0
   -0.7700  -19.2180  -38.0910 H   0  0  0  0  0  0  0  0  0  0  0  0
   -2.1310  -19.9060  -40.1690 H   0  0  0  0  0  0  0  0  0  0  0  0
   -2.7830  -20.2010  -38.5500 H   0  0  0  0  0  0  0  0  0  0  0  0
   -1.9610  -21.9300  -41.7050 H   0  0  0  0  0  0  0  0  0  0  0  0
   -0.5020  -22.1690  -40.7350 H   0  0  0  0  0  0  0  0  0  0  0  0
   -1.6800  -24.3160  -41.7700 H   0  0  0  0  0  0  0  0  0  0  0  0
   -0.9260  -24.3750  -40.1570 H   0  0  0  0  0  0  0  0  0  0  0  0
   -2.4490  -24.9280  -38.2230 H   0  0  0  0  0  0  0  0  0  0  0  0
   -3.9160  -23.9470  -38.3910 H   0  0  0  0  0  0  0  0  0  0  0  0
   -2.4200  -22.3250  -37.5530 H   0  0  0  0  0  0  0  0  0  0  0  0
   -1.0480  -23.1130  -38.3790 H   0  0  0  0  0  0  0  0  0  0  0  0
  2  7  1  0  0  0  0
  2  1  1  0  0  0  0
  3  2  2  0  0  0  0
  4  3  1  0  0  0  0
  4  5  2  0  0  0  0
  5  6  1  0  0  0  0
  6 33  1  0  0  0  0
  6  7  2  0  0  0  0
  7 34  1  0  0  0  0
  8  5  1  0  0  0  0
  8 17  1  0  0  0  0
  9 19  1  6  0  0  0
  9  8  1  0  0  0  0
 10  9  1  0  0  0  0
 10 11  1  0  0  0  0
 11 16  1  0  0  0  0
 12 11  2  0  0  0  0
 12 35  1  0  0  0  0
 13 12  1  0  0  0  0
 14 15  1  0  0  0  0
 14 13  2  0  0  0  0
 15 10  2  0  0  0  0
 16 17  1  0  0  0  0
 16 39  1  0  0  0  0
 17 18  2  0  0  0  0
 19 40  1  0  0  0  0
 20 22  1  0  0  0  0
 20  9  1  0  0  0  0
 21 20  2  0  0  0  0
 22 23  1  0  0  0  0
 23 43  1  0  0  0  0
 23 42  1  0  0  0  0
 24 23  1  0  0  0  0
 24 45  1  0  0  0  0
 25 24  1  0  0  0  0
 25 30  1  0  0  0  0
 26 47  1  0  0  0  0
 26 25  1  0  0  0  0
 27 26  1  0  0  0  0
 27 49  1  0  0  0  0
 27 28  1  0  0  0  0
 28 29  1  0  0  0  0
 29 30  1  0  0  0  0
 29 51  1  0  0  0  0
 29 50  1  0  0  0  0
 30 53  1  0  0  0  0
 30 52  1  0  0  0  0
 31  3  1  0  0  0  0
 32  4  1  0  0  0  0
 36 13  1  0  0  0  0
 37 14  1  0  0  0  0
 38 15  1  0  0  0  0
 41 22  1  0  0  0  0
 44 24  1  0  0  0  0
 46 26  1  0  0  0  0
 48 27  1  0  0  0  0
M  END
>  <Pose>
1

>  <Score>
-3.99

$$$$
