
 OpenBabel03232221553D

 52 55  0  0  1  0  0  0  0  0999 V2000
    3.9370  -11.1000  -38.8500 Cl  0  0  0  0  0  0  0  0  0  0  0  0
    2.9100  -12.3540  -38.2050 C   0  0  0  0  0  0  0  0  0  0  0  0
    2.4480  -12.3780  -36.9130 C   0  0  0  0  0  0  0  0  0  0  0  0
    1.6410  -13.3890  -36.4550 C   0  0  0  0  0  0  0  0  0  0  0  0
    1.2520  -14.4460  -37.2870 C   0  0  0  0  0  0  0  0  0  0  0  0
    1.7100  -14.4230  -38.5720 C   0  0  0  0  0  0  0  0  0  0  0  0
    2.5200  -13.4040  -39.0210 C   0  0  0  0  0  0  0  0  0  0  0  0
    0.3960  -15.4780  -36.7460 C   0  0  0  0  0  0  0  0  0  0  0  0
   -0.8640  -15.3910  -36.9240 O   0  0  0  0  0  0  0  0  0  0  0  0
    0.8900  -16.6470  -35.9880 C   0  0  0  0  0  0  0  0  0  0  0  0
    0.9990  -17.7790  -36.9140 N   0  0  0  0  0  0  0  0  0  0  0  0
    0.0890  -18.6180  -37.3760 C   0  0  2  0  0  0  0  0  0  0  0  0
    0.6470  -19.5200  -38.2270 N   0  0  0  0  0  0  0  0  0  0  0  0
    1.9310  -19.2490  -38.3130 C   0  0  0  0  0  0  0  0  0  0  0  0
    2.1530  -18.1390  -37.4720 C   0  0  0  0  0  0  0  0  0  0  0  0
    3.0000  -19.9110  -39.0660 C   0  0  0  0  0  0  0  0  0  0  0  0
    3.0110  -20.1490  -40.4020 C   0  0  0  0  0  0  0  0  0  0  0  0
    4.0300  -20.8480  -41.0480 C   0  0  0  0  0  0  0  0  0  0  0  0
    5.0930  -21.3340  -40.3390 C   0  0  0  0  0  0  0  0  0  0  0  0
    5.1140  -21.1080  -38.9840 C   0  0  0  0  0  0  0  0  0  0  0  0
    4.0980  -20.4170  -38.3610 C   0  0  0  0  0  0  0  0  0  0  0  0
    6.1340  -22.0420  -40.9640 O   0  0  0  0  0  0  0  0  0  0  0  0
    6.2810  -22.1000  -42.3580 C   0  0  0  0  0  0  0  0  0  0  0  0
   -0.0830  -20.5880  -38.8500 C   0  0  0  0  0  0  0  0  0  0  0  0
   -0.9590  -20.0470  -39.9780 C   0  0  0  0  0  0  0  0  0  0  0  0
   -1.4370  -18.6800  -39.4790 C   0  0  0  0  0  0  0  0  0  0  0  0
   -2.2220  -18.8970  -38.2150 C   0  0  0  0  0  0  0  0  0  0  0  0
   -1.3560  -18.5290  -37.0010 C   0  0  0  0  0  0  0  0  0  0  0  0
    2.7290  -11.5760  -36.2390 H   0  0  0  0  0  0  0  0  0  0  0  0
    1.2930  -13.3710  -35.4140 H   0  0  0  0  0  0  0  0  0  0  0  0
    1.4520  -15.2000  -39.2630 H   0  0  0  0  0  0  0  0  0  0  0  0
    2.8640  -13.4250  -40.0570 H   0  0  0  0  0  0  0  0  0  0  0  0
    1.9290  -16.3670  -35.6460 H   0  0  0  0  0  0  0  0  0  0  0  0
    0.2800  -16.8910  -35.1180 H   0  0  0  0  0  0  0  0  0  0  0  0
    3.1300  -17.6710  -37.3270 H   0  0  0  0  0  0  0  0  0  0  0  0
    2.2420  -19.7670  -41.0190 H   0  0  0  0  0  0  0  0  0  0  0  0
    3.9970  -21.0170  -42.1220 H   0  0  0  0  0  0  0  0  0  0  0  0
    5.9550  -21.4930  -38.4290 H   0  0  0  0  0  0  0  0  0  0  0  0
    4.1230  -20.2480  -37.2940 H   0  0  0  0  0  0  0  0  0  0  0  0
    6.7210  -21.1440  -42.7160 H   0  0  0  0  0  0  0  0  0  0  0  0
    6.8850  -22.9850  -42.6730 H   0  0  0  0  0  0  0  0  0  0  0  0
    5.2950  -22.2160  -42.8960 H   0  0  0  0  0  0  0  0  0  0  0  0
    0.4220  -21.5110  -39.0310 H   0  0  0  0  0  0  0  0  0  0  0  0
   -0.8880  -20.8970  -38.0680 H   0  0  0  0  0  0  0  0  0  0  0  0
   -0.3690  -19.9650  -40.8960 H   0  0  0  0  0  0  0  0  0  0  0  0
   -1.8540  -20.6450  -40.1490 H   0  0  0  0  0  0  0  0  0  0  0  0
   -0.5280  -18.0620  -39.2400 H   0  0  0  0  0  0  0  0  0  0  0  0
   -1.9780  -18.1230  -40.2560 H   0  0  0  0  0  0  0  0  0  0  0  0
   -3.1020  -18.2160  -38.2660 H   0  0  0  0  0  0  0  0  0  0  0  0
   -2.6520  -19.9130  -38.1250 H   0  0  0  0  0  0  0  0  0  0  0  0
   -1.4990  -19.2940  -36.1940 H   0  0  0  0  0  0  0  0  0  0  0  0
   -1.6320  -17.5500  -36.5790 H   0  0  0  0  0  0  0  0  0  0  0  0
  1  2  1  0  0  0  0
  2  3  1  0  0  0  0
  3  4  2  0  0  0  0
  3 29  1  0  0  0  0
  4 30  1  0  0  0  0
  5  8  1  0  0  0  0
  5  4  1  0  0  0  0
  6  5  2  0  0  0  0
  7  6  1  0  0  0  0
  7  2  2  0  0  0  0
  8 10  1  0  0  0  0
  9  8  2  0  0  0  0
 10 33  1  0  0  0  0
 10 34  1  0  0  0  0
 11 10  1  0  0  0  0
 12 13  1  6  0  0  0
 12 28  1  0  0  0  0
 12 11  1  0  0  0  0
 14 13  1  0  0  0  0
 14 15  2  0  0  0  0
 15 35  1  0  0  0  0
 15 11  1  0  0  0  0
 16 21  1  0  0  0  0
 16 14  1  0  0  0  0
 17 16  2  0  0  0  0
 18 17  1  0  0  0  0
 18 19  2  0  0  0  0
 19 20  1  0  0  0  0
 20 38  1  0  0  0  0
 20 21  2  0  0  0  0
 21 39  1  0  0  0  0
 22 19  1  0  0  0  0
 23 22  1  0  0  0  0
 24 13  1  0  0  0  0
 24 44  1  0  0  0  0
 25 26  1  0  0  0  0
 25 24  1  0  0  0  0
 26 47  1  0  0  0  0
 26 27  1  0  0  0  0
 27 50  1  0  0  0  0
 27 28  1  0  0  0  0
 28 52  1  0  0  0  0
 28 51  1  0  0  0  0
 31  6  1  0  0  0  0
 32  7  1  0  0  0  0
 36 17  1  0  0  0  0
 37 18  1  0  0  0  0
 40 23  1  0  0  0  0
 41 23  1  0  0  0  0
 42 23  1  0  0  0  0
 43 24  1  0  0  0  0
 45 25  1  0  0  0  0
 46 25  1  0  0  0  0
 48 26  1  0  0  0  0
 49 27  1  0  0  0  0
M  END
>  <Pose>
1

>  <Score>
-4.27

$$$$
