
 OpenBabel03232221553D

 58 61  0  0  1  0  0  0  0  0999 V2000
    0.9640  -16.6300  -35.9200 Cl  0  0  0  0  0  0  0  0  0  0  0  0
    2.0070  -17.6710  -36.9180 C   0  0  0  0  0  0  0  0  0  0  0  0
    1.7480  -17.8400  -38.2580 C   0  0  0  0  0  0  0  0  0  0  0  0
    2.5690  -18.6760  -39.0290 C   0  0  0  0  0  0  0  0  0  0  0  0
    3.6520  -19.3450  -38.4790 C   0  0  0  0  0  0  0  0  0  0  0  0
    3.8880  -19.1590  -37.1550 C   0  0  0  0  0  0  0  0  0  0  0  0
    3.0870  -18.3400  -36.3690 C   0  0  0  0  0  0  0  0  0  0  0  0
    4.4160  -20.2210  -39.3970 C   0  0  1  0  0  0  0  0  0  0  0  0
    3.7270  -21.4710  -39.7500 C   0  0  0  0  0  0  0  0  0  0  0  0
    3.9320  -22.0080  -41.1440 C   0  0  0  0  0  0  0  0  0  0  0  0
    4.9100  -21.3320  -41.9320 N   0  0  0  0  0  0  0  0  0  0  0  0
    4.8020  -19.8600  -41.8890 C   0  0  0  0  0  0  0  0  0  0  0  0
    4.8190  -19.3260  -40.5430 C   0  0  0  0  0  0  0  0  0  0  0  0
    5.7450  -21.9070  -42.9180 C   0  0  0  0  0  0  0  0  0  0  0  0
    5.5060  -21.7670  -44.1150 O   0  0  0  0  0  0  0  0  0  0  0  0
    6.9710  -22.7120  -42.5070 C   0  0  1  0  0  0  0  0  0  0  0  0
    7.2910  -23.6650  -43.5440 N   0  0  0  0  0  0  0  0  0  0  0  0
    8.5210  -24.3040  -43.6940 C   0  0  0  0  0  0  0  0  0  0  0  0
    9.1870  -23.7640  -44.7760 O   0  0  0  0  0  0  0  0  0  0  0  0
    9.2850  -25.2860  -43.0830 C   0  0  0  0  0  0  0  0  0  0  0  0
   10.1210  -26.2780  -43.1730 C   0  0  0  0  0  0  0  0  0  0  0  0
   10.5850  -26.9360  -41.9450 N   0  0  0  0  0  0  0  0  0  0  0  0
   11.3980  -28.0520  -41.9440 N   0  0  0  0  0  0  0  0  0  0  0  0
   11.8430  -28.6410  -43.1170 C   0  0  0  0  0  0  0  0  0  0  0  0
   12.5880  -29.6520  -43.1630 O   0  0  0  0  0  0  0  0  0  0  0  0
   11.4260  -28.0470  -44.4100 C   0  0  0  0  0  0  0  0  0  0  0  0
   10.6140  -26.9390  -44.3650 C   0  0  0  0  0  0  0  0  0  0  0  0
   10.1660  -26.4760  -45.6070 C   0  0  0  0  0  0  0  0  0  0  0  0
   10.5400  -27.1020  -46.7880 C   0  0  0  0  0  0  0  0  0  0  0  0
   11.3600  -28.2000  -46.7830 C   0  0  0  0  0  0  0  0  0  0  0  0
   11.8060  -28.6780  -45.5700 C   0  0  0  0  0  0  0  0  0  0  0  0
    7.9760  -22.0620  -41.7200 C   0  0  0  0  0  0  0  0  0  0  0  0
    5.6120  -20.5860  -38.7070 O   0  0  0  0  0  0  0  0  0  0  0  0
    0.9040  -17.3150  -38.7030 H   0  0  0  0  0  0  0  0  0  0  0  0
    2.3330  -18.7660  -40.0780 H   0  0  0  0  0  0  0  0  0  0  0  0
    4.7170  -19.6330  -36.6430 H   0  0  0  0  0  0  0  0  0  0  0  0
    3.2600  -18.1890  -35.3220 H   0  0  0  0  0  0  0  0  0  0  0  0
    2.6190  -21.4620  -39.5670 H   0  0  0  0  0  0  0  0  0  0  0  0
    4.1100  -22.2830  -39.0520 H   0  0  0  0  0  0  0  0  0  0  0  0
    2.9460  -21.8100  -41.7170 H   0  0  0  0  0  0  0  0  0  0  0  0
    3.9950  -23.1110  -41.2020 H   0  0  0  0  0  0  0  0  0  0  0  0
    3.7160  -19.7130  -42.3000 H   0  0  0  0  0  0  0  0  0  0  0  0
    5.4590  -19.3600  -42.5890 H   0  0  0  0  0  0  0  0  0  0  0  0
    5.8040  -18.8750  -40.3110 H   0  0  0  0  0  0  0  0  0  0  0  0
    4.1350  -18.3980  -40.5520 H   0  0  0  0  0  0  0  0  0  0  0  0
    6.4320  -23.4590  -41.7300 H   0  0  0  0  0  0  0  0  0  0  0  0
    6.4670  -23.7660  -44.2280 H   0  0  0  0  0  0  0  0  0  0  0  0
    9.0960  -25.1860  -41.8880 H   0  0  0  0  0  0  0  0  0  0  0  0
   10.2520  -26.5000  -41.0420 H   0  0  0  0  0  0  0  0  0  0  0  0
   11.6940  -28.4730  -41.0200 H   0  0  0  0  0  0  0  0  0  0  0  0
    9.5040  -25.6780  -45.6310 H   0  0  0  0  0  0  0  0  0  0  0  0
   10.1750  -26.7050  -47.7510 H   0  0  0  0  0  0  0  0  0  0  0  0
   11.6070  -28.6440  -47.7310 H   0  0  0  0  0  0  0  0  0  0  0  0
   12.4510  -29.5440  -45.5100 H   0  0  0  0  0  0  0  0  0  0  0  0
    8.9970  -21.9920  -42.1630 H   0  0  0  0  0  0  0  0  0  0  0  0
    8.1700  -22.5800  -40.7160 H   0  0  0  0  0  0  0  0  0  0  0  0
    7.6520  -21.0400  -41.3660 H   0  0  0  0  0  0  0  0  0  0  0  0
    6.3420  -19.9790  -38.9160 H   0  0  0  0  0  0  0  0  0  0  0  0
  2  7  1  0  0  0  0
  2  1  1  0  0  0  0
  3  2  2  0  0  0  0
  4  5  2  0  0  0  0
  4  3  1  0  0  0  0
  5  6  1  0  0  0  0
  6 36  1  0  0  0  0
  6  7  2  0  0  0  0
  7 37  1  0  0  0  0
  8 33  1  1  0  0  0
  8  5  1  0  0  0  0
  9 38  1  0  0  0  0
  9  8  1  0  0  0  0
  9 39  1  0  0  0  0
 10  9  1  0  0  0  0
 11 12  1  0  0  0  0
 11 10  1  0  0  0  0
 12 13  1  0  0  0  0
 13 44  1  0  0  0  0
 13  8  1  0  0  0  0
 14 16  1  0  0  0  0
 14 11  1  0  0  0  0
 15 14  2  0  0  0  0
 16 46  1  1  0  0  0
 16 32  1  0  0  0  0
 17 16  1  0  0  0  0
 18 17  1  0  0  0  0
 18 20  1  0  0  0  0
 19 18  2  0  0  0  0
 20 48  1  0  0  0  0
 21 20  2  0  0  0  0
 21 22  1  0  0  0  0
 22 23  1  0  0  0  0
 22 49  1  0  0  0  0
 23 50  1  0  0  0  0
 24 23  1  0  0  0  0
 25 24  2  0  0  0  0
 26 27  1  0  0  0  0
 26 24  1  0  0  0  0
 27 21  1  0  0  0  0
 28 27  2  0  0  0  0
 29 30  2  0  0  0  0
 29 28  1  0  0  0  0
 30 31  1  0  0  0  0
 31 54  1  0  0  0  0
 31 26  2  0  0  0  0
 32 57  1  0  0  0  0
 32 56  1  0  0  0  0
 34  3  1  0  0  0  0
 35  4  1  0  0  0  0
 40 10  1  0  0  0  0
 41 10  1  0  0  0  0
 42 12  1  0  0  0  0
 43 12  1  0  0  0  0
 45 13  1  0  0  0  0
 47 17  1  0  0  0  0
 51 28  1  0  0  0  0
 52 29  1  0  0  0  0
 53 30  1  0  0  0  0
 55 32  1  0  0  0  0
 58 33  1  0  0  0  0
M  END
>  <Pose>
1

>  <Score>
-5.19

$$$$
