
 OpenBabel03232221553D

 48 51  0  0  1  0  0  0  0  0999 V2000
    2.4450  -20.8580  -40.5410 Cl  0  0  0  0  0  0  0  0  0  0  0  0
    2.1630  -19.8960  -39.0930 C   0  0  0  0  0  0  0  0  0  0  0  0
    3.2360  -19.6530  -38.2680 C   0  0  0  0  0  0  0  0  0  0  0  0
    2.9800  -18.8950  -37.1370 C   0  0  0  0  0  0  0  0  0  0  0  0
    1.7380  -18.4410  -36.8960 N   0  0  0  0  0  0  0  0  0  0  0  0
    0.6970  -18.6680  -37.6810 N   0  0  0  0  0  0  0  0  0  0  0  0
    0.9110  -19.4010  -38.7870 C   0  0  0  0  0  0  0  0  0  0  0  0
   -0.0360  -19.6580  -39.5850 O   0  0  0  0  0  0  0  0  0  0  0  0
   -0.6060  -18.1550  -37.3680 C   0  0  0  0  0  0  0  0  0  0  0  0
   -0.8680  -16.8050  -37.4810 C   0  0  0  0  0  0  0  0  0  0  0  0
   -2.1330  -16.2920  -37.1810 C   0  0  0  0  0  0  0  0  0  0  0  0
   -3.1380  -17.1270  -36.7650 C   0  0  0  0  0  0  0  0  0  0  0  0
   -2.8920  -18.4710  -36.6460 C   0  0  0  0  0  0  0  0  0  0  0  0
   -1.6440  -18.9600  -36.9470 C   0  0  0  0  0  0  0  0  0  0  0  0
    4.5070  -20.1690  -38.5980 N   0  0  0  0  0  0  0  0  0  0  0  0
    5.6230  -19.2960  -38.9440 C   0  0  0  0  0  0  0  0  0  0  0  0
    5.8900  -19.5690  -40.4370 C   0  0  0  0  0  0  0  0  0  0  0  0
    6.0570  -20.9700  -40.6640 N   0  0  0  0  0  0  0  0  0  0  0  0
    6.0500  -21.8480  -39.4750 C   0  0  0  0  0  0  0  0  0  0  0  0
    4.8240  -21.5850  -38.6240 C   0  0  0  0  0  0  0  0  0  0  0  0
    6.2290  -21.5430  -41.9510 C   0  0  0  0  0  0  0  0  0  0  0  0
    6.0530  -22.7830  -42.1510 O   0  0  0  0  0  0  0  0  0  0  0  0
    6.6200  -20.7530  -43.1310 C   0  0  1  0  0  0  0  0  0  0  0  0
    6.9140  -19.4690  -42.7880 O   0  0  0  0  0  0  0  0  0  0  0  0
    7.8950  -18.9990  -43.6520 C   0  0  0  0  0  0  0  0  0  0  0  0
    8.8250  -20.2010  -43.7210 C   0  0  0  0  0  0  0  0  0  0  0  0
    7.8250  -21.3330  -43.8370 C   0  0  0  0  0  0  0  0  0  0  0  0
    3.8190  -18.6970  -36.4810 H   0  0  0  0  0  0  0  0  0  0  0  0
   -0.1290  -16.0920  -37.8020 H   0  0  0  0  0  0  0  0  0  0  0  0
   -2.3610  -15.2350  -37.2630 H   0  0  0  0  0  0  0  0  0  0  0  0
   -4.1260  -16.7560  -36.5250 H   0  0  0  0  0  0  0  0  0  0  0  0
   -3.6460  -19.1620  -36.3250 H   0  0  0  0  0  0  0  0  0  0  0  0
   -1.4560  -20.0120  -36.8520 H   0  0  0  0  0  0  0  0  0  0  0  0
    6.5140  -19.6070  -38.3760 H   0  0  0  0  0  0  0  0  0  0  0  0
    5.3810  -18.2390  -38.8650 H   0  0  0  0  0  0  0  0  0  0  0  0
    4.9510  -19.2340  -40.9340 H   0  0  0  0  0  0  0  0  0  0  0  0
    6.7390  -18.9330  -40.7600 H   0  0  0  0  0  0  0  0  0  0  0  0
    6.9330  -21.5430  -38.8810 H   0  0  0  0  0  0  0  0  0  0  0  0
    6.1350  -22.8900  -39.7790 H   0  0  0  0  0  0  0  0  0  0  0  0
    5.0300  -21.9530  -37.5930 H   0  0  0  0  0  0  0  0  0  0  0  0
    3.9850  -22.1950  -39.0130 H   0  0  0  0  0  0  0  0  0  0  0  0
    5.7690  -20.8400  -43.8470 H   0  0  0  0  0  0  0  0  0  0  0  0
    7.4940  -18.7380  -44.6480 H   0  0  0  0  0  0  0  0  0  0  0  0
    8.4340  -18.1400  -43.2330 H   0  0  0  0  0  0  0  0  0  0  0  0
    9.3550  -20.3070  -42.7650 H   0  0  0  0  0  0  0  0  0  0  0  0
    9.4870  -20.1420  -44.6030 H   0  0  0  0  0  0  0  0  0  0  0  0
    8.1950  -22.2650  -43.3670 H   0  0  0  0  0  0  0  0  0  0  0  0
    7.6310  -21.4610  -44.9200 H   0  0  0  0  0  0  0  0  0  0  0  0
  1  2  1  0  0  0  0
  2  7  1  0  0  0  0
  2  3  2  0  0  0  0
  3  4  1  0  0  0  0
  4  5  2  0  0  0  0
  4 28  1  0  0  0  0
  6  9  1  0  0  0  0
  6  5  1  0  0  0  0
  7  6  1  0  0  0  0
  8  7  2  0  0  0  0
  9 14  1  0  0  0  0
 10  9  2  0  0  0  0
 10 11  1  0  0  0  0
 11 12  2  0  0  0  0
 12 13  1  0  0  0  0
 12 31  1  0  0  0  0
 13 32  1  0  0  0  0
 14 33  1  0  0  0  0
 14 13  2  0  0  0  0
 15  3  1  0  0  0  0
 16 35  1  0  0  0  0
 16 15  1  0  0  0  0
 16 34  1  0  0  0  0
 17 16  1  0  0  0  0
 18 17  1  0  0  0  0
 18 19  1  0  0  0  0
 19 38  1  0  0  0  0
 19 20  1  0  0  0  0
 20 15  1  0  0  0  0
 20 40  1  0  0  0  0
 21 18  1  0  0  0  0
 22 21  2  0  0  0  0
 23 42  1  6  0  0  0
 23 24  1  0  0  0  0
 23 21  1  0  0  0  0
 25 44  1  0  0  0  0
 25 24  1  0  0  0  0
 26 25  1  0  0  0  0
 26 45  1  0  0  0  0
 27 26  1  0  0  0  0
 27 47  1  0  0  0  0
 27 23  1  0  0  0  0
 29 10  1  0  0  0  0
 30 11  1  0  0  0  0
 36 17  1  0  0  0  0
 37 17  1  0  0  0  0
 39 19  1  0  0  0  0
 41 20  1  0  0  0  0
 43 25  1  0  0  0  0
 46 26  1  0  0  0  0
 48 27  1  0  0  0  0
M  END
>  <Pose>
1

>  <Score>
-4.07

$$$$
