
 OpenBabel03232221553D

 39 42  0  0  0  0  0  0  0  0999 V2000
   -2.2560  -17.4930  -37.2950 B   0  0  0  0  0  0  0  0  0  0  0  0
   -0.7390  -18.5280  -37.8080 C   0  0  0  0  0  0  0  0  0  0  0  0
    0.4850  -18.1660  -37.3150 C   0  0  0  0  0  0  0  0  0  0  0  0
    1.5720  -18.8850  -37.6650 N   0  0  0  0  0  0  0  0  0  0  0  0
    1.4640  -19.9420  -38.4840 C   0  0  0  0  0  0  0  0  0  0  0  0
    2.5640  -20.6690  -38.8380 N   0  0  0  0  0  0  0  0  0  0  0  0
    3.7860  -20.3470  -38.3760 C   0  0  0  0  0  0  0  0  0  0  0  0
    3.8740  -19.2630  -37.5390 C   0  0  0  0  0  0  0  0  0  0  0  0
    2.7840  -18.5090  -37.1630 C   0  0  0  0  0  0  0  0  0  0  0  0
    2.8390  -17.5260  -36.4080 O   0  0  0  0  0  0  0  0  0  0  0  0
    4.9590  -21.1870  -38.7900 C   0  0  0  0  0  0  0  0  0  0  0  0
    5.5730  -20.7090  -40.0130 N   0  0  0  0  0  0  0  0  0  0  0  0
    5.4340  -21.1330  -41.2780 C   0  0  0  0  0  0  0  0  0  0  0  0
    6.2380  -20.3960  -42.1400 C   0  0  0  0  0  0  0  0  0  0  0  0
    6.8760  -19.5030  -41.3470 N   0  0  0  0  0  0  0  0  0  0  0  0
    6.4830  -19.6850  -40.0840 C   0  0  0  0  0  0  0  0  0  0  0  0
    6.2930  -20.6070  -43.4710 N   0  0  0  0  0  0  0  0  0  0  0  0
    5.5100  -21.5910  -43.9520 C   0  0  0  0  0  0  0  0  0  0  0  0
    5.5490  -21.8020  -45.1950 O   0  0  0  0  0  0  0  0  0  0  0  0
    4.7150  -22.3310  -43.1640 N   0  0  0  0  0  0  0  0  0  0  0  0
    4.6590  -22.1230  -41.8320 C   0  0  0  0  0  0  0  0  0  0  0  0
    3.9250  -22.7980  -41.0840 O   0  0  0  0  0  0  0  0  0  0  0  0
    3.8720  -23.3920  -43.6860 C   0  0  0  0  0  0  0  0  0  0  0  0
    7.1550  -19.8030  -44.3160 C   0  0  0  0  0  0  0  0  0  0  0  0
    0.2280  -20.3150  -38.9880 C   0  0  0  0  0  0  0  0  0  0  0  0
   -0.8960  -19.6040  -38.6510 C   0  0  0  0  0  0  0  0  0  0  0  0
    0.6050  -17.3030  -36.6390 H   0  0  0  0  0  0  0  0  0  0  0  0
    4.8400  -18.9850  -37.1460 H   0  0  0  0  0  0  0  0  0  0  0  0
    5.6790  -21.2360  -37.9560 H   0  0  0  0  0  0  0  0  0  0  0  0
    4.5730  -22.2080  -38.9780 H   0  0  0  0  0  0  0  0  0  0  0  0
    6.8040  -19.1350  -39.2050 H   0  0  0  0  0  0  0  0  0  0  0  0
    3.6610  -24.1590  -42.9170 H   0  0  0  0  0  0  0  0  0  0  0  0
    2.9450  -22.9070  -44.0690 H   0  0  0  0  0  0  0  0  0  0  0  0
    4.3800  -23.8740  -44.5640 H   0  0  0  0  0  0  0  0  0  0  0  0
    6.5750  -19.0110  -44.8350 H   0  0  0  0  0  0  0  0  0  0  0  0
    7.6600  -20.4940  -45.0370 H   0  0  0  0  0  0  0  0  0  0  0  0
    7.9770  -19.3650  -43.7030 H   0  0  0  0  0  0  0  0  0  0  0  0
    0.1750  -21.1800  -39.6530 H   0  0  0  0  0  0  0  0  0  0  0  0
   -1.8780  -19.8930  -39.0460 H   0  0  0  0  0  0  0  0  0  0  0  0
  2  3  1  0  0  0  0
  2  1  1  0  0  0  0
  3 27  1  0  0  0  0
  4  3  1  0  0  0  0
  4  9  1  0  0  0  0
  5  4  1  0  0  0  0
  6  5  1  0  0  0  0
  6  7  2  0  0  0  0
  7  8  1  0  0  0  0
  8  9  1  0  0  0  0
  8 28  1  0  0  0  0
  9 10  2  0  0  0  0
 11  7  1  0  0  0  0
 11 29  1  0  0  0  0
 12 11  1  0  0  0  0
 13 12  1  0  0  0  0
 14 15  1  0  0  0  0
 14 13  2  0  0  0  0
 15 16  2  0  0  0  0
 16 12  1  0  0  0  0
 16 31  1  0  0  0  0
 17 14  1  0  0  0  0
 18 17  1  0  0  0  0
 18 20  1  0  0  0  0
 19 18  2  0  0  0  0
 20 21  1  0  0  0  0
 21 13  1  0  0  0  0
 21 22  2  0  0  0  0
 23 20  1  0  0  0  0
 23 32  1  0  0  0  0
 24 37  1  0  0  0  0
 24 17  1  0  0  0  0
 25 26  1  0  0  0  0
 25  5  2  0  0  0  0
 26  2  2  0  0  0  0
 30 11  1  0  0  0  0
 33 23  1  0  0  0  0
 34 23  1  0  0  0  0
 35 24  1  0  0  0  0
 36 24  1  0  0  0  0
 38 25  1  0  0  0  0
 39 26  1  0  0  0  0
M  END
>  <Pose>
1

>  <Score>
-3.88

$$$$
