
 OpenBabel03232221553D

 53 56  0  0  1  0  0  0  0  0999 V2000
   11.2530  -25.2090  -46.0950 Cl  0  0  0  0  0  0  0  0  0  0  0  0
   11.4710  -26.5150  -44.9350 C   0  0  0  0  0  0  0  0  0  0  0  0
   10.8440  -26.3970  -43.7180 C   0  0  0  0  0  0  0  0  0  0  0  0
   10.9340  -27.4620  -42.8520 C   0  0  0  0  0  0  0  0  0  0  0  0
   10.3070  -27.0520  -41.7290 N   0  0  0  0  0  0  0  0  0  0  0  0
    9.8820  -25.8260  -41.8850 N   0  0  0  0  0  0  0  0  0  0  0  0
   10.1880  -25.3330  -43.1400 C   0  0  0  0  0  0  0  0  0  0  0  0
    9.7530  -24.0760  -43.6950 C   0  0  0  0  0  0  0  0  0  0  0  0
    8.6390  -24.1210  -44.6560 N   0  0  0  0  0  0  0  0  0  0  0  0
    7.7360  -23.0070  -44.2840 C   0  0  0  0  0  0  0  0  0  0  0  0
    6.7630  -23.6610  -43.4130 C   0  0  2  0  0  0  0  0  0  0  0  0
    6.3500  -24.8370  -44.2830 C   0  0  2  0  0  0  0  0  0  0  0  0
    7.8250  -25.2590  -44.6910 C   0  0  0  0  0  0  0  0  0  0  0  0
    5.7440  -24.3780  -45.5780 C   0  0  0  0  0  0  0  0  0  0  0  0
    4.4310  -24.9050  -45.6910 O   0  0  0  0  0  0  0  0  0  0  0  0
    5.5560  -22.8370  -43.0390 C   0  0  0  0  0  0  0  0  0  0  0  0
    5.7720  -22.2840  -41.7390 N   0  0  0  0  0  0  0  0  0  0  0  0
    6.2840  -20.9310  -41.7770 C   0  0  0  0  0  0  0  0  0  0  0  0
    5.4050  -19.9300  -41.0630 C   0  0  0  0  0  0  0  0  0  0  0  0
    5.1060  -20.2740  -39.7640 O   0  0  0  0  0  0  0  0  0  0  0  0
    4.9420  -21.6450  -39.5920 C   0  0  0  0  0  0  0  0  0  0  0  0
    4.5900  -22.2720  -40.9070 C   0  0  0  0  0  0  0  0  0  0  0  0
   10.0460  -27.9180  -40.5660 C   0  0  0  0  0  0  0  0  0  0  0  0
   11.6190  -28.6000  -43.1520 C   0  0  0  0  0  0  0  0  0  0  0  0
   12.2560  -28.7010  -44.3930 C   0  0  0  0  0  0  0  0  0  0  0  0
   12.1750  -27.6360  -45.2850 C   0  0  0  0  0  0  0  0  0  0  0  0
    9.6810  -23.1850  -43.1260 H   0  0  0  0  0  0  0  0  0  0  0  0
   10.6120  -23.8020  -44.4560 H   0  0  0  0  0  0  0  0  0  0  0  0
    8.2490  -22.1120  -43.9470 H   0  0  0  0  0  0  0  0  0  0  0  0
    7.2520  -22.6870  -45.2520 H   0  0  0  0  0  0  0  0  0  0  0  0
    7.1470  -24.0930  -42.5010 H   0  0  0  0  0  0  0  0  0  0  0  0
    5.8730  -25.6250  -43.7410 H   0  0  0  0  0  0  0  0  0  0  0  0
    8.0180  -26.1010  -44.0760 H   0  0  0  0  0  0  0  0  0  0  0  0
    7.6960  -25.6450  -45.7610 H   0  0  0  0  0  0  0  0  0  0  0  0
    6.2820  -24.9350  -46.4420 H   0  0  0  0  0  0  0  0  0  0  0  0
    5.7670  -23.3560  -45.8480 H   0  0  0  0  0  0  0  0  0  0  0  0
    4.4770  -25.8400  -45.2530 H   0  0  0  0  0  0  0  0  0  0  0  0
    5.5140  -22.0120  -43.7620 H   0  0  0  0  0  0  0  0  0  0  0  0
    4.6250  -23.4140  -43.1070 H   0  0  0  0  0  0  0  0  0  0  0  0
    7.2950  -20.9310  -41.3490 H   0  0  0  0  0  0  0  0  0  0  0  0
    6.3670  -20.5620  -42.8400 H   0  0  0  0  0  0  0  0  0  0  0  0
    4.5370  -19.7260  -41.6930 H   0  0  0  0  0  0  0  0  0  0  0  0
    6.0170  -18.9920  -41.0110 H   0  0  0  0  0  0  0  0  0  0  0  0
    5.8960  -22.0400  -39.2070 H   0  0  0  0  0  0  0  0  0  0  0  0
    4.1190  -21.8020  -38.8460 H   0  0  0  0  0  0  0  0  0  0  0  0
    4.1970  -23.3010  -40.7700 H   0  0  0  0  0  0  0  0  0  0  0  0
    3.8550  -21.6240  -41.4220 H   0  0  0  0  0  0  0  0  0  0  0  0
    9.5800  -28.8870  -40.9670 H   0  0  0  0  0  0  0  0  0  0  0  0
    9.2330  -27.5090  -39.9440 H   0  0  0  0  0  0  0  0  0  0  0  0
   10.9650  -28.2030  -40.1120 H   0  0  0  0  0  0  0  0  0  0  0  0
   11.7980  -29.4220  -42.4230 H   0  0  0  0  0  0  0  0  0  0  0  0
   12.8400  -29.5390  -44.6590 H   0  0  0  0  0  0  0  0  0  0  0  0
   12.6270  -27.6540  -46.2480 H   0  0  0  0  0  0  0  0  0  0  0  0
  1  2  1  0  0  0  0
  2  3  1  0  0  0  0
  3  7  1  0  0  0  0
  3  4  2  0  0  0  0
  4  5  1  0  0  0  0
  5 23  1  0  0  0  0
  6  5  1  0  0  0  0
  7  6  2  0  0  0  0
  8  7  1  0  0  0  0
  8 27  1  0  0  0  0
  9 10  1  0  0  0  0
  9  8  1  0  0  0  0
 10 29  1  0  0  0  0
 10 11  1  0  0  0  0
 11 16  1  0  0  0  0
 11 31  1  1  0  0  0
 12 32  1  1  0  0  0
 12 11  1  0  0  0  0
 13  9  1  0  0  0  0
 13 12  1  0  0  0  0
 13 33  1  0  0  0  0
 14 12  1  0  0  0  0
 15 14  1  0  0  0  0
 15 37  1  0  0  0  0
 16 17  1  0  0  0  0
 17 22  1  0  0  0  0
 18 17  1  0  0  0  0
 18 40  1  0  0  0  0
 18 19  1  0  0  0  0
 19 43  1  0  0  0  0
 19 20  1  0  0  0  0
 20 21  1  0  0  0  0
 21 44  1  0  0  0  0
 21 45  1  0  0  0  0
 22 46  1  0  0  0  0
 22 21  1  0  0  0  0
 23 50  1  0  0  0  0
 23 49  1  0  0  0  0
 24  4  1  0  0  0  0
 24 51  1  0  0  0  0
 25 24  2  0  0  0  0
 26  2  2  0  0  0  0
 26 25  1  0  0  0  0
 28  8  1  0  0  0  0
 30 10  1  0  0  0  0
 34 13  1  0  0  0  0
 35 14  1  0  0  0  0
 36 14  1  0  0  0  0
 38 16  1  0  0  0  0
 39 16  1  0  0  0  0
 41 18  1  0  0  0  0
 42 19  1  0  0  0  0
 47 22  1  0  0  0  0
 48 23  1  0  0  0  0
 52 25  1  0  0  0  0
 53 26  1  0  0  0  0
M  END
>  <Pose>
1

>  <Score>
-3.42

$$$$
