
 OpenBabel03232221553D

 58 62  0  0  1  0  0  0  0  0999 V2000
   -0.3730  -18.6070  -37.8740 B   0  0  0  0  0  0  0  0  0  0  0  0
    0.9710  -19.5670  -38.8660 C   0  0  0  0  0  0  0  0  0  0  0  0
    0.7120  -20.0930  -40.0940 C   0  0  0  0  0  0  0  0  0  0  0  0
    1.6690  -20.7730  -40.7920 C   0  0  0  0  0  0  0  0  0  0  0  0
    2.9420  -20.9630  -40.2960 C   0  0  0  0  0  0  0  0  0  0  0  0
    3.2010  -20.4410  -39.0750 C   0  0  0  0  0  0  0  0  0  0  0  0
    2.2210  -19.7340  -38.3370 C   0  0  0  0  0  0  0  0  0  0  0  0
    3.8940  -21.7050  -41.0950 C   0  0  0  0  0  0  0  0  0  0  0  0
    3.5380  -22.8380  -41.8450 C   0  0  0  0  0  0  0  0  0  0  0  0
    4.6400  -23.2490  -42.4590 N   0  0  0  0  0  0  0  0  0  0  0  0
    5.0400  -24.2360  -43.3190 C   0  0  0  0  0  0  0  0  0  0  0  0
    6.3770  -24.0120  -43.5290 C   0  0  0  0  0  0  0  0  0  0  0  0
    6.7160  -22.9470  -42.8200 N   0  0  0  0  0  0  0  0  0  0  0  0
    5.6380  -22.4580  -42.1430 C   0  0  1  0  0  0  0  0  0  0  0  0
    5.1990  -21.4850  -41.2910 N   0  0  0  0  0  0  0  0  0  0  0  0
    6.0820  -20.4730  -40.7990 C   0  0  0  0  0  0  0  0  0  0  0  0
    5.8070  -19.0790  -41.1950 C   0  0  0  0  0  0  0  0  0  0  0  0
    6.5480  -18.5010  -42.3460 C   0  0  0  0  0  0  0  0  0  0  0  0
    7.9450  -18.8750  -42.3360 N   0  0  0  0  0  4  0  0  0  0  0  0
    8.2890  -19.8070  -43.3680 C   0  0  0  0  0  0  0  0  0  0  0  0
    7.5850  -19.5940  -44.6780 C   0  0  0  0  0  0  0  0  0  0  0  0
    7.6990  -20.9210  -45.4440 C   0  0  0  0  0  0  0  0  0  0  0  0
    9.1410  -21.2010  -45.6930 C   0  0  0  0  0  0  0  0  0  0  0  0
    9.9950  -21.1560  -44.4480 C   0  0  0  0  0  0  0  0  0  0  0  0
    9.7770  -19.8390  -43.6930 C   0  0  0  0  0  0  0  0  0  0  0  0
    7.1300  -24.8380  -44.3690 C   0  0  0  0  0  0  0  0  0  0  0  0
    6.5240  -25.9030  -45.0010 C   0  0  0  0  0  0  0  0  0  0  0  0
    5.1820  -26.1060  -44.7720 C   0  0  0  0  0  0  0  0  0  0  0  0
    4.4260  -25.2880  -43.9400 C   0  0  0  0  0  0  0  0  0  0  0  0
   -0.2900  -19.9670  -40.5320 H   0  0  0  0  0  0  0  0  0  0  0  0
    1.3920  -21.1730  -41.7890 H   0  0  0  0  0  0  0  0  0  0  0  0
    4.1190  -20.5070  -38.5620 H   0  0  0  0  0  0  0  0  0  0  0  0
    2.4350  -19.3220  -37.3670 H   0  0  0  0  0  0  0  0  0  0  0  0
    2.5540  -23.2940  -41.9120 H   0  0  0  0  0  0  0  0  0  0  0  0
    7.6780  -22.5570  -42.8130 H   0  0  0  0  0  0  0  0  0  0  0  0
    7.1290  -20.7410  -40.9130 H   0  0  0  0  0  0  0  0  0  0  0  0
    5.9310  -20.4620  -39.6430 H   0  0  0  0  0  0  0  0  0  0  0  0
    4.7130  -19.0770  -41.5240 H   0  0  0  0  0  0  0  0  0  0  0  0
    5.7650  -18.3480  -40.3290 H   0  0  0  0  0  0  0  0  0  0  0  0
    6.5100  -17.3930  -42.3920 H   0  0  0  0  0  0  0  0  0  0  0  0
    6.1120  -18.9690  -43.2730 H   0  0  0  0  0  0  0  0  0  0  0  0
    8.6180  -18.1170  -42.2590 H   0  0  0  0  0  0  0  0  0  0  0  0
    8.0800  -19.4270  -41.4110 H   0  0  0  0  0  0  0  0  0  0  0  0
    8.0570  -20.8690  -43.0520 H   0  0  0  0  0  0  0  0  0  0  0  0
    6.5450  -19.2800  -44.5890 H   0  0  0  0  0  0  0  0  0  0  0  0
    8.1830  -18.8620  -45.2920 H   0  0  0  0  0  0  0  0  0  0  0  0
    7.2240  -21.7290  -44.8320 H   0  0  0  0  0  0  0  0  0  0  0  0
    7.1950  -20.8170  -46.4200 H   0  0  0  0  0  0  0  0  0  0  0  0
    9.2270  -22.2270  -46.1060 H   0  0  0  0  0  0  0  0  0  0  0  0
    9.5250  -20.4870  -46.4450 H   0  0  0  0  0  0  0  0  0  0  0  0
   11.0470  -21.2020  -44.7720 H   0  0  0  0  0  0  0  0  0  0  0  0
    9.7110  -21.9870  -43.8010 H   0  0  0  0  0  0  0  0  0  0  0  0
   10.0400  -18.9940  -44.3780 H   0  0  0  0  0  0  0  0  0  0  0  0
   10.3420  -19.8700  -42.7630 H   0  0  0  0  0  0  0  0  0  0  0  0
    8.1790  -24.6710  -44.5400 H   0  0  0  0  0  0  0  0  0  0  0  0
    7.0830  -26.5740  -45.6680 H   0  0  0  0  0  0  0  0  0  0  0  0
    4.7100  -26.9350  -45.2650 H   0  0  0  0  0  0  0  0  0  0  0  0
    3.3820  -25.4480  -43.7640 H   0  0  0  0  0  0  0  0  0  0  0  0
  2  7  1  0  0  0  0
  2  1  1  0  0  0  0
  3  2  2  0  0  0  0
  4  5  2  0  0  0  0
  4  3  1  0  0  0  0
  5  6  1  0  0  0  0
  6 32  1  0  0  0  0
  6  7  2  0  0  0  0
  7 33  1  0  0  0  0
  8  5  1  0  0  0  0
  9  8  2  0  0  0  0
 10 14  1  0  0  0  0
 10  9  1  0  0  0  0
 11 10  1  0  0  0  0
 12 11  1  0  0  0  0
 12 13  1  0  0  0  0
 13 35  1  0  0  0  0
 14 13  1  6  0  0  0
 14 15  1  0  0  0  0
 15  8  1  0  0  0  0
 15 16  1  0  0  0  0
 16 37  1  0  0  0  0
 17 16  1  0  0  0  0
 17 39  1  0  0  0  0
 18 19  1  0  0  0  0
 18 17  1  0  0  0  0
 19 42  1  0  0  0  0
 19 43  1  0  0  0  0
 20 44  1  0  0  0  0
 20 19  1  0  0  0  0
 21 45  1  0  0  0  0
 21 20  1  0  0  0  0
 22 47  1  0  0  0  0
 22 21  1  0  0  0  0
 23 22  1  0  0  0  0
 23 24  1  0  0  0  0
 24 52  1  0  0  0  0
 24 25  1  0  0  0  0
 25 20  1  0  0  0  0
 25 54  1  0  0  0  0
 26 12  2  0  0  0  0
 27 28  2  0  0  0  0
 27 26  1  0  0  0  0
 28 29  1  0  0  0  0
 29 58  1  0  0  0  0
 29 11  2  0  0  0  0
 30  3  1  0  0  0  0
 31  4  1  0  0  0  0
 34  9  1  0  0  0  0
 36 16  1  0  0  0  0
 38 17  1  0  0  0  0
 40 18  1  0  0  0  0
 41 18  1  0  0  0  0
 46 21  1  0  0  0  0
 48 22  1  0  0  0  0
 49 23  1  0  0  0  0
 50 23  1  0  0  0  0
 51 24  1  0  0  0  0
 53 25  1  0  0  0  0
 55 26  1  0  0  0  0
 56 27  1  0  0  0  0
 57 28  1  0  0  0  0
M  END
>  <Pose>
1

>  <Score>
-3.92

$$$$
