
 OpenBabel03232221553D

 40 43  0  0  1  0  0  0  0  0999 V2000
    1.8900  -13.0870  -36.4200 Cl  0  0  0  0  0  0  0  0  0  0  0  0
    0.3580  -13.9070  -36.6310 C   0  0  0  0  0  0  0  0  0  0  0  0
    0.1330  -15.2240  -36.8950 N   0  0  0  0  0  0  0  0  0  0  0  0
   -1.1700  -15.4950  -36.9930 C   0  0  0  0  0  0  0  0  0  0  0  0
   -1.7880  -14.2580  -36.7730 C   0  0  0  0  0  0  0  0  0  0  0  0
   -0.8530  -13.2750  -36.5500 C   0  0  0  0  0  0  0  0  0  0  0  0
   -1.1270  -11.5760  -36.2290 Cl  0  0  0  0  0  0  0  0  0  0  0  0
   -1.8620  -16.7270  -37.2730 C   0  0  0  0  0  0  0  0  0  0  0  0
   -2.8870  -16.9190  -36.4630 O   0  0  0  0  0  0  0  0  0  0  0  0
   -1.6230  -17.7020  -38.2280 N   0  0  0  0  0  0  0  0  0  0  0  0
   -1.8790  -19.1140  -37.8530 C   0  0  0  0  0  0  0  0  0  0  0  0
   -0.5560  -19.8220  -37.9760 C   0  0  0  0  0  0  0  0  0  0  0  0
    0.4950  -19.0320  -38.5340 N   0  0  0  0  0  0  0  0  0  0  0  0
    0.2950  -17.9880  -39.5290 C   0  0  0  0  0  0  0  0  0  0  0  0
   -1.1660  -17.5670  -39.5610 C   0  0  0  0  0  0  0  0  0  0  0  0
    1.8370  -19.2440  -38.1170 C   0  0  2  0  0  0  0  0  0  0  0  0
    2.3270  -18.6450  -37.0150 N   0  0  0  0  0  0  0  0  0  0  0  0
    3.6030  -18.8350  -36.6050 C   0  0  0  0  0  0  0  0  0  0  0  0
    4.4270  -19.6390  -37.2970 N   0  0  0  0  0  0  0  0  0  0  0  0
    4.0160  -20.2740  -38.4070 C   0  0  0  0  0  0  0  0  0  0  0  0
    4.6270  -21.1140  -39.2620 N   0  0  0  0  0  0  0  0  0  0  0  0
    3.7440  -21.4380  -40.1850 N   0  0  0  0  0  0  0  0  0  0  0  0
    2.5610  -20.8240  -39.9510 C   0  0  0  0  0  0  0  0  0  0  0  0
    2.6940  -20.0670  -38.8170 C   0  0  0  0  0  0  0  0  0  0  0  0
    6.0070  -21.5990  -39.2090 C   0  0  0  0  0  0  0  0  0  0  0  0
    0.9510  -15.8600  -36.9790 H   0  0  0  0  0  0  0  0  0  0  0  0
   -2.8600  -14.0280  -36.7640 H   0  0  0  0  0  0  0  0  0  0  0  0
   -2.3060  -19.1560  -36.8410 H   0  0  0  0  0  0  0  0  0  0  0  0
   -2.6090  -19.5200  -38.5970 H   0  0  0  0  0  0  0  0  0  0  0  0
   -0.3150  -20.2320  -36.9740 H   0  0  0  0  0  0  0  0  0  0  0  0
   -0.7090  -20.7320  -38.6260 H   0  0  0  0  0  0  0  0  0  0  0  0
    0.6170  -18.3430  -40.5120 H   0  0  0  0  0  0  0  0  0  0  0  0
    0.9020  -17.1220  -39.2230 H   0  0  0  0  0  0  0  0  0  0  0  0
   -1.6490  -18.4050  -40.1980 H   0  0  0  0  0  0  0  0  0  0  0  0
   -1.3210  -16.6540  -40.0980 H   0  0  0  0  0  0  0  0  0  0  0  0
    3.9710  -18.3420  -35.7180 H   0  0  0  0  0  0  0  0  0  0  0  0
    1.6820  -20.9150  -40.5430 H   0  0  0  0  0  0  0  0  0  0  0  0
    6.5560  -21.1170  -40.0610 H   0  0  0  0  0  0  0  0  0  0  0  0
    6.0620  -22.6940  -39.2790 H   0  0  0  0  0  0  0  0  0  0  0  0
    6.4940  -21.2860  -38.2800 H   0  0  0  0  0  0  0  0  0  0  0  0
  2  6  2  0  0  0  0
  2  1  1  0  0  0  0
  3  2  1  0  0  0  0
  4  3  1  0  0  0  0
  4  5  2  0  0  0  0
  5 27  1  0  0  0  0
  5  6  1  0  0  0  0
  6  7  1  0  0  0  0
  8  4  1  0  0  0  0
  8  9  2  0  0  0  0
 10 11  1  0  0  0  0
 10  8  1  0  0  0  0
 11 28  1  0  0  0  0
 12 11  1  0  0  0  0
 12 30  1  0  0  0  0
 13 12  1  0  0  0  0
 14 33  1  0  0  0  0
 14 13  1  0  0  0  0
 15 14  1  0  0  0  0
 15 10  1  0  0  0  0
 16 13  1  6  0  0  0
 16 17  1  0  0  0  0
 17 18  2  0  0  0  0
 18 36  1  0  0  0  0
 19 18  1  0  0  0  0
 20 19  1  0  0  0  0
 21 25  1  0  0  0  0
 21 20  1  0  0  0  0
 22 23  2  0  0  0  0
 22 21  1  0  0  0  0
 23 24  1  0  0  0  0
 24 20  2  0  0  0  0
 24 16  1  0  0  0  0
 25 40  1  0  0  0  0
 26  3  1  0  0  0  0
 29 11  1  0  0  0  0
 31 12  1  0  0  0  0
 32 14  1  0  0  0  0
 34 15  1  0  0  0  0
 35 15  1  0  0  0  0
 37 23  1  0  0  0  0
 38 25  1  0  0  0  0
 39 25  1  0  0  0  0
M  END
>  <Pose>
1

>  <Score>
-4.13

$$$$
