MODEL 1
REMARK VINA RESULT:    -7.160      0.000      0.000
REMARK INTER + INTRA:         -10.679
REMARK INTER:                  -9.672
REMARK INTRA:                  -1.007
REMARK UNBOUND:                -1.007
REMARK  7 active torsions:
REMARK  status: ('A' for Active; 'I' for Inactive)
REMARK    1  A    between atoms: C_3  and  O_31 
REMARK    2  A    between atoms: C_6  and  C_9 
REMARK    3  A    between atoms: C_7  and  O_8 
REMARK    4  A    between atoms: N_10  and  N_11 
REMARK    5  A    between atoms: N_11  and  C_12 
REMARK    6  A    between atoms: C_14  and  N_24 
REMARK    7  A    between atoms: C_16  and  N_18 
ROOT
ATOM      1  C   UNK d   1      43.574   9.683  44.051  0.00  0.00     0.774 A 
ATOM      2  N   UNK d   1      43.861  10.971  44.221  0.00  0.00     0.133 NA
ATOM      3  C   UNK d   1      43.306  11.724  45.214  0.00  0.00     0.756 A 
ATOM      4  N   UNK d   1      42.451  11.096  46.017  0.00  0.00     0.131 NA
ATOM      5  C   UNK d   1      42.104   9.793  45.916  0.00  0.00     0.756 A 
ATOM      6  N   UNK d   1      42.705   9.113  44.895  0.00  0.00     0.133 NA
ENDROOT
BRANCH   1   7
ATOM      7  N   UNK d   1      44.174   8.932  43.003  0.00  0.00    -0.105 N 
ATOM      8  H   UNK d   1      44.093   9.162  42.008  0.00  0.00     0.208 HD
BRANCH   7   9
ATOM      9  N   UNK d   1      44.937   7.793  43.327  0.00  0.00    -0.171 NA
ATOM     10  C   UNK d   1      46.170   7.673  43.030  0.00  0.00     0.153 C 
BRANCH  10  11
ATOM     11  C   UNK d   1      46.978   6.508  43.352  0.00  0.00     0.019 A 
ATOM     12  C   UNK d   1      47.781   6.518  44.468  0.00  0.00     0.038 A 
ATOM     13  C   UNK d   1      48.559   5.422  44.797  0.00  0.00     0.046 A 
ATOM     14  C   UNK d   1      48.562   4.284  44.022  0.00  0.00     0.103 A 
ATOM     15 Br   UNK d   1      49.667   5.461  46.359  0.00  0.00    -0.048 Br
ATOM     16  C   UNK d   1      47.759   4.265  42.899  0.00  0.00     0.079 A 
ATOM     17 Br   UNK d   1      47.769   2.682  41.828  0.00  0.00    -0.045 Br
ATOM     18  C   UNK d   1      46.982   5.367  42.577  0.00  0.00     0.097 A 
BRANCH  14  19
ATOM     19  O   UNK d   1      49.339   3.171  44.338  0.00  0.00    -0.358 OA
ATOM     20  H   UNK d   1      50.324   3.287  44.508  0.00  0.00     0.217 HD
ENDBRANCH  14  19
BRANCH  18  21
ATOM     21  O   UNK d   1      46.188   5.335  41.455  0.00  0.00    -0.358 OA
ATOM     22  H   UNK d   1      46.240   4.551  40.799  0.00  0.00     0.217 HD
ENDBRANCH  18  21
ENDBRANCH  10  11
ENDBRANCH   7   9
ENDBRANCH   1   7
BRANCH   3  23
ATOM     23  N   UNK d   1      43.625  13.089  45.377  0.00  0.00    -0.209 N 
ATOM     24  C   UNK d   1      44.893  13.596  44.933  0.00  0.00     0.167 C 
ATOM     25  C   UNK d   1      45.456  14.451  46.057  0.00  0.00     0.188 C 
ATOM     26  O   UNK d   1      44.507  15.328  46.570  0.00  0.00    -0.388 OA
ATOM     27  C   UNK d   1      43.418  14.694  47.124  0.00  0.00     0.188 C 
ATOM     28  C   UNK d   1      42.677  13.976  45.989  0.00  0.00     0.167 C 
ENDBRANCH   3  23
BRANCH   5  29
ATOM     29  N   UNK d   1      41.193   9.171  46.790  0.00  0.00    -0.209 N 
ATOM     30  C   UNK d   1      39.827   9.590  46.844  0.00  0.00     0.167 C 
ATOM     31  C   UNK d   1      39.491   9.846  48.315  0.00  0.00     0.188 C 
ATOM     32  O   UNK d   1      40.589   9.682  49.132  0.00  0.00    -0.388 OA
ATOM     33  C   UNK d   1      41.175   8.443  49.056  0.00  0.00     0.188 C 
ATOM     34  C   UNK d   1      41.626   8.105  47.640  0.00  0.00     0.167 C 
ENDBRANCH   5  29
TORSDOF 7
ENDMDL
