MODEL 1
REMARK VINA RESULT:    -7.734      0.000      0.000
REMARK INTER + INTRA:         -11.182
REMARK INTER:                 -10.221
REMARK INTRA:                  -0.961
REMARK UNBOUND:                -0.961
REMARK  6 active torsions:
REMARK  status: ('A' for Active; 'I' for Inactive)
REMARK    1  A    between atoms: C_4  and  C_9 
REMARK    2  A    between atoms: N_10  and  N_11 
REMARK       I    between atoms: N_11  and  C_12 
REMARK    3  A    between atoms: C_12  and  C_14 
REMARK    4  A    between atoms: C_14  and  N_15 
REMARK    5  A    between atoms: C_19  and  C_20 
REMARK    6  A    between atoms: C_24  and  N_25 
ROOT
ATOM      1  N   UNK d   1      42.508  11.689  44.984  0.00  0.00    -0.319 N 
ATOM      2  C   UNK d   1      43.442  12.659  45.170  0.00  0.00     0.065 A 
ATOM      3  C   UNK d   1      43.066  13.484  46.193  0.00  0.00     0.086 A 
ATOM      4  N   UNK d   1      41.890  12.999  46.625  0.00  0.00    -0.226 NA
ATOM      5  C   UNK d   1      41.545  11.898  45.885  0.00  0.00     0.167 A 
ATOM      6  C   UNK d   1      43.889  14.536  46.535  0.00  0.00     0.034 A 
ATOM      7  C   UNK d   1      45.082  14.779  45.873  0.00  0.00     0.002 A 
ATOM      8  C   UNK d   1      45.436  13.928  44.841  0.00  0.00     0.002 A 
ATOM      9  C   UNK d   1      44.614  12.874  44.498  0.00  0.00     0.032 A 
ENDROOT
BRANCH   1  10
ATOM     10  C   UNK d   1      42.527  10.634  44.020  0.00  0.00     0.235 C 
BRANCH  10  11
ATOM     11  C   UNK d   1      43.378   9.509  44.319  0.00  0.00     0.256 C 
ATOM     12  N   UNK d   1      44.411   9.063  43.459  0.00  0.00    -0.246 N 
ATOM     13  H   UNK d   1      44.551   9.585  42.568  0.00  0.00     0.192 HD
ATOM     14  O   UNK d   1      43.220   8.873  45.388  0.00  0.00    -0.270 OA
BRANCH  12  15
ATOM     15  N   UNK d   1      45.243   7.987  43.720  0.00  0.00    -0.184 NA
ATOM     16  C   UNK d   1      46.183   7.607  42.942  0.00  0.00     0.153 C 
BRANCH  16  17
ATOM     17  C   UNK d   1      46.993   6.465  43.317  0.00  0.00     0.022 A 
ATOM     18  C   UNK d   1      46.980   5.340  42.551  0.00  0.00     0.136 A 
ATOM     19  C   UNK d   1      47.755   4.259  42.917  0.00  0.00     0.049 A 
ATOM     20  O   UNK d   1      46.200   5.270  41.411  0.00  0.00    -0.190 OA
ATOM     21 Br   UNK d   1      47.723   2.701  41.835  0.00  0.00    -0.048 Br
ATOM     22  C   UNK d   1      48.539   4.317  44.056  0.00  0.00     0.041 A 
ATOM     23  C   UNK d   1      48.538   5.461  44.815  0.00  0.00     0.013 A 
ATOM     24  C   UNK d   1      47.777   6.552  44.473  0.00  0.00     0.035 A 
ATOM     25 Br   UNK d   1      49.628   5.527  46.385  0.00  0.00    -0.051 Br
ENDBRANCH  16  17
ENDBRANCH  12  15
ENDBRANCH  10  11
ENDBRANCH   1  10
BRANCH   5  26
ATOM     26  C   UNK d   1      40.325  11.129  46.096  0.00  0.00     0.187 A 
ATOM     27  N   UNK d   1      40.229  10.001  46.811  0.00  0.00    -0.097 NA
ATOM     28  O   UNK d   1      38.976   9.585  46.784  0.00  0.00    -0.104 OA
ATOM     29  N   UNK d   1      38.250  10.395  46.080  0.00  0.00    -0.077 NA
ATOM     30  C   UNK d   1      39.055  11.381  45.628  0.00  0.00     0.285 A 
BRANCH  30  31
ATOM     31  N   UNK d   1      38.670  12.477  44.819  0.00  0.00    -0.028 N 
ATOM     32  H   UNK d   1      38.441  12.201  43.855  0.00  0.00     0.283 HD
ATOM     33  H   UNK d   1      39.517  13.105  44.756  0.00  0.00     0.283 HD
ATOM     34  H   UNK d   1      37.899  13.050  45.251  0.00  0.00     0.283 HD
ENDBRANCH  30  31
ENDBRANCH   5  26
TORSDOF 6
ENDMDL
