MODEL 1
REMARK VINA RESULT:    -7.059      0.000      0.000
REMARK INTER + INTRA:         -12.324
REMARK INTER:                 -10.566
REMARK INTRA:                  -1.757
REMARK UNBOUND:                -1.757
REMARK  9 active torsions:
REMARK  status: ('A' for Active; 'I' for Inactive)
REMARK    1  A    between atoms: C_4  and  O_29 
REMARK    2  A    between atoms: C_6  and  C_8 
REMARK    3  A    between atoms: C_8  and  N_9 
REMARK    4  A    between atoms: N_9  and  N_10 
REMARK       I    between atoms: N_10  and  C_11 
REMARK    5  A    between atoms: C_11  and  C_13 
REMARK    6  A    between atoms: C_13  and  N_14 
REMARK    7  A    between atoms: C_18  and  C_19 
REMARK    8  A    between atoms: C_23  and  N_24 
REMARK    9  A    between atoms: O_29  and  C_30 
ROOT
ATOM      1  N   UNK d   1      42.801   9.203  44.999  0.00  0.00    -0.319 N 
ATOM      2  C   UNK d   1      42.080  10.251  44.448  0.00  0.00     0.065 A 
ATOM      3  C   UNK d   1      42.224  10.171  43.113  0.00  0.00     0.086 A 
ATOM      4  N   UNK d   1      42.993   9.122  42.868  0.00  0.00    -0.226 NA
ATOM      5  C   UNK d   1      43.366   8.502  44.052  0.00  0.00     0.167 A 
ATOM      6  C   UNK d   1      41.628  11.068  42.241  0.00  0.00     0.034 A 
ATOM      7  C   UNK d   1      40.870  12.063  42.809  0.00  0.00     0.002 A 
ATOM      8  C   UNK d   1      40.692  12.194  44.173  0.00  0.00     0.002 A 
ATOM      9  C   UNK d   1      41.313  11.263  45.004  0.00  0.00     0.032 A 
ENDROOT
BRANCH   1  10
ATOM     10  C   UNK d   1      42.813   9.020  46.391  0.00  0.00     0.236 C 
BRANCH  10  11
ATOM     11  C   UNK d   1      41.686   8.075  46.864  0.00  0.00     0.264 C 
ATOM     12  N   UNK d   1      40.550   8.767  47.127  0.00  0.00    -0.202 N 
ATOM     13  H   UNK d   1      39.933   7.544  47.446  0.00  0.00     0.205 HD
ATOM     14  O   UNK d   1      42.040   6.899  46.908  0.00  0.00    -0.269 OA
BRANCH  12  15
ATOM     15  N   UNK d   1      39.515   9.393  47.367  0.00  0.00    -0.335 NA
BRANCH  15  16
ATOM     16  C   UNK d   1      38.538  10.039  47.522  0.00  0.00     0.220 C 
BRANCH  16  17
ATOM     17  C   UNK d   1      37.997  11.198  46.899  0.00  0.00    -0.001 A 
ATOM     18  C   UNK d   1      38.641  12.436  47.035  0.00  0.00     0.053 A 
ATOM     19  C   UNK d   1      38.222  13.606  46.470  0.00  0.00     0.107 A 
ATOM     20  C   UNK d   1      37.045  13.567  45.684  0.00  0.00     0.157 A 
ATOM     21  C   UNK d   1      36.380  12.372  45.525  0.00  0.00     0.051 A 
ATOM     22  O   UNK d   1      36.634  14.739  45.117  0.00  0.00    -0.188 OA
ATOM     23 Br   UNK d   1      34.816  12.281  44.454  0.00  0.00    -0.048 Br
ATOM     24  C   UNK d   1      36.858  11.223  46.125  0.00  0.00     0.036 A 
BRANCH  19  25
ATOM     25  O   UNK d   1      38.870  14.819  46.609  0.00  0.00    -0.348 OA
BRANCH  25  26
ATOM     26  C   UNK d   1      40.129  14.943  47.176  0.00  0.00     0.171 C 
ATOM     27  C   UNK d   1      41.233  15.373  46.253  0.00  0.00     0.034 C 
ENDBRANCH  25  26
ENDBRANCH  19  25
ENDBRANCH  16  17
ENDBRANCH  15  16
ENDBRANCH  12  15
ENDBRANCH  10  11
ENDBRANCH   1  10
BRANCH   5  28
ATOM     28  C   UNK d   1      44.201   7.322  43.923  0.00  0.00     0.187 A 
ATOM     29  N   UNK d   1      43.707   6.034  44.125  0.00  0.00    -0.097 NA
ATOM     30  O   UNK d   1      44.619   5.171  43.930  0.00  0.00    -0.104 OA
ATOM     31  N   UNK d   1      45.711   5.741  43.611  0.00  0.00    -0.077 NA
ATOM     32  C   UNK d   1      45.489   7.099  43.594  0.00  0.00     0.285 A 
BRANCH  32  33
ATOM     33  N   UNK d   1      46.504   8.017  43.251  0.00  0.00    -0.028 N 
ATOM     34  H   UNK d   1      46.036   8.979  43.049  0.00  0.00     0.283 HD
ATOM     35  H   UNK d   1      46.919   7.762  42.346  0.00  0.00     0.283 HD
ATOM     36  H   UNK d   1      47.106   8.229  44.042  0.00  0.00     0.283 HD
ENDBRANCH  32  33
ENDBRANCH   5  28
TORSDOF 9
ENDMDL
