MODEL 1
REMARK VINA RESULT:    -6.873      0.000      0.000
REMARK INTER + INTRA:         -11.873
REMARK INTER:                 -10.490
REMARK INTRA:                  -1.383
REMARK UNBOUND:                -1.383
REMARK  10 active torsions:
REMARK  status: ('A' for Active; 'I' for Inactive)
REMARK    1  A    between atoms: C_3  and  O_34 
REMARK    2  A    between atoms: C_4  and  O_31 
REMARK    3  A    between atoms: C_6  and  C_8 
REMARK    4  A    between atoms: N_9  and  N_10 
REMARK       I    between atoms: N_10  and  C_11 
REMARK    5  A    between atoms: C_11  and  C_13 
REMARK    6  A    between atoms: N_16  and  C_25 
REMARK    7  A    between atoms: C_17  and  C_18 
REMARK    8  A    between atoms: C_18  and  N_19 
REMARK    9  A    between atoms: C_29  and  N_30 
REMARK   10  A    between atoms: O_31  and  C_32 
ROOT
ATOM      1  C   UNK d   1      42.216   9.705  43.666  0.00  0.00     0.176 A 
ATOM      2  N   UNK d   1      41.612  10.139  42.552  0.00  0.00    -0.124 NA
ATOM      3  N   UNK d   1      40.909  11.211  42.823  0.00  0.00    -0.058 NA
ATOM      4  N   UNK d   1      41.016  11.533  44.124  0.00  0.00    -0.191 N 
ATOM      5  C   UNK d   1      41.821  10.614  44.666  0.00  0.00     0.104 A 
ENDROOT
BRANCH   1   6
ATOM      6  C   UNK d   1      43.092   8.554  43.843  0.00  0.00     0.294 C 
ATOM      7  N   UNK d   1      44.498   8.686  43.884  0.00  0.00    -0.242 N 
ATOM      8  H   UNK d   1      44.912   9.657  43.783  0.00  0.00     0.192 HD
ATOM      9  O   UNK d   1      42.585   7.420  43.960  0.00  0.00    -0.264 OA
BRANCH   7  10
ATOM     10  N   UNK d   1      45.378   7.645  44.048  0.00  0.00    -0.183 NA
ATOM     11  C   UNK d   1      46.212   7.226  43.169  0.00  0.00     0.150 C 
BRANCH  11  12
ATOM     12  C   UNK d   1      47.109   6.112  43.433  0.00  0.00    -0.013 A 
ATOM     13  C   UNK d   1      48.041   6.111  44.460  0.00  0.00     0.052 A 
ATOM     14  C   UNK d   1      48.877   5.044  44.686  0.00  0.00     0.104 A 
ATOM     15  C   UNK d   1      48.761   3.957  43.851  0.00  0.00     0.116 A 
ATOM     16  C   UNK d   1      47.838   3.923  42.812  0.00  0.00     0.047 A 
ATOM     17 Br   UNK d   1      47.684   2.412  41.661  0.00  0.00    -0.048 Br
ATOM     18  C   UNK d   1      47.027   5.003  42.621  0.00  0.00     0.035 A 
BRANCH  14  19
ATOM     19  O   UNK d   1      49.811   5.008  45.693  0.00  0.00    -0.349 OA
BRANCH  19  20
ATOM     20  C   UNK d   1      49.878   5.841  46.804  0.00  0.00     0.171 C 
ATOM     21  C   UNK d   1      49.579   5.179  48.110  0.00  0.00     0.034 C 
ENDBRANCH  19  20
ENDBRANCH  14  19
BRANCH  15  22
ATOM     22  O   UNK d   1      49.580   2.847  44.033  0.00  0.00    -0.357 OA
ATOM     23  H   UNK d   1      50.211   2.561  43.294  0.00  0.00     0.218 HD
ENDBRANCH  15  22
ENDBRANCH  11  12
ENDBRANCH   7  10
ENDBRANCH   1   6
BRANCH   5  24
ATOM     24  C   UNK d   1      42.252  10.469  46.058  0.00  0.00     0.334 C 
BRANCH  24  25
ATOM     25  N   UNK d   1      41.217  10.411  47.059  0.00  0.00     0.098 N 
ATOM     26  C   UNK d   1      40.683   9.047  46.958  0.00  0.00     0.299 C 
ATOM     27  C   UNK d   1      41.659   7.973  47.231  0.00  0.00     0.198 C 
ATOM     28  O   UNK d   1      42.598   8.367  48.171  0.00  0.00    -0.388 OA
ATOM     29  C   UNK d   1      41.989   9.226  49.059  0.00  0.00     0.198 C 
ATOM     30  C   UNK d   1      41.814  10.574  48.387  0.00  0.00     0.299 C 
ENDBRANCH  24  25
ENDBRANCH   5  24
BRANCH   4  31
ATOM     31  C   UNK d   1      40.338  12.648  44.713  0.00  0.00     0.229 A 
ATOM     32  N   UNK d   1      40.799  13.885  44.956  0.00  0.00    -0.081 NA
ATOM     33  O   UNK d   1      39.845  14.600  45.502  0.00  0.00    -0.103 OA
ATOM     34  N   UNK d   1      38.755  13.883  45.635  0.00  0.00    -0.083 NA
ATOM     35  C   UNK d   1      39.036  12.660  45.150  0.00  0.00     0.201 A 
BRANCH  35  36
ATOM     36  N   UNK d   1      38.096  11.598  45.119  0.00  0.00    -0.379 N 
ATOM     37  H   UNK d   1      37.997  10.932  44.325  0.00  0.00     0.158 HD
ATOM     38  H   UNK d   1      37.439  11.436  45.925  0.00  0.00     0.158 HD
ENDBRANCH  35  36
ENDBRANCH   4  31
TORSDOF 10
ENDMDL
