MODEL 1
REMARK VINA RESULT:    -7.373      0.000      0.000
REMARK INTER + INTRA:         -11.756
REMARK INTER:                 -10.821
REMARK INTRA:                  -0.935
REMARK UNBOUND:                -0.935
REMARK  9 active torsions:
REMARK  status: ('A' for Active; 'I' for Inactive)
REMARK    1  A    between atoms: C_3  and  O_33 
REMARK    2  A    between atoms: C_4  and  O_31 
REMARK    3  A    between atoms: C_6  and  C_8 
REMARK    4  A    between atoms: N_9  and  N_10 
REMARK       I    between atoms: N_10  and  C_11 
REMARK    5  A    between atoms: C_11  and  C_13 
REMARK    6  A    between atoms: N_16  and  C_25 
REMARK    7  A    between atoms: C_17  and  C_18 
REMARK    8  A    between atoms: C_18  and  N_19 
REMARK    9  A    between atoms: C_29  and  N_30 
ROOT
ATOM      1  C   UNK d   1      42.602   8.174  45.853  0.00  0.00     0.170 A 
ATOM      2  N   UNK d   1      42.488   6.895  45.931  0.00  0.00    -0.152 NA
ATOM      3  N   UNK d   1      43.183   6.319  44.966  0.00  0.00     0.012 NA
ATOM      4  N   UNK d   1      43.759   7.263  44.235  0.00  0.00    -0.215 N 
ATOM      5  C   UNK d   1      43.463   8.477  44.675  0.00  0.00     0.098 A 
ENDROOT
BRANCH   1   6
ATOM      6  C   UNK d   1      42.471   9.283  46.771  0.00  0.00     0.293 C 
ATOM      7  N   UNK d   1      43.633  10.055  47.154  0.00  0.00    -0.242 N 
ATOM      8  H   UNK d   1      44.561  10.062  47.231  0.00  0.00     0.192 HD
ATOM      9  O   UNK d   1      41.353   9.614  47.162  0.00  0.00    -0.264 OA
BRANCH   7  10
ATOM     10  N   UNK d   1      42.984  11.448  47.582  0.00  0.00    -0.183 NA
ATOM     11  C   UNK d   1      44.008  12.202  47.142  0.00  0.00     0.150 C 
BRANCH  11  12
ATOM     12  C   UNK d   1      44.493  13.472  47.001  0.00  0.00    -0.013 A 
ATOM     13  C   UNK d   1      44.299  14.575  47.813  0.00  0.00     0.052 A 
ATOM     14  C   UNK d   1      44.839  15.818  47.578  0.00  0.00     0.103 A 
ATOM     15  C   UNK d   1      45.623  15.976  46.469  0.00  0.00     0.116 A 
ATOM     16  C   UNK d   1      45.847  14.908  45.626  0.00  0.00     0.047 A 
ATOM     17 Br   UNK d   1      46.936  15.179  44.055  0.00  0.00    -0.048 Br
ATOM     18  C   UNK d   1      45.327  13.706  45.847  0.00  0.00     0.035 A 
BRANCH  14  19
ATOM     19  O   UNK d   1      44.575  16.882  48.449  0.00  0.00    -0.353 OA
ATOM     20  C   UNK d   1      43.374  17.656  48.253  0.00  0.00     0.210 C 
ENDBRANCH  14  19
BRANCH  15  21
ATOM     21  O   UNK d   1      46.203  17.215  46.182  0.00  0.00    -0.357 OA
ATOM     22  H   UNK d   1      47.165  17.223  45.782  0.00  0.00     0.218 HD
ENDBRANCH  15  21
ENDBRANCH  11  12
ENDBRANCH   7  10
ENDBRANCH   1   6
BRANCH   5  23
ATOM     23  C   UNK d   1      43.906   9.807  44.370  0.00  0.00     0.334 C 
BRANCH  23  24
ATOM     24  N   UNK d   1      43.354  10.460  43.181  0.00  0.00     0.098 N 
ATOM     25  C   UNK d   1      42.879  11.777  43.455  0.00  0.00     0.299 C 
ATOM     26  C   UNK d   1      41.662  11.839  44.333  0.00  0.00     0.198 C 
ATOM     27  O   UNK d   1      40.550  11.439  43.613  0.00  0.00    -0.388 OA
ATOM     28  C   UNK d   1      40.922  10.608  42.550  0.00  0.00     0.198 C 
ATOM     29  C   UNK d   1      42.037   9.714  42.979  0.00  0.00     0.299 C 
ENDBRANCH  23  24
ENDBRANCH   5  23
BRANCH   4  30
ATOM     30  C   UNK d   1      44.895   6.940  43.395  0.00  0.00     0.225 A 
ATOM     31  N   UNK d   1      45.030   6.623  42.175  0.00  0.00    -0.081 NA
ATOM     32  O   UNK d   1      46.297   6.360  41.855  0.00  0.00    -0.103 OA
ATOM     33  N   UNK d   1      46.982   6.525  42.928  0.00  0.00    -0.083 NA
ATOM     34  C   UNK d   1      46.209   6.887  43.952  0.00  0.00     0.201 A 
BRANCH  34  35
ATOM     35  N   UNK d   1      46.586   7.139  45.282  0.00  0.00    -0.379 N 
ATOM     36  H   UNK d   1      46.304   6.532  46.072  0.00  0.00     0.158 HD
ATOM     37  H   UNK d   1      47.205   7.976  45.550  0.00  0.00     0.158 HD
ENDBRANCH  34  35
ENDBRANCH   4  30
TORSDOF 9
ENDMDL
