/Users/jonathanwahrer/Desktop/Msc/3_Semester/Drug_Design_Praktikum/waehrer_HTS_screening/HTS_experiment/out/docking_results/vina_output/2qfa/0023_docked.pdbqt
 OpenBabel03162219173D

 37 40  0  0  1  0  0  0  0  0999 V2000
   42.0480   10.4710   45.9050 C   0  0  1  0  0  3  0  0  0  0  0  0
   40.8000   11.0710   46.3270 N   0  0  0  0  0  0  0  0  0  0  0  0
   40.1850   11.7690   45.2820 C   0  0  0  0  0  0  0  0  0  0  0  0
   39.1770   12.4850   45.3720 O   0  0  0  0  0  0  0  0  0  0  0  0
   40.9480   11.5020   44.0620 C   0  0  0  0  0  0  0  0  0  0  0  0
   40.6400   11.9980   42.9480 O   0  0  0  0  0  0  0  0  0  0  0  0
   42.0410   10.6180   44.4030 C   0  0  1  0  0  3  0  0  0  0  0  0
   42.8830   10.0960   43.5520 C   0  0  1  0  0  3  0  0  0  0  0  0
   43.4330   10.8900   42.5590 O   0  0  0  0  0  1  0  0  0  0  0  0
   43.2730    8.7090   43.6130 C   0  0  0  0  0  0  0  0  0  0  0  0
   44.6490    8.4800   43.4840 C   0  0  0  0  0  3  0  0  0  0  0  0
   45.1670    7.2110   43.5580 C   0  0  0  0  0  0  0  0  0  0  0  0
   44.3340    6.1360   43.7600 C   0  0  0  0  0  0  0  0  0  0  0  0
   46.5900    6.7550   43.4400 C   0  0  0  0  0  2  0  0  0  0  0  0
   42.9800    6.3860   43.8830 C   0  0  0  0  0  3  0  0  0  0  0  0
   45.1260    4.9690   43.7930 O   0  0  0  0  0  0  0  0  0  0  0  0
   42.4420    7.6530   43.8130 C   0  0  0  0  0  3  0  0  0  0  0  0
   46.3970    5.2710   43.2260 C   0  0  1  0  0  3  0  0  0  0  0  0
   46.4280    5.0150   41.7320 C   0  0  0  0  0  1  0  0  0  0  0  0
   43.1450   11.2690   46.5110 C   0  0  0  0  0  0  0  0  0  0  0  0
   43.6960   10.7660   47.6790 C   0  0  0  0  0  3  0  0  0  0  0  0
   44.7070   11.3890   48.3310 C   0  0  0  0  0  0  0  0  0  0  0  0
   45.2070   12.5740   47.8070 C   0  0  0  0  0  0  0  0  0  0  0  0
   44.6490   13.0820   46.6240 C   0  0  0  0  0  0  0  0  0  0  0  0
   45.3340   14.6980   45.9090 Br  0  0  0  0  0  0  0  0  0  0  0  0
   43.6190   12.4380   45.9690 C   0  0  0  0  0  3  0  0  0  0  0  0
   45.2590   10.8800   49.5090 O   0  0  0  0  0  0  0  0  0  0  0  0
   45.9060    9.6390   49.5800 C   0  0  0  0  0  1  0  0  0  0  0  0
   46.2310   13.2160   48.4560 O   0  0  0  0  0  0  0  0  0  0  0  0
   46.2750   13.2210   49.4450 H   0  0  0  0  0  0  0  0  0  0  0  0
   40.3170   10.9270   47.6850 C   0  0  0  0  0  2  0  0  0  0  0  0
   39.7470    9.6210   48.0470 C   0  0  0  0  0  2  0  0  0  0  0  0
   40.6030    8.6680   48.7950 C   0  0  0  0  0  2  0  0  0  0  0  0
   39.8810    7.7960   49.6880 N   0  0  0  0  0  4  0  0  0  0  0  0
   38.5910    8.4180   50.0220 C   0  0  0  0  0  1  0  0  0  0  0  0
   40.6450    7.7160   50.9200 C   0  0  0  0  0  1  0  0  0  0  0  0
   39.7420    6.8410   49.3490 H   0  0  0  0  0  0  0  0  0  0  0  0
  1  2  1  0  0  0  0
  1 20  1  1  0  0  0
  2 31  1  0  0  0  0
  3  4  2  0  0  0  0
  3  2  1  0  0  0  0
  5  7  1  0  0  0  0
  5  3  1  0  0  0  0
  6  5  2  0  0  0  0
  7  8  1  1  0  0  0
  7  1  1  0  0  0  0
  8  9  1  1  0  0  0
  8 10  1  0  0  0  0
 10 17  1  0  0  0  0
 11 12  1  0  0  0  0
 11 10  2  0  0  0  0
 12 13  2  0  0  0  0
 13 16  1  0  0  0  0
 13 15  1  0  0  0  0
 14 12  1  0  0  0  0
 17 15  2  0  0  0  0
 18 19  1  6  0  0  0
 18 14  1  0  0  0  0
 18 16  1  0  0  0  0
 20 21  1  0  0  0  0
 21 22  2  0  0  0  0
 22 27  1  0  0  0  0
 23 22  1  0  0  0  0
 23 29  1  0  0  0  0
 24 23  2  0  0  0  0
 25 24  1  0  0  0  0
 26 20  2  0  0  0  0
 26 24  1  0  0  0  0
 27 28  1  0  0  0  0
 29 30  1  0  0  0  0
 31 32  1  0  0  0  0
 32 33  1  0  0  0  0
 33 34  1  0  0  0  0
 34 35  1  0  0  0  0
 34 36  1  0  0  0  0
 37 34  1  0  0  0  0
M  END
>  <Pose>
1

>  <Score>
-7.345

$$$$
