MODEL 1
REMARK VINA RESULT:    -7.345      0.000      0.000
REMARK INTER + INTRA:         -12.609
REMARK INTER:                 -10.995
REMARK INTRA:                  -1.614
REMARK UNBOUND:                -1.614
REMARK  9 active torsions:
REMARK  status: ('A' for Active; 'I' for Inactive)
REMARK    1  A    between atoms: C_3  and  O_35 
REMARK    2  A    between atoms: C_4  and  O_33 
REMARK    3  A    between atoms: C_6  and  C_8 
REMARK    4  A    between atoms: N_9  and  C_27 
REMARK    5  A    between atoms: C_14  and  C_15 
REMARK    6  A    between atoms: C_15  and  C_17 
REMARK    7  A    between atoms: C_27  and  C_28 
REMARK    8  A    between atoms: C_28  and  C_29 
REMARK    9  A    between atoms: C_29  and  N_30 
ROOT
ATOM      1  C   UNK d   1      42.048  10.471  45.905  0.00  0.00     0.161 C 
ATOM      2  N   UNK d   1      40.800  11.071  46.327  0.00  0.00    -0.332 N 
ATOM      3  C   UNK d   1      40.185  11.769  45.282  0.00  0.00     0.295 C 
ATOM      4  O   UNK d   1      39.177  12.485  45.372  0.00  0.00    -0.264 OA
ATOM      5  C   UNK d   1      40.948  11.502  44.062  0.00  0.00     0.250 C 
ATOM      6  O   UNK d   1      40.640  11.998  42.948  0.00  0.00    -0.282 OA
ATOM      7  C   UNK d   1      42.041  10.618  44.403  0.00  0.00     0.062 C 
ENDROOT
BRANCH   7   8
ATOM      8  C   UNK d   1      42.883  10.096  43.552  0.00  0.00     0.130 C 
ATOM      9  O   UNK d   1      43.433  10.890  42.559  0.00  0.00    -0.190 OA
BRANCH   8  10
ATOM     10  C   UNK d   1      43.273   8.709  43.613  0.00  0.00     0.002 A 
ATOM     11  C   UNK d   1      44.649   8.480  43.484  0.00  0.00     0.024 A 
ATOM     12  C   UNK d   1      45.167   7.211  43.558  0.00  0.00    -0.021 A 
ATOM     13  C   UNK d   1      44.334   6.136  43.760  0.00  0.00     0.075 A 
ATOM     14  C   UNK d   1      46.590   6.755  43.440  0.00  0.00     0.073 C 
ATOM     15  C   UNK d   1      42.980   6.386  43.883  0.00  0.00     0.038 A 
ATOM     16  O   UNK d   1      45.126   4.969  43.793  0.00  0.00    -0.345 OA
ATOM     17  C   UNK d   1      42.442   7.653  43.813  0.00  0.00     0.017 A 
ATOM     18  C   UNK d   1      46.397   5.271  43.226  0.00  0.00     0.129 C 
ATOM     19  C   UNK d   1      46.428   5.015  41.732  0.00  0.00     0.040 C 
ENDBRANCH   8  10
ENDBRANCH   7   8
BRANCH   1  20
ATOM     20  C   UNK d   1      43.145  11.269  46.511  0.00  0.00    -0.026 A 
ATOM     21  C   UNK d   1      43.696  10.766  47.679  0.00  0.00     0.049 A 
ATOM     22  C   UNK d   1      44.707  11.389  48.331  0.00  0.00     0.103 A 
ATOM     23  C   UNK d   1      45.207  12.574  47.807  0.00  0.00     0.116 A 
ATOM     24  C   UNK d   1      44.649  13.082  46.624  0.00  0.00     0.047 A 
ATOM     25 Br   UNK d   1      45.334  14.698  45.909  0.00  0.00    -0.048 Br
ATOM     26  C   UNK d   1      43.619  12.438  45.969  0.00  0.00     0.031 A 
BRANCH  22  27
ATOM     27  O   UNK d   1      45.259  10.880  49.509  0.00  0.00    -0.353 OA
ATOM     28  C   UNK d   1      45.906   9.639  49.580  0.00  0.00     0.210 C 
ENDBRANCH  22  27
BRANCH  23  29
ATOM     29  O   UNK d   1      46.231  13.216  48.456  0.00  0.00    -0.357 OA
ATOM     30  H   UNK d   1      46.275  13.221  49.445  0.00  0.00     0.218 HD
ENDBRANCH  23  29
ENDBRANCH   1  20
BRANCH   2  31
ATOM     31  C   UNK d   1      40.317  10.927  47.685  0.00  0.00     0.129 C 
BRANCH  31  32
ATOM     32  C   UNK d   1      39.747   9.621  48.047  0.00  0.00     0.048 C 
BRANCH  32  33
ATOM     33  C   UNK d   1      40.603   8.668  48.795  0.00  0.00     0.235 C 
BRANCH  33  34
ATOM     34  N   UNK d   1      39.881   7.796  49.688  0.00  0.00    -0.079 N 
ATOM     35  C   UNK d   1      38.591   8.418  50.022  0.00  0.00     0.269 C 
ATOM     36  C   UNK d   1      40.645   7.716  50.920  0.00  0.00     0.269 C 
ATOM     37  H   UNK d   1      39.742   6.841  49.349  0.00  0.00     0.278 HD
ENDBRANCH  33  34
ENDBRANCH  32  33
ENDBRANCH  31  32
ENDBRANCH   2  31
TORSDOF 9
ENDMDL
