MODEL 1
REMARK VINA RESULT:    -6.944      0.000      0.000
REMARK INTER + INTRA:          -8.605
REMARK INTER:                  -7.959
REMARK INTRA:                  -0.646
REMARK UNBOUND:                -0.646
REMARK  3 active torsions:
REMARK  status: ('A' for Active; 'I' for Inactive)
REMARK    1  A    between atoms: C_3  and  O_25 
REMARK    2  A    between atoms: C_6  and  C_8 
REMARK    3  A    between atoms: C_10  and  C_21 
ROOT
ATOM      1  C   UNK d   1      43.490  12.973  46.813  0.00  0.00     0.270 C 
ATOM      2  N   UNK d   1      42.566  13.577  47.680  0.00  0.00    -0.047 N 
ATOM      3  C   UNK d   1      42.817  14.878  48.172  0.00  0.00     0.291 C 
ATOM      4  C   UNK d   1      44.253  15.325  48.116  0.00  0.00     0.086 C 
ATOM      5  C   UNK d   1      44.887  14.998  46.817  0.00  0.00    -0.018 A 
ATOM      6  C   UNK d   1      45.831  15.640  46.062  0.00  0.00    -0.001 A 
ATOM      7  C   UNK d   1      46.008  14.835  44.951  0.00  0.00     0.043 A 
ATOM      8  N   UNK d   1      45.192  13.752  45.052  0.00  0.00    -0.356 N 
ATOM      9  C   UNK d   1      44.503  13.849  46.197  0.00  0.00     0.052 A 
ATOM     10  C   UNK d   1      46.924  15.262  44.013  0.00  0.00     0.030 A 
ATOM     11  C   UNK d   1      47.631  16.435  44.173  0.00  0.00     0.002 A 
ATOM     12  C   UNK d   1      47.452  17.237  45.281  0.00  0.00     0.001 A 
ATOM     13  C   UNK d   1      46.536  16.822  46.233  0.00  0.00     0.014 A 
ATOM     14  H   UNK d   1      41.584  13.563  47.281  0.00  0.00     0.279 HD
ATOM     15  H   UNK d   1      42.453  12.935  48.529  0.00  0.00     0.279 HD
ATOM     16  H   UNK d   1      45.176  13.019  44.310  0.00  0.00     0.166 HD
ENDROOT
BRANCH   1  17
ATOM     17  C   UNK d   1      42.759  12.316  45.694  0.00  0.00    -0.019 A 
ATOM     18  C   UNK d   1      43.109  11.070  45.217  0.00  0.00     0.031 A 
ATOM     19  C   UNK d   1      42.364  10.564  44.174  0.00  0.00     0.046 A 
ATOM     20  C   UNK d   1      41.304  11.230  43.594  0.00  0.00     0.100 A 
ATOM     21 Br   UNK d   1      42.820   8.844  43.491  0.00  0.00    -0.048 Br
ATOM     22  C   UNK d   1      40.961  12.470  44.075  0.00  0.00     0.046 A 
ATOM     23 Br   UNK d   1      39.507  13.420  43.303  0.00  0.00    -0.048 Br
ATOM     24  C   UNK d   1      41.705  13.002  45.133  0.00  0.00     0.031 A 
BRANCH  20  25
ATOM     25  O   UNK d   1      40.591  10.642  42.530  0.00  0.00    -0.358 OA
ATOM     26  H   UNK d   1      39.863  11.190  42.093  0.00  0.00     0.217 HD
ENDBRANCH  20  25
ENDBRANCH   1  17
BRANCH   3  27
ATOM     27  C   UNK d   1      42.005  15.921  47.487  0.00  0.00     0.205 C 
ATOM     28  O   UNK d   1      40.940  15.579  46.870  0.00  0.00    -0.646 OA
ATOM     29  O   UNK d   1      42.415  17.244  47.523  0.00  0.00    -0.646 OA
ENDBRANCH   3  27
TORSDOF 3
ENDMDL
