/Users/jonathanwahrer/Desktop/Msc/3_Semester/Drug_Design_Praktikum/waehrer_HTS_screening/HTS_experiment/out/docking_results/vina_output/2qfa/0026_docked.pdbqt
 OpenBabel03162219173D

 29 32  0  0  1  0  0  0  0  0999 V2000
   43.4900   12.9730   46.8130 C   0  0  2  0  0  3  0  0  0  0  0  0
   42.5660   13.5770   47.6800 N   0  0  0  0  0  4  0  0  0  0  0  0
   42.8170   14.8780   48.1720 C   0  0  1  0  0  3  0  0  0  0  0  0
   44.2530   15.3250   48.1160 C   0  0  0  0  0  2  0  0  0  0  0  0
   44.8870   14.9980   46.8170 C   0  0  0  0  0  0  0  0  0  0  0  0
   45.8310   15.6400   46.0620 C   0  0  0  0  0  0  0  0  0  0  0  0
   46.0080   14.8350   44.9510 C   0  0  0  0  0  0  0  0  0  0  0  0
   45.1920   13.7520   45.0520 N   0  0  0  0  0  0  0  0  0  0  0  0
   44.5030   13.8490   46.1970 C   0  0  0  0  0  0  0  0  0  0  0  0
   46.9240   15.2620   44.0130 C   0  0  0  0  0  3  0  0  0  0  0  0
   47.6310   16.4350   44.1730 C   0  0  0  0  0  3  0  0  0  0  0  0
   47.4520   17.2370   45.2810 C   0  0  0  0  0  3  0  0  0  0  0  0
   46.5360   16.8220   46.2330 C   0  0  0  0  0  3  0  0  0  0  0  0
   41.5840   13.5630   47.2810 H   0  0  0  0  0  0  0  0  0  0  0  0
   42.4530   12.9350   48.5290 H   0  0  0  0  0  0  0  0  0  0  0  0
   45.1760   13.0190   44.3100 H   0  0  0  0  0  0  0  0  0  0  0  0
   42.7590   12.3160   45.6940 C   0  0  0  0  0  0  0  0  0  0  0  0
   43.1090   11.0700   45.2170 C   0  0  0  0  0  3  0  0  0  0  0  0
   42.3640   10.5640   44.1740 C   0  0  0  0  0  0  0  0  0  0  0  0
   41.3040   11.2300   43.5940 C   0  0  0  0  0  0  0  0  0  0  0  0
   42.8200    8.8440   43.4910 Br  0  0  0  0  0  0  0  0  0  0  0  0
   40.9610   12.4700   44.0750 C   0  0  0  0  0  0  0  0  0  0  0  0
   39.5070   13.4200   43.3030 Br  0  0  0  0  0  0  0  0  0  0  0  0
   41.7050   13.0020   45.1330 C   0  0  0  0  0  3  0  0  0  0  0  0
   40.5910   10.6420   42.5300 O   0  0  0  0  0  0  0  0  0  0  0  0
   39.8630   11.1900   42.0930 H   0  0  0  0  0  0  0  0  0  0  0  0
   42.0050   15.9210   47.4870 C   0  0  0  0  0  0  0  0  0  0  0  0
   40.9400   15.5790   46.8700 O   0  0  0  0  0  0  0  0  0  0  0  0
   42.4150   17.2440   47.5230 O   0  0  0  0  0  1  0  0  0  0  0  0
  1 17  1  6  0  0  0
  1  2  1  0  0  0  0
  2  3  1  0  0  0  0
  2 15  1  0  0  0  0
  3 27  1  6  0  0  0
  4  3  1  0  0  0  0
  5  4  1  0  0  0  0
  6 13  1  0  0  0  0
  6  5  1  0  0  0  0
  7  8  1  0  0  0  0
  7  6  2  0  0  0  0
  8  9  1  0  0  0  0
  9  1  1  0  0  0  0
  9  5  2  0  0  0  0
 10 11  2  0  0  0  0
 10  7  1  0  0  0  0
 11 12  1  0  0  0  0
 12 13  2  0  0  0  0
 14  2  1  0  0  0  0
 16  8  1  0  0  0  0
 18 17  1  0  0  0  0
 19 18  2  0  0  0  0
 20 22  2  0  0  0  0
 20 19  1  0  0  0  0
 21 19  1  0  0  0  0
 22 24  1  0  0  0  0
 23 22  1  0  0  0  0
 24 17  2  0  0  0  0
 25 20  1  0  0  0  0
 26 25  1  0  0  0  0
 27 29  1  0  0  0  0
 28 27  2  0  0  0  0
M  END
>  <Pose>
1

>  <Score>
-6.944

$$$$
