/Users/jonathanwahrer/Desktop/Msc/3_Semester/Drug_Design_Praktikum/waehrer_HTS_screening/HTS_experiment/out/docking_results/vina_output/2qfa/0031_docked.pdbqt
 OpenBabel03162219173D

 24 27  0  0  1  0  0  0  0  0999 V2000
   42.2980   15.3610   47.0760 Br  0  0  0  0  0  0  0  0  0  0  0  0
   41.4910   14.0290   45.9510 C   0  0  0  0  0  0  0  0  0  0  0  0
   42.2100   12.9990   45.4580 C   0  0  0  0  0  0  0  0  0  0  0  0
   41.6150   12.0530   44.5730 C   0  0  0  0  0  0  0  0  0  0  0  0
   40.3170   12.2330   44.2420 C   0  0  0  0  0  3  0  0  0  0  0  0
   39.6020   13.3010   44.7470 C   0  0  0  0  0  3  0  0  0  0  0  0
   40.1700   14.1990   45.5980 C   0  0  0  0  0  3  0  0  0  0  0  0
   42.6070   11.2560   43.8260 C   0  0  0  0  0  2  0  0  0  0  0  0
   42.8370    9.9010   44.1210 N   0  0  2  0  0  4  0  0  0  0  0  0
   42.5560    9.3610   45.3550 C   0  0  0  0  0  2  0  0  0  0  0  0
   42.7500    7.9130   45.3800 N   0  0  2  0  0  0  0  0  0  0  0  0
   44.1330    7.6510   45.0180 C   0  0  0  0  0  2  0  0  0  0  0  0
   41.9240    7.2070   44.4300 C   0  0  0  0  0  2  0  0  0  0  0  0
   44.4830    8.2350   43.7390 N   0  0  2  0  0  0  0  0  0  0  0  0
   44.2410    9.6210   43.6640 C   0  0  0  0  0  2  0  0  0  0  0  0
   43.7340    7.5420   42.7110 C   0  0  0  0  0  2  0  0  0  0  0  0
   42.2760    7.7400   43.0440 C   0  0  2  0  0  3  0  0  0  0  0  0
   42.0150    9.2000   43.0750 C   0  0  0  0  0  2  0  0  0  0  0  0
   43.5080   12.8300   45.7860 O   0  0  0  0  0  0  0  0  0  0  0  0
   44.5820   13.6240   45.2430 C   0  0  0  0  0  2  0  0  0  0  0  0
   45.6660   13.9930   46.1500 C   0  0  0  0  0  0  0  0  0  0  0  0
   45.8960   13.4630   47.2270 O   0  0  0  0  0  0  0  0  0  0  0  0
   46.5290   15.0130   45.7340 O   0  0  0  0  0  0  0  0  0  0  0  0
   46.9180   15.1910   44.3990 C   0  0  0  0  0  1  0  0  0  0  0  0
  2  1  1  0  0  0  0
  3 19  1  0  0  0  0
  3  2  2  0  0  0  0
  4  3  1  0  0  0  0
  5  4  2  0  0  0  0
  5  6  1  0  0  0  0
  6  7  2  0  0  0  0
  7  2  1  0  0  0  0
  8  4  1  0  0  0  0
  9  8  1  6  0  0  0
  9 10  1  0  0  0  0
 10 11  1  0  0  0  0
 11 13  1  6  0  0  0
 12 11  1  0  0  0  0
 14 16  1  6  0  0  0
 14 12  1  0  0  0  0
 15 14  1  0  0  0  0
 15  9  1  0  0  0  0
 17 16  1  1  0  0  0
 17 18  1  0  0  0  0
 17 13  1  0  0  0  0
 18  9  1  0  0  0  0
 20 19  1  0  0  0  0
 20 21  1  0  0  0  0
 21 22  2  0  0  0  0
 23 21  1  0  0  0  0
 24 23  1  0  0  0  0
M  END
>  <Pose>
1

>  <Score>
-5.715

$$$$
