MODEL 1
REMARK VINA RESULT:    -5.715      0.000      0.000
REMARK INTER + INTRA:          -8.254
REMARK INTER:                  -7.720
REMARK INTRA:                  -0.534
REMARK UNBOUND:                -0.534
REMARK  6 active torsions:
REMARK  status: ('A' for Active; 'I' for Inactive)
REMARK    1  A    between atoms: C_3  and  O_19 
REMARK    2  A    between atoms: C_4  and  C_8 
REMARK    3  A    between atoms: C_8  and  N_9 
REMARK    4  A    between atoms: O_19  and  C_20 
REMARK    5  A    between atoms: C_20  and  C_21 
REMARK    6  A    between atoms: C_21  and  O_23 
ROOT
ATOM      1 Br   UNK d   1      42.298  15.361  47.076  0.00  0.00    -0.048 Br
ATOM      2  C   UNK d   1      41.491  14.029  45.951  0.00  0.00     0.044 A 
ATOM      3  C   UNK d   1      42.210  12.999  45.458  0.00  0.00     0.094 A 
ATOM      4  C   UNK d   1      41.615  12.053  44.573  0.00  0.00     0.003 A 
ATOM      5  C   UNK d   1      40.317  12.233  44.242  0.00  0.00     0.012 A 
ATOM      6  C   UNK d   1      39.602  13.301  44.747  0.00  0.00     0.002 A 
ATOM      7  C   UNK d   1      40.170  14.199  45.598  0.00  0.00     0.022 A 
ENDROOT
BRANCH   4   8
ATOM      8  C   UNK d   1      42.607  11.256  43.826  0.00  0.00     0.283 C 
BRANCH   8   9
ATOM      9  N   UNK d   1      42.837   9.901  44.121  0.00  0.00    -0.010 N 
ATOM     10  C   UNK d   1      42.556   9.361  45.355  0.00  0.00     0.512 C 
ATOM     11  N   UNK d   1      42.750   7.913  45.380  0.00  0.00     0.143 N 
ATOM     12  C   UNK d   1      44.133   7.651  45.018  0.00  0.00     0.547 C 
ATOM     13  C   UNK d   1      41.924   7.207  44.430  0.00  0.00     0.284 C 
ATOM     14  N   UNK d   1      44.483   8.235  43.739  0.00  0.00     0.143 N 
ATOM     15  C   UNK d   1      44.241   9.621  43.664  0.00  0.00     0.512 C 
ATOM     16  C   UNK d   1      43.734   7.542  42.711  0.00  0.00     0.284 C 
ATOM     17  C   UNK d   1      42.276   7.740  43.044  0.00  0.00     0.069 C 
ATOM     18  C   UNK d   1      42.015   9.200  43.075  0.00  0.00     0.250 C 
ENDBRANCH   8   9
ENDBRANCH   4   8
BRANCH   3  19
ATOM     19  O   UNK d   1      43.508  12.830  45.786  0.00  0.00    -0.340 OA
BRANCH  19  20
ATOM     20  C   UNK d   1      44.582  13.624  45.243  0.00  0.00     0.286 C 
BRANCH  20  21
ATOM     21  C   UNK d   1      45.666  13.993  46.150  0.00  0.00     0.282 C 
ATOM     22  O   UNK d   1      45.896  13.463  47.227  0.00  0.00    -0.263 OA
BRANCH  21  23
ATOM     23  O   UNK d   1      46.529  15.013  45.734  0.00  0.00    -0.325 OA
ATOM     24  C   UNK d   1      46.918  15.191  44.399  0.00  0.00     0.213 C 
ENDBRANCH  21  23
ENDBRANCH  20  21
ENDBRANCH  19  20
ENDBRANCH   3  19
TORSDOF 6
ENDMDL
