/Users/jonathanwahrer/Desktop/Msc/3_Semester/Drug_Design_Praktikum/waehrer_HTS_screening/HTS_experiment/out/docking_results/vina_output/2qfa/0033_docked.pdbqt
 OpenBabel03162219183D

 33 36  0  0  0  0  0  0  0  0999 V2000
   40.9760   11.5170   43.9730 C   0  0  0  0  0  0  0  0  0  0  0  0
   41.9290   12.3210   44.4170 N   0  0  0  0  0  4  0  0  0  0  0  0
   41.8140   13.1050   45.5030 C   0  0  0  0  0  0  0  0  0  0  0  0
   40.6390   13.0510   46.1670 N   0  0  0  0  0  0  0  0  0  0  0  0
   39.6220   12.2440   45.7610 C   0  0  0  0  0  0  0  0  0  0  0  0
   39.8120   11.4800   44.6560 N   0  0  0  0  0  2  0  0  0  0  0  0
   41.1770   10.7470   42.7940 N   0  0  0  0  0  0  0  0  0  0  0  0
   40.7420   11.0490   41.9140 H   0  0  0  0  0  0  0  0  0  0  0  0
   41.9500    9.5980   42.8280 N   0  0  0  0  0  0  0  0  0  0  0  0
   42.7510    9.2930   43.7900 C   0  0  0  0  0  3  0  0  0  0  0  0
   43.5420    8.0800   43.7780 C   0  0  0  0  0  0  0  0  0  0  0  0
   42.9410    6.8540   44.0580 C   0  0  0  0  0  0  0  0  0  0  0  0
   43.6390    5.6740   44.0820 C   0  0  0  0  0  3  0  0  0  0  0  0
   44.9960    5.6400   43.8230 C   0  0  0  0  0  0  0  0  0  0  0  0
   45.6150    6.8470   43.5400 C   0  0  0  0  0  0  0  0  0  0  0  0
   47.4800    6.8350   43.1720 Br  0  0  0  0  0  0  0  0  0  0  0  0
   44.8950    8.0270   43.5220 C   0  0  0  0  0  3  0  0  0  0  0  0
   41.5670    6.8800   44.3200 O   0  0  0  0  0  0  0  0  0  0  0  0
   41.2630    7.0400   45.2760 H   0  0  0  0  0  0  0  0  0  0  0  0
   45.6950    4.4350   43.8500 O   0  0  0  0  0  0  0  0  0  0  0  0
   46.5890    4.3160   44.3020 H   0  0  0  0  0  0  0  0  0  0  0  0
   42.8760   13.9660   45.9440 N   0  0  0  0  0  0  0  0  0  0  0  0
   42.6140   15.1200   46.7570 C   0  0  0  0  0  2  0  0  0  0  0  0
   43.7870   15.7870   47.3620 C   0  0  0  0  0  2  0  0  0  0  0  0
   45.0050   15.4480   46.7880 O   0  0  0  0  0  0  0  0  0  0  0  0
   45.1540   14.0750   46.6520 C   0  0  0  0  0  2  0  0  0  0  0  0
   44.2160   13.6430   45.5510 C   0  0  0  0  0  2  0  0  0  0  0  0
   38.3960   12.2090   46.4540 N   0  0  0  0  0  0  0  0  0  0  0  0
   37.1390   12.3280   45.7620 C   0  0  0  0  0  2  0  0  0  0  0  0
   36.3110   11.1150   46.2130 C   0  0  0  0  0  2  0  0  0  0  0  0
   36.2790   11.0830   47.5920 O   0  0  0  0  0  0  0  0  0  0  0  0
   37.5340   10.7540   48.1020 C   0  0  0  0  0  2  0  0  0  0  0  0
   38.3790   12.0270   47.8840 C   0  0  0  0  0  2  0  0  0  0  0  0
  1  2  2  0  0  0  0
  1  6  1  0  0  0  0
  2  3  2  0  0  0  0
  3 22  1  0  0  0  0
  3  4  1  0  0  0  0
  5  4  2  0  0  0  0
  5 28  1  0  0  0  0
  6  5  1  0  0  0  0
  7  9  1  0  0  0  0
  7  1  1  0  0  0  0
  8  7  1  0  0  0  0
  9 10  2  0  0  0  0
 11 10  1  0  0  0  0
 11 12  1  0  0  0  0
 12 13  2  0  0  0  0
 12 18  1  0  0  0  0
 14 20  1  0  0  0  0
 14 13  1  0  0  0  0
 15 14  2  0  0  0  0
 16 15  1  0  0  0  0
 17 15  1  0  0  0  0
 17 11  2  0  0  0  0
 18 19  1  0  0  0  0
 20 21  1  0  0  0  0
 22 23  1  0  0  0  0
 23 24  1  0  0  0  0
 25 24  1  0  0  0  0
 26 25  1  0  0  0  0
 27 22  1  0  0  0  0
 27 26  1  0  0  0  0
 28 33  1  0  0  0  0
 29 30  1  0  0  0  0
 29 28  1  0  0  0  0
 30 31  1  0  0  0  0
 31 32  1  0  0  0  0
 33 32  1  0  0  0  0
M  END
>  <Pose>
1

>  <Score>
-7.153

$$$$
