MODEL 1
REMARK VINA RESULT:    -6.840      0.000      0.000
REMARK INTER + INTRA:         -10.181
REMARK INTER:                  -9.240
REMARK INTRA:                  -0.941
REMARK UNBOUND:                -0.941
REMARK  7 active torsions:
REMARK  status: ('A' for Active; 'I' for Inactive)
REMARK    1  A    between atoms: C_3  and  O_30 
REMARK    2  A    between atoms: C_5  and  O_29 
REMARK    3  A    between atoms: C_7  and  C_8 
REMARK    4  A    between atoms: N_9  and  N_10 
REMARK    5  A    between atoms: N_10  and  C_11 
REMARK    6  A    between atoms: C_13  and  N_23 
REMARK    7  A    between atoms: C_15  and  N_17 
ROOT
ATOM      1  C   UNK d   1      42.344  10.905  46.101  0.00  0.00     0.774 A 
ATOM      2  N   UNK d   1      42.747  10.059  45.148  0.00  0.00     0.133 NA
ATOM      3  C   UNK d   1      43.172   8.798  45.431  0.00  0.00     0.756 A 
ATOM      4  N   UNK d   1      43.187   8.393  46.710  0.00  0.00     0.131 NA
ATOM      5  C   UNK d   1      42.788   9.218  47.690  0.00  0.00     0.756 A 
ATOM      6  N   UNK d   1      42.368  10.478  47.367  0.00  0.00     0.133 NA
ENDROOT
BRANCH   1   7
ATOM      7  N   UNK d   1      41.907  12.196  45.740  0.00  0.00    -0.105 N 
ATOM      8  H   UNK d   1      40.882  12.367  45.681  0.00  0.00     0.208 HD
BRANCH   7   9
ATOM      9  N   UNK d   1      42.823  13.249  45.463  0.00  0.00    -0.172 NA
ATOM     10  C   UNK d   1      43.848  13.445  46.225  0.00  0.00     0.152 C 
BRANCH  10  11
ATOM     11  C   UNK d   1      44.830  14.482  46.027  0.00  0.00     0.006 A 
ATOM     12  C   UNK d   1      44.901  15.592  46.836  0.00  0.00     0.056 A 
ATOM     13 Br   UNK d   1      43.643  15.719  48.262  0.00  0.00    -0.047 Br
ATOM     14  C   UNK d   1      45.839  16.588  46.637  0.00  0.00     0.086 A 
ATOM     15  C   UNK d   1      46.743  16.472  45.592  0.00  0.00     0.074 A 
ATOM     16  C   UNK d   1      46.692  15.370  44.767  0.00  0.00     0.069 A 
ATOM     17  C   UNK d   1      45.736  14.393  44.999  0.00  0.00     0.051 A 
BRANCH  14  18
ATOM     18  O   UNK d   1      45.886  17.693  47.467  0.00  0.00    -0.359 OA
ATOM     19  H   UNK d   1      45.017  18.163  47.688  0.00  0.00     0.217 HD
ENDBRANCH  14  18
BRANCH  16  20
ATOM     20  O   UNK d   1      47.613  15.295  43.734  0.00  0.00    -0.361 OA
ATOM     21  H   UNK d   1      48.499  15.782  43.725  0.00  0.00     0.217 HD
ENDBRANCH  16  20
ENDBRANCH  10  11
ENDBRANCH   7   9
ENDBRANCH   1   7
BRANCH   3  22
ATOM     22  N   UNK d   1      43.579   7.988  44.351  0.00  0.00    -0.209 N 
ATOM     23  C   UNK d   1      44.376   8.563  43.301  0.00  0.00     0.167 C 
ATOM     24  C   UNK d   1      45.641   7.693  43.234  0.00  0.00     0.188 C 
ATOM     25  O   UNK d   1      45.196   6.417  42.887  0.00  0.00    -0.388 OA
ATOM     26  C   UNK d   1      44.473   5.818  43.913  0.00  0.00     0.188 C 
ATOM     27  C   UNK d   1      43.218   6.595  44.259  0.00  0.00     0.167 C 
ENDBRANCH   3  22
BRANCH   5  28
ATOM     28  N   UNK d   1      42.803   8.796  49.053  0.00  0.00    -0.209 N 
ATOM     29  C   UNK d   1      43.857   9.131  49.981  0.00  0.00     0.167 C 
ATOM     30  C   UNK d   1      44.281   7.915  50.775  0.00  0.00     0.188 C 
ATOM     31  O   UNK d   1      43.582   6.773  50.413  0.00  0.00    -0.388 OA
ATOM     32  C   UNK d   1      42.205   7.007  50.589  0.00  0.00     0.188 C 
ATOM     33  C   UNK d   1      41.707   7.982  49.540  0.00  0.00     0.167 C 
ENDBRANCH   5  28
TORSDOF 7
ENDMDL
