MODEL 1
REMARK VINA RESULT:    -8.149      0.000      0.000
REMARK INTER + INTRA:         -10.871
REMARK INTER:                 -10.054
REMARK INTRA:                  -0.817
REMARK UNBOUND:                -0.817
REMARK  4 active torsions:
REMARK  status: ('A' for Active; 'I' for Inactive)
REMARK    1  A    between atoms: C_5  and  N_8 
REMARK    2  A    between atoms: C_10  and  C_14 
REMARK       I    between atoms: C_14  and  N_16 
REMARK    3  A    between atoms: N_16  and  C_17 
REMARK    4  A    between atoms: C_17  and  C_18 
ROOT
ATOM      1  N   UNK d   1      46.331   5.957  43.340  0.00  0.00    -0.317 N 
ATOM      2  C   UNK d   1      44.961   5.769  43.754  0.00  0.00     0.146 C 
ATOM      3  C   UNK d   1      44.676   7.065  44.481  0.00  0.00     0.105 C 
ATOM      4  C   UNK d   1      45.263   8.079  43.515  0.00  0.00     0.119 C 
ATOM      5  C   UNK d   1      46.491   7.345  43.110  0.00  0.00     0.225 C 
ATOM      6  O   UNK d   1      47.512   7.889  42.636  0.00  0.00    -0.273 OA
ENDROOT
BRANCH   3   7
ATOM      7  C   UNK d   1      43.229   7.278  44.693  0.00  0.00     0.224 C 
ATOM      8  O   UNK d   1      42.378   6.800  43.906  0.00  0.00    -0.273 OA
ATOM      9  N   UNK d   1      42.805   8.035  45.806  0.00  0.00    -0.353 N 
ATOM     10  H   UNK d   1      43.501   8.436  46.460  0.00  0.00     0.162 HD
BRANCH   9  11
ATOM     11  C   UNK d   1      41.403   8.266  46.053  0.00  0.00     0.203 C 
BRANCH  11  12
ATOM     12  C   UNK d   1      41.035   9.685  45.786  0.00  0.00     0.148 A 
ATOM     13  N   UNK d   1      40.977  10.317  44.587  0.00  0.00    -0.319 N 
ATOM     14  C   UNK d   1      40.602  11.594  44.773  0.00  0.00     0.130 A 
ATOM     15  C   UNK d   1      41.201  10.027  43.182  0.00  0.00     0.132 C 
ATOM     16  N   UNK d   1      40.432  11.725  46.113  0.00  0.00    -0.135 NA
ATOM     17  C   UNK d   1      40.528  12.325  43.465  0.00  0.00     0.082 C 
ATOM     18  N   UNK d   1      40.691  10.585  46.721  0.00  0.00    -0.133 NA
ATOM     19  C   UNK d   1      41.279  11.395  42.538  0.00  0.00     0.028 C 
ENDBRANCH  11  12
ENDBRANCH   9  11
ENDBRANCH   3   7
BRANCH   1  20
ATOM     20  C   UNK d   1      47.273   4.901  43.206  0.00  0.00     0.037 A 
ATOM     21  C   UNK d   1      48.327   4.691  44.069  0.00  0.00     0.037 A 
ATOM     22  C   UNK d   1      49.241   3.679  43.956  0.00  0.00    -0.043 A 
ATOM     23  C   UNK d   1      49.094   2.799  42.891  0.00  0.00     0.017 A 
ATOM     24  C   UNK d   1      50.367   3.481  44.909  0.00  0.00     0.049 C 
ATOM     25 Br   UNK d   1      50.352   1.379  42.703  0.00  0.00    -0.051 Br
ATOM     26  C   UNK d   1      48.059   2.957  41.992  0.00  0.00     0.022 A 
ATOM     27  C   UNK d   1      47.161   3.995  42.149  0.00  0.00     0.031 A 
ENDBRANCH   1  20
TORSDOF 4
ENDMDL
