MODEL 1
REMARK VINA RESULT:    -5.845      0.000      0.000
REMARK INTER + INTRA:          -7.155
REMARK INTER:                  -6.870
REMARK INTRA:                  -0.285
REMARK UNBOUND:                -0.285
REMARK  3 active torsions:
REMARK  status: ('A' for Active; 'I' for Inactive)
REMARK    1  A    between atoms: C_3  and  N_9 
REMARK       I    between atoms: N_9  and  C_10 
REMARK    2  A    between atoms: C_10  and  C_12 
REMARK    3  A    between atoms: C_12  and  N_13 
ROOT
ATOM      1  N   UNK d   1      41.861   8.422  45.001  0.00  0.00    -0.325 N 
ATOM      2  C   UNK d   1      41.672   8.752  46.344  0.00  0.00     0.248 C 
ATOM      3  O   UNK d   1      42.501   8.440  47.211  0.00  0.00    -0.271 OA
ATOM      4  H   UNK d   1      41.094   8.734  44.334  0.00  0.00     0.169 HD
ENDROOT
BRANCH   2   5
ATOM      5  C   UNK d   1      40.453   9.489  46.734  0.00  0.00     0.340 C 
BRANCH   5   6
ATOM      6  N   UNK d   1      40.399  10.859  46.339  0.00  0.00    -0.054 N 
ATOM      7  C   UNK d   1      39.440  11.537  47.225  0.00  0.00     0.268 C 
ATOM      8  C   UNK d   1      39.801  13.002  47.232  0.00  0.00     0.300 C 
ATOM      9  N   UNK d   1      40.182  13.328  45.858  0.00  0.00     0.093 N 
ATOM     10  C   UNK d   1      41.564  12.878  45.719  0.00  0.00     0.300 C 
ATOM     11  C   UNK d   1      39.387  12.528  44.940  0.00  0.00     0.300 C 
ATOM     12  C   UNK d   1      41.691  11.535  46.424  0.00  0.00     0.268 C 
ATOM     13  C   UNK d   1      39.896  11.078  44.998  0.00  0.00     0.268 C 
ENDBRANCH   5   6
ENDBRANCH   2   5
BRANCH   1  14
ATOM     14  C   UNK d   1      42.941   7.728  44.408  0.00  0.00     0.052 A 
ATOM     15  C   UNK d   1      43.888   8.414  43.634  0.00  0.00     0.038 A 
ATOM     16 Br   UNK d   1      43.613  10.307  43.447  0.00  0.00    -0.049 Br
ATOM     17  C   UNK d   1      44.957   7.794  43.034  0.00  0.00     0.028 A 
ATOM     18  C   UNK d   1      45.167   6.442  43.159  0.00  0.00    -0.061 A 
ATOM     19  C   UNK d   1      44.252   5.749  43.913  0.00  0.00     0.009 A 
ATOM     20  C   UNK d   1      46.326   5.757  42.510  0.00  0.00     0.048 C 
ATOM     21  C   UNK d   1      43.162   6.372  44.526  0.00  0.00     0.031 A 
ENDBRANCH   1  14
TORSDOF 3
ENDMDL
