/Users/jonathanwahrer/Desktop/Msc/3_Semester/Drug_Design_Praktikum/waehrer_HTS_screening/HTS_experiment/out/docking_results/vina_output/2qfa/0056_docked.pdbqt
 OpenBabel03162219193D

 24 27  0  0  1  0  0  0  0  0999 V2000
   41.8010   13.1150   45.1340 C   0  0  1  0  0  3  0  0  0  0  0  0
   41.8460   11.7560   44.8180 C   0  0  1  0  0  0  0  0  0  0  0  0
   41.7320   10.4570   45.5370 C   0  0  0  0  0  0  0  0  0  0  0  0
   40.2850   10.2940   45.2450 N   0  0  0  0  0  2  0  0  0  0  0  0
   39.7240   11.4570   45.3590 C   0  0  2  0  0  3  0  0  0  0  0  0
   40.7460   12.3860   45.7260 C   0  0  2  0  0  0  0  0  0  0  0  0
   40.9360   12.2810   47.2040 C   0  0  0  0  0  0  0  0  0  0  0  0
   41.0850   12.2250   48.3770 N   0  0  0  0  0  0  0  0  0  0  0  0
   42.4530    9.4980   44.8180 O   0  0  0  0  0  0  0  0  0  0  0  0
   43.2810    8.8560   45.7180 C   0  0  0  0  0  2  0  0  0  0  0  0
   42.5480    9.0590   47.0330 C   0  0  0  0  0  2  0  0  0  0  0  0
   42.0740   10.3780   46.8260 O   0  0  0  0  0  0  0  0  0  0  0  0
   41.4150   11.4840   43.4000 C   0  0  0  0  0  0  0  0  0  0  0  0
   41.0700   11.2920   42.2870 N   0  0  0  0  0  0  0  0  0  0  0  0
   42.9340   13.6650   45.9230 C   0  0  0  0  0  0  0  0  0  0  0  0
   42.8460   14.8600   46.5910 C   0  0  0  0  0  0  0  0  0  0  0  0
   41.2510   15.9080   46.5720 Br  0  0  0  0  0  0  0  0  0  0  0  0
   43.9530   15.3080   47.3000 C   0  0  0  0  0  3  0  0  0  0  0  0
   45.1410   14.5710   47.3480 C   0  0  0  0  0  3  0  0  0  0  0  0
   45.2070   13.3760   46.6730 C   0  0  0  0  0  3  0  0  0  0  0  0
   44.0970   12.9340   45.9650 C   0  0  0  0  0  3  0  0  0  0  0  0
   38.3230   11.7420   45.1500 N   0  0  0  0  0  0  0  0  0  0  0  0
   37.6140   10.9840   45.1640 H   0  0  0  0  0  0  0  0  0  0  0  0
   37.9990   12.7120   44.9810 H   0  0  0  0  0  0  0  0  0  0  0  0
  1  6  1  0  0  0  0
  1 15  1  1  0  0  0
  2 13  1  6  0  0  0
  2  1  1  0  0  0  0
  2  3  1  0  0  0  0
  2  6  1  0  0  0  0
  3 12  1  0  0  0  0
  4  5  1  0  0  0  0
  4  3  1  0  0  0  0
  5 22  1  1  0  0  0
  5  6  1  0  0  0  0
  6  7  1  1  0  0  0
  7  8  3  0  0  0  0
  9  3  1  0  0  0  0
  9 10  1  0  0  0  0
 10 11  1  0  0  0  0
 12 11  1  0  0  0  0
 14 13  3  0  0  0  0
 15 21  2  0  0  0  0
 15 16  1  0  0  0  0
 16 18  2  0  0  0  0
 17 16  1  0  0  0  0
 18 19  1  0  0  0  0
 20 19  2  0  0  0  0
 21 20  1  0  0  0  0
 22 23  1  0  0  0  0
 24 22  1  0  0  0  0
M  END
>  <Pose>
1

>  <Score>
-5.524

$$$$
