MODEL 1
REMARK VINA RESULT:    -5.524      0.000      0.000
REMARK INTER + INTRA:          -6.240
REMARK INTER:                  -6.008
REMARK INTRA:                  -0.231
REMARK UNBOUND:                -0.231
REMARK  2 active torsions:
REMARK  status: ('A' for Active; 'I' for Inactive)
REMARK    1  A    between atoms: C_3  and  C_8 
REMARK    2  A    between atoms: C_12  and  N_16 
ROOT
ATOM      1  C   UNK d   1      41.801  13.115  45.134  0.00  0.00     0.084 A 
ATOM      2  C   UNK d   1      41.846  11.756  44.818  0.00  0.00     0.166 A 
ATOM      3  C   UNK d   1      41.732  10.457  45.537  0.00  0.00     0.295 C 
ATOM      4  N   UNK d   1      40.285  10.294  45.245  0.00  0.00    -0.209 NA
ATOM      5  C   UNK d   1      39.724  11.457  45.359  0.00  0.00     0.124 C 
ATOM      6  C   UNK d   1      40.746  12.386  45.726  0.00  0.00     0.146 A 
ATOM      7  C   UNK d   1      40.936  12.281  47.204  0.00  0.00     0.080 C 
ATOM      8  N   UNK d   1      41.085  12.225  48.377  0.00  0.00    -0.196 NA
ATOM      9  O   UNK d   1      42.453   9.498  44.818  0.00  0.00    -0.333 OA
ATOM     10  C   UNK d   1      43.281   8.856  45.718  0.00  0.00     0.199 C 
ATOM     11  C   UNK d   1      42.548   9.059  47.033  0.00  0.00     0.199 C 
ATOM     12  O   UNK d   1      42.074  10.378  46.826  0.00  0.00    -0.333 OA
ATOM     13  C   UNK d   1      41.415  11.484  43.400  0.00  0.00     0.080 C 
ATOM     14  N   UNK d   1      41.070  11.292  42.287  0.00  0.00    -0.196 NA
ENDROOT
BRANCH   1  15
ATOM     15  C   UNK d   1      42.934  13.665  45.923  0.00  0.00    -0.032 A 
ATOM     16  C   UNK d   1      42.846  14.860  46.591  0.00  0.00     0.017 A 
ATOM     17 Br   UNK d   1      41.251  15.908  46.572  0.00  0.00    -0.051 Br
ATOM     18  C   UNK d   1      43.953  15.308  47.300  0.00  0.00     0.019 A 
ATOM     19  C   UNK d   1      45.141  14.571  47.348  0.00  0.00     0.001 A 
ATOM     20  C   UNK d   1      45.207  13.376  46.673  0.00  0.00     0.001 A 
ATOM     21  C   UNK d   1      44.097  12.934  45.965  0.00  0.00     0.009 A 
ENDBRANCH   1  15
BRANCH   5  22
ATOM     22  N   UNK d   1      38.323  11.742  45.150  0.00  0.00    -0.386 N 
ATOM     23  H   UNK d   1      37.614  10.984  45.164  0.00  0.00     0.157 HD
ATOM     24  H   UNK d   1      37.999  12.712  44.981  0.00  0.00     0.157 HD
ENDBRANCH   5  22
TORSDOF 2
ENDMDL
