MODEL 1
REMARK VINA RESULT:    -5.600      0.000      0.000
REMARK INTER + INTRA:          -6.110
REMARK INTER:                  -6.583
REMARK INTRA:                   0.472
REMARK UNBOUND:                 0.472
REMARK  3 active torsions:
REMARK  status: ('A' for Active; 'I' for Inactive)
REMARK    1  A    between atoms: C_3  and  N_8 
REMARK    2  A    between atoms: C_13  and  C_17 
REMARK    3  A    between atoms: C_17  and  O_19 
ROOT
ATOM      1  N   UNK d   1      43.160  11.304  44.770  0.00  0.00    -0.313 N 
ATOM      2  C   UNK d   1      44.291  12.206  44.483  0.00  0.00     0.175 C 
ATOM      3  C   UNK d   1      44.317  13.035  45.681  0.00  0.00     0.109 C 
ATOM      4  O   UNK d   1      45.029  12.516  46.775  0.00  0.00    -0.364 OA
ATOM      5  C   UNK d   1      44.616  13.510  47.701  0.00  0.00     0.160 C 
ATOM      6  C   UNK d   1      43.115  13.190  47.678  0.00  0.00     0.134 C 
ATOM      7  C   UNK d   1      42.875  13.167  46.200  0.00  0.00     0.135 C 
ATOM      8  C   UNK d   1      42.264  11.967  45.654  0.00  0.00     0.233 C 
ATOM      9  O   UNK d   1      41.113  11.555  45.909  0.00  0.00    -0.272 OA
ATOM     10  C   UNK d   1      44.933  14.748  46.931  0.00  0.00     0.005 C 
ATOM     11  C   UNK d   1      44.859  14.389  45.629  0.00  0.00     0.012 C 
ENDROOT
BRANCH   1  12
ATOM     12  C   UNK d   1      42.963   9.989  44.273  0.00  0.00     0.054 A 
ATOM     13  C   UNK d   1      42.167   9.721  43.173  0.00  0.00     0.037 A 
ATOM     14 Br   UNK d   1      41.273  11.091  42.237  0.00  0.00    -0.049 Br
ATOM     15  C   UNK d   1      41.995   8.414  42.710  0.00  0.00     0.021 A 
ATOM     16  C   UNK d   1      42.607   7.355  43.327  0.00  0.00     0.002 A 
ATOM     17  C   UNK d   1      43.392   7.598  44.409  0.00  0.00     0.002 A 
ATOM     18  C   UNK d   1      43.561   8.882  44.862  0.00  0.00     0.031 A 
ENDBRANCH   1  12
BRANCH   6  19
ATOM     19  C   UNK d   1      43.010  11.807  48.243  0.00  0.00     0.266 C 
ATOM     20  O   UNK d   1      43.910  10.964  48.129  0.00  0.00    -0.265 OA
BRANCH  19  21
ATOM     21  O   UNK d   1      41.849  11.458  48.922  0.00  0.00    -0.326 OA
ATOM     22  C   UNK d   1      40.977  12.503  49.370  0.00  0.00     0.213 C 
ENDBRANCH  19  21
ENDBRANCH   6  19
TORSDOF 3
ENDMDL
