/Users/jonathanwahrer/Desktop/Msc/3_Semester/Drug_Design_Praktikum/waehrer_HTS_screening/HTS_experiment/out/docking_results/vina_output/2qfa/0067_docked.pdbqt
 OpenBabel03162219193D

 22 25  0  0  1  0  0  0  0  0999 V2000
   43.1600   11.3040   44.7700 N   0  0  0  0  0  0  0  0  0  0  0  0
   44.2910   12.2060   44.4830 C   0  0  0  0  0  2  0  0  0  0  0  0
   44.3170   13.0350   45.6810 C   0  0  2  0  0  0  0  0  0  0  0  0
   45.0290   12.5160   46.7750 O   0  0  0  0  0  0  0  0  0  0  0  0
   44.6160   13.5100   47.7010 C   0  0  2  0  0  3  0  0  0  0  0  0
   43.1150   13.1900   47.6780 C   0  0  1  0  0  3  0  0  0  0  0  0
   42.8750   13.1670   46.2000 C   0  0  2  0  0  3  0  0  0  0  0  0
   42.2640   11.9670   45.6540 C   0  0  0  0  0  0  0  0  0  0  0  0
   41.1130   11.5550   45.9090 O   0  0  0  0  0  0  0  0  0  0  0  0
   44.9330   14.7480   46.9310 C   0  0  0  0  0  2  0  0  0  0  0  0
   44.8590   14.3890   45.6290 C   0  0  0  0  0  2  0  0  0  0  0  0
   42.9630    9.9890   44.2730 C   0  0  0  0  0  0  0  0  0  0  0  0
   42.1670    9.7210   43.1730 C   0  0  0  0  0  0  0  0  0  0  0  0
   41.2730   11.0910   42.2370 Br  0  0  0  0  0  0  0  0  0  0  0  0
   41.9950    8.4140   42.7100 C   0  0  0  0  0  3  0  0  0  0  0  0
   42.6070    7.3550   43.3270 C   0  0  0  0  0  3  0  0  0  0  0  0
   43.3920    7.5980   44.4090 C   0  0  0  0  0  3  0  0  0  0  0  0
   43.5610    8.8820   44.8620 C   0  0  0  0  0  3  0  0  0  0  0  0
   43.0100   11.8070   48.2430 C   0  0  0  0  0  0  0  0  0  0  0  0
   43.9100   10.9640   48.1290 O   0  0  0  0  0  0  0  0  0  0  0  0
   41.8490   11.4580   48.9220 O   0  0  0  0  0  0  0  0  0  0  0  0
   40.9770   12.5030   49.3700 C   0  0  0  0  0  1  0  0  0  0  0  0
  1  8  1  0  0  0  0
  2  1  1  0  0  0  0
  3  2  1  6  0  0  0
  3  7  1  0  0  0  0
  3  4  1  0  0  0  0
  4  5  1  0  0  0  0
  5 10  1  6  0  0  0
  6  5  1  0  0  0  0
  6 19  1  6  0  0  0
  7  8  1  1  0  0  0
  7  6  1  0  0  0  0
  8  9  2  0  0  0  0
 11  3  1  0  0  0  0
 11 10  1  0  0  0  0
 12  1  1  0  0  0  0
 12 18  1  0  0  0  0
 13 12  2  0  0  0  0
 14 13  1  0  0  0  0
 15 13  1  0  0  0  0
 15 16  2  0  0  0  0
 16 17  1  0  0  0  0
 17 18  2  0  0  0  0
 19 21  1  0  0  0  0
 20 19  2  0  0  0  0
 21 22  1  0  0  0  0
M  END
>  <Pose>
1

>  <Score>
-5.600

$$$$
