MODEL 1
REMARK VINA RESULT:    -6.861      0.000      0.000
REMARK INTER + INTRA:          -8.005
REMARK INTER:                  -7.663
REMARK INTRA:                  -0.342
REMARK UNBOUND:                -0.342
REMARK  2 active torsions:
REMARK  status: ('A' for Active; 'I' for Inactive)
REMARK    1  A    between atoms: N_4  and  C_8 
REMARK    2  A    between atoms: C_8  and  C_9 
ROOT
ATOM      1  C   UNK d   1      45.536   5.832  42.847  0.00  0.00     0.168 A 
ATOM      2  N   UNK d   1      44.614   5.377  43.716  0.00  0.00    -0.148 NA
ATOM      3  N   UNK d   1      43.843   6.389  44.115  0.00  0.00    -0.206 N 
ATOM      4  C   UNK d   1      44.257   7.520  43.507  0.00  0.00     0.169 A 
ATOM      5  N   UNK d   1      45.296   7.151  42.736  0.00  0.00    -0.209 NA
ATOM      6  C   UNK d   1      43.600   8.706  43.771  0.00  0.00     0.079 A 
ATOM      7  C   UNK d   1      42.529   8.780  44.639  0.00  0.00     0.162 A 
ATOM      8  N   UNK d   1      42.079  10.048  44.713  0.00  0.00    -0.256 N 
ATOM      9  N   UNK d   1      42.836  10.778  43.916  0.00  0.00    -0.182 NA
ATOM     10  C   UNK d   1      43.783   9.996  43.317  0.00  0.00     0.158 A 
ATOM     11  C   UNK d   1      40.974  10.564  45.505  0.00  0.00     0.182 C 
ATOM     12  N   UNK d   1      42.149   7.630  45.225  0.00  0.00    -0.222 NA
ATOM     13  C   UNK d   1      42.799   6.466  44.960  0.00  0.00     0.239 A 
ENDROOT
BRANCH   1  14
ATOM     14  C   UNK d   1      46.604   5.035  42.151  0.00  0.00     0.233 C 
BRANCH  14  15
ATOM     15  N   UNK d   1      47.664   4.667  43.061  0.00  0.00    -0.265 N 
ATOM     16  C   UNK d   1      48.404   3.554  42.958  0.00  0.00     0.046 A 
ATOM     17  C   UNK d   1      49.290   3.578  44.004  0.00  0.00     0.060 A 
ATOM     18  C   UNK d   1      48.316   2.473  41.925  0.00  0.00     0.071 C 
ATOM     19 Br   UNK d   1      50.609   2.271  44.404  0.00  0.00    -0.047 Br
ATOM     20  C   UNK d   1      49.073   4.716  44.734  0.00  0.00     0.070 A 
ATOM     21  N   UNK d   1      48.058   5.359  44.113  0.00  0.00    -0.176 NA
ATOM     22  C   UNK d   1      49.800   5.178  45.972  0.00  0.00     0.074 C 
ENDBRANCH  14  15
ENDBRANCH   1  14
TORSDOF 2
ENDMDL
