/Users/jonathanwahrer/Desktop/Msc/3_Semester/Drug_Design_Praktikum/waehrer_HTS_screening/HTS_experiment/out/docking_results/vina_output/2qfa/0085_docked.pdbqt
 OpenBabel03162219193D

 26 29  0  0  0  0  0  0  0  0999 V2000
   41.6020    9.4770   44.1350 C   0  0  0  0  0  0  0  0  0  0  0  0
   42.5000    9.0480   45.1320 C   0  0  0  0  0  0  0  0  0  0  0  0
   42.5360    9.3120   46.4660 N   0  0  0  0  0  0  0  0  0  0  0  0
   43.5600    8.6800   46.9530 O   0  0  0  0  0  0  0  0  0  0  0  0
   44.1820    8.0290   46.0190 N   0  0  0  0  0  0  0  0  0  0  0  0
   43.5580    8.2240   44.8500 C   0  0  0  0  0  0  0  0  0  0  0  0
   43.8150    7.7620   43.5750 C   0  0  0  0  0  0  0  0  0  0  0  0
   42.9320    8.1850   42.6000 C   0  0  0  0  0  3  0  0  0  0  0  0
   41.8530    9.0220   42.8760 C   0  0  0  0  0  3  0  0  0  0  0  0
   40.5440   10.3280   44.5440 N   0  0  0  0  0  0  0  0  0  0  0  0
   40.6590   11.6910   44.8020 C   0  0  0  0  0  0  0  0  0  0  0  0
   41.7970   12.2760   44.6680 O   0  0  0  0  0  0  0  0  0  0  0  0
   39.5670    9.9240   44.6610 H   0  0  0  0  0  0  0  0  0  0  0  0
   39.5320   12.5450   45.2340 C   0  0  0  0  0  0  0  0  0  0  0  0
   38.8480   12.5320   46.4050 C   0  0  0  0  0  0  0  0  0  0  0  0
   39.1220   11.4410   47.9490 Br  0  0  0  0  0  0  0  0  0  0  0  0
   37.8530   13.5250   46.3060 C   0  0  0  0  0  3  0  0  0  0  0  0
   38.0060   14.0580   45.0990 N   0  0  0  0  0  0  0  0  0  0  0  0
   38.9840   13.5150   44.4250 N   0  0  0  0  0  0  0  0  0  0  0  0
   39.4100   13.8600   43.0930 C   0  0  0  0  0  1  0  0  0  0  0  0
   44.8970    6.9170   43.2700 N   0  0  0  0  0  0  0  0  0  0  0  0
   44.7890    5.5000   43.6060 C   0  0  0  0  0  2  0  0  0  0  0  0
   46.0860    4.7740   43.3780 C   0  0  0  0  0  2  0  0  0  0  0  0
   47.2130    5.4450   43.7180 O   0  0  0  0  0  0  0  0  0  0  0  0
   47.2170    6.8060   43.6200 C   0  0  0  0  0  2  0  0  0  0  0  0
   46.1430    7.2540   42.6500 C   0  0  0  0  0  2  0  0  0  0  0  0
  1 10  1  0  0  0  0
  1  2  1  0  0  0  0
  2  3  2  0  0  0  0
  3  4  1  0  0  0  0
  5  4  1  0  0  0  0
  6  2  1  0  0  0  0
  6  5  2  0  0  0  0
  7  6  1  0  0  0  0
  8  9  1  0  0  0  0
  8  7  2  0  0  0  0
  9  1  2  0  0  0  0
 10 13  1  0  0  0  0
 10 11  1  0  0  0  0
 11 14  1  0  0  0  0
 12 11  2  0  0  0  0
 14 15  2  0  0  0  0
 15 16  1  0  0  0  0
 17 15  1  0  0  0  0
 18 17  2  0  0  0  0
 19 18  1  0  0  0  0
 19 14  1  0  0  0  0
 20 19  1  0  0  0  0
 21  7  1  0  0  0  0
 21 22  1  0  0  0  0
 23 22  1  0  0  0  0
 23 24  1  0  0  0  0
 25 24  1  0  0  0  0
 26 21  1  0  0  0  0
 26 25  1  0  0  0  0
M  END
>  <Pose>
1

>  <Score>
-6.726

$$$$
