/Users/jonathanwahrer/Desktop/Msc/3_Semester/Drug_Design_Praktikum/waehrer_HTS_screening/HTS_experiment/out/docking_results/vina_output/2qfa/0106_docked.pdbqt
 OpenBabel03162219203D

 29 32  0  0  0  0  0  0  0  0999 V2000
   44.1950   11.4670   43.8320 C   0  0  0  0  0  3  0  0  0  0  0  0
   43.9170   12.2740   44.8180 C   0  0  0  0  0  0  0  0  0  0  0  0
   42.9240   12.0520   45.7590 O   0  0  0  0  0  0  0  0  0  0  0  0
   42.8540   13.0760   46.6850 C   0  0  0  0  0  0  0  0  0  0  0  0
   43.7960   14.0400   46.4120 C   0  0  0  0  0  0  0  0  0  0  0  0
   43.8990   15.1560   47.2160 C   0  0  0  0  0  3  0  0  0  0  0  0
   43.0490   15.2960   48.2920 C   0  0  0  0  0  3  0  0  0  0  0  0
   42.0920   14.2940   48.5500 C   0  0  0  0  0  0  0  0  0  0  0  0
   41.9740   13.1840   47.7710 C   0  0  0  0  0  0  0  0  0  0  0  0
   41.2980   14.5720   49.6740 O   0  0  0  0  0  1  0  0  0  0  0  0
   44.4990   13.5590   45.2180 C   0  0  0  0  0  0  0  0  0  0  0  0
   45.4400   14.1350   44.6280 O   0  0  0  0  0  0  0  0  0  0  0  0
   43.5320   10.2080   43.5350 C   0  0  0  0  0  0  0  0  0  0  0  0
   44.0800    8.9820   43.8440 C   0  0  0  0  0  3  0  0  0  0  0  0
   43.4810    7.7890   43.5610 C   0  0  0  0  0  0  0  0  0  0  0  0
   44.2100    6.0770   43.9730 Br  0  0  0  0  0  0  0  0  0  0  0  0
   42.2440    7.8300   42.9240 C   0  0  0  0  0  3  0  0  0  0  0  0
   41.6420    9.0370   42.5870 C   0  0  0  0  0  3  0  0  0  0  0  0
   42.2890   10.2020   42.8940 C   0  0  0  0  0  0  0  0  0  0  0  0
   41.7200   11.4180   42.5690 O   0  0  0  0  0  0  0  0  0  0  0  0
   40.5880   11.8790   43.2590 C   0  0  0  0  0  1  0  0  0  0  0  0
   41.0310   12.1230   47.9970 C   0  0  0  0  0  2  0  0  0  0  0  0
   40.3440   11.4770   46.9550 N   0  0  0  0  0  4  0  0  0  0  0  0
   40.2530   10.0460   47.0560 C   0  0  0  0  0  2  0  0  0  0  0  0
   39.1420    9.5620   47.9550 C   0  0  0  0  0  2  0  0  0  0  0  0
   38.4820   10.5840   48.6220 O   0  0  0  0  0  0  0  0  0  0  0  0
   37.9640   11.4210   47.6400 C   0  0  0  0  0  2  0  0  0  0  0  0
   38.9930   12.0300   46.7460 C   0  0  0  0  0  2  0  0  0  0  0  0
   40.8130   11.6950   46.0510 H   0  0  0  0  0  0  0  0  0  0  0  0
  1  2  2  0  0  0  0
  2 11  1  0  0  0  0
  2  3  1  0  0  0  0
  3  4  1  0  0  0  0
  4  9  1  0  0  0  0
  5  4  2  0  0  0  0
  5  6  1  0  0  0  0
  6  7  2  0  0  0  0
  7  8  1  0  0  0  0
  8 10  1  0  0  0  0
  9 22  1  0  0  0  0
  9  8  2  0  0  0  0
 11  5  1  0  0  0  0
 12 11  2  0  0  0  0
 13  1  1  0  0  0  0
 13 14  1  0  0  0  0
 15 14  2  0  0  0  0
 15 16  1  0  0  0  0
 17 15  1  0  0  0  0
 18 19  1  0  0  0  0
 18 17  2  0  0  0  0
 19 13  2  0  0  0  0
 20 19  1  0  0  0  0
 20 21  1  0  0  0  0
 23 24  1  0  0  0  0
 23 22  1  0  0  0  0
 24 25  1  0  0  0  0
 25 26  1  0  0  0  0
 27 26  1  0  0  0  0
 28 23  1  0  0  0  0
 28 27  1  0  0  0  0
 29 23  1  0  0  0  0
M  END
>  <Pose>
1

>  <Score>
-6.468

$$$$
