MODEL 1
REMARK VINA RESULT:    -6.207      0.000      0.000
REMARK INTER + INTRA:          -9.257
REMARK INTER:                  -8.384
REMARK INTRA:                  -0.873
REMARK UNBOUND:                -0.873
REMARK  6 active torsions:
REMARK  status: ('A' for Active; 'I' for Inactive)
REMARK    1  A    between atoms: C_4  and  C_10 
REMARK    2  A    between atoms: C_5  and  O_8 
REMARK    3  A    between atoms: N_11  and  N_12 
REMARK    4  A    between atoms: N_12  and  C_13 
REMARK    5  A    between atoms: C_15  and  N_25 
REMARK    6  A    between atoms: C_17  and  N_19 
ROOT
ATOM      1  C   UNK d   1      42.737  11.146  46.817  0.00  0.00     0.774 A 
ATOM      2  N   UNK d   1      43.205  10.136  46.052  0.00  0.00     0.133 NA
ATOM      3  C   UNK d   1      42.468   9.592  45.077  0.00  0.00     0.756 A 
ATOM      4  N   UNK d   1      41.233  10.074  44.866  0.00  0.00     0.131 NA
ATOM      5  C   UNK d   1      40.698  11.089  45.596  0.00  0.00     0.756 A 
ATOM      6  N   UNK d   1      41.505  11.592  46.570  0.00  0.00     0.133 NA
ENDROOT
BRANCH   1   7
ATOM      7  N   UNK d   1      43.494  11.746  47.860  0.00  0.00    -0.105 N 
ATOM      8  H   UNK d   1      43.456  11.368  48.846  0.00  0.00     0.208 HD
BRANCH   7   9
ATOM      9  N   UNK d   1      44.319  12.853  47.653  0.00  0.00    -0.171 NA
ATOM     10  C   UNK d   1      43.940  13.929  47.075  0.00  0.00     0.153 C 
BRANCH  10  11
ATOM     11  C   UNK d   1      44.817  15.076  46.867  0.00  0.00     0.018 A 
ATOM     12  C   UNK d   1      45.656  15.153  45.782  0.00  0.00     0.034 A 
ATOM     13  C   UNK d   1      46.480  16.241  45.597  0.00  0.00     0.011 A 
ATOM     14 Br   UNK d   1      47.645  16.346  44.092  0.00  0.00    -0.051 Br
ATOM     15  C   UNK d   1      46.497  17.301  46.494  0.00  0.00     0.022 A 
ATOM     16  C   UNK d   1      45.653  17.229  47.591  0.00  0.00     0.039 A 
ATOM     17  C   UNK d   1      44.823  16.120  47.767  0.00  0.00     0.080 A 
BRANCH  17  18
ATOM     18  O   UNK d   1      43.964  16.017  48.855  0.00  0.00    -0.355 OA
ATOM     19  C   UNK d   1      42.769  16.751  48.983  0.00  0.00     0.210 C 
ENDBRANCH  17  18
ENDBRANCH  10  11
ENDBRANCH   7   9
ENDBRANCH   1   7
BRANCH   3  20
ATOM     20  N   UNK d   1      42.960   8.529  44.274  0.00  0.00    -0.209 N 
ATOM     21  C   UNK d   1      42.463   7.176  44.390  0.00  0.00     0.167 C 
ATOM     22  C   UNK d   1      43.597   6.164  44.330  0.00  0.00     0.188 C 
ATOM     23  O   UNK d   1      44.483   6.482  43.294  0.00  0.00    -0.388 OA
ATOM     24  C   UNK d   1      45.062   7.715  43.480  0.00  0.00     0.188 C 
ATOM     25  C   UNK d   1      43.997   8.773  43.296  0.00  0.00     0.167 C 
ENDBRANCH   3  20
BRANCH   5  26
ATOM     26  N   UNK d   1      39.403  11.589  45.369  0.00  0.00    -0.209 N 
ATOM     27  C   UNK d   1      39.192  12.920  44.882  0.00  0.00     0.167 C 
ATOM     28  C   UNK d   1      38.219  13.598  45.845  0.00  0.00     0.188 C 
ATOM     29  O   UNK d   1      37.086  12.806  45.899  0.00  0.00    -0.388 OA
ATOM     30  C   UNK d   1      37.309  11.588  46.496  0.00  0.00     0.188 C 
ATOM     31  C   UNK d   1      38.260  10.763  45.628  0.00  0.00     0.167 C 
ENDBRANCH   5  26
TORSDOF 6
ENDMDL
