/Users/jonathanwahrer/Desktop/Msc/3_Semester/Drug_Design_Praktikum/waehrer_HTS_screening/HTS_experiment/out/docking_results/vina_output/2qfa/0111_docked.pdbqt
 OpenBabel03162219203D

 29 32  0  0  0  0  0  0  0  0999 V2000
   42.9370   12.0340   45.0420 C   0  0  0  0  0  0  0  0  0  0  0  0
   42.7330   10.7580   45.2880 N   0  0  0  0  0  0  0  0  0  0  0  0
   43.1370    9.9940   44.2240 C   0  0  0  0  0  0  0  0  0  0  0  0
   43.6000   10.8560   43.2900 N   0  0  0  0  0  0  0  0  0  0  0  0
   43.4890   12.0540   43.7540 N   0  0  0  0  0  0  0  0  0  0  0  0
   42.9220    8.7030   44.4890 N   0  0  0  0  0  0  0  0  0  0  0  0
   42.3790    8.6390   45.7150 C   0  0  0  0  0  0  0  0  0  0  0  0
   42.2450    9.9200   46.2380 C   0  0  0  0  0  0  0  0  0  0  0  0
   41.7160   10.1550   47.4240 N   0  0  0  0  0  0  0  0  0  0  0  0
   41.3010    9.0640   48.1410 C   0  0  0  0  0  0  0  0  0  0  0  0
   40.7860    9.1720   49.2820 O   0  0  0  0  0  0  0  0  0  0  0  0
   41.4190    7.8060   47.6670 N   0  0  0  0  0  0  0  0  0  0  0  0
   41.9460    7.5670   46.4720 C   0  0  0  0  0  0  0  0  0  0  0  0
   42.0830    6.4200   45.9750 O   0  0  0  0  0  0  0  0  0  0  0  0
   41.4430   11.4100   48.0570 C   0  0  0  0  0  1  0  0  0  0  0  0
   41.0990    6.9870   48.2250 H   0  0  0  0  0  0  0  0  0  0  0  0
   42.7610   13.3060   45.6830 C   0  0  0  0  0  0  0  0  0  0  0  0
   43.6840   14.0820   46.3160 C   0  0  0  0  0  3  0  0  0  0  0  0
   43.4530   15.2820   46.9240 C   0  0  0  0  0  0  0  0  0  0  0  0
   44.8940   16.2120   47.7580 Br  0  0  0  0  0  0  0  0  0  0  0  0
   42.1900   15.7960   46.9250 C   0  0  0  0  0  3  0  0  0  0  0  0
   41.1850   15.0720   46.3020 C   0  0  0  0  0  3  0  0  0  0  0  0
   41.4640   13.8680   45.7020 C   0  0  0  0  0  0  0  0  0  0  0  0
   40.4310   13.1770   45.0920 O   0  0  0  0  0  0  0  0  0  0  0  0
   39.8180   13.5640   43.9020 C   0  0  0  0  0  1  0  0  0  0  0  0
   43.2080    7.5800   43.6460 C   0  0  0  0  0  2  0  0  0  0  0  0
   44.6820    7.2450   43.7350 C   0  0  0  0  0  2  0  0  0  0  0  0
   44.8080    5.8760   43.8700 O   0  0  0  0  0  0  0  0  0  0  0  0
   45.8950    5.3800   43.1300 C   0  0  0  0  0  1  0  0  0  0  0  0
  1  2  1  0  0  0  0
  1 17  1  0  0  0  0
  2  8  1  0  0  0  0
  3  6  1  0  0  0  0
  3  2  1  0  0  0  0
  4  5  1  0  0  0  0
  4  3  2  0  0  0  0
  5  1  2  0  0  0  0
  6  7  1  0  0  0  0
  7  8  2  0  0  0  0
  7 13  1  0  0  0  0
  8  9  1  0  0  0  0
  9 15  1  0  0  0  0
  9 10  1  0  0  0  0
 10 11  2  0  0  0  0
 12 10  1  0  0  0  0
 12 16  1  0  0  0  0
 13 12  1  0  0  0  0
 14 13  2  0  0  0  0
 17 23  2  0  0  0  0
 17 18  1  0  0  0  0
 18 19  2  0  0  0  0
 19 21  1  0  0  0  0
 19 20  1  0  0  0  0
 22 21  2  0  0  0  0
 23 22  1  0  0  0  0
 24 23  1  0  0  0  0
 25 24  1  0  0  0  0
 26 27  1  0  0  0  0
 26  6  1  0  0  0  0
 27 28  1  0  0  0  0
 29 28  1  0  0  0  0
M  END
>  <Pose>
1

>  <Score>
-6.121

$$$$
