MODEL 1
REMARK VINA RESULT:    -8.079      0.000      0.000
REMARK INTER + INTRA:         -10.003
REMARK INTER:                  -9.495
REMARK INTRA:                  -0.507
REMARK UNBOUND:                -0.507
REMARK  3 active torsions:
REMARK  status: ('A' for Active; 'I' for Inactive)
REMARK    1  A    between atoms: C_4  and  C_8 
REMARK       I    between atoms: C_8  and  N_10 
REMARK    2  A    between atoms: N_10  and  C_11 
REMARK    3  A    between atoms: C_11  and  C_13 
REMARK       I    between atoms: C_13  and  N_15 
ROOT
ATOM      1  C   UNK d   1      43.079   7.988  44.934  0.00  0.00     0.242 C 
ATOM      2  O   UNK d   1      42.716   6.921  45.522  0.00  0.00    -0.271 OA
ATOM      3  N   UNK d   1      42.938   9.251  45.577  0.00  0.00    -0.350 N 
ATOM      4  C   UNK d   1      43.178  10.499  44.897  0.00  0.00     0.129 C 
ATOM      5  C   UNK d   1      41.775  11.150  44.867  0.00  0.00     0.068 C 
ATOM      6  C   UNK d   1      41.537  11.606  46.282  0.00  0.00     0.204 C 
ATOM      7  N   UNK d   1      40.107  11.884  46.392  0.00  0.00     0.099 N 
ATOM      8  C   UNK d   1      39.647  12.837  45.452  0.00  0.00     0.277 C 
ATOM      9  C   UNK d   1      40.266  14.210  45.643  0.00  0.00     0.091 C 
ATOM     10  C   UNK d   1      41.656  14.123  46.127  0.00  0.00     0.062 A 
ATOM     11  N   UNK d   1      42.542  15.108  46.350  0.00  0.00    -0.246 NA
ATOM     12  C   UNK d   1      43.679  14.532  46.797  0.00  0.00     0.207 A 
ATOM     13  N   UNK d   1      43.482  13.190  46.845  0.00  0.00    -0.350 N 
ATOM     14  C   UNK d   1      42.232  12.905  46.431  0.00  0.00     0.074 A 
ATOM     15  C   UNK d   1      41.900  10.623  47.339  0.00  0.00     0.068 C 
ATOM     16  C   UNK d   1      42.531   9.334  46.933  0.00  0.00     0.129 C 
ATOM     17  H   UNK d   1      39.823  12.114  47.378  0.00  0.00     0.317 HD
ATOM     18  H   UNK d   1      44.257  12.579  47.172  0.00  0.00     0.166 HD
ENDROOT
BRANCH   1  19
ATOM     19  C   UNK d   1      43.621   7.842  43.591  0.00  0.00     0.173 C 
ATOM     20  C   UNK d   1      42.483   7.748  42.586  0.00  0.00     0.042 C 
BRANCH  19  21
ATOM     21  N   UNK d   1      44.612   6.836  43.466  0.00  0.00    -0.344 N 
ATOM     22  C   UNK d   1      45.894   7.033  42.964  0.00  0.00     0.252 C 
ATOM     23  O   UNK d   1      46.448   8.049  42.580  0.00  0.00    -0.268 OA
ATOM     24  H   UNK d   1      44.341   5.877  43.840  0.00  0.00     0.163 HD
BRANCH  22  25
ATOM     25  C   UNK d   1      46.707   5.762  42.879  0.00  0.00     0.033 A 
ATOM     26  C   UNK d   1      47.649   5.551  43.863  0.00  0.00     0.036 A 
ATOM     27  C   UNK d   1      48.440   4.428  43.807  0.00  0.00     0.011 A 
ATOM     28 Br   UNK d   1      49.749   4.119  45.186  0.00  0.00    -0.051 Br
ATOM     29  C   UNK d   1      48.325   3.501  42.792  0.00  0.00     0.019 A 
ATOM     30  C   UNK d   1      47.357   3.767  41.821  0.00  0.00     0.002 A 
ATOM     31  C   UNK d   1      46.558   4.877  41.860  0.00  0.00     0.017 A 
ENDBRANCH  22  25
ENDBRANCH  19  21
ENDBRANCH   1  19
TORSDOF 3
ENDMDL
