MODEL 1
REMARK VINA RESULT:    -7.780      0.000      0.000
REMARK INTER + INTRA:          -9.027
REMARK INTER:                  -8.689
REMARK INTRA:                  -0.337
REMARK UNBOUND:                -0.337
REMARK  2 active torsions:
REMARK  status: ('A' for Active; 'I' for Inactive)
REMARK    1  A    between atoms: C_4  and  C_8 
REMARK       I    between atoms: C_8  and  N_10 
REMARK    2  A    between atoms: N_10  and  C_11 
ROOT
ATOM      1  C   UNK d   1      44.986   7.286  43.811  0.00  0.00     0.105 C 
ATOM      2  C   UNK d   1      43.660   6.695  44.418  0.00  0.00     0.152 C 
ATOM      3  N   UNK d   1      43.025   7.829  44.999  0.00  0.00    -0.335 N 
ATOM      4  C   UNK d   1      43.558   9.039  44.391  0.00  0.00     0.181 C 
ATOM      5  C   UNK d   1      44.320   8.566  43.221  0.00  0.00     0.061 C 
ATOM      6  C   UNK d   1      42.476  10.007  44.150  0.00  0.00     0.243 C 
ATOM      7  O   UNK d   1      42.474  10.671  43.099  0.00  0.00    -0.271 OA
ATOM      8  N   UNK d   1      41.449  10.181  45.104  0.00  0.00    -0.337 N 
ATOM      9  C   UNK d   1      41.024   9.058  45.911  0.00  0.00     0.179 C 
ATOM     10  C   UNK d   1      40.616   9.648  47.245  0.00  0.00     0.037 C 
ATOM     11  C   UNK d   1      40.731  11.121  47.066  0.00  0.00     0.022 C 
ATOM     12  C   UNK d   1      40.620  11.298  45.544  0.00  0.00     0.127 C 
ATOM     13  C   UNK d   1      42.027   8.002  45.998  0.00  0.00     0.243 C 
ATOM     14  O   UNK d   1      42.023   7.199  46.996  0.00  0.00    -0.271 OA
ENDROOT
BRANCH   1  15
ATOM     15  N   UNK d   1      45.588   6.460  42.963  0.00  0.00    -0.351 N 
ATOM     16  C   UNK d   1      46.205   5.607  42.083  0.00  0.00     0.252 C 
ATOM     17  O   UNK d   1      45.999   5.425  40.843  0.00  0.00    -0.268 OA
ATOM     18  H   UNK d   1      44.785   6.905  41.937  0.00  0.00     0.163 HD
BRANCH  16  19
ATOM     19  C   UNK d   1      47.315   4.708  42.583  0.00  0.00     0.033 A 
ATOM     20  C   UNK d   1      47.990   4.994  43.745  0.00  0.00     0.036 A 
ATOM     21  C   UNK d   1      48.999   4.196  44.226  0.00  0.00     0.011 A 
ATOM     22 Br   UNK d   1      49.914   4.575  45.848  0.00  0.00    -0.051 Br
ATOM     23  C   UNK d   1      49.324   3.065  43.483  0.00  0.00     0.019 A 
ATOM     24  C   UNK d   1      48.671   2.751  42.323  0.00  0.00     0.002 A 
ATOM     25  C   UNK d   1      47.656   3.586  41.872  0.00  0.00     0.017 A 
ENDBRANCH  16  19
ENDBRANCH   1  15
TORSDOF 2
ENDMDL
