/Users/jonathanwahrer/Desktop/Msc/3_Semester/Drug_Design_Praktikum/waehrer_HTS_screening/HTS_experiment/out/docking_results/vina_output/2qfa/0141_docked.pdbqt
 OpenBabel03162219223D

 23 26  0  0  1  0  0  0  0  0999 V2000
   45.4040    6.3750   43.5030 N   0  0  0  0  0  0  0  0  0  0  0  0
   45.6160    7.6900   42.9530 C   0  0  0  0  0  0  0  0  0  0  0  0
   46.7130    8.2120   42.5780 O   0  0  0  0  0  0  0  0  0  0  0  0
   44.3360    8.3680   42.8830 C   0  0  1  0  0  3  0  0  0  0  0  0
   43.2600    7.2670   42.9640 C   0  0  2  0  0  3  0  0  0  0  0  0
   42.1720    7.8220   43.8240 C   0  0  2  0  0  3  0  0  0  0  0  0
   42.4680    9.3350   43.7750 C   0  0  0  0  0  2  0  0  0  0  0  0
   43.9560    9.1400   44.1390 C   0  0  1  0  0  3  0  0  0  0  0  0
   43.7930    8.2140   45.2960 C   0  0  0  0  0  2  0  0  0  0  0  0
   42.6000    7.6060   45.2540 C   0  0  0  0  0  2  0  0  0  0  0  0
   44.0350    6.2440   43.7710 C   0  0  0  0  0  0  0  0  0  0  0  0
   43.5040    5.4220   44.5510 O   0  0  0  0  0  0  0  0  0  0  0  0
   46.4790    5.4840   43.6890 N   0  0  0  0  0  0  0  0  0  0  0  0
   47.1460    4.7830   42.6700 C   0  0  0  0  0  0  0  0  0  0  0  0
   46.8150    4.9110   41.4780 O   0  0  0  0  0  0  0  0  0  0  0  0
   46.8420    5.3010   44.6780 H   0  0  0  0  0  0  0  0  0  0  0  0
   48.2430    3.8830   42.9660 C   0  0  0  0  0  0  0  0  0  0  0  0
   49.0520    4.1470   44.0680 C   0  0  0  0  0  3  0  0  0  0  0  0
   50.0990    3.3190   44.3890 C   0  0  0  0  0  0  0  0  0  0  0  0
   51.1680    3.7430   45.9060 Br  0  0  0  0  0  0  0  0  0  0  0  0
   50.3810    2.1930   43.6250 C   0  0  0  0  0  3  0  0  0  0  0  0
   49.5690    1.9540   42.5430 C   0  0  0  0  0  3  0  0  0  0  0  0
   48.5180    2.7810   42.2160 C   0  0  0  0  0  3  0  0  0  0  0  0
  1 13  1  0  0  0  0
  1 11  1  0  0  0  0
  2  1  1  0  0  0  0
  3  2  2  0  0  0  0
  4  2  1  1  0  0  0
  4  5  1  0  0  0  0
  4  8  1  0  0  0  0
  5 11  1  1  0  0  0
  5  6  1  0  0  0  0
  6  7  1  6  0  0  0
  6 10  1  0  0  0  0
  8  7  1  6  0  0  0
  8  9  1  0  0  0  0
 10  9  1  0  0  0  0
 11 12  2  0  0  0  0
 13 16  1  0  0  0  0
 14 17  1  0  0  0  0
 14 13  1  0  0  0  0
 15 14  2  0  0  0  0
 17 18  1  0  0  0  0
 18 19  2  0  0  0  0
 19 20  1  0  0  0  0
 21 19  1  0  0  0  0
 22 21  2  0  0  0  0
 23 22  1  0  0  0  0
 23 17  2  0  0  0  0
M  END
>  <Pose>
1

>  <Score>
-7.688

$$$$
