MODEL 1
REMARK VINA RESULT:    -8.034      0.000      0.000
REMARK INTER + INTRA:         -11.332
REMARK INTER:                 -11.087
REMARK INTRA:                  -0.245
REMARK UNBOUND:                -0.245
REMARK  7 active torsions:
REMARK  status: ('A' for Active; 'I' for Inactive)
REMARK    1  A    between atoms: C_4  and  C_8 
REMARK    2  A    between atoms: N_9  and  N_10 
REMARK       I    between atoms: N_10  and  C_11 
REMARK    3  A    between atoms: C_11  and  C_13 
REMARK    4  A    between atoms: N_16  and  C_26 
REMARK    5  A    between atoms: C_17  and  C_18 
REMARK    6  A    between atoms: C_18  and  N_19 
REMARK    7  A    between atoms: C_30  and  N_31 
ROOT
ATOM      1  C   UNK d   1      48.351   4.131  43.337  0.00  0.00     0.169 A 
ATOM      2  N   UNK d   1      47.985   3.697  42.180  0.00  0.00    -0.152 NA
ATOM      3  N   UNK d   1      48.684   2.613  41.859  0.00  0.00     0.012 NA
ATOM      4  N   UNK d   1      49.554   2.343  42.867  0.00  0.00    -0.215 N 
ATOM      5  C   UNK d   1      49.376   3.216  43.803  0.00  0.00     0.087 A 
ENDROOT
BRANCH   1   6
ATOM      6  C   UNK d   1      48.024   5.417  44.082  0.00  0.00     0.293 C 
ATOM      7  N   UNK d   1      46.851   6.013  43.717  0.00  0.00    -0.242 N 
ATOM      8  H   UNK d   1      46.358   5.198  42.949  0.00  0.00     0.192 HD
ATOM      9  O   UNK d   1      48.842   5.786  44.953  0.00  0.00    -0.264 OA
BRANCH   7  10
ATOM     10  N   UNK d   1      45.925   6.944  43.765  0.00  0.00    -0.183 NA
ATOM     11  C   UNK d   1      44.713   6.897  43.286  0.00  0.00     0.150 C 
BRANCH  11  12
ATOM     12  C   UNK d   1      43.771   8.029  43.389  0.00  0.00    -0.016 A 
ATOM     13  C   UNK d   1      44.029   9.221  44.037  0.00  0.00     0.032 A 
ATOM     14  C   UNK d   1      43.107  10.262  43.943  0.00  0.00     0.011 A 
ATOM     15 Br   UNK d   1      43.419  11.960  44.777  0.00  0.00    -0.051 Br
ATOM     16  C   UNK d   1      41.921  10.172  43.223  0.00  0.00     0.019 A 
ATOM     17  C   UNK d   1      41.715   8.962  42.613  0.00  0.00     0.002 A 
ATOM     18  C   UNK d   1      42.592   7.918  42.675  0.00  0.00     0.013 A 
ENDBRANCH  11  12
ENDBRANCH   7  10
ENDBRANCH   1   6
BRANCH   5  19
ATOM     19  C   UNK d   1      49.921   3.448  45.136  0.00  0.00     0.178 C 
BRANCH  19  20
ATOM     20  N   UNK d   1      51.275   3.642  45.389  0.00  0.00    -0.404 N 
ATOM     21  C   UNK d   1      52.200   4.557  45.056  0.00  0.00     0.136 C 
ATOM     22  C   UNK d   1      52.546   5.388  46.321  0.00  0.00     0.135 C 
ATOM     23  N   UNK d   1      51.424   5.322  47.188  0.00  0.00    -0.414 N 
ATOM     24  C   UNK d   1      51.290   4.016  47.757  0.00  0.00     0.135 C 
ATOM     25  C   UNK d   1      51.126   6.408  48.023  0.00  0.00     0.143 C 
ATOM     26  C   UNK d   1      51.669   2.996  46.676  0.00  0.00     0.136 C 
ENDBRANCH  19  20
ENDBRANCH   5  19
BRANCH   4  27
ATOM     27  C   UNK d   1      50.708   1.522  42.533  0.00  0.00     0.225 A 
ATOM     28  N   UNK d   1      51.767   2.257  41.883  0.00  0.00    -0.081 NA
ATOM     29  O   UNK d   1      52.729   1.510  41.611  0.00  0.00    -0.103 OA
ATOM     30  N   UNK d   1      52.455   0.303  42.001  0.00  0.00    -0.083 NA
ATOM     31  C   UNK d   1      51.186   0.327  42.579  0.00  0.00     0.201 A 
BRANCH  31  32
ATOM     32  N   UNK d   1      50.641  -0.865  43.096  0.00  0.00    -0.379 N 
ATOM     33  H   UNK d   1      50.989  -1.081  44.096  0.00  0.00     0.158 HD
ATOM     34  H   UNK d   1      50.004  -1.537  42.715  0.00  0.00     0.158 HD
ENDBRANCH  31  32
ENDBRANCH   4  27
TORSDOF 7
ENDMDL
