/Users/jonathanwahrer/Desktop/Msc/3_Semester/Drug_Design_Praktikum/waehrer_HTS_screening/HTS_experiment/out/docking_results/vina_output/2qfa/0153_docked.pdbqt
 OpenBabel03162219233D

 34 37  0  0  0  0  0  0  0  0999 V2000
   48.3510    4.1310   43.3370 C   0  0  0  0  0  0  0  0  0  0  0  0
   47.9850    3.6970   42.1800 N   0  0  0  0  0  0  0  0  0  0  0  0
   48.6840    2.6130   41.8590 N   0  0  0  0  0  0  0  0  0  0  0  0
   49.5540    2.3430   42.8670 N   0  0  0  0  0  0  0  0  0  0  0  0
   49.3760    3.2160   43.8030 C   0  0  0  0  0  0  0  0  0  0  0  0
   48.0240    5.4170   44.0820 C   0  0  0  0  0  0  0  0  0  0  0  0
   46.8510    6.0130   43.7170 N   0  0  0  0  0  0  0  0  0  0  0  0
   46.3580    5.1980   42.9490 H   0  0  0  0  0  0  0  0  0  0  0  0
   48.8420    5.7860   44.9530 O   0  0  0  0  0  0  0  0  0  0  0  0
   45.9250    6.9440   43.7650 N   0  0  0  0  0  0  0  0  0  0  0  0
   44.7130    6.8970   43.2860 C   0  0  0  0  0  3  0  0  0  0  0  0
   43.7710    8.0290   43.3890 C   0  0  0  0  0  0  0  0  0  0  0  0
   44.0290    9.2210   44.0370 C   0  0  0  0  0  3  0  0  0  0  0  0
   43.1070   10.2620   43.9430 C   0  0  0  0  0  0  0  0  0  0  0  0
   43.4190   11.9600   44.7770 Br  0  0  0  0  0  0  0  0  0  0  0  0
   41.9210   10.1720   43.2230 C   0  0  0  0  0  3  0  0  0  0  0  0
   41.7150    8.9620   42.6130 C   0  0  0  0  0  3  0  0  0  0  0  0
   42.5920    7.9180   42.6750 C   0  0  0  0  0  3  0  0  0  0  0  0
   49.9210    3.4480   45.1360 C   0  0  0  0  0  2  0  0  0  0  0  0
   51.2750    3.6420   45.3890 N   0  0  0  0  0  0  0  0  0  0  0  0
   52.2000    4.5570   45.0560 C   0  0  0  0  0  2  0  0  0  0  0  0
   52.5460    5.3880   46.3210 C   0  0  0  0  0  2  0  0  0  0  0  0
   51.4240    5.3220   47.1880 N   0  0  0  0  0  0  0  0  0  0  0  0
   51.2900    4.0160   47.7570 C   0  0  0  0  0  2  0  0  0  0  0  0
   51.1260    6.4080   48.0230 C   0  0  0  0  0  1  0  0  0  0  0  0
   51.6690    2.9960   46.6760 C   0  0  0  0  0  2  0  0  0  0  0  0
   50.7080    1.5220   42.5330 C   0  0  0  0  0  0  0  0  0  0  0  0
   51.7670    2.2570   41.8830 N   0  0  0  0  0  0  0  0  0  0  0  0
   52.7290    1.5100   41.6110 O   0  0  0  0  0  0  0  0  0  0  0  0
   52.4550    0.3030   42.0010 N   0  0  0  0  0  0  0  0  0  0  0  0
   51.1860    0.3270   42.5790 C   0  0  0  0  0  0  0  0  0  0  0  0
   50.6410   -0.8650   43.0960 N   0  0  0  0  0  0  0  0  0  0  0  0
   50.9890   -1.0810   44.0960 H   0  0  0  0  0  0  0  0  0  0  0  0
   50.0040   -1.5370   42.7150 H   0  0  0  0  0  0  0  0  0  0  0  0
  1  5  2  0  0  0  0
  1  6  1  0  0  0  0
  2  1  1  0  0  0  0
  3  2  2  0  0  0  0
  3  4  1  0  0  0  0
  4  5  1  0  0  0  0
  5 19  1  0  0  0  0
  6  9  2  0  0  0  0
  7 10  1  0  0  0  0
  7  6  1  0  0  0  0
  8  7  1  0  0  0  0
 11 12  1  0  0  0  0
 11 10  2  0  0  0  0
 12 13  1  0  0  0  0
 14 13  2  0  0  0  0
 14 15  1  0  0  0  0
 16 14  1  0  0  0  0
 17 18  1  0  0  0  0
 17 16  2  0  0  0  0
 18 12  2  0  0  0  0
 19 20  1  0  0  0  0
 20 26  1  0  0  0  0
 21 20  1  0  0  0  0
 21 22  1  0  0  0  0
 22 23  1  0  0  0  0
 23 24  1  0  0  0  0
 23 25  1  0  0  0  0
 26 24  1  0  0  0  0
 27 31  1  0  0  0  0
 27  4  1  0  0  0  0
 28 27  2  0  0  0  0
 29 28  1  0  0  0  0
 29 30  1  0  0  0  0
 30 31  2  0  0  0  0
 31 32  1  0  0  0  0
 32 33  1  0  0  0  0
 34 32  1  0  0  0  0
M  END
>  <Pose>
1

>  <Score>
-8.034

$$$$
