MODEL 1
REMARK VINA RESULT:    -6.696      0.000      0.000
REMARK INTER + INTRA:         -11.164
REMARK INTER:                  -9.437
REMARK INTRA:                  -1.727
REMARK UNBOUND:                -1.727
REMARK  7 active torsions:
REMARK  status: ('A' for Active; 'I' for Inactive)
REMARK    1  A    between atoms: C_4  and  C_8 
REMARK    2  A    between atoms: N_9  and  C_29 
REMARK    3  A    between atoms: C_15  and  C_17 
REMARK    4  A    between atoms: N_19  and  C_22 
REMARK    5  A    between atoms: C_29  and  C_30 
REMARK    6  A    between atoms: C_30  and  C_31 
REMARK    7  A    between atoms: C_31  and  N_32 
ROOT
ATOM      1  C   UNK d   1      41.188  12.013  46.047  0.00  0.00     0.161 C 
ATOM      2  N   UNK d   1      41.778  12.585  47.199  0.00  0.00    -0.332 N 
ATOM      3  C   UNK d   1      42.602  11.625  47.840  0.00  0.00     0.295 C 
ATOM      4  O   UNK d   1      43.195  11.800  48.950  0.00  0.00    -0.264 OA
ATOM      5  C   UNK d   1      42.650  10.437  47.017  0.00  0.00     0.250 C 
ATOM      6  O   UNK d   1      43.315   9.421  47.358  0.00  0.00    -0.282 OA
ATOM      7  C   UNK d   1      41.830  10.688  45.847  0.00  0.00     0.062 C 
ATOM      8  C   UNK d   1      41.673   9.845  44.852  0.00  0.00     0.133 C 
ATOM      9  O   UNK d   1      40.813  10.171  43.828  0.00  0.00    -0.190 OA
ENDROOT
BRANCH   1  10
ATOM     10  C   UNK d   1      39.733  11.904  46.200  0.00  0.00    -0.029 A 
ATOM     11  C   UNK d   1      38.929  12.773  45.483  0.00  0.00     0.028 A 
ATOM     12  C   UNK d   1      37.568  12.790  45.499  0.00  0.00     0.011 A 
ATOM     13 Br   UNK d   1      36.507  14.013  44.487  0.00  0.00    -0.051 Br
ATOM     14  C   UNK d   1      36.938  11.839  46.318  0.00  0.00     0.019 A 
ATOM     15  C   UNK d   1      37.714  10.956  47.048  0.00  0.00     0.002 A 
ATOM     16  C   UNK d   1      39.095  10.966  47.007  0.00  0.00     0.009 A 
ENDBRANCH   1  10
BRANCH   8  17
ATOM     17  C   UNK d   1      42.388   8.595  44.810  0.00  0.00     0.045 A 
ATOM     18  C   UNK d   1      43.617   8.414  44.150  0.00  0.00     0.047 A 
ATOM     19  N   UNK d   1      44.031   7.154  44.332  0.00  0.00    -0.238 N 
ATOM     20  C   UNK d   1      44.313   9.488  43.383  0.00  0.00     0.071 C 
ATOM     21  N   UNK d   1      43.118   6.550  45.070  0.00  0.00    -0.179 NA
ATOM     22  C   UNK d   1      42.114   7.383  45.381  0.00  0.00     0.155 A 
BRANCH  19  23
ATOM     23  C   UNK d   1      45.227   6.563  43.845  0.00  0.00     0.058 A 
ATOM     24  C   UNK d   1      45.144   5.635  42.817  0.00  0.00     0.031 A 
ATOM     25  C   UNK d   1      46.266   5.029  42.288  0.00  0.00     0.002 A 
ATOM     26  C   UNK d   1      47.540   5.330  42.772  0.00  0.00     0.000 A 
ATOM     27  C   UNK d   1      47.623   6.255  43.797  0.00  0.00     0.002 A 
ATOM     28  C   UNK d   1      46.494   6.843  44.305  0.00  0.00     0.031 A 
ENDBRANCH  19  23
ENDBRANCH   8  17
BRANCH   2  29
ATOM     29  C   UNK d   1      41.611  13.982  47.689  0.00  0.00     0.129 C 
BRANCH  29  30
ATOM     30  C   UNK d   1      42.405  14.921  46.819  0.00  0.00     0.048 C 
BRANCH  30  31
ATOM     31  C   UNK d   1      43.883  14.706  46.902  0.00  0.00     0.235 C 
BRANCH  31  32
ATOM     32  N   UNK d   1      44.580  14.626  45.661  0.00  0.00    -0.079 N 
ATOM     33  C   UNK d   1      45.924  15.101  45.655  0.00  0.00     0.269 C 
ATOM     34  C   UNK d   1      44.599  13.235  45.180  0.00  0.00     0.269 C 
ATOM     35  H   UNK d   1      44.035  15.152  44.912  0.00  0.00     0.278 HD
ENDBRANCH  31  32
ENDBRANCH  30  31
ENDBRANCH  29  30
ENDBRANCH   2  29
TORSDOF 7
ENDMDL
