/Users/jonathanwahrer/Desktop/Msc/3_Semester/Drug_Design_Praktikum/waehrer_HTS_screening/HTS_experiment/out/docking_results/vina_output/2qfa/0167_docked.pdbqt
 OpenBabel03162219233D

 35 38  0  0  1  0  0  0  0  0999 V2000
   41.1880   12.0130   46.0470 C   0  0  1  0  0  3  0  0  0  0  0  0
   41.7780   12.5850   47.1990 N   0  0  0  0  0  0  0  0  0  0  0  0
   42.6020   11.6250   47.8400 C   0  0  0  0  0  0  0  0  0  0  0  0
   43.1950   11.8000   48.9500 O   0  0  0  0  0  0  0  0  0  0  0  0
   42.6500   10.4370   47.0170 C   0  0  0  0  0  0  0  0  0  0  0  0
   43.3150    9.4210   47.3580 O   0  0  0  0  0  0  0  0  0  0  0  0
   41.8300   10.6880   45.8470 C   0  0  0  0  0  0  0  0  0  0  0  0
   41.6730    9.8450   44.8520 C   0  0  0  0  0  0  0  0  0  0  0  0
   40.8130   10.1710   43.8280 O   0  0  0  0  0  1  0  0  0  0  0  0
   39.7330   11.9040   46.2000 C   0  0  0  0  0  0  0  0  0  0  0  0
   38.9290   12.7730   45.4830 C   0  0  0  0  0  3  0  0  0  0  0  0
   37.5680   12.7900   45.4990 C   0  0  0  0  0  0  0  0  0  0  0  0
   36.5070   14.0130   44.4870 Br  0  0  0  0  0  0  0  0  0  0  0  0
   36.9380   11.8390   46.3180 C   0  0  0  0  0  3  0  0  0  0  0  0
   37.7140   10.9560   47.0480 C   0  0  0  0  0  3  0  0  0  0  0  0
   39.0950   10.9660   47.0070 C   0  0  0  0  0  3  0  0  0  0  0  0
   42.3880    8.5950   44.8100 C   0  0  0  0  0  0  0  0  0  0  0  0
   43.6170    8.4140   44.1500 C   0  0  0  0  0  0  0  0  0  0  0  0
   44.0310    7.1540   44.3320 N   0  0  0  0  0  0  0  0  0  0  0  0
   44.3130    9.4880   43.3830 C   0  0  0  0  0  1  0  0  0  0  0  0
   43.1180    6.5500   45.0700 N   0  0  0  0  0  0  0  0  0  0  0  0
   42.1140    7.3830   45.3810 C   0  0  0  0  0  3  0  0  0  0  0  0
   45.2270    6.5630   43.8450 C   0  0  0  0  0  0  0  0  0  0  0  0
   45.1440    5.6350   42.8170 C   0  0  0  0  0  3  0  0  0  0  0  0
   46.2660    5.0290   42.2880 C   0  0  0  0  0  3  0  0  0  0  0  0
   47.5400    5.3300   42.7720 C   0  0  0  0  0  3  0  0  0  0  0  0
   47.6230    6.2550   43.7970 C   0  0  0  0  0  3  0  0  0  0  0  0
   46.4940    6.8430   44.3050 C   0  0  0  0  0  3  0  0  0  0  0  0
   41.6110   13.9820   47.6890 C   0  0  0  0  0  2  0  0  0  0  0  0
   42.4050   14.9210   46.8190 C   0  0  0  0  0  2  0  0  0  0  0  0
   43.8830   14.7060   46.9020 C   0  0  0  0  0  2  0  0  0  0  0  0
   44.5800   14.6260   45.6610 N   0  0  0  0  0  4  0  0  0  0  0  0
   45.9240   15.1010   45.6550 C   0  0  0  0  0  1  0  0  0  0  0  0
   44.5990   13.2350   45.1800 C   0  0  0  0  0  1  0  0  0  0  0  0
   44.0350   15.1520   44.9120 H   0  0  0  0  0  0  0  0  0  0  0  0
  1 10  1  1  0  0  0
  1  2  1  0  0  0  0
  2 29  1  0  0  0  0
  2  3  1  0  0  0  0
  3  4  2  0  0  0  0
  5  6  2  0  0  0  0
  5  3  1  0  0  0  0
  7  1  1  0  0  0  0
  7  5  1  0  0  0  0
  8  7  2  0  0  0  0
  9  8  1  0  0  0  0
 10 16  1  0  0  0  0
 11 12  1  0  0  0  0
 11 10  2  0  0  0  0
 12 14  2  0  0  0  0
 13 12  1  0  0  0  0
 14 15  1  0  0  0  0
 16 15  2  0  0  0  0
 17  8  1  0  0  0  0
 17 22  1  0  0  0  0
 18 19  1  0  0  0  0
 18 17  2  0  0  0  0
 19 21  1  0  0  0  0
 20 18  1  0  0  0  0
 21 22  2  0  0  0  0
 23 28  1  0  0  0  0
 23 19  1  0  0  0  0
 24 23  2  0  0  0  0
 25 26  2  0  0  0  0
 25 24  1  0  0  0  0
 26 27  1  0  0  0  0
 27 28  2  0  0  0  0
 30 31  1  0  0  0  0
 30 29  1  0  0  0  0
 32 31  1  0  0  0  0
 33 32  1  0  0  0  0
 34 32  1  0  0  0  0
 35 32  1  0  0  0  0
M  END
>  <Pose>
1

>  <Score>
-6.696

$$$$
