MODEL 1
REMARK VINA RESULT:    -6.949      0.000      0.000
REMARK INTER + INTRA:         -11.345
REMARK INTER:                  -9.792
REMARK INTRA:                  -1.552
REMARK UNBOUND:                -1.552
REMARK  7 active torsions:
REMARK  status: ('A' for Active; 'I' for Inactive)
REMARK    1  A    between atoms: C_4  and  C_8 
REMARK    2  A    between atoms: N_9  and  C_28 
REMARK    3  A    between atoms: C_15  and  C_17 
REMARK    4  A    between atoms: C_20  and  C_23 
REMARK    5  A    between atoms: C_23  and  O_25 
REMARK    6  A    between atoms: C_28  and  C_29 
REMARK    7  A    between atoms: C_29  and  N_30 
ROOT
ATOM      1  C   UNK d   1      42.178  11.067  45.250  0.00  0.00     0.161 C 
ATOM      2  N   UNK d   1      42.164  10.471  43.929  0.00  0.00    -0.331 N 
ATOM      3  C   UNK d   1      41.444  11.368  43.096  0.00  0.00     0.295 C 
ATOM      4  O   UNK d   1      41.543  11.500  41.856  0.00  0.00    -0.264 OA
ATOM      5  C   UNK d   1      40.538  12.136  43.978  0.00  0.00     0.250 C 
ATOM      6  O   UNK d   1      39.726  13.026  43.641  0.00  0.00    -0.282 OA
ATOM      7  C   UNK d   1      40.785  11.635  45.322  0.00  0.00     0.062 C 
ATOM      8  C   UNK d   1      39.942  11.654  46.309  0.00  0.00     0.132 C 
ATOM      9  O   UNK d   1      40.334  11.063  47.528  0.00  0.00    -0.190 OA
ENDROOT
BRANCH   1  10
ATOM     10  C   UNK d   1      43.179  12.160  45.259  0.00  0.00    -0.029 A 
ATOM     11  C   UNK d   1      43.075  13.238  46.128  0.00  0.00     0.028 A 
ATOM     12  C   UNK d   1      43.998  14.262  46.136  0.00  0.00     0.011 A 
ATOM     13 Br   UNK d   1      43.794  15.713  47.357  0.00  0.00    -0.051 Br
ATOM     14  C   UNK d   1      45.074  14.262  45.274  0.00  0.00     0.019 A 
ATOM     15  C   UNK d   1      45.198  13.203  44.402  0.00  0.00     0.002 A 
ATOM     16  C   UNK d   1      44.270  12.184  44.403  0.00  0.00     0.009 A 
ENDBRANCH   1  10
BRANCH   8  17
ATOM     17  C   UNK d   1      38.611  12.242  46.277  0.00  0.00     0.032 A 
ATOM     18  C   UNK d   1      37.381  11.753  45.990  0.00  0.00     0.019 A 
ATOM     19  N   UNK d   1      36.481  12.740  46.174  0.00  0.00    -0.354 N 
ATOM     20  C   UNK d   1      37.027  10.379  45.498  0.00  0.00     0.069 C 
ATOM     21  C   UNK d   1      37.076  13.871  46.573  0.00  0.00     0.115 A 
ATOM     22  H   UNK d   1      35.437  12.627  46.018  0.00  0.00     0.166 HD
ATOM     23  C   UNK d   1      38.413  13.588  46.646  0.00  0.00    -0.014 A 
ATOM     24  C   UNK d   1      39.480  14.552  47.052  0.00  0.00     0.052 C 
BRANCH  21  25
ATOM     25  C   UNK d   1      36.424  15.162  46.873  0.00  0.00     0.310 C 
ATOM     26  O   UNK d   1      36.061  15.401  48.034  0.00  0.00    -0.258 OA
BRANCH  25  27
ATOM     27  O   UNK d   1      36.218  16.097  45.876  0.00  0.00    -0.321 OA
ATOM     28  C   UNK d   1      35.351  15.899  44.783  0.00  0.00     0.213 C 
ENDBRANCH  25  27
ENDBRANCH  21  25
ENDBRANCH   8  17
BRANCH   2  29
ATOM     29  C   UNK d   1      42.764   9.198  43.521  0.00  0.00     0.155 C 
BRANCH  29  30
ATOM     30  C   UNK d   1      43.410   8.498  44.697  0.00  0.00     0.255 C 
BRANCH  30  31
ATOM     31  N   UNK d   1      44.480   7.627  44.337  0.00  0.00    -0.066 N 
ATOM     32  C   UNK d   1      45.227   8.064  43.163  0.00  0.00     0.261 C 
ATOM     33  C   UNK d   1      46.550   7.347  43.175  0.00  0.00     0.195 C 
ATOM     34  O   UNK d   1      46.436   6.193  43.909  0.00  0.00    -0.388 OA
ATOM     35  C   UNK d   1      45.274   5.478  43.674  0.00  0.00     0.195 C 
ATOM     36  C   UNK d   1      44.021   6.281  44.019  0.00  0.00     0.261 C 
ATOM     37  H   UNK d   1      45.121   7.518  45.143  0.00  0.00     0.280 HD
ENDBRANCH  30  31
ENDBRANCH  29  30
ENDBRANCH   2  29
TORSDOF 7
ENDMDL
