MODEL 1
REMARK VINA RESULT:    -6.948      0.000      0.000
REMARK INTER + INTRA:         -11.453
REMARK INTER:                  -9.791
REMARK INTRA:                  -1.662
REMARK UNBOUND:                -1.662
REMARK  7 active torsions:
REMARK  status: ('A' for Active; 'I' for Inactive)
REMARK    1  A    between atoms: C_4  and  C_8 
REMARK    2  A    between atoms: N_9  and  C_26 
REMARK    3  A    between atoms: C_15  and  C_17 
REMARK    4  A    between atoms: C_20  and  O_23 
REMARK    5  A    between atoms: C_26  and  C_27 
REMARK    6  A    between atoms: C_27  and  C_28 
REMARK    7  A    between atoms: C_28  and  N_29 
ROOT
ATOM      1  C   UNK d   1      41.521  10.481  46.116  0.00  0.00     0.161 C 
ATOM      2  N   UNK d   1      41.635   9.774  47.377  0.00  0.00    -0.332 N 
ATOM      3  C   UNK d   1      42.909   9.977  47.950  0.00  0.00     0.295 C 
ATOM      4  O   UNK d   1      43.526   9.337  48.840  0.00  0.00    -0.264 OA
ATOM      5  C   UNK d   1      43.465  11.177  47.277  0.00  0.00     0.250 C 
ATOM      6  O   UNK d   1      44.587  11.656  47.537  0.00  0.00    -0.282 OA
ATOM      7  C   UNK d   1      42.472  11.628  46.319  0.00  0.00     0.062 C 
ATOM      8  C   UNK d   1      42.404  12.822  45.789  0.00  0.00     0.130 C 
ATOM      9  O   UNK d   1      41.337  13.130  44.927  0.00  0.00    -0.190 OA
ENDROOT
BRANCH   1  10
ATOM     10  C   UNK d   1      41.898   9.657  44.954  0.00  0.00    -0.029 A 
ATOM     11  C   UNK d   1      42.690   8.539  45.077  0.00  0.00     0.028 A 
ATOM     12  C   UNK d   1      43.034   7.775  43.967  0.00  0.00     0.011 A 
ATOM     13 Br   UNK d   1      44.134   6.232  44.160  0.00  0.00    -0.051 Br
ATOM     14  C   UNK d   1      42.575   8.138  42.711  0.00  0.00     0.019 A 
ATOM     15  C   UNK d   1      41.782   9.260  42.598  0.00  0.00     0.002 A 
ATOM     16  C   UNK d   1      41.443  10.014  43.704  0.00  0.00     0.009 A 
ENDBRANCH   1  10
BRANCH   8  17
ATOM     17  C   UNK d   1      43.389  13.838  46.049  0.00  0.00     0.002 A 
ATOM     18  C   UNK d   1      44.516  13.852  45.215  0.00  0.00     0.024 A 
ATOM     19  C   UNK d   1      45.522  14.757  45.415  0.00  0.00    -0.028 A 
ATOM     20  C   UNK d   1      45.475  15.692  46.441  0.00  0.00     0.074 A 
ATOM     21  C   UNK d   1      46.719  14.758  44.514  0.00  0.00     0.051 C 
ATOM     22  C   UNK d   1      44.374  15.659  47.238  0.00  0.00     0.038 A 
ATOM     23  C   UNK d   1      43.350  14.752  47.051  0.00  0.00     0.017 A 
BRANCH  20  24
ATOM     24  O   UNK d   1      46.531  16.571  46.576  0.00  0.00    -0.355 OA
ATOM     25  C   UNK d   1      46.451  17.674  47.466  0.00  0.00     0.210 C 
ENDBRANCH  20  24
ENDBRANCH   8  17
BRANCH   2  26
ATOM     26  C   UNK d   1      40.585   8.958  48.007  0.00  0.00     0.129 C 
BRANCH  26  27
ATOM     27  C   UNK d   1      39.233   9.401  47.520  0.00  0.00     0.048 C 
BRANCH  27  28
ATOM     28  C   UNK d   1      38.332   9.950  48.573  0.00  0.00     0.236 C 
BRANCH  28  29
ATOM     29  N   UNK d   1      38.034  11.356  48.410  0.00  0.00    -0.067 N 
ATOM     30  C   UNK d   1      38.886  12.186  49.239  0.00  0.00     0.261 C 
ATOM     31  C   UNK d   1      39.773  13.057  48.391  0.00  0.00     0.195 C 
ATOM     32  O   UNK d   1      38.941  13.896  47.622  0.00  0.00    -0.388 OA
ATOM     33  C   UNK d   1      38.175  13.144  46.734  0.00  0.00     0.195 C 
ATOM     34  C   UNK d   1      38.223  11.671  46.991  0.00  0.00     0.261 C 
ATOM     35  H   UNK d   1      37.041  11.595  48.609  0.00  0.00     0.280 HD
ENDBRANCH  28  29
ENDBRANCH  27  28
ENDBRANCH  26  27
ENDBRANCH   2  26
TORSDOF 7
ENDMDL
