/Users/jonathanwahrer/Desktop/Msc/3_Semester/Drug_Design_Praktikum/waehrer_HTS_screening/HTS_experiment/out/docking_results/vina_output/2qfa/0170_docked.pdbqt
 OpenBabel03162219253D

 35 38  0  0  1  0  0  0  0  0999 V2000
   41.5210   10.4810   46.1160 C   0  0  1  0  0  3  0  0  0  0  0  0
   41.6350    9.7740   47.3770 N   0  0  0  0  0  0  0  0  0  0  0  0
   42.9090    9.9770   47.9500 C   0  0  0  0  0  0  0  0  0  0  0  0
   43.5260    9.3370   48.8400 O   0  0  0  0  0  0  0  0  0  0  0  0
   43.4650   11.1770   47.2770 C   0  0  0  0  0  0  0  0  0  0  0  0
   44.5870   11.6560   47.5370 O   0  0  0  0  0  0  0  0  0  0  0  0
   42.4720   11.6280   46.3190 C   0  0  0  0  0  0  0  0  0  0  0  0
   42.4040   12.8220   45.7890 C   0  0  0  0  0  0  0  0  0  0  0  0
   41.3370   13.1300   44.9270 O   0  0  0  0  0  1  0  0  0  0  0  0
   41.8980    9.6570   44.9540 C   0  0  0  0  0  0  0  0  0  0  0  0
   42.6900    8.5390   45.0770 C   0  0  0  0  0  3  0  0  0  0  0  0
   43.0340    7.7750   43.9670 C   0  0  0  0  0  0  0  0  0  0  0  0
   44.1340    6.2320   44.1600 Br  0  0  0  0  0  0  0  0  0  0  0  0
   42.5750    8.1380   42.7110 C   0  0  0  0  0  3  0  0  0  0  0  0
   41.7820    9.2600   42.5980 C   0  0  0  0  0  3  0  0  0  0  0  0
   41.4430   10.0140   43.7040 C   0  0  0  0  0  3  0  0  0  0  0  0
   43.3890   13.8380   46.0490 C   0  0  0  0  0  0  0  0  0  0  0  0
   44.5160   13.8520   45.2150 C   0  0  0  0  0  3  0  0  0  0  0  0
   45.5220   14.7570   45.4150 C   0  0  0  0  0  0  0  0  0  0  0  0
   45.4750   15.6920   46.4410 C   0  0  0  0  0  0  0  0  0  0  0  0
   46.7190   14.7580   44.5140 C   0  0  0  0  0  1  0  0  0  0  0  0
   44.3740   15.6590   47.2380 C   0  0  0  0  0  3  0  0  0  0  0  0
   43.3500   14.7520   47.0510 C   0  0  0  0  0  3  0  0  0  0  0  0
   46.5310   16.5710   46.5760 O   0  0  0  0  0  0  0  0  0  0  0  0
   46.4510   17.6740   47.4660 C   0  0  0  0  0  1  0  0  0  0  0  0
   40.5850    8.9580   48.0070 C   0  0  0  0  0  2  0  0  0  0  0  0
   39.2330    9.4010   47.5200 C   0  0  0  0  0  2  0  0  0  0  0  0
   38.3320    9.9500   48.5730 C   0  0  0  0  0  2  0  0  0  0  0  0
   38.0340   11.3560   48.4100 N   0  0  0  0  0  4  0  0  0  0  0  0
   38.8860   12.1860   49.2390 C   0  0  0  0  0  2  0  0  0  0  0  0
   39.7730   13.0570   48.3910 C   0  0  0  0  0  2  0  0  0  0  0  0
   38.9410   13.8960   47.6220 O   0  0  0  0  0  0  0  0  0  0  0  0
   38.1750   13.1440   46.7340 C   0  0  0  0  0  2  0  0  0  0  0  0
   38.2230   11.6710   46.9910 C   0  0  0  0  0  2  0  0  0  0  0  0
   37.0410   11.5950   48.6090 H   0  0  0  0  0  0  0  0  0  0  0  0
  1 10  1  6  0  0  0
  1  7  1  0  0  0  0
  1  2  1  0  0  0  0
  2  3  1  0  0  0  0
  2 26  1  0  0  0  0
  3  4  2  0  0  0  0
  5  6  2  0  0  0  0
  5  3  1  0  0  0  0
  7  5  1  0  0  0  0
  8 17  1  0  0  0  0
  8  7  2  0  0  0  0
  9  8  1  0  0  0  0
 10 11  1  0  0  0  0
 12 13  1  0  0  0  0
 12 11  2  0  0  0  0
 14 12  1  0  0  0  0
 15 14  2  0  0  0  0
 15 16  1  0  0  0  0
 16 10  2  0  0  0  0
 17 23  1  0  0  0  0
 18 19  1  0  0  0  0
 18 17  2  0  0  0  0
 19 20  2  0  0  0  0
 20 24  1  0  0  0  0
 20 22  1  0  0  0  0
 21 19  1  0  0  0  0
 23 22  2  0  0  0  0
 24 25  1  0  0  0  0
 27 26  1  0  0  0  0
 27 28  1  0  0  0  0
 29 28  1  0  0  0  0
 29 35  1  0  0  0  0
 29 30  1  0  0  0  0
 31 30  1  0  0  0  0
 32 31  1  0  0  0  0
 33 34  1  0  0  0  0
 33 32  1  0  0  0  0
 34 29  1  0  0  0  0
M  END
>  <Pose>
1

>  <Score>
-6.948

$$$$
