MODEL 1
REMARK VINA RESULT:    -7.266      0.000      0.000
REMARK INTER + INTRA:         -10.407
REMARK INTER:                  -9.815
REMARK INTRA:                  -0.592
REMARK UNBOUND:                -0.592
REMARK  6 active torsions:
REMARK  status: ('A' for Active; 'I' for Inactive)
REMARK    1  A    between atoms: C_4  and  C_8 
REMARK    2  A    between atoms: N_9  and  C_24 
REMARK    3  A    between atoms: C_15  and  C_17 
REMARK    4  A    between atoms: C_24  and  C_25 
REMARK    5  A    between atoms: C_25  and  C_26 
REMARK    6  A    between atoms: C_26  and  N_27 
ROOT
ATOM      1  C   UNK d   1      42.050  11.767  44.630  0.00  0.00     0.161 C 
ATOM      2  N   UNK d   1      42.634  10.446  44.792  0.00  0.00    -0.332 N 
ATOM      3  C   UNK d   1      42.145   9.921  46.043  0.00  0.00     0.295 C 
ATOM      4  O   UNK d   1      42.670   8.971  46.674  0.00  0.00    -0.264 OA
ATOM      5  C   UNK d   1      40.972  10.692  46.396  0.00  0.00     0.250 C 
ATOM      6  O   UNK d   1      40.231  10.570  47.421  0.00  0.00    -0.282 OA
ATOM      7  C   UNK d   1      40.763  11.679  45.345  0.00  0.00     0.062 C 
ATOM      8  C   UNK d   1      39.643  12.358  45.143  0.00  0.00     0.130 C 
ATOM      9  O   UNK d   1      39.721  13.296  44.091  0.00  0.00    -0.190 OA
ENDROOT
BRANCH   2  10
ATOM     10  C   UNK d   1      43.593   9.847  43.920  0.00  0.00     0.129 C 
BRANCH  10  11
ATOM     11  C   UNK d   1      43.317   8.517  43.348  0.00  0.00     0.048 C 
BRANCH  11  12
ATOM     12  C   UNK d   1      44.094   7.336  43.798  0.00  0.00     0.236 C 
BRANCH  12  13
ATOM     13  N   UNK d   1      45.030   6.759  42.893  0.00  0.00    -0.067 N 
ATOM     14  C   UNK d   1      46.288   7.461  42.938  0.00  0.00     0.261 C 
ATOM     15  C   UNK d   1      47.278   6.856  43.910  0.00  0.00     0.195 C 
ATOM     16  O   UNK d   1      47.652   5.580  43.481  0.00  0.00    -0.388 OA
ATOM     17  C   UNK d   1      46.657   5.013  42.682  0.00  0.00     0.195 C 
ATOM     18  C   UNK d   1      45.336   5.356  43.312  0.00  0.00     0.261 C 
ATOM     19  H   UNK d   1      44.659   6.645  41.953  0.00  0.00     0.280 HD
ENDBRANCH  12  13
ENDBRANCH  11  12
ENDBRANCH  10  11
ENDBRANCH   2  10
BRANCH   1  20
ATOM     20  C   UNK d   1      42.951  12.811  45.179  0.00  0.00    -0.029 A 
ATOM     21  C   UNK d   1      42.459  13.773  46.031  0.00  0.00     0.028 A 
ATOM     22  C   UNK d   1      43.261  14.770  46.567  0.00  0.00     0.011 A 
ATOM     23 Br   UNK d   1      42.593  16.100  47.748  0.00  0.00    -0.051 Br
ATOM     24  C   UNK d   1      44.602  14.818  46.249  0.00  0.00     0.019 A 
ATOM     25  C   UNK d   1      45.097  13.857  45.397  0.00  0.00     0.002 A 
ATOM     26  C   UNK d   1      44.277  12.854  44.863  0.00  0.00     0.009 A 
ENDBRANCH   1  20
BRANCH   8  27
ATOM     27  C   UNK d   1      38.418  12.187  45.905  0.00  0.00     0.001 A 
ATOM     28  C   UNK d   1      37.481  11.202  45.695  0.00  0.00     0.016 A 
ATOM     29  C   UNK d   1      36.350  11.068  46.475  0.00  0.00     0.024 A 
ATOM     30  C   UNK d   1      36.110  11.936  47.516  0.00  0.00     0.034 A 
ATOM     31  C   UNK d   1      37.040  12.932  47.741  0.00  0.00     0.024 A 
ATOM     32 Cl   UNK d   1      34.670  11.785  48.528  0.00  0.00    -0.084 Cl
ATOM     33  C   UNK d   1      38.169  13.058  46.955  0.00  0.00     0.016 A 
ENDBRANCH   8  27
TORSDOF 6
ENDMDL
