MODEL 1
REMARK VINA RESULT:    -6.445      0.000      0.000
REMARK INTER + INTRA:          -9.357
REMARK INTER:                  -8.329
REMARK INTRA:                  -1.028
REMARK UNBOUND:                -1.028
REMARK  5 active torsions:
REMARK  status: ('A' for Active; 'I' for Inactive)
REMARK    1  A    between atoms: C_4  and  C_8 
REMARK    2  A    between atoms: N_9  and  C_28 
REMARK    3  A    between atoms: C_15  and  C_17 
REMARK    4  A    between atoms: C_28  and  C_29 
REMARK    5  A    between atoms: C_29  and  N_30 
ROOT
ATOM      1  C   UNK d   1      39.690  11.953  46.288  0.00  0.00     0.161 C 
ATOM      2  N   UNK d   1      40.014  11.652  44.937  0.00  0.00    -0.331 N 
ATOM      3  C   UNK d   1      40.156  12.975  44.321  0.00  0.00     0.295 C 
ATOM      4  O   UNK d   1      39.967  13.251  43.126  0.00  0.00    -0.264 OA
ATOM      5  C   UNK d   1      40.565  13.888  45.401  0.00  0.00     0.251 C 
ATOM      6  O   UNK d   1      40.805  15.115  45.327  0.00  0.00    -0.282 OA
ATOM      7  C   UNK d   1      40.640  13.060  46.602  0.00  0.00     0.064 C 
ATOM      8  C   UNK d   1      41.402  13.258  47.647  0.00  0.00     0.149 C 
ATOM      9  O   UNK d   1      41.354  12.285  48.669  0.00  0.00    -0.189 OA
ENDROOT
BRANCH   1  10
ATOM     10  C   UNK d   1      39.559  10.914  47.264  0.00  0.00    -0.029 A 
ATOM     11  C   UNK d   1      38.425  10.891  48.101  0.00  0.00     0.028 A 
ATOM     12  C   UNK d   1      38.225   9.943  49.069  0.00  0.00     0.011 A 
ATOM     13 Br   UNK d   1      36.656   9.975  50.168  0.00  0.00    -0.051 Br
ATOM     14  C   UNK d   1      39.138   8.944  49.279  0.00  0.00     0.019 A 
ATOM     15  C   UNK d   1      40.263   8.924  48.487  0.00  0.00     0.002 A 
ATOM     16  C   UNK d   1      40.444   9.889  47.520  0.00  0.00     0.009 A 
ENDBRANCH   1  10
BRANCH   8  17
ATOM     17  C   UNK d   1      42.266  14.420  47.791  0.00  0.00     0.102 A 
ATOM     18  N   UNK d   1      43.450  14.727  47.241  0.00  0.00    -0.302 N 
ATOM     19  C   UNK d   1      43.877  15.899  47.719  0.00  0.00     0.140 A 
ATOM     20  C   UNK d   1      44.156  14.014  46.320  0.00  0.00     0.099 A 
ATOM     21  N   UNK d   1      42.937  16.345  48.593  0.00  0.00    -0.233 NA
ATOM     22  C   UNK d   1      45.080  16.465  47.303  0.00  0.00    -0.015 A 
ATOM     23  C   UNK d   1      41.930  15.465  48.665  0.00  0.00     0.063 A 
ATOM     24  C   UNK d   1      40.702  15.572  49.504  0.00  0.00     0.073 C 
ATOM     25  C   UNK d   1      45.817  15.763  46.369  0.00  0.00     0.012 A 
ATOM     26  C   UNK d   1      45.506  17.768  47.869  0.00  0.00     0.052 C 
ATOM     27  C   UNK d   1      45.346  14.553  45.893  0.00  0.00     0.018 A 
ENDBRANCH   8  17
BRANCH   2  28
ATOM     28  C   UNK d   1      40.154  10.426  44.170  0.00  0.00     0.155 C 
BRANCH  28  29
ATOM     29  C   UNK d   1      41.556   9.991  43.918  0.00  0.00     0.255 C 
BRANCH  29  30
ATOM     30  N   UNK d   1      41.708   8.550  43.911  0.00  0.00    -0.066 N 
ATOM     31  C   UNK d   1      42.645   8.121  42.897  0.00  0.00     0.261 C 
ATOM     32  C   UNK d   1      44.071   8.479  43.330  0.00  0.00     0.195 C 
ATOM     33  O   UNK d   1      44.330   7.699  44.463  0.00  0.00    -0.388 OA
ATOM     34  C   UNK d   1      43.538   8.250  45.491  0.00  0.00     0.195 C 
ATOM     35  C   UNK d   1      42.066   8.046  45.222  0.00  0.00     0.261 C 
ATOM     36  H   UNK d   1      40.786   8.113  43.666  0.00  0.00     0.280 HD
ENDBRANCH  29  30
ENDBRANCH  28  29
ENDBRANCH   2  28
TORSDOF 5
ENDMDL
