/Users/jonathanwahrer/Desktop/Msc/3_Semester/Drug_Design_Praktikum/waehrer_HTS_screening/HTS_experiment/out/docking_results/vina_output/2qfa/0184_docked.pdbqt
 OpenBabel03162219273D

 33 36  0  0  1  0  0  0  0  0999 V2000
   42.4980   12.9480   45.2630 C   0  0  2  0  0  3  0  0  0  0  0  0
   41.1340   13.3400   44.9660 N   0  0  0  0  0  0  0  0  0  0  0  0
   40.7310   12.4940   43.8800 C   0  0  0  0  0  0  0  0  0  0  0  0
   39.8570   12.7200   43.0250 O   0  0  0  0  0  0  0  0  0  0  0  0
   41.5470   11.2880   43.9580 C   0  0  0  0  0  0  0  0  0  0  0  0
   41.5620   10.2560   43.2220 O   0  0  0  0  0  0  0  0  0  0  0  0
   42.4210   11.4620   45.1080 C   0  0  0  0  0  0  0  0  0  0  0  0
   43.0140   10.4980   45.7830 C   0  0  0  0  0  0  0  0  0  0  0  0
   43.8660   10.9060   46.8180 O   0  0  0  0  0  1  0  0  0  0  0  0
   42.9680   13.3250   46.6020 C   0  0  0  0  0  0  0  0  0  0  0  0
   42.3010   13.0560   47.7490 C   0  0  0  0  0  3  0  0  0  0  0  0
   42.8160   13.4560   48.9820 C   0  0  0  0  0  0  0  0  0  0  0  0
   41.8480   13.0590   50.5690 Br  0  0  0  0  0  0  0  0  0  0  0  0
   44.0200   14.1390   49.0790 C   0  0  0  0  0  3  0  0  0  0  0  0
   44.6830   14.4020   47.9000 C   0  0  0  0  0  3  0  0  0  0  0  0
   44.1830   14.0120   46.6930 C   0  0  0  0  0  3  0  0  0  0  0  0
   42.8430    9.0730   45.5370 C   0  0  0  0  0  0  0  0  0  0  0  0
   43.5660    8.2910   44.7230 N   0  0  0  0  0  0  0  0  0  0  0  0
   43.1400    7.0030   44.7860 C   0  0  0  0  0  0  0  0  0  0  0  0
   44.5990    8.5600   43.8700 C   0  0  0  0  0  3  0  0  0  0  0  0
   42.1110    7.0160   45.6790 N   0  0  0  0  0  0  0  0  0  0  0  0
   43.7060    5.9850   44.0350 C   0  0  0  0  0  3  0  0  0  0  0  0
   41.9010    8.2330   46.1510 C   0  0  0  0  0  0  0  0  0  0  0  0
   40.9140    8.7460   47.1270 C   0  0  0  0  0  1  0  0  0  0  0  0
   44.7490    6.2650   43.1770 C   0  0  0  0  0  3  0  0  0  0  0  0
   45.1790    7.5860   43.1180 C   0  0  0  0  0  3  0  0  0  0  0  0
   40.3250   14.3800   45.6050 C   0  0  0  0  0  2  0  0  0  0  0  0
   39.1270   13.8550   46.3070 C   0  0  0  0  0  2  0  0  0  0  0  0
   37.8210   13.9400   45.6320 C   0  0  0  0  0  2  0  0  0  0  0  0
   37.3330   12.7480   45.0300 N   0  0  0  0  0  4  0  0  0  0  0  0
   35.8900   12.7360   45.0510 C   0  0  0  0  0  1  0  0  0  0  0  0
   37.7550   11.5890   45.8380 C   0  0  0  0  0  1  0  0  0  0  0  0
   37.7270   12.5490   44.0850 H   0  0  0  0  0  0  0  0  0  0  0  0
  1 10  1  1  0  0  0
  2  1  1  0  0  0  0
  2 27  1  0  0  0  0
  3  5  1  0  0  0  0
  3  2  1  0  0  0  0
  4  3  2  0  0  0  0
  5  7  1  0  0  0  0
  6  5  2  0  0  0  0
  7  1  1  0  0  0  0
  7  8  2  0  0  0  0
  8  9  1  0  0  0  0
 10 16  2  0  0  0  0
 10 11  1  0  0  0  0
 11 12  2  0  0  0  0
 12 14  1  0  0  0  0
 12 13  1  0  0  0  0
 15 14  2  0  0  0  0
 16 15  1  0  0  0  0
 17  8  1  0  0  0  0
 17 23  2  0  0  0  0
 18 19  1  0  0  0  0
 18 17  1  0  0  0  0
 19 21  2  0  0  0  0
 20 18  1  0  0  0  0
 21 23  1  0  0  0  0
 22 19  1  0  0  0  0
 23 24  1  0  0  0  0
 25 22  2  0  0  0  0
 26 25  1  0  0  0  0
 26 20  2  0  0  0  0
 27 28  1  0  0  0  0
 29 28  1  0  0  0  0
 30 31  1  0  0  0  0
 30 29  1  0  0  0  0
 30 32  1  0  0  0  0
 33 30  1  0  0  0  0
M  END
>  <Pose>
1

>  <Score>
-6.156

$$$$
