/Users/jonathanwahrer/Desktop/Msc/3_Semester/Drug_Design_Praktikum/waehrer_HTS_screening/HTS_experiment/out/docking_results/vina_output/2qfa/0188_docked.pdbqt
 OpenBabel03162219273D

 31 34  0  0  1  0  0  0  0  0999 V2000
   42.4620   10.5920   45.1920 C   0  0  2  0  0  3  0  0  0  0  0  0
   42.3370   10.1680   43.8050 N   0  0  0  0  0  0  0  0  0  0  0  0
   41.3760   11.1040   43.2610 C   0  0  0  0  0  0  0  0  0  0  0  0
   41.2530   11.4320   42.0620 O   0  0  0  0  0  0  0  0  0  0  0  0
   40.5570   11.6180   44.3500 C   0  0  0  0  0  0  0  0  0  0  0  0
   39.6100   12.4470   44.3540 O   0  0  0  0  0  0  0  0  0  0  0  0
   41.0490   10.9660   45.5630 C   0  0  0  0  0  0  0  0  0  0  0  0
   40.4470   10.7670   46.7000 C   0  0  0  0  0  0  0  0  0  0  0  0
   41.1720   10.1350   47.7330 O   0  0  0  0  0  1  0  0  0  0  0  0
   42.9810    9.1130   43.0680 C   0  0  0  0  0  2  0  0  0  0  0  0
   44.0330    8.3680   43.8580 C   0  0  0  0  0  2  0  0  0  0  0  0
   44.2720    7.0470   43.2430 C   0  0  0  0  0  2  0  0  0  0  0  0
   45.5060    6.9290   42.5000 N   0  0  0  0  0  4  0  0  0  0  0  0
   46.6320    7.4990   43.2020 C   0  0  0  0  0  2  0  0  0  0  0  0
   47.4420    6.5260   43.9820 C   0  0  0  0  0  2  0  0  0  0  0  0
   47.6760    5.3160   43.3640 O   0  0  0  0  0  0  0  0  0  0  0  0
   46.5310    4.7200   42.8530 C   0  0  0  0  0  2  0  0  0  0  0  0
   45.7680    5.6460   41.9420 C   0  0  0  0  0  2  0  0  0  0  0  0
   45.3630    7.5810   41.6650 H   0  0  0  0  0  0  0  0  0  0  0  0
   43.2590   11.8500   45.3030 C   0  0  0  0  0  0  0  0  0  0  0  0
   42.9710   12.7750   46.2820 C   0  0  0  0  0  3  0  0  0  0  0  0
   43.6780   13.9580   46.4310 C   0  0  0  0  0  0  0  0  0  0  0  0
   43.2440   15.2170   47.8110 Br  0  0  0  0  0  0  0  0  0  0  0  0
   44.7190   14.2390   45.5700 C   0  0  0  0  0  3  0  0  0  0  0  0
   45.0250   13.3240   44.5790 C   0  0  0  0  0  3  0  0  0  0  0  0
   44.3020   12.1360   44.4440 C   0  0  0  0  0  3  0  0  0  0  0  0
   39.0700   11.1840   46.8930 C   0  0  0  0  0  0  0  0  0  0  0  0
   38.7310   12.3720   47.3180 O   0  0  0  0  0  0  0  0  0  0  0  0
   37.4340   12.4900   47.4080 C   0  0  0  0  0  3  0  0  0  0  0  0
   36.8740   11.3110   47.0200 C   0  0  0  0  0  3  0  0  0  0  0  0
   37.9310   10.4570   46.6850 C   0  0  0  0  0  3  0  0  0  0  0  0
  1 20  1  6  0  0  0
  1  7  1  0  0  0  0
  2  1  1  0  0  0  0
  3  2  1  0  0  0  0
  3  5  1  0  0  0  0
  4  3  2  0  0  0  0
  5  6  2  0  0  0  0
  5  7  1  0  0  0  0
  7  8  2  0  0  0  0
  8 27  1  0  0  0  0
  8  9  1  0  0  0  0
 10  2  1  0  0  0  0
 10 11  1  0  0  0  0
 12 11  1  0  0  0  0
 13 14  1  0  0  0  0
 13 12  1  0  0  0  0
 14 15  1  0  0  0  0
 16 15  1  0  0  0  0
 17 16  1  0  0  0  0
 18 13  1  0  0  0  0
 18 17  1  0  0  0  0
 19 13  1  0  0  0  0
 20 21  1  0  0  0  0
 21 22  2  0  0  0  0
 22 23  1  0  0  0  0
 24 22  1  0  0  0  0
 25 24  2  0  0  0  0
 26 25  1  0  0  0  0
 26 20  2  0  0  0  0
 27 28  1  0  0  0  0
 28 29  1  0  0  0  0
 30 29  2  0  0  0  0
 31 27  2  0  0  0  0
 31 30  1  0  0  0  0
M  END
>  <Pose>
1

>  <Score>
-7.081

$$$$
