MODEL 1
REMARK VINA RESULT:    -7.081      0.000      0.000
REMARK INTER + INTRA:         -10.308
REMARK INTER:                  -9.565
REMARK INTRA:                  -0.743
REMARK UNBOUND:                -0.743
REMARK  6 active torsions:
REMARK  status: ('A' for Active; 'I' for Inactive)
REMARK    1  A    between atoms: C_4  and  C_8 
REMARK    2  A    between atoms: N_9  and  C_22 
REMARK    3  A    between atoms: C_15  and  C_17 
REMARK    4  A    between atoms: C_22  and  C_23 
REMARK    5  A    between atoms: C_23  and  C_24 
REMARK    6  A    between atoms: C_24  and  N_25 
ROOT
ATOM      1  C   UNK d   1      42.462  10.592  45.192  0.00  0.00     0.161 C 
ATOM      2  N   UNK d   1      42.337  10.168  43.805  0.00  0.00    -0.332 N 
ATOM      3  C   UNK d   1      41.376  11.104  43.261  0.00  0.00     0.295 C 
ATOM      4  O   UNK d   1      41.253  11.432  42.062  0.00  0.00    -0.264 OA
ATOM      5  C   UNK d   1      40.557  11.618  44.350  0.00  0.00     0.251 C 
ATOM      6  O   UNK d   1      39.610  12.447  44.354  0.00  0.00    -0.282 OA
ATOM      7  C   UNK d   1      41.049  10.966  45.563  0.00  0.00     0.064 C 
ATOM      8  C   UNK d   1      40.447  10.767  46.700  0.00  0.00     0.153 C 
ATOM      9  O   UNK d   1      41.172  10.135  47.733  0.00  0.00    -0.188 OA
ENDROOT
BRANCH   2  10
ATOM     10  C   UNK d   1      42.981   9.113  43.068  0.00  0.00     0.129 C 
BRANCH  10  11
ATOM     11  C   UNK d   1      44.033   8.368  43.858  0.00  0.00     0.048 C 
BRANCH  11  12
ATOM     12  C   UNK d   1      44.272   7.047  43.243  0.00  0.00     0.236 C 
BRANCH  12  13
ATOM     13  N   UNK d   1      45.506   6.929  42.500  0.00  0.00    -0.067 N 
ATOM     14  C   UNK d   1      46.632   7.499  43.202  0.00  0.00     0.261 C 
ATOM     15  C   UNK d   1      47.442   6.526  43.982  0.00  0.00     0.195 C 
ATOM     16  O   UNK d   1      47.676   5.316  43.364  0.00  0.00    -0.388 OA
ATOM     17  C   UNK d   1      46.531   4.720  42.853  0.00  0.00     0.195 C 
ATOM     18  C   UNK d   1      45.768   5.646  41.942  0.00  0.00     0.261 C 
ATOM     19  H   UNK d   1      45.363   7.581  41.665  0.00  0.00     0.280 HD
ENDBRANCH  12  13
ENDBRANCH  11  12
ENDBRANCH  10  11
ENDBRANCH   2  10
BRANCH   1  20
ATOM     20  C   UNK d   1      43.259  11.850  45.303  0.00  0.00    -0.029 A 
ATOM     21  C   UNK d   1      42.971  12.775  46.282  0.00  0.00     0.028 A 
ATOM     22  C   UNK d   1      43.678  13.958  46.431  0.00  0.00     0.011 A 
ATOM     23 Br   UNK d   1      43.244  15.217  47.811  0.00  0.00    -0.051 Br
ATOM     24  C   UNK d   1      44.719  14.239  45.570  0.00  0.00     0.019 A 
ATOM     25  C   UNK d   1      45.025  13.324  44.579  0.00  0.00     0.002 A 
ATOM     26  C   UNK d   1      44.302  12.136  44.444  0.00  0.00     0.009 A 
ENDBRANCH   1  20
BRANCH   8  27
ATOM     27  C   UNK d   1      39.070  11.184  46.893  0.00  0.00     0.112 A 
ATOM     28  O   UNK d   1      38.731  12.372  47.318  0.00  0.00    -0.320 OA
ATOM     29  C   UNK d   1      37.434  12.490  47.408  0.00  0.00     0.142 A 
ATOM     30  C   UNK d   1      36.874  11.311  47.020  0.00  0.00     0.027 A 
ATOM     31  C   UNK d   1      37.931  10.457  46.685  0.00  0.00     0.042 A 
ENDBRANCH   8  27
TORSDOF 6
ENDMDL
