MODEL 1
REMARK VINA RESULT:    -7.285      0.000      0.000
REMARK INTER + INTRA:          -8.405
REMARK INTER:                  -8.137
REMARK INTRA:                  -0.268
REMARK UNBOUND:                -0.268
REMARK  2 active torsions:
REMARK  status: ('A' for Active; 'I' for Inactive)
REMARK    1  A    between atoms: C_4  and  N_8 
REMARK    2  A    between atoms: N_8  and  C_9 
ROOT
ATOM      1  C   UNK d   1      47.415   6.450  43.830  0.00  0.00     0.180 A 
ATOM      2  N   UNK d   1      48.069   6.414  44.986  0.00  0.00    -0.202 NA
ATOM      3  C   UNK d   1      48.880   5.420  45.387  0.00  0.00     0.231 A 
ATOM      4  N   UNK d   1      49.632   5.154  46.469  0.00  0.00    -0.081 NA
ATOM      5  O   UNK d   1      50.244   4.018  46.350  0.00  0.00    -0.103 OA
ATOM      6  N   UNK d   1      49.917   3.520  45.210  0.00  0.00    -0.081 NA
ATOM      7  C   UNK d   1      49.073   4.330  44.550  0.00  0.00     0.229 A 
ATOM      8  N   UNK d   1      48.432   4.321  43.371  0.00  0.00    -0.196 N 
ATOM      9  N   UNK d   1      48.455   3.400  42.411  0.00  0.00     0.004 NA
ATOM     10  N   UNK d   1      47.655   3.836  41.426  0.00  0.00     0.018 NA
ATOM     11  N   UNK d   1      47.154   5.017  41.795  0.00  0.00    -0.138 NA
ATOM     12  C   UNK d   1      47.629   5.331  43.003  0.00  0.00     0.212 A 
ENDROOT
BRANCH   1  13
ATOM     13  N   UNK d   1      46.552   7.472  43.368  0.00  0.00    -0.338 N 
ATOM     14  H   UNK d   1      46.957   8.306  42.854  0.00  0.00     0.167 HD
BRANCH  13  15
ATOM     15  C   UNK d   1      45.152   7.477  43.537  0.00  0.00     0.035 A 
ATOM     16  C   UNK d   1      44.294   8.502  43.240  0.00  0.00     0.048 A 
ATOM     17  C   UNK d   1      42.921   8.466  43.422  0.00  0.00     0.013 A 
ATOM     18 Br   UNK d   1      41.812   9.951  42.976  0.00  0.00    -0.051 Br
ATOM     19  C   UNK d   1      42.356   7.329  43.939  0.00  0.00     0.019 A 
ATOM     20  C   UNK d   1      43.164   6.260  44.259  0.00  0.00     0.004 A 
ATOM     21  C   UNK d   1      44.521   6.330  44.065  0.00  0.00     0.029 A 
ENDBRANCH  13  15
ENDBRANCH   1  13
TORSDOF 2
ENDMDL
