MODEL 1
REMARK VINA RESULT:    -7.154      0.000      0.000
REMARK INTER + INTRA:          -8.619
REMARK INTER:                  -7.990
REMARK INTRA:                  -0.628
REMARK UNBOUND:                -0.628
REMARK  2 active torsions:
REMARK  status: ('A' for Active; 'I' for Inactive)
REMARK    1  A    between atoms: C_4  and  N_8 
REMARK    2  A    between atoms: C_14  and  C_18 
ROOT
ATOM      1  N   UNK d   1      42.358   9.887  44.340  0.00  0.00    -0.246 N 
ATOM      2  C   UNK d   1      41.459  10.531  43.414  0.00  0.00     0.268 C 
ATOM      3  O   UNK d   1      41.403  10.251  42.184  0.00  0.00    -0.269 OA
ATOM      4  C   UNK d   1      40.659  11.521  44.132  0.00  0.00     0.285 C 
ATOM      5  O   UNK d   1      40.338  12.681  43.484  0.00  0.00    -0.260 OA
ATOM      6  N   UNK d   1      40.353  13.611  44.522  0.00  0.00    -0.264 N 
ATOM      7  C   UNK d   1      41.429  13.298  45.374  0.00  0.00     0.083 C 
ATOM      8  C   UNK d   1      41.662  11.996  45.158  0.00  0.00     0.080 C 
ATOM      9  C   UNK d   1      42.476  10.817  45.431  0.00  0.00     0.266 C 
ATOM     10  O   UNK d   1      43.170  10.642  46.454  0.00  0.00    -0.267 OA
ATOM     11  H   UNK d   1      39.694  14.390  44.643  0.00  0.00     0.194 HD
ENDROOT
BRANCH   1  12
ATOM     12  C   UNK d   1      43.005   8.635  44.236  0.00  0.00     0.047 A 
ATOM     13  C   UNK d   1      44.330   8.523  43.819  0.00  0.00     0.049 A 
ATOM     14  C   UNK d   1      44.997   7.329  43.705  0.00  0.00     0.013 A 
ATOM     15 Br   UNK d   1      46.810   7.214  43.126  0.00  0.00    -0.051 Br
ATOM     16  C   UNK d   1      44.357   6.145  44.011  0.00  0.00     0.019 A 
ATOM     17  C   UNK d   1      43.033   6.238  44.431  0.00  0.00     0.004 A 
ATOM     18  C   UNK d   1      42.375   7.439  44.541  0.00  0.00     0.030 A 
ENDBRANCH   1  12
BRANCH   7  19
ATOM     19  C   UNK d   1      42.124  14.146  46.330  0.00  0.00     0.036 A 
ATOM     20  C   UNK d   1      43.497  14.410  46.305  0.00  0.00     0.040 A 
ATOM     21  N   UNK d   1      43.780  15.234  47.295  0.00  0.00    -0.278 N 
ATOM     22  C   UNK d   1      44.479  13.843  45.351  0.00  0.00     0.071 C 
ATOM     23  N   UNK d   1      42.654  15.506  47.950  0.00  0.00    -0.184 NA
ATOM     24  C   UNK d   1      45.096  15.767  47.643  0.00  0.00     0.179 C 
ATOM     25  C   UNK d   1      41.644  14.863  47.390  0.00  0.00     0.154 A 
ENDBRANCH   7  19
TORSDOF 2
ENDMDL
