MODEL 1
REMARK VINA RESULT:    -6.217      0.000      0.000
REMARK INTER + INTRA:          -7.812
REMARK INTER:                  -7.126
REMARK INTRA:                  -0.686
REMARK UNBOUND:                -0.686
REMARK  3 active torsions:
REMARK  status: ('A' for Active; 'I' for Inactive)
REMARK    1  A    between atoms: C_4  and  N_8 
REMARK    2  A    between atoms: C_12  and  C_20 
REMARK    3  A    between atoms: C_20  and  O_21 
ROOT
ATOM      1  N   UNK d   1      42.716  11.015  46.154  0.00  0.00    -0.252 N 
ATOM      2  C   UNK d   1      41.523  10.661  45.468  0.00  0.00     0.239 C 
ATOM      3  O   UNK d   1      40.537  11.459  45.254  0.00  0.00    -0.272 OA
ATOM      4  C   UNK d   1      41.609   9.254  45.053  0.00  0.00     0.135 C 
ATOM      5  C   UNK d   1      42.154   9.206  43.659  0.00  0.00     0.113 C 
ATOM      6  O   UNK d   1      43.493   9.598  43.913  0.00  0.00    -0.363 OA
ATOM      7  C   UNK d   1      43.812   8.514  44.773  0.00  0.00     0.159 C 
ATOM      8  C   UNK d   1      42.761   8.709  45.851  0.00  0.00     0.128 C 
ATOM      9  C   UNK d   1      43.236   9.817  46.704  0.00  0.00     0.239 C 
ATOM     10  O   UNK d   1      43.965   9.700  47.724  0.00  0.00    -0.272 OA
ATOM     11  C   UNK d   1      43.455   7.379  43.892  0.00  0.00     0.005 C 
ATOM     12  C   UNK d   1      42.413   7.825  43.167  0.00  0.00     0.012 C 
ENDROOT
BRANCH   1  13
ATOM     13  C   UNK d   1      43.285  12.339  46.268  0.00  0.00     0.046 A 
ATOM     14  C   UNK d   1      44.268  12.794  45.403  0.00  0.00     0.049 A 
ATOM     15  C   UNK d   1      44.839  14.025  45.461  0.00  0.00     0.013 A 
ATOM     16 Br   UNK d   1      46.186  14.510  44.198  0.00  0.00    -0.051 Br
ATOM     17  C   UNK d   1      44.421  14.901  46.443  0.00  0.00     0.019 A 
ATOM     18  C   UNK d   1      43.444  14.497  47.329  0.00  0.00     0.004 A 
ATOM     19  C   UNK d   1      42.878  13.222  47.242  0.00  0.00     0.030 A 
ENDBRANCH   1  13
BRANCH   5  20
ATOM     20  C   UNK d   1      41.465  10.075  42.676  0.00  0.00     0.207 C 
BRANCH  20  21
ATOM     21  O   UNK d   1      40.097   9.803  42.720  0.00  0.00    -0.398 OA
ATOM     22  H   UNK d   1      39.942   8.827  42.767  0.00  0.00     0.209 HD
ENDBRANCH  20  21
ENDBRANCH   5  20
TORSDOF 3
ENDMDL
