/Users/jonathanwahrer/Desktop/Msc/3_Semester/Drug_Design_Praktikum/waehrer_HTS_screening/HTS_experiment/out/docking_results/vina_output/2qfa/0211_docked.pdbqt
 OpenBabel03162219283D

 22 25  0  0  1  0  0  0  0  0999 V2000
   42.7160   11.0150   46.1540 N   0  0  0  0  0  0  0  0  0  0  0  0
   41.5230   10.6610   45.4680 C   0  0  0  0  0  0  0  0  0  0  0  0
   40.5370   11.4590   45.2540 O   0  0  0  0  0  0  0  0  0  0  0  0
   41.6090    9.2540   45.0530 C   0  0  1  0  0  3  0  0  0  0  0  0
   42.1540    9.2060   43.6590 C   0  0  1  0  0  0  0  0  0  0  0  0
   43.4930    9.5980   43.9130 O   0  0  0  0  0  0  0  0  0  0  0  0
   43.8120    8.5140   44.7730 C   0  0  1  0  0  3  0  0  0  0  0  0
   42.7610    8.7090   45.8510 C   0  0  1  0  0  3  0  0  0  0  0  0
   43.2360    9.8170   46.7040 C   0  0  0  0  0  0  0  0  0  0  0  0
   43.9650    9.7000   47.7240 O   0  0  0  0  0  0  0  0  0  0  0  0
   43.4550    7.3790   43.8920 C   0  0  0  0  0  2  0  0  0  0  0  0
   42.4130    7.8250   43.1670 C   0  0  0  0  0  2  0  0  0  0  0  0
   43.2850   12.3390   46.2680 C   0  0  0  0  0  0  0  0  0  0  0  0
   44.2680   12.7940   45.4030 C   0  0  0  0  0  3  0  0  0  0  0  0
   44.8390   14.0250   45.4610 C   0  0  0  0  0  0  0  0  0  0  0  0
   46.1860   14.5100   44.1980 Br  0  0  0  0  0  0  0  0  0  0  0  0
   44.4210   14.9010   46.4430 C   0  0  0  0  0  3  0  0  0  0  0  0
   43.4440   14.4970   47.3290 C   0  0  0  0  0  3  0  0  0  0  0  0
   42.8780   13.2220   47.2420 C   0  0  0  0  0  3  0  0  0  0  0  0
   41.4650   10.0750   42.6760 C   0  0  0  0  0  2  0  0  0  0  0  0
   40.0970    9.8030   42.7200 O   0  0  0  0  0  0  0  0  0  0  0  0
   39.9420    8.8270   42.7670 H   0  0  0  0  0  0  0  0  0  0  0  0
  1 13  1  0  0  0  0
  1  9  1  0  0  0  0
  2  1  1  0  0  0  0
  3  2  2  0  0  0  0
  4  2  1  1  0  0  0
  4  8  1  0  0  0  0
  5 20  1  6  0  0  0
  5  6  1  0  0  0  0
  5  4  1  0  0  0  0
  6  7  1  0  0  0  0
  7 11  1  6  0  0  0
  7  8  1  0  0  0  0
  8  9  1  1  0  0  0
  9 10  2  0  0  0  0
 12  5  1  0  0  0  0
 12 11  1  0  0  0  0
 13 19  1  0  0  0  0
 14 15  1  0  0  0  0
 14 13  2  0  0  0  0
 15 17  2  0  0  0  0
 16 15  1  0  0  0  0
 17 18  1  0  0  0  0
 19 18  2  0  0  0  0
 20 21  1  0  0  0  0
 21 22  1  0  0  0  0
M  END
>  <Pose>
1

>  <Score>
-6.217

$$$$
