/Users/jonathanwahrer/Desktop/Msc/3_Semester/Drug_Design_Praktikum/waehrer_HTS_screening/HTS_experiment/out/docking_results/vina_output/2qfa/0213_docked.pdbqt
 OpenBabel03162219293D

 25 28  0  0  1  0  0  0  0  0999 V2000
   41.7120   12.5950   45.3000 N   0  0  0  0  0  0  0  0  0  0  0  0
   40.8950   12.3840   44.1270 C   0  0  0  0  0  0  0  0  0  0  0  0
   40.5140   13.2220   43.3030 O   0  0  0  0  0  0  0  0  0  0  0  0
   40.5700   10.9300   44.0630 C   0  0  1  0  0  3  0  0  0  0  0  0
   40.5150   10.4150   42.7810 O   0  0  0  0  0  0  0  0  0  0  0  0
   40.9200    9.1170   42.9870 N   0  0  0  0  0  0  0  0  0  0  0  0
   42.0530    9.2330   43.8670 C   0  0  0  0  0  0  0  0  0  0  0  0
   41.8780   10.3380   44.5490 C   0  0  0  0  0  0  0  0  0  0  0  0
   42.3210   11.3100   45.5570 C   0  0  0  0  0  0  0  0  0  0  0  0
   43.1030   11.0160   46.4670 O   0  0  0  0  0  0  0  0  0  0  0  0
   40.5260    8.2470   42.6130 H   0  0  0  0  0  0  0  0  0  0  0  0
   41.8510   13.8100   46.0090 C   0  0  0  0  0  0  0  0  0  0  0  0
   43.1030   14.3040   46.2980 C   0  0  0  0  0  3  0  0  0  0  0  0
   43.2680   15.5000   47.0030 C   0  0  0  0  0  0  0  0  0  0  0  0
   45.0110   16.1580   47.3900 Br  0  0  0  0  0  0  0  0  0  0  0  0
   42.1830   16.2290   47.4320 C   0  0  0  0  0  3  0  0  0  0  0  0
   40.9290   15.7370   47.1440 C   0  0  0  0  0  3  0  0  0  0  0  0
   40.7670   14.5360   46.4370 C   0  0  0  0  0  3  0  0  0  0  0  0
   43.1790    8.3490   44.0010 C   0  0  0  0  0  0  0  0  0  0  0  0
   44.3840    8.5660   43.3370 C   0  0  0  0  0  3  0  0  0  0  0  0
   45.2560    7.5940   43.6590 N   0  0  0  0  0  0  0  0  0  0  0  0
   44.6140    6.7980   44.4960 N   0  0  0  0  0  0  0  0  0  0  0  0
   46.6380    7.4570   43.1700 C   0  0  0  0  0  1  0  0  0  0  0  0
   43.3680    7.2010   44.7360 C   0  0  0  0  0  0  0  0  0  0  0  0
   42.3430    6.5660   45.6320 C   0  0  0  0  0  1  0  0  0  0  0  0
  1  9  1  0  0  0  0
  1 12  1  0  0  0  0
  2  1  1  0  0  0  0
  3  2  2  0  0  0  0
  4  5  1  6  0  0  0
  4  2  1  0  0  0  0
  4  8  1  0  0  0  0
  5  6  1  0  0  0  0
  6  7  1  0  0  0  0
  7 19  1  0  0  0  0
  7  8  2  0  0  0  0
  8  9  1  0  0  0  0
  9 10  2  0  0  0  0
 11  6  1  0  0  0  0
 12 13  2  0  0  0  0
 12 18  1  0  0  0  0
 13 14  1  0  0  0  0
 14 15  1  0  0  0  0
 14 16  2  0  0  0  0
 17 16  1  0  0  0  0
 18 17  2  0  0  0  0
 19 24  1  0  0  0  0
 20 21  1  0  0  0  0
 20 19  2  0  0  0  0
 21 22  1  0  0  0  0
 22 24  2  0  0  0  0
 23 21  1  0  0  0  0
 24 25  1  0  0  0  0
M  END
>  <Pose>
1

>  <Score>
-6.614

$$$$
