MODEL 1
REMARK VINA RESULT:    -6.614      0.000      0.000
REMARK INTER + INTRA:          -7.986
REMARK INTER:                  -7.387
REMARK INTRA:                  -0.598
REMARK UNBOUND:                -0.598
REMARK  2 active torsions:
REMARK  status: ('A' for Active; 'I' for Inactive)
REMARK    1  A    between atoms: C_4  and  N_8 
REMARK    2  A    between atoms: C_14  and  C_18 
ROOT
ATOM      1  N   UNK d   1      41.712  12.595  45.300  0.00  0.00    -0.246 N 
ATOM      2  C   UNK d   1      40.895  12.384  44.127  0.00  0.00     0.268 C 
ATOM      3  O   UNK d   1      40.514  13.222  43.303  0.00  0.00    -0.269 OA
ATOM      4  C   UNK d   1      40.570  10.930  44.063  0.00  0.00     0.285 C 
ATOM      5  O   UNK d   1      40.515  10.415  42.781  0.00  0.00    -0.260 OA
ATOM      6  N   UNK d   1      40.920   9.117  42.987  0.00  0.00    -0.264 N 
ATOM      7  C   UNK d   1      42.053   9.233  43.867  0.00  0.00     0.083 C 
ATOM      8  C   UNK d   1      41.878  10.338  44.549  0.00  0.00     0.080 C 
ATOM      9  C   UNK d   1      42.321  11.310  45.557  0.00  0.00     0.266 C 
ATOM     10  O   UNK d   1      43.103  11.016  46.467  0.00  0.00    -0.267 OA
ATOM     11  H   UNK d   1      40.526   8.247  42.613  0.00  0.00     0.194 HD
ENDROOT
BRANCH   1  12
ATOM     12  C   UNK d   1      41.851  13.810  46.009  0.00  0.00     0.047 A 
ATOM     13  C   UNK d   1      43.103  14.304  46.298  0.00  0.00     0.049 A 
ATOM     14  C   UNK d   1      43.268  15.500  47.003  0.00  0.00     0.013 A 
ATOM     15 Br   UNK d   1      45.011  16.158  47.390  0.00  0.00    -0.051 Br
ATOM     16  C   UNK d   1      42.183  16.229  47.432  0.00  0.00     0.019 A 
ATOM     17  C   UNK d   1      40.929  15.737  47.144  0.00  0.00     0.004 A 
ATOM     18  C   UNK d   1      40.767  14.536  46.437  0.00  0.00     0.030 A 
ENDBRANCH   1  12
BRANCH   7  19
ATOM     19  C   UNK d   1      43.179   8.349  44.001  0.00  0.00     0.036 A 
ATOM     20  C   UNK d   1      44.384   8.566  43.337  0.00  0.00     0.127 A 
ATOM     21  N   UNK d   1      45.256   7.594  43.659  0.00  0.00    -0.284 N 
ATOM     22  N   UNK d   1      44.614   6.798  44.496  0.00  0.00    -0.177 NA
ATOM     23  C   UNK d   1      46.638   7.457  43.170  0.00  0.00     0.179 C 
ATOM     24  C   UNK d   1      43.368   7.201  44.736  0.00  0.00     0.065 A 
ATOM     25  C   UNK d   1      42.343   6.566  45.632  0.00  0.00     0.073 C 
ENDBRANCH   7  19
TORSDOF 2
ENDMDL
