/Users/jonathanwahrer/Desktop/Msc/3_Semester/Drug_Design_Praktikum/waehrer_HTS_screening/HTS_experiment/out/docking_results/vina_output/2qfa/0216_docked.pdbqt
 OpenBabel03162219293D

 28 31  0  0  1  0  0  0  0  0999 V2000
   42.1190   12.9090   45.7020 C   0  0  0  0  0  0  0  0  0  0  0  0
   40.9890   13.0750   46.2260 O   0  0  0  0  0  0  0  0  0  0  0  0
   43.2090   13.7510   46.0050 N   0  0  0  0  0  0  0  0  0  0  0  0
   44.5330   13.5870   45.4200 C   0  0  0  0  0  2  0  0  0  0  0  0
   45.5710   14.1280   46.3950 C   0  0  0  0  0  2  0  0  0  0  0  0
   45.1350   14.0590   47.7750 N   0  0  0  0  0  0  0  0  0  0  0  0
   44.0670   14.9740   47.9750 C   0  0  0  0  0  2  0  0  0  0  0  0
   42.9800   14.8400   46.9630 C   0  0  0  0  0  2  0  0  0  0  0  0
   42.2870   11.8160   44.7650 C   0  0  1  0  0  3  0  0  0  0  0  0
   41.9600   10.4460   45.3960 C   0  0  0  0  0  2  0  0  0  0  0  0
   42.1690    9.6490   44.1960 N   0  0  0  0  0  0  0  0  0  0  0  0
   41.4610   10.3760   43.1980 C   0  0  0  0  0  0  0  0  0  0  0  0
   41.2260   11.7720   43.6600 C   0  0  0  0  0  2  0  0  0  0  0  0
   41.0900    9.9090   42.0960 O   0  0  0  0  0  0  0  0  0  0  0  0
   42.9230    8.4550   44.1440 C   0  0  0  0  0  0  0  0  0  0  0  0
   44.2340    8.4870   43.7030 C   0  0  0  0  0  3  0  0  0  0  0  0
   45.0250    7.3470   43.6220 C   0  0  0  0  0  0  0  0  0  0  0  0
   46.8040    7.4990   43.0060 Br  0  0  0  0  0  0  0  0  0  0  0  0
   44.4710    6.1240   43.9990 C   0  0  0  0  0  3  0  0  0  0  0  0
   43.1690    6.0440   44.4440 C   0  0  0  0  0  3  0  0  0  0  0  0
   42.4410    7.2150   44.5000 C   0  0  0  0  0  3  0  0  0  0  0  0
   44.9400   12.7240   48.2180 C   0  0  0  0  0  2  0  0  0  0  0  0
   46.1260   12.1350   48.9390 C   0  0  0  0  0  2  0  0  0  0  0  0
   46.0990   10.7040   49.0390 N   0  0  0  0  0  0  0  0  0  0  0  0
   45.0490    9.8850   48.9540 C   0  0  0  0  0  3  0  0  0  0  0  0
   45.4600    8.6080   49.1110 N   0  0  0  0  0  0  0  0  0  0  0  0
   46.7850    8.6160   49.2980 C   0  0  0  0  0  3  0  0  0  0  0  0
   47.1750    9.9340   49.2510 C   0  0  0  0  0  3  0  0  0  0  0  0
  1  3  1  0  0  0  0
  1  2  2  0  0  0  0
  3  8  1  0  0  0  0
  4  3  1  0  0  0  0
  4  5  1  0  0  0  0
  5  6  1  0  0  0  0
  6  7  1  0  0  0  0
  6 22  1  0  0  0  0
  8  7  1  0  0  0  0
  9 10  1  0  0  0  0
  9  1  1  1  0  0  0
 11 10  1  0  0  0  0
 12 13  1  0  0  0  0
 12 11  1  0  0  0  0
 13  9  1  0  0  0  0
 14 12  2  0  0  0  0
 15 11  1  0  0  0  0
 15 21  1  0  0  0  0
 16 15  2  0  0  0  0
 17 16  1  0  0  0  0
 17 19  2  0  0  0  0
 18 17  1  0  0  0  0
 19 20  1  0  0  0  0
 20 21  2  0  0  0  0
 22 23  1  0  0  0  0
 23 24  1  0  0  0  0
 24 28  1  0  0  0  0
 25 24  1  0  0  0  0
 25 26  2  0  0  0  0
 26 27  1  0  0  0  0
 28 27  2  0  0  0  0
M  END
>  <Pose>
1

>  <Score>
-6.092

$$$$
