/Users/jonathanwahrer/Desktop/Msc/3_Semester/Drug_Design_Praktikum/waehrer_HTS_screening/HTS_experiment/out/docking_results/vina_output/2qfa/0231_docked.pdbqt
 OpenBabel03162219303D

 34 37  0  0  1  0  0  0  0  0999 V2000
   43.3560   10.7660   45.9030 C   0  0  2  0  0  3  0  0  0  0  0  0
   42.4420   10.5700   44.7190 C   0  0  1  0  0  3  0  0  0  0  0  0
   42.3500    9.1310   44.6400 N   0  0  0  0  0  0  0  0  0  0  0  0
   42.4040    8.6520   45.9800 C   0  0  0  0  0  0  0  0  0  0  0  0
   42.2110    7.4520   46.3480 O   0  0  0  0  0  0  0  0  0  0  0  0
   42.7200    9.7910   46.8630 C   0  0  0  0  0  0  0  0  0  0  0  0
   42.5020    9.8850   48.0820 O   0  0  0  0  0  0  0  0  0  0  0  0
   43.3970   12.1150   46.4360 C   0  0  0  0  0  0  0  0  0  0  0  0
   42.6300   12.4720   47.3540 O   0  0  0  0  0  0  0  0  0  0  0  0
   44.3430   13.0790   45.9040 C   0  0  0  0  0  0  0  0  0  0  0  0
   44.7870   14.1520   46.6840 C   0  0  0  0  0  3  0  0  0  0  0  0
   45.6750   15.0790   46.2020 C   0  0  0  0  0  3  0  0  0  0  0  0
   46.1480   14.9560   44.9170 C   0  0  0  0  0  0  0  0  0  0  0  0
   47.3770   16.2480   44.2670 Br  0  0  0  0  0  0  0  0  0  0  0  0
   45.7530   13.9280   44.1030 C   0  0  0  0  0  3  0  0  0  0  0  0
   44.8560   13.0140   44.6240 C   0  0  0  0  0  3  0  0  0  0  0  0
   41.1590   11.2490   44.8290 C   0  0  0  0  0  0  0  0  0  0  0  0
   40.0670   10.6710   45.4910 C   0  0  0  0  0  3  0  0  0  0  0  0
   38.8550   11.3220   45.5950 C   0  0  0  0  0  0  0  0  0  0  0  0
   38.6710   12.5790   45.0480 C   0  0  0  0  0  0  0  0  0  0  0  0
   39.7330   13.1660   44.3940 C   0  0  0  0  0  3  0  0  0  0  0  0
   37.4620   13.2560   45.1380 O   0  0  0  0  0  1  0  0  0  0  0  0
   40.9440   12.4990   44.2970 C   0  0  0  0  0  3  0  0  0  0  0  0
   37.7720   10.7570   46.2460 O   0  0  0  0  0  0  0  0  0  0  0  0
   37.5770   10.8270   47.6350 C   0  0  0  0  0  1  0  0  0  0  0  0
   42.2280    8.2730   43.4880 C   0  0  0  0  0  2  0  0  0  0  0  0
   43.5310    7.6830   43.0400 C   0  0  0  0  0  2  0  0  0  0  0  0
   44.2620    6.9940   44.0320 N   0  0  0  0  0  4  0  0  0  0  0  0
   45.5700    7.6430   44.1660 C   0  0  0  0  0  2  0  0  0  0  0  0
   46.4520    7.4050   42.9860 C   0  0  0  0  0  2  0  0  0  0  0  0
   46.0350    6.3990   42.1480 O   0  0  0  0  0  0  0  0  0  0  0  0
   45.6110    5.3030   42.8580 C   0  0  0  0  0  2  0  0  0  0  0  0
   44.4900    5.6100   43.8140 C   0  0  0  0  0  2  0  0  0  0  0  0
   43.8120    7.1050   44.9830 H   0  0  0  0  0  0  0  0  0  0  0  0
  1  8  1  1  0  0  0
  1  6  1  0  0  0  0
  2 17  1  1  0  0  0
  2  1  1  0  0  0  0
  3  2  1  0  0  0  0
  3  4  1  0  0  0  0
  4  5  2  0  0  0  0
  4  6  1  0  0  0  0
  6  7  2  0  0  0  0
  8  9  2  0  0  0  0
 10  8  1  0  0  0  0
 10 11  1  0  0  0  0
 12 11  2  0  0  0  0
 13 12  1  0  0  0  0
 14 13  1  0  0  0  0
 15 16  1  0  0  0  0
 15 13  2  0  0  0  0
 16 10  2  0  0  0  0
 17 18  1  0  0  0  0
 18 19  2  0  0  0  0
 19 24  1  0  0  0  0
 20 22  1  0  0  0  0
 20 19  1  0  0  0  0
 21 20  2  0  0  0  0
 23 21  1  0  0  0  0
 23 17  2  0  0  0  0
 24 25  1  0  0  0  0
 26  3  1  0  0  0  0
 27 26  1  0  0  0  0
 27 28  1  0  0  0  0
 28 29  1  0  0  0  0
 28 34  1  0  0  0  0
 30 29  1  0  0  0  0
 31 32  1  0  0  0  0
 31 30  1  0  0  0  0
 32 33  1  0  0  0  0
 33 28  1  0  0  0  0
M  END
>  <Pose>
1

>  <Score>
-7.393

$$$$
