/Users/jonathanwahrer/Desktop/Msc/3_Semester/Drug_Design_Praktikum/waehrer_HTS_screening/HTS_experiment/out/docking_results/vina_output/2qfa/0235_docked.pdbqt
 OpenBabel03162219303D

 25 28  0  0  1  0  0  0  0  0999 V2000
   43.4870    9.9440   44.4580 C   0  0  1  0  0  3  0  0  0  0  0  0
   42.4450   10.9080   44.1410 N   0  0  0  0  0  0  0  0  0  0  0  0
   41.4170   11.0220   43.2280 N   0  0  0  0  0  2  0  0  0  0  0  0
   40.5470   11.9690   43.2500 C   0  0  0  0  0  3  0  0  0  0  0  0
   40.6300   12.9930   44.2660 C   0  0  0  0  0  3  0  0  0  0  0  0
   41.5960   12.9690   45.1540 C   0  0  0  0  0  3  0  0  0  0  0  0
   42.6220   11.9420   45.1570 C   0  0  0  0  0  0  0  0  0  0  0  0
   42.7280   11.1190   46.3920 C   0  0  2  0  0  3  0  0  0  0  0  0
   43.2380    9.7470   45.9370 C   0  0  1  0  0  3  0  0  0  0  0  0
   42.1220    8.8460   46.2140 C   0  0  0  0  0  0  0  0  0  0  0  0
   41.9950    7.6740   45.7620 O   0  0  0  0  0  0  0  0  0  0  0  0
   41.2060    9.5010   47.0700 N   0  0  0  0  0  0  0  0  0  0  0  0
   41.4470   10.9020   47.0740 C   0  0  0  0  0  0  0  0  0  0  0  0
   40.7100   11.7920   47.5650 O   0  0  0  0  0  0  0  0  0  0  0  0
   43.3280    8.7070   43.6810 C   0  0  0  0  0  0  0  0  0  0  0  0
   42.2080    8.5460   43.0950 O   0  0  0  0  0  0  0  0  0  0  0  0
   44.3290    7.6760   43.5310 C   0  0  0  0  0  0  0  0  0  0  0  0
   44.0650    6.3510   43.7670 C   0  0  0  0  0  3  0  0  0  0  0  0
   45.0570    5.4110   43.6050 C   0  0  0  0  0  3  0  0  0  0  0  0
   46.3380    5.7230   43.2080 C   0  0  0  0  0  0  0  0  0  0  0  0
   47.6680    4.3690   43.0010 Br  0  0  0  0  0  0  0  0  0  0  0  0
   46.6000    7.0550   42.9720 C   0  0  0  0  0  3  0  0  0  0  0  0
   45.6150    8.0030   43.1320 C   0  0  0  0  0  3  0  0  0  0  0  0
   40.1670    8.8610   47.8420 C   0  0  0  0  0  2  0  0  0  0  0  0
   40.5410    8.6290   49.2750 C   0  0  0  0  0  1  0  0  0  0  0  0
  1 15  1  6  0  0  0
  1  9  1  0  0  0  0
  2  1  1  0  0  0  0
  2  7  1  0  0  0  0
  3  4  1  0  0  0  0
  3  2  1  0  0  0  0
  4  5  2  0  0  0  0
  5  6  1  0  0  0  0
  6  7  2  0  0  0  0
  8  7  1  6  0  0  0
  8 13  1  0  0  0  0
  9 10  1  6  0  0  0
  9  8  1  0  0  0  0
 10 12  1  0  0  0  0
 11 10  2  0  0  0  0
 12 13  1  0  0  0  0
 12 24  1  0  0  0  0
 13 14  2  0  0  0  0
 16 15  2  0  0  0  0
 17 15  1  0  0  0  0
 17 18  1  0  0  0  0
 19 18  2  0  0  0  0
 20 19  1  0  0  0  0
 21 20  1  0  0  0  0
 22 23  1  0  0  0  0
 22 20  2  0  0  0  0
 23 17  2  0  0  0  0
 24 25  1  0  0  0  0
M  END
>  <Pose>
1

>  <Score>
-7.191

$$$$
