MODEL 1
REMARK VINA RESULT:    -7.191      0.000      0.000
REMARK INTER + INTRA:          -7.886
REMARK INTER:                  -8.452
REMARK INTRA:                   0.566
REMARK UNBOUND:                 0.566
REMARK  3 active torsions:
REMARK  status: ('A' for Active; 'I' for Inactive)
REMARK    1  A    between atoms: C_5  and  C_8 
REMARK    2  A    between atoms: C_8  and  C_10 
REMARK    3  A    between atoms: N_21  and  C_24 
ROOT
ATOM      1  C   UNK d   1      43.487   9.944  44.458  0.00  0.00     0.193 C 
ATOM      2  N   UNK d   1      42.445  10.908  44.141  0.00  0.00    -0.283 N 
ATOM      3  N   UNK d   1      41.417  11.022  43.228  0.00  0.00    -0.188 NA
ATOM      4  C   UNK d   1      40.547  11.969  43.250  0.00  0.00     0.138 A 
ATOM      5  C   UNK d   1      40.630  12.993  44.266  0.00  0.00     0.019 A 
ATOM      6  C   UNK d   1      41.596  12.969  45.154  0.00  0.00     0.002 A 
ATOM      7  C   UNK d   1      42.622  11.942  45.157  0.00  0.00     0.142 A 
ATOM      8  C   UNK d   1      42.728  11.119  46.392  0.00  0.00     0.122 C 
ATOM      9  C   UNK d   1      43.238   9.747  45.937  0.00  0.00     0.126 C 
ATOM     10  C   UNK d   1      42.122   8.846  46.214  0.00  0.00     0.234 C 
ATOM     11  O   UNK d   1      41.995   7.674  45.762  0.00  0.00    -0.272 OA
ATOM     12  N   UNK d   1      41.206   9.501  47.070  0.00  0.00    -0.288 N 
ATOM     13  C   UNK d   1      41.447  10.902  47.074  0.00  0.00     0.234 C 
ATOM     14  O   UNK d   1      40.710  11.792  47.565  0.00  0.00    -0.272 OA
ENDROOT
BRANCH   1  15
ATOM     15  C   UNK d   1      43.328   8.707  43.681  0.00  0.00     0.184 C 
ATOM     16  O   UNK d   1      42.208   8.546  43.095  0.00  0.00    -0.290 OA
BRANCH  15  17
ATOM     17  C   UNK d   1      44.329   7.676  43.531  0.00  0.00     0.012 A 
ATOM     18  C   UNK d   1      44.065   6.351  43.767  0.00  0.00     0.016 A 
ATOM     19  C   UNK d   1      45.057   5.411  43.605  0.00  0.00     0.020 A 
ATOM     20  C   UNK d   1      46.338   5.723  43.208  0.00  0.00     0.011 A 
ATOM     21 Br   UNK d   1      47.668   4.369  43.001  0.00  0.00    -0.051 Br
ATOM     22  C   UNK d   1      46.600   7.055  42.972  0.00  0.00     0.020 A 
ATOM     23  C   UNK d   1      45.615   8.003  43.132  0.00  0.00     0.016 A 
ENDBRANCH  15  17
ENDBRANCH   1  15
BRANCH  12  24
ATOM     24  C   UNK d   1      40.167   8.861  47.842  0.00  0.00     0.130 C 
ATOM     25  C   UNK d   1      40.541   8.629  49.275  0.00  0.00     0.027 C 
ENDBRANCH  12  24
TORSDOF 3
ENDMDL
