/Users/jonathanwahrer/Desktop/Msc/3_Semester/Drug_Design_Praktikum/waehrer_HTS_screening/HTS_experiment/out/docking_results/vina_output/2qfa/0244_docked.pdbqt
 OpenBabel03162219313D

 25 28  0  0  1  0  0  0  0  0999 V2000
   40.7920   11.0710   45.3710 C   0  0  2  0  0  3  0  0  0  0  0  0
   40.7960    9.7380   46.0840 C   0  0  0  0  0  2  0  0  0  0  0  0
   41.6670    8.9270   45.2520 N   0  0  0  0  0  0  0  0  0  0  0  0
   41.6440    9.4430   43.8980 C   0  0  1  0  0  3  0  0  0  0  0  0
   40.8950   10.7330   43.9040 C   0  0  0  0  0  2  0  0  0  0  0  0
   43.0600    9.5930   43.4770 C   0  0  0  0  0  0  0  0  0  0  0  0
   43.5070   10.6100   42.8980 O   0  0  0  0  0  0  0  0  0  0  0  0
   43.9790    8.5470   43.7300 N   0  0  0  0  0  0  0  0  0  0  0  0
   43.8090    7.6100   44.8220 C   0  0  2  0  0  3  0  0  0  0  0  0
   43.9710    6.3080   44.1040 C   0  0  0  0  0  2  0  0  0  0  0  0
   45.1340    6.6250   43.1560 C   0  0  0  0  0  2  0  0  0  0  0  0
   45.1890    8.1530   43.0640 C   0  0  0  0  0  2  0  0  0  0  0  0
   42.4920    7.7920   45.4830 C   0  0  0  0  0  0  0  0  0  0  0  0
   42.0630    6.9040   46.2970 O   0  0  0  0  0  0  0  0  0  0  0  0
   41.9000   11.9000   45.7160 N   0  0  0  0  0  0  0  0  0  0  0  0
   41.7250   13.3040   45.8050 C   0  0  0  0  0  0  0  0  0  0  0  0
   40.6030   13.8030   45.5820 O   0  0  0  0  0  0  0  0  0  0  0  0
   42.8270   11.4380   45.8950 H   0  0  0  0  0  0  0  0  0  0  0  0
   42.8480   14.1950   46.1580 C   0  0  0  0  0  0  0  0  0  0  0  0
   42.6050   15.3010   46.9430 C   0  0  0  0  0  3  0  0  0  0  0  0
   43.6300   16.1520   47.2900 C   0  0  0  0  0  3  0  0  0  0  0  0
   44.9340   15.9400   46.8750 C   0  0  0  0  0  0  0  0  0  0  0  0
   46.2960   17.1570   47.3940 Br  0  0  0  0  0  0  0  0  0  0  0  0
   45.1780   14.8310   46.0880 C   0  0  0  0  0  3  0  0  0  0  0  0
   44.1280   13.9810   45.7460 C   0  0  0  0  0  3  0  0  0  0  0  0
  1 15  1  1  0  0  0
  1  2  1  0  0  0  0
  3 13  1  0  0  0  0
  3  2  1  0  0  0  0
  4  5  1  1  0  0  0
  4  3  1  0  0  0  0
  5  1  1  0  0  0  0
  6  8  1  0  0  0  0
  6  4  1  0  0  0  0
  7  6  2  0  0  0  0
  8  9  1  0  0  0  0
  9 10  1  6  0  0  0
  9 13  1  0  0  0  0
 11 10  1  0  0  0  0
 12 11  1  0  0  0  0
 12  8  1  0  0  0  0
 13 14  2  0  0  0  0
 15 16  1  0  0  0  0
 15 18  1  0  0  0  0
 16 19  1  0  0  0  0
 17 16  2  0  0  0  0
 19 20  1  0  0  0  0
 20 21  2  0  0  0  0
 22 21  1  0  0  0  0
 22 23  1  0  0  0  0
 24 22  2  0  0  0  0
 25 24  1  0  0  0  0
 25 19  2  0  0  0  0
M  END
>  <Pose>
1

>  <Score>
-7.148

$$$$
