MODEL 1
REMARK VINA RESULT:    -7.148      0.000      0.000
REMARK INTER + INTRA:          -8.454
REMARK INTER:                  -7.983
REMARK INTRA:                  -0.471
REMARK UNBOUND:                -0.471
REMARK  2 active torsions:
REMARK  status: ('A' for Active; 'I' for Inactive)
REMARK    1  A    between atoms: C_5  and  C_8 
REMARK       I    between atoms: C_8  and  N_10 
REMARK    2  A    between atoms: N_10  and  C_11 
ROOT
ATOM      1  C   UNK d   1      40.792  11.071  45.371  0.00  0.00     0.105 C 
ATOM      2  C   UNK d   1      40.796   9.738  46.084  0.00  0.00     0.152 C 
ATOM      3  N   UNK d   1      41.667   8.927  45.252  0.00  0.00    -0.335 N 
ATOM      4  C   UNK d   1      41.644   9.443  43.898  0.00  0.00     0.181 C 
ATOM      5  C   UNK d   1      40.895  10.733  43.904  0.00  0.00     0.061 C 
ATOM      6  C   UNK d   1      43.060   9.593  43.477  0.00  0.00     0.243 C 
ATOM      7  O   UNK d   1      43.507  10.610  42.898  0.00  0.00    -0.271 OA
ATOM      8  N   UNK d   1      43.979   8.547  43.730  0.00  0.00    -0.337 N 
ATOM      9  C   UNK d   1      43.809   7.610  44.822  0.00  0.00     0.179 C 
ATOM     10  C   UNK d   1      43.971   6.308  44.104  0.00  0.00     0.037 C 
ATOM     11  C   UNK d   1      45.134   6.625  43.156  0.00  0.00     0.022 C 
ATOM     12  C   UNK d   1      45.189   8.153  43.064  0.00  0.00     0.127 C 
ATOM     13  C   UNK d   1      42.492   7.792  45.483  0.00  0.00     0.243 C 
ATOM     14  O   UNK d   1      42.063   6.904  46.297  0.00  0.00    -0.271 OA
ENDROOT
BRANCH   1  15
ATOM     15  N   UNK d   1      41.900  11.900  45.716  0.00  0.00    -0.351 N 
ATOM     16  C   UNK d   1      41.725  13.304  45.805  0.00  0.00     0.252 C 
ATOM     17  O   UNK d   1      40.603  13.803  45.582  0.00  0.00    -0.268 OA
ATOM     18  H   UNK d   1      42.827  11.438  45.895  0.00  0.00     0.163 HD
BRANCH  16  19
ATOM     19  C   UNK d   1      42.848  14.195  46.158  0.00  0.00     0.032 A 
ATOM     20  C   UNK d   1      42.605  15.301  46.943  0.00  0.00     0.018 A 
ATOM     21  C   UNK d   1      43.630  16.152  47.290  0.00  0.00     0.020 A 
ATOM     22  C   UNK d   1      44.934  15.940  46.875  0.00  0.00     0.011 A 
ATOM     23 Br   UNK d   1      46.296  17.157  47.394  0.00  0.00    -0.051 Br
ATOM     24  C   UNK d   1      45.178  14.831  46.088  0.00  0.00     0.020 A 
ATOM     25  C   UNK d   1      44.128  13.981  45.746  0.00  0.00     0.018 A 
ENDBRANCH  16  19
ENDBRANCH   1  15
TORSDOF 2
ENDMDL
