MODEL 1
REMARK VINA RESULT:    -7.151      0.000      0.000
REMARK INTER + INTRA:          -8.427
REMARK INTER:                  -7.987
REMARK INTRA:                  -0.440
REMARK UNBOUND:                -0.440
REMARK  2 active torsions:
REMARK  status: ('A' for Active; 'I' for Inactive)
REMARK    1  A    between atoms: C_5  and  C_8 
REMARK       I    between atoms: C_8  and  N_10 
REMARK    2  A    between atoms: N_10  and  N_11 
ROOT
ATOM      1  N   UNK d   1      41.516  10.329  44.434  0.00  0.00    -0.187 N 
ATOM      2  C   UNK d   1      40.544  10.367  45.473  0.00  0.00     0.251 C 
ATOM      3  O   UNK d   1      40.547   9.511  46.422  0.00  0.00    -0.271 OA
ATOM      4  C   UNK d   1      39.601  11.497  45.265  0.00  0.00     0.101 C 
ATOM      5  C   UNK d   1      40.226  12.214  44.084  0.00  0.00     0.101 C 
ATOM      6  C   UNK d   1      40.963  13.332  44.790  0.00  0.00     0.022 C 
ATOM      7  C   UNK d   1      39.784  13.826  45.655  0.00  0.00     0.018 C 
ATOM      8  C   UNK d   1      39.671  12.482  46.399  0.00  0.00     0.022 C 
ATOM      9  C   UNK d   1      41.084  12.418  46.914  0.00  0.00    -0.025 C 
ATOM     10  C   UNK d   1      41.826  12.801  45.882  0.00  0.00    -0.025 C 
ATOM     11  C   UNK d   1      41.142  11.259  43.437  0.00  0.00     0.251 C 
ATOM     12  O   UNK d   1      41.501  11.289  42.240  0.00  0.00    -0.271 OA
ENDROOT
BRANCH   1  13
ATOM     13  N   UNK d   1      42.685   9.531  44.332  0.00  0.00    -0.254 N 
ATOM     14  C   UNK d   1      42.696   8.335  43.584  0.00  0.00     0.270 C 
ATOM     15  O   UNK d   1      41.662   7.921  42.967  0.00  0.00    -0.266 OA
ATOM     16  H   UNK d   1      43.544   9.848  44.817  0.00  0.00     0.191 HD
BRANCH  14  17
ATOM     17  C   UNK d   1      43.894   7.535  43.494  0.00  0.00     0.033 A 
ATOM     18  C   UNK d   1      43.834   6.189  43.840  0.00  0.00     0.018 A 
ATOM     19  C   UNK d   1      44.957   5.389  43.781  0.00  0.00     0.020 A 
ATOM     20  C   UNK d   1      46.155   5.904  43.379  0.00  0.00     0.011 A 
ATOM     21 Br   UNK d   1      47.697   4.776  43.309  0.00  0.00    -0.051 Br
ATOM     22  C   UNK d   1      46.232   7.252  43.029  0.00  0.00     0.020 A 
ATOM     23  C   UNK d   1      45.111   8.038  43.092  0.00  0.00     0.018 A 
ENDBRANCH  14  17
ENDBRANCH   1  13
TORSDOF 2
ENDMDL
