/Users/jonathanwahrer/Desktop/Msc/3_Semester/Drug_Design_Praktikum/waehrer_HTS_screening/HTS_experiment/out/docking_results/vina_output/2qfa/0247_docked.pdbqt
 OpenBabel03162219313D

 23 26  0  0  1  0  0  0  0  0999 V2000
   41.5160   10.3290   44.4340 N   0  0  0  0  0  0  0  0  0  0  0  0
   40.5440   10.3670   45.4730 C   0  0  0  0  0  0  0  0  0  0  0  0
   40.5470    9.5110   46.4220 O   0  0  0  0  0  0  0  0  0  0  0  0
   39.6010   11.4970   45.2650 C   0  0  2  0  0  3  0  0  0  0  0  0
   40.2260   12.2140   44.0840 C   0  0  1  0  0  3  0  0  0  0  0  0
   40.9630   13.3320   44.7900 C   0  0  1  0  0  3  0  0  0  0  0  0
   39.7840   13.8260   45.6550 C   0  0  0  0  0  2  0  0  0  0  0  0
   39.6710   12.4820   46.3990 C   0  0  2  0  0  3  0  0  0  0  0  0
   41.0840   12.4180   46.9140 C   0  0  0  0  0  2  0  0  0  0  0  0
   41.8260   12.8010   45.8820 C   0  0  0  0  0  2  0  0  0  0  0  0
   41.1420   11.2590   43.4370 C   0  0  0  0  0  0  0  0  0  0  0  0
   41.5010   11.2890   42.2400 O   0  0  0  0  0  0  0  0  0  0  0  0
   42.6850    9.5310   44.3320 N   0  0  0  0  0  0  0  0  0  0  0  0
   42.6960    8.3350   43.5840 C   0  0  0  0  0  0  0  0  0  0  0  0
   41.6620    7.9210   42.9670 O   0  0  0  0  0  0  0  0  0  0  0  0
   43.5440    9.8480   44.8170 H   0  0  0  0  0  0  0  0  0  0  0  0
   43.8940    7.5350   43.4940 C   0  0  0  0  0  0  0  0  0  0  0  0
   43.8340    6.1890   43.8400 C   0  0  0  0  0  3  0  0  0  0  0  0
   44.9570    5.3890   43.7810 C   0  0  0  0  0  3  0  0  0  0  0  0
   46.1550    5.9040   43.3790 C   0  0  0  0  0  0  0  0  0  0  0  0
   47.6970    4.7760   43.3090 Br  0  0  0  0  0  0  0  0  0  0  0  0
   46.2320    7.2520   43.0290 C   0  0  0  0  0  3  0  0  0  0  0  0
   45.1110    8.0380   43.0920 C   0  0  0  0  0  3  0  0  0  0  0  0
  1  2  1  0  0  0  0
  2  3  2  0  0  0  0
  4  2  1  1  0  0  0
  4  8  1  0  0  0  0
  5 11  1  1  0  0  0
  5  6  1  0  0  0  0
  5  4  1  0  0  0  0
  6  7  1  1  0  0  0
  6 10  1  0  0  0  0
  8  7  1  6  0  0  0
  8  9  1  0  0  0  0
 10  9  1  0  0  0  0
 11  1  1  0  0  0  0
 12 11  2  0  0  0  0
 13  1  1  0  0  0  0
 13 16  1  0  0  0  0
 14 13  1  0  0  0  0
 15 14  2  0  0  0  0
 17 14  1  0  0  0  0
 17 18  1  0  0  0  0
 19 18  2  0  0  0  0
 20 19  1  0  0  0  0
 21 20  1  0  0  0  0
 22 23  1  0  0  0  0
 22 20  2  0  0  0  0
 23 17  2  0  0  0  0
M  END
>  <Pose>
1

>  <Score>
-7.151

$$$$
