MODEL 1
REMARK VINA RESULT:    -7.171      0.000      0.000
REMARK INTER + INTRA:         -11.220
REMARK INTER:                 -10.105
REMARK INTRA:                  -1.115
REMARK UNBOUND:                -1.115
REMARK  7 active torsions:
REMARK  status: ('A' for Active; 'I' for Inactive)
REMARK    1  A    between atoms: C_5  and  C_8 
REMARK    2  A    between atoms: C_8  and  C_9 
REMARK    3  A    between atoms: C_10  and  C_24 
REMARK    4  A    between atoms: N_11  and  C_16 
REMARK    5  A    between atoms: C_16  and  C_17 
REMARK    6  A    between atoms: C_17  and  C_18 
REMARK    7  A    between atoms: C_18  and  N_19 
ROOT
ATOM      1  C   UNK d   1      42.555  11.699  47.053  0.00  0.00     0.064 C 
ATOM      2  C   UNK d   1      41.369  10.991  46.475  0.00  0.00     0.180 C 
ATOM      3  N   UNK d   1      42.026   9.943  45.703  0.00  0.00    -0.331 N 
ATOM      4  C   UNK d   1      43.118   9.515  46.541  0.00  0.00     0.295 C 
ATOM      5  O   UNK d   1      43.639   8.388  46.495  0.00  0.00    -0.264 OA
ATOM      6  C   UNK d   1      43.476  10.635  47.424  0.00  0.00     0.251 C 
ATOM      7  O   UNK d   1      44.374  10.670  48.307  0.00  0.00    -0.282 OA
ENDROOT
BRANCH   1   8
ATOM      8  C   UNK d   1      42.731  12.983  47.231  0.00  0.00     0.130 C 
ATOM      9  O   UNK d   1      41.836  13.676  48.070  0.00  0.00    -0.190 OA
BRANCH   8  10
ATOM     10  C   UNK d   1      43.829  13.666  46.571  0.00  0.00     0.001 A 
ATOM     11  C   UNK d   1      44.363  14.828  47.143  0.00  0.00     0.015 A 
ATOM     12  C   UNK d   1      45.386  15.514  46.524  0.00  0.00     0.020 A 
ATOM     13  C   UNK d   1      45.932  15.104  45.327  0.00  0.00     0.011 A 
ATOM     14 Br   UNK d   1      47.346  16.035  44.453  0.00  0.00    -0.051 Br
ATOM     15  C   UNK d   1      45.421  13.962  44.748  0.00  0.00     0.020 A 
ATOM     16  C   UNK d   1      44.387  13.269  45.374  0.00  0.00     0.015 A 
ENDBRANCH   8  10
ENDBRANCH   1   8
BRANCH   2  17
ATOM     17  C   UNK d   1      40.565  11.912  45.634  0.00  0.00     0.061 A 
ATOM     18  N   UNK d   1      39.376  12.319  46.108  0.00  0.00    -0.263 NA
ATOM     19  C   UNK d   1      38.572  13.155  45.447  0.00  0.00     0.117 A 
ATOM     20  C   UNK d   1      38.986  13.617  44.220  0.00  0.00     0.019 A 
ATOM     21  C   UNK d   1      40.196  13.226  43.696  0.00  0.00     0.003 A 
ATOM     22  C   UNK d   1      40.985  12.367  44.415  0.00  0.00     0.029 A 
ENDBRANCH   2  17
BRANCH   3  23
ATOM     23  C   UNK d   1      41.650   9.452  44.409  0.00  0.00     0.129 C 
BRANCH  23  24
ATOM     24  C   UNK d   1      42.839   9.356  43.466  0.00  0.00     0.040 C 
BRANCH  24  25
ATOM     25  C   UNK d   1      42.907   7.917  42.953  0.00  0.00     0.131 C 
BRANCH  25  26
ATOM     26  N   UNK d   1      44.169   7.288  43.294  0.00  0.00    -0.352 N 
ATOM     27  C   UNK d   1      44.354   6.097  43.909  0.00  0.00     0.182 A 
ATOM     28  N   UNK d   1      45.673   5.875  44.039  0.00  0.00    -0.361 N 
ATOM     29  C   UNK d   1      46.356   6.905  43.518  0.00  0.00     0.106 A 
ATOM     30  H   UNK d   1      46.126   5.026  44.481  0.00  0.00     0.166 HD
ATOM     31  C   UNK d   1      45.394   7.780  43.056  0.00  0.00     0.108 A 
ENDBRANCH  25  26
ENDBRANCH  24  25
ENDBRANCH  23  24
ENDBRANCH   3  23
TORSDOF 7
ENDMDL
