MODEL 1
REMARK VINA RESULT:    -7.488      0.000      0.000
REMARK INTER + INTRA:         -11.495
REMARK INTER:                 -10.552
REMARK INTRA:                  -0.943
REMARK UNBOUND:                -0.943
REMARK  7 active torsions:
REMARK  status: ('A' for Active; 'I' for Inactive)
REMARK    1  A    between atoms: C_5  and  C_8 
REMARK    2  A    between atoms: C_10  and  C_24 
REMARK    3  A    between atoms: N_11  and  C_16 
REMARK    4  A    between atoms: C_16  and  C_17 
REMARK    5  A    between atoms: C_17  and  N_18 
REMARK    6  A    between atoms: C_27  and  C_30 
REMARK    7  A    between atoms: C_30  and  O_32 
ROOT
ATOM      1  C   UNK d   1      40.085  11.150  45.058  0.00  0.00     0.130 C 
ATOM      2  C   UNK d   1      40.936  10.247  45.494  0.00  0.00     0.062 A 
ATOM      3  C   UNK d   1      42.315   9.992  44.941  0.00  0.00     0.161 A 
ATOM      4  N   UNK d   1      42.829   8.880  45.661  0.00  0.00    -0.331 N 
ATOM      5  C   UNK d   1      41.937   8.491  46.727  0.00  0.00     0.295 A 
ATOM      6  O   UNK d   1      42.093   7.614  47.587  0.00  0.00    -0.264 OA
ATOM      7  C   UNK d   1      40.742   9.360  46.618  0.00  0.00     0.250 A 
ATOM      8  O   UNK d   1      39.735   9.313  47.395  0.00  0.00    -0.282 OA
ATOM      9  O   UNK d   1      40.536  11.943  43.977  0.00  0.00    -0.190 OA
ENDROOT
BRANCH   3  10
ATOM     10  C   UNK d   1      43.075  11.243  45.245  0.00  0.00    -0.030 A 
ATOM     11  C   UNK d   1      43.927  11.723  44.301  0.00  0.00     0.011 A 
ATOM     12  C   UNK d   1      44.658  12.871  44.530  0.00  0.00     0.018 A 
ATOM     13  C   UNK d   1      44.527  13.537  45.719  0.00  0.00     0.039 A 
ATOM     14  C   UNK d   1      43.667  13.052  46.669  0.00  0.00     0.018 A 
ATOM     15  C   UNK d   1      42.930  11.900  46.444  0.00  0.00     0.011 A 
BRANCH  13  16
ATOM     16  C   UNK d   1      45.300  14.755  45.976  0.00  0.00     0.292 C 
ATOM     17  O   UNK d   1      44.771  15.699  46.616  0.00  0.00    -0.259 OA
BRANCH  16  18
ATOM     18  O   UNK d   1      46.588  14.927  45.548  0.00  0.00    -0.323 OA
ATOM     19  C   UNK d   1      46.986  15.994  44.717  0.00  0.00     0.213 C 
ENDBRANCH  16  18
ENDBRANCH  13  16
ENDBRANCH   3  10
BRANCH   4  20
ATOM     20  C   UNK d   1      44.064   8.176  45.441  0.00  0.00     0.155 C 
BRANCH  20  21
ATOM     21  C   UNK d   1      43.985   7.033  44.489  0.00  0.00     0.255 C 
BRANCH  21  22
ATOM     22  N   UNK d   1      45.240   6.444  44.129  0.00  0.00    -0.066 N 
ATOM     23  C   UNK d   1      46.149   7.354  43.464  0.00  0.00     0.261 C 
ATOM     24  C   UNK d   1      47.479   6.640  43.334  0.00  0.00     0.195 C 
ATOM     25  O   UNK d   1      47.260   5.587  42.414  0.00  0.00    -0.388 OA
ATOM     26  C   UNK d   1      46.428   4.677  43.073  0.00  0.00     0.195 C 
ATOM     27  C   UNK d   1      45.054   5.315  43.196  0.00  0.00     0.261 C 
ATOM     28  H   UNK d   1      45.713   5.988  44.954  0.00  0.00     0.280 HD
ENDBRANCH  21  22
ENDBRANCH  20  21
ENDBRANCH   4  20
BRANCH   1  29
ATOM     29  C   UNK d   1      38.760  11.354  45.623  0.00  0.00     0.001 A 
ATOM     30  C   UNK d   1      38.533  12.394  46.534  0.00  0.00     0.015 A 
ATOM     31  C   UNK d   1      37.293  12.657  47.076  0.00  0.00     0.020 A 
ATOM     32  C   UNK d   1      36.202  11.888  46.734  0.00  0.00     0.011 A 
ATOM     33 Br   UNK d   1      34.493  12.272  47.502  0.00  0.00    -0.051 Br
ATOM     34  C   UNK d   1      36.398  10.861  45.842  0.00  0.00     0.020 A 
ATOM     35  C   UNK d   1      37.660  10.598  45.294  0.00  0.00     0.015 A 
ENDBRANCH   1  29
TORSDOF 7
ENDMDL
