MODEL 1
REMARK VINA RESULT:    -7.493      0.000      0.000
REMARK INTER + INTRA:         -10.495
REMARK INTER:                  -9.683
REMARK INTRA:                  -0.812
REMARK UNBOUND:                -0.812
REMARK  5 active torsions:
REMARK  status: ('A' for Active; 'I' for Inactive)
REMARK    1  A    between atoms: C_5  and  C_8 
REMARK    2  A    between atoms: C_10  and  C_24 
REMARK    3  A    between atoms: N_11  and  C_16 
REMARK    4  A    between atoms: C_16  and  C_17 
REMARK    5  A    between atoms: C_17  and  N_18 
ROOT
ATOM      1  C   UNK d   1      42.866   9.289  43.963  0.00  0.00     0.130 C 
ATOM      2  C   UNK d   1      42.487   9.750  45.139  0.00  0.00     0.062 C 
ATOM      3  C   UNK d   1      41.623  10.917  45.477  0.00  0.00     0.161 C 
ATOM      4  N   UNK d   1      40.922  10.466  46.691  0.00  0.00    -0.331 N 
ATOM      5  C   UNK d   1      41.870   9.679  47.385  0.00  0.00     0.295 C 
ATOM      6  O   UNK d   1      41.836   9.439  48.599  0.00  0.00    -0.264 OA
ATOM      7  C   UNK d   1      42.876   9.210  46.440  0.00  0.00     0.250 C 
ATOM      8  O   UNK d   1      43.893   8.495  46.618  0.00  0.00    -0.282 OA
ATOM      9  O   UNK d   1      42.412   9.977  42.821  0.00  0.00    -0.190 OA
ENDROOT
BRANCH   1  10
ATOM     10  C   UNK d   1      43.713   8.127  43.760  0.00  0.00     0.001 A 
ATOM     11  C   UNK d   1      43.264   6.852  44.026  0.00  0.00     0.015 A 
ATOM     12  C   UNK d   1      44.078   5.742  43.861  0.00  0.00     0.020 A 
ATOM     13  C   UNK d   1      45.375   5.877  43.422  0.00  0.00     0.011 A 
ATOM     14 Br   UNK d   1      46.509   4.348  43.190  0.00  0.00    -0.051 Br
ATOM     15  C   UNK d   1      45.838   7.143  43.154  0.00  0.00     0.020 A 
ATOM     16  C   UNK d   1      45.011   8.258  43.323  0.00  0.00     0.015 A 
ENDBRANCH   1  10
BRANCH   3  17
ATOM     17  C   UNK d   1      42.356  12.170  45.673  0.00  0.00    -0.031 A 
ATOM     18  C   UNK d   1      43.711  12.270  45.334  0.00  0.00     0.009 A 
ATOM     19  C   UNK d   1      44.447  13.404  45.490  0.00  0.00     0.001 A 
ATOM     20  C   UNK d   1      43.857  14.541  46.011  0.00  0.00     0.000 A 
ATOM     21  C   UNK d   1      42.537  14.474  46.352  0.00  0.00     0.001 A 
ATOM     22  C   UNK d   1      41.782  13.309  46.191  0.00  0.00     0.009 A 
ENDBRANCH   3  17
BRANCH   4  23
ATOM     23  C   UNK d   1      39.581  10.826  46.978  0.00  0.00     0.155 C 
BRANCH  23  24
ATOM     24  C   UNK d   1      38.500  10.246  46.162  0.00  0.00     0.255 C 
BRANCH  24  25
ATOM     25  N   UNK d   1      37.774  11.153  45.328  0.00  0.00    -0.066 N 
ATOM     26  C   UNK d   1      38.078  12.531  45.495  0.00  0.00     0.261 C 
ATOM     27  C   UNK d   1      36.937  13.200  46.229  0.00  0.00     0.195 C 
ATOM     28  O   UNK d   1      36.425  12.402  47.249  0.00  0.00    -0.388 OA
ATOM     29  C   UNK d   1      35.789  11.272  46.769  0.00  0.00     0.195 C 
ATOM     30  C   UNK d   1      36.341  10.965  45.395  0.00  0.00     0.261 C 
ATOM     31  H   UNK d   1      38.049  10.889  44.332  0.00  0.00     0.280 HD
ENDBRANCH  24  25
ENDBRANCH  23  24
ENDBRANCH   4  23
TORSDOF 5
ENDMDL
