/Users/jonathanwahrer/Desktop/Msc/3_Semester/Drug_Design_Praktikum/waehrer_HTS_screening/HTS_experiment/out/docking_results/vina_output/2qfa/0274_docked.pdbqt
 OpenBabel03162219333D

 31 34  0  0  1  0  0  0  0  0999 V2000
   42.8660    9.2890   43.9630 C   0  0  0  0  0  0  0  0  0  0  0  0
   42.4870    9.7500   45.1390 C   0  0  0  0  0  0  0  0  0  0  0  0
   41.6230   10.9170   45.4770 C   0  0  1  0  0  3  0  0  0  0  0  0
   40.9220   10.4660   46.6910 N   0  0  0  0  0  0  0  0  0  0  0  0
   41.8700    9.6790   47.3850 C   0  0  0  0  0  0  0  0  0  0  0  0
   41.8360    9.4390   48.5990 O   0  0  0  0  0  0  0  0  0  0  0  0
   42.8760    9.2100   46.4400 C   0  0  0  0  0  0  0  0  0  0  0  0
   43.8930    8.4950   46.6180 O   0  0  0  0  0  0  0  0  0  0  0  0
   42.4120    9.9770   42.8210 O   0  0  0  0  0  1  0  0  0  0  0  0
   43.7130    8.1270   43.7600 C   0  0  0  0  0  0  0  0  0  0  0  0
   43.2640    6.8520   44.0260 C   0  0  0  0  0  3  0  0  0  0  0  0
   44.0780    5.7420   43.8610 C   0  0  0  0  0  3  0  0  0  0  0  0
   45.3750    5.8770   43.4220 C   0  0  0  0  0  0  0  0  0  0  0  0
   46.5090    4.3480   43.1900 Br  0  0  0  0  0  0  0  0  0  0  0  0
   45.8380    7.1430   43.1540 C   0  0  0  0  0  3  0  0  0  0  0  0
   45.0110    8.2580   43.3230 C   0  0  0  0  0  3  0  0  0  0  0  0
   42.3560   12.1700   45.6730 C   0  0  0  0  0  0  0  0  0  0  0  0
   43.7110   12.2700   45.3340 C   0  0  0  0  0  3  0  0  0  0  0  0
   44.4470   13.4040   45.4900 C   0  0  0  0  0  3  0  0  0  0  0  0
   43.8570   14.5410   46.0110 C   0  0  0  0  0  3  0  0  0  0  0  0
   42.5370   14.4740   46.3520 C   0  0  0  0  0  3  0  0  0  0  0  0
   41.7820   13.3090   46.1910 C   0  0  0  0  0  3  0  0  0  0  0  0
   39.5810   10.8260   46.9780 C   0  0  0  0  0  2  0  0  0  0  0  0
   38.5000   10.2460   46.1620 C   0  0  0  0  0  2  0  0  0  0  0  0
   37.7740   11.1530   45.3280 N   0  0  0  0  0  4  0  0  0  0  0  0
   38.0780   12.5310   45.4950 C   0  0  0  0  0  2  0  0  0  0  0  0
   36.9370   13.2000   46.2290 C   0  0  0  0  0  2  0  0  0  0  0  0
   36.4250   12.4020   47.2490 O   0  0  0  0  0  0  0  0  0  0  0  0
   35.7890   11.2720   46.7690 C   0  0  0  0  0  2  0  0  0  0  0  0
   36.3410   10.9650   45.3950 C   0  0  0  0  0  2  0  0  0  0  0  0
   38.0490   10.8890   44.3320 H   0  0  0  0  0  0  0  0  0  0  0  0
  1  2  2  0  0  0  0
  2  3  1  0  0  0  0
  2  7  1  0  0  0  0
  3 17  1  1  0  0  0
  3  4  1  0  0  0  0
  4 23  1  0  0  0  0
  4  5  1  0  0  0  0
  5  6  2  0  0  0  0
  7  8  2  0  0  0  0
  7  5  1  0  0  0  0
  9  1  1  0  0  0  0
 10  1  1  0  0  0  0
 10 11  1  0  0  0  0
 12 11  2  0  0  0  0
 13 12  1  0  0  0  0
 14 13  1  0  0  0  0
 15 16  1  0  0  0  0
 15 13  2  0  0  0  0
 16 10  2  0  0  0  0
 17 22  1  0  0  0  0
 18 19  1  0  0  0  0
 18 17  2  0  0  0  0
 19 20  2  0  0  0  0
 20 21  1  0  0  0  0
 22 21  2  0  0  0  0
 24 23  1  0  0  0  0
 25 30  1  0  0  0  0
 25 26  1  0  0  0  0
 25 24  1  0  0  0  0
 26 27  1  0  0  0  0
 27 28  1  0  0  0  0
 29 28  1  0  0  0  0
 30 29  1  0  0  0  0
 31 25  1  0  0  0  0
M  END
>  <Pose>
1

>  <Score>
-7.493

$$$$
