/Users/jonathanwahrer/Desktop/Msc/3_Semester/Drug_Design_Praktikum/waehrer_HTS_screening/HTS_experiment/out/docking_results/vina_output/2qfa/0278_docked.pdbqt
 OpenBabel03162219333D

 30 33  0  0  1  0  0  0  0  0999 V2000
   42.0430   10.6830   45.5050 N   0  0  0  0  0  0  0  0  0  0  0  0
   41.2730   11.7470   45.1720 C   0  0  0  0  0  0  0  0  0  0  0  0
   41.8400   12.8450   45.7980 C   0  0  0  0  0  0  0  0  0  0  0  0
   41.2450   14.0820   45.6350 C   0  0  0  0  0  3  0  0  0  0  0  0
   40.0920   14.2520   44.8580 C   0  0  0  0  0  3  0  0  0  0  0  0
   39.5610   13.1220   44.2520 C   0  0  0  0  0  3  0  0  0  0  0  0
   40.1310   11.8810   44.3970 C   0  0  0  0  0  3  0  0  0  0  0  0
   42.9460   12.4600   46.5030 N   0  0  0  0  0  0  0  0  0  0  0  0
   43.0390   11.1190   46.2990 C   0  0  1  0  0  3  0  0  0  0  0  0
   41.7580    9.3600   45.0310 C   0  0  0  0  0  2  0  0  0  0  0  0
   42.1980    9.1250   43.6170 C   0  0  1  0  0  3  0  0  0  0  0  0
   43.2650    8.0570   43.5610 C   0  0  0  0  0  0  0  0  0  0  0  0
   43.0100    6.8000   44.0510 C   0  0  0  0  0  3  0  0  0  0  0  0
   43.9740    5.8300   43.9970 C   0  0  0  0  0  3  0  0  0  0  0  0
   45.1990    6.1350   43.4470 C   0  0  0  0  0  0  0  0  0  0  0  0
   46.5530    4.7850   43.3680 Br  0  0  0  0  0  0  0  0  0  0  0  0
   45.5070    7.3770   42.9420 C   0  0  0  0  0  3  0  0  0  0  0  0
   44.4990    8.3250   43.0190 C   0  0  0  0  0  3  0  0  0  0  0  0
   41.1850    8.7300   42.7660 O   0  0  0  0  0  0  0  0  0  0  0  0
   40.7750    7.8780   43.0130 H   0  0  0  0  0  0  0  0  0  0  0  0
   43.9700   10.3890   46.8150 N   0  0  0  0  0  0  0  0  0  0  0  0
   44.7100    9.9730   46.1730 H   0  0  0  0  0  0  0  0  0  0  0  0
   44.0820   10.1500   47.8030 H   0  0  0  0  0  0  0  0  0  0  0  0
   43.7720   13.3580   47.2520 C   0  0  0  0  0  2  0  0  0  0  0  0
   44.7330   14.1430   46.4030 C   0  0  0  0  0  0  0  0  0  0  0  0
   45.2180   15.3490   46.8790 C   0  0  0  0  0  3  0  0  0  0  0  0
   46.1050   16.1270   46.1590 C   0  0  0  0  0  3  0  0  0  0  0  0
   46.5010   15.6610   44.9300 C   0  0  0  0  0  3  0  0  0  0  0  0
   46.0350   14.4720   44.4340 C   0  0  0  0  0  3  0  0  0  0  0  0
   45.1580   13.7250   45.1730 C   0  0  0  0  0  3  0  0  0  0  0  0
  1  9  1  0  0  0  0
  2  1  1  0  0  0  0
  2  3  1  0  0  0  0
  3  8  1  0  0  0  0
  4  3  2  0  0  0  0
  5  4  1  0  0  0  0
  6  7  1  0  0  0  0
  6  5  2  0  0  0  0
  7  2  2  0  0  0  0
  8 24  1  0  0  0  0
  9  8  1  0  0  0  0
  9 21  1  1  0  0  0
 10  1  1  0  0  0  0
 11 10  1  1  0  0  0
 12 11  1  0  0  0  0
 12 13  1  0  0  0  0
 14 13  2  0  0  0  0
 15 14  1  0  0  0  0
 16 15  1  0  0  0  0
 17 18  1  0  0  0  0
 17 15  2  0  0  0  0
 18 12  2  0  0  0  0
 19 20  1  0  0  0  0
 19 11  1  0  0  0  0
 21 23  1  0  0  0  0
 22 21  1  0  0  0  0
 25 26  1  0  0  0  0
 25 24  1  0  0  0  0
 27 26  2  0  0  0  0
 28 27  1  0  0  0  0
 29 28  2  0  0  0  0
 29 30  1  0  0  0  0
 30 25  2  0  0  0  0
M  END
>  <Pose>
1

>  <Score>
-7.560

$$$$
