/Users/jonathanwahrer/Desktop/Msc/3_Semester/Drug_Design_Praktikum/waehrer_HTS_screening/HTS_experiment/out/docking_results/vina_output/2qfa/0289_docked.pdbqt
 OpenBabel03162219333D

 31 34  0  0  0  0  0  0  0  0999 V2000
   43.0360   11.0350   45.5350 C   0  0  0  0  0  0  0  0  0  0  0  0
   42.7770   11.6950   46.6760 N   0  0  0  0  0  0  0  0  0  0  0  0
   43.5130   12.8310   46.7110 C   0  0  0  0  0  0  0  0  0  0  0  0
   44.2660   12.9010   45.5590 C   0  0  0  0  0  0  0  0  0  0  0  0
   43.9600   11.8040   44.8670 N   0  0  0  0  0  0  0  0  0  0  0  0
   45.0830   13.9530   45.3650 N   0  0  0  0  0  0  0  0  0  0  0  0
   45.1880   14.9420   46.2630 C   0  0  0  0  0  0  0  0  0  0  0  0
   45.9710   15.9220   46.0420 O   0  0  0  0  0  0  0  0  0  0  0  0
   44.4620   14.8930   47.3920 N   0  0  0  0  0  0  0  0  0  0  0  0
   43.6390   13.8590   47.6170 C   0  0  0  0  0  0  0  0  0  0  0  0
   42.9600   13.8160   48.6730 O   0  0  0  0  0  0  0  0  0  0  0  0
   45.8660   13.9970   44.1250 C   0  0  0  0  0  1  0  0  0  0  0  0
   44.5410   15.6730   48.1070 H   0  0  0  0  0  0  0  0  0  0  0  0
   42.4620    9.8370   45.0750 N   0  0  0  0  0  0  0  0  0  0  0  0
   42.5370    8.6050   45.7810 C   0  0  0  0  0  2  0  0  0  0  0  0
   43.2900    7.6210   44.8910 C   0  0  0  0  0  2  0  0  0  0  0  0
   43.5770    8.1510   43.6250 N   0  0  0  0  0  0  0  0  0  0  0  0
   42.6260    8.9050   42.9180 C   0  0  0  0  0  2  0  0  0  0  0  0
   41.7690    9.8110   43.8100 C   0  0  0  0  0  2  0  0  0  0  0  0
   44.9540    8.3690   43.3310 C   0  0  0  0  0  2  0  0  0  0  0  0
   45.7360    7.1390   43.1040 C   0  0  0  0  0  0  0  0  0  0  0  0
   45.4050    6.3510   42.0300 C   0  0  0  0  0  3  0  0  0  0  0  0
   46.1200    5.1930   41.7690 C   0  0  0  0  0  3  0  0  0  0  0  0
   47.1690    4.8120   42.5800 C   0  0  0  0  0  0  0  0  0  0  0  0
   48.1600    3.2070   42.2130 Br  0  0  0  0  0  0  0  0  0  0  0  0
   47.4830    5.6160   43.6530 C   0  0  0  0  0  3  0  0  0  0  0  0
   46.7810    6.7720   43.9260 C   0  0  0  0  0  3  0  0  0  0  0  0
   41.9140   11.3060   47.7600 C   0  0  0  0  0  2  0  0  0  0  0  0
   40.4660   11.6400   47.4830 C   0  0  0  0  0  2  0  0  0  0  0  0
   39.7530   10.6100   46.9060 O   0  0  0  0  0  0  0  0  0  0  0  0
   38.9980   11.2000   45.8660 C   0  0  0  0  0  1  0  0  0  0  0  0
  1  2  1  0  0  0  0
  2  3  1  0  0  0  0
  2 28  1  0  0  0  0
  3 10  1  0  0  0  0
  4  3  2  0  0  0  0
  5  1  2  0  0  0  0
  5  4  1  0  0  0  0
  6  4  1  0  0  0  0
  6  7  1  0  0  0  0
  7  9  1  0  0  0  0
  8  7  2  0  0  0  0
  9 10  1  0  0  0  0
  9 13  1  0  0  0  0
 10 11  2  0  0  0  0
 12  6  1  0  0  0  0
 14  1  1  0  0  0  0
 14 15  1  0  0  0  0
 16 15  1  0  0  0  0
 17 16  1  0  0  0  0
 18 17  1  0  0  0  0
 18 19  1  0  0  0  0
 19 14  1  0  0  0  0
 20 17  1  0  0  0  0
 21 20  1  0  0  0  0
 21 27  1  0  0  0  0
 22 21  2  0  0  0  0
 23 22  1  0  0  0  0
 23 24  2  0  0  0  0
 24 26  1  0  0  0  0
 25 24  1  0  0  0  0
 26 27  2  0  0  0  0
 29 28  1  0  0  0  0
 30 29  1  0  0  0  0
 31 30  1  0  0  0  0
M  END
>  <Pose>
1

>  <Score>
-6.734

$$$$
