MODEL 1
REMARK VINA RESULT:    -7.154      0.000      0.000
REMARK INTER + INTRA:          -9.373
REMARK INTER:                  -8.409
REMARK INTRA:                  -0.964
REMARK UNBOUND:                -0.964
REMARK  3 active torsions:
REMARK  status: ('A' for Active; 'I' for Inactive)
REMARK    1  A    between atoms: C_5  and  C_8 
REMARK    2  A    between atoms: C_16  and  C_17 
REMARK    3  A    between atoms: C_17  and  N_18 
ROOT
ATOM      1  C   UNK d   1      46.686   4.627  42.520  0.00  0.00     0.053 C 
ATOM      2  C   UNK d   1      47.806   4.348  43.196  0.00  0.00     0.127 A 
ATOM      3  O   UNK d   1      48.203   5.032  44.334  0.00  0.00    -0.305 OA
ATOM      4  C   UNK d   1      49.403   4.539  44.837  0.00  0.00     0.101 A 
ATOM      5  C   UNK d   1      49.811   3.520  44.030  0.00  0.00     0.051 A 
ATOM      6  C   UNK d   1      50.984   2.849  44.305  0.00  0.00     0.021 A 
ATOM      7  C   UNK d   1      51.701   3.250  45.402  0.00  0.00     0.041 A 
ATOM      8  C   UNK d   1      51.283   4.297  46.234  0.00  0.00     0.118 A 
ATOM      9  C   UNK d   1      50.119   4.977  45.976  0.00  0.00     0.039 A 
ATOM     10  O   UNK d   1      52.071   4.643  47.332  0.00  0.00    -0.191 OA
ATOM     11  C   UNK d   1      48.820   3.356  42.957  0.00  0.00     0.218 A 
ATOM     12  O   UNK d   1      48.819   2.530  42.009  0.00  0.00    -0.284 OA
ENDROOT
BRANCH   1  13
ATOM     13  C   UNK d   1      45.816   5.704  42.982  0.00  0.00    -0.033 A 
ATOM     14  C   UNK d   1      44.709   5.424  43.766  0.00  0.00     0.013 A 
ATOM     15  C   UNK d   1      43.863   6.420  44.217  0.00  0.00     0.020 A 
ATOM     16  C   UNK d   1      44.089   7.740  43.902  0.00  0.00     0.011 A 
ATOM     17 Br   UNK d   1      42.913   9.125  44.532  0.00  0.00    -0.051 Br
ATOM     18  C   UNK d   1      45.186   8.038  43.121  0.00  0.00     0.020 A 
ATOM     19  C   UNK d   1      46.037   7.026  42.669  0.00  0.00     0.013 A 
ENDBRANCH   1  13
BRANCH   9  20
ATOM     20  C   UNK d   1      49.557   6.090  46.751  0.00  0.00     0.279 C 
BRANCH  20  21
ATOM     21  N   UNK d   1      49.651   6.046  48.158  0.00  0.00    -0.063 N 
ATOM     22  C   UNK d   1      49.200   7.272  48.782  0.00  0.00     0.261 C 
ATOM     23  C   UNK d   1      47.698   7.211  48.992  0.00  0.00     0.195 C 
ATOM     24  O   UNK d   1      47.454   6.423  50.106  0.00  0.00    -0.388 OA
ATOM     25  C   UNK d   1      48.413   5.404  50.129  0.00  0.00     0.195 C 
ATOM     26  C   UNK d   1      48.774   4.998  48.710  0.00  0.00     0.261 C 
ATOM     27  H   UNK d   1      50.603   5.779  48.481  0.00  0.00     0.280 HD
ENDBRANCH  20  21
ENDBRANCH   9  20
TORSDOF 3
ENDMDL
