/Users/jonathanwahrer/Desktop/Msc/3_Semester/Drug_Design_Praktikum/waehrer_HTS_screening/HTS_experiment/out/docking_results/vina_output/2qfa/0294_docked.pdbqt
 OpenBabel03162219343D

 35 38  0  0  0  0  0  0  0  0999 V2000
   42.6080   10.6440   44.5310 N   0  0  0  0  0  0  0  0  0  0  0  0
   43.6390   11.5030   44.2680 N   0  0  0  0  0  0  0  0  0  0  0  0
   43.7340   12.3840   45.2740 C   0  0  0  0  0  0  0  0  0  0  0  0
   42.7690   12.0550   46.1310 N   0  0  0  0  0  0  0  0  0  0  0  0
   42.0540   10.9600   45.6710 C   0  0  0  0  0  0  0  0  0  0  0  0
   42.3090    9.5770   43.5960 C   0  0  0  0  0  2  0  0  0  0  0  0
   43.3260    8.4960   43.6660 C   0  0  0  0  0  0  0  0  0  0  0  0
   44.6780    8.7450   43.3270 N   0  0  0  0  0  0  0  0  0  0  0  0
   44.9960    9.7130   43.0150 H   0  0  0  0  0  0  0  0  0  0  0  0
   42.9900    7.3460   44.0290 O   0  0  0  0  0  0  0  0  0  0  0  0
   45.5970    7.7210   43.4040 N   0  0  0  0  0  0  0  0  0  0  0  0
   45.6730    6.7280   42.6070 C   0  0  0  0  0  3  0  0  0  0  0  0
   46.6690    5.6700   42.7360 C   0  0  0  0  0  0  0  0  0  0  0  0
   46.7500    4.6400   41.8230 C   0  0  0  0  0  3  0  0  0  0  0  0
   47.7020    3.6470   41.9650 C   0  0  0  0  0  3  0  0  0  0  0  0
   48.6070    3.6430   43.0170 C   0  0  0  0  0  0  0  0  0  0  0  0
   49.9110    2.2590   43.1860 Br  0  0  0  0  0  0  0  0  0  0  0  0
   48.5260    4.6730   43.9310 C   0  0  0  0  0  3  0  0  0  0  0  0
   47.5720    5.6570   43.7780 C   0  0  0  0  0  3  0  0  0  0  0  0
   40.9450   10.3930   46.4100 C   0  0  0  0  0  0  0  0  0  0  0  0
   39.9110   11.1830   46.9040 N   0  0  0  0  0  0  0  0  0  0  0  0
   39.0560   10.4480   47.4990 O   0  0  0  0  0  0  0  0  0  0  0  0
   39.4190    9.2270   47.4510 N   0  0  0  0  0  0  0  0  0  0  0  0
   40.6050    9.1540   46.7740 C   0  0  0  0  0  0  0  0  0  0  0  0
   41.2280    7.9190   46.5630 N   0  0  0  0  0  0  0  0  0  0  0  0
   42.2620    7.8370   46.7030 H   0  0  0  0  0  0  0  0  0  0  0  0
   40.7300    7.0490   46.2790 H   0  0  0  0  0  0  0  0  0  0  0  0
   44.6900   13.4760   45.4110 C   0  0  0  0  0  0  0  0  0  0  0  0
   45.4790   13.9830   44.4590 N   0  0  0  0  0  0  0  0  0  0  0  0
   46.2040   14.9620   44.9710 O   0  0  0  0  0  0  0  0  0  0  0  0
   45.9210   15.1220   46.2330 N   0  0  0  0  0  0  0  0  0  0  0  0
   44.9650   14.1960   46.5460 C   0  0  0  0  0  0  0  0  0  0  0  0
   44.3970   14.0550   47.8380 N   0  0  0  0  0  0  0  0  0  0  0  0
   43.4270   14.4330   48.0290 H   0  0  0  0  0  0  0  0  0  0  0  0
   44.8780   13.5960   48.6350 H   0  0  0  0  0  0  0  0  0  0  0  0
  1  5  1  0  0  0  0
  2  1  1  0  0  0  0
  2  3  2  0  0  0  0
  3 28  1  0  0  0  0
  3  4  1  0  0  0  0
  5  4  2  0  0  0  0
  5 20  1  0  0  0  0
  6  7  1  0  0  0  0
  6  1  1  0  0  0  0
  7 10  2  0  0  0  0
  8 11  1  0  0  0  0
  8  7  1  0  0  0  0
  9  8  1  0  0  0  0
 12 13  1  0  0  0  0
 12 11  2  0  0  0  0
 13 19  1  0  0  0  0
 14 15  1  0  0  0  0
 14 13  2  0  0  0  0
 15 16  2  0  0  0  0
 16 17  1  0  0  0  0
 16 18  1  0  0  0  0
 19 18  2  0  0  0  0
 20 24  1  0  0  0  0
 20 21  2  0  0  0  0
 21 22  1  0  0  0  0
 23 22  1  0  0  0  0
 24 23  2  0  0  0  0
 25 26  1  0  0  0  0
 25 24  1  0  0  0  0
 27 25  1  0  0  0  0
 28 32  1  0  0  0  0
 29 30  1  0  0  0  0
 29 28  2  0  0  0  0
 30 31  1  0  0  0  0
 31 32  2  0  0  0  0
 32 33  1  0  0  0  0
 33 34  1  0  0  0  0
 33 35  1  0  0  0  0
M  END
>  <Pose>
1

>  <Score>
-7.578

$$$$
