MODEL 1
REMARK VINA RESULT:    -6.623      0.000      0.000
REMARK INTER + INTRA:         -10.206
REMARK INTER:                  -8.946
REMARK INTRA:                  -1.260
REMARK UNBOUND:                -1.260
REMARK  6 active torsions:
REMARK  status: ('A' for Active; 'I' for Inactive)
REMARK    1  A    between atoms: C_5  and  C_8 
REMARK    2  A    between atoms: C_9  and  C_28 
REMARK    3  A    between atoms: C_16  and  C_17 
REMARK    4  A    between atoms: C_17  and  N_18 
REMARK    5  A    between atoms: C_28  and  O_30 
REMARK    6  A    between atoms: O_30  and  C_31 
ROOT
ATOM      1  C   UNK d   1      49.692   4.716  46.132  0.00  0.00     0.065 A 
ATOM      2  C   UNK d   1      48.945   5.869  46.144  0.00  0.00     0.166 A 
ATOM      3  O   UNK d   1      48.136   6.209  45.159  0.00  0.00    -0.302 OA
ATOM      4  C   UNK d   1      47.993   5.456  44.099  0.00  0.00     0.101 A 
ATOM      5  C   UNK d   1      48.701   4.309  44.027  0.00  0.00     0.050 A 
ATOM      6  C   UNK d   1      48.569   3.494  42.925  0.00  0.00     0.021 A 
ATOM      7  C   UNK d   1      47.713   3.879  41.925  0.00  0.00     0.041 A 
ATOM      8  C   UNK d   1      46.979   5.077  42.010  0.00  0.00     0.118 A 
ATOM      9  C   UNK d   1      47.094   5.900  43.091  0.00  0.00     0.039 A 
ATOM     10  O   UNK d   1      46.168   5.300  40.911  0.00  0.00    -0.191 OA
ATOM     11  C   UNK d   1      49.568   3.887  45.016  0.00  0.00     0.199 A 
ATOM     12  O   UNK d   1      50.215   2.837  44.948  0.00  0.00    -0.286 OA
ENDROOT
BRANCH   9  13
ATOM     13  C   UNK d   1      46.429   7.162  43.311  0.00  0.00     0.279 C 
BRANCH  13  14
ATOM     14  N   UNK d   1      45.031   7.307  43.335  0.00  0.00    -0.064 N 
ATOM     15  C   UNK d   1      44.625   8.667  43.314  0.00  0.00     0.254 C 
ATOM     16  C   UNK d   1      43.335   9.044  43.928  0.00  0.00     0.144 C 
ATOM     17  N   UNK d   1      42.841   8.097  44.832  0.00  0.00    -0.413 N 
ATOM     18  C   UNK d   1      42.889   6.745  44.480  0.00  0.00     0.144 C 
ATOM     19  C   UNK d   1      42.317   8.497  46.069  0.00  0.00     0.143 C 
ATOM     20  C   UNK d   1      44.266   6.349  44.047  0.00  0.00     0.254 C 
ATOM     21  H   UNK d   1      44.777   7.006  42.268  0.00  0.00     0.280 HD
ENDBRANCH  13  14
ENDBRANCH   9  13
BRANCH   2  22
ATOM     22  C   UNK d   1      49.063   6.759  47.310  0.00  0.00     0.318 C 
ATOM     23  O   UNK d   1      48.064   6.876  48.064  0.00  0.00    -0.257 OA
BRANCH  22  24
ATOM     24  O   UNK d   1      50.189   7.458  47.617  0.00  0.00    -0.316 OA
BRANCH  24  25
ATOM     25  C   UNK d   1      50.550   7.683  48.958  0.00  0.00     0.175 C 
ATOM     26  C   UNK d   1      52.049   7.756  49.058  0.00  0.00     0.034 C 
ENDBRANCH  24  25
ENDBRANCH  22  24
ENDBRANCH   2  22
BRANCH   1  27
ATOM     27  C   UNK d   1      50.538   4.376  47.245  0.00  0.00    -0.019 A 
ATOM     28  C   UNK d   1      51.921   4.536  47.229  0.00  0.00     0.014 A 
ATOM     29  C   UNK d   1      52.732   4.225  48.298  0.00  0.00     0.020 A 
ATOM     30  C   UNK d   1      52.169   3.733  49.439  0.00  0.00     0.011 A 
ATOM     31 Br   UNK d   1      53.309   3.310  50.915  0.00  0.00    -0.051 Br
ATOM     32  C   UNK d   1      50.803   3.555  49.506  0.00  0.00     0.020 A 
ATOM     33  C   UNK d   1      49.998   3.880  48.402  0.00  0.00     0.014 A 
ENDBRANCH   1  27
TORSDOF 6
ENDMDL
