/Users/jonathanwahrer/Desktop/Msc/3_Semester/Drug_Design_Praktikum/waehrer_HTS_screening/HTS_experiment/out/docking_results/vina_output/2qfa/0320_docked.pdbqt
 OpenBabel03162219353D

 32 36  0  0  1  0  0  0  0  0999 V2000
   42.9270   12.5750   46.1740 C   0  0  0  0  0  0  0  0  0  0  0  0
   43.0710   11.6120   47.1860 C   0  0  0  0  0  3  0  0  0  0  0  0
   41.8720   11.0770   47.3770 N   0  0  0  0  0  0  0  0  0  0  0  0
   41.2730   10.1330   48.1660 C   0  0  0  0  0  0  0  0  0  0  0  0
   39.9530   10.1350   47.7910 C   0  0  0  0  0  0  0  0  0  0  0  0
   39.8140   11.0400   46.8350 N   0  0  0  0  0  0  0  0  0  0  0  0
   41.0090   11.6390   46.5640 C   0  0  1  0  0  3  0  0  0  0  0  0
   41.6430   12.5780   45.8000 N   0  0  0  0  0  0  0  0  0  0  0  0
   39.0240    9.2820   48.3950 C   0  0  0  0  0  3  0  0  0  0  0  0
   39.4350    8.4180   49.3860 C   0  0  0  0  0  3  0  0  0  0  0  0
   40.7640    8.4360   49.7430 C   0  0  0  0  0  3  0  0  0  0  0  0
   41.6940    9.2810   49.1490 C   0  0  0  0  0  3  0  0  0  0  0  0
   38.9030   11.2470   46.3830 H   0  0  0  0  0  0  0  0  0  0  0  0
   40.9290   13.3560   44.8340 C   0  0  0  0  0  2  0  0  0  0  0  0
   40.1780   12.6260   43.7950 C   0  0  0  0  0  2  0  0  0  0  0  0
   40.9210   11.7390   42.8630 C   0  0  0  0  0  2  0  0  0  0  0  0
   40.5680   10.3480   43.0420 N   0  0  0  0  0  4  0  0  0  0  0  0
   39.7610   10.1560   43.6300 H   0  0  0  0  0  0  0  0  0  0  0  0
   40.2520   10.0100   42.0600 H   0  0  0  0  0  0  0  0  0  0  0  0
   41.6890    9.5160   43.3670 C   0  0  0  0  0  3  0  0  0  0  0  0
   41.8190    8.2700   42.5390 C   0  0  0  0  0  2  0  0  0  0  0  0
   42.7280    7.3220   43.3350 C   0  0  0  0  0  2  0  0  0  0  0  0
   44.0650    7.9620   43.4840 C   0  0  0  0  0  2  0  0  0  0  0  0
   44.0110    9.3590   44.0580 C   0  0  0  0  0  2  0  0  0  0  0  0
   43.0310   10.2300   43.2640 C   0  0  0  0  0  2  0  0  0  0  0  0
   44.0280   13.3850   45.7000 C   0  0  0  0  0  0  0  0  0  0  0  0
   44.4230   14.4710   46.4540 C   0  0  0  0  0  3  0  0  0  0  0  0
   45.4600   15.2770   46.0790 C   0  0  0  0  0  3  0  0  0  0  0  0
   46.1580   15.0460   44.9340 C   0  0  0  0  0  0  0  0  0  0  0  0
   47.6210   16.1770   44.3970 Br  0  0  0  0  0  0  0  0  0  0  0  0
   45.7990   13.9790   44.1580 C   0  0  0  0  0  3  0  0  0  0  0  0
   44.7220   13.1540   44.5610 C   0  0  0  0  0  3  0  0  0  0  0  0
  1  2  2  0  0  0  0
  2  3  1  0  0  0  0
  3  4  1  0  0  0  0
  4 12  1  0  0  0  0
  5  4  2  0  0  0  0
  5  9  1  0  0  0  0
  6  5  1  0  0  0  0
  7  8  1  1  0  0  0
  7  6  1  0  0  0  0
  7  3  1  0  0  0  0
  8  1  1  0  0  0  0
  9 10  2  0  0  0  0
 10 11  1  0  0  0  0
 12 11  2  0  0  0  0
 13  6  1  0  0  0  0
 14  8  1  0  0  0  0
 15 14  1  0  0  0  0
 16 17  1  0  0  0  0
 16 15  1  0  0  0  0
 17 20  1  0  0  0  0
 17 18  1  0  0  0  0
 19 17  1  0  0  0  0
 21 22  1  0  0  0  0
 21 20  1  0  0  0  0
 22 23  1  0  0  0  0
 23 24  1  0  0  0  0
 25 20  1  0  0  0  0
 25 24  1  0  0  0  0
 26  1  1  0  0  0  0
 26 27  1  0  0  0  0
 28 27  2  0  0  0  0
 29 28  1  0  0  0  0
 30 29  1  0  0  0  0
 31 32  1  0  0  0  0
 31 29  2  0  0  0  0
 32 26  2  0  0  0  0
M  END
>  <Pose>
1

>  <Score>
-7.456

$$$$
