MODEL 1
REMARK VINA RESULT:    -7.481      0.000      0.000
REMARK INTER + INTRA:         -11.430
REMARK INTER:                 -10.761
REMARK INTRA:                  -0.670
REMARK UNBOUND:                -0.670
REMARK  8 active torsions:
REMARK  status: ('A' for Active; 'I' for Inactive)
REMARK    1  A    between atoms: C_5  and  C_8 
REMARK    2  A    between atoms: N_15  and  C_16 
REMARK    3  A    between atoms: C_16  and  C_17 
REMARK    4  A    between atoms: C_17  and  C_18 
REMARK    5  A    between atoms: C_18  and  N_19 
REMARK    6  A    between atoms: N_22  and  C_25 
REMARK    7  A    between atoms: C_25  and  C_26 
REMARK    8  A    between atoms: C_26  and  O_27 
ROOT
ATOM      1  C   UNK d   1      41.364  12.322  45.367  0.00  0.00     0.078 A 
ATOM      2  C   UNK d   1      40.186  13.058  45.594  0.00  0.00     0.146 A 
ATOM      3  N   UNK d   1      39.112  12.262  45.554  0.00  0.00    -0.153 N 
ATOM      4  C   UNK d   1      37.761  12.234  45.665  0.00  0.00     0.083 A 
ATOM      5  C   UNK d   1      37.388  10.926  45.476  0.00  0.00     0.077 A 
ATOM      6  N   UNK d   1      38.517  10.195  45.256  0.00  0.00    -0.189 N 
ATOM      7  C   UNK d   1      39.566  11.036  45.308  0.00  0.00     0.692 A 
ATOM      8  N   UNK d   1      40.942  11.068  45.192  0.00  0.00    -0.180 N 
ATOM      9  C   UNK d   1      36.045  10.618  45.539  0.00  0.00     0.032 A 
ATOM     10  C   UNK d   1      35.084  11.590  45.785  0.00  0.00     0.002 A 
ATOM     11  C   UNK d   1      35.458  12.897  45.973  0.00  0.00     0.002 A 
ATOM     12  C   UNK d   1      36.821  13.207  45.909  0.00  0.00     0.033 A 
ATOM     13  H   UNK d   1      38.530   9.166  45.081  0.00  0.00     0.184 HD
ENDROOT
BRANCH   8  14
ATOM     14  C   UNK d   1      41.729   9.888  44.903  0.00  0.00     0.149 C 
BRANCH  14  15
ATOM     15  C   UNK d   1      41.924   9.626  43.428  0.00  0.00     0.051 C 
BRANCH  15  16
ATOM     16  C   UNK d   1      42.743   8.381  43.197  0.00  0.00     0.274 C 
BRANCH  16  17
ATOM     17  N   UNK d   1      43.944   8.293  43.981  0.00  0.00     0.091 N 
ATOM     18  C   UNK d   1      45.042   8.293  43.027  0.00  0.00     0.300 C 
ATOM     19  C   UNK d   1      46.089   7.275  43.284  0.00  0.00     0.265 C 
ATOM     20  N   UNK d   1      45.620   5.956  43.609  0.00  0.00    -0.066 N 
ATOM     21  C   UNK d   1      44.263   5.931  44.112  0.00  0.00     0.265 C 
ATOM     22  H   UNK d   1      46.214   5.637  44.438  0.00  0.00     0.280 HD
ATOM     23  C   UNK d   1      44.022   7.204  44.897  0.00  0.00     0.300 C 
BRANCH  20  24
ATOM     24  C   UNK d   1      45.892   5.017  42.568  0.00  0.00     0.260 C 
BRANCH  24  25
ATOM     25  C   UNK d   1      47.325   4.659  42.365  0.00  0.00     0.192 C 
BRANCH  25  26
ATOM     26  O   UNK d   1      47.727   4.688  41.031  0.00  0.00    -0.399 OA
ATOM     27  H   UNK d   1      47.548   5.565  40.651  0.00  0.00     0.209 HD
ENDBRANCH  25  26
ENDBRANCH  24  25
ENDBRANCH  20  24
ENDBRANCH  16  17
ENDBRANCH  15  16
ENDBRANCH  14  15
ENDBRANCH   8  14
BRANCH   1  28
ATOM     28  C   UNK d   1      42.695  12.925  45.316  0.00  0.00    -0.007 A 
ATOM     29  C   UNK d   1      43.731  12.516  44.539  0.00  0.00     0.015 A 
ATOM     30  C   UNK d   1      44.971  13.175  44.511  0.00  0.00     0.020 A 
ATOM     31  C   UNK d   1      45.196  14.284  45.285  0.00  0.00     0.011 A 
ATOM     32 Br   UNK d   1      46.888  15.186  45.248  0.00  0.00    -0.051 Br
ATOM     33  C   UNK d   1      44.166  14.711  46.076  0.00  0.00     0.020 A 
ATOM     34  C   UNK d   1      42.946  14.054  46.097  0.00  0.00     0.015 A 
ENDBRANCH   1  28
TORSDOF 8
ENDMDL
