MODEL 1
REMARK VINA RESULT:    -7.675      0.000      0.000
REMARK INTER + INTRA:         -13.084
REMARK INTER:                 -11.265
REMARK INTRA:                  -1.819
REMARK UNBOUND:                -1.819
REMARK  8 active torsions:
REMARK  status: ('A' for Active; 'I' for Inactive)
REMARK    1  A    between atoms: C_5  and  C_8 
REMARK    2  A    between atoms: N_9  and  C_26 
REMARK    3  A    between atoms: C_14  and  C_15 
REMARK    4  A    between atoms: C_15  and  C_17 
REMARK    5  A    between atoms: C_20  and  O_23 
REMARK    6  A    between atoms: C_26  and  C_27 
REMARK    7  A    between atoms: C_27  and  C_28 
REMARK    8  A    between atoms: C_28  and  N_29 
ROOT
ATOM      1  C   UNK d   1      42.278  11.700  45.391  0.00  0.00     0.161 A 
ATOM      2  N   UNK d   1      42.387  10.268  45.314  0.00  0.00    -0.332 N 
ATOM      3  C   UNK d   1      43.099   9.750  46.421  0.00  0.00     0.295 A 
ATOM      4  O   UNK d   1      43.400   8.541  46.666  0.00  0.00    -0.264 OA
ATOM      5  C   UNK d   1      43.471  10.867  47.318  0.00  0.00     0.250 A 
ATOM      6  O   UNK d   1      44.111  10.751  48.387  0.00  0.00    -0.282 OA
ATOM      7  C   UNK d   1      42.945  12.059  46.686  0.00  0.00     0.062 A 
ENDROOT
BRANCH   7   8
ATOM      8  C   UNK d   1      43.100  13.262  47.191  0.00  0.00     0.130 C 
ATOM      9  O   UNK d   1      42.211  13.664  48.210  0.00  0.00    -0.190 OA
BRANCH   8  10
ATOM     10  C   UNK d   1      44.105  14.222  46.809  0.00  0.00     0.002 A 
ATOM     11  C   UNK d   1      44.382  15.392  47.425  0.00  0.00     0.024 A 
ATOM     12  C   UNK d   1      45.400  16.206  46.974  0.00  0.00    -0.028 A 
ATOM     13  C   UNK d   1      46.190  15.894  45.888  0.00  0.00     0.074 A 
ATOM     14  C   UNK d   1      45.670  17.495  47.693  0.00  0.00     0.051 C 
ATOM     15  C   UNK d   1      45.886  14.695  45.276  0.00  0.00     0.038 A 
ATOM     16  C   UNK d   1      44.884  13.865  45.698  0.00  0.00     0.017 A 
BRANCH  13  17
ATOM     17  O   UNK d   1      47.214  16.720  45.439  0.00  0.00    -0.355 OA
ATOM     18  C   UNK d   1      47.730  16.560  44.125  0.00  0.00     0.210 C 
ENDBRANCH  13  17
ENDBRANCH   8  10
ENDBRANCH   7   8
BRANCH   1  19
ATOM     19  C   UNK d   1      40.896  12.181  45.327  0.00  0.00    -0.030 A 
ATOM     20  C   UNK d   1      40.519  13.132  44.404  0.00  0.00     0.011 A 
ATOM     21  C   UNK d   1      39.201  13.595  44.342  0.00  0.00     0.019 A 
ATOM     22  C   UNK d   1      38.245  13.111  45.207  0.00  0.00     0.011 A 
ATOM     23 Br   UNK d   1      36.444  13.771  45.095  0.00  0.00    -0.051 Br
ATOM     24  C   UNK d   1      38.611  12.167  46.126  0.00  0.00     0.019 A 
ATOM     25  C   UNK d   1      39.911  11.723  46.173  0.00  0.00     0.011 A 
ENDBRANCH   1  19
BRANCH   2  26
ATOM     26  C   UNK d   1      41.836   9.481  44.226  0.00  0.00     0.129 C 
BRANCH  26  27
ATOM     27  C   UNK d   1      42.881   8.958  43.278  0.00  0.00     0.048 C 
BRANCH  27  28
ATOM     28  C   UNK d   1      42.982   7.465  43.332  0.00  0.00     0.236 C 
BRANCH  28  29
ATOM     29  N   UNK d   1      44.303   6.976  43.060  0.00  0.00    -0.067 N 
ATOM     30  C   UNK d   1      44.601   5.726  43.728  0.00  0.00     0.261 C 
ATOM     31  C   UNK d   1      45.927   5.222  43.148  0.00  0.00     0.195 C 
ATOM     32  O   UNK d   1      46.534   6.206  42.383  0.00  0.00    -0.388 OA
ATOM     33  C   UNK d   1      46.652   7.401  43.127  0.00  0.00     0.195 C 
ATOM     34  C   UNK d   1      45.268   7.995  43.360  0.00  0.00     0.261 C 
ATOM     35  H   UNK d   1      44.378   6.774  42.018  0.00  0.00     0.280 HD
ENDBRANCH  28  29
ENDBRANCH  27  28
ENDBRANCH  26  27
ENDBRANCH   2  26
TORSDOF 8
ENDMDL
