MODEL 1
REMARK VINA RESULT:    -7.615      0.000      0.000
REMARK INTER + INTRA:         -11.514
REMARK INTER:                 -10.732
REMARK INTRA:                  -0.782
REMARK UNBOUND:                -0.782
REMARK  7 active torsions:
REMARK  status: ('A' for Active; 'I' for Inactive)
REMARK    1  A    between atoms: C_5  and  C_8 
REMARK    2  A    between atoms: N_9  and  C_25 
REMARK    3  A    between atoms: C_15  and  C_17 
REMARK    4  A    between atoms: C_19  and  O_23 
REMARK    5  A    between atoms: C_25  and  C_26 
REMARK    6  A    between atoms: C_26  and  C_27 
REMARK    7  A    between atoms: C_27  and  N_28 
ROOT
ATOM      1  C   UNK d   1      41.541  10.315  45.771  0.00  0.00     0.161 C 
ATOM      2  N   UNK d   1      42.494   9.226  45.844  0.00  0.00    -0.332 N 
ATOM      3  C   UNK d   1      43.358   9.522  46.943  0.00  0.00     0.295 C 
ATOM      4  O   UNK d   1      44.010   8.698  47.632  0.00  0.00    -0.264 OA
ATOM      5  C   UNK d   1      43.326  10.973  47.096  0.00  0.00     0.250 C 
ATOM      6  O   UNK d   1      43.924  11.701  47.927  0.00  0.00    -0.282 OA
ATOM      7  C   UNK d   1      42.431  11.498  46.070  0.00  0.00     0.062 C 
ATOM      8  C   UNK d   1      42.412  12.715  45.584  0.00  0.00     0.130 C 
ATOM      9  O   UNK d   1      41.409  12.986  44.636  0.00  0.00    -0.190 OA
ENDROOT
BRANCH   2  10
ATOM     10  C   UNK d   1      42.575   8.042  44.973  0.00  0.00     0.129 C 
BRANCH  10  11
ATOM     11  C   UNK d   1      43.606   8.272  43.857  0.00  0.00     0.048 C 
BRANCH  11  12
ATOM     12  C   UNK d   1      43.972   6.950  43.245  0.00  0.00     0.236 C 
BRANCH  12  13
ATOM     13  N   UNK d   1      44.977   6.314  44.062  0.00  0.00    -0.067 N 
ATOM     14  C   UNK d   1      46.116   7.135  44.332  0.00  0.00     0.261 C 
ATOM     15  C   UNK d   1      47.001   7.320  43.148  0.00  0.00     0.195 C 
ATOM     16  O   UNK d   1      47.408   6.100  42.638  0.00  0.00    -0.388 OA
ATOM     17  C   UNK d   1      46.265   5.409  42.231  0.00  0.00     0.195 C 
ATOM     18  C   UNK d   1      45.460   5.079  43.472  0.00  0.00     0.261 C 
ATOM     19  H   UNK d   1      44.535   6.048  44.973  0.00  0.00     0.280 HD
ENDBRANCH  12  13
ENDBRANCH  11  12
ENDBRANCH  10  11
ENDBRANCH   2  10
BRANCH   1  20
ATOM     20  C   UNK d   1      40.490  10.169  46.768  0.00  0.00    -0.030 A 
ATOM     21  C   UNK d   1      40.386   9.018  47.511  0.00  0.00     0.011 A 
ATOM     22  C   UNK d   1      39.375   8.858  48.462  0.00  0.00     0.019 A 
ATOM     23  C   UNK d   1      38.458   9.861  48.673  0.00  0.00     0.011 A 
ATOM     24 Br   UNK d   1      37.079   9.638  49.971  0.00  0.00    -0.051 Br
ATOM     25  C   UNK d   1      38.551  11.014  47.938  0.00  0.00     0.019 A 
ATOM     26  C   UNK d   1      39.559  11.155  47.001  0.00  0.00     0.011 A 
ENDBRANCH   1  20
BRANCH   8  27
ATOM     27  C   UNK d   1      43.362  13.752  45.973  0.00  0.00     0.004 A 
ATOM     28  C   UNK d   1      44.628  13.876  45.449  0.00  0.00     0.051 A 
ATOM     29  C   UNK d   1      45.542  14.843  45.829  0.00  0.00     0.069 A 
ATOM     30  C   UNK d   1      45.174  15.743  46.787  0.00  0.00     0.037 A 
ATOM     31  C   UNK d   1      43.901  15.656  47.345  0.00  0.00     0.004 A 
ATOM     32  C   UNK d   1      43.018  14.678  46.942  0.00  0.00     0.014 A 
BRANCH  29  33
ATOM     33  O   UNK d   1      46.765  14.819  45.198  0.00  0.00    -0.356 OA
ATOM     34  C   UNK d   1      47.388  15.848  44.510  0.00  0.00     0.210 C 
ENDBRANCH  29  33
ENDBRANCH   8  27
TORSDOF 7
ENDMDL
