MODEL 1
REMARK VINA RESULT:    -7.127      0.000      0.000
REMARK INTER + INTRA:          -9.924
REMARK INTER:                  -9.210
REMARK INTRA:                  -0.714
REMARK UNBOUND:                -0.714
REMARK  5 active torsions:
REMARK  status: ('A' for Active; 'I' for Inactive)
REMARK    1  A    between atoms: C_5  and  C_8 
REMARK    2  A    between atoms: N_9  and  C_24 
REMARK    3  A    between atoms: C_15  and  C_17 
REMARK    4  A    between atoms: C_24  and  C_25 
REMARK    5  A    between atoms: C_25  and  N_26 
ROOT
ATOM      1  C   UNK d   1      41.382   9.780  45.088  0.00  0.00     0.161 C 
ATOM      2  N   UNK d   1      41.548  10.946  44.300  0.00  0.00    -0.331 N 
ATOM      3  C   UNK d   1      41.597  10.427  42.936  0.00  0.00     0.295 C 
ATOM      4  O   UNK d   1      41.240  11.041  41.894  0.00  0.00    -0.264 OA
ATOM      5  C   UNK d   1      42.138   9.073  43.045  0.00  0.00     0.250 C 
ATOM      6  O   UNK d   1      42.364   8.247  42.124  0.00  0.00    -0.282 OA
ATOM      7  C   UNK d   1      42.379   8.854  44.473  0.00  0.00     0.062 C 
ATOM      8  C   UNK d   1      43.284   8.069  45.029  0.00  0.00     0.130 C 
ATOM      9  O   UNK d   1      43.422   8.026  46.407  0.00  0.00    -0.190 OA
ENDROOT
BRANCH   2  10
ATOM     10  C   UNK d   1      41.612  12.378  44.605  0.00  0.00     0.155 C 
BRANCH  10  11
ATOM     11  C   UNK d   1      40.277  13.054  44.682  0.00  0.00     0.255 C 
BRANCH  11  12
ATOM     12  N   UNK d   1      39.467  12.570  45.777  0.00  0.00    -0.066 N 
ATOM     13  C   UNK d   1      38.058  12.697  45.530  0.00  0.00     0.261 C 
ATOM     14  C   UNK d   1      37.563  14.114  45.538  0.00  0.00     0.195 C 
ATOM     15  O   UNK d   1      37.946  14.798  46.693  0.00  0.00    -0.388 OA
ATOM     16  C   UNK d   1      39.349  14.794  46.703  0.00  0.00     0.195 C 
ATOM     17  C   UNK d   1      39.782  13.365  46.950  0.00  0.00     0.261 C 
ATOM     18  H   UNK d   1      39.669  11.580  46.017  0.00  0.00     0.280 HD
ENDBRANCH  11  12
ENDBRANCH  10  11
ENDBRANCH   2  10
BRANCH   1  19
ATOM     19  C   UNK d   1      41.324   9.806  46.499  0.00  0.00    -0.030 A 
ATOM     20  C   UNK d   1      42.191  10.526  47.271  0.00  0.00     0.011 A 
ATOM     21  C   UNK d   1      42.079  10.529  48.669  0.00  0.00     0.019 A 
ATOM     22  C   UNK d   1      41.098   9.811  49.314  0.00  0.00     0.011 A 
ATOM     23 Br   UNK d   1      40.904   9.781  51.206  0.00  0.00    -0.051 Br
ATOM     24  C   UNK d   1      40.228   9.087  48.543  0.00  0.00     0.019 A 
ATOM     25  C   UNK d   1      40.352   9.096  47.173  0.00  0.00     0.011 A 
ENDBRANCH   1  19
BRANCH   8  26
ATOM     26  C   UNK d   1      44.178   7.206  44.269  0.00  0.00     0.001 A 
ATOM     27  C   UNK d   1      45.282   7.861  43.706  0.00  0.00     0.016 A 
ATOM     28  C   UNK d   1      46.244   7.186  42.991  0.00  0.00     0.024 A 
ATOM     29  C   UNK d   1      46.102   5.812  42.833  0.00  0.00     0.034 A 
ATOM     30  C   UNK d   1      45.015   5.175  43.390  0.00  0.00     0.024 A 
ATOM     31 Cl   UNK d   1      47.331   4.963  41.922  0.00  0.00    -0.084 Cl
ATOM     32  C   UNK d   1      44.056   5.861  44.105  0.00  0.00     0.016 A 
ENDBRANCH   8  26
TORSDOF 5
ENDMDL
