/Users/jonathanwahrer/Desktop/Msc/3_Semester/Drug_Design_Praktikum/waehrer_HTS_screening/HTS_experiment/out/docking_results/vina_output/2qfa/0354_docked.pdbqt
 OpenBabel03162219383D

 32 35  0  0  1  0  0  0  0  0999 V2000
   42.7650   12.5590   47.9460 C   0  0  1  0  0  3  0  0  0  0  0  0
   43.2810   11.2370   48.0970 N   0  0  0  0  0  0  0  0  0  0  0  0
   44.6920   11.4010   48.3930 C   0  0  0  0  0  0  0  0  0  0  0  0
   45.4120   10.5270   48.9420 O   0  0  0  0  0  0  0  0  0  0  0  0
   45.0900   12.7220   47.9470 C   0  0  0  0  0  0  0  0  0  0  0  0
   46.2400   13.2530   48.0190 O   0  0  0  0  0  0  0  0  0  0  0  0
   43.9030   13.3380   47.3890 C   0  0  0  0  0  0  0  0  0  0  0  0
   43.8800   14.3520   46.5420 C   0  0  0  0  0  0  0  0  0  0  0  0
   42.6010   14.7580   46.0910 O   0  0  0  0  0  1  0  0  0  0  0  0
   42.6350    9.9230   48.0730 C   0  0  0  0  0  2  0  0  0  0  0  0
   42.9810    9.0680   46.9010 C   0  0  0  0  0  2  0  0  0  0  0  0
   41.8610    8.1000   46.5530 C   0  0  0  0  0  2  0  0  0  0  0  0
   41.8010    7.8580   45.1300 N   0  0  0  0  0  4  0  0  0  0  0  0
   42.2050    9.0080   44.3530 C   0  0  0  0  0  2  0  0  0  0  0  0
   42.5070    8.4980   42.9410 C   0  0  0  0  0  2  0  0  0  0  0  0
   43.7390    7.8440   42.9640 O   0  0  0  0  0  0  0  0  0  0  0  0
   43.8900    7.0750   44.1170 C   0  0  0  0  0  2  0  0  0  0  0  0
   42.5500    6.7090   44.7210 C   0  0  0  0  0  2  0  0  0  0  0  0
   40.7940    7.6770   44.9020 H   0  0  0  0  0  0  0  0  0  0  0  0
   41.5260   12.7390   47.2140 C   0  0  0  0  0  0  0  0  0  0  0  0
   41.2220   12.2600   45.9850 C   0  0  0  0  0  3  0  0  0  0  0  0
   39.9940   12.4740   45.3900 C   0  0  0  0  0  3  0  0  0  0  0  0
   39.0040   13.1960   46.0210 C   0  0  0  0  0  0  0  0  0  0  0  0
   37.2990   13.5040   45.2180 Br  0  0  0  0  0  0  0  0  0  0  0  0
   39.2790   13.6990   47.2740 C   0  0  0  0  0  3  0  0  0  0  0  0
   40.5090   13.4730   47.8480 C   0  0  0  0  0  3  0  0  0  0  0  0
   45.0570   15.0550   46.0710 C   0  0  0  0  0  0  0  0  0  0  0  0
   45.4070   16.2120   46.7770 C   0  0  0  0  0  3  0  0  0  0  0  0
   46.5260   16.9550   46.4650 C   0  0  0  0  0  3  0  0  0  0  0  0
   47.3170   16.5660   45.4490 N   0  0  0  0  0  0  0  0  0  0  0  0
   47.0050   15.4540   44.7510 C   0  0  0  0  0  3  0  0  0  0  0  0
   45.8770   14.6960   45.0570 C   0  0  0  0  0  3  0  0  0  0  0  0
  1 20  1  6  0  0  0
  1  2  1  0  0  0  0
  2  3  1  0  0  0  0
  3  4  2  0  0  0  0
  5  6  2  0  0  0  0
  5  3  1  0  0  0  0
  7  1  1  0  0  0  0
  7  5  1  0  0  0  0
  8  7  2  0  0  0  0
  9  8  1  0  0  0  0
 10  2  1  0  0  0  0
 11 10  1  0  0  0  0
 12 11  1  0  0  0  0
 13 12  1  0  0  0  0
 14 13  1  0  0  0  0
 15 16  1  0  0  0  0
 15 14  1  0  0  0  0
 16 17  1  0  0  0  0
 17 18  1  0  0  0  0
 18 13  1  0  0  0  0
 19 13  1  0  0  0  0
 20 26  1  0  0  0  0
 21 20  2  0  0  0  0
 22 21  1  0  0  0  0
 22 23  2  0  0  0  0
 23 25  1  0  0  0  0
 24 23  1  0  0  0  0
 25 26  2  0  0  0  0
 27  8  1  0  0  0  0
 27 28  1  0  0  0  0
 29 28  2  0  0  0  0
 30 29  1  0  0  0  0
 31 32  1  0  0  0  0
 31 30  2  0  0  0  0
 32 27  2  0  0  0  0
M  END
>  <Pose>
1

>  <Score>
-6.270

$$$$
