MODEL 1
REMARK VINA RESULT:    -6.270      0.000      0.000
REMARK INTER + INTRA:          -9.060
REMARK INTER:                  -8.469
REMARK INTRA:                  -0.591
REMARK UNBOUND:                -0.591
REMARK  6 active torsions:
REMARK  status: ('A' for Active; 'I' for Inactive)
REMARK    1  A    between atoms: C_5  and  C_8 
REMARK    2  A    between atoms: N_9  and  C_23 
REMARK    3  A    between atoms: C_15  and  C_17 
REMARK    4  A    between atoms: C_23  and  C_24 
REMARK    5  A    between atoms: C_24  and  C_25 
REMARK    6  A    between atoms: C_25  and  N_26 
ROOT
ATOM      1  C   UNK d   1      42.765  12.559  47.946  0.00  0.00     0.161 C 
ATOM      2  N   UNK d   1      43.281  11.237  48.097  0.00  0.00    -0.332 N 
ATOM      3  C   UNK d   1      44.692  11.401  48.393  0.00  0.00     0.295 C 
ATOM      4  O   UNK d   1      45.412  10.527  48.942  0.00  0.00    -0.264 OA
ATOM      5  C   UNK d   1      45.090  12.722  47.947  0.00  0.00     0.250 C 
ATOM      6  O   UNK d   1      46.240  13.253  48.019  0.00  0.00    -0.282 OA
ATOM      7  C   UNK d   1      43.903  13.338  47.389  0.00  0.00     0.062 C 
ATOM      8  C   UNK d   1      43.880  14.352  46.542  0.00  0.00     0.130 C 
ATOM      9  O   UNK d   1      42.601  14.758  46.091  0.00  0.00    -0.190 OA
ENDROOT
BRANCH   2  10
ATOM     10  C   UNK d   1      42.635   9.923  48.073  0.00  0.00     0.129 C 
BRANCH  10  11
ATOM     11  C   UNK d   1      42.981   9.068  46.901  0.00  0.00     0.048 C 
BRANCH  11  12
ATOM     12  C   UNK d   1      41.861   8.100  46.553  0.00  0.00     0.236 C 
BRANCH  12  13
ATOM     13  N   UNK d   1      41.801   7.858  45.130  0.00  0.00    -0.067 N 
ATOM     14  C   UNK d   1      42.205   9.008  44.353  0.00  0.00     0.261 C 
ATOM     15  C   UNK d   1      42.507   8.498  42.941  0.00  0.00     0.195 C 
ATOM     16  O   UNK d   1      43.739   7.844  42.964  0.00  0.00    -0.388 OA
ATOM     17  C   UNK d   1      43.890   7.075  44.117  0.00  0.00     0.195 C 
ATOM     18  C   UNK d   1      42.550   6.709  44.721  0.00  0.00     0.261 C 
ATOM     19  H   UNK d   1      40.794   7.677  44.902  0.00  0.00     0.280 HD
ENDBRANCH  12  13
ENDBRANCH  11  12
ENDBRANCH  10  11
ENDBRANCH   2  10
BRANCH   1  20
ATOM     20  C   UNK d   1      41.526  12.739  47.214  0.00  0.00    -0.030 A 
ATOM     21  C   UNK d   1      41.222  12.260  45.985  0.00  0.00     0.011 A 
ATOM     22  C   UNK d   1      39.994  12.474  45.390  0.00  0.00     0.019 A 
ATOM     23  C   UNK d   1      39.004  13.196  46.021  0.00  0.00     0.011 A 
ATOM     24 Br   UNK d   1      37.299  13.504  45.218  0.00  0.00    -0.051 Br
ATOM     25  C   UNK d   1      39.279  13.699  47.274  0.00  0.00     0.019 A 
ATOM     26  C   UNK d   1      40.509  13.473  47.848  0.00  0.00     0.011 A 
ENDBRANCH   1  20
BRANCH   8  27
ATOM     27  C   UNK d   1      45.057  15.055  46.071  0.00  0.00     0.004 A 
ATOM     28  C   UNK d   1      45.407  16.212  46.777  0.00  0.00     0.033 A 
ATOM     29  C   UNK d   1      46.526  16.955  46.465  0.00  0.00     0.117 A 
ATOM     30  N   UNK d   1      47.317  16.566  45.449  0.00  0.00    -0.273 NA
ATOM     31  C   UNK d   1      47.005  15.454  44.751  0.00  0.00     0.117 A 
ATOM     32  C   UNK d   1      45.877  14.696  45.057  0.00  0.00     0.033 A 
ENDBRANCH   8  27
TORSDOF 6
ENDMDL
