/Users/jonathanwahrer/Desktop/Msc/3_Semester/Drug_Design_Praktikum/waehrer_HTS_screening/HTS_experiment/out/docking_results/vina_output/2qfa/0361_docked.pdbqt
 OpenBabel03162219393D

 33 36  0  0  1  0  0  0  0  0999 V2000
   41.2140   11.0700   45.6070 C   0  0  1  0  0  3  0  0  0  0  0  0
   40.9190   11.3510   44.1890 N   0  0  0  0  0  0  0  0  0  0  0  0
   40.6150   12.7410   44.1590 C   0  0  0  0  0  0  0  0  0  0  0  0
   39.8950   13.2930   43.2780 O   0  0  0  0  0  0  0  0  0  0  0  0
   41.2650   13.3900   45.2930 C   0  0  0  0  0  0  0  0  0  0  0  0
   41.2280   14.6030   45.5870 O   0  0  0  0  0  0  0  0  0  0  0  0
   41.9590   12.3240   45.9910 C   0  0  0  0  0  0  0  0  0  0  0  0
   43.0200   12.4110   46.7530 C   0  0  0  0  0  0  0  0  0  0  0  0
   43.5950   11.2770   47.3100 O   0  0  0  0  0  1  0  0  0  0  0  0
   39.9690   11.0490   46.4070 C   0  0  0  0  0  0  0  0  0  0  0  0
   39.9620   11.4250   47.7290 C   0  0  0  0  0  3  0  0  0  0  0  0
   38.7970   11.4250   48.4950 C   0  0  0  0  0  3  0  0  0  0  0  0
   37.5960   11.0390   47.9300 C   0  0  0  0  0  0  0  0  0  0  0  0
   35.9790   11.0320   48.9690 Br  0  0  0  0  0  0  0  0  0  0  0  0
   37.6070   10.6640   46.6100 C   0  0  0  0  0  3  0  0  0  0  0  0
   38.7610   10.6680   45.8630 C   0  0  0  0  0  3  0  0  0  0  0  0
   43.6410   13.6860   47.0560 C   0  0  0  0  0  0  0  0  0  0  0  0
   44.6120   14.3800   46.4290 N   0  0  0  0  0  0  0  0  0  0  0  0
   44.8980   15.5090   47.0950 C   0  0  0  0  0  0  0  0  0  0  0  0
   45.2980   14.1460   45.2810 C   0  0  0  0  0  3  0  0  0  0  0  0
   44.0820   15.5240   48.1710 N   0  0  0  0  0  0  0  0  0  0  0  0
   45.8550   16.4270   46.6610 C   0  0  0  0  0  3  0  0  0  0  0  0
   43.3100   14.4550   48.1930 C   0  0  0  0  0  0  0  0  0  0  0  0
   42.2610   14.0550   49.1850 C   0  0  0  0  0  1  0  0  0  0  0  0
   46.5530   16.1940   45.4990 C   0  0  0  0  0  3  0  0  0  0  0  0
   46.2460   15.0330   44.8280 C   0  0  0  0  0  3  0  0  0  0  0  0
   40.9310   10.4000   43.1100 C   0  0  0  0  0  2  0  0  0  0  0  0
   42.0230    9.4080   43.0280 C   0  0  0  0  0  2  0  0  0  0  0  0
   43.4190    9.7970   43.3180 C   0  0  0  0  0  2  0  0  0  0  0  0
   44.2140    8.9090   44.1100 N   0  0  0  0  0  4  0  0  0  0  0  0
   43.2640    8.1000   44.9260 C   0  0  0  0  0  1  0  0  0  0  0  0
   44.8650    7.9350   43.2580 C   0  0  0  0  0  1  0  0  0  0  0  0
   44.8950    9.3350   44.7400 H   0  0  0  0  0  0  0  0  0  0  0  0
  1  7  1  0  0  0  0
  1 10  1  1  0  0  0
  2  1  1  0  0  0  0
  3  2  1  0  0  0  0
  3  5  1  0  0  0  0
  4  3  2  0  0  0  0
  5  6  2  0  0  0  0
  5  7  1  0  0  0  0
  7  8  2  0  0  0  0
  8 17  1  0  0  0  0
  8  9  1  0  0  0  0
 10 11  1  0  0  0  0
 11 12  2  0  0  0  0
 13 12  1  0  0  0  0
 13 14  1  0  0  0  0
 15 13  2  0  0  0  0
 16 10  2  0  0  0  0
 16 15  1  0  0  0  0
 17 23  2  0  0  0  0
 18 17  1  0  0  0  0
 18 19  1  0  0  0  0
 19 21  2  0  0  0  0
 20 18  1  0  0  0  0
 21 23  1  0  0  0  0
 22 19  1  0  0  0  0
 23 24  1  0  0  0  0
 25 22  2  0  0  0  0
 26 20  2  0  0  0  0
 26 25  1  0  0  0  0
 27  2  1  0  0  0  0
 28 27  1  0  0  0  0
 28 29  1  0  0  0  0
 29 30  1  0  0  0  0
 30 33  1  0  0  0  0
 30 31  1  0  0  0  0
 32 30  1  0  0  0  0
M  END
>  <Pose>
1

>  <Score>
-6.596

$$$$
