MODEL 1
REMARK VINA RESULT:    -6.596      0.000      0.000
REMARK INTER + INTRA:         -10.328
REMARK INTER:                  -8.909
REMARK INTRA:                  -1.419
REMARK UNBOUND:                -1.419
REMARK  6 active torsions:
REMARK  status: ('A' for Active; 'I' for Inactive)
REMARK    1  A    between atoms: C_5  and  C_8 
REMARK    2  A    between atoms: N_9  and  C_27 
REMARK    3  A    between atoms: C_15  and  C_17 
REMARK    4  A    between atoms: C_27  and  C_28 
REMARK    5  A    between atoms: C_28  and  C_29 
REMARK    6  A    between atoms: C_29  and  N_30 
ROOT
ATOM      1  C   UNK d   1      41.214  11.070  45.607  0.00  0.00     0.161 C 
ATOM      2  N   UNK d   1      40.919  11.351  44.189  0.00  0.00    -0.332 N 
ATOM      3  C   UNK d   1      40.615  12.741  44.159  0.00  0.00     0.295 C 
ATOM      4  O   UNK d   1      39.895  13.293  43.278  0.00  0.00    -0.264 OA
ATOM      5  C   UNK d   1      41.265  13.390  45.293  0.00  0.00     0.251 C 
ATOM      6  O   UNK d   1      41.228  14.603  45.587  0.00  0.00    -0.282 OA
ATOM      7  C   UNK d   1      41.959  12.324  45.991  0.00  0.00     0.064 C 
ATOM      8  C   UNK d   1      43.020  12.411  46.753  0.00  0.00     0.149 C 
ATOM      9  O   UNK d   1      43.595  11.277  47.310  0.00  0.00    -0.189 OA
ENDROOT
BRANCH   1  10
ATOM     10  C   UNK d   1      39.969  11.049  46.407  0.00  0.00    -0.030 A 
ATOM     11  C   UNK d   1      39.962  11.425  47.729  0.00  0.00     0.011 A 
ATOM     12  C   UNK d   1      38.797  11.425  48.495  0.00  0.00     0.019 A 
ATOM     13  C   UNK d   1      37.596  11.039  47.930  0.00  0.00     0.011 A 
ATOM     14 Br   UNK d   1      35.979  11.032  48.969  0.00  0.00    -0.051 Br
ATOM     15  C   UNK d   1      37.607  10.664  46.610  0.00  0.00     0.019 A 
ATOM     16  C   UNK d   1      38.761  10.668  45.863  0.00  0.00     0.011 A 
ENDBRANCH   1  10
BRANCH   8  17
ATOM     17  C   UNK d   1      43.641  13.686  47.056  0.00  0.00     0.102 A 
ATOM     18  N   UNK d   1      44.612  14.380  46.429  0.00  0.00    -0.302 N 
ATOM     19  C   UNK d   1      44.898  15.509  47.095  0.00  0.00     0.134 A 
ATOM     20  C   UNK d   1      45.298  14.146  45.281  0.00  0.00     0.099 A 
ATOM     21  N   UNK d   1      44.082  15.524  48.171  0.00  0.00    -0.233 NA
ATOM     22  C   UNK d   1      45.855  16.427  46.661  0.00  0.00     0.051 A 
ATOM     23  C   UNK d   1      43.310  14.455  48.193  0.00  0.00     0.063 A 
ATOM     24  C   UNK d   1      42.261  14.055  49.185  0.00  0.00     0.073 C 
ATOM     25  C   UNK d   1      46.553  16.194  45.499  0.00  0.00     0.005 A 
ATOM     26  C   UNK d   1      46.246  15.033  44.828  0.00  0.00     0.018 A 
ENDBRANCH   8  17
BRANCH   2  27
ATOM     27  C   UNK d   1      40.931  10.400  43.110  0.00  0.00     0.129 C 
BRANCH  27  28
ATOM     28  C   UNK d   1      42.023   9.408  43.028  0.00  0.00     0.048 C 
BRANCH  28  29
ATOM     29  C   UNK d   1      43.419   9.797  43.318  0.00  0.00     0.235 C 
BRANCH  29  30
ATOM     30  N   UNK d   1      44.214   8.909  44.110  0.00  0.00    -0.079 N 
ATOM     31  C   UNK d   1      43.264   8.100  44.926  0.00  0.00     0.269 C 
ATOM     32  C   UNK d   1      44.865   7.935  43.258  0.00  0.00     0.269 C 
ATOM     33  H   UNK d   1      44.895   9.335  44.740  0.00  0.00     0.278 HD
ENDBRANCH  29  30
ENDBRANCH  28  29
ENDBRANCH  27  28
ENDBRANCH   2  27
TORSDOF 6
ENDMDL
