/Users/jonathanwahrer/Desktop/Msc/3_Semester/Drug_Design_Praktikum/waehrer_HTS_screening/HTS_experiment/out/docking_results/vina_output/2qfa/0362_docked.pdbqt
 OpenBabel03162219393D

 36 40  0  0  1  0  0  0  0  0999 V2000
   42.0760   12.1650   47.1080 C   0  0  2  0  0  3  0  0  0  0  0  0
   41.6060   11.9650   45.8020 N   0  0  0  0  0  0  0  0  0  0  0  0
   41.3020   13.3160   45.3610 C   0  0  0  0  0  0  0  0  0  0  0  0
   40.4550   13.6830   44.4770 O   0  0  0  0  0  0  0  0  0  0  0  0
   42.1520   14.2280   46.1180 C   0  0  0  0  0  0  0  0  0  0  0  0
   42.2450   15.4970   46.0870 O   0  0  0  0  0  0  0  0  0  0  0  0
   42.9430   13.3660   46.9930 C   0  0  0  0  0  0  0  0  0  0  0  0
   44.1060   13.6200   47.5630 C   0  0  0  0  0  0  0  0  0  0  0  0
   44.6800   12.6870   48.4140 O   0  0  0  0  0  1  0  0  0  0  0  0
   42.5850   11.1120   47.9300 C   0  0  0  0  0  0  0  0  0  0  0  0
   43.4610   10.1730   47.4670 C   0  0  0  0  0  3  0  0  0  0  0  0
   43.9070    9.1680   48.3000 C   0  0  0  0  0  3  0  0  0  0  0  0
   43.4960    9.0680   49.6160 C   0  0  0  0  0  0  0  0  0  0  0  0
   44.1130    7.6780   50.7680 Br  0  0  0  0  0  0  0  0  0  0  0  0
   42.6100   10.0230   50.0770 C   0  0  0  0  0  3  0  0  0  0  0  0
   42.1760   11.0170   49.2300 C   0  0  0  0  0  3  0  0  0  0  0  0
   44.8370   14.8570   47.3380 C   0  0  0  0  0  0  0  0  0  0  0  0
   45.6050   15.1830   46.2850 N   0  0  0  0  0  0  0  0  0  0  0  0
   46.0840   16.4410   46.4300 C   0  0  0  0  0  0  0  0  0  0  0  0
   46.0010   14.5370   45.1490 C   0  0  0  0  0  3  0  0  0  0  0  0
   45.6010   16.8960   47.5970 N   0  0  0  0  0  0  0  0  0  0  0  0
   46.9110   17.0300   45.4980 C   0  0  0  0  0  3  0  0  0  0  0  0
   44.8420   15.9710   48.1810 C   0  0  0  0  0  0  0  0  0  0  0  0
   44.1050   16.0190   49.4710 C   0  0  0  0  0  1  0  0  0  0  0  0
   47.2920   16.3540   44.3630 C   0  0  0  0  0  3  0  0  0  0  0  0
   46.8150   15.0720   44.2000 C   0  0  0  0  0  3  0  0  0  0  0  0
   41.3430   10.8990   44.8910 C   0  0  0  0  0  2  0  0  0  0  0  0
   42.1210   10.6620   43.6950 C   0  0  0  0  0  2  0  0  0  0  0  0
   43.4890   10.0400   43.8540 C   0  0  0  0  0  2  0  0  0  0  0  0
   43.6380    8.8590   43.0100 N   0  0  0  0  0  4  0  0  0  0  0  0
   42.4940    7.9950   43.0090 C   0  0  0  0  0  2  0  0  0  0  0  0
   42.4850    6.9630   44.0970 C   0  0  0  0  0  2  0  0  0  0  0  0
   43.3990    7.1990   45.0900 O   0  0  0  0  0  0  0  0  0  0  0  0
   44.6860    7.4050   44.6680 C   0  0  0  0  0  2  0  0  0  0  0  0
   44.8000    8.0940   43.3480 C   0  0  0  0  0  2  0  0  0  0  0  0
   43.7500    9.2160   42.0280 H   0  0  0  0  0  0  0  0  0  0  0  0
  1 10  1  6  0  0  0
  2  1  1  0  0  0  0
  3  2  1  0  0  0  0
  3  5  1  0  0  0  0
  4  3  2  0  0  0  0
  5  7  1  0  0  0  0
  6  5  2  0  0  0  0
  7  1  1  0  0  0  0
  7  8  2  0  0  0  0
  8  9  1  0  0  0  0
 10 16  1  0  0  0  0
 11 10  2  0  0  0  0
 11 12  1  0  0  0  0
 12 13  2  0  0  0  0
 13 15  1  0  0  0  0
 13 14  1  0  0  0  0
 16 15  2  0  0  0  0
 17  8  1  0  0  0  0
 17 23  2  0  0  0  0
 18 19  1  0  0  0  0
 18 17  1  0  0  0  0
 19 21  2  0  0  0  0
 20 18  1  0  0  0  0
 21 23  1  0  0  0  0
 22 19  1  0  0  0  0
 23 24  1  0  0  0  0
 25 22  2  0  0  0  0
 26 25  1  0  0  0  0
 26 20  2  0  0  0  0
 27  2  1  0  0  0  0
 28 29  1  0  0  0  0
 28 27  1  0  0  0  0
 30 35  1  0  0  0  0
 30 29  1  0  0  0  0
 31 30  1  0  0  0  0
 31 32  1  0  0  0  0
 32 33  1  0  0  0  0
 34 33  1  0  0  0  0
 35 34  1  0  0  0  0
 36 30  1  0  0  0  0
M  END
>  <Pose>
1

>  <Score>
-6.844

$$$$
