MODEL 1
REMARK VINA RESULT:    -7.337      0.000      0.000
REMARK INTER + INTRA:         -10.866
REMARK INTER:                  -9.482
REMARK INTRA:                  -1.384
REMARK UNBOUND:                -1.384
REMARK  5 active torsions:
REMARK  status: ('A' for Active; 'I' for Inactive)
REMARK    1  A    between atoms: C_5  and  C_8 
REMARK    2  A    between atoms: N_9  and  C_27 
REMARK    3  A    between atoms: C_15  and  C_17 
REMARK    4  A    between atoms: C_27  and  C_28 
REMARK    5  A    between atoms: C_28  and  N_29 
ROOT
ATOM      1  C   UNK d   1      42.280  12.907  46.235  0.00  0.00     0.161 C 
ATOM      2  N   UNK d   1      41.128  13.547  45.662  0.00  0.00    -0.331 N 
ATOM      3  C   UNK d   1      40.658  12.717  44.614  0.00  0.00     0.295 C 
ATOM      4  O   UNK d   1      39.789  13.039  43.754  0.00  0.00    -0.264 OA
ATOM      5  C   UNK d   1      41.339  11.422  44.684  0.00  0.00     0.251 C 
ATOM      6  O   UNK d   1      41.181  10.431  43.929  0.00  0.00    -0.282 OA
ATOM      7  C   UNK d   1      42.248  11.489  45.814  0.00  0.00     0.064 C 
ATOM      8  C   UNK d   1      42.865  10.460  46.371  0.00  0.00     0.149 C 
ATOM      9  O   UNK d   1      43.649  10.721  47.512  0.00  0.00    -0.189 OA
ENDROOT
BRANCH   1  10
ATOM     10  C   UNK d   1      43.549  13.574  45.838  0.00  0.00    -0.030 A 
ATOM     11  C   UNK d   1      44.293  13.171  44.752  0.00  0.00     0.011 A 
ATOM     12  C   UNK d   1      45.469  13.764  44.358  0.00  0.00     0.019 A 
ATOM     13  C   UNK d   1      45.956  14.825  45.066  0.00  0.00     0.011 A 
ATOM     14 Br   UNK d   1      47.592  15.637  44.502  0.00  0.00    -0.051 Br
ATOM     15  C   UNK d   1      45.249  15.265  46.159  0.00  0.00     0.019 A 
ATOM     16  C   UNK d   1      44.075  14.660  46.540  0.00  0.00     0.011 A 
ENDBRANCH   1  10
BRANCH   8  17
ATOM     17  C   UNK d   1      42.822   9.091  45.920  0.00  0.00     0.102 A 
ATOM     18  N   UNK d   1      43.444   8.432  44.935  0.00  0.00    -0.302 N 
ATOM     19  C   UNK d   1      43.036   7.152  44.881  0.00  0.00     0.134 A 
ATOM     20  C   UNK d   1      44.381   8.835  44.050  0.00  0.00     0.099 A 
ATOM     21  N   UNK d   1      42.130   6.988  45.860  0.00  0.00    -0.233 NA
ATOM     22  C   UNK d   1      43.527   6.227  43.966  0.00  0.00     0.051 A 
ATOM     23  C   UNK d   1      41.975   8.143  46.510  0.00  0.00     0.063 A 
ATOM     24  C   UNK d   1      41.056   8.363  47.662  0.00  0.00     0.073 C 
ATOM     25  C   UNK d   1      44.476   6.641  43.072  0.00  0.00     0.005 A 
ATOM     26  C   UNK d   1      44.898   7.957  43.126  0.00  0.00     0.018 A 
ENDBRANCH   8  17
BRANCH   2  27
ATOM     27  C   UNK d   1      40.533  14.835  46.082  0.00  0.00     0.155 C 
BRANCH  27  28
ATOM     28  C   UNK d   1      39.413  14.588  47.070  0.00  0.00     0.254 C 
BRANCH  28  29
ATOM     29  N   UNK d   1      38.395  13.733  46.569  0.00  0.00    -0.077 N 
ATOM     30  C   UNK d   1      38.096  12.744  47.605  0.00  0.00     0.269 C 
ATOM     31  C   UNK d   1      37.179  14.385  46.194  0.00  0.00     0.269 C 
ATOM     32  H   UNK d   1      38.722  13.177  45.729  0.00  0.00     0.279 HD
ENDBRANCH  28  29
ENDBRANCH  27  28
ENDBRANCH   2  27
TORSDOF 5
ENDMDL
