MODEL 1
REMARK VINA RESULT:    -8.243      0.000      0.000
REMARK INTER + INTRA:         -10.965
REMARK INTER:                  -9.929
REMARK INTRA:                  -1.036
REMARK UNBOUND:                -1.036
REMARK  4 active torsions:
REMARK  status: ('A' for Active; 'I' for Inactive)
REMARK    1  A    between atoms: C_5  and  N_8 
REMARK       I    between atoms: N_8  and  C_9 
REMARK    2  A    between atoms: C_9  and  C_11 
REMARK    3  A    between atoms: C_18  and  N_23 
REMARK    4  A    between atoms: C_20  and  N_22 
ROOT
ATOM      1  C   UNK d   1      41.357   9.428  44.876  0.00  0.00     0.127 C 
ATOM      2  C   UNK d   1      41.220   9.705  46.343  0.00  0.00     0.122 C 
ATOM      3  C   UNK d   1      42.492   9.774  47.074  0.00  0.00     0.224 C 
ATOM      4  O   UNK d   1      42.555  10.533  48.079  0.00  0.00    -0.273 OA
ATOM      5  N   UNK d   1      43.603   9.007  46.645  0.00  0.00    -0.310 N 
ATOM      6  C   UNK d   1      43.613   8.438  45.353  0.00  0.00     0.160 A 
ATOM      7  N   UNK d   1      44.692   7.689  44.966  0.00  0.00    -0.044 NA
ATOM      8  C   UNK d   1      44.762   7.111  43.765  0.00  0.00     0.728 A 
ATOM      9  N   UNK d   1      43.729   7.286  42.930  0.00  0.00    -0.045 NA
ATOM     10  C   UNK d   1      42.631   8.024  43.266  0.00  0.00     0.151 A 
ATOM     11  C   UNK d   1      42.534   8.631  44.502  0.00  0.00     0.048 A 
ATOM     12  H   UNK d   1      44.443   8.843  47.273  0.00  0.00     0.170 HD
ENDROOT
BRANCH   1  13
ATOM     13  C   UNK d   1      41.366  10.816  44.201  0.00  0.00     0.231 C 
ATOM     14  N   UNK d   1      42.133  11.778  44.688  0.00  0.00    -0.327 N 
ATOM     15  H   UNK d   1      41.559  12.672  43.836  0.00  0.00     0.169 HD
ATOM     16  O   UNK d   1      40.556  10.811  43.192  0.00  0.00    -0.272 OA
BRANCH  14  17
ATOM     17  C   UNK d   1      42.928  12.776  45.191  0.00  0.00     0.034 A 
ATOM     18  C   UNK d   1      42.267  13.792  45.953  0.00  0.00     0.031 A 
ATOM     19  C   UNK d   1      42.954  14.781  46.557  0.00  0.00     0.021 A 
ATOM     20  C   UNK d   1      44.321  14.865  46.469  0.00  0.00     0.011 A 
ATOM     21 Br   UNK d   1      45.284  16.278  47.341  0.00  0.00    -0.051 Br
ATOM     22  C   UNK d   1      44.996  13.908  45.744  0.00  0.00     0.021 A 
ATOM     23  C   UNK d   1      44.299  12.898  45.129  0.00  0.00     0.031 A 
ENDBRANCH  14  17
ENDBRANCH   1  13
BRANCH  10  24
ATOM     24  N   UNK d   1      41.564   8.191  42.338  0.00  0.00    -0.383 N 
ATOM     25  H   UNK d   1      40.912   7.440  42.091  0.00  0.00     0.157 HD
ATOM     26  H   UNK d   1      41.443   9.129  41.878  0.00  0.00     0.157 HD
ENDBRANCH  10  24
BRANCH   8  27
ATOM     27  N   UNK d   1      45.913   6.327  43.377  0.00  0.00    -0.210 N 
ATOM     28  C   UNK d   1      47.114   6.534  44.109  0.00  0.00     0.167 C 
ATOM     29  C   UNK d   1      48.114   5.421  43.984  0.00  0.00     0.188 C 
ATOM     30  O   UNK d   1      47.629   4.351  43.240  0.00  0.00    -0.388 OA
ATOM     31  C   UNK d   1      47.108   4.762  42.021  0.00  0.00     0.188 C 
ATOM     32  C   UNK d   1      45.764   5.390  42.283  0.00  0.00     0.167 C 
ENDBRANCH   8  27
TORSDOF 4
ENDMDL
