/Users/jonathanwahrer/Desktop/Msc/3_Semester/Drug_Design_Praktikum/waehrer_HTS_screening/HTS_experiment/out/docking_results/vina_output/2qfa/0385_docked.pdbqt
 OpenBabel03162219413D

 32 35  0  0  1  0  0  0  0  0999 V2000
   41.3570    9.4280   44.8760 C   0  0  2  0  0  3  0  0  0  0  0  0
   41.2200    9.7050   46.3430 C   0  0  0  0  0  2  0  0  0  0  0  0
   42.4920    9.7740   47.0740 C   0  0  0  0  0  0  0  0  0  0  0  0
   42.5550   10.5330   48.0790 O   0  0  0  0  0  0  0  0  0  0  0  0
   43.6030    9.0070   46.6450 N   0  0  0  0  0  0  0  0  0  0  0  0
   43.6130    8.4380   45.3530 C   0  0  0  0  0  0  0  0  0  0  0  0
   44.6920    7.6890   44.9660 N   0  0  0  0  0  0  0  0  0  0  0  0
   44.7620    7.1110   43.7650 C   0  0  0  0  0  0  0  0  0  0  0  0
   43.7290    7.2860   42.9300 N   0  0  0  0  0  0  0  0  0  0  0  0
   42.6310    8.0240   43.2660 C   0  0  0  0  0  0  0  0  0  0  0  0
   42.5340    8.6310   44.5020 C   0  0  0  0  0  0  0  0  0  0  0  0
   44.4430    8.8430   47.2730 H   0  0  0  0  0  0  0  0  0  0  0  0
   41.3660   10.8160   44.2010 C   0  0  0  0  0  0  0  0  0  0  0  0
   42.1330   11.7780   44.6880 N   0  0  0  0  0  0  0  0  0  0  0  0
   41.5590   12.6720   43.8360 H   0  0  0  0  0  0  0  0  0  0  0  0
   40.5560   10.8110   43.1920 O   0  0  0  0  0  0  0  0  0  0  0  0
   42.9280   12.7760   45.1910 C   0  0  0  0  0  0  0  0  0  0  0  0
   42.2670   13.7920   45.9530 C   0  0  0  0  0  3  0  0  0  0  0  0
   42.9540   14.7810   46.5570 C   0  0  0  0  0  3  0  0  0  0  0  0
   44.3210   14.8650   46.4690 C   0  0  0  0  0  0  0  0  0  0  0  0
   45.2840   16.2780   47.3410 Br  0  0  0  0  0  0  0  0  0  0  0  0
   44.9960   13.9080   45.7440 C   0  0  0  0  0  3  0  0  0  0  0  0
   44.2990   12.8980   45.1290 C   0  0  0  0  0  3  0  0  0  0  0  0
   41.5640    8.1910   42.3380 N   0  0  0  0  0  0  0  0  0  0  0  0
   40.9120    7.4400   42.0910 H   0  0  0  0  0  0  0  0  0  0  0  0
   41.4430    9.1290   41.8780 H   0  0  0  0  0  0  0  0  0  0  0  0
   45.9130    6.3270   43.3770 N   0  0  0  0  0  0  0  0  0  0  0  0
   47.1140    6.5340   44.1090 C   0  0  0  0  0  2  0  0  0  0  0  0
   48.1140    5.4210   43.9840 C   0  0  0  0  0  2  0  0  0  0  0  0
   47.6290    4.3510   43.2400 O   0  0  0  0  0  0  0  0  0  0  0  0
   47.1080    4.7620   42.0210 C   0  0  0  0  0  2  0  0  0  0  0  0
   45.7640    5.3900   42.2830 C   0  0  0  0  0  2  0  0  0  0  0  0
  1 13  1  6  0  0  0
  1  2  1  0  0  0  0
  2  3  1  0  0  0  0
  3  4  2  0  0  0  0
  5  3  1  0  0  0  0
  5 12  1  0  0  0  0
  6  5  1  0  0  0  0
  7  6  1  0  0  0  0
  8  7  2  0  0  0  0
  9 10  2  0  0  0  0
  9  8  1  0  0  0  0
 10 11  1  0  0  0  0
 11  1  1  0  0  0  0
 11  6  2  0  0  0  0
 13 14  1  0  0  0  0
 14 17  1  0  0  0  0
 15 14  1  0  0  0  0
 16 13  2  0  0  0  0
 17 18  1  0  0  0  0
 18 19  2  0  0  0  0
 20 19  1  0  0  0  0
 20 21  1  0  0  0  0
 22 20  2  0  0  0  0
 23 17  2  0  0  0  0
 23 22  1  0  0  0  0
 24 10  1  0  0  0  0
 25 24  1  0  0  0  0
 26 24  1  0  0  0  0
 27  8  1  0  0  0  0
 27 28  1  0  0  0  0
 29 28  1  0  0  0  0
 30 29  1  0  0  0  0
 31 32  1  0  0  0  0
 31 30  1  0  0  0  0
 32 27  1  0  0  0  0
M  END
>  <Pose>
1

>  <Score>
-8.243

$$$$
