MODEL 1
REMARK VINA RESULT:    -7.519      0.000      0.000
REMARK INTER + INTRA:         -10.759
REMARK INTER:                  -9.497
REMARK INTRA:                  -1.262
REMARK UNBOUND:                -1.262
REMARK  5 active torsions:
REMARK  status: ('A' for Active; 'I' for Inactive)
REMARK    1  A    between atoms: C_5  and  N_8 
REMARK    2  A    between atoms: C_9  and  C_11 
REMARK    3  A    between atoms: C_18  and  N_23 
REMARK    4  A    between atoms: C_20  and  O_22 
REMARK    5  A    between atoms: C_26  and  C_29 
REMARK       I    between atoms: C_29  and  N_31 
ROOT
ATOM      1  C   UNK d   1      42.294  11.700  44.046  0.00  0.00     0.113 C 
ATOM      2  C   UNK d   1      43.593  11.826  44.820  0.00  0.00     0.121 C 
ATOM      3  C   UNK d   1      43.581  13.146  45.520  0.00  0.00     0.224 C 
ATOM      4  O   UNK d   1      44.537  13.898  45.450  0.00  0.00    -0.273 OA
ATOM      5  N   UNK d   1      42.424  13.456  46.250  0.00  0.00    -0.310 N 
ATOM      6  C   UNK d   1      41.196  12.817  45.965  0.00  0.00     0.160 A 
ATOM      7  N   UNK d   1      40.101  13.033  46.721  0.00  0.00    -0.044 NA
ATOM      8  C   UNK d   1      38.931  12.408  46.582  0.00  0.00     0.729 A 
ATOM      9  N   UNK d   1      38.887  11.486  45.585  0.00  0.00    -0.038 NA
ATOM     10  C   UNK d   1      39.949  11.219  44.783  0.00  0.00     0.192 A 
ATOM     11  C   UNK d   1      41.141  11.861  44.923  0.00  0.00     0.054 A 
ATOM     12  H   UNK d   1      42.414  14.162  47.034  0.00  0.00     0.170 HD
ENDROOT
BRANCH   1  13
ATOM     13  C   UNK d   1      42.298  10.618  43.024  0.00  0.00     0.165 C 
ATOM     14  N   UNK d   1      42.969   9.463  43.199  0.00  0.00    -0.338 N 
ATOM     15  H   UNK d   1      42.437   8.972  42.063  0.00  0.00     0.168 HD
ATOM     16  O   UNK d   1      41.570  10.979  42.002  0.00  0.00    -0.176 OA
BRANCH  14  17
ATOM     17  C   UNK d   1      43.653   8.286  43.375  0.00  0.00     0.033 A 
ATOM     18  C   UNK d   1      44.996   8.309  42.878  0.00  0.00     0.031 A 
ATOM     19  C   UNK d   1      45.713   7.162  42.954  0.00  0.00     0.021 A 
ATOM     20  C   UNK d   1      45.214   5.986  43.484  0.00  0.00     0.011 A 
ATOM     21 Br   UNK d   1      46.305   4.440  43.540  0.00  0.00    -0.051 Br
ATOM     22  C   UNK d   1      43.935   5.948  43.962  0.00  0.00     0.021 A 
ATOM     23  C   UNK d   1      43.187   7.103  43.895  0.00  0.00     0.031 A 
ENDBRANCH  14  17
ENDBRANCH   1  13
BRANCH  10  24
ATOM     24  O   UNK d   1      39.819  10.255  43.786  0.00  0.00    -0.344 OA
ATOM     25  H   UNK d   1      38.989  10.186  43.201  0.00  0.00     0.219 HD
ENDBRANCH  10  24
BRANCH   8  26
ATOM     26  N   UNK d   1      37.781  12.689  47.357  0.00  0.00    -0.214 N 
ATOM     27  C   UNK d   1      36.905  13.822  47.212  0.00  0.00     0.142 C 
ATOM     28  C   UNK d   1      35.472  13.351  47.442  0.00  0.00     0.034 C 
ATOM     29  C   UNK d   1      35.277  11.915  47.052  0.00  0.00     0.081 C 
ATOM     30  C   UNK d   1      36.166  11.011  47.832  0.00  0.00     0.034 C 
ATOM     31  C   UNK d   1      37.393  11.749  48.414  0.00  0.00     0.142 C 
BRANCH  29  32
ATOM     32  C   UNK d   1      35.391  11.717  45.588  0.00  0.00     0.219 C 
ATOM     33  O   UNK d   1      34.812  12.537  44.846  0.00  0.00    -0.273 OA
ATOM     34  N   UNK d   1      36.109  10.658  44.990  0.00  0.00    -0.370 N 
ATOM     35  H   UNK d   1      36.990  10.284  45.388  0.00  0.00     0.159 HD
ATOM     36  H   UNK d   1      35.736  10.234  44.114  0.00  0.00     0.159 HD
ENDBRANCH  29  32
ENDBRANCH   8  26
TORSDOF 5
ENDMDL
