/Users/jonathanwahrer/Desktop/Msc/3_Semester/Drug_Design_Praktikum/waehrer_HTS_screening/HTS_experiment/out/docking_results/vina_output/2qfa/0386_docked.pdbqt
 OpenBabel03162219413D

 36 39  0  0  1  0  0  0  0  0999 V2000
   42.2940   11.7000   44.0460 C   0  0  2  0  0  3  0  0  0  0  0  0
   43.5930   11.8260   44.8200 C   0  0  0  0  0  2  0  0  0  0  0  0
   43.5810   13.1460   45.5200 C   0  0  0  0  0  0  0  0  0  0  0  0
   44.5370   13.8980   45.4500 O   0  0  0  0  0  0  0  0  0  0  0  0
   42.4240   13.4560   46.2500 N   0  0  0  0  0  0  0  0  0  0  0  0
   41.1960   12.8170   45.9650 C   0  0  0  0  0  0  0  0  0  0  0  0
   40.1010   13.0330   46.7210 N   0  0  0  0  0  0  0  0  0  0  0  0
   38.9310   12.4080   46.5820 C   0  0  0  0  0  0  0  0  0  0  0  0
   38.8870   11.4860   45.5850 N   0  0  0  0  0  0  0  0  0  0  0  0
   39.9490   11.2190   44.7830 C   0  0  0  0  0  0  0  0  0  0  0  0
   41.1410   11.8610   44.9230 C   0  0  0  0  0  0  0  0  0  0  0  0
   42.4140   14.1620   47.0340 H   0  0  0  0  0  0  0  0  0  0  0  0
   42.2980   10.6180   43.0240 C   0  0  0  0  0  0  0  0  0  0  0  0
   42.9690    9.4630   43.1990 N   0  0  0  0  0  0  0  0  0  0  0  0
   42.4370    8.9720   42.0630 H   0  0  0  0  0  0  0  0  0  0  0  0
   41.5700   10.9790   42.0020 O   0  0  0  0  0  0  0  0  0  0  0  0
   43.6530    8.2860   43.3750 C   0  0  0  0  0  0  0  0  0  0  0  0
   44.9960    8.3090   42.8780 C   0  0  0  0  0  3  0  0  0  0  0  0
   45.7130    7.1620   42.9540 C   0  0  0  0  0  3  0  0  0  0  0  0
   45.2140    5.9860   43.4840 C   0  0  0  0  0  0  0  0  0  0  0  0
   46.3050    4.4400   43.5400 Br  0  0  0  0  0  0  0  0  0  0  0  0
   43.9350    5.9480   43.9620 C   0  0  0  0  0  3  0  0  0  0  0  0
   43.1870    7.1030   43.8950 C   0  0  0  0  0  3  0  0  0  0  0  0
   39.8190   10.2550   43.7860 O   0  0  0  0  0  0  0  0  0  0  0  0
   38.9890   10.1860   43.2010 H   0  0  0  0  0  0  0  0  0  0  0  0
   37.7810   12.6890   47.3570 N   0  0  0  0  0  0  0  0  0  0  0  0
   36.9050   13.8220   47.2120 C   0  0  0  0  0  2  0  0  0  0  0  0
   35.4720   13.3510   47.4420 C   0  0  0  0  0  2  0  0  0  0  0  0
   35.2770   11.9150   47.0520 C   0  0  2  0  0  3  0  0  0  0  0  0
   36.1660   11.0110   47.8320 C   0  0  0  0  0  2  0  0  0  0  0  0
   37.3930   11.7490   48.4140 C   0  0  0  0  0  2  0  0  0  0  0  0
   35.3910   11.7170   45.5880 C   0  0  0  0  0  0  0  0  0  0  0  0
   34.8120   12.5370   44.8460 O   0  0  0  0  0  0  0  0  0  0  0  0
   36.1090   10.6580   44.9900 N   0  0  0  0  0  0  0  0  0  0  0  0
   36.9900   10.2840   45.3880 H   0  0  0  0  0  0  0  0  0  0  0  0
   35.7360   10.2340   44.1140 H   0  0  0  0  0  0  0  0  0  0  0  0
  1 13  1  1  0  0  0
  1  2  1  0  0  0  0
  1 11  1  0  0  0  0
  2  3  1  0  0  0  0
  3  5  1  0  0  0  0
  4  3  2  0  0  0  0
  5 12  1  0  0  0  0
  6  5  1  0  0  0  0
  6  7  1  0  0  0  0
  8  7  2  0  0  0  0
  8 26  1  0  0  0  0
  9  8  1  0  0  0  0
 10 11  1  0  0  0  0
 10  9  2  0  0  0  0
 11  6  2  0  0  0  0
 13 14  1  0  0  0  0
 14 17  1  0  0  0  0
 15 14  1  0  0  0  0
 16 13  2  0  0  0  0
 17 23  1  0  0  0  0
 18 19  1  0  0  0  0
 18 17  2  0  0  0  0
 19 20  2  0  0  0  0
 20 21  1  0  0  0  0
 20 22  1  0  0  0  0
 23 22  2  0  0  0  0
 24 10  1  0  0  0  0
 25 24  1  0  0  0  0
 26 31  1  0  0  0  0
 27 26  1  0  0  0  0
 27 28  1  0  0  0  0
 29 32  1  6  0  0  0
 29 28  1  0  0  0  0
 29 30  1  0  0  0  0
 30 31  1  0  0  0  0
 33 32  2  0  0  0  0
 34 35  1  0  0  0  0
 34 32  1  0  0  0  0
 36 34  1  0  0  0  0
M  END
>  <Pose>
1

>  <Score>
-7.519

$$$$
