MODEL 1
REMARK VINA RESULT:    -6.811      0.000      0.000
REMARK INTER + INTRA:          -9.268
REMARK INTER:                  -8.006
REMARK INTRA:                  -1.262
REMARK UNBOUND:                -1.262
REMARK  3 active torsions:
REMARK  status: ('A' for Active; 'I' for Inactive)
REMARK    1  A    between atoms: C_5  and  N_8 
REMARK    2  A    between atoms: C_11  and  C_18 
REMARK    3  A    between atoms: C_12  and  N_13 
REMARK       I    between atoms: C_18  and  N_20 
ROOT
ATOM      1  N   UNK d   1      42.374   9.112  43.632  0.00  0.00    -0.216 N 
ATOM      2  N   UNK d   1      41.837   9.703  42.594  0.00  0.00    -0.177 NA
ATOM      3  C   UNK d   1      40.943  10.650  42.945  0.00  0.00     0.160 A 
ATOM      4  C   UNK d   1      40.920  10.652  44.312  0.00  0.00     0.097 A 
ATOM      5  C   UNK d   1      41.818   9.687  44.718  0.00  0.00     0.153 A 
ENDROOT
BRANCH   4   6
ATOM      6  C   UNK d   1      40.091  11.522  45.138  0.00  0.00     0.259 C 
ATOM      7  O   UNK d   1      38.909  11.148  45.334  0.00  0.00    -0.267 OA
ATOM      8  N   UNK d   1      40.553  12.728  45.707  0.00  0.00    -0.338 N 
ATOM      9  C   UNK d   1      39.649  13.516  46.510  0.00  0.00     0.146 C 
ATOM     10  C   UNK d   1      41.887  13.263  45.554  0.00  0.00     0.228 C 
ATOM     11  C   UNK d   1      40.146  13.493  47.924  0.00  0.00     0.142 C 
ATOM     12  N   UNK d   1      41.563  13.156  48.005  0.00  0.00    -0.358 N 
ATOM     13  C   UNK d   1      42.460  13.350  46.917  0.00  0.00     0.235 C 
ATOM     14  H   UNK d   1      41.917  12.749  48.922  0.00  0.00     0.162 HD
ATOM     15  O   UNK d   1      43.673  13.581  47.142  0.00  0.00    -0.272 OA
ENDBRANCH   4   6
BRANCH   5  16
ATOM     16  N   UNK d   1      42.128   9.333  46.084  0.00  0.00    -0.317 N 
ATOM     17  C   UNK d   1      43.145   9.740  46.829  0.00  0.00     0.098 A 
ATOM     18  C   UNK d   1      43.086   9.171  48.080  0.00  0.00     0.019 A 
ATOM     19  C   UNK d   1      41.962   8.380  48.066  0.00  0.00     0.019 A 
ATOM     20  C   UNK d   1      41.383   8.494  46.822  0.00  0.00     0.098 A 
ENDBRANCH   5  16
BRANCH   1  21
ATOM     21  C   UNK d   1      43.353   8.070  43.583  0.00  0.00     0.060 A 
ATOM     22  C   UNK d   1      44.639   8.293  43.129  0.00  0.00     0.033 A 
ATOM     23  C   UNK d   1      45.600   7.304  43.073  0.00  0.00     0.021 A 
ATOM     24  C   UNK d   1      45.289   6.025  43.483  0.00  0.00     0.011 A 
ATOM     25 Br   UNK d   1      46.604   4.638  43.414  0.00  0.00    -0.051 Br
ATOM     26  C   UNK d   1      44.006   5.783  43.939  0.00  0.00     0.021 A 
ATOM     27  C   UNK d   1      43.055   6.782  43.990  0.00  0.00     0.033 A 
ENDBRANCH   1  21
TORSDOF 3
ENDMDL
