/Users/jonathanwahrer/Desktop/Msc/3_Semester/Drug_Design_Praktikum/waehrer_HTS_screening/HTS_experiment/out/docking_results/vina_output/2qfa/0393_docked.pdbqt
 OpenBabel03162219413D

 27 30  0  0  0  0  0  0  0  0999 V2000
   42.3740    9.1120   43.6320 N   0  0  0  0  0  0  0  0  0  0  0  0
   41.8370    9.7030   42.5940 N   0  0  0  0  0  0  0  0  0  0  0  0
   40.9430   10.6500   42.9450 C   0  0  0  0  0  3  0  0  0  0  0  0
   40.9200   10.6520   44.3120 C   0  0  0  0  0  0  0  0  0  0  0  0
   41.8180    9.6870   44.7180 C   0  0  0  0  0  0  0  0  0  0  0  0
   40.0910   11.5220   45.1380 C   0  0  0  0  0  0  0  0  0  0  0  0
   38.9090   11.1480   45.3340 O   0  0  0  0  0  0  0  0  0  0  0  0
   40.5530   12.7280   45.7070 N   0  0  0  0  0  0  0  0  0  0  0  0
   39.6490   13.5160   46.5100 C   0  0  0  0  0  2  0  0  0  0  0  0
   41.8870   13.2630   45.5540 C   0  0  0  0  0  2  0  0  0  0  0  0
   40.1460   13.4930   47.9240 C   0  0  0  0  0  2  0  0  0  0  0  0
   41.5630   13.1560   48.0050 N   0  0  0  0  0  0  0  0  0  0  0  0
   42.4600   13.3500   46.9170 C   0  0  0  0  0  0  0  0  0  0  0  0
   41.9170   12.7490   48.9220 H   0  0  0  0  0  0  0  0  0  0  0  0
   43.6730   13.5810   47.1420 O   0  0  0  0  0  0  0  0  0  0  0  0
   42.1280    9.3330   46.0840 N   0  0  0  0  0  0  0  0  0  0  0  0
   43.1450    9.7400   46.8290 C   0  0  0  0  0  3  0  0  0  0  0  0
   43.0860    9.1710   48.0800 C   0  0  0  0  0  3  0  0  0  0  0  0
   41.9620    8.3800   48.0660 C   0  0  0  0  0  3  0  0  0  0  0  0
   41.3830    8.4940   46.8220 C   0  0  0  0  0  3  0  0  0  0  0  0
   43.3530    8.0700   43.5830 C   0  0  0  0  0  0  0  0  0  0  0  0
   44.6390    8.2930   43.1290 C   0  0  0  0  0  3  0  0  0  0  0  0
   45.6000    7.3040   43.0730 C   0  0  0  0  0  3  0  0  0  0  0  0
   45.2890    6.0250   43.4830 C   0  0  0  0  0  0  0  0  0  0  0  0
   46.6040    4.6380   43.4140 Br  0  0  0  0  0  0  0  0  0  0  0  0
   44.0060    5.7830   43.9390 C   0  0  0  0  0  3  0  0  0  0  0  0
   43.0550    6.7820   43.9900 C   0  0  0  0  0  3  0  0  0  0  0  0
  1  5  1  0  0  0  0
  2  3  2  0  0  0  0
  2  1  1  0  0  0  0
  3  4  1  0  0  0  0
  4  5  2  0  0  0  0
  4  6  1  0  0  0  0
  5 16  1  0  0  0  0
  6  7  2  0  0  0  0
  6  8  1  0  0  0  0
  8  9  1  0  0  0  0
  9 11  1  0  0  0  0
 10  8  1  0  0  0  0
 10 13  1  0  0  0  0
 11 12  1  0  0  0  0
 12 14  1  0  0  0  0
 13 15  2  0  0  0  0
 13 12  1  0  0  0  0
 16 20  1  0  0  0  0
 16 17  1  0  0  0  0
 17 18  2  0  0  0  0
 19 18  1  0  0  0  0
 20 19  2  0  0  0  0
 21  1  1  0  0  0  0
 21 27  1  0  0  0  0
 22 21  2  0  0  0  0
 23 22  1  0  0  0  0
 23 24  2  0  0  0  0
 24 26  1  0  0  0  0
 25 24  1  0  0  0  0
 26 27  2  0  0  0  0
M  END
>  <Pose>
1

>  <Score>
-6.811

$$$$
