MODEL 1
REMARK VINA RESULT:    -7.106      0.000      0.000
REMARK INTER + INTRA:          -8.869
REMARK INTER:                  -8.352
REMARK INTRA:                  -0.517
REMARK UNBOUND:                -0.517
REMARK  3 active torsions:
REMARK  status: ('A' for Active; 'I' for Inactive)
REMARK    1  A    between atoms: C_5  and  N_8 
REMARK    2  A    between atoms: C_11  and  N_15 
REMARK    3  A    between atoms: N_18  and  C_21 
ROOT
ATOM      1  N   UNK d   1      42.604  12.892  45.586  0.00  0.00    -0.251 N 
ATOM      2  C   UNK d   1      43.095  12.059  44.542  0.00  0.00     0.262 C 
ATOM      3  O   UNK d   1      44.303  11.883  44.273  0.00  0.00    -0.270 OA
ATOM      4  C   UNK d   1      41.993  11.421  43.806  0.00  0.00     0.289 C 
ATOM      5  C   UNK d   1      40.835  12.373  44.079  0.00  0.00     0.146 C 
ATOM      6  C   UNK d   1      41.171  12.908  45.437  0.00  0.00     0.233 C 
ATOM      7  O   UNK d   1      40.278  13.275  46.222  0.00  0.00    -0.273 OA
ENDROOT
BRANCH   4   8
ATOM      8  N   UNK d   1      41.657  10.083  44.238  0.00  0.00    -0.055 N 
ATOM      9  C   UNK d   1      41.299   9.222  43.136  0.00  0.00     0.255 C 
ATOM     10  C   UNK d   1      42.422   8.336  42.646  0.00  0.00     0.150 C 
ATOM     11  N   UNK d   1      43.186   7.801  43.744  0.00  0.00    -0.378 N 
ATOM     12  C   UNK d   1      42.593   8.012  45.043  0.00  0.00     0.150 C 
ATOM     13  C   UNK d   1      42.557   9.545  45.192  0.00  0.00     0.255 C 
ATOM     14  H   UNK d   1      40.726  10.218  44.761  0.00  0.00     0.281 HD
BRANCH  11  15
ATOM     15  C   UNK d   1      44.413   7.145  43.595  0.00  0.00     0.030 A 
ATOM     16  C   UNK d   1      45.619   7.756  43.317  0.00  0.00     0.032 A 
ATOM     17  C   UNK d   1      46.802   7.054  43.155  0.00  0.00     0.042 A 
ATOM     18  C   UNK d   1      46.813   5.690  43.270  0.00  0.00     0.107 A 
ATOM     19  C   UNK d   1      45.634   5.027  43.548  0.00  0.00     0.042 A 
ATOM     20  O   UNK d   1      47.969   4.924  43.120  0.00  0.00    -0.192 OA
ATOM     21  C   UNK d   1      44.465   5.750  43.705  0.00  0.00     0.032 A 
ENDBRANCH  11  15
ENDBRANCH   4   8
BRANCH   1  22
ATOM     22  C   UNK d   1      43.332  13.588  46.600  0.00  0.00     0.045 A 
ATOM     23  C   UNK d   1      43.413  13.113  47.877  0.00  0.00     0.031 A 
ATOM     24  C   UNK d   1      44.125  13.798  48.867  0.00  0.00     0.021 A 
ATOM     25  C   UNK d   1      44.771  14.973  48.596  0.00  0.00     0.011 A 
ATOM     26 Br   UNK d   1      45.749  15.917  49.944  0.00  0.00    -0.051 Br
ATOM     27  C   UNK d   1      44.693  15.456  47.310  0.00  0.00     0.021 A 
ATOM     28  C   UNK d   1      43.975  14.760  46.325  0.00  0.00     0.031 A 
ENDBRANCH   1  22
TORSDOF 3
ENDMDL
