/Users/jonathanwahrer/Desktop/Msc/3_Semester/Drug_Design_Praktikum/waehrer_HTS_screening/HTS_experiment/out/docking_results/vina_output/2qfa/0399_docked.pdbqt
 OpenBabel03162219423D

 28 31  0  0  1  0  0  0  0  0999 V2000
   42.6040   12.8920   45.5860 N   0  0  0  0  0  0  0  0  0  0  0  0
   43.0950   12.0590   44.5420 C   0  0  0  0  0  0  0  0  0  0  0  0
   44.3030   11.8830   44.2730 O   0  0  0  0  0  0  0  0  0  0  0  0
   41.9930   11.4210   43.8060 C   0  0  2  0  0  3  0  0  0  0  0  0
   40.8350   12.3730   44.0790 C   0  0  0  0  0  2  0  0  0  0  0  0
   41.1710   12.9080   45.4370 C   0  0  0  0  0  0  0  0  0  0  0  0
   40.2780   13.2750   46.2220 O   0  0  0  0  0  0  0  0  0  0  0  0
   41.6570   10.0830   44.2380 N   0  0  1  0  0  4  0  0  0  0  0  0
   41.2990    9.2220   43.1360 C   0  0  0  0  0  2  0  0  0  0  0  0
   42.4220    8.3360   42.6460 C   0  0  0  0  0  2  0  0  0  0  0  0
   43.1860    7.8010   43.7440 N   0  0  0  0  0  0  0  0  0  0  0  0
   42.5930    8.0120   45.0430 C   0  0  0  0  0  2  0  0  0  0  0  0
   42.5570    9.5450   45.1920 C   0  0  0  0  0  2  0  0  0  0  0  0
   40.7260   10.2180   44.7610 H   0  0  0  0  0  0  0  0  0  0  0  0
   44.4130    7.1450   43.5950 C   0  0  0  0  0  0  0  0  0  0  0  0
   45.6190    7.7560   43.3170 C   0  0  0  0  0  3  0  0  0  0  0  0
   46.8020    7.0540   43.1550 C   0  0  0  0  0  3  0  0  0  0  0  0
   46.8130    5.6900   43.2700 C   0  0  0  0  0  0  0  0  0  0  0  0
   45.6340    5.0270   43.5480 C   0  0  0  0  0  3  0  0  0  0  0  0
   47.9690    4.9240   43.1200 O   0  0  0  0  0  1  0  0  0  0  0  0
   44.4650    5.7500   43.7050 C   0  0  0  0  0  3  0  0  0  0  0  0
   43.3320   13.5880   46.6000 C   0  0  0  0  0  0  0  0  0  0  0  0
   43.4130   13.1130   47.8770 C   0  0  0  0  0  3  0  0  0  0  0  0
   44.1250   13.7980   48.8670 C   0  0  0  0  0  3  0  0  0  0  0  0
   44.7710   14.9730   48.5960 C   0  0  0  0  0  0  0  0  0  0  0  0
   45.7490   15.9170   49.9440 Br  0  0  0  0  0  0  0  0  0  0  0  0
   44.6930   15.4560   47.3100 C   0  0  0  0  0  3  0  0  0  0  0  0
   43.9750   14.7600   46.3250 C   0  0  0  0  0  3  0  0  0  0  0  0
  1 22  1  0  0  0  0
  2  1  1  0  0  0  0
  3  2  2  0  0  0  0
  4  5  1  1  0  0  0
  4  8  1  0  0  0  0
  4  2  1  0  0  0  0
  5  6  1  0  0  0  0
  6  1  1  0  0  0  0
  6  7  2  0  0  0  0
  8 14  1  1  0  0  0
  8 13  1  0  0  0  0
  9  8  1  0  0  0  0
 10  9  1  0  0  0  0
 10 11  1  0  0  0  0
 11 12  1  0  0  0  0
 12 13  1  0  0  0  0
 15 21  1  0  0  0  0
 15 11  1  0  0  0  0
 16 15  2  0  0  0  0
 17 18  2  0  0  0  0
 17 16  1  0  0  0  0
 18 19  1  0  0  0  0
 19 21  2  0  0  0  0
 20 18  1  0  0  0  0
 22 23  1  0  0  0  0
 23 24  2  0  0  0  0
 25 24  1  0  0  0  0
 25 26  1  0  0  0  0
 27 25  2  0  0  0  0
 28 22  2  0  0  0  0
 28 27  1  0  0  0  0
M  END
>  <Pose>
1

>  <Score>
-7.106

$$$$
