/Users/jonathanwahrer/Desktop/Msc/3_Semester/Drug_Design_Praktikum/waehrer_HTS_screening/HTS_experiment/out/docking_results/vina_output/2qfa/0400_docked.pdbqt
 OpenBabel03162219423D

 31 34  0  0  1  0  0  0  0  0999 V2000
   42.9350   10.9840   46.2110 N   0  0  2  0  0  0  0  0  0  0  0  0
   42.5800   11.4780   47.4810 C   0  0  0  0  0  2  0  0  0  0  0  0
   43.6190   12.5240   47.9070 C   0  0  0  0  0  2  0  0  0  0  0  0
   43.5460   13.7550   47.0320 C   0  0  1  0  0  0  0  0  0  0  0  0
   43.3450   13.3520   45.6260 C   0  0  0  0  0  2  0  0  0  0  0  0
   43.6570   11.8930   45.4050 C   0  0  0  0  0  2  0  0  0  0  0  0
   42.0700   10.0950   45.5490 C   0  0  2  0  0  3  0  0  0  0  0  0
   42.6460    8.7250   45.5740 C   0  0  0  0  0  0  0  0  0  0  0  0
   43.0210    8.3880   44.2340 N   0  0  0  0  0  0  0  0  0  0  0  0
   42.7670    8.0200   46.6040 O   0  0  0  0  0  0  0  0  0  0  0  0
   42.1700    9.1670   43.4020 C   0  0  0  0  0  0  0  0  0  0  0  0
   41.8230   10.4350   44.0970 C   0  0  0  0  0  2  0  0  0  0  0  0
   41.7750    8.8100   42.2370 O   0  0  0  0  0  0  0  0  0  0  0  0
   44.0360    7.4630   43.8360 C   0  0  0  0  0  0  0  0  0  0  0  0
   45.1220    7.9020   43.1270 C   0  0  0  0  0  3  0  0  0  0  0  0
   46.1260    7.0100   42.7300 C   0  0  0  0  0  3  0  0  0  0  0  0
   46.0660    5.6700   43.0320 C   0  0  0  0  0  0  0  0  0  0  0  0
   47.4320    4.4440   42.4960 Br  0  0  0  0  0  0  0  0  0  0  0  0
   44.9740    5.2280   43.7470 C   0  0  0  0  0  3  0  0  0  0  0  0
   43.9860    6.1190   44.1350 C   0  0  0  0  0  3  0  0  0  0  0  0
   42.5990   14.6350   47.5810 N   0  0  0  0  0  0  0  0  0  0  0  0
   41.5150   15.0430   46.7900 C   0  0  0  0  0  2  0  0  0  0  0  0
   41.5260   16.5810   46.7810 C   0  0  0  0  0  2  0  0  0  0  0  0
   41.2390   17.0010   48.2090 C   0  0  0  0  0  2  0  0  0  0  0  0
   41.4340   15.9050   49.2020 C   0  0  0  0  0  2  0  0  0  0  0  0
   42.6660   15.0390   48.9000 C   0  0  0  0  0  2  0  0  0  0  0  0
   44.8980   14.4070   47.1470 C   0  0  0  0  0  0  0  0  0  0  0  0
   45.7630   13.9290   47.9410 O   0  0  0  0  0  0  0  0  0  0  0  0
   45.2660   15.5520   46.4010 N   0  0  0  0  0  0  0  0  0  0  0  0
   45.4950   16.4260   46.8900 H   0  0  0  0  0  0  0  0  0  0  0  0
   45.3100   15.5220   45.3640 H   0  0  0  0  0  0  0  0  0  0  0  0
  1  6  1  6  0  0  0
  1  2  1  0  0  0  0
  2  3  1  0  0  0  0
  4 27  1  1  0  0  0
  4 21  1  0  0  0  0
  4  3  1  0  0  0  0
  5  4  1  0  0  0  0
  6  5  1  0  0  0  0
  7 12  1  6  0  0  0
  7  8  1  0  0  0  0
  7  1  1  0  0  0  0
  8 10  2  0  0  0  0
  9  8  1  0  0  0  0
 11 12  1  0  0  0  0
 11  9  1  0  0  0  0
 13 11  2  0  0  0  0
 14 20  1  0  0  0  0
 14  9  1  0  0  0  0
 15 14  2  0  0  0  0
 16 17  2  0  0  0  0
 16 15  1  0  0  0  0
 17 19  1  0  0  0  0
 18 17  1  0  0  0  0
 19 20  2  0  0  0  0
 21 26  1  0  0  0  0
 22 21  1  0  0  0  0
 23 22  1  0  0  0  0
 23 24  1  0  0  0  0
 24 25  1  0  0  0  0
 26 25  1  0  0  0  0
 27 28  2  0  0  0  0
 29 30  1  0  0  0  0
 29 27  1  0  0  0  0
 31 29  1  0  0  0  0
M  END
>  <Pose>
1

>  <Score>
-7.164

$$$$
