MODEL 1
REMARK VINA RESULT:    -7.164      0.000      0.000
REMARK INTER + INTRA:         -10.192
REMARK INTER:                  -8.839
REMARK INTRA:                  -1.353
REMARK UNBOUND:                -1.353
REMARK  4 active torsions:
REMARK  status: ('A' for Active; 'I' for Inactive)
REMARK    1  A    between atoms: C_5  and  N_8 
REMARK    2  A    between atoms: C_11  and  N_15 
REMARK    3  A    between atoms: C_18  and  N_21 
REMARK    4  A    between atoms: C_18  and  C_27 
REMARK       I    between atoms: C_27  and  N_29 
ROOT
ATOM      1  N   UNK d   1      42.935  10.984  46.211  0.00  0.00    -0.399 N 
ATOM      2  C   UNK d   1      42.580  11.478  47.481  0.00  0.00     0.120 C 
ATOM      3  C   UNK d   1      43.619  12.524  47.907  0.00  0.00     0.060 C 
ATOM      4  C   UNK d   1      43.546  13.755  47.032  0.00  0.00     0.112 C 
ATOM      5  C   UNK d   1      43.345  13.352  45.626  0.00  0.00     0.060 C 
ATOM      6  C   UNK d   1      43.657  11.893  45.405  0.00  0.00     0.120 C 
ENDROOT
BRANCH   1   7
ATOM      7  C   UNK d   1      42.070  10.095  45.549  0.00  0.00     0.181 C 
ATOM      8  C   UNK d   1      42.646   8.725  45.574  0.00  0.00     0.254 C 
ATOM      9  N   UNK d   1      43.021   8.388  44.234  0.00  0.00    -0.251 N 
ATOM     10  O   UNK d   1      42.767   8.020  46.604  0.00  0.00    -0.270 OA
ATOM     11  C   UNK d   1      42.170   9.167  43.402  0.00  0.00     0.233 C 
ATOM     12  C   UNK d   1      41.823  10.435  44.097  0.00  0.00     0.138 C 
ATOM     13  O   UNK d   1      41.775   8.810  42.237  0.00  0.00    -0.273 OA
BRANCH   9  14
ATOM     14  C   UNK d   1      44.036   7.463  43.836  0.00  0.00     0.045 A 
ATOM     15  C   UNK d   1      45.122   7.902  43.127  0.00  0.00     0.031 A 
ATOM     16  C   UNK d   1      46.126   7.010  42.730  0.00  0.00     0.021 A 
ATOM     17  C   UNK d   1      46.066   5.670  43.032  0.00  0.00     0.011 A 
ATOM     18 Br   UNK d   1      47.432   4.444  42.496  0.00  0.00    -0.051 Br
ATOM     19  C   UNK d   1      44.974   5.228  43.747  0.00  0.00     0.021 A 
ATOM     20  C   UNK d   1      43.986   6.119  44.135  0.00  0.00     0.031 A 
ENDBRANCH   9  14
ENDBRANCH   1   7
BRANCH   4  21
ATOM     21  N   UNK d   1      42.599  14.635  47.581  0.00  0.00    -0.396 N 
ATOM     22  C   UNK d   1      41.515  15.043  46.790  0.00  0.00     0.118 C 
ATOM     23  C   UNK d   1      41.526  16.581  46.781  0.00  0.00     0.019 C 
ATOM     24  C   UNK d   1      41.239  17.001  48.209  0.00  0.00     0.003 C 
ATOM     25  C   UNK d   1      41.434  15.905  49.202  0.00  0.00     0.019 C 
ATOM     26  C   UNK d   1      42.666  15.039  48.900  0.00  0.00     0.118 C 
ENDBRANCH   4  21
BRANCH   4  27
ATOM     27  C   UNK d   1      44.898  14.407  47.147  0.00  0.00     0.243 C 
ATOM     28  O   UNK d   1      45.763  13.929  47.941  0.00  0.00    -0.271 OA
ATOM     29  N   UNK d   1      45.266  15.552  46.401  0.00  0.00    -0.368 N 
ATOM     30  H   UNK d   1      45.495  16.426  46.890  0.00  0.00     0.159 HD
ATOM     31  H   UNK d   1      45.310  15.522  45.364  0.00  0.00     0.159 HD
ENDBRANCH   4  27
TORSDOF 4
ENDMDL
