/Users/jonathanwahrer/Desktop/Msc/3_Semester/Drug_Design_Praktikum/waehrer_HTS_screening/HTS_experiment/out/docking_results/vina_output/2qfa/0411_docked.pdbqt
 OpenBabel03162219433D

 34 37  0  0  0  0  0  0  0  0999 V2000
   43.0680    8.4990   43.8040 N   0  0  0  0  0  0  0  0  0  0  0  0
   42.8100    9.3620   44.8000 C   0  0  0  0  0  0  0  0  0  0  0  0
   43.5670    9.4880   45.7970 O   0  0  0  0  0  0  0  0  0  0  0  0
   41.6360   10.0580   44.5670 C   0  0  0  0  0  0  0  0  0  0  0  0
   41.1730    9.6090   43.4080 C   0  0  0  0  0  0  0  0  0  0  0  0
   40.0350   10.2840   43.1830 N   0  0  0  0  0  0  0  0  0  0  0  0
   39.8090   11.1220   44.1780 N   0  0  0  0  0  0  0  0  0  0  0  0
   40.7830   10.9990   45.0400 N   0  0  0  0  0  0  0  0  0  0  0  0
   42.0450    8.6520   42.9340 C   0  0  0  0  0  0  0  0  0  0  0  0
   41.9120    8.0080   41.8410 O   0  0  0  0  0  0  0  0  0  0  0  0
   39.4020   10.1880   42.3640 H   0  0  0  0  0  0  0  0  0  0  0  0
   38.9890   11.7900   44.2850 H   0  0  0  0  0  0  0  0  0  0  0  0
   40.9580   11.7130   46.2820 C   0  0  0  0  0  2  0  0  0  0  0  0
   41.9140   12.8630   46.0620 C   0  0  0  0  0  0  0  0  0  0  0  0
   41.4570   13.9860   45.7550 O   0  0  0  0  0  0  0  0  0  0  0  0
   43.2950   12.6650   46.2030 N   0  0  0  0  0  0  0  0  0  0  0  0
   43.6140   11.6770   46.4680 H   0  0  0  0  0  0  0  0  0  0  0  0
   44.2910   13.6470   46.0330 C   0  0  0  0  0  0  0  0  0  0  0  0
   44.6070   14.6380   46.9280 C   0  0  0  0  0  3  0  0  0  0  0  0
   45.5840   15.5830   46.6930 C   0  0  0  0  0  0  0  0  0  0  0  0
   46.2730   15.5210   45.5000 C   0  0  0  0  0  0  0  0  0  0  0  0
   45.9850   14.5360   44.5700 C   0  0  0  0  0  3  0  0  0  0  0  0
   45.0110   13.6090   44.8230 C   0  0  0  0  0  3  0  0  0  0  0  0
   45.8820   16.5780   47.6220 O   0  0  0  0  0  0  0  0  0  0  0  0
   45.0440   17.7400   47.6400 C   0  0  0  0  0  1  0  0  0  0  0  0
   47.2630   16.4650   45.2440 O   0  0  0  0  0  0  0  0  0  0  0  0
   47.7710   16.5920   43.9310 C   0  0  0  0  0  1  0  0  0  0  0  0
   44.1540    7.5940   43.6340 C   0  0  0  0  0  0  0  0  0  0  0  0
   45.3920    7.9870   43.1700 C   0  0  0  0  0  3  0  0  0  0  0  0
   46.4310    7.0750   43.0150 C   0  0  0  0  0  3  0  0  0  0  0  0
   46.2590    5.7390   43.3210 C   0  0  0  0  0  0  0  0  0  0  0  0
   47.6840    4.4780   43.1110 Br  0  0  0  0  0  0  0  0  0  0  0  0
   45.0160    5.3550   43.7850 C   0  0  0  0  0  3  0  0  0  0  0  0
   43.9870    6.2610   43.9380 C   0  0  0  0  0  3  0  0  0  0  0  0
  1  2  1  0  0  0  0
  2  3  2  0  0  0  0
  4  2  1  0  0  0  0
  4  8  1  0  0  0  0
  5  4  2  0  0  0  0
  6  5  1  0  0  0  0
  6  7  1  0  0  0  0
  7 12  1  0  0  0  0
  7  8  1  0  0  0  0
  8 13  1  0  0  0  0
  9  5  1  0  0  0  0
  9  1  1  0  0  0  0
 10  9  2  0  0  0  0
 11  6  1  0  0  0  0
 14 16  1  0  0  0  0
 14 13  1  0  0  0  0
 15 14  2  0  0  0  0
 16 17  1  0  0  0  0
 18 16  1  0  0  0  0
 18 19  1  0  0  0  0
 20 19  2  0  0  0  0
 20 24  1  0  0  0  0
 21 20  1  0  0  0  0
 22 23  1  0  0  0  0
 22 21  2  0  0  0  0
 23 18  2  0  0  0  0
 24 25  1  0  0  0  0
 26 21  1  0  0  0  0
 27 26  1  0  0  0  0
 28  1  1  0  0  0  0
 28 34  1  0  0  0  0
 29 28  2  0  0  0  0
 30 29  1  0  0  0  0
 30 31  2  0  0  0  0
 31 33  1  0  0  0  0
 32 31  1  0  0  0  0
 33 34  2  0  0  0  0
M  END
>  <Pose>
1

>  <Score>
-8.282

$$$$
