MODEL 1
REMARK VINA RESULT:    -8.132      0.000      0.000
REMARK INTER + INTRA:         -12.574
REMARK INTER:                 -11.459
REMARK INTRA:                  -1.115
REMARK UNBOUND:                -1.115
REMARK  7 active torsions:
REMARK  status: ('A' for Active; 'I' for Inactive)
REMARK    1  A    between atoms: C_5  and  N_8 
REMARK    2  A    between atoms: N_15  and  C_16 
REMARK    3  A    between atoms: C_16  and  C_17 
REMARK       I    between atoms: C_17  and  N_19 
REMARK    4  A    between atoms: N_19  and  C_20 
REMARK    5  A    between atoms: C_23  and  C_26 
REMARK    6  A    between atoms: C_26  and  O_28 
REMARK    7  A    between atoms: O_28  and  C_29 
ROOT
ATOM      1  N   UNK d   1      42.734  10.818  46.123  0.00  0.00    -0.241 N 
ATOM      2  C   UNK d   1      43.193  10.150  45.035  0.00  0.00     0.286 A 
ATOM      3  O   UNK d   1      44.004  10.600  44.166  0.00  0.00    -0.265 OA
ATOM      4  C   UNK d   1      42.641   8.881  45.002  0.00  0.00     0.155 A 
ATOM      5  C   UNK d   1      41.857   8.805  46.075  0.00  0.00     0.152 A 
ATOM      6  N   UNK d   1      41.302   7.569  46.066  0.00  0.00    -0.279 N 
ATOM      7  N   UNK d   1      41.764   6.933  44.994  0.00  0.00    -0.239 N 
ATOM      8  N   UNK d   1      42.589   7.708  44.316  0.00  0.00    -0.261 N 
ATOM      9  C   UNK d   1      41.904   9.989  46.772  0.00  0.00     0.286 A 
ATOM     10  O   UNK d   1      41.294  10.269  47.827  0.00  0.00    -0.265 OA
ATOM     11  H   UNK d   1      40.638   7.199  46.777  0.00  0.00     0.189 HD
ATOM     12  H   UNK d   1      41.508   5.965  44.734  0.00  0.00     0.208 HD
ENDROOT
BRANCH   8  13
ATOM     13  C   UNK d   1      43.322   7.426  43.088  0.00  0.00     0.254 C 
BRANCH  13  14
ATOM     14  C   UNK d   1      44.350   6.356  43.362  0.00  0.00     0.242 C 
ATOM     15  O   UNK d   1      43.893   5.416  44.059  0.00  0.00    -0.271 OA
ATOM     16  N   UNK d   1      45.641   6.485  42.853  0.00  0.00    -0.326 N 
ATOM     17  H   UNK d   1      45.824   7.369  42.280  0.00  0.00     0.169 HD
BRANCH  16  18
ATOM     18  C   UNK d   1      46.721   5.581  43.014  0.00  0.00     0.034 A 
ATOM     19  C   UNK d   1      47.679   5.659  43.996  0.00  0.00     0.030 A 
ATOM     20  C   UNK d   1      48.719   4.724  44.088  0.00  0.00     0.020 A 
ATOM     21  C   UNK d   1      48.826   3.683  43.197  0.00  0.00     0.039 A 
ATOM     22  C   UNK d   1      47.873   3.595  42.212  0.00  0.00     0.020 A 
ATOM     23  C   UNK d   1      46.849   4.519  42.123  0.00  0.00     0.030 A 
BRANCH  21  24
ATOM     24  C   UNK d   1      49.925   2.733  43.331  0.00  0.00     0.293 C 
ATOM     25  O   UNK d   1      50.352   2.482  44.486  0.00  0.00    -0.259 OA
BRANCH  24  26
ATOM     26  O   UNK d   1      50.527   2.095  42.283  0.00  0.00    -0.318 OA
BRANCH  26  27
ATOM     27  C   UNK d   1      51.863   1.684  42.220  0.00  0.00     0.174 C 
ATOM     28  C   UNK d   1      51.847   0.149  42.206  0.00  0.00     0.034 C 
ENDBRANCH  26  27
ENDBRANCH  24  26
ENDBRANCH  21  24
ENDBRANCH  16  18
ENDBRANCH  13  14
ENDBRANCH   8  13
BRANCH   1  29
ATOM     29  C   UNK d   1      43.111  12.154  46.448  0.00  0.00     0.046 A 
ATOM     30  C   UNK d   1      44.225  12.376  47.244  0.00  0.00     0.031 A 
ATOM     31  C   UNK d   1      44.613  13.636  47.574  0.00  0.00     0.021 A 
ATOM     32  C   UNK d   1      43.924  14.747  47.135  0.00  0.00     0.011 A 
ATOM     33 Br   UNK d   1      44.432  16.527  47.571  0.00  0.00    -0.051 Br
ATOM     34  C   UNK d   1      42.820  14.512  46.345  0.00  0.00     0.021 A 
ATOM     35  C   UNK d   1      42.416  13.249  46.005  0.00  0.00     0.031 A 
ENDBRANCH   1  29
TORSDOF 7
ENDMDL
