MODEL 1
REMARK VINA RESULT:    -8.164      0.000      0.000
REMARK INTER + INTRA:         -10.308
REMARK INTER:                  -9.596
REMARK INTRA:                  -0.712
REMARK UNBOUND:                -0.712
REMARK  3 active torsions:
REMARK  status: ('A' for Active; 'I' for Inactive)
REMARK    1  A    between atoms: C_5  and  N_8 
REMARK    2  A    between atoms: N_15  and  C_16 
REMARK    3  A    between atoms: C_19  and  N_22 
ROOT
ATOM      1  N   UNK d   1      41.760  11.942  45.393  0.00  0.00    -0.241 N 
ATOM      2  C   UNK d   1      42.518  10.859  45.110  0.00  0.00     0.286 A 
ATOM      3  O   UNK d   1      43.653  10.557  45.600  0.00  0.00    -0.265 OA
ATOM      4  C   UNK d   1      41.896  10.055  44.172  0.00  0.00     0.160 A 
ATOM      5  C   UNK d   1      40.747  10.674  43.893  0.00  0.00     0.152 A 
ATOM      6  N   UNK d   1      40.135   9.889  42.974  0.00  0.00    -0.278 N 
ATOM      7  N   UNK d   1      40.910   8.845  42.730  0.00  0.00    -0.234 N 
ATOM      8  N   UNK d   1      42.011   8.921  43.459  0.00  0.00    -0.234 N 
ATOM      9  C   UNK d   1      40.655  11.832  44.636  0.00  0.00     0.286 A 
ATOM     10  O   UNK d   1      39.725  12.675  44.647  0.00  0.00    -0.265 OA
ATOM     11  H   UNK d   1      39.198  10.099  42.542  0.00  0.00     0.189 HD
ATOM     12  H   UNK d   1      40.722   8.051  42.064  0.00  0.00     0.209 HD
ENDROOT
BRANCH   8  13
ATOM     13  C   UNK d   1      43.094   7.983  43.478  0.00  0.00     0.058 A 
ATOM     14  C   UNK d   1      44.319   8.300  42.928  0.00  0.00     0.034 A 
ATOM     15  C   UNK d   1      45.388   7.413  42.932  0.00  0.00     0.038 A 
ATOM     16  C   UNK d   1      45.247   6.164  43.500  0.00  0.00     0.103 A 
ATOM     17  C   UNK d   1      44.024   5.845  44.050  0.00  0.00     0.038 A 
ATOM     18  C   UNK d   1      42.959   6.733  44.045  0.00  0.00     0.034 A 
BRANCH  16  19
ATOM     19  N   UNK d   1      46.325   5.232  43.519  0.00  0.00    -0.116 N 
ATOM     20  O   UNK d   1      46.141   4.004  43.431  0.00  0.00    -0.532 OA
ATOM     21  O   UNK d   1      47.598   5.692  43.638  0.00  0.00    -0.532 OA
ENDBRANCH  16  19
ENDBRANCH   8  13
BRANCH   1  22
ATOM     22  C   UNK d   1      42.093  12.985  46.318  0.00  0.00     0.046 A 
ATOM     23  C   UNK d   1      41.605  13.014  47.608  0.00  0.00     0.031 A 
ATOM     24  C   UNK d   1      41.946  14.042  48.483  0.00  0.00     0.021 A 
ATOM     25  C   UNK d   1      42.785  15.064  48.087  0.00  0.00     0.011 A 
ATOM     26 Br   UNK d   1      43.266  16.485  49.276  0.00  0.00    -0.051 Br
ATOM     27  C   UNK d   1      43.275  15.037  46.798  0.00  0.00     0.021 A 
ATOM     28  C   UNK d   1      42.930  14.013  45.937  0.00  0.00     0.031 A 
ENDBRANCH   1  22
TORSDOF 3
ENDMDL
