MODEL 1
REMARK VINA RESULT:    -8.302      0.000      0.000
REMARK INTER + INTRA:         -11.398
REMARK INTER:                 -10.729
REMARK INTRA:                  -0.669
REMARK UNBOUND:                -0.669
REMARK  5 active torsions:
REMARK  status: ('A' for Active; 'I' for Inactive)
REMARK    1  A    between atoms: C_5  and  N_8 
REMARK    2  A    between atoms: C_14  and  C_18 
REMARK    3  A    between atoms: C_18  and  O_20 
REMARK    4  A    between atoms: O_20  and  C_21 
REMARK    5  A    between atoms: C_21  and  C_22 
ROOT
ATOM      1  N   UNK d   1      41.826  12.030  44.980  0.00  0.00    -0.247 N 
ATOM      2  C   UNK d   1      41.039  11.690  43.822  0.00  0.00     0.255 C 
ATOM      3  O   UNK d   1      40.648  12.488  42.924  0.00  0.00    -0.270 OA
ATOM      4  C   UNK d   1      40.782  10.233  43.891  0.00  0.00     0.210 C 
ATOM      5  N   UNK d   1      40.727   9.572  42.602  0.00  0.00    -0.222 NA
ATOM      6  N   UNK d   1      41.343   8.335  42.968  0.00  0.00    -0.314 N 
ATOM      7  C   UNK d   1      42.438   8.613  43.840  0.00  0.00     0.132 C 
ATOM      8  C   UNK d   1      42.122   9.767  44.416  0.00  0.00     0.073 C 
ATOM      9  C   UNK d   1      42.503  10.822  45.348  0.00  0.00     0.266 C 
ATOM     10  O   UNK d   1      43.308  10.606  46.296  0.00  0.00    -0.267 OA
ATOM     11  H   UNK d   1      41.454  10.064  42.010  0.00  0.00     0.147 HD
ATOM     12  H   UNK d   1      41.052   7.388  42.656  0.00  0.00     0.181 HD
ENDROOT
BRANCH   7  13
ATOM     13  C   UNK d   1      43.639   7.816  44.066  0.00  0.00     0.312 C 
ATOM     14  O   UNK d   1      44.017   7.505  45.220  0.00  0.00    -0.258 OA
BRANCH  13  15
ATOM     15  O   UNK d   1      44.429   7.359  43.022  0.00  0.00    -0.312 OA
BRANCH  15  16
ATOM     16  C   UNK d   1      45.817   7.652  42.952  0.00  0.00     0.217 C 
BRANCH  16  17
ATOM     17  C   UNK d   1      46.595   6.368  42.958  0.00  0.00    -0.034 A 
ATOM     18  C   UNK d   1      46.334   5.382  42.009  0.00  0.00     0.009 A 
ATOM     19  C   UNK d   1      47.023   4.200  41.976  0.00  0.00     0.001 A 
ATOM     20  C   UNK d   1      48.018   3.973  42.924  0.00  0.00     0.000 A 
ATOM     21  C   UNK d   1      48.272   4.950  43.861  0.00  0.00     0.001 A 
ATOM     22  C   UNK d   1      47.564   6.153  43.884  0.00  0.00     0.009 A 
ENDBRANCH  16  17
ENDBRANCH  15  16
ENDBRANCH  13  15
ENDBRANCH   7  13
BRANCH   1  23
ATOM     23  C   UNK d   1      41.935  13.277  45.634  0.00  0.00     0.045 A 
ATOM     24  C   UNK d   1      40.783  13.983  46.002  0.00  0.00     0.031 A 
ATOM     25  C   UNK d   1      40.798  15.186  46.631  0.00  0.00     0.021 A 
ATOM     26  C   UNK d   1      42.008  15.758  46.932  0.00  0.00     0.011 A 
ATOM     27 Br   UNK d   1      42.057  17.464  47.827  0.00  0.00    -0.051 Br
ATOM     28  C   UNK d   1      43.168  15.093  46.585  0.00  0.00     0.021 A 
ATOM     29  C   UNK d   1      43.129  13.869  45.944  0.00  0.00     0.031 A 
ENDBRANCH   1  23
TORSDOF 5
ENDMDL
