/Users/jonathanwahrer/Desktop/Msc/3_Semester/Drug_Design_Praktikum/waehrer_HTS_screening/HTS_experiment/out/docking_results/vina_output/2qfa/0426_docked.pdbqt
 OpenBabel03162219443D

 29 32  0  0  1  0  0  0  0  0999 V2000
   41.8260   12.0300   44.9800 N   0  0  0  0  0  0  0  0  0  0  0  0
   41.0390   11.6900   43.8220 C   0  0  0  0  0  0  0  0  0  0  0  0
   40.6480   12.4880   42.9240 O   0  0  0  0  0  0  0  0  0  0  0  0
   40.7820   10.2330   43.8910 C   0  0  1  0  0  3  0  0  0  0  0  0
   40.7270    9.5720   42.6020 N   0  0  0  0  0  0  0  0  0  0  0  0
   41.3430    8.3350   42.9680 N   0  0  0  0  0  0  0  0  0  0  0  0
   42.4380    8.6130   43.8400 C   0  0  0  0  0  0  0  0  0  0  0  0
   42.1220    9.7670   44.4160 C   0  0  0  0  0  0  0  0  0  0  0  0
   42.5030   10.8220   45.3480 C   0  0  0  0  0  0  0  0  0  0  0  0
   43.3080   10.6060   46.2960 O   0  0  0  0  0  0  0  0  0  0  0  0
   41.4540   10.0640   42.0100 H   0  0  0  0  0  0  0  0  0  0  0  0
   41.0520    7.3880   42.6560 H   0  0  0  0  0  0  0  0  0  0  0  0
   43.6390    7.8160   44.0660 C   0  0  0  0  0  0  0  0  0  0  0  0
   44.0170    7.5050   45.2200 O   0  0  0  0  0  0  0  0  0  0  0  0
   44.4290    7.3590   43.0220 O   0  0  0  0  0  0  0  0  0  0  0  0
   45.8170    7.6520   42.9520 C   0  0  0  0  0  2  0  0  0  0  0  0
   46.5950    6.3680   42.9580 C   0  0  0  0  0  0  0  0  0  0  0  0
   46.3340    5.3820   42.0090 C   0  0  0  0  0  3  0  0  0  0  0  0
   47.0230    4.2000   41.9760 C   0  0  0  0  0  3  0  0  0  0  0  0
   48.0180    3.9730   42.9240 C   0  0  0  0  0  3  0  0  0  0  0  0
   48.2720    4.9500   43.8610 C   0  0  0  0  0  3  0  0  0  0  0  0
   47.5640    6.1530   43.8840 C   0  0  0  0  0  3  0  0  0  0  0  0
   41.9350   13.2770   45.6340 C   0  0  0  0  0  0  0  0  0  0  0  0
   40.7830   13.9830   46.0020 C   0  0  0  0  0  3  0  0  0  0  0  0
   40.7980   15.1860   46.6310 C   0  0  0  0  0  3  0  0  0  0  0  0
   42.0080   15.7580   46.9320 C   0  0  0  0  0  0  0  0  0  0  0  0
   42.0570   17.4640   47.8270 Br  0  0  0  0  0  0  0  0  0  0  0  0
   43.1680   15.0930   46.5850 C   0  0  0  0  0  3  0  0  0  0  0  0
   43.1290   13.8690   45.9440 C   0  0  0  0  0  3  0  0  0  0  0  0
  1  9  1  0  0  0  0
  1 23  1  0  0  0  0
  2  1  1  0  0  0  0
  3  2  2  0  0  0  0
  4  2  1  6  0  0  0
  4  8  1  0  0  0  0
  5  6  1  0  0  0  0
  5  4  1  0  0  0  0
  6  7  1  0  0  0  0
  7 13  1  0  0  0  0
  7  8  2  0  0  0  0
  8  9  1  0  0  0  0
  9 10  2  0  0  0  0
 11  5  1  0  0  0  0
 12  6  1  0  0  0  0
 13 14  2  0  0  0  0
 15 13  1  0  0  0  0
 16 17  1  0  0  0  0
 16 15  1  0  0  0  0
 17 22  1  0  0  0  0
 18 17  2  0  0  0  0
 19 18  1  0  0  0  0
 19 20  2  0  0  0  0
 20 21  1  0  0  0  0
 21 22  2  0  0  0  0
 23 29  2  0  0  0  0
 23 24  1  0  0  0  0
 24 25  2  0  0  0  0
 25 26  1  0  0  0  0
 26 27  1  0  0  0  0
 28 26  2  0  0  0  0
 29 28  1  0  0  0  0
M  END
>  <Pose>
1

>  <Score>
-8.302

$$$$
