MODEL 1
REMARK VINA RESULT:    -7.322      0.000      0.000
REMARK INTER + INTRA:          -8.108
REMARK INTER:                  -7.750
REMARK INTRA:                  -0.358
REMARK UNBOUND:                -0.358
REMARK  1 active torsions:
REMARK  status: ('A' for Active; 'I' for Inactive)
REMARK    1  A    between atoms: C_5  and  N_8 
ROOT
ATOM      1  N   UNK d   1      42.814   8.636  44.240  0.00  0.00    -0.231 N 
ATOM      2  C   UNK d   1      41.893   9.087  43.229  0.00  0.00     0.357 A 
ATOM      3  O   UNK d   1      41.972   8.615  42.062  0.00  0.00    -0.244 OA
ATOM      4  N   UNK d   1      40.938  10.050  43.614  0.00  0.00    -0.169 NA
ATOM      5  C   UNK d   1      40.840  10.537  44.780  0.00  0.00     0.202 A 
ATOM      6  C   UNK d   1      41.695  10.195  45.944  0.00  0.00     0.140 A 
ATOM      7  C   UNK d   1      42.281  11.457  46.477  0.00  0.00     0.269 C 
ATOM      8  N   UNK d   1      42.597  11.488  47.859  0.00  0.00    -0.043 N 
ATOM      9  C   UNK d   1      42.555  10.250  48.531  0.00  0.00     0.140 A 
ATOM     10  C   UNK d   1      41.635   9.266  48.147  0.00  0.00    -0.021 A 
ATOM     11  C   UNK d   1      41.609   8.072  48.811  0.00  0.00     0.016 A 
ATOM     12  C   UNK d   1      42.447   7.761  49.857  0.00  0.00    -0.061 A 
ATOM     13  C   UNK d   1      43.352   8.733  50.230  0.00  0.00     0.009 A 
ATOM     14  C   UNK d   1      43.403   9.957  49.576  0.00  0.00     0.038 A 
ATOM     15  C   UNK d   1      42.390   6.453  50.551  0.00  0.00     0.048 C 
ATOM     16  C   UNK d   1      40.750   9.642  47.014  0.00  0.00     0.070 C 
ATOM     17  C   UNK d   1      41.809  12.495  48.589  0.00  0.00     0.276 C 
ATOM     18  C   UNK d   1      42.700   9.186  45.548  0.00  0.00     0.251 A 
ATOM     19  O   UNK d   1      43.546   8.745  46.395  0.00  0.00    -0.271 OA
ATOM     20  O   UNK d   1      39.833  11.496  45.027  0.00  0.00    -0.173 OA
ATOM     21  H   UNK d   1      43.598  11.838  47.948  0.00  0.00     0.286 HD
ENDROOT
BRANCH   1  22
ATOM     22  C   UNK d   1      43.803   7.666  43.929  0.00  0.00     0.047 A 
ATOM     23  C   UNK d   1      44.976   8.103  43.357  0.00  0.00     0.031 A 
ATOM     24  C   UNK d   1      45.998   7.224  43.018  0.00  0.00     0.021 A 
ATOM     25  C   UNK d   1      45.840   5.885  43.257  0.00  0.00     0.011 A 
ATOM     26 Br   UNK d   1      47.248   4.687  42.788  0.00  0.00    -0.051 Br
ATOM     27  C   UNK d   1      44.669   5.419  43.832  0.00  0.00     0.021 A 
ATOM     28  C   UNK d   1      43.665   6.315  44.161  0.00  0.00     0.031 A 
ENDBRANCH   1  22
TORSDOF 1
ENDMDL
