/Users/jonathanwahrer/Desktop/Msc/3_Semester/Drug_Design_Praktikum/waehrer_HTS_screening/HTS_experiment/out/docking_results/vina_output/2qfa/0429_docked.pdbqt
 OpenBabel03162219453D

 36 39  0  0  0  0  0  0  0  0999 V2000
   42.4780   11.0170   44.2550 N   0  0  0  0  0  0  0  0  0  0  0  0
   41.3580   11.0670   43.3690 C   0  0  0  0  0  0  0  0  0  0  0  0
   40.6790   12.1420   43.3420 O   0  0  0  0  0  0  0  0  0  0  0  0
   41.0470    9.9420   42.5670 N   0  0  0  0  0  0  0  0  0  0  0  0
   41.7920    8.7280   42.5810 C   0  0  0  0  0  0  0  0  0  0  0  0
   41.4900    7.7410   41.8540 O   0  0  0  0  0  0  0  0  0  0  0  0
   42.9540    8.6420   43.4830 C   0  0  0  0  0  0  0  0  0  0  0  0
   43.6870    7.5410   43.5430 C   0  0  0  0  0  3  0  0  0  0  0  0
   43.2490    9.8170   44.2950 C   0  0  0  0  0  0  0  0  0  0  0  0
   44.2310    9.7910   45.0810 O   0  0  0  0  0  0  0  0  0  0  0  0
   40.2190   10.0190   41.9310 H   0  0  0  0  0  0  0  0  0  0  0  0
   44.8010    7.4880   44.4230 N   0  0  0  0  0  0  0  0  0  0  0  0
   44.5640    7.3700   45.4450 H   0  0  0  0  0  0  0  0  0  0  0  0
   46.1290    7.5810   44.0400 N   0  0  0  0  0  0  0  0  0  0  0  0
   46.4440    8.5550   43.7580 H   0  0  0  0  0  0  0  0  0  0  0  0
   47.0390    6.4890   44.0070 C   0  0  0  0  0  0  0  0  0  0  0  0
   47.0700    5.5400   43.0650 N   0  0  0  0  0  0  0  0  0  0  0  0
   48.0520    4.6670   43.3400 C   0  0  0  0  0  0  0  0  0  0  0  0
   46.2180    5.3830   41.8810 C   0  0  0  0  0  1  0  0  0  0  0  0
   48.6640    5.0920   44.5110 C   0  0  0  0  0  0  0  0  0  0  0  0
   48.5460    3.5300   42.7590 C   0  0  0  0  0  0  0  0  0  0  0  0
   48.0120    6.1960   44.8710 N   0  0  0  0  0  0  0  0  0  0  0  0
   49.6950    4.4190   45.0530 N   0  0  0  0  0  0  0  0  0  0  0  0
   50.1370    3.3170   44.4460 C   0  0  0  0  0  0  0  0  0  0  0  0
   50.2750    4.9180   46.2650 C   0  0  0  0  0  1  0  0  0  0  0  0
   51.1070    2.6540   44.9240 O   0  0  0  0  0  0  0  0  0  0  0  0
   49.5840    2.8460   43.2960 N   0  0  0  0  0  0  0  0  0  0  0  0
   50.0980    1.6510   42.6760 C   0  0  0  0  0  1  0  0  0  0  0  0
   48.0350    3.1000   41.7050 O   0  0  0  0  0  0  0  0  0  0  0  0
   42.7830   12.1290   45.0480 C   0  0  0  0  0  0  0  0  0  0  0  0
   43.9460   12.8380   44.8220 C   0  0  0  0  0  3  0  0  0  0  0  0
   44.2880   13.9430   45.5780 C   0  0  0  0  0  3  0  0  0  0  0  0
   43.4610   14.3750   46.6010 C   0  0  0  0  0  0  0  0  0  0  0  0
   43.9240   15.9030   47.6570 Br  0  0  0  0  0  0  0  0  0  0  0  0
   42.3060   13.6520   46.8090 C   0  0  0  0  0  3  0  0  0  0  0  0
   41.9490   12.5470   46.0630 C   0  0  0  0  0  3  0  0  0  0  0  0
  1  9  1  0  0  0  0
  1 30  1  0  0  0  0
  2  1  1  0  0  0  0
  3  2  2  0  0  0  0
  4  5  1  0  0  0  0
  4  2  1  0  0  0  0
  5  7  1  0  0  0  0
  6  5  2  0  0  0  0
  7  8  2  0  0  0  0
  7  9  1  0  0  0  0
  8 12  1  0  0  0  0
  9 10  2  0  0  0  0
 11  4  1  0  0  0  0
 12 13  1  0  0  0  0
 14 12  1  0  0  0  0
 15 14  1  0  0  0  0
 16 14  1  0  0  0  0
 16 22  2  0  0  0  0
 17 18  1  0  0  0  0
 17 16  1  0  0  0  0
 18 20  2  0  0  0  0
 19 17  1  0  0  0  0
 20 22  1  0  0  0  0
 20 23  1  0  0  0  0
 21 27  1  0  0  0  0
 21 18  1  0  0  0  0
 23 25  1  0  0  0  0
 24 26  2  0  0  0  0
 24 23  1  0  0  0  0
 27 24  1  0  0  0  0
 28 27  1  0  0  0  0
 29 21  2  0  0  0  0
 30 36  1  0  0  0  0
 31 30  2  0  0  0  0
 31 32  1  0  0  0  0
 32 33  2  0  0  0  0
 33 35  1  0  0  0  0
 33 34  1  0  0  0  0
 36 35  2  0  0  0  0
M  END
>  <Pose>
1

>  <Score>
-8.280

$$$$
