/Users/jonathanwahrer/Desktop/Msc/3_Semester/Drug_Design_Praktikum/waehrer_HTS_screening/HTS_experiment/out/docking_results/vina_output/2qfa/0436_docked.pdbqt
 OpenBabel03162219453D

 29 32  0  0  0  0  0  0  0  0999 V2000
   43.0190    8.6140   43.6700 N   0  0  0  0  0  0  0  0  0  0  0  0
   42.0800    8.7810   42.5790 C   0  0  0  0  0  2  0  0  0  0  0  0
   41.1060    9.9130   42.8070 C   0  0  0  0  0  2  0  0  0  0  0  0
   41.9220   11.1010   43.3380 C   0  0  0  0  0  2  0  0  0  0  0  0
   42.3160   10.7150   44.6680 N   0  0  0  0  0  0  0  0  0  0  0  0
   42.8600    9.4670   44.7970 C   0  0  0  0  0  0  0  0  0  0  0  0
   43.1680    9.2690   46.0890 N   0  0  0  0  0  0  0  0  0  0  0  0
   42.8120   10.4000   46.7490 C   0  0  0  0  0  0  0  0  0  0  0  0
   42.2740   11.3180   45.8600 C   0  0  0  0  0  0  0  0  0  0  0  0
   41.8360   12.5510   46.3000 C   0  0  0  0  0  0  0  0  0  0  0  0
   41.3470   13.3680   45.4490 O   0  0  0  0  0  0  0  0  0  0  0  0
   41.9360   12.8590   47.6050 N   0  0  0  0  0  0  0  0  0  0  0  0
   42.4610   11.9510   48.4450 C   0  0  0  0  0  0  0  0  0  0  0  0
   42.5360   12.2800   49.6600 O   0  0  0  0  0  0  0  0  0  0  0  0
   42.8900   10.7540   48.0430 N   0  0  0  0  0  0  0  0  0  0  0  0
   43.4540    9.7950   48.9810 C   0  0  0  0  0  1  0  0  0  0  0  0
   44.0280    7.6300   43.5670 C   0  0  0  0  0  0  0  0  0  0  0  0
   43.8500    6.3050   43.8930 C   0  0  0  0  0  3  0  0  0  0  0  0
   44.9090    5.4060   43.7550 C   0  0  0  0  0  3  0  0  0  0  0  0
   46.1410    5.8200   43.2940 C   0  0  0  0  0  0  0  0  0  0  0  0
   47.5930    4.6320   43.0970 Br  0  0  0  0  0  0  0  0  0  0  0  0
   46.3270    7.1470   42.9650 C   0  0  0  0  0  3  0  0  0  0  0  0
   45.2710    8.0060   43.1100 C   0  0  0  0  0  3  0  0  0  0  0  0
   41.4780   14.1540   48.0780 C   0  0  0  0  0  2  0  0  0  0  0  0
   42.6430   15.1000   48.0800 C   0  0  0  0  0  0  0  0  0  0  0  0
   42.8910   15.8070   47.0750 O   0  0  0  0  0  0  0  0  0  0  0  0
   43.4900   15.2220   49.2050 N   0  0  0  0  0  0  0  0  0  0  0  0
   43.9070   16.1330   49.5020 H   0  0  0  0  0  0  0  0  0  0  0  0
   43.7360   14.3900   49.7960 H   0  0  0  0  0  0  0  0  0  0  0  0
  1  6  1  0  0  0  0
  2  3  1  0  0  0  0
  2  1  1  0  0  0  0
  3  4  1  0  0  0  0
  4  5  1  0  0  0  0
  5  6  1  0  0  0  0
  5  9  1  0  0  0  0
  6  7  2  0  0  0  0
  7  8  1  0  0  0  0
  8 15  1  0  0  0  0
  9 10  1  0  0  0  0
  9  8  2  0  0  0  0
 10 12  1  0  0  0  0
 11 10  2  0  0  0  0
 12 24  1  0  0  0  0
 12 13  1  0  0  0  0
 13 14  2  0  0  0  0
 15 13  1  0  0  0  0
 15 16  1  0  0  0  0
 17  1  1  0  0  0  0
 17 18  1  0  0  0  0
 19 18  2  0  0  0  0
 20 19  1  0  0  0  0
 21 20  1  0  0  0  0
 22 23  1  0  0  0  0
 22 20  2  0  0  0  0
 23 17  2  0  0  0  0
 24 25  1  0  0  0  0
 25 27  1  0  0  0  0
 26 25  2  0  0  0  0
 27 28  1  0  0  0  0
 27 29  1  0  0  0  0
M  END
>  <Pose>
1

>  <Score>
-6.563

$$$$
