MODEL 1
REMARK VINA RESULT:    -8.010      0.000      0.000
REMARK INTER + INTRA:         -10.784
REMARK INTER:                  -9.884
REMARK INTRA:                  -0.900
REMARK UNBOUND:                -0.900
REMARK  4 active torsions:
REMARK  status: ('A' for Active; 'I' for Inactive)
REMARK    1  A    between atoms: C_5  and  N_8 
REMARK    2  A    between atoms: C_12  and  C_13 
REMARK    3  A    between atoms: C_13  and  N_14 
REMARK    4  A    between atoms: N_14  and  C_15 
ROOT
ATOM      1  N   UNK d   1      45.864   5.715  43.457  0.00  0.00    -0.220 N 
ATOM      2  N   UNK d   1      44.705   5.451  44.051  0.00  0.00    -0.291 N 
ATOM      3  C   UNK d   1      43.895   6.525  44.000  0.00  0.00     0.056 A 
ATOM      4  C   UNK d   1      42.667   6.607  44.495  0.00  0.00     0.045 C 
ATOM      5  C   UNK d   1      44.555   7.542  43.340  0.00  0.00     0.076 A 
ATOM      6  C   UNK d   1      45.786   6.989  43.018  0.00  0.00     0.280 A 
ATOM      7  O   UNK d   1      46.688   7.604  42.405  0.00  0.00    -0.265 OA
ATOM      8  H   UNK d   1      44.459   4.544  44.493  0.00  0.00     0.187 HD
ENDROOT
BRANCH   5   9
ATOM      9  C   UNK d   1      44.125   8.776  43.068  0.00  0.00     0.103 C 
BRANCH   9  10
ATOM     10  N   UNK d   1      44.343   9.788  44.044  0.00  0.00    -0.384 N 
ATOM     11  H   UNK d   1      45.317  10.032  44.277  0.00  0.00     0.159 HD
BRANCH  10  12
ATOM     12  C   UNK d   1      43.261  10.463  44.700  0.00  0.00     0.109 C 
ATOM     13  C   UNK d   1      43.539  11.928  44.815  0.00  0.00     0.311 C 
ATOM     14  N   UNK d   1      42.379  12.590  45.395  0.00  0.00     0.147 N 
ATOM     15  C   UNK d   1      41.246  12.355  44.508  0.00  0.00     0.547 C 
ATOM     16  C   UNK d   1      42.130  12.043  46.705  0.00  0.00     0.547 C 
ATOM     17  N   UNK d   1      40.908  10.955  44.431  0.00  0.00     0.147 N 
ATOM     18  C   UNK d   1      40.691  10.431  45.775  0.00  0.00     0.547 C 
ATOM     19  C   UNK d   1      42.007  10.229  43.850  0.00  0.00     0.311 C 
ATOM     20  N   UNK d   1      41.846  10.629  46.621  0.00  0.00     0.147 N 
ATOM     21  C   UNK d   1      42.987   9.926  46.085  0.00  0.00     0.311 C 
ENDBRANCH  10  12
ENDBRANCH   9  10
ENDBRANCH   5   9
BRANCH   1  22
ATOM     22  C   UNK d   1      46.981   4.848  43.301  0.00  0.00     0.060 A 
ATOM     23  C   UNK d   1      47.008   3.932  42.270  0.00  0.00     0.033 A 
ATOM     24  C   UNK d   1      48.086   3.068  42.088  0.00  0.00     0.021 A 
ATOM     25  C   UNK d   1      49.149   3.113  42.939  0.00  0.00     0.011 A 
ATOM     26 Br   UNK d   1      50.661   1.943  42.734  0.00  0.00    -0.051 Br
ATOM     27  C   UNK d   1      49.150   4.022  43.984  0.00  0.00     0.021 A 
ATOM     28  C   UNK d   1      48.073   4.865  44.141  0.00  0.00     0.033 A 
ENDBRANCH   1  22
TORSDOF 4
ENDMDL
