/Users/jonathanwahrer/Desktop/Msc/3_Semester/Drug_Design_Praktikum/waehrer_HTS_screening/HTS_experiment/out/docking_results/vina_output/2qfa/0441_docked.pdbqt
 OpenBabel03162219463D

 36 39  0  0  1  0  0  0  0  0999 V2000
   46.0080    6.9060   43.4930 C   0  0  0  0  0  0  0  0  0  0  0  0
   46.9560    6.3160   44.2450 N   0  0  0  0  0  0  0  0  0  0  0  0
   47.6490    5.3040   43.7490 C   0  0  0  0  0  0  0  0  0  0  0  0
   48.6260    4.5670   44.2930 N   0  0  0  0  0  0  0  0  0  0  0  0
   48.9750    3.6680   43.3460 C   0  0  0  0  0  3  0  0  0  0  0  0
   48.2350    3.8450   42.2470 N   0  0  0  0  0  0  0  0  0  0  0  0
   47.3900    4.8580   42.4480 C   0  0  0  0  0  0  0  0  0  0  0  0
   46.4180    5.4580   41.6700 C   0  0  0  0  0  0  0  0  0  0  0  0
   45.7510    6.4750   42.2230 N   0  0  0  0  0  0  0  0  0  0  0  0
   45.2380    7.9960   43.9940 N   0  0  0  0  0  0  0  0  0  0  0  0
   44.0050    7.8180   44.6530 C   0  0  0  0  0  0  0  0  0  0  0  0
   43.5400    6.6770   44.8190 O   0  0  0  0  0  0  0  0  0  0  0  0
   45.6340    8.9700   43.8530 H   0  0  0  0  0  0  0  0  0  0  0  0
   43.2640    8.9940   45.1460 C   0  0  0  0  0  2  0  0  0  0  0  0
   43.5230   10.1560   44.4130 O   0  0  0  0  0  0  0  0  0  0  0  0
   43.0470   11.3670   44.8660 C   0  0  0  0  0  0  0  0  0  0  0  0
   43.9080   12.3110   45.3730 C   0  0  0  0  0  3  0  0  0  0  0  0
   43.4360   13.5420   45.8350 C   0  0  0  0  0  3  0  0  0  0  0  0
   42.0870   13.8180   45.7820 C   0  0  0  0  0  0  0  0  0  0  0  0
   41.4370   15.5100   46.4170 Br  0  0  0  0  0  0  0  0  0  0  0  0
   41.2260   12.8680   45.2720 C   0  0  0  0  0  3  0  0  0  0  0  0
   41.7070   11.6610   44.8220 C   0  0  0  0  0  3  0  0  0  0  0  0
   46.2030    4.9750   40.3870 O   0  0  0  0  0  0  0  0  0  0  0  0
   47.0410    4.6620   39.8850 H   0  0  0  0  0  0  0  0  0  0  0  0
   49.2380    4.6230   45.5650 C   0  0  2  0  0  3  0  0  0  0  0  0
   50.3860    5.4270   45.5570 O   0  0  0  0  0  0  0  0  0  0  0  0
   51.4120    4.4920   45.4370 C   0  0  2  0  0  3  0  0  0  0  0  0
   51.0380    3.5340   46.5580 C   0  0  1  0  0  3  0  0  0  0  0  0
   49.5590    3.3510   46.2290 C   0  0  1  0  0  3  0  0  0  0  0  0
   52.7700    5.0990   45.6390 C   0  0  0  0  0  2  0  0  0  0  0  0
   52.7430    6.3440   46.2060 O   0  0  0  0  0  0  0  0  0  0  0  0
   51.8400    6.7320   46.0710 H   0  0  0  0  0  0  0  0  0  0  0  0
   51.7480    2.3660   46.5410 O   0  0  0  0  0  0  0  0  0  0  0  0
   51.2240    1.5770   46.8910 H   0  0  0  0  0  0  0  0  0  0  0  0
   48.8200    3.1720   47.4200 O   0  0  0  0  0  0  0  0  0  0  0  0
   49.3990    3.5210   48.1430 H   0  0  0  0  0  0  0  0  0  0  0  0
  1 10  1  0  0  0  0
  1  2  2  0  0  0  0
  3  2  1  0  0  0  0
  3  4  1  0  0  0  0
  5  4  1  0  0  0  0
  6  7  1  0  0  0  0
  6  5  2  0  0  0  0
  7  3  2  0  0  0  0
  8  9  2  0  0  0  0
  8  7  1  0  0  0  0
  9  1  1  0  0  0  0
 10 11  1  0  0  0  0
 11 12  2  0  0  0  0
 11 14  1  0  0  0  0
 13 10  1  0  0  0  0
 15 16  1  0  0  0  0
 15 14  1  0  0  0  0
 16 17  1  0  0  0  0
 17 18  2  0  0  0  0
 19 18  1  0  0  0  0
 19 20  1  0  0  0  0
 21 19  2  0  0  0  0
 22 16  2  0  0  0  0
 22 21  1  0  0  0  0
 23  8  1  0  0  0  0
 24 23  1  0  0  0  0
 25  4  1  6  0  0  0
 25 29  1  0  0  0  0
 26 25  1  0  0  0  0
 27 26  1  0  0  0  0
 27 30  1  1  0  0  0
 27 28  1  0  0  0  0
 28 33  1  6  0  0  0
 29 28  1  0  0  0  0
 29 35  1  1  0  0  0
 30 31  1  0  0  0  0
 32 31  1  0  0  0  0
 33 34  1  0  0  0  0
 35 36  1  0  0  0  0
M  END
>  <Pose>
1

>  <Score>
-7.755

$$$$
