MODEL 1
REMARK VINA RESULT:    -7.755      0.000      0.000
REMARK INTER + INTRA:         -12.029
REMARK INTER:                 -11.381
REMARK INTRA:                  -0.648
REMARK UNBOUND:                -0.648
REMARK  10 active torsions:
REMARK  status: ('A' for Active; 'I' for Inactive)
REMARK    1  A    between atoms: C_5  and  O_8 
REMARK    2  A    between atoms: O_8  and  C_9 
REMARK    3  A    between atoms: C_9  and  C_10 
REMARK       I    between atoms: C_10  and  N_12 
REMARK    4  A    between atoms: N_12  and  C_13 
REMARK    5  A    between atoms: N_16  and  C_23 
REMARK    6  A    between atoms: C_20  and  O_22 
REMARK    7  A    between atoms: C_25  and  C_30 
REMARK    8  A    between atoms: C_26  and  O_29 
REMARK    9  A    between atoms: C_27  and  O_28 
REMARK   10  A    between atoms: C_30  and  O_31 
ROOT
ATOM      1  C   UNK d   1      46.008   6.906  43.493  0.00  0.00     0.733 A 
ATOM      2  N   UNK d   1      46.956   6.316  44.245  0.00  0.00    -0.042 NA
ATOM      3  C   UNK d   1      47.649   5.304  43.749  0.00  0.00     0.185 A 
ATOM      4  N   UNK d   1      48.626   4.567  44.293  0.00  0.00    -0.293 N 
ATOM      5  C   UNK d   1      48.975   3.668  43.346  0.00  0.00     0.214 A 
ATOM      6  N   UNK d   1      48.235   3.845  42.247  0.00  0.00    -0.235 NA
ATOM      7  C   UNK d   1      47.390   4.858  42.448  0.00  0.00     0.158 A 
ATOM      8  C   UNK d   1      46.418   5.458  41.670  0.00  0.00     0.214 A 
ATOM      9  N   UNK d   1      45.751   6.475  42.223  0.00  0.00    -0.036 NA
ENDROOT
BRANCH   1  10
ATOM     10  N   UNK d   1      45.238   7.996  43.994  0.00  0.00    -0.154 N 
ATOM     11  C   UNK d   1      44.005   7.818  44.653  0.00  0.00     0.260 C 
ATOM     12  O   UNK d   1      43.540   6.677  44.819  0.00  0.00    -0.270 OA
ATOM     13  H   UNK d   1      45.634   8.970  43.853  0.00  0.00     0.187 HD
BRANCH  11  14
ATOM     14  C   UNK d   1      43.264   8.994  45.146  0.00  0.00     0.279 C 
BRANCH  14  15
ATOM     15  O   UNK d   1      43.523  10.156  44.413  0.00  0.00    -0.342 OA
BRANCH  15  16
ATOM     16  C   UNK d   1      43.047  11.367  44.866  0.00  0.00     0.069 A 
ATOM     17  C   UNK d   1      43.908  12.311  45.373  0.00  0.00     0.038 A 
ATOM     18  C   UNK d   1      43.436  13.542  45.835  0.00  0.00     0.022 A 
ATOM     19  C   UNK d   1      42.087  13.818  45.782  0.00  0.00     0.011 A 
ATOM     20 Br   UNK d   1      41.437  15.510  46.417  0.00  0.00    -0.051 Br
ATOM     21  C   UNK d   1      41.226  12.868  45.272  0.00  0.00     0.022 A 
ATOM     22  C   UNK d   1      41.707  11.661  44.822  0.00  0.00     0.038 A 
ENDBRANCH  15  16
ENDBRANCH  14  15
ENDBRANCH  11  14
ENDBRANCH   1  10
BRANCH   8  23
ATOM     23  O   UNK d   1      46.203   4.975  40.387  0.00  0.00    -0.343 OA
ATOM     24  H   UNK d   1      47.041   4.662  39.885  0.00  0.00     0.219 HD
ENDBRANCH   8  23
BRANCH   4  25
ATOM     25  C   UNK d   1      49.238   4.623  45.565  0.00  0.00     0.262 C 
ATOM     26  O   UNK d   1      50.386   5.427  45.557  0.00  0.00    -0.353 OA
ATOM     27  C   UNK d   1      51.412   4.492  45.437  0.00  0.00     0.179 C 
ATOM     28  C   UNK d   1      51.038   3.534  46.558  0.00  0.00     0.182 C 
ATOM     29  C   UNK d   1      49.559   3.351  46.229  0.00  0.00     0.198 C 
BRANCH  27  30
ATOM     30  C   UNK d   1      52.770   5.099  45.639  0.00  0.00     0.198 C 
BRANCH  30  31
ATOM     31  O   UNK d   1      52.743   6.344  46.206  0.00  0.00    -0.398 OA
ATOM     32  H   UNK d   1      51.840   6.732  46.071  0.00  0.00     0.209 HD
ENDBRANCH  30  31
ENDBRANCH  27  30
BRANCH  28  33
ATOM     33  O   UNK d   1      51.748   2.366  46.541  0.00  0.00    -0.390 OA
ATOM     34  H   UNK d   1      51.224   1.577  46.891  0.00  0.00     0.210 HD
ENDBRANCH  28  33
BRANCH  29  35
ATOM     35  O   UNK d   1      48.820   3.172  47.420  0.00  0.00    -0.388 OA
ATOM     36  H   UNK d   1      49.399   3.521  48.143  0.00  0.00     0.210 HD
ENDBRANCH  29  35
ENDBRANCH   4  25
TORSDOF 10
ENDMDL
