MODEL 1
REMARK VINA RESULT:    -6.964      0.000      0.000
REMARK INTER + INTRA:         -10.732
REMARK INTER:                  -9.611
REMARK INTRA:                  -1.122
REMARK UNBOUND:                -1.122
REMARK  7 active torsions:
REMARK  status: ('A' for Active; 'I' for Inactive)
REMARK    1  A    between atoms: C_5  and  O_8 
REMARK    2  A    between atoms: O_8  and  C_9 
REMARK    3  A    between atoms: C_9  and  C_10 
REMARK    4  A    between atoms: C_10  and  O_11 
REMARK    5  A    between atoms: C_10  and  C_12 
REMARK    6  A    between atoms: C_12  and  N_13 
REMARK    7  A    between atoms: C_17  and  N_18 
ROOT
ATOM      1  N   UNK d   1      42.181  12.895  45.366  0.00  0.00    -0.170 N 
ATOM      2  C   UNK d   1      43.284  13.622  45.655  0.00  0.00     0.166 A 
ATOM      3  C   UNK d   1      42.951  14.554  46.611  0.00  0.00     0.185 A 
ATOM      4  N   UNK d   1      41.672  14.359  46.857  0.00  0.00    -0.044 NA
ATOM      5  C   UNK d   1      41.152  13.339  46.104  0.00  0.00     0.707 A 
ATOM      6  N   UNK d   1      43.830  15.458  47.135  0.00  0.00    -0.286 N 
ATOM      7  C   UNK d   1      45.085  15.425  46.683  0.00  0.00     0.330 A 
ATOM      8  O   UNK d   1      45.911  16.251  47.157  0.00  0.00    -0.246 OA
ATOM      9  N   UNK d   1      45.438  14.529  45.752  0.00  0.00    -0.273 N 
ATOM     10  C   UNK d   1      44.590  13.621  45.215  0.00  0.00     0.280 A 
ATOM     11  O   UNK d   1      44.946  12.805  44.353  0.00  0.00    -0.265 OA
ATOM     12  C   UNK d   1      43.381  16.405  48.156  0.00  0.00     0.163 C 
ATOM     13  H   UNK d   1      46.427  14.534  45.425  0.00  0.00     0.173 HD
ENDROOT
BRANCH   1  14
ATOM     14  C   UNK d   1      42.117  11.773  44.454  0.00  0.00     0.182 C 
BRANCH  14  15
ATOM     15  C   UNK d   1      42.300  10.421  45.078  0.00  0.00     0.161 C 
BRANCH  15  16
ATOM     16  C   UNK d   1      42.077   9.234  44.195  0.00  0.00     0.209 C 
BRANCH  16  17
ATOM     17  O   UNK d   1      42.971   8.273  44.296  0.00  0.00    -0.349 OA
BRANCH  17  18
ATOM     18  C   UNK d   1      43.880   7.430  43.871  0.00  0.00     0.069 A 
ATOM     19  C   UNK d   1      43.918   6.085  44.180  0.00  0.00     0.038 A 
ATOM     20  C   UNK d   1      44.903   5.247  43.704  0.00  0.00     0.022 A 
ATOM     21  C   UNK d   1      45.880   5.760  42.895  0.00  0.00     0.011 A 
ATOM     22 Br   UNK d   1      47.235   4.599  42.241  0.00  0.00    -0.051 Br
ATOM     23  C   UNK d   1      45.869   7.100  42.566  0.00  0.00     0.022 A 
ATOM     24  C   UNK d   1      44.903   7.928  43.032  0.00  0.00     0.038 A 
ENDBRANCH  17  18
ENDBRANCH  16  17
ENDBRANCH  15  16
BRANCH  15  25
ATOM     25  O   UNK d   1      43.564  10.276  45.666  0.00  0.00    -0.392 OA
ATOM     26  H   UNK d   1      43.599  10.844  46.502  0.00  0.00     0.210 HD
ENDBRANCH  15  25
ENDBRANCH  14  15
ENDBRANCH   1  14
BRANCH   5  27
ATOM     27  N   UNK d   1      39.761  12.962  46.123  0.00  0.00    -0.212 N 
ATOM     28  C   UNK d   1      39.370  12.222  47.343  0.00  0.00     0.171 C 
ATOM     29  C   UNK d   1      37.914  12.086  47.540  0.00  0.00     0.292 C 
ATOM     30  N   UNK d   1      37.178  11.943  46.309  0.00  0.00     0.087 N 
ATOM     31  C   UNK d   1      37.375  13.160  45.586  0.00  0.00     0.292 C 
ATOM     32  C   UNK d   1      37.510  10.750  45.603  0.00  0.00     0.310 C 
ATOM     33  C   UNK d   1      38.822  13.306  45.115  0.00  0.00     0.171 C 
ENDBRANCH   5  27
TORSDOF 7
ENDMDL
