MODEL 1
REMARK VINA RESULT:    -5.830      0.000      0.000
REMARK INTER + INTRA:          -6.816
REMARK INTER:                  -6.512
REMARK INTRA:                  -0.304
REMARK UNBOUND:                -0.304
REMARK  2 active torsions:
REMARK  status: ('A' for Active; 'I' for Inactive)
REMARK    1  A    between atoms: C_7  and  C_8 
REMARK    2  A    between atoms: C_8  and  N_9 
ROOT
ATOM      1  C   UNK d   1      42.029   8.399  44.820  0.00  0.00     0.284 C 
ENDROOT
BRANCH   1   2
ATOM      2  C   UNK d   1      43.304   7.919  44.285  0.00  0.00    -0.012 A 
ATOM      3  C   UNK d   1      44.078   8.824  43.539  0.00  0.00     0.021 A 
ATOM      4 Br   UNK d   1      43.626  10.672  43.337  0.00  0.00    -0.050 Br
ATOM      5  C   UNK d   1      45.205   8.310  42.925  0.00  0.00     0.059 A 
ATOM      6  C   UNK d   1      45.541   6.978  43.057  0.00  0.00     0.106 A 
ATOM      7  C   UNK d   1      44.807   6.066  43.778  0.00  0.00     0.105 A 
ATOM      8  O   UNK d   1      46.656   6.284  42.496  0.00  0.00    -0.323 OA
ATOM      9  C   UNK d   1      43.692   6.581  44.381  0.00  0.00     0.050 A 
ATOM     10  O   UNK d   1      45.482   4.865  43.635  0.00  0.00    -0.323 OA
ATOM     11  C   UNK d   1      46.192   4.906  42.366  0.00  0.00     0.352 C 
ENDBRANCH   1   2
BRANCH   1  12
ATOM     12  N   UNK d   1      41.980   9.042  46.066  0.00  0.00     0.016 N 
ATOM     13  C   UNK d   1      41.346   7.968  46.912  0.00  0.00     0.517 C 
ATOM     14  N   UNK d   1      40.883   8.402  48.161  0.00  0.00     0.171 N 
ATOM     15  C   UNK d   1      39.947   9.487  47.922  0.00  0.00     0.551 C 
ATOM     16  C   UNK d   1      42.071   8.824  48.911  0.00  0.00     0.551 C 
ATOM     17  N   UNK d   1      40.693  10.573  47.336  0.00  0.00     0.171 N 
ATOM     18  C   UNK d   1      41.147  10.243  46.024  0.00  0.00     0.517 C 
ATOM     19  C   UNK d   1      41.851  10.990  48.134  0.00  0.00     0.551 C 
ATOM     20  N   UNK d   1      42.763   9.858  48.180  0.00  0.00     0.171 N 
ATOM     21  C   UNK d   1      43.136   9.410  46.821  0.00  0.00     0.517 C 
ENDBRANCH   1  12
TORSDOF 2
ENDMDL
