/Users/jonathanwahrer/Desktop/Msc/3_Semester/Drug_Design_Praktikum/waehrer_HTS_screening/HTS_experiment/out/docking_results/vina_output/2qfa/0454_docked.pdbqt
 OpenBabel03162219473D

 21 25  0  0  1  0  0  0  0  0999 V2000
   42.0290    8.3990   44.8200 C   0  0  0  0  0  2  0  0  0  0  0  0
   43.3040    7.9190   44.2850 C   0  0  0  0  0  0  0  0  0  0  0  0
   44.0780    8.8240   43.5390 C   0  0  0  0  0  0  0  0  0  0  0  0
   43.6260   10.6720   43.3370 Br  0  0  0  0  0  0  0  0  0  0  0  0
   45.2050    8.3100   42.9250 C   0  0  0  0  0  3  0  0  0  0  0  0
   45.5410    6.9780   43.0570 C   0  0  0  0  0  0  0  0  0  0  0  0
   44.8070    6.0660   43.7780 C   0  0  0  0  0  0  0  0  0  0  0  0
   46.6560    6.2840   42.4960 O   0  0  0  0  0  0  0  0  0  0  0  0
   43.6920    6.5810   44.3810 C   0  0  0  0  0  3  0  0  0  0  0  0
   45.4820    4.8650   43.6350 O   0  0  0  0  0  0  0  0  0  0  0  0
   46.1920    4.9060   42.3660 C   0  0  0  0  0  2  0  0  0  0  0  0
   41.9800    9.0420   46.0660 N   0  0  2  0  0  4  0  0  0  0  0  0
   41.3460    7.9680   46.9120 C   0  0  0  0  0  2  0  0  0  0  0  0
   40.8830    8.4020   48.1610 N   0  0  2  0  0  0  0  0  0  0  0  0
   39.9470    9.4870   47.9220 C   0  0  0  0  0  2  0  0  0  0  0  0
   42.0710    8.8240   48.9110 C   0  0  0  0  0  2  0  0  0  0  0  0
   40.6930   10.5730   47.3360 N   0  0  2  0  0  0  0  0  0  0  0  0
   41.1470   10.2430   46.0240 C   0  0  0  0  0  2  0  0  0  0  0  0
   41.8510   10.9900   48.1340 C   0  0  0  0  0  2  0  0  0  0  0  0
   42.7630    9.8580   48.1800 N   0  0  2  0  0  0  0  0  0  0  0  0
   43.1360    9.4100   46.8210 C   0  0  0  0  0  2  0  0  0  0  0  0
  2  9  1  0  0  0  0
  2  1  1  0  0  0  0
  3  2  2  0  0  0  0
  4  3  1  0  0  0  0
  5  6  2  0  0  0  0
  5  3  1  0  0  0  0
  6  7  1  0  0  0  0
  7  9  2  0  0  0  0
  8  6  1  0  0  0  0
 10  7  1  0  0  0  0
 11  8  1  0  0  0  0
 11 10  1  0  0  0  0
 12  1  1  6  0  0  0
 12 21  1  0  0  0  0
 12 13  1  0  0  0  0
 14 13  1  6  0  0  0
 14 16  1  0  0  0  0
 15 14  1  0  0  0  0
 17 18  1  6  0  0  0
 17 15  1  0  0  0  0
 17 19  1  0  0  0  0
 18 12  1  0  0  0  0
 19 20  1  0  0  0  0
 20 21  1  6  0  0  0
 20 16  1  0  0  0  0
M  END
>  <Pose>
1

>  <Score>
-5.830

$$$$
