/Users/jonathanwahrer/Desktop/Msc/3_Semester/Drug_Design_Praktikum/waehrer_HTS_screening/HTS_experiment/out/docking_results/vina_output/2qfa/0459_docked.pdbqt
 OpenBabel03162219473D

 29 32  0  0  0  0  0  0  0  0999 V2000
   43.1630    7.9640   44.4490 C   0  0  0  0  0  0  0  0  0  0  0  0
   44.1630    8.4420   43.5920 C   0  0  0  0  0  3  0  0  0  0  0  0
   45.0810    7.6180   42.9810 C   0  0  0  0  0  3  0  0  0  0  0  0
   45.0510    6.2570   43.1960 C   0  0  0  0  0  0  0  0  0  0  0  0
   44.0740    5.7690   44.0370 C   0  0  0  0  0  3  0  0  0  0  0  0
   43.1420    6.6030   44.6580 C   0  0  0  0  0  3  0  0  0  0  0  0
   42.2670    8.8380   45.0400 O   0  0  0  0  0  0  0  0  0  0  0  0
   41.6790    9.9180   44.3790 C   0  0  0  0  0  2  0  0  0  0  0  0
   42.1170   11.2360   44.8680 C   0  0  0  0  0  0  0  0  0  0  0  0
   41.2300   12.0610   45.5740 C   0  0  0  0  0  0  0  0  0  0  0  0
   39.4430   11.4160   45.8130 Br  0  0  0  0  0  0  0  0  0  0  0  0
   41.6300   13.2770   46.0700 C   0  0  0  0  0  3  0  0  0  0  0  0
   42.9220   13.7250   45.8870 C   0  0  0  0  0  0  0  0  0  0  0  0
   43.8150   12.9340   45.1970 C   0  0  0  0  0  0  0  0  0  0  0  0
   43.6070   14.8830   46.2620 O   0  0  0  0  0  0  0  0  0  0  0  0
   43.4020   11.7000   44.6980 C   0  0  0  0  0  3  0  0  0  0  0  0
   45.0150   13.6170   45.1640 O   0  0  0  0  0  0  0  0  0  0  0  0
   44.9940   14.6980   46.0790 C   0  0  0  0  0  2  0  0  0  0  0  0
   46.0210    5.3680   42.5530 C   0  0  0  0  0  0  0  0  0  0  0  0
   46.4820    4.1790   42.9770 N   0  0  0  0  0  0  0  0  0  0  0  0
   47.3550    3.7140   42.0770 N   0  0  0  0  0  0  0  0  0  0  0  0
   47.4510    4.5950   41.0920 N   0  0  0  0  0  0  0  0  0  0  0  0
   46.6400    5.5980   41.3840 N   0  0  0  0  0  0  0  0  0  0  0  0
   48.1020    2.4740   42.1130 C   0  0  0  0  0  2  0  0  0  0  0  0
   49.3950    2.6740   42.8030 C   0  0  0  0  0  0  0  0  0  0  0  0
   50.4450    2.2890   42.2650 O   0  0  0  0  0  0  0  0  0  0  0  0
   49.4120    3.3020   44.0670 N   0  0  0  0  0  0  0  0  0  0  0  0
   48.6090    3.2310   44.7520 H   0  0  0  0  0  0  0  0  0  0  0  0
   50.2400    3.8640   44.3580 H   0  0  0  0  0  0  0  0  0  0  0  0
  1  6  1  0  0  0  0
  1  7  1  0  0  0  0
  2  1  2  0  0  0  0
  3  4  2  0  0  0  0
  3  2  1  0  0  0  0
  4  5  1  0  0  0  0
  5  6  2  0  0  0  0
  8  9  1  0  0  0  0
  8  7  1  0  0  0  0
  9 10  1  0  0  0  0
 10 11  1  0  0  0  0
 10 12  2  0  0  0  0
 13 12  1  0  0  0  0
 13 15  1  0  0  0  0
 14 13  2  0  0  0  0
 16  9  2  0  0  0  0
 16 14  1  0  0  0  0
 17 14  1  0  0  0  0
 17 18  1  0  0  0  0
 18 15  1  0  0  0  0
 19 20  2  0  0  0  0
 19  4  1  0  0  0  0
 21 24  1  0  0  0  0
 21 20  1  0  0  0  0
 22 23  2  0  0  0  0
 22 21  1  0  0  0  0
 23 19  1  0  0  0  0
 24 25  1  0  0  0  0
 25 27  1  0  0  0  0
 26 25  2  0  0  0  0
 27 29  1  0  0  0  0
 27 28  1  0  0  0  0
M  END
>  <Pose>
1

>  <Score>
-8.271

$$$$
