/Users/jonathanwahrer/Desktop/Msc/3_Semester/Drug_Design_Praktikum/waehrer_HTS_screening/HTS_experiment/out/docking_results/vina_output/2qfa/0469_docked.pdbqt
 OpenBabel03162219483D

 32 36  0  0  0  0  0  0  0  0999 V2000
   44.8150    6.4190   43.6170 N   0  0  0  0  0  0  0  0  0  0  0  0
   43.7410    5.9820   44.3740 C   0  0  0  0  0  2  0  0  0  0  0  0
   42.5310    6.8210   44.5250 C   0  0  0  0  0  2  0  0  0  0  0  0
   42.8600    8.1760   44.1850 N   0  0  0  0  0  0  0  0  0  0  0  0
   43.4460    8.3290   42.8780 C   0  0  0  0  0  2  0  0  0  0  0  0
   44.7910    7.6510   42.9290 C   0  0  0  0  0  2  0  0  0  0  0  0
   45.6020    5.3920   42.9750 C   0  0  0  0  0  2  0  0  0  0  0  0
   47.0650    5.5030   43.3390 C   0  0  0  0  0  0  0  0  0  0  0  0
   47.6190    4.4740   44.1270 N   0  0  0  0  0  0  0  0  0  0  0  0
   46.9700    3.6760   44.4170 H   0  0  0  0  0  0  0  0  0  0  0  0
   47.6730    6.5000   42.9150 O   0  0  0  0  0  0  0  0  0  0  0  0
   48.9640    4.4100   44.5650 C   0  0  0  0  0  0  0  0  0  0  0  0
   49.8070    3.4670   43.9580 C   0  0  0  0  0  0  0  0  0  0  0  0
   49.0920    2.3500   42.6010 Br  0  0  0  0  0  0  0  0  0  0  0  0
   51.1200    3.3730   44.3560 C   0  0  0  0  0  3  0  0  0  0  0  0
   51.6430    4.1680   45.3270 C   0  0  0  0  0  0  0  0  0  0  0  0
   50.8390    5.1040   45.9410 C   0  0  0  0  0  0  0  0  0  0  0  0
   52.9600    4.1060   45.7600 O   0  0  0  0  0  0  0  0  0  0  0  0
   49.5000    5.2180   45.5530 C   0  0  0  0  0  3  0  0  0  0  0  0
   51.3890    5.8950   46.9170 O   0  0  0  0  0  0  0  0  0  0  0  0
   52.5160    5.5420   47.6810 C   0  0  0  0  0  2  0  0  0  0  0  0
   53.2460    4.3530   47.1430 C   0  0  0  0  0  2  0  0  0  0  0  0
   42.6660    9.3110   44.9890 C   0  0  0  0  0  0  0  0  0  0  0  0
   43.1880    9.4550   46.2340 N   0  0  0  0  0  0  0  0  0  0  0  0
   42.9860   10.5550   46.9800 C   0  0  0  0  0  3  0  0  0  0  0  0
   42.2460   11.5800   46.5190 N   0  0  0  0  0  0  0  0  0  0  0  0
   41.6880   11.5250   45.2930 C   0  0  0  0  0  0  0  0  0  0  0  0
   40.9120   12.3870   44.5870 N   0  0  0  0  0  0  0  0  0  0  0  0
   41.9030   10.3960   44.5440 C   0  0  0  0  0  0  0  0  0  0  0  0
   40.6610   11.7950   43.4330 N   0  0  0  0  0  0  0  0  0  0  0  0
   40.4610   13.7030   45.0420 C   0  0  0  0  0  1  0  0  0  0  0  0
   41.2340   10.5920   43.3560 C   0  0  0  0  0  3  0  0  0  0  0  0
  1  2  1  0  0  0  0
  2  3  1  0  0  0  0
  4  3  1  0  0  0  0
  4 23  1  0  0  0  0
  5  6  1  0  0  0  0
  5  4  1  0  0  0  0
  6  1  1  0  0  0  0
  7  8  1  0  0  0  0
  7  1  1  0  0  0  0
  8  9  1  0  0  0  0
  9 10  1  0  0  0  0
  9 12  1  0  0  0  0
 11  8  2  0  0  0  0
 12 19  1  0  0  0  0
 13 15  1  0  0  0  0
 13 12  2  0  0  0  0
 14 13  1  0  0  0  0
 15 16  2  0  0  0  0
 16 18  1  0  0  0  0
 16 17  1  0  0  0  0
 17 20  1  0  0  0  0
 18 22  1  0  0  0  0
 19 17  2  0  0  0  0
 20 21  1  0  0  0  0
 22 21  1  0  0  0  0
 23 24  1  0  0  0  0
 24 25  2  0  0  0  0
 26 25  1  0  0  0  0
 27 26  2  0  0  0  0
 28 31  1  0  0  0  0
 28 27  1  0  0  0  0
 29 23  2  0  0  0  0
 29 27  1  0  0  0  0
 30 28  1  0  0  0  0
 32 30  2  0  0  0  0
 32 29  1  0  0  0  0
M  END
>  <Pose>
1

>  <Score>
-7.761

$$$$
