MODEL 1
REMARK VINA RESULT:    -7.813      0.000      0.000
REMARK INTER + INTRA:          -9.678
REMARK INTER:                  -9.183
REMARK INTRA:                  -0.496
REMARK UNBOUND:                -0.496
REMARK  3 active torsions:
REMARK  status: ('A' for Active; 'I' for Inactive)
REMARK    1  A    between atoms: C_11  and  C_13 
REMARK       I    between atoms: C_13  and  N_15 
REMARK    2  A    between atoms: N_18  and  C_21 
REMARK    3  A    between atoms: C_21  and  C_22 
ROOT
ATOM      1  C   UNK d   1      42.178  10.703  43.987  0.00  0.00     0.277 C 
ATOM      2  O   UNK d   1      41.421  11.041  43.031  0.00  0.00    -0.265 OA
ATOM      3  N   UNK d   1      42.361   9.335  44.272  0.00  0.00    -0.343 N 
ATOM      4  C   UNK d   1      41.677   8.357  43.464  0.00  0.00     0.145 C 
ATOM      5  C   UNK d   1      42.616   7.336  42.857  0.00  0.00     0.137 C 
ATOM      6  N   UNK d   1      43.712   7.156  43.735  0.00  0.00    -0.404 N 
ATOM      7  C   UNK d   1      43.361   7.308  45.092  0.00  0.00     0.137 C 
ATOM      8  C   UNK d   1      43.195   8.820  45.331  0.00  0.00     0.145 C 
ENDROOT
BRANCH   1   9
ATOM      9  C   UNK d   1      42.831  11.769  44.756  0.00  0.00     0.147 A 
ATOM     10  C   UNK d   1      42.369  12.094  46.010  0.00  0.00     0.098 A 
ATOM     11  C   UNK d   1      42.951  13.088  46.768  0.00  0.00     0.187 A 
ATOM     12  C   UNK d   1      44.032  13.778  46.250  0.00  0.00     0.048 A 
ATOM     13  O   UNK d   1      42.515  13.381  47.930  0.00  0.00    -0.287 OA
ATOM     14  C   UNK d   1      44.448  13.407  44.986  0.00  0.00     0.091 A 
ATOM     15  C   UNK d   1      44.631  14.774  46.982  0.00  0.00     0.020 A 
ATOM     16  C   UNK d   1      45.532  14.103  44.471  0.00  0.00     0.057 A 
ATOM     17  O   UNK d   1      43.856  12.453  44.311  0.00  0.00    -0.304 OA
ATOM     18  C   UNK d   1      46.156  15.111  45.187  0.00  0.00     0.013 A 
ATOM     19 Br   UNK d   1      47.644  16.044  44.443  0.00  0.00    -0.051 Br
ATOM     20  C   UNK d   1      45.703  15.447  46.449  0.00  0.00     0.020 A 
ENDBRANCH   1   9
BRANCH   6  21
ATOM     21  C   UNK d   1      44.960   7.656  43.319  0.00  0.00     0.181 C 
BRANCH  21  22
ATOM     22  C   UNK d   1      45.829   6.702  42.635  0.00  0.00     0.108 A 
ATOM     23  N   UNK d   1      45.613   6.189  41.413  0.00  0.00    -0.106 NA
ATOM     24  O   UNK d   1      46.589   5.393  41.156  0.00  0.00    -0.106 OA
ATOM     25  N   UNK d   1      47.445   5.351  42.146  0.00  0.00    -0.108 NA
ATOM     26  C   UNK d   1      46.996   6.177  43.117  0.00  0.00     0.088 A 
ATOM     27  C   UNK d   1      47.645   6.450  44.434  0.00  0.00     0.075 C 
ENDBRANCH  21  22
ENDBRANCH   6  21
TORSDOF 3
ENDMDL
