MODEL 1
REMARK VINA RESULT:    -7.627      0.000      0.000
REMARK INTER + INTRA:         -10.459
REMARK INTER:                  -9.857
REMARK INTRA:                  -0.602
REMARK UNBOUND:                -0.602
REMARK  5 active torsions:
REMARK  status: ('A' for Active; 'I' for Inactive)
REMARK    1  A    between atoms: N_10  and  C_13 
REMARK    2  A    between atoms: C_13  and  C_14 
REMARK    3  A    between atoms: C_14  and  C_15 
REMARK    4  A    between atoms: C_15  and  C_16 
REMARK       I    between atoms: C_16  and  N_18 
REMARK    5  A    between atoms: N_21  and  C_24 
ROOT
ATOM      1  C   UNK d   1      43.596   8.127  44.090  0.00  0.00     0.104 C 
ENDROOT
BRANCH   1   2
ATOM      2  C   UNK d   1      44.225   6.900  43.492  0.00  0.00     0.029 C 
BRANCH   2   3
ATOM      3  C   UNK d   1      45.545   7.245  42.909  0.00  0.00     0.136 C 
BRANCH   3   4
ATOM      4  N   UNK d   1      46.540   6.207  43.072  0.00  0.00    -0.280 N 
ATOM      5  C   UNK d   1      47.384   6.114  44.210  0.00  0.00     0.261 A 
ATOM      6  C   UNK d   1      48.253   4.963  44.038  0.00  0.00     0.048 A 
ATOM      7  O   UNK d   1      47.415   6.879  45.227  0.00  0.00    -0.267 OA
ATOM      8  C   UNK d   1      47.929   4.387  42.826  0.00  0.00     0.049 A 
ATOM      9  C   UNK d   1      49.245   4.422  44.830  0.00  0.00     0.019 A 
ATOM     10  C   UNK d   1      48.634   3.261  42.441  0.00  0.00     0.037 A 
ATOM     11  C   UNK d   1      46.847   5.156  42.191  0.00  0.00     0.261 A 
ATOM     12  C   UNK d   1      49.625   2.729  43.241  0.00  0.00     0.011 A 
ATOM     13 Br   UNK d   1      50.555   1.173  42.647  0.00  0.00    -0.051 Br
ATOM     14  C   UNK d   1      49.953   3.299  44.453  0.00  0.00     0.020 A 
ATOM     15  O   UNK d   1      46.320   4.895  41.075  0.00  0.00    -0.267 OA
ENDBRANCH   3   4
ENDBRANCH   2   3
ENDBRANCH   1   2
BRANCH   1  16
ATOM     16  C   UNK d   1      42.577   8.772  43.231  0.00  0.00     0.219 C 
ATOM     17  O   UNK d   1      41.764   8.132  42.515  0.00  0.00    -0.273 OA
ATOM     18  N   UNK d   1      42.470  10.208  43.177  0.00  0.00    -0.349 N 
ATOM     19  C   UNK d   1      41.479  10.847  42.342  0.00  0.00     0.145 C 
ATOM     20  C   UNK d   1      43.342  11.075  43.947  0.00  0.00     0.145 C 
ATOM     21  C   UNK d   1      40.771  11.975  43.015  0.00  0.00     0.144 C 
ATOM     22  N   UNK d   1      41.210  12.232  44.367  0.00  0.00    -0.362 N 
ATOM     23  C   UNK d   1      42.535  11.965  44.860  0.00  0.00     0.144 C 
BRANCH  22  24
ATOM     24  C   UNK d   1      40.261  12.792  45.279  0.00  0.00     0.143 A 
ATOM     25  N   UNK d   1      39.494  12.005  46.082  0.00  0.00    -0.241 NA
ATOM     26  C   UNK d   1      38.600  12.486  46.944  0.00  0.00     0.138 A 
ATOM     27  C   UNK d   1      38.432  13.859  47.037  0.00  0.00     0.135 A 
ATOM     28  N   UNK d   1      39.179  14.672  46.251  0.00  0.00    -0.268 NA
ATOM     29  C   UNK d   1      40.071  14.150  45.394  0.00  0.00     0.166 A 
ENDBRANCH  22  24
ENDBRANCH   1  16
TORSDOF 5
ENDMDL
