/Users/jonathanwahrer/Desktop/Msc/3_Semester/Drug_Design_Praktikum/waehrer_HTS_screening/HTS_experiment/out/docking_results/vina_output/2qfa/0483_docked.pdbqt
 OpenBabel03162219493D

 31 34  0  0  0  0  0  0  0  0999 V2000
   44.8250   15.0840   47.8660 C   0  0  0  0  0  2  0  0  0  0  0  0
   43.7360   16.0480   47.8660 C   0  0  0  0  0  0  0  0  0  0  0  0
   42.8400   16.8510   47.8830 C   0  0  0  0  0  3  0  0  0  0  0  0
   44.4480   13.8940   47.1290 N   0  0  0  0  0  0  0  0  0  0  0  0
   43.7070   12.7570   47.5570 C   0  0  0  0  0  0  0  0  0  0  0  0
   43.5740   11.8370   46.5100 C   0  0  0  0  0  0  0  0  0  0  0  0
   43.1330   12.4500   48.7820 C   0  0  0  0  0  3  0  0  0  0  0  0
   42.8840   10.6640   46.7310 C   0  0  0  0  0  3  0  0  0  0  0  0
   44.2480   12.3690   45.3350 C   0  0  0  0  0  0  0  0  0  0  0  0
   42.3090   10.3650   47.9720 C   0  0  0  0  0  0  0  0  0  0  0  0
   41.3590    8.7460   48.2700 Br  0  0  0  0  0  0  0  0  0  0  0  0
   42.4480   11.2750   48.9830 C   0  0  0  0  0  3  0  0  0  0  0  0
   44.7900   13.6760   45.7690 C   0  0  0  0  0  0  0  0  0  0  0  0
   44.3580   11.8330   44.1690 N   0  0  0  0  0  0  0  0  0  0  0  0
   45.4400   14.4050   44.9710 O   0  0  0  0  0  0  0  0  0  0  0  0
   43.8040   10.5860   43.8670 N   0  0  0  0  0  0  0  0  0  0  0  0
   42.5830   10.4440   43.1630 C   0  0  0  0  0  0  0  0  0  0  0  0
   41.9700   11.4720   42.7940 O   0  0  0  0  0  0  0  0  0  0  0  0
   44.3110    9.7340   44.1820 H   0  0  0  0  0  0  0  0  0  0  0  0
   42.0510    9.1200   42.8750 C   0  0  0  0  0  2  0  0  0  0  0  0
   42.8900    8.0490   43.3750 N   0  0  0  0  0  0  0  0  0  0  0  0
   42.6530    7.2660   44.4140 N   0  0  0  0  0  2  0  0  0  0  0  0
   43.6400    6.4000   44.5730 N   0  0  0  0  0  0  0  0  0  0  0  0
   44.5490    6.6250   43.6080 C   0  0  0  0  0  0  0  0  0  0  0  0
   44.0560    7.6430   42.8910 N   0  0  0  0  0  2  0  0  0  0  0  0
   45.7930    5.8850   43.4270 C   0  0  0  0  0  0  0  0  0  0  0  0
   46.9040    6.2060   44.1780 C   0  0  0  0  0  3  0  0  0  0  0  0
   48.0970    5.5000   44.0080 C   0  0  0  0  0  3  0  0  0  0  0  0
   48.2040    4.4730   43.0970 C   0  0  0  0  0  3  0  0  0  0  0  0
   47.0900    4.1490   42.3420 C   0  0  0  0  0  3  0  0  0  0  0  0
   45.9090    4.8560   42.5180 C   0  0  0  0  0  3  0  0  0  0  0  0
  1  2  1  0  0  0  0
  2  3  3  0  0  0  0
  4  5  1  0  0  0  0
  4  1  1  0  0  0  0
  5  7  1  0  0  0  0
  6  8  1  0  0  0  0
  6  5  2  0  0  0  0
  7 12  2  0  0  0  0
  8 10  2  0  0  0  0
  9 13  1  0  0  0  0
  9  6  1  0  0  0  0
 10 11  1  0  0  0  0
 10 12  1  0  0  0  0
 13  4  1  0  0  0  0
 14  9  2  0  0  0  0
 15 13  2  0  0  0  0
 16 14  1  0  0  0  0
 16 19  1  0  0  0  0
 17 16  1  0  0  0  0
 18 17  2  0  0  0  0
 20 17  1  0  0  0  0
 20 21  1  0  0  0  0
 21 22  1  0  0  0  0
 22 23  1  0  0  0  0
 24 23  2  0  0  0  0
 25 21  1  0  0  0  0
 25 24  1  0  0  0  0
 26 24  1  0  0  0  0
 26 27  1  0  0  0  0
 28 27  2  0  0  0  0
 29 28  1  0  0  0  0
 30 31  1  0  0  0  0
 30 29  2  0  0  0  0
 31 26  2  0  0  0  0
M  END
>  <Pose>
1

>  <Score>
-7.105

$$$$
