/Users/jonathanwahrer/Desktop/Msc/3_Semester/Drug_Design_Praktikum/waehrer_HTS_screening/HTS_experiment/out/docking_results/vina_output/2qfa/0485_docked.pdbqt
 OpenBabel03162219503D

 34 37  0  0  0  0  0  0  0  0999 V2000
   51.0390   -0.6170   42.9510 Br  0  0  0  0  0  0  0  0  0  0  0  0
   50.7470    0.9560   44.0180 C   0  0  0  0  0  0  0  0  0  0  0  0
   49.9400    1.9810   43.5800 C   0  0  0  0  0  3  0  0  0  0  0  0
   49.7000    3.1370   44.3150 C   0  0  0  0  0  0  0  0  0  0  0  0
   50.3120    3.2620   45.5650 C   0  0  0  0  0  0  0  0  0  0  0  0
   51.1210    2.2340   46.0040 C   0  0  0  0  0  3  0  0  0  0  0  0
   51.3480    1.0850   45.2520 C   0  0  0  0  0  3  0  0  0  0  0  0
   49.9450    4.5120   46.1670 N   0  0  0  0  0  0  0  0  0  0  0  0
   49.0800    5.1680   45.2490 C   0  0  0  0  0  0  0  0  0  0  0  0
   48.5530    6.2880   45.4260 O   0  0  0  0  0  0  0  0  0  0  0  0
   48.9080    4.3290   44.0790 C   0  0  0  0  0  0  0  0  0  0  0  0
   48.1990    4.5820   43.0370 N   0  0  0  0  0  0  0  0  0  0  0  0
   47.4640    5.7520   42.8810 N   0  0  0  0  0  0  0  0  0  0  0  0
   46.0640    5.7270   43.0420 C   0  0  0  0  0  0  0  0  0  0  0  0
   45.4420    4.6460   43.3310 O   0  0  0  0  0  0  0  0  0  0  0  0
   47.9500    6.6300   42.6490 H   0  0  0  0  0  0  0  0  0  0  0  0
   45.2030    6.9270   42.8960 C   0  0  0  0  0  2  0  0  0  0  0  0
   44.3850    7.0890   44.0540 O   0  0  0  0  0  0  0  0  0  0  0  0
   43.3630    8.0240   44.0510 C   0  0  0  0  0  0  0  0  0  0  0  0
   42.9960    8.6510   45.2230 C   0  0  0  0  0  0  0  0  0  0  0  0
   41.9680    9.5890   45.2130 C   0  0  0  0  0  3  0  0  0  0  0  0
   41.3110    9.8970   44.0370 C   0  0  0  0  0  3  0  0  0  0  0  0
   41.6850    9.2680   42.8870 C   0  0  0  0  0  3  0  0  0  0  0  0
   42.7080    8.3340   42.8980 C   0  0  0  0  0  3  0  0  0  0  0  0
   43.6280    8.3670   46.4070 O   0  0  0  0  0  0  0  0  0  0  0  0
   43.3860    9.1460   47.5510 C   0  0  0  0  0  1  0  0  0  0  0  0
   50.3960    4.9710   47.4700 C   0  0  0  0  0  2  0  0  0  0  0  0
   49.5220    5.8800   48.1200 N   0  0  0  0  0  0  0  0  0  0  0  0
   48.6600    5.3190   49.1030 C   0  0  0  0  0  2  0  0  0  0  0  0
   47.7040    6.3620   49.6890 C   0  0  0  0  0  2  0  0  0  0  0  0
   47.7710    7.5130   48.8350 N   0  0  0  0  0  0  0  0  0  0  0  0
   49.0440    8.1640   48.8690 C   0  0  0  0  0  2  0  0  0  0  0  0
   46.6470    8.3960   48.9570 C   0  0  0  0  0  1  0  0  0  0  0  0
   50.0980    7.1440   48.4770 C   0  0  0  0  0  2  0  0  0  0  0  0
  1  2  1  0  0  0  0
  2  7  1  0  0  0  0
  3  2  2  0  0  0  0
  3  4  1  0  0  0  0
  4  5  2  0  0  0  0
  5  6  1  0  0  0  0
  5  8  1  0  0  0  0
  7  6  2  0  0  0  0
  8 27  1  0  0  0  0
  9 10  2  0  0  0  0
  9  8  1  0  0  0  0
 11  4  1  0  0  0  0
 11  9  1  0  0  0  0
 12 11  2  0  0  0  0
 13 12  1  0  0  0  0
 13 14  1  0  0  0  0
 14 15  2  0  0  0  0
 16 13  1  0  0  0  0
 17 14  1  0  0  0  0
 17 18  1  0  0  0  0
 19 18  1  0  0  0  0
 19 20  1  0  0  0  0
 20 25  1  0  0  0  0
 21 20  2  0  0  0  0
 22 21  1  0  0  0  0
 23 24  1  0  0  0  0
 23 22  2  0  0  0  0
 24 19  2  0  0  0  0
 25 26  1  0  0  0  0
 27 28  1  0  0  0  0
 28 34  1  0  0  0  0
 28 29  1  0  0  0  0
 29 30  1  0  0  0  0
 31 32  1  0  0  0  0
 31 33  1  0  0  0  0
 31 30  1  0  0  0  0
 34 32  1  0  0  0  0
M  END
>  <Pose>
1

>  <Score>
-6.874

$$$$
