/Users/jonathanwahrer/Desktop/Msc/3_Semester/Drug_Design_Praktikum/waehrer_HTS_screening/HTS_experiment/out/docking_results/vina_output/2qfa/0500_docked.pdbqt
 OpenBabel03162219503D

 32 35  0  0  1  0  0  0  0  0999 V2000
   42.3590    8.0050   42.5900 Br  0  0  0  0  0  0  0  0  0  0  0  0
   41.9420    9.6210   43.5510 C   0  0  0  0  0  0  0  0  0  0  0  0
   42.2500    9.8150   44.8660 C   0  0  0  0  0  3  0  0  0  0  0  0
   41.9090   10.9690   45.5220 C   0  0  0  0  0  0  0  0  0  0  0  0
   41.2460   11.9250   44.8060 C   0  0  0  0  0  0  0  0  0  0  0  0
   40.9200   11.7520   43.4540 C   0  0  0  0  0  3  0  0  0  0  0  0
   41.2680   10.5850   42.8050 C   0  0  0  0  0  3  0  0  0  0  0  0
   40.9210   13.0390   45.6130 N   0  0  0  0  0  0  0  0  0  0  0  0
   41.3960   12.7770   46.8960 C   0  0  0  0  0  0  0  0  0  0  0  0
   41.2530   13.5640   47.8680 O   0  0  0  0  0  0  0  0  0  0  0  0
   42.0870   11.4350   46.9090 C   0  0  2  0  0  0  0  0  0  0  0  0
   43.4480   11.7210   47.3360 C   0  0  0  0  0  0  0  0  0  0  0  0
   43.9020   11.2550   48.5320 C   0  0  0  0  0  0  0  0  0  0  0  0
   45.1880   11.6870   48.6540 N   0  0  0  0  0  0  0  0  0  0  0  0
   45.5140   12.3820   47.5950 N   0  0  0  0  0  0  0  0  0  0  0  0
   44.4800   12.4500   46.7250 C   0  0  0  0  0  0  0  0  0  0  0  0
   43.1070   10.4850   49.4040 O   0  0  0  0  0  0  0  0  0  0  0  0
   41.8160   10.2160   48.9930 C   0  0  0  0  0  0  0  0  0  0  0  0
   41.3270   10.6380   47.8610 C   0  0  0  0  0  0  0  0  0  0  0  0
   39.9410   10.3050   47.5180 C   0  0  0  0  0  0  0  0  0  0  0  0
   38.8650   10.0280   47.2390 N   0  0  0  0  0  0  0  0  0  0  0  0
   40.2110   14.2580   45.1740 C   0  0  0  0  0  1  0  0  0  0  0  0
   46.4470   12.8480   47.3990 H   0  0  0  0  0  0  0  0  0  0  0  0
   40.9960    9.4250   49.8870 N   0  0  0  0  0  0  0  0  0  0  0  0
   41.3480    9.0090   50.7670 H   0  0  0  0  0  0  0  0  0  0  0  0
   40.0090    9.2760   49.6260 H   0  0  0  0  0  0  0  0  0  0  0  0
   44.5140   13.1430   45.4130 C   0  0  0  0  0  2  0  0  0  0  0  0
   45.2690   14.4130   45.4900 C   0  0  0  0  0  0  0  0  0  0  0  0
   45.2360   15.2230   46.4520 O   0  0  0  0  0  0  0  0  0  0  0  0
   46.0750   14.7350   44.4210 O   0  0  0  0  0  0  0  0  0  0  0  0
   47.4230   15.1180   44.4810 C   0  0  0  0  0  2  0  0  0  0  0  0
   47.5620   16.5620   44.0620 C   0  0  0  0  0  1  0  0  0  0  0  0
  1  2  1  0  0  0  0
  2  3  1  0  0  0  0
  3  4  2  0  0  0  0
  5  4  1  0  0  0  0
  5  8  1  0  0  0  0
  6  5  2  0  0  0  0
  7  6  1  0  0  0  0
  7  2  2  0  0  0  0
  8  9  1  0  0  0  0
  9 11  1  0  0  0  0
  9 10  2  0  0  0  0
 11  4  1  6  0  0  0
 11 12  1  0  0  0  0
 11 19  1  0  0  0  0
 12 13  1  0  0  0  0
 13 14  2  0  0  0  0
 13 17  1  0  0  0  0
 15 14  1  0  0  0  0
 16 12  2  0  0  0  0
 16 15  1  0  0  0  0
 18 17  1  0  0  0  0
 18 24  1  0  0  0  0
 19 18  2  0  0  0  0
 20 19  1  0  0  0  0
 21 20  3  0  0  0  0
 22  8  1  0  0  0  0
 23 15  1  0  0  0  0
 24 25  1  0  0  0  0
 26 24  1  0  0  0  0
 27 28  1  0  0  0  0
 27 16  1  0  0  0  0
 28 29  2  0  0  0  0
 30 31  1  0  0  0  0
 30 28  1  0  0  0  0
 32 31  1  0  0  0  0
M  END
>  <Pose>
1

>  <Score>
-6.675

$$$$
