MODEL 1
REMARK VINA RESULT:    -6.675      0.000      0.000
REMARK INTER + INTRA:          -9.103
REMARK INTER:                  -8.431
REMARK INTRA:                  -0.672
REMARK UNBOUND:                -0.672
REMARK  5 active torsions:
REMARK  status: ('A' for Active; 'I' for Inactive)
REMARK    1  A    between atoms: C_16  and  C_17 
REMARK    2  A    between atoms: C_17  and  C_18 
REMARK    3  A    between atoms: C_18  and  O_20 
REMARK    4  A    between atoms: O_20  and  C_21 
REMARK    5  A    between atoms: C_24  and  N_28 
ROOT
ATOM      1 Br   UNK d   1      42.359   8.005  42.590  0.00  0.00    -0.051 Br
ATOM      2  C   UNK d   1      41.942   9.621  43.551  0.00  0.00     0.011 A 
ATOM      3  C   UNK d   1      42.250   9.815  44.866  0.00  0.00     0.030 A 
ATOM      4  C   UNK d   1      41.909  10.969  45.522  0.00  0.00    -0.002 A 
ATOM      5  C   UNK d   1      41.246  11.925  44.806  0.00  0.00     0.045 A 
ATOM      6  C   UNK d   1      40.920  11.752  43.454  0.00  0.00     0.031 A 
ATOM      7  C   UNK d   1      41.268  10.585  42.805  0.00  0.00     0.021 A 
ATOM      8  N   UNK d   1      40.921  13.039  45.613  0.00  0.00    -0.320 N 
ATOM      9  C   UNK d   1      41.396  12.777  46.896  0.00  0.00     0.247 A 
ATOM     10  O   UNK d   1      41.253  13.564  47.868  0.00  0.00    -0.271 OA
ATOM     11  C   UNK d   1      42.087  11.435  46.909  0.00  0.00     0.145 A 
ATOM     12  C   UNK d   1      43.448  11.721  47.336  0.00  0.00     0.049 A 
ATOM     13  C   UNK d   1      43.902  11.255  48.532  0.00  0.00     0.200 A 
ATOM     14  N   UNK d   1      45.188  11.687  48.654  0.00  0.00    -0.148 NA
ATOM     15  N   UNK d   1      45.514  12.382  47.595  0.00  0.00    -0.279 N 
ATOM     16  C   UNK d   1      44.480  12.450  46.725  0.00  0.00     0.050 A 
ATOM     17  O   UNK d   1      43.107  10.485  49.404  0.00  0.00    -0.272 OA
ATOM     18  C   UNK d   1      41.816  10.216  48.993  0.00  0.00     0.162 A 
ATOM     19  C   UNK d   1      41.327  10.638  47.861  0.00  0.00     0.100 A 
ATOM     20  C   UNK d   1      39.941  10.305  47.518  0.00  0.00     0.101 C 
ATOM     21  N   UNK d   1      38.865  10.028  47.239  0.00  0.00    -0.191 NA
ATOM     22  C   UNK d   1      40.211  14.258  45.174  0.00  0.00     0.159 C 
ATOM     23  H   UNK d   1      46.447  12.848  47.399  0.00  0.00     0.189 HD
ENDROOT
BRANCH  18  24
ATOM     24  N   UNK d   1      40.996   9.425  49.887  0.00  0.00    -0.379 N 
ATOM     25  H   UNK d   1      41.348   9.009  50.767  0.00  0.00     0.158 HD
ATOM     26  H   UNK d   1      40.009   9.276  49.626  0.00  0.00     0.158 HD
ENDBRANCH  18  24
BRANCH  16  27
ATOM     27  C   UNK d   1      44.514  13.143  45.413  0.00  0.00     0.170 C 
BRANCH  27  28
ATOM     28  C   UNK d   1      45.269  14.413  45.490  0.00  0.00     0.264 C 
ATOM     29  O   UNK d   1      45.236  15.223  46.452  0.00  0.00    -0.265 OA
BRANCH  28  30
ATOM     30  O   UNK d   1      46.075  14.735  44.421  0.00  0.00    -0.322 OA
BRANCH  30  31
ATOM     31  C   UNK d   1      47.423  15.118  44.481  0.00  0.00     0.174 C 
ATOM     32  C   UNK d   1      47.562  16.562  44.062  0.00  0.00     0.034 C 
ENDBRANCH  30  31
ENDBRANCH  28  30
ENDBRANCH  27  28
ENDBRANCH  16  27
TORSDOF 5
ENDMDL
