MODEL 1
REMARK VINA RESULT:    -6.542      0.000      0.000
REMARK INTER + INTRA:          -6.733
REMARK INTER:                  -6.733
REMARK INTRA:                   0.000
REMARK UNBOUND:                 0.000
REMARK  1 active torsions:
REMARK  status: ('A' for Active; 'I' for Inactive)
REMARK    1  A    between atoms: C_19  and  N_23 
ROOT
ATOM      1 Br   UNK d   1      46.351  14.789  44.501  0.00  0.00    -0.051 Br
ATOM      2  C   UNK d   1      44.756  14.211  45.415  0.00  0.00     0.011 A 
ATOM      3  C   UNK d   1      44.184  12.997  45.139  0.00  0.00     0.030 A 
ATOM      4  C   UNK d   1      43.042  12.604  45.806  0.00  0.00    -0.002 A 
ATOM      5  C   UNK d   1      42.521  13.464  46.734  0.00  0.00     0.045 A 
ATOM      6  C   UNK d   1      43.111  14.712  47.018  0.00  0.00     0.031 A 
ATOM      7  C   UNK d   1      44.245  15.086  46.346  0.00  0.00     0.021 A 
ATOM      8  N   UNK d   1      41.350  12.921  47.335  0.00  0.00    -0.320 N 
ATOM      9  C   UNK d   1      41.116  11.664  46.764  0.00  0.00     0.247 A 
ATOM     10  O   UNK d   1      40.153  10.893  47.063  0.00  0.00    -0.271 OA
ATOM     11  C   UNK d   1      42.193  11.389  45.748  0.00  0.00     0.145 A 
ATOM     12  C   UNK d   1      42.879  10.188  46.208  0.00  0.00     0.049 A 
ATOM     13  C   UNK d   1      42.864   9.042  45.476  0.00  0.00     0.200 A 
ATOM     14  N   UNK d   1      43.589   8.121  46.176  0.00  0.00    -0.148 NA
ATOM     15  N   UNK d   1      44.041   8.652  47.293  0.00  0.00    -0.280 N 
ATOM     16  C   UNK d   1      43.630   9.917  47.356  0.00  0.00     0.036 A 
ATOM     17  C   UNK d   1      43.877  10.941  48.419  0.00  0.00     0.070 C 
ATOM     18  O   UNK d   1      42.200   8.936  44.248  0.00  0.00    -0.272 OA
ATOM     19  C   UNK d   1      41.546  10.084  43.813  0.00  0.00     0.162 A 
ATOM     20  C   UNK d   1      41.525  11.213  44.472  0.00  0.00     0.100 A 
ATOM     21  C   UNK d   1      40.782  12.327  43.859  0.00  0.00     0.101 C 
ATOM     22  N   UNK d   1      40.198  13.224  43.391  0.00  0.00    -0.191 NA
ATOM     23  C   UNK d   1      40.522  13.557  48.371  0.00  0.00     0.159 C 
ATOM     24  H   UNK d   1      44.628   8.202  48.042  0.00  0.00     0.189 HD
ENDROOT
BRANCH  19  25
ATOM     25  N   UNK d   1      40.838  10.035  42.543  0.00  0.00    -0.379 N 
ATOM     26  H   UNK d   1      39.819   9.842  42.621  0.00  0.00     0.158 HD
ATOM     27  H   UNK d   1      41.291  10.174  41.641  0.00  0.00     0.158 HD
ENDBRANCH  19  25
TORSDOF 1
ENDMDL
