MODEL 1
REMARK VINA RESULT:    -7.000      0.000      0.000
REMARK INTER + INTRA:          -7.204
REMARK INTER:                  -7.204
REMARK INTRA:                   0.000
REMARK UNBOUND:                 0.000
REMARK  1 active torsions:
REMARK  status: ('A' for Active; 'I' for Inactive)
REMARK    1  A    between atoms: C_15  and  N_19 
ROOT
ATOM      1 Br   UNK d   1      44.939  14.612  46.872  0.00  0.00    -0.051 Br
ATOM      2  C   UNK d   1      43.153  14.101  46.473  0.00  0.00     0.011 A 
ATOM      3  C   UNK d   1      42.764  12.792  46.322  0.00  0.00     0.030 A 
ATOM      4  C   UNK d   1      41.432  12.499  46.029  0.00  0.00    -0.002 A 
ATOM      5  C   UNK d   1      40.479  13.450  45.882  0.00  0.00     0.045 A 
ATOM      6  C   UNK d   1      40.875  14.781  46.037  0.00  0.00     0.031 A 
ATOM      7  C   UNK d   1      42.185  15.089  46.326  0.00  0.00     0.021 A 
ATOM      8  N   UNK d   1      39.211  12.895  45.590  0.00  0.00    -0.320 N 
ATOM      9  C   UNK d   1      39.361  11.495  45.545  0.00  0.00     0.247 A 
ATOM     10  O   UNK d   1      38.448  10.656  45.310  0.00  0.00    -0.271 OA
ATOM     11  C   UNK d   1      40.786  11.163  45.823  0.00  0.00     0.146 A 
ATOM     12  C   UNK d   1      41.399  10.488  44.652  0.00  0.00     0.071 A 
ATOM     13  C   UNK d   1      42.012   9.363  44.743  0.00  0.00     0.060 A 
ATOM     14  N   UNK d   1      42.162   8.649  46.002  0.00  0.00    -0.342 N 
ATOM     15  C   UNK d   1      41.584   9.281  47.125  0.00  0.00     0.118 A 
ATOM     16  C   UNK d   1      40.956  10.423  47.054  0.00  0.00     0.093 A 
ATOM     17  C   UNK d   1      40.410  10.953  48.298  0.00  0.00     0.101 C 
ATOM     18  N   UNK d   1      39.969  11.391  49.275  0.00  0.00    -0.191 NA
ATOM     19  C   UNK d   1      42.503   8.971  43.386  0.00  0.00     0.106 A 
ATOM     20  O   UNK d   1      42.100   9.987  42.544  0.00  0.00    -0.301 OA
ATOM     21  C   UNK d   1      41.423  10.952  43.226  0.00  0.00     0.294 A 
ATOM     22  O   UNK d   1      40.899  12.030  42.813  0.00  0.00    -0.259 OA
ATOM     23  C   UNK d   1      41.945   7.613  43.006  0.00  0.00     0.053 C 
ATOM     24  C   UNK d   1      44.019   8.912  43.360  0.00  0.00     0.053 C 
ATOM     25  C   UNK d   1      37.946  13.611  45.365  0.00  0.00     0.159 C 
ATOM     26  H   UNK d   1      42.666   7.746  46.019  0.00  0.00     0.167 HD
ENDROOT
BRANCH  15  27
ATOM     27  N   UNK d   1      41.703   8.613  48.411  0.00  0.00    -0.384 N 
ATOM     28  H   UNK d   1      41.395   7.620  48.455  0.00  0.00     0.157 HD
ATOM     29  H   UNK d   1      42.072   9.100  49.239  0.00  0.00     0.157 HD
ENDBRANCH  15  27
TORSDOF 1
ENDMDL
