/Users/jonathanwahrer/Desktop/Msc/3_Semester/Drug_Design_Praktikum/waehrer_HTS_screening/HTS_experiment/out/docking_results/vina_output/2qfa/0505_docked.pdbqt
 OpenBabel03162219513D

 30 33  0  0  1  0  0  0  0  0999 V2000
   39.6490    9.4270   49.4750 Br  0  0  0  0  0  0  0  0  0  0  0  0
   41.1260   10.3410   48.6980 C   0  0  0  0  0  0  0  0  0  0  0  0
   41.1990   10.4860   47.3300 C   0  0  0  0  0  3  0  0  0  0  0  0
   42.2730   11.1540   46.7340 C   0  0  0  0  0  0  0  0  0  0  0  0
   43.2370   11.6520   47.5500 C   0  0  0  0  0  0  0  0  0  0  0  0
   43.1610   11.5020   48.9500 C   0  0  0  0  0  3  0  0  0  0  0  0
   42.1000   10.8440   49.5290 C   0  0  0  0  0  3  0  0  0  0  0  0
   44.2300   12.2870   46.7560 N   0  0  0  0  0  0  0  0  0  0  0  0
   43.8860   12.1880   45.3960 C   0  0  0  0  0  0  0  0  0  0  0  0
   44.5230   12.6320   44.4080 O   0  0  0  0  0  0  0  0  0  0  0  0
   42.5930   11.4460   45.3050 C   0  0  1  0  0  0  0  0  0  0  0  0
   42.7530   10.2080   44.5330 C   0  0  0  0  0  0  0  0  0  0  0  0
   41.9730    9.9340   43.4570 C   0  0  0  0  0  0  0  0  0  0  0  0
   40.9880   10.8400   43.0530 O   0  0  0  0  0  0  0  0  0  0  0  0
   40.7980   12.0200   43.7440 C   0  0  0  0  0  0  0  0  0  0  0  0
   41.5310   12.3060   44.7780 C   0  0  0  0  0  0  0  0  0  0  0  0
   41.2590   13.5840   45.4530 C   0  0  0  0  0  0  0  0  0  0  0  0
   41.0450   14.5690   45.9820 N   0  0  0  0  0  0  0  0  0  0  0  0
   42.1600    8.7420   42.7530 C   0  0  0  0  0  0  0  0  0  0  0  0
   41.4370    8.5020   41.7640 O   0  0  0  0  0  0  0  0  0  0  0  0
   43.1340    7.8610   43.1620 C   0  0  0  0  0  3  0  0  0  0  0  0
   43.8950    8.1920   44.2630 C   0  0  0  0  0  0  0  0  0  0  0  0
   43.6770    9.3070   44.8740 O   0  0  0  0  0  0  0  0  0  0  0  0
   45.4250   12.9370   47.3290 C   0  0  0  0  0  1  0  0  0  0  0  0
   39.7670   12.9010   43.2700 N   0  0  0  0  0  0  0  0  0  0  0  0
   39.9880   13.8870   43.1400 H   0  0  0  0  0  0  0  0  0  0  0  0
   38.8450   12.5100   43.0790 H   0  0  0  0  0  0  0  0  0  0  0  0
   44.9730    7.2380   44.7340 C   0  0  0  0  0  2  0  0  0  0  0  0
   44.5940    5.9330   44.4230 O   0  0  0  0  0  0  0  0  0  0  0  0
   45.2080    5.5730   43.7150 H   0  0  0  0  0  0  0  0  0  0  0  0
  2  1  1  0  0  0  0
  2  7  1  0  0  0  0
  3  2  2  0  0  0  0
  4  3  1  0  0  0  0
  4  5  2  0  0  0  0
  5  6  1  0  0  0  0
  6  7  2  0  0  0  0
  8 24  1  0  0  0  0
  8  5  1  0  0  0  0
  9  8  1  0  0  0  0
 10  9  2  0  0  0  0
 11 12  1  6  0  0  0
 11  9  1  0  0  0  0
 11  4  1  0  0  0  0
 12 23  1  0  0  0  0
 13 12  2  0  0  0  0
 14 13  1  0  0  0  0
 14 15  1  0  0  0  0
 15 16  2  0  0  0  0
 16 11  1  0  0  0  0
 16 17  1  0  0  0  0
 17 18  3  0  0  0  0
 19 21  1  0  0  0  0
 19 13  1  0  0  0  0
 20 19  2  0  0  0  0
 21 22  2  0  0  0  0
 22 28  1  0  0  0  0
 22 23  1  0  0  0  0
 25 15  1  0  0  0  0
 26 25  1  0  0  0  0
 27 25  1  0  0  0  0
 29 28  1  0  0  0  0
 30 29  1  0  0  0  0
M  END
>  <Pose>
1

>  <Score>
-6.725

$$$$
