MODEL 1
REMARK VINA RESULT:    -6.725      0.000      0.000
REMARK INTER + INTRA:          -7.606
REMARK INTER:                  -7.512
REMARK INTRA:                  -0.094
REMARK UNBOUND:                -0.094
REMARK  3 active torsions:
REMARK  status: ('A' for Active; 'I' for Inactive)
REMARK    1  A    between atoms: C_15  and  N_19 
REMARK    2  A    between atoms: C_23  and  C_25 
REMARK    3  A    between atoms: C_25  and  O_26 
ROOT
ATOM      1 Br   UNK d   1      39.649   9.427  49.475  0.00  0.00    -0.051 Br
ATOM      2  C   UNK d   1      41.126  10.341  48.698  0.00  0.00     0.011 A 
ATOM      3  C   UNK d   1      41.199  10.486  47.330  0.00  0.00     0.030 A 
ATOM      4  C   UNK d   1      42.273  11.154  46.734  0.00  0.00     0.000 A 
ATOM      5  C   UNK d   1      43.237  11.652  47.550  0.00  0.00     0.045 A 
ATOM      6  C   UNK d   1      43.161  11.502  48.950  0.00  0.00     0.031 A 
ATOM      7  C   UNK d   1      42.100  10.844  49.529  0.00  0.00     0.021 A 
ATOM      8  N   UNK d   1      44.230  12.287  46.756  0.00  0.00    -0.320 N 
ATOM      9  C   UNK d   1      43.886  12.188  45.396  0.00  0.00     0.249 A 
ATOM     10  O   UNK d   1      44.523  12.632  44.408  0.00  0.00    -0.271 OA
ATOM     11  C   UNK d   1      42.593  11.446  45.305  0.00  0.00     0.163 A 
ATOM     12  C   UNK d   1      42.753  10.208  44.533  0.00  0.00     0.119 A 
ATOM     13  C   UNK d   1      41.973   9.934  43.457  0.00  0.00     0.159 A 
ATOM     14  O   UNK d   1      40.988  10.840  43.053  0.00  0.00    -0.286 OA
ATOM     15  C   UNK d   1      40.798  12.020  43.744  0.00  0.00     0.161 A 
ATOM     16  C   UNK d   1      41.531  12.306  44.778  0.00  0.00     0.102 A 
ATOM     17  C   UNK d   1      41.259  13.584  45.453  0.00  0.00     0.101 C 
ATOM     18  N   UNK d   1      41.045  14.569  45.982  0.00  0.00    -0.191 NA
ATOM     19  C   UNK d   1      42.160   8.742  42.753  0.00  0.00     0.210 A 
ATOM     20  O   UNK d   1      41.437   8.502  41.764  0.00  0.00    -0.285 OA
ATOM     21  C   UNK d   1      43.134   7.861  43.162  0.00  0.00     0.092 A 
ATOM     22  C   UNK d   1      43.895   8.192  44.263  0.00  0.00     0.080 A 
ATOM     23  O   UNK d   1      43.677   9.307  44.874  0.00  0.00    -0.312 OA
ATOM     24  C   UNK d   1      45.425  12.937  47.329  0.00  0.00     0.159 C 
ENDROOT
BRANCH  15  25
ATOM     25  N   UNK d   1      39.767  12.901  43.270  0.00  0.00    -0.379 N 
ATOM     26  H   UNK d   1      39.988  13.887  43.140  0.00  0.00     0.158 HD
ATOM     27  H   UNK d   1      38.845  12.510  43.079  0.00  0.00     0.158 HD
ENDBRANCH  15  25
BRANCH  22  28
ATOM     28  C   UNK d   1      44.973   7.238  44.734  0.00  0.00     0.229 C 
BRANCH  28  29
ATOM     29  O   UNK d   1      44.594   5.933  44.423  0.00  0.00    -0.394 OA
ATOM     30  H   UNK d   1      45.208   5.573  43.715  0.00  0.00     0.209 HD
ENDBRANCH  28  29
ENDBRANCH  22  28
TORSDOF 3
ENDMDL
