/Users/jonathanwahrer/Desktop/Msc/3_Semester/Drug_Design_Praktikum/waehrer_HTS_screening/HTS_experiment/out/docking_results/vina_output/2qfa/0513_docked.pdbqt
 OpenBabel03162219513D

 33 36  0  0  0  0  0  0  0  0999 V2000
   45.5050    7.2560   44.7180 N   0  0  0  0  0  0  0  0  0  0  0  0
   44.3560    6.4770   44.4140 C   0  0  0  0  0  0  0  0  0  0  0  0
   44.5350    5.4300   43.7730 O   0  0  0  0  0  0  0  0  0  0  0  0
   45.3500    8.1430   45.2450 H   0  0  0  0  0  0  0  0  0  0  0  0
   46.7900    6.9040   44.3510 N   0  0  0  0  0  0  0  0  0  0  0  0
   47.6080    7.4780   44.6930 H   0  0  0  0  0  0  0  0  0  0  0  0
   47.1070    5.8090   43.5360 C   0  0  0  0  0  3  0  0  0  0  0  0
   48.0730    4.9450   43.7630 C   0  0  0  0  0  0  0  0  0  0  0  0
   49.0300    4.8980   44.8730 C   0  0  0  0  0  0  0  0  0  0  0  0
   48.4190    3.7920   42.9170 C   0  0  0  0  0  0  0  0  0  0  0  0
   49.2160    5.6970   45.9800 C   0  0  0  0  0  3  0  0  0  0  0  0
   49.8800    3.8260   44.7310 C   0  0  0  0  0  0  0  0  0  0  0  0
   50.2060    5.4610   46.9340 C   0  0  0  0  0  0  0  0  0  0  0  0
   50.3930    6.6180   48.4470 Br  0  0  0  0  0  0  0  0  0  0  0  0
   51.0340    4.3830   46.7560 C   0  0  0  0  0  3  0  0  0  0  0  0
   50.8870    3.5590   45.6700 C   0  0  0  0  0  3  0  0  0  0  0  0
   49.5140    3.1450   43.5390 N   0  0  0  0  0  0  0  0  0  0  0  0
   49.9790    2.2860   43.1610 H   0  0  0  0  0  0  0  0  0  0  0  0
   47.8260    3.4830   41.8550 O   0  0  0  0  0  0  0  0  0  0  0  0
   42.9870    6.8560   44.8280 C   0  0  0  0  0  2  0  0  0  0  0  0
   42.5300    7.9920   44.1740 N   0  0  0  0  0  0  0  0  0  0  0  0
   42.2290    9.2140   44.6100 C   0  0  0  0  0  0  0  0  0  0  0  0
   41.7530    9.9670   43.5450 C   0  0  0  0  0  0  0  0  0  0  0  0
   42.3430    9.7360   45.8490 N   0  0  0  0  0  0  0  0  0  0  0  0
   41.7780    9.1650   42.4640 N   0  0  0  0  0  0  0  0  0  0  0  0
   41.3800   11.2820   43.7410 C   0  0  0  0  0  0  0  0  0  0  0  0
   42.2400    7.9930   42.8340 C   0  0  0  0  0  3  0  0  0  0  0  0
   40.9500   11.9380   42.7570 O   0  0  0  0  0  0  0  0  0  0  0  0
   41.4970   11.7750   44.9640 N   0  0  0  0  0  0  0  0  0  0  0  0
   41.9620   11.0380   45.9880 C   0  0  0  0  0  0  0  0  0  0  0  0
   41.1100   13.1710   45.2280 C   0  0  0  0  0  1  0  0  0  0  0  0
   42.0570   11.5440   47.1310 O   0  0  0  0  0  0  0  0  0  0  0  0
   42.8690    8.9870   46.9540 C   0  0  0  0  0  1  0  0  0  0  0  0
  1  4  1  0  0  0  0
  2  1  1  0  0  0  0
  2 20  1  0  0  0  0
  3  2  2  0  0  0  0
  5  6  1  0  0  0  0
  5  1  1  0  0  0  0
  7  8  2  0  0  0  0
  7  5  1  0  0  0  0
  8  9  1  0  0  0  0
  9 11  1  0  0  0  0
 10 17  1  0  0  0  0
 10  8  1  0  0  0  0
 11 13  2  0  0  0  0
 12  9  2  0  0  0  0
 12 16  1  0  0  0  0
 13 14  1  0  0  0  0
 15 13  1  0  0  0  0
 16 15  2  0  0  0  0
 17 12  1  0  0  0  0
 18 17  1  0  0  0  0
 19 10  2  0  0  0  0
 21 22  1  0  0  0  0
 21 20  1  0  0  0  0
 22 24  1  0  0  0  0
 23 26  1  0  0  0  0
 23 22  2  0  0  0  0
 24 30  1  0  0  0  0
 24 33  1  0  0  0  0
 25 27  2  0  0  0  0
 25 23  1  0  0  0  0
 26 29  1  0  0  0  0
 27 21  1  0  0  0  0
 28 26  2  0  0  0  0
 29 31  1  0  0  0  0
 29 30  1  0  0  0  0
 30 32  2  0  0  0  0
M  END
>  <Pose>
1

>  <Score>
-8.699

$$$$
