MODEL 1
REMARK VINA RESULT:    -8.699      0.000      0.000
REMARK INTER + INTRA:         -10.639
REMARK INTER:                 -10.733
REMARK INTRA:                   0.094
REMARK UNBOUND:                 0.094
REMARK  4 active torsions:
REMARK  status: ('A' for Active; 'I' for Inactive)
REMARK    1  A    between atoms: C_12  and  N_13 
REMARK    2  A    between atoms: N_13  and  N_14 
REMARK       I    between atoms: N_14  and  C_15 
REMARK    3  A    between atoms: C_15  and  C_17 
REMARK    4  A    between atoms: C_17  and  N_18 
ROOT
ATOM      1  N   UNK d   1      45.505   7.256  44.718  0.00  0.00    -0.269 N 
ATOM      2  C   UNK d   1      44.356   6.477  44.414  0.00  0.00     0.254 C 
ATOM      3  O   UNK d   1      44.535   5.430  43.773  0.00  0.00    -0.270 OA
ATOM      4  H   UNK d   1      45.350   8.143  45.245  0.00  0.00     0.190 HD
ENDROOT
BRANCH   1   5
ATOM      5  N   UNK d   1      46.790   6.904  44.351  0.00  0.00    -0.308 N 
ATOM      6  H   UNK d   1      47.608   7.478  44.693  0.00  0.00     0.186 HD
BRANCH   5   7
ATOM      7  C   UNK d   1      47.107   5.809  43.536  0.00  0.00     0.125 C 
ATOM      8  C   UNK d   1      48.073   4.945  43.763  0.00  0.00     0.061 A 
ATOM      9  C   UNK d   1      49.030   4.898  44.873  0.00  0.00     0.009 A 
ATOM     10  C   UNK d   1      48.419   3.792  42.917  0.00  0.00     0.258 A 
ATOM     11  C   UNK d   1      49.216   5.697  45.980  0.00  0.00     0.034 A 
ATOM     12  C   UNK d   1      49.880   3.826  44.731  0.00  0.00     0.046 A 
ATOM     13  C   UNK d   1      50.206   5.461  46.934  0.00  0.00     0.011 A 
ATOM     14 Br   UNK d   1      50.393   6.618  48.447  0.00  0.00    -0.051 Br
ATOM     15  C   UNK d   1      51.034   4.383  46.756  0.00  0.00     0.021 A 
ATOM     16  C   UNK d   1      50.887   3.559  45.670  0.00  0.00     0.032 A 
ATOM     17  N   UNK d   1      49.514   3.145  43.539  0.00  0.00    -0.322 N 
ATOM     18  H   UNK d   1      49.979   2.286  43.161  0.00  0.00     0.169 HD
ATOM     19  O   UNK d   1      47.826   3.483  41.855  0.00  0.00    -0.267 OA
ENDBRANCH   5   7
ENDBRANCH   1   5
BRANCH   2  20
ATOM     20  C   UNK d   1      42.987   6.856  44.828  0.00  0.00     0.236 C 
BRANCH  20  21
ATOM     21  N   UNK d   1      42.530   7.992  44.174  0.00  0.00    -0.316 N 
ATOM     22  C   UNK d   1      42.229   9.214  44.610  0.00  0.00     0.149 A 
ATOM     23  C   UNK d   1      41.753   9.967  43.545  0.00  0.00     0.170 A 
ATOM     24  N   UNK d   1      42.343   9.736  45.849  0.00  0.00    -0.287 N 
ATOM     25  N   UNK d   1      41.778   9.165  42.464  0.00  0.00    -0.234 NA
ATOM     26  C   UNK d   1      41.380  11.282  43.741  0.00  0.00     0.283 A 
ATOM     27  C   UNK d   1      42.240   7.993  42.834  0.00  0.00     0.212 A 
ATOM     28  O   UNK d   1      40.950  11.938  42.757  0.00  0.00    -0.265 OA
ATOM     29  N   UNK d   1      41.497  11.775  44.964  0.00  0.00    -0.269 N 
ATOM     30  C   UNK d   1      41.962  11.038  45.988  0.00  0.00     0.332 A 
ATOM     31  C   UNK d   1      41.110  13.171  45.228  0.00  0.00     0.164 C 
ATOM     32  O   UNK d   1      42.057  11.544  47.131  0.00  0.00    -0.246 OA
ATOM     33  C   UNK d   1      42.869   8.987  46.954  0.00  0.00     0.163 C 
ENDBRANCH  20  21
ENDBRANCH   2  20
TORSDOF 4
ENDMDL
