MODEL 1
REMARK VINA RESULT:    -8.615      0.000      0.000
REMARK INTER + INTRA:         -11.102
REMARK INTER:                 -10.630
REMARK INTRA:                  -0.472
REMARK UNBOUND:                -0.472
REMARK  4 active torsions:
REMARK  status: ('A' for Active; 'I' for Inactive)
REMARK    1  A    between atoms: N_12  and  N_13 
REMARK       I    between atoms: N_13  and  C_14 
REMARK    2  A    between atoms: C_14  and  C_16 
REMARK    3  A    between atoms: C_16  and  N_17 
REMARK       I    between atoms: N_17  and  C_18 
REMARK    4  A    between atoms: C_18  and  C_20 
ROOT
ATOM      1  N   UNK d   1      44.215   9.014  43.254  0.00  0.00    -0.245 N 
ATOM      2  C   UNK d   1      44.200   7.785  43.939  0.00  0.00     0.255 C 
ATOM      3  O   UNK d   1      43.937   7.796  45.194  0.00  0.00    -0.270 OA
ATOM      4  H   UNK d   1      44.442   9.023  42.222  0.00  0.00     0.192 HD
ENDROOT
BRANCH   2   5
ATOM      5  C   UNK d   1      44.444   6.451  43.383  0.00  0.00     0.227 C 
BRANCH   5   6
ATOM      6  N   UNK d   1      45.626   5.778  43.842  0.00  0.00    -0.348 N 
ATOM      7  C   UNK d   1      46.550   5.188  42.933  0.00  0.00     0.252 C 
ATOM      8  O   UNK d   1      46.249   5.296  41.681  0.00  0.00    -0.268 OA
ATOM      9  H   UNK d   1      45.847   5.677  44.844  0.00  0.00     0.163 HD
BRANCH   7  10
ATOM     10  C   UNK d   1      47.755   4.497  43.275  0.00  0.00     0.034 A 
ATOM     11  C   UNK d   1      48.344   3.488  42.527  0.00  0.00     0.056 A 
ATOM     12  C   UNK d   1      49.492   2.880  42.904  0.00  0.00     0.106 A 
ATOM     13  C   UNK d   1      50.141   3.239  44.068  0.00  0.00     0.105 A 
ATOM     14  O   UNK d   1      50.322   1.838  42.344  0.00  0.00    -0.323 OA
ATOM     15  C   UNK d   1      49.597   4.221  44.836  0.00  0.00     0.041 A 
ATOM     16  O   UNK d   1      51.297   2.452  44.195  0.00  0.00    -0.323 OA
ATOM     17  C   UNK d   1      48.410   4.865  44.460  0.00  0.00     0.020 A 
ATOM     18  C   UNK d   1      51.662   2.228  42.812  0.00  0.00     0.352 C 
ENDBRANCH   7  10
ENDBRANCH   5   6
ENDBRANCH   2   5
BRANCH   1  19
ATOM     19  N   UNK d   1      43.945  10.164  43.906  0.00  0.00    -0.166 NA
ATOM     20  C   UNK d   1      43.053  10.906  44.175  0.00  0.00     0.157 A 
ATOM     21  C   UNK d   1      43.015  12.160  44.938  0.00  0.00     0.028 A 
ATOM     22  C   UNK d   1      41.658  10.613  43.732  0.00  0.00     0.277 A 
ATOM     23  C   UNK d   1      44.024  12.864  45.558  0.00  0.00     0.035 A 
ATOM     24  C   UNK d   1      41.723  12.580  44.949  0.00  0.00     0.048 A 
ATOM     25  C   UNK d   1      43.776  14.033  46.220  0.00  0.00     0.011 A 
ATOM     26 Br   UNK d   1      45.155  15.018  47.075  0.00  0.00    -0.051 Br
ATOM     27  C   UNK d   1      42.461  14.481  46.243  0.00  0.00     0.021 A 
ATOM     28  C   UNK d   1      41.459  13.776  45.625  0.00  0.00     0.032 A 
ATOM     29  N   UNK d   1      40.877  11.695  44.248  0.00  0.00    -0.321 N 
ATOM     30  H   UNK d   1      39.843  11.780  44.100  0.00  0.00     0.169 HD
ATOM     31  O   UNK d   1      41.333   9.628  43.066  0.00  0.00    -0.266 OA
ENDBRANCH   1  19
TORSDOF 4
ENDMDL
