MODEL 1
REMARK VINA RESULT:    -7.659      0.000      0.000
REMARK INTER + INTRA:          -8.957
REMARK INTER:                  -8.554
REMARK INTRA:                  -0.402
REMARK UNBOUND:                -0.402
REMARK  2 active torsions:
REMARK  status: ('A' for Active; 'I' for Inactive)
REMARK    1  A    between atoms: N_18  and  C_21 
REMARK    2  A    between atoms: C_21  and  C_22 
ROOT
ATOM      1 Br   UNK d   1      38.765  11.098  51.184  0.00  0.00    -0.051 Br
ATOM      2  C   UNK d   1      38.734  10.954  49.282  0.00  0.00     0.011 A 
ATOM      3  C   UNK d   1      39.857  11.210  48.503  0.00  0.00     0.031 A 
ATOM      4  C   UNK d   1      39.827  11.105  47.139  0.00  0.00     0.019 A 
ATOM      5  C   UNK d   1      38.625  10.730  46.557  0.00  0.00     0.044 A 
ATOM      6  C   UNK d   1      37.508  10.476  47.323  0.00  0.00     0.031 A 
ATOM      7  C   UNK d   1      37.549  10.585  48.693  0.00  0.00     0.021 A 
ATOM      8  N   UNK d   1      38.767  10.664  45.135  0.00  0.00    -0.324 N 
ATOM      9  C   UNK d   1      40.094  11.005  44.797  0.00  0.00     0.267 A 
ATOM     10  O   UNK d   1      40.534  11.035  43.639  0.00  0.00    -0.270 OA
ATOM     11  C   UNK d   1      40.797  11.299  46.064  0.00  0.00     0.281 A 
ATOM     12  N   UNK d   1      41.351  12.615  45.946  0.00  0.00     0.118 N 
ATOM     13  C   UNK d   1      42.512  12.434  45.076  0.00  0.00     0.239 C 
ATOM     14  C   UNK d   1      43.046  11.070  45.366  0.00  0.00     0.128 C 
ATOM     15  C   UNK d   1      42.026  10.446  46.254  0.00  0.00     0.147 C 
ATOM     16  C   UNK d   1      41.874   9.083  45.754  0.00  0.00     0.235 C 
ATOM     17  O   UNK d   1      41.222   8.163  46.296  0.00  0.00    -0.272 OA
ATOM     18  N   UNK d   1      42.581   8.948  44.546  0.00  0.00    -0.285 N 
ATOM     19  C   UNK d   1      43.122  10.214  44.139  0.00  0.00     0.233 C 
ATOM     20  O   UNK d   1      43.565  10.561  43.016  0.00  0.00    -0.272 OA
ATOM     21  C   UNK d   1      43.535  13.456  45.548  0.00  0.00     0.038 C 
ATOM     22  C   UNK d   1      42.872  14.222  46.674  0.00  0.00     0.032 C 
ATOM     23  C   UNK d   1      41.881  13.163  47.177  0.00  0.00     0.275 C 
ATOM     24  H   UNK d   1      37.987  10.401  44.464  0.00  0.00     0.169 HD
ENDROOT
BRANCH  18  25
ATOM     25  C   UNK d   1      42.756   7.739  43.805  0.00  0.00     0.166 C 
BRANCH  25  26
ATOM     26  C   UNK d   1      44.138   7.196  43.792  0.00  0.00     0.140 C 
ATOM     27  O   UNK d   1      44.830   7.446  42.613  0.00  0.00    -0.384 OA
ATOM     28  C   UNK d   1      45.969   6.661  42.728  0.00  0.00     0.168 C 
ATOM     29  C   UNK d   1      45.590   5.386  43.414  0.00  0.00     0.029 C 
ATOM     30  C   UNK d   1      44.260   5.738  44.079  0.00  0.00     0.035 C 
ENDBRANCH  25  26
ENDBRANCH  18  25
TORSDOF 2
ENDMDL
