MODEL 1
REMARK VINA RESULT:    -6.755      0.000      0.000
REMARK INTER + INTRA:          -6.952
REMARK INTER:                  -6.952
REMARK INTRA:                   0.000
REMARK UNBOUND:                 0.000
REMARK  1 active torsions:
REMARK  status: ('A' for Active; 'I' for Inactive)
REMARK    1  A    between atoms: C_15  and  N_19 
ROOT
ATOM      1 Br   UNK d   1      46.302  12.146  48.765  0.00  0.00    -0.051 Br
ATOM      2  C   UNK d   1      44.812  12.531  47.653  0.00  0.00     0.011 A 
ATOM      3  C   UNK d   1      43.933  11.535  47.216  0.00  0.00     0.030 A 
ATOM      4  C   UNK d   1      42.861  11.821  46.415  0.00  0.00    -0.002 A 
ATOM      5  C   UNK d   1      42.641  13.111  46.028  0.00  0.00     0.043 A 
ATOM      6  C   UNK d   1      43.494  14.145  46.438  0.00  0.00     0.031 A 
ATOM      7  C   UNK d   1      44.561  13.827  47.243  0.00  0.00     0.021 A 
ATOM      8  N   UNK d   1      41.490  13.202  45.206  0.00  0.00    -0.325 N 
ATOM      9  C   UNK d   1      40.965  11.905  45.072  0.00  0.00     0.246 A 
ATOM     10  O   UNK d   1      39.947  11.545  44.424  0.00  0.00    -0.271 OA
ATOM     11  C   UNK d   1      41.812  10.963  45.835  0.00  0.00     0.146 A 
ATOM     12  C   UNK d   1      42.407   9.955  44.898  0.00  0.00     0.071 A 
ATOM     13  C   UNK d   1      42.291   8.658  45.007  0.00  0.00     0.060 A 
ATOM     14  N   UNK d   1      41.546   8.141  46.093  0.00  0.00    -0.342 N 
ATOM     15  C   UNK d   1      40.945   9.019  47.032  0.00  0.00     0.118 A 
ATOM     16  C   UNK d   1      41.059  10.320  46.926  0.00  0.00     0.093 A 
ATOM     17  C   UNK d   1      40.408  11.157  47.939  0.00  0.00     0.101 C 
ATOM     18  N   UNK d   1      39.895  11.832  48.725  0.00  0.00    -0.191 NA
ATOM     19  C   UNK d   1      43.023   8.023  43.884  0.00  0.00     0.106 A 
ATOM     20  O   UNK d   1      43.574   9.060  43.113  0.00  0.00    -0.301 OA
ATOM     21  C   UNK d   1      43.216  10.256  43.704  0.00  0.00     0.294 A 
ATOM     22  O   UNK d   1      43.543  11.415  43.275  0.00  0.00    -0.259 OA
ATOM     23  C   UNK d   1      42.059   7.271  42.963  0.00  0.00     0.053 C 
ATOM     24  C   UNK d   1      44.098   7.075  44.396  0.00  0.00     0.053 C 
ATOM     25  H   UNK d   1      41.108  14.103  44.777  0.00  0.00     0.169 HD
ATOM     26  H   UNK d   1      41.419   7.106  46.232  0.00  0.00     0.167 HD
ENDROOT
BRANCH  15  27
ATOM     27  N   UNK d   1      40.184   8.466  48.141  0.00  0.00    -0.384 N 
ATOM     28  H   UNK d   1      40.349   8.722  49.127  0.00  0.00     0.157 HD
ATOM     29  H   UNK d   1      39.442   7.783  47.918  0.00  0.00     0.157 HD
ENDBRANCH  15  27
TORSDOF 1
ENDMDL
