/Users/jonathanwahrer/Desktop/Msc/3_Semester/Drug_Design_Praktikum/waehrer_HTS_screening/HTS_experiment/out/docking_results/vina_output/2qfa/0558_docked.pdbqt
 OpenBabel03162219523D

 29 32  0  0  1  0  0  0  0  0999 V2000
   46.3020   12.1460   48.7650 Br  0  0  0  0  0  0  0  0  0  0  0  0
   44.8120   12.5310   47.6530 C   0  0  0  0  0  0  0  0  0  0  0  0
   43.9330   11.5350   47.2160 C   0  0  0  0  0  3  0  0  0  0  0  0
   42.8610   11.8210   46.4150 C   0  0  0  0  0  0  0  0  0  0  0  0
   42.6410   13.1110   46.0280 C   0  0  0  0  0  0  0  0  0  0  0  0
   43.4940   14.1450   46.4380 C   0  0  0  0  0  3  0  0  0  0  0  0
   44.5610   13.8270   47.2430 C   0  0  0  0  0  3  0  0  0  0  0  0
   41.4900   13.2020   45.2060 N   0  0  0  0  0  0  0  0  0  0  0  0
   40.9650   11.9050   45.0720 C   0  0  0  0  0  0  0  0  0  0  0  0
   39.9470   11.5450   44.4240 O   0  0  0  0  0  0  0  0  0  0  0  0
   41.8120   10.9630   45.8350 C   0  0  1  0  0  0  0  0  0  0  0  0
   42.4070    9.9550   44.8980 C   0  0  0  0  0  0  0  0  0  0  0  0
   42.2910    8.6580   45.0070 C   0  0  0  0  0  0  0  0  0  0  0  0
   41.5460    8.1410   46.0930 N   0  0  0  0  0  0  0  0  0  0  0  0
   40.9450    9.0190   47.0320 C   0  0  0  0  0  0  0  0  0  0  0  0
   41.0590   10.3200   46.9260 C   0  0  0  0  0  0  0  0  0  0  0  0
   40.4080   11.1570   47.9390 C   0  0  0  0  0  0  0  0  0  0  0  0
   39.8950   11.8320   48.7250 N   0  0  0  0  0  0  0  0  0  0  0  0
   43.0230    8.0230   43.8840 C   0  0  0  0  0  0  0  0  0  0  0  0
   43.5740    9.0600   43.1130 O   0  0  0  0  0  0  0  0  0  0  0  0
   43.2160   10.2560   43.7040 C   0  0  0  0  0  0  0  0  0  0  0  0
   43.5430   11.4150   43.2750 O   0  0  0  0  0  0  0  0  0  0  0  0
   42.0590    7.2710   42.9630 C   0  0  0  0  0  1  0  0  0  0  0  0
   44.0980    7.0750   44.3960 C   0  0  0  0  0  1  0  0  0  0  0  0
   41.1080   14.1030   44.7770 H   0  0  0  0  0  0  0  0  0  0  0  0
   41.4190    7.1060   46.2320 H   0  0  0  0  0  0  0  0  0  0  0  0
   40.1840    8.4660   48.1410 N   0  0  0  0  0  0  0  0  0  0  0  0
   40.3490    8.7220   49.1270 H   0  0  0  0  0  0  0  0  0  0  0  0
   39.4420    7.7830   47.9180 H   0  0  0  0  0  0  0  0  0  0  0  0
  2  1  1  0  0  0  0
  3  2  2  0  0  0  0
  4  3  1  0  0  0  0
  5  4  2  0  0  0  0
  5  6  1  0  0  0  0
  6  7  2  0  0  0  0
  7  2  1  0  0  0  0
  8  5  1  0  0  0  0
  9  8  1  0  0  0  0
  9 11  1  0  0  0  0
 10  9  2  0  0  0  0
 11 12  1  6  0  0  0
 11  4  1  0  0  0  0
 11 16  1  0  0  0  0
 12 13  2  0  0  0  0
 13 14  1  0  0  0  0
 14 26  1  0  0  0  0
 14 15  1  0  0  0  0
 15 27  1  0  0  0  0
 16 15  2  0  0  0  0
 16 17  1  0  0  0  0
 17 18  3  0  0  0  0
 19 24  1  0  0  0  0
 19 13  1  0  0  0  0
 20 21  1  0  0  0  0
 20 19  1  0  0  0  0
 21 12  1  0  0  0  0
 22 21  2  0  0  0  0
 23 19  1  0  0  0  0
 25  8  1  0  0  0  0
 27 28  1  0  0  0  0
 29 27  1  0  0  0  0
M  END
>  <Pose>
1

>  <Score>
-6.755

$$$$
