MODEL 1
REMARK VINA RESULT:    -6.830      0.000      0.000
REMARK INTER + INTRA:          -7.750
REMARK INTER:                  -8.028
REMARK INTRA:                   0.278
REMARK UNBOUND:                 0.278
REMARK  3 active torsions:
REMARK  status: ('A' for Active; 'I' for Inactive)
REMARK    1  A    between atoms: C_13  and  C_25 
REMARK    2  A    between atoms: N_18  and  C_21 
REMARK    3  A    between atoms: C_25  and  C_26 
REMARK       I    between atoms: C_26  and  N_28 
ROOT
ATOM      1 Br   UNK d   1      43.119  16.125  48.524  0.00  0.00    -0.051 Br
ATOM      2  C   UNK d   1      43.651  14.932  47.117  0.00  0.00     0.011 A 
ATOM      3  C   UNK d   1      42.868  13.857  46.739  0.00  0.00     0.031 A 
ATOM      4  C   UNK d   1      43.243  12.994  45.729  0.00  0.00     0.019 A 
ATOM      5  C   UNK d   1      44.447  13.260  45.111  0.00  0.00     0.044 A 
ATOM      6  C   UNK d   1      45.238  14.340  45.489  0.00  0.00     0.031 A 
ATOM      7  C   UNK d   1      44.845  15.177  46.488  0.00  0.00     0.021 A 
ATOM      8  N   UNK d   1      44.676  12.265  44.100  0.00  0.00    -0.324 N 
ATOM      9  C   UNK d   1      43.589  11.358  44.089  0.00  0.00     0.267 A 
ATOM     10  O   UNK d   1      43.503  10.372  43.320  0.00  0.00    -0.270 OA
ATOM     11  C   UNK d   1      42.624  11.794  45.120  0.00  0.00     0.279 A 
ATOM     12  N   UNK d   1      42.384  10.750  46.080  0.00  0.00     0.114 N 
ATOM     13  C   UNK d   1      41.423   9.889  45.423  0.00  0.00     0.245 C 
ATOM     14  C   UNK d   1      40.460  10.854  44.785  0.00  0.00     0.128 C 
ATOM     15  C   UNK d   1      41.311  12.063  44.477  0.00  0.00     0.147 C 
ATOM     16  C   UNK d   1      40.564  13.211  45.011  0.00  0.00     0.235 C 
ATOM     17  O   UNK d   1      40.848  14.427  44.866  0.00  0.00    -0.272 OA
ATOM     18  N   UNK d   1      39.415  12.742  45.753  0.00  0.00    -0.279 N 
ATOM     19  C   UNK d   1      39.409  11.324  45.714  0.00  0.00     0.234 C 
ATOM     20  O   UNK d   1      38.624  10.606  46.377  0.00  0.00    -0.272 OA
ATOM     21  H   UNK d   1      45.526  12.255  43.496  0.00  0.00     0.169 HD
ATOM     22  H   UNK d   1      41.939  11.160  46.917  0.00  0.00     0.318 HD
ENDROOT
BRANCH  13  23
ATOM     23  C   UNK d   1      40.780   8.963  46.420  0.00  0.00     0.139 C 
BRANCH  23  24
ATOM     24  C   UNK d   1      41.641   7.800  46.693  0.00  0.00     0.217 C 
ATOM     25  O   UNK d   1      42.430   7.848  47.676  0.00  0.00    -0.274 OA
ATOM     26  N   UNK d   1      41.652   6.608  45.926  0.00  0.00    -0.370 N 
ATOM     27  H   UNK d   1      41.693   6.561  44.897  0.00  0.00     0.159 HD
ATOM     28  H   UNK d   1      41.616   5.699  46.459  0.00  0.00     0.159 HD
ENDBRANCH  23  24
ENDBRANCH  13  23
BRANCH  18  29
ATOM     29  C   UNK d   1      38.432  13.556  46.424  0.00  0.00     0.032 C 
ATOM     30  C   UNK d   1      39.057  14.749  47.106  0.00  0.00     0.038 C 
ATOM     31  C   UNK d   1      37.400  14.032  45.397  0.00  0.00     0.038 C 
ATOM     32  C   UNK d   1      37.710  12.760  47.490  0.00  0.00     0.038 C 
ENDBRANCH  18  29
TORSDOF 3
ENDMDL
