MODEL 1
REMARK VINA RESULT:    -6.683      0.000      0.000
REMARK INTER + INTRA:          -8.991
REMARK INTER:                  -8.441
REMARK INTRA:                  -0.550
REMARK UNBOUND:                -0.550
REMARK  5 active torsions:
REMARK  status: ('A' for Active; 'I' for Inactive)
REMARK    1  A    between atoms: C_13  and  C_25 
REMARK    2  A    between atoms: N_18  and  C_21 
REMARK    3  A    between atoms: C_21  and  C_22 
REMARK    4  A    between atoms: C_22  and  C_23 
REMARK    5  A    between atoms: C_25  and  O_26 
ROOT
ATOM      1 Br   UNK d   1      36.345  11.351  46.954  0.00  0.00    -0.051 Br
ATOM      2  C   UNK d   1      37.885  10.451  47.632  0.00  0.00     0.011 A 
ATOM      3  C   UNK d   1      39.056  10.428  46.918  0.00  0.00     0.031 A 
ATOM      4  C   UNK d   1      40.197   9.768  47.408  0.00  0.00     0.019 A 
ATOM      5  C   UNK d   1      40.179   9.125  48.614  0.00  0.00     0.044 A 
ATOM      6  C   UNK d   1      38.982   9.148  49.344  0.00  0.00     0.031 A 
ATOM      7  C   UNK d   1      37.878   9.800  48.846  0.00  0.00     0.021 A 
ATOM      8  N   UNK d   1      41.441   8.536  48.894  0.00  0.00    -0.324 N 
ATOM      9  C   UNK d   1      42.293   8.826  47.804  0.00  0.00     0.267 A 
ATOM     10  O   UNK d   1      43.504   8.427  47.766  0.00  0.00    -0.270 OA
ATOM     11  C   UNK d   1      41.550   9.608  46.831  0.00  0.00     0.279 A 
ATOM     12  N   UNK d   1      42.164  10.884  46.521  0.00  0.00     0.116 N 
ATOM     13  C   UNK d   1      43.066  10.629  45.413  0.00  0.00     0.264 C 
ATOM     14  C   UNK d   1      42.252   9.702  44.556  0.00  0.00     0.130 C 
ATOM     15  C   UNK d   1      41.493   8.853  45.519  0.00  0.00     0.147 C 
ATOM     16  C   UNK d   1      42.204   7.566  45.565  0.00  0.00     0.234 C 
ATOM     17  O   UNK d   1      42.111   6.633  46.429  0.00  0.00    -0.272 OA
ATOM     18  N   UNK d   1      43.080   7.467  44.449  0.00  0.00    -0.288 N 
ATOM     19  C   UNK d   1      43.088   8.731  43.817  0.00  0.00     0.233 C 
ATOM     20  O   UNK d   1      43.713   9.036  42.756  0.00  0.00    -0.272 OA
ATOM     21  H   UNK d   1      41.647   7.992  49.771  0.00  0.00     0.169 HD
ATOM     22  H   UNK d   1      42.637  11.312  47.338  0.00  0.00     0.318 HD
ENDROOT
BRANCH  13  23
ATOM     23  C   UNK d   1      43.397  11.923  44.739  0.00  0.00     0.148 C 
ATOM     24  C   UNK d   1      43.684  12.988  45.769  0.00  0.00     0.041 C 
BRANCH  23  25
ATOM     25  O   UNK d   1      44.574  11.733  44.003  0.00  0.00    -0.394 OA
ATOM     26  H   UNK d   1      45.197  12.494  44.129  0.00  0.00     0.210 HD
ENDBRANCH  23  25
ENDBRANCH  13  23
BRANCH  18  27
ATOM     27  C   UNK d   1      43.827   6.297  44.032  0.00  0.00     0.135 C 
BRANCH  27  28
ATOM     28  C   UNK d   1      45.302   6.534  44.021  0.00  0.00     0.020 C 
BRANCH  28  29
ATOM     29  C   UNK d   1      45.799   6.172  42.616  0.00  0.00    -0.003 C 
ATOM     30  C   UNK d   1      46.506   4.845  42.634  0.00  0.00     0.005 C 
ENDBRANCH  28  29
ENDBRANCH  27  28
ENDBRANCH  18  27
TORSDOF 5
ENDMDL
