MODEL 1
REMARK VINA RESULT:    -8.286      0.000      0.000
REMARK INTER + INTRA:         -10.974
REMARK INTER:                 -10.466
REMARK INTRA:                  -0.509
REMARK UNBOUND:                -0.509
REMARK  5 active torsions:
REMARK  status: ('A' for Active; 'I' for Inactive)
REMARK    1  A    between atoms: C_13  and  C_29 
REMARK    2  A    between atoms: N_18  and  C_21 
REMARK    3  A    between atoms: C_21  and  C_22 
REMARK    4  A    between atoms: C_22  and  C_23 
REMARK    5  A    between atoms: C_29  and  O_30 
ROOT
ATOM      1 Br   UNK d   1      37.191  11.967  45.573  0.00  0.00    -0.051 Br
ATOM      2  C   UNK d   1      38.170  10.854  46.778  0.00  0.00     0.011 A 
ATOM      3  C   UNK d   1      39.369  10.267  46.438  0.00  0.00     0.031 A 
ATOM      4  C   UNK d   1      40.080   9.445  47.324  0.00  0.00     0.019 A 
ATOM      5  C   UNK d   1      39.535   9.240  48.568  0.00  0.00     0.044 A 
ATOM      6  C   UNK d   1      38.329   9.829  48.918  0.00  0.00     0.031 A 
ATOM      7  C   UNK d   1      37.638  10.634  48.039  0.00  0.00     0.021 A 
ATOM      8  N   UNK d   1      40.351   8.384  49.344  0.00  0.00    -0.324 N 
ATOM      9  C   UNK d   1      41.464   8.029  48.554  0.00  0.00     0.267 A 
ATOM     10  O   UNK d   1      42.379   7.266  48.972  0.00  0.00    -0.270 OA
ATOM     11  C   UNK d   1      41.332   8.693  47.240  0.00  0.00     0.279 A 
ATOM     12  N   UNK d   1      41.273   7.695  46.167  0.00  0.00     0.116 N 
ATOM     13  C   UNK d   1      41.909   8.314  45.026  0.00  0.00     0.264 C 
ATOM     14  C   UNK d   1      42.858   9.333  45.524  0.00  0.00     0.130 C 
ATOM     15  C   UNK d   1      42.568   9.478  47.006  0.00  0.00     0.147 C 
ATOM     16  C   UNK d   1      42.523  10.914  47.257  0.00  0.00     0.234 C 
ATOM     17  O   UNK d   1      42.187  11.474  48.330  0.00  0.00    -0.272 OA
ATOM     18  N   UNK d   1      42.927  11.638  46.076  0.00  0.00    -0.287 N 
ATOM     19  C   UNK d   1      42.680  10.703  45.004  0.00  0.00     0.233 C 
ATOM     20  O   UNK d   1      42.372  11.021  43.846  0.00  0.00    -0.272 OA
ATOM     21  H   UNK d   1      40.159   8.070  50.335  0.00  0.00     0.169 HD
ATOM     22  H   UNK d   1      40.286   7.423  45.952  0.00  0.00     0.318 HD
ENDROOT
BRANCH  13  23
ATOM     23  C   UNK d   1      42.547   7.263  44.148  0.00  0.00     0.148 C 
ATOM     24  C   UNK d   1      43.300   7.864  42.987  0.00  0.00     0.041 C 
BRANCH  23  25
ATOM     25  O   UNK d   1      41.595   6.346  43.744  0.00  0.00    -0.394 OA
ATOM     26  H   UNK d   1      41.176   5.885  44.496  0.00  0.00     0.210 HD
ENDBRANCH  23  25
ENDBRANCH  13  23
BRANCH  18  27
ATOM     27  C   UNK d   1      43.476  12.951  45.962  0.00  0.00     0.139 C 
BRANCH  27  28
ATOM     28  C   UNK d   1      44.672  13.092  45.066  0.00  0.00     0.059 C 
BRANCH  28  29
ATOM     29  C   UNK d   1      45.439  14.337  45.244  0.00  0.00    -0.057 A 
ATOM     30  C   UNK d   1      46.369  14.708  44.280  0.00  0.00     0.007 A 
ATOM     31  C   UNK d   1      47.062  15.863  44.418  0.00  0.00     0.001 A 
ATOM     32  C   UNK d   1      46.889  16.702  45.481  0.00  0.00     0.000 A 
ATOM     33  C   UNK d   1      45.959  16.323  46.437  0.00  0.00     0.001 A 
ATOM     34  C   UNK d   1      45.249  15.163  46.320  0.00  0.00     0.007 A 
ENDBRANCH  28  29
ENDBRANCH  27  28
ENDBRANCH  18  27
TORSDOF 5
ENDMDL
