/Users/jonathanwahrer/Desktop/Msc/3_Semester/Drug_Design_Praktikum/waehrer_HTS_screening/HTS_experiment/out/docking_results/vina_output/2qfa/0578_docked.pdbqt
 OpenBabel03162219523D

 27 30  0  0  1  0  0  0  0  0999 V2000
   45.1010   14.2620   45.5680 Br  0  0  0  0  0  0  0  0  0  0  0  0
   43.2840   14.0330   46.1110 C   0  0  0  0  0  0  0  0  0  0  0  0
   42.7310   12.7930   46.3100 C   0  0  0  0  0  3  0  0  0  0  0  0
   41.3980   12.5860   46.7090 C   0  0  0  0  0  0  0  0  0  0  0  0
   40.6370   13.7000   46.9020 C   0  0  0  0  0  0  0  0  0  0  0  0
   41.1880   14.9790   46.7020 C   0  0  0  0  0  3  0  0  0  0  0  0
   42.4950   15.1480   46.3110 C   0  0  0  0  0  3  0  0  0  0  0  0
   39.3220   13.3470   47.3100 N   0  0  0  0  0  0  0  0  0  0  0  0
   39.2680   11.9410   47.3740 C   0  0  0  0  0  0  0  0  0  0  0  0
   38.2430   11.2470   47.7200 O   0  0  0  0  0  0  0  0  0  0  0  0
   40.5870   11.4170   46.9760 C   0  0  2  0  0  0  0  0  0  0  0  0
   41.0650   10.7300   48.1890 N   0  0  0  0  0  0  0  0  0  0  0  0
   40.8630    9.3250   48.0250 C   0  0  2  0  0  3  0  0  0  0  0  0
   40.9370    9.1090   46.5580 C   0  0  1  0  0  3  0  0  0  0  0  0
   40.5110   10.3940   45.9030 C   0  0  2  0  0  3  0  0  0  0  0  0
   41.4040   10.5150   44.7730 C   0  0  0  0  0  0  0  0  0  0  0  0
   41.2380   11.3040   43.7960 O   0  0  0  0  0  0  0  0  0  0  0  0
   42.4880    9.6120   44.9380 N   0  0  0  0  0  0  0  0  0  0  0  0
   42.3780    8.9460   46.1870 C   0  0  0  0  0  0  0  0  0  0  0  0
   43.3150    8.3750   46.7800 O   0  0  0  0  0  0  0  0  0  0  0  0
   39.5910    8.7920   48.6420 C   0  0  0  0  0  1  0  0  0  0  0  0
   38.5180   14.0040   47.5310 H   0  0  0  0  0  0  0  0  0  0  0  0
   42.0650   10.9630   48.3780 H   0  0  0  0  0  0  0  0  0  0  0  0
   43.5300    9.4390   43.9340 C   0  0  0  0  0  2  0  0  0  0  0  0
   43.2950    8.2270   43.0840 C   0  0  0  0  0  2  0  0  0  0  0  0
   44.4350    7.2460   43.1220 C   0  0  0  0  0  2  0  0  0  0  0  0
   44.0290    6.1470   44.1110 C   0  0  0  0  0  1  0  0  0  0  0  0
  1  2  1  0  0  0  0
  2  3  2  0  0  0  0
  2  7  1  0  0  0  0
  3  4  1  0  0  0  0
  4  5  2  0  0  0  0
  5  8  1  0  0  0  0
  6  5  1  0  0  0  0
  7  6  2  0  0  0  0
  8  9  1  0  0  0  0
  8 22  1  0  0  0  0
  9 10  2  0  0  0  0
 11  4  1  6  0  0  0
 11  9  1  0  0  0  0
 11 12  1  0  0  0  0
 12 23  1  0  0  0  0
 13 12  1  0  0  0  0
 13 21  1  6  0  0  0
 14 19  1  1  0  0  0
 14 13  1  0  0  0  0
 15 16  1  6  0  0  0
 15 14  1  0  0  0  0
 15 11  1  0  0  0  0
 16 18  1  0  0  0  0
 17 16  2  0  0  0  0
 18 19  1  0  0  0  0
 19 20  2  0  0  0  0
 24 18  1  0  0  0  0
 25 26  1  0  0  0  0
 25 24  1  0  0  0  0
 26 27  1  0  0  0  0
M  END
>  <Pose>
1

>  <Score>
-6.149

$$$$
