MODEL 1
REMARK VINA RESULT:    -6.448      0.000      0.000
REMARK INTER + INTRA:          -9.112
REMARK INTER:                  -8.333
REMARK INTRA:                  -0.779
REMARK UNBOUND:                -0.779
REMARK  5 active torsions:
REMARK  status: ('A' for Active; 'I' for Inactive)
REMARK    1  A    between atoms: C_13  and  C_25 
REMARK    2  A    between atoms: N_18  and  C_21 
REMARK    3  A    between atoms: C_21  and  C_22 
REMARK    4  A    between atoms: C_22  and  O_23 
REMARK    5  A    between atoms: C_25  and  C_26 
REMARK       I    between atoms: C_26  and  N_28 
ROOT
ATOM      1 Br   UNK d   1      45.757   6.829  44.062  0.00  0.00    -0.051 Br
ATOM      2  C   UNK d   1      44.186   7.850  43.704  0.00  0.00     0.011 A 
ATOM      3  C   UNK d   1      43.931   9.064  44.302  0.00  0.00     0.031 A 
ATOM      4  C   UNK d   1      42.781   9.807  44.035  0.00  0.00     0.019 A 
ATOM      5  C   UNK d   1      41.860   9.316  43.144  0.00  0.00     0.044 A 
ATOM      6  C   UNK d   1      42.088   8.097  42.527  0.00  0.00     0.031 A 
ATOM      7  C   UNK d   1      43.251   7.373  42.812  0.00  0.00     0.021 A 
ATOM      8  N   UNK d   1      40.767  10.230  43.014  0.00  0.00    -0.324 N 
ATOM      9  C   UNK d   1      41.015  11.341  43.860  0.00  0.00     0.267 A 
ATOM     10  O   UNK d   1      40.242  12.314  43.955  0.00  0.00    -0.270 OA
ATOM     11  C   UNK d   1      42.278  11.115  44.543  0.00  0.00     0.279 A 
ATOM     12  N   UNK d   1      43.180  12.199  44.154  0.00  0.00     0.114 N 
ATOM     13  C   UNK d   1      43.927  12.523  45.332  0.00  0.00     0.245 C 
ATOM     14  C   UNK d   1      42.943  12.366  46.433  0.00  0.00     0.128 C 
ATOM     15  C   UNK d   1      42.209  11.105  46.041  0.00  0.00     0.147 C 
ATOM     16  C   UNK d   1      40.880  11.258  46.617  0.00  0.00     0.235 C 
ATOM     17  O   UNK d   1      40.052  10.341  46.805  0.00  0.00    -0.272 OA
ATOM     18  N   UNK d   1      40.695  12.634  46.926  0.00  0.00    -0.286 N 
ATOM     19  C   UNK d   1      41.848  13.368  46.449  0.00  0.00     0.233 C 
ATOM     20  O   UNK d   1      41.800  14.572  46.152  0.00  0.00    -0.272 OA
ATOM     21  H   UNK d   1      39.930  10.075  42.386  0.00  0.00     0.169 HD
ATOM     22  H   UNK d   1      42.631  13.047  43.878  0.00  0.00     0.318 HD
ENDROOT
BRANCH  13  23
ATOM     23  C   UNK d   1      44.610  13.846  45.267  0.00  0.00     0.139 C 
BRANCH  23  24
ATOM     24  C   UNK d   1      45.229  14.152  46.562  0.00  0.00     0.217 C 
ATOM     25  O   UNK d   1      46.140  13.402  47.012  0.00  0.00    -0.274 OA
ATOM     26  N   UNK d   1      44.816  15.288  47.320  0.00  0.00    -0.370 N 
ATOM     27  H   UNK d   1      45.490  15.774  47.946  0.00  0.00     0.159 HD
ATOM     28  H   UNK d   1      43.836  15.627  47.242  0.00  0.00     0.159 HD
ENDBRANCH  23  24
ENDBRANCH  13  23
BRANCH  18  29
ATOM     29  C   UNK d   1      39.545  13.165  47.599  0.00  0.00     0.161 C 
BRANCH  29  30
ATOM     30  C   UNK d   1      38.295  13.218  46.786  0.00  0.00     0.187 C 
BRANCH  30  31
ATOM     31  O   UNK d   1      38.294  14.235  45.847  0.00  0.00    -0.394 OA
ATOM     32  C   UNK d   1      37.309  14.043  44.881  0.00  0.00     0.201 C 
ENDBRANCH  30  31
ENDBRANCH  29  30
ENDBRANCH  18  29
TORSDOF 5
ENDMDL
