/Users/jonathanwahrer/Desktop/Msc/3_Semester/Drug_Design_Praktikum/waehrer_HTS_screening/HTS_experiment/out/docking_results/vina_output/2qfa/0579_docked.pdbqt
 OpenBabel03162219533D

 32 35  0  0  1  0  0  0  0  0999 V2000
   45.7570    6.8290   44.0620 Br  0  0  0  0  0  0  0  0  0  0  0  0
   44.1860    7.8500   43.7040 C   0  0  0  0  0  0  0  0  0  0  0  0
   43.9310    9.0640   44.3020 C   0  0  0  0  0  3  0  0  0  0  0  0
   42.7810    9.8070   44.0350 C   0  0  0  0  0  0  0  0  0  0  0  0
   41.8600    9.3160   43.1440 C   0  0  0  0  0  0  0  0  0  0  0  0
   42.0880    8.0970   42.5270 C   0  0  0  0  0  3  0  0  0  0  0  0
   43.2510    7.3730   42.8120 C   0  0  0  0  0  3  0  0  0  0  0  0
   40.7670   10.2300   43.0140 N   0  0  0  0  0  0  0  0  0  0  0  0
   41.0150   11.3410   43.8600 C   0  0  0  0  0  0  0  0  0  0  0  0
   40.2420   12.3140   43.9550 O   0  0  0  0  0  0  0  0  0  0  0  0
   42.2780   11.1150   44.5430 C   0  0  2  0  0  0  0  0  0  0  0  0
   43.1800   12.1990   44.1540 N   0  0  0  0  0  0  0  0  0  0  0  0
   43.9270   12.5230   45.3320 C   0  0  2  0  0  3  0  0  0  0  0  0
   42.9430   12.3660   46.4330 C   0  0  2  0  0  3  0  0  0  0  0  0
   42.2090   11.1050   46.0410 C   0  0  1  0  0  3  0  0  0  0  0  0
   40.8800   11.2580   46.6170 C   0  0  0  0  0  0  0  0  0  0  0  0
   40.0520   10.3410   46.8050 O   0  0  0  0  0  0  0  0  0  0  0  0
   40.6950   12.6340   46.9260 N   0  0  0  0  0  0  0  0  0  0  0  0
   41.8480   13.3680   46.4490 C   0  0  0  0  0  0  0  0  0  0  0  0
   41.8000   14.5720   46.1520 O   0  0  0  0  0  0  0  0  0  0  0  0
   39.9300   10.0750   42.3860 H   0  0  0  0  0  0  0  0  0  0  0  0
   42.6310   13.0470   43.8780 H   0  0  0  0  0  0  0  0  0  0  0  0
   44.6100   13.8460   45.2670 C   0  0  0  0  0  2  0  0  0  0  0  0
   45.2290   14.1520   46.5620 C   0  0  0  0  0  0  0  0  0  0  0  0
   46.1400   13.4020   47.0120 O   0  0  0  0  0  0  0  0  0  0  0  0
   44.8160   15.2880   47.3200 N   0  0  0  0  0  0  0  0  0  0  0  0
   45.4900   15.7740   47.9460 H   0  0  0  0  0  0  0  0  0  0  0  0
   43.8360   15.6270   47.2420 H   0  0  0  0  0  0  0  0  0  0  0  0
   39.5450   13.1650   47.5990 C   0  0  0  0  0  2  0  0  0  0  0  0
   38.2950   13.2180   46.7860 C   0  0  0  0  0  2  0  0  0  0  0  0
   38.2940   14.2350   45.8470 O   0  0  0  0  0  0  0  0  0  0  0  0
   37.3090   14.0430   44.8810 C   0  0  0  0  0  1  0  0  0  0  0  0
  2  1  1  0  0  0  0
  2  3  1  0  0  0  0
  4  3  2  0  0  0  0
  4 11  1  0  0  0  0
  5  4  1  0  0  0  0
  6  7  1  0  0  0  0
  6  5  2  0  0  0  0
  7  2  2  0  0  0  0
  8  5  1  0  0  0  0
  8  9  1  0  0  0  0
  9 10  2  0  0  0  0
 11  9  1  6  0  0  0
 11 15  1  0  0  0  0
 12 11  1  0  0  0  0
 12 13  1  0  0  0  0
 13 23  1  6  0  0  0
 13 14  1  0  0  0  0
 14 19  1  6  0  0  0
 15 14  1  0  0  0  0
 15 16  1  6  0  0  0
 16 17  2  0  0  0  0
 16 18  1  0  0  0  0
 18 29  1  0  0  0  0
 19 18  1  0  0  0  0
 20 19  2  0  0  0  0
 21  8  1  0  0  0  0
 22 12  1  0  0  0  0
 23 24  1  0  0  0  0
 24 25  2  0  0  0  0
 24 26  1  0  0  0  0
 26 27  1  0  0  0  0
 28 26  1  0  0  0  0
 30 29  1  0  0  0  0
 31 30  1  0  0  0  0
 32 31  1  0  0  0  0
M  END
>  <Pose>
1

>  <Score>
-6.448

$$$$
