MODEL 1
REMARK VINA RESULT:    -6.633      0.000      0.000
REMARK INTER + INTRA:          -6.633
REMARK INTER:                  -6.633
REMARK INTRA:                   0.000
REMARK UNBOUND:                 0.000
REMARK  0 active torsions:
REMARK  status: ('A' for Active; 'I' for Inactive)
ROOT
ATOM      1 Br   UNK d   1      45.434   6.521  42.311  0.00  0.00    -0.051 Br
ATOM      2  C   UNK d   1      44.220   7.400  43.488  0.00  0.00     0.012 A 
ATOM      3  C   UNK d   1      44.014   8.739  43.325  0.00  0.00     0.038 A 
ATOM      4  C   UNK d   1      43.137   9.403  44.167  0.00  0.00     0.062 A 
ATOM      5  C   UNK d   1      42.471   8.712  45.171  0.00  0.00     0.078 A 
ATOM      6  C   UNK d   1      42.669   7.357  45.349  0.00  0.00     0.034 A 
ATOM      7  C   UNK d   1      43.549   6.740  44.489  0.00  0.00     0.021 A 
ATOM      8  N   UNK d   1      41.556   9.281  46.086  0.00  0.00    -0.195 N 
ATOM      9  N   UNK d   1      40.641   8.528  46.707  0.00  0.00    -0.039 NA
ATOM     10  N   UNK d   1      39.965   9.342  47.471  0.00  0.00    -0.023 NA
ATOM     11  N   UNK d   1      40.423  10.577  47.351  0.00  0.00    -0.111 NA
ATOM     12  C   UNK d   1      41.454  10.546  46.456  0.00  0.00     0.182 A 
ATOM     13  C   UNK d   1      42.212  11.790  46.081  0.00  0.00     0.102 C 
ATOM     14  N   UNK d   1      42.468  11.825  44.643  0.00  0.00    -0.340 N 
ATOM     15  C   UNK d   1      43.062  10.827  43.821  0.00  0.00     0.255 C 
ATOM     16  O   UNK d   1      43.559  11.186  42.717  0.00  0.00    -0.268 OA
ATOM     17  C   UNK d   1      43.557  11.673  46.744  0.00  0.00     0.076 C 
ATOM     18  C   UNK d   1      44.184  13.024  46.856  0.00  0.00     0.056 C 
ATOM     19  O   UNK d   1      43.381  13.778  47.671  0.00  0.00    -0.381 OA
ATOM     20  C   UNK d   1      42.139  14.066  47.174  0.00  0.00     0.171 C 
ATOM     21  C   UNK d   1      41.427  12.985  46.482  0.00  0.00     0.066 C 
ATOM     22  C   UNK d   1      45.539  12.896  47.564  0.00  0.00     0.045 C 
ATOM     23  C   UNK d   1      44.464  13.668  45.525  0.00  0.00     0.045 C 
ATOM     24  H   UNK d   1      42.178  12.707  44.123  0.00  0.00     0.164 HD
ENDROOT
TORSDOF 0
ENDMDL
