MODEL 1
REMARK VINA RESULT:    -6.761      0.000      0.000
REMARK INTER + INTRA:          -6.761
REMARK INTER:                  -6.761
REMARK INTRA:                   0.000
REMARK UNBOUND:                 0.000
REMARK  0 active torsions:
REMARK  status: ('A' for Active; 'I' for Inactive)
ROOT
ATOM      1 Br   UNK d   1      45.913   5.411  43.433  0.00  0.00    -0.051 Br
ATOM      2  C   UNK d   1      44.628   6.821  43.645  0.00  0.00     0.012 A 
ATOM      3  C   UNK d   1      43.708   6.779  44.671  0.00  0.00     0.038 A 
ATOM      4  C   UNK d   1      42.788   7.795  44.820  0.00  0.00     0.061 A 
ATOM      5  C   UNK d   1      42.733   8.885  43.972  0.00  0.00     0.072 A 
ATOM      6  C   UNK d   1      43.668   8.911  42.941  0.00  0.00     0.034 A 
ATOM      7  C   UNK d   1      44.593   7.899  42.786  0.00  0.00     0.021 A 
ATOM      8  N   UNK d   1      41.866   9.996  43.982  0.00  0.00    -0.218 N 
ATOM      9  N   UNK d   1      41.747  10.838  42.969  0.00  0.00     0.032 NA
ATOM     10  N   UNK d   1      40.857  11.756  43.311  0.00  0.00    -0.052 NA
ATOM     11  N   UNK d   1      40.426  11.492  44.521  0.00  0.00    -0.116 NA
ATOM     12  C   UNK d   1      41.046  10.378  44.982  0.00  0.00     0.176 A 
ATOM     13  C   UNK d   1      40.749   9.858  46.319  0.00  0.00     0.100 C 
ATOM     14  N   UNK d   1      40.910   8.458  46.511  0.00  0.00    -0.340 N 
ATOM     15  C   UNK d   1      41.888   7.592  45.958  0.00  0.00     0.255 C 
ATOM     16  O   UNK d   1      42.056   6.459  46.483  0.00  0.00    -0.268 OA
ATOM     17  C   UNK d   1      41.607  10.544  47.393  0.00  0.00     0.069 C 
ATOM     18  C   UNK d   1      40.801  10.648  48.663  0.00  0.00     0.275 C 
ATOM     19  N   UNK d   1      39.873  11.744  48.499  0.00  0.00     0.084 N 
ATOM     20  C   UNK d   1      39.206  11.610  47.231  0.00  0.00     0.275 C 
ATOM     21  C   UNK d   1      39.306  10.220  46.652  0.00  0.00     0.069 C 
ATOM     22  C   UNK d   1      40.638  12.987  48.580  0.00  0.00     0.309 C 
ATOM     23  H   UNK d   1      40.216   8.013  47.144  0.00  0.00     0.164 HD
ENDROOT
TORSDOF 0
ENDMDL
