/Users/jonathanwahrer/Desktop/Msc/3_Semester/Drug_Design_Praktikum/waehrer_HTS_screening/HTS_experiment/out/docking_results/vina_output/2qfa/0591_docked.pdbqt
 OpenBabel03162219533D

 23 26  0  0  0  0  0  0  0  0999 V2000
   45.9130    5.4110   43.4330 Br  0  0  0  0  0  0  0  0  0  0  0  0
   44.6280    6.8210   43.6450 C   0  0  0  0  0  0  0  0  0  0  0  0
   43.7080    6.7790   44.6710 C   0  0  0  0  0  3  0  0  0  0  0  0
   42.7880    7.7950   44.8200 C   0  0  0  0  0  0  0  0  0  0  0  0
   42.7330    8.8850   43.9720 C   0  0  0  0  0  0  0  0  0  0  0  0
   43.6680    8.9110   42.9410 C   0  0  0  0  0  3  0  0  0  0  0  0
   44.5930    7.8990   42.7860 C   0  0  0  0  0  3  0  0  0  0  0  0
   41.8660    9.9960   43.9820 N   0  0  0  0  0  0  0  0  0  0  0  0
   41.7470   10.8380   42.9690 N   0  0  0  0  0  0  0  0  0  0  0  0
   40.8570   11.7560   43.3110 N   0  0  0  0  0  0  0  0  0  0  0  0
   40.4260   11.4920   44.5210 N   0  0  0  0  0  0  0  0  0  0  0  0
   41.0460   10.3780   44.9820 C   0  0  0  0  0  0  0  0  0  0  0  0
   40.7490    9.8580   46.3190 C   0  0  0  0  0  0  0  0  0  0  0  0
   40.9100    8.4580   46.5110 N   0  0  0  0  0  0  0  0  0  0  0  0
   41.8880    7.5920   45.9580 C   0  0  0  0  0  0  0  0  0  0  0  0
   42.0560    6.4590   46.4830 O   0  0  0  0  0  0  0  0  0  0  0  0
   41.6070   10.5440   47.3930 C   0  0  0  0  0  2  0  0  0  0  0  0
   40.8010   10.6480   48.6630 C   0  0  0  0  0  2  0  0  0  0  0  0
   39.8730   11.7440   48.4990 N   0  0  0  0  0  0  0  0  0  0  0  0
   39.2060   11.6100   47.2310 C   0  0  0  0  0  2  0  0  0  0  0  0
   39.3060   10.2200   46.6520 C   0  0  0  0  0  2  0  0  0  0  0  0
   40.6380   12.9870   48.5800 C   0  0  0  0  0  1  0  0  0  0  0  0
   40.2160    8.0130   47.1440 H   0  0  0  0  0  0  0  0  0  0  0  0
  1  2  1  0  0  0  0
  2  3  1  0  0  0  0
  3  4  2  0  0  0  0
  4 15  1  0  0  0  0
  5  8  1  0  0  0  0
  5  4  1  0  0  0  0
  6  5  2  0  0  0  0
  7  6  1  0  0  0  0
  7  2  2  0  0  0  0
  8 12  1  0  0  0  0
  9 10  2  0  0  0  0
  9  8  1  0  0  0  0
 10 11  1  0  0  0  0
 11 12  2  0  0  0  0
 12 13  1  0  0  0  0
 13 14  1  0  0  0  0
 13 21  1  0  0  0  0
 13 17  1  0  0  0  0
 14 23  1  0  0  0  0
 15 16  2  0  0  0  0
 15 14  1  0  0  0  0
 17 18  1  0  0  0  0
 19 22  1  0  0  0  0
 19 18  1  0  0  0  0
 20 19  1  0  0  0  0
 21 20  1  0  0  0  0
M  END
>  <Pose>
1

>  <Score>
-6.761

$$$$
