MODEL 1
REMARK VINA RESULT:    -7.412      0.000      0.000
REMARK INTER + INTRA:          -7.628
REMARK INTER:                  -7.628
REMARK INTRA:                   0.000
REMARK UNBOUND:                 0.000
REMARK  1 active torsions:
REMARK  status: ('A' for Active; 'I' for Inactive)
REMARK    1  A    between atoms: C_9  and  N_23 
ROOT
ATOM      1 Br   UNK d   1      44.528   6.483  44.136  0.00  0.00    -0.051 Br
ATOM      2  C   UNK d   1      43.350   7.921  43.746  0.00  0.00     0.011 A 
ATOM      3  C   UNK d   1      43.331   9.006  44.577  0.00  0.00     0.031 A 
ATOM      4  C   UNK d   1      42.463  10.064  44.289  0.00  0.00     0.005 A 
ATOM      5  C   UNK d   1      41.668   9.980  43.195  0.00  0.00     0.086 A 
ATOM      6  C   UNK d   1      41.690   8.859  42.339  0.00  0.00     0.039 A 
ATOM      7  C   UNK d   1      42.544   7.821  42.626  0.00  0.00     0.022 A 
ATOM      8  O   UNK d   1      40.793  11.000  42.866  0.00  0.00    -0.292 OA
ATOM      9  C   UNK d   1      40.743  12.112  43.678  0.00  0.00     0.160 A 
ATOM     10  C   UNK d   1      41.480  12.264  44.752  0.00  0.00     0.100 A 
ATOM     11  C   UNK d   1      42.430  11.245  45.177  0.00  0.00     0.145 A 
ATOM     12  C   UNK d   1      42.255  10.852  46.596  0.00  0.00     0.041 A 
ATOM     13  C   UNK d   1      43.386  11.192  47.284  0.00  0.00     0.160 A 
ATOM     14  N   UNK d   1      43.222  10.828  48.590  0.00  0.00    -0.156 NA
ATOM     15  N   UNK d   1      42.021  10.285  48.679  0.00  0.00    -0.280 N 
ATOM     16  C   UNK d   1      41.398  10.278  47.493  0.00  0.00     0.036 A 
ATOM     17  C   UNK d   1      40.027   9.730  47.265  0.00  0.00     0.070 C 
ATOM     18  N   UNK d   1      44.337  11.797  46.435  0.00  0.00    -0.308 N 
ATOM     19  C   UNK d   1      43.783  11.843  45.145  0.00  0.00     0.247 A 
ATOM     20  O   UNK d   1      44.318  12.309  44.104  0.00  0.00    -0.271 OA
ATOM     21  C   UNK d   1      41.370  13.460  45.552  0.00  0.00     0.101 C 
ATOM     22  N   UNK d   1      41.300  14.426  46.188  0.00  0.00    -0.191 NA
ATOM     23  H   UNK d   1      41.649   9.917  49.595  0.00  0.00     0.189 HD
ATOM     24  H   UNK d   1      45.304  12.150  46.743  0.00  0.00     0.170 HD
ENDROOT
BRANCH   9  25
ATOM     25  N   UNK d   1      39.828  13.162  43.324  0.00  0.00    -0.379 N 
ATOM     26  H   UNK d   1      39.754  14.006  43.933  0.00  0.00     0.158 HD
ATOM     27  H   UNK d   1      39.226  13.116  42.472  0.00  0.00     0.158 HD
ENDBRANCH   9  25
TORSDOF 1
ENDMDL
