/Users/jonathanwahrer/Desktop/Msc/3_Semester/Drug_Design_Praktikum/waehrer_HTS_screening/HTS_experiment/out/docking_results/vina_output/2qfa/0592_docked.pdbqt
 OpenBabel03162219533D

 27 30  0  0  1  0  0  0  0  0999 V2000
   44.5280    6.4830   44.1360 Br  0  0  0  0  0  0  0  0  0  0  0  0
   43.3500    7.9210   43.7460 C   0  0  0  0  0  0  0  0  0  0  0  0
   43.3310    9.0060   44.5770 C   0  0  0  0  0  3  0  0  0  0  0  0
   42.4630   10.0640   44.2890 C   0  0  0  0  0  0  0  0  0  0  0  0
   41.6680    9.9800   43.1950 C   0  0  0  0  0  0  0  0  0  0  0  0
   41.6900    8.8590   42.3390 C   0  0  0  0  0  3  0  0  0  0  0  0
   42.5440    7.8210   42.6260 C   0  0  0  0  0  3  0  0  0  0  0  0
   40.7930   11.0000   42.8660 O   0  0  0  0  0  0  0  0  0  0  0  0
   40.7430   12.1120   43.6780 C   0  0  0  0  0  0  0  0  0  0  0  0
   41.4800   12.2640   44.7520 C   0  0  0  0  0  0  0  0  0  0  0  0
   42.4300   11.2450   45.1770 C   0  0  1  0  0  0  0  0  0  0  0  0
   42.2550   10.8520   46.5960 C   0  0  0  0  0  0  0  0  0  0  0  0
   43.3860   11.1920   47.2840 C   0  0  0  0  0  0  0  0  0  0  0  0
   43.2220   10.8280   48.5900 N   0  0  0  0  0  0  0  0  0  0  0  0
   42.0210   10.2850   48.6790 N   0  0  0  0  0  0  0  0  0  0  0  0
   41.3980   10.2780   47.4930 C   0  0  0  0  0  0  0  0  0  0  0  0
   40.0270    9.7300   47.2650 C   0  0  0  0  0  1  0  0  0  0  0  0
   44.3370   11.7970   46.4350 N   0  0  0  0  0  0  0  0  0  0  0  0
   43.7830   11.8430   45.1450 C   0  0  0  0  0  0  0  0  0  0  0  0
   44.3180   12.3090   44.1040 O   0  0  0  0  0  0  0  0  0  0  0  0
   41.3700   13.4600   45.5520 C   0  0  0  0  0  0  0  0  0  0  0  0
   41.3000   14.4260   46.1880 N   0  0  0  0  0  0  0  0  0  0  0  0
   41.6490    9.9170   49.5950 H   0  0  0  0  0  0  0  0  0  0  0  0
   45.3040   12.1500   46.7430 H   0  0  0  0  0  0  0  0  0  0  0  0
   39.8280   13.1620   43.3240 N   0  0  0  0  0  0  0  0  0  0  0  0
   39.7540   14.0060   43.9330 H   0  0  0  0  0  0  0  0  0  0  0  0
   39.2260   13.1160   42.4720 H   0  0  0  0  0  0  0  0  0  0  0  0
  2  1  1  0  0  0  0
  2  3  1  0  0  0  0
  4  3  2  0  0  0  0
  5  4  1  0  0  0  0
  6  7  1  0  0  0  0
  6  5  2  0  0  0  0
  7  2  2  0  0  0  0
  8  5  1  0  0  0  0
  8  9  1  0  0  0  0
  9 10  2  0  0  0  0
 10 11  1  0  0  0  0
 10 21  1  0  0  0  0
 11  4  1  6  0  0  0
 11 12  1  0  0  0  0
 12 13  1  0  0  0  0
 12 16  2  0  0  0  0
 13 14  2  0  0  0  0
 14 15  1  0  0  0  0
 15 23  1  0  0  0  0
 16 15  1  0  0  0  0
 17 16  1  0  0  0  0
 18 24  1  0  0  0  0
 18 13  1  0  0  0  0
 19 11  1  0  0  0  0
 19 18  1  0  0  0  0
 20 19  2  0  0  0  0
 21 22  3  0  0  0  0
 25  9  1  0  0  0  0
 25 26  1  0  0  0  0
 27 25  1  0  0  0  0
M  END
>  <Pose>
1

>  <Score>
-7.412

$$$$
