/Users/jonathanwahrer/Desktop/Msc/3_Semester/Drug_Design_Praktikum/waehrer_HTS_screening/HTS_experiment/out/docking_results/vina_output/2qfa/0596_docked.pdbqt
 OpenBabel03162219533D

 29 32  0  0  0  0  0  0  0  0999 V2000
   42.5280   13.0980   45.9920 C   0  0  0  0  0  0  0  0  0  0  0  0
   41.5740   13.3980   46.9510 C   0  0  0  0  0  3  0  0  0  0  0  0
   41.7700   14.4480   47.8230 C   0  0  0  0  0  0  0  0  0  0  0  0
   40.8510   14.6600   48.6760 O   0  0  0  0  0  0  0  0  0  0  0  0
   42.8450   15.1720   47.7610 O   0  0  0  0  0  0  0  0  0  0  0  0
   43.7620   14.9490   46.9000 C   0  0  0  0  0  0  0  0  0  0  0  0
   43.6450   13.8970   45.9720 C   0  0  0  0  0  0  0  0  0  0  0  0
   44.6350   13.6910   45.0560 C   0  0  0  0  0  3  0  0  0  0  0  0
   45.7430   14.5450   45.0870 C   0  0  0  0  0  3  0  0  0  0  0  0
   45.8300   15.5650   46.0130 C   0  0  0  0  0  0  0  0  0  0  0  0
   44.8480   15.8040   46.9480 C   0  0  0  0  0  0  0  0  0  0  0  0
   46.9910   16.3660   45.9610 O   0  0  0  0  0  1  0  0  0  0  0  0
   42.3650   11.9520   45.0990 C   0  0  0  0  0  0  0  0  0  0  0  0
   41.3750   11.9380   44.1400 C   0  0  0  0  0  0  0  0  0  0  0  0
   41.2140   10.9160   43.3750 O   0  0  0  0  0  0  0  0  0  0  0  0
   40.6590   12.9860   44.0740 O   0  0  0  0  0  0  0  0  0  0  0  0
   41.9720    9.8210   43.4490 C   0  0  0  0  0  0  0  0  0  0  0  0
   42.9820    9.7720   44.3880 C   0  0  0  0  0  0  0  0  0  0  0  0
   41.7310    8.7600   42.5880 C   0  0  0  0  0  3  0  0  0  0  0  0
   43.7520    8.6250   44.4430 C   0  0  0  0  0  3  0  0  0  0  0  0
   43.1770   10.8460   45.2200 C   0  0  0  0  0  3  0  0  0  0  0  0
   43.5590    7.5360   43.6110 C   0  0  0  0  0  0  0  0  0  0  0  0
   44.6590    5.9970   43.7240 Br  0  0  0  0  0  0  0  0  0  0  0  0
   42.5190    7.6370   42.6770 C   0  0  0  0  0  3  0  0  0  0  0  0
   45.0560   16.8210   47.9430 C   0  0  0  0  0  2  0  0  0  0  0  0
   45.9560   16.7030   49.0170 N   0  0  0  0  0  4  0  0  0  0  0  0
   46.8960   17.7710   49.2180 C   0  0  0  0  0  1  0  0  0  0  0  0
   45.2810   16.2920   50.2750 C   0  0  0  0  0  1  0  0  0  0  0  0
   46.5780   15.8700   48.8070 H   0  0  0  0  0  0  0  0  0  0  0  0
  1  2  2  0  0  0  0
  2  3  1  0  0  0  0
  3  4  2  0  0  0  0
  5  3  1  0  0  0  0
  6 11  1  0  0  0  0
  6  5  1  0  0  0  0
  7  1  1  0  0  0  0
  7  6  2  0  0  0  0
  8  9  2  0  0  0  0
  8  7  1  0  0  0  0
  9 10  1  0  0  0  0
 10 11  2  0  0  0  0
 11 25  1  0  0  0  0
 12 10  1  0  0  0  0
 13 21  2  0  0  0  0
 13  1  1  0  0  0  0
 14 13  1  0  0  0  0
 15 17  1  0  0  0  0
 15 14  1  0  0  0  0
 16 14  2  0  0  0  0
 17 18  1  0  0  0  0
 18 20  2  0  0  0  0
 18 21  1  0  0  0  0
 19 24  1  0  0  0  0
 19 17  2  0  0  0  0
 22 23  1  0  0  0  0
 22 20  1  0  0  0  0
 24 22  2  0  0  0  0
 25 26  1  0  0  0  0
 26 27  1  0  0  0  0
 26 28  1  0  0  0  0
 29 26  1  0  0  0  0
M  END
>  <Pose>
1

>  <Score>
-7.475

$$$$
