MODEL 1
REMARK VINA RESULT:    -7.475      0.000      0.000
REMARK INTER + INTRA:          -9.325
REMARK INTER:                  -8.786
REMARK INTRA:                  -0.539
REMARK UNBOUND:                -0.539
REMARK  3 active torsions:
REMARK  status: ('A' for Active; 'I' for Inactive)
REMARK    1  A    between atoms: C_11  and  C_13 
REMARK    2  A    between atoms: C_23  and  C_24 
REMARK    3  A    between atoms: C_24  and  N_25 
ROOT
ATOM      1  C   UNK d   1      42.528  13.098  45.992  0.00  0.00    -0.001 A 
ATOM      2  C   UNK d   1      41.574  13.398  46.951  0.00  0.00     0.096 A 
ATOM      3  C   UNK d   1      41.770  14.448  47.823  0.00  0.00     0.289 A 
ATOM      4  O   UNK d   1      40.851  14.660  48.676  0.00  0.00    -0.260 OA
ATOM      5  O   UNK d   1      42.845  15.172  47.761  0.00  0.00    -0.274 OA
ATOM      6  C   UNK d   1      43.762  14.949  46.900  0.00  0.00     0.101 A 
ATOM      7  C   UNK d   1      43.645  13.897  45.972  0.00  0.00     0.010 A 
ATOM      8  C   UNK d   1      44.635  13.691  45.056  0.00  0.00     0.018 A 
ATOM      9  C   UNK d   1      45.743  14.545  45.087  0.00  0.00     0.041 A 
ATOM     10  C   UNK d   1      45.830  15.565  46.013  0.00  0.00     0.118 A 
ATOM     11  C   UNK d   1      44.848  15.804  46.948  0.00  0.00     0.039 A 
ATOM     12  O   UNK d   1      46.991  16.366  45.961  0.00  0.00    -0.191 OA
ENDROOT
BRANCH   1  13
ATOM     13  C   UNK d   1      42.365  11.952  45.099  0.00  0.00     0.052 A 
ATOM     14  C   UNK d   1      41.375  11.938  44.140  0.00  0.00     0.299 A 
ATOM     15  O   UNK d   1      41.214  10.916  43.375  0.00  0.00    -0.274 OA
ATOM     16  O   UNK d   1      40.659  12.986  44.074  0.00  0.00    -0.259 OA
ATOM     17  C   UNK d   1      41.972   9.821  43.449  0.00  0.00     0.089 A 
ATOM     18  C   UNK d   1      42.982   9.772  44.388  0.00  0.00     0.000 A 
ATOM     19  C   UNK d   1      41.731   8.760  42.588  0.00  0.00     0.039 A 
ATOM     20  C   UNK d   1      43.752   8.625  44.443  0.00  0.00     0.033 A 
ATOM     21  C   UNK d   1      43.177  10.846  45.220  0.00  0.00     0.032 A 
ATOM     22  C   UNK d   1      43.559   7.536  43.611  0.00  0.00     0.011 A 
ATOM     23 Br   UNK d   1      44.659   5.997  43.724  0.00  0.00    -0.051 Br
ATOM     24  C   UNK d   1      42.519   7.637  42.677  0.00  0.00     0.022 A 
ENDBRANCH   1  13
BRANCH  11  25
ATOM     25  C   UNK d   1      45.056  16.821  47.943  0.00  0.00     0.278 C 
BRANCH  25  26
ATOM     26  N   UNK d   1      45.956  16.703  49.017  0.00  0.00    -0.075 N 
ATOM     27  C   UNK d   1      46.896  17.771  49.218  0.00  0.00     0.269 C 
ATOM     28  C   UNK d   1      45.281  16.292  50.275  0.00  0.00     0.269 C 
ATOM     29  H   UNK d   1      46.578  15.870  48.807  0.00  0.00     0.279 HD
ENDBRANCH  25  26
ENDBRANCH  11  25
TORSDOF 3
ENDMDL
