MODEL 1
REMARK VINA RESULT:    -7.726      0.000      0.000
REMARK INTER + INTRA:         -10.824
REMARK INTER:                  -9.985
REMARK INTRA:                  -0.839
REMARK UNBOUND:                -0.839
REMARK  5 active torsions:
REMARK  status: ('A' for Active; 'I' for Inactive)
REMARK    1  A    between atoms: C_7  and  N_17 
REMARK    2  A    between atoms: C_9  and  C_10 
REMARK       I    between atoms: N_20  and  C_23 
REMARK    3  A    between atoms: C_23  and  C_25 
REMARK    4  A    between atoms: C_25  and  C_26 
REMARK    5  A    between atoms: C_26  and  C_27 
ROOT
ATOM      1 Br   UNK d   1      47.659  11.818  49.831  0.00  0.00    -0.051 Br
ATOM      2  C   UNK d   1      45.977  11.827  48.930  0.00  0.00     0.011 A 
ATOM      3  C   UNK d   1      45.745  12.696  47.867  0.00  0.00     0.035 A 
ATOM      4  C   UNK d   1      44.522  12.702  47.210  0.00  0.00     0.024 A 
ATOM      5  C   UNK d   1      43.522  11.842  47.609  0.00  0.00     0.073 A 
ATOM      6  N   UNK d   1      42.327  11.845  46.965  0.00  0.00    -0.207 NA
ATOM      7  C   UNK d   1      42.080  12.671  45.933  0.00  0.00     0.327 A 
ATOM      8  N   UNK d   1      43.063  13.500  45.561  0.00  0.00    -0.206 NA
ATOM      9  C   UNK d   1      44.270  13.552  46.153  0.00  0.00     0.085 A 
ATOM     10  C   UNK d   1      43.777  10.986  48.672  0.00  0.00     0.034 A 
ATOM     11  C   UNK d   1      44.983  10.962  49.337  0.00  0.00     0.021 A 
ENDROOT
BRANCH   7  12
ATOM     12  N   UNK d   1      40.806  12.643  45.276  0.00  0.00    -0.004 N 
ATOM     13  C   UNK d   1      39.955  11.664  45.895  0.00  0.00     0.265 C 
ATOM     14  C   UNK d   1      40.290  10.252  45.554  0.00  0.00     0.154 C 
ATOM     15  N   UNK d   1      41.198  10.152  44.433  0.00  0.00    -0.349 N 
ATOM     16  C   UNK d   1      41.013  11.103  43.359  0.00  0.00     0.154 C 
ATOM     17  C   UNK d   1      42.196   9.148  44.453  0.00  0.00     0.220 C 
ATOM     18  C   UNK d   1      40.906  12.512  43.855  0.00  0.00     0.265 C 
ATOM     19  O   UNK d   1      42.295   8.360  45.419  0.00  0.00    -0.273 OA
ATOM     20  H   UNK d   1      40.372  13.586  45.507  0.00  0.00     0.290 HD
BRANCH  17  21
ATOM     21  C   UNK d   1      43.105   9.088  43.272  0.00  0.00     0.113 C 
BRANCH  21  22
ATOM     22  C   UNK d   1      43.495   7.678  42.949  0.00  0.00     0.122 C 
BRANCH  22  23
ATOM     23  C   UNK d   1      44.907   7.383  43.236  0.00  0.00     0.172 C 
ATOM     24  O   UNK d   1      45.316   7.223  44.405  0.00  0.00    -0.648 OA
ATOM     25  O   UNK d   1      45.802   7.279  42.192  0.00  0.00    -0.648 OA
ENDBRANCH  22  23
ENDBRANCH  21  22
ENDBRANCH  17  21
ENDBRANCH   7  12
BRANCH   9  26
ATOM     26  C   UNK d   1      45.271  14.489  45.670  0.00  0.00     0.015 A 
ATOM     27  C   UNK d   1      45.499  15.682  46.342  0.00  0.00     0.046 A 
ATOM     28  C   UNK d   1      46.448  16.589  45.922  0.00  0.00     0.025 A 
ATOM     29 Cl   UNK d   1      44.526  16.023  47.775  0.00  0.00    -0.083 Cl
ATOM     30  C   UNK d   1      47.220  16.344  44.805  0.00  0.00     0.002 A 
ATOM     31  C   UNK d   1      46.991  15.150  44.133  0.00  0.00     0.001 A 
ATOM     32  C   UNK d   1      46.040  14.249  44.560  0.00  0.00     0.015 A 
ENDBRANCH   9  26
TORSDOF 5
ENDMDL
