/Users/jonathanwahrer/Desktop/Msc/3_Semester/Drug_Design_Praktikum/waehrer_HTS_screening/HTS_experiment/out/docking_results/vina_output/2qfa/0610_docked.pdbqt
 OpenBabel03162219533D

 32 35  0  0  0  0  0  0  0  0999 V2000
   47.6590   11.8180   49.8310 Br  0  0  0  0  0  0  0  0  0  0  0  0
   45.9770   11.8270   48.9300 C   0  0  0  0  0  0  0  0  0  0  0  0
   45.7450   12.6960   47.8670 C   0  0  0  0  0  3  0  0  0  0  0  0
   44.5220   12.7020   47.2100 C   0  0  0  0  0  0  0  0  0  0  0  0
   43.5220   11.8420   47.6090 C   0  0  0  0  0  0  0  0  0  0  0  0
   42.3270   11.8450   46.9650 N   0  0  0  0  0  0  0  0  0  0  0  0
   42.0800   12.6710   45.9330 C   0  0  0  0  0  0  0  0  0  0  0  0
   43.0630   13.5000   45.5610 N   0  0  0  0  0  0  0  0  0  0  0  0
   44.2700   13.5520   46.1530 C   0  0  0  0  0  0  0  0  0  0  0  0
   43.7770   10.9860   48.6720 C   0  0  0  0  0  3  0  0  0  0  0  0
   44.9830   10.9620   49.3370 C   0  0  0  0  0  3  0  0  0  0  0  0
   40.8060   12.6430   45.2760 N   0  0  0  0  0  4  0  0  0  0  0  0
   39.9550   11.6640   45.8950 C   0  0  0  0  0  2  0  0  0  0  0  0
   40.2900   10.2520   45.5540 C   0  0  0  0  0  2  0  0  0  0  0  0
   41.1980   10.1520   44.4330 N   0  0  0  0  0  0  0  0  0  0  0  0
   41.0130   11.1030   43.3590 C   0  0  0  0  0  2  0  0  0  0  0  0
   42.1960    9.1480   44.4530 C   0  0  0  0  0  0  0  0  0  0  0  0
   40.9060   12.5120   43.8550 C   0  0  0  0  0  2  0  0  0  0  0  0
   42.2950    8.3600   45.4190 O   0  0  0  0  0  0  0  0  0  0  0  0
   40.3720   13.5860   45.5070 H   0  0  0  0  0  0  0  0  0  0  0  0
   43.1050    9.0880   43.2720 C   0  0  0  0  0  2  0  0  0  0  0  0
   43.4950    7.6780   42.9490 C   0  0  0  0  0  2  0  0  0  0  0  0
   44.9070    7.3830   43.2360 C   0  0  0  0  0  0  0  0  0  0  0  0
   45.3160    7.2230   44.4050 O   0  0  0  0  0  1  0  0  0  0  0  0
   45.8020    7.2790   42.1920 O   0  0  0  0  0  0  0  0  0  0  0  0
   45.2710   14.4890   45.6700 C   0  0  0  0  0  0  0  0  0  0  0  0
   45.4990   15.6820   46.3420 C   0  0  0  0  0  0  0  0  0  0  0  0
   46.4480   16.5890   45.9220 C   0  0  0  0  0  3  0  0  0  0  0  0
   44.5260   16.0230   47.7750 Cl  0  0  0  0  0  0  0  0  0  0  0  0
   47.2200   16.3440   44.8050 C   0  0  0  0  0  3  0  0  0  0  0  0
   46.9910   15.1500   44.1330 C   0  0  0  0  0  3  0  0  0  0  0  0
   46.0400   14.2490   44.5600 C   0  0  0  0  0  3  0  0  0  0  0  0
  2 11  1  0  0  0  0
  2  1  1  0  0  0  0
  3  2  2  0  0  0  0
  4  5  2  0  0  0  0
  4  3  1  0  0  0  0
  5 10  1  0  0  0  0
  6  5  1  0  0  0  0
  7  6  2  0  0  0  0
  8  7  1  0  0  0  0
  8  9  2  0  0  0  0
  9  4  1  0  0  0  0
 10 11  2  0  0  0  0
 12 20  1  0  0  0  0
 12 13  1  0  0  0  0
 12  7  1  0  0  0  0
 14 13  1  0  0  0  0
 15 17  1  0  0  0  0
 15 14  1  0  0  0  0
 16 18  1  0  0  0  0
 16 15  1  0  0  0  0
 17 19  2  0  0  0  0
 18 12  1  0  0  0  0
 21 17  1  0  0  0  0
 22 23  1  0  0  0  0
 22 21  1  0  0  0  0
 23 24  1  0  0  0  0
 25 23  2  0  0  0  0
 26  9  1  0  0  0  0
 26 27  1  0  0  0  0
 27 29  1  0  0  0  0
 28 27  2  0  0  0  0
 30 28  1  0  0  0  0
 31 32  1  0  0  0  0
 31 30  2  0  0  0  0
 32 26  2  0  0  0  0
M  END
>  <Pose>
1

>  <Score>
-7.726

$$$$
