/Users/jonathanwahrer/Desktop/Msc/3_Semester/Drug_Design_Praktikum/waehrer_HTS_screening/HTS_experiment/out/docking_results/vina_output/2qfa/0611_docked.pdbqt
 OpenBabel03162219543D

 33 36  0  0  0  0  0  0  0  0999 V2000
   40.5460   17.6450   48.5570 Br  0  0  0  0  0  0  0  0  0  0  0  0
   41.1350   16.1350   47.5430 C   0  0  0  0  0  0  0  0  0  0  0  0
   40.2510   15.1910   47.0520 C   0  0  0  0  0  3  0  0  0  0  0  0
   40.6430   14.0920   46.3190 C   0  0  0  0  0  0  0  0  0  0  0  0
   41.9840   13.8970   46.0430 C   0  0  0  0  0  0  0  0  0  0  0  0
   42.3920   12.8180   45.3300 N   0  0  0  0  0  0  0  0  0  0  0  0
   41.5340   11.8970   44.8600 C   0  0  0  0  0  0  0  0  0  0  0  0
   40.2290   12.0870   45.1270 N   0  0  0  0  0  0  0  0  0  0  0  0
   39.7700   13.1460   45.8340 C   0  0  0  0  0  0  0  0  0  0  0  0
   42.8720   14.8320   46.5270 C   0  0  0  0  0  3  0  0  0  0  0  0
   42.4700   15.9380   47.2660 C   0  0  0  0  0  3  0  0  0  0  0  0
   41.9990   10.7780   44.1150 N   0  0  0  0  0  4  0  0  0  0  0  0
   43.3480   10.9940   43.6430 C   0  0  0  0  0  2  0  0  0  0  0  0
   43.9420    9.6690   43.2790 C   0  0  0  0  0  2  0  0  0  0  0  0
   42.8740    8.6960   43.1740 N   0  0  0  0  0  0  0  0  0  0  0  0
   41.6740    9.1010   42.4620 C   0  0  0  0  0  2  0  0  0  0  0  0
   43.0460    7.4290   43.7550 C   0  0  0  0  0  0  0  0  0  0  0  0
   41.1810   10.4600   42.9730 C   0  0  0  0  0  2  0  0  0  0  0  0
   42.1040    6.6040   43.6530 O   0  0  0  0  0  0  0  0  0  0  0  0
   41.9840    9.9560   44.7550 H   0  0  0  0  0  0  0  0  0  0  0  0
   44.2690    7.0480   44.4640 C   0  0  0  0  0  2  0  0  0  0  0  0
   44.8090    5.7660   43.8980 C   0  0  0  0  0  2  0  0  0  0  0  0
   45.5830    5.9770   42.6160 C   0  0  0  0  0  2  0  0  0  0  0  0
   46.5460    4.8940   42.3350 C   0  0  0  0  0  0  0  0  0  0  0  0
   46.4690    3.8570   43.0360 O   0  0  0  0  0  1  0  0  0  0  0  0
   47.4900    5.0450   41.3300 O   0  0  0  0  0  0  0  0  0  0  0  0
   38.3470   13.3010   46.0950 C   0  0  0  0  0  0  0  0  0  0  0  0
   37.7390   12.7260   47.2010 C   0  0  0  0  0  0  0  0  0  0  0  0
   36.3830   12.8500   47.4500 C   0  0  0  0  0  3  0  0  0  0  0  0
   38.7160   11.8050   48.3330 Cl  0  0  0  0  0  0  0  0  0  0  0  0
   35.6240   13.5880   46.5350 C   0  0  0  0  0  3  0  0  0  0  0  0
   36.1970   14.1720   45.4240 C   0  0  0  0  0  3  0  0  0  0  0  0
   37.5320   14.0240   45.2200 C   0  0  0  0  0  3  0  0  0  0  0  0
  2  1  1  0  0  0  0
  3  2  2  0  0  0  0
  4  3  1  0  0  0  0
  5  4  2  0  0  0  0
  5 10  1  0  0  0  0
  6  5  1  0  0  0  0
  7  8  1  0  0  0  0
  7  6  2  0  0  0  0
  8  9  2  0  0  0  0
  9 27  1  0  0  0  0
  9  4  1  0  0  0  0
 10 11  2  0  0  0  0
 11  2  1  0  0  0  0
 12 20  1  0  0  0  0
 12  7  1  0  0  0  0
 13 12  1  0  0  0  0
 14 13  1  0  0  0  0
 15 14  1  0  0  0  0
 15 17  1  0  0  0  0
 16 18  1  0  0  0  0
 16 15  1  0  0  0  0
 17 21  1  0  0  0  0
 18 12  1  0  0  0  0
 19 17  2  0  0  0  0
 22 21  1  0  0  0  0
 23 22  1  0  0  0  0
 24 23  1  0  0  0  0
 24 25  1  0  0  0  0
 26 24  2  0  0  0  0
 27 28  1  0  0  0  0
 28 29  2  0  0  0  0
 28 30  1  0  0  0  0
 31 29  1  0  0  0  0
 32 31  2  0  0  0  0
 33 32  1  0  0  0  0
 33 27  2  0  0  0  0
M  END
>  <Pose>
1

>  <Score>
-7.165

$$$$
