MODEL 1
REMARK VINA RESULT:    -7.165      0.000      0.000
REMARK INTER + INTRA:         -10.803
REMARK INTER:                  -9.678
REMARK INTRA:                  -1.125
REMARK UNBOUND:                -1.125
REMARK  6 active torsions:
REMARK  status: ('A' for Active; 'I' for Inactive)
REMARK    1  A    between atoms: C_7  and  N_17 
REMARK    2  A    between atoms: C_9  and  C_10 
REMARK       I    between atoms: N_20  and  C_23 
REMARK    3  A    between atoms: C_23  and  C_25 
REMARK    4  A    between atoms: C_25  and  C_26 
REMARK    5  A    between atoms: C_26  and  C_27 
REMARK    6  A    between atoms: C_27  and  C_28 
ROOT
ATOM      1 Br   UNK d   1      40.546  17.645  48.557  0.00  0.00    -0.051 Br
ATOM      2  C   UNK d   1      41.135  16.135  47.543  0.00  0.00     0.011 A 
ATOM      3  C   UNK d   1      40.251  15.191  47.052  0.00  0.00     0.035 A 
ATOM      4  C   UNK d   1      40.643  14.092  46.319  0.00  0.00     0.024 A 
ATOM      5  C   UNK d   1      41.984  13.897  46.043  0.00  0.00     0.073 A 
ATOM      6  N   UNK d   1      42.392  12.818  45.330  0.00  0.00    -0.207 NA
ATOM      7  C   UNK d   1      41.534  11.897  44.860  0.00  0.00     0.327 A 
ATOM      8  N   UNK d   1      40.229  12.087  45.127  0.00  0.00    -0.206 NA
ATOM      9  C   UNK d   1      39.770  13.146  45.834  0.00  0.00     0.085 A 
ATOM     10  C   UNK d   1      42.872  14.832  46.527  0.00  0.00     0.034 A 
ATOM     11  C   UNK d   1      42.470  15.938  47.266  0.00  0.00     0.021 A 
ENDROOT
BRANCH   7  12
ATOM     12  N   UNK d   1      41.999  10.778  44.115  0.00  0.00    -0.004 N 
ATOM     13  C   UNK d   1      43.348  10.994  43.643  0.00  0.00     0.265 C 
ATOM     14  C   UNK d   1      43.942   9.669  43.279  0.00  0.00     0.154 C 
ATOM     15  N   UNK d   1      42.874   8.696  43.174  0.00  0.00    -0.349 N 
ATOM     16  C   UNK d   1      41.674   9.101  42.462  0.00  0.00     0.154 C 
ATOM     17  C   UNK d   1      43.046   7.429  43.755  0.00  0.00     0.219 C 
ATOM     18  C   UNK d   1      41.181  10.460  42.973  0.00  0.00     0.265 C 
ATOM     19  O   UNK d   1      42.104   6.604  43.653  0.00  0.00    -0.273 OA
ATOM     20  H   UNK d   1      41.984   9.956  44.755  0.00  0.00     0.290 HD
BRANCH  17  21
ATOM     21  C   UNK d   1      44.269   7.048  44.464  0.00  0.00     0.103 C 
BRANCH  21  22
ATOM     22  C   UNK d   1      44.809   5.766  43.898  0.00  0.00     0.020 C 
BRANCH  22  23
ATOM     23  C   UNK d   1      45.583   5.977  42.616  0.00  0.00     0.113 C 
BRANCH  23  24
ATOM     24  C   UNK d   1      46.546   4.894  42.335  0.00  0.00     0.172 C 
ATOM     25  O   UNK d   1      46.469   3.857  43.036  0.00  0.00    -0.648 OA
ATOM     26  O   UNK d   1      47.490   5.045  41.330  0.00  0.00    -0.648 OA
ENDBRANCH  23  24
ENDBRANCH  22  23
ENDBRANCH  21  22
ENDBRANCH  17  21
ENDBRANCH   7  12
BRANCH   9  27
ATOM     27  C   UNK d   1      38.347  13.301  46.095  0.00  0.00     0.015 A 
ATOM     28  C   UNK d   1      37.739  12.726  47.201  0.00  0.00     0.046 A 
ATOM     29  C   UNK d   1      36.383  12.850  47.450  0.00  0.00     0.025 A 
ATOM     30 Cl   UNK d   1      38.716  11.805  48.333  0.00  0.00    -0.083 Cl
ATOM     31  C   UNK d   1      35.624  13.588  46.535  0.00  0.00     0.002 A 
ATOM     32  C   UNK d   1      36.197  14.172  45.424  0.00  0.00     0.001 A 
ATOM     33  C   UNK d   1      37.532  14.024  45.220  0.00  0.00     0.015 A 
ENDBRANCH   9  27
TORSDOF 6
ENDMDL
