MODEL 1
REMARK VINA RESULT:    -7.701      0.000      0.000
REMARK INTER + INTRA:          -9.708
REMARK INTER:                  -9.051
REMARK INTRA:                  -0.656
REMARK UNBOUND:                -0.656
REMARK  3 active torsions:
REMARK  status: ('A' for Active; 'I' for Inactive)
REMARK    1  A    between atoms: C_7  and  C_9 
REMARK       I    between atoms: C_9  and  N_11 
REMARK       I    between atoms: N_14  and  C_17 
REMARK    2  A    between atoms: C_17  and  C_19 
REMARK    3  A    between atoms: C_19  and  N_20 
ROOT
ATOM      1  C   UNK d   1      45.865   7.104  42.891  0.00  0.00     0.270 C 
ATOM      2  O   UNK d   1      46.177   8.008  42.025  0.00  0.00    -0.266 OA
ATOM      3  N   UNK d   1      44.585   7.207  43.437  0.00  0.00    -0.344 N 
ATOM      4  C   UNK d   1      44.005   6.339  44.426  0.00  0.00     0.146 C 
ATOM      5  C   UNK d   1      42.597   6.788  44.837  0.00  0.00     0.145 C 
ATOM      6  N   UNK d   1      42.631   8.215  45.121  0.00  0.00    -0.348 N 
ATOM      7  C   UNK d   1      43.358   9.117  44.227  0.00  0.00     0.145 C 
ATOM      8  C   UNK d   1      43.684   8.297  42.975  0.00  0.00     0.146 C 
ATOM      9  C   UNK d   1      41.976   8.752  46.251  0.00  0.00     0.248 C 
ATOM     10  O   UNK d   1      41.369   7.947  46.997  0.00  0.00    -0.271 OA
ENDROOT
BRANCH   1  11
ATOM     11  C   UNK d   1      46.848   6.089  43.213  0.00  0.00     0.102 A 
ATOM     12  N   UNK d   1      47.671   5.937  44.254  0.00  0.00    -0.351 N 
ATOM     13  C   UNK d   1      48.440   4.813  44.117  0.00  0.00     0.043 A 
ATOM     14  H   UNK d   1      47.763   6.543  45.082  0.00  0.00     0.166 HD
ATOM     15  C   UNK d   1      48.105   4.203  42.938  0.00  0.00    -0.006 A 
ATOM     16  C   UNK d   1      49.417   4.245  44.912  0.00  0.00     0.031 A 
ATOM     17  C   UNK d   1      48.752   3.024  42.559  0.00  0.00     0.032 A 
ATOM     18  C   UNK d   1      47.130   4.978  42.378  0.00  0.00     0.049 A 
ATOM     19  C   UNK d   1      49.723   2.455  43.342  0.00  0.00     0.011 A 
ATOM     20 Br   UNK d   1      50.618   0.837  42.831  0.00  0.00    -0.051 Br
ATOM     21  C   UNK d   1      50.054   3.074  44.527  0.00  0.00     0.021 A 
ENDBRANCH   1  11
BRANCH   9  22
ATOM     22  C   UNK d   1      42.034  10.184  46.497  0.00  0.00     0.374 C 
BRANCH  22  23
ATOM     23  N   UNK d   1      40.760  10.866  46.447  0.00  0.00     0.101 N 
ATOM     24  C   UNK d   1      40.174  10.682  45.118  0.00  0.00     0.299 C 
ATOM     25  C   UNK d   1      40.457  11.851  44.240  0.00  0.00     0.198 C 
ATOM     26  O   UNK d   1      41.720  12.374  44.507  0.00  0.00    -0.388 OA
ATOM     27  C   UNK d   1      41.757  12.995  45.757  0.00  0.00     0.198 C 
ATOM     28  C   UNK d   1      40.865  12.283  46.747  0.00  0.00     0.299 C 
ENDBRANCH  22  23
ENDBRANCH   9  22
TORSDOF 3
ENDMDL
