MODEL 1
REMARK VINA RESULT:    -7.048      0.000      0.000
REMARK INTER + INTRA:          -8.593
REMARK INTER:                  -8.284
REMARK INTRA:                  -0.309
REMARK UNBOUND:                -0.309
REMARK  3 active torsions:
REMARK  status: ('A' for Active; 'I' for Inactive)
REMARK    1  A    between atoms: N_11  and  C_14 
REMARK    2  A    between atoms: C_14  and  C_15 
REMARK    3  A    between atoms: C_15  and  N_16 
ROOT
ATOM      1 Br   UNK d   1      52.248   1.576  45.933  0.00  0.00    -0.051 Br
ATOM      2  C   UNK d   1      50.959   2.031  44.609  0.00  0.00     0.011 A 
ATOM      3  C   UNK d   1      50.182   3.165  44.722  0.00  0.00     0.035 A 
ATOM      4  C   UNK d   1      49.243   3.509  43.771  0.00  0.00     0.023 A 
ATOM      5  C   UNK d   1      49.091   2.677  42.678  0.00  0.00     0.045 A 
ATOM      6  N   UNK d   1      48.128   3.242  41.928  0.00  0.00    -0.349 N 
ATOM      7  C   UNK d   1      47.672   4.385  42.499  0.00  0.00     0.131 A 
ATOM      8  C   UNK d   1      48.371   4.571  43.673  0.00  0.00     0.103 A 
ATOM      9  N   UNK d   1      48.088   5.654  44.423  0.00  0.00    -0.240 NA
ATOM     10  C   UNK d   1      47.151   6.550  44.059  0.00  0.00     0.213 A 
ATOM     11  N   UNK d   1      46.457   6.395  42.923  0.00  0.00    -0.305 N 
ATOM     12  C   UNK d   1      46.723   5.323  42.162  0.00  0.00     0.277 A 
ATOM     13  O   UNK d   1      46.082   5.161  41.094  0.00  0.00    -0.265 OA
ATOM     14  C   UNK d   1      49.875   1.543  42.577  0.00  0.00     0.032 A 
ATOM     15  C   UNK d   1      50.816   1.191  43.524  0.00  0.00     0.021 A 
ATOM     16  H   UNK d   1      47.763   2.874  41.029  0.00  0.00     0.166 HD
ENDROOT
BRANCH  11  17
ATOM     17  C   UNK d   1      45.429   7.371  42.520  0.00  0.00     0.152 C 
BRANCH  17  18
ATOM     18  C   UNK d   1      44.275   7.317  43.444  0.00  0.00     0.137 C 
BRANCH  18  19
ATOM     19  N   UNK d   1      43.928   8.523  44.106  0.00  0.00    -0.408 N 
ATOM     20  C   UNK d   1      43.557   8.386  45.472  0.00  0.00     0.147 C 
ATOM     21  C   UNK d   1      42.072   8.311  45.685  0.00  0.00     0.289 C 
ATOM     22  N   UNK d   1      41.337   9.172  44.783  0.00  0.00     0.086 N 
ATOM     23  C   UNK d   1      42.204  10.174  44.188  0.00  0.00     0.289 C 
ATOM     24  H   UNK d   1      40.830   8.632  44.045  0.00  0.00     0.316 HD
ATOM     25  C   UNK d   1      43.180   9.429  43.311  0.00  0.00     0.147 C 
ENDBRANCH  18  19
ENDBRANCH  17  18
ENDBRANCH  11  17
TORSDOF 3
ENDMDL
