MODEL 1
REMARK VINA RESULT:    -7.170      0.000      0.000
REMARK INTER + INTRA:          -7.655
REMARK INTER:                  -7.589
REMARK INTRA:                  -0.066
REMARK UNBOUND:                -0.066
REMARK  1 active torsions:
REMARK  status: ('A' for Active; 'I' for Inactive)
REMARK    1  A    between atoms: C_10  and  C_15 
REMARK       I    between atoms: C_15  and  N_17 
ROOT
ATOM      1 Br   UNK d   1      42.238  13.208  48.155  0.00  0.00    -0.051 Br
ATOM      2  C   UNK d   1      42.196  12.097  46.609  0.00  0.00     0.012 A 
ATOM      3  C   UNK d   1      41.551  12.553  45.478  0.00  0.00     0.028 A 
ATOM      4  C   UNK d   1      41.503  11.760  44.325  0.00  0.00    -0.027 A 
ATOM      5  C   UNK d   1      42.104  10.543  44.357  0.00  0.00     0.055 A 
ATOM      6  C   UNK d   1      42.759  10.045  45.462  0.00  0.00     0.044 A 
ATOM      7  C   UNK d   1      42.793  10.839  46.579  0.00  0.00     0.037 A 
ATOM      8  C   UNK d   1      43.321   8.801  45.357  0.00  0.00     0.201 A 
ATOM      9  O   UNK d   1      43.916   8.340  46.346  0.00  0.00    -0.286 OA
ATOM     10  C   UNK d   1      43.253   8.043  44.198  0.00  0.00     0.098 A 
ATOM     11  C   UNK d   1      42.584   8.599  43.129  0.00  0.00     0.112 A 
ATOM     12  N   UNK d   1      42.016   9.844  43.224  0.00  0.00    -0.354 N 
ATOM     13  C   UNK d   1      41.273  10.649  42.280  0.00  0.00     0.133 A 
ATOM     14  C   UNK d   1      40.917  11.930  42.984  0.00  0.00     0.061 A 
ENDROOT
BRANCH  10  15
ATOM     15  C   UNK d   1      43.859   6.720  44.102  0.00  0.00     0.259 C 
ATOM     16  O   UNK d   1      43.345   5.766  44.730  0.00  0.00    -0.267 OA
ATOM     17  N   UNK d   1      45.029   6.504  43.301  0.00  0.00    -0.344 N 
ATOM     18  C   UNK d   1      45.649   5.201  43.189  0.00  0.00     0.152 C 
ATOM     19  C   UNK d   1      45.642   7.592  42.565  0.00  0.00     0.152 C 
ATOM     20  C   UNK d   1      47.123   5.400  43.565  0.00  0.00     0.187 C 
ATOM     21  O   UNK d   1      47.656   6.409  42.799  0.00  0.00    -0.388 OA
ATOM     22  C   UNK d   1      47.099   7.649  43.031  0.00  0.00     0.187 C 
ENDBRANCH  10  15
TORSDOF 1
ENDMDL
