/Users/jonathanwahrer/Desktop/Msc/3_Semester/Drug_Design_Praktikum/waehrer_HTS_screening/HTS_experiment/out/docking_results/vina_output/2qfa/0624_docked.pdbqt
 OpenBabel03162219543D

 22 25  0  0  0  0  0  0  0  0999 V2000
   42.2380   13.2080   48.1550 Br  0  0  0  0  0  0  0  0  0  0  0  0
   42.1960   12.0970   46.6090 C   0  0  0  0  0  0  0  0  0  0  0  0
   41.5510   12.5530   45.4780 C   0  0  0  0  0  3  0  0  0  0  0  0
   41.5030   11.7600   44.3250 C   0  0  0  0  0  0  0  0  0  0  0  0
   42.1040   10.5430   44.3570 C   0  0  0  0  0  0  0  0  0  0  0  0
   42.7590   10.0450   45.4620 C   0  0  0  0  0  0  0  0  0  0  0  0
   42.7930   10.8390   46.5790 C   0  0  0  0  0  3  0  0  0  0  0  0
   43.3210    8.8010   45.3570 C   0  0  0  0  0  0  0  0  0  0  0  0
   43.9160    8.3400   46.3460 O   0  0  0  0  0  0  0  0  0  0  0  0
   43.2530    8.0430   44.1980 C   0  0  0  0  0  0  0  0  0  0  0  0
   42.5840    8.5990   43.1290 C   0  0  0  0  0  3  0  0  0  0  0  0
   42.0160    9.8440   43.2240 N   0  0  0  0  0  0  0  0  0  0  0  0
   41.2730   10.6490   42.2800 C   0  0  0  0  0  3  0  0  0  0  0  0
   40.9170   11.9300   42.9840 C   0  0  0  0  0  3  0  0  0  0  0  0
   43.8590    6.7200   44.1020 C   0  0  0  0  0  0  0  0  0  0  0  0
   43.3450    5.7660   44.7300 O   0  0  0  0  0  0  0  0  0  0  0  0
   45.0290    6.5040   43.3010 N   0  0  0  0  0  0  0  0  0  0  0  0
   45.6490    5.2010   43.1890 C   0  0  0  0  0  2  0  0  0  0  0  0
   45.6420    7.5920   42.5650 C   0  0  0  0  0  2  0  0  0  0  0  0
   47.1230    5.4000   43.5650 C   0  0  0  0  0  2  0  0  0  0  0  0
   47.6560    6.4090   42.7990 O   0  0  0  0  0  0  0  0  0  0  0  0
   47.0990    7.6490   43.0310 C   0  0  0  0  0  2  0  0  0  0  0  0
  2  1  1  0  0  0  0
  3  2  2  0  0  0  0
  4  5  2  0  0  0  0
  4  3  1  0  0  0  0
  5  6  1  0  0  0  0
  6  7  2  0  0  0  0
  7  2  1  0  0  0  0
  8  6  1  0  0  0  0
  8  9  2  0  0  0  0
 10  8  1  0  0  0  0
 11 12  1  0  0  0  0
 11 10  2  0  0  0  0
 12  5  1  0  0  0  0
 13 14  2  0  0  0  0
 13 12  1  0  0  0  0
 14  4  1  0  0  0  0
 15 10  1  0  0  0  0
 15 16  2  0  0  0  0
 17 15  1  0  0  0  0
 18 17  1  0  0  0  0
 18 20  1  0  0  0  0
 19 22  1  0  0  0  0
 19 17  1  0  0  0  0
 21 22  1  0  0  0  0
 21 20  1  0  0  0  0
M  END
>  <Pose>
1

>  <Score>
-7.170

$$$$
