/Users/jonathanwahrer/Desktop/Msc/3_Semester/Drug_Design_Praktikum/waehrer_HTS_screening/HTS_experiment/out/docking_results/vina_output/2qfa/0625_docked.pdbqt
 OpenBabel03162219553D

 31 34  0  0  0  0  0  0  0  0999 V2000
   44.3660    8.1960   43.3030 Br  0  0  0  0  0  0  0  0  0  0  0  0
   43.1930    9.6300   43.6480 C   0  0  0  0  0  0  0  0  0  0  0  0
   43.5620   10.6780   44.4760 C   0  0  0  0  0  3  0  0  0  0  0  0
   42.7250   11.7190   44.7560 C   0  0  0  0  0  0  0  0  0  0  0  0
   42.9350   12.8520   45.4910 N   0  0  0  0  0  0  0  0  0  0  0  0
   41.8230   13.6010   45.3930 C   0  0  0  0  0  0  0  0  0  0  0  0
   40.8670   12.9120   44.5990 C   0  0  0  0  0  0  0  0  0  0  0  0
   41.4870   11.7490   44.2190 C   0  0  0  0  0  0  0  0  0  0  0  0
   41.0910   10.7050   43.3790 C   0  0  0  0  0  3  0  0  0  0  0  0
   41.9320    9.6410   43.0840 C   0  0  0  0  0  0  0  0  0  0  0  0
   44.0650   12.9500   46.4360 C   0  0  0  0  0  2  0  0  0  0  0  0
   45.0280   13.9820   45.8080 C   0  0  0  0  0  0  0  0  0  0  0  0
   45.3080   15.0690   46.5840 C   0  0  0  0  0  3  0  0  0  0  0  0
   46.1870   16.0450   46.0840 C   0  0  0  0  0  3  0  0  0  0  0  0
   46.7770   15.9480   44.8590 C   0  0  0  0  0  3  0  0  0  0  0  0
   46.4630   14.8170   44.1050 C   0  0  0  0  0  3  0  0  0  0  0  0
   45.5850   13.8400   44.5890 C   0  0  0  0  0  3  0  0  0  0  0  0
   41.5550   14.9440   45.9070 C   0  0  0  0  0  2  0  0  0  0  0  0
   40.9810   15.0860   47.2090 N   0  0  0  0  0  4  0  0  0  0  0  0
   39.7520   15.5120   47.5920 C   0  0  0  0  0  2  0  0  0  0  0  0
   39.9100   16.2470   48.9450 C   0  0  0  0  0  2  0  0  0  0  0  0
   41.1700   15.5650   49.4720 C   0  0  0  0  0  2  0  0  0  0  0  0
   41.9800   15.5560   48.1830 C   0  0  0  0  0  2  0  0  0  0  0  0
   41.0200   13.9520   47.5340 H   0  0  0  0  0  0  0  0  0  0  0  0
   39.4550   13.2550   44.3810 C   0  0  0  0  0  0  0  0  0  0  0  0
   39.1340   13.6770   43.2380 O   0  0  0  0  0  0  0  0  0  0  0  0
   38.4640   13.1440   45.2980 O   0  0  0  0  0  0  0  0  0  0  0  0
   38.1740   12.1660   46.2310 C   0  0  0  0  0  2  0  0  0  0  0  0
   38.0910   10.7540   45.6640 C   0  0  0  0  0  1  0  0  0  0  0  0
   41.5670    8.5800   42.2350 O   0  0  0  0  0  0  0  0  0  0  0  0
   40.6110    8.5540   41.8520 H   0  0  0  0  0  0  0  0  0  0  0  0
  1  2  1  0  0  0  0
  2  3  1  0  0  0  0
  3  4  2  0  0  0  0
  4  5  1  0  0  0  0
  5 11  1  0  0  0  0
  6  5  1  0  0  0  0
  6 18  1  0  0  0  0
  7  6  2  0  0  0  0
  8  7  1  0  0  0  0
  8  4  1  0  0  0  0
  9  8  2  0  0  0  0
 10  9  1  0  0  0  0
 10  2  2  0  0  0  0
 12 11  1  0  0  0  0
 12 13  1  0  0  0  0
 14 13  2  0  0  0  0
 15 14  1  0  0  0  0
 16 17  1  0  0  0  0
 16 15  2  0  0  0  0
 17 12  2  0  0  0  0
 18 19  1  0  0  0  0
 19 24  1  0  0  0  0
 19 20  1  0  0  0  0
 19 23  1  0  0  0  0
 20 21  1  0  0  0  0
 21 22  1  0  0  0  0
 23 22  1  0  0  0  0
 25  7  1  0  0  0  0
 25 27  1  0  0  0  0
 26 25  2  0  0  0  0
 27 28  1  0  0  0  0
 29 28  1  0  0  0  0
 30 10  1  0  0  0  0
 31 30  1  0  0  0  0
M  END
>  <Pose>
1

>  <Score>
-6.280

$$$$
