MODEL 1
REMARK VINA RESULT:    -6.280      0.000      0.000
REMARK INTER + INTRA:         -10.934
REMARK INTER:                  -9.033
REMARK INTRA:                  -1.900
REMARK UNBOUND:                -1.900
REMARK  8 active torsions:
REMARK  status: ('A' for Active; 'I' for Inactive)
REMARK    1  A    between atoms: N_5  and  C_23 
REMARK    2  A    between atoms: C_6  and  C_17 
REMARK    3  A    between atoms: C_7  and  C_12 
REMARK    4  A    between atoms: C_10  and  O_11 
REMARK    5  A    between atoms: C_12  and  O_14 
REMARK    6  A    between atoms: O_14  and  C_15 
REMARK    7  A    between atoms: C_17  and  N_18 
REMARK    8  A    between atoms: C_23  and  C_24 
ROOT
ATOM      1 Br   UNK d   1      44.366   8.196  43.303  0.00  0.00    -0.048 Br
ATOM      2  C   UNK d   1      43.193   9.630  43.648  0.00  0.00     0.046 A 
ATOM      3  C   UNK d   1      43.562  10.678  44.476  0.00  0.00     0.052 A 
ATOM      4  C   UNK d   1      42.725  11.719  44.756  0.00  0.00     0.048 A 
ATOM      5  N   UNK d   1      42.935  12.852  45.491  0.00  0.00    -0.343 N 
ATOM      6  C   UNK d   1      41.823  13.601  45.393  0.00  0.00     0.055 A 
ATOM      7  C   UNK d   1      40.867  12.912  44.599  0.00  0.00     0.076 A 
ATOM      8  C   UNK d   1      41.487  11.749  44.219  0.00  0.00     0.012 A 
ATOM      9  C   UNK d   1      41.091  10.705  43.379  0.00  0.00     0.052 A 
ATOM     10  C   UNK d   1      41.932   9.641  43.084  0.00  0.00     0.084 A 
ENDROOT
BRANCH   5  11
ATOM     11  C   UNK d   1      44.065  12.950  46.436  0.00  0.00     0.167 C 
BRANCH  11  12
ATOM     12  C   UNK d   1      45.028  13.982  45.808  0.00  0.00    -0.040 A 
ATOM     13  C   UNK d   1      45.308  15.069  46.584  0.00  0.00     0.009 A 
ATOM     14  C   UNK d   1      46.187  16.045  46.084  0.00  0.00     0.001 A 
ATOM     15  C   UNK d   1      46.777  15.948  44.859  0.00  0.00     0.000 A 
ATOM     16  C   UNK d   1      46.463  14.817  44.105  0.00  0.00     0.001 A 
ATOM     17  C   UNK d   1      45.585  13.840  44.589  0.00  0.00     0.009 A 
ENDBRANCH  11  12
ENDBRANCH   5  11
BRANCH   6  18
ATOM     18  C   UNK d   1      41.555  14.944  45.907  0.00  0.00     0.292 C 
BRANCH  18  19
ATOM     19  N   UNK d   1      40.981  15.086  47.209  0.00  0.00    -0.066 N 
ATOM     20  C   UNK d   1      39.752  15.512  47.592  0.00  0.00     0.235 C 
ATOM     21  C   UNK d   1      39.910  16.247  48.945  0.00  0.00     0.029 C 
ATOM     22  C   UNK d   1      41.170  15.565  49.472  0.00  0.00     0.029 C 
ATOM     23  C   UNK d   1      41.980  15.556  48.183  0.00  0.00     0.235 C 
ATOM     24  H   UNK d   1      41.020  13.952  47.534  0.00  0.00     0.280 HD
ENDBRANCH  18  19
ENDBRANCH   6  18
BRANCH   7  25
ATOM     25  C   UNK d   1      39.455  13.255  44.381  0.00  0.00     0.296 C 
ATOM     26  O   UNK d   1      39.134  13.677  43.238  0.00  0.00    -0.259 OA
BRANCH  25  27
ATOM     27  O   UNK d   1      38.464  13.144  45.298  0.00  0.00    -0.318 OA
BRANCH  27  28
ATOM     28  C   UNK d   1      38.174  12.166  46.231  0.00  0.00     0.174 C 
ATOM     29  C   UNK d   1      38.091  10.754  45.664  0.00  0.00     0.034 C 
ENDBRANCH  27  28
ENDBRANCH  25  27
ENDBRANCH   7  25
BRANCH  10  30
ATOM     30  O   UNK d   1      41.567   8.580  42.235  0.00  0.00    -0.359 OA
ATOM     31  H   UNK d   1      40.611   8.554  41.852  0.00  0.00     0.217 HD
ENDBRANCH  10  30
TORSDOF 8
ENDMDL
