MODEL 1
REMARK VINA RESULT:    -7.357      0.000      0.000
REMARK INTER + INTRA:         -10.757
REMARK INTER:                 -10.153
REMARK INTRA:                  -0.605
REMARK UNBOUND:                -0.605
REMARK  7 active torsions:
REMARK  status: ('A' for Active; 'I' for Inactive)
REMARK    1  A    between atoms: C_6  and  O_28 
REMARK    2  A    between atoms: C_10  and  N_11 
REMARK       I    between atoms: N_11  and  C_12 
REMARK    3  A    between atoms: C_12  and  C_14 
REMARK    4  A    between atoms: C_14  and  N_15 
REMARK    5  A    between atoms: N_18  and  C_21 
REMARK    6  A    between atoms: C_21  and  C_22 
REMARK       I    between atoms: C_22  and  N_24 
REMARK    7  A    between atoms: N_24  and  C_25 
ROOT
ATOM      1  N   UNK d   1      42.770  11.062  43.981  0.00  0.00    -0.324 N 
ATOM      2  C   UNK d   1      42.631   9.743  44.431  0.00  0.00     0.239 C 
ATOM      3  O   UNK d   1      42.709   9.481  45.659  0.00  0.00    -0.271 OA
ATOM      4  H   UNK d   1      42.671  11.186  42.928  0.00  0.00     0.169 HD
ENDROOT
BRANCH   2   5
ATOM      5  C   UNK d   1      42.393   8.597  43.547  0.00  0.00     0.220 C 
BRANCH   5   6
ATOM      6  N   UNK d   1      43.455   7.701  43.317  0.00  0.00    -0.401 N 
ATOM      7  C   UNK d   1      44.780   8.205  43.353  0.00  0.00     0.136 C 
ATOM      8  C   UNK d   1      45.770   7.278  42.646  0.00  0.00     0.136 C 
ATOM      9  N   UNK d   1      45.641   6.000  43.205  0.00  0.00    -0.401 N 
ATOM     10  C   UNK d   1      44.606   5.766  44.134  0.00  0.00     0.136 C 
ATOM     11  C   UNK d   1      43.275   6.384  43.826  0.00  0.00     0.136 C 
BRANCH   9  12
ATOM     12  C   UNK d   1      46.201   4.944  42.492  0.00  0.00     0.219 C 
BRANCH  12  13
ATOM     13  C   UNK d   1      47.467   4.375  42.957  0.00  0.00     0.235 C 
ATOM     14  O   UNK d   1      48.130   3.712  42.068  0.00  0.00    -0.272 OA
ATOM     15  N   UNK d   1      48.033   4.461  44.224  0.00  0.00    -0.355 N 
ATOM     16  H   UNK d   1      47.553   4.989  44.981  0.00  0.00     0.162 HD
BRANCH  15  17
ATOM     17  C   UNK d   1      49.312   3.849  44.574  0.00  0.00     0.084 A 
ATOM     18  C   UNK d   1      50.327   4.598  45.331  0.00  0.00     0.027 A 
ATOM     19  C   UNK d   1      49.547   3.499  46.027  0.00  0.00     0.027 A 
ENDBRANCH  15  17
ENDBRANCH  12  13
ENDBRANCH   9  12
ENDBRANCH   5   6
ENDBRANCH   2   5
BRANCH   1  20
ATOM     20  C   UNK d   1      43.002  12.217  44.760  0.00  0.00     0.054 A 
ATOM     21  C   UNK d   1      41.918  12.948  45.219  0.00  0.00     0.040 A 
ATOM     22 Br   UNK d   1      40.166  12.338  44.730  0.00  0.00    -0.049 Br
ATOM     23  C   UNK d   1      42.035  14.080  45.994  0.00  0.00     0.055 A 
ATOM     24  C   UNK d   1      43.272  14.552  46.356  0.00  0.00     0.089 A 
ATOM     25  N   UNK d   1      43.739  15.588  47.078  0.00  0.00    -0.207 NA
ATOM     26  C   UNK d   1      44.355  13.846  45.913  0.00  0.00     0.066 A 
ATOM     27  C   UNK d   1      45.085  15.569  47.112  0.00  0.00     0.244 A 
ATOM     28  N   UNK d   1      45.440  14.491  46.390  0.00  0.00    -0.319 N 
ATOM     29  H   UNK d   1      46.435  14.180  46.212  0.00  0.00     0.169 HD
ATOM     30  C   UNK d   1      44.241  12.693  45.124  0.00  0.00     0.063 A 
BRANCH  27  31
ATOM     31  O   UNK d   1      45.925  16.489  47.769  0.00  0.00    -0.331 OA
ATOM     32  H   UNK d   1      45.716  16.635  48.765  0.00  0.00     0.221 HD
ENDBRANCH  27  31
ENDBRANCH   1  20
TORSDOF 7
ENDMDL
