MODEL 1
REMARK VINA RESULT:    -8.436      0.000      0.000
REMARK INTER + INTRA:         -11.749
REMARK INTER:                 -10.902
REMARK INTRA:                  -0.847
REMARK UNBOUND:                -0.847
REMARK  5 active torsions:
REMARK  status: ('A' for Active; 'I' for Inactive)
REMARK    1  A    between atoms: C_7  and  N_11 
REMARK    2  A    between atoms: C_13  and  C_17 
REMARK       I    between atoms: C_17  and  N_19 
REMARK    3  A    between atoms: N_19  and  C_20 
REMARK    4  A    between atoms: C_20  and  C_21 
REMARK    5  A    between atoms: C_21  and  C_22 
ROOT
ATOM      1  N   UNK d   1      42.097  10.129  44.529  0.00  0.00    -0.301 N 
ATOM      2  C   UNK d   1      42.507  11.143  45.526  0.00  0.00     0.148 C 
ATOM      3  C   UNK d   1      41.340  12.117  45.520  0.00  0.00     0.105 C 
ATOM      4  C   UNK d   1      40.870  12.067  44.082  0.00  0.00     0.119 C 
ATOM      5  C   UNK d   1      41.436  10.832  43.480  0.00  0.00     0.226 C 
ATOM      6  O   UNK d   1      41.362  10.468  42.299  0.00  0.00    -0.273 OA
ENDROOT
BRANCH   3   7
ATOM      7  C   UNK d   1      41.907  13.411  45.933  0.00  0.00     0.223 C 
ATOM      8  O   UNK d   1      41.177  14.325  46.383  0.00  0.00    -0.273 OA
ATOM      9  N   UNK d   1      43.310  13.597  45.810  0.00  0.00    -0.360 N 
ATOM     10  H   UNK d   1      43.876  12.815  45.425  0.00  0.00     0.162 HD
BRANCH   9  11
ATOM     11  C   UNK d   1      43.950  14.834  46.201  0.00  0.00     0.128 C 
BRANCH  11  12
ATOM     12  C   UNK d   1      45.424  14.659  46.500  0.00  0.00     0.080 C 
BRANCH  12  13
ATOM     13  C   UNK d   1      46.250  15.240  45.424  0.00  0.00     0.052 A 
ATOM     14  N   UNK d   1      46.950  16.379  45.551  0.00  0.00    -0.247 NA
ATOM     15  C   UNK d   1      47.599  16.647  44.417  0.00  0.00     0.207 A 
ATOM     16  N   UNK d   1      47.310  15.654  43.533  0.00  0.00    -0.359 N 
ATOM     17  C   UNK d   1      46.489  14.803  44.157  0.00  0.00     0.116 A 
ATOM     18  H   UNK d   1      47.700  15.636  42.564  0.00  0.00     0.166 HD
ENDBRANCH  12  13
ENDBRANCH  11  12
ENDBRANCH   9  11
ENDBRANCH   3   7
BRANCH   1  19
ATOM     19  C   UNK d   1      42.355   8.759  44.723  0.00  0.00     0.139 A 
ATOM     20  N   UNK d   1      41.709   7.849  45.465  0.00  0.00    -0.261 N 
ATOM     21  N   UNK d   1      42.284   6.654  45.363  0.00  0.00    -0.172 NA
ATOM     22  H   UNK d   1      40.870   8.016  46.053  0.00  0.00     0.191 HD
ATOM     23  C   UNK d   1      43.343   6.730  44.539  0.00  0.00     0.092 A 
ATOM     24  C   UNK d   1      44.258   5.799  44.104  0.00  0.00     0.053 A 
ATOM     25  C   UNK d   1      43.406   8.034  44.128  0.00  0.00     0.040 A 
ATOM     26  C   UNK d   1      45.251   6.234  43.228  0.00  0.00     0.013 A 
ATOM     27 Br   UNK d   1      46.574   5.021  42.560  0.00  0.00    -0.051 Br
ATOM     28  C   UNK d   1      45.300   7.560  42.822  0.00  0.00     0.020 A 
ATOM     29  C   UNK d   1      44.376   8.471  43.270  0.00  0.00     0.019 A 
ENDBRANCH   1  19
TORSDOF 5
ENDMDL
