/Users/jonathanwahrer/Desktop/Msc/3_Semester/Drug_Design_Praktikum/waehrer_HTS_screening/HTS_experiment/out/docking_results/vina_output/2qfa/0631_docked.pdbqt
 OpenBabel03162219553D

 29 32  0  0  1  0  0  0  0  0999 V2000
   42.0970   10.1290   44.5290 N   0  0  0  0  0  0  0  0  0  0  0  0
   42.5070   11.1430   45.5260 C   0  0  0  0  0  2  0  0  0  0  0  0
   41.3400   12.1170   45.5200 C   0  0  2  0  0  3  0  0  0  0  0  0
   40.8700   12.0670   44.0820 C   0  0  0  0  0  2  0  0  0  0  0  0
   41.4360   10.8320   43.4800 C   0  0  0  0  0  0  0  0  0  0  0  0
   41.3620   10.4680   42.2990 O   0  0  0  0  0  0  0  0  0  0  0  0
   41.9070   13.4110   45.9330 C   0  0  0  0  0  0  0  0  0  0  0  0
   41.1770   14.3250   46.3830 O   0  0  0  0  0  0  0  0  0  0  0  0
   43.3100   13.5970   45.8100 N   0  0  0  0  0  0  0  0  0  0  0  0
   43.8760   12.8150   45.4250 H   0  0  0  0  0  0  0  0  0  0  0  0
   43.9500   14.8340   46.2010 C   0  0  0  0  0  2  0  0  0  0  0  0
   45.4240   14.6590   46.5000 C   0  0  0  0  0  2  0  0  0  0  0  0
   46.2500   15.2400   45.4240 C   0  0  0  0  0  0  0  0  0  0  0  0
   46.9500   16.3790   45.5510 N   0  0  0  0  0  0  0  0  0  0  0  0
   47.5990   16.6470   44.4170 C   0  0  0  0  0  3  0  0  0  0  0  0
   47.3100   15.6540   43.5330 N   0  0  0  0  0  0  0  0  0  0  0  0
   46.4890   14.8030   44.1570 C   0  0  0  0  0  3  0  0  0  0  0  0
   47.7000   15.6360   42.5640 H   0  0  0  0  0  0  0  0  0  0  0  0
   42.3550    8.7590   44.7230 C   0  0  0  0  0  0  0  0  0  0  0  0
   41.7090    7.8490   45.4650 N   0  0  0  0  0  0  0  0  0  0  0  0
   42.2840    6.6540   45.3630 N   0  0  0  0  0  0  0  0  0  0  0  0
   40.8700    8.0160   46.0530 H   0  0  0  0  0  0  0  0  0  0  0  0
   43.3430    6.7300   44.5390 C   0  0  0  0  0  0  0  0  0  0  0  0
   44.2580    5.7990   44.1040 C   0  0  0  0  0  3  0  0  0  0  0  0
   43.4060    8.0340   44.1280 C   0  0  0  0  0  0  0  0  0  0  0  0
   45.2510    6.2340   43.2280 C   0  0  0  0  0  0  0  0  0  0  0  0
   46.5740    5.0210   42.5600 Br  0  0  0  0  0  0  0  0  0  0  0  0
   45.3000    7.5600   42.8220 C   0  0  0  0  0  3  0  0  0  0  0  0
   44.3760    8.4710   43.2700 C   0  0  0  0  0  3  0  0  0  0  0  0
  1 19  1  0  0  0  0
  1  2  1  0  0  0  0
  3  2  1  0  0  0  0
  3  7  1  6  0  0  0
  4  3  1  0  0  0  0
  5  4  1  0  0  0  0
  5  1  1  0  0  0  0
  6  5  2  0  0  0  0
  7  8  2  0  0  0  0
  9  7  1  0  0  0  0
  9 11  1  0  0  0  0
 10  9  1  0  0  0  0
 11 12  1  0  0  0  0
 13 14  1  0  0  0  0
 13 12  1  0  0  0  0
 15 14  2  0  0  0  0
 16 17  1  0  0  0  0
 16 15  1  0  0  0  0
 17 13  2  0  0  0  0
 18 16  1  0  0  0  0
 19 20  1  0  0  0  0
 20 22  1  0  0  0  0
 21 20  1  0  0  0  0
 23 21  2  0  0  0  0
 24 23  1  0  0  0  0
 25 23  1  0  0  0  0
 25 19  2  0  0  0  0
 26 24  2  0  0  0  0
 27 26  1  0  0  0  0
 28 26  1  0  0  0  0
 28 29  2  0  0  0  0
 29 25  1  0  0  0  0
M  END
>  <Pose>
1

>  <Score>
-8.436

$$$$
