/Users/jonathanwahrer/Desktop/Msc/3_Semester/Drug_Design_Praktikum/waehrer_HTS_screening/HTS_experiment/out/docking_results/vina_output/2qfa/0653_docked.pdbqt
 OpenBabel03162219563D

 29 32  0  0  0  0  0  0  0  0999 V2000
   42.8280   12.0650   44.9270 C   0  0  0  0  0  0  0  0  0  0  0  0
   41.5400   11.7790   45.2990 C   0  0  0  0  0  0  0  0  0  0  0  0
   40.8630   12.5690   46.2110 C   0  0  0  0  0  0  0  0  0  0  0  0
   41.4650   13.6700   46.7770 C   0  0  0  0  0  0  0  0  0  0  0  0
   42.7890   13.9750   46.4050 C   0  0  0  0  0  0  0  0  0  0  0  0
   43.4570   13.1930   45.5010 C   0  0  0  0  0  0  0  0  0  0  0  0
   44.8310   13.5270   45.1150 C   0  0  0  0  0  2  0  0  0  0  0  0
   45.6110   14.3810   46.0320 C   0  0  0  0  0  2  0  0  0  0  0  0
   44.8130   15.3800   46.7320 N   0  0  0  0  0  0  0  0  0  0  0  0
   43.4560   15.1020   47.0490 C   0  0  0  0  0  0  0  0  0  0  0  0
   42.8540   15.8410   47.8850 O   0  0  0  0  0  0  0  0  0  0  0  0
   45.4770   16.6140   47.0860 C   0  0  0  0  0  1  0  0  0  0  0  0
   39.6080   12.0120   46.3570 O   0  0  0  0  0  0  0  0  0  0  0  0
   39.4090   10.9870   45.4160 C   0  0  0  0  0  2  0  0  0  0  0  0
   40.7010   10.7220   44.8760 O   0  0  0  0  0  0  0  0  0  0  0  0
   43.5920   11.2160   43.9880 C   0  0  0  0  0  2  0  0  0  0  0  0
   43.7570    9.8490   44.4500 N   0  0  0  0  0  0  0  0  0  0  0  0
   43.2660    8.6800   43.9120 C   0  0  0  0  0  0  0  0  0  0  0  0
   42.5500    8.6770   42.8600 O   0  0  0  0  0  0  0  0  0  0  0  0
   44.3550    9.7800   45.3330 H   0  0  0  0  0  0  0  0  0  0  0  0
   43.5540    7.3640   44.5450 C   0  0  0  0  0  2  0  0  0  0  0  0
   44.8140    6.8750   43.9510 N   0  0  0  0  0  0  0  0  0  0  0  0
   45.0900    5.6380   43.5500 C   0  0  0  0  0  3  0  0  0  0  0  0
   46.3740    5.6250   43.0580 C   0  0  0  0  0  0  0  0  0  0  0  0
   47.3360    4.1380   42.3430 Br  0  0  0  0  0  0  0  0  0  0  0  0
   46.8800    6.9000   43.1700 C   0  0  0  0  0  3  0  0  0  0  0  0
   45.8910    7.6210   43.7190 N   0  0  0  0  0  0  0  0  0  0  0  0
   40.8200   14.4840   47.6900 O   0  0  0  0  0  0  0  0  0  0  0  0
   39.6180   15.1470   47.3590 C   0  0  0  0  0  1  0  0  0  0  0  0
  1  2  2  0  0  0  0
  1  6  1  0  0  0  0
  2  3  1  0  0  0  0
  3 13  1  0  0  0  0
  3  4  2  0  0  0  0
  4 28  1  0  0  0  0
  5  4  1  0  0  0  0
  5 10  1  0  0  0  0
  6  5  2  0  0  0  0
  7  6  1  0  0  0  0
  7  8  1  0  0  0  0
  8  9  1  0  0  0  0
  9 10  1  0  0  0  0
  9 12  1  0  0  0  0
 10 11  2  0  0  0  0
 14 13  1  0  0  0  0
 15  2  1  0  0  0  0
 15 14  1  0  0  0  0
 16 17  1  0  0  0  0
 16  1  1  0  0  0  0
 17 20  1  0  0  0  0
 18 17  1  0  0  0  0
 18 21  1  0  0  0  0
 19 18  2  0  0  0  0
 22 21  1  0  0  0  0
 23 22  1  0  0  0  0
 24 26  1  0  0  0  0
 24 23  2  0  0  0  0
 25 24  1  0  0  0  0
 26 27  2  0  0  0  0
 27 22  1  0  0  0  0
 29 28  1  0  0  0  0
M  END
>  <Pose>
1

>  <Score>
-6.932

$$$$
