MODEL 1
REMARK VINA RESULT:    -6.932      0.000      0.000
REMARK INTER + INTRA:          -9.987
REMARK INTER:                  -8.959
REMARK INTRA:                  -1.028
REMARK UNBOUND:                -1.028
REMARK  5 active torsions:
REMARK  status: ('A' for Active; 'I' for Inactive)
REMARK    1  A    between atoms: N_4  and  C_7 
REMARK    2  A    between atoms: C_7  and  C_8 
REMARK       I    between atoms: C_8  and  N_10 
REMARK    3  A    between atoms: N_10  and  C_11 
REMARK    4  A    between atoms: C_11  and  C_12 
REMARK    5  A    between atoms: C_15  and  O_24 
ROOT
ATOM      1  C   UNK d   1      42.828  12.065  44.927  0.00  0.00     0.003 A 
ATOM      2  C   UNK d   1      41.540  11.779  45.299  0.00  0.00     0.116 A 
ATOM      3  C   UNK d   1      40.863  12.569  46.211  0.00  0.00     0.140 A 
ATOM      4  C   UNK d   1      41.465  13.670  46.777  0.00  0.00     0.120 A 
ATOM      5  C   UNK d   1      42.789  13.975  46.405  0.00  0.00     0.075 A 
ATOM      6  C   UNK d   1      43.457  13.193  45.501  0.00  0.00    -0.027 A 
ATOM      7  C   UNK d   1      44.831  13.527  45.115  0.00  0.00     0.060 C 
ATOM      8  C   UNK d   1      45.611  14.381  46.032  0.00  0.00     0.130 C 
ATOM      9  N   UNK d   1      44.813  15.380  46.732  0.00  0.00    -0.352 N 
ATOM     10  C   UNK d   1      43.456  15.102  47.049  0.00  0.00     0.256 C 
ATOM     11  O   UNK d   1      42.854  15.841  47.885  0.00  0.00    -0.267 OA
ATOM     12  C   UNK d   1      45.477  16.614  47.086  0.00  0.00     0.152 C 
ATOM     13  O   UNK d   1      39.608  12.012  46.357  0.00  0.00    -0.320 OA
ATOM     14  C   UNK d   1      39.409  10.987  45.416  0.00  0.00     0.352 C 
ATOM     15  O   UNK d   1      40.701  10.722  44.876  0.00  0.00    -0.322 OA
ENDROOT
BRANCH   1  16
ATOM     16  C   UNK d   1      43.592  11.216  43.988  0.00  0.00     0.164 C 
BRANCH  16  17
ATOM     17  N   UNK d   1      43.757   9.849  44.450  0.00  0.00    -0.355 N 
ATOM     18  C   UNK d   1      43.266   8.680  43.912  0.00  0.00     0.237 C 
ATOM     19  O   UNK d   1      42.550   8.677  42.860  0.00  0.00    -0.272 OA
ATOM     20  H   UNK d   1      44.355   9.780  45.333  0.00  0.00     0.162 HD
BRANCH  18  21
ATOM     21  C   UNK d   1      43.554   7.364  44.545  0.00  0.00     0.253 C 
BRANCH  21  22
ATOM     22  N   UNK d   1      44.814   6.875  43.951  0.00  0.00    -0.271 N 
ATOM     23  C   UNK d   1      45.090   5.638  43.550  0.00  0.00     0.133 A 
ATOM     24  C   UNK d   1      46.374   5.625  43.058  0.00  0.00     0.047 A 
ATOM     25 Br   UNK d   1      47.336   4.138  42.343  0.00  0.00    -0.048 Br
ATOM     26  C   UNK d   1      46.880   6.900  43.170  0.00  0.00     0.159 A 
ATOM     27  N   UNK d   1      45.891   7.621  43.719  0.00  0.00    -0.183 NA
ENDBRANCH  21  22
ENDBRANCH  18  21
ENDBRANCH  16  17
ENDBRANCH   1  16
BRANCH   4  28
ATOM     28  O   UNK d   1      40.820  14.484  47.690  0.00  0.00    -0.352 OA
ATOM     29  C   UNK d   1      39.618  15.147  47.359  0.00  0.00     0.210 C 
ENDBRANCH   4  28
TORSDOF 5
ENDMDL
