MODEL 1
REMARK VINA RESULT:    -7.648      0.000      0.000
REMARK INTER + INTRA:          -9.402
REMARK INTER:                  -8.989
REMARK INTRA:                  -0.413
REMARK UNBOUND:                -0.413
REMARK  3 active torsions:
REMARK  status: ('A' for Active; 'I' for Inactive)
REMARK    1  A    between atoms: N_4  and  C_7 
REMARK    2  A    between atoms: C_7  and  N_8 
REMARK    3  A    between atoms: C_10  and  C_13 
ROOT
ATOM      1  C   UNK d   1      44.047  12.858  45.360  0.00  0.00     0.202 A 
ATOM      2  N   UNK d   1      43.895  13.598  46.469  0.00  0.00    -0.142 NA
ATOM      3  N   UNK d   1      44.731  14.637  46.447  0.00  0.00    -0.206 N 
ATOM      4  C   UNK d   1      45.443  14.562  45.285  0.00  0.00     0.170 A 
ATOM      5  N   UNK d   1      45.004  13.464  44.639  0.00  0.00    -0.205 NA
ATOM      6  C   UNK d   1      46.383  15.537  45.029  0.00  0.00     0.078 A 
ATOM      7  C   UNK d   1      46.630  16.583  45.901  0.00  0.00     0.160 A 
ATOM      8  N   UNK d   1      47.592  17.368  45.387  0.00  0.00    -0.261 N 
ATOM      9  N   UNK d   1      47.946  16.841  44.226  0.00  0.00    -0.184 NA
ATOM     10  C   UNK d   1      47.232  15.724  43.972  0.00  0.00     0.158 A 
ATOM     11  N   UNK d   1      45.906  16.615  47.031  0.00  0.00    -0.222 NA
ATOM     12  C   UNK d   1      44.990  15.663  47.277  0.00  0.00     0.239 A 
ATOM     13  H   UNK d   1      48.000  18.233  45.800  0.00  0.00     0.191 HD
ENDROOT
BRANCH   1  14
ATOM     14  C   UNK d   1      43.309  11.641  45.024  0.00  0.00     0.128 A 
ATOM     15  N   UNK d   1      43.485  10.828  43.969  0.00  0.00    -0.167 NA
ATOM     16  N   UNK d   1      42.627   9.822  43.995  0.00  0.00    -0.261 N 
ATOM     17  C   UNK d   1      41.847   9.941  45.083  0.00  0.00     0.117 A 
ATOM     18  C   UNK d   1      42.269  11.091  45.742  0.00  0.00     0.056 A 
BRANCH  16  19
ATOM     19  C   UNK d   1      42.545   8.753  42.997  0.00  0.00     0.300 C 
BRANCH  19  20
ATOM     20  N   UNK d   1      43.462   7.674  43.300  0.00  0.00    -0.260 N 
ATOM     21  C   UNK d   1      44.760   7.616  42.957  0.00  0.00     0.135 A 
ATOM     22  C   UNK d   1      45.278   6.428  43.432  0.00  0.00     0.047 A 
ATOM     23 Br   UNK d   1      47.057   5.815  43.241  0.00  0.00    -0.048 Br
ATOM     24  C   UNK d   1      44.245   5.779  44.070  0.00  0.00     0.159 A 
ATOM     25  N   UNK d   1      43.157   6.575  43.966  0.00  0.00    -0.182 NA
ENDBRANCH  19  20
ENDBRANCH  16  19
ENDBRANCH   1  14
TORSDOF 3
ENDMDL
