MODEL 1
REMARK VINA RESULT:    -7.898      0.000      0.000
REMARK INTER + INTRA:          -9.308
REMARK INTER:                  -8.822
REMARK INTRA:                  -0.486
REMARK UNBOUND:                -0.486
REMARK  2 active torsions:
REMARK  status: ('A' for Active; 'I' for Inactive)
REMARK    1  A    between atoms: N_4  and  C_7 
REMARK    2  A    between atoms: C_10  and  C_13 
REMARK       I    between atoms: C_13  and  N_15 
ROOT
ATOM      1  C   UNK d   1      42.350   8.980  43.703  0.00  0.00     0.253 C 
ATOM      2  O   UNK d   1      41.946   9.486  42.581  0.00  0.00    -0.267 OA
ATOM      3  N   UNK d   1      41.752   9.493  44.842  0.00  0.00    -0.348 N 
ATOM      4  C   UNK d   1      41.899   9.149  46.230  0.00  0.00     0.129 C 
ATOM      5  C   UNK d   1      42.821  10.182  46.849  0.00  0.00     0.061 C 
ATOM      6  C   UNK d   1      42.548  11.553  46.265  0.00  0.00     0.118 C 
ATOM      7  N   UNK d   1      42.663  12.508  47.345  0.00  0.00    -0.324 N 
ATOM      8  C   UNK d   1      44.033  12.856  47.475  0.00  0.00     0.323 C 
ATOM      9  O   UNK d   1      44.620  13.370  48.482  0.00  0.00    -0.247 OA
ATOM     10  N   UNK d   1      44.662  12.517  46.229  0.00  0.00    -0.277 N 
ATOM     11  C   UNK d   1      43.643  11.965  45.368  0.00  0.00     0.254 C 
ATOM     12  O   UNK d   1      43.740  11.887  44.125  0.00  0.00    -0.270 OA
ATOM     13  C   UNK d   1      41.187  11.682  45.660  0.00  0.00     0.061 C 
ATOM     14  C   UNK d   1      40.813  10.643  44.658  0.00  0.00     0.129 C 
ATOM     15  H   UNK d   1      41.908  12.897  47.943  0.00  0.00     0.165 HD
ATOM     16  H   UNK d   1      45.661  12.626  45.946  0.00  0.00     0.173 HD
ENDROOT
BRANCH   1  17
ATOM     17  C   UNK d   1      43.364   7.960  43.564  0.00  0.00     0.032 A 
ATOM     18  C   UNK d   1      44.604   8.295  42.981  0.00  0.00     0.019 A 
ATOM     19  C   UNK d   1      45.628   7.395  42.850  0.00  0.00     0.032 A 
ATOM     20  C   UNK d   1      45.513   6.096  43.283  0.00  0.00     0.058 A 
ATOM     21  C   UNK d   1      44.320   5.745  43.853  0.00  0.00     0.032 A 
ATOM     22  C   UNK d   1      43.263   6.658  43.994  0.00  0.00     0.019 A 
BRANCH  20  23
ATOM     23  N   UNK d   1      46.592   5.184  43.134  0.00  0.00    -0.244 N 
ATOM     24  C   UNK d   1      47.651   4.998  43.942  0.00  0.00     0.139 A 
ATOM     25  C   UNK d   1      48.457   4.011  43.419  0.00  0.00     0.047 A 
ATOM     26 Br   UNK d   1      50.103   3.335  44.154  0.00  0.00    -0.048 Br
ATOM     27  C   UNK d   1      47.836   3.609  42.257  0.00  0.00     0.159 A 
ATOM     28  N   UNK d   1      46.729   4.340  42.134  0.00  0.00    -0.179 NA
ENDBRANCH  20  23
ENDBRANCH   1  17
TORSDOF 2
ENDMDL
