/Users/jonathanwahrer/Desktop/Msc/3_Semester/Drug_Design_Praktikum/waehrer_HTS_screening/HTS_experiment/out/docking_results/vina_output/2qfa/0666_docked.pdbqt
 OpenBabel03162219563D

 28 31  0  0  0  0  0  0  0  0999 V2000
   41.6790   10.6140   44.8100 C   0  0  0  0  0  0  0  0  0  0  0  0
   41.4320    9.8670   45.8450 C   0  0  0  0  0  0  0  0  0  0  0  0
   42.2660    8.6710   45.7060 C   0  0  0  0  0  0  0  0  0  0  0  0
   42.2790    7.7170   46.5440 O   0  0  0  0  0  0  0  0  0  0  0  0
   43.0520    8.7280   44.5070 N   0  0  0  0  0  0  0  0  0  0  0  0
   42.6820    9.9770   43.9230 C   0  0  0  0  0  0  0  0  0  0  0  0
   43.1300   10.4500   42.8460 O   0  0  0  0  0  0  0  0  0  0  0  0
   41.1330   11.8740   44.4710 N   0  0  0  0  0  0  0  0  0  0  0  0
   40.4630   11.9650   43.7080 H   0  0  0  0  0  0  0  0  0  0  0  0
   41.5440   13.0020   45.2190 C   0  0  0  0  0  0  0  0  0  0  0  0
   42.8490   13.1970   45.5480 N   0  0  0  0  0  0  0  0  0  0  0  0
   43.2860   14.2380   46.2660 C   0  0  0  0  0  3  0  0  0  0  0  0
   42.4170   15.1930   46.7240 C   0  0  0  0  0  0  0  0  0  0  0  0
   43.0060   16.6870   47.7610 Br  0  0  0  0  0  0  0  0  0  0  0  0
   41.0800   15.0600   46.4270 C   0  0  0  0  0  3  0  0  0  0  0  0
   40.6640   13.9850   45.6890 C   0  0  0  0  0  3  0  0  0  0  0  0
   40.5440   10.1190   46.9350 N   0  0  0  0  0  0  0  0  0  0  0  0
   41.0170   10.6470   48.0790 C   0  0  0  0  0  2  0  0  0  0  0  0
   40.1720   10.9000   49.1730 C   0  0  0  0  0  3  0  0  0  0  0  0
   38.8250   10.6020   49.0850 C   0  0  0  0  0  3  0  0  0  0  0  0
   38.3640   10.0620   47.9040 C   0  0  0  0  0  3  0  0  0  0  0  0
   39.2210    9.8320   46.8600 C   0  0  0  0  0  3  0  0  0  0  0  0
   43.9680    7.7580   44.0250 C   0  0  0  0  0  0  0  0  0  0  0  0
   43.8030    6.4080   44.2050 C   0  0  0  0  0  3  0  0  0  0  0  0
   44.7270    5.4710   43.6970 C   0  0  0  0  0  3  0  0  0  0  0  0
   45.8340    5.8930   42.9970 C   0  0  0  0  0  3  0  0  0  0  0  0
   46.0040    7.2420   42.8150 C   0  0  0  0  0  3  0  0  0  0  0  0
   45.0800    8.1550   43.3240 C   0  0  0  0  0  3  0  0  0  0  0  0
  1  2  2  0  0  0  0
  2 17  1  0  0  0  0
  3  2  1  0  0  0  0
  3  4  2  0  0  0  0
  5  3  1  0  0  0  0
  6  5  1  0  0  0  0
  6  1  1  0  0  0  0
  7  6  2  0  0  0  0
  8  1  1  0  0  0  0
  8 10  1  0  0  0  0
  9  8  1  0  0  0  0
 10 11  2  0  0  0  0
 10 16  1  0  0  0  0
 11 12  1  0  0  0  0
 12 13  2  0  0  0  0
 13 14  1  0  0  0  0
 15 13  1  0  0  0  0
 16 15  2  0  0  0  0
 17 18  1  0  0  0  0
 18 19  1  0  0  0  0
 20 19  2  0  0  0  0
 21 20  1  0  0  0  0
 22 17  1  0  0  0  0
 22 21  2  0  0  0  0
 23 24  1  0  0  0  0
 23  5  1  0  0  0  0
 25 24  2  0  0  0  0
 26 25  1  0  0  0  0
 27 26  2  0  0  0  0
 27 28  1  0  0  0  0
 28 23  2  0  0  0  0
M  END
>  <Pose>
1

>  <Score>
-6.916

$$$$
