MODEL 1
REMARK VINA RESULT:    -7.169      0.000      0.000
REMARK INTER + INTRA:          -8.893
REMARK INTER:                  -8.426
REMARK INTRA:                  -0.467
REMARK UNBOUND:                -0.467
REMARK  3 active torsions:
REMARK  status: ('A' for Active; 'I' for Inactive)
REMARK    1  A    between atoms: C_5  and  N_8 
REMARK    2  A    between atoms: C_10  and  C_12 
REMARK    3  A    between atoms: C_12  and  N_13 
ROOT
ATOM      1  C   UNK d   1      47.232   4.323  42.941  0.00  0.00     0.160 C 
ENDROOT
BRANCH   1   2
ATOM      2  C   UNK d   1      46.490   5.600  43.179  0.00  0.00     0.043 C 
ATOM      3  C   UNK d   1      45.729   6.153  41.990  0.00  0.00     0.149 C 
ATOM      4  N   UNK d   1      44.786   6.632  42.958  0.00  0.00    -0.213 N 
ATOM      5  C   UNK d   1      45.066   5.433  43.696  0.00  0.00     0.149 C 
BRANCH   4   6
ATOM      6  C   UNK d   1      43.970   7.760  43.102  0.00  0.00     0.724 A 
ATOM      7  N   UNK d   1      44.383   8.925  43.644  0.00  0.00    -0.074 NA
ATOM      8  C   UNK d   1      43.628  10.006  43.789  0.00  0.00     0.157 A 
ATOM      9  C   UNK d   1      42.318   9.980  43.366  0.00  0.00     0.047 A 
ATOM     10 Br   UNK d   1      41.203  11.522  43.561  0.00  0.00    -0.048 Br
ATOM     11  C   UNK d   1      41.859   8.807  42.806  0.00  0.00     0.157 A 
ATOM     12  N   UNK d   1      42.670   7.741  42.683  0.00  0.00    -0.074 NA
ENDBRANCH   4   6
ENDBRANCH   1   2
BRANCH   1  13
ATOM     13  N   UNK d   1      48.386   4.313  43.801  0.00  0.00    -0.257 N 
ATOM     14  N   UNK d   1      48.443   5.154  44.912  0.00  0.00    -0.296 N 
ATOM     15  C   UNK d   1      49.560   5.180  45.790  0.00  0.00     0.051 A 
ATOM     16  H   UNK d   1      47.606   5.785  45.080  0.00  0.00     0.187 HD
ATOM     17  C   UNK d   1      49.564   5.994  46.828  0.00  0.00    -0.051 A 
ATOM     18  C   UNK d   1      50.699   4.314  45.551  0.00  0.00     0.036 A 
ATOM     19  C   UNK d   1      49.023   7.028  47.733  0.00  0.00     0.041 A 
ATOM     20  C   UNK d   1      50.337   6.483  48.036  0.00  0.00     0.041 A 
ATOM     21  C   UNK d   1      50.666   3.508  44.502  0.00  0.00     0.078 A 
ATOM     22  C   UNK d   1      49.509   3.473  43.584  0.00  0.00     0.262 A 
ATOM     23  O   UNK d   1      49.503   2.697  42.592  0.00  0.00    -0.267 OA
ENDBRANCH   1  13
TORSDOF 3
ENDMDL
