MODEL 1
REMARK VINA RESULT:    -7.432      0.000      0.000
REMARK INTER + INTRA:          -7.580
REMARK INTER:                  -8.301
REMARK INTRA:                   0.721
REMARK UNBOUND:                 0.721
REMARK  2 active torsions:
REMARK  status: ('A' for Active; 'I' for Inactive)
REMARK    1  A    between atoms: C_6  and  C_8 
REMARK       I    between atoms: C_8  and  N_10 
REMARK    2  A    between atoms: C_12  and  N_14 
ROOT
ATOM      1  C   UNK d   1      46.374   5.606  42.426  0.00  0.00     0.255 C 
ATOM      2  O   UNK d   1      46.127   5.305  41.201  0.00  0.00    -0.267 OA
ATOM      3  N   UNK d   1      45.540   6.560  43.038  0.00  0.00    -0.344 N 
ATOM      4  C   UNK d   1      45.390   7.233  44.291  0.00  0.00     0.153 C 
ATOM      5  C   UNK d   1      44.735   8.388  43.512  0.00  0.00     0.132 C 
ATOM      6  C   UNK d   1      44.344   7.300  42.585  0.00  0.00     0.153 C 
ENDROOT
BRANCH   5   7
ATOM      7  N   UNK d   1      43.692   9.020  44.272  0.00  0.00    -0.280 N 
ATOM      8  C   UNK d   1      42.585   8.403  44.955  0.00  0.00     0.232 C 
ATOM      9  O   UNK d   1      42.571   7.232  45.372  0.00  0.00    -0.272 OA
ATOM     10  C   UNK d   1      41.520   9.463  45.035  0.00  0.00     0.095 C 
ATOM     11  C   UNK d   1      42.375  10.676  45.317  0.00  0.00     0.095 C 
ATOM     12  C   UNK d   1      40.835   9.493  43.711  0.00  0.00     0.041 C 
ATOM     13  C   UNK d   1      41.657  11.946  44.956  0.00  0.00     0.041 C 
ATOM     14  C   UNK d   1      43.570  10.422  44.488  0.00  0.00     0.232 C 
ATOM     15  C   UNK d   1      41.296  11.923  43.513  0.00  0.00    -0.030 C 
ATOM     16  C   UNK d   1      40.926  10.771  42.992  0.00  0.00    -0.030 C 
ATOM     17  O   UNK d   1      44.323  11.334  44.068  0.00  0.00    -0.272 OA
ENDBRANCH   5   7
BRANCH   1  18
ATOM     18  C   UNK d   1      47.494   4.911  43.016  0.00  0.00     0.051 A 
ATOM     19  C   UNK d   1      48.022   3.767  42.403  0.00  0.00     0.133 A 
ATOM     20  N   UNK d   1      49.048   3.079  42.916  0.00  0.00    -0.271 NA
ATOM     21  C   UNK d   1      49.641   3.464  44.075  0.00  0.00     0.135 A 
ATOM     22  C   UNK d   1      49.186   4.576  44.743  0.00  0.00     0.029 A 
ATOM     23 Br   UNK d   1      50.032   5.094  46.367  0.00  0.00    -0.050 Br
ATOM     24  C   UNK d   1      48.121   5.268  44.189  0.00  0.00     0.039 A 
ENDBRANCH   1  18
TORSDOF 2
ENDMDL
