/Users/jonathanwahrer/Desktop/Msc/3_Semester/Drug_Design_Praktikum/waehrer_HTS_screening/HTS_experiment/out/docking_results/vina_output/2qfa/0680_docked.pdbqt
 OpenBabel03162219573D

 24 27  0  0  1  0  0  0  0  0999 V2000
   46.3740    5.6060   42.4260 C   0  0  0  0  0  0  0  0  0  0  0  0
   46.1270    5.3050   41.2010 O   0  0  0  0  0  0  0  0  0  0  0  0
   45.5400    6.5600   43.0380 N   0  0  0  0  0  0  0  0  0  0  0  0
   45.3900    7.2330   44.2910 C   0  0  0  0  0  2  0  0  0  0  0  0
   44.7350    8.3880   43.5120 C   0  0  1  0  0  3  0  0  0  0  0  0
   44.3440    7.3000   42.5850 C   0  0  0  0  0  2  0  0  0  0  0  0
   43.6920    9.0200   44.2720 N   0  0  0  0  0  0  0  0  0  0  0  0
   42.5850    8.4030   44.9550 C   0  0  0  0  0  0  0  0  0  0  0  0
   42.5710    7.2320   45.3720 O   0  0  0  0  0  0  0  0  0  0  0  0
   41.5200    9.4630   45.0350 C   0  0  1  0  0  3  0  0  0  0  0  0
   42.3750   10.6760   45.3170 C   0  0  2  0  0  3  0  0  0  0  0  0
   40.8350    9.4930   43.7110 C   0  0  0  0  0  2  0  0  0  0  0  0
   41.6570   11.9460   44.9560 C   0  0  0  0  0  2  0  0  0  0  0  0
   43.5700   10.4220   44.4880 C   0  0  0  0  0  0  0  0  0  0  0  0
   41.2960   11.9230   43.5130 C   0  0  0  0  0  3  0  0  0  0  0  0
   40.9260   10.7710   42.9920 C   0  0  0  0  0  3  0  0  0  0  0  0
   44.3230   11.3340   44.0680 O   0  0  0  0  0  0  0  0  0  0  0  0
   47.4940    4.9110   43.0160 C   0  0  0  0  0  0  0  0  0  0  0  0
   48.0220    3.7670   42.4030 C   0  0  0  0  0  3  0  0  0  0  0  0
   49.0480    3.0790   42.9160 N   0  0  0  0  0  0  0  0  0  0  0  0
   49.6410    3.4640   44.0750 C   0  0  0  0  0  3  0  0  0  0  0  0
   49.1860    4.5760   44.7430 C   0  0  0  0  0  0  0  0  0  0  0  0
   50.0320    5.0940   46.3670 Br  0  0  0  0  0  0  0  0  0  0  0  0
   48.1210    5.2680   44.1890 C   0  0  0  0  0  3  0  0  0  0  0  0
  1 18  1  0  0  0  0
  1  3  1  0  0  0  0
  2  1  2  0  0  0  0
  3  4  1  0  0  0  0
  5  6  1  6  0  0  0
  5  7  1  0  0  0  0
  5  4  1  0  0  0  0
  6  3  1  0  0  0  0
  7 14  1  0  0  0  0
  7  8  1  0  0  0  0
  8 10  1  0  0  0  0
  8  9  2  0  0  0  0
 10 12  1  6  0  0  0
 10 11  1  0  0  0  0
 11 13  1  6  0  0  0
 14 11  1  0  0  0  0
 15 13  1  0  0  0  0
 16 15  2  0  0  0  0
 16 12  1  0  0  0  0
 17 14  2  0  0  0  0
 18 24  1  0  0  0  0
 19 20  1  0  0  0  0
 19 18  2  0  0  0  0
 20 21  2  0  0  0  0
 21 22  1  0  0  0  0
 22 23  1  0  0  0  0
 24 22  2  0  0  0  0
M  END
>  <Pose>
1

>  <Score>
-7.432

$$$$
