/Users/jonathanwahrer/Desktop/Msc/3_Semester/Drug_Design_Praktikum/waehrer_HTS_screening/HTS_experiment/out/docking_results/vina_output/2qfa/0681_docked.pdbqt
 OpenBabel03162219573D

 25 28  0  0  1  0  0  0  0  0999 V2000
   47.4090    4.9650   42.3900 C   0  0  0  0  0  0  0  0  0  0  0  0
   47.4390    4.7730   41.1350 O   0  0  0  0  0  0  0  0  0  0  0  0
   46.4420    5.8330   42.9120 N   0  0  0  0  0  0  0  0  0  0  0  0
   45.9810    6.3640   44.1670 C   0  0  0  0  0  2  0  0  0  0  0  0
   44.7630    7.0080   43.5210 C   0  0  2  0  0  3  0  0  0  0  0  0
   45.4160    6.6410   42.2230 C   0  0  0  0  0  2  0  0  0  0  0  0
   44.5720    8.3680   43.7520 O   0  0  0  0  0  0  0  0  0  0  0  0
   43.3620    8.9930   43.9760 C   0  0  2  0  0  3  0  0  0  0  0  0
   42.8680    9.8230   43.0600 C   0  0  0  0  0  3  0  0  0  0  0  0
   41.5960   10.5120   43.2380 C   0  0  0  0  0  0  0  0  0  0  0  0
   41.1340   11.3280   42.3070 C   0  0  0  0  0  1  0  0  0  0  0  0
   40.8820   10.2720   44.4430 N   0  0  0  0  0  0  0  0  0  0  0  0
   41.4410    9.3720   45.4130 C   0  0  0  0  0  0  0  0  0  0  0  0
   39.9780   10.7550   44.5790 H   0  0  0  0  0  0  0  0  0  0  0  0
   42.6170    8.7690   45.1890 N   0  0  0  0  0  0  0  0  0  0  0  0
   41.0030    8.9700   46.6100 N   0  0  0  0  0  0  0  0  0  0  0  0
   42.9090    7.9950   46.2400 N   0  0  0  0  0  0  0  0  0  0  0  0
   41.9070    8.1250   47.1150 C   0  0  0  0  0  3  0  0  0  0  0  0
   48.3770    4.2740   43.2040 C   0  0  0  0  0  0  0  0  0  0  0  0
   48.7380    4.5890   44.4900 C   0  0  0  0  0  3  0  0  0  0  0  0
   49.6620    3.8760   45.1980 N   0  0  0  0  0  0  0  0  0  0  0  0
   50.2870    2.8090   44.6880 C   0  0  0  0  0  3  0  0  0  0  0  0
   49.9660    2.4430   43.4010 C   0  0  0  0  0  0  0  0  0  0  0  0
   50.8460    0.9140   42.6360 Br  0  0  0  0  0  0  0  0  0  0  0  0
   49.0410    3.1510   42.6770 C   0  0  0  0  0  3  0  0  0  0  0  0
  1  3  1  0  0  0  0
  1 19  1  0  0  0  0
  2  1  2  0  0  0  0
  3  4  1  0  0  0  0
  5  7  1  6  0  0  0
  5  4  1  0  0  0  0
  6  3  1  0  0  0  0
  6  5  1  0  0  0  0
  8  7  1  1  0  0  0
  8 15  1  0  0  0  0
  9 10  2  0  0  0  0
  9  8  1  0  0  0  0
 10 12  1  0  0  0  0
 11 10  1  0  0  0  0
 12 14  1  0  0  0  0
 12 13  1  0  0  0  0
 13 16  2  0  0  0  0
 15 13  1  0  0  0  0
 15 17  1  0  0  0  0
 16 18  1  0  0  0  0
 17 18  2  0  0  0  0
 19 20  1  0  0  0  0
 20 21  2  0  0  0  0
 22 21  1  0  0  0  0
 23 22  2  0  0  0  0
 24 23  1  0  0  0  0
 25 19  2  0  0  0  0
 25 23  1  0  0  0  0
M  END
>  <Pose>
1

>  <Score>
-7.740

$$$$
