MODEL 1
REMARK VINA RESULT:    -4.829      0.000      0.000
REMARK INTER + INTRA:          -5.148
REMARK INTER:                  -5.112
REMARK INTRA:                  -0.036
REMARK UNBOUND:                -0.036
REMARK  2 active torsions:
REMARK  status: ('A' for Active; 'I' for Inactive)
REMARK    1  A    between atoms: C_6  and  C_8 
REMARK    2  A    between atoms: C_21  and  N_22 
ROOT
ATOM      1 Br   UNK d   1      43.546  10.696  43.723  0.00  0.00    -0.050 Br
ATOM      2  C   UNK d   1      43.599   8.825  43.979  0.00  0.00     0.029 A 
ATOM      3  C   UNK d   1      42.726   8.228  44.874  0.00  0.00     0.135 A 
ATOM      4  N   UNK d   1      42.803   6.897  45.021  0.00  0.00    -0.271 NA
ATOM      5  C   UNK d   1      43.669   6.118  44.355  0.00  0.00     0.134 A 
ATOM      6  C   UNK d   1      44.530   6.717  43.470  0.00  0.00     0.059 A 
ATOM      7  C   UNK d   1      44.516   8.086  43.261  0.00  0.00     0.040 A 
ENDROOT
BRANCH   6   8
ATOM      8  C   UNK d   1      45.483   5.907  42.730  0.00  0.00     0.210 C 
ATOM      9  O   UNK d   1      46.011   6.345  41.669  0.00  0.00    -0.644 OA
ATOM     10  O   UNK d   1      45.838   4.640  43.158  0.00  0.00    -0.644 OA
ENDBRANCH   6   8
TORSDOF 2
ENDMDL
