MODEL 1
REMARK VINA RESULT:    -4.846      0.000      0.000
REMARK INTER + INTRA:          -5.165
REMARK INTER:                  -5.129
REMARK INTRA:                  -0.036
REMARK UNBOUND:                -0.036
REMARK  2 active torsions:
REMARK  status: ('A' for Active; 'I' for Inactive)
REMARK    1  A    between atoms: C_6  and  C_8 
REMARK    2  A    between atoms: C_20  and  N_21 
ROOT
ATOM      1 Br   UNK d   1      43.468  10.748  43.677  0.00  0.00    -0.050 Br
ATOM      2  C   UNK d   1      43.542   8.868  43.977  0.00  0.00     0.029 A 
ATOM      3  C   UNK d   1      42.703   8.235  44.869  0.00  0.00     0.135 A 
ATOM      4  N   UNK d   1      42.750   6.909  45.086  0.00  0.00    -0.271 NA
ATOM      5  C   UNK d   1      43.646   6.176  44.408  0.00  0.00     0.134 A 
ATOM      6  C   UNK d   1      44.519   6.733  43.501  0.00  0.00     0.059 A 
ATOM      7  C   UNK d   1      44.450   8.086  43.299  0.00  0.00     0.040 A 
ENDROOT
BRANCH   6   8
ATOM      8  C   UNK d   1      45.487   5.923  42.771  0.00  0.00     0.210 C 
ATOM      9  O   UNK d   1      46.051   6.396  41.755  0.00  0.00    -0.644 OA
ATOM     10  O   UNK d   1      45.755   4.643  43.234  0.00  0.00    -0.644 OA
ENDBRANCH   6   8
TORSDOF 2
ENDMDL
