/Users/jonathanwahrer/Desktop/Msc/3_Semester/Drug_Design_Praktikum/waehrer_HTS_screening/HTS_experiment/out/docking_results/vina_output/2qfa/0692_docked.pdbqt
 OpenBabel03162219573D

 29 32  0  0  0  0  0  0  0  0999 V2000
   44.6480   13.0580   49.7030 Br  0  0  0  0  0  0  0  0  0  0  0  0
   44.8070   13.3390   47.8310 C   0  0  0  0  0  0  0  0  0  0  0  0
   44.2300   12.4380   46.9560 C   0  0  0  0  0  0  0  0  0  0  0  0
   44.3110   12.5870   45.5630 C   0  0  0  0  0  0  0  0  0  0  0  0
   44.9870   13.6630   45.0450 C   0  0  0  0  0  3  0  0  0  0  0  0
   45.5660   14.5680   45.9140 C   0  0  0  0  0  0  0  0  0  0  0  0
   45.4860   14.4230   47.2820 C   0  0  0  0  0  3  0  0  0  0  0  0
   46.5090   16.0730   45.2300 Br  0  0  0  0  0  0  0  0  0  0  0  0
   43.6980   11.6010   44.6810 C   0  0  0  0  0  0  0  0  0  0  0  0
   44.1690   11.5410   43.5120 O   0  0  0  0  0  0  0  0  0  0  0  0
   42.6070   10.7350   45.1130 C   0  0  0  0  0  0  0  0  0  0  0  0
   42.3850   10.9400   46.6350 C   0  0  0  0  0  2  0  0  0  0  0  0
   43.5200   11.3100   47.3290 O   0  0  0  0  0  0  0  0  0  0  0  0
   41.2870   10.9580   44.5310 C   0  0  0  0  0  2  0  0  0  0  0  0
   40.2920   11.7940   45.0200 N   0  0  0  0  0  4  0  0  0  0  0  0
   38.9690   11.3030   45.2490 C   0  0  0  0  0  2  0  0  0  0  0  0
   38.3460   12.2360   46.3200 C   0  0  0  0  0  2  0  0  0  0  0  0
   38.0580   13.5330   45.5930 C   0  0  0  0  0  2  0  0  0  0  0  0
   38.8300   13.6330   44.2960 C   0  0  0  0  0  2  0  0  0  0  0  0
   40.2490   13.1300   44.4450 C   0  0  0  0  0  2  0  0  0  0  0  0
   40.6200   12.0060   46.0330 H   0  0  0  0  0  0  0  0  0  0  0  0
   43.0370    9.2950   44.8790 C   0  0  0  0  0  2  0  0  0  0  0  0
   43.3770    9.0250   43.5040 N   0  0  0  0  0  4  0  0  0  0  0  0
   42.3820    8.1060   42.9700 C   0  0  0  0  0  2  0  0  0  0  0  0
   42.2980    6.9090   43.8580 C   0  0  0  0  0  2  0  0  0  0  0  0
   43.5890    6.2260   44.1230 C   0  0  0  0  0  2  0  0  0  0  0  0
   44.7780    7.1180   44.2230 C   0  0  0  0  0  2  0  0  0  0  0  0
   44.6390    8.3290   43.3280 C   0  0  0  0  0  2  0  0  0  0  0  0
   43.4420    9.8960   42.9480 H   0  0  0  0  0  0  0  0  0  0  0  0
  2  1  1  0  0  0  0
  3 13  1  0  0  0  0
  3  2  2  0  0  0  0
  4  3  1  0  0  0  0
  5  4  2  0  0  0  0
  5  6  1  0  0  0  0
  6  7  2  0  0  0  0
  7  2  1  0  0  0  0
  8  6  1  0  0  0  0
  9 11  1  0  0  0  0
  9  4  1  0  0  0  0
 10  9  2  0  0  0  0
 11 12  1  0  0  0  0
 12 13  1  0  0  0  0
 14 15  1  0  0  0  0
 14 11  1  0  0  0  0
 15 16  1  0  0  0  0
 15 21  1  0  0  0  0
 16 17  1  0  0  0  0
 18 17  1  0  0  0  0
 19 20  1  0  0  0  0
 19 18  1  0  0  0  0
 20 15  1  0  0  0  0
 22 11  1  0  0  0  0
 23 22  1  0  0  0  0
 24 23  1  0  0  0  0
 24 25  1  0  0  0  0
 25 26  1  0  0  0  0
 26 27  1  0  0  0  0
 28 23  1  0  0  0  0
 28 27  1  0  0  0  0
 29 23  1  0  0  0  0
M  END
>  <Pose>
1

>  <Score>
-6.495

$$$$
