MODEL 1
REMARK VINA RESULT:    -8.587      0.000      0.000
REMARK INTER + INTRA:         -11.120
REMARK INTER:                 -10.594
REMARK INTRA:                  -0.525
REMARK UNBOUND:                -0.525
REMARK  4 active torsions:
REMARK  status: ('A' for Active; 'I' for Inactive)
REMARK    1  A    between atoms: N_10  and  N_11 
REMARK       I    between atoms: N_11  and  C_12 
REMARK    2  A    between atoms: C_12  and  C_14 
REMARK    3  A    between atoms: C_14  and  N_15 
REMARK       I    between atoms: N_15  and  C_16 
REMARK    4  A    between atoms: C_16  and  C_18 
ROOT
ATOM      1  N   UNK d   1      46.613   5.835  43.940  0.00  0.00    -0.245 N 
ATOM      2  C   UNK d   1      46.493   7.037  43.206  0.00  0.00     0.255 C 
ATOM      3  O   UNK d   1      47.504   7.717  42.936  0.00  0.00    -0.270 OA
ATOM      4  H   UNK d   1      45.815   5.219  44.201  0.00  0.00     0.192 HD
ENDROOT
BRANCH   2   5
ATOM      5  C   UNK d   1      45.172   7.550  42.722  0.00  0.00     0.227 C 
BRANCH   5   6
ATOM      6  N   UNK d   1      44.740   8.704  43.463  0.00  0.00    -0.350 N 
ATOM      7  C   UNK d   1      43.387   9.137  43.497  0.00  0.00     0.249 C 
ATOM      8  O   UNK d   1      42.538   8.482  42.853  0.00  0.00    -0.271 OA
ATOM      9  H   UNK d   1      45.417   9.279  44.017  0.00  0.00     0.163 HD
BRANCH   7  10
ATOM     10  C   UNK d   1      42.923  10.334  44.259  0.00  0.00     0.244 C 
ATOM     11  O   UNK d   1      42.416   9.990  45.514  0.00  0.00    -0.331 OA
ATOM     12  C   UNK d   1      41.073  10.060  45.877  0.00  0.00     0.103 A 
ATOM     13  C   UNK d   1      40.261  10.847  45.104  0.00  0.00     0.102 A 
ATOM     14  C   UNK d   1      40.555   9.393  46.947  0.00  0.00     0.040 A 
ATOM     15  C   UNK d   1      38.911  10.938  45.444  0.00  0.00     0.039 A 
ATOM     16  O   UNK d   1      40.784  11.515  44.031  0.00  0.00    -0.345 OA
ATOM     17  C   UNK d   1      38.374  10.270  46.522  0.00  0.00     0.003 A 
ATOM     18  C   UNK d   1      39.224   9.486  47.279  0.00  0.00     0.003 A 
ATOM     19  C   UNK d   1      42.025  11.210  43.457  0.00  0.00     0.218 C 
ENDBRANCH   7  10
ENDBRANCH   5   6
ENDBRANCH   2   5
BRANCH   1  20
ATOM     20  N   UNK d   1      47.890   5.441  44.350  0.00  0.00    -0.166 NA
ATOM     21  C   UNK d   1      48.504   4.439  43.842  0.00  0.00     0.157 A 
ATOM     22  C   UNK d   1      49.818   3.891  44.141  0.00  0.00     0.029 A 
ATOM     23  C   UNK d   1      47.953   3.588  42.781  0.00  0.00     0.277 A 
ATOM     24  C   UNK d   1      50.091   2.790  43.348  0.00  0.00     0.065 A 
ATOM     25  C   UNK d   1      50.796   4.259  45.039  0.00  0.00     0.035 A 
ATOM     26  C   UNK d   1      51.277   2.090  43.444  0.00  0.00     0.040 A 
ATOM     27  N   UNK d   1      48.945   2.615  42.522  0.00  0.00    -0.320 N 
ATOM     28 Br   UNK d   1      51.638   0.567  42.342  0.00  0.00    -0.049 Br
ATOM     29  C   UNK d   1      52.249   2.487  44.362  0.00  0.00     0.040 A 
ATOM     30  C   UNK d   1      51.991   3.587  45.163  0.00  0.00     0.013 A 
ATOM     31 Br   UNK d   1      53.307   4.150  46.431  0.00  0.00    -0.051 Br
ATOM     32  H   UNK d   1      48.852   1.864  41.817  0.00  0.00     0.169 HD
ATOM     33  O   UNK d   1      46.818   3.760  42.261  0.00  0.00    -0.266 OA
ENDBRANCH   1  20
TORSDOF 4
ENDMDL
