/Users/jonathanwahrer/Desktop/Msc/3_Semester/Drug_Design_Praktikum/waehrer_HTS_screening/HTS_experiment/out/docking_results/vina_output/2qfa/0696_docked.pdbqt
 OpenBabel03162219583D

 28 31  0  0  1  0  0  0  0  0999 V2000
   40.6410    8.7540   48.9940 Br  0  0  0  0  0  0  0  0  0  0  0  0
   40.0500    9.6160   47.4100 C   0  0  0  0  0  0  0  0  0  0  0  0
   40.8950    9.6470   46.2920 C   0  0  0  0  0  0  0  0  0  0  0  0
   40.5220   10.2430   45.1260 C   0  0  0  0  0  0  0  0  0  0  0  0
   39.2720   10.8330   45.0550 C   0  0  0  0  0  3  0  0  0  0  0  0
   38.4270   10.8060   46.1590 C   0  0  0  0  0  0  0  0  0  0  0  0
   38.8060   10.2030   47.3350 C   0  0  0  0  0  3  0  0  0  0  0  0
   37.0730   11.4300   46.1220 C   0  0  0  0  0  1  0  0  0  0  0  0
   41.4200   10.2270   43.9390 C   0  0  1  0  0  3  0  0  0  0  0  0
   42.8810   10.2170   44.2080 C   0  0  0  0  0  0  0  0  0  0  0  0
   43.1720    9.9020   45.6950 C   0  0  0  0  0  2  0  0  0  0  0  0
   42.1650    9.0880   46.2730 O   0  0  0  0  0  0  0  0  0  0  0  0
   43.5270   11.5770   44.0260 C   0  0  0  0  0  2  0  0  0  0  0  0
   43.6720   12.3440   45.2450 N   0  0  0  0  0  4  0  0  0  0  0  0
   42.5210   13.2330   45.4030 C   0  0  0  0  0  2  0  0  0  0  0  0
   42.9400   14.3640   46.2670 C   0  0  0  0  0  2  0  0  0  0  0  0
   44.4160   14.1980   46.3940 C   0  0  0  0  0  2  0  0  0  0  0  0
   44.7330   13.3340   45.1670 C   0  0  0  0  0  2  0  0  0  0  0  0
   43.8450   11.7920   46.0980 H   0  0  0  0  0  0  0  0  0  0  0  0
   43.5870    9.1360   43.4800 C   0  0  0  0  0  2  0  0  0  0  0  0
   44.3760    8.1220   43.9580 N   0  0  0  0  0  4  0  0  0  0  0  0
   43.5970    6.8670   44.0450 C   0  0  0  0  0  2  0  0  0  0  0  0
   44.5360    5.7650   43.7400 C   0  0  0  0  0  2  0  0  0  0  0  0
   45.6310    6.3500   42.9340 C   0  0  0  0  0  2  0  0  0  0  0  0
   45.5890    7.8290   43.3140 C   0  0  0  0  0  2  0  0  0  0  0  0
   44.5850    8.2530   45.0430 H   0  0  0  0  0  0  0  0  0  0  0  0
   40.9650    9.0790   43.2300 O   0  0  0  0  0  0  0  0  0  0  0  0
   40.0040    9.1130   43.0840 H   0  0  0  0  0  0  0  0  0  0  0  0
  2  1  1  0  0  0  0
  3  2  2  0  0  0  0
  4  3  1  0  0  0  0
  5  4  2  0  0  0  0
  5  6  1  0  0  0  0
  6  7  2  0  0  0  0
  7  2  1  0  0  0  0
  8  6  1  0  0  0  0
  9 27  1  1  0  0  0
  9 10  1  0  0  0  0
  9  4  1  0  0  0  0
 10 11  1  0  0  0  0
 11 12  1  0  0  0  0
 12  3  1  0  0  0  0
 13 10  1  0  0  0  0
 13 14  1  0  0  0  0
 14 15  1  0  0  0  0
 14 19  1  0  0  0  0
 15 16  1  0  0  0  0
 16 17  1  0  0  0  0
 18 14  1  0  0  0  0
 18 17  1  0  0  0  0
 20 21  1  0  0  0  0
 20 10  1  0  0  0  0
 21 22  1  0  0  0  0
 21 26  1  0  0  0  0
 23 22  1  0  0  0  0
 24 25  1  0  0  0  0
 24 23  1  0  0  0  0
 25 21  1  0  0  0  0
 28 27  1  0  0  0  0
M  END
>  <Pose>
1

>  <Score>
-6.512

$$$$
