/Users/jonathanwahrer/Desktop/Msc/3_Semester/Drug_Design_Praktikum/waehrer_HTS_screening/HTS_experiment/out/docking_results/vina_output/2qfa/0699_docked.pdbqt
 OpenBabel03162219583D

 32 35  0  0  1  0  0  0  0  0999 V2000
   45.3760    6.1810   44.0650 C   0  0  2  0  0  3  0  0  0  0  0  0
   43.9010    5.8680   44.1030 C   0  0  0  0  0  2  0  0  0  0  0  0
   43.1970    6.7290   44.9770 O   0  0  0  0  0  0  0  0  0  0  0  0
   42.6290    7.8800   44.4320 C   0  0  0  0  0  0  0  0  0  0  0  0
   42.3020    8.9710   45.2130 C   0  0  0  0  0  0  0  0  0  0  0  0
   42.6510    8.8670   47.0800 Br  0  0  0  0  0  0  0  0  0  0  0  0
   41.7390   10.1200   44.6920 C   0  0  0  0  0  0  0  0  0  0  0  0
   41.4760   10.2230   43.3420 C   0  0  0  0  0  0  0  0  0  0  0  0
   41.4140   11.2100   45.4800 C   0  0  0  0  0  3  0  0  0  0  0  0
   41.8000    9.1380   42.5540 C   0  0  0  0  0  3  0  0  0  0  0  0
   40.9120   11.3750   42.8210 C   0  0  0  0  0  3  0  0  0  0  0  0
   42.3630    7.9930   43.0820 C   0  0  0  0  0  3  0  0  0  0  0  0
   40.5890   12.4610   43.6090 C   0  0  0  0  0  3  0  0  0  0  0  0
   40.8510   12.3580   44.9600 C   0  0  0  0  0  3  0  0  0  0  0  0
   45.7190    7.2540   44.8440 O   0  0  0  0  0  0  0  0  0  0  0  0
   46.6250    7.2310   45.2040 H   0  0  0  0  0  0  0  0  0  0  0  0
   45.8520    6.3230   42.6610 C   0  0  0  0  0  2  0  0  0  0  0  0
   47.0880    5.6240   42.3870 N   0  0  0  0  0  4  0  0  0  0  0  0
   46.7620    4.2110   42.2980 C   0  0  0  0  0  2  0  0  0  0  0  0
   48.0210    3.3320   42.2630 C   0  0  0  0  0  2  0  0  0  0  0  0
   48.7940    3.5950   43.4240 N   0  0  0  0  0  0  0  0  0  0  0  0
   48.2500    4.6490   44.3050 C   0  0  0  0  0  2  0  0  0  0  0  0
   49.9830    2.9420   43.7680 C   0  0  0  0  0  0  0  0  0  0  0  0
   48.0130    5.8720   43.4830 C   0  0  0  0  0  2  0  0  0  0  0  0
   50.5060    3.3770   44.9030 O   0  0  0  0  0  0  0  0  0  0  0  0
   47.5380    5.9010   41.4900 H   0  0  0  0  0  0  0  0  0  0  0  0
   50.7310    1.9080   43.1300 C   0  0  0  0  0  0  0  0  0  0  0  0
   51.8290    2.0640   42.3330 C   0  0  0  0  0  3  0  0  0  0  0  0
   52.5130    1.0110   41.7410 C   0  0  0  0  0  3  0  0  0  0  0  0
   52.0990   -0.2670   41.9390 C   0  0  0  0  0  3  0  0  0  0  0  0
   50.9920   -0.4590   42.7400 C   0  0  0  0  0  3  0  0  0  0  0  0
   50.3160    0.5820   43.3250 C   0  0  0  0  0  3  0  0  0  0  0  0
  1 17  1  6  0  0  0
  1  2  1  0  0  0  0
  1 15  1  0  0  0  0
  2  3  1  0  0  0  0
  4  3  1  0  0  0  0
  4  5  1  0  0  0  0
  5  6  1  0  0  0  0
  7  5  2  0  0  0  0
  7  9  1  0  0  0  0
  8  7  1  0  0  0  0
 10 12  1  0  0  0  0
 10  8  2  0  0  0  0
 11  8  1  0  0  0  0
 11 13  2  0  0  0  0
 12  4  2  0  0  0  0
 13 14  1  0  0  0  0
 14  9  2  0  0  0  0
 15 16  1  0  0  0  0
 18 17  1  0  0  0  0
 18 24  1  0  0  0  0
 19 18  1  0  0  0  0
 20 19  1  0  0  0  0
 20 21  1  0  0  0  0
 21 23  1  0  0  0  0
 21 22  1  0  0  0  0
 23 25  2  0  0  0  0
 24 22  1  0  0  0  0
 26 18  1  0  0  0  0
 27 32  1  0  0  0  0
 27 23  1  0  0  0  0
 28 27  2  0  0  0  0
 29 30  2  0  0  0  0
 29 28  1  0  0  0  0
 30 31  1  0  0  0  0
 31 32  2  0  0  0  0
M  END
>  <Pose>
1

>  <Score>
-8.688

$$$$
