MODEL 1
REMARK VINA RESULT:    -5.627      0.000      0.000
REMARK INTER + INTRA:          -7.986
REMARK INTER:                  -6.614
REMARK INTRA:                  -1.372
REMARK UNBOUND:                -1.372
REMARK  3 active torsions:
REMARK  status: ('A' for Active; 'I' for Inactive)
REMARK    1  A    between atoms: N_3  and  C_15 
REMARK    2  A    between atoms: C_15  and  C_16 
REMARK    3  A    between atoms: C_16  and  N_17 
ROOT
ATOM      1  C   UNK d   1      41.103   9.746  49.513  0.00  0.00     0.152 C 
ENDROOT
BRANCH   1   2
ATOM      2  N   UNK d   1      42.505   9.495  49.535  0.00  0.00    -0.316 N 
ATOM      3  C   UNK d   1      43.035   8.326  49.941  0.00  0.00     0.180 A 
ATOM      4 Br   UNK d   1      42.080   6.767  50.556  0.00  0.00    -0.008 Br
ATOM      5  N   UNK d   1      44.370   8.451  49.837  0.00  0.00    -0.203 NA
ATOM      6  C   UNK d   1      44.685   9.669  49.377  0.00  0.00     0.169 A 
ATOM      7  C   UNK d   1      43.491  10.335  49.184  0.00  0.00     0.152 A 
ATOM      8  N   UNK d   1      45.838  10.310  49.096  0.00  0.00    -0.286 N 
ATOM      9  C   UNK d   1      43.575  11.628  48.712  0.00  0.00     0.282 A 
ATOM     10  N   UNK d   1      44.730  12.258  48.435  0.00  0.00    -0.269 N 
ATOM     11  O   UNK d   1      42.508  12.249  48.533  0.00  0.00    -0.265 OA
ATOM     12  C   UNK d   1      45.874  11.579  48.634  0.00  0.00     0.332 A 
ATOM     13  C   UNK d   1      44.795  13.619  47.939  0.00  0.00     0.164 C 
ATOM     14  O   UNK d   1      46.980  12.145  48.381  0.00  0.00    -0.246 OA
ATOM     15  C   UNK d   1      47.086   9.603  49.301  0.00  0.00     0.163 C 
ENDBRANCH   1   2
BRANCH   1  16
ATOM     16  C   UNK d   1      40.326   9.170  48.386  0.00  0.00     0.152 C 
BRANCH  16  17
ATOM     17  N   UNK d   1      40.486   9.768  47.103  0.00  0.00    -0.316 N 
ATOM     18  C   UNK d   1      41.206   9.249  46.077  0.00  0.00     0.152 A 
ATOM     19  C   UNK d   1      41.142  10.100  45.002  0.00  0.00     0.169 A 
ATOM     20  C   UNK d   1      41.954   8.091  45.909  0.00  0.00     0.282 A 
ATOM     21  N   UNK d   1      40.374  11.124  45.409  0.00  0.00    -0.203 NA
ATOM     22  N   UNK d   1      41.766   9.853  43.819  0.00  0.00    -0.286 N 
ATOM     23  C   UNK d   1      39.978  10.926  46.674  0.00  0.00     0.180 A 
ATOM     24 Br   UNK d   1      38.870  12.082  47.748  0.00  0.00    -0.008 Br
ATOM     25  C   UNK d   1      42.471   8.711  43.733  0.00  0.00     0.332 A 
ATOM     26  C   UNK d   1      41.676  10.779  42.698  0.00  0.00     0.163 C 
ATOM     27  O   UNK d   1      43.054   8.470  42.641  0.00  0.00    -0.246 OA
ATOM     28  N   UNK d   1      42.569   7.841  44.754  0.00  0.00    -0.269 N 
ATOM     29  C   UNK d   1      43.341   6.625  44.610  0.00  0.00     0.164 C 
ATOM     30  O   UNK d   1      42.006   7.318  46.903  0.00  0.00    -0.265 OA
ENDBRANCH  16  17
ENDBRANCH   1  16
TORSDOF 3
ENDMDL
