MODEL 1
REMARK VINA RESULT:    -5.727      0.000      0.000
REMARK INTER + INTRA:          -6.740
REMARK INTER:                  -6.397
REMARK INTRA:                  -0.343
REMARK UNBOUND:                -0.343
REMARK  2 active torsions:
REMARK  status: ('A' for Active; 'I' for Inactive)
REMARK    1  A    between atoms: C_9  and  N_11 
REMARK    2  A    between atoms: C_12  and  C_17 
ROOT
ATOM      1  N   UNK d   1      40.661  11.387  45.579  0.00  0.00    -0.348 N 
ATOM      2  C   UNK d   1      41.159  12.678  45.223  0.00  0.00     0.189 C 
ATOM      3  C   UNK d   1      40.287  13.788  45.667  0.00  0.00     0.201 C 
ATOM      4  O   UNK d   1      39.054  13.459  46.162  0.00  0.00    -0.387 OA
ATOM      5  C   UNK d   1      38.472  12.383  45.500  0.00  0.00     0.187 C 
ATOM      6  C   UNK d   1      39.258  11.122  45.664  0.00  0.00     0.151 C 
ENDROOT
BRANCH   1   7
ATOM      7  C   UNK d   1      41.537  10.282  45.851  0.00  0.00     0.145 A 
ATOM      8  N   UNK d   1      41.759   9.923  47.153  0.00  0.00    -0.223 NA
ATOM      9  C   UNK d   1      42.527   8.863  47.462  0.00  0.00     0.237 A 
ATOM     10  N   UNK d   1      43.099   8.124  46.495  0.00  0.00    -0.222 NA
ATOM     11  C   UNK d   1      42.928   8.415  45.201  0.00  0.00     0.164 A 
ATOM     12  N   UNK d   1      43.406   7.838  44.084  0.00  0.00    -0.255 N 
ATOM     13  C   UNK d   1      42.128   9.520  44.882  0.00  0.00     0.095 A 
ATOM     14  N   UNK d   1      42.937   8.541  43.079  0.00  0.00    -0.163 NA
ATOM     15  C   UNK d   1      44.267   6.674  43.986  0.00  0.00     0.182 C 
ATOM     16  C   UNK d   1      42.164   9.564  43.509  0.00  0.00     0.141 A 
ATOM     17 Br   UNK d   1      41.295  10.879  42.444  0.00  0.00    -0.026 Br
ENDBRANCH   1   7
BRANCH   2  18
ATOM     18  C   UNK d   1      42.577  12.845  45.614  0.00  0.00     0.198 A 
ATOM     19  N   UNK d   1      43.023  13.159  46.831  0.00  0.00    -0.207 NA
ATOM     20  C   UNK d   1      44.383  13.209  46.741  0.00  0.00     0.152 A 
ATOM     21  N   UNK d   1      44.692  12.920  45.464  0.00  0.00    -0.112 NA
ATOM     22  C   UNK d   1      45.343  13.518  47.826  0.00  0.00     0.096 C 
ATOM     23  O   UNK d   1      43.589  12.706  44.808  0.00  0.00    -0.194 OA
ENDBRANCH   2  18
TORSDOF 2
ENDMDL
