MODEL 1
REMARK VINA RESULT:    -5.701      0.000      0.000
REMARK INTER + INTRA:          -6.302
REMARK INTER:                  -6.035
REMARK INTRA:                  -0.267
REMARK UNBOUND:                -0.267
REMARK  1 active torsions:
REMARK  status: ('A' for Active; 'I' for Inactive)
REMARK    1  A    between atoms: C_9  and  N_11 
ROOT
ATOM      1 Br   UNK d   1      38.917  12.798  45.203  0.00  0.00    -0.026 Br
ATOM      2  C   UNK d   1      40.337  13.933  45.765  0.00  0.00     0.141 A 
ATOM      3  N   UNK d   1      40.201  15.183  46.296  0.00  0.00    -0.163 NA
ATOM      4  N   UNK d   1      41.393  15.650  46.584  0.00  0.00    -0.255 N 
ATOM      5  C   UNK d   1      42.330  14.744  46.259  0.00  0.00     0.164 A 
ATOM      6  N   UNK d   1      43.669  14.715  46.356  0.00  0.00    -0.222 NA
ATOM      7  C   UNK d   1      44.380  13.662  45.962  0.00  0.00     0.237 A 
ATOM      8  N   UNK d   1      43.761  12.600  45.456  0.00  0.00    -0.223 NA
ATOM      9  C   UNK d   1      42.396  12.524  45.312  0.00  0.00     0.144 A 
ATOM     10  C   UNK d   1      41.679  13.619  45.725  0.00  0.00     0.095 A 
ATOM     11  C   UNK d   1      41.739  16.952  47.172  0.00  0.00     0.182 C 
ENDROOT
BRANCH   9  12
ATOM     12  N   UNK d   1      41.795  11.403  44.738  0.00  0.00    -0.359 N 
ATOM     13  C   UNK d   1      41.739  11.234  43.303  0.00  0.00     0.131 C 
ATOM     14  C   UNK d   1      42.733  10.111  42.937  0.00  0.00     0.079 C 
ATOM     15  C   UNK d   1      42.694   9.066  43.983  0.00  0.00     0.040 A 
ATOM     16  N   UNK d   1      43.319   7.867  43.956  0.00  0.00    -0.347 N 
ATOM     17  C   UNK d   1      42.020   9.119  45.166  0.00  0.00     0.076 A 
ATOM     18  C   UNK d   1      43.023   7.224  45.098  0.00  0.00     0.209 A 
ATOM     19  C   UNK d   1      44.162   7.323  42.922  0.00  0.00     0.157 C 
ATOM     20  N   UNK d   1      42.226   7.975  45.855  0.00  0.00    -0.245 NA
ATOM     21  C   UNK d   1      41.224  10.324  45.502  0.00  0.00     0.185 C 
ENDBRANCH   9  12
TORSDOF 1
ENDMDL
