MODEL 1
REMARK VINA RESULT:    -7.159      0.000      0.000
REMARK INTER + INTRA:          -8.922
REMARK INTER:                  -8.415
REMARK INTRA:                  -0.507
REMARK UNBOUND:                -0.507
REMARK  3 active torsions:
REMARK  status: ('A' for Active; 'I' for Inactive)
REMARK    1  A    between atoms: C_9  and  N_11 
REMARK    2  A    between atoms: N_14  and  C_17 
REMARK    3  A    between atoms: C_17  and  C_19 
REMARK       I    between atoms: C_19  and  N_21 
ROOT
ATOM      1  N   UNK d   1      42.061  11.299  44.663  0.00  0.00    -0.362 N 
ATOM      2  C   UNK d   1      41.208  10.342  45.309  0.00  0.00     0.154 C 
ATOM      3  C   UNK d   1      41.968   9.015  45.231  0.00  0.00     0.293 C 
ATOM      4  N   UNK d   1      42.984   9.057  44.173  0.00  0.00     0.103 N 
ATOM      5  C   UNK d   1      42.420   9.691  42.979  0.00  0.00     0.293 C 
ATOM      6  C   UNK d   1      42.193  11.169  43.232  0.00  0.00     0.154 C 
ENDROOT
BRANCH   1   7
ATOM      7  C   UNK d   1      42.749  12.279  45.387  0.00  0.00     0.144 A 
ATOM      8  N   UNK d   1      44.015  12.075  45.820  0.00  0.00    -0.223 NA
ATOM      9  C   UNK d   1      44.682  12.972  46.537  0.00  0.00     0.237 A 
ATOM     10  N   UNK d   1      44.089  14.126  46.852  0.00  0.00    -0.222 NA
ATOM     11  C   UNK d   1      42.834  14.421  46.468  0.00  0.00     0.164 A 
ATOM     12  N   UNK d   1      42.044  15.496  46.650  0.00  0.00    -0.255 N 
ATOM     13  C   UNK d   1      42.134  13.482  45.716  0.00  0.00     0.095 A 
ATOM     14  N   UNK d   1      40.911  15.254  46.047  0.00  0.00    -0.163 NA
ATOM     15  C   UNK d   1      42.468  16.671  47.398  0.00  0.00     0.182 C 
ATOM     16  C   UNK d   1      40.905  14.045  45.460  0.00  0.00     0.141 A 
ATOM     17 Br   UNK d   1      39.524  13.232  44.447  0.00  0.00    -0.026 Br
ENDBRANCH   1   7
BRANCH   4  18
ATOM     18  C   UNK d   1      43.297   7.674  43.850  0.00  0.00     0.296 C 
ATOM     19  C   UNK d   1      42.397   6.788  44.756  0.00  0.00     0.052 C 
BRANCH  18  20
ATOM     20  C   UNK d   1      44.706   7.362  44.147  0.00  0.00     0.186 C 
ATOM     21  O   UNK d   1      45.044   7.617  45.377  0.00  0.00    -0.175 OA
ATOM     22  N   UNK d   1      45.692   6.848  43.289  0.00  0.00    -0.361 N 
ATOM     23  C   UNK d   1      45.586   6.523  41.899  0.00  0.00     0.124 C 
ATOM     24  C   UNK d   1      47.031   6.614  43.877  0.00  0.00     0.124 C 
ATOM     25  C   UNK d   1      46.201   5.191  41.521  0.00  0.00     0.020 C 
ATOM     26  C   UNK d   1      47.427   4.836  42.290  0.00  0.00     0.003 C 
ATOM     27  C   UNK d   1      47.286   5.133  43.768  0.00  0.00     0.020 C 
ENDBRANCH  18  20
ENDBRANCH   4  18
TORSDOF 3
ENDMDL
