MODEL 1
REMARK VINA RESULT:    -6.521      0.000      0.000
REMARK INTER + INTRA:          -7.038
REMARK INTER:                  -6.902
REMARK INTRA:                  -0.136
REMARK UNBOUND:                -0.136
REMARK  1 active torsions:
REMARK  status: ('A' for Active; 'I' for Inactive)
REMARK    1  A    between atoms: N_8  and  C_11 
ROOT
ATOM      1  C   UNK d   1      48.084   5.116  43.986  0.00  0.00     0.148 A 
ATOM      2  C   UNK d   1      48.815   5.479  45.015  0.00  0.00     0.080 A 
ATOM      3  C   UNK d   1      50.024   4.737  45.405  0.00  0.00     0.043 A 
ATOM      4  C   UNK d   1      50.769   5.091  46.438  0.00  0.00     0.043 C 
ATOM      5  N   UNK d   1      50.335   3.614  44.595  0.00  0.00    -0.189 N 
ATOM      6  C   UNK d   1      49.524   3.233  43.475  0.00  0.00     0.730 A 
ATOM      7  N   UNK d   1      48.428   3.990  43.203  0.00  0.00    -0.044 N 
ATOM      8  N   UNK d   1      47.859   3.428  42.130  0.00  0.00    -0.143 NA
ATOM      9  C   UNK d   1      48.553   2.355  41.722  0.00  0.00     0.275 A 
ATOM     10  N   UNK d   1      49.590   2.243  42.568  0.00  0.00    -0.054 NA
ATOM     11  H   UNK d   1      51.180   3.047  44.820  0.00  0.00     0.184 HD
ENDROOT
BRANCH   1  12
ATOM     12  N   UNK d   1      46.936   5.862  43.657  0.00  0.00    -0.357 N 
ATOM     13  C   UNK d   1      45.658   5.196  43.712  0.00  0.00     0.203 C 
ATOM     14  C   UNK d   1      44.565   6.188  43.937  0.00  0.00     0.124 A 
ATOM     15  N   UNK d   1      44.676   7.436  43.486  0.00  0.00    -0.325 N 
ATOM     16  N   UNK d   1      43.361   6.094  44.560  0.00  0.00    -0.243 NA
ATOM     17  C   UNK d   1      43.577   8.127  43.808  0.00  0.00     0.101 A 
ATOM     18  C   UNK d   1      45.851   7.881  42.765  0.00  0.00     0.151 C 
ATOM     19 Br   UNK d   1      43.174   9.962  43.425  0.00  0.00    -0.029 Br
ATOM     20  C   UNK d   1      42.731   7.281  44.495  0.00  0.00     0.156 A 
ATOM     21  C   UNK d   1      47.108   7.247  43.283  0.00  0.00     0.145 C 
ENDBRANCH   1  12
TORSDOF 1
ENDMDL
