/Users/jonathanwahrer/Desktop/Msc/3_Semester/Drug_Design_Praktikum/waehrer_HTS_screening/HTS_experiment/out/docking_results/vina_output/2qfa/0743_docked.pdbqt
 OpenBabel03162220003D

 30 33  0  0  1  0  0  0  0  0999 V2000
   43.8190    7.8600   44.4170 C   0  0  0  0  0  0  0  0  0  0  0  0
   44.1300    6.8650   45.1530 O   0  0  0  0  0  0  0  0  0  0  0  0
   42.6720    8.6440   44.7170 N   0  0  0  0  0  0  0  0  0  0  0  0
   41.8630    8.3110   45.8570 C   0  0  0  0  0  2  0  0  0  0  0  0
   41.2380    9.4950   46.5290 C   0  0  0  0  0  2  0  0  0  0  0  0
   41.0730   10.6810   45.6250 C   0  0  1  0  0  0  0  0  0  0  0  0
   39.9510   11.4740   46.0250 N   0  0  0  0  0  0  0  0  0  0  0  0
   39.6960   12.6000   45.1920 C   0  0  0  0  0  2  0  0  0  0  0  0
   40.9000   13.3870   44.7930 C   0  0  0  0  0  2  0  0  0  0  0  0
   42.1660   12.8390   45.3450 C   0  0  0  0  0  0  0  0  0  0  0  0
   43.3570   13.4000   45.5550 N   0  0  0  0  0  0  0  0  0  0  0  0
   44.1900   12.4890   46.0760 C   0  0  0  0  0  3  0  0  0  0  0  0
   43.5350   11.3270   46.2050 N   0  0  0  0  0  0  0  0  0  0  0  0
   42.2900   11.5350   45.7580 C   0  0  0  0  0  0  0  0  0  0  0  0
   40.9940   10.2280   44.1760 C   0  0  0  0  0  2  0  0  0  0  0  0
   42.3910    9.7620   43.8220 C   0  0  0  0  0  2  0  0  0  0  0  0
   39.1060   10.8610   46.0290 H   0  0  0  0  0  0  0  0  0  0  0  0
   43.9270   10.4090   46.5910 H   0  0  0  0  0  0  0  0  0  0  0  0
   44.7000    8.1320   43.2700 C   0  0  0  0  0  2  0  0  0  0  0  0
   45.0330    6.9040   42.4800 C   0  0  0  0  0  2  0  0  0  0  0  0
   46.0840    6.1240   43.0550 N   0  0  0  0  0  0  0  0  0  0  0  0
   46.8580    5.2050   42.2950 C   0  0  0  0  0  0  0  0  0  0  0  0
   46.5900    5.0880   41.0620 O   0  0  0  0  0  0  0  0  0  0  0  0
   46.3010    6.2220   44.0650 H   0  0  0  0  0  0  0  0  0  0  0  0
   47.9220    4.4090   42.8510 C   0  0  0  0  0  0  0  0  0  0  0  0
   48.4970    3.3910   42.3020 O   0  0  0  0  0  0  0  0  0  0  0  0
   49.4260    2.8790   43.0520 C   0  0  0  0  0  0  0  0  0  0  0  0
   50.5670    1.3700   42.7010 Br  0  0  0  0  0  0  0  0  0  0  0  0
   49.4710    3.6260   44.2070 C   0  0  0  0  0  3  0  0  0  0  0  0
   48.5140    4.6140   44.1030 C   0  0  0  0  0  3  0  0  0  0  0  0
  1  3  1  0  0  0  0
  1  2  2  0  0  0  0
  3  4  1  0  0  0  0
  4  5  1  0  0  0  0
  6 15  1  6  0  0  0
  6 14  1  0  0  0  0
  6  7  1  0  0  0  0
  6  5  1  0  0  0  0
  7 17  1  0  0  0  0
  8  7  1  0  0  0  0
  9  8  1  0  0  0  0
  9 10  1  0  0  0  0
 10 11  1  0  0  0  0
 10 14  2  0  0  0  0
 11 12  2  0  0  0  0
 12 13  1  0  0  0  0
 13 18  1  0  0  0  0
 14 13  1  0  0  0  0
 16 15  1  0  0  0  0
 16  3  1  0  0  0  0
 19  1  1  0  0  0  0
 20 21  1  0  0  0  0
 20 19  1  0  0  0  0
 21 24  1  0  0  0  0
 22 25  1  0  0  0  0
 22 21  1  0  0  0  0
 23 22  2  0  0  0  0
 25 30  2  0  0  0  0
 26 25  1  0  0  0  0
 26 27  1  0  0  0  0
 27 29  2  0  0  0  0
 28 27  1  0  0  0  0
 30 29  1  0  0  0  0
M  END
>  <Pose>
1

>  <Score>
-7.952

$$$$
