MODEL 1
REMARK VINA RESULT:    -8.009      0.000      0.000
REMARK INTER + INTRA:          -9.902
REMARK INTER:                  -9.414
REMARK INTRA:                  -0.488
REMARK UNBOUND:                -0.488
REMARK  3 active torsions:
REMARK  status: ('A' for Active; 'I' for Inactive)
REMARK    1  A    between atoms: C_4  and  C_7 
REMARK       I    between atoms: C_7  and  N_9 
REMARK    2  A    between atoms: N_9  and  C_10 
REMARK    3  A    between atoms: C_10  and  C_12 
REMARK       I    between atoms: C_12  and  N_14 
ROOT
ATOM      1  C   UNK d   1      43.387   8.762  44.629  0.00  0.00     0.242 C 
ATOM      2  O   UNK d   1      43.482   8.003  45.656  0.00  0.00    -0.271 OA
ATOM      3  N   UNK d   1      43.122  10.116  44.862  0.00  0.00    -0.350 N 
ATOM      4  C   UNK d   1      42.993  11.087  43.795  0.00  0.00     0.129 C 
ATOM      5  C   UNK d   1      41.605  11.646  43.846  0.00  0.00     0.068 C 
ATOM      6  C   UNK d   1      41.247  12.149  45.208  0.00  0.00     0.206 C 
ATOM      7  N   UNK d   1      40.858  13.543  45.095  0.00  0.00     0.099 N 
ATOM      8  C   UNK d   1      39.639  13.604  44.309  0.00  0.00     0.277 C 
ATOM      9  C   UNK d   1      38.494  13.280  45.275  0.00  0.00     0.089 C 
ATOM     10  C   UNK d   1      38.811  11.947  45.841  0.00  0.00     0.039 A 
ATOM     11  N   UNK d   1      38.000  11.057  46.444  0.00  0.00    -0.352 N 
ATOM     12  C   UNK d   1      38.752   9.998  46.783  0.00  0.00     0.207 A 
ATOM     13  N   UNK d   1      40.015  10.239  46.389  0.00  0.00    -0.244 NA
ATOM     14  C   UNK d   1      40.088  11.443  45.799  0.00  0.00     0.097 A 
ATOM     15  C   UNK d   1      42.465  12.055  46.127  0.00  0.00     0.068 C 
ATOM     16  C   UNK d   1      42.962  10.648  46.203  0.00  0.00     0.129 C 
ATOM     17  H   UNK d   1      41.579  14.099  44.557  0.00  0.00     0.317 HD
ATOM     18  H   UNK d   1      36.969  11.123  46.640  0.00  0.00     0.166 HD
ENDROOT
BRANCH   1  19
ATOM     19  C   UNK d   1      43.572   8.103  43.325  0.00  0.00     0.173 C 
ATOM     20  C   UNK d   1      42.325   7.649  42.658  0.00  0.00     0.042 C 
BRANCH  19  21
ATOM     21  N   UNK d   1      44.496   6.989  43.400  0.00  0.00    -0.342 N 
ATOM     22  C   UNK d   1      45.786   7.015  42.841  0.00  0.00     0.276 C 
ATOM     23  O   UNK d   1      46.179   8.038  42.244  0.00  0.00    -0.265 OA
ATOM     24  H   UNK d   1      44.178   6.131  43.895  0.00  0.00     0.163 HD
BRANCH  22  25
ATOM     25  C   UNK d   1      46.666   5.861  42.951  0.00  0.00     0.144 A 
ATOM     26  O   UNK d   1      47.586   5.692  43.901  0.00  0.00    -0.298 OA
ATOM     27  C   UNK d   1      48.217   4.558  43.731  0.00  0.00     0.122 A 
ATOM     28 Br   UNK d   1      49.627   3.880  44.851  0.00  0.00    -0.023 Br
ATOM     29  C   UNK d   1      47.708   3.917  42.613  0.00  0.00     0.048 A 
ATOM     30  C   UNK d   1      46.732   4.754  42.135  0.00  0.00     0.046 A 
ENDBRANCH  22  25
ENDBRANCH  19  21
ENDBRANCH   1  19
TORSDOF 3
ENDMDL
