/Users/jonathanwahrer/Desktop/Msc/3_Semester/Drug_Design_Praktikum/waehrer_HTS_screening/HTS_experiment/out/docking_results/vina_output/2qfa/0746_docked.pdbqt
 OpenBabel03162220013D

 30 33  0  0  1  0  0  0  0  0999 V2000
   43.3870    8.7620   44.6290 C   0  0  0  0  0  0  0  0  0  0  0  0
   43.4820    8.0030   45.6560 O   0  0  0  0  0  0  0  0  0  0  0  0
   43.1220   10.1160   44.8620 N   0  0  0  0  0  0  0  0  0  0  0  0
   42.9930   11.0870   43.7950 C   0  0  0  0  0  2  0  0  0  0  0  0
   41.6050   11.6460   43.8460 C   0  0  0  0  0  2  0  0  0  0  0  0
   41.2470   12.1490   45.2080 C   0  0  1  0  0  0  0  0  0  0  0  0
   40.8580   13.5430   45.0950 N   0  0  0  0  0  0  0  0  0  0  0  0
   39.6390   13.6040   44.3090 C   0  0  0  0  0  2  0  0  0  0  0  0
   38.4940   13.2800   45.2750 C   0  0  0  0  0  2  0  0  0  0  0  0
   38.8110   11.9470   45.8410 C   0  0  0  0  0  0  0  0  0  0  0  0
   38.0000   11.0570   46.4440 N   0  0  0  0  0  0  0  0  0  0  0  0
   38.7520    9.9980   46.7830 C   0  0  0  0  0  3  0  0  0  0  0  0
   40.0150   10.2390   46.3890 N   0  0  0  0  0  0  0  0  0  0  0  0
   40.0880   11.4430   45.7990 C   0  0  0  0  0  0  0  0  0  0  0  0
   42.4650   12.0550   46.1270 C   0  0  0  0  0  2  0  0  0  0  0  0
   42.9620   10.6480   46.2030 C   0  0  0  0  0  2  0  0  0  0  0  0
   41.5790   14.0990   44.5570 H   0  0  0  0  0  0  0  0  0  0  0  0
   36.9690   11.1230   46.6400 H   0  0  0  0  0  0  0  0  0  0  0  0
   43.5720    8.1030   43.3250 C   0  0  2  0  0  3  0  0  0  0  0  0
   42.3250    7.6490   42.6580 C   0  0  0  0  0  1  0  0  0  0  0  0
   44.4960    6.9890   43.4000 N   0  0  0  0  0  0  0  0  0  0  0  0
   45.7860    7.0150   42.8410 C   0  0  0  0  0  0  0  0  0  0  0  0
   46.1790    8.0380   42.2440 O   0  0  0  0  0  0  0  0  0  0  0  0
   44.1780    6.1310   43.8950 H   0  0  0  0  0  0  0  0  0  0  0  0
   46.6660    5.8610   42.9510 C   0  0  0  0  0  0  0  0  0  0  0  0
   47.5860    5.6920   43.9010 O   0  0  0  0  0  0  0  0  0  0  0  0
   48.2170    4.5580   43.7310 C   0  0  0  0  0  0  0  0  0  0  0  0
   49.6270    3.8800   44.8510 Br  0  0  0  0  0  0  0  0  0  0  0  0
   47.7080    3.9170   42.6130 C   0  0  0  0  0  3  0  0  0  0  0  0
   46.7320    4.7540   42.1350 C   0  0  0  0  0  3  0  0  0  0  0  0
  1  3  1  0  0  0  0
  1  2  2  0  0  0  0
  3 16  1  0  0  0  0
  4  5  1  0  0  0  0
  4  3  1  0  0  0  0
  6  5  1  6  0  0  0
  6 14  1  0  0  0  0
  6 15  1  0  0  0  0
  7  6  1  0  0  0  0
  8  7  1  0  0  0  0
  8  9  1  0  0  0  0
  9 10  1  0  0  0  0
 10 11  1  0  0  0  0
 11 18  1  0  0  0  0
 11 12  1  0  0  0  0
 13 12  2  0  0  0  0
 14 10  2  0  0  0  0
 14 13  1  0  0  0  0
 15 16  1  0  0  0  0
 17  7  1  0  0  0  0
 19 20  1  1  0  0  0
 19 21  1  0  0  0  0
 19  1  1  0  0  0  0
 21 24  1  0  0  0  0
 22 25  1  0  0  0  0
 22 21  1  0  0  0  0
 23 22  2  0  0  0  0
 25 26  1  0  0  0  0
 27 26  1  0  0  0  0
 27 28  1  0  0  0  0
 29 27  2  0  0  0  0
 30 29  1  0  0  0  0
 30 25  2  0  0  0  0
M  END
>  <Pose>
1

>  <Score>
-8.009

$$$$
