/Users/jonathanwahrer/Desktop/Msc/3_Semester/Drug_Design_Praktikum/waehrer_HTS_screening/HTS_experiment/out/docking_results/vina_output/2qfa/0755_docked.pdbqt
 OpenBabel03162220013D

 28 31  0  0  0  0  0  0  0  0999 V2000
   43.1890    8.1910   45.2270 C   0  0  0  0  0  0  0  0  0  0  0  0
   42.6470    7.5510   46.1410 O   0  0  0  0  0  0  0  0  0  0  0  0
   42.9030    9.5670   45.0290 N   0  0  0  0  0  0  0  0  0  0  0  0
   43.5450   10.3130   43.9490 C   0  0  0  0  0  2  0  0  0  0  0  0
   43.1150   11.7770   44.0000 C   0  0  0  0  0  2  0  0  0  0  0  0
   43.3070   12.2340   45.3630 N   0  0  0  0  0  0  0  0  0  0  0  0
   42.6330   11.5370   46.4240 C   0  0  0  0  0  2  0  0  0  0  0  0
   41.9770   10.2980   45.8710 C   0  0  0  0  0  2  0  0  0  0  0  0
   44.1470   13.3550   45.6640 C   0  0  0  0  0  0  0  0  0  0  0  0
   45.1370   13.7330   44.8430 N   0  0  0  0  0  0  0  0  0  0  0  0
   45.9060   14.7840   45.1510 C   0  0  0  0  0  0  0  0  0  0  0  0
   45.7190   15.4920   46.2820 N   0  0  0  0  0  0  0  0  0  0  0  0
   47.0000   15.1940   44.2360 C   0  0  0  0  0  1  0  0  0  0  0  0
   44.7440   15.1670   47.1480 C   0  0  0  0  0  0  0  0  0  0  0  0
   43.9620   14.0810   46.8120 C   0  0  0  0  0  3  0  0  0  0  0  0
   44.5070   15.8800   48.3490 N   0  0  0  0  0  0  0  0  0  0  0  0
   44.1870   15.1720   49.5710 C   0  0  0  0  0  2  0  0  0  0  0  0
   44.3020   16.1640   50.7090 C   0  0  0  0  0  2  0  0  0  0  0  0
   43.3470   17.2190   50.5010 N   0  0  0  0  0  0  0  0  0  0  0  0
   43.3330   17.7700   49.1830 C   0  0  0  0  0  2  0  0  0  0  0  0
   42.0550   16.8190   50.9980 C   0  0  0  0  0  1  0  0  0  0  0  0
   44.5680   17.3270   48.4280 C   0  0  0  0  0  2  0  0  0  0  0  0
   44.1490    7.5120   44.3260 C   0  0  0  0  0  0  0  0  0  0  0  0
   45.3320    7.0500   44.6460 O   0  0  0  0  0  0  0  0  0  0  0  0
   45.9430    6.5000   43.6270 C   0  0  0  0  0  0  0  0  0  0  0  0
   47.6810    5.7070   43.6600 Br  0  0  0  0  0  0  0  0  0  0  0  0
   45.1040    6.6030   42.5380 C   0  0  0  0  0  3  0  0  0  0  0  0
   43.9770    7.2410   42.9900 C   0  0  0  0  0  3  0  0  0  0  0  0
  1  2  2  0  0  0  0
  3  1  1  0  0  0  0
  3  8  1  0  0  0  0
  4  5  1  0  0  0  0
  4  3  1  0  0  0  0
  5  6  1  0  0  0  0
  6  9  1  0  0  0  0
  6  7  1  0  0  0  0
  8  7  1  0  0  0  0
  9 15  2  0  0  0  0
 10 11  2  0  0  0  0
 10  9  1  0  0  0  0
 11 12  1  0  0  0  0
 12 14  2  0  0  0  0
 13 11  1  0  0  0  0
 14 16  1  0  0  0  0
 15 14  1  0  0  0  0
 16 22  1  0  0  0  0
 16 17  1  0  0  0  0
 17 18  1  0  0  0  0
 19 18  1  0  0  0  0
 19 21  1  0  0  0  0
 20 19  1  0  0  0  0
 22 20  1  0  0  0  0
 23 24  1  0  0  0  0
 23  1  1  0  0  0  0
 25 26  1  0  0  0  0
 25 24  1  0  0  0  0
 27 28  1  0  0  0  0
 27 25  2  0  0  0  0
 28 23  2  0  0  0  0
M  END
>  <Pose>
1

>  <Score>
-7.125

$$$$
