MODEL 1
REMARK VINA RESULT:    -7.125      0.000      0.000
REMARK INTER + INTRA:          -8.816
REMARK INTER:                  -8.374
REMARK INTRA:                  -0.441
REMARK UNBOUND:                -0.441
REMARK  3 active torsions:
REMARK  status: ('A' for Active; 'I' for Inactive)
REMARK    1  A    between atoms: C_4  and  C_7 
REMARK       I    between atoms: C_7  and  N_9 
REMARK    2  A    between atoms: N_12  and  C_15 
REMARK    3  A    between atoms: C_19  and  N_21 
ROOT
ATOM      1  C   UNK d   1      43.189   8.191  45.227  0.00  0.00     0.277 C 
ATOM      2  O   UNK d   1      42.647   7.551  46.141  0.00  0.00    -0.265 OA
ATOM      3  N   UNK d   1      42.903   9.567  45.029  0.00  0.00    -0.343 N 
ATOM      4  C   UNK d   1      43.545  10.313  43.949  0.00  0.00     0.146 C 
ATOM      5  C   UNK d   1      43.115  11.777  44.000  0.00  0.00     0.144 C 
ATOM      6  N   UNK d   1      43.307  12.234  45.363  0.00  0.00    -0.363 N 
ATOM      7  C   UNK d   1      42.633  11.537  46.424  0.00  0.00     0.144 C 
ATOM      8  C   UNK d   1      41.977  10.298  45.871  0.00  0.00     0.146 C 
ENDROOT
BRANCH   6   9
ATOM      9  C   UNK d   1      44.147  13.355  45.664  0.00  0.00     0.131 A 
ATOM     10  N   UNK d   1      45.137  13.733  44.843  0.00  0.00    -0.216 NA
ATOM     11  C   UNK d   1      45.906  14.784  45.151  0.00  0.00     0.126 A 
ATOM     12  N   UNK d   1      45.719  15.492  46.282  0.00  0.00    -0.216 NA
ATOM     13  C   UNK d   1      47.000  15.194  44.236  0.00  0.00     0.093 C 
ATOM     14  C   UNK d   1      44.744  15.167  47.148  0.00  0.00     0.131 A 
ATOM     15  C   UNK d   1      43.962  14.081  46.812  0.00  0.00     0.100 A 
BRANCH  14  16
ATOM     16  N   UNK d   1      44.507  15.880  48.349  0.00  0.00    -0.362 N 
ATOM     17  C   UNK d   1      44.187  15.172  49.571  0.00  0.00     0.154 C 
ATOM     18  C   UNK d   1      44.302  16.164  50.709  0.00  0.00     0.291 C 
ATOM     19  N   UNK d   1      43.347  17.219  50.501  0.00  0.00     0.087 N 
ATOM     20  C   UNK d   1      43.333  17.770  49.183  0.00  0.00     0.291 C 
ATOM     21  C   UNK d   1      42.055  16.819  50.998  0.00  0.00     0.310 C 
ATOM     22  C   UNK d   1      44.568  17.327  48.428  0.00  0.00     0.154 C 
ENDBRANCH  14  16
ENDBRANCH   6   9
BRANCH   1  23
ATOM     23  C   UNK d   1      44.149   7.512  44.326  0.00  0.00     0.144 A 
ATOM     24  O   UNK d   1      45.332   7.050  44.646  0.00  0.00    -0.298 OA
ATOM     25  C   UNK d   1      45.943   6.500  43.627  0.00  0.00     0.122 A 
ATOM     26 Br   UNK d   1      47.681   5.707  43.660  0.00  0.00    -0.023 Br
ATOM     27  C   UNK d   1      45.104   6.603  42.538  0.00  0.00     0.048 A 
ATOM     28  C   UNK d   1      43.977   7.241  42.990  0.00  0.00     0.046 A 
ENDBRANCH   1  23
TORSDOF 3
ENDMDL
