/Users/jonathanwahrer/Desktop/Msc/3_Semester/Drug_Design_Praktikum/waehrer_HTS_screening/HTS_experiment/out/docking_results/vina_output/2qfa/0767_docked.pdbqt
 OpenBabel03162220023D

 32 35  0  0  0  0  0  0  0  0999 V2000
   43.4320    8.4920   43.2570 C   0  0  0  0  0  2  0  0  0  0  0  0
   44.1360    7.2680   43.4350 N   0  0  0  0  0  0  0  0  0  0  0  0
   45.4710    7.0950   42.9760 C   0  0  0  0  0  0  0  0  0  0  0  0
   46.0380    8.0790   42.3890 O   0  0  0  0  0  0  0  0  0  0  0  0
   43.6700    6.4740   43.9140 H   0  0  0  0  0  0  0  0  0  0  0  0
   46.1950    5.8430   43.1560 C   0  0  0  0  0  0  0  0  0  0  0  0
   45.6110    4.6840   43.3180 O   0  0  0  0  0  0  0  0  0  0  0  0
   46.5020    3.7440   43.4550 N   0  0  0  0  0  0  0  0  0  0  0  0
   47.7410    4.2820   43.3850 C   0  0  0  0  0  0  0  0  0  0  0  0
   47.5090    5.5930   43.1980 N   0  0  0  0  0  0  0  0  0  0  0  0
   49.0200    3.5910   43.4890 C   0  0  0  0  0  0  0  0  0  0  0  0
   49.6070    2.8470   42.5860 O   0  0  0  0  0  0  0  0  0  0  0  0
   50.7450    2.3750   42.9970 C   0  0  0  0  0  0  0  0  0  0  0  0
   51.9720    1.2570   42.0800 Br  0  0  0  0  0  0  0  0  0  0  0  0
   50.9690    2.8300   44.2980 C   0  0  0  0  0  3  0  0  0  0  0  0
   49.8560    3.6030   44.5910 C   0  0  0  0  0  3  0  0  0  0  0  0
   42.8770    9.0470   44.5520 C   0  0  0  0  0  2  0  0  0  0  0  0
   43.7070   10.1280   45.0630 N   0  0  0  0  0  0  0  0  0  0  0  0
   43.3350   11.4580   44.8020 C   0  0  0  0  0  0  0  0  0  0  0  0
   42.2610   11.6000   44.1150 O   0  0  0  0  0  0  0  0  0  0  0  0
   44.5630    9.9410   45.6170 H   0  0  0  0  0  0  0  0  0  0  0  0
   44.0080   12.6640   45.2100 C   0  0  0  0  0  0  0  0  0  0  0  0
   45.0040   13.1840   44.3850 C   0  0  0  0  0  3  0  0  0  0  0  0
   45.6540   14.3370   44.7450 C   0  0  0  0  0  0  0  0  0  0  0  0
   45.3310   14.9740   45.9030 C   0  0  0  0  0  0  0  0  0  0  0  0
   46.6580   14.8860   43.9410 C   0  0  0  0  0  3  0  0  0  0  0  0
   45.9960   16.1480   46.2650 C   0  0  0  0  0  3  0  0  0  0  0  0
   44.3960   14.4650   46.6520 O   0  0  0  0  0  0  0  0  0  0  0  0
   46.9830   16.6920   45.4780 C   0  0  0  0  0  3  0  0  0  0  0  0
   47.3040   16.0440   44.3130 C   0  0  0  0  0  3  0  0  0  0  0  0
   43.7280   13.3540   46.3630 C   0  0  0  0  0  0  0  0  0  0  0  0
   42.8510   12.9700   47.1720 O   0  0  0  0  0  0  0  0  0  0  0  0
  1  2  1  0  0  0  0
  1 17  1  0  0  0  0
  2  5  1  0  0  0  0
  3  6  1  0  0  0  0
  3  2  1  0  0  0  0
  4  3  2  0  0  0  0
  6 10  2  0  0  0  0
  6  7  1  0  0  0  0
  7  8  1  0  0  0  0
  9  8  2  0  0  0  0
  9 11  1  0  0  0  0
 10  9  1  0  0  0  0
 11 16  2  0  0  0  0
 12 13  1  0  0  0  0
 12 11  1  0  0  0  0
 13 15  2  0  0  0  0
 14 13  1  0  0  0  0
 15 16  1  0  0  0  0
 17 18  1  0  0  0  0
 18 21  1  0  0  0  0
 19 18  1  0  0  0  0
 19 22  1  0  0  0  0
 20 19  2  0  0  0  0
 22 31  1  0  0  0  0
 23 24  1  0  0  0  0
 23 22  2  0  0  0  0
 24 25  1  0  0  0  0
 25 27  2  0  0  0  0
 25 28  1  0  0  0  0
 26 30  1  0  0  0  0
 26 24  2  0  0  0  0
 29 27  1  0  0  0  0
 30 29  2  0  0  0  0
 31 28  1  0  0  0  0
 31 32  2  0  0  0  0
M  END
>  <Pose>
1

>  <Score>
-8.959

$$$$
