MODEL 1
REMARK VINA RESULT:    -8.147      0.000      0.000
REMARK INTER + INTRA:          -9.913
REMARK INTER:                  -9.576
REMARK INTRA:                  -0.337
REMARK UNBOUND:                -0.337
REMARK  3 active torsions:
REMARK  status: ('A' for Active; 'I' for Inactive)
REMARK    1  A    between atoms: C_4  and  C_9 
REMARK       I    between atoms: C_9  and  N_11 
REMARK    2  A    between atoms: N_14  and  C_17 
REMARK    3  A    between atoms: C_17  and  C_18 
ROOT
ATOM      1  C   UNK d   1      43.969   7.304  44.275  0.00  0.00     0.189 C 
ATOM      2  O   UNK d   1      43.405   6.527  45.181  0.00  0.00    -0.171 OA
ATOM      3  N   UNK d   1      43.475   8.598  44.209  0.00  0.00    -0.355 N 
ATOM      4  C   UNK d   1      42.383   8.998  45.133  0.00  0.00     0.155 C 
ATOM      5  C   UNK d   1      42.830  10.211  45.913  0.00  0.00     0.292 C 
ATOM      6  N   UNK d   1      43.166  11.251  45.023  0.00  0.00     0.095 N 
ATOM      7  C   UNK d   1      43.019  10.864  43.661  0.00  0.00     0.292 C 
ATOM      8  C   UNK d   1      43.894   9.629  43.339  0.00  0.00     0.155 C 
ENDROOT
BRANCH   1   9
ATOM      9  C   UNK d   1      45.007   6.615  43.534  0.00  0.00     0.042 A 
ATOM     10  C   UNK d   1      46.090   6.019  44.122  0.00  0.00     0.043 A 
ATOM     11  C   UNK d   1      47.040   5.376  43.322  0.00  0.00     0.087 A 
ATOM     12 Br   UNK d   1      48.553   4.536  44.066  0.00  0.00    -0.045 Br
ATOM     13  C   UNK d   1      46.856   5.361  41.961  0.00  0.00     0.305 A 
ATOM     14  O   UNK d   1      45.827   5.931  41.442  0.00  0.00    -0.286 OA
ATOM     15  O   UNK d   1      47.681   4.795  41.197  0.00  0.00    -0.258 OA
ATOM     16  C   UNK d   1      44.921   6.538  42.141  0.00  0.00     0.162 A 
ENDBRANCH   1   9
BRANCH   6  17
ATOM     17  C   UNK d   1      42.588  12.528  45.294  0.00  0.00     0.311 C 
BRANCH  17  18
ATOM     18  C   UNK d   1      43.531  13.577  45.721  0.00  0.00    -0.027 A 
ATOM     19  C   UNK d   1      43.266  14.525  46.654  0.00  0.00     0.048 A 
ATOM     20  C   UNK d   1      44.210  15.465  46.983  0.00  0.00     0.105 A 
ATOM     21  C   UNK d   1      45.430  15.446  46.363  0.00  0.00     0.105 A 
ATOM     22  O   UNK d   1      44.237  16.543  47.882  0.00  0.00    -0.323 OA
ATOM     23  C   UNK d   1      45.722  14.493  45.412  0.00  0.00     0.040 A 
ATOM     24  O   UNK d   1      46.214  16.478  46.848  0.00  0.00    -0.323 OA
ATOM     25  C   UNK d   1      44.770  13.576  45.107  0.00  0.00     0.012 A 
ATOM     26  C   UNK d   1      45.328  17.366  47.515  0.00  0.00     0.352 C 
ENDBRANCH  17  18
ENDBRANCH   6  17
TORSDOF 3
ENDMDL
