MODEL 1
REMARK VINA RESULT:    -6.446      0.000      0.000
REMARK INTER + INTRA:          -8.784
REMARK INTER:                  -8.706
REMARK INTRA:                  -0.077
REMARK UNBOUND:                -0.077
REMARK  7 active torsions:
REMARK  status: ('A' for Active; 'I' for Inactive)
REMARK    1  A    between atoms: N_4  and  C_10 
REMARK    2  A    between atoms: C_11  and  O_33 
REMARK       I    between atoms: N_18  and  C_21 
REMARK    3  A    between atoms: C_21  and  C_23 
REMARK    4  A    between atoms: C_25  and  O_29 
REMARK    5  A    between atoms: O_29  and  C_30 
REMARK    6  A    between atoms: C_30  and  C_31 
REMARK    7  A    between atoms: C_31  and  N_32 
ROOT
ATOM      1  C   UNK d   1      41.035  14.230  46.648  0.00  0.00     0.152 C 
ATOM      2  C   UNK d   1      40.016  13.311  47.334  0.00  0.00     0.080 C 
ATOM      3  C   UNK d   1      40.723  12.120  47.883  0.00  0.00     0.077 C 
ATOM      4  C   UNK d   1      41.331  11.348  46.734  0.00  0.00     0.067 C 
ATOM      5  O   UNK d   1      41.462  12.111  45.589  0.00  0.00    -0.378 OA
ATOM      6  C   UNK d   1      41.952  13.388  45.824  0.00  0.00     0.197 C 
ATOM      7  C   UNK d   1      42.604  10.750  47.213  0.00  0.00     0.058 C 
ATOM      8  C   UNK d   1      43.215   9.930  46.066  0.00  0.00     0.128 C 
ATOM      9  N   UNK d   1      42.357   8.816  45.826  0.00  0.00    -0.359 N 
ATOM     10  C   UNK d   1      41.049   8.868  46.560  0.00  0.00     0.128 C 
ATOM     11  C   UNK d   1      40.396  10.202  46.409  0.00  0.00     0.058 C 
ATOM     12  C   UNK d   1      42.621   7.739  45.002  0.00  0.00     0.187 C 
ATOM     13  O   UNK d   1      41.679   6.820  44.960  0.00  0.00    -0.171 OA
ATOM     14  C   UNK d   1      39.205  14.059  48.342  0.00  0.00     0.048 C 
ENDROOT
BRANCH   2  15
ATOM     15  O   UNK d   1      39.150  12.869  46.331  0.00  0.00    -0.388 OA
ATOM     16  H   UNK d   1      38.391  12.339  46.684  0.00  0.00     0.210 HD
ENDBRANCH   2  15
BRANCH   1  17
ATOM     17  N   UNK d   1      41.667  15.125  47.563  0.00  0.00    -0.298 N 
ATOM     18  C   UNK d   1      42.566  14.751  48.491  0.00  0.00     0.121 A 
ATOM     19  C   UNK d   1      43.156  15.636  49.357  0.00  0.00     0.094 A 
ATOM     20 Br   UNK d   1      44.412  14.965  50.620  0.00  0.00    -0.044 Br
ATOM     21  C   UNK d   1      42.830  16.968  49.292  0.00  0.00     0.268 A 
ATOM     22  N   UNK d   1      41.932  17.342  48.365  0.00  0.00    -0.274 N 
ATOM     23  O   UNK d   1      43.374  17.771  50.089  0.00  0.00    -0.267 OA
ATOM     24  C   UNK d   1      41.381  16.462  47.544  0.00  0.00     0.329 A 
ATOM     25  H   UNK d   1      41.694  18.355  48.328  0.00  0.00     0.173 HD
ATOM     26  O   UNK d   1      40.543  16.893  46.699  0.00  0.00    -0.246 OA
ENDBRANCH   1  17
BRANCH  12  27
ATOM     27  C   UNK d   1      43.743   7.447  44.183  0.00  0.00     0.020 A 
ATOM     28  C   UNK d   1      44.260   6.140  44.131  0.00  0.00     0.052 A 
ATOM     29  C   UNK d   1      45.313   5.733  43.376  0.00  0.00     0.069 A 
ATOM     30  C   UNK d   1      45.931   6.717  42.577  0.00  0.00     0.037 A 
ATOM     31  C   UNK d   1      45.452   7.982  42.610  0.00  0.00     0.004 A 
ATOM     32  C   UNK d   1      44.360   8.372  43.404  0.00  0.00     0.016 A 
BRANCH  29  33
ATOM     33  O   UNK d   1      45.787   4.455  43.356  0.00  0.00    -0.349 OA
BRANCH  33  34
ATOM     34  C   UNK d   1      47.048   3.946  43.449  0.00  0.00     0.205 C 
BRANCH  34  35
ATOM     35  C   UNK d   1      47.664   3.669  42.120  0.00  0.00     0.293 C 
BRANCH  35  36
ATOM     36  N   UNK d   1      47.684   2.225  41.882  0.00  0.00     0.080 N 
ATOM     37  H   UNK d   1      46.836   1.760  42.237  0.00  0.00     0.312 HD
ATOM     38  H   UNK d   1      48.570   1.788  42.153  0.00  0.00     0.312 HD
ENDBRANCH  35  36
ENDBRANCH  34  35
ENDBRANCH  33  34
ENDBRANCH  29  33
ENDBRANCH  12  27
TORSDOF 7
ENDMDL
