MODEL 1
REMARK VINA RESULT:    -7.734      0.000      0.000
REMARK INTER + INTRA:         -10.183
REMARK INTER:                 -10.221
REMARK INTRA:                   0.038
REMARK UNBOUND:                 0.038
REMARK  7 active torsions:
REMARK  status: ('A' for Active; 'I' for Inactive)
REMARK    1  A    between atoms: N_4  and  C_10 
REMARK    2  A    between atoms: C_11  and  O_33 
REMARK       I    between atoms: N_18  and  C_21 
REMARK    3  A    between atoms: C_21  and  C_23 
REMARK    4  A    between atoms: C_23  and  N_24 
REMARK    5  A    between atoms: C_23  and  C_25 
REMARK    6  A    between atoms: C_25  and  C_26 
REMARK    7  A    between atoms: C_29  and  O_32 
ROOT
ATOM      1  C   UNK d   1      39.139  13.439  46.177  0.00  0.00     0.152 C 
ATOM      2  C   UNK d   1      39.292  11.980  46.342  0.00  0.00     0.080 C 
ATOM      3  C   UNK d   1      40.720  11.471  46.110  0.00  0.00     0.077 C 
ATOM      4  C   UNK d   1      41.230  11.919  44.763  0.00  0.00     0.067 C 
ATOM      5  O   UNK d   1      40.547  13.025  44.297  0.00  0.00    -0.378 OA
ATOM      6  C   UNK d   1      40.201  13.944  45.239  0.00  0.00     0.197 C 
ATOM      7  C   UNK d   1      41.103  10.740  43.814  0.00  0.00     0.058 C 
ATOM      8  C   UNK d   1      42.404   9.989  43.728  0.00  0.00     0.129 C 
ATOM      9  N   UNK d   1      42.988   9.924  45.044  0.00  0.00    -0.350 N 
ATOM     10  C   UNK d   1      43.465  11.187  45.588  0.00  0.00     0.129 C 
ATOM     11  C   UNK d   1      42.685  12.293  44.915  0.00  0.00     0.058 C 
ATOM     12  C   UNK d   1      43.097   8.710  45.727  0.00  0.00     0.253 C 
ATOM     13  O   UNK d   1      43.630   8.782  46.894  0.00  0.00    -0.271 OA
ATOM     14  C   UNK d   1      38.325  11.137  45.577  0.00  0.00     0.048 C 
ENDROOT
BRANCH   2  15
ATOM     15  O   UNK d   1      39.054  11.691  47.710  0.00  0.00    -0.388 OA
ATOM     16  H   UNK d   1      39.845  11.291  48.141  0.00  0.00     0.210 HD
ENDBRANCH   2  15
BRANCH   1  17
ATOM     17  N   UNK d   1      37.819  13.864  45.755  0.00  0.00    -0.298 N 
ATOM     18  C   UNK d   1      37.553  13.994  44.459  0.00  0.00     0.121 A 
ATOM     19  C   UNK d   1      36.312  14.402  44.028  0.00  0.00     0.094 A 
ATOM     20 Br   UNK d   1      35.950  14.582  42.150  0.00  0.00    -0.044 Br
ATOM     21  C   UNK d   1      35.342  14.676  44.969  0.00  0.00     0.268 A 
ATOM     22  N   UNK d   1      35.670  14.527  46.265  0.00  0.00    -0.274 N 
ATOM     23  O   UNK d   1      34.184  15.055  44.622  0.00  0.00    -0.267 OA
ATOM     24  C   UNK d   1      36.887  14.128  46.667  0.00  0.00     0.329 A 
ATOM     25  H   UNK d   1      34.924  14.738  46.996  0.00  0.00     0.173 HD
ATOM     26  O   UNK d   1      37.103  14.016  47.919  0.00  0.00    -0.246 OA
ENDBRANCH   1  17
BRANCH  12  27
ATOM     27  C   UNK d   1      42.696   7.372  45.307  0.00  0.00     0.313 C 
BRANCH  27  28
ATOM     28  N   UNK d   1      41.332   7.050  45.732  0.00  0.00     0.092 N 
ATOM     29  H   UNK d   1      41.124   7.460  46.668  0.00  0.00     0.313 HD
ATOM     30  H   UNK d   1      41.258   6.009  45.845  0.00  0.00     0.313 HD
ENDBRANCH  27  28
BRANCH  27  31
ATOM     31  C   UNK d   1      42.733   7.124  43.816  0.00  0.00     0.083 C 
BRANCH  31  32
ATOM     32  C   UNK d   1      44.157   6.735  43.497  0.00  0.00    -0.056 A 
ATOM     33  C   UNK d   1      45.026   7.660  42.981  0.00  0.00     0.010 A 
ATOM     34  C   UNK d   1      46.330   7.259  42.701  0.00  0.00     0.037 A 
ATOM     35  C   UNK d   1      46.757   5.971  42.930  0.00  0.00     0.065 A 
ATOM     36  C   UNK d   1      45.852   5.068  43.451  0.00  0.00     0.037 A 
ATOM     37  C   UNK d   1      44.553   5.435  43.738  0.00  0.00     0.010 A 
BRANCH  35  38
ATOM     38  O   UNK d   1      48.063   5.630  42.633  0.00  0.00    -0.361 OA
ATOM     39  H   UNK d   1      48.471   4.715  42.827  0.00  0.00     0.217 HD
ENDBRANCH  35  38
ENDBRANCH  31  32
ENDBRANCH  27  31
ENDBRANCH  12  27
TORSDOF 7
ENDMDL
