MODEL 1
REMARK VINA RESULT:    -6.471      0.000      0.000
REMARK INTER + INTRA:         -10.032
REMARK INTER:                  -8.552
REMARK INTRA:                  -1.480
REMARK UNBOUND:                -1.480
REMARK  6 active torsions:
REMARK  status: ('A' for Active; 'I' for Inactive)
REMARK    1  A    between atoms: N_4  and  C_10 
REMARK    2  A    between atoms: C_11  and  O_34 
REMARK       I    between atoms: N_18  and  C_21 
REMARK    3  A    between atoms: C_21  and  C_23 
REMARK    4  A    between atoms: C_23  and  N_24 
REMARK    5  A    between atoms: C_23  and  C_28 
REMARK       I    between atoms: N_24  and  C_25 
REMARK    6  A    between atoms: C_28  and  C_29 
ROOT
ATOM      1  C   UNK d   1      42.627   9.719  44.540  0.00  0.00     0.152 C 
ATOM      2  C   UNK d   1      42.701  10.196  46.000  0.00  0.00     0.080 C 
ATOM      3  C   UNK d   1      41.491  11.129  46.145  0.00  0.00     0.077 C 
ATOM      4  C   UNK d   1      41.489  12.169  45.059  0.00  0.00     0.067 C 
ATOM      5  O   UNK d   1      42.672  12.097  44.363  0.00  0.00    -0.378 OA
ATOM      6  C   UNK d   1      42.885  10.895  43.692  0.00  0.00     0.197 C 
ATOM      7  C   UNK d   1      41.477  13.518  45.764  0.00  0.00     0.058 C 
ATOM      8  C   UNK d   1      40.059  13.900  46.107  0.00  0.00     0.129 C 
ATOM      9  N   UNK d   1      39.204  12.701  46.157  0.00  0.00    -0.350 N 
ATOM     10  C   UNK d   1      38.985  12.052  44.899  0.00  0.00     0.129 C 
ATOM     11  C   UNK d   1      40.314  12.122  44.149  0.00  0.00     0.058 C 
ATOM     12  C   UNK d   1      38.676  12.209  47.350  0.00  0.00     0.243 C 
ATOM     13  O   UNK d   1      38.961  12.763  48.481  0.00  0.00    -0.271 OA
ATOM     14  C   UNK d   1      43.991  10.901  46.278  0.00  0.00     0.048 C 
ENDROOT
BRANCH   2  15
ATOM     15  O   UNK d   1      42.565   9.156  46.894  0.00  0.00    -0.388 OA
ATOM     16  H   UNK d   1      42.235   9.512  47.758  0.00  0.00     0.210 HD
ENDBRANCH   2  15
BRANCH   1  17
ATOM     17  N   UNK d   1      43.336   8.525  44.319  0.00  0.00    -0.298 N 
ATOM     18  C   UNK d   1      44.601   8.437  43.901  0.00  0.00     0.121 A 
ATOM     19  C   UNK d   1      45.235   7.209  43.706  0.00  0.00     0.094 A 
ATOM     20 Br   UNK d   1      47.032   7.199  43.111  0.00  0.00    -0.044 Br
ATOM     21  C   UNK d   1      44.547   6.040  43.946  0.00  0.00     0.268 A 
ATOM     22  N   UNK d   1      43.273   6.144  44.366  0.00  0.00    -0.274 N 
ATOM     23  O   UNK d   1      45.101   4.906  43.775  0.00  0.00    -0.267 OA
ATOM     24  C   UNK d   1      42.690   7.341  44.546  0.00  0.00     0.329 A 
ATOM     25  H   UNK d   1      42.705   5.279  44.563  0.00  0.00     0.173 HD
ATOM     26  O   UNK d   1      41.493   7.370  44.941  0.00  0.00    -0.246 OA
ENDBRANCH   1  17
BRANCH  12  27
ATOM     27  C   UNK d   1      37.785  11.061  47.414  0.00  0.00     0.182 C 
BRANCH  27  28
ATOM     28  N   UNK d   1      38.117  10.209  48.530  0.00  0.00    -0.348 N 
ATOM     29  C   UNK d   1      39.048   9.180  48.592  0.00  0.00     0.214 C 
ATOM     30  O   UNK d   1      39.772   8.797  47.649  0.00  0.00    -0.274 OA
ATOM     31  C   UNK d   1      39.263   8.406  49.880  0.00  0.00     0.117 C 
ATOM     32  H   UNK d   1      37.559  10.411  49.417  0.00  0.00     0.163 HD
ENDBRANCH  27  28
BRANCH  27  33
ATOM     33  C   UNK d   1      36.292  11.498  47.546  0.00  0.00     0.095 C 
BRANCH  33  34
ATOM     34  C   UNK d   1      35.752  11.848  46.220  0.00  0.00     0.053 A 
ATOM     35  N   UNK d   1      35.486  13.036  45.700  0.00  0.00    -0.247 NA
ATOM     36  C   UNK d   1      34.995  12.927  44.435  0.00  0.00     0.207 A 
ATOM     37  N   UNK d   1      34.956  11.610  44.160  0.00  0.00    -0.359 N 
ATOM     38  C   UNK d   1      35.413  10.935  45.236  0.00  0.00     0.116 A 
ATOM     39  H   UNK d   1      34.616  11.223  43.246  0.00  0.00     0.166 HD
ENDBRANCH  33  34
ENDBRANCH  27  33
ENDBRANCH  12  27
TORSDOF 6
ENDMDL
