/Users/jonathanwahrer/Desktop/Msc/3_Semester/Drug_Design_Praktikum/waehrer_HTS_screening/HTS_experiment/out/docking_results/vina_output/2qfa/0784_docked.pdbqt
 OpenBabel03162220033D

 39 42  0  0  1  0  0  0  0  0999 V2000
   42.6270    9.7190   44.5400 C   0  0  1  0  0  3  0  0  0  0  0  0
   42.7010   10.1960   46.0000 C   0  0  2  0  0  0  0  0  0  0  0  0
   41.4910   11.1290   46.1450 C   0  0  0  0  0  2  0  0  0  0  0  0
   41.4890   12.1690   45.0590 C   0  0  2  0  0  0  0  0  0  0  0  0
   42.6720   12.0970   44.3630 O   0  0  0  0  0  0  0  0  0  0  0  0
   42.8850   10.8950   43.6920 C   0  0  0  0  0  2  0  0  0  0  0  0
   41.4770   13.5180   45.7640 C   0  0  0  0  0  2  0  0  0  0  0  0
   40.0590   13.9000   46.1070 C   0  0  0  0  0  2  0  0  0  0  0  0
   39.2040   12.7010   46.1570 N   0  0  0  0  0  0  0  0  0  0  0  0
   38.9850   12.0520   44.8990 C   0  0  0  0  0  2  0  0  0  0  0  0
   40.3140   12.1220   44.1490 C   0  0  0  0  0  2  0  0  0  0  0  0
   38.6760   12.2090   47.3500 C   0  0  0  0  0  0  0  0  0  0  0  0
   38.9610   12.7630   48.4810 O   0  0  0  0  0  0  0  0  0  0  0  0
   43.9910   10.9010   46.2780 C   0  0  0  0  0  1  0  0  0  0  0  0
   42.5650    9.1560   46.8940 O   0  0  0  0  0  0  0  0  0  0  0  0
   42.2350    9.5120   47.7580 H   0  0  0  0  0  0  0  0  0  0  0  0
   43.3360    8.5250   44.3190 N   0  0  0  0  0  0  0  0  0  0  0  0
   44.6010    8.4370   43.9010 C   0  0  0  0  0  3  0  0  0  0  0  0
   45.2350    7.2090   43.7060 C   0  0  0  0  0  0  0  0  0  0  0  0
   47.0320    7.1990   43.1110 Br  0  0  0  0  0  0  0  0  0  0  0  0
   44.5470    6.0400   43.9460 C   0  0  0  0  0  0  0  0  0  0  0  0
   43.2730    6.1440   44.3660 N   0  0  0  0  0  0  0  0  0  0  0  0
   45.1010    4.9060   43.7750 O   0  0  0  0  0  0  0  0  0  0  0  0
   42.6900    7.3410   44.5460 C   0  0  0  0  0  0  0  0  0  0  0  0
   42.7050    5.2790   44.5630 H   0  0  0  0  0  0  0  0  0  0  0  0
   41.4930    7.3700   44.9410 O   0  0  0  0  0  0  0  0  0  0  0  0
   37.7850   11.0610   47.4140 C   0  0  1  0  0  3  0  0  0  0  0  0
   38.1170   10.2090   48.5300 N   0  0  0  0  0  0  0  0  0  0  0  0
   39.0480    9.1800   48.5920 C   0  0  0  0  0  0  0  0  0  0  0  0
   39.7720    8.7970   47.6490 O   0  0  0  0  0  0  0  0  0  0  0  0
   39.2630    8.4060   49.8800 C   0  0  0  0  0  1  0  0  0  0  0  0
   37.5590   10.4110   49.4170 H   0  0  0  0  0  0  0  0  0  0  0  0
   36.2920   11.4980   47.5460 C   0  0  0  0  0  2  0  0  0  0  0  0
   35.7520   11.8480   46.2200 C   0  0  0  0  0  0  0  0  0  0  0  0
   35.4860   13.0360   45.7000 N   0  0  0  0  0  0  0  0  0  0  0  0
   34.9950   12.9270   44.4350 C   0  0  0  0  0  3  0  0  0  0  0  0
   34.9560   11.6100   44.1600 N   0  0  0  0  0  0  0  0  0  0  0  0
   35.4130   10.9350   45.2360 C   0  0  0  0  0  3  0  0  0  0  0  0
   34.6160   11.2230   43.2460 H   0  0  0  0  0  0  0  0  0  0  0  0
  1  6  1  6  0  0  0
  1  2  1  0  0  0  0
  2  3  1  0  0  0  0
  2 14  1  1  0  0  0
  2 15  1  0  0  0  0
  4 11  1  6  0  0  0
  4  7  1  0  0  0  0
  4  3  1  0  0  0  0
  5  4  1  0  0  0  0
  6  5  1  0  0  0  0
  7  8  1  0  0  0  0
  8  9  1  0  0  0  0
  9 12  1  0  0  0  0
 10  9  1  0  0  0  0
 11 10  1  0  0  0  0
 12 27  1  0  0  0  0
 12 13  2  0  0  0  0
 15 16  1  0  0  0  0
 17  1  1  0  0  0  0
 17 24  1  0  0  0  0
 18 17  1  0  0  0  0
 19 18  2  0  0  0  0
 19 21  1  0  0  0  0
 20 19  1  0  0  0  0
 21 22  1  0  0  0  0
 22 24  1  0  0  0  0
 22 25  1  0  0  0  0
 23 21  2  0  0  0  0
 24 26  2  0  0  0  0
 27 33  1  1  0  0  0
 27 28  1  0  0  0  0
 28 29  1  0  0  0  0
 28 32  1  0  0  0  0
 29 31  1  0  0  0  0
 30 29  2  0  0  0  0
 34 33  1  0  0  0  0
 35 34  1  0  0  0  0
 36 35  2  0  0  0  0
 37 36  1  0  0  0  0
 37 38  1  0  0  0  0
 38 34  2  0  0  0  0
 39 37  1  0  0  0  0
M  END
>  <Pose>
1

>  <Score>
-6.471

$$$$
