/Users/jonathanwahrer/Desktop/Msc/3_Semester/Drug_Design_Praktikum/waehrer_HTS_screening/HTS_experiment/out/docking_results/vina_output/2qfa/0786_docked.pdbqt
 OpenBabel03162220043D

 25 28  0  0  1  0  0  0  0  0999 V2000
   43.9690    8.9120   44.7110 N   0  0  0  0  0  0  0  0  0  0  0  0
   42.9280    8.3960   45.4990 C   0  0  0  0  0  0  0  0  0  0  0  0
   42.1290    7.5690   45.0140 O   0  0  0  0  0  0  0  0  0  0  0  0
   44.6280    9.5990   45.1250 H   0  0  0  0  0  0  0  0  0  0  0  0
   44.1090    8.4800   43.3390 C   0  0  0  0  0  2  0  0  0  0  0  0
   45.1050    7.3850   43.2190 C   0  0  0  0  0  0  0  0  0  0  0  0
   45.1960    6.4590   42.2460 N   0  0  0  0  0  0  0  0  0  0  0  0
   46.2320    5.6420   42.5000 C   0  0  0  0  0  0  0  0  0  0  0  0
   46.8160    6.0400   43.6450 N   0  0  0  0  0  0  0  0  0  0  0  0
   46.7260    4.5460   41.7980 C   0  0  0  0  0  3  0  0  0  0  0  0
   47.9000    5.3490   44.1000 C   0  0  0  0  0  3  0  0  0  0  0  0
   46.1330    7.1090   44.0950 C   0  0  0  0  0  3  0  0  0  0  0  0
   48.4120    4.2610   43.4280 C   0  0  0  0  0  0  0  0  0  0  0  0
   49.9350    3.2930   44.0720 Br  0  0  0  0  0  0  0  0  0  0  0  0
   47.8160    3.8490   42.2550 C   0  0  0  0  0  3  0  0  0  0  0  0
   42.7680    8.8220   46.9020 C   0  0  1  0  0  3  0  0  0  0  0  0
   43.1940   10.2590   47.0700 C   0  0  0  0  0  2  0  0  0  0  0  0
   42.3400   11.0570   46.2110 N   0  0  0  0  0  0  0  0  0  0  0  0
   41.0490   10.7250   46.0500 C   0  0  0  0  0  0  0  0  0  0  0  0
   42.5650   12.1460   45.4760 C   0  0  0  0  0  0  0  0  0  0  0  0
   40.5150   11.6340   45.2090 N   0  0  0  0  0  0  0  0  0  0  0  0
   40.3920    9.5770   46.6940 C   0  0  0  0  0  2  0  0  0  0  0  0
   41.4270   12.4920   44.8600 N   0  0  0  0  0  0  0  0  0  0  0  0
   41.3370    8.6210   47.3290 C   0  0  0  0  0  2  0  0  0  0  0  0
   43.8380   12.9130   45.3080 C   0  0  0  0  0  1  0  0  0  0  0  0
  1  4  1  0  0  0  0
  1  2  1  0  0  0  0
  3  2  2  0  0  0  0
  5  1  1  0  0  0  0
  6  5  1  0  0  0  0
  6 12  2  0  0  0  0
  7  8  2  0  0  0  0
  7  6  1  0  0  0  0
  8  9  1  0  0  0  0
  9 12  1  0  0  0  0
  9 11  1  0  0  0  0
 10 15  2  0  0  0  0
 10  8  1  0  0  0  0
 13 14  1  0  0  0  0
 13 11  2  0  0  0  0
 15 13  1  0  0  0  0
 16  2  1  6  0  0  0
 16 17  1  0  0  0  0
 16 24  1  0  0  0  0
 18 17  1  0  0  0  0
 19 18  1  0  0  0  0
 19 22  1  0  0  0  0
 20 18  1  0  0  0  0
 21 19  2  0  0  0  0
 22 24  1  0  0  0  0
 23 21  1  0  0  0  0
 23 20  2  0  0  0  0
 25 20  1  0  0  0  0
M  END
>  <Pose>
1

>  <Score>
-6.936

$$$$
