/Users/jonathanwahrer/Desktop/Msc/3_Semester/Drug_Design_Praktikum/waehrer_HTS_screening/HTS_experiment/out/docking_results/vina_output/2qfa/0789_docked.pdbqt
 OpenBabel03162220043D

 21 24  0  0  1  0  0  0  0  0999 V2000
   48.0490    3.9280   42.7000 C   0  0  0  0  0  0  0  0  0  0  0  0
   48.0260    3.2820   41.6170 O   0  0  0  0  0  0  0  0  0  0  0  0
   49.1170    3.6840   43.6010 N   0  0  0  0  0  0  0  0  0  0  0  0
   50.1230    2.7410   43.2730 C   0  0  0  0  0  2  0  0  0  0  0  0
   50.7720    2.1200   44.4520 C   0  0  2  0  0  3  0  0  0  0  0  0
   50.3150    2.5750   45.7340 N   0  0  2  0  0  0  0  0  0  0  0  0
   50.2330    4.0230   45.7860 C   0  0  0  0  0  2  0  0  0  0  0  0
   49.1240    4.4250   44.8330 C   0  0  0  0  0  2  0  0  0  0  0  0
   51.2540    2.0020   46.6510 C   0  0  0  0  0  2  0  0  0  0  0  0
   52.5890    2.0680   45.9520 C   0  0  0  0  0  2  0  0  0  0  0  0
   52.2630    2.4080   44.5150 C   0  0  0  0  0  2  0  0  0  0  0  0
   46.9810    4.8980   42.9780 C   0  0  0  0  0  0  0  0  0  0  0  0
   46.8940    6.1980   42.6620 N   0  0  0  0  0  0  0  0  0  0  0  0
   45.7620    6.7330   43.0940 N   0  0  0  0  0  0  0  0  0  0  0  0
   45.2240    7.9790   43.0250 C   0  0  0  0  0  3  0  0  0  0  0  0
   45.0400    5.7910   43.7270 C   0  0  0  0  0  0  0  0  0  0  0  0
   43.9960    8.2790   43.5710 C   0  0  0  0  0  0  0  0  0  0  0  0
   43.2530   10.0480   43.4620 Br  0  0  0  0  0  0  0  0  0  0  0  0
   43.2750    7.2980   44.2150 C   0  0  0  0  0  3  0  0  0  0  0  0
   43.8270    6.0760   44.2700 N   0  0  0  0  0  0  0  0  0  0  0  0
   45.7930    4.6360   43.6610 C   0  0  0  0  0  3  0  0  0  0  0  0
  1 12  1  0  0  0  0
  1  3  1  0  0  0  0
  2  1  2  0  0  0  0
  3  8  1  0  0  0  0
  4  3  1  0  0  0  0
  5  4  1  6  0  0  0
  5 11  1  0  0  0  0
  5  6  1  0  0  0  0
  6  7  1  6  0  0  0
  6  9  1  0  0  0  0
  8  7  1  0  0  0  0
 10  9  1  0  0  0  0
 11 10  1  0  0  0  0
 12 21  1  0  0  0  0
 13 12  2  0  0  0  0
 13 14  1  0  0  0  0
 14 16  1  0  0  0  0
 15 14  1  0  0  0  0
 15 17  2  0  0  0  0
 16 20  1  0  0  0  0
 17 19  1  0  0  0  0
 18 17  1  0  0  0  0
 19 20  2  0  0  0  0
 21 16  2  0  0  0  0
M  END
>  <Pose>
1

>  <Score>
-7.237

$$$$
