MODEL 1
REMARK VINA RESULT:    -7.237      0.000      0.000
REMARK INTER + INTRA:          -7.873
REMARK INTER:                  -7.660
REMARK INTRA:                  -0.212
REMARK UNBOUND:                -0.212
REMARK  1 active torsions:
REMARK  status: ('A' for Active; 'I' for Inactive)
REMARK    1  A    between atoms: C_6  and  C_11 
REMARK       I    between atoms: C_11  and  N_13 
ROOT
ATOM      1  C   UNK d   1      48.049   3.928  42.700  0.00  0.00     0.274 C 
ATOM      2  O   UNK d   1      48.026   3.282  41.617  0.00  0.00    -0.266 OA
ATOM      3  N   UNK d   1      49.117   3.684  43.601  0.00  0.00    -0.343 N 
ATOM      4  C   UNK d   1      50.123   2.741  43.273  0.00  0.00     0.161 C 
ATOM      5  C   UNK d   1      50.772   2.120  44.452  0.00  0.00     0.241 C 
ATOM      6  N   UNK d   1      50.315   2.575  45.734  0.00  0.00     0.096 N 
ATOM      7  C   UNK d   1      50.233   4.023  45.786  0.00  0.00     0.292 C 
ATOM      8  C   UNK d   1      49.124   4.425  44.833  0.00  0.00     0.156 C 
ATOM      9  C   UNK d   1      51.254   2.002  46.651  0.00  0.00     0.273 C 
ATOM     10  C   UNK d   1      52.589   2.068  45.952  0.00  0.00     0.032 C 
ATOM     11  C   UNK d   1      52.263   2.408  44.515  0.00  0.00     0.039 C 
ENDROOT
BRANCH   1  12
ATOM     12  C   UNK d   1      46.981   4.898  42.978  0.00  0.00     0.148 A 
ATOM     13  N   UNK d   1      46.894   6.198  42.662  0.00  0.00    -0.161 NA
ATOM     14  N   UNK d   1      45.762   6.733  43.094  0.00  0.00    -0.225 N 
ATOM     15  C   UNK d   1      45.224   7.979  43.025  0.00  0.00     0.141 A 
ATOM     16  C   UNK d   1      45.040   5.791  43.727  0.00  0.00     0.152 A 
ATOM     17  C   UNK d   1      43.996   8.279  43.571  0.00  0.00     0.046 A 
ATOM     18 Br   UNK d   1      43.253  10.048  43.462  0.00  0.00    -0.048 Br
ATOM     19  C   UNK d   1      43.275   7.298  44.215  0.00  0.00     0.139 A 
ATOM     20  N   UNK d   1      43.827   6.076  44.270  0.00  0.00    -0.240 NA
ATOM     21  C   UNK d   1      45.793   4.636  43.661  0.00  0.00     0.091 A 
ENDBRANCH   1  12
TORSDOF 1
ENDMDL
