MODEL 1
REMARK VINA RESULT:    -6.322      0.000      0.000
REMARK INTER + INTRA:          -7.528
REMARK INTER:                  -7.061
REMARK INTRA:                  -0.467
REMARK UNBOUND:                -0.467
REMARK  2 active torsions:
REMARK  status: ('A' for Active; 'I' for Inactive)
REMARK    1  A    between atoms: C_7  and  C_11 
REMARK       I    between atoms: C_11  and  N_13 
REMARK       I    between atoms: N_16  and  C_19 
REMARK    2  A    between atoms: C_19  and  C_21 
ROOT
ATOM      1  C   UNK d   1      42.183  11.841  46.333  0.00  0.00     0.259 C 
ATOM      2  O   UNK d   1      40.945  12.063  46.466  0.00  0.00    -0.267 OA
ATOM      3  N   UNK d   1      43.101  12.193  47.355  0.00  0.00    -0.345 N 
ATOM      4  C   UNK d   1      44.523  11.899  47.119  0.00  0.00     0.146 C 
ATOM      5  C   UNK d   1      45.259  12.922  47.984  0.00  0.00     0.145 C 
ATOM      6  N   UNK d   1      44.506  14.136  47.881  0.00  0.00    -0.354 N 
ATOM      7  C   UNK d   1      43.355  14.170  48.831  0.00  0.00     0.145 C 
ATOM      8  C   UNK d   1      42.669  12.822  48.595  0.00  0.00     0.146 C 
ATOM      9  C   UNK d   1      44.693  15.200  47.013  0.00  0.00     0.211 C 
ATOM     10  O   UNK d   1      43.895  16.218  47.146  0.00  0.00    -0.169 OA
ENDROOT
BRANCH   1  11
ATOM     11  C   UNK d   1      42.630  11.218  45.112  0.00  0.00     0.099 A 
ATOM     12  C   UNK d   1      42.730  11.753  43.849  0.00  0.00     0.160 A 
ATOM     13  N   UNK d   1      43.195  10.818  43.005  0.00  0.00    -0.178 NA
ATOM     14  N   UNK d   1      43.396   9.696  43.700  0.00  0.00    -0.225 N 
ATOM     15  C   UNK d   1      43.841   8.500  43.336  0.00  0.00     0.141 A 
ATOM     16  C   UNK d   1      43.063   9.902  44.986  0.00  0.00     0.167 A 
ATOM     17  C   UNK d   1      43.962   7.491  44.239  0.00  0.00     0.046 A 
ATOM     18 Br   UNK d   1      44.602   5.778  43.709  0.00  0.00    -0.048 Br
ATOM     19  C   UNK d   1      43.622   7.706  45.547  0.00  0.00     0.139 A 
ATOM     20  N   UNK d   1      43.177   8.917  45.890  0.00  0.00    -0.239 NA
ENDBRANCH   1  11
BRANCH   9  21
ATOM     21  C   UNK d   1      45.665  15.369  45.945  0.00  0.00     0.128 A 
ATOM     22  O   UNK d   1      46.579  16.348  45.898  0.00  0.00    -0.318 OA
ATOM     23  C   UNK d   1      47.316  16.271  44.843  0.00  0.00     0.142 A 
ATOM     24  C   UNK d   1      46.924  15.192  44.090  0.00  0.00     0.027 A 
ATOM     25  C   UNK d   1      45.877  14.633  44.805  0.00  0.00     0.043 A 
ENDBRANCH   9  21
TORSDOF 2
ENDMDL
