MODEL 1
REMARK VINA RESULT:    -8.119      0.000      0.000
REMARK INTER + INTRA:         -11.018
REMARK INTER:                 -10.492
REMARK INTRA:                  -0.526
REMARK UNBOUND:                -0.526
REMARK  5 active torsions:
REMARK  status: ('A' for Active; 'I' for Inactive)
REMARK    1  A    between atoms: C_7  and  C_11 
REMARK    2  A    between atoms: C_11  and  O_12 
REMARK    3  A    between atoms: O_12  and  C_13 
REMARK    4  A    between atoms: C_13  and  C_15 
REMARK    5  A    between atoms: C_15  and  N_16 
ROOT
ATOM      1  O   UNK d   1      45.428   5.202  43.199  0.00  0.00    -0.314 OA
ENDROOT
BRANCH   1   2
ATOM      2  C   UNK d   1      46.520   5.044  42.333  0.00  0.00     0.238 C 
BRANCH   2   3
ATOM      3  C   UNK d   1      47.705   4.417  42.974  0.00  0.00     0.066 A 
ATOM      4  N   UNK d   1      48.324   3.344  42.428  0.00  0.00    -0.233 NA
ATOM      5  C   UNK d   1      49.399   2.760  42.986  0.00  0.00     0.137 A 
ATOM      6  N   UNK d   1      49.941   3.203  44.135  0.00  0.00    -0.272 N 
ATOM      7  C   UNK d   1      50.014   1.654  42.393  0.00  0.00     0.052 A 
ATOM      8  C   UNK d   1      51.021   2.604  44.681  0.00  0.00     0.121 A 
ATOM      9  C   UNK d   1      49.357   4.271  44.716  0.00  0.00     0.255 A 
ATOM     10  C   UNK d   1      51.648   1.513  44.121  0.00  0.00     0.027 A 
ATOM     11 Br   UNK d   1      53.180   0.700  44.941  0.00  0.00    -0.050 Br
ATOM     12  C   UNK d   1      51.116   1.036  42.942  0.00  0.00     0.024 A 
ATOM     13  C   UNK d   1      48.243   4.887  44.153  0.00  0.00     0.104 A 
ATOM     14  O   UNK d   1      49.849   4.686  45.777  0.00  0.00    -0.268 OA
ENDBRANCH   2   3
ENDBRANCH   1   2
BRANCH   1  15
ATOM     15  C   UNK d   1      44.931   6.406  43.653  0.00  0.00     0.277 C 
ATOM     16  O   UNK d   1      45.598   7.448  43.490  0.00  0.00    -0.263 OA
BRANCH  15  17
ATOM     17  C   UNK d   1      43.612   6.422  44.325  0.00  0.00     0.246 C 
BRANCH  17  18
ATOM     18  N   UNK d   1      43.020   7.728  44.267  0.00  0.00    -0.271 N 
ATOM     19  C   UNK d   1      42.333   8.283  43.167  0.00  0.00     0.262 A 
ATOM     20  O   UNK d   1      42.096   7.780  42.038  0.00  0.00    -0.267 OA
ATOM     21  C   UNK d   1      41.891   9.644  43.538  0.00  0.00     0.048 A 
ATOM     22  C   UNK d   1      42.306   9.879  44.820  0.00  0.00     0.048 A 
ATOM     23  C   UNK d   1      41.187  10.604  42.830  0.00  0.00     0.018 A 
ATOM     24  C   UNK d   1      42.047  11.061  45.452  0.00  0.00     0.018 A 
ATOM     25  C   UNK d   1      43.016   8.690  45.296  0.00  0.00     0.262 A 
ATOM     26  C   UNK d   1      41.350  12.030  44.771  0.00  0.00     0.001 A 
ATOM     27  C   UNK d   1      40.930  11.793  43.476  0.00  0.00     0.001 A 
ATOM     28  O   UNK d   1      43.531   8.579  46.451  0.00  0.00    -0.267 OA
ENDBRANCH  17  18
ENDBRANCH  15  17
ENDBRANCH   1  15
TORSDOF 5
ENDMDL
