/Users/jonathanwahrer/Desktop/Msc/3_Semester/Drug_Design_Praktikum/waehrer_HTS_screening/HTS_experiment/out/docking_results/vina_output/2qfa/0833_docked.pdbqt
 OpenBabel03162220063D

 28 31  0  0  1  0  0  0  0  0999 V2000
   41.1970   10.3000   43.8580 C   0  0  1  0  0  0  0  0  0  0  0  0
   40.9160   10.2850   45.2870 N   0  0  0  0  0  0  0  0  0  0  0  0
   41.0700    9.0880   46.1060 C   0  0  0  0  0  2  0  0  0  0  0  0
   40.4470    9.2120   47.4480 C   0  0  0  0  0  2  0  0  0  0  0  0
   39.0120    9.6720   47.4200 C   0  0  0  0  0  2  0  0  0  0  0  0
   39.0490   11.1700   47.6600 C   0  0  0  0  0  2  0  0  0  0  0  0
   39.6990   11.9480   46.6470 C   0  0  0  0  0  3  0  0  0  0  0  0
   40.5010   11.5710   45.6250 C   0  0  0  0  0  0  0  0  0  0  0  0
   41.0480   12.5280   44.7480 N   0  0  0  0  0  4  0  0  0  0  0  0
   41.5820   11.7270   43.6850 C   0  0  0  0  0  2  0  0  0  0  0  0
   40.3500   13.1960   44.3460 H   0  0  0  0  0  0  0  0  0  0  0  0
   42.2760    9.3460   43.5320 C   0  0  0  0  0  0  0  0  0  0  0  0
   41.9220    8.1010   43.0060 C   0  0  0  0  0  3  0  0  0  0  0  0
   42.9600    7.2060   42.7420 C   0  0  0  0  0  3  0  0  0  0  0  0
   44.2670    7.5520   42.9970 C   0  0  0  0  0  0  0  0  0  0  0  0
   45.6610    6.2950   42.6200 Br  0  0  0  0  0  0  0  0  0  0  0  0
   44.5800    8.7970   43.5170 C   0  0  0  0  0  3  0  0  0  0  0  0
   43.5640    9.6980   43.7860 C   0  0  0  0  0  3  0  0  0  0  0  0
   40.0420    9.9450   43.2100 O   0  0  0  0  0  0  0  0  0  0  0  0
   39.2480    9.9250   43.7840 H   0  0  0  0  0  0  0  0  0  0  0  0
   42.0670   13.2050   45.4840 C   0  0  0  0  0  0  0  0  0  0  0  0
   41.8450   14.4710   46.0010 C   0  0  0  0  0  0  0  0  0  0  0  0
   42.9240   15.0740   46.6340 C   0  0  0  0  0  3  0  0  0  0  0  0
   44.1710   14.4920   46.7690 C   0  0  0  0  0  3  0  0  0  0  0  0
   44.3480   13.2020   46.2270 C   0  0  0  0  0  3  0  0  0  0  0  0
   43.2930   12.6260   45.6160 C   0  0  0  0  0  3  0  0  0  0  0  0
   40.6210   15.0540   45.8770 O   0  0  0  0  0  0  0  0  0  0  0  0
   39.9080   15.5160   46.9950 C   0  0  0  0  0  1  0  0  0  0  0  0
  1 19  1  6  0  0  0
  1  2  1  0  0  0  0
  2  8  1  0  0  0  0
  2  3  1  0  0  0  0
  3  4  1  0  0  0  0
  5  4  1  0  0  0  0
  5  6  1  0  0  0  0
  7  6  1  0  0  0  0
  8  7  2  0  0  0  0
  9 21  1  0  0  0  0
  9  8  1  0  0  0  0
 10  1  1  0  0  0  0
 10  9  1  0  0  0  0
 11  9  1  0  0  0  0
 12 18  1  0  0  0  0
 12  1  1  0  0  0  0
 13 12  2  0  0  0  0
 14 15  2  0  0  0  0
 14 13  1  0  0  0  0
 15 17  1  0  0  0  0
 16 15  1  0  0  0  0
 17 18  2  0  0  0  0
 19 20  1  0  0  0  0
 21 26  2  0  0  0  0
 21 22  1  0  0  0  0
 22 23  2  0  0  0  0
 23 24  1  0  0  0  0
 25 24  2  0  0  0  0
 26 25  1  0  0  0  0
 27 22  1  0  0  0  0
 27 28  1  0  0  0  0
M  END
>  <Pose>
1

>  <Score>
-7.106

$$$$
