MODEL 1
REMARK VINA RESULT:    -7.106      0.000      0.000
REMARK INTER + INTRA:          -9.243
REMARK INTER:                  -8.560
REMARK INTRA:                  -0.682
REMARK UNBOUND:                -0.682
REMARK  4 active torsions:
REMARK  status: ('A' for Active; 'I' for Inactive)
REMARK    1  A    between atoms: C_5  and  C_8 
REMARK    2  A    between atoms: C_8  and  O_26 
REMARK    3  A    between atoms: N_16  and  C_18 
REMARK    4  A    between atoms: C_19  and  O_24 
ROOT
ATOM      1  C   UNK d   1      41.197  10.300  43.858  0.00  0.00     0.189 C 
ATOM      2  N   UNK d   1      40.916  10.285  45.287  0.00  0.00    -0.324 N 
ATOM      3  C   UNK d   1      41.070   9.088  46.106  0.00  0.00     0.128 C 
ATOM      4  C   UNK d   1      40.447   9.212  47.448  0.00  0.00     0.020 C 
ATOM      5  C   UNK d   1      39.012   9.672  47.420  0.00  0.00     0.005 C 
ATOM      6  C   UNK d   1      39.049  11.170  47.660  0.00  0.00     0.031 C 
ATOM      7  C   UNK d   1      39.699  11.948  46.647  0.00  0.00     0.030 C 
ATOM      8  C   UNK d   1      40.501  11.571  45.625  0.00  0.00     0.208 C 
ATOM      9  N   UNK d   1      41.048  12.528  44.748  0.00  0.00     0.011 N 
ATOM     10  C   UNK d   1      41.582  11.727  43.685  0.00  0.00     0.316 C 
ATOM     11  H   UNK d   1      40.350  13.196  44.346  0.00  0.00     0.295 HD
ENDROOT
BRANCH   1  12
ATOM     12  C   UNK d   1      42.276   9.346  43.532  0.00  0.00    -0.001 A 
ATOM     13  C   UNK d   1      41.922   8.101  43.006  0.00  0.00     0.013 A 
ATOM     14  C   UNK d   1      42.960   7.206  42.742  0.00  0.00     0.020 A 
ATOM     15  C   UNK d   1      44.267   7.552  42.997  0.00  0.00     0.011 A 
ATOM     16 Br   UNK d   1      45.661   6.295  42.620  0.00  0.00    -0.051 Br
ATOM     17  C   UNK d   1      44.580   8.797  43.517  0.00  0.00     0.020 A 
ATOM     18  C   UNK d   1      43.564   9.698  43.786  0.00  0.00     0.013 A 
ENDBRANCH   1  12
BRANCH   1  19
ATOM     19  O   UNK d   1      40.042   9.945  43.210  0.00  0.00    -0.365 OA
ATOM     20  H   UNK d   1      39.248   9.925  43.784  0.00  0.00     0.213 HD
ENDBRANCH   1  19
BRANCH   9  21
ATOM     21  C   UNK d   1      42.067  13.205  45.484  0.00  0.00     0.175 A 
ATOM     22  C   UNK d   1      41.845  14.471  46.001  0.00  0.00     0.103 A 
ATOM     23  C   UNK d   1      42.924  15.074  46.634  0.00  0.00     0.039 A 
ATOM     24  C   UNK d   1      44.171  14.492  46.769  0.00  0.00     0.003 A 
ATOM     25  C   UNK d   1      44.348  13.202  46.227  0.00  0.00     0.002 A 
ATOM     26  C   UNK d   1      43.293  12.626  45.616  0.00  0.00     0.041 A 
BRANCH  22  27
ATOM     27  O   UNK d   1      40.621  15.054  45.877  0.00  0.00    -0.354 OA
ATOM     28  C   UNK d   1      39.908  15.516  46.995  0.00  0.00     0.210 C 
ENDBRANCH  22  27
ENDBRANCH   9  21
TORSDOF 4
ENDMDL
