/Users/jonathanwahrer/Desktop/Msc/3_Semester/Drug_Design_Praktikum/waehrer_HTS_screening/HTS_experiment/out/docking_results/vina_output/2qfa/0834_docked.pdbqt
 OpenBabel03162220063D

 28 31  0  0  1  0  0  0  0  0999 V2000
   42.8390    8.7090   46.0450 C   0  0  2  0  0  0  0  0  0  0  0  0
   42.8240    9.6820   45.0000 N   0  0  0  0  0  0  0  0  0  0  0  0
   43.3850   10.9980   45.0140 C   0  0  0  0  0  3  0  0  0  0  0  0
   42.5480   12.1020   44.4960 C   0  0  0  0  0  3  0  0  0  0  0  0
   41.2090   11.7470   43.9590 C   0  0  0  0  0  2  0  0  0  0  0  0
   41.2980   11.0360   42.6090 C   0  0  0  0  0  2  0  0  0  0  0  0
   41.4860    9.5810   42.9050 C   0  0  0  0  0  3  0  0  0  0  0  0
   42.1280    9.0150   43.9130 C   0  0  0  0  0  0  0  0  0  0  0  0
   42.2270    7.6090   44.1050 N   0  0  0  0  0  4  0  0  0  0  0  0
   42.0190    7.5260   45.5210 C   0  0  0  0  0  2  0  0  0  0  0  0
   41.4540    7.1550   43.5570 H   0  0  0  0  0  0  0  0  0  0  0  0
   42.2130    9.0610   47.3170 C   0  0  0  0  0  0  0  0  0  0  0  0
   42.7940    9.6010   48.4150 C   0  0  0  0  0  3  0  0  0  0  0  0
   42.0750    9.8910   49.5680 C   0  0  0  0  0  3  0  0  0  0  0  0
   40.7220    9.6310   49.6260 C   0  0  0  0  0  0  0  0  0  0  0  0
   39.7060   10.0240   51.1980 Br  0  0  0  0  0  0  0  0  0  0  0  0
   40.1290    9.0830   48.5130 C   0  0  0  0  0  3  0  0  0  0  0  0
   40.8280    8.7940   47.3700 C   0  0  0  0  0  3  0  0  0  0  0  0
   44.1440    8.2860   46.3630 O   0  0  0  0  0  0  0  0  0  0  0  0
   44.7140    8.6460   45.6360 H   0  0  0  0  0  0  0  0  0  0  0  0
   43.4990    7.1770   43.6960 C   0  0  0  0  0  0  0  0  0  0  0  0
   43.9670    5.8930   44.0320 C   0  0  0  0  0  3  0  0  0  0  0  0
   45.2030    5.4450   43.6520 C   0  0  0  0  0  3  0  0  0  0  0  0
   46.0500    6.2440   42.9140 C   0  0  0  0  0  0  0  0  0  0  0  0
   45.6170    7.5000   42.5750 C   0  0  0  0  0  3  0  0  0  0  0  0
   44.3710    7.9520   42.9590 C   0  0  0  0  0  3  0  0  0  0  0  0
   47.3190    5.7730   42.5280 O   0  0  0  0  0  0  0  0  0  0  0  0
   47.4810    4.4380   42.1300 C   0  0  0  0  0  1  0  0  0  0  0  0
  1 19  1  1  0  0  0
  1 12  1  0  0  0  0
  2  3  1  0  0  0  0
  2  1  1  0  0  0  0
  4  3  2  0  0  0  0
  5  4  1  0  0  0  0
  6  7  1  0  0  0  0
  6  5  1  0  0  0  0
  7  8  2  0  0  0  0
  8  9  1  0  0  0  0
  8  2  1  0  0  0  0
  9 10  1  0  0  0  0
 10  1  1  0  0  0  0
 11  9  1  0  0  0  0
 12 18  2  0  0  0  0
 12 13  1  0  0  0  0
 13 14  2  0  0  0  0
 14 15  1  0  0  0  0
 15 16  1  0  0  0  0
 17 15  2  0  0  0  0
 18 17  1  0  0  0  0
 20 19  1  0  0  0  0
 21 22  1  0  0  0  0
 21  9  1  0  0  0  0
 23 22  2  0  0  0  0
 24 23  1  0  0  0  0
 25 24  2  0  0  0  0
 25 26  1  0  0  0  0
 26 21  2  0  0  0  0
 27 24  1  0  0  0  0
 28 27  1  0  0  0  0
M  END
>  <Pose>
1

>  <Score>
-8.286

$$$$
