MODEL 1
REMARK VINA RESULT:    -8.286      0.000      0.000
REMARK INTER + INTRA:         -10.553
REMARK INTER:                  -9.981
REMARK INTRA:                  -0.572
REMARK UNBOUND:                -0.572
REMARK  4 active torsions:
REMARK  status: ('A' for Active; 'I' for Inactive)
REMARK    1  A    between atoms: C_5  and  C_8 
REMARK    2  A    between atoms: C_8  and  O_26 
REMARK    3  A    between atoms: N_16  and  C_18 
REMARK    4  A    between atoms: C_21  and  O_24 
ROOT
ATOM      1  C   UNK d   1      42.839   8.709  46.045  0.00  0.00     0.189 C 
ATOM      2  N   UNK d   1      42.824   9.682  45.000  0.00  0.00    -0.324 N 
ATOM      3  C   UNK d   1      43.385  10.998  45.014  0.00  0.00     0.128 C 
ATOM      4  C   UNK d   1      42.548  12.102  44.496  0.00  0.00     0.020 C 
ATOM      5  C   UNK d   1      41.209  11.747  43.959  0.00  0.00     0.005 C 
ATOM      6  C   UNK d   1      41.298  11.036  42.609  0.00  0.00     0.031 C 
ATOM      7  C   UNK d   1      41.486   9.581  42.905  0.00  0.00     0.030 C 
ATOM      8  C   UNK d   1      42.128   9.015  43.913  0.00  0.00     0.208 C 
ATOM      9  N   UNK d   1      42.227   7.609  44.105  0.00  0.00     0.009 N 
ATOM     10  C   UNK d   1      42.019   7.526  45.521  0.00  0.00     0.316 C 
ATOM     11  H   UNK d   1      41.454   7.155  43.557  0.00  0.00     0.295 HD
ENDROOT
BRANCH   1  12
ATOM     12  C   UNK d   1      42.213   9.061  47.317  0.00  0.00    -0.001 A 
ATOM     13  C   UNK d   1      42.794   9.601  48.415  0.00  0.00     0.013 A 
ATOM     14  C   UNK d   1      42.075   9.891  49.568  0.00  0.00     0.020 A 
ATOM     15  C   UNK d   1      40.722   9.631  49.626  0.00  0.00     0.011 A 
ATOM     16 Br   UNK d   1      39.706  10.024  51.198  0.00  0.00    -0.051 Br
ATOM     17  C   UNK d   1      40.129   9.083  48.513  0.00  0.00     0.020 A 
ATOM     18  C   UNK d   1      40.828   8.794  47.370  0.00  0.00     0.013 A 
ENDBRANCH   1  12
BRANCH   1  19
ATOM     19  O   UNK d   1      44.144   8.286  46.363  0.00  0.00    -0.365 OA
ATOM     20  H   UNK d   1      44.714   8.646  45.636  0.00  0.00     0.213 HD
ENDBRANCH   1  19
BRANCH   9  21
ATOM     21  C   UNK d   1      43.499   7.177  43.696  0.00  0.00     0.142 A 
ATOM     22  C   UNK d   1      43.967   5.893  44.032  0.00  0.00     0.040 A 
ATOM     23  C   UNK d   1      45.203   5.445  43.652  0.00  0.00     0.039 A 
ATOM     24  C   UNK d   1      46.050   6.244  42.914  0.00  0.00     0.068 A 
ATOM     25  C   UNK d   1      45.617   7.500  42.575  0.00  0.00     0.039 A 
ATOM     26  C   UNK d   1      44.371   7.952  42.959  0.00  0.00     0.040 A 
BRANCH  24  27
ATOM     27  O   UNK d   1      47.319   5.773  42.528  0.00  0.00    -0.356 OA
ATOM     28  C   UNK d   1      47.481   4.438  42.130  0.00  0.00     0.210 C 
ENDBRANCH  24  27
ENDBRANCH   9  21
TORSDOF 4
ENDMDL
