MODEL 1
REMARK VINA RESULT:    -7.334      0.000      0.000
REMARK INTER + INTRA:          -8.520
REMARK INTER:                  -8.834
REMARK INTRA:                   0.314
REMARK UNBOUND:                 0.314
REMARK  4 active torsions:
REMARK  status: ('A' for Active; 'I' for Inactive)
REMARK    1  A    between atoms: C_5  and  C_8 
REMARK    2  A    between atoms: C_8  and  O_25 
REMARK    3  A    between atoms: N_15  and  C_17 
REMARK    4  A    between atoms: C_18  and  O_23 
ROOT
ATOM      1  C   UNK d   1      42.765   8.362  45.046  0.00  0.00     0.189 C 
ATOM      2  N   UNK d   1      42.310   9.499  44.276  0.00  0.00    -0.324 N 
ATOM      3  C   UNK d   1      42.128   9.845  42.882  0.00  0.00     0.128 C 
ATOM      4  C   UNK d   1      40.929  10.746  42.668  0.00  0.00     0.024 C 
ATOM      5  C   UNK d   1      41.117  11.978  43.488  0.00  0.00     0.032 C 
ATOM      6  C   UNK d   1      41.441  11.655  44.893  0.00  0.00     0.030 C 
ATOM      7  C   UNK d   1      41.998  10.494  45.250  0.00  0.00     0.208 C 
ATOM      8  N   UNK d   1      42.376  10.077  46.542  0.00  0.00     0.011 N 
ATOM      9  C   UNK d   1      43.365   9.018  46.256  0.00  0.00     0.316 C 
ATOM     10  H   UNK d   1      42.980  10.822  47.024  0.00  0.00     0.295 HD
ENDROOT
BRANCH   1  11
ATOM     11  C   UNK d   1      43.745   7.518  44.320  0.00  0.00    -0.001 A 
ATOM     12  C   UNK d   1      44.759   8.110  43.598  0.00  0.00     0.013 A 
ATOM     13  C   UNK d   1      45.716   7.373  42.902  0.00  0.00     0.020 A 
ATOM     14  C   UNK d   1      45.647   5.998  42.936  0.00  0.00     0.011 A 
ATOM     15 Br   UNK d   1      46.953   4.969  41.976  0.00  0.00    -0.051 Br
ATOM     16  C   UNK d   1      44.637   5.392  43.653  0.00  0.00     0.020 A 
ATOM     17  C   UNK d   1      43.696   6.137  44.338  0.00  0.00     0.013 A 
ENDBRANCH   1  11
BRANCH   1  18
ATOM     18  O   UNK d   1      41.719   7.548  45.472  0.00  0.00    -0.365 OA
ATOM     19  H   UNK d   1      41.218   7.286  44.663  0.00  0.00     0.213 HD
ENDBRANCH   1  18
BRANCH   8  20
ATOM     20  C   UNK d   1      41.369   9.611  47.380  0.00  0.00     0.175 A 
ATOM     21  C   UNK d   1      41.599   8.836  48.490  0.00  0.00     0.103 A 
ATOM     22  C   UNK d   1      40.537   8.385  49.277  0.00  0.00     0.039 A 
ATOM     23  C   UNK d   1      39.242   8.707  48.961  0.00  0.00     0.003 A 
ATOM     24  C   UNK d   1      39.001   9.486  47.850  0.00  0.00     0.002 A 
ATOM     25  C   UNK d   1      40.049   9.925  47.081  0.00  0.00     0.041 A 
BRANCH  21  26
ATOM     26  O   UNK d   1      42.870   8.467  48.882  0.00  0.00    -0.354 OA
ATOM     27  C   UNK d   1      43.446   8.980  50.037  0.00  0.00     0.210 C 
ENDBRANCH  21  26
ENDBRANCH   8  20
TORSDOF 4
ENDMDL
