MODEL 1
REMARK VINA RESULT:    -7.480      0.000      0.000
REMARK INTER + INTRA:          -9.817
REMARK INTER:                  -9.011
REMARK INTRA:                  -0.806
REMARK UNBOUND:                -0.806
REMARK  4 active torsions:
REMARK  status: ('A' for Active; 'I' for Inactive)
REMARK    1  A    between atoms: C_5  and  C_8 
REMARK    2  A    between atoms: C_8  and  O_25 
REMARK    3  A    between atoms: N_15  and  C_17 
REMARK    4  A    between atoms: C_20  and  O_23 
ROOT
ATOM      1  C   UNK d   1      42.067  11.400  45.463  0.00  0.00     0.189 C 
ATOM      2  N   UNK d   1      42.259  10.405  46.489  0.00  0.00    -0.324 N 
ATOM      3  C   UNK d   1      42.947  10.348  47.772  0.00  0.00     0.128 C 
ATOM      4  C   UNK d   1      42.344   9.429  48.762  0.00  0.00     0.024 C 
ATOM      5  C   UNK d   1      41.048   8.778  48.349  0.00  0.00     0.032 C 
ATOM      6  C   UNK d   1      40.989   8.462  46.925  0.00  0.00     0.030 C 
ATOM      7  C   UNK d   1      41.573   9.247  46.038  0.00  0.00     0.208 C 
ATOM      8  N   UNK d   1      41.685   9.195  44.619  0.00  0.00     0.009 N 
ATOM      9  C   UNK d   1      41.859  10.559  44.225  0.00  0.00     0.316 C 
ATOM     10  H   UNK d   1      40.766   8.821  44.258  0.00  0.00     0.295 HD
ENDROOT
BRANCH   1  11
ATOM     11  C   UNK d   1      43.159  12.361  45.328  0.00  0.00    -0.001 A 
ATOM     12  C   UNK d   1      43.189  13.496  46.110  0.00  0.00     0.013 A 
ATOM     13  C   UNK d   1      44.194  14.438  46.024  0.00  0.00     0.020 A 
ATOM     14  C   UNK d   1      45.239  14.283  45.133  0.00  0.00     0.011 A 
ATOM     15 Br   UNK d   1      46.638  15.572  44.994  0.00  0.00    -0.051 Br
ATOM     16  C   UNK d   1      45.225  13.154  44.343  0.00  0.00     0.020 A 
ATOM     17  C   UNK d   1      44.214  12.215  44.435  0.00  0.00     0.013 A 
ENDBRANCH   1  11
BRANCH   1  18
ATOM     18  O   UNK d   1      40.893  12.109  45.792  0.00  0.00    -0.365 OA
ATOM     19  H   UNK d   1      41.177  12.826  46.411  0.00  0.00     0.213 HD
ENDBRANCH   1  18
BRANCH   8  20
ATOM     20  C   UNK d   1      42.717   8.333  44.276  0.00  0.00     0.142 A 
ATOM     21  C   UNK d   1      42.637   6.991  44.562  0.00  0.00     0.040 A 
ATOM     22  C   UNK d   1      43.683   6.121  44.214  0.00  0.00     0.039 A 
ATOM     23  C   UNK d   1      44.810   6.570  43.584  0.00  0.00     0.068 A 
ATOM     24  C   UNK d   1      44.888   7.944  43.291  0.00  0.00     0.039 A 
ATOM     25  C   UNK d   1      43.844   8.773  43.646  0.00  0.00     0.040 A 
BRANCH  23  26
ATOM     26  O   UNK d   1      45.884   5.764  43.210  0.00  0.00    -0.356 OA
ATOM     27  C   UNK d   1      47.231   6.100  43.279  0.00  0.00     0.210 C 
ENDBRANCH  23  26
ENDBRANCH   8  20
TORSDOF 4
ENDMDL
