/Users/jonathanwahrer/Desktop/Msc/3_Semester/Drug_Design_Praktikum/waehrer_HTS_screening/HTS_experiment/out/docking_results/vina_output/2qfa/0836_docked.pdbqt
 OpenBabel03162220063D

 27 30  0  0  1  0  0  0  0  0999 V2000
   42.0670   11.4000   45.4630 C   0  0  2  0  0  0  0  0  0  0  0  0
   42.2590   10.4050   46.4890 N   0  0  0  0  0  0  0  0  0  0  0  0
   42.9470   10.3480   47.7720 C   0  0  0  0  0  2  0  0  0  0  0  0
   42.3440    9.4290   48.7620 C   0  0  0  0  0  2  0  0  0  0  0  0
   41.0480    8.7780   48.3490 C   0  0  0  0  0  2  0  0  0  0  0  0
   40.9890    8.4620   46.9250 C   0  0  0  0  0  3  0  0  0  0  0  0
   41.5730    9.2470   46.0380 C   0  0  0  0  0  0  0  0  0  0  0  0
   41.6850    9.1950   44.6190 N   0  0  0  0  0  4  0  0  0  0  0  0
   41.8590   10.5590   44.2250 C   0  0  0  0  0  2  0  0  0  0  0  0
   40.7660    8.8210   44.2580 H   0  0  0  0  0  0  0  0  0  0  0  0
   43.1590   12.3610   45.3280 C   0  0  0  0  0  0  0  0  0  0  0  0
   43.1890   13.4960   46.1100 C   0  0  0  0  0  3  0  0  0  0  0  0
   44.1940   14.4380   46.0240 C   0  0  0  0  0  3  0  0  0  0  0  0
   45.2390   14.2830   45.1330 C   0  0  0  0  0  0  0  0  0  0  0  0
   46.6380   15.5720   44.9940 Br  0  0  0  0  0  0  0  0  0  0  0  0
   45.2250   13.1540   44.3430 C   0  0  0  0  0  3  0  0  0  0  0  0
   44.2140   12.2150   44.4350 C   0  0  0  0  0  3  0  0  0  0  0  0
   40.8930   12.1090   45.7920 O   0  0  0  0  0  0  0  0  0  0  0  0
   41.1770   12.8260   46.4110 H   0  0  0  0  0  0  0  0  0  0  0  0
   42.7170    8.3330   44.2760 C   0  0  0  0  0  0  0  0  0  0  0  0
   42.6370    6.9910   44.5620 C   0  0  0  0  0  3  0  0  0  0  0  0
   43.6830    6.1210   44.2140 C   0  0  0  0  0  3  0  0  0  0  0  0
   44.8100    6.5700   43.5840 C   0  0  0  0  0  0  0  0  0  0  0  0
   44.8880    7.9440   43.2910 C   0  0  0  0  0  3  0  0  0  0  0  0
   43.8440    8.7730   43.6460 C   0  0  0  0  0  3  0  0  0  0  0  0
   45.8840    5.7640   43.2100 O   0  0  0  0  0  0  0  0  0  0  0  0
   47.2310    6.1000   43.2790 C   0  0  0  0  0  1  0  0  0  0  0  0
  1 18  1  1  0  0  0
  1  2  1  0  0  0  0
  2  3  1  0  0  0  0
  3  4  1  0  0  0  0
  5  4  1  0  0  0  0
  6  5  1  0  0  0  0
  7  2  1  0  0  0  0
  7  6  2  0  0  0  0
  8  7  1  0  0  0  0
  9  8  1  0  0  0  0
  9  1  1  0  0  0  0
 10  8  1  0  0  0  0
 11  1  1  0  0  0  0
 11 12  1  0  0  0  0
 13 12  2  0  0  0  0
 14 13  1  0  0  0  0
 15 14  1  0  0  0  0
 16 17  1  0  0  0  0
 16 14  2  0  0  0  0
 17 11  2  0  0  0  0
 18 19  1  0  0  0  0
 20 21  1  0  0  0  0
 20  8  1  0  0  0  0
 22 21  2  0  0  0  0
 23 22  1  0  0  0  0
 24 23  2  0  0  0  0
 24 25  1  0  0  0  0
 25 20  2  0  0  0  0
 26 27  1  0  0  0  0
 26 23  1  0  0  0  0
M  END
>  <Pose>
1

>  <Score>
-7.480

$$$$
