/Users/jonathanwahrer/Desktop/Msc/3_Semester/Drug_Design_Praktikum/waehrer_HTS_screening/HTS_experiment/out/docking_results/vina_output/2qfa/0850_docked.pdbqt
 OpenBabel03162220073D

 29 32  0  0  1  0  0  0  0  0999 V2000
   42.3570    9.4530   44.6370 N   0  0  0  0  0  4  0  0  0  0  0  0
   41.7510   10.2260   43.5950 C   0  0  1  0  0  0  0  0  0  0  0  0
   42.9100   11.1630   43.2560 C   0  0  0  0  0  2  0  0  0  0  0  0
   43.4820   11.4680   44.5770 N   0  0  0  0  0  0  0  0  0  0  0  0
   44.3160   12.6020   44.7660 C   0  0  0  0  0  2  0  0  0  0  0  0
   44.7760   12.8210   46.1760 C   0  0  0  0  0  2  0  0  0  0  0  0
   43.5930   12.7560   47.1030 C   0  0  0  0  0  2  0  0  0  0  0  0
   43.6380   11.3450   47.7080 C   0  0  0  0  0  2  0  0  0  0  0  0
   43.0280   10.4030   46.7480 C   0  0  0  0  0  3  0  0  0  0  0  0
   42.9840   10.4430   45.4350 C   0  0  0  0  0  0  0  0  0  0  0  0
   41.5660    8.9510   45.1490 H   0  0  0  0  0  0  0  0  0  0  0  0
   41.2140    9.5550   42.5430 O   0  0  0  0  0  0  0  0  0  0  0  0
   41.5290    8.6360   42.4640 H   0  0  0  0  0  0  0  0  0  0  0  0
   40.6750   11.1170   44.1170 C   0  0  0  0  0  0  0  0  0  0  0  0
   39.7520   10.7650   45.0570 C   0  0  0  0  0  3  0  0  0  0  0  0
   38.7620   11.6600   45.5140 C   0  0  0  0  0  3  0  0  0  0  0  0
   38.6900   12.9410   45.0220 C   0  0  0  0  0  0  0  0  0  0  0  0
   39.6150   13.3070   44.0740 C   0  0  0  0  0  3  0  0  0  0  0  0
   40.5780   12.4300   43.6300 C   0  0  0  0  0  3  0  0  0  0  0  0
   37.7110   13.8410   45.4730 O   0  0  0  0  0  0  0  0  0  0  0  0
   36.3710   13.7450   45.0530 C   0  0  0  0  0  2  0  0  0  0  0  0
   36.1210   14.4560   43.7610 C   0  0  0  0  0  1  0  0  0  0  0  0
   43.2410    8.4580   44.2750 C   0  0  0  0  0  0  0  0  0  0  0  0
   42.9130    7.1280   44.5270 C   0  0  0  0  0  3  0  0  0  0  0  0
   43.7450    6.0790   44.1650 C   0  0  0  0  0  3  0  0  0  0  0  0
   44.9440    6.3180   43.5330 C   0  0  0  0  0  0  0  0  0  0  0  0
   46.0990    4.8810   43.0060 Br  0  0  0  0  0  0  0  0  0  0  0  0
   45.2930    7.6070   43.2740 C   0  0  0  0  0  3  0  0  0  0  0  0
   44.4380    8.6400   43.6490 C   0  0  0  0  0  3  0  0  0  0  0  0
  1 11  1  0  0  0  0
  1 10  1  0  0  0  0
  2 12  1  6  0  0  0
  2 14  1  0  0  0  0
  2  1  1  0  0  0  0
  3  2  1  0  0  0  0
  3  4  1  0  0  0  0
  4  5  1  0  0  0  0
  4 10  1  0  0  0  0
  5  6  1  0  0  0  0
  6  7  1  0  0  0  0
  7  8  1  0  0  0  0
  9  8  1  0  0  0  0
 10  9  2  0  0  0  0
 13 12  1  0  0  0  0
 14 15  1  0  0  0  0
 15 16  2  0  0  0  0
 17 20  1  0  0  0  0
 17 16  1  0  0  0  0
 18 17  2  0  0  0  0
 19 18  1  0  0  0  0
 19 14  2  0  0  0  0
 21 20  1  0  0  0  0
 22 21  1  0  0  0  0
 23 24  1  0  0  0  0
 23  1  1  0  0  0  0
 25 24  2  0  0  0  0
 26 25  1  0  0  0  0
 27 26  1  0  0  0  0
 28 26  2  0  0  0  0
 28 29  1  0  0  0  0
 29 23  2  0  0  0  0
M  END
>  <Pose>
1

>  <Score>
-7.370

$$$$
