MODEL 1
REMARK VINA RESULT:    -7.370      0.000      0.000
REMARK INTER + INTRA:          -9.463
REMARK INTER:                  -9.309
REMARK INTRA:                  -0.153
REMARK UNBOUND:                -0.153
REMARK  5 active torsions:
REMARK  status: ('A' for Active; 'I' for Inactive)
REMARK    1  A    between atoms: C_5  and  N_8 
REMARK    2  A    between atoms: C_9  and  O_18 
REMARK    3  A    between atoms: C_9  and  C_19 
REMARK    4  A    between atoms: C_22  and  O_25 
REMARK    5  A    between atoms: O_25  and  C_26 
ROOT
ATOM      1  N   UNK d   1      42.357   9.453  44.637  0.00  0.00     0.042 N 
ATOM      2  C   UNK d   1      41.751  10.226  43.595  0.00  0.00     0.283 C 
ATOM      3  C   UNK d   1      42.910  11.163  43.256  0.00  0.00     0.200 C 
ATOM      4  N   UNK d   1      43.482  11.468  44.577  0.00  0.00    -0.356 N 
ATOM      5  C   UNK d   1      44.316  12.602  44.766  0.00  0.00     0.124 C 
ATOM      6  C   UNK d   1      44.776  12.821  46.176  0.00  0.00     0.020 C 
ATOM      7  C   UNK d   1      43.593  12.756  47.103  0.00  0.00     0.005 C 
ATOM      8  C   UNK d   1      43.638  11.345  47.708  0.00  0.00     0.031 C 
ATOM      9  C   UNK d   1      43.028  10.403  46.748  0.00  0.00     0.030 C 
ATOM     10  C   UNK d   1      42.984  10.443  45.435  0.00  0.00     0.210 C 
ATOM     11  H   UNK d   1      41.566   8.951  45.149  0.00  0.00     0.299 HD
ENDROOT
BRANCH   2  12
ATOM     12  O   UNK d   1      41.214   9.555  42.543  0.00  0.00    -0.359 OA
ATOM     13  H   UNK d   1      41.529   8.636  42.464  0.00  0.00     0.213 HD
ENDBRANCH   2  12
BRANCH   2  14
ATOM     14  C   UNK d   1      40.675  11.117  44.117  0.00  0.00     0.007 A 
ATOM     15  C   UNK d   1      39.752  10.765  45.057  0.00  0.00     0.015 A 
ATOM     16  C   UNK d   1      38.762  11.660  45.514  0.00  0.00     0.037 A 
ATOM     17  C   UNK d   1      38.690  12.941  45.022  0.00  0.00     0.068 A 
ATOM     18  C   UNK d   1      39.615  13.307  44.074  0.00  0.00     0.037 A 
ATOM     19  C   UNK d   1      40.578  12.430  43.630  0.00  0.00     0.015 A 
BRANCH  17  20
ATOM     20  O   UNK d   1      37.711  13.841  45.473  0.00  0.00    -0.352 OA
BRANCH  20  21
ATOM     21  C   UNK d   1      36.371  13.745  45.053  0.00  0.00     0.171 C 
ATOM     22  C   UNK d   1      36.121  14.456  43.761  0.00  0.00     0.034 C 
ENDBRANCH  20  21
ENDBRANCH  17  20
ENDBRANCH   2  14
BRANCH   1  23
ATOM     23  C   UNK d   1      43.241   8.458  44.275  0.00  0.00     0.146 A 
ATOM     24  C   UNK d   1      42.913   7.128  44.527  0.00  0.00     0.039 A 
ATOM     25  C   UNK d   1      43.745   6.079  44.165  0.00  0.00     0.021 A 
ATOM     26  C   UNK d   1      44.944   6.318  43.533  0.00  0.00     0.011 A 
ATOM     27 Br   UNK d   1      46.099   4.881  43.006  0.00  0.00    -0.051 Br
ATOM     28  C   UNK d   1      45.293   7.607  43.274  0.00  0.00     0.021 A 
ATOM     29  C   UNK d   1      44.438   8.640  43.649  0.00  0.00     0.039 A 
ENDBRANCH   1  23
TORSDOF 5
ENDMDL
