MODEL 1
REMARK VINA RESULT:    -5.655      0.000      0.000
REMARK INTER + INTRA:          -7.863
REMARK INTER:                  -6.812
REMARK INTRA:                  -1.050
REMARK UNBOUND:                -1.050
REMARK  4 active torsions:
REMARK  status: ('A' for Active; 'I' for Inactive)
REMARK    1  A    between atoms: C_11  and  N_14 
REMARK    2  A    between atoms: C_11  and  C_20 
REMARK    3  A    between atoms: C_12  and  O_13 
REMARK    4  A    between atoms: C_20  and  N_21 
ROOT
ATOM      1 Br   UNK d   1      36.174  11.116  45.576  0.00  0.00    -0.051 Br
ATOM      2  C   UNK d   1      37.927  10.806  46.284  0.00  0.00     0.017 A 
ATOM      3  C   UNK d   1      39.015  10.599  45.459  0.00  0.00     0.032 A 
ATOM      4  C   UNK d   1      40.272  10.377  45.973  0.00  0.00     0.008 A 
ATOM      5  C   UNK d   1      40.391  10.370  47.347  0.00  0.00     0.078 A 
ATOM      6  C   UNK d   1      39.307  10.576  48.177  0.00  0.00     0.045 A 
ATOM      7  C   UNK d   1      38.050  10.798  47.658  0.00  0.00    -0.042 A 
ATOM      8  C   UNK d   1      36.887  11.020  48.564  0.00  0.00     0.049 C 
ATOM      9  O   UNK d   1      41.673  10.143  47.843  0.00  0.00    -0.348 OA
ATOM     10  C   UNK d   1      42.722   9.634  47.089  0.00  0.00     0.219 C 
ATOM     11  C   UNK d   1      42.719  10.010  45.645  0.00  0.00     0.202 C 
ATOM     12  C   UNK d   1      41.374  10.166  45.028  0.00  0.00     0.194 C 
ENDROOT
BRANCH  11  13
ATOM     13  N   UNK d   1      43.373   8.896  44.951  0.00  0.00    -0.052 N 
ATOM     14  C   UNK d   1      43.936   9.265  43.698  0.00  0.00     0.262 C 
ATOM     15  C   UNK d   1      44.880   8.120  43.298  0.00  0.00     0.195 C 
ATOM     16  O   UNK d   1      44.081   7.005  43.114  0.00  0.00    -0.388 OA
ATOM     17  C   UNK d   1      43.394   6.626  44.261  0.00  0.00     0.195 C 
ATOM     18  C   UNK d   1      42.506   7.771  44.771  0.00  0.00     0.262 C 
ATOM     19  H   UNK d   1      44.150   8.597  45.583  0.00  0.00     0.281 HD
ENDBRANCH  11  13
BRANCH  11  20
ATOM     20  C   UNK d   1      43.554  11.240  45.359  0.00  0.00     0.279 C 
BRANCH  20  21
ATOM     21  N   UNK d   1      43.458  12.253  46.365  0.00  0.00    -0.065 N 
ATOM     22  C   UNK d   1      44.638  12.323  47.207  0.00  0.00     0.261 C 
ATOM     23  C   UNK d   1      45.083  13.759  47.437  0.00  0.00     0.195 C 
ATOM     24  O   UNK d   1      45.467  14.386  46.263  0.00  0.00    -0.388 OA
ATOM     25  C   UNK d   1      44.702  13.955  45.184  0.00  0.00     0.195 C 
ATOM     26  C   UNK d   1      43.341  13.579  45.735  0.00  0.00     0.261 C 
ATOM     27  H   UNK d   1      42.644  12.177  46.994  0.00  0.00     0.280 HD
ENDBRANCH  20  21
ENDBRANCH  11  20
BRANCH  12  28
ATOM     28  O   UNK d   1      41.355  11.260  44.130  0.00  0.00    -0.388 OA
ATOM     29  H   UNK d   1      40.545  11.274  43.580  0.00  0.00     0.210 HD
ENDBRANCH  12  28
TORSDOF 4
ENDMDL
