MODEL 1
REMARK VINA RESULT:    -6.374      0.000      0.000
REMARK INTER + INTRA:          -9.177
REMARK INTER:                  -7.865
REMARK INTRA:                  -1.313
REMARK UNBOUND:                -1.313
REMARK  4 active torsions:
REMARK  status: ('A' for Active; 'I' for Inactive)
REMARK    1  A    between atoms: C_12  and  C_15 
REMARK    2  A    between atoms: C_12  and  C_22 
REMARK    3  A    between atoms: C_15  and  N_16 
REMARK    4  A    between atoms: C_22  and  N_23 
ROOT
ATOM      1 Br   UNK d   1      37.760  12.867  45.814  0.00  0.00    -0.048 Br
ATOM      2  C   UNK d   1      38.368  11.380  46.805  0.00  0.00     0.052 A 
ATOM      3  C   UNK d   1      39.502  10.738  46.370  0.00  0.00     0.100 A 
ATOM      4  C   UNK d   1      40.049   9.622  47.025  0.00  0.00     0.047 A 
ATOM      5  C   UNK d   1      39.409   9.140  48.173  0.00  0.00     0.038 A 
ATOM      6  C   UNK d   1      38.274   9.793  48.597  0.00  0.00     0.019 A 
ATOM      7  C   UNK d   1      37.751  10.891  47.937  0.00  0.00    -0.024 A 
ATOM      8  C   UNK d   1      36.509  11.582  48.424  0.00  0.00     0.051 C 
ATOM      9 Br   UNK d   1      37.404   9.137  50.161  0.00  0.00    -0.051 Br
ATOM     10  C   UNK d   1      41.246   8.980  46.515  0.00  0.00     0.176 C 
ATOM     11  O   UNK d   1      41.337   7.741  46.704  0.00  0.00    -0.291 OA
ATOM     12  C   UNK d   1      42.233   9.835  45.829  0.00  0.00     0.095 C 
ATOM     13  C   UNK d   1      41.298  10.467  44.701  0.00  0.00     0.197 C 
ATOM     14  O   UNK d   1      40.214  11.125  45.250  0.00  0.00    -0.347 OA
ENDROOT
BRANCH  12  15
ATOM     15  C   UNK d   1      43.304   9.169  45.115  0.00  0.00     0.256 C 
BRANCH  15  16
ATOM     16  N   UNK d   1      43.255   8.009  44.359  0.00  0.00    -0.070 N 
ATOM     17  C   UNK d   1      43.733   6.766  44.825  0.00  0.00     0.235 C 
ATOM     18  C   UNK d   1      44.209   5.837  43.716  0.00  0.00     0.028 C 
ATOM     19  C   UNK d   1      45.418   6.376  43.019  0.00  0.00     0.003 C 
ATOM     20  C   UNK d   1      45.313   7.870  42.985  0.00  0.00     0.028 C 
ATOM     21  C   UNK d   1      43.875   8.268  43.040  0.00  0.00     0.235 C 
ATOM     22  H   UNK d   1      42.225   7.802  44.018  0.00  0.00     0.279 HD
ENDBRANCH  15  16
ENDBRANCH  12  15
BRANCH  12  23
ATOM     23  C   UNK d   1      42.648  10.943  46.720  0.00  0.00     0.256 C 
BRANCH  23  24
ATOM     24  N   UNK d   1      43.005  12.195  46.198  0.00  0.00    -0.070 N 
ATOM     25  C   UNK d   1      42.343  13.233  47.000  0.00  0.00     0.235 C 
ATOM     26  C   UNK d   1      42.424  14.596  46.345  0.00  0.00     0.028 C 
ATOM     27  C   UNK d   1      43.917  14.963  46.340  0.00  0.00     0.003 C 
ATOM     28  C   UNK d   1      44.562  13.885  45.500  0.00  0.00     0.028 C 
ATOM     29  C   UNK d   1      44.412  12.555  46.258  0.00  0.00     0.235 C 
ATOM     30  H   UNK d   1      42.721  12.425  45.223  0.00  0.00     0.279 HD
ENDBRANCH  23  24
ENDBRANCH  12  23
TORSDOF 4
ENDMDL
