MODEL 1
REMARK VINA RESULT:    -7.880      0.000      0.000
REMARK INTER + INTRA:         -10.973
REMARK INTER:                 -10.184
REMARK INTRA:                  -0.789
REMARK UNBOUND:                -0.789
REMARK  5 active torsions:
REMARK  status: ('A' for Active; 'I' for Inactive)
REMARK    1  A    between atoms: C_5  and  C_8 
REMARK    2  A    between atoms: N_9  and  N_10 
REMARK    3  A    between atoms: N_10  and  C_11 
REMARK    4  A    between atoms: C_13  and  N_23 
REMARK    5  A    between atoms: C_15  and  N_17 
ROOT
ATOM      1  C   UNK d   1      48.363   3.653  42.958  0.00  0.00     0.774 A 
ATOM      2  N   UNK d   1      49.116   2.623  42.516  0.00  0.00     0.133 NA
ATOM      3  C   UNK d   1      50.266   2.239  43.125  0.00  0.00     0.756 A 
ATOM      4  N   UNK d   1      50.630   2.938  44.202  0.00  0.00     0.131 NA
ATOM      5  C   UNK d   1      49.931   3.974  44.698  0.00  0.00     0.756 A 
ATOM      6  N   UNK d   1      48.800   4.305  44.049  0.00  0.00     0.133 NA
ENDROOT
BRANCH   1   7
ATOM      7  N   UNK d   1      47.175   3.999  42.274  0.00  0.00    -0.105 N 
ATOM      8  H   UNK d   1      47.047   3.692  41.295  0.00  0.00     0.208 HD
BRANCH   7   9
ATOM      9  N   UNK d   1      46.186   4.744  42.901  0.00  0.00    -0.172 NA
ATOM     10  C   UNK d   1      45.854   5.934  42.548  0.00  0.00     0.150 C 
BRANCH  10  11
ATOM     11  C   UNK d   1      44.804   6.655  43.255  0.00  0.00    -0.016 A 
ATOM     12  C   UNK d   1      44.640   8.025  43.134  0.00  0.00     0.035 A 
ATOM     13  C   UNK d   1      43.645   8.704  43.805  0.00  0.00     0.050 A 
ATOM     14  C   UNK d   1      42.767   8.034  44.633  0.00  0.00     0.133 A 
ATOM     15 Br   UNK d   1      43.441  10.594  43.619  0.00  0.00    -0.048 Br
ATOM     16  F   UNK d   1      41.777   8.684  45.304  0.00  0.00    -0.205 F 
ATOM     17  C   UNK d   1      42.919   6.673  44.762  0.00  0.00     0.044 A 
ATOM     18  C   UNK d   1      43.923   5.995  44.084  0.00  0.00     0.016 A 
ENDBRANCH  10  11
ENDBRANCH   7   9
ENDBRANCH   1   7
BRANCH   3  19
ATOM     19  N   UNK d   1      51.021   1.145  42.617  0.00  0.00    -0.209 N 
ATOM     20  C   UNK d   1      50.712  -0.242  42.874  0.00  0.00     0.167 C 
ATOM     21  C   UNK d   1      52.013  -0.810  43.438  0.00  0.00     0.188 C 
ATOM     22  O   UNK d   1      52.945  -0.819  42.468  0.00  0.00    -0.388 OA
ATOM     23  C   UNK d   1      53.125   0.257  41.693  0.00  0.00     0.188 C 
ATOM     24  C   UNK d   1      52.178   1.387  41.787  0.00  0.00     0.167 C 
ENDBRANCH   3  19
BRANCH   5  25
ATOM     25  N   UNK d   1      50.382   4.672  45.850  0.00  0.00    -0.209 N 
ATOM     26  C   UNK d   1      51.758   5.126  45.901  0.00  0.00     0.167 C 
ATOM     27  C   UNK d   1      52.018   5.800  47.230  0.00  0.00     0.188 C 
ATOM     28  O   UNK d   1      51.086   6.735  47.580  0.00  0.00    -0.388 OA
ATOM     29  C   UNK d   1      49.776   6.422  47.337  0.00  0.00     0.188 C 
ATOM     30  C   UNK d   1      49.554   4.961  46.984  0.00  0.00     0.167 C 
ENDBRANCH   5  25
TORSDOF 5
ENDMDL
