MODEL 1
REMARK VINA RESULT:    -7.413      0.000      0.000
REMARK INTER + INTRA:         -10.200
REMARK INTER:                  -9.580
REMARK INTRA:                  -0.620
REMARK UNBOUND:                -0.620
REMARK  5 active torsions:
REMARK  status: ('A' for Active; 'I' for Inactive)
REMARK    1  A    between atoms: C_3  and  C_8 
REMARK    2  A    between atoms: N_9  and  C_24 
REMARK    3  A    between atoms: C_15  and  C_17 
REMARK    4  A    between atoms: C_24  and  C_25 
REMARK    5  A    between atoms: C_25  and  N_26 
ROOT
ATOM      1  C   UNK d   1      40.984  11.378  45.311  0.00  0.00     0.164 C 
ATOM      2  N   UNK d   1      40.235  10.807  46.419  0.00  0.00    -0.330 N 
ATOM      3  C   UNK d   1      41.296  10.260  47.231  0.00  0.00     0.295 C 
ATOM      4  O   UNK d   1      41.341  10.131  48.483  0.00  0.00    -0.264 OA
ATOM      5  C   UNK d   1      42.411   9.839  46.336  0.00  0.00     0.250 C 
ATOM      6  O   UNK d   1      43.506   9.327  46.562  0.00  0.00    -0.282 OA
ATOM      7  C   UNK d   1      41.875  10.197  44.990  0.00  0.00     0.062 C 
ATOM      8  C   UNK d   1      42.147   9.609  43.851  0.00  0.00     0.130 C 
ATOM      9  O   UNK d   1      41.552  10.094  42.668  0.00  0.00    -0.190 OA
ENDROOT
BRANCH   2  10
ATOM     10  C   UNK d   1      38.878  10.726  46.751  0.00  0.00     0.155 C 
BRANCH  10  11
ATOM     11  C   UNK d   1      37.885  10.241  45.757  0.00  0.00     0.255 C 
BRANCH  11  12
ATOM     12  N   UNK d   1      37.076  11.275  45.177  0.00  0.00    -0.066 N 
ATOM     13  C   UNK d   1      37.161  12.458  46.009  0.00  0.00     0.261 C 
ATOM     14  C   UNK d   1      36.416  13.617  45.372  0.00  0.00     0.195 C 
ATOM     15  O   UNK d   1      35.091  13.264  45.203  0.00  0.00    -0.388 OA
ATOM     16  C   UNK d   1      34.988  12.105  44.439  0.00  0.00     0.195 C 
ATOM     17  C   UNK d   1      35.641  10.928  45.179  0.00  0.00     0.261 C 
ATOM     18  H   UNK d   1      37.273  11.458  44.171  0.00  0.00     0.280 HD
ENDBRANCH  11  12
ENDBRANCH  10  11
ENDBRANCH   2  10
BRANCH   1  19
ATOM     19  C   UNK d   1      41.848  12.515  45.673  0.00  0.00     0.008 A 
ATOM     20  C   UNK d   1      41.397  13.603  46.390  0.00  0.00     0.125 A 
ATOM     21  F   UNK d   1      40.150  13.686  46.829  0.00  0.00    -0.205 F 
ATOM     22  C   UNK d   1      42.241  14.677  46.689  0.00  0.00     0.043 A 
ATOM     23  C   UNK d   1      43.536  14.687  46.285  0.00  0.00     0.003 A 
ATOM     24  C   UNK d   1      44.019  13.628  45.573  0.00  0.00     0.001 A 
ATOM     25  C   UNK d   1      43.164  12.575  45.287  0.00  0.00     0.012 A 
ENDBRANCH   1  19
BRANCH   8  26
ATOM     26  C   UNK d   1      43.043   8.466  43.769  0.00  0.00     0.001 A 
ATOM     27  C   UNK d   1      44.337   8.661  43.336  0.00  0.00     0.015 A 
ATOM     28  C   UNK d   1      45.234   7.613  43.208  0.00  0.00     0.020 A 
ATOM     29  C   UNK d   1      44.839   6.331  43.521  0.00  0.00     0.011 A 
ATOM     30  C   UNK d   1      43.566   6.115  43.950  0.00  0.00     0.020 A 
ATOM     31 Br   UNK d   1      46.067   4.853  43.353  0.00  0.00    -0.051 Br
ATOM     32  C   UNK d   1      42.663   7.186  44.075  0.00  0.00     0.015 A 
ENDBRANCH   8  26
TORSDOF 5
ENDMDL
