/Users/jonathanwahrer/Desktop/Msc/3_Semester/Drug_Design_Praktikum/waehrer_HTS_screening/HTS_experiment/out/docking_results/vina_output/2qfa/0874_docked.pdbqt
 OpenBabel03162220093D

 31 34  0  0  0  0  0  0  0  0999 V2000
   41.2230   12.4070   45.4400 N   0  0  0  0  0  0  0  0  0  0  0  0
   40.2240   12.7380   44.6520 N   0  0  0  0  0  0  0  0  0  0  0  0
   40.1300   11.8830   43.6440 N   0  0  0  0  0  0  0  0  0  0  0  0
   41.1090   10.9620   43.7840 C   0  0  0  0  0  0  0  0  0  0  0  0
   41.7640   11.2930   44.8780 C   0  0  0  0  0  0  0  0  0  0  0  0
   42.7690   10.3500   45.0230 C   0  0  0  0  0  0  0  0  0  0  0  0
   43.5980   10.3440   45.9590 O   0  0  0  0  0  0  0  0  0  0  0  0
   42.7300    9.4480   44.0270 N   0  0  0  0  0  0  0  0  0  0  0  0
   41.6960    9.8280   43.2540 C   0  0  0  0  0  0  0  0  0  0  0  0
   41.3120    9.2530   42.2120 O   0  0  0  0  0  0  0  0  0  0  0  0
   39.6020   13.5700   44.8260 H   0  0  0  0  0  0  0  0  0  0  0  0
   39.4220   11.9120   42.8710 H   0  0  0  0  0  0  0  0  0  0  0  0
   41.6810   13.0630   46.6510 C   0  0  0  0  0  2  0  0  0  0  0  0
   42.7010   14.0930   46.3060 C   0  0  0  0  0  0  0  0  0  0  0  0
   44.0080   13.7400   45.9860 N   0  0  0  0  0  0  0  0  0  0  0  0
   44.2200   12.6870   46.0050 H   0  0  0  0  0  0  0  0  0  0  0  0
   42.3140   15.2730   46.3240 O   0  0  0  0  0  0  0  0  0  0  0  0
   45.0880   14.5990   45.6360 C   0  0  0  0  0  0  0  0  0  0  0  0
   45.7900   14.3720   44.4420 C   0  0  0  0  0  0  0  0  0  0  0  0
   45.4040   13.3270   43.6550 F   0  0  0  0  0  0  0  0  0  0  0  0
   46.8400   15.1630   44.0480 C   0  0  0  0  0  3  0  0  0  0  0  0
   47.2550   16.2240   44.8180 C   0  0  0  0  0  3  0  0  0  0  0  0
   46.5760   16.4480   45.9800 C   0  0  0  0  0  3  0  0  0  0  0  0
   45.5140   15.6610   46.3920 C   0  0  0  0  0  3  0  0  0  0  0  0
   43.6060    8.3350   43.8470 C   0  0  0  0  0  0  0  0  0  0  0  0
   43.2540    7.0710   44.2800 C   0  0  0  0  0  3  0  0  0  0  0  0
   44.0890    5.9840   44.1140 C   0  0  0  0  0  3  0  0  0  0  0  0
   45.3190    6.1180   43.5050 C   0  0  0  0  0  0  0  0  0  0  0  0
   45.6920    7.3720   43.0660 C   0  0  0  0  0  3  0  0  0  0  0  0
   46.4960    4.6310   43.2620 Br  0  0  0  0  0  0  0  0  0  0  0  0
   44.8420    8.4460   43.2410 C   0  0  0  0  0  3  0  0  0  0  0  0
  1 13  1  0  0  0  0
  2 11  1  0  0  0  0
  2  1  1  0  0  0  0
  3  4  1  0  0  0  0
  3  2  1  0  0  0  0
  4  5  2  0  0  0  0
  5  6  1  0  0  0  0
  5  1  1  0  0  0  0
  6  7  2  0  0  0  0
  8  6  1  0  0  0  0
  9  4  1  0  0  0  0
  9  8  1  0  0  0  0
 10  9  2  0  0  0  0
 12  3  1  0  0  0  0
 14 17  2  0  0  0  0
 14 13  1  0  0  0  0
 15 16  1  0  0  0  0
 15 14  1  0  0  0  0
 18 15  1  0  0  0  0
 18 24  1  0  0  0  0
 19 18  2  0  0  0  0
 20 19  1  0  0  0  0
 21 19  1  0  0  0  0
 21 22  2  0  0  0  0
 22 23  1  0  0  0  0
 23 24  2  0  0  0  0
 25  8  1  0  0  0  0
 25 26  1  0  0  0  0
 27 26  2  0  0  0  0
 28 27  1  0  0  0  0
 29 31  1  0  0  0  0
 29 28  2  0  0  0  0
 30 28  1  0  0  0  0
 31 25  2  0  0  0  0
M  END
>  <Pose>
1

>  <Score>
-8.494

$$$$
