MODEL 1
REMARK VINA RESULT:    -8.494      0.000      0.000
REMARK INTER + INTRA:         -11.471
REMARK INTER:                 -10.480
REMARK INTRA:                  -0.991
REMARK UNBOUND:                -0.991
REMARK  4 active torsions:
REMARK  status: ('A' for Active; 'I' for Inactive)
REMARK    1  A    between atoms: C_3  and  N_8 
REMARK       I    between atoms: N_8  and  C_9 
REMARK    2  A    between atoms: C_9  and  C_11 
REMARK    3  A    between atoms: C_11  and  N_12 
REMARK    4  A    between atoms: N_19  and  C_22 
ROOT
ATOM      1  N   UNK d   1      41.223  12.407  45.440  0.00  0.00    -0.261 N 
ATOM      2  N   UNK d   1      40.224  12.738  44.652  0.00  0.00    -0.239 N 
ATOM      3  N   UNK d   1      40.130  11.883  43.644  0.00  0.00    -0.279 N 
ATOM      4  C   UNK d   1      41.109  10.962  43.784  0.00  0.00     0.152 A 
ATOM      5  C   UNK d   1      41.764  11.293  44.878  0.00  0.00     0.155 A 
ATOM      6  C   UNK d   1      42.769  10.350  45.023  0.00  0.00     0.286 A 
ATOM      7  O   UNK d   1      43.598  10.344  45.959  0.00  0.00    -0.265 OA
ATOM      8  N   UNK d   1      42.730   9.448  44.027  0.00  0.00    -0.241 N 
ATOM      9  C   UNK d   1      41.696   9.828  43.254  0.00  0.00     0.286 A 
ATOM     10  O   UNK d   1      41.312   9.253  42.212  0.00  0.00    -0.265 OA
ATOM     11  H   UNK d   1      39.602  13.570  44.826  0.00  0.00     0.208 HD
ATOM     12  H   UNK d   1      39.422  11.912  42.871  0.00  0.00     0.189 HD
ENDROOT
BRANCH   1  13
ATOM     13  C   UNK d   1      41.681  13.063  46.651  0.00  0.00     0.254 C 
BRANCH  13  14
ATOM     14  C   UNK d   1      42.701  14.093  46.306  0.00  0.00     0.242 C 
ATOM     15  N   UNK d   1      44.008  13.740  45.986  0.00  0.00    -0.323 N 
ATOM     16  H   UNK d   1      44.220  12.687  46.005  0.00  0.00     0.169 HD
ATOM     17  O   UNK d   1      42.314  15.273  46.324  0.00  0.00    -0.271 OA
BRANCH  15  18
ATOM     18  C   UNK d   1      45.088  14.599  45.636  0.00  0.00     0.073 A 
ATOM     19  C   UNK d   1      45.790  14.372  44.442  0.00  0.00     0.143 A 
ATOM     20  F   UNK d   1      45.404  13.327  43.655  0.00  0.00    -0.204 F 
ATOM     21  C   UNK d   1      46.840  15.163  44.048  0.00  0.00     0.044 A 
ATOM     22  C   UNK d   1      47.255  16.224  44.818  0.00  0.00     0.003 A 
ATOM     23  C   UNK d   1      46.576  16.448  45.980  0.00  0.00     0.002 A 
ATOM     24  C   UNK d   1      45.514  15.661  46.392  0.00  0.00     0.033 A 
ENDBRANCH  15  18
ENDBRANCH  13  14
ENDBRANCH   1  13
BRANCH   8  25
ATOM     25  C   UNK d   1      43.606   8.335  43.847  0.00  0.00     0.046 A 
ATOM     26  C   UNK d   1      43.254   7.071  44.280  0.00  0.00     0.031 A 
ATOM     27  C   UNK d   1      44.089   5.984  44.114  0.00  0.00     0.021 A 
ATOM     28  C   UNK d   1      45.319   6.118  43.505  0.00  0.00     0.011 A 
ATOM     29  C   UNK d   1      45.692   7.372  43.066  0.00  0.00     0.021 A 
ATOM     30 Br   UNK d   1      46.496   4.631  43.262  0.00  0.00    -0.051 Br
ATOM     31  C   UNK d   1      44.842   8.446  43.241  0.00  0.00     0.031 A 
ENDBRANCH   8  25
TORSDOF 4
ENDMDL
