/Users/jonathanwahrer/Desktop/Msc/3_Semester/Drug_Design_Praktikum/waehrer_HTS_screening/HTS_experiment/out/docking_results/vina_output/2qfa/0886_docked.pdbqt
 OpenBabel03162220093D

 31 34  0  0  0  0  0  0  0  0999 V2000
   41.8810   11.0620   45.7390 N   0  0  0  0  0  0  0  0  0  0  0  0
   42.5590   10.3610   44.8150 C   0  0  0  0  0  0  0  0  0  0  0  0
   43.2710   10.9330   43.9460 O   0  0  0  0  0  0  0  0  0  0  0  0
   42.3700    8.9980   44.9500 C   0  0  0  0  0  0  0  0  0  0  0  0
   41.5500    8.8700   45.9900 C   0  0  0  0  0  0  0  0  0  0  0  0
   41.3360    7.5620   46.1550 N   0  0  0  0  0  0  0  0  0  0  0  0
   42.0140    6.9070   45.2310 N   0  0  0  0  0  0  0  0  0  0  0  0
   42.6700    7.7690   44.4610 N   0  0  0  0  0  0  0  0  0  0  0  0
   41.2440   10.1210   46.4820 C   0  0  0  0  0  0  0  0  0  0  0  0
   40.5030   10.4320   47.4570 O   0  0  0  0  0  0  0  0  0  0  0  0
   40.7200    7.1590   46.9140 H   0  0  0  0  0  0  0  0  0  0  0  0
   42.0440    5.8850   45.1070 H   0  0  0  0  0  0  0  0  0  0  0  0
   43.5300    7.5140   43.3420 C   0  0  0  0  0  2  0  0  0  0  0  0
   44.4580    6.3890   43.4990 C   0  0  0  0  0  0  0  0  0  0  0  0
   44.0390    5.3790   44.0830 O   0  0  0  0  0  0  0  0  0  0  0  0
   45.7620    6.4660   43.0010 N   0  0  0  0  0  0  0  0  0  0  0  0
   46.0590    7.3800   42.4990 H   0  0  0  0  0  0  0  0  0  0  0  0
   46.7960    5.5020   43.0510 C   0  0  0  0  0  0  0  0  0  0  0  0
   47.7670    5.5230   44.0220 C   0  0  0  0  0  3  0  0  0  0  0  0
   48.8040    4.5890   44.1030 C   0  0  0  0  0  3  0  0  0  0  0  0
   48.8220    3.6090   43.1430 C   0  0  0  0  0  0  0  0  0  0  0  0
   47.8630    3.5650   42.1620 C   0  0  0  0  0  3  0  0  0  0  0  0
   50.2230    2.2860   43.1940 Br  0  0  0  0  0  0  0  0  0  0  0  0
   46.8570    4.4930   42.1040 C   0  0  0  0  0  3  0  0  0  0  0  0
   41.8210   12.4760   45.9160 C   0  0  0  0  0  0  0  0  0  0  0  0
   42.8040   13.2210   46.5260 C   0  0  0  0  0  3  0  0  0  0  0  0
   42.6890   14.6050   46.6790 C   0  0  0  0  0  3  0  0  0  0  0  0
   41.5810   15.2590   46.2210 C   0  0  0  0  0  0  0  0  0  0  0  0
   41.4780   16.6130   46.3770 F   0  0  0  0  0  0  0  0  0  0  0  0
   40.5860   14.5330   45.6090 C   0  0  0  0  0  3  0  0  0  0  0  0
   40.7100   13.1700   45.4630 C   0  0  0  0  0  3  0  0  0  0  0  0
  1 25  1  0  0  0  0
  1  9  1  0  0  0  0
  2  4  1  0  0  0  0
  2  1  1  0  0  0  0
  3  2  2  0  0  0  0
  4  5  2  0  0  0  0
  5  6  1  0  0  0  0
  5  9  1  0  0  0  0
  6 11  1  0  0  0  0
  7  6  1  0  0  0  0
  8  4  1  0  0  0  0
  8  7  1  0  0  0  0
  9 10  2  0  0  0  0
 12  7  1  0  0  0  0
 13 14  1  0  0  0  0
 13  8  1  0  0  0  0
 14 15  2  0  0  0  0
 16 18  1  0  0  0  0
 16 14  1  0  0  0  0
 17 16  1  0  0  0  0
 18 19  1  0  0  0  0
 19 20  2  0  0  0  0
 21 23  1  0  0  0  0
 21 20  1  0  0  0  0
 22 21  2  0  0  0  0
 24 22  1  0  0  0  0
 24 18  2  0  0  0  0
 25 26  1  0  0  0  0
 26 27  2  0  0  0  0
 28 29  1  0  0  0  0
 28 27  1  0  0  0  0
 30 28  2  0  0  0  0
 31 30  1  0  0  0  0
 31 25  2  0  0  0  0
M  END
>  <Pose>
1

>  <Score>
-8.230

$$$$
