/Users/jonathanwahrer/Desktop/Msc/3_Semester/Drug_Design_Praktikum/waehrer_HTS_screening/HTS_experiment/out/docking_results/vina_output/2qfa/0892_docked.pdbqt
 OpenBabel03162220093D

 27 30  0  0  1  0  0  0  0  0999 V2000
   41.1580   11.2870   45.2310 C   0  0  2  0  0  3  0  0  0  0  0  0
   40.8400    9.8770   45.1910 N   0  0  0  0  0  0  0  0  0  0  0  0
   41.8490    8.9360   44.8090 C   0  0  0  0  0  0  0  0  0  0  0  0
   42.0860    7.2460   45.1410 S   0  0  0  0  0  0  0  0  0  0  0  0
   43.5290    6.9940   44.2780 C   0  0  0  0  0  0  0  0  0  0  0  0
   43.7880    8.2150   43.7600 C   0  0  0  0  0  0  0  0  0  0  0  0
   42.9320    9.2160   44.0280 C   0  0  0  0  0  0  0  0  0  0  0  0
   42.9420   10.6470   43.6080 C   0  0  0  0  0  0  0  0  0  0  0  0
   43.8560   11.1020   42.8810 O   0  0  0  0  0  0  0  0  0  0  0  0
   41.9200   11.5320   44.0180 N   0  0  0  0  0  0  0  0  0  0  0  0
   45.0540    8.2870   42.9160 C   0  0  0  0  0  2  0  0  0  0  0  0
   45.3750    6.9080   42.4360 C   0  0  0  0  0  2  0  0  0  0  0  0
   45.6400    6.1200   43.6500 N   0  0  0  0  0  4  0  0  0  0  0  0
   44.3210    5.7520   44.1190 C   0  0  0  0  0  2  0  0  0  0  0  0
   46.4640    4.9700   43.3590 C   0  0  0  0  0  1  0  0  0  0  0  0
   39.8970    9.4970   45.4270 H   0  0  0  0  0  0  0  0  0  0  0  0
   41.6900   12.3880   43.4520 H   0  0  0  0  0  0  0  0  0  0  0  0
   46.0640    6.7440   44.3680 H   0  0  0  0  0  0  0  0  0  0  0  0
   42.0090   11.4950   46.4310 C   0  0  0  0  0  0  0  0  0  0  0  0
   42.8080   12.5960   46.6270 C   0  0  0  0  0  0  0  0  0  0  0  0
   43.5990   12.7380   47.7680 C   0  0  0  0  0  0  0  0  0  0  0  0
   42.8330   13.5910   45.6750 O   0  0  0  0  0  1  0  0  0  0  0  0
   44.8010   14.4480   48.0070 I   0  0  0  0  0  0  0  0  0  0  0  0
   43.6090   11.7860   48.7400 C   0  0  0  0  0  3  0  0  0  0  0  0
   42.8160   10.6760   48.5640 C   0  0  0  0  0  0  0  0  0  0  0  0
   42.0370   10.5280   47.4460 C   0  0  0  0  0  3  0  0  0  0  0  0
   42.8270    9.3410   49.9210 Br  0  0  0  0  0  0  0  0  0  0  0  0
  1 19  1  1  0  0  0
  2  1  1  0  0  0  0
  2 16  1  0  0  0  0
  3  4  1  0  0  0  0
  3  2  1  0  0  0  0
  5  4  1  0  0  0  0
  6  7  1  0  0  0  0
  6  5  2  0  0  0  0
  7  3  2  0  0  0  0
  8 10  1  0  0  0  0
  8  7  1  0  0  0  0
  9  8  2  0  0  0  0
 10  1  1  0  0  0  0
 11  6  1  0  0  0  0
 12 11  1  0  0  0  0
 12 13  1  0  0  0  0
 13 14  1  0  0  0  0
 13 18  1  0  0  0  0
 14  5  1  0  0  0  0
 15 13  1  0  0  0  0
 17 10  1  0  0  0  0
 19 20  2  0  0  0  0
 19 26  1  0  0  0  0
 20 21  1  0  0  0  0
 21 23  1  0  0  0  0
 21 24  2  0  0  0  0
 22 20  1  0  0  0  0
 25 24  1  0  0  0  0
 25 27  1  0  0  0  0
 26 25  2  0  0  0  0
M  END
>  <Pose>
1

>  <Score>
-6.151

$$$$
