MODEL 1
REMARK VINA RESULT:    -6.151      0.000      0.000
REMARK INTER + INTRA:          -6.869
REMARK INTER:                  -6.510
REMARK INTRA:                  -0.359
REMARK UNBOUND:                -0.359
REMARK  1 active torsions:
REMARK  status: ('A' for Active; 'I' for Inactive)
REMARK    1  A    between atoms: C_4  and  C_9 
ROOT
ATOM      1  C   UNK d   1      41.158  11.287  45.231  0.00  0.00     0.222 C 
ATOM      2  N   UNK d   1      40.840   9.877  45.191  0.00  0.00    -0.358 N 
ATOM      3  C   UNK d   1      41.849   8.936  44.809  0.00  0.00     0.088 A 
ATOM      4  S   UNK d   1      42.086   7.246  45.141  0.00  0.00    -0.074 SA
ATOM      5  C   UNK d   1      43.529   6.994  44.278  0.00  0.00     0.018 A 
ATOM      6  C   UNK d   1      43.788   8.215  43.760  0.00  0.00    -0.023 A 
ATOM      7  C   UNK d   1      42.932   9.216  44.028  0.00  0.00     0.073 A 
ATOM      8  C   UNK d   1      42.942  10.647  43.608  0.00  0.00     0.256 C 
ATOM      9  O   UNK d   1      43.856  11.102  42.881  0.00  0.00    -0.267 OA
ATOM     10  N   UNK d   1      41.920  11.532  44.018  0.00  0.00    -0.331 N 
ATOM     11  C   UNK d   1      45.054   8.287  42.916  0.00  0.00     0.068 C 
ATOM     12  C   UNK d   1      45.375   6.908  42.436  0.00  0.00     0.239 C 
ATOM     13  N   UNK d   1      45.640   6.120  43.650  0.00  0.00    -0.070 N 
ATOM     14  C   UNK d   1      44.321   5.752  44.119  0.00  0.00     0.281 C 
ATOM     15  C   UNK d   1      46.464   4.970  43.359  0.00  0.00     0.270 C 
ATOM     16  H   UNK d   1      39.897   9.497  45.427  0.00  0.00     0.162 HD
ATOM     17  H   UNK d   1      41.690  12.388  43.452  0.00  0.00     0.165 HD
ATOM     18  H   UNK d   1      46.064   6.744  44.368  0.00  0.00     0.279 HD
ENDROOT
BRANCH   1  19
ATOM     19  C   UNK d   1      42.009  11.495  46.431  0.00  0.00     0.023 A 
ATOM     20  C   UNK d   1      42.808  12.596  46.627  0.00  0.00     0.134 A 
ATOM     21  C   UNK d   1      43.599  12.738  47.768  0.00  0.00     0.044 A 
ATOM     22  O   UNK d   1      42.833  13.591  45.675  0.00  0.00    -0.190 OA
ATOM     23  I   UNK d   1      44.801  14.448  48.007  0.00  0.00    -0.042 I 
ATOM     24  C   UNK d   1      43.609  11.786  48.740  0.00  0.00     0.040 A 
ATOM     25  C   UNK d   1      42.816  10.676  48.564  0.00  0.00     0.013 A 
ATOM     26  C   UNK d   1      42.037  10.528  47.446  0.00  0.00     0.033 A 
ATOM     27 Br   UNK d   1      42.827   9.341  49.921  0.00  0.00    -0.051 Br
ENDBRANCH   1  19
TORSDOF 1
ENDMDL
