/Users/jonathanwahrer/Desktop/Msc/3_Semester/Drug_Design_Praktikum/waehrer_HTS_screening/HTS_experiment/out/docking_results/vina_output/2qfa/0895_docked.pdbqt
 OpenBabel03162220103D

 28 31  0  0  1  0  0  0  0  0999 V2000
   42.4320   13.1230   46.2970 C   0  0  2  0  0  3  0  0  0  0  0  0
   42.9380   11.9220   46.9630 N   0  0  0  0  0  0  0  0  0  0  0  0
   42.8130   10.6170   46.3440 C   0  0  0  0  0  0  0  0  0  0  0  0
   42.9990    9.0180   46.9440 S   0  0  0  0  0  0  0  0  0  0  0  0
   42.6630    8.1570   45.5220 C   0  0  0  0  0  0  0  0  0  0  0  0
   42.4120    9.1420   44.6050 C   0  0  0  0  0  0  0  0  0  0  0  0
   42.4920   10.4180   45.0390 C   0  0  0  0  0  0  0  0  0  0  0  0
   42.2650   11.6600   44.2450 C   0  0  0  0  0  0  0  0  0  0  0  0
   41.9590   11.6150   43.0150 O   0  0  0  0  0  0  0  0  0  0  0  0
   42.3950   12.9130   44.8760 N   0  0  0  0  0  0  0  0  0  0  0  0
   42.0820    8.5670   43.2320 C   0  0  0  0  0  2  0  0  0  0  0  0
   43.1340    7.5590   42.8500 C   0  0  0  0  0  2  0  0  0  0  0  0
   43.4900    6.6630   43.8990 N   0  0  0  0  0  4  0  0  0  0  0  0
   42.5730    6.7330   45.0320 C   0  0  0  0  0  2  0  0  0  0  0  0
   44.7910    7.1050   44.4240 C   0  0  0  0  0  1  0  0  0  0  0  0
   43.3980   11.9640   47.8900 H   0  0  0  0  0  0  0  0  0  0  0  0
   42.4720   13.7760   44.2750 H   0  0  0  0  0  0  0  0  0  0  0  0
   43.5880    5.6610   43.5880 H   0  0  0  0  0  0  0  0  0  0  0  0
   43.4370   14.1880   46.5630 C   0  0  0  0  0  0  0  0  0  0  0  0
   44.6500   14.1260   45.8890 C   0  0  0  0  0  3  0  0  0  0  0  0
   45.6430   15.0440   46.0520 C   0  0  0  0  0  0  0  0  0  0  0  0
   45.4150   16.0920   46.9430 C   0  0  0  0  0  0  0  0  0  0  0  0
   44.2180   16.1770   47.6250 C   0  0  0  0  0  0  0  0  0  0  0  0
   46.3990   17.0430   47.1350 O   0  0  0  0  0  1  0  0  0  0  0  0
   43.8930   17.7710   48.9680 I   0  0  0  0  0  0  0  0  0  0  0  0
   43.2310   15.2230   47.4330 C   0  0  0  0  0  3  0  0  0  0  0  0
   46.8650   15.0090   45.3940 O   0  0  0  0  0  0  0  0  0  0  0  0
   46.8960   15.3040   44.0100 C   0  0  0  0  0  1  0  0  0  0  0  0
  1 19  1  6  0  0  0
  1  2  1  0  0  0  0
  2 16  1  0  0  0  0
  3  4  1  0  0  0  0
  3  2  1  0  0  0  0
  5  4  1  0  0  0  0
  6  7  1  0  0  0  0
  6  5  2  0  0  0  0
  7  3  2  0  0  0  0
  8 10  1  0  0  0  0
  8  7  1  0  0  0  0
  9  8  2  0  0  0  0
 10  1  1  0  0  0  0
 11  6  1  0  0  0  0
 12 11  1  0  0  0  0
 12 13  1  0  0  0  0
 13 15  1  0  0  0  0
 13 14  1  0  0  0  0
 14  5  1  0  0  0  0
 17 10  1  0  0  0  0
 18 13  1  0  0  0  0
 19 26  1  0  0  0  0
 20 21  1  0  0  0  0
 20 19  2  0  0  0  0
 21 22  2  0  0  0  0
 22 24  1  0  0  0  0
 22 23  1  0  0  0  0
 23 25  1  0  0  0  0
 26 23  2  0  0  0  0
 27 21  1  0  0  0  0
 28 27  1  0  0  0  0
M  END
>  <Pose>
1

>  <Score>
-7.009

$$$$
