MODEL 1
REMARK VINA RESULT:    -7.009      0.000      0.000
REMARK INTER + INTRA:          -8.311
REMARK INTER:                  -7.829
REMARK INTRA:                  -0.482
REMARK UNBOUND:                -0.482
REMARK  2 active torsions:
REMARK  status: ('A' for Active; 'I' for Inactive)
REMARK    1  A    between atoms: C_4  and  O_23 
REMARK    2  A    between atoms: C_6  and  C_8 
ROOT
ATOM      1  C   UNK d   1      42.432  13.123  46.297  0.00  0.00     0.219 C 
ATOM      2  N   UNK d   1      42.938  11.922  46.963  0.00  0.00    -0.358 N 
ATOM      3  C   UNK d   1      42.813  10.617  46.344  0.00  0.00     0.088 A 
ATOM      4  S   UNK d   1      42.999   9.018  46.944  0.00  0.00    -0.074 SA
ATOM      5  C   UNK d   1      42.663   8.157  45.522  0.00  0.00     0.018 A 
ATOM      6  C   UNK d   1      42.412   9.142  44.605  0.00  0.00    -0.023 A 
ATOM      7  C   UNK d   1      42.492  10.418  45.039  0.00  0.00     0.073 A 
ATOM      8  C   UNK d   1      42.265  11.660  44.245  0.00  0.00     0.256 C 
ATOM      9  O   UNK d   1      41.959  11.615  43.015  0.00  0.00    -0.267 OA
ATOM     10  N   UNK d   1      42.395  12.913  44.876  0.00  0.00    -0.332 N 
ATOM     11  C   UNK d   1      42.082   8.567  43.232  0.00  0.00     0.068 C 
ATOM     12  C   UNK d   1      43.134   7.559  42.850  0.00  0.00     0.239 C 
ATOM     13  N   UNK d   1      43.490   6.663  43.899  0.00  0.00    -0.070 N 
ATOM     14  C   UNK d   1      42.573   6.733  45.032  0.00  0.00     0.281 C 
ATOM     15  C   UNK d   1      44.791   7.105  44.424  0.00  0.00     0.270 C 
ATOM     16  H   UNK d   1      43.398  11.964  47.890  0.00  0.00     0.162 HD
ATOM     17  H   UNK d   1      42.472  13.776  44.275  0.00  0.00     0.165 HD
ATOM     18  H   UNK d   1      43.588   5.661  43.588  0.00  0.00     0.279 HD
ENDROOT
BRANCH   1  19
ATOM     19  C   UNK d   1      43.437  14.188  46.563  0.00  0.00    -0.012 A 
ATOM     20  C   UNK d   1      44.650  14.126  45.889  0.00  0.00     0.050 A 
ATOM     21  C   UNK d   1      45.643  15.044  46.052  0.00  0.00     0.106 A 
ATOM     22  C   UNK d   1      45.415  16.092  46.943  0.00  0.00     0.157 A 
ATOM     23  C   UNK d   1      44.218  16.177  47.625  0.00  0.00     0.046 A 
ATOM     24  O   UNK d   1      46.399  17.043  47.135  0.00  0.00    -0.188 OA
ATOM     25  I   UNK d   1      43.893  17.771  48.968  0.00  0.00    -0.041 I 
ATOM     26  C   UNK d   1      43.231  15.223  47.433  0.00  0.00     0.032 A 
BRANCH  21  27
ATOM     27  O   UNK d   1      46.865  15.009  45.394  0.00  0.00    -0.353 OA
ATOM     28  C   UNK d   1      46.896  15.304  44.010  0.00  0.00     0.210 C 
ENDBRANCH  21  27
ENDBRANCH   1  19
TORSDOF 2
ENDMDL
