MODEL 1
REMARK VINA RESULT:    -6.774      0.000      0.000
REMARK INTER + INTRA:         -10.102
REMARK INTER:                  -9.150
REMARK INTRA:                  -0.951
REMARK UNBOUND:                -0.951
REMARK  6 active torsions:
REMARK  status: ('A' for Active; 'I' for Inactive)
REMARK    1  A    between atoms: C_3  and  N_8 
REMARK    2  A    between atoms: N_8  and  C_9 
REMARK    3  A    between atoms: C_20  and  C_21 
REMARK    4  A    between atoms: C_21  and  C_22 
REMARK    5  A    between atoms: C_22  and  O_24 
REMARK    6  A    between atoms: O_24  and  C_25 
ROOT
ATOM      1  C   UNK d   1      42.358  11.590  45.929  0.00  0.00     0.179 A 
ATOM      2  N   UNK d   1      42.165  11.019  47.112  0.00  0.00    -0.202 NA
ATOM      3  C   UNK d   1      42.107   9.697  47.345  0.00  0.00     0.230 A 
ATOM      4  N   UNK d   1      41.929   8.873  48.385  0.00  0.00    -0.081 NA
ATOM      5  O   UNK d   1      41.969   7.632  47.993  0.00  0.00    -0.103 OA
ATOM      6  N   UNK d   1      42.168   7.588  46.707  0.00  0.00    -0.082 NA
ATOM      7  C   UNK d   1      42.263   8.844  46.246  0.00  0.00     0.217 A 
ATOM      8  N   UNK d   1      42.457   9.358  45.045  0.00  0.00    -0.256 N 
ATOM      9  C   UNK d   1      42.507  10.680  44.864  0.00  0.00     0.206 A 
ATOM     10  N   UNK d   1      42.711  10.875  43.571  0.00  0.00    -0.126 NA
ATOM     11  N   UNK d   1      42.789   9.687  42.948  0.00  0.00    -0.133 NA
ATOM     12  C   UNK d   1      42.631   8.713  43.857  0.00  0.00     0.145 A 
ENDROOT
BRANCH   1  13
ATOM     13  N   UNK d   1      42.421  12.975  45.672  0.00  0.00    -0.337 N 
ATOM     14  H   UNK d   1      41.550  13.437  45.230  0.00  0.00     0.167 HD
BRANCH  13  15
ATOM     15  C   UNK d   1      43.490  13.860  45.921  0.00  0.00     0.050 A 
ATOM     16  C   UNK d   1      43.291  14.929  46.822  0.00  0.00     0.033 A 
ATOM     17  I   UNK d   1      41.418  15.155  47.770  0.00  0.00    -0.042 I 
ATOM     18  C   UNK d   1      44.307  15.815  47.083  0.00  0.00     0.020 A 
ATOM     19  C   UNK d   1      45.542  15.660  46.456  0.00  0.00     0.001 A 
ATOM     20  C   UNK d   1      45.705  14.617  45.589  0.00  0.00     0.002 A 
ATOM     21  C   UNK d   1      44.695  13.695  45.301  0.00  0.00     0.031 A 
ENDBRANCH  13  15
ENDBRANCH   1  13
BRANCH  12  22
ATOM     22  C   UNK d   1      42.641   7.238  43.671  0.00  0.00     0.192 C 
BRANCH  22  23
ATOM     23  C   UNK d   1      43.967   6.626  43.927  0.00  0.00     0.266 C 
ATOM     24  O   UNK d   1      44.136   5.397  44.064  0.00  0.00    -0.265 OA
BRANCH  23  25
ATOM     25  O   UNK d   1      45.059   7.444  44.020  0.00  0.00    -0.322 OA
BRANCH  25  26
ATOM     26  C   UNK d   1      46.075   7.532  43.087  0.00  0.00     0.174 C 
ATOM     27  C   UNK d   1      47.321   6.796  43.399  0.00  0.00     0.034 C 
ENDBRANCH  25  26
ENDBRANCH  23  25
ENDBRANCH  22  23
ENDBRANCH  12  22
TORSDOF 6
ENDMDL
