MODEL 1
REMARK VINA RESULT:    -7.476      0.000      0.000
REMARK INTER + INTRA:          -8.853
REMARK INTER:                  -8.350
REMARK INTRA:                  -0.503
REMARK UNBOUND:                -0.503
REMARK  2 active torsions:
REMARK  status: ('A' for Active; 'I' for Inactive)
REMARK    1  A    between atoms: C_3  and  N_8 
REMARK    2  A    between atoms: N_15  and  C_16 
ROOT
ATOM      1  N   UNK d   1      41.823  11.866  45.383  0.00  0.00    -0.240 N 
ATOM      2  C   UNK d   1      42.546  10.766  45.109  0.00  0.00     0.286 A 
ATOM      3  O   UNK d   1      43.644  10.457  45.663  0.00  0.00    -0.265 OA
ATOM      4  C   UNK d   1      41.944   9.996  44.135  0.00  0.00     0.160 A 
ATOM      5  C   UNK d   1      40.834  10.639  43.812  0.00  0.00     0.152 A 
ATOM      6  N   UNK d   1      40.254   9.873  42.858  0.00  0.00    -0.278 N 
ATOM      7  N   UNK d   1      40.988   8.803  42.613  0.00  0.00    -0.234 N 
ATOM      8  N   UNK d   1      42.038   8.859  43.391  0.00  0.00    -0.234 N 
ATOM      9  C   UNK d   1      40.749  11.793  44.575  0.00  0.00     0.286 A 
ATOM     10  O   UNK d   1      39.796  12.635  44.504  0.00  0.00    -0.265 OA
ATOM     11  H   UNK d   1      39.356  10.078  42.372  0.00  0.00     0.189 HD
ATOM     12  H   UNK d   1      40.774   8.052  41.926  0.00  0.00     0.209 HD
ENDROOT
BRANCH   1  13
ATOM     13  C   UNK d   1      42.099  12.908  46.321  0.00  0.00     0.062 A 
ATOM     14  C   UNK d   1      41.652  12.843  47.625  0.00  0.00     0.034 A 
ATOM     15  I   UNK d   1      40.538  11.133  48.186  0.00  0.00    -0.042 I 
ATOM     16  C   UNK d   1      41.907  13.837  48.548  0.00  0.00     0.020 A 
ATOM     17  C   UNK d   1      42.633  14.956  48.194  0.00  0.00     0.001 A 
ATOM     18  C   UNK d   1      43.084  15.032  46.893  0.00  0.00     0.002 A 
ATOM     19  C   UNK d   1      42.825  14.029  45.975  0.00  0.00     0.031 A 
ENDBRANCH   1  13
BRANCH   8  20
ATOM     20  C   UNK d   1      43.113   7.934  43.490  0.00  0.00     0.058 A 
ATOM     21  C   UNK d   1      42.957   6.688  44.054  0.00  0.00     0.031 A 
ATOM     22  C   UNK d   1      44.024   5.809  44.135  0.00  0.00     0.002 A 
ATOM     23  C   UNK d   1      45.277   6.138  43.660  0.00  0.00     0.000 A 
ATOM     24  C   UNK d   1      45.435   7.386  43.095  0.00  0.00     0.002 A 
ATOM     25  C   UNK d   1      44.382   8.264  43.011  0.00  0.00     0.031 A 
ENDBRANCH   8  20
TORSDOF 2
ENDMDL
