/Users/jonathanwahrer/Desktop/Msc/3_Semester/Drug_Design_Praktikum/waehrer_HTS_screening/HTS_experiment/out/docking_results/vina_output/2qfa/0910_docked.pdbqt
 OpenBabel03162220103D

 26 29  0  0  0  0  0  0  0  0999 V2000
   42.4430   10.1990   44.2690 C   0  0  0  0  0  0  0  0  0  0  0  0
   42.3330    9.0770   45.1220 C   0  0  0  0  0  0  0  0  0  0  0  0
   41.4850    8.8030   46.1070 N   0  0  0  0  0  0  0  0  0  0  0  0
   41.7920    7.6410   46.5980 O   0  0  0  0  0  0  0  0  0  0  0  0
   42.8030    7.1460   45.9800 N   0  0  0  0  0  0  0  0  0  0  0  0
   43.1790    8.0200   45.0370 C   0  0  0  0  0  0  0  0  0  0  0  0
   44.1840    8.0220   44.0960 C   0  0  0  0  0  0  0  0  0  0  0  0
   44.3190    9.0950   43.2540 C   0  0  0  0  0  3  0  0  0  0  0  0
   43.4650   10.1780   43.3290 C   0  0  0  0  0  3  0  0  0  0  0  0
   41.4560   11.1500   44.4280 N   0  0  0  0  0  0  0  0  0  0  0  0
   40.5030   12.0680   44.5820 C   0  0  0  0  0  0  0  0  0  0  0  0
   40.1000   12.8630   43.6380 O   0  0  0  0  0  0  0  0  0  0  0  0
   41.7510   11.6400   43.1930 H   0  0  0  0  0  0  0  0  0  0  0  0
   39.7480   12.3460   45.8350 C   0  0  0  0  0  0  0  0  0  0  0  0
   40.0400   13.3550   46.7270 C   0  0  0  0  0  0  0  0  0  0  0  0
   41.6610   14.7280   46.5970 I   0  0  0  0  0  0  0  0  0  0  0  0
   39.0900   13.3170   47.7170 C   0  0  0  0  0  3  0  0  0  0  0  0
   38.2710   12.3160   47.4070 N   0  0  0  0  0  0  0  0  0  0  0  0
   38.6530   11.7260   46.2810 N   0  0  0  0  0  0  0  0  0  0  0  0
   37.9090   10.6140   45.6610 C   0  0  0  0  0  1  0  0  0  0  0  0
   45.0430    6.9130   44.0460 N   0  0  0  0  0  0  0  0  0  0  0  0
   46.3890    6.9280   44.6200 C   0  0  0  0  0  2  0  0  0  0  0  0
   47.3110    6.7200   43.4360 C   0  0  0  0  0  2  0  0  0  0  0  0
   46.6430    6.5460   42.2340 O   0  0  0  0  0  0  0  0  0  0  0  0
   45.6830    5.5560   42.2320 C   0  0  0  0  0  2  0  0  0  0  0  0
   44.7730    5.6270   43.4450 C   0  0  0  0  0  2  0  0  0  0  0  0
  1 10  1  0  0  0  0
  1  2  1  0  0  0  0
  2  3  2  0  0  0  0
  3  4  1  0  0  0  0
  5  4  1  0  0  0  0
  6  2  1  0  0  0  0
  6  5  2  0  0  0  0
  7  6  1  0  0  0  0
  8  9  1  0  0  0  0
  8  7  2  0  0  0  0
  9  1  2  0  0  0  0
 10 11  1  0  0  0  0
 11 14  1  0  0  0  0
 12 11  2  0  0  0  0
 13 10  1  0  0  0  0
 14 19  1  0  0  0  0
 14 15  2  0  0  0  0
 15 17  1  0  0  0  0
 16 15  1  0  0  0  0
 18 17  2  0  0  0  0
 19 18  1  0  0  0  0
 20 19  1  0  0  0  0
 21  7  1  0  0  0  0
 21 22  1  0  0  0  0
 23 22  1  0  0  0  0
 24 23  1  0  0  0  0
 25 24  1  0  0  0  0
 25 26  1  0  0  0  0
 26 21  1  0  0  0  0
M  END
>  <Pose>
1

>  <Score>
-6.137

$$$$
