/Users/jonathanwahrer/Desktop/Msc/3_Semester/Drug_Design_Praktikum/waehrer_HTS_screening/HTS_experiment/out/docking_results/vina_output/2qfa/0924_docked.pdbqt
 OpenBabel03162220113D

 29 32  0  0  0  0  0  0  0  0999 V2000
   43.2730   11.6570   45.2590 C   0  0  0  0  0  0  0  0  0  0  0  0
   42.0590   12.1430   45.5690 N   0  0  0  0  0  4  0  0  0  0  0  0
   41.8870   13.4330   45.8820 C   0  0  0  0  0  0  0  0  0  0  0  0
   42.9820   14.2100   45.8710 N   0  0  0  0  0  0  0  0  0  0  0  0
   44.2160   13.7600   45.5660 C   0  0  0  0  0  0  0  0  0  0  0  0
   44.3470   12.4570   45.2560 N   0  0  0  0  0  2  0  0  0  0  0  0
   43.4350   10.2580   44.9240 N   0  0  0  0  0  0  0  0  0  0  0  0
   44.3890    9.8380   44.8940 H   0  0  0  0  0  0  0  0  0  0  0  0
   42.3400    9.5170   44.6250 N   0  0  0  0  0  0  0  0  0  0  0  0
   42.3790    8.3710   44.1050 C   0  0  0  0  0  3  0  0  0  0  0  0
   43.5340    7.6060   43.7220 C   0  0  0  0  0  0  0  0  0  0  0  0
   44.5980    8.0240   42.9780 C   0  0  0  0  0  3  0  0  0  0  0  0
   45.6830    7.1940   42.6580 C   0  0  0  0  0  3  0  0  0  0  0  0
   45.7050    5.9060   43.0970 C   0  0  0  0  0  0  0  0  0  0  0  0
   47.2770    4.5920   42.6740 I   0  0  0  0  0  0  0  0  0  0  0  0
   44.6430    5.4580   43.8510 C   0  0  0  0  0  3  0  0  0  0  0  0
   43.5830    6.2750   44.1610 C   0  0  0  0  0  3  0  0  0  0  0  0
   40.6070   13.9710   46.2150 N   0  0  0  0  0  0  0  0  0  0  0  0
   40.3900   14.8560   47.3190 C   0  0  0  0  0  2  0  0  0  0  0  0
   38.8800   15.0620   47.4570 C   0  0  0  0  0  2  0  0  0  0  0  0
   38.1980   13.8560   47.4490 O   0  0  0  0  0  0  0  0  0  0  0  0
   38.2930   13.1820   46.2560 C   0  0  0  0  0  2  0  0  0  0  0  0
   39.4580   13.6100   45.4010 C   0  0  0  0  0  2  0  0  0  0  0  0
   45.3230   14.6500   45.5790 N   0  0  0  0  0  0  0  0  0  0  0  0
   45.5790   15.4550   46.7510 C   0  0  0  0  0  2  0  0  0  0  0  0
   46.1230   16.7880   46.2170 C   0  0  0  0  0  2  0  0  0  0  0  0
   47.3360   16.5320   45.6330 O   0  0  0  0  0  0  0  0  0  0  0  0
   47.3280   15.6860   44.5600 C   0  0  0  0  0  3  0  0  0  0  0  0
   46.1780   14.7530   44.4470 C   0  0  0  0  0  3  0  0  0  0  0  0
  1  2  2  0  0  0  0
  2  3  2  0  0  0  0
  3 18  1  0  0  0  0
  4  3  1  0  0  0  0
  5 24  1  0  0  0  0
  5  4  2  0  0  0  0
  6  1  1  0  0  0  0
  6  5  1  0  0  0  0
  7  1  1  0  0  0  0
  8  7  1  0  0  0  0
  9  7  1  0  0  0  0
 10  9  2  0  0  0  0
 11 10  1  0  0  0  0
 11 17  1  0  0  0  0
 12 11  2  0  0  0  0
 13 12  1  0  0  0  0
 13 14  2  0  0  0  0
 14 16  1  0  0  0  0
 15 14  1  0  0  0  0
 16 17  2  0  0  0  0
 18 19  1  0  0  0  0
 19 20  1  0  0  0  0
 21 20  1  0  0  0  0
 22 21  1  0  0  0  0
 23 18  1  0  0  0  0
 23 22  1  0  0  0  0
 24 25  1  0  0  0  0
 26 25  1  0  0  0  0
 27 26  1  0  0  0  0
 28 27  1  0  0  0  0
 29 28  2  0  0  0  0
 29 24  1  0  0  0  0
M  END
>  <Pose>
1

>  <Score>
-7.391

$$$$
