MODEL 1
REMARK VINA RESULT:    -7.782      0.000      0.000
REMARK INTER + INTRA:          -7.550
REMARK INTER:                  -9.147
REMARK INTRA:                   1.597
REMARK UNBOUND:                 1.597
REMARK  3 active torsions:
REMARK  status: ('A' for Active; 'I' for Inactive)
REMARK    1  A    between atoms: C_5  and  N_8 
REMARK    2  A    between atoms: C_10  and  C_16 
REMARK    3  A    between atoms: C_22  and  O_29 
ROOT
ATOM      1  N   UNK d   1      42.812   9.353  43.516  0.00  0.00    -0.241 N 
ATOM      2  C   UNK d   1      43.053  10.424  44.292  0.00  0.00     0.204 A 
ATOM      3  C   UNK d   1      42.187  11.494  44.367  0.00  0.00     0.100 A 
ATOM      4  C   UNK d   1      41.047  11.403  43.593  0.00  0.00     0.262 A 
ATOM      5  O   UNK d   1      40.153  12.301  43.549  0.00  0.00    -0.267 OA
ATOM      6  N   UNK d   1      40.790  10.317  42.798  0.00  0.00    -0.274 N 
ATOM      7  C   UNK d   1      41.688   9.317  42.782  0.00  0.00     0.336 A 
ATOM      8  O   UNK d   1      41.495   8.300  42.068  0.00  0.00    -0.246 OA
ATOM      9  O   UNK d   1      44.195  10.475  45.048  0.00  0.00    -0.171 OA
ATOM     10  H   UNK d   1      39.933  10.254  42.218  0.00  0.00     0.173 HD
ENDROOT
BRANCH   3  11
ATOM     11  C   UNK d   1      42.385  12.689  45.166  0.00  0.00     0.267 C 
ATOM     12  N   UNK d   1      41.222  13.325  45.699  0.00  0.00    -0.062 N 
ATOM     13  C   UNK d   1      40.490  12.535  46.651  0.00  0.00     0.240 C 
ATOM     14  C   UNK d   1      41.739  14.480  46.478  0.00  0.00     0.270 C 
ATOM     15  H   UNK d   1      40.604  13.801  45.021  0.00  0.00     0.280 HD
ATOM     16  C   UNK d   1      41.226  11.285  47.085  0.00  0.00     0.067 C 
ATOM     17  C   UNK d   1      42.665  11.651  47.360  0.00  0.00    -0.042 A 
ATOM     18  C   UNK d   1      43.247  12.397  46.367  0.00  0.00     0.020 A 
ATOM     19  C   UNK d   1      43.333  11.316  48.491  0.00  0.00     0.047 A 
ATOM     20  C   UNK d   1      44.544  12.833  46.492  0.00  0.00     0.113 A 
ATOM     21  C   UNK d   1      45.222  12.487  47.652  0.00  0.00     0.139 A 
ATOM     22  C   UNK d   1      44.651  11.737  48.660  0.00  0.00     0.108 A 
ATOM     23  O   UNK d   1      46.526  12.761  48.094  0.00  0.00    -0.320 OA
ATOM     24  O   UNK d   1      45.588  11.570  49.668  0.00  0.00    -0.323 OA
ATOM     25  C   UNK d   1      46.889  11.896  49.154  0.00  0.00     0.352 C 
BRANCH  20  26
ATOM     26  O   UNK d   1      45.116  13.576  45.499  0.00  0.00    -0.352 OA
ATOM     27  C   UNK d   1      45.637  14.863  45.603  0.00  0.00     0.210 C 
ENDBRANCH  20  26
ENDBRANCH   3  11
BRANCH   1  28
ATOM     28  C   UNK d   1      43.719   8.264  43.455  0.00  0.00     0.046 A 
ATOM     29  C   UNK d   1      44.936   8.344  42.797  0.00  0.00     0.031 A 
ATOM     30  C   UNK d   1      45.809   7.298  42.737  0.00  0.00     0.020 A 
ATOM     31  C   UNK d   1      45.500   6.087  43.347  0.00  0.00     0.006 A 
ATOM     32  I   UNK d   1      46.853   4.485  43.247  0.00  0.00    -0.045 I 
ATOM     33  C   UNK d   1      44.293   6.004  44.001  0.00  0.00     0.020 A 
ATOM     34  C   UNK d   1      43.404   7.056  44.068  0.00  0.00     0.031 A 
ENDBRANCH   1  28
TORSDOF 3
ENDMDL
