/Users/jonathanwahrer/Desktop/Msc/3_Semester/Drug_Design_Praktikum/waehrer_HTS_screening/HTS_experiment/out/docking_results/vina_output/2qfa/0935_docked.pdbqt
 OpenBabel03162220113D

 34 38  0  0  1  0  0  0  0  0999 V2000
   42.8120    9.3530   43.5160 N   0  0  0  0  0  0  0  0  0  0  0  0
   43.0530   10.4240   44.2920 C   0  0  0  0  0  0  0  0  0  0  0  0
   42.1870   11.4940   44.3670 C   0  0  2  0  0  3  0  0  0  0  0  0
   41.0470   11.4030   43.5930 C   0  0  0  0  0  0  0  0  0  0  0  0
   40.1530   12.3010   43.5490 O   0  0  0  0  0  0  0  0  0  0  0  0
   40.7900   10.3170   42.7980 N   0  0  0  0  0  0  0  0  0  0  0  0
   41.6880    9.3170   42.7820 C   0  0  0  0  0  0  0  0  0  0  0  0
   41.4950    8.3000   42.0680 O   0  0  0  0  0  0  0  0  0  0  0  0
   44.1950   10.4750   45.0480 O   0  0  0  0  0  0  0  0  0  0  0  0
   39.9330   10.2540   42.2180 H   0  0  0  0  0  0  0  0  0  0  0  0
   42.3850   12.6890   45.1660 C   0  0  1  0  0  3  0  0  0  0  0  0
   41.2220   13.3250   45.6990 N   0  0  0  0  0  4  0  0  0  0  0  0
   40.4900   12.5350   46.6510 C   0  0  0  0  0  2  0  0  0  0  0  0
   41.7390   14.4800   46.4780 C   0  0  0  0  0  1  0  0  0  0  0  0
   40.6040   13.8010   45.0210 H   0  0  0  0  0  0  0  0  0  0  0  0
   41.2260   11.2850   47.0850 C   0  0  0  0  0  2  0  0  0  0  0  0
   42.6650   11.6510   47.3600 C   0  0  0  0  0  0  0  0  0  0  0  0
   43.2470   12.3970   46.3670 C   0  0  0  0  0  0  0  0  0  0  0  0
   43.3330   11.3160   48.4910 C   0  0  0  0  0  3  0  0  0  0  0  0
   44.5440   12.8330   46.4920 C   0  0  0  0  0  0  0  0  0  0  0  0
   45.2220   12.4870   47.6520 C   0  0  0  0  0  0  0  0  0  0  0  0
   44.6510   11.7370   48.6600 C   0  0  0  0  0  0  0  0  0  0  0  0
   46.5260   12.7610   48.0940 O   0  0  0  0  0  0  0  0  0  0  0  0
   45.5880   11.5700   49.6680 O   0  0  0  0  0  0  0  0  0  0  0  0
   46.8890   11.8960   49.1540 C   0  0  0  0  0  2  0  0  0  0  0  0
   45.1160   13.5760   45.4990 O   0  0  0  0  0  0  0  0  0  0  0  0
   45.6370   14.8630   45.6030 C   0  0  0  0  0  1  0  0  0  0  0  0
   43.7190    8.2640   43.4550 C   0  0  0  0  0  0  0  0  0  0  0  0
   44.9360    8.3440   42.7970 C   0  0  0  0  0  3  0  0  0  0  0  0
   45.8090    7.2980   42.7370 C   0  0  0  0  0  3  0  0  0  0  0  0
   45.5000    6.0870   43.3470 C   0  0  0  0  0  0  0  0  0  0  0  0
   46.8530    4.4850   43.2470 I   0  0  0  0  0  0  0  0  0  0  0  0
   44.2930    6.0040   44.0010 C   0  0  0  0  0  3  0  0  0  0  0  0
   43.4040    7.0560   44.0680 C   0  0  0  0  0  3  0  0  0  0  0  0
  1  2  1  0  0  0  0
  2  3  1  0  0  0  0
  2  9  2  0  0  0  0
  3  4  1  6  0  0  0
  3 11  1  0  0  0  0
  5  4  2  0  0  0  0
  6  4  1  0  0  0  0
  7  6  1  0  0  0  0
  7  1  1  0  0  0  0
  8  7  2  0  0  0  0
 10  6  1  0  0  0  0
 11 12  1  0  0  0  0
 11 18  1  1  0  0  0
 12 14  1  0  0  0  0
 12 13  1  0  0  0  0
 13 16  1  0  0  0  0
 15 12  1  0  0  0  0
 16 17  1  0  0  0  0
 17 19  1  0  0  0  0
 18 20  1  0  0  0  0
 18 17  2  0  0  0  0
 19 22  2  0  0  0  0
 20 21  2  0  0  0  0
 21 23  1  0  0  0  0
 21 22  1  0  0  0  0
 22 24  1  0  0  0  0
 23 25  1  0  0  0  0
 25 24  1  0  0  0  0
 26 27  1  0  0  0  0
 26 20  1  0  0  0  0
 28  1  1  0  0  0  0
 28 34  1  0  0  0  0
 29 28  2  0  0  0  0
 30 29  1  0  0  0  0
 30 31  2  0  0  0  0
 31 33  1  0  0  0  0
 32 31  1  0  0  0  0
 33 34  2  0  0  0  0
M  END
>  <Pose>
1

>  <Score>
-7.782

$$$$
