MODEL 1
REMARK VINA RESULT:    -7.073      0.000      0.000
REMARK INTER + INTRA:          -8.775
REMARK INTER:                  -8.313
REMARK INTRA:                  -0.462
REMARK UNBOUND:                -0.462
REMARK  3 active torsions:
REMARK  status: ('A' for Active; 'I' for Inactive)
REMARK    1  A    between atoms: C_5  and  N_8 
REMARK    2  A    between atoms: C_11  and  N_15 
REMARK    3  A    between atoms: N_18  and  C_21 
ROOT
ATOM      1  N   UNK d   1      40.755  12.005  44.857  0.00  0.00    -0.251 N 
ATOM      2  C   UNK d   1      41.378  11.595  43.651  0.00  0.00     0.254 C 
ATOM      3  O   UNK d   1      40.904  11.823  42.508  0.00  0.00    -0.270 OA
ATOM      4  C   UNK d   1      42.646  10.878  43.961  0.00  0.00     0.181 C 
ATOM      5  C   UNK d   1      43.052  11.535  45.270  0.00  0.00     0.138 C 
ATOM      6  C   UNK d   1      41.786  12.035  45.842  0.00  0.00     0.233 C 
ATOM      7  O   UNK d   1      41.605  12.440  47.027  0.00  0.00    -0.273 OA
ENDROOT
BRANCH   4   8
ATOM      8  N   UNK d   1      42.363   9.508  44.079  0.00  0.00    -0.397 N 
ATOM      9  C   UNK d   1      42.287   8.684  42.956  0.00  0.00     0.138 C 
ATOM     10  C   UNK d   1      42.620   7.244  43.427  0.00  0.00     0.161 C 
ATOM     11  N   UNK d   1      43.844   7.301  44.212  0.00  0.00    -0.211 N 
ATOM     12  C   UNK d   1      43.808   8.121  45.398  0.00  0.00     0.161 C 
ATOM     13  C   UNK d   1      42.512   8.926  45.351  0.00  0.00     0.138 C 
BRANCH  11  14
ATOM     14  C   UNK d   1      44.999   6.593  43.820  0.00  0.00     0.724 A 
ATOM     15  N   UNK d   1      46.194   7.231  43.692  0.00  0.00    -0.075 NA
ATOM     16  C   UNK d   1      47.320   6.616  43.336  0.00  0.00     0.138 A 
ATOM     17  C   UNK d   1      47.316   5.253  43.071  0.00  0.00     0.040 A 
ATOM     18  C   UNK d   1      46.097   4.610  43.202  0.00  0.00     0.138 A 
ATOM     19  N   UNK d   1      44.988   5.269  43.565  0.00  0.00    -0.075 NA
ENDBRANCH  11  14
ENDBRANCH   4   8
BRANCH   1  20
ATOM     20  C   UNK d   1      39.370  12.331  45.079  0.00  0.00     0.045 A 
ATOM     21  C   UNK d   1      38.516  11.370  45.575  0.00  0.00     0.031 A 
ATOM     22  C   UNK d   1      37.180  11.635  45.803  0.00  0.00     0.020 A 
ATOM     23  C   UNK d   1      36.651  12.881  45.538  0.00  0.00     0.006 A 
ATOM     24  I   UNK d   1      34.614  13.329  45.871  0.00  0.00    -0.045 I 
ATOM     25  C   UNK d   1      37.490  13.854  45.040  0.00  0.00     0.020 A 
ATOM     26  C   UNK d   1      38.823  13.566  44.821  0.00  0.00     0.031 A 
ENDBRANCH   1  20
TORSDOF 3
ENDMDL
