MODEL 1
REMARK VINA RESULT:    -7.933      0.000      0.000
REMARK INTER + INTRA:          -9.295
REMARK INTER:                  -9.324
REMARK INTRA:                   0.029
REMARK UNBOUND:                 0.029
REMARK  3 active torsions:
REMARK  status: ('A' for Active; 'I' for Inactive)
REMARK    1  A    between atoms: C_6  and  C_7 
REMARK       I    between atoms: C_7  and  N_9 
REMARK    2  A    between atoms: N_9  and  C_10 
REMARK    3  A    between atoms: C_16  and  N_19 
ROOT
ATOM      1  C   UNK d   1      46.642   6.738  43.912  0.00  0.00     0.069 A 
ATOM      2  C   UNK d   1      46.733   5.975  42.744  0.00  0.00     0.146 A 
ATOM      3  N   UNK d   1      46.050   6.031  41.588  0.00  0.00    -0.101 NA
ATOM      4  O   UNK d   1      46.503   5.104  40.796  0.00  0.00    -0.106 OA
ATOM      5  N   UNK d   1      47.453   4.439  41.378  0.00  0.00    -0.101 NA
ATOM      6  C   UNK d   1      47.635   4.952  42.610  0.00  0.00     0.146 A 
ATOM      7  C   UNK d   1      48.488   4.650  43.650  0.00  0.00     0.064 A 
ATOM      8  C   UNK d   1      48.390   5.405  44.791  0.00  0.00     0.034 A 
ATOM      9  C   UNK d   1      47.471   6.452  44.938  0.00  0.00     0.034 A 
ENDROOT
BRANCH   1  10
ATOM     10  N   UNK d   1      45.674   7.769  43.938  0.00  0.00    -0.319 N 
ATOM     11  C   UNK d   1      44.349   7.667  44.341  0.00  0.00     0.278 C 
ATOM     12  O   UNK d   1      43.890   6.541  44.741  0.00  0.00    -0.265 OA
ATOM     13  H   UNK d   1      45.969   8.740  43.604  0.00  0.00     0.169 HD
BRANCH  11  14
ATOM     14  C   UNK d   1      43.383   8.780  44.350  0.00  0.00     0.162 A 
ATOM     15  C   UNK d   1      42.819   9.488  45.354  0.00  0.00     0.059 A 
ATOM     16  I   UNK d   1      43.057   9.243  47.410  0.00  0.00    -0.040 I 
ATOM     17  C   UNK d   1      41.994  10.450  44.770  0.00  0.00     0.132 A 
ATOM     18  N   UNK d   1      42.064  10.316  43.445  0.00  0.00    -0.283 N 
ATOM     19  N   UNK d   1      42.881   9.332  43.193  0.00  0.00    -0.166 NA
ATOM     20  C   UNK d   1      41.335  11.149  42.478  0.00  0.00     0.179 C 
ENDBRANCH  11  14
ENDBRANCH   1  10
BRANCH   7  21
ATOM     21  N   UNK d   1      49.414   3.588  43.492  0.00  0.00    -0.375 N 
ATOM     22  C   UNK d   1      49.203   2.567  42.486  0.00  0.00     0.149 C 
ATOM     23  C   UNK d   1      50.362   1.634  42.491  0.00  0.00     0.187 C 
ATOM     24  O   UNK d   1      51.594   2.258  42.461  0.00  0.00    -0.388 OA
ATOM     25  C   UNK d   1      51.818   3.143  43.467  0.00  0.00     0.187 C 
ATOM     26  C   UNK d   1      50.605   3.454  44.307  0.00  0.00     0.149 C 
ENDBRANCH   7  21
TORSDOF 3
ENDMDL
