MODEL 1
REMARK VINA RESULT:    -6.700      0.000      0.000
REMARK INTER + INTRA:          -9.457
REMARK INTER:                  -8.658
REMARK INTRA:                  -0.799
REMARK UNBOUND:                -0.799
REMARK  6 active torsions:
REMARK  status: ('A' for Active; 'I' for Inactive)
REMARK    1  A    between atoms: N_5  and  C_7 
REMARK    2  A    between atoms: C_9  and  C_13 
REMARK    3  A    between atoms: C_10  and  O_12 
REMARK    4  A    between atoms: C_13  and  O_14 
REMARK    5  A    between atoms: C_18  and  N_19 
REMARK       I    between atoms: N_19  and  C_20 
REMARK    6  A    between atoms: C_20  and  C_22 
ROOT
ATOM      1  I   UNK d   1      43.537  11.066  43.345  0.00  0.00    -0.042 I 
ATOM      2  C   UNK d   1      41.841  11.075  44.597  0.00  0.00     0.040 A 
ATOM      3  C   UNK d   1      41.557  10.175  45.581  0.00  0.00     0.074 A 
ATOM      4  C   UNK d   1      40.342  10.609  46.111  0.00  0.00     0.148 A 
ATOM      5  N   UNK d   1      39.898  11.707  45.498  0.00  0.00    -0.312 N 
ATOM      6  C   UNK d   1      40.810  11.999  44.570  0.00  0.00     0.114 A 
ATOM      7  N   UNK d   1      39.812   9.895  47.119  0.00  0.00    -0.223 NA
ATOM      8  C   UNK d   1      40.431   8.805  47.596  0.00  0.00     0.237 A 
ATOM      9  N   UNK d   1      41.596   8.392  47.086  0.00  0.00    -0.223 NA
ATOM     10  C   UNK d   1      42.206   9.060  46.058  0.00  0.00     0.147 A 
ENDROOT
BRANCH   5  11
ATOM     11  C   UNK d   1      38.701  12.453  45.746  0.00  0.00     0.232 C 
ATOM     12  O   UNK d   1      37.536  11.723  45.547  0.00  0.00    -0.356 OA
ATOM     13  C   UNK d   1      36.547  12.687  45.713  0.00  0.00     0.176 C 
ATOM     14  C   UNK d   1      37.046  13.950  45.050  0.00  0.00     0.153 C 
ATOM     15  C   UNK d   1      38.503  13.587  44.737  0.00  0.00     0.088 C 
BRANCH  13  16
ATOM     16  C   UNK d   1      35.281  12.273  44.950  0.00  0.00     0.198 C 
BRANCH  16  17
ATOM     17  O   UNK d   1      35.464  10.980  44.441  0.00  0.00    -0.398 OA
ATOM     18  H   UNK d   1      36.447  10.761  44.370  0.00  0.00     0.209 HD
ENDBRANCH  16  17
ENDBRANCH  13  16
BRANCH  14  19
ATOM     19  O   UNK d   1      37.097  15.019  45.946  0.00  0.00    -0.393 OA
ATOM     20  H   UNK d   1      38.071  15.125  46.177  0.00  0.00     0.210 HD
ENDBRANCH  14  19
ENDBRANCH   5  11
BRANCH  10  21
ATOM     21  N   UNK d   1      43.446   8.574  45.554  0.00  0.00    -0.306 N 
ATOM     22  C   UNK d   1      43.428   7.500  44.618  0.00  0.00     0.257 C 
ATOM     23  O   UNK d   1      42.305   7.041  44.289  0.00  0.00    -0.267 OA
ATOM     24  H   UNK d   1      44.372   8.930  45.805  0.00  0.00     0.170 HD
BRANCH  22  25
ATOM     25  C   UNK d   1      44.603   6.916  44.032  0.00  0.00     0.032 A 
ATOM     26  C   UNK d   1      44.697   5.567  43.824  0.00  0.00     0.017 A 
ATOM     27  C   UNK d   1      45.830   4.984  43.253  0.00  0.00     0.001 A 
ATOM     28  C   UNK d   1      46.879   5.776  42.888  0.00  0.00     0.000 A 
ATOM     29  C   UNK d   1      46.813   7.131  43.084  0.00  0.00     0.001 A 
ATOM     30  C   UNK d   1      45.668   7.695  43.658  0.00  0.00     0.017 A 
ENDBRANCH  22  25
ENDBRANCH  10  21
TORSDOF 6
ENDMDL
