/Users/jonathanwahrer/Desktop/Msc/3_Semester/Drug_Design_Praktikum/waehrer_HTS_screening/HTS_experiment/out/docking_results/vina_output/2qfa/0956_docked.pdbqt
 OpenBabel03162220113D

 30 33  0  0  1  0  0  0  0  0999 V2000
   43.5370   11.0660   43.3450 I   0  0  0  0  0  0  0  0  0  0  0  0
   41.8410   11.0750   44.5970 C   0  0  0  0  0  0  0  0  0  0  0  0
   41.5570   10.1750   45.5810 C   0  0  0  0  0  0  0  0  0  0  0  0
   40.3420   10.6090   46.1110 C   0  0  0  0  0  0  0  0  0  0  0  0
   39.8980   11.7070   45.4980 N   0  0  0  0  0  0  0  0  0  0  0  0
   40.8100   11.9990   44.5700 C   0  0  0  0  0  3  0  0  0  0  0  0
   39.8120    9.8950   47.1190 N   0  0  0  0  0  0  0  0  0  0  0  0
   40.4310    8.8050   47.5960 C   0  0  0  0  0  3  0  0  0  0  0  0
   41.5960    8.3920   47.0860 N   0  0  0  0  0  0  0  0  0  0  0  0
   42.2060    9.0600   46.0580 C   0  0  0  0  0  0  0  0  0  0  0  0
   38.7010   12.4530   45.7460 C   0  0  2  0  0  3  0  0  0  0  0  0
   37.5360   11.7230   45.5470 O   0  0  0  0  0  0  0  0  0  0  0  0
   36.5470   12.6870   45.7130 C   0  0  1  0  0  3  0  0  0  0  0  0
   37.0460   13.9500   45.0500 C   0  0  2  0  0  3  0  0  0  0  0  0
   38.5030   13.5870   44.7370 C   0  0  0  0  0  2  0  0  0  0  0  0
   35.2810   12.2730   44.9500 C   0  0  0  0  0  2  0  0  0  0  0  0
   35.4640   10.9800   44.4410 O   0  0  0  0  0  0  0  0  0  0  0  0
   36.4470   10.7610   44.3700 H   0  0  0  0  0  0  0  0  0  0  0  0
   37.0970   15.0190   45.9460 O   0  0  0  0  0  0  0  0  0  0  0  0
   38.0710   15.1250   46.1770 H   0  0  0  0  0  0  0  0  0  0  0  0
   43.4460    8.5740   45.5540 N   0  0  0  0  0  0  0  0  0  0  0  0
   43.4280    7.5000   44.6180 C   0  0  0  0  0  0  0  0  0  0  0  0
   42.3050    7.0410   44.2890 O   0  0  0  0  0  0  0  0  0  0  0  0
   44.3720    8.9300   45.8050 H   0  0  0  0  0  0  0  0  0  0  0  0
   44.6030    6.9160   44.0320 C   0  0  0  0  0  0  0  0  0  0  0  0
   44.6970    5.5670   43.8240 C   0  0  0  0  0  3  0  0  0  0  0  0
   45.8300    4.9840   43.2530 C   0  0  0  0  0  3  0  0  0  0  0  0
   46.8790    5.7760   42.8880 C   0  0  0  0  0  3  0  0  0  0  0  0
   46.8130    7.1310   43.0840 C   0  0  0  0  0  3  0  0  0  0  0  0
   45.6680    7.6950   43.6580 C   0  0  0  0  0  3  0  0  0  0  0  0
  1  2  1  0  0  0  0
  2  3  1  0  0  0  0
  3 10  2  0  0  0  0
  3  4  1  0  0  0  0
  4  7  2  0  0  0  0
  5 11  1  0  0  0  0
  5  4  1  0  0  0  0
  6  2  2  0  0  0  0
  6  5  1  0  0  0  0
  7  8  1  0  0  0  0
  9  8  2  0  0  0  0
 10  9  1  0  0  0  0
 11 15  1  6  0  0  0
 12 13  1  0  0  0  0
 12 11  1  0  0  0  0
 13 16  1  6  0  0  0
 14 13  1  0  0  0  0
 14 19  1  1  0  0  0
 15 14  1  0  0  0  0
 17 16  1  0  0  0  0
 18 17  1  0  0  0  0
 19 20  1  0  0  0  0
 21 24  1  0  0  0  0
 21 10  1  0  0  0  0
 22 21  1  0  0  0  0
 23 22  2  0  0  0  0
 25 22  1  0  0  0  0
 26 25  1  0  0  0  0
 27 26  2  0  0  0  0
 28 29  2  0  0  0  0
 28 27  1  0  0  0  0
 29 30  1  0  0  0  0
 30 25  2  0  0  0  0
M  END
>  <Pose>
1

>  <Score>
-6.700

$$$$
