/Users/jonathanwahrer/Desktop/Msc/3_Semester/Drug_Design_Praktikum/waehrer_HTS_screening/HTS_experiment/out/docking_results/vina_output/2qfa/0961_docked.pdbqt
 OpenBabel03162220123D

 29 33  0  0  1  0  0  0  0  0999 V2000
   42.2860   12.6890   48.0210 C   0  0  1  0  0  3  0  0  0  0  0  0
   41.4520   12.7700   49.0300 N   0  0  0  0  0  0  0  0  0  0  0  0
   41.4490   13.8820   49.8260 C   0  0  0  0  0  3  0  0  0  0  0  0
   42.2740   14.9480   49.6400 C   0  0  0  0  0  3  0  0  0  0  0  0
   43.1630   14.9010   48.5880 C   0  0  0  0  0  0  0  0  0  0  0  0
   44.1240   15.7590   48.1000 N   0  0  0  0  0  0  0  0  0  0  0  0
   44.7070   15.2120   47.0460 C   0  0  0  0  0  0  0  0  0  0  0  0
   44.1060   14.0030   46.8720 N   0  0  0  0  0  0  0  0  0  0  0  0
   43.1630   13.7890   47.7970 C   0  0  0  0  0  0  0  0  0  0  0  0
   44.3380   17.0340   48.7240 C   0  0  0  0  0  1  0  0  0  0  0  0
   40.4720   11.7590   49.2990 C   0  0  0  0  0  1  0  0  0  0  0  0
   42.4890   11.5480   47.1480 C   0  0  0  0  0  3  0  0  0  0  0  0
   42.2370   11.3570   45.9010 C   0  0  0  0  0  3  0  0  0  0  0  0
   42.4470   10.2250   45.0280 C   0  0  0  0  0  0  0  0  0  0  0  0
   42.0280   10.0990   43.7450 C   0  0  0  0  0  0  0  0  0  0  0  0
   40.9190   11.4320   42.9530 Br  0  0  0  0  0  0  0  0  0  0  0  0
   42.3470    8.9660   42.9560 C   0  0  0  0  0  3  0  0  0  0  0  0
   43.0990    7.9460   43.4720 C   0  0  0  0  0  0  0  0  0  0  0  0
   43.5380    8.0450   44.7750 C   0  0  0  0  0  0  0  0  0  0  0  0
   43.5770    6.7270   42.9800 O   0  0  0  0  0  0  0  0  0  0  0  0
   43.2220    9.1500   45.5320 C   0  0  0  0  0  3  0  0  0  0  0  0
   44.2750    6.8810   45.0510 O   0  0  0  0  0  0  0  0  0  0  0  0
   44.6920    6.3760   43.8000 C   0  0  0  0  0  2  0  0  0  0  0  0
   45.7660   15.7500   46.1850 C   0  0  0  0  0  0  0  0  0  0  0  0
   46.3910   16.9400   46.3630 C   0  0  0  0  0  3  0  0  0  0  0  0
   47.3760   17.3660   45.4520 C   0  0  0  0  0  3  0  0  0  0  0  0
   47.7120   16.5790   44.3750 C   0  0  0  0  0  3  0  0  0  0  0  0
   47.0890   15.3550   44.1710 C   0  0  0  0  0  3  0  0  0  0  0  0
   46.1460   14.9830   45.0720 C   0  0  0  0  0  3  0  0  0  0  0  0
  1 12  1  1  0  0  0
  1  2  1  0  0  0  0
  2 11  1  0  0  0  0
  2  3  1  0  0  0  0
  4  3  2  0  0  0  0
  5  4  1  0  0  0  0
  6  5  1  0  0  0  0
  6 10  1  0  0  0  0
  7  6  1  0  0  0  0
  8  7  2  0  0  0  0
  8  9  1  0  0  0  0
  9  1  1  0  0  0  0
  9  5  2  0  0  0  0
 13 12  2  0  0  0  0
 14 21  1  0  0  0  0
 14 13  1  0  0  0  0
 15 14  2  0  0  0  0
 16 15  1  0  0  0  0
 17 18  2  0  0  0  0
 17 15  1  0  0  0  0
 18 19  1  0  0  0  0
 19 22  1  0  0  0  0
 19 21  2  0  0  0  0
 20 18  1  0  0  0  0
 20 23  1  0  0  0  0
 23 22  1  0  0  0  0
 24 25  1  0  0  0  0
 24  7  1  0  0  0  0
 26 25  2  0  0  0  0
 27 26  1  0  0  0  0
 28 27  2  0  0  0  0
 28 29  1  0  0  0  0
 29 24  2  0  0  0  0
M  END
>  <Pose>
1

>  <Score>
-7.315

$$$$
