MODEL 1
REMARK VINA RESULT:    -7.315      0.000      0.000
REMARK INTER + INTRA:          -8.907
REMARK INTER:                  -8.598
REMARK INTRA:                  -0.309
REMARK UNBOUND:                -0.309
REMARK  3 active torsions:
REMARK  status: ('A' for Active; 'I' for Inactive)
REMARK    1  A    between atoms: C_7  and  C_8 
REMARK    2  A    between atoms: C_9  and  C_10 
REMARK    3  A    between atoms: C_16  and  C_19 
ROOT
ATOM      1  C   UNK d   1      42.286  12.689  48.021  0.00  0.00     0.065 A 
ATOM      2  N   UNK d   1      41.452  12.770  49.030  0.00  0.00    -0.359 N 
ATOM      3  C   UNK d   1      41.449  13.882  49.826  0.00  0.00     0.093 A 
ATOM      4  C   UNK d   1      42.274  14.948  49.640  0.00  0.00     0.049 A 
ATOM      5  C   UNK d   1      43.163  14.901  48.588  0.00  0.00     0.068 A 
ATOM      6  N   UNK d   1      44.124  15.759  48.100  0.00  0.00    -0.333 N 
ATOM      7  C   UNK d   1      44.707  15.212  47.046  0.00  0.00     0.141 A 
ATOM      8  N   UNK d   1      44.106  14.003  46.872  0.00  0.00    -0.226 NA
ATOM      9  C   UNK d   1      43.163  13.789  47.797  0.00  0.00     0.113 A 
ATOM     10  C   UNK d   1      44.338  17.034  48.724  0.00  0.00     0.158 C 
ATOM     11  C   UNK d   1      40.472  11.759  49.299  0.00  0.00     0.156 C 
ENDROOT
BRANCH   1  12
ATOM     12  C   UNK d   1      42.489  11.548  47.148  0.00  0.00     0.033 C 
ATOM     13  C   UNK d   1      42.237  11.357  45.901  0.00  0.00     0.015 C 
BRANCH  13  14
ATOM     14  C   UNK d   1      42.447  10.225  45.028  0.00  0.00    -0.016 A 
ATOM     15  C   UNK d   1      42.028  10.099  43.745  0.00  0.00     0.024 A 
ATOM     16 Br   UNK d   1      40.919  11.432  42.953  0.00  0.00    -0.050 Br
ATOM     17  C   UNK d   1      42.347   8.966  42.956  0.00  0.00     0.059 A 
ATOM     18  C   UNK d   1      43.099   7.946  43.472  0.00  0.00     0.106 A 
ATOM     19  C   UNK d   1      43.538   8.045  44.775  0.00  0.00     0.105 A 
ATOM     20  O   UNK d   1      43.577   6.727  42.980  0.00  0.00    -0.323 OA
ATOM     21  C   UNK d   1      43.222   9.150  45.532  0.00  0.00     0.052 A 
ATOM     22  O   UNK d   1      44.275   6.881  45.051  0.00  0.00    -0.323 OA
ATOM     23  C   UNK d   1      44.692   6.376  43.800  0.00  0.00     0.352 C 
ENDBRANCH  13  14
ENDBRANCH   1  12
BRANCH   7  24
ATOM     24  C   UNK d   1      45.766  15.750  46.185  0.00  0.00     0.010 A 
ATOM     25  C   UNK d   1      46.391  16.940  46.363  0.00  0.00     0.015 A 
ATOM     26  C   UNK d   1      47.376  17.366  45.452  0.00  0.00     0.001 A 
ATOM     27  C   UNK d   1      47.712  16.579  44.375  0.00  0.00     0.000 A 
ATOM     28  C   UNK d   1      47.089  15.355  44.171  0.00  0.00     0.001 A 
ATOM     29  C   UNK d   1      46.146  14.983  45.072  0.00  0.00     0.015 A 
ENDBRANCH   7  24
TORSDOF 3
ENDMDL
