MODEL 1
REMARK VINA RESULT:    -6.834      0.000      0.000
REMARK INTER + INTRA:          -8.583
REMARK INTER:                  -7.633
REMARK INTRA:                  -0.950
REMARK UNBOUND:                -0.950
REMARK  2 active torsions:
REMARK  status: ('A' for Active; 'I' for Inactive)
REMARK    1  A    between atoms: C_10  and  C_21 
REMARK    2  A    between atoms: C_26  and  C_27 
ROOT
ATOM      1 Br   UNK d   1      37.249  15.221  48.787  0.00  0.00    -0.045 Br
ATOM      2  C   UNK d   1      37.801  13.897  47.539  0.00  0.00     0.083 A 
ATOM      3  C   UNK d   1      39.102  13.802  47.052  0.00  0.00     0.107 A 
ATOM      4  C   UNK d   1      39.454  12.818  46.142  0.00  0.00     0.013 A 
ATOM      5  C   UNK d   1      38.510  11.913  45.703  0.00  0.00     0.037 A 
ATOM      6  C   UNK d   1      37.230  12.000  46.176  0.00  0.00     0.049 A 
ATOM      7  C   UNK d   1      36.889  12.976  47.077  0.00  0.00     0.144 A 
ATOM      8  O   UNK d   1      35.553  13.001  47.520  0.00  0.00    -0.189 OA
ATOM      9 Br   UNK d   1      35.968  10.707  45.526  0.00  0.00    -0.048 Br
ATOM     10  C   UNK d   1      40.734  12.702  45.644  0.00  0.00     0.003 A 
ATOM     11  C   UNK d   1      41.671  13.610  46.089  0.00  0.00     0.013 A 
ATOM     12  C   UNK d   1      41.210  14.617  47.052  0.00  0.00     0.108 A 
ATOM     13  C   UNK d   1      42.170  15.530  47.491  0.00  0.00     0.097 A 
ATOM     14  C   UNK d   1      43.464  15.463  47.030  0.00  0.00     0.209 A 
ATOM     15  O   UNK d   1      44.295  16.306  47.455  0.00  0.00    -0.285 OA
ATOM     16  C   UNK d   1      43.870  14.496  46.117  0.00  0.00     0.063 A 
ATOM     17  C   UNK d   1      42.984  13.572  45.646  0.00  0.00     0.038 A 
ATOM     18 Br   UNK d   1      45.689  14.476  45.530  0.00  0.00    -0.047 Br
ATOM     19 Br   UNK d   1      41.636  16.879  48.752  0.00  0.00    -0.044 Br
ATOM     20  O   UNK d   1      39.974  14.674  47.487  0.00  0.00    -0.306 OA
ENDROOT
BRANCH  10  21
ATOM     21  C   UNK d   1      41.101  11.667  44.676  0.00  0.00     0.016 A 
ATOM     22  C   UNK d   1      40.879  11.855  43.325  0.00  0.00     0.046 A 
ATOM     23  C   UNK d   1      41.211  10.894  42.394  0.00  0.00     0.026 A 
ATOM     24 Cl   UNK d   1      40.149  13.371  42.783  0.00  0.00    -0.083 Cl
ATOM     25  C   UNK d   1      41.780   9.717  42.836  0.00  0.00     0.026 A 
ATOM     26  C   UNK d   1      42.017   9.491  44.157  0.00  0.00     0.052 A 
ATOM     27  C   UNK d   1      41.678  10.462  45.073  0.00  0.00     0.075 A 
ATOM     28 Cl   UNK d   1      42.747   7.966  44.632  0.00  0.00    -0.083 Cl
BRANCH  27  29
ATOM     29  C   UNK d   1      41.921  10.228  46.476  0.00  0.00     0.212 C 
ATOM     30  O   UNK d   1      43.044  10.438  47.011  0.00  0.00    -0.644 OA
ATOM     31  O   UNK d   1      40.901   9.754  47.298  0.00  0.00    -0.644 OA
ENDBRANCH  27  29
ENDBRANCH  10  21
TORSDOF 2
ENDMDL
