MODEL 1
REMARK VINA RESULT:    -6.990      0.000      0.000
REMARK INTER + INTRA:          -6.990
REMARK INTER:                  -6.990
REMARK INTRA:                   0.000
REMARK UNBOUND:                 0.000
REMARK  0 active torsions:
REMARK  status: ('A' for Active; 'I' for Inactive)
ROOT
ATOM      1 Br   UNK d   1      40.980  13.970  51.122  0.00  0.00    -0.045 Br
ATOM      2  C   UNK d   1      40.889  12.729  49.676  0.00  0.00     0.083 A 
ATOM      3  C   UNK d   1      41.745  12.832  48.565  0.00  0.00     0.106 A 
ATOM      4  C   UNK d   1      41.712  11.966  47.512  0.00  0.00     0.023 A 
ATOM      5  C   UNK d   1      40.775  10.932  47.557  0.00  0.00     0.036 A 
ATOM      6  C   UNK d   1      39.944  10.832  48.634  0.00  0.00     0.049 A 
ATOM      7  C   UNK d   1      39.974  11.704  49.703  0.00  0.00     0.144 A 
ATOM      8  O   UNK d   1      39.087  11.539  50.780  0.00  0.00    -0.189 OA
ATOM      9 Br   UNK d   1      38.661   9.421  48.704  0.00  0.00    -0.048 Br
ATOM     10  C   UNK d   1      42.613  12.099  46.375  0.00  0.00     0.159 A 
ATOM     11  O   UNK d   1      43.421  10.924  46.356  0.00  0.00    -0.291 OA
ATOM     12  C   UNK d   1      43.262  10.208  45.201  0.00  0.00     0.295 A 
ATOM     13  O   UNK d   1      43.848   9.138  44.920  0.00  0.00    -0.259 OA
ATOM     14  C   UNK d   1      42.297  10.944  44.406  0.00  0.00     0.049 A 
ATOM     15  C   UNK d   1      41.887  12.077  45.072  0.00  0.00     0.003 A 
ATOM     16  C   UNK d   1      40.981  12.883  44.466  0.00  0.00     0.012 A 
ATOM     17  C   UNK d   1      40.496  12.559  43.217  0.00  0.00     0.001 A 
ATOM     18  C   UNK d   1      40.904  11.425  42.547  0.00  0.00     0.001 A 
ATOM     19  C   UNK d   1      41.820  10.600  43.145  0.00  0.00     0.018 A 
ATOM     20  C   UNK d   1      43.530  13.229  46.479  0.00  0.00     0.023 A 
ATOM     21  C   UNK d   1      43.516  14.064  47.562  0.00  0.00     0.106 A 
ATOM     22  C   UNK d   1      44.410  15.151  47.646  0.00  0.00     0.083 A 
ATOM     23  C   UNK d   1      45.299  15.358  46.618  0.00  0.00     0.144 A 
ATOM     24  C   UNK d   1      45.320  14.515  45.516  0.00  0.00     0.049 A 
ATOM     25  C   UNK d   1      44.450  13.464  45.441  0.00  0.00     0.036 A 
ATOM     26 Br   UNK d   1      46.547  14.789  44.084  0.00  0.00    -0.048 Br
ATOM     27  O   UNK d   1      46.173  16.430  46.713  0.00  0.00    -0.189 OA
ATOM     28 Br   UNK d   1      44.359  16.297  49.177  0.00  0.00    -0.045 Br
ATOM     29  O   UNK d   1      42.641  13.903  48.627  0.00  0.00    -0.306 OA
ENDROOT
TORSDOF 0
ENDMDL
