MODEL 1
REMARK VINA RESULT:    -7.188      0.000      0.000
REMARK INTER + INTRA:          -7.188
REMARK INTER:                  -7.188
REMARK INTRA:                   0.000
REMARK UNBOUND:                 0.000
REMARK  0 active torsions:
REMARK  status: ('A' for Active; 'I' for Inactive)
ROOT
ATOM      1  I   UNK d   1      37.237  15.469  48.964  0.00  0.00    -0.038 I 
ATOM      2  C   UNK d   1      37.606  14.014  47.478  0.00  0.00     0.078 A 
ATOM      3  C   UNK d   1      38.911  13.904  47.007  0.00  0.00     0.105 A 
ATOM      4  C   UNK d   1      39.178  12.978  46.052  0.00  0.00     0.023 A 
ATOM      5  C   UNK d   1      38.140  12.173  45.576  0.00  0.00     0.035 A 
ATOM      6  C   UNK d   1      36.846  12.275  46.036  0.00  0.00     0.045 A 
ATOM      7  C   UNK d   1      36.582  13.219  47.008  0.00  0.00     0.143 A 
ATOM      8  O   UNK d   1      35.285  13.339  47.486  0.00  0.00    -0.189 OA
ATOM      9  I   UNK d   1      35.306  11.028  45.281  0.00  0.00    -0.042 I 
ATOM     10  C   UNK d   1      40.502  12.780  45.492  0.00  0.00     0.161 A 
ATOM     11  O   UNK d   1      40.507  12.995  44.073  0.00  0.00    -0.291 OA
ATOM     12  C   UNK d   1      40.943  11.894  43.385  0.00  0.00     0.297 A 
ATOM     13  O   UNK d   1      41.077  11.721  42.139  0.00  0.00    -0.259 OA
ATOM     14  C   UNK d   1      41.247  10.882  44.386  0.00  0.00     0.074 A 
ATOM     15  C   UNK d   1      40.990  11.397  45.620  0.00  0.00     0.028 A 
ATOM     16  C   UNK d   1      41.200  10.627  46.764  0.00  0.00     0.068 A 
ATOM     17  C   UNK d   1      41.670   9.334  46.674  0.00  0.00     0.080 A 
ATOM     18  C   UNK d   1      41.931   8.809  45.412  0.00  0.00     0.080 A 
ATOM     19  C   UNK d   1      41.727   9.564  44.285  0.00  0.00     0.074 A 
ATOM     20 Cl   UNK d   1      42.055   8.900  42.730  0.00  0.00    -0.081 Cl
ATOM     21 Cl   UNK d   1      42.527   7.183  45.230  0.00  0.00    -0.081 Cl
ATOM     22 Cl   UNK d   1      41.922   8.397  48.129  0.00  0.00    -0.081 Cl
ATOM     23 Cl   UNK d   1      40.854  11.345  48.302  0.00  0.00    -0.082 Cl
ATOM     24  C   UNK d   1      41.505  13.703  46.089  0.00  0.00     0.023 A 
ATOM     25  C   UNK d   1      41.203  14.616  47.041  0.00  0.00     0.105 A 
ATOM     26  C   UNK d   1      42.239  15.419  47.514  0.00  0.00     0.078 A 
ATOM     27  C   UNK d   1      43.533  15.317  47.056  0.00  0.00     0.143 A 
ATOM     28  C   UNK d   1      43.804  14.375  46.084  0.00  0.00     0.045 A 
ATOM     29  C   UNK d   1      42.809  13.569  45.595  0.00  0.00     0.035 A 
ATOM     30  I   UNK d   1      45.774  14.195  45.361  0.00  0.00    -0.042 I 
ATOM     31  O   UNK d   1      44.552  16.107  47.521  0.00  0.00    -0.189 OA
ATOM     32  I   UNK d   1      41.784  16.838  48.992  0.00  0.00    -0.038 I 
ATOM     33  O   UNK d   1      39.914  14.746  47.526  0.00  0.00    -0.307 OA
ENDROOT
TORSDOF 0
ENDMDL
