MODEL 1
REMARK VINA RESULT:    -6.251      0.000      0.000
REMARK INTER + INTRA:          -6.251
REMARK INTER:                  -6.251
REMARK INTRA:                   0.000
REMARK UNBOUND:                 0.000
REMARK  0 active torsions:
REMARK  status: ('A' for Active; 'I' for Inactive)
ROOT
ATOM      1  I   UNK d   1      43.856  17.322  49.317  0.00  0.00    -0.038 I 
ATOM      2  C   UNK d   1      44.116  15.856  47.810  0.00  0.00     0.078 A 
ATOM      3  C   UNK d   1      43.212  14.780  47.828  0.00  0.00     0.105 A 
ATOM      4  C   UNK d   1      43.357  13.826  46.872  0.00  0.00     0.023 A 
ATOM      5  C   UNK d   1      44.388  13.955  45.923  0.00  0.00     0.035 A 
ATOM      6  C   UNK d   1      45.268  15.005  45.907  0.00  0.00     0.045 A 
ATOM      7  C   UNK d   1      45.119  15.973  46.876  0.00  0.00     0.143 A 
ATOM      8  O   UNK d   1      45.993  17.050  46.889  0.00  0.00    -0.189 OA
ATOM      9  I   UNK d   1      46.798  15.138  44.446  0.00  0.00    -0.042 I 
ATOM     10  C   UNK d   1      42.464  12.663  46.807  0.00  0.00     0.159 A 
ATOM     11  O   UNK d   1      43.185  11.447  46.783  0.00  0.00    -0.291 OA
ATOM     12  C   UNK d   1      42.952  10.722  45.645  0.00  0.00     0.295 A 
ATOM     13  O   UNK d   1      43.427   9.605  45.307  0.00  0.00    -0.259 OA
ATOM     14  C   UNK d   1      42.012  11.486  44.836  0.00  0.00     0.049 A 
ATOM     15  C   UNK d   1      41.721  12.628  45.509  0.00  0.00     0.003 A 
ATOM     16  C   UNK d   1      40.828  13.534  44.924  0.00  0.00     0.012 A 
ATOM     17  C   UNK d   1      40.269  13.261  43.697  0.00  0.00     0.001 A 
ATOM     18  C   UNK d   1      40.565  12.102  43.011  0.00  0.00     0.001 A 
ATOM     19  C   UNK d   1      41.439  11.206  43.576  0.00  0.00     0.018 A 
ATOM     20  C   UNK d   1      41.435  12.660  47.861  0.00  0.00     0.023 A 
ATOM     21  C   UNK d   1      41.342  13.642  48.787  0.00  0.00     0.105 A 
ATOM     22  C   UNK d   1      40.345  13.573  49.755  0.00  0.00     0.078 A 
ATOM     23  C   UNK d   1      39.464  12.528  49.776  0.00  0.00     0.143 A 
ATOM     24  C   UNK d   1      39.529  11.513  48.850  0.00  0.00     0.045 A 
ATOM     25  C   UNK d   1      40.518  11.603  47.910  0.00  0.00     0.035 A 
ATOM     26  I   UNK d   1      38.164   9.899  48.889  0.00  0.00    -0.042 I 
ATOM     27  O   UNK d   1      38.477  12.485  50.753  0.00  0.00    -0.189 OA
ATOM     28  I   UNK d   1      40.205  15.120  51.206  0.00  0.00    -0.038 I 
ATOM     29  O   UNK d   1      42.220  14.737  48.812  0.00  0.00    -0.307 OA
ENDROOT
TORSDOF 0
ENDMDL
