/Users/jonathanwahrer/Desktop/Msc/3_Semester/Drug_Design_Praktikum/waehrer_HTS_screening/HTS_experiment/out/docking_results/vina_output/2qfa/0979_docked.pdbqt
 OpenBabel03162220123D

 29 33  0  0  1  0  0  0  0  0999 V2000
   43.8560   17.3220   49.3170 I   0  0  0  0  0  0  0  0  0  0  0  0
   44.1160   15.8560   47.8100 C   0  0  0  0  0  0  0  0  0  0  0  0
   43.2120   14.7800   47.8280 C   0  0  0  0  0  0  0  0  0  0  0  0
   43.3570   13.8260   46.8720 C   0  0  0  0  0  0  0  0  0  0  0  0
   44.3880   13.9550   45.9230 C   0  0  0  0  0  3  0  0  0  0  0  0
   45.2680   15.0050   45.9070 C   0  0  0  0  0  0  0  0  0  0  0  0
   45.1190   15.9730   46.8760 C   0  0  0  0  0  0  0  0  0  0  0  0
   45.9930   17.0500   46.8890 O   0  0  0  0  0  1  0  0  0  0  0  0
   46.7980   15.1380   44.4460 I   0  0  0  0  0  0  0  0  0  0  0  0
   42.4640   12.6630   46.8070 C   0  0  2  0  0  0  0  0  0  0  0  0
   43.1850   11.4470   46.7830 O   0  0  0  0  0  0  0  0  0  0  0  0
   42.9520   10.7220   45.6450 C   0  0  0  0  0  0  0  0  0  0  0  0
   43.4270    9.6050   45.3070 O   0  0  0  0  0  0  0  0  0  0  0  0
   42.0120   11.4860   44.8360 C   0  0  0  0  0  0  0  0  0  0  0  0
   41.7210   12.6280   45.5090 C   0  0  0  0  0  0  0  0  0  0  0  0
   40.8280   13.5340   44.9240 C   0  0  0  0  0  3  0  0  0  0  0  0
   40.2690   13.2610   43.6970 C   0  0  0  0  0  3  0  0  0  0  0  0
   40.5650   12.1020   43.0110 C   0  0  0  0  0  3  0  0  0  0  0  0
   41.4390   11.2060   43.5760 C   0  0  0  0  0  3  0  0  0  0  0  0
   41.4350   12.6600   47.8610 C   0  0  0  0  0  0  0  0  0  0  0  0
   41.3420   13.6420   48.7870 C   0  0  0  0  0  0  0  0  0  0  0  0
   40.3450   13.5730   49.7550 C   0  0  0  0  0  0  0  0  0  0  0  0
   39.4640   12.5280   49.7760 C   0  0  0  0  0  0  0  0  0  0  0  0
   39.5290   11.5130   48.8500 C   0  0  0  0  0  0  0  0  0  0  0  0
   40.5180   11.6030   47.9100 C   0  0  0  0  0  3  0  0  0  0  0  0
   38.1640    9.8990   48.8890 I   0  0  0  0  0  0  0  0  0  0  0  0
   38.4770   12.4850   50.7530 O   0  0  0  0  0  1  0  0  0  0  0  0
   40.2050   15.1200   51.2060 I   0  0  0  0  0  0  0  0  0  0  0  0
   42.2200   14.7370   48.8120 O   0  0  0  0  0  0  0  0  0  0  0  0
  2  3  1  0  0  0  0
  2  1  1  0  0  0  0
  3 29  1  0  0  0  0
  4  3  2  0  0  0  0
  5  4  1  0  0  0  0
  6  5  2  0  0  0  0
  6  7  1  0  0  0  0
  7  8  1  0  0  0  0
  7  2  2  0  0  0  0
  9  6  1  0  0  0  0
 10 15  1  6  0  0  0
 10  4  1  0  0  0  0
 10 20  1  0  0  0  0
 11 10  1  0  0  0  0
 12 11  1  0  0  0  0
 13 12  2  0  0  0  0
 14 15  1  0  0  0  0
 14 12  1  0  0  0  0
 16 15  2  0  0  0  0
 17 16  1  0  0  0  0
 18 19  1  0  0  0  0
 18 17  2  0  0  0  0
 19 14  2  0  0  0  0
 20 25  2  0  0  0  0
 20 21  1  0  0  0  0
 21 29  1  0  0  0  0
 21 22  2  0  0  0  0
 22 23  1  0  0  0  0
 22 28  1  0  0  0  0
 23 27  1  0  0  0  0
 24 26  1  0  0  0  0
 24 23  2  0  0  0  0
 25 24  1  0  0  0  0
M  END
>  <Pose>
1

>  <Score>
-6.251

$$$$
