MODEL 1
REMARK VINA RESULT:    -6.833      0.000      0.000
REMARK INTER + INTRA:          -8.418
REMARK INTER:                  -7.631
REMARK INTRA:                  -0.787
REMARK UNBOUND:                -0.787
REMARK  2 active torsions:
REMARK  status: ('A' for Active; 'I' for Inactive)
REMARK    1  A    between atoms: C_9  and  C_19 
REMARK    2  A    between atoms: C_20  and  C_25 
ROOT
ATOM      1  I   UNK d   1      42.555  16.212  47.452  0.00  0.00    -0.038 I 
ATOM      2  C   UNK d   1      43.012  14.454  46.385  0.00  0.00     0.077 A 
ATOM      3  C   UNK d   1      42.076  13.468  46.140  0.00  0.00     0.106 A 
ATOM      4  C   UNK d   1      42.371  12.316  45.443  0.00  0.00     0.011 A 
ATOM      5  C   UNK d   1      43.665  12.165  44.979  0.00  0.00     0.018 A 
ATOM      6  C   UNK d   1      44.612  13.149  45.220  0.00  0.00     0.042 A 
ATOM      7  C   UNK d   1      44.306  14.306  45.925  0.00  0.00     0.126 A 
ATOM      8  O   UNK d   1      45.295  15.263  46.138  0.00  0.00    -0.191 OA
ATOM      9  C   UNK d   1      41.450  11.321  45.188  0.00  0.00     0.001 A 
ATOM     10  C   UNK d   1      40.169  11.542  45.685  0.00  0.00     0.011 A 
ATOM     11  C   UNK d   1      39.896  12.774  46.419  0.00  0.00     0.107 A 
ATOM     12  C   UNK d   1      38.608  12.936  46.885  0.00  0.00     0.091 A 
ATOM     13  C   UNK d   1      37.614  12.002  46.684  0.00  0.00     0.191 A 
ATOM     14  O   UNK d   1      36.437  12.169  47.121  0.00  0.00    -0.287 OA
ATOM     15  C   UNK d   1      37.872  10.836  45.990  0.00  0.00     0.057 A 
ATOM     16  C   UNK d   1      39.152  10.644  45.510  0.00  0.00     0.019 A 
ATOM     17  I   UNK d   1      38.119  14.679  47.953  0.00  0.00    -0.037 I 
ATOM     18  O   UNK d   1      40.861  13.644  46.593  0.00  0.00    -0.306 OA
ENDROOT
BRANCH   9  19
ATOM     19  C   UNK d   1      41.758  10.101  44.450  0.00  0.00    -0.007 A 
ATOM     20  C   UNK d   1      42.210   8.994  45.162  0.00  0.00     0.051 A 
ATOM     21  C   UNK d   1      42.511   7.826  44.513  0.00  0.00     0.019 A 
ATOM     22  C   UNK d   1      42.367   7.750  43.145  0.00  0.00     0.001 A 
ATOM     23  C   UNK d   1      41.921   8.831  42.418  0.00  0.00     0.001 A 
ATOM     24  C   UNK d   1      41.623   9.995  43.091  0.00  0.00     0.013 A 
BRANCH  20  25
ATOM     25  C   UNK d   1      42.367   9.062  46.612  0.00  0.00     0.210 C 
ATOM     26  O   UNK d   1      43.425   9.438  47.163  0.00  0.00    -0.644 OA
ATOM     27  O   UNK d   1      41.323   8.702  47.452  0.00  0.00    -0.644 OA
ENDBRANCH  20  25
ENDBRANCH   9  19
TORSDOF 2
ENDMDL
