/Users/jonathanwahrer/Desktop/Msc/3_Semester/Drug_Design_Praktikum/waehrer_HTS_screening/HTS_experiment/out/docking_results/vina_output/2qfa/0983_docked.pdbqt
 OpenBabel03162220133D

 34 37  0  0  0  0  0  0  0  0999 V2000
   38.4920   10.7460   47.3200 C   0  0  0  0  0  0  0  0  0  0  0  0
   37.6020   10.6500   48.3980 C   0  0  0  0  0  0  0  0  0  0  0  0
   38.0080    9.5300   49.0890 C   0  0  0  0  0  0  0  0  0  0  0  0
   39.0670    9.0000   48.4610 N   0  0  0  0  0  0  0  0  0  0  0  0
   39.4060    9.7260   47.3520 C   0  0  0  0  0  0  0  0  0  0  0  0
   37.3050    9.1650   50.2350 C   0  0  0  0  0  0  0  0  0  0  0  0
   36.2410    9.9220   50.6410 C   0  0  0  0  0  3  0  0  0  0  0  0
   35.8250   11.0590   49.9430 C   0  0  0  0  0  0  0  0  0  0  0  0
   36.5330   11.4230   48.7930 C   0  0  0  0  0  3  0  0  0  0  0  0
   34.3380   12.0670   50.5590 Br  0  0  0  0  0  0  0  0  0  0  0  0
   37.8400    7.6290   51.2060 Br  0  0  0  0  0  0  0  0  0  0  0  0
   39.5880    8.1310   48.7680 H   0  0  0  0  0  0  0  0  0  0  0  0
   40.5340    9.4420   46.4730 C   0  0  0  0  0  0  0  0  0  0  0  0
   40.6900   10.0370   45.2580 N   0  0  0  0  0  0  0  0  0  0  0  0
   41.7980    9.5890   44.6480 C   0  0  0  0  0  0  0  0  0  0  0  0
   40.0560   10.7470   44.8310 H   0  0  0  0  0  0  0  0  0  0  0  0
   42.4140    8.6650   45.4630 C   0  0  0  0  0  0  0  0  0  0  0  0
   42.4080    9.8570   43.4310 C   0  0  0  0  0  0  0  0  0  0  0  0
   41.5930    8.5980   46.5950 C   0  0  0  0  0  0  0  0  0  0  0  0
   43.5830    8.0280   45.1010 C   0  0  0  0  0  3  0  0  0  0  0  0
   44.1850    8.3030   43.8830 C   0  0  0  0  0  0  0  0  0  0  0  0
   43.5770    9.2300   43.0520 C   0  0  0  0  0  3  0  0  0  0  0  0
   45.8090    7.4300   43.3590 Br  0  0  0  0  0  0  0  0  0  0  0  0
   41.6250   11.1230   42.2390 Br  0  0  0  0  0  0  0  0  0  0  0  0
   41.8720    7.7630   47.6610 O   0  0  0  0  0  0  0  0  0  0  0  0
   42.6460    8.3160   49.0760 S   0  0  0  0  0  0  0  0  0  0  0  0
   41.8260    9.3710   49.7590 O   0  0  0  0  0  1  0  0  0  0  0  0
   43.9900    8.9160   48.7760 O   0  0  0  0  0  1  0  0  0  0  0  0
   42.9350    7.0010   50.1110 O   0  0  0  0  0  1  0  0  0  0  0  0
   38.4150   11.7590   46.3700 O   0  0  0  0  0  0  0  0  0  0  0  0
   39.3590   13.1810   46.5110 S   0  0  0  0  0  0  0  0  0  0  0  0
   40.5540   12.9930   45.6180 O   0  0  0  0  0  1  0  0  0  0  0  0
   38.5840   14.3900   46.0470 O   0  0  0  0  0  1  0  0  0  0  0  0
   39.9160   13.3870   48.0830 O   0  0  0  0  0  1  0  0  0  0  0  0
  1  5  2  0  0  0  0
  1  2  1  0  0  0  0
  2  9  2  0  0  0  0
  2  3  1  0  0  0  0
  3  6  2  0  0  0  0
  4 12  1  0  0  0  0
  4  3  1  0  0  0  0
  5  4  1  0  0  0  0
  6  7  1  0  0  0  0
  6 11  1  0  0  0  0
  8 10  1  0  0  0  0
  8  7  2  0  0  0  0
  9  8  1  0  0  0  0
 13 19  2  0  0  0  0
 13  5  1  0  0  0  0
 14 13  1  0  0  0  0
 15 14  1  0  0  0  0
 15 17  1  0  0  0  0
 16 14  1  0  0  0  0
 17 19  1  0  0  0  0
 18 15  2  0  0  0  0
 19 25  1  0  0  0  0
 20 17  2  0  0  0  0
 21 20  1  0  0  0  0
 22 18  1  0  0  0  0
 22 21  2  0  0  0  0
 23 21  1  0  0  0  0
 24 18  1  0  0  0  0
 25 26  1  0  0  0  0
 26 27  1  0  0  0  0
 26 29  1  0  0  0  0
 28 26  1  0  0  0  0
 30 31  1  0  0  0  0
 30  1  1  0  0  0  0
 31 34  1  0  0  0  0
 32 31  1  0  0  0  0
 33 31  1  0  0  0  0
M  END
>  <Pose>
1

>  <Score>
-5.899

$$$$
