MODEL 1
REMARK VINA RESULT:    -5.899      0.000      0.000
REMARK INTER + INTRA:          -9.911
REMARK INTER:                  -7.623
REMARK INTRA:                  -2.287
REMARK UNBOUND:                -2.287
REMARK  5 active torsions:
REMARK  status: ('A' for Active; 'I' for Inactive)
REMARK    1  A    between atoms: S_1  and  O_5 
REMARK    2  A    between atoms: O_5  and  C_6 
REMARK    3  A    between atoms: C_10  and  C_11 
REMARK    4  A    between atoms: C_15  and  O_16 
REMARK    5  A    between atoms: O_16  and  S_17 
ROOT
ATOM      1  C   UNK d   1      38.492  10.746  47.320  0.00  0.00     0.133 A 
ATOM      2  C   UNK d   1      37.602  10.650  48.398  0.00  0.00     0.030 A 
ATOM      3  C   UNK d   1      38.008   9.530  49.089  0.00  0.00     0.063 A 
ATOM      4  N   UNK d   1      39.067   9.000  48.461  0.00  0.00    -0.350 N 
ATOM      5  C   UNK d   1      39.406   9.726  47.352  0.00  0.00     0.099 A 
ATOM      6  C   UNK d   1      37.305   9.165  50.235  0.00  0.00     0.040 A 
ATOM      7  C   UNK d   1      36.241   9.922  50.641  0.00  0.00     0.040 A 
ATOM      8  C   UNK d   1      35.825  11.059  49.943  0.00  0.00     0.013 A 
ATOM      9  C   UNK d   1      36.533  11.423  48.793  0.00  0.00     0.036 A 
ATOM     10 Br   UNK d   1      34.338  12.067  50.559  0.00  0.00    -0.051 Br
ATOM     11 Br   UNK d   1      37.840   7.629  51.206  0.00  0.00    -0.049 Br
ATOM     12  H   UNK d   1      39.588   8.131  48.768  0.00  0.00     0.166 HD
ENDROOT
BRANCH   5  13
ATOM     13  C   UNK d   1      40.534   9.442  46.473  0.00  0.00     0.099 A 
ATOM     14  N   UNK d   1      40.690  10.037  45.258  0.00  0.00    -0.350 N 
ATOM     15  C   UNK d   1      41.798   9.589  44.648  0.00  0.00     0.063 A 
ATOM     16  H   UNK d   1      40.056  10.747  44.831  0.00  0.00     0.166 HD
ATOM     17  C   UNK d   1      42.414   8.665  45.463  0.00  0.00     0.030 A 
ATOM     18  C   UNK d   1      42.408   9.857  43.431  0.00  0.00     0.040 A 
ATOM     19  C   UNK d   1      41.593   8.598  46.595  0.00  0.00     0.133 A 
ATOM     20  C   UNK d   1      43.583   8.028  45.101  0.00  0.00     0.036 A 
ATOM     21  C   UNK d   1      44.185   8.303  43.883  0.00  0.00     0.013 A 
ATOM     22  C   UNK d   1      43.577   9.230  43.052  0.00  0.00     0.040 A 
ATOM     23 Br   UNK d   1      45.809   7.430  43.359  0.00  0.00    -0.051 Br
ATOM     24 Br   UNK d   1      41.625  11.123  42.239  0.00  0.00    -0.049 Br
BRANCH  19  25
ATOM     25  O   UNK d   1      41.872   7.763  47.661  0.00  0.00    -0.211 OA
BRANCH  25  26
ATOM     26  S   UNK d   1      42.646   8.316  49.076  0.00  0.00     0.257 S 
ATOM     27  O   UNK d   1      41.826   9.371  49.759  0.00  0.00    -0.572 OA
ATOM     28  O   UNK d   1      43.990   8.916  48.776  0.00  0.00    -0.572 OA
ATOM     29  O   UNK d   1      42.935   7.001  50.111  0.00  0.00    -0.572 OA
ENDBRANCH  25  26
ENDBRANCH  19  25
ENDBRANCH   5  13
BRANCH   1  30
ATOM     30  O   UNK d   1      38.415  11.759  46.370  0.00  0.00    -0.211 OA
BRANCH  30  31
ATOM     31  S   UNK d   1      39.359  13.181  46.511  0.00  0.00     0.257 S 
ATOM     32  O   UNK d   1      40.554  12.993  45.618  0.00  0.00    -0.572 OA
ATOM     33  O   UNK d   1      38.584  14.390  46.047  0.00  0.00    -0.572 OA
ATOM     34  O   UNK d   1      39.916  13.387  48.083  0.00  0.00    -0.572 OA
ENDBRANCH  30  31
ENDBRANCH   1  30
TORSDOF 5
ENDMDL
