MODEL 1
REMARK VINA RESULT:    -6.497      0.000      0.000
REMARK INTER + INTRA:          -7.642
REMARK INTER:                  -7.447
REMARK INTRA:                  -0.195
REMARK UNBOUND:                -0.195
REMARK  4 active torsions:
REMARK  status: ('A' for Active; 'I' for Inactive)
REMARK    1  A    between atoms: C_7  and  N_10 
REMARK    2  A    between atoms: C_8  and  O_9 
REMARK    3  A    between atoms: C_13  and  N_21 
REMARK    4  A    between atoms: C_15  and  O_20 
ROOT
ATOM      1  N   UNK d   1      42.795  12.738  45.514  0.00  0.00    -0.277 N 
ATOM      2  C   UNK d   1      41.520  13.135  45.605  0.00  0.00     0.186 A 
ATOM      3  N   UNK d   1      40.351  12.509  45.296  0.00  0.00    -0.042 NA
ATOM      4  C   UNK d   1      39.157  13.073  45.458  0.00  0.00     0.724 A 
ATOM      5  N   UNK d   1      39.100  14.324  45.951  0.00  0.00    -0.036 NA
ATOM      6  C   UNK d   1      40.220  15.001  46.278  0.00  0.00     0.214 A 
ATOM      7  C   UNK d   1      41.459  14.418  46.111  0.00  0.00     0.159 A 
ATOM      8  N   UNK d   1      42.730  14.790  46.324  0.00  0.00    -0.216 NA
ATOM      9  C   UNK d   1      43.538  13.766  45.960  0.00  0.00     0.182 A 
ATOM     10 Br   UNK d   1      45.451  13.754  46.054  0.00  0.00    -0.008 Br
ENDROOT
BRANCH   1  11
ATOM     11  C   UNK d   1      43.190  11.442  45.019  0.00  0.00     0.263 C 
ATOM     12  O   UNK d   1      42.414  11.035  43.935  0.00  0.00    -0.353 OA
ATOM     13  C   UNK d   1      42.898   9.768  43.717  0.00  0.00     0.180 C 
ATOM     14  C   UNK d   1      42.753   9.137  45.107  0.00  0.00     0.198 C 
ATOM     15  C   UNK d   1      42.125   8.948  42.754  0.00  0.00     0.216 C 
ATOM     16  O   UNK d   1      43.822   8.254  45.237  0.00  0.00    -0.279 OA
ATOM     17  C   UNK d   1      42.882  10.334  46.024  0.00  0.00     0.199 C 
ATOM     18  P   UNK d   1      44.002   7.494  43.719  0.00  0.00     0.408 P 
ATOM     19  O   UNK d   1      45.268   7.953  43.030  0.00  0.00    -0.624 OA
ATOM     20  O   UNK d   1      42.642   7.648  42.769  0.00  0.00    -0.287 OA
ATOM     21  O   UNK d   1      44.228   5.832  44.061  0.00  0.00    -0.624 OA
BRANCH  17  22
ATOM     22  O   UNK d   1      43.864  10.191  46.972  0.00  0.00    -0.388 OA
ATOM     23  H   UNK d   1      44.133  11.097  47.326  0.00  0.00     0.210 HD
ENDBRANCH  17  22
ENDBRANCH   1  11
BRANCH   4  24
ATOM     24  N   UNK d   1      37.961  12.377  45.119  0.00  0.00    -0.231 N 
ATOM     25  H   UNK d   1      37.726  12.321  44.105  0.00  0.00     0.174 HD
ATOM     26  H   UNK d   1      37.338  11.940  45.844  0.00  0.00     0.174 HD
ENDBRANCH   4  24
BRANCH   6  27
ATOM     27  O   UNK d   1      40.166  16.294  46.789  0.00  0.00    -0.343 OA
ATOM     28  H   UNK d   1      39.490  16.448  47.552  0.00  0.00     0.219 HD
ENDBRANCH   6  27
TORSDOF 4
ENDMDL
