MODEL 1
REMARK VINA RESULT:    -8.040      0.000      0.000
REMARK INTER + INTRA:          -9.937
REMARK INTER:                  -9.215
REMARK INTRA:                  -0.722
REMARK UNBOUND:                -0.722
REMARK  3 active torsions:
REMARK  status: ('A' for Active; 'I' for Inactive)
REMARK    1  A    between atoms: C_7  and  N_10 
REMARK    2  A    between atoms: C_8  and  O_9 
REMARK    3  A    between atoms: C_21  and  C_23 
ROOT
ATOM      1  N   UNK d   1      42.158  11.932  44.475  0.00  0.00    -0.279 N 
ATOM      2  C   UNK d   1      42.717  10.754  44.101  0.00  0.00     0.162 A 
ATOM      3  C   UNK d   1      41.838  10.021  43.332  0.00  0.00     0.173 A 
ATOM      4  N   UNK d   1      40.727  10.782  43.246  0.00  0.00    -0.214 NA
ATOM      5  C   UNK d   1      40.927  11.924  43.934  0.00  0.00     0.182 A 
ATOM      6 Br   UNK d   1      39.696  13.370  44.156  0.00  0.00    -0.008 Br
ATOM      7  C   UNK d   1      42.221   8.785  42.851  0.00  0.00     0.298 A 
ATOM      8  O   UNK d   1      41.431   8.112  42.152  0.00  0.00    -0.264 OA
ATOM      9  N   UNK d   1      43.440   8.258  43.106  0.00  0.00    -0.115 N 
ATOM     10  C   UNK d   1      44.282   8.990  43.859  0.00  0.00     0.716 A 
ATOM     11  N   UNK d   1      45.406   8.258  43.965  0.00  0.00    -0.062 NA
ATOM     12  C   UNK d   1      45.305   7.089  43.306  0.00  0.00     0.102 A 
ATOM     13  C   UNK d   1      44.041   7.088  42.754  0.00  0.00     0.152 A 
ATOM     14  N   UNK d   1      43.923  10.212  44.343  0.00  0.00    -0.171 N 
ATOM     15  H   UNK d   1      44.581  10.777  44.927  0.00  0.00     0.186 HD
ENDROOT
BRANCH   1  16
ATOM     16  C   UNK d   1      42.755  12.987  45.290  0.00  0.00     0.263 C 
ATOM     17  O   UNK d   1      44.135  12.820  45.391  0.00  0.00    -0.353 OA
ATOM     18  C   UNK d   1      44.552  13.424  46.545  0.00  0.00     0.180 C 
ATOM     19  C   UNK d   1      43.416  13.160  47.535  0.00  0.00     0.197 C 
ATOM     20  C   UNK d   1      45.791  12.808  47.148  0.00  0.00     0.214 C 
ATOM     21  O   UNK d   1      43.381  14.263  48.384  0.00  0.00    -0.292 OA
ATOM     22  C   UNK d   1      42.197  13.041  46.670  0.00  0.00     0.199 C 
ATOM     23  P   UNK d   1      44.995  14.620  48.779  0.00  0.00     0.422 P 
ATOM     24  S   UNK d   1      45.085  14.849  50.498  0.00  0.00     0.009 SA
ATOM     25  O   UNK d   1      46.023  13.335  48.398  0.00  0.00    -0.300 OA
ATOM     26  O   UNK d   1      45.550  15.982  47.947  0.00  0.00    -0.240 OA
BRANCH  22  27
ATOM     27  O   UNK d   1      41.365  14.154  46.839  0.00  0.00    -0.388 OA
ATOM     28  H   UNK d   1      40.592  13.954  47.405  0.00  0.00     0.210 HD
ENDBRANCH  22  27
ENDBRANCH   1  16
BRANCH  12  29
ATOM     29  C   UNK d   1      46.320   6.034  43.196  0.00  0.00    -0.005 A 
ATOM     30  C   UNK d   1      46.236   5.092  42.195  0.00  0.00     0.014 A 
ATOM     31  C   UNK d   1      47.181   4.082  42.064  0.00  0.00     0.001 A 
ATOM     32  C   UNK d   1      48.222   4.030  42.962  0.00  0.00     0.000 A 
ATOM     33  C   UNK d   1      48.342   4.958  43.985  0.00  0.00     0.001 A 
ATOM     34  C   UNK d   1      47.377   5.938  44.066  0.00  0.00     0.014 A 
ENDBRANCH  12  29
TORSDOF 3
ENDMDL
