/Users/jonathanwahrer/Desktop/Msc/3_Semester/Drug_Design_Praktikum/waehrer_HTS_screening/HTS_experiment/out/docking_results/vina_output/2qfa/0991_docked.pdbqt
 OpenBabel03162220133D

 34 39  0  0  1  0  0  0  0  0999 V2000
   42.1580   11.9320   44.4750 N   0  0  0  0  0  0  0  0  0  0  0  0
   42.7170   10.7540   44.1010 C   0  0  0  0  0  0  0  0  0  0  0  0
   41.8380   10.0210   43.3320 C   0  0  0  0  0  0  0  0  0  0  0  0
   40.7270   10.7820   43.2460 N   0  0  0  0  0  0  0  0  0  0  0  0
   40.9270   11.9240   43.9340 C   0  0  0  0  0  0  0  0  0  0  0  0
   39.6960   13.3700   44.1560 Br  0  0  0  0  0  0  0  0  0  0  0  0
   42.2210    8.7850   42.8510 C   0  0  0  0  0  0  0  0  0  0  0  0
   41.4310    8.1120   42.1520 O   0  0  0  0  0  0  0  0  0  0  0  0
   43.4400    8.2580   43.1060 N   0  0  0  0  0  0  0  0  0  0  0  0
   44.2820    8.9900   43.8590 C   0  0  0  0  0  0  0  0  0  0  0  0
   45.4060    8.2580   43.9650 N   0  0  0  0  0  0  0  0  0  0  0  0
   45.3050    7.0890   43.3060 C   0  0  0  0  0  0  0  0  0  0  0  0
   44.0410    7.0880   42.7540 C   0  0  0  0  0  3  0  0  0  0  0  0
   43.9230   10.2120   44.3430 N   0  0  0  0  0  0  0  0  0  0  0  0
   44.5810   10.7770   44.9270 H   0  0  0  0  0  0  0  0  0  0  0  0
   42.7550   12.9870   45.2900 C   0  0  2  0  0  3  0  0  0  0  0  0
   44.1350   12.8200   45.3910 O   0  0  0  0  0  0  0  0  0  0  0  0
   44.5520   13.4240   46.5450 C   0  0  1  0  0  3  0  0  0  0  0  0
   43.4160   13.1600   47.5350 C   0  0  1  0  0  3  0  0  0  0  0  0
   45.7910   12.8080   47.1480 C   0  0  0  0  0  2  0  0  0  0  0  0
   43.3810   14.2630   48.3840 O   0  0  0  0  0  0  0  0  0  0  0  0
   42.1970   13.0410   46.6700 C   0  0  1  0  0  3  0  0  0  0  0  0
   44.9950   14.6200   48.7790 P   0  0  1  0  0  0  0  0  0  0  0  0
   45.0850   14.8490   50.4980 S   0  0  0  0  0  1  0  0  0  0  0  0
   46.0230   13.3350   48.3980 O   0  0  0  0  0  0  0  0  0  0  0  0
   45.5500   15.9820   47.9470 O   0  0  0  0  0  0  0  0  0  0  0  0
   41.3650   14.1540   46.8390 O   0  0  0  0  0  0  0  0  0  0  0  0
   40.5920   13.9540   47.4050 H   0  0  0  0  0  0  0  0  0  0  0  0
   46.3200    6.0340   43.1960 C   0  0  0  0  0  0  0  0  0  0  0  0
   46.2360    5.0920   42.1950 C   0  0  0  0  0  3  0  0  0  0  0  0
   47.1810    4.0820   42.0640 C   0  0  0  0  0  3  0  0  0  0  0  0
   48.2220    4.0300   42.9620 C   0  0  0  0  0  3  0  0  0  0  0  0
   48.3420    4.9580   43.9850 C   0  0  0  0  0  3  0  0  0  0  0  0
   47.3770    5.9380   44.0660 C   0  0  0  0  0  3  0  0  0  0  0  0
  2 14  1  0  0  0  0
  2  1  1  0  0  0  0
  3  2  2  0  0  0  0
  4  3  1  0  0  0  0
  4  5  2  0  0  0  0
  5  6  1  0  0  0  0
  5  1  1  0  0  0  0
  7  9  1  0  0  0  0
  7  3  1  0  0  0  0
  8  7  2  0  0  0  0
  9 10  1  0  0  0  0
 10 11  2  0  0  0  0
 10 14  1  0  0  0  0
 12 11  1  0  0  0  0
 13  9  1  0  0  0  0
 13 12  2  0  0  0  0
 14 15  1  0  0  0  0
 16  1  1  6  0  0  0
 16 17  1  0  0  0  0
 16 22  1  0  0  0  0
 17 18  1  0  0  0  0
 18 20  1  1  0  0  0
 18 19  1  0  0  0  0
 19 21  1  1  0  0  0
 20 25  1  0  0  0  0
 21 23  1  0  0  0  0
 22 27  1  6  0  0  0
 22 19  1  0  0  0  0
 23 26  2  6  0  0  0
 23 24  1  0  0  0  0
 25 23  1  0  0  0  0
 27 28  1  0  0  0  0
 29 12  1  0  0  0  0
 29 34  1  0  0  0  0
 30 29  2  0  0  0  0
 31 30  1  0  0  0  0
 31 32  2  0  0  0  0
 32 33  1  0  0  0  0
 33 34  2  0  0  0  0
M  END
>  <Pose>
1

>  <Score>
-8.040

$$$$
