MODEL 1
REMARK VINA RESULT:    -5.712      0.000      0.000
REMARK INTER + INTRA:          -6.662
REMARK INTER:                  -6.380
REMARK INTRA:                  -0.282
REMARK UNBOUND:                -0.282
REMARK  3 active torsions:
REMARK  status: ('A' for Active; 'I' for Inactive)
REMARK    1  A    between atoms: C_7  and  N_10 
REMARK    2  A    between atoms: C_8  and  O_9 
REMARK    3  A    between atoms: C_15  and  N_20 
ROOT
ATOM      1  P   UNK d   1      43.890   9.041  50.090  0.00  0.00     0.422 P 
ATOM      2  S   UNK d   1      43.813  10.716  50.574  0.00  0.00     0.009 SA
ATOM      3  O   UNK d   1      44.303   8.939  48.436  0.00  0.00    -0.292 OA
ATOM      4  C   UNK d   1      43.200   9.345  47.726  0.00  0.00     0.197 C 
ATOM      5  C   UNK d   1      42.048   8.373  48.013  0.00  0.00     0.180 C 
ATOM      6  O   UNK d   1      41.177   8.714  46.980  0.00  0.00    -0.353 OA
ATOM      7  C   UNK d   1      41.943   8.743  45.840  0.00  0.00     0.263 C 
ATOM      8  C   UNK d   1      43.346   9.135  46.230  0.00  0.00     0.199 C 
ATOM      9  C   UNK d   1      41.466   8.606  49.373  0.00  0.00     0.214 C 
ATOM     10  O   UNK d   1      42.421   8.279  50.318  0.00  0.00    -0.300 OA
ATOM     11  O   UNK d   1      45.099   8.301  50.973  0.00  0.00    -0.240 OA
ENDROOT
BRANCH   7  12
ATOM     12  N   UNK d   1      41.475   9.713  44.868  0.00  0.00    -0.278 N 
ATOM     13  C   UNK d   1      40.924  10.909  45.193  0.00  0.00     0.168 A 
ATOM     14  N   UNK d   1      40.669  11.498  46.390  0.00  0.00    -0.221 NA
ATOM     15  C   UNK d   1      40.595  11.573  44.029  0.00  0.00     0.151 A 
ATOM     16  C   UNK d   1      40.102  12.719  46.459  0.00  0.00     0.237 A 
ATOM     17  N   UNK d   1      39.777  13.375  45.318  0.00  0.00    -0.222 NA
ATOM     18  C   UNK d   1      40.013  12.825  44.113  0.00  0.00     0.155 A 
ATOM     19  N   UNK d   1      40.948  10.780  43.001  0.00  0.00    -0.216 NA
ATOM     20  C   UNK d   1      41.481   9.654  43.526  0.00  0.00     0.182 A 
ATOM     21 Br   UNK d   1      42.169   8.141  42.565  0.00  0.00    -0.008 Br
BRANCH  18  22
ATOM     22  N   UNK d   1      39.665  13.531  42.918  0.00  0.00    -0.382 N 
ATOM     23  H   UNK d   1      39.572  12.981  42.020  0.00  0.00     0.157 HD
ATOM     24  H   UNK d   1      39.503  14.557  42.902  0.00  0.00     0.157 HD
ENDBRANCH  18  22
ENDBRANCH   7  12
BRANCH   8  25
ATOM     25  O   UNK d   1      44.150   8.000  46.064  0.00  0.00    -0.388 OA
ATOM     26  H   UNK d   1      44.809   8.097  45.351  0.00  0.00     0.210 HD
ENDBRANCH   8  25
TORSDOF 3
ENDMDL
