MODEL 1
REMARK VINA RESULT:    -6.135      0.000      0.000
REMARK INTER + INTRA:          -6.746
REMARK INTER:                  -6.853
REMARK INTRA:                   0.106
REMARK UNBOUND:                 0.106
REMARK  3 active torsions:
REMARK  status: ('A' for Active; 'I' for Inactive)
REMARK    1  A    between atoms: C_7  and  N_10 
REMARK    2  A    between atoms: C_8  and  O_9 
REMARK    3  A    between atoms: C_15  and  N_20 
ROOT
ATOM      1  P   UNK d   1      43.378   7.916  44.143  0.00  0.00     0.408 P 
ATOM      2  O   UNK d   1      44.690   7.600  43.424  0.00  0.00    -0.624 OA
ATOM      3  O   UNK d   1      42.637   9.173  43.313  0.00  0.00    -0.279 OA
ATOM      4  C   UNK d   1      42.191  10.154  44.161  0.00  0.00     0.198 C 
ATOM      5  C   UNK d   1      41.749   9.450  45.452  0.00  0.00     0.180 C 
ATOM      6  O   UNK d   1      40.780  10.234  46.001  0.00  0.00    -0.353 OA
ATOM      7  C   UNK d   1      40.173  10.980  45.029  0.00  0.00     0.263 C 
ATOM      8  C   UNK d   1      40.895  10.793  43.739  0.00  0.00     0.199 C 
ATOM      9  C   UNK d   1      42.984   9.285  46.277  0.00  0.00     0.216 C 
ATOM     10  O   UNK d   1      43.753   8.288  45.726  0.00  0.00    -0.287 OA
ATOM     11  O   UNK d   1      42.432   6.496  44.026  0.00  0.00    -0.624 OA
ENDROOT
BRANCH   7  12
ATOM     12  N   UNK d   1      40.164  12.367  45.473  0.00  0.00    -0.278 N 
ATOM     13  C   UNK d   1      41.256  13.122  45.737  0.00  0.00     0.168 A 
ATOM     14  N   UNK d   1      42.566  12.830  45.669  0.00  0.00    -0.221 NA
ATOM     15  C   UNK d   1      40.834  14.375  46.131  0.00  0.00     0.151 A 
ATOM     16  C   UNK d   1      43.469  13.771  45.989  0.00  0.00     0.237 A 
ATOM     17  N   UNK d   1      43.055  14.993  46.373  0.00  0.00    -0.222 NA
ATOM     18  C   UNK d   1      41.766  15.355  46.464  0.00  0.00     0.155 A 
ATOM     19  N   UNK d   1      39.504  14.384  46.107  0.00  0.00    -0.216 NA
ATOM     20  C   UNK d   1      39.108  13.162  45.708  0.00  0.00     0.182 A 
ATOM     21 Br   UNK d   1      37.291  12.558  45.477  0.00  0.00    -0.008 Br
BRANCH  18  22
ATOM     22  N   UNK d   1      41.317  16.640  46.867  0.00  0.00    -0.382 N 
ATOM     23  H   UNK d   1      41.940  17.201  47.521  0.00  0.00     0.157 HD
ATOM     24  H   UNK d   1      40.434  17.067  46.571  0.00  0.00     0.157 HD
ENDBRANCH  18  22
ENDBRANCH   7  12
BRANCH   8  25
ATOM     25  O   UNK d   1      40.230   9.984  42.839  0.00  0.00    -0.388 OA
ATOM     26  H   UNK d   1      39.994   9.111  43.193  0.00  0.00     0.210 HD
ENDBRANCH   8  25
TORSDOF 3
ENDMDL
