/Users/jonathanwahrer/Desktop/Msc/3_Semester/Drug_Design_Praktikum/waehrer_HTS_screening/HTS_experiment/out/docking_results/vina_output/2qfa/1001_docked.pdbqt
 OpenBabel03162220143D

 26 29  0  0  1  0  0  0  0  0999 V2000
   43.3780    7.9160   44.1430 P   0  0  2  0  0  0  0  0  0  0  0  0
   44.6900    7.6000   43.4240 O   0  0  0  0  0  0  0  0  0  0  0  0
   42.6370    9.1730   43.3130 O   0  0  0  0  0  0  0  0  0  0  0  0
   42.1910   10.1540   44.1610 C   0  0  2  0  0  3  0  0  0  0  0  0
   41.7490    9.4500   45.4520 C   0  0  2  0  0  3  0  0  0  0  0  0
   40.7800   10.2340   46.0010 O   0  0  0  0  0  0  0  0  0  0  0  0
   40.1730   10.9800   45.0290 C   0  0  2  0  0  3  0  0  0  0  0  0
   40.8950   10.7930   43.7390 C   0  0  2  0  0  3  0  0  0  0  0  0
   42.9840    9.2850   46.2770 C   0  0  0  0  0  2  0  0  0  0  0  0
   43.7530    8.2880   45.7260 O   0  0  0  0  0  0  0  0  0  0  0  0
   42.4320    6.4960   44.0260 O   0  0  0  0  0  1  0  0  0  0  0  0
   40.1640   12.3670   45.4730 N   0  0  0  0  0  0  0  0  0  0  0  0
   41.2560   13.1220   45.7370 C   0  0  0  0  0  0  0  0  0  0  0  0
   42.5660   12.8300   45.6690 N   0  0  0  0  0  0  0  0  0  0  0  0
   40.8340   14.3750   46.1310 C   0  0  0  0  0  0  0  0  0  0  0  0
   43.4690   13.7710   45.9890 C   0  0  0  0  0  3  0  0  0  0  0  0
   43.0550   14.9930   46.3730 N   0  0  0  0  0  0  0  0  0  0  0  0
   41.7660   15.3550   46.4640 C   0  0  0  0  0  0  0  0  0  0  0  0
   39.5040   14.3840   46.1070 N   0  0  0  0  0  0  0  0  0  0  0  0
   39.1080   13.1620   45.7080 C   0  0  0  0  0  0  0  0  0  0  0  0
   37.2910   12.5580   45.4770 Br  0  0  0  0  0  0  0  0  0  0  0  0
   41.3170   16.6400   46.8670 N   0  0  0  0  0  0  0  0  0  0  0  0
   41.9400   17.2010   47.5210 H   0  0  0  0  0  0  0  0  0  0  0  0
   40.4340   17.0670   46.5710 H   0  0  0  0  0  0  0  0  0  0  0  0
   40.2300    9.9840   42.8390 O   0  0  0  0  0  0  0  0  0  0  0  0
   39.9940    9.1110   43.1930 H   0  0  0  0  0  0  0  0  0  0  0  0
  1  2  2  6  0  0  0
  1 10  1  0  0  0  0
  3  1  1  0  0  0  0
  4  3  1  6  0  0  0
  4  5  1  0  0  0  0
  5  6  1  0  0  0  0
  5  9  1  1  0  0  0
  7 12  1  1  0  0  0
  7  6  1  0  0  0  0
  8 25  1  6  0  0  0
  8  4  1  0  0  0  0
  8  7  1  0  0  0  0
 10  9  1  0  0  0  0
 11  1  1  0  0  0  0
 12 20  1  0  0  0  0
 12 13  1  0  0  0  0
 13 15  1  0  0  0  0
 14 13  2  0  0  0  0
 14 16  1  0  0  0  0
 15 18  2  0  0  0  0
 16 17  2  0  0  0  0
 17 18  1  0  0  0  0
 18 22  1  0  0  0  0
 19 15  1  0  0  0  0
 20 19  2  0  0  0  0
 21 20  1  0  0  0  0
 22 23  1  0  0  0  0
 24 22  1  0  0  0  0
 25 26  1  0  0  0  0
M  END
>  <Pose>
1

>  <Score>
-6.135

$$$$
