/Users/jonathanwahrer/Desktop/Msc/3_Semester/Drug_Design_Praktikum/waehrer_HTS_screening/HTS_experiment/out/docking_results/vina_output/2qfa/1011_docked.pdbqt
 OpenBabel03162220153D

 29 32  0  0  0  0  0  0  0  0999 V2000
   41.1000   12.0990   45.9770 C   0  0  0  0  0  0  0  0  0  0  0  0
   42.4000   11.9380   46.4660 C   0  0  0  0  0  3  0  0  0  0  0  0
   43.1900   13.0360   46.7260 C   0  0  0  0  0  0  0  0  0  0  0  0
   42.7510   14.3320   46.5220 C   0  0  0  0  0  0  0  0  0  0  0  0
   41.4810   14.5000   46.0450 C   0  0  0  0  0  3  0  0  0  0  0  0
   40.6720   13.3900   45.7780 C   0  0  0  0  0  0  0  0  0  0  0  0
   38.8960   13.6340   45.0980 Br  0  0  0  0  0  0  0  0  0  0  0  0
   43.8380   15.2830   46.8840 C   0  0  0  0  0  2  0  0  0  0  0  0
   45.0830   14.3720   46.8230 C   0  0  0  0  0  2  0  0  0  0  0  0
   44.5360   13.0880   47.2340 N   0  0  0  0  0  0  0  0  0  0  0  0
   45.1340   12.0500   47.9860 C   0  0  0  0  0  0  0  0  0  0  0  0
   44.5320   10.9940   48.2870 O   0  0  0  0  0  0  0  0  0  0  0  0
   40.1200   10.6930   45.6610 S   0  0  0  0  0  0  0  0  0  0  0  0
   40.8570    9.4370   46.1130 O   0  0  0  0  0  0  0  0  0  0  0  0
   38.8410   10.7170   46.4280 O   0  0  0  0  0  0  0  0  0  0  0  0
   39.8630   10.4990   43.9690 N   0  0  0  0  0  0  0  0  0  0  0  0
   39.7230    9.4870   43.7790 H   0  0  0  0  0  0  0  0  0  0  0  0
   40.9500   11.0310   43.1730 C   0  0  0  0  0  2  0  0  0  0  0  0
   41.7790    9.8340   42.7300 C   0  0  0  0  0  2  0  0  0  0  0  0
   43.1620    9.8890   43.3240 C   0  0  0  0  0  2  0  0  0  0  0  0
   43.5460    8.5840   43.7130 N   0  0  0  0  0  0  0  0  0  0  0  0
   42.5420    7.5820   43.6540 C   0  0  0  0  0  2  0  0  0  0  0  0
   42.9590    6.4330   44.5560 C   0  0  0  0  0  2  0  0  0  0  0  0
   44.3020    6.1440   44.4230 O   0  0  0  0  0  0  0  0  0  0  0  0
   44.8660    6.6500   43.2570 C   0  0  0  0  0  2  0  0  0  0  0  0
   44.8630    8.1760   43.3880 C   0  0  0  0  0  2  0  0  0  0  0  0
   46.5350   12.2180   48.4400 C   0  0  0  0  0  3  0  0  0  0  0  0
   47.0530   11.1190   49.2750 C   0  0  0  0  0  2  0  0  0  0  0  0
   46.8320   12.4880   49.8690 C   0  0  0  0  0  2  0  0  0  0  0  0
  1  2  1  0  0  0  0
  2  3  2  0  0  0  0
  3 10  1  0  0  0  0
  4  3  1  0  0  0  0
  4  8  1  0  0  0  0
  5  4  2  0  0  0  0
  6  1  2  0  0  0  0
  6  5  1  0  0  0  0
  7  6  1  0  0  0  0
  9  8  1  0  0  0  0
  9 10  1  0  0  0  0
 10 11  1  0  0  0  0
 11 12  2  0  0  0  0
 11 27  1  0  0  0  0
 13  1  1  0  0  0  0
 13 14  2  0  0  0  0
 13 15  2  0  0  0  0
 16 13  1  0  0  0  0
 17 16  1  0  0  0  0
 18 16  1  0  0  0  0
 19 18  1  0  0  0  0
 19 20  1  0  0  0  0
 20 21  1  0  0  0  0
 22 21  1  0  0  0  0
 22 23  1  0  0  0  0
 24 23  1  0  0  0  0
 25 26  1  0  0  0  0
 25 24  1  0  0  0  0
 26 21  1  0  0  0  0
 27 28  1  0  0  0  0
 27 29  1  0  0  0  0
 28 29  1  0  0  0  0
M  END
>  <Pose>
1

>  <Score>
-6.011

$$$$
