MODEL 1
REMARK VINA RESULT:    -7.473      0.000      0.000
REMARK INTER + INTRA:         -10.763
REMARK INTER:                  -9.657
REMARK INTRA:                  -1.106
REMARK UNBOUND:                -1.106
REMARK  5 active torsions:
REMARK  status: ('A' for Active; 'I' for Inactive)
REMARK    1  A    between atoms: S_1  and  N_4 
REMARK    2  A    between atoms: S_1  and  C_20 
REMARK    3  A    between atoms: N_8  and  C_12 
REMARK    4  A    between atoms: C_12  and  C_13 
REMARK    5  A    between atoms: C_13  and  C_14 
REMARK       I    between atoms: N_29  and  C_30 
ROOT
ATOM      1  N   UNK d   1      41.251  12.803  46.729  0.00  0.00    -0.289 N 
ATOM      2  C   UNK d   1      40.382  11.746  46.984  0.00  0.00     0.239 C 
ATOM      3  C   UNK d   1      40.137  10.831  45.847  0.00  0.00     0.245 C 
ATOM      4  O   UNK d   1      39.819   9.633  46.038  0.00  0.00    -0.271 OA
ATOM      5  N   UNK d   1      40.283  11.390  44.546  0.00  0.00    -0.285 N 
ATOM      6  C   UNK d   1      40.365  12.803  44.467  0.00  0.00     0.245 C 
ATOM      7  O   UNK d   1      39.991  13.362  43.398  0.00  0.00    -0.271 OA
ATOM      8  C   UNK d   1      40.868  13.623  45.589  0.00  0.00     0.239 C 
ENDROOT
BRANCH   1   9
ATOM      9  S   UNK d   1      42.911  12.633  46.894  0.00  0.00     0.263 S 
ATOM     10  O   UNK d   1      43.475  12.265  45.521  0.00  0.00    -0.200 OA
ATOM     11  O   UNK d   1      43.239  11.440  47.760  0.00  0.00    -0.200 OA
BRANCH   9  12
ATOM     12  C   UNK d   1      43.800  14.034  47.426  0.00  0.00     0.099 A 
ATOM     13  C   UNK d   1      44.653  14.666  46.512  0.00  0.00     0.057 A 
ATOM     14  C   UNK d   1      45.457  15.738  46.828  0.00  0.00     0.045 A 
ATOM     15  C   UNK d   1      45.450  16.248  48.108  0.00  0.00    -0.028 A 
ATOM     16  N   UNK d   1      46.380  16.504  46.052  0.00  0.00    -0.318 N 
ATOM     17  C   UNK d   1      44.618  15.643  49.017  0.00  0.00     0.030 A 
ATOM     18  C   UNK d   1      46.383  17.396  48.216  0.00  0.00     0.061 C 
ATOM     19  C   UNK d   1      43.799  14.550  48.689  0.00  0.00     0.035 A 
ATOM     20 Br   UNK d   1      42.605  13.854  50.019  0.00  0.00    -0.049 Br
ATOM     21  C   UNK d   1      46.582  17.771  46.747  0.00  0.00     0.137 C 
ATOM     22  C   UNK d   1      47.010  16.143  44.848  0.00  0.00     0.220 C 
ATOM     23  O   UNK d   1      47.792  16.989  44.290  0.00  0.00    -0.273 OA
ATOM     24  C   UNK d   1      46.857  14.848  44.143  0.00  0.00     0.117 C 
ENDBRANCH   9  12
ENDBRANCH   1   9
BRANCH   5  25
ATOM     25  C   UNK d   1      40.336  10.532  43.381  0.00  0.00     0.139 C 
BRANCH  25  26
ATOM     26  C   UNK d   1      41.668  10.465  42.717  0.00  0.00     0.059 C 
BRANCH  26  27
ATOM     27  C   UNK d   1      42.486   9.298  43.041  0.00  0.00    -0.057 A 
ATOM     28  C   UNK d   1      41.982   8.028  43.035  0.00  0.00     0.007 A 
ATOM     29  C   UNK d   1      42.801   6.981  43.352  0.00  0.00     0.001 A 
ATOM     30  C   UNK d   1      44.138   7.167  43.683  0.00  0.00     0.000 A 
ATOM     31  C   UNK d   1      44.620   8.447  43.682  0.00  0.00     0.001 A 
ATOM     32  C   UNK d   1      43.824   9.522  43.368  0.00  0.00     0.007 A 
ENDBRANCH  26  27
ENDBRANCH  25  26
ENDBRANCH   5  25
TORSDOF 5
ENDMDL
