MODEL 1
REMARK VINA RESULT:    -7.500      0.000      0.000
REMARK INTER + INTRA:          -8.914
REMARK INTER:                  -9.692
REMARK INTRA:                   0.778
REMARK UNBOUND:                 0.778
REMARK  5 active torsions:
REMARK  status: ('A' for Active; 'I' for Inactive)
REMARK    1  A    between atoms: S_1  and  N_4 
REMARK    2  A    between atoms: S_1  and  C_20 
REMARK    3  A    between atoms: C_6  and  N_8 
REMARK    4  A    between atoms: C_11  and  C_13 
REMARK    5  A    between atoms: C_13  and  N_14 
ROOT
ATOM      1  N   UNK d   1      43.473   8.878  43.132  0.00  0.00    -0.202 NA
ATOM      2  C   UNK d   1      44.746   8.557  43.670  0.00  0.00     0.136 C 
ATOM      3  C   UNK d   1      44.434   7.112  43.634  0.00  0.00     0.139 C 
ATOM      4  C   UNK d   1      43.206   7.505  42.889  0.00  0.00     0.136 C 
ENDROOT
BRANCH   3   5
ATOM      5  N   UNK d   1      45.322   6.277  42.848  0.00  0.00    -0.254 N 
ATOM      6  N   UNK d   1      45.722   6.450  41.615  0.00  0.00    -0.066 NA
ATOM      7  N   UNK d   1      46.542   5.455  41.248  0.00  0.00    -0.134 NA
ATOM      8  C   UNK d   1      46.678   4.606  42.281  0.00  0.00     0.093 A 
ATOM      9  C   UNK d   1      45.894   5.145  43.291  0.00  0.00     0.145 A 
BRANCH   8  10
ATOM     10  C   UNK d   1      47.495   3.348  42.340  0.00  0.00     0.188 C 
BRANCH  10  11
ATOM     11  N   UNK d   1      48.599   3.580  43.253  0.00  0.00    -0.346 N 
ATOM     12  C   UNK d   1      48.598   4.503  44.348  0.00  0.00     0.126 C 
ATOM     13  C   UNK d   1      49.920   4.329  45.039  0.00  0.00     0.029 C 
ATOM     14  C   UNK d   1      50.586   3.111  44.486  0.00  0.00     0.104 C 
ATOM     15  C   UNK d   1      49.855   2.912  43.186  0.00  0.00     0.220 C 
ATOM     16  O   UNK d   1      50.318   2.257  42.235  0.00  0.00    -0.273 OA
ENDBRANCH  10  11
ENDBRANCH   8  10
ENDBRANCH   3   5
BRANCH   1  17
ATOM     17  S   UNK d   1      42.340   9.680  44.092  0.00  0.00     0.250 S 
ATOM     18  O   UNK d   1      41.996   8.811  45.268  0.00  0.00    -0.205 OA
ATOM     19  O   UNK d   1      41.046   9.931  43.354  0.00  0.00    -0.205 OA
BRANCH  17  20
ATOM     20  C   UNK d   1      42.921  11.210  44.744  0.00  0.00     0.116 A 
ATOM     21  S   UNK d   1      42.177  12.200  45.929  0.00  0.00    -0.070 SA
ATOM     22  C   UNK d   1      43.331  13.457  46.001  0.00  0.00     0.052 A 
ATOM     23  C   UNK d   1      44.271  13.058  45.086  0.00  0.00     0.028 A 
ATOM     24 Br   UNK d   1      43.342  15.050  47.085  0.00  0.00    -0.043 Br
ATOM     25  C   UNK d   1      44.055  11.907  44.447  0.00  0.00     0.034 A 
ENDBRANCH  17  20
ENDBRANCH   1  17
TORSDOF 5
ENDMDL
