MODEL 1
REMARK VINA RESULT:    -6.991      0.000      0.000
REMARK INTER + INTRA:          -8.989
REMARK INTER:                  -8.218
REMARK INTRA:                  -0.771
REMARK UNBOUND:                -0.771
REMARK  3 active torsions:
REMARK  status: ('A' for Active; 'I' for Inactive)
REMARK    1  A    between atoms: S_1  and  N_4 
REMARK    2  A    between atoms: S_1  and  C_19 
REMARK       I    between atoms: N_7  and  C_10 
REMARK    3  A    between atoms: C_10  and  C_12 
ROOT
ATOM      1  N   UNK d   1      41.550  11.030  45.337  0.00  0.00    -0.304 N 
ATOM      2  C   UNK d   1      42.657  11.104  46.184  0.00  0.00     0.155 C 
ATOM      3  C   UNK d   1      42.390  11.069  47.647  0.00  0.00     0.146 C 
ATOM      4  N   UNK d   1      41.184  10.401  48.020  0.00  0.00    -0.345 N 
ATOM      5  C   UNK d   1      40.353   9.823  46.986  0.00  0.00     0.146 C 
ATOM      6  C   UNK d   1      40.265  10.882  45.889  0.00  0.00     0.155 C 
ATOM      7  C   UNK d   1      40.766  10.282  49.367  0.00  0.00     0.255 C 
ATOM      8  O   UNK d   1      41.465  10.774  50.311  0.00  0.00    -0.267 OA
ENDROOT
BRANCH   1   9
ATOM      9  S   UNK d   1      41.794  10.429  43.775  0.00  0.00     0.261 S 
ATOM     10  O   UNK d   1      40.568  10.341  42.953  0.00  0.00    -0.200 OA
ATOM     11  O   UNK d   1      42.742  11.381  43.058  0.00  0.00    -0.200 OA
BRANCH   9  12
ATOM     12  C   UNK d   1      42.638   8.886  43.842  0.00  0.00     0.082 A 
ATOM     13  C   UNK d   1      43.891   8.727  43.287  0.00  0.00     0.057 A 
ATOM     14  C   UNK d   1      44.579   7.531  43.324  0.00  0.00     0.070 A 
ATOM     15  C   UNK d   1      44.022   6.425  43.931  0.00  0.00     0.096 A 
ATOM     16  N   UNK d   1      45.870   7.362  42.752  0.00  0.00    -0.323 N 
ATOM     17  C   UNK d   1      42.762   6.581  44.490  0.00  0.00     0.040 A 
ATOM     18  O   UNK d   1      44.691   5.204  43.983  0.00  0.00    -0.340 OA
ATOM     19  C   UNK d   1      42.081   7.779  44.450  0.00  0.00     0.028 A 
ATOM     20  C   UNK d   1      45.850   4.900  43.229  0.00  0.00     0.278 C 
ATOM     21  C   UNK d   1      46.570   6.124  42.795  0.00  0.00     0.246 C 
ATOM     22  O   UNK d   1      47.781   5.998  42.482  0.00  0.00    -0.271 OA
ATOM     23  H   UNK d   1      46.305   8.188  42.290  0.00  0.00     0.169 HD
ENDBRANCH   9  12
ENDBRANCH   1   9
BRANCH   7  24
ATOM     24  C   UNK d   1      39.539   9.605  49.765  0.00  0.00     0.049 A 
ATOM     25  C   UNK d   1      38.320  10.254  49.818  0.00  0.00     0.026 A 
ATOM     26  C   UNK d   1      37.155   9.625  50.191  0.00  0.00     0.020 A 
ATOM     27 Br   UNK d   1      38.305  12.103  49.342  0.00  0.00    -0.050 Br
ATOM     28  C   UNK d   1      37.220   8.281  50.527  0.00  0.00     0.001 A 
ATOM     29  C   UNK d   1      38.405   7.584  50.492  0.00  0.00     0.001 A 
ATOM     30  C   UNK d   1      39.544   8.260  50.112  0.00  0.00     0.018 A 
ENDBRANCH   7  24
TORSDOF 3
ENDMDL
