/Users/jonathanwahrer/Desktop/Msc/3_Semester/Drug_Design_Praktikum/waehrer_HTS_screening/HTS_experiment/out/docking_results/vina_output/2qfa/1051_docked.pdbqt
 OpenBabel03162220183D

 27 30  0  0  0  0  0  0  0  0999 V2000
   42.8880   14.0390   47.4340 N   0  0  0  0  0  0  0  0  0  0  0  0
   42.9780   12.6770   47.8130 C   0  0  0  0  0  2  0  0  0  0  0  0
   42.9080   11.6710   46.7140 C   0  0  0  0  0  2  0  0  0  0  0  0
   42.0460   12.0500   45.6270 N   0  0  0  0  0  0  0  0  0  0  0  0
   41.3590   13.3150   45.7590 C   0  0  0  0  0  2  0  0  0  0  0  0
   42.4460   14.3110   46.1090 C   0  0  0  0  0  2  0  0  0  0  0  0
   41.8350   11.2750   44.4710 C   0  0  0  0  0  0  0  0  0  0  0  0
   41.0640   11.6880   43.5770 O   0  0  0  0  0  0  0  0  0  0  0  0
   42.5090    9.9920   44.3060 C   0  0  0  0  0  0  0  0  0  0  0  0
   43.5850    9.7680   43.5590 N   0  0  0  0  0  0  0  0  0  0  0  0
   43.9420    8.4840   43.6300 N   0  0  0  0  0  0  0  0  0  0  0  0
   43.0860    7.8250   44.4450 C   0  0  0  0  0  0  0  0  0  0  0  0
   44.9510    7.7930   43.0580 C   0  0  0  0  0  3  0  0  0  0  0  0
   42.1700    8.7910   44.8760 C   0  0  0  0  0  3  0  0  0  0  0  0
   43.2140    6.4990   44.6980 N   0  0  0  0  0  0  0  0  0  0  0  0
   44.2340    5.8020   44.1180 C   0  0  0  0  0  3  0  0  0  0  0  0
   45.1230    6.4450   43.2850 C   0  0  0  0  0  0  0  0  0  0  0  0
   46.5600    5.4610   42.4680 Br  0  0  0  0  0  0  0  0  0  0  0  0
   44.3220   14.9450   47.7310 S   0  0  0  0  0  0  0  0  0  0  0  0
   45.1140   14.3120   48.8290 O   0  0  0  0  0  0  0  0  0  0  0  0
   43.8710   16.3220   48.2000 O   0  0  0  0  0  0  0  0  0  0  0  0
   45.3220   15.0730   46.3060 C   0  0  0  0  0  0  0  0  0  0  0  0
   46.1750   16.1000   45.9740 C   0  0  0  0  0  3  0  0  0  0  0  0
   46.7640   15.8360   44.8070 N   0  0  0  0  0  0  0  0  0  0  0  0
   46.3240   14.6710   44.3700 N   0  0  0  0  0  0  0  0  0  0  0  0
   47.7220   16.6510   44.1080 C   0  0  0  0  0  1  0  0  0  0  0  0
   45.4330   14.1600   45.2570 C   0  0  0  0  0  3  0  0  0  0  0  0
  1 19  1  0  0  0  0
  1  2  1  0  0  0  0
  3  2  1  0  0  0  0
  4  5  1  0  0  0  0
  4  3  1  0  0  0  0
  5  6  1  0  0  0  0
  6  1  1  0  0  0  0
  7  4  1  0  0  0  0
  8  7  2  0  0  0  0
  9  7  1  0  0  0  0
  9 14  1  0  0  0  0
 10 11  1  0  0  0  0
 10  9  2  0  0  0  0
 11 12  1  0  0  0  0
 12 15  1  0  0  0  0
 12 14  2  0  0  0  0
 13 17  2  0  0  0  0
 13 11  1  0  0  0  0
 16 15  2  0  0  0  0
 17 16  1  0  0  0  0
 18 17  1  0  0  0  0
 19 21  2  0  0  0  0
 19 20  2  0  0  0  0
 22 19  1  0  0  0  0
 23 22  2  0  0  0  0
 24 23  1  0  0  0  0
 25 24  1  0  0  0  0
 25 27  2  0  0  0  0
 26 24  1  0  0  0  0
 27 22  1  0  0  0  0
M  END
>  <Pose>
1

>  <Score>
-7.284

$$$$
