/Users/jonathanwahrer/Desktop/Msc/3_Semester/Drug_Design_Praktikum/waehrer_HTS_screening/HTS_experiment/out/docking_results/vina_output/2qfa/1056_docked.pdbqt
 OpenBabel03162220183D

 30 33  0  0  1  0  0  0  0  0999 V2000
   45.0560    6.5620   43.9380 N   0  0  0  0  0  0  0  0  0  0  0  0
   43.7550    6.1950   43.5250 C   0  0  0  0  0  2  0  0  0  0  0  0
   42.8080    7.2820   43.2250 C   0  0  0  0  0  2  0  0  0  0  0  0
   42.9350    8.3750   44.1420 N   0  0  0  0  0  0  0  0  0  0  0  0
   43.8630    8.2760   45.2320 C   0  0  0  0  0  2  0  0  0  0  0  0
   45.1630    7.6370   44.8560 C   0  0  0  0  0  2  0  0  0  0  0  0
   42.1600    9.5420   43.9840 C   0  0  0  0  0  0  0  0  0  0  0  0
   41.3570    9.6110   43.0270 O   0  0  0  0  0  0  0  0  0  0  0  0
   42.2370   10.6910   44.8780 C   0  0  1  0  0  3  0  0  0  0  0  0
   41.2760   10.8660   45.8570 C   0  0  0  0  0  3  0  0  0  0  0  0
   41.3450   11.9230   46.6810 N   0  0  0  0  0  0  0  0  0  0  0  0
   42.3300   12.8440   46.5980 C   0  0  1  0  0  3  0  0  0  0  0  0
   43.2800   12.7030   45.6570 N   0  0  0  0  0  0  0  0  0  0  0  0
   42.3770   13.9300   47.4650 C   0  0  0  0  0  3  0  0  0  0  0  0
   44.2760   13.6290   45.5700 C   0  0  0  0  0  3  0  0  0  0  0  0
   43.2350   11.6420   44.8090 C   0  0  0  0  0  0  0  0  0  0  0  0
   44.3390   14.7140   46.4210 C   0  0  0  0  0  0  0  0  0  0  0  0
   43.3710   14.8790   47.3980 C   0  0  0  0  0  3  0  0  0  0  0  0
   45.4070   15.7420   46.3570 C   0  0  0  0  0  1  0  0  0  0  0  0
   44.1120   11.5130   43.9420 O   0  0  0  0  0  0  0  0  0  0  0  0
   46.2800    6.4400   42.7770 S   0  0  0  0  0  0  0  0  0  0  0  0
   45.7140    6.0230   41.4640 O   0  0  0  0  0  0  0  0  0  0  0  0
   46.9200    7.7970   42.6130 O   0  0  0  0  0  0  0  0  0  0  0  0
   47.5050    5.3220   43.3120 C   0  0  0  0  0  0  0  0  0  0  0  0
   48.2200    5.5750   44.4640 C   0  0  0  0  0  3  0  0  0  0  0  0
   49.1820    4.6410   44.8330 C   0  0  0  0  0  0  0  0  0  0  0  0
   49.4240    3.5100   44.0970 C   0  0  0  0  0  3  0  0  0  0  0  0
   50.2030    4.9340   46.4100 Br  0  0  0  0  0  0  0  0  0  0  0  0
   48.6980    3.2650   42.9400 C   0  0  0  0  0  3  0  0  0  0  0  0
   47.7250    4.1920   42.5510 C   0  0  0  0  0  3  0  0  0  0  0  0
  1  6  1  0  0  0  0
  2  1  1  0  0  0  0
  3  2  1  0  0  0  0
  3  4  1  0  0  0  0
  4  5  1  0  0  0  0
  6  5  1  0  0  0  0
  7  4  1  0  0  0  0
  8  7  2  0  0  0  0
  9  7  1  1  0  0  0
  9 10  1  0  0  0  0
 10 11  2  0  0  0  0
 12 11  1  0  0  0  0
 12 14  1  6  0  0  0
 13 12  1  0  0  0  0
 15 13  1  0  0  0  0
 15 17  2  0  0  0  0
 16  9  1  0  0  0  0
 16 13  1  0  0  0  0
 17 18  1  0  0  0  0
 18 14  2  0  0  0  0
 19 17  1  0  0  0  0
 20 16  2  0  0  0  0
 21 24  1  0  0  0  0
 21  1  1  0  0  0  0
 22 21  2  0  0  0  0
 23 21  2  0  0  0  0
 24 25  1  0  0  0  0
 25 26  2  0  0  0  0
 26 28  1  0  0  0  0
 27 26  1  0  0  0  0
 29 27  2  0  0  0  0
 30 29  1  0  0  0  0
 30 24  2  0  0  0  0
M  END
>  <Pose>
1

>  <Score>
-7.744

$$$$
