MODEL 1
REMARK VINA RESULT:    -7.744      0.000      0.000
REMARK INTER + INTRA:          -9.755
REMARK INTER:                  -9.102
REMARK INTRA:                  -0.653
REMARK UNBOUND:                -0.653
REMARK  3 active torsions:
REMARK  status: ('A' for Active; 'I' for Inactive)
REMARK    1  A    between atoms: S_1  and  N_4 
REMARK    2  A    between atoms: S_1  and  C_24 
REMARK       I    between atoms: N_7  and  C_10 
REMARK    3  A    between atoms: C_10  and  C_12 
ROOT
ATOM      1  N   UNK d   1      45.056   6.562  43.938  0.00  0.00    -0.304 N 
ATOM      2  C   UNK d   1      43.755   6.195  43.525  0.00  0.00     0.155 C 
ATOM      3  C   UNK d   1      42.808   7.282  43.225  0.00  0.00     0.146 C 
ATOM      4  N   UNK d   1      42.935   8.375  44.142  0.00  0.00    -0.345 N 
ATOM      5  C   UNK d   1      43.863   8.276  45.232  0.00  0.00     0.146 C 
ATOM      6  C   UNK d   1      45.163   7.637  44.856  0.00  0.00     0.155 C 
ATOM      7  C   UNK d   1      42.160   9.542  43.984  0.00  0.00     0.260 C 
ATOM      8  O   UNK d   1      41.357   9.611  43.027  0.00  0.00    -0.267 OA
ENDROOT
BRANCH   7   9
ATOM      9  C   UNK d   1      42.237  10.691  44.878  0.00  0.00     0.118 A 
ATOM     10  C   UNK d   1      41.276  10.866  45.857  0.00  0.00     0.141 A 
ATOM     11  N   UNK d   1      41.345  11.923  46.681  0.00  0.00    -0.242 NA
ATOM     12  C   UNK d   1      42.330  12.844  46.598  0.00  0.00     0.136 A 
ATOM     13  N   UNK d   1      43.280  12.703  45.657  0.00  0.00    -0.272 N 
ATOM     14  C   UNK d   1      42.377  13.930  47.465  0.00  0.00     0.051 A 
ATOM     15  C   UNK d   1      44.276  13.629  45.570  0.00  0.00     0.108 A 
ATOM     16  C   UNK d   1      43.235  11.642  44.809  0.00  0.00     0.270 A 
ATOM     17  C   UNK d   1      44.339  14.714  46.421  0.00  0.00    -0.046 A 
ATOM     18  C   UNK d   1      43.371  14.879  47.398  0.00  0.00     0.012 A 
ATOM     19  C   UNK d   1      45.407  15.742  46.357  0.00  0.00     0.049 C 
ATOM     20  O   UNK d   1      44.112  11.513  43.942  0.00  0.00    -0.266 OA
ENDBRANCH   7   9
BRANCH   1  21
ATOM     21  S   UNK d   1      46.280   6.440  42.777  0.00  0.00     0.261 S 
ATOM     22  O   UNK d   1      45.714   6.023  41.464  0.00  0.00    -0.200 OA
ATOM     23  O   UNK d   1      46.920   7.797  42.613  0.00  0.00    -0.200 OA
BRANCH  21  24
ATOM     24  C   UNK d   1      47.505   5.322  43.312  0.00  0.00     0.081 A 
ATOM     25  C   UNK d   1      48.220   5.575  44.464  0.00  0.00     0.044 A 
ATOM     26  C   UNK d   1      49.182   4.641  44.833  0.00  0.00     0.012 A 
ATOM     27  C   UNK d   1      49.424   3.510  44.097  0.00  0.00     0.019 A 
ATOM     28 Br   UNK d   1      50.203   4.934  46.410  0.00  0.00    -0.051 Br
ATOM     29  C   UNK d   1      48.698   3.265  42.940  0.00  0.00     0.003 A 
ATOM     30  C   UNK d   1      47.725   4.192  42.551  0.00  0.00     0.025 A 
ENDBRANCH  21  24
ENDBRANCH   1  21
TORSDOF 3
ENDMDL
