MODEL 1
REMARK VINA RESULT:    -6.997      0.000      0.000
REMARK INTER + INTRA:          -9.902
REMARK INTER:                  -9.042
REMARK INTRA:                  -0.860
REMARK UNBOUND:                -0.860
REMARK  5 active torsions:
REMARK  status: ('A' for Active; 'I' for Inactive)
REMARK    1  A    between atoms: S_1  and  N_4 
REMARK    2  A    between atoms: S_1  and  C_23 
REMARK    3  A    between atoms: N_7  and  C_10 
REMARK    4  A    between atoms: C_10  and  N_11 
REMARK    5  A    between atoms: C_13  and  N_18 
ROOT
ATOM      1  N   UNK d   1      43.119  13.203  48.108  0.00  0.00    -0.303 N 
ATOM      2  C   UNK d   1      41.799  12.775  47.880  0.00  0.00     0.165 C 
ATOM      3  C   UNK d   1      41.702  11.333  47.463  0.00  0.00     0.295 C 
ATOM      4  N   UNK d   1      42.904  10.794  46.935  0.00  0.00     0.111 NA
ATOM      5  C   UNK d   1      43.977  10.923  47.855  0.00  0.00     0.295 C 
ATOM      6  C   UNK d   1      44.071  12.245  48.522  0.00  0.00     0.165 C 
ENDROOT
BRANCH   4   7
ATOM      7  C   UNK d   1      43.125  11.192  45.595  0.00  0.00     0.426 C 
BRANCH   7   8
ATOM      8  N   UNK d   1      42.848  10.234  44.579  0.00  0.00    -0.204 N 
ATOM      9  N   UNK d   1      43.569   9.137  44.473  0.00  0.00    -0.149 NA
ATOM     10  C   UNK d   1      43.378   8.188  43.544  0.00  0.00     0.155 A 
ATOM     11  C   UNK d   1      42.353   8.395  42.650  0.00  0.00     0.058 A 
ATOM     12  C   UNK d   1      41.563   9.523  42.708  0.00  0.00     0.080 A 
ATOM     13  C   UNK d   1      41.846  10.441  43.710  0.00  0.00     0.265 A 
ATOM     14  O   UNK d   1      41.109  11.487  43.761  0.00  0.00    -0.267 OA
BRANCH  10  15
ATOM     15  N   UNK d   1      44.180   7.005  43.454  0.00  0.00    -0.298 N 
ATOM     16  C   UNK d   1      44.032   5.845  44.102  0.00  0.00     0.215 A 
ATOM     17  N   UNK d   1      45.012   5.009  43.714  0.00  0.00    -0.254 NA
ATOM     18  C   UNK d   1      45.795   5.631  42.814  0.00  0.00     0.135 A 
ATOM     19  C   UNK d   1      45.257   6.891  42.660  0.00  0.00     0.119 A 
ENDBRANCH  10  15
ENDBRANCH   7   8
ENDBRANCH   4   7
BRANCH   1  20
ATOM     20  S   UNK d   1      43.389  14.789  48.523  0.00  0.00     0.267 S 
ATOM     21  O   UNK d   1      42.165  15.633  48.410  0.00  0.00    -0.200 OA
ATOM     22  O   UNK d   1      43.913  14.886  49.920  0.00  0.00    -0.200 OA
BRANCH  20  23
ATOM     23  C   UNK d   1      44.605  15.478  47.427  0.00  0.00     0.121 A 
ATOM     24  S   UNK d   1      45.277  14.810  46.010  0.00  0.00    -0.069 SA
ATOM     25  C   UNK d   1      46.328  16.081  45.582  0.00  0.00     0.052 A 
ATOM     26  C   UNK d   1      46.123  17.007  46.575  0.00  0.00     0.028 A 
ATOM     27 Br   UNK d   1      47.518  16.212  44.087  0.00  0.00    -0.043 Br
ATOM     28  C   UNK d   1      45.231  16.689  47.525  0.00  0.00     0.035 A 
ENDBRANCH  20  23
ENDBRANCH   1  20
TORSDOF 5
ENDMDL
