MODEL 1
REMARK VINA RESULT:    -8.164      0.000      0.000
REMARK INTER + INTRA:         -10.695
REMARK INTER:                 -10.073
REMARK INTRA:                  -0.622
REMARK UNBOUND:                -0.622
REMARK  4 active torsions:
REMARK  status: ('A' for Active; 'I' for Inactive)
REMARK    1  A    between atoms: S_1  and  N_4 
REMARK    2  A    between atoms: S_1  and  C_22 
REMARK    3  A    between atoms: N_7  and  C_10 
REMARK    4  A    between atoms: C_10  and  N_11 
ROOT
ATOM      1  N   UNK d   1      42.991   9.517  44.099  0.00  0.00    -0.203 NA
ATOM      2  C   UNK d   1      42.799   8.729  45.276  0.00  0.00     0.127 C 
ATOM      3  C   UNK d   1      43.922   7.678  45.265  0.00  0.00     0.134 C 
ATOM      4  N   UNK d   1      44.290   7.327  43.962  0.00  0.00    -0.393 N 
ATOM      5  C   UNK d   1      43.249   7.380  42.971  0.00  0.00     0.134 C 
ATOM      6  C   UNK d   1      42.488   8.686  42.991  0.00  0.00     0.127 C 
ENDROOT
BRANCH   4   7
ATOM      7  C   UNK d   1      45.589   7.553  43.486  0.00  0.00     0.273 C 
BRANCH   7   8
ATOM      8  N   UNK d   1      46.493   6.450  43.420  0.00  0.00    -0.223 N 
ATOM      9  N   UNK d   1      47.410   6.191  44.470  0.00  0.00    -0.278 N 
ATOM     10  C   UNK d   1      48.129   5.026  44.076  0.00  0.00     0.122 A 
ATOM     11  H   UNK d   1      47.534   6.742  45.352  0.00  0.00     0.189 HD
ATOM     12  C   UNK d   1      49.084   4.480  44.819  0.00  0.00     0.023 C 
ATOM     13  N   UNK d   1      47.687   4.553  42.813  0.00  0.00    -0.283 N 
ATOM     14  C   UNK d   1      49.969   3.304  44.663  0.00  0.00     0.031 C 
ATOM     15  C   UNK d   1      50.203   2.994  43.203  0.00  0.00     0.006 C 
ATOM     16  C   UNK d   1      48.900   2.414  42.682  0.00  0.00     0.021 C 
ATOM     17  C   UNK d   1      48.069   3.448  41.987  0.00  0.00     0.135 C 
ATOM     18  C   UNK d   1      46.662   5.459  42.417  0.00  0.00     0.346 A 
ATOM     19  O   UNK d   1      46.029   5.359  41.336  0.00  0.00    -0.245 OA
ENDBRANCH   7   8
ENDBRANCH   4   7
BRANCH   1  20
ATOM     20  S   UNK d   1      42.084  10.968  44.076  0.00  0.00     0.243 S 
ATOM     21  O   UNK d   1      40.727  10.797  44.707  0.00  0.00    -0.206 OA
ATOM     22  O   UNK d   1      41.837  11.319  42.627  0.00  0.00    -0.206 OA
BRANCH  20  23
ATOM     23  C   UNK d   1      42.882  12.302  44.816  0.00  0.00     0.076 A 
ATOM     24  C   UNK d   1      42.306  13.236  45.626  0.00  0.00     0.043 A 
ATOM     25  C   UNK d   1      43.043  14.276  46.173  0.00  0.00     0.012 A 
ATOM     26  C   UNK d   1      44.377  14.410  45.925  0.00  0.00     0.019 A 
ATOM     27 Br   UNK d   1      42.209  15.580  47.312  0.00  0.00    -0.051 Br
ATOM     28  C   UNK d   1      44.990  13.475  45.105  0.00  0.00     0.003 A 
ATOM     29  C   UNK d   1      44.251  12.451  44.569  0.00  0.00     0.025 A 
ENDBRANCH  20  23
ENDBRANCH   1  20
TORSDOF 4
ENDMDL
