MODEL 1
REMARK VINA RESULT:    -7.902      0.000      0.000
REMARK INTER + INTRA:          -9.593
REMARK INTER:                  -9.288
REMARK INTRA:                  -0.305
REMARK UNBOUND:                -0.305
REMARK  3 active torsions:
REMARK  status: ('A' for Active; 'I' for Inactive)
REMARK    1  A    between atoms: S_1  and  N_4 
REMARK    2  A    between atoms: S_1  and  C_20 
REMARK    3  A    between atoms: N_7  and  C_10 
ROOT
ATOM      1  N   UNK d   1      42.496   9.312  44.446  0.00  0.00    -0.203 NA
ATOM      2  C   UNK d   1      41.440  10.006  45.082  0.00  0.00     0.127 C 
ATOM      3  C   UNK d   1      41.808  11.270  45.775  0.00  0.00     0.138 C 
ATOM      4  N   UNK d   1      42.762  12.061  44.981  0.00  0.00    -0.377 N 
ATOM      5  C   UNK d   1      42.973  11.575  43.634  0.00  0.00     0.138 C 
ATOM      6  C   UNK d   1      43.450  10.141  43.763  0.00  0.00     0.127 C 
ENDROOT
BRANCH   1   7
ATOM      7  S   UNK d   1      43.213   8.066  45.355  0.00  0.00     0.243 S 
ATOM      8  O   UNK d   1      42.098   7.130  45.803  0.00  0.00    -0.206 OA
ATOM      9  O   UNK d   1      43.829   8.608  46.611  0.00  0.00    -0.206 OA
BRANCH   7  10
ATOM     10  C   UNK d   1      44.333   7.095  44.437  0.00  0.00     0.074 A 
ATOM     11  C   UNK d   1      44.082   5.758  44.158  0.00  0.00     0.026 A 
ATOM     12  C   UNK d   1      44.968   4.992  43.433  0.00  0.00     0.020 A 
ATOM     13  C   UNK d   1      46.136   5.579  42.975  0.00  0.00     0.011 A 
ATOM     14  C   UNK d   1      46.430   6.906  43.226  0.00  0.00     0.020 A 
ATOM     15 Br   UNK d   1      47.356   4.499  41.968  0.00  0.00    -0.051 Br
ATOM     16  C   UNK d   1      45.519   7.635  43.954  0.00  0.00     0.026 A 
ENDBRANCH   7  10
ENDBRANCH   1   7
BRANCH   4  17
ATOM     17  C   UNK d   1      43.397  13.198  45.532  0.00  0.00     0.053 A 
ATOM     18  C   UNK d   1      44.687  13.508  45.118  0.00  0.00     0.085 A 
ATOM     19  C   UNK d   1      45.303  14.631  45.668  0.00  0.00     0.176 A 
ATOM     20  N   UNK d   1      44.688  15.394  46.562  0.00  0.00    -0.198 N 
ATOM     21  N   UNK d   1      46.528  15.130  45.432  0.00  0.00    -0.128 NA
ATOM     22  C   UNK d   1      45.531  16.384  46.896  0.00  0.00     0.148 A 
ATOM     23  N   UNK d   1      43.478  15.114  46.959  0.00  0.00    -0.174 NA
ATOM     24  N   UNK d   1      46.663  16.206  46.188  0.00  0.00    -0.133 NA
ATOM     25  C   UNK d   1      45.269  17.489  47.874  0.00  0.00     0.095 C 
ATOM     26  C   UNK d   1      42.832  14.031  46.454  0.00  0.00     0.168 A 
ENDBRANCH   4  17
TORSDOF 3
ENDMDL
