MODEL 1
REMARK VINA RESULT:    -8.069      0.000      0.000
REMARK INTER + INTRA:         -11.025
REMARK INTER:                 -10.427
REMARK INTRA:                  -0.597
REMARK UNBOUND:                -0.597
REMARK  5 active torsions:
REMARK  status: ('A' for Active; 'I' for Inactive)
REMARK    1  A    between atoms: S_1  and  N_4 
REMARK    2  A    between atoms: S_1  and  C_26 
REMARK    3  A    between atoms: C_10  and  C_11 
REMARK    4  A    between atoms: C_11  and  C_12 
REMARK       I    between atoms: C_12  and  N_14 
REMARK    5  A    between atoms: N_17  and  C_20 
ROOT
ATOM      1  N   UNK d   1      40.693  12.974  46.013  0.00  0.00    -0.191 NA
ATOM      2  C   UNK d   1      40.109  14.273  45.974  0.00  0.00     0.128 C 
ATOM      3  C   UNK d   1      38.641  14.318  46.334  0.00  0.00     0.138 C 
ATOM      4  N   UNK d   1      38.374  13.513  47.528  0.00  0.00    -0.358 N 
ATOM      5  C   UNK d   1      38.991  12.206  47.479  0.00  0.00     0.237 C 
ATOM      6  O   UNK d   1      38.916  11.401  48.411  0.00  0.00    -0.272 OA
ATOM      7  C   UNK d   1      39.714  11.966  46.186  0.00  0.00     0.175 C 
ATOM      8  H   UNK d   1      37.817  13.808  48.329  0.00  0.00     0.162 HD
ENDROOT
BRANCH   7   9
ATOM      9  C   UNK d   1      40.135  10.560  46.015  0.00  0.00     0.133 C 
BRANCH   9  10
ATOM     10  C   UNK d   1      40.832  10.405  44.715  0.00  0.00     0.221 C 
ATOM     11  O   UNK d   1      40.447  11.152  43.777  0.00  0.00    -0.273 OA
ATOM     12  N   UNK d   1      41.886   9.459  44.531  0.00  0.00    -0.349 N 
ATOM     13  C   UNK d   1      42.316   8.612  45.610  0.00  0.00     0.145 C 
ATOM     14  C   UNK d   1      42.519   9.364  43.242  0.00  0.00     0.145 C 
ATOM     15  C   UNK d   1      42.853   7.286  45.172  0.00  0.00     0.143 C 
ATOM     16  N   UNK d   1      43.510   7.314  43.876  0.00  0.00    -0.378 N 
ATOM     17  C   UNK d   1      42.721   7.925  42.816  0.00  0.00     0.143 C 
BRANCH  16  18
ATOM     18  C   UNK d   1      44.783   6.800  43.598  0.00  0.00     0.030 A 
ATOM     19  C   UNK d   1      45.823   7.668  43.345  0.00  0.00     0.029 A 
ATOM     20  C   UNK d   1      47.078   7.156  43.056  0.00  0.00     0.002 A 
ATOM     21  C   UNK d   1      47.338   5.809  43.009  0.00  0.00     0.000 A 
ATOM     22  C   UNK d   1      46.297   4.946  43.262  0.00  0.00     0.002 A 
ATOM     23  C   UNK d   1      45.037   5.451  43.552  0.00  0.00     0.029 A 
ENDBRANCH  16  18
ENDBRANCH   9  10
ENDBRANCH   7   9
BRANCH   1  24
ATOM     24  S   UNK d   1      41.991  12.952  47.109  0.00  0.00     0.244 S 
ATOM     25  O   UNK d   1      42.334  11.591  47.627  0.00  0.00    -0.206 OA
ATOM     26  O   UNK d   1      41.676  13.802  48.334  0.00  0.00    -0.206 OA
BRANCH  24  27
ATOM     27  C   UNK d   1      43.441  13.652  46.412  0.00  0.00     0.074 A 
ATOM     28  C   UNK d   1      44.067  14.767  46.956  0.00  0.00     0.026 A 
ATOM     29  C   UNK d   1      45.194  15.331  46.428  0.00  0.00     0.020 A 
ATOM     30  C   UNK d   1      45.767  14.798  45.303  0.00  0.00     0.011 A 
ATOM     31  C   UNK d   1      45.165  13.674  44.727  0.00  0.00     0.020 A 
ATOM     32 Br   UNK d   1      47.337  15.538  44.522  0.00  0.00    -0.051 Br
ATOM     33  C   UNK d   1      44.031  13.132  45.284  0.00  0.00     0.026 A 
ENDBRANCH  24  27
ENDBRANCH   1  24
TORSDOF 5
ENDMDL
