/Users/jonathanwahrer/Desktop/Msc/3_Semester/Drug_Design_Praktikum/waehrer_HTS_screening/HTS_experiment/out/docking_results/vina_output/2qfa/1112_docked.pdbqt
 OpenBabel03162220213D

 32 35  0  0  0  0  0  0  0  0999 V2000
   40.5770   12.4880   42.9940 C   0  0  0  0  0  2  0  0  0  0  0  0
   41.4000   11.3280   43.4150 C   0  0  0  0  0  0  0  0  0  0  0  0
   42.5260   11.4100   44.1780 C   0  0  0  0  0  3  0  0  0  0  0  0
   43.2470   10.2730   44.5280 C   0  0  0  0  0  3  0  0  0  0  0  0
   42.8590    9.0280   44.1240 C   0  0  0  0  0  0  0  0  0  0  0  0
   41.7170    8.9410   43.3510 C   0  0  0  0  0  3  0  0  0  0  0  0
   40.9990   10.0690   43.0010 C   0  0  0  0  0  3  0  0  0  0  0  0
   43.7450    7.5710   44.5480 S   0  0  0  0  0  0  0  0  0  0  0  0
   44.6740    7.8090   45.6890 O   0  0  0  0  0  0  0  0  0  0  0  0
   42.7110    6.5660   45.0140 O   0  0  0  0  0  0  0  0  0  0  0  0
   44.5540    6.8880   43.2070 N   0  0  0  0  0  0  0  0  0  0  0  0
   45.1130    5.5910   43.4810 C   0  0  0  0  0  2  0  0  0  0  0  0
   46.1750    5.3380   42.4080 C   0  0  0  0  0  2  0  0  0  0  0  0
   47.3010    6.0940   42.6560 O   0  0  0  0  0  0  0  0  0  0  0  0
   46.9340    7.2260   43.4050 C   0  0  0  0  0  2  0  0  0  0  0  0
   45.6440    7.7540   42.7960 C   0  0  0  0  0  2  0  0  0  0  0  0
   40.3410   13.3870   44.0550 O   0  0  0  0  0  0  0  0  0  0  0  0
   39.1230   13.5970   44.6550 C   0  0  0  0  0  0  0  0  0  0  0  0
   38.1730   14.0240   43.9710 O   0  0  0  0  0  0  0  0  0  0  0  0
   38.9290   13.3280   46.0770 C   0  0  0  0  0  2  0  0  0  0  0  0
   39.6910   12.2150   46.5630 N   0  0  0  0  0  0  0  0  0  0  0  0
   40.8820   12.3650   47.3460 C   0  0  0  0  0  0  0  0  0  0  0  0
   41.4010   13.4620   47.7010 O   0  0  0  0  0  0  0  0  0  0  0  0
   41.4060   11.0440   47.6740 C   0  0  0  0  0  0  0  0  0  0  0  0
   40.5830   10.0970   47.1230 C   0  0  0  0  0  0  0  0  0  0  0  0
   42.5000   10.6090   48.3860 C   0  0  0  0  0  3  0  0  0  0  0  0
   40.8540    8.7520   47.2840 C   0  0  0  0  0  3  0  0  0  0  0  0
   39.5040   10.8170   46.4240 C   0  0  0  0  0  0  0  0  0  0  0  0
   41.9570    8.3300   48.0030 C   0  0  0  0  0  3  0  0  0  0  0  0
   42.7940    9.2730   48.5630 C   0  0  0  0  0  0  0  0  0  0  0  0
   44.3270    8.7400   49.5630 Br  0  0  0  0  0  0  0  0  0  0  0  0
   38.5540   10.3020   45.7950 O   0  0  0  0  0  0  0  0  0  0  0  0
  1  2  1  0  0  0  0
  1 17  1  0  0  0  0
  2  3  1  0  0  0  0
  3  4  2  0  0  0  0
  5  4  1  0  0  0  0
  5  8  1  0  0  0  0
  6  5  2  0  0  0  0
  7  6  1  0  0  0  0
  7  2  2  0  0  0  0
  8 10  2  0  0  0  0
  8  9  2  0  0  0  0
 11 12  1  0  0  0  0
 11  8  1  0  0  0  0
 13 14  1  0  0  0  0
 13 12  1  0  0  0  0
 14 15  1  0  0  0  0
 16 11  1  0  0  0  0
 16 15  1  0  0  0  0
 17 18  1  0  0  0  0
 18 20  1  0  0  0  0
 19 18  2  0  0  0  0
 20 21  1  0  0  0  0
 21 22  1  0  0  0  0
 22 24  1  0  0  0  0
 22 23  2  0  0  0  0
 24 26  1  0  0  0  0
 25 27  1  0  0  0  0
 25 24  2  0  0  0  0
 26 30  2  0  0  0  0
 27 29  2  0  0  0  0
 28 21  1  0  0  0  0
 28 25  1  0  0  0  0
 29 30  1  0  0  0  0
 30 31  1  0  0  0  0
 32 28  2  0  0  0  0
M  END
>  <Pose>
1

>  <Score>
-6.496

$$$$
