MODEL 1
REMARK VINA RESULT:    -6.496      0.000      0.000
REMARK INTER + INTRA:         -11.953
REMARK INTER:                  -9.155
REMARK INTRA:                  -2.798
REMARK UNBOUND:                -2.798
REMARK  7 active torsions:
REMARK  status: ('A' for Active; 'I' for Inactive)
REMARK    1  A    between atoms: S_1  and  N_4 
REMARK    2  A    between atoms: S_1  and  C_10 
REMARK    3  A    between atoms: C_13  and  C_16 
REMARK    4  A    between atoms: C_16  and  O_17 
REMARK    5  A    between atoms: O_17  and  C_18 
REMARK    6  A    between atoms: C_18  and  C_20 
REMARK    7  A    between atoms: C_20  and  N_21 
ROOT
ATOM      1  C   UNK d   1      40.577  12.488  42.994  0.00  0.00     0.217 C 
ENDROOT
BRANCH   1   2
ATOM      2  C   UNK d   1      41.400  11.328  43.415  0.00  0.00    -0.034 A 
ATOM      3  C   UNK d   1      42.526  11.410  44.178  0.00  0.00     0.011 A 
ATOM      4  C   UNK d   1      43.247  10.273  44.528  0.00  0.00     0.025 A 
ATOM      5  C   UNK d   1      42.859   9.028  44.124  0.00  0.00     0.074 A 
ATOM      6  C   UNK d   1      41.717   8.941  43.351  0.00  0.00     0.025 A 
ATOM      7  C   UNK d   1      40.999  10.069  43.001  0.00  0.00     0.011 A 
BRANCH   5   8
ATOM      8  S   UNK d   1      43.745   7.571  44.548  0.00  0.00     0.243 S 
ATOM      9  O   UNK d   1      44.674   7.809  45.689  0.00  0.00    -0.206 OA
ATOM     10  O   UNK d   1      42.711   6.566  45.014  0.00  0.00    -0.206 OA
BRANCH   8  11
ATOM     11  N   UNK d   1      44.554   6.888  43.207  0.00  0.00    -0.202 NA
ATOM     12  C   UNK d   1      45.113   5.591  43.481  0.00  0.00     0.134 C 
ATOM     13  C   UNK d   1      46.175   5.338  42.408  0.00  0.00     0.183 C 
ATOM     14  O   UNK d   1      47.301   6.094  42.656  0.00  0.00    -0.389 OA
ATOM     15  C   UNK d   1      46.934   7.226  43.405  0.00  0.00     0.183 C 
ATOM     16  C   UNK d   1      45.644   7.754  42.796  0.00  0.00     0.134 C 
ENDBRANCH   8  11
ENDBRANCH   5   8
ENDBRANCH   1   2
BRANCH   1  17
ATOM     17  O   UNK d   1      40.341  13.387  44.055  0.00  0.00    -0.316 OA
BRANCH  17  18
ATOM     18  C   UNK d   1      39.123  13.597  44.655  0.00  0.00     0.277 C 
ATOM     19  O   UNK d   1      38.173  14.024  43.971  0.00  0.00    -0.263 OA
BRANCH  18  20
ATOM     20  C   UNK d   1      38.929  13.328  46.077  0.00  0.00     0.246 C 
BRANCH  20  21
ATOM     21  N   UNK d   1      39.691  12.215  46.563  0.00  0.00    -0.271 N 
ATOM     22  C   UNK d   1      40.882  12.365  47.346  0.00  0.00     0.262 A 
ATOM     23  O   UNK d   1      41.401  13.462  47.701  0.00  0.00    -0.267 OA
ATOM     24  C   UNK d   1      41.406  11.044  47.674  0.00  0.00     0.049 A 
ATOM     25  C   UNK d   1      40.583  10.097  47.123  0.00  0.00     0.048 A 
ATOM     26  C   UNK d   1      42.500  10.609  48.386  0.00  0.00     0.037 A 
ATOM     27  C   UNK d   1      40.854   8.752  47.284  0.00  0.00     0.019 A 
ATOM     28  C   UNK d   1      39.504  10.817  46.424  0.00  0.00     0.262 A 
ATOM     29  C   UNK d   1      41.957   8.330  48.003  0.00  0.00     0.020 A 
ATOM     30  C   UNK d   1      42.794   9.273  48.563  0.00  0.00     0.011 A 
ATOM     31 Br   UNK d   1      44.327   8.740  49.563  0.00  0.00    -0.051 Br
ATOM     32  O   UNK d   1      38.554  10.302  45.795  0.00  0.00    -0.267 OA
ENDBRANCH  20  21
ENDBRANCH  18  20
ENDBRANCH  17  18
ENDBRANCH   1  17
TORSDOF 7
ENDMDL
