/Users/jonathanwahrer/Desktop/Msc/3_Semester/Drug_Design_Praktikum/waehrer_HTS_screening/HTS_experiment/out/docking_results/vina_output/2qfa/1113_docked.pdbqt
 OpenBabel03162220223D

 28 31  0  0  0  0  0  0  0  0999 V2000
   49.9660    3.7630   44.7730 C   0  0  0  0  0  0  0  0  0  0  0  0
   50.3910    2.7090   44.0560 N   0  0  0  0  0  0  0  0  0  0  0  0
   49.5840    2.5610   42.9740 C   0  0  0  0  0  3  0  0  0  0  0  0
   48.6390    3.5170   42.9930 N   0  0  0  0  0  0  0  0  0  0  0  0
   48.8580    4.2510   44.0730 C   0  0  0  0  0  3  0  0  0  0  0  0
   47.6010    3.6730   41.9940 C   0  0  0  0  0  2  0  0  0  0  0  0
   46.5910    4.6760   42.4080 C   0  0  0  0  0  0  0  0  0  0  0  0
   46.4150    5.8930   41.8290 N   0  0  0  0  0  0  0  0  0  0  0  0
   45.4460    6.4970   42.4480 O   0  0  0  0  0  0  0  0  0  0  0  0
   44.9600    5.7570   43.4110 C   0  0  0  0  0  0  0  0  0  0  0  0
   45.6840    4.6090   43.3840 N   0  0  0  0  0  0  0  0  0  0  0  0
   43.8470    6.0770   44.3560 C   0  0  0  0  0  2  0  0  0  0  0  0
   43.2900    7.3920   43.9330 C   0  0  0  0  0  0  0  0  0  0  0  0
   42.2860    7.4050   42.9780 C   0  0  0  0  0  3  0  0  0  0  0  0
   41.7150    8.5670   42.5300 C   0  0  0  0  0  3  0  0  0  0  0  0
   42.1600    9.7510   43.0530 C   0  0  0  0  0  0  0  0  0  0  0  0
   43.1430    9.7910   43.9920 C   0  0  0  0  0  3  0  0  0  0  0  0
   41.3890   11.3900   42.4540 Br  0  0  0  0  0  0  0  0  0  0  0  0
   43.7060    8.5950   44.4290 C   0  0  0  0  0  3  0  0  0  0  0  0
   50.6410    4.3970   46.2560 S   0  0  0  0  0  0  0  0  0  0  0  0
   51.2800    3.2360   47.0080 O   0  0  0  0  0  0  0  0  0  0  0  0
   51.7880    5.3320   45.9290 O   0  0  0  0  0  0  0  0  0  0  0  0
   49.5260    5.1310   47.2690 N   0  0  0  0  0  0  0  0  0  0  0  0
   49.1740    4.4810   48.4620 C   0  0  0  0  0  2  0  0  0  0  0  0
   49.1540    5.4400   49.6140 C   0  0  0  0  0  2  0  0  0  0  0  0
   48.2720    6.4580   49.2970 O   0  0  0  0  0  0  0  0  0  0  0  0
   48.7210    7.2450   48.2440 C   0  0  0  0  0  2  0  0  0  0  0  0
   49.2130    6.4800   47.0770 C   0  0  0  0  0  2  0  0  0  0  0  0
  1 20  1  0  0  0  0
  2  1  1  0  0  0  0
  3  4  1  0  0  0  0
  3  2  2  0  0  0  0
  4  5  1  0  0  0  0
  5  1  2  0  0  0  0
  6  7  1  0  0  0  0
  6  4  1  0  0  0  0
  7 11  1  0  0  0  0
  8  7  2  0  0  0  0
  8  9  1  0  0  0  0
  9 10  1  0  0  0  0
 10 12  1  0  0  0  0
 11 10  2  0  0  0  0
 13 12  1  0  0  0  0
 13 19  1  0  0  0  0
 14 13  2  0  0  0  0
 15 14  1  0  0  0  0
 15 16  2  0  0  0  0
 16 17  1  0  0  0  0
 17 19  2  0  0  0  0
 18 16  1  0  0  0  0
 20 21  2  0  0  0  0
 20 23  1  0  0  0  0
 22 20  2  0  0  0  0
 23 24  1  0  0  0  0
 24 25  1  0  0  0  0
 26 25  1  0  0  0  0
 27 26  1  0  0  0  0
 28 23  1  0  0  0  0
 28 27  1  0  0  0  0
M  END
>  <Pose>
1

>  <Score>
-7.583

$$$$
