/Users/jonathanwahrer/Desktop/Msc/3_Semester/Drug_Design_Praktikum/waehrer_HTS_screening/HTS_experiment/out/docking_results/vina_output/2qfa/1114_docked.pdbqt
 OpenBabel03162220223D

 27 30  0  0  0  0  0  0  0  0999 V2000
   49.3710    3.9100   44.2270 C   0  0  0  0  0  0  0  0  0  0  0  0
   49.0240    5.0630   44.8260 N   0  0  0  0  0  0  0  0  0  0  0  0
   47.9620    5.5780   44.1780 C   0  0  0  0  0  3  0  0  0  0  0  0
   47.6050    4.7820   43.1590 N   0  0  0  0  0  0  0  0  0  0  0  0
   48.4700    3.7560   43.1870 C   0  0  0  0  0  3  0  0  0  0  0  0
   46.5130    4.9960   42.2320 C   0  0  0  0  0  2  0  0  0  0  0  0
   45.4210    5.8110   42.8130 C   0  0  0  0  0  0  0  0  0  0  0  0
   44.5860    5.3930   43.7830 N   0  0  0  0  0  0  0  0  0  0  0  0
   43.7530    6.3520   44.0530 O   0  0  0  0  0  0  0  0  0  0  0  0
   43.9880    7.3980   43.3090 C   0  0  0  0  0  0  0  0  0  0  0  0
   45.0310    7.0630   42.5320 N   0  0  0  0  0  0  0  0  0  0  0  0
   43.2400    8.6550   43.3530 C   0  0  0  0  0  0  0  0  0  0  0  0
   43.6950    9.7520   44.0550 C   0  0  0  0  0  3  0  0  0  0  0  0
   42.9710   10.9420   44.0870 C   0  0  0  0  0  0  0  0  0  0  0  0
   41.7750   11.0640   43.4160 C   0  0  0  0  0  3  0  0  0  0  0  0
   43.6200   12.4510   45.0660 Br  0  0  0  0  0  0  0  0  0  0  0  0
   41.3180    9.9690   42.7140 C   0  0  0  0  0  3  0  0  0  0  0  0
   42.0450    8.7770   42.6840 C   0  0  0  0  0  3  0  0  0  0  0  0
   50.6940    2.8260   44.6740 S   0  0  0  0  0  0  0  0  0  0  0  0
   51.9570    3.6460   44.6830 O   0  0  0  0  0  0  0  0  0  0  0  0
   50.5000    2.2890   46.0560 O   0  0  0  0  0  0  0  0  0  0  0  0
   50.8730    1.5670   43.5310 N   0  0  0  0  0  0  0  0  0  0  0  0
   50.8220    0.2630   44.0800 C   0  0  0  0  0  2  0  0  0  0  0  0
   51.7130   -0.7620   43.4580 C   0  0  0  0  0  2  0  0  0  0  0  0
   51.7750   -0.4760   42.0750 O   0  0  0  0  0  0  0  0  0  0  0  0
   52.5880    0.6590   41.9930 C   0  0  0  0  0  2  0  0  0  0  0  0
   51.8350    1.8270   42.5230 C   0  0  0  0  0  2  0  0  0  0  0  0
  1 19  1  0  0  0  0
  1  2  1  0  0  0  0
  3  2  2  0  0  0  0
  4  5  1  0  0  0  0
  4  3  1  0  0  0  0
  5  1  2  0  0  0  0
  6  7  1  0  0  0  0
  6  4  1  0  0  0  0
  7  8  2  0  0  0  0
  8  9  1  0  0  0  0
 10 12  1  0  0  0  0
 10  9  1  0  0  0  0
 11  7  1  0  0  0  0
 11 10  2  0  0  0  0
 12 13  1  0  0  0  0
 13 14  2  0  0  0  0
 14 16  1  0  0  0  0
 15 14  1  0  0  0  0
 17 15  2  0  0  0  0
 18 17  1  0  0  0  0
 18 12  2  0  0  0  0
 19 20  2  0  0  0  0
 19 21  2  0  0  0  0
 22 23  1  0  0  0  0
 22 19  1  0  0  0  0
 24 23  1  0  0  0  0
 25 24  1  0  0  0  0
 26 25  1  0  0  0  0
 26 27  1  0  0  0  0
 27 22  1  0  0  0  0
M  END
>  <Pose>
1

>  <Score>
-7.908

$$$$
