MODEL 1
REMARK VINA RESULT:    -7.908      0.000      0.000
REMARK INTER + INTRA:         -10.747
REMARK INTER:                 -10.220
REMARK INTRA:                  -0.527
REMARK UNBOUND:                -0.527
REMARK  5 active torsions:
REMARK  status: ('A' for Active; 'I' for Inactive)
REMARK    1  A    between atoms: S_1  and  N_4 
REMARK    2  A    between atoms: S_1  and  C_10 
REMARK    3  A    between atoms: N_13  and  C_15 
REMARK    4  A    between atoms: C_15  and  C_16 
REMARK    5  A    between atoms: C_19  and  C_21 
ROOT
ATOM      1  C   UNK d   1      49.371   3.910  44.227  0.00  0.00     0.188 A 
ATOM      2  N   UNK d   1      49.024   5.063  44.826  0.00  0.00    -0.229 NA
ATOM      3  C   UNK d   1      47.962   5.578  44.178  0.00  0.00     0.211 A 
ATOM      4  N   UNK d   1      47.605   4.782  43.159  0.00  0.00    -0.341 N 
ATOM      5  C   UNK d   1      48.470   3.756  43.187  0.00  0.00     0.138 A 
ENDROOT
BRANCH   4   6
ATOM      6  C   UNK d   1      46.513   4.996  42.232  0.00  0.00     0.212 C 
BRANCH   6   7
ATOM      7  C   UNK d   1      45.421   5.811  42.813  0.00  0.00     0.174 A 
ATOM      8  N   UNK d   1      44.586   5.393  43.783  0.00  0.00    -0.109 NA
ATOM      9  O   UNK d   1      43.753   6.352  44.053  0.00  0.00    -0.191 OA
ATOM     10  C   UNK d   1      43.988   7.398  43.309  0.00  0.00     0.206 A 
ATOM     11  N   UNK d   1      45.031   7.063  42.532  0.00  0.00    -0.203 NA
BRANCH  10  12
ATOM     12  C   UNK d   1      43.240   8.655  43.353  0.00  0.00     0.021 A 
ATOM     13  C   UNK d   1      43.695   9.752  44.055  0.00  0.00     0.035 A 
ATOM     14  C   UNK d   1      42.971  10.942  44.087  0.00  0.00     0.011 A 
ATOM     15  C   UNK d   1      41.775  11.064  43.416  0.00  0.00     0.019 A 
ATOM     16 Br   UNK d   1      43.620  12.451  45.066  0.00  0.00    -0.051 Br
ATOM     17  C   UNK d   1      41.318   9.969  42.714  0.00  0.00     0.002 A 
ATOM     18  C   UNK d   1      42.045   8.777  42.684  0.00  0.00     0.016 A 
ENDBRANCH  10  12
ENDBRANCH   6   7
ENDBRANCH   4   6
BRANCH   1  19
ATOM     19  S   UNK d   1      50.694   2.826  44.674  0.00  0.00     0.280 S 
ATOM     20  O   UNK d   1      51.957   3.646  44.683  0.00  0.00    -0.199 OA
ATOM     21  O   UNK d   1      50.500   2.289  46.056  0.00  0.00    -0.199 OA
BRANCH  19  22
ATOM     22  N   UNK d   1      50.873   1.567  43.531  0.00  0.00    -0.301 N 
ATOM     23  C   UNK d   1      50.822   0.263  44.080  0.00  0.00     0.161 C 
ATOM     24  C   UNK d   1      51.713  -0.762  43.458  0.00  0.00     0.188 C 
ATOM     25  O   UNK d   1      51.775  -0.476  42.075  0.00  0.00    -0.388 OA
ATOM     26  C   UNK d   1      52.588   0.659  41.993  0.00  0.00     0.188 C 
ATOM     27  C   UNK d   1      51.835   1.827  42.523  0.00  0.00     0.161 C 
ENDBRANCH  19  22
ENDBRANCH   1  19
TORSDOF 5
ENDMDL
