MODEL 1
REMARK VINA RESULT:    -7.236      0.000      0.000
REMARK INTER + INTRA:          -9.755
REMARK INTER:                  -8.505
REMARK INTRA:                  -1.250
REMARK UNBOUND:                -1.250
REMARK  3 active torsions:
REMARK  status: ('A' for Active; 'I' for Inactive)
REMARK    1  A    between atoms: C_6  and  C_17 
REMARK    2  A    between atoms: N_9  and  C_10 
REMARK    3  A    between atoms: C_23  and  O_30 
ROOT
ATOM      1  C   UNK d   1      42.464  11.430  46.924  0.00  0.00     0.246 C 
ATOM      2  N   UNK d   1      41.786  12.718  46.892  0.00  0.00    -0.065 N 
ATOM      3  C   UNK d   1      42.528  13.652  46.063  0.00  0.00     0.240 C 
ATOM      4  C   UNK d   1      43.922  13.198  45.719  0.00  0.00     0.067 C 
ATOM      5  C   UNK d   1      44.536  12.600  46.958  0.00  0.00    -0.043 A 
ATOM      6  C   UNK d   1      43.720  11.651  47.620  0.00  0.00     0.017 A 
ATOM      7  C   UNK d   1      44.173  11.066  48.769  0.00  0.00     0.113 A 
ATOM      8  C   UNK d   1      45.433  11.435  49.234  0.00  0.00     0.139 A 
ATOM      9  C   UNK d   1      46.208  12.357  48.572  0.00  0.00     0.108 A 
ATOM     10  C   UNK d   1      45.764  12.960  47.409  0.00  0.00     0.047 A 
ATOM     11  O   UNK d   1      47.390  12.512  49.267  0.00  0.00    -0.323 OA
ATOM     12  C   UNK d   1      47.254  11.905  50.528  0.00  0.00     0.352 C 
ATOM     13  O   UNK d   1      46.143  11.031  50.332  0.00  0.00    -0.320 OA
ATOM     14  C   UNK d   1      41.576  13.315  48.166  0.00  0.00     0.270 C 
ATOM     15  H   UNK d   1      40.864  12.559  46.435  0.00  0.00     0.280 HD
ENDROOT
BRANCH   1  16
ATOM     16  C   UNK d   1      41.572  10.320  47.230  0.00  0.00     0.208 C 
ATOM     17  C   UNK d   1      40.274  10.632  46.453  0.00  0.00     0.261 C 
ATOM     18  N   UNK d   1      40.435  10.633  45.045  0.00  0.00    -0.187 NA
ATOM     19  O   UNK d   1      39.207  10.857  47.031  0.00  0.00    -0.270 OA
ATOM     20  C   UNK d   1      41.259   9.901  44.386  0.00  0.00     0.190 C 
ATOM     21  S   UNK d   1      41.392   9.969  42.606  0.00  0.00    -0.010 SA
ATOM     22  N   UNK d   1      42.079   9.022  45.191  0.00  0.00    -0.259 N 
ATOM     23  C   UNK d   1      41.939   9.013  46.604  0.00  0.00     0.246 C 
ATOM     24  O   UNK d   1      42.125   7.949  47.196  0.00  0.00    -0.272 OA
BRANCH  22  25
ATOM     25  C   UNK d   1      43.011   8.172  44.588  0.00  0.00     0.044 A 
ATOM     26  C   UNK d   1      44.138   8.760  44.000  0.00  0.00     0.031 A 
ATOM     27  C   UNK d   1      45.100   7.987  43.388  0.00  0.00     0.021 A 
ATOM     28  C   UNK d   1      44.945   6.605  43.355  0.00  0.00     0.011 A 
ATOM     29  C   UNK d   1      43.814   6.026  43.947  0.00  0.00     0.021 A 
ATOM     30 Br   UNK d   1      46.240   5.511  42.527  0.00  0.00    -0.051 Br
ATOM     31  C   UNK d   1      42.865   6.813  44.553  0.00  0.00     0.031 A 
ENDBRANCH  22  25
ENDBRANCH   1  16
BRANCH   7  32
ATOM     32  O   UNK d   1      43.411  10.136  49.464  0.00  0.00    -0.352 OA
ATOM     33  C   UNK d   1      42.725  10.552  50.639  0.00  0.00     0.210 C 
ENDBRANCH   7  32
TORSDOF 3
ENDMDL
