/Users/jonathanwahrer/Desktop/Msc/3_Semester/Drug_Design_Praktikum/waehrer_HTS_screening/HTS_experiment/out/docking_results/vina_output/2qfa/1143_docked.pdbqt
 OpenBabel03162220233D

 33 37  0  0  1  0  0  0  0  0999 V2000
   42.4640   11.4300   46.9240 C   0  0  1  0  0  3  0  0  0  0  0  0
   41.7860   12.7180   46.8920 N   0  0  0  0  0  4  0  0  0  0  0  0
   42.5280   13.6520   46.0630 C   0  0  0  0  0  2  0  0  0  0  0  0
   43.9220   13.1980   45.7190 C   0  0  0  0  0  2  0  0  0  0  0  0
   44.5360   12.6000   46.9580 C   0  0  0  0  0  0  0  0  0  0  0  0
   43.7200   11.6510   47.6200 C   0  0  0  0  0  0  0  0  0  0  0  0
   44.1730   11.0660   48.7690 C   0  0  0  0  0  0  0  0  0  0  0  0
   45.4330   11.4350   49.2340 C   0  0  0  0  0  0  0  0  0  0  0  0
   46.2080   12.3570   48.5720 C   0  0  0  0  0  0  0  0  0  0  0  0
   45.7640   12.9600   47.4090 C   0  0  0  0  0  3  0  0  0  0  0  0
   47.3900   12.5120   49.2670 O   0  0  0  0  0  0  0  0  0  0  0  0
   47.2540   11.9050   50.5280 C   0  0  0  0  0  2  0  0  0  0  0  0
   46.1430   11.0310   50.3320 O   0  0  0  0  0  0  0  0  0  0  0  0
   41.5760   13.3150   48.1660 C   0  0  0  0  0  1  0  0  0  0  0  0
   40.8640   12.5590   46.4350 H   0  0  0  0  0  0  0  0  0  0  0  0
   41.5720   10.3200   47.2300 C   0  0  1  0  0  3  0  0  0  0  0  0
   40.2740   10.6320   46.4530 C   0  0  0  0  0  0  0  0  0  0  0  0
   40.4350   10.6330   45.0450 N   0  0  0  0  0  2  0  0  0  0  0  0
   39.2070   10.8570   47.0310 O   0  0  0  0  0  0  0  0  0  0  0  0
   41.2590    9.9010   44.3860 C   0  0  0  0  0  0  0  0  0  0  0  0
   41.3920    9.9690   42.6060 S   0  0  0  0  0  0  0  0  0  0  0  0
   42.0790    9.0220   45.1910 N   0  0  0  0  0  0  0  0  0  0  0  0
   41.9390    9.0130   46.6040 C   0  0  0  0  0  0  0  0  0  0  0  0
   42.1250    7.9490   47.1960 O   0  0  0  0  0  0  0  0  0  0  0  0
   43.0110    8.1720   44.5880 C   0  0  0  0  0  0  0  0  0  0  0  0
   44.1380    8.7600   44.0000 C   0  0  0  0  0  3  0  0  0  0  0  0
   45.1000    7.9870   43.3880 C   0  0  0  0  0  3  0  0  0  0  0  0
   44.9450    6.6050   43.3550 C   0  0  0  0  0  0  0  0  0  0  0  0
   43.8140    6.0260   43.9470 C   0  0  0  0  0  3  0  0  0  0  0  0
   46.2400    5.5110   42.5270 Br  0  0  0  0  0  0  0  0  0  0  0  0
   42.8650    6.8130   44.5530 C   0  0  0  0  0  3  0  0  0  0  0  0
   43.4110   10.1360   49.4640 O   0  0  0  0  0  0  0  0  0  0  0  0
   42.7250   10.5520   50.6390 C   0  0  0  0  0  1  0  0  0  0  0  0
  1 16  1  0  0  0  0
  1  6  1  1  0  0  0
  2  1  1  0  0  0  0
  2 14  1  0  0  0  0
  3  2  1  0  0  0  0
  4  3  1  0  0  0  0
  4  5  1  0  0  0  0
  5 10  2  0  0  0  0
  5  6  1  0  0  0  0
  6  7  2  0  0  0  0
  7  8  1  0  0  0  0
  7 32  1  0  0  0  0
  8 13  1  0  0  0  0
  9  8  2  0  0  0  0
  9 11  1  0  0  0  0
 10  9  1  0  0  0  0
 11 12  1  0  0  0  0
 13 12  1  0  0  0  0
 15  2  1  0  0  0  0
 16 17  1  6  0  0  0
 17 19  2  0  0  0  0
 18 17  1  0  0  0  0
 20 18  1  0  0  0  0
 20 22  1  0  0  0  0
 21 20  2  0  0  0  0
 22 23  1  0  0  0  0
 23 24  2  0  0  0  0
 23 16  1  0  0  0  0
 25 22  1  0  0  0  0
 26 25  2  0  0  0  0
 27 26  1  0  0  0  0
 28 27  2  0  0  0  0
 28 29  1  0  0  0  0
 29 31  2  0  0  0  0
 30 28  1  0  0  0  0
 31 25  1  0  0  0  0
 32 33  1  0  0  0  0
M  END
>  <Pose>
1

>  <Score>
-7.236

$$$$
