MODEL 1
REMARK VINA RESULT:    -6.521      0.000      0.000
REMARK INTER + INTRA:          -6.715
REMARK INTER:                  -6.902
REMARK INTRA:                   0.187
REMARK UNBOUND:                 0.187
REMARK  1 active torsions:
REMARK  status: ('A' for Active; 'I' for Inactive)
REMARK    1  A    between atoms: N_11  and  C_14 
ROOT
ATOM      1  S   UNK d   1      36.730  14.058  45.098  0.00  0.00     0.148 S 
ATOM      2  O   UNK d   1      35.927  15.009  45.936  0.00  0.00    -0.228 OA
ATOM      3  O   UNK d   1      36.642  14.392  43.635  0.00  0.00    -0.228 OA
ATOM      4  C   UNK d   1      38.434  14.020  45.611  0.00  0.00     0.175 C 
ATOM      5  C   UNK d   1      38.959  12.659  45.206  0.00  0.00     0.195 C 
ATOM      6  N   UNK d   1      38.347  11.653  46.050  0.00  0.00    -0.318 N 
ATOM      7  C   UNK d   1      36.965  11.779  46.462  0.00  0.00     0.143 C 
ATOM      8  C   UNK d   1      36.138  12.374  45.321  0.00  0.00     0.160 C 
ATOM      9  C   UNK d   1      39.370  10.694  46.288  0.00  0.00     0.328 C 
ATOM     10  O   UNK d   1      39.204   9.524  46.772  0.00  0.00    -0.246 OA
ATOM     11  N   UNK d   1      40.639  11.209  45.908  0.00  0.00    -0.259 N 
ATOM     12  C   UNK d   1      40.403  12.522  45.422  0.00  0.00     0.252 C 
ATOM     13  O   UNK d   1      41.266  13.424  45.209  0.00  0.00    -0.270 OA
ENDROOT
BRANCH  11  14
ATOM     14  C   UNK d   1      41.935  10.551  45.988  0.00  0.00     0.135 C 
ATOM     15  C   UNK d   1      42.044   9.703  47.243  0.00  0.00     0.058 C 
ATOM     16  C   UNK d   1      43.472   9.153  47.254  0.00  0.00     0.178 C 
ATOM     17  O   UNK d   1      43.557   8.263  46.155  0.00  0.00    -0.349 OA
ATOM     18  C   UNK d   1      42.921   8.555  44.954  0.00  0.00     0.094 A 
ATOM     19  C   UNK d   1      42.123   9.657  44.830  0.00  0.00     0.000 A 
ATOM     20  C   UNK d   1      43.135   7.679  43.901  0.00  0.00     0.044 A 
ATOM     21  C   UNK d   1      41.497   9.944  43.649  0.00  0.00     0.012 A 
ATOM     22  C   UNK d   1      41.684   9.099  42.581  0.00  0.00     0.002 A 
ATOM     23  C   UNK d   1      42.489   7.997  42.720  0.00  0.00     0.022 A 
ATOM     24 Br   UNK d   1      44.247   6.147  44.080  0.00  0.00    -0.048 Br
ENDBRANCH  11  14
TORSDOF 1
ENDMDL
