/Users/jonathanwahrer/Desktop/Msc/3_Semester/Drug_Design_Praktikum/waehrer_HTS_screening/HTS_experiment/out/docking_results/vina_output/2qfa/1151_docked.pdbqt
 OpenBabel03162220233D

 24 27  0  0  1  0  0  0  0  0999 V2000
   36.7300   14.0580   45.0980 S   0  0  0  0  0  0  0  0  0  0  0  0
   35.9270   15.0090   45.9360 O   0  0  0  0  0  0  0  0  0  0  0  0
   36.6420   14.3920   43.6350 O   0  0  0  0  0  0  0  0  0  0  0  0
   38.4340   14.0200   45.6110 C   0  0  0  0  0  2  0  0  0  0  0  0
   38.9590   12.6590   45.2060 C   0  0  2  0  0  3  0  0  0  0  0  0
   38.3470   11.6530   46.0500 N   0  0  0  0  0  0  0  0  0  0  0  0
   36.9650   11.7790   46.4620 C   0  0  0  0  0  2  0  0  0  0  0  0
   36.1380   12.3740   45.3210 C   0  0  0  0  0  2  0  0  0  0  0  0
   39.3700   10.6940   46.2880 C   0  0  0  0  0  0  0  0  0  0  0  0
   39.2040    9.5240   46.7720 O   0  0  0  0  0  0  0  0  0  0  0  0
   40.6390   11.2090   45.9080 N   0  0  0  0  0  0  0  0  0  0  0  0
   40.4030   12.5220   45.4220 C   0  0  0  0  0  0  0  0  0  0  0  0
   41.2660   13.4240   45.2090 O   0  0  0  0  0  0  0  0  0  0  0  0
   41.9350   10.5510   45.9880 C   0  0  1  0  0  3  0  0  0  0  0  0
   42.0440    9.7030   47.2430 C   0  0  0  0  0  2  0  0  0  0  0  0
   43.4720    9.1530   47.2540 C   0  0  0  0  0  2  0  0  0  0  0  0
   43.5570    8.2630   46.1550 O   0  0  0  0  0  0  0  0  0  0  0  0
   42.9210    8.5550   44.9540 C   0  0  0  0  0  0  0  0  0  0  0  0
   42.1230    9.6570   44.8300 C   0  0  0  0  0  0  0  0  0  0  0  0
   43.1350    7.6790   43.9010 C   0  0  0  0  0  0  0  0  0  0  0  0
   41.4970    9.9440   43.6490 C   0  0  0  0  0  3  0  0  0  0  0  0
   41.6840    9.0990   42.5810 C   0  0  0  0  0  3  0  0  0  0  0  0
   42.4890    7.9970   42.7200 C   0  0  0  0  0  3  0  0  0  0  0  0
   44.2470    6.1470   44.0800 Br  0  0  0  0  0  0  0  0  0  0  0  0
  1  8  1  0  0  0  0
  1  4  1  0  0  0  0
  1  2  2  0  0  0  0
  3  1  2  0  0  0  0
  5 12  1  0  0  0  0
  5  4  1  1  0  0  0
  5  6  1  0  0  0  0
  6  9  1  0  0  0  0
  6  7  1  0  0  0  0
  8  7  1  0  0  0  0
  9 10  2  0  0  0  0
 11  9  1  0  0  0  0
 12 11  1  0  0  0  0
 13 12  2  0  0  0  0
 14 11  1  6  0  0  0
 14 15  1  0  0  0  0
 15 16  1  0  0  0  0
 17 16  1  0  0  0  0
 18 17  1  0  0  0  0
 19 18  1  0  0  0  0
 19 14  1  0  0  0  0
 20 24  1  0  0  0  0
 20 18  2  0  0  0  0
 21 19  2  0  0  0  0
 22 23  2  0  0  0  0
 22 21  1  0  0  0  0
 23 20  1  0  0  0  0
M  END
>  <Pose>
1

>  <Score>
-6.521

$$$$
