/Users/jonathanwahrer/Desktop/Msc/3_Semester/Drug_Design_Praktikum/waehrer_HTS_screening/HTS_experiment/out/docking_results/vina_output/2qfa/1157_docked.pdbqt
 OpenBabel03162220233D

 24 27  0  0  1  0  0  0  0  0999 V2000
   40.5950   11.1470   44.2710 C   0  0  2  0  0  3  0  0  0  0  0  0
   41.3610   12.2810   44.9050 C   0  0  0  0  0  2  0  0  0  0  0  0
   41.2510   11.9560   46.3190 N   0  0  0  0  0  0  0  0  0  0  0  0
   39.8600   11.6300   46.5260 C   0  0  0  0  0  2  0  0  0  0  0  0
   39.4100   11.0340   45.2050 C   0  0  0  0  0  2  0  0  0  0  0  0
   41.3260    9.8910   44.3490 N   0  0  0  0  0  0  0  0  0  0  0  0
   42.5290    9.6810   43.6390 C   0  0  0  0  0  0  0  0  0  0  0  0
   43.0490   10.5510   42.8980 O   0  0  0  0  0  0  0  0  0  0  0  0
   40.9650    9.1110   44.9420 H   0  0  0  0  0  0  0  0  0  0  0  0
   43.2580    8.3950   43.7310 C   0  0  0  0  0  0  0  0  0  0  0  0
   42.7380    6.8930   44.3500 S   0  0  0  0  0  0  0  0  0  0  0  0
   44.1510    5.9790   44.0820 C   0  0  0  0  0  3  0  0  0  0  0  0
   45.0010    6.8880   43.5060 C   0  0  0  0  0  0  0  0  0  0  0  0
   44.5410    8.1280   43.3270 C   0  0  0  0  0  3  0  0  0  0  0  0
   46.7850    6.3170   43.0010 Br  0  0  0  0  0  0  0  0  0  0  0  0
   42.3340   11.9740   47.2620 C   0  0  0  0  0  0  0  0  0  0  0  0
   42.7250   13.1200   47.8510 N   0  0  0  0  0  0  0  0  0  0  0  0
   43.7430   13.1050   48.7290 C   0  0  0  0  0  3  0  0  0  0  0  0
   44.4090   11.9510   49.0530 C   0  0  0  0  0  3  0  0  0  0  0  0
   44.0300   10.7980   48.4750 N   0  0  0  0  0  0  0  0  0  0  0  0
   43.0090   10.8240   47.5960 C   0  0  0  0  0  0  0  0  0  0  0  0
   44.4920    9.5300   48.5990 C   0  0  0  0  0  3  0  0  0  0  0  0
   42.8660    9.5470   47.1940 N   0  0  0  0  0  0  0  0  0  0  0  0
   43.7480    8.7600   47.7870 N   0  0  0  0  0  0  0  0  0  0  0  0
  1  6  1  1  0  0  0
  1  2  1  0  0  0  0
  1  5  1  0  0  0  0
  2  3  1  0  0  0  0
  3  4  1  0  0  0  0
  3 16  1  0  0  0  0
  5  4  1  0  0  0  0
  6  9  1  0  0  0  0
  7 10  1  0  0  0  0
  7  6  1  0  0  0  0
  8  7  2  0  0  0  0
 10 11  1  0  0  0  0
 12 11  1  0  0  0  0
 13 12  2  0  0  0  0
 14 13  1  0  0  0  0
 14 10  2  0  0  0  0
 15 13  1  0  0  0  0
 16 21  1  0  0  0  0
 16 17  2  0  0  0  0
 17 18  1  0  0  0  0
 18 19  2  0  0  0  0
 20 22  1  0  0  0  0
 20 19  1  0  0  0  0
 21 20  1  0  0  0  0
 23 21  2  0  0  0  0
 23 24  1  0  0  0  0
 24 22  2  0  0  0  0
M  END
>  <Pose>
1

>  <Score>
-5.544

$$$$
