MODEL 1
REMARK VINA RESULT:    -7.456      0.000      0.000
REMARK INTER + INTRA:          -9.832
REMARK INTER:                  -9.636
REMARK INTRA:                  -0.197
REMARK UNBOUND:                -0.197
REMARK  5 active torsions:
REMARK  status: ('A' for Active; 'I' for Inactive)
REMARK    1  A    between atoms: C_4  and  C_6 
REMARK    2  A    between atoms: C_7  and  C_9 
REMARK    3  A    between atoms: C_11  and  C_14 
REMARK    4  A    between atoms: N_16  and  C_19 
REMARK    5  A    between atoms: C_19  and  C_20 
REMARK       I    between atoms: C_20  and  N_22 
ROOT
ATOM      1  C   UNK d   1      45.407   6.989  43.640  0.00  0.00     0.178 A 
ATOM      2  N   UNK d   1      45.724   5.689  43.506  0.00  0.00    -0.201 NA
ATOM      3  C   UNK d   1      46.995   5.561  43.088  0.00  0.00     0.229 A 
ATOM      4  N   UNK d   1      47.450   6.819  42.969  0.00  0.00    -0.102 NA
ATOM      5  O   UNK d   1      46.488   7.651  43.302  0.00  0.00    -0.195 OA
ENDROOT
BRANCH   3   6
ATOM      6  C   UNK d   1      47.745   4.335  42.815  0.00  0.00     0.221 A 
ATOM      7  N   UNK d   1      48.807   3.884  43.505  0.00  0.00    -0.147 NA
ATOM      8  N   UNK d   1      49.241   2.734  42.977  0.00  0.00    -0.253 N 
ATOM      9  C   UNK d   1      48.449   2.430  41.925  0.00  0.00     0.231 A 
ATOM     10  N   UNK d   1      47.539   3.429  41.845  0.00  0.00    -0.218 NA
BRANCH   8  11
ATOM     11  C   UNK d   1      50.366   1.943  43.446  0.00  0.00     0.254 C 
BRANCH  11  12
ATOM     12  C   UNK d   1      51.618   2.591  42.999  0.00  0.00     0.235 C 
ATOM     13  O   UNK d   1      52.122   2.234  41.911  0.00  0.00    -0.272 OA
ATOM     14  N   UNK d   1      52.221   3.592  43.795  0.00  0.00    -0.369 N 
ATOM     15  H   UNK d   1      52.607   4.481  43.372  0.00  0.00     0.159 HD
ATOM     16  H   UNK d   1      52.323   3.528  44.836  0.00  0.00     0.159 HD
ENDBRANCH  11  12
ENDBRANCH   8  11
ENDBRANCH   3   6
BRANCH   1  17
ATOM     17  C   UNK d   1      44.092   7.574  44.082  0.00  0.00     0.074 A 
ATOM     18  C   UNK d   1      43.498   8.565  43.072  0.00  0.00     0.032 A 
ATOM     19  C   UNK d   1      42.866   7.266  43.311  0.00  0.00     0.023 A 
BRANCH  18  20
ATOM     20  C   UNK d   1      42.881   9.779  43.742  0.00  0.00    -0.045 A 
ATOM     21  C   UNK d   1      43.641  10.788  44.226  0.00  0.00     0.034 A 
ATOM     22  C   UNK d   1      42.976  11.836  44.806  0.00  0.00     0.051 A 
ATOM     23  S   UNK d   1      41.341  11.395  44.663  0.00  0.00    -0.094 SA
ATOM     24 Br   UNK d   1      43.754  13.421  45.587  0.00  0.00    -0.043 Br
ATOM     25  C   UNK d   1      41.526   9.899  43.875  0.00  0.00     0.058 A 
ENDBRANCH  18  20
ENDBRANCH   1  17
TORSDOF 5
ENDMDL
