/Users/jonathanwahrer/Desktop/Msc/3_Semester/Drug_Design_Praktikum/waehrer_HTS_screening/HTS_experiment/out/docking_results/vina_output/2qfa/1160_docked.pdbqt
 OpenBabel03162220233D

 25 28  0  0  1  0  0  0  0  0999 V2000
   45.4070    6.9890   43.6400 C   0  0  0  0  0  0  0  0  0  0  0  0
   45.7240    5.6890   43.5060 N   0  0  0  0  0  0  0  0  0  0  0  0
   46.9950    5.5610   43.0880 C   0  0  0  0  0  0  0  0  0  0  0  0
   47.4500    6.8190   42.9690 N   0  0  0  0  0  0  0  0  0  0  0  0
   46.4880    7.6510   43.3020 O   0  0  0  0  0  0  0  0  0  0  0  0
   47.7450    4.3350   42.8150 C   0  0  0  0  0  0  0  0  0  0  0  0
   48.8070    3.8840   43.5050 N   0  0  0  0  0  0  0  0  0  0  0  0
   49.2410    2.7340   42.9770 N   0  0  0  0  0  0  0  0  0  0  0  0
   48.4490    2.4300   41.9250 C   0  0  0  0  0  3  0  0  0  0  0  0
   47.5390    3.4290   41.8450 N   0  0  0  0  0  0  0  0  0  0  0  0
   50.3660    1.9430   43.4460 C   0  0  0  0  0  2  0  0  0  0  0  0
   51.6180    2.5910   42.9990 C   0  0  0  0  0  0  0  0  0  0  0  0
   52.1220    2.2340   41.9110 O   0  0  0  0  0  0  0  0  0  0  0  0
   52.2210    3.5920   43.7950 N   0  0  0  0  0  0  0  0  0  0  0  0
   52.6070    4.4810   43.3720 H   0  0  0  0  0  0  0  0  0  0  0  0
   52.3230    3.5280   44.8360 H   0  0  0  0  0  0  0  0  0  0  0  0
   44.0920    7.5740   44.0820 C   0  0  1  0  0  3  0  0  0  0  0  0
   43.4980    8.5650   43.0720 C   0  0  1  0  0  3  0  0  0  0  0  0
   42.8660    7.2660   43.3110 C   0  0  0  0  0  2  0  0  0  0  0  0
   42.8810    9.7790   43.7420 C   0  0  0  0  0  0  0  0  0  0  0  0
   43.6410   10.7880   44.2260 C   0  0  0  0  0  3  0  0  0  0  0  0
   42.9760   11.8360   44.8060 C   0  0  0  0  0  0  0  0  0  0  0  0
   41.3410   11.3950   44.6630 S   0  0  0  0  0  0  0  0  0  0  0  0
   43.7540   13.4210   45.5870 Br  0  0  0  0  0  0  0  0  0  0  0  0
   41.5260    9.8990   43.8750 C   0  0  0  0  0  3  0  0  0  0  0  0
  2  1  2  0  0  0  0
  3  2  1  0  0  0  0
  4  3  2  0  0  0  0
  4  5  1  0  0  0  0
  5  1  1  0  0  0  0
  6  3  1  0  0  0  0
  6  7  2  0  0  0  0
  8 11  1  0  0  0  0
  8  7  1  0  0  0  0
  9  8  1  0  0  0  0
 10  9  2  0  0  0  0
 10  6  1  0  0  0  0
 12 11  1  0  0  0  0
 12 14  1  0  0  0  0
 13 12  2  0  0  0  0
 14 16  1  0  0  0  0
 15 14  1  0  0  0  0
 17  1  1  6  0  0  0
 18 19  1  0  0  0  0
 18 20  1  1  0  0  0
 18 17  1  0  0  0  0
 19 17  1  0  0  0  0
 20 25  2  0  0  0  0
 20 21  1  0  0  0  0
 21 22  2  0  0  0  0
 22 24  1  0  0  0  0
 23 22  1  0  0  0  0
 25 23  1  0  0  0  0
M  END
>  <Pose>
1

>  <Score>
-7.456

$$$$
