/Users/jonathanwahrer/Desktop/Msc/3_Semester/Drug_Design_Praktikum/waehrer_HTS_screening/HTS_experiment/out/docking_results/vina_output/2qfa/1161_docked.pdbqt
 OpenBabel03162220243D

 29 32  0  0  1  0  0  0  0  0999 V2000
   42.4340   10.9730   44.0390 N   0  0  0  0  0  0  0  0  0  0  0  0
   42.8810   12.0540   44.7210 C   0  0  0  0  0  0  0  0  0  0  0  0
   41.8220   12.7980   45.1490 C   0  0  0  0  0  0  0  0  0  0  0  0
   42.0270   13.9570   45.8740 C   0  0  0  0  0  3  0  0  0  0  0  0
   43.3150   14.3500   46.1580 C   0  0  0  0  0  3  0  0  0  0  0  0
   44.3980   13.6180   45.7390 C   0  0  0  0  0  3  0  0  0  0  0  0
   44.1590   12.4690   45.0190 C   0  0  0  0  0  3  0  0  0  0  0  0
   40.7200   12.1720   44.7250 N   0  0  0  0  0  0  0  0  0  0  0  0
   41.1010   11.0530   44.0450 C   0  0  1  0  0  3  0  0  0  0  0  0
   43.2880    9.9730   43.4490 C   0  0  0  0  0  2  0  0  0  0  0  0
   43.5590    8.8530   44.3830 C   0  0  0  0  0  0  0  0  0  0  0  0
   43.1850    8.9040   45.5810 O   0  0  0  0  0  0  0  0  0  0  0  0
   44.2720    7.6430   43.9580 C   0  0  0  0  0  0  0  0  0  0  0  0
   45.6830    7.4770   43.0030 S   0  0  0  0  0  0  0  0  0  0  0  0
   45.8150    5.7820   42.9820 C   0  0  0  0  0  0  0  0  0  0  0  0
   44.7410    5.3870   43.7310 C   0  0  0  0  0  3  0  0  0  0  0  0
   47.1470    4.7240   42.1200 Br  0  0  0  0  0  0  0  0  0  0  0  0
   43.9500    6.3380   44.2320 C   0  0  0  0  0  3  0  0  0  0  0  0
   40.2200   10.2820   43.5250 N   0  0  0  0  0  2  0  0  0  0  0  0
   40.3390    9.5580   42.8190 H   0  0  0  0  0  0  0  0  0  0  0  0
   39.3600   12.6260   44.9800 C   0  0  0  0  0  2  0  0  0  0  0  0
   38.8980   12.0290   46.3180 C   0  0  0  0  0  2  0  0  0  0  0  0
   38.5440   10.6440   46.1940 N   0  0  0  0  0  4  0  0  0  0  0  0
   38.5470    9.9190   47.4490 C   0  0  0  0  0  2  0  0  0  0  0  0
   37.7290   10.6130   48.5010 C   0  0  0  0  0  2  0  0  0  0  0  0
   36.3790   11.0310   48.0210 C   0  0  0  0  0  2  0  0  0  0  0  0
   36.2600   11.2980   46.5640 C   0  0  0  0  0  2  0  0  0  0  0  0
   37.1990   10.5610   45.6780 C   0  0  0  0  0  2  0  0  0  0  0  0
   39.2230   10.1480   45.5770 H   0  0  0  0  0  0  0  0  0  0  0  0
  1  9  1  0  0  0  0
  1  2  1  0  0  0  0
  2  7  2  0  0  0  0
  2  3  1  0  0  0  0
  3  4  2  0  0  0  0
  4  5  1  0  0  0  0
  6  5  2  0  0  0  0
  7  6  1  0  0  0  0
  8 21  1  0  0  0  0
  8  3  1  0  0  0  0
  9 19  1  6  0  0  0
  9  8  1  0  0  0  0
 10  1  1  0  0  0  0
 10 11  1  0  0  0  0
 11 12  2  0  0  0  0
 13 18  2  0  0  0  0
 13 11  1  0  0  0  0
 14 13  1  0  0  0  0
 15 14  1  0  0  0  0
 15 16  2  0  0  0  0
 16 18  1  0  0  0  0
 17 15  1  0  0  0  0
 20 19  1  0  0  0  0
 21 22  1  0  0  0  0
 23 22  1  0  0  0  0
 23 24  1  0  0  0  0
 24 25  1  0  0  0  0
 26 25  1  0  0  0  0
 27 26  1  0  0  0  0
 28 23  1  0  0  0  0
 28 27  1  0  0  0  0
 29 23  1  0  0  0  0
M  END
>  <Pose>
1

>  <Score>
-7.151

$$$$
