MODEL 1
REMARK VINA RESULT:    -7.151      0.000      0.000
REMARK INTER + INTRA:         -10.877
REMARK INTER:                  -9.868
REMARK INTRA:                  -1.009
REMARK UNBOUND:                -1.009
REMARK  7 active torsions:
REMARK  status: ('A' for Active; 'I' for Inactive)
REMARK    1  A    between atoms: C_5  and  C_6 
REMARK    2  A    between atoms: C_6  and  C_8 
REMARK    3  A    between atoms: C_8  and  N_9 
REMARK    4  A    between atoms: N_16  and  C_19 
REMARK    5  A    between atoms: C_17  and  N_18 
REMARK    6  A    between atoms: C_19  and  C_20 
REMARK    7  A    between atoms: C_20  and  N_21 
ROOT
ATOM      1  N   UNK d   1      42.434  10.973  44.039  0.00  0.00    -0.172 N 
ATOM      2  C   UNK d   1      42.881  12.054  44.721  0.00  0.00     0.079 A 
ATOM      3  C   UNK d   1      41.822  12.798  45.149  0.00  0.00     0.079 A 
ATOM      4  C   UNK d   1      42.027  13.957  45.874  0.00  0.00     0.032 A 
ATOM      5  C   UNK d   1      43.315  14.350  46.158  0.00  0.00     0.002 A 
ATOM      6  C   UNK d   1      44.398  13.618  45.739  0.00  0.00     0.002 A 
ATOM      7  C   UNK d   1      44.159  12.469  45.019  0.00  0.00     0.032 A 
ATOM      8  N   UNK d   1      40.720  12.172  44.725  0.00  0.00    -0.178 N 
ATOM      9  C   UNK d   1      41.101  11.053  44.045  0.00  0.00     0.703 A 
ENDROOT
BRANCH   1  10
ATOM     10  C   UNK d   1      43.288   9.973  43.449  0.00  0.00     0.232 C 
BRANCH  10  11
ATOM     11  C   UNK d   1      43.559   8.853  44.383  0.00  0.00     0.185 C 
ATOM     12  O   UNK d   1      43.185   8.904  45.581  0.00  0.00    -0.290 OA
BRANCH  11  13
ATOM     13  C   UNK d   1      44.272   7.643  43.958  0.00  0.00     0.053 A 
ATOM     14  S   UNK d   1      45.683   7.477  43.003  0.00  0.00    -0.079 SA
ATOM     15  C   UNK d   1      45.815   5.782  42.982  0.00  0.00     0.052 A 
ATOM     16  C   UNK d   1      44.741   5.387  43.731  0.00  0.00     0.028 A 
ATOM     17 Br   UNK d   1      47.147   4.724  42.120  0.00  0.00    -0.043 Br
ATOM     18  C   UNK d   1      43.950   6.338  44.232  0.00  0.00     0.024 A 
ENDBRANCH  11  13
ENDBRANCH  10  11
ENDBRANCH   1  10
BRANCH   9  19
ATOM     19  N   UNK d   1      40.220  10.282  43.525  0.00  0.00    -0.117 NA
ATOM     20  H   UNK d   1      40.339   9.558  42.819  0.00  0.00     0.206 HD
ENDBRANCH   9  19
BRANCH   8  21
ATOM     21  C   UNK d   1      39.360  12.626  44.980  0.00  0.00     0.175 C 
BRANCH  21  22
ATOM     22  C   UNK d   1      38.898  12.029  46.318  0.00  0.00     0.255 C 
BRANCH  22  23
ATOM     23  N   UNK d   1      38.544  10.644  46.194  0.00  0.00    -0.070 N 
ATOM     24  C   UNK d   1      38.547   9.919  47.449  0.00  0.00     0.235 C 
ATOM     25  C   UNK d   1      37.729  10.613  48.501  0.00  0.00     0.028 C 
ATOM     26  C   UNK d   1      36.379  11.031  48.021  0.00  0.00     0.003 C 
ATOM     27  C   UNK d   1      36.260  11.298  46.564  0.00  0.00     0.028 C 
ATOM     28  C   UNK d   1      37.199  10.561  45.678  0.00  0.00     0.235 C 
ATOM     29  H   UNK d   1      39.223  10.148  45.577  0.00  0.00     0.279 HD
ENDBRANCH  22  23
ENDBRANCH  21  22
ENDBRANCH   8  21
TORSDOF 7
ENDMDL
