/Users/jonathanwahrer/Desktop/Msc/3_Semester/Drug_Design_Praktikum/waehrer_HTS_screening/HTS_experiment/out/docking_results/vina_output/2qfa/1177_docked.pdbqt
 OpenBabel03162220253D

 33 36  0  0  1  0  0  0  0  0999 V2000
   42.6200    9.8520   47.7070 C   0  0  2  0  0  3  0  0  0  0  0  0
   42.0940   10.4240   46.4230 C   0  0  2  0  0  3  0  0  0  0  0  0
   42.2960    9.3730   45.4750 N   0  0  0  0  0  0  0  0  0  0  0  0
   42.0840    8.1540   46.2390 C   0  0  0  0  0  0  0  0  0  0  0  0
   41.7770    7.0550   45.7030 O   0  0  0  0  0  0  0  0  0  0  0  0
   42.2810    8.4360   47.6500 C   0  0  0  0  0  0  0  0  0  0  0  0
   42.1790    7.6230   48.6280 O   0  0  0  0  0  0  0  0  0  0  0  0
   42.5710    9.3990   44.0680 C   0  0  0  0  0  2  0  0  0  0  0  0
   43.9470    8.9920   43.6540 C   0  0  0  0  0  2  0  0  0  0  0  0
   43.9470    7.5610   43.0950 C   0  0  0  0  0  2  0  0  0  0  0  0
   44.5960    6.7130   44.0370 N   0  0  0  0  0  4  0  0  0  0  0  0
   44.7970    5.3570   43.6350 C   0  0  0  0  0  2  0  0  0  0  0  0
   45.9200    5.1850   42.6400 C   0  0  0  0  0  2  0  0  0  0  0  0
   46.4100    6.4780   42.3510 O   0  0  0  0  0  0  0  0  0  0  0  0
   47.0030    6.9140   43.5530 C   0  0  0  0  0  2  0  0  0  0  0  0
   45.8630    7.2580   44.4880 C   0  0  0  0  0  2  0  0  0  0  0  0
   43.9780    6.6830   44.9030 H   0  0  0  0  0  0  0  0  0  0  0  0
   42.6840   11.7220   46.1230 C   0  0  0  0  0  0  0  0  0  0  0  0
   41.9510   12.8690   46.4650 C   0  0  0  0  0  3  0  0  0  0  0  0
   42.4100   14.1440   46.2560 C   0  0  0  0  0  0  0  0  0  0  0  0
   43.6440   14.3350   45.6860 C   0  0  0  0  0  3  0  0  0  0  0  0
   41.3900   15.6880   46.7320 Br  0  0  0  0  0  0  0  0  0  0  0  0
   44.3980   13.2260   45.3350 C   0  0  0  0  0  3  0  0  0  0  0  0
   43.9050   11.9590   45.5610 C   0  0  0  0  0  3  0  0  0  0  0  0
   43.2070   10.4830   48.7060 C   0  0  1  0  0  3  0  0  0  0  0  0
   42.4060   11.1910   49.6300 O   0  0  0  0  0  1  0  0  0  0  0  0
   44.6590   10.4570   48.8670 C   0  0  0  0  0  0  0  0  0  0  0  0
   45.6390    9.0710   49.0920 S   0  0  0  0  0  0  0  0  0  0  0  0
   47.1510    9.8430   49.2550 C   0  0  0  0  0  0  0  0  0  0  0  0
   46.8290   11.1170   49.1300 N   0  0  0  0  0  0  0  0  0  0  0  0
   48.5130    9.2300   49.4840 C   0  0  0  0  0  1  0  0  0  0  0  0
   45.5900   11.4600   48.9360 C   0  0  0  0  0  0  0  0  0  0  0  0
   45.2180   12.9340   48.8350 C   0  0  0  0  0  1  0  0  0  0  0  0
  1 25  1  1  0  0  0
  2 18  1  6  0  0  0
  2  1  1  0  0  0  0
  3  4  1  0  0  0  0
  3  2  1  0  0  0  0
  4  6  1  0  0  0  0
  5  4  2  0  0  0  0
  6  1  1  0  0  0  0
  6  7  2  0  0  0  0
  8  3  1  0  0  0  0
  9  8  1  0  0  0  0
 10  9  1  0  0  0  0
 10 11  1  0  0  0  0
 11 16  1  0  0  0  0
 11 17  1  0  0  0  0
 12 11  1  0  0  0  0
 13 12  1  0  0  0  0
 14 13  1  0  0  0  0
 14 15  1  0  0  0  0
 15 16  1  0  0  0  0
 18 19  1  0  0  0  0
 20 19  2  0  0  0  0
 20 22  1  0  0  0  0
 21 20  1  0  0  0  0
 23 24  1  0  0  0  0
 23 21  2  0  0  0  0
 24 18  2  0  0  0  0
 25 27  1  0  0  0  0
 25 26  1  1  0  0  0
 27 32  2  0  0  0  0
 27 28  1  0  0  0  0
 28 29  1  0  0  0  0
 29 31  1  0  0  0  0
 30 29  2  0  0  0  0
 32 30  1  0  0  0  0
 33 32  1  0  0  0  0
M  END
>  <Pose>
1

>  <Score>
-6.080

$$$$
