MODEL 1
REMARK VINA RESULT:    -6.113      0.000      0.000
REMARK INTER + INTRA:         -10.109
REMARK INTER:                  -8.614
REMARK INTRA:                  -1.495
REMARK UNBOUND:                -1.495
REMARK  7 active torsions:
REMARK  status: ('A' for Active; 'I' for Inactive)
REMARK    1  A    between atoms: C_5  and  C_6 
REMARK    2  A    between atoms: C_6  and  C_7 
REMARK    3  A    between atoms: C_8  and  C_23 
REMARK    4  A    between atoms: N_9  and  C_14 
REMARK    5  A    between atoms: C_14  and  C_15 
REMARK    6  A    between atoms: C_15  and  C_16 
REMARK    7  A    between atoms: C_16  and  N_17 
ROOT
ATOM      1  C   UNK d   1      40.888  11.607  45.212  0.00  0.00     0.063 C 
ATOM      2  C   UNK d   1      41.338  10.181  45.153  0.00  0.00     0.161 C 
ATOM      3  N   UNK d   1      42.155  10.159  43.969  0.00  0.00    -0.332 N 
ATOM      4  C   UNK d   1      41.528  11.072  43.058  0.00  0.00     0.295 C 
ATOM      5  O   UNK d   1      41.653  11.072  41.820  0.00  0.00    -0.264 OA
ATOM      6  C   UNK d   1      40.712  12.005  43.821  0.00  0.00     0.250 C 
ATOM      7  O   UNK d   1      39.984  12.965  43.447  0.00  0.00    -0.282 OA
ENDROOT
BRANCH   3   8
ATOM      8  C   UNK d   1      43.326   9.355  43.784  0.00  0.00     0.129 C 
BRANCH   8   9
ATOM      9  C   UNK d   1      43.092   8.005  43.248  0.00  0.00     0.048 C 
BRANCH   9  10
ATOM     10  C   UNK d   1      44.193   7.077  43.216  0.00  0.00     0.236 C 
BRANCH  10  11
ATOM     11  N   UNK d   1      45.386   7.142  42.515  0.00  0.00    -0.067 N 
ATOM     12  C   UNK d   1      45.703   5.809  41.879  0.00  0.00     0.261 C 
ATOM     13  C   UNK d   1      46.285   4.902  42.911  0.00  0.00     0.195 C 
ATOM     14  O   UNK d   1      47.536   5.407  43.248  0.00  0.00    -0.388 OA
ATOM     15  C   UNK d   1      47.276   6.589  43.977  0.00  0.00     0.195 C 
ATOM     16  C   UNK d   1      46.588   7.609  43.112  0.00  0.00     0.261 C 
ATOM     17  H   UNK d   1      45.260   7.726  41.653  0.00  0.00     0.280 HD
ENDBRANCH  10  11
ENDBRANCH   9  10
ENDBRANCH   8   9
ENDBRANCH   3   8
BRANCH   2  18
ATOM     18  C   UNK d   1      42.009   9.789  46.401  0.00  0.00    -0.030 A 
ATOM     19  C   UNK d   1      43.174  10.307  46.898  0.00  0.00     0.011 A 
ATOM     20  C   UNK d   1      43.773   9.908  48.072  0.00  0.00     0.019 A 
ATOM     21  C   UNK d   1      43.173   8.919  48.810  0.00  0.00     0.011 A 
ATOM     22  C   UNK d   1      42.004   8.360  48.365  0.00  0.00     0.019 A 
ATOM     23 Br   UNK d   1      44.009   8.367  50.445  0.00  0.00    -0.051 Br
ATOM     24  C   UNK d   1      41.432   8.783  47.188  0.00  0.00     0.011 A 
ENDBRANCH   2  18
BRANCH   1  25
ATOM     25  C   UNK d   1      40.671  12.282  46.302  0.00  0.00     0.139 C 
ATOM     26  O   UNK d   1      41.586  13.274  46.692  0.00  0.00    -0.190 OA
BRANCH  25  27
ATOM     27  C   UNK d   1      39.474  12.014  47.131  0.00  0.00     0.068 A 
ATOM     28  S   UNK d   1      37.833  11.885  46.658  0.00  0.00    -0.070 SA
ATOM     29  C   UNK d   1      37.154  11.508  48.174  0.00  0.00     0.072 A 
ATOM     30  N   UNK d   1      38.209  11.497  48.963  0.00  0.00    -0.250 NA
ATOM     31  C   UNK d   1      35.723  11.246  48.558  0.00  0.00     0.078 C 
ATOM     32  C   UNK d   1      39.386  11.746  48.475  0.00  0.00     0.051 A 
ATOM     33  C   UNK d   1      40.636  11.699  49.351  0.00  0.00     0.072 C 
ENDBRANCH  25  27
ENDBRANCH   1  25
TORSDOF 7
ENDMDL
