/Users/jonathanwahrer/Desktop/Msc/3_Semester/Drug_Design_Praktikum/waehrer_HTS_screening/HTS_experiment/out/docking_results/vina_output/2qfa/1178_docked.pdbqt
 OpenBabel03162220253D

 33 36  0  0  1  0  0  0  0  0999 V2000
   40.8880   11.6070   45.2120 C   0  0  1  0  0  3  0  0  0  0  0  0
   41.3380   10.1810   45.1530 C   0  0  1  0  0  3  0  0  0  0  0  0
   42.1550   10.1590   43.9690 N   0  0  0  0  0  0  0  0  0  0  0  0
   41.5280   11.0720   43.0580 C   0  0  0  0  0  0  0  0  0  0  0  0
   41.6530   11.0720   41.8200 O   0  0  0  0  0  0  0  0  0  0  0  0
   40.7120   12.0050   43.8210 C   0  0  0  0  0  0  0  0  0  0  0  0
   39.9840   12.9650   43.4470 O   0  0  0  0  0  0  0  0  0  0  0  0
   43.3260    9.3550   43.7840 C   0  0  0  0  0  3  0  0  0  0  0  0
   43.0920    8.0050   43.2480 C   0  0  0  0  0  3  0  0  0  0  0  0
   44.1930    7.0770   43.2160 C   0  0  0  0  0  2  0  0  0  0  0  0
   45.3860    7.1420   42.5150 N   0  0  0  0  0  4  0  0  0  0  0  0
   45.7030    5.8090   41.8790 C   0  0  0  0  0  2  0  0  0  0  0  0
   46.2850    4.9020   42.9110 C   0  0  0  0  0  2  0  0  0  0  0  0
   47.5360    5.4070   43.2480 O   0  0  0  0  0  0  0  0  0  0  0  0
   47.2760    6.5890   43.9770 C   0  0  0  0  0  2  0  0  0  0  0  0
   46.5880    7.6090   43.1120 C   0  0  0  0  0  2  0  0  0  0  0  0
   45.2600    7.7260   41.6530 H   0  0  0  0  0  0  0  0  0  0  0  0
   42.0090    9.7890   46.4010 C   0  0  0  0  0  0  0  0  0  0  0  0
   43.1740   10.3070   46.8980 C   0  0  0  0  0  3  0  0  0  0  0  0
   43.7730    9.9080   48.0720 C   0  0  0  0  0  3  0  0  0  0  0  0
   43.1730    8.9190   48.8100 C   0  0  0  0  0  0  0  0  0  0  0  0
   42.0040    8.3600   48.3650 C   0  0  0  0  0  3  0  0  0  0  0  0
   44.0090    8.3670   50.4450 Br  0  0  0  0  0  0  0  0  0  0  0  0
   41.4320    8.7830   47.1880 C   0  0  0  0  0  3  0  0  0  0  0  0
   40.6710   12.2820   46.3020 C   0  0  2  0  0  3  0  0  0  0  0  0
   41.5860   13.2740   46.6920 O   0  0  0  0  0  1  0  0  0  0  0  0
   39.4740   12.0140   47.1310 C   0  0  0  0  0  0  0  0  0  0  0  0
   37.8330   11.8850   46.6580 S   0  0  0  0  0  0  0  0  0  0  0  0
   37.1540   11.5080   48.1740 C   0  0  0  0  0  0  0  0  0  0  0  0
   38.2090   11.4970   48.9630 N   0  0  0  0  0  0  0  0  0  0  0  0
   35.7230   11.2460   48.5580 C   0  0  0  0  0  1  0  0  0  0  0  0
   39.3860   11.7460   48.4750 C   0  0  0  0  0  0  0  0  0  0  0  0
   40.6360   11.6990   49.3510 C   0  0  0  0  0  1  0  0  0  0  0  0
  1 25  1  1  0  0  0
  2  1  1  0  0  0  0
  2 18  1  1  0  0  0
  3  2  1  0  0  0  0
  4  6  1  0  0  0  0
  4  3  1  0  0  0  0
  5  4  2  0  0  0  0
  6  1  1  0  0  0  0
  7  6  2  0  0  0  0
  8  3  1  0  0  0  0
  9  8  2  0  0  0  0
 10  9  1  0  0  0  0
 11 16  1  0  0  0  0
 11 10  1  0  0  0  0
 12 11  1  0  0  0  0
 12 13  1  0  0  0  0
 13 14  1  0  0  0  0
 14 15  1  0  0  0  0
 16 15  1  0  0  0  0
 17 11  1  0  0  0  0
 18 19  2  0  0  0  0
 18 24  1  0  0  0  0
 19 20  1  0  0  0  0
 20 21  2  0  0  0  0
 21 23  1  0  0  0  0
 22 21  1  0  0  0  0
 24 22  2  0  0  0  0
 25 26  1  1  0  0  0
 25 27  1  0  0  0  0
 27 32  2  0  0  0  0
 28 27  1  0  0  0  0
 28 29  1  0  0  0  0
 29 31  1  0  0  0  0
 29 30  2  0  0  0  0
 32 30  1  0  0  0  0
 32 33  1  0  0  0  0
M  END
>  <Pose>
1

>  <Score>
-6.113

$$$$
