/Users/jonathanwahrer/Desktop/Msc/3_Semester/Drug_Design_Praktikum/waehrer_HTS_screening/HTS_experiment/out/docking_results/vina_output/2qfa/1180_docked.pdbqt
 OpenBabel03162220263D

 32 35  0  0  1  0  0  0  0  0999 V2000
   41.2000   12.0510   45.2370 C   0  0  1  0  0  3  0  0  0  0  0  0
   41.3360   10.5630   45.1750 C   0  0  1  0  0  3  0  0  0  0  0  0
   42.0080   10.4070   43.9440 N   0  0  0  0  0  0  0  0  0  0  0  0
   41.2150   11.2780   43.0470 C   0  0  0  0  0  0  0  0  0  0  0  0
   41.0320   11.1280   41.8100 O   0  0  0  0  0  0  0  0  0  0  0  0
   40.6940   12.3450   43.8960 C   0  0  0  0  0  0  0  0  0  0  0  0
   39.9590   13.3380   43.6060 O   0  0  0  0  0  0  0  0  0  0  0  0
   41.4300   12.8680   46.2430 C   0  0  1  0  0  3  0  0  0  0  0  0
   40.5150   12.9700   47.2750 O   0  0  0  0  0  1  0  0  0  0  0  0
   42.6810   13.6400   46.2020 C   0  0  0  0  0  0  0  0  0  0  0  0
   44.1500   13.2740   45.3800 S   0  0  0  0  0  0  0  0  0  0  0  0
   45.0360   14.6670   45.7920 C   0  0  0  0  0  0  0  0  0  0  0  0
   44.1760   15.3400   46.5300 N   0  0  0  0  0  0  0  0  0  0  0  0
   46.4440   15.0410   45.4150 C   0  0  0  0  0  1  0  0  0  0  0  0
   42.9930   14.8590   46.7550 C   0  0  0  0  0  0  0  0  0  0  0  0
   41.9700   15.6410   47.5670 C   0  0  0  0  0  1  0  0  0  0  0  0
   41.6450    9.8790   46.3830 C   0  0  0  0  0  0  0  0  0  0  0  0
   40.6060    9.3080   47.1240 C   0  0  0  0  0  3  0  0  0  0  0  0
   40.8150    8.6470   48.3060 C   0  0  0  0  0  3  0  0  0  0  0  0
   42.1090    8.5480   48.7720 C   0  0  0  0  0  0  0  0  0  0  0  0
   43.1490    9.1040   48.0560 C   0  0  0  0  0  3  0  0  0  0  0  0
   42.4890    7.6420   50.4130 Br  0  0  0  0  0  0  0  0  0  0  0  0
   42.9140    9.7640   46.8710 C   0  0  0  0  0  3  0  0  0  0  0  0
   43.0700    9.6690   43.3490 C   0  0  0  0  0  3  0  0  0  0  0  0
   42.9590    8.2150   43.1810 C   0  0  0  0  0  3  0  0  0  0  0  0
   44.0780    7.3990   42.9360 N   0  0  0  0  0  4  0  0  0  0  0  0
   45.3470    7.9790   43.3220 C   0  0  0  0  0  2  0  0  0  0  0  0
   46.4220    7.0060   42.8480 C   0  0  0  0  0  2  0  0  0  0  0  0
   45.8720    5.7580   42.5570 O   0  0  0  0  0  0  0  0  0  0  0  0
   45.1460    5.3880   43.7080 C   0  0  0  0  0  2  0  0  0  0  0  0
   43.9340    6.2540   43.8940 C   0  0  0  0  0  2  0  0  0  0  0  0
   44.0550    6.9810   42.0000 H   0  0  0  0  0  0  0  0  0  0  0  0
  1  8  1  1  0  0  0
  2  1  1  0  0  0  0
  2 17  1  1  0  0  0
  3  2  1  0  0  0  0
  4  6  1  0  0  0  0
  4  3  1  0  0  0  0
  5  4  2  0  0  0  0
  6  1  1  0  0  0  0
  7  6  2  0  0  0  0
  8  9  1  1  0  0  0
 10  8  1  0  0  0  0
 10 15  2  0  0  0  0
 11 12  1  0  0  0  0
 11 10  1  0  0  0  0
 12 13  2  0  0  0  0
 13 15  1  0  0  0  0
 14 12  1  0  0  0  0
 15 16  1  0  0  0  0
 17 23  2  0  0  0  0
 17 18  1  0  0  0  0
 18 19  2  0  0  0  0
 19 20  1  0  0  0  0
 20 22  1  0  0  0  0
 21 20  2  0  0  0  0
 23 21  1  0  0  0  0
 24  3  1  0  0  0  0
 25 24  2  0  0  0  0
 26 25  1  0  0  0  0
 26 27  1  0  0  0  0
 26 31  1  0  0  0  0
 28 27  1  0  0  0  0
 29 28  1  0  0  0  0
 29 30  1  0  0  0  0
 30 31  1  0  0  0  0
 32 26  1  0  0  0  0
M  END
>  <Pose>
1

>  <Score>
-6.622

$$$$
