MODEL 1
REMARK VINA RESULT:    -6.050      0.000      0.000
REMARK INTER + INTRA:          -6.606
REMARK INTER:                  -6.404
REMARK INTRA:                  -0.202
REMARK UNBOUND:                -0.202
REMARK  1 active torsions:
REMARK  status: ('A' for Active; 'I' for Inactive)
REMARK    1  A    between atoms: C_14  and  C_16 
ROOT
ATOM      1  S   UNK d   1      41.504  10.950  42.990  0.00  0.00    -0.074 SA
ATOM      2  C   UNK d   1      41.129  11.647  44.515  0.00  0.00     0.088 A 
ATOM      3  C   UNK d   1      41.359  10.611  45.379  0.00  0.00     0.073 A 
ATOM      4  C   UNK d   1      41.773   9.447  44.855  0.00  0.00    -0.023 A 
ATOM      5  C   UNK d   1      41.934   9.387  43.497  0.00  0.00     0.018 A 
ATOM      6  C   UNK d   1      42.398   8.077  42.931  0.00  0.00     0.281 C 
ATOM      7  N   UNK d   1      43.631   7.703  43.621  0.00  0.00    -0.070 N 
ATOM      8  C   UNK d   1      43.501   7.688  45.045  0.00  0.00     0.239 C 
ATOM      9  C   UNK d   1      42.116   8.119  45.514  0.00  0.00     0.068 C 
ATOM     10  C   UNK d   1      44.605   8.739  43.278  0.00  0.00     0.270 C 
ATOM     11  C   UNK d   1      41.105  10.939  46.809  0.00  0.00     0.256 C 
ATOM     12  O   UNK d   1      41.280  10.069  47.713  0.00  0.00    -0.267 OA
ATOM     13  N   UNK d   1      40.664  12.246  47.142  0.00  0.00    -0.332 N 
ATOM     14  C   UNK d   1      40.854  13.404  46.318  0.00  0.00     0.219 C 
ATOM     15  N   UNK d   1      40.680  12.955  44.946  0.00  0.00    -0.358 N 
ATOM     16  H   UNK d   1      44.009   6.819  43.222  0.00  0.00     0.279 HD
ATOM     17  H   UNK d   1      40.161  12.355  48.068  0.00  0.00     0.165 HD
ATOM     18  H   UNK d   1      40.231  13.549  44.220  0.00  0.00     0.162 HD
ENDROOT
BRANCH  14  19
ATOM     19  C   UNK d   1      42.200  14.006  46.475  0.00  0.00    -0.013 A 
ATOM     20  C   UNK d   1      43.208  13.787  45.558  0.00  0.00     0.033 A 
ATOM     21  C   UNK d   1      44.463  14.338  45.686  0.00  0.00     0.049 A 
ATOM     22  C   UNK d   1      44.749  15.145  46.769  0.00  0.00     0.141 A 
ATOM     23 Br   UNK d   1      45.839  14.031  44.419  0.00  0.00    -0.048 Br
ATOM     24  C   UNK d   1      43.761  15.377  47.695  0.00  0.00     0.049 A 
ATOM     25  O   UNK d   1      46.012  15.703  46.904  0.00  0.00    -0.189 OA
ATOM     26  C   UNK d   1      42.504  14.820  47.559  0.00  0.00     0.033 A 
ATOM     27 Br   UNK d   1      44.204  16.506  49.185  0.00  0.00    -0.048 Br
ENDBRANCH  14  19
TORSDOF 1
ENDMDL
