/Users/jonathanwahrer/Desktop/Msc/3_Semester/Drug_Design_Praktikum/waehrer_HTS_screening/HTS_experiment/out/docking_results/vina_output/2qfa/1206_docked.pdbqt
 OpenBabel03162220263D

 25 28  0  0  1  0  0  0  0  0999 V2000
   41.6820   12.3490   45.5550 S   0  0  0  0  0  0  0  0  0  0  0  0
   43.3360   12.5550   44.8460 C   0  0  2  0  0  3  0  0  0  0  0  0
   43.4690   11.2280   44.1480 C   0  0  0  0  0  2  0  0  0  0  0  0
   42.8000   10.1780   44.8530 N   0  0  0  0  0  0  0  0  0  0  0  0
   41.8200   10.5700   45.6840 C   0  0  2  0  0  3  0  0  0  0  0  0
   41.3020    9.4970   46.2930 N   0  0  0  0  0  0  0  0  0  0  0  0
   41.9510    8.3960   45.8520 C   0  0  0  0  0  3  0  0  0  0  0  0
   42.8970    8.8070   44.9430 C   0  0  0  0  0  0  0  0  0  0  0  0
   44.3930   12.6190   45.9220 C   0  0  0  0  0  1  0  0  0  0  0  0
   43.8040    7.9210   44.2540 C   0  0  0  0  0  0  0  0  0  0  0  0
   43.6570    6.5390   44.4640 C   0  0  0  0  0  3  0  0  0  0  0  0
   44.4590    5.6390   43.8100 C   0  0  0  0  0  3  0  0  0  0  0  0
   45.4380    6.0160   42.9260 C   0  0  0  0  0  0  0  0  0  0  0  0
   45.6020    7.3630   42.7020 C   0  0  0  0  0  3  0  0  0  0  0  0
   44.7830    8.2840   43.3680 C   0  0  0  0  0  3  0  0  0  0  0  0
   46.2240    5.0250   42.2920 N   0  0  0  0  0  0  0  0  0  0  0  0
   46.6240    5.1810   41.1330 O   0  0  0  0  0  0  0  0  0  0  0  0
   46.5400    3.8890   42.9720 O   0  0  0  0  0  0  0  0  0  0  0  0
   40.2450    9.4890   47.2460 C   0  0  0  0  0  0  0  0  0  0  0  0
   39.0800   10.1930   47.0490 C   0  0  0  0  0  3  0  0  0  0  0  0
   38.0420   10.2020   47.9570 C   0  0  0  0  0  3  0  0  0  0  0  0
   38.1550    9.4800   49.1240 C   0  0  0  0  0  0  0  0  0  0  0  0
   39.3130    8.7600   49.3570 C   0  0  0  0  0  3  0  0  0  0  0  0
   36.7350    9.4690   50.4070 Br  0  0  0  0  0  0  0  0  0  0  0  0
   40.3370    8.7670   48.4320 C   0  0  0  0  0  3  0  0  0  0  0  0
  2  1  1  0  0  0  0
  2  9  1  1  0  0  0
  3  2  1  0  0  0  0
  3  4  1  0  0  0  0
  4  8  1  0  0  0  0
  4  5  1  0  0  0  0
  5  1  1  6  0  0  0
  5  6  1  0  0  0  0
  6 19  1  0  0  0  0
  7  6  1  0  0  0  0
  8  7  2  0  0  0  0
 10 11  1  0  0  0  0
 10  8  1  0  0  0  0
 12 11  2  0  0  0  0
 13 12  1  0  0  0  0
 14 13  2  0  0  0  0
 14 15  1  0  0  0  0
 15 10  2  0  0  0  0
 16 13  1  0  0  0  0
 16 18  2  0  0  0  0
 17 16  2  0  0  0  0
 19 25  1  0  0  0  0
 20 19  2  0  0  0  0
 20 21  1  0  0  0  0
 21 22  2  0  0  0  0
 22 23  1  0  0  0  0
 22 24  1  0  0  0  0
 25 23  2  0  0  0  0
M  END
>  <Pose>
1

>  <Score>
-7.813

$$$$
