MODEL 1
REMARK VINA RESULT:    -7.813      0.000      0.000
REMARK INTER + INTRA:          -9.532
REMARK INTER:                  -9.183
REMARK INTRA:                  -0.349
REMARK UNBOUND:                -0.349
REMARK  3 active torsions:
REMARK  status: ('A' for Active; 'I' for Inactive)
REMARK    1  A    between atoms: N_6  and  C_18 
REMARK    2  A    between atoms: C_8  and  C_9 
REMARK    3  A    between atoms: C_12  and  N_15 
ROOT
ATOM      1  S   UNK d   1      41.682  12.349  45.555  0.00  0.00    -0.087 SA
ATOM      2  C   UNK d   1      43.336  12.555  44.846  0.00  0.00     0.069 C 
ATOM      3  C   UNK d   1      43.469  11.228  44.148  0.00  0.00     0.146 C 
ATOM      4  N   UNK d   1      42.800  10.178  44.853  0.00  0.00    -0.324 N 
ATOM      5  C   UNK d   1      41.820  10.570  45.684  0.00  0.00     0.154 A 
ATOM      6  N   UNK d   1      41.302   9.497  46.293  0.00  0.00    -0.300 N 
ATOM      7  C   UNK d   1      41.951   8.396  45.852  0.00  0.00     0.130 A 
ATOM      8  C   UNK d   1      42.897   8.807  44.943  0.00  0.00     0.062 A 
ATOM      9  C   UNK d   1      44.393  12.619  45.922  0.00  0.00     0.023 C 
ENDROOT
BRANCH   8  10
ATOM     10  C   UNK d   1      43.804   7.921  44.254  0.00  0.00    -0.008 A 
ATOM     11  C   UNK d   1      43.657   6.539  44.464  0.00  0.00     0.016 A 
ATOM     12  C   UNK d   1      44.459   5.639  43.810  0.00  0.00     0.037 A 
ATOM     13  C   UNK d   1      45.438   6.016  42.926  0.00  0.00     0.102 A 
ATOM     14  C   UNK d   1      45.602   7.363  42.702  0.00  0.00     0.037 A 
ATOM     15  C   UNK d   1      44.783   8.284  43.368  0.00  0.00     0.016 A 
BRANCH  13  16
ATOM     16  N   UNK d   1      46.224   5.025  42.292  0.00  0.00    -0.116 N 
ATOM     17  O   UNK d   1      46.624   5.181  41.133  0.00  0.00    -0.532 OA
ATOM     18  O   UNK d   1      46.540   3.889  42.972  0.00  0.00    -0.532 OA
ENDBRANCH  13  16
ENDBRANCH   8  10
BRANCH   6  19
ATOM     19  C   UNK d   1      40.245   9.489  47.246  0.00  0.00     0.041 A 
ATOM     20  C   UNK d   1      39.080  10.193  47.049  0.00  0.00     0.031 A 
ATOM     21  C   UNK d   1      38.042  10.202  47.957  0.00  0.00     0.021 A 
ATOM     22  C   UNK d   1      38.155   9.480  49.124  0.00  0.00     0.011 A 
ATOM     23  C   UNK d   1      39.313   8.760  49.357  0.00  0.00     0.021 A 
ATOM     24 Br   UNK d   1      36.735   9.469  50.407  0.00  0.00    -0.051 Br
ATOM     25  C   UNK d   1      40.337   8.767  48.432  0.00  0.00     0.031 A 
ENDBRANCH   6  19
TORSDOF 3
ENDMDL
