/Users/jonathanwahrer/Desktop/Msc/3_Semester/Drug_Design_Praktikum/waehrer_HTS_screening/HTS_experiment/out/docking_results/vina_output/2qfa/1209_docked.pdbqt
 OpenBabel03162220263D

 24 27  0  0  1  0  0  0  0  0999 V2000
   40.1730   11.7770   46.2710 S   0  0  0  0  0  0  0  0  0  0  0  0
   40.0770   13.3940   45.4520 C   0  0  0  0  0  2  0  0  0  0  0  0
   40.6960   13.2360   44.0750 C   0  0  0  0  0  2  0  0  0  0  0  0
   40.1990   11.9640   43.4210 C   0  0  0  0  0  2  0  0  0  0  0  0
   41.0580   10.8900   43.8930 N   0  0  0  0  0  0  0  0  0  0  0  0
   41.1290   10.7040   45.2130 C   0  0  2  0  0  3  0  0  0  0  0  0
   41.9840    9.6520   45.4660 N   0  0  0  0  0  0  0  0  0  0  0  0
   42.4410    9.1880   44.3150 C   0  0  0  0  0  0  0  0  0  0  0  0
   41.8470    9.9800   43.3350 C   0  0  0  0  0  3  0  0  0  0  0  0
   43.3610    8.0990   44.0230 C   0  0  0  0  0  0  0  0  0  0  0  0
   43.0210    6.7940   44.4050 C   0  0  0  0  0  3  0  0  0  0  0  0
   43.8450    5.7310   44.1580 C   0  0  0  0  0  3  0  0  0  0  0  0
   45.0580    5.8580   43.5210 C   0  0  0  0  0  0  0  0  0  0  0  0
   45.3990    7.1310   43.1430 C   0  0  0  0  0  3  0  0  0  0  0  0
   44.5700    8.2360   43.3870 C   0  0  0  0  0  3  0  0  0  0  0  0
   45.8670    4.7550   43.2870 O   0  0  0  0  0  0  0  0  0  0  0  0
   46.7180    4.7200   42.1570 C   0  0  0  0  0  1  0  0  0  0  0  0
   42.2640    9.2120   46.7930 C   0  0  0  0  0  0  0  0  0  0  0  0
   43.4240    9.6010   47.4390 C   0  0  0  0  0  3  0  0  0  0  0  0
   43.7100    9.2170   48.7340 C   0  0  0  0  0  3  0  0  0  0  0  0
   42.7970    8.4150   49.3900 C   0  0  0  0  0  0  0  0  0  0  0  0
   41.6440    8.0320   48.7370 C   0  0  0  0  0  3  0  0  0  0  0  0
   43.1090    7.8290   51.1920 Br  0  0  0  0  0  0  0  0  0  0  0  0
   41.3390    8.4040   47.4460 C   0  0  0  0  0  3  0  0  0  0  0  0
  2  1  1  0  0  0  0
  3  2  1  0  0  0  0
  4  5  1  0  0  0  0
  4  3  1  0  0  0  0
  5  6  1  0  0  0  0
  6  7  1  0  0  0  0
  6  1  1  6  0  0  0
  7 18  1  0  0  0  0
  8  7  1  0  0  0  0
  9  5  1  0  0  0  0
  9  8  2  0  0  0  0
 10  8  1  0  0  0  0
 10 11  1  0  0  0  0
 12 11  2  0  0  0  0
 13 12  1  0  0  0  0
 14 15  1  0  0  0  0
 14 13  2  0  0  0  0
 15 10  2  0  0  0  0
 16 13  1  0  0  0  0
 17 16  1  0  0  0  0
 18 19  2  0  0  0  0
 18 24  1  0  0  0  0
 19 20  1  0  0  0  0
 20 21  2  0  0  0  0
 21 23  1  0  0  0  0
 22 21  1  0  0  0  0
 24 22  2  0  0  0  0
M  END
>  <Pose>
1

>  <Score>
-6.365

$$$$
