MODEL 1
REMARK VINA RESULT:    -6.365      0.000      0.000
REMARK INTER + INTRA:          -8.381
REMARK INTER:                  -7.481
REMARK INTRA:                  -0.900
REMARK UNBOUND:                -0.900
REMARK  3 active torsions:
REMARK  status: ('A' for Active; 'I' for Inactive)
REMARK    1  A    between atoms: N_7  and  C_18 
REMARK    2  A    between atoms: C_8  and  C_10 
REMARK    3  A    between atoms: C_13  and  O_16 
ROOT
ATOM      1  S   UNK d   1      40.173  11.777  46.271  0.00  0.00    -0.093 SA
ATOM      2  C   UNK d   1      40.077  13.394  45.452  0.00  0.00     0.084 C 
ATOM      3  C   UNK d   1      40.696  13.236  44.075  0.00  0.00     0.031 C 
ATOM      4  C   UNK d   1      40.199  11.964  43.421  0.00  0.00     0.131 C 
ATOM      5  N   UNK d   1      41.058  10.890  43.893  0.00  0.00    -0.335 N 
ATOM      6  C   UNK d   1      41.129  10.704  45.213  0.00  0.00     0.154 A 
ATOM      7  N   UNK d   1      41.984   9.652  45.466  0.00  0.00    -0.290 N 
ATOM      8  C   UNK d   1      42.441   9.188  44.315  0.00  0.00     0.067 A 
ATOM      9  C   UNK d   1      41.847   9.980  43.335  0.00  0.00     0.124 A 
ENDROOT
BRANCH   8  10
ATOM     10  C   UNK d   1      43.361   8.099  44.023  0.00  0.00    -0.007 A 
ATOM     11  C   UNK d   1      43.021   6.794  44.405  0.00  0.00     0.016 A 
ATOM     12  C   UNK d   1      43.845   5.731  44.158  0.00  0.00     0.037 A 
ATOM     13  C   UNK d   1      45.058   5.858  43.521  0.00  0.00     0.068 A 
ATOM     14  C   UNK d   1      45.399   7.131  43.143  0.00  0.00     0.037 A 
ATOM     15  C   UNK d   1      44.570   8.236  43.387  0.00  0.00     0.016 A 
BRANCH  13  16
ATOM     16  O   UNK d   1      45.867   4.755  43.287  0.00  0.00    -0.356 OA
ATOM     17  C   UNK d   1      46.718   4.720  42.157  0.00  0.00     0.210 C 
ENDBRANCH  13  16
ENDBRANCH   8  10
BRANCH   7  18
ATOM     18  C   UNK d   1      42.264   9.212  46.793  0.00  0.00     0.042 A 
ATOM     19  C   UNK d   1      43.424   9.601  47.439  0.00  0.00     0.031 A 
ATOM     20  C   UNK d   1      43.710   9.217  48.734  0.00  0.00     0.021 A 
ATOM     21  C   UNK d   1      42.797   8.415  49.390  0.00  0.00     0.011 A 
ATOM     22  C   UNK d   1      41.644   8.032  48.737  0.00  0.00     0.021 A 
ATOM     23 Br   UNK d   1      43.109   7.829  51.192  0.00  0.00    -0.051 Br
ATOM     24  C   UNK d   1      41.339   8.404  47.446  0.00  0.00     0.031 A 
ENDBRANCH   7  18
TORSDOF 3
ENDMDL
