MODEL 1
REMARK VINA RESULT:    -7.197      0.000      0.000
REMARK INTER + INTRA:          -8.571
REMARK INTER:                  -8.669
REMARK INTRA:                   0.098
REMARK UNBOUND:                 0.098
REMARK  4 active torsions:
REMARK  status: ('A' for Active; 'I' for Inactive)
REMARK    1  A    between atoms: N_7  and  C_19 
REMARK    2  A    between atoms: C_8  and  O_10 
REMARK    3  A    between atoms: C_8  and  C_11 
REMARK    4  A    between atoms: C_14  and  O_17 
ROOT
ATOM      1  S   UNK d   1      42.835   9.149  47.547  0.00  0.00    -0.094 SA
ATOM      2  C   UNK d   1      41.405   9.187  48.698  0.00  0.00     0.084 C 
ATOM      3  C   UNK d   1      40.185   9.018  47.790  0.00  0.00     0.030 C 
ATOM      4  C   UNK d   1      40.078  10.267  46.921  0.00  0.00     0.126 C 
ATOM      5  N   UNK d   1      40.954  10.078  45.791  0.00  0.00    -0.356 N 
ATOM      6  C   UNK d   1      42.160   9.601  45.954  0.00  0.00     0.148 C 
ATOM      7  N   UNK d   1      42.770   9.515  44.638  0.00  0.00    -0.289 N 
ATOM      8  C   UNK d   1      42.230  10.694  43.997  0.00  0.00     0.185 C 
ATOM      9  C   UNK d   1      40.746  10.315  44.359  0.00  0.00     0.192 C 
ENDROOT
BRANCH   8  10
ATOM     10  O   UNK d   1      42.412  10.778  42.653  0.00  0.00    -0.365 OA
ATOM     11  H   UNK d   1      42.580   9.851  42.297  0.00  0.00     0.213 HD
ENDBRANCH   8  10
BRANCH   8  12
ATOM     12  C   UNK d   1      42.596  11.887  44.769  0.00  0.00    -0.001 A 
ATOM     13  C   UNK d   1      41.683  12.864  45.126  0.00  0.00     0.015 A 
ATOM     14  C   UNK d   1      42.115  13.994  45.837  0.00  0.00     0.037 A 
ATOM     15  C   UNK d   1      43.399  14.176  46.191  0.00  0.00     0.068 A 
ATOM     16  C   UNK d   1      44.355  13.198  45.845  0.00  0.00     0.037 A 
ATOM     17  C   UNK d   1      43.888  12.099  45.145  0.00  0.00     0.015 A 
BRANCH  15  18
ATOM     18  O   UNK d   1      43.876  15.304  46.907  0.00  0.00    -0.356 OA
ATOM     19  C   UNK d   1      45.243  15.655  46.856  0.00  0.00     0.210 C 
ENDBRANCH  15  18
ENDBRANCH   8  12
BRANCH   7  20
ATOM     20  C   UNK d   1      43.595   8.481  44.151  0.00  0.00     0.040 A 
ATOM     21  C   UNK d   1      43.260   7.151  44.504  0.00  0.00     0.031 A 
ATOM     22  C   UNK d   1      44.041   6.075  44.117  0.00  0.00     0.021 A 
ATOM     23  C   UNK d   1      45.175   6.256  43.374  0.00  0.00     0.011 A 
ATOM     24  C   UNK d   1      45.527   7.540  43.015  0.00  0.00     0.021 A 
ATOM     25 Br   UNK d   1      46.294   4.806  42.835  0.00  0.00    -0.051 Br
ATOM     26  C   UNK d   1      44.727   8.630  43.410  0.00  0.00     0.031 A 
ENDBRANCH   7  20
TORSDOF 4
ENDMDL
