MODEL 1
REMARK VINA RESULT:    -7.593      0.000      0.000
REMARK INTER + INTRA:          -9.664
REMARK INTER:                  -9.147
REMARK INTRA:                  -0.517
REMARK UNBOUND:                -0.517
REMARK  4 active torsions:
REMARK  status: ('A' for Active; 'I' for Inactive)
REMARK    1  A    between atoms: C_6  and  O_17 
REMARK    2  A    between atoms: C_6  and  C_18 
REMARK    3  A    between atoms: N_8  and  C_10 
REMARK    4  A    between atoms: C_20  and  N_24 
ROOT
ATOM      1  S   UNK d   1      40.694  13.126  44.610  0.00  0.00    -0.094 SA
ATOM      2  C   UNK d   1      39.087  13.203  45.504  0.00  0.00     0.084 C 
ATOM      3  C   UNK d   1      39.042  12.091  46.538  0.00  0.00     0.030 C 
ATOM      4  C   UNK d   1      39.518  10.787  45.953  0.00  0.00     0.129 C 
ATOM      5  N   UNK d   1      40.946  10.749  45.948  0.00  0.00    -0.324 N 
ATOM      6  C   UNK d   1      41.980   9.779  46.257  0.00  0.00     0.181 C 
ATOM      7  C   UNK d   1      43.146  10.648  46.693  0.00  0.00     0.198 C 
ATOM      8  N   UNK d   1      42.878  11.891  45.942  0.00  0.00    -0.323 N 
ATOM      9  C   UNK d   1      41.667  11.927  45.551  0.00  0.00     0.147 C 
ENDROOT
BRANCH   6  10
ATOM     10  O   UNK d   1      41.592   8.891  47.241  0.00  0.00    -0.365 OA
ATOM     11  H   UNK d   1      41.763   7.955  47.061  0.00  0.00     0.213 HD
ENDBRANCH   6  10
BRANCH   6  12
ATOM     12  C   UNK d   1      42.402   9.025  45.053  0.00  0.00     0.001 A 
ATOM     13  C   UNK d   1      43.470   8.152  45.129  0.00  0.00     0.048 A 
ATOM     14  C   UNK d   1      43.832   7.464  43.971  0.00  0.00     0.103 A 
ATOM     15  C   UNK d   1      43.156   7.644  42.802  0.00  0.00     0.036 A 
ATOM     16  C   UNK d   1      42.085   8.514  42.711  0.00  0.00     0.003 A 
ATOM     17  C   UNK d   1      41.727   9.201  43.877  0.00  0.00     0.012 A 
BRANCH  14  18
ATOM     18  N   UNK d   1      44.926   6.565  44.040  0.00  0.00    -0.116 N 
ATOM     19  O   UNK d   1      46.088   6.960  44.255  0.00  0.00    -0.532 OA
ATOM     20  O   UNK d   1      44.751   5.221  43.871  0.00  0.00    -0.532 OA
ENDBRANCH  14  18
ENDBRANCH   6  12
BRANCH   8  21
ATOM     21  C   UNK d   1      43.848  12.910  45.713  0.00  0.00     0.036 A 
ATOM     22  C   UNK d   1      44.119  13.965  46.533  0.00  0.00     0.031 A 
ATOM     23  C   UNK d   1      45.093  14.914  46.256  0.00  0.00     0.021 A 
ATOM     24  C   UNK d   1      45.838  14.808  45.099  0.00  0.00     0.011 A 
ATOM     25  C   UNK d   1      45.589  13.745  44.238  0.00  0.00     0.021 A 
ATOM     26 Br   UNK d   1      47.199  16.067  44.626  0.00  0.00    -0.051 Br
ATOM     27  C   UNK d   1      44.608  12.808  44.537  0.00  0.00     0.031 A 
ENDBRANCH   8  21
TORSDOF 4
ENDMDL
