MODEL 1
REMARK VINA RESULT:    -8.127      0.000      0.000
REMARK INTER + INTRA:          -9.825
REMARK INTER:                  -9.790
REMARK INTRA:                  -0.035
REMARK UNBOUND:                -0.035
REMARK  4 active torsions:
REMARK  status: ('A' for Active; 'I' for Inactive)
REMARK    1  A    between atoms: C_6  and  O_17 
REMARK    2  A    between atoms: C_6  and  C_18 
REMARK    3  A    between atoms: N_8  and  C_10 
REMARK    4  A    between atoms: C_21  and  N_24 
ROOT
ATOM      1  S   UNK d   1      40.827  11.920  45.114  0.00  0.00    -0.094 SA
ATOM      2  C   UNK d   1      40.617  11.912  43.288  0.00  0.00     0.084 C 
ATOM      3  C   UNK d   1      41.567  11.031  42.592  0.00  0.00     0.030 C 
ATOM      4  C   UNK d   1      42.707  10.460  43.332  0.00  0.00     0.129 C 
ATOM      5  N   UNK d   1      42.459   9.841  44.569  0.00  0.00    -0.324 N 
ATOM      6  C   UNK d   1      43.093   8.788  45.303  0.00  0.00     0.181 C 
ATOM      7  C   UNK d   1      41.895   8.160  45.981  0.00  0.00     0.198 C 
ATOM      8  N   UNK d   1      41.058   9.314  46.230  0.00  0.00    -0.323 N 
ATOM      9  C   UNK d   1      41.369  10.233  45.443  0.00  0.00     0.147 C 
ENDROOT
BRANCH   6  10
ATOM     10  O   UNK d   1      43.874   9.343  46.320  0.00  0.00    -0.365 OA
ATOM     11  H   UNK d   1      44.805   9.332  46.045  0.00  0.00     0.213 HD
ENDBRANCH   6  10
BRANCH   6  12
ATOM     12  C   UNK d   1      43.853   7.804  44.509  0.00  0.00    -0.001 A 
ATOM     13  C   UNK d   1      44.892   8.289  43.721  0.00  0.00     0.014 A 
ATOM     14  C   UNK d   1      45.661   7.449  42.947  0.00  0.00     0.037 A 
ATOM     15  C   UNK d   1      45.440   6.083  42.915  0.00  0.00     0.102 A 
ATOM     16  C   UNK d   1      44.411   5.596  43.698  0.00  0.00     0.037 A 
ATOM     17  C   UNK d   1      43.631   6.452  44.483  0.00  0.00     0.014 A 
BRANCH  15  18
ATOM     18  N   UNK d   1      46.246   5.240  42.114  0.00  0.00    -0.116 N 
ATOM     19  O   UNK d   1      46.978   4.356  42.573  0.00  0.00    -0.532 OA
ATOM     20  O   UNK d   1      46.221   5.397  40.751  0.00  0.00    -0.532 OA
ENDBRANCH  15  18
ENDBRANCH   6  12
BRANCH   8  21
ATOM     21  C   UNK d   1      40.045   9.391  47.240  0.00  0.00     0.036 A 
ATOM     22  C   UNK d   1      40.268   8.750  48.450  0.00  0.00     0.031 A 
ATOM     23  C   UNK d   1      39.319   8.763  49.470  0.00  0.00     0.021 A 
ATOM     24  C   UNK d   1      38.119   9.418  49.303  0.00  0.00     0.011 A 
ATOM     25  C   UNK d   1      37.884  10.057  48.110  0.00  0.00     0.021 A 
ATOM     26 Br   UNK d   1      36.806   9.418  50.709  0.00  0.00    -0.051 Br
ATOM     27  C   UNK d   1      38.856  10.026  47.102  0.00  0.00     0.031 A 
ENDBRANCH   8  21
TORSDOF 4
ENDMDL
