MODEL 1
REMARK VINA RESULT:    -7.284      0.000      0.000
REMARK INTER + INTRA:          -8.627
REMARK INTER:                  -8.348
REMARK INTRA:                  -0.278
REMARK UNBOUND:                -0.278
REMARK  3 active torsions:
REMARK  status: ('A' for Active; 'I' for Inactive)
REMARK    1  A    between atoms: C_6  and  O_17 
REMARK    2  A    between atoms: C_6  and  C_18 
REMARK    3  A    between atoms: N_8  and  C_10 
ROOT
ATOM      1  S   UNK d   1      41.890   8.962  47.413  0.00  0.00    -0.094 SA
ATOM      2  C   UNK d   1      40.173   8.671  48.032  0.00  0.00     0.084 C 
ATOM      3  C   UNK d   1      39.197   9.555  47.299  0.00  0.00     0.030 C 
ATOM      4  C   UNK d   1      39.800  10.851  46.803  0.00  0.00     0.129 C 
ATOM      5  N   UNK d   1      40.685  10.701  45.715  0.00  0.00    -0.324 N 
ATOM      6  C   UNK d   1      41.079  11.373  44.464  0.00  0.00     0.181 C 
ATOM      7  C   UNK d   1      41.310  10.135  43.631  0.00  0.00     0.198 C 
ATOM      8  N   UNK d   1      42.007   9.277  44.578  0.00  0.00    -0.323 N 
ATOM      9  C   UNK d   1      41.580   9.555  45.717  0.00  0.00     0.147 C 
ENDROOT
BRANCH   6  10
ATOM     10  O   UNK d   1      40.087  12.135  43.928  0.00  0.00    -0.365 OA
ATOM     11  H   UNK d   1      39.244  12.179  44.444  0.00  0.00     0.213 HD
ENDBRANCH   6  10
BRANCH   6  12
ATOM     12  C   UNK d   1      42.377  12.105  44.644  0.00  0.00    -0.002 A 
ATOM     13  C   UNK d   1      43.473  11.898  43.830  0.00  0.00     0.012 A 
ATOM     14  C   UNK d   1      44.635  12.623  44.060  0.00  0.00     0.001 A 
ATOM     15  C   UNK d   1      44.747  13.557  45.082  0.00  0.00     0.000 A 
ATOM     16  C   UNK d   1      43.665  13.768  45.892  0.00  0.00     0.001 A 
ATOM     17  C   UNK d   1      42.498  13.040  45.665  0.00  0.00     0.012 A 
ENDBRANCH   6  12
BRANCH   8  18
ATOM     18  C   UNK d   1      43.048   8.334  44.243  0.00  0.00     0.036 A 
ATOM     19  C   UNK d   1      44.239   8.650  43.672  0.00  0.00     0.031 A 
ATOM     20  C   UNK d   1      45.196   7.705  43.323  0.00  0.00     0.021 A 
ATOM     21  C   UNK d   1      44.949   6.378  43.556  0.00  0.00     0.011 A 
ATOM     22  C   UNK d   1      43.740   6.051  44.138  0.00  0.00     0.021 A 
ATOM     23 Br   UNK d   1      46.209   5.001  43.104  0.00  0.00    -0.051 Br
ATOM     24  C   UNK d   1      42.800   6.983  44.480  0.00  0.00     0.031 A 
ENDBRANCH   8  18
TORSDOF 3
ENDMDL
