MODEL 1
REMARK VINA RESULT:    -7.333      0.000      0.000
REMARK INTER + INTRA:          -8.823
REMARK INTER:                  -8.405
REMARK INTRA:                  -0.418
REMARK UNBOUND:                -0.418
REMARK  3 active torsions:
REMARK  status: ('A' for Active; 'I' for Inactive)
REMARK    1  A    between atoms: C_6  and  O_16 
REMARK    2  A    between atoms: C_6  and  C_17 
REMARK    3  A    between atoms: N_8  and  C_10 
ROOT
ATOM      1  S   UNK d   1      42.388  10.459  48.264  0.00  0.00    -0.094 SA
ATOM      2  C   UNK d   1      41.148   9.273  48.855  0.00  0.00     0.084 C 
ATOM      3  C   UNK d   1      40.373   8.813  47.616  0.00  0.00     0.030 C 
ATOM      4  C   UNK d   1      41.346   8.037  46.714  0.00  0.00     0.129 C 
ATOM      5  N   UNK d   1      42.078   9.016  45.902  0.00  0.00    -0.324 N 
ATOM      6  C   UNK d   1      42.455   9.057  44.548  0.00  0.00     0.181 C 
ATOM      7  C   UNK d   1      42.868  10.505  44.304  0.00  0.00     0.198 C 
ATOM      8  N   UNK d   1      42.921  11.082  45.612  0.00  0.00    -0.323 N 
ATOM      9  C   UNK d   1      42.515  10.241  46.474  0.00  0.00     0.147 C 
ENDROOT
BRANCH   6  10
ATOM     10  O   UNK d   1      41.315   8.851  43.739  0.00  0.00    -0.365 OA
ATOM     11  H   UNK d   1      41.617   8.293  42.976  0.00  0.00     0.213 HD
ENDBRANCH   6  10
BRANCH   6  12
ATOM     12  C   UNK d   1      43.522   8.176  44.078  0.00  0.00    -0.002 A 
ATOM     13  C   UNK d   1      43.397   6.827  44.403  0.00  0.00     0.013 A 
ATOM     14  C   UNK d   1      44.299   5.856  44.009  0.00  0.00     0.020 A 
ATOM     15  C   UNK d   1      45.388   6.204  43.259  0.00  0.00     0.011 A 
ATOM     16  C   UNK d   1      45.531   7.540  42.926  0.00  0.00     0.020 A 
ATOM     17 Br   UNK d   1      46.678   4.898  42.666  0.00  0.00    -0.051 Br
ATOM     18  C   UNK d   1      44.614   8.507  43.328  0.00  0.00     0.013 A 
ENDBRANCH   6  12
BRANCH   8  19
ATOM     19  C   UNK d   1      43.334  12.440  45.833  0.00  0.00     0.036 A 
ATOM     20  C   UNK d   1      42.391  13.387  46.072  0.00  0.00     0.029 A 
ATOM     21  C   UNK d   1      42.820  14.688  46.313  0.00  0.00     0.002 A 
ATOM     22  C   UNK d   1      44.149  15.047  46.320  0.00  0.00     0.000 A 
ATOM     23  C   UNK d   1      45.070  14.051  46.070  0.00  0.00     0.002 A 
ATOM     24  C   UNK d   1      44.682  12.756  45.828  0.00  0.00     0.029 A 
ENDBRANCH   8  19
TORSDOF 3
ENDMDL
