MODEL 1
REMARK VINA RESULT:    -6.361      0.000      0.000
REMARK INTER + INTRA:          -8.324
REMARK INTER:                  -7.477
REMARK INTRA:                  -0.847
REMARK UNBOUND:                -0.847
REMARK  3 active torsions:
REMARK  status: ('A' for Active; 'I' for Inactive)
REMARK    1  A    between atoms: C_9  and  C_12 
REMARK    2  A    between atoms: C_12  and  C_13 
REMARK    3  A    between atoms: C_12  and  C_24 
ROOT
ATOM      1  C   UNK d   1      42.887  12.929  45.663  0.00  0.00     0.063 C 
ENDROOT
BRANCH   1   2
ATOM      2  C   UNK d   1      44.349  12.765  45.894  0.00  0.00     0.182 C 
ATOM      3  C   UNK d   1      45.037  13.895  45.212  0.00  0.00     0.259 C 
ATOM      4  N   UNK d   1      45.040  15.168  45.888  0.00  0.00    -0.188 NA
ATOM      5  O   UNK d   1      45.582  13.712  44.095  0.00  0.00    -0.270 OA
ATOM      6  C   UNK d   1      44.875  15.278  47.137  0.00  0.00     0.174 C 
ATOM      7  S   UNK d   1      44.828  16.675  48.242  0.00  0.00    -0.090 SA
ATOM      8  N   UNK d   1      44.703  14.142  47.955  0.00  0.00    -0.295 N 
ATOM      9  C   UNK d   1      45.244  15.670  49.746  0.00  0.00     0.103 C 
ATOM     10  C   UNK d   1      44.501  14.421  49.349  0.00  0.00     0.144 C 
ATOM     11  C   UNK d   1      44.723  12.835  47.325  0.00  0.00     0.239 C 
ATOM     12  O   UNK d   1      45.056  11.851  48.029  0.00  0.00    -0.272 OA
ENDBRANCH   1   2
BRANCH   1  13
ATOM     13  C   UNK d   1      42.060  12.871  46.924  0.00  0.00     0.182 C 
ATOM     14  C   UNK d   1      41.365  11.591  47.135  0.00  0.00     0.239 C 
ATOM     15  O   UNK d   1      42.020  10.571  47.550  0.00  0.00    -0.272 OA
ATOM     16  N   UNK d   1      39.944  11.479  46.875  0.00  0.00    -0.295 N 
ATOM     17  C   UNK d   1      39.179  10.265  46.805  0.00  0.00     0.144 C 
ATOM     18  C   UNK d   1      39.199  12.665  46.691  0.00  0.00     0.174 C 
ATOM     19  C   UNK d   1      38.024  10.416  45.846  0.00  0.00     0.103 C 
ATOM     20  S   UNK d   1      37.522  12.123  46.366  0.00  0.00    -0.090 SA
ATOM     21  N   UNK d   1      39.722  13.828  46.746  0.00  0.00    -0.188 NA
ATOM     22  C   UNK d   1      41.122  14.019  47.001  0.00  0.00     0.259 C 
ATOM     23  O   UNK d   1      41.514  15.178  47.288  0.00  0.00    -0.270 OA
ENDBRANCH   1  13
BRANCH   1  24
ATOM     24  C   UNK d   1      42.443  11.940  44.657  0.00  0.00    -0.050 A 
ATOM     25  C   UNK d   1      43.136  10.750  44.473  0.00  0.00     0.026 A 
ATOM     26  C   UNK d   1      42.729   9.819  43.540  0.00  0.00     0.011 A 
ATOM     27  C   UNK d   1      41.615  10.052  42.764  0.00  0.00     0.019 A 
ATOM     28 Br   UNK d   1      43.675   8.182  43.281  0.00  0.00    -0.051 Br
ATOM     29  C   UNK d   1      40.938  11.219  42.946  0.00  0.00     0.002 A 
ATOM     30  C   UNK d   1      41.333  12.160  43.875  0.00  0.00     0.007 A 
ENDBRANCH   1  24
TORSDOF 3
ENDMDL
