/Users/jonathanwahrer/Desktop/Msc/3_Semester/Drug_Design_Praktikum/waehrer_HTS_screening/HTS_experiment/out/docking_results/vina_output/2qfa/1237_docked.pdbqt
 OpenBabel03162220293D

 30 34  0  0  1  0  0  0  0  0999 V2000
   41.6920   12.1070   45.8950 C   0  0  2  0  0  3  0  0  0  0  0  0
   42.2380   11.0520   46.7620 C   0  0  1  0  0  3  0  0  0  0  0  0
   42.9800   11.3270   47.9600 C   0  0  0  0  0  0  0  0  0  0  0  0
   42.2270   11.4190   49.2000 N   0  0  0  0  0  0  0  0  0  0  0  0
   44.2130   11.5030   48.1200 O   0  0  0  0  0  0  0  0  0  0  0  0
   41.0950   10.8030   49.3300 C   0  0  0  0  0  0  0  0  0  0  0  0
   39.9340   10.7160   50.7190 S   0  0  0  0  0  0  0  0  0  0  0  0
   40.4810   10.0490   48.3090 N   0  0  0  0  0  0  0  0  0  0  0  0
   38.5040   10.1800   49.6820 C   0  0  0  0  0  2  0  0  0  0  0  0
   39.2520    9.4250   48.6290 C   0  0  0  0  0  2  0  0  0  0  0  0
   41.2010    9.9930   47.0560 C   0  0  0  0  0  0  0  0  0  0  0  0
   40.9620    9.0830   46.2420 O   0  0  0  0  0  0  0  0  0  0  0  0
   41.9600   12.1420   44.4510 C   0  0  1  0  0  3  0  0  0  0  0  0
   43.2110   11.2990   44.2000 C   0  0  0  0  0  0  0  0  0  0  0  0
   44.3420   11.7750   44.4460 O   0  0  0  0  0  0  0  0  0  0  0  0
   43.0860    9.9550   43.6810 N   0  0  0  0  0  0  0  0  0  0  0  0
   44.0700    8.9280   43.6960 C   0  0  0  0  0  2  0  0  0  0  0  0
   41.8560    9.6140   43.0680 C   0  0  0  0  0  0  0  0  0  0  0  0
   43.4360    7.5600   43.7530 C   0  0  0  0  0  2  0  0  0  0  0  0
   42.0360    7.9060   42.5860 S   0  0  0  0  0  0  0  0  0  0  0  0
   40.8720   10.4140   42.9470 N   0  0  0  0  0  0  0  0  0  0  0  0
   40.9840   11.7760   43.4600 C   0  0  0  0  0  0  0  0  0  0  0  0
   40.1790   12.5890   42.9710 O   0  0  0  0  0  0  0  0  0  0  0  0
   41.7320   13.4710   46.5490 C   0  0  0  0  0  0  0  0  0  0  0  0
   40.6610   13.9420   47.2690 C   0  0  0  0  0  3  0  0  0  0  0  0
   40.7330   15.1860   47.8430 C   0  0  0  0  0  3  0  0  0  0  0  0
   41.8250   15.9880   47.7360 C   0  0  0  0  0  0  0  0  0  0  0  0
   42.9110   15.5450   47.0220 C   0  0  0  0  0  3  0  0  0  0  0  0
   41.9170   17.7260   48.5430 Br  0  0  0  0  0  0  0  0  0  0  0  0
   42.8380   14.2800   46.4380 C   0  0  0  0  0  3  0  0  0  0  0  0
  1 24  1  1  0  0  0
  2  1  1  1  0  0  0
  2 11  1  0  0  0  0
  2  3  1  0  0  0  0
  3  5  2  0  0  0  0
  3  4  1  0  0  0  0
  4  6  2  0  0  0  0
  6  7  1  0  0  0  0
  8 10  1  0  0  0  0
  8  6  1  0  0  0  0
  9  7  1  0  0  0  0
 10  9  1  0  0  0  0
 11  8  1  0  0  0  0
 12 11  2  0  0  0  0
 13  1  1  1  0  0  0
 14 15  2  0  0  0  0
 14 13  1  0  0  0  0
 16 17  1  0  0  0  0
 16 14  1  0  0  0  0
 17 19  1  0  0  0  0
 18 16  1  0  0  0  0
 20 18  1  0  0  0  0
 20 19  1  0  0  0  0
 21 18  2  0  0  0  0
 21 22  1  0  0  0  0
 22 13  1  0  0  0  0
 23 22  2  0  0  0  0
 24 25  1  0  0  0  0
 25 26  2  0  0  0  0
 27 26  1  0  0  0  0
 27 29  1  0  0  0  0
 28 27  2  0  0  0  0
 30 24  2  0  0  0  0
 30 28  1  0  0  0  0
M  END
>  <Pose>
1

>  <Score>
-5.877

$$$$
