MODEL 1
REMARK VINA RESULT:    -5.877      0.000      0.000
REMARK INTER + INTRA:          -8.335
REMARK INTER:                  -6.907
REMARK INTRA:                  -1.428
REMARK UNBOUND:                -1.428
REMARK  3 active torsions:
REMARK  status: ('A' for Active; 'I' for Inactive)
REMARK    1  A    between atoms: C_9  and  C_12 
REMARK    2  A    between atoms: C_12  and  C_13 
REMARK    3  A    between atoms: C_12  and  C_24 
ROOT
ATOM      1  C   UNK d   1      41.692  12.107  45.895  0.00  0.00     0.063 C 
ENDROOT
BRANCH   1   2
ATOM      2  C   UNK d   1      42.238  11.052  46.762  0.00  0.00     0.182 C 
ATOM      3  C   UNK d   1      42.980  11.327  47.960  0.00  0.00     0.259 C 
ATOM      4  N   UNK d   1      42.227  11.419  49.200  0.00  0.00    -0.188 NA
ATOM      5  O   UNK d   1      44.213  11.503  48.120  0.00  0.00    -0.270 OA
ATOM      6  C   UNK d   1      41.095  10.803  49.330  0.00  0.00     0.174 C 
ATOM      7  S   UNK d   1      39.934  10.716  50.719  0.00  0.00    -0.090 SA
ATOM      8  N   UNK d   1      40.481  10.049  48.309  0.00  0.00    -0.295 N 
ATOM      9  C   UNK d   1      38.504  10.180  49.682  0.00  0.00     0.103 C 
ATOM     10  C   UNK d   1      39.252   9.425  48.629  0.00  0.00     0.144 C 
ATOM     11  C   UNK d   1      41.201   9.993  47.056  0.00  0.00     0.239 C 
ATOM     12  O   UNK d   1      40.962   9.083  46.242  0.00  0.00    -0.272 OA
ENDBRANCH   1   2
BRANCH   1  13
ATOM     13  C   UNK d   1      41.960  12.142  44.451  0.00  0.00     0.182 C 
ATOM     14  C   UNK d   1      43.211  11.299  44.200  0.00  0.00     0.239 C 
ATOM     15  O   UNK d   1      44.342  11.775  44.446  0.00  0.00    -0.272 OA
ATOM     16  N   UNK d   1      43.086   9.955  43.681  0.00  0.00    -0.295 N 
ATOM     17  C   UNK d   1      44.070   8.928  43.696  0.00  0.00     0.144 C 
ATOM     18  C   UNK d   1      41.856   9.614  43.068  0.00  0.00     0.174 C 
ATOM     19  C   UNK d   1      43.436   7.560  43.753  0.00  0.00     0.103 C 
ATOM     20  S   UNK d   1      42.036   7.906  42.586  0.00  0.00    -0.090 SA
ATOM     21  N   UNK d   1      40.872  10.414  42.947  0.00  0.00    -0.188 NA
ATOM     22  C   UNK d   1      40.984  11.776  43.460  0.00  0.00     0.259 C 
ATOM     23  O   UNK d   1      40.179  12.589  42.971  0.00  0.00    -0.270 OA
ENDBRANCH   1  13
BRANCH   1  24
ATOM     24  C   UNK d   1      41.732  13.471  46.549  0.00  0.00    -0.051 A 
ATOM     25  C   UNK d   1      40.661  13.942  47.269  0.00  0.00     0.009 A 
ATOM     26  C   UNK d   1      40.733  15.186  47.843  0.00  0.00     0.019 A 
ATOM     27  C   UNK d   1      41.825  15.988  47.736  0.00  0.00     0.011 A 
ATOM     28  C   UNK d   1      42.911  15.545  47.022  0.00  0.00     0.019 A 
ATOM     29 Br   UNK d   1      41.917  17.726  48.543  0.00  0.00    -0.051 Br
ATOM     30  C   UNK d   1      42.838  14.280  46.438  0.00  0.00     0.009 A 
ENDBRANCH   1  24
TORSDOF 3
ENDMDL
