MODEL 1
REMARK VINA RESULT:    -6.112      0.000      0.000
REMARK INTER + INTRA:          -7.276
REMARK INTER:                  -6.826
REMARK INTRA:                  -0.450
REMARK UNBOUND:                -0.450
REMARK  2 active torsions:
REMARK  status: ('A' for Active; 'I' for Inactive)
REMARK    1  A    between atoms: C_4  and  C_7 
REMARK    2  A    between atoms: C_14  and  C_15 
ROOT
ATOM      1  S   UNK d   1      50.499   3.422  44.422  0.00  0.00    -0.025 SA
ATOM      2  C   UNK d   1      49.162   3.499  43.347  0.00  0.00     0.219 A 
ATOM      3  N   UNK d   1      48.437   4.468  43.904  0.00  0.00    -0.184 N 
ATOM      4  C   UNK d   1      47.341   4.580  43.080  0.00  0.00     0.205 A 
ATOM      5  N   UNK d   1      47.440   3.699  42.086  0.00  0.00    -0.125 NA
ATOM      6  N   UNK d   1      48.556   3.011  42.217  0.00  0.00    -0.120 NA
ATOM      7  N   UNK d   1      48.863   5.028  44.963  0.00  0.00    -0.154 NA
ATOM      8  C   UNK d   1      50.004   4.663  45.513  0.00  0.00     0.153 A 
ENDROOT
BRANCH   8   9
ATOM      9  C   UNK d   1      50.678   5.163  46.716  0.00  0.00     0.133 A 
ATOM     10  N   UNK d   1      51.651   6.080  46.765  0.00  0.00    -0.171 NA
ATOM     11  N   UNK d   1      52.011   6.273  48.045  0.00  0.00    -0.287 N 
ATOM     12  C   UNK d   1      51.263   5.473  48.831  0.00  0.00     0.131 A 
ATOM     13  H   UNK d   1      52.753   6.940  48.359  0.00  0.00     0.188 HD
ATOM     14  C   UNK d   1      50.412   4.764  47.979  0.00  0.00     0.061 A 
ATOM     15 Br   UNK d   1      49.149   3.497  48.575  0.00  0.00    -0.047 Br
ENDBRANCH   8   9
BRANCH   4  16
ATOM     16  C   UNK d   1      46.216   5.522  43.254  0.00  0.00     0.123 A 
ATOM     17  N   UNK d   1      45.025   5.105  43.723  0.00  0.00    -0.254 NA
ATOM     18  C   UNK d   1      44.004   5.977  43.876  0.00  0.00     0.136 A 
ATOM     19  C   UNK d   1      44.168   7.297  43.558  0.00  0.00     0.135 A 
ATOM     20  N   UNK d   1      45.354   7.696  43.096  0.00  0.00    -0.269 NA
ATOM     21  C   UNK d   1      46.391   6.846  42.932  0.00  0.00     0.151 A 
ENDBRANCH   4  16
TORSDOF 2
ENDMDL
