MODEL 1
REMARK VINA RESULT:    -6.281      0.000      0.000
REMARK INTER + INTRA:          -7.619
REMARK INTER:                  -7.383
REMARK INTRA:                  -0.236
REMARK UNBOUND:                -0.236
REMARK  3 active torsions:
REMARK  status: ('A' for Active; 'I' for Inactive)
REMARK    1  A    between atoms: C_6  and  C_13 
REMARK    2  A    between atoms: C_13  and  C_14 
REMARK    3  A    between atoms: C_13  and  C_26 
ROOT
ATOM      1  C   UNK d   1      40.311  11.791  46.397  0.00  0.00     0.063 C 
ENDROOT
BRANCH   1   2
ATOM      2  C   UNK d   1      41.022  12.739  45.473  0.00  0.00     0.184 C 
ATOM      3  C   UNK d   1      40.387  12.623  44.088  0.00  0.00     0.259 C 
ATOM      4  N   UNK d   1      40.548  11.352  43.417  0.00  0.00    -0.186 NA
ATOM      5  O   UNK d   1      39.788  13.600  43.641  0.00  0.00    -0.270 OA
ATOM      6  C   UNK d   1      41.595  10.632  43.656  0.00  0.00     0.200 A 
ATOM      7  S   UNK d   1      42.096   9.043  43.013  0.00  0.00    -0.032 SA
ATOM      8  N   UNK d   1      42.619  11.025  44.545  0.00  0.00    -0.197 N 
ATOM      9  C   UNK d   1      43.625   8.961  43.933  0.00  0.00     0.083 A 
ATOM     10  N   UNK d   1      43.667  10.156  44.683  0.00  0.00    -0.283 N 
ATOM     11  C   UNK d   1      44.509   7.968  43.894  0.00  0.00     0.052 C 
ATOM     12  H   UNK d   1      44.520  10.339  45.321  0.00  0.00     0.188 HD
ATOM     13  C   UNK d   1      42.431  12.317  45.193  0.00  0.00     0.259 C 
ATOM     14  O   UNK d   1      43.437  13.023  45.487  0.00  0.00    -0.270 OA
ENDBRANCH   1   2
BRANCH   1  15
ATOM     15  C   UNK d   1      40.453  12.019  47.848  0.00  0.00     0.184 C 
ATOM     16  C   UNK d   1      41.643  12.713  48.318  0.00  0.00     0.259 C 
ATOM     17  O   UNK d   1      41.577  13.947  48.643  0.00  0.00    -0.270 OA
ATOM     18  N   UNK d   1      42.922  12.037  48.434  0.00  0.00    -0.197 N 
ATOM     19  N   UNK d   1      44.164  12.587  48.417  0.00  0.00    -0.283 N 
ATOM     20  C   UNK d   1      42.845  10.638  48.588  0.00  0.00     0.200 A 
ATOM     21  C   UNK d   1      45.267  11.708  48.557  0.00  0.00     0.083 A 
ATOM     22  H   UNK d   1      44.374  13.639  48.310  0.00  0.00     0.188 HD
ATOM     23  C   UNK d   1      46.554  11.975  48.580  0.00  0.00     0.052 C 
ATOM     24  S   UNK d   1      44.535  10.080  48.703  0.00  0.00    -0.032 SA
ATOM     25  N   UNK d   1      41.742   9.979  48.627  0.00  0.00    -0.186 NA
ATOM     26  C   UNK d   1      40.477  10.652  48.510  0.00  0.00     0.259 C 
ATOM     27  O   UNK d   1      39.399  10.193  48.914  0.00  0.00    -0.270 OA
ENDBRANCH   1  15
BRANCH   1  28
ATOM     28  C   UNK d   1      38.870  11.660  46.038  0.00  0.00    -0.051 A 
ATOM     29  C   UNK d   1      38.014  12.733  46.121  0.00  0.00     0.009 A 
ATOM     30  C   UNK d   1      36.683  12.618  45.791  0.00  0.00     0.019 A 
ATOM     31  C   UNK d   1      36.191  11.403  45.369  0.00  0.00     0.011 A 
ATOM     32  C   UNK d   1      37.027  10.288  45.271  0.00  0.00     0.019 A 
ATOM     33 Br   UNK d   1      34.346  11.210  44.903  0.00  0.00    -0.051 Br
ATOM     34  C   UNK d   1      38.355  10.446  45.610  0.00  0.00     0.009 A 
ENDBRANCH   1  28
TORSDOF 3
ENDMDL
