MODEL 1
REMARK VINA RESULT:    -7.091      0.000      0.000
REMARK INTER + INTRA:          -9.227
REMARK INTER:                  -8.750
REMARK INTRA:                  -0.477
REMARK UNBOUND:                -0.477
REMARK  4 active torsions:
REMARK  status: ('A' for Active; 'I' for Inactive)
REMARK    1  A    between atoms: N_3  and  C_15 
REMARK    2  A    between atoms: C_7  and  C_9 
REMARK    3  A    between atoms: C_15  and  C_16 
REMARK    4  A    between atoms: C_16  and  C_18 
ROOT
ATOM      1  S   UNK d   1      42.160   9.588  46.643  0.00  0.00    -0.063 SA
ATOM      2  C   UNK d   1      41.599   9.977  44.991  0.00  0.00     0.149 A 
ATOM      3  N   UNK d   1      40.764  10.722  44.342  0.00  0.00    -0.352 N 
ATOM      4  C   UNK d   1      40.850  10.510  42.946  0.00  0.00     0.145 A 
ATOM      5  C   UNK d   1      41.913   9.473  42.786  0.00  0.00     0.151 A 
ATOM      6  N   UNK d   1      42.381   9.157  44.157  0.00  0.00    -0.325 N 
ATOM      7  C   UNK d   1      43.311   8.329  44.795  0.00  0.00     0.053 A 
ATOM      8  C   UNK d   1      43.371   8.387  46.106  0.00  0.00     0.083 A 
ENDROOT
BRANCH   3   9
ATOM      9  C   UNK d   1      39.873  11.665  45.041  0.00  0.00     0.208 C 
BRANCH   9  10
ATOM     10  C   UNK d   1      40.264  13.024  44.614  0.00  0.00     0.177 C 
ATOM     11  O   UNK d   1      39.753  13.561  43.611  0.00  0.00    -0.291 OA
BRANCH  10  12
ATOM     12  C   UNK d   1      41.265  13.765  45.367  0.00  0.00     0.011 A 
ATOM     13  C   UNK d   1      42.585  13.317  45.443  0.00  0.00     0.016 A 
ATOM     14  C   UNK d   1      43.554  13.997  46.157  0.00  0.00     0.020 A 
ATOM     15  C   UNK d   1      43.179  15.146  46.801  0.00  0.00     0.011 A 
ATOM     16  C   UNK d   1      41.885  15.631  46.756  0.00  0.00     0.020 A 
ATOM     17 Br   UNK d   1      44.531  16.082  47.788  0.00  0.00    -0.051 Br
ATOM     18  C   UNK d   1      40.925  14.927  46.028  0.00  0.00     0.016 A 
ENDBRANCH  10  12
ENDBRANCH   9  10
ENDBRANCH   3   9
BRANCH   7  19
ATOM     19  C   UNK d   1      44.246   7.397  44.083  0.00  0.00    -0.009 A 
ATOM     20  C   UNK d   1      45.251   7.869  43.270  0.00  0.00     0.014 A 
ATOM     21  C   UNK d   1      46.134   7.058  42.590  0.00  0.00     0.001 A 
ATOM     22  C   UNK d   1      46.039   5.690  42.703  0.00  0.00     0.000 A 
ATOM     23  C   UNK d   1      45.048   5.196  43.504  0.00  0.00     0.001 A 
ATOM     24  C   UNK d   1      44.151   6.034  44.194  0.00  0.00     0.014 A 
ENDBRANCH   7  19
TORSDOF 4
ENDMDL
