MODEL 1
REMARK VINA RESULT:    -8.957      0.000      0.000
REMARK INTER + INTRA:          -9.889
REMARK INTER:                 -10.004
REMARK INTRA:                   0.116
REMARK UNBOUND:                 0.116
REMARK  2 active torsions:
REMARK  status: ('A' for Active; 'I' for Inactive)
REMARK    1  A    between atoms: C_3  and  C_8 
REMARK       I    between atoms: N_12  and  C_14 
REMARK    2  A    between atoms: C_14  and  C_16 
ROOT
ATOM      1  C   UNK d   1      40.936  12.197  45.323  0.00  0.00     0.273 C 
ATOM      2  N   UNK d   1      40.657  11.766  46.688  0.00  0.00     0.095 NA
ATOM      3  C   UNK d   1      40.575  10.411  46.971  0.00  0.00     0.290 C 
ATOM      4  C   UNK d   1      41.313   9.423  46.093  0.00  0.00     0.155 C 
ATOM      5  N   UNK d   1      41.506   9.870  44.783  0.00  0.00    -0.355 N 
ATOM      6  C   UNK d   1      40.872  11.088  44.377  0.00  0.00     0.165 C 
ATOM      7  C   UNK d   1      42.285   9.232  43.784  0.00  0.00     0.189 C 
ATOM      8  O   UNK d   1      42.149   9.810  42.613  0.00  0.00    -0.171 OA
ATOM      9  H   UNK d   1      41.244  12.297  47.363  0.00  0.00     0.316 HD
ENDROOT
BRANCH   7  10
ATOM     10  C   UNK d   1      43.169   8.123  43.799  0.00  0.00     0.038 A 
ATOM     11  C   UNK d   1      42.791   7.004  44.580  0.00  0.00     0.135 A 
ATOM     12  N   UNK d   1      43.492   5.871  44.547  0.00  0.00    -0.234 NA
ATOM     13  C   UNK d   1      44.577   5.736  43.782  0.00  0.00     0.192 A 
ATOM     14  C   UNK d   1      44.991   6.783  43.004  0.00  0.00     0.089 A 
ATOM     15  O   UNK d   1      45.302   4.540  43.764  0.00  0.00    -0.323 OA
ATOM     16  C   UNK d   1      44.287   7.985  43.011  0.00  0.00     0.051 A 
ATOM     17  N   UNK d   1      46.132   6.639  42.154  0.00  0.00    -0.322 N 
ATOM     18  C   UNK d   1      46.818   5.386  42.140  0.00  0.00     0.246 C 
ATOM     19  H   UNK d   1      46.463   7.408  41.552  0.00  0.00     0.169 HD
ATOM     20  O   UNK d   1      47.515   4.974  41.190  0.00  0.00    -0.271 OA
ATOM     21  C   UNK d   1      46.679   4.521  43.353  0.00  0.00     0.280 C 
ENDBRANCH   7  10
BRANCH   1  22
ATOM     22  C   UNK d   1      42.286  12.858  45.408  0.00  0.00    -0.002 A 
ATOM     23  C   UNK d   1      42.351  14.126  46.008  0.00  0.00     0.042 A 
ATOM     24 Cl   UNK d   1      40.813  14.888  46.461  0.00  0.00    -0.084 Cl
ATOM     25  C   UNK d   1      43.538  14.785  46.248  0.00  0.00     0.024 A 
ATOM     26  C   UNK d   1      44.735  14.177  45.884  0.00  0.00     0.002 A 
ATOM     27  C   UNK d   1      44.667  12.927  45.294  0.00  0.00     0.001 A 
ATOM     28  C   UNK d   1      43.469  12.276  45.058  0.00  0.00     0.011 A 
ENDBRANCH   1  22
TORSDOF 2
ENDMDL
