MODEL 1
REMARK VINA RESULT:    -7.636      0.000      0.000
REMARK INTER + INTRA:         -12.338
REMARK INTER:                 -10.983
REMARK INTRA:                  -1.355
REMARK UNBOUND:                -1.355
REMARK  8 active torsions:
REMARK  status: ('A' for Active; 'I' for Inactive)
REMARK    1  A    between atoms: C_4  and  C_8 
REMARK    2  A    between atoms: C_8  and  N_10 
REMARK    3  A    between atoms: N_10  and  N_11 
REMARK       I    between atoms: N_11  and  C_12 
REMARK    4  A    between atoms: C_12  and  C_14 
REMARK    5  A    between atoms: N_17  and  C_26 
REMARK    6  A    between atoms: C_18  and  C_19 
REMARK    7  A    between atoms: C_19  and  N_20 
REMARK    8  A    between atoms: C_30  and  N_31 
ROOT
ATOM      1  C   UNK d   1      42.832   8.078  43.876  0.00  0.00     0.176 A 
ATOM      2  N   UNK d   1      42.151   8.285  42.741  0.00  0.00    -0.124 NA
ATOM      3  N   UNK d   1      41.523   9.423  42.885  0.00  0.00    -0.058 NA
ATOM      4  N   UNK d   1      41.781   9.950  44.079  0.00  0.00    -0.191 N 
ATOM      5  C   UNK d   1      42.597   9.152  44.748  0.00  0.00     0.104 A 
ENDROOT
BRANCH   1   6
ATOM      6  C   UNK d   1      43.677   6.923  44.120  0.00  0.00     0.292 C 
ATOM      7  N   UNK d   1      44.949   6.768  43.519  0.00  0.00    -0.264 N 
ATOM      8  H   UNK d   1      45.350   7.483  42.855  0.00  0.00     0.190 HD
ATOM      9  O   UNK d   1      43.260   6.033  44.896  0.00  0.00    -0.264 OA
BRANCH   7  10
ATOM     10  N   UNK d   1      45.756   5.657  43.767  0.00  0.00    -0.298 N 
ATOM     11  H   UNK d   1      45.865   5.188  44.682  0.00  0.00     0.187 HD
BRANCH  10  12
ATOM     12  C   UNK d   1      46.505   5.104  42.664  0.00  0.00     0.049 C 
ATOM     13  C   UNK d   1      46.081   5.327  41.446  0.00  0.00     0.045 C 
BRANCH  12  14
ATOM     14  C   UNK d   1      47.683   4.312  42.957  0.00  0.00    -0.008 A 
ATOM     15  C   UNK d   1      48.487   4.633  44.050  0.00  0.00     0.032 A 
ATOM     16  C   UNK d   1      49.597   3.882  44.348  0.00  0.00     0.011 A 
ATOM     17 Br   UNK d   1      50.703   4.311  45.835  0.00  0.00    -0.051 Br
ATOM     18  C   UNK d   1      49.960   2.787  43.582  0.00  0.00     0.019 A 
ATOM     19  C   UNK d   1      49.183   2.464  42.512  0.00  0.00     0.002 A 
ATOM     20  C   UNK d   1      48.055   3.230  42.215  0.00  0.00     0.014 A 
ENDBRANCH  12  14
ENDBRANCH  10  12
ENDBRANCH   7  10
ENDBRANCH   1   6
BRANCH   5  21
ATOM     21  C   UNK d   1      43.160   9.207  46.079  0.00  0.00     0.334 C 
BRANCH  21  22
ATOM     22  N   UNK d   1      42.564   8.327  47.066  0.00  0.00     0.094 NA
ATOM     23  C   UNK d   1      42.866   8.787  48.418  0.00  0.00     0.273 C 
ATOM     24  C   UNK d   1      42.614  10.270  48.579  0.00  0.00     0.030 C 
ATOM     25  C   UNK d   1      41.173  10.591  48.222  0.00  0.00     0.003 C 
ATOM     26  C   UNK d   1      40.423   9.346  47.845  0.00  0.00     0.030 C 
ATOM     27  C   UNK d   1      41.109   8.390  46.955  0.00  0.00     0.273 C 
ENDBRANCH  21  22
ENDBRANCH   5  21
BRANCH   4  28
ATOM     28  C   UNK d   1      41.222  11.167  44.535  0.00  0.00     0.229 A 
ATOM     29  N   UNK d   1      41.966  12.288  44.755  0.00  0.00    -0.081 NA
ATOM     30  O   UNK d   1      41.162  13.216  45.168  0.00  0.00    -0.103 OA
ATOM     31  N   UNK d   1      39.951  12.792  45.238  0.00  0.00    -0.083 NA
ATOM     32  C   UNK d   1      39.941  11.510  44.851  0.00  0.00     0.201 A 
BRANCH  32  33
ATOM     33  N   UNK d   1      38.834  10.651  44.772  0.00  0.00    -0.379 N 
ATOM     34  H   UNK d   1      38.772   9.779  44.202  0.00  0.00     0.158 HD
ATOM     35  H   UNK d   1      37.981  10.885  45.324  0.00  0.00     0.158 HD
ENDBRANCH  32  33
ENDBRANCH   4  28
TORSDOF 8
ENDMDL
