/Users/jonathanwahrer/Desktop/Msc/3_Semester/Drug_Design_Praktikum/waehrer_HTS_screening/HTS_experiment/out/docking_results/vina_output/2qfa/1280_docked.pdbqt
 OpenBabel03162220313D

 35 38  0  0  1  0  0  0  0  0999 V2000
   41.2850   11.0450   45.4900 C   0  0  1  0  0  3  0  0  0  0  0  0
   40.9140   11.3690   44.1270 N   0  0  0  0  0  0  0  0  0  0  0  0
   40.5830   12.7470   44.1060 C   0  0  0  0  0  0  0  0  0  0  0  0
   39.8180   13.2870   43.3000 O   0  0  0  0  0  0  0  0  0  0  0  0
   41.3250   13.3710   45.2150 C   0  0  0  0  0  0  0  0  0  0  0  0
   41.3270   14.5800   45.5520 O   0  0  0  0  0  0  0  0  0  0  0  0
   42.0630   12.2800   45.8400 C   0  0  0  0  0  0  0  0  0  0  0  0
   43.1920   12.4070   46.5230 C   0  0  0  0  0  0  0  0  0  0  0  0
   43.7540   11.1980   46.9970 O   0  0  0  0  0  1  0  0  0  0  0  0
   40.0840   10.8500   46.3160 C   0  0  0  0  0  0  0  0  0  0  0  0
   40.1750   10.8950   47.7000 C   0  0  0  0  0  3  0  0  0  0  0  0
   39.0460   10.7360   48.5110 C   0  0  0  0  0  0  0  0  0  0  0  0
   39.2100   10.8040   50.4250 Br  0  0  0  0  0  0  0  0  0  0  0  0
   37.8140   10.5310   47.9450 C   0  0  0  0  0  3  0  0  0  0  0  0
   37.7080   10.4860   46.5760 C   0  0  0  0  0  3  0  0  0  0  0  0
   38.8400   10.6450   45.7870 C   0  0  0  0  0  3  0  0  0  0  0  0
   43.8450   13.6830   46.7930 C   0  0  0  0  0  0  0  0  0  0  0  0
   44.7830   14.2550   45.9870 C   0  0  0  0  0  0  0  0  0  0  0  0
   45.4010   15.4670   46.3490 C   0  0  0  0  0  3  0  0  0  0  0  0
   45.1370   13.6350   44.6880 C   0  0  0  0  0  1  0  0  0  0  0  0
   45.0990   16.1290   47.5080 C   0  0  0  0  0  0  0  0  0  0  0  0
   44.1490   15.5530   48.3240 C   0  0  0  0  0  3  0  0  0  0  0  0
   43.5420   14.3730   47.9810 C   0  0  0  0  0  3  0  0  0  0  0  0
   45.7070   17.3310   47.8710 O   0  0  0  0  0  0  0  0  0  0  0  0
   46.0460   17.5860   49.2090 C   0  0  0  0  0  1  0  0  0  0  0  0
   40.8970   10.4160   43.0370 C   0  0  0  0  0  2  0  0  0  0  0  0
   42.1810    9.6640   42.8760 C   0  0  0  0  0  3  0  0  0  0  0  0
   42.0960    8.1950   43.0390 C   0  0  0  0  0  3  0  0  0  0  0  0
   43.3370    7.5160   43.1570 N   0  0  0  0  0  4  0  0  0  0  0  0
   44.4740    8.4080   43.4360 C   0  0  0  0  0  2  0  0  0  0  0  0
   45.7120    7.6420   42.9660 C   0  0  0  0  0  2  0  0  0  0  0  0
   45.4330    6.3110   42.7080 O   0  0  0  0  0  0  0  0  0  0  0  0
   44.7630    5.7250   43.7820 C   0  0  0  0  0  2  0  0  0  0  0  0
   43.4300    6.4380   44.0720 C   0  0  0  0  0  2  0  0  0  0  0  0
   43.5570    7.1140   42.1950 H   0  0  0  0  0  0  0  0  0  0  0  0
  1  7  1  0  0  0  0
  1 10  1  1  0  0  0
  2  1  1  0  0  0  0
  3  2  1  0  0  0  0
  3  5  1  0  0  0  0
  4  3  2  0  0  0  0
  5  6  2  0  0  0  0
  5  7  1  0  0  0  0
  7  8  2  0  0  0  0
  8 17  1  0  0  0  0
  8  9  1  0  0  0  0
 10 11  1  0  0  0  0
 11 12  2  0  0  0  0
 12 13  1  0  0  0  0
 14 12  1  0  0  0  0
 15 14  2  0  0  0  0
 16 10  2  0  0  0  0
 16 15  1  0  0  0  0
 17 23  1  0  0  0  0
 18 19  1  0  0  0  0
 18 17  2  0  0  0  0
 19 21  2  0  0  0  0
 20 18  1  0  0  0  0
 21 24  1  0  0  0  0
 21 22  1  0  0  0  0
 23 22  2  0  0  0  0
 24 25  1  0  0  0  0
 26  2  1  0  0  0  0
 27 26  1  0  0  0  0
 27 28  2  0  0  0  0
 28 29  1  0  0  0  0
 29 30  1  0  0  0  0
 29 34  1  0  0  0  0
 31 30  1  0  0  0  0
 32 31  1  0  0  0  0
 32 33  1  0  0  0  0
 33 34  1  0  0  0  0
 35 29  1  0  0  0  0
M  END
>  <Pose>
1

>  <Score>
-7.075

$$$$
