MODEL 1
REMARK VINA RESULT:    -6.952      0.000      0.000
REMARK INTER + INTRA:         -10.575
REMARK INTER:                  -9.391
REMARK INTRA:                  -1.184
REMARK UNBOUND:                -1.184
REMARK  6 active torsions:
REMARK  status: ('A' for Active; 'I' for Inactive)
REMARK    1  A    between atoms: C_4  and  C_8 
REMARK    2  A    between atoms: N_9  and  C_28 
REMARK    3  A    between atoms: C_15  and  C_17 
REMARK    4  A    between atoms: C_28  and  C_29 
REMARK    5  A    between atoms: C_29  and  C_30 
REMARK    6  A    between atoms: C_30  and  N_31 
ROOT
ATOM      1  C   UNK d   1      41.291  10.918  45.446  0.00  0.00     0.161 C 
ATOM      2  N   UNK d   1      40.917  11.272  44.091  0.00  0.00    -0.332 N 
ATOM      3  C   UNK d   1      40.612  12.684  44.070  0.00  0.00     0.295 C 
ATOM      4  O   UNK d   1      39.890  13.292  43.271  0.00  0.00    -0.264 OA
ATOM      5  C   UNK d   1      41.346  13.237  45.204  0.00  0.00     0.251 C 
ATOM      6  O   UNK d   1      41.391  14.439  45.603  0.00  0.00    -0.282 OA
ATOM      7  C   UNK d   1      42.058  12.150  45.854  0.00  0.00     0.064 C 
ATOM      8  C   UNK d   1      43.107  12.215  46.659  0.00  0.00     0.149 C 
ATOM      9  O   UNK d   1      43.583  10.996  47.221  0.00  0.00    -0.189 OA
ENDROOT
BRANCH   1  10
ATOM     10  C   UNK d   1      40.160  10.691  46.356  0.00  0.00    -0.029 A 
ATOM     11  C   UNK d   1      38.871  10.914  45.861  0.00  0.00     0.028 A 
ATOM     12  C   UNK d   1      37.782  10.720  46.651  0.00  0.00     0.011 A 
ATOM     13 Br   UNK d   1      36.030  11.030  45.954  0.00  0.00    -0.051 Br
ATOM     14  C   UNK d   1      37.918  10.301  47.953  0.00  0.00     0.019 A 
ATOM     15  C   UNK d   1      39.172  10.073  48.469  0.00  0.00     0.002 A 
ATOM     16  C   UNK d   1      40.285  10.271  47.662  0.00  0.00     0.009 A 
ENDBRANCH   1  10
BRANCH   8  17
ATOM     17  C   UNK d   1      43.760  13.465  46.956  0.00  0.00     0.102 A 
ATOM     18  N   UNK d   1      44.671  14.132  46.216  0.00  0.00    -0.302 N 
ATOM     19  C   UNK d   1      44.990  15.281  46.861  0.00  0.00     0.140 A 
ATOM     20  C   UNK d   1      45.293  13.885  45.050  0.00  0.00     0.099 A 
ATOM     21  N   UNK d   1      44.282  15.357  48.022  0.00  0.00    -0.233 NA
ATOM     22  C   UNK d   1      45.896  16.203  46.406  0.00  0.00    -0.015 A 
ATOM     23  C   UNK d   1      43.529  14.232  48.069  0.00  0.00     0.063 A 
ATOM     24  C   UNK d   1      42.595  13.901  49.181  0.00  0.00     0.073 C 
ATOM     25  C   UNK d   1      46.528  15.941  45.210  0.00  0.00     0.012 A 
ATOM     26  C   UNK d   1      46.207  17.454  47.157  0.00  0.00     0.052 C 
ATOM     27  C   UNK d   1      46.208  14.772  44.550  0.00  0.00     0.018 A 
ENDBRANCH   8  17
BRANCH   2  28
ATOM     28  C   UNK d   1      40.847  10.380  42.947  0.00  0.00     0.129 C 
BRANCH  28  29
ATOM     29  C   UNK d   1      42.116   9.653  42.658  0.00  0.00     0.048 C 
BRANCH  29  30
ATOM     30  C   UNK d   1      42.052   8.161  42.867  0.00  0.00     0.235 C 
BRANCH  30  31
ATOM     31  N   UNK d   1      43.380   7.644  43.100  0.00  0.00    -0.079 N 
ATOM     32  C   UNK d   1      44.231   8.670  43.674  0.00  0.00     0.269 C 
ATOM     33  C   UNK d   1      43.292   6.582  44.082  0.00  0.00     0.269 C 
ATOM     34  H   UNK d   1      43.800   7.217  42.245  0.00  0.00     0.278 HD
ENDBRANCH  30  31
ENDBRANCH  29  30
ENDBRANCH  28  29
ENDBRANCH   2  28
TORSDOF 6
ENDMDL
