/Users/jonathanwahrer/Desktop/Msc/3_Semester/Drug_Design_Praktikum/waehrer_HTS_screening/HTS_experiment/out/docking_results/vina_output/2qfa/1285_docked.pdbqt
 OpenBabel03162220323D

 34 37  0  0  1  0  0  0  0  0999 V2000
   41.2910   10.9180   45.4460 C   0  0  1  0  0  3  0  0  0  0  0  0
   40.9170   11.2720   44.0910 N   0  0  0  0  0  0  0  0  0  0  0  0
   40.6120   12.6840   44.0700 C   0  0  0  0  0  0  0  0  0  0  0  0
   39.8900   13.2920   43.2710 O   0  0  0  0  0  0  0  0  0  0  0  0
   41.3460   13.2370   45.2040 C   0  0  0  0  0  0  0  0  0  0  0  0
   41.3910   14.4390   45.6030 O   0  0  0  0  0  0  0  0  0  0  0  0
   42.0580   12.1500   45.8540 C   0  0  0  0  0  0  0  0  0  0  0  0
   43.1070   12.2150   46.6590 C   0  0  0  0  0  0  0  0  0  0  0  0
   43.5830   10.9960   47.2210 O   0  0  0  0  0  1  0  0  0  0  0  0
   40.1600   10.6910   46.3560 C   0  0  0  0  0  0  0  0  0  0  0  0
   38.8710   10.9140   45.8610 C   0  0  0  0  0  3  0  0  0  0  0  0
   37.7820   10.7200   46.6510 C   0  0  0  0  0  0  0  0  0  0  0  0
   36.0300   11.0300   45.9540 Br  0  0  0  0  0  0  0  0  0  0  0  0
   37.9180   10.3010   47.9530 C   0  0  0  0  0  3  0  0  0  0  0  0
   39.1720   10.0730   48.4690 C   0  0  0  0  0  3  0  0  0  0  0  0
   40.2850   10.2710   47.6620 C   0  0  0  0  0  3  0  0  0  0  0  0
   43.7600   13.4650   46.9560 C   0  0  0  0  0  0  0  0  0  0  0  0
   44.6710   14.1320   46.2160 N   0  0  0  0  0  0  0  0  0  0  0  0
   44.9900   15.2810   46.8610 C   0  0  0  0  0  0  0  0  0  0  0  0
   45.2930   13.8850   45.0500 C   0  0  0  0  0  3  0  0  0  0  0  0
   44.2820   15.3570   48.0220 N   0  0  0  0  0  0  0  0  0  0  0  0
   45.8960   16.2030   46.4060 C   0  0  0  0  0  0  0  0  0  0  0  0
   43.5290   14.2320   48.0690 C   0  0  0  0  0  0  0  0  0  0  0  0
   42.5950   13.9010   49.1810 C   0  0  0  0  0  1  0  0  0  0  0  0
   46.5280   15.9410   45.2100 C   0  0  0  0  0  3  0  0  0  0  0  0
   46.2070   17.4540   47.1570 C   0  0  0  0  0  1  0  0  0  0  0  0
   46.2080   14.7720   44.5500 C   0  0  0  0  0  3  0  0  0  0  0  0
   40.8470   10.3800   42.9470 C   0  0  0  0  0  2  0  0  0  0  0  0
   42.1160    9.6530   42.6580 C   0  0  0  0  0  2  0  0  0  0  0  0
   42.0520    8.1610   42.8670 C   0  0  0  0  0  2  0  0  0  0  0  0
   43.3800    7.6440   43.1000 N   0  0  0  0  0  4  0  0  0  0  0  0
   44.2310    8.6700   43.6740 C   0  0  0  0  0  1  0  0  0  0  0  0
   43.2920    6.5820   44.0820 C   0  0  0  0  0  1  0  0  0  0  0  0
   43.8000    7.2170   42.2450 H   0  0  0  0  0  0  0  0  0  0  0  0
  1  7  1  0  0  0  0
  1 10  1  1  0  0  0
  2  1  1  0  0  0  0
  3  2  1  0  0  0  0
  3  5  1  0  0  0  0
  4  3  2  0  0  0  0
  5  6  2  0  0  0  0
  5  7  1  0  0  0  0
  7  8  2  0  0  0  0
  8 17  1  0  0  0  0
  8  9  1  0  0  0  0
 10 16  1  0  0  0  0
 11 10  2  0  0  0  0
 11 12  1  0  0  0  0
 12 14  2  0  0  0  0
 13 12  1  0  0  0  0
 14 15  1  0  0  0  0
 16 15  2  0  0  0  0
 17 23  2  0  0  0  0
 18 19  1  0  0  0  0
 18 17  1  0  0  0  0
 19 21  2  0  0  0  0
 20 18  1  0  0  0  0
 21 23  1  0  0  0  0
 22 19  1  0  0  0  0
 22 26  1  0  0  0  0
 23 24  1  0  0  0  0
 25 22  2  0  0  0  0
 27 20  2  0  0  0  0
 27 25  1  0  0  0  0
 28  2  1  0  0  0  0
 29 30  1  0  0  0  0
 29 28  1  0  0  0  0
 30 31  1  0  0  0  0
 31 32  1  0  0  0  0
 31 33  1  0  0  0  0
 34 31  1  0  0  0  0
M  END
>  <Pose>
1

>  <Score>
-6.952

$$$$
