MODEL 1
REMARK VINA RESULT:    -6.153      0.000      0.000
REMARK INTER + INTRA:          -6.711
REMARK INTER:                  -6.512
REMARK INTRA:                  -0.199
REMARK UNBOUND:                -0.199
REMARK  1 active torsions:
REMARK  status: ('A' for Active; 'I' for Inactive)
REMARK    1  A    between atoms: C_5  and  C_8 
ROOT
ATOM      1  C   UNK d   1      41.966  12.140  45.091  0.00  0.00     0.102 A 
ATOM      2  C   UNK d   1      40.693  12.170  45.776  0.00  0.00     0.068 A 
ATOM      3  C   UNK d   1      40.492  12.971  46.864  0.00  0.00     0.124 A 
ATOM      4  N   UNK d   1      41.514  13.838  47.371  0.00  0.00    -0.343 N 
ATOM      5  C   UNK d   1      42.751  13.815  46.671  0.00  0.00     0.048 A 
ATOM      6  C   UNK d   1      42.966  13.062  45.628  0.00  0.00     0.055 A 
ATOM      7  C   UNK d   1      44.352  13.319  45.129  0.00  0.00     0.292 A 
ATOM      8  O   UNK d   1      44.842  12.726  44.121  0.00  0.00    -0.259 OA
ATOM      9  O   UNK d   1      44.881  14.253  45.957  0.00  0.00    -0.312 OA
ATOM     10  C   UNK d   1      44.007  14.613  46.972  0.00  0.00     0.237 A 
ATOM     11  N   UNK d   1      39.273  12.962  47.493  0.00  0.00    -0.289 N 
ATOM     12  C   UNK d   1      38.284  12.179  47.050  0.00  0.00     0.332 A 
ATOM     13  O   UNK d   1      37.169  12.187  47.645  0.00  0.00    -0.246 OA
ATOM     14  N   UNK d   1      38.490  11.395  45.979  0.00  0.00    -0.270 N 
ATOM     15  C   UNK d   1      39.641  11.345  45.313  0.00  0.00     0.262 A 
ATOM     16  O   UNK d   1      39.844  10.615  44.311  0.00  0.00    -0.267 OA
ATOM     17  C   UNK d   1      37.378  10.555  45.531  0.00  0.00     0.164 C 
ATOM     18  C   UNK d   1      39.122  13.837  48.647  0.00  0.00     0.163 C 
ATOM     19  H   UNK d   1      41.322  14.428  48.200  0.00  0.00     0.167 HD
ENDROOT
BRANCH   1  20
ATOM     20  C   UNK d   1      42.505  10.813  44.809  0.00  0.00    -0.045 A 
ATOM     21  C   UNK d   1      42.723  10.369  43.539  0.00  0.00     0.009 A 
ATOM     22  C   UNK d   1      43.238   9.083  43.299  0.00  0.00     0.019 A 
ATOM     23  C   UNK d   1      43.527   8.262  44.358  0.00  0.00     0.011 A 
ATOM     24 Br   UNK d   1      44.234   6.495  44.080  0.00  0.00    -0.051 Br
ATOM     25  C   UNK d   1      43.314   8.696  45.635  0.00  0.00     0.019 A 
ATOM     26  C   UNK d   1      42.798   9.983  45.862  0.00  0.00     0.009 A 
ENDBRANCH   1  20
TORSDOF 1
ENDMDL
