/Users/jonathanwahrer/Desktop/Msc/3_Semester/Drug_Design_Praktikum/waehrer_HTS_screening/HTS_experiment/out/docking_results/vina_output/2qfa/1295_docked.pdbqt
 OpenBabel03162220333D

 26 29  0  0  1  0  0  0  0  0999 V2000
   41.9660   12.1400   45.0910 C   0  0  0  0  0  0  0  0  0  0  0  0
   40.6930   12.1700   45.7760 C   0  0  0  0  0  0  0  0  0  0  0  0
   40.4920   12.9710   46.8640 C   0  0  1  0  0  3  0  0  0  0  0  0
   41.5140   13.8380   47.3710 N   0  0  0  0  0  0  0  0  0  0  0  0
   42.7510   13.8150   46.6710 C   0  0  0  0  0  0  0  0  0  0  0  0
   42.9660   13.0620   45.6280 C   0  0  0  0  0  0  0  0  0  0  0  0
   44.3520   13.3190   45.1290 C   0  0  0  0  0  0  0  0  0  0  0  0
   44.8420   12.7260   44.1210 O   0  0  0  0  0  0  0  0  0  0  0  0
   44.8810   14.2530   45.9570 O   0  0  0  0  0  0  0  0  0  0  0  0
   44.0070   14.6130   46.9720 C   0  0  0  0  0  2  0  0  0  0  0  0
   39.2730   12.9620   47.4930 N   0  0  0  0  0  0  0  0  0  0  0  0
   38.2840   12.1790   47.0500 C   0  0  0  0  0  0  0  0  0  0  0  0
   37.1690   12.1870   47.6450 O   0  0  0  0  0  0  0  0  0  0  0  0
   38.4900   11.3950   45.9790 N   0  0  0  0  0  0  0  0  0  0  0  0
   39.6410   11.3450   45.3130 C   0  0  0  0  0  0  0  0  0  0  0  0
   39.8440   10.6150   44.3110 O   0  0  0  0  0  0  0  0  0  0  0  0
   37.3780   10.5550   45.5310 C   0  0  0  0  0  1  0  0  0  0  0  0
   39.1220   13.8370   48.6470 C   0  0  0  0  0  1  0  0  0  0  0  0
   41.3220   14.4280   48.2000 H   0  0  0  0  0  0  0  0  0  0  0  0
   42.5050   10.8130   44.8090 C   0  0  0  0  0  0  0  0  0  0  0  0
   42.7230   10.3690   43.5390 C   0  0  0  0  0  3  0  0  0  0  0  0
   43.2380    9.0830   43.2990 C   0  0  0  0  0  3  0  0  0  0  0  0
   43.5270    8.2620   44.3580 C   0  0  0  0  0  0  0  0  0  0  0  0
   44.2340    6.4950   44.0800 Br  0  0  0  0  0  0  0  0  0  0  0  0
   43.3140    8.6960   45.6350 C   0  0  0  0  0  3  0  0  0  0  0  0
   42.7980    9.9830   45.8620 C   0  0  0  0  0  3  0  0  0  0  0  0
  1  6  1  0  0  0  0
  1  2  2  0  0  0  0
  3  2  1  6  0  0  0
  3  4  1  0  0  0  0
  3 11  1  0  0  0  0
  4 19  1  0  0  0  0
  5 10  1  0  0  0  0
  5  4  1  0  0  0  0
  6  5  2  0  0  0  0
  7  6  1  0  0  0  0
  7  9  1  0  0  0  0
  8  7  2  0  0  0  0
  9 10  1  0  0  0  0
 11 18  1  0  0  0  0
 12 11  1  0  0  0  0
 12 13  2  0  0  0  0
 14 12  1  0  0  0  0
 15  2  1  0  0  0  0
 15 14  1  0  0  0  0
 16 15  2  0  0  0  0
 17 14  1  0  0  0  0
 20  1  1  0  0  0  0
 20 26  1  0  0  0  0
 21 20  2  0  0  0  0
 22 21  1  0  0  0  0
 22 23  2  0  0  0  0
 23 25  1  0  0  0  0
 24 23  1  0  0  0  0
 25 26  2  0  0  0  0
M  END
>  <Pose>
1

>  <Score>
-6.153

$$$$
