MODEL 1
REMARK VINA RESULT:    -6.794      0.000      0.000
REMARK INTER + INTRA:          -8.156
REMARK INTER:                  -7.588
REMARK INTRA:                  -0.567
REMARK UNBOUND:                -0.567
REMARK  2 active torsions:
REMARK  status: ('A' for Active; 'I' for Inactive)
REMARK    1  A    between atoms: C_3  and  N_11 
REMARK    2  A    between atoms: C_6  and  N_8 
ROOT
ATOM      1  N   UNK d   1      42.827  11.590  45.569  0.00  0.00    -0.250 N 
ATOM      2  C   UNK d   1      42.934  10.298  46.137  0.00  0.00     0.239 C 
ATOM      3  O   UNK d   1      43.509  10.000  47.205  0.00  0.00    -0.272 OA
ATOM      4  C   UNK d   1      42.258   9.300  45.282  0.00  0.00     0.127 C 
ATOM      5  C   UNK d   1      43.325   8.691  44.398  0.00  0.00     0.159 C 
ATOM      6  O   UNK d   1      43.534   9.767  43.494  0.00  0.00    -0.371 OA
ATOM      7  C   UNK d   1      42.205   9.810  42.996  0.00  0.00     0.159 C 
ATOM      8  C   UNK d   1      41.460  10.115  44.268  0.00  0.00     0.127 C 
ATOM      9  C   UNK d   1      41.741  11.519  44.641  0.00  0.00     0.239 C 
ATOM     10  O   UNK d   1      41.108  12.532  44.199  0.00  0.00    -0.272 OA
ATOM     11  C   UNK d   1      42.050   8.401  42.577  0.00  0.00     0.004 C 
ATOM     12  C   UNK d   1      42.729   7.692  43.476  0.00  0.00     0.004 C 
ENDROOT
BRANCH   1  13
ATOM     13  C   UNK d   1      43.579  12.771  45.799  0.00  0.00     0.062 A 
ATOM     14  C   UNK d   1      43.253  13.651  46.805  0.00  0.00     0.040 A 
ATOM     15 Br   UNK d   1      41.741  13.196  47.889  0.00  0.00    -0.049 Br
ATOM     16  C   UNK d   1      43.971  14.820  47.048  0.00  0.00     0.057 A 
ATOM     17  C   UNK d   1      45.063  15.148  46.268  0.00  0.00     0.104 A 
ATOM     18  C   UNK d   1      45.392  14.263  45.255  0.00  0.00     0.038 A 
ATOM     19  C   UNK d   1      44.684  13.109  45.015  0.00  0.00     0.034 A 
BRANCH  17  20
ATOM     20  N   UNK d   1      45.813  16.335  46.491  0.00  0.00    -0.116 N 
ATOM     21  O   UNK d   1      46.929  16.436  45.951  0.00  0.00    -0.532 OA
ATOM     22  O   UNK d   1      45.388  17.382  47.262  0.00  0.00    -0.532 OA
ENDBRANCH  17  20
ENDBRANCH   1  13
TORSDOF 2
ENDMDL
