/Users/jonathanwahrer/Desktop/Msc/3_Semester/Drug_Design_Praktikum/waehrer_HTS_screening/HTS_experiment/out/docking_results/vina_output/2qfa/1301_docked.pdbqt
 OpenBabel03162220333D

 24 27  0  0  1  0  0  0  0  0999 V2000
   41.5990   11.4680   44.3590 N   0  0  0  0  0  0  0  0  0  0  0  0
   42.8060   11.3730   45.1070 C   0  0  0  0  0  0  0  0  0  0  0  0
   43.1750   12.1040   46.0520 O   0  0  0  0  0  0  0  0  0  0  0  0
   43.6190   10.2290   44.5950 C   0  0  1  0  0  3  0  0  0  0  0  0
   43.2530    8.9400   45.2530 C   0  0  1  0  0  0  0  0  0  0  0  0
   42.0560    8.5710   44.5890 O   0  0  0  0  0  0  0  0  0  0  0  0
   42.5960    8.5880   43.2780 C   0  0  1  0  0  0  0  0  0  0  0  0
   43.0630   10.0040   43.1900 C   0  0  1  0  0  3  0  0  0  0  0  0
   41.9080   10.9260   43.0820 C   0  0  0  0  0  0  0  0  0  0  0  0
   41.2970   11.1840   42.0240 O   0  0  0  0  0  0  0  0  0  0  0  0
   43.7500    7.6620   43.4850 C   0  0  0  0  0  2  0  0  0  0  0  0
   44.1610    7.8770   44.7470 C   0  0  0  0  0  2  0  0  0  0  0  0
   41.6380    8.1580   42.2510 C   0  0  0  0  0  1  0  0  0  0  0  0
   40.3730   11.9960   44.8450 C   0  0  0  0  0  0  0  0  0  0  0  0
   39.8440   13.1900   44.3970 C   0  0  0  0  0  3  0  0  0  0  0  0
   38.6350   13.7070   44.8760 C   0  0  0  0  0  3  0  0  0  0  0  0
   37.9120   13.0320   45.8320 C   0  0  0  0  0  0  0  0  0  0  0  0
   38.4260   11.8410   46.2880 C   0  0  0  0  0  0  0  0  0  0  0  0
   36.6250   13.5890   46.3420 C   0  0  0  0  0  1  0  0  0  0  0  0
   37.4550   10.8790   47.6120 Br  0  0  0  0  0  0  0  0  0  0  0  0
   39.6330   11.3290   45.8060 C   0  0  0  0  0  3  0  0  0  0  0  0
   43.1180    8.9830   46.7190 C   0  0  0  0  0  2  0  0  0  0  0  0
   44.3350    8.7760   47.3630 O   0  0  0  0  0  0  0  0  0  0  0  0
   45.1160    9.1030   46.8350 H   0  0  0  0  0  0  0  0  0  0  0  0
  1 14  1  0  0  0  0
  1  2  1  0  0  0  0
  2  3  2  0  0  0  0
  4  2  1  1  0  0  0
  4  5  1  0  0  0  0
  5 22  1  1  0  0  0
  6  5  1  0  0  0  0
  7 13  1  6  0  0  0
  7 11  1  0  0  0  0
  7  6  1  0  0  0  0
  8  9  1  1  0  0  0
  8  7  1  0  0  0  0
  8  4  1  0  0  0  0
  9  1  1  0  0  0  0
 10  9  2  0  0  0  0
 11 12  1  0  0  0  0
 12  5  1  0  0  0  0
 14 21  1  0  0  0  0
 15 14  2  0  0  0  0
 15 16  1  0  0  0  0
 16 17  2  0  0  0  0
 17 18  1  0  0  0  0
 17 19  1  0  0  0  0
 18 20  1  0  0  0  0
 21 18  2  0  0  0  0
 22 23  1  0  0  0  0
 24 23  1  0  0  0  0
M  END
>  <Pose>
1

>  <Score>
-6.463

$$$$
