MODEL 1
REMARK VINA RESULT:    -6.463      0.000      0.000
REMARK INTER + INTRA:          -8.072
REMARK INTER:                  -7.407
REMARK INTRA:                  -0.665
REMARK UNBOUND:                -0.665
REMARK  3 active torsions:
REMARK  status: ('A' for Active; 'I' for Inactive)
REMARK    1  A    between atoms: C_6  and  N_8 
REMARK    2  A    between atoms: C_12  and  C_21 
REMARK    3  A    between atoms: C_21  and  O_22 
ROOT
ATOM      1  N   UNK d   1      41.599  11.468  44.359  0.00  0.00    -0.252 N 
ATOM      2  C   UNK d   1      42.806  11.373  45.107  0.00  0.00     0.239 C 
ATOM      3  O   UNK d   1      43.175  12.104  46.052  0.00  0.00    -0.272 OA
ATOM      4  C   UNK d   1      43.619  10.229  44.595  0.00  0.00     0.136 C 
ATOM      5  C   UNK d   1      43.253   8.940  45.253  0.00  0.00     0.114 C 
ATOM      6  O   UNK d   1      42.056   8.571  44.589  0.00  0.00    -0.358 OA
ATOM      7  C   UNK d   1      42.596   8.588  43.278  0.00  0.00     0.089 C 
ATOM      8  C   UNK d   1      43.063  10.004  43.190  0.00  0.00     0.133 C 
ATOM      9  C   UNK d   1      41.908  10.926  43.082  0.00  0.00     0.239 C 
ATOM     10  O   UNK d   1      41.297  11.184  42.024  0.00  0.00    -0.272 OA
ATOM     11  C   UNK d   1      43.750   7.662  43.485  0.00  0.00     0.010 C 
ATOM     12  C   UNK d   1      44.161   7.877  44.747  0.00  0.00     0.013 C 
ATOM     13  C   UNK d   1      41.638   8.158  42.251  0.00  0.00     0.051 C 
ENDROOT
BRANCH   1  14
ATOM     14  C   UNK d   1      40.373  11.996  44.845  0.00  0.00     0.046 A 
ATOM     15  C   UNK d   1      39.844  13.190  44.397  0.00  0.00     0.031 A 
ATOM     16  C   UNK d   1      38.635  13.707  44.876  0.00  0.00     0.010 A 
ATOM     17  C   UNK d   1      37.912  13.032  45.832  0.00  0.00    -0.044 A 
ATOM     18  C   UNK d   1      38.426  11.841  46.288  0.00  0.00     0.019 A 
ATOM     19  C   UNK d   1      36.625  13.589  46.342  0.00  0.00     0.049 C 
ATOM     20 Br   UNK d   1      37.455  10.879  47.612  0.00  0.00    -0.051 Br
ATOM     21  C   UNK d   1      39.633  11.329  45.806  0.00  0.00     0.050 A 
ENDBRANCH   1  14
BRANCH   5  22
ATOM     22  C   UNK d   1      43.118   8.983  46.719  0.00  0.00     0.207 C 
BRANCH  22  23
ATOM     23  O   UNK d   1      44.335   8.776  47.363  0.00  0.00    -0.398 OA
ATOM     24  H   UNK d   1      45.116   9.103  46.835  0.00  0.00     0.209 HD
ENDBRANCH  22  23
ENDBRANCH   5  22
TORSDOF 3
ENDMDL
