/Users/jonathanwahrer/Desktop/Msc/3_Semester/Drug_Design_Praktikum/waehrer_HTS_screening/HTS_experiment/out/docking_results/vina_output/2qfa/1310_docked.pdbqt
 OpenBabel03162220343D

 32 35  0  0  1  0  0  0  0  0999 V2000
   41.4430   12.3520   45.2020 C   0  0  1  0  0  3  0  0  0  0  0  0
   42.3490   13.0040   46.1240 N   0  0  0  0  0  0  0  0  0  0  0  0
   42.8870   11.9920   46.9560 C   0  0  0  0  0  0  0  0  0  0  0  0
   43.3230   12.1050   48.1280 O   0  0  0  0  0  0  0  0  0  0  0  0
   42.8370   10.7570   46.1720 C   0  0  0  0  0  0  0  0  0  0  0  0
   43.2020    9.6030   46.4950 O   0  0  0  0  0  0  0  0  0  0  0  0
   42.2520   11.1350   44.8760 C   0  0  0  0  0  0  0  0  0  0  0  0
   42.4190   10.4860   43.7470 C   0  0  0  0  0  0  0  0  0  0  0  0
   41.7400   10.9770   42.6250 O   0  0  0  0  0  1  0  0  0  0  0  0
   40.1240   12.0490   45.7640 C   0  0  0  0  0  0  0  0  0  0  0  0
   39.4680   12.8100   46.6980 C   0  0  0  0  0  3  0  0  0  0  0  0
   38.2070   12.4770   47.1960 C   0  0  0  0  0  0  0  0  0  0  0  0
   37.3530   13.5970   48.5070 Br  0  0  0  0  0  0  0  0  0  0  0  0
   37.5720   11.3390   46.7470 C   0  0  0  0  0  3  0  0  0  0  0  0
   38.2070   10.5560   45.8090 C   0  0  0  0  0  3  0  0  0  0  0  0
   39.4500   10.8950   45.3280 C   0  0  0  0  0  3  0  0  0  0  0  0
   43.2850    9.2950   43.6360 C   0  0  0  0  0  0  0  0  0  0  0  0
   44.5550    9.2310   43.3680 O   0  0  0  0  0  0  0  0  0  0  0  0
   44.9860    7.9890   43.3570 C   0  0  0  0  0  0  0  0  0  0  0  0
   43.9250    7.1440   43.6400 C   0  0  0  0  0  0  0  0  0  0  0  0
   46.2210    7.4090   43.1300 C   0  0  0  0  0  3  0  0  0  0  0  0
   42.8510    7.9950   43.8160 C   0  0  0  0  0  3  0  0  0  0  0  0
   44.1130    5.7800   43.6900 C   0  0  0  0  0  3  0  0  0  0  0  0
   45.3420    5.2020   43.4650 C   0  0  0  0  0  3  0  0  0  0  0  0
   46.4070    6.0280   43.1820 C   0  0  0  0  0  3  0  0  0  0  0  0
   42.7220   14.4120   46.2370 C   0  0  0  0  0  2  0  0  0  0  0  0
   44.2120   14.5480   46.4840 C   0  0  0  0  0  2  0  0  0  0  0  0
   45.0350   14.2580   45.2560 C   0  0  0  0  0  2  0  0  0  0  0  0
   46.2710   14.9690   45.3260 N   0  0  0  0  0  4  0  0  0  0  0  0
   46.9070   15.1410   44.0370 C   0  0  0  0  0  1  0  0  0  0  0  0
   46.2050   16.2540   45.9550 C   0  0  0  0  0  1  0  0  0  0  0  0
   46.9410   14.3770   45.9020 H   0  0  0  0  0  0  0  0  0  0  0  0
  1 10  1  1  0  0  0
  1  2  1  0  0  0  0
  2 26  1  0  0  0  0
  2  3  1  0  0  0  0
  3  4  2  0  0  0  0
  5  6  2  0  0  0  0
  5  3  1  0  0  0  0
  7  1  1  0  0  0  0
  7  5  1  0  0  0  0
  8  7  2  0  0  0  0
  9  8  1  0  0  0  0
 10 11  1  0  0  0  0
 11 12  2  0  0  0  0
 12 13  1  0  0  0  0
 14 12  1  0  0  0  0
 15 14  2  0  0  0  0
 16 10  2  0  0  0  0
 16 15  1  0  0  0  0
 17  8  1  0  0  0  0
 17 22  2  0  0  0  0
 18 17  1  0  0  0  0
 19 18  1  0  0  0  0
 19 20  1  0  0  0  0
 20 23  2  0  0  0  0
 20 22  1  0  0  0  0
 21 25  1  0  0  0  0
 21 19  2  0  0  0  0
 24 23  1  0  0  0  0
 25 24  2  0  0  0  0
 26 27  1  0  0  0  0
 28 29  1  0  0  0  0
 28 27  1  0  0  0  0
 29 32  1  0  0  0  0
 29 31  1  0  0  0  0
 30 29  1  0  0  0  0
M  END
>  <Pose>
1

>  <Score>
-7.195

$$$$
