MODEL 1
REMARK VINA RESULT:    -6.969      0.000      0.000
REMARK INTER + INTRA:         -10.715
REMARK INTER:                  -9.618
REMARK INTRA:                  -1.097
REMARK UNBOUND:                -1.097
REMARK  7 active torsions:
REMARK  status: ('A' for Active; 'I' for Inactive)
REMARK    1  A    between atoms: C_4  and  C_8 
REMARK    2  A    between atoms: C_8  and  C_10 
REMARK    3  A    between atoms: C_10  and  N_11 
REMARK    4  A    between atoms: N_18  and  C_21 
REMARK    5  A    between atoms: C_19  and  N_20 
REMARK    6  A    between atoms: C_21  and  C_22 
REMARK    7  A    between atoms: C_22  and  N_23 
ROOT
ATOM      1  N   UNK d   1      42.754  10.759  46.190  0.00  0.00    -0.175 N 
ATOM      2  C   UNK d   1      42.190  10.922  44.950  0.00  0.00     0.079 A 
ATOM      3  C   UNK d   1      42.382   9.749  44.280  0.00  0.00     0.079 A 
ATOM      4  C   UNK d   1      41.911   9.620  42.970  0.00  0.00     0.032 A 
ATOM      5  C   UNK d   1      41.259  10.680  42.377  0.00  0.00     0.002 A 
ATOM      6  C   UNK d   1      41.062  11.866  43.050  0.00  0.00     0.002 A 
ATOM      7  C   UNK d   1      41.537  11.983  44.359  0.00  0.00     0.032 A 
ATOM      8  N   UNK d   1      43.043   8.906  45.105  0.00  0.00    -0.179 N 
ATOM      9  C   UNK d   1      43.276   9.506  46.274  0.00  0.00     0.681 A 
ENDROOT
BRANCH   1  10
ATOM     10  C   UNK d   1      42.714  11.756  47.238  0.00  0.00     0.216 C 
BRANCH  10  11
ATOM     11  C   UNK d   1      44.016  12.369  47.528  0.00  0.00     0.113 C 
ATOM     12  O   UNK d   1      44.845  11.637  48.238  0.00  0.00    -0.194 OA
BRANCH  11  13
ATOM     13  C   UNK d   1      44.551  13.655  47.161  0.00  0.00    -0.001 A 
ATOM     14  C   UNK d   1      45.418  13.897  46.135  0.00  0.00     0.033 A 
ATOM     15  C   UNK d   1      45.871  15.150  45.837  0.00  0.00     0.011 A 
ATOM     16 Br   UNK d   1      47.093  15.444  44.365  0.00  0.00    -0.051 Br
ATOM     17  C   UNK d   1      45.450  16.223  46.590  0.00  0.00     0.019 A 
ATOM     18  C   UNK d   1      44.577  16.044  47.637  0.00  0.00     0.002 A 
ATOM     19  C   UNK d   1      44.144  14.775  47.904  0.00  0.00     0.014 A 
ENDBRANCH  11  13
ENDBRANCH  10  11
ENDBRANCH   1  10
BRANCH   9  20
ATOM     20  N   UNK d   1      43.815   8.946  47.334  0.00  0.00    -0.234 N 
ATOM     21  H   UNK d   1      44.168   7.993  47.344  0.00  0.00     0.174 HD
ATOM     22  H   UNK d   1      43.855   9.490  48.207  0.00  0.00     0.174 HD
ENDBRANCH   9  20
BRANCH   8  23
ATOM     23  C   UNK d   1      43.369   7.547  44.709  0.00  0.00     0.178 C 
BRANCH  23  24
ATOM     24  C   UNK d   1      44.795   7.271  44.462  0.00  0.00     0.293 C 
BRANCH  24  25
ATOM     25  N   UNK d   1      45.318   7.421  43.152  0.00  0.00     0.094 N 
ATOM     26  C   UNK d   1      45.227   6.140  42.406  0.00  0.00     0.298 C 
ATOM     27  C   UNK d   1      45.909   5.022  43.124  0.00  0.00     0.198 C 
ATOM     28  O   UNK d   1      47.277   5.301  43.106  0.00  0.00    -0.388 OA
ATOM     29  C   UNK d   1      47.558   6.510  43.692  0.00  0.00     0.198 C 
ATOM     30  C   UNK d   1      46.769   7.675  43.158  0.00  0.00     0.298 C 
ENDBRANCH  24  25
ENDBRANCH  23  24
ENDBRANCH   8  23
TORSDOF 7
ENDMDL
