/Users/jonathanwahrer/Desktop/Msc/3_Semester/Drug_Design_Praktikum/waehrer_HTS_screening/HTS_experiment/out/docking_results/vina_output/2qfa/1315_docked.pdbqt
 OpenBabel03162220353D

 30 33  0  0  1  0  0  0  0  0999 V2000
   42.7540   10.7590   46.1900 N   0  0  0  0  0  0  0  0  0  0  0  0
   42.1900   10.9220   44.9500 C   0  0  0  0  0  0  0  0  0  0  0  0
   42.3820    9.7490   44.2800 C   0  0  0  0  0  0  0  0  0  0  0  0
   41.9110    9.6200   42.9700 C   0  0  0  0  0  3  0  0  0  0  0  0
   41.2590   10.6800   42.3770 C   0  0  0  0  0  3  0  0  0  0  0  0
   41.0620   11.8660   43.0500 C   0  0  0  0  0  3  0  0  0  0  0  0
   41.5370   11.9830   44.3590 C   0  0  0  0  0  3  0  0  0  0  0  0
   43.0430    8.9060   45.1050 N   0  0  0  0  0  0  0  0  0  0  0  0
   43.2760    9.5060   46.2740 C   0  0  2  0  0  3  0  0  0  0  0  0
   42.7140   11.7560   47.2380 C   0  0  0  0  0  2  0  0  0  0  0  0
   44.0160   12.3690   47.5280 C   0  0  1  0  0  3  0  0  0  0  0  0
   44.8450   11.6370   48.2380 O   0  0  0  0  0  1  0  0  0  0  0  0
   44.5510   13.6550   47.1610 C   0  0  0  0  0  0  0  0  0  0  0  0
   45.4180   13.8970   46.1350 C   0  0  0  0  0  3  0  0  0  0  0  0
   45.8710   15.1500   45.8370 C   0  0  0  0  0  0  0  0  0  0  0  0
   47.0930   15.4440   44.3650 Br  0  0  0  0  0  0  0  0  0  0  0  0
   45.4500   16.2230   46.5900 C   0  0  0  0  0  3  0  0  0  0  0  0
   44.5770   16.0440   47.6370 C   0  0  0  0  0  3  0  0  0  0  0  0
   44.1440   14.7750   47.9040 C   0  0  0  0  0  3  0  0  0  0  0  0
   43.8150    8.9460   47.3340 N   0  0  0  0  0  0  0  0  0  0  0  0
   44.1680    7.9930   47.3440 H   0  0  0  0  0  0  0  0  0  0  0  0
   43.8550    9.4900   48.2070 H   0  0  0  0  0  0  0  0  0  0  0  0
   43.3690    7.5470   44.7090 C   0  0  0  0  0  2  0  0  0  0  0  0
   44.7950    7.2710   44.4620 C   0  0  0  0  0  2  0  0  0  0  0  0
   45.3180    7.4210   43.1520 N   0  0  0  0  0  0  0  0  0  0  0  0
   45.2270    6.1400   42.4060 C   0  0  0  0  0  2  0  0  0  0  0  0
   45.9090    5.0220   43.1240 C   0  0  0  0  0  2  0  0  0  0  0  0
   47.2770    5.3010   43.1060 O   0  0  0  0  0  0  0  0  0  0  0  0
   47.5580    6.5100   43.6920 C   0  0  0  0  0  2  0  0  0  0  0  0
   46.7690    7.6750   43.1580 C   0  0  0  0  0  2  0  0  0  0  0  0
  1  9  1  0  0  0  0
  1 10  1  0  0  0  0
  2  1  1  0  0  0  0
  3  2  2  0  0  0  0
  3  8  1  0  0  0  0
  4  3  1  0  0  0  0
  5  4  2  0  0  0  0
  5  6  1  0  0  0  0
  6  7  2  0  0  0  0
  7  2  1  0  0  0  0
  8  9  1  0  0  0  0
  9 20  1  1  0  0  0
 10 11  1  0  0  0  0
 11 12  1  6  0  0  0
 13 11  1  0  0  0  0
 13 19  1  0  0  0  0
 14 13  2  0  0  0  0
 15 14  1  0  0  0  0
 15 17  2  0  0  0  0
 16 15  1  0  0  0  0
 17 18  1  0  0  0  0
 18 19  2  0  0  0  0
 20 21  1  0  0  0  0
 20 22  1  0  0  0  0
 23  8  1  0  0  0  0
 24 23  1  0  0  0  0
 25 30  1  0  0  0  0
 25 24  1  0  0  0  0
 26 27  1  0  0  0  0
 26 25  1  0  0  0  0
 28 27  1  0  0  0  0
 28 29  1  0  0  0  0
 30 29  1  0  0  0  0
M  END
>  <Pose>
1

>  <Score>
-6.969

$$$$
