MODEL 1
REMARK VINA RESULT:    -7.102      0.000      0.000
REMARK INTER + INTRA:          -9.869
REMARK INTER:                  -9.178
REMARK INTRA:                  -0.690
REMARK UNBOUND:                -0.690
REMARK  5 active torsions:
REMARK  status: ('A' for Active; 'I' for Inactive)
REMARK    1  A    between atoms: C_5  and  C_8 
REMARK    2  A    between atoms: N_9  and  C_26 
REMARK    3  A    between atoms: C_15  and  C_17 
REMARK    4  A    between atoms: C_26  and  C_27 
REMARK    5  A    between atoms: C_27  and  N_28 
ROOT
ATOM      1  C   UNK d   1      40.778  10.168  45.111  0.00  0.00     0.161 C 
ATOM      2  N   UNK d   1      41.033  11.337  44.322  0.00  0.00    -0.331 N 
ATOM      3  C   UNK d   1      41.424  10.795  43.026  0.00  0.00     0.295 C 
ATOM      4  O   UNK d   1      41.312  11.371  41.921  0.00  0.00    -0.264 OA
ATOM      5  C   UNK d   1      41.967   9.468  43.253  0.00  0.00     0.251 C 
ATOM      6  O   UNK d   1      42.423   8.638  42.412  0.00  0.00    -0.282 OA
ATOM      7  C   UNK d   1      41.883   9.254  44.701  0.00  0.00     0.064 C 
ATOM      8  C   UNK d   1      42.603   8.417  45.396  0.00  0.00     0.153 C 
ATOM      9  O   UNK d   1      42.350   8.301  46.768  0.00  0.00    -0.188 OA
ENDROOT
BRANCH   1  10
ATOM     10  C   UNK d   1      40.600  10.311  46.534  0.00  0.00    -0.030 A 
ATOM     11  C   UNK d   1      39.542   9.607  47.137  0.00  0.00     0.011 A 
ATOM     12  C   UNK d   1      39.286   9.652  48.484  0.00  0.00     0.019 A 
ATOM     13  C   UNK d   1      40.072  10.405  49.320  0.00  0.00     0.011 A 
ATOM     14 Br   UNK d   1      39.745  10.492  51.206  0.00  0.00    -0.051 Br
ATOM     15  C   UNK d   1      41.109  11.097  48.737  0.00  0.00     0.019 A 
ATOM     16  C   UNK d   1      41.366  11.051  47.380  0.00  0.00     0.011 A 
ENDBRANCH   1  10
BRANCH   8  17
ATOM     17  C   UNK d   1      43.669   7.608  44.772  0.00  0.00     0.114 A 
ATOM     18  O   UNK d   1      44.880   8.047  44.449  0.00  0.00    -0.307 OA
ATOM     19  C   UNK d   1      45.606   7.102  43.910  0.00  0.00     0.086 A 
ATOM     20  C   UNK d   1      44.874   5.935  43.846  0.00  0.00     0.001 A 
ATOM     21  C   UNK d   1      46.912   7.058  43.413  0.00  0.00     0.038 A 
ATOM     22  C   UNK d   1      43.654   6.286  44.398  0.00  0.00     0.054 A 
ATOM     23  C   UNK d   1      45.424   4.789  43.316  0.00  0.00     0.014 A 
ATOM     24  C   UNK d   1      46.710   4.735  42.824  0.00  0.00     0.001 A 
ATOM     25  C   UNK d   1      47.447   5.904  42.885  0.00  0.00     0.003 A 
ENDBRANCH   8  17
BRANCH   2  26
ATOM     26  C   UNK d   1      40.905  12.754  44.579  0.00  0.00     0.155 C 
BRANCH  26  27
ATOM     27  C   UNK d   1      39.621  13.403  44.275  0.00  0.00     0.254 C 
BRANCH  27  28
ATOM     28  N   UNK d   1      38.730  13.656  45.377  0.00  0.00    -0.077 N 
ATOM     29  C   UNK d   1      37.796  12.586  45.589  0.00  0.00     0.269 C 
ATOM     30  C   UNK d   1      39.364  14.147  46.567  0.00  0.00     0.269 C 
ATOM     31  H   UNK d   1      38.121  14.473  45.027  0.00  0.00     0.279 HD
ENDBRANCH  27  28
ENDBRANCH  26  27
ENDBRANCH   2  26
TORSDOF 5
ENDMDL
