MODEL 1
REMARK VINA RESULT:    -6.869      0.000      0.000
REMARK INTER + INTRA:          -9.182
REMARK INTER:                  -8.074
REMARK INTRA:                  -1.108
REMARK UNBOUND:                -1.108
REMARK  3 active torsions:
REMARK  status: ('A' for Active; 'I' for Inactive)
REMARK    1  A    between atoms: C_4  and  C_8 
REMARK    2  A    between atoms: C_16  and  C_17 
REMARK    3  A    between atoms: C_17  and  N_18 
ROOT
ATOM      1  C   UNK d   1      42.473   9.215  42.797  0.00  0.00     0.053 C 
ATOM      2  C   UNK d   1      42.130  10.186  43.645  0.00  0.00     0.127 A 
ATOM      3  O   UNK d   1      42.424  10.259  45.005  0.00  0.00    -0.305 OA
ATOM      4  C   UNK d   1      41.916  11.406  45.550  0.00  0.00     0.101 A 
ATOM      5  C   UNK d   1      41.257  12.150  44.577  0.00  0.00     0.051 A 
ATOM      6  C   UNK d   1      40.681  13.354  44.951  0.00  0.00     0.021 A 
ATOM      7  C   UNK d   1      40.769  13.789  46.253  0.00  0.00     0.041 A 
ATOM      8  C   UNK d   1      41.438  13.014  47.204  0.00  0.00     0.118 A 
ATOM      9  C   UNK d   1      42.015  11.820  46.862  0.00  0.00     0.039 A 
ATOM     10  O   UNK d   1      41.471  13.539  48.486  0.00  0.00    -0.191 OA
ATOM     11  C   UNK d   1      41.371  11.391  43.320  0.00  0.00     0.218 A 
ATOM     12  O   UNK d   1      40.887  11.754  42.216  0.00  0.00    -0.284 OA
ENDROOT
BRANCH   9  13
ATOM     13  C   UNK d   1      42.635  11.008  47.911  0.00  0.00     0.279 C 
BRANCH  13  14
ATOM     14  N   UNK d   1      44.001  10.676  47.728  0.00  0.00    -0.064 N 
ATOM     15  C   UNK d   1      44.316   9.550  48.592  0.00  0.00     0.265 C 
ATOM     16  C   UNK d   1      45.661   9.597  49.231  0.00  0.00     0.299 C 
ATOM     17  N   UNK d   1      45.990  10.823  49.869  0.00  0.00     0.087 N 
ATOM     18  C   UNK d   1      45.107  11.877  49.490  0.00  0.00     0.299 C 
ATOM     19  C   UNK d   1      47.377  11.152  49.617  0.00  0.00     0.310 C 
ATOM     20  C   UNK d   1      44.841  11.812  48.024  0.00  0.00     0.265 C 
ATOM     21  H   UNK d   1      44.233  10.423  46.720  0.00  0.00     0.280 HD
ENDBRANCH  13  14
ENDBRANCH   9  13
BRANCH   1  22
ATOM     22  C   UNK d   1      43.239   8.068  43.243  0.00  0.00    -0.032 A 
ATOM     23  C   UNK d   1      44.610   8.038  43.120  0.00  0.00     0.030 A 
ATOM     24  C   UNK d   1      45.332   6.924  43.540  0.00  0.00     0.011 A 
ATOM     25 Br   UNK d   1      47.234   6.879  43.360  0.00  0.00    -0.051 Br
ATOM     26  C   UNK d   1      44.667   5.838  44.087  0.00  0.00     0.019 A 
ATOM     27  C   UNK d   1      43.296   5.906  44.192  0.00  0.00     0.002 A 
ATOM     28  C   UNK d   1      42.567   6.998  43.783  0.00  0.00     0.011 A 
ENDBRANCH   1  22
TORSDOF 3
ENDMDL
