/Users/jonathanwahrer/Desktop/Msc/3_Semester/Drug_Design_Praktikum/waehrer_HTS_screening/HTS_experiment/out/docking_results/vina_output/2qfa/1337_docked.pdbqt
 OpenBabel03162220363D

 32 35  0  0  1  0  0  0  0  0999 V2000
   49.8520    4.0310   44.0000 C   0  0  2  0  0  3  0  0  0  0  0  0
   50.7020    3.1300   43.4780 O   0  0  0  0  0  0  0  0  0  0  0  0
   51.7270    2.6780   44.2480 C   0  0  2  0  0  3  0  0  0  0  0  0
   52.2410    1.5240   43.6400 O   0  0  0  0  0  0  0  0  0  0  0  0
   51.5360    0.4510   44.1270 C   0  0  0  0  0  0  0  0  0  0  0  0
   50.7450    0.8780   45.1750 O   0  0  0  0  0  0  0  0  0  0  0  0
   51.2860    2.1200   45.5810 C   0  0  2  0  0  3  0  0  0  0  0  0
   50.2850    2.9770   46.2540 C   0  0  1  0  0  3  0  0  0  0  0  0
   50.8330    3.6160   47.3890 O   0  0  0  0  0  0  0  0  0  0  0  0
   50.3910    4.9150   47.3840 C   0  0  0  0  0  0  0  0  0  0  0  0
   50.2380    5.2180   46.0560 O   0  0  0  0  0  0  0  0  0  0  0  0
   49.6880    4.0670   45.4730 C   0  0  1  0  0  3  0  0  0  0  0  0
   51.4960    5.7620   48.0280 C   0  0  0  0  0  1  0  0  0  0  0  0
   49.1540    5.1340   48.2150 C   0  0  0  0  0  1  0  0  0  0  0  0
   52.4610   -0.6290   44.6920 C   0  0  0  0  0  1  0  0  0  0  0  0
   50.6930   -0.2260   43.0590 C   0  0  0  0  0  1  0  0  0  0  0  0
   48.5350    3.8970   43.3210 C   0  0  0  0  0  0  0  0  0  0  0  0
   47.3670    4.4100   43.9360 N   0  0  0  0  0  0  0  0  0  0  0  0
   47.4640    4.8740   44.8640 H   0  0  0  0  0  0  0  0  0  0  0  0
   48.4110    3.3360   42.1990 O   0  0  0  0  0  0  0  0  0  0  0  0
   46.0600    4.3240   43.3540 C   0  0  0  0  0  2  0  0  0  0  0  0
   45.5210    5.6750   43.0510 C   0  0  0  0  0  0  0  0  0  0  0  0
   44.3690    6.1890   43.6730 N   0  0  0  0  0  0  0  0  0  0  0  0
   43.9070    5.5320   44.3830 H   0  0  0  0  0  0  0  0  0  0  0  0
   46.1470    6.3460   42.2060 O   0  0  0  0  0  0  0  0  0  0  0  0
   43.7560    7.4240   43.4900 C   0  0  0  0  0  0  0  0  0  0  0  0
   42.4920    7.4790   42.9200 C   0  0  0  0  0  3  0  0  0  0  0  0
   41.8040    8.6490   42.6970 C   0  0  0  0  0  3  0  0  0  0  0  0
   42.3750    9.8520   43.0500 C   0  0  0  0  0  0  0  0  0  0  0  0
   41.3950   11.4660   42.7300 Br  0  0  0  0  0  0  0  0  0  0  0  0
   43.6120    9.8450   43.6110 C   0  0  0  0  0  3  0  0  0  0  0  0
   44.3000    8.6420   43.8310 C   0  0  0  0  0  3  0  0  0  0  0  0
  1 17  1  6  0  0  0
  1 12  1  0  0  0  0
  2  1  1  0  0  0  0
  3  2  1  6  0  0  0
  3  7  1  0  0  0  0
  4  5  1  0  0  0  0
  4  3  1  0  0  0  0
  5 15  1  0  0  0  0
  5  6  1  0  0  0  0
  7  6  1  6  0  0  0
  7  8  1  0  0  0  0
  8  9  1  1  0  0  0
 10  9  1  0  0  0  0
 10 13  1  0  0  0  0
 10 14  1  0  0  0  0
 11 10  1  0  0  0  0
 12 11  1  1  0  0  0
 12  8  1  0  0  0  0
 16  5  1  0  0  0  0
 17 18  1  0  0  0  0
 18 19  1  0  0  0  0
 20 17  2  0  0  0  0
 21 18  1  0  0  0  0
 22 21  1  0  0  0  0
 22 23  1  0  0  0  0
 23 24  1  0  0  0  0
 25 22  2  0  0  0  0
 26 23  1  0  0  0  0
 26 32  1  0  0  0  0
 27 26  2  0  0  0  0
 28 27  1  0  0  0  0
 28 29  2  0  0  0  0
 29 31  1  0  0  0  0
 30 29  1  0  0  0  0
 31 32  2  0  0  0  0
M  END
>  <Pose>
1

>  <Score>
-8.200

$$$$
