MODEL 1
REMARK VINA RESULT:    -8.200      0.000      0.000
REMARK INTER + INTRA:         -10.757
REMARK INTER:                 -10.118
REMARK INTRA:                  -0.639
REMARK UNBOUND:                -0.639
REMARK  4 active torsions:
REMARK  status: ('A' for Active; 'I' for Inactive)
REMARK    1  A    between atoms: C_5  and  N_8 
REMARK       I    between atoms: N_8  and  C_9 
REMARK    2  A    between atoms: C_9  and  C_11 
REMARK    3  A    between atoms: C_11  and  N_12 
REMARK       I    between atoms: N_12  and  C_13 
REMARK    4  A    between atoms: C_13  and  C_15 
ROOT
ATOM      1  C   UNK d   1      49.852   4.031  44.000  0.00  0.00     0.248 C 
ATOM      2  O   UNK d   1      50.702   3.130  43.478  0.00  0.00    -0.341 OA
ATOM      3  C   UNK d   1      51.727   2.678  44.248  0.00  0.00     0.296 C 
ATOM      4  O   UNK d   1      52.241   1.524  43.640  0.00  0.00    -0.323 OA
ATOM      5  C   UNK d   1      51.536   0.451  44.127  0.00  0.00     0.160 C 
ATOM      6  O   UNK d   1      50.745   0.878  45.175  0.00  0.00    -0.343 OA
ATOM      7  C   UNK d   1      51.286   2.120  45.581  0.00  0.00     0.212 C 
ATOM      8  C   UNK d   1      50.285   2.977  46.254  0.00  0.00     0.191 C 
ATOM      9  O   UNK d   1      50.833   3.616  47.389  0.00  0.00    -0.345 OA
ATOM     10  C   UNK d   1      50.391   4.915  47.384  0.00  0.00     0.158 C 
ATOM     11  O   UNK d   1      50.238   5.218  46.056  0.00  0.00    -0.345 OA
ATOM     12  C   UNK d   1      49.688   4.067  45.473  0.00  0.00     0.195 C 
ATOM     13  C   UNK d   1      51.496   5.762  48.028  0.00  0.00     0.078 C 
ATOM     14  C   UNK d   1      49.154   5.134  48.215  0.00  0.00     0.078 C 
ATOM     15  C   UNK d   1      52.461  -0.629  44.692  0.00  0.00     0.078 C 
ATOM     16  C   UNK d   1      50.693  -0.226  43.059  0.00  0.00     0.078 C 
ENDROOT
BRANCH   1  17
ATOM     17  C   UNK d   1      48.535   3.897  43.321  0.00  0.00     0.249 C 
ATOM     18  N   UNK d   1      47.367   4.410  43.936  0.00  0.00    -0.350 N 
ATOM     19  H   UNK d   1      47.464   4.874  44.864  0.00  0.00     0.163 HD
ATOM     20  O   UNK d   1      48.411   3.336  42.199  0.00  0.00    -0.271 OA
BRANCH  18  21
ATOM     21  C   UNK d   1      46.060   4.324  43.354  0.00  0.00     0.225 C 
BRANCH  21  22
ATOM     22  C   UNK d   1      45.521   5.675  43.051  0.00  0.00     0.239 C 
ATOM     23  N   UNK d   1      44.369   6.189  43.673  0.00  0.00    -0.326 N 
ATOM     24  H   UNK d   1      43.907   5.532  44.383  0.00  0.00     0.169 HD
ATOM     25  O   UNK d   1      46.147   6.346  42.206  0.00  0.00    -0.271 OA
BRANCH  23  26
ATOM     26  C   UNK d   1      43.756   7.424  43.490  0.00  0.00     0.034 A 
ATOM     27  C   UNK d   1      42.492   7.479  42.920  0.00  0.00     0.031 A 
ATOM     28  C   UNK d   1      41.804   8.649  42.697  0.00  0.00     0.021 A 
ATOM     29  C   UNK d   1      42.375   9.852  43.050  0.00  0.00     0.011 A 
ATOM     30 Br   UNK d   1      41.395  11.466  42.730  0.00  0.00    -0.051 Br
ATOM     31  C   UNK d   1      43.612   9.845  43.611  0.00  0.00     0.021 A 
ATOM     32  C   UNK d   1      44.300   8.642  43.831  0.00  0.00     0.031 A 
ENDBRANCH  23  26
ENDBRANCH  21  22
ENDBRANCH  18  21
ENDBRANCH   1  17
TORSDOF 4
ENDMDL
