MODEL 1
REMARK VINA RESULT:    -8.059      0.000      0.000
REMARK INTER + INTRA:         -11.135
REMARK INTER:                 -10.415
REMARK INTRA:                  -0.720
REMARK UNBOUND:                -0.720
REMARK  5 active torsions:
REMARK  status: ('A' for Active; 'I' for Inactive)
REMARK    1  A    between atoms: C_5  and  C_8 
REMARK    2  A    between atoms: N_11  and  C_13 
REMARK    3  A    between atoms: C_13  and  C_14 
REMARK       I    between atoms: C_14  and  N_16 
REMARK    4  A    between atoms: N_16  and  C_17 
REMARK    5  A    between atoms: C_20  and  C_23 
ROOT
ATOM      1  C   UNK d   1      43.221  12.898  45.766  0.00  0.00     0.061 A 
ATOM      2  N   UNK d   1      41.894  13.163  45.764  0.00  0.00    -0.335 N 
ATOM      3  C   UNK d   1      41.230  12.036  46.093  0.00  0.00     0.086 A 
ATOM      4  N   UNK d   1      42.100  11.027  46.313  0.00  0.00    -0.336 N 
ATOM      5  C   UNK d   1      43.323  11.568  46.110  0.00  0.00     0.123 A 
ATOM      6  C   UNK d   1      39.768  12.298  46.100  0.00  0.00     0.078 A 
ATOM      7  C   UNK d   1      39.596  13.707  45.645  0.00  0.00     0.028 A 
ATOM      8  C   UNK d   1      40.971  14.250  45.523  0.00  0.00     0.131 A 
ENDROOT
BRANCH   4   9
ATOM      9  C   UNK d   1      41.815   9.657  46.688  0.00  0.00     0.232 C 
BRANCH   9  10
ATOM     10  C   UNK d   1      42.878   8.755  46.160  0.00  0.00     0.240 C 
ATOM     11  O   UNK d   1      43.749   8.370  46.942  0.00  0.00    -0.271 OA
ATOM     12  N   UNK d   1      42.824   8.402  44.810  0.00  0.00    -0.326 N 
ATOM     13  H   UNK d   1      42.040   8.769  44.173  0.00  0.00     0.169 HD
BRANCH  12  14
ATOM     14  C   UNK d   1      43.753   7.549  44.159  0.00  0.00     0.034 A 
ATOM     15  C   UNK d   1      44.721   8.120  43.322  0.00  0.00     0.030 A 
ATOM     16  C   UNK d   1      45.614   7.332  42.668  0.00  0.00     0.009 A 
ATOM     17  C   UNK d   1      45.595   5.954  42.809  0.00  0.00    -0.058 A 
ATOM     18  C   UNK d   1      44.647   5.407  43.626  0.00  0.00     0.009 A 
ATOM     19  C   UNK d   1      43.713   6.193  44.313  0.00  0.00     0.030 A 
BRANCH  17  20
ATOM     20  C   UNK d   1      46.581   5.114  42.085  0.00  0.00     0.034 C 
ATOM     21  C   UNK d   1      47.655   4.672  43.084  0.00  0.00     0.010 C 
ENDBRANCH  17  20
ENDBRANCH  12  14
ENDBRANCH   9  10
ENDBRANCH   4   9
BRANCH   1  22
ATOM     22  C   UNK d   1      44.353  13.777  45.477  0.00  0.00    -0.008 A 
ATOM     23  C   UNK d   1      45.130  13.587  44.352  0.00  0.00     0.015 A 
ATOM     24  C   UNK d   1      46.207  14.403  44.056  0.00  0.00     0.024 A 
ATOM     25  C   UNK d   1      46.555  15.452  44.879  0.00  0.00     0.034 A 
ATOM     26 Cl   UNK d   1      47.922  16.495  44.509  0.00  0.00    -0.084 Cl
ATOM     27  C   UNK d   1      45.788  15.654  46.007  0.00  0.00     0.024 A 
ATOM     28  C   UNK d   1      44.699  14.826  46.303  0.00  0.00     0.015 A 
ENDBRANCH   1  22
TORSDOF 5
ENDMDL
