/Users/jonathanwahrer/Desktop/Msc/3_Semester/Drug_Design_Praktikum/waehrer_HTS_screening/HTS_experiment/out/docking_results/vina_output/2qfa/1343_docked.pdbqt
 OpenBabel03162220373D

 41 44  0  0  1  0  0  0  0  0999 V2000
   43.8700   12.7590   44.7030 C   0  0  0  0  0  0  0  0  0  0  0  0
   43.4520   13.5320   45.7380 N   0  0  0  0  0  0  0  0  0  0  0  0
   44.3930   14.4820   45.9780 C   0  0  0  0  0  0  0  0  0  0  0  0
   44.5020   15.4850   46.8570 N   0  0  0  0  0  0  0  0  0  0  0  0
   45.5700   16.3030   46.8810 C   0  0  0  0  0  0  0  0  0  0  0  0
   46.5640   16.1060   45.9870 N   0  0  0  0  0  0  0  0  0  0  0  0
   46.5230   15.1320   45.0860 C   0  0  0  0  0  0  0  0  0  0  0  0
   45.4250   14.2950   45.0660 C   0  0  0  0  0  0  0  0  0  0  0  0
   45.0680   13.2580   44.3290 N   0  0  0  0  0  0  0  0  0  0  0  0
   43.1700   11.6550   44.1430 N   0  0  0  0  0  0  0  0  0  0  0  0
   42.2590   11.8110   43.6860 H   0  0  0  0  0  0  0  0  0  0  0  0
   43.7720   10.3850   44.2430 N   0  0  0  0  0  0  0  0  0  0  0  0
   43.7280    9.5100   43.3250 C   0  0  0  0  0  3  0  0  0  0  0  0
   44.3400    8.1880   43.4000 C   0  0  0  0  0  0  0  0  0  0  0  0
   43.5670    7.0470   43.4330 C   0  0  0  0  0  0  0  0  0  0  0  0
   41.6750    7.2280   43.3770 Br  0  0  0  0  0  0  0  0  0  0  0  0
   44.1460    5.7780   43.5050 C   0  0  0  0  0  3  0  0  0  0  0  0
   45.5150    5.6200   43.5470 C   0  0  0  0  0  0  0  0  0  0  0  0
   46.2890    6.7610   43.5150 C   0  0  0  0  0  0  0  0  0  0  0  0
   45.7060    8.0090   43.4430 C   0  0  0  0  0  3  0  0  0  0  0  0
   46.1110    4.3600   43.6190 O   0  0  0  0  0  0  0  0  0  0  0  0
   46.8110    3.7800   42.5600 C   0  0  0  0  0  1  0  0  0  0  0  0
   47.6690    6.5900   43.5570 O   0  0  0  0  0  0  0  0  0  0  0  0
   48.3890    6.2480   44.6990 C   0  0  0  0  0  1  0  0  0  0  0  0
   42.2250   13.3700   46.4540 C   0  0  2  0  0  3  0  0  0  0  0  0
   41.8770   12.0460   46.6840 O   0  0  0  0  0  0  0  0  0  0  0  0
   40.5300   11.9810   46.8970 C   0  0  1  0  0  3  0  0  0  0  0  0
   39.8930   13.2710   46.5100 C   0  0  2  0  0  3  0  0  0  0  0  0
   41.0240   13.9690   45.7520 C   0  0  1  0  0  3  0  0  0  0  0  0
   39.9550   10.8880   45.9940 C   0  0  0  0  0  2  0  0  0  0  0  0
   40.9850   10.0650   45.5250 O   0  0  0  0  0  0  0  0  0  0  0  0
   41.0000   10.0370   44.5340 H   0  0  0  0  0  0  0  0  0  0  0  0
   39.6670   14.0670   47.6520 O   0  0  0  0  0  0  0  0  0  0  0  0
   39.8100   13.5580   48.4790 H   0  0  0  0  0  0  0  0  0  0  0  0
   40.9540   15.3510   45.9290 O   0  0  0  0  0  0  0  0  0  0  0  0
   41.5920   15.6340   46.6330 H   0  0  0  0  0  0  0  0  0  0  0  0
   47.5350   14.9030   44.1480 O   0  0  0  0  0  0  0  0  0  0  0  0
   48.1560   14.1260   44.3440 H   0  0  0  0  0  0  0  0  0  0  0  0
   45.6710   17.3740   47.8310 N   0  0  0  0  0  0  0  0  0  0  0  0
   45.1440   17.4210   48.7090 H   0  0  0  0  0  0  0  0  0  0  0  0
   46.3300   18.1440   47.5910 H   0  0  0  0  0  0  0  0  0  0  0  0
  1  2  1  0  0  0  0
  2  3  1  0  0  0  0
  3  4  1  0  0  0  0
  4  5  2  0  0  0  0
  5 39  1  0  0  0  0
  6  5  1  0  0  0  0
  7  6  2  0  0  0  0
  8  7  1  0  0  0  0
  8  3  2  0  0  0  0
  9  1  2  0  0  0  0
  9  8  1  0  0  0  0
 10 12  1  0  0  0  0
 10  1  1  0  0  0  0
 11 10  1  0  0  0  0
 13 14  1  0  0  0  0
 13 12  2  0  0  0  0
 14 15  2  0  0  0  0
 14 20  1  0  0  0  0
 15 17  1  0  0  0  0
 16 15  1  0  0  0  0
 17 18  2  0  0  0  0
 18 21  1  0  0  0  0
 19 18  1  0  0  0  0
 19 23  1  0  0  0  0
 20 19  2  0  0  0  0
 22 21  1  0  0  0  0
 23 24  1  0  0  0  0
 25  2  1  6  0  0  0
 25 26  1  0  0  0  0
 26 27  1  0  0  0  0
 27 30  1  6  0  0  0
 28 27  1  0  0  0  0
 28 33  1  1  0  0  0
 29 35  1  1  0  0  0
 29 25  1  0  0  0  0
 29 28  1  0  0  0  0
 31 30  1  0  0  0  0
 32 31  1  0  0  0  0
 33 34  1  0  0  0  0
 35 36  1  0  0  0  0
 37 38  1  0  0  0  0
 37  7  1  0  0  0  0
 39 40  1  0  0  0  0
 41 39  1  0  0  0  0
M  END
>  <Pose>
1

>  <Score>
-6.254

$$$$
