MODEL 1
REMARK VINA RESULT:    -6.254      0.000      0.000
REMARK INTER + INTRA:         -11.356
REMARK INTER:                  -9.728
REMARK INTRA:                  -1.629
REMARK UNBOUND:                -1.629
REMARK  12 active torsions:
REMARK  status: ('A' for Active; 'I' for Inactive)
REMARK    1  A    between atoms: C_3  and  C_12 
REMARK    2  A    between atoms: C_5  and  O_10 
REMARK    3  A    between atoms: C_6  and  O_8 
REMARK    4  A    between atoms: N_13  and  N_14 
REMARK    5  A    between atoms: N_14  and  C_15 
REMARK    6  A    between atoms: N_16  and  C_26 
REMARK    7  A    between atoms: C_19  and  N_25 
REMARK    8  A    between atoms: C_21  and  O_24 
REMARK    9  A    between atoms: C_28  and  C_33 
REMARK   10  A    between atoms: C_29  and  O_32 
REMARK   11  A    between atoms: C_30  and  O_31 
REMARK   12  A    between atoms: C_33  and  O_34 
ROOT
ATOM      1  C   UNK d   1      43.870  12.759  44.703  0.00  0.00     0.727 A 
ATOM      2  N   UNK d   1      43.452  13.532  45.738  0.00  0.00    -0.130 N 
ATOM      3  C   UNK d   1      44.393  14.482  45.978  0.00  0.00     0.201 A 
ATOM      4  N   UNK d   1      44.502  15.485  46.857  0.00  0.00    -0.042 NA
ATOM      5  C   UNK d   1      45.570  16.303  46.881  0.00  0.00     0.724 A 
ATOM      6  N   UNK d   1      46.564  16.106  45.987  0.00  0.00    -0.036 NA
ATOM      7  C   UNK d   1      46.523  15.132  45.086  0.00  0.00     0.215 A 
ATOM      8  C   UNK d   1      45.425  14.295  45.066  0.00  0.00     0.176 A 
ATOM      9  N   UNK d   1      45.068  13.258  44.329  0.00  0.00    -0.055 NA
ENDROOT
BRANCH   1  10
ATOM     10  N   UNK d   1      43.170  11.655  44.143  0.00  0.00    -0.107 N 
ATOM     11  H   UNK d   1      42.259  11.811  43.686  0.00  0.00     0.208 HD
BRANCH  10  12
ATOM     12  N   UNK d   1      43.772  10.385  44.243  0.00  0.00    -0.172 NA
ATOM     13  C   UNK d   1      43.728   9.510  43.325  0.00  0.00     0.152 C 
BRANCH  13  14
ATOM     14  C   UNK d   1      44.340   8.188  43.400  0.00  0.00     0.003 A 
ATOM     15  C   UNK d   1      43.567   7.047  43.433  0.00  0.00     0.025 A 
ATOM     16 Br   UNK d   1      41.675   7.228  43.377  0.00  0.00    -0.050 Br
ATOM     17  C   UNK d   1      44.146   5.778  43.505  0.00  0.00     0.059 A 
ATOM     18  C   UNK d   1      45.515   5.620  43.547  0.00  0.00     0.102 A 
ATOM     19  C   UNK d   1      46.289   6.761  43.515  0.00  0.00     0.102 A 
ATOM     20  C   UNK d   1      45.706   8.009  43.443  0.00  0.00     0.054 A 
BRANCH  18  21
ATOM     21  O   UNK d   1      46.111   4.360  43.619  0.00  0.00    -0.353 OA
ATOM     22  C   UNK d   1      46.811   3.780  42.560  0.00  0.00     0.210 C 
ENDBRANCH  18  21
BRANCH  19  23
ATOM     23  O   UNK d   1      47.669   6.590  43.557  0.00  0.00    -0.353 OA
ATOM     24  C   UNK d   1      48.389   6.248  44.699  0.00  0.00     0.210 C 
ENDBRANCH  19  23
ENDBRANCH  13  14
ENDBRANCH  10  12
ENDBRANCH   1  10
BRANCH   2  25
ATOM     25  C   UNK d   1      42.225  13.370  46.454  0.00  0.00     0.279 C 
ATOM     26  O   UNK d   1      41.877  12.046  46.684  0.00  0.00    -0.353 OA
ATOM     27  C   UNK d   1      40.530  11.981  46.897  0.00  0.00     0.179 C 
ATOM     28  C   UNK d   1      39.893  13.271  46.510  0.00  0.00     0.182 C 
ATOM     29  C   UNK d   1      41.024  13.969  45.752  0.00  0.00     0.199 C 
BRANCH  27  30
ATOM     30  C   UNK d   1      39.955  10.888  45.994  0.00  0.00     0.198 C 
BRANCH  30  31
ATOM     31  O   UNK d   1      40.985  10.065  45.525  0.00  0.00    -0.398 OA
ATOM     32  H   UNK d   1      41.000  10.037  44.534  0.00  0.00     0.209 HD
ENDBRANCH  30  31
ENDBRANCH  27  30
BRANCH  28  33
ATOM     33  O   UNK d   1      39.667  14.067  47.652  0.00  0.00    -0.390 OA
ATOM     34  H   UNK d   1      39.810  13.558  48.479  0.00  0.00     0.210 HD
ENDBRANCH  28  33
BRANCH  29  35
ATOM     35  O   UNK d   1      40.954  15.351  45.929  0.00  0.00    -0.388 OA
ATOM     36  H   UNK d   1      41.592  15.634  46.633  0.00  0.00     0.210 HD
ENDBRANCH  29  35
ENDBRANCH   2  25
BRANCH   7  37
ATOM     37  O   UNK d   1      47.535  14.903  44.148  0.00  0.00    -0.343 OA
ATOM     38  H   UNK d   1      48.156  14.126  44.344  0.00  0.00     0.219 HD
ENDBRANCH   7  37
BRANCH   5  39
ATOM     39  N   UNK d   1      45.671  17.374  47.831  0.00  0.00    -0.231 N 
ATOM     40  H   UNK d   1      45.144  17.421  48.709  0.00  0.00     0.174 HD
ATOM     41  H   UNK d   1      46.330  18.144  47.591  0.00  0.00     0.174 HD
ENDBRANCH   5  39
TORSDOF 12
ENDMDL
