MODEL 1
REMARK VINA RESULT:    -8.112      0.000      0.000
REMARK INTER + INTRA:         -10.791
REMARK INTER:                 -10.009
REMARK INTRA:                  -0.783
REMARK UNBOUND:                -0.783
REMARK  4 active torsions:
REMARK  status: ('A' for Active; 'I' for Inactive)
REMARK    1  A    between atoms: C_3  and  C_8 
REMARK    2  A    between atoms: C_11  and  C_13 
REMARK    3  A    between atoms: C_13  and  N_14 
REMARK       I    between atoms: N_14  and  C_15 
REMARK    4  A    between atoms: C_15  and  C_17 
ROOT
ATOM      1  N   UNK d   1      47.740   5.928  44.185  0.00  0.00    -0.353 N 
ATOM      2  C   UNK d   1      48.317   4.662  43.981  0.00  0.00     0.229 C 
ATOM      3  O   UNK d   1      48.148   4.077  42.889  0.00  0.00    -0.273 OA
ATOM      4  H   UNK d   1      47.885   6.410  45.094  0.00  0.00     0.162 HD
ENDROOT
BRANCH   1   5
ATOM      5  C   UNK d   1      46.951   6.573  43.152  0.00  0.00     0.211 C 
BRANCH   5   6
ATOM      6  C   UNK d   1      45.720   7.202  43.753  0.00  0.00     0.190 A 
ATOM      7  O   UNK d   1      45.090   6.852  44.845  0.00  0.00    -0.194 OA
ATOM      8  N   UNK d   1      44.058   7.645  45.041  0.00  0.00    -0.105 NA
ATOM      9  C   UNK d   1      43.997   8.549  44.050  0.00  0.00     0.191 A 
ATOM     10  N   UNK d   1      45.042   8.260  43.254  0.00  0.00    -0.202 NA
BRANCH   9  11
ATOM     11  C   UNK d   1      43.012   9.612  43.876  0.00  0.00     0.036 A 
ATOM     12  C   UNK d   1      41.913   9.472  43.055  0.00  0.00     0.048 A 
ATOM     13 Cl   UNK d   1      41.718   7.959  42.205  0.00  0.00    -0.083 Cl
ATOM     14  C   UNK d   1      40.971  10.483  42.886  0.00  0.00     0.025 A 
ATOM     15  C   UNK d   1      41.115  11.675  43.549  0.00  0.00     0.002 A 
ATOM     16  C   UNK d   1      42.224  11.836  44.388  0.00  0.00     0.001 A 
ATOM     17  C   UNK d   1      43.135  10.814  44.530  0.00  0.00     0.017 A 
ENDBRANCH   9  11
ENDBRANCH   5   6
ENDBRANCH   1   5
BRANCH   2  18
ATOM     18  C   UNK d   1      49.112   4.027  45.043  0.00  0.00     0.151 C 
ATOM     19  C   UNK d   1      49.968   2.890  44.514  0.00  0.00     0.022 C 
ATOM     20  C   UNK d   1      50.906   2.383  45.557  0.00  0.00     0.003 C 
ATOM     21  C   UNK d   1      52.251   3.032  45.567  0.00  0.00     0.022 C 
ATOM     22  C   UNK d   1      52.205   4.467  45.052  0.00  0.00     0.154 C 
ATOM     23  N   UNK d   1      51.224   5.176  45.841  0.00  0.00    -0.234 N 
ATOM     24  N   UNK d   1      51.525   6.124  46.687  0.00  0.00    -0.044 NA
ATOM     25  C   UNK d   1      49.898   4.984  45.835  0.00  0.00     0.161 A 
ATOM     26  N   UNK d   1      50.420   6.561  47.239  0.00  0.00    -0.023 NA
ATOM     27  N   UNK d   1      49.420   5.871  46.725  0.00  0.00    -0.113 NA
ENDBRANCH   2  18
TORSDOF 4
ENDMDL
