MODEL 1
REMARK VINA RESULT:    -7.692      0.000      0.000
REMARK INTER + INTRA:          -9.824
REMARK INTER:                  -9.041
REMARK INTRA:                  -0.784
REMARK UNBOUND:                -0.784
REMARK  3 active torsions:
REMARK  status: ('A' for Active; 'I' for Inactive)
REMARK    1  A    between atoms: C_4  and  C_8 
REMARK       I    between atoms: C_8  and  N_10 
REMARK    2  A    between atoms: N_10  and  C_11 
REMARK    3  A    between atoms: C_11  and  C_13 
REMARK       I    between atoms: C_13  and  N_15 
ROOT
ATOM      1  C   UNK d   1      42.781   8.615  43.715  0.00  0.00     0.242 C 
ATOM      2  O   UNK d   1      42.175   7.576  43.382  0.00  0.00    -0.271 OA
ATOM      3  N   UNK d   1      42.290   9.868  43.331  0.00  0.00    -0.350 N 
ATOM      4  C   UNK d   1      40.999  10.258  42.875  0.00  0.00     0.129 C 
ATOM      5  C   UNK d   1      40.847  11.707  43.361  0.00  0.00     0.068 C 
ATOM      6  C   UNK d   1      41.616  11.961  44.634  0.00  0.00     0.206 C 
ATOM      7  N   UNK d   1      41.470  13.323  45.071  0.00  0.00     0.099 N 
ATOM      8  C   UNK d   1      42.323  13.504  46.254  0.00  0.00     0.277 C 
ATOM      9  C   UNK d   1      41.827  12.710  47.423  0.00  0.00     0.089 C 
ATOM     10  C   UNK d   1      41.188  11.437  47.022  0.00  0.00     0.039 A 
ATOM     11  N   UNK d   1      40.644  10.469  47.766  0.00  0.00    -0.352 N 
ATOM     12  C   UNK d   1      40.191   9.501  46.946  0.00  0.00     0.207 A 
ATOM     13  N   UNK d   1      40.464   9.882  45.690  0.00  0.00    -0.244 NA
ATOM     14  C   UNK d   1      41.080  11.074  45.673  0.00  0.00     0.097 A 
ATOM     15  C   UNK d   1      43.131  11.777  44.451  0.00  0.00     0.068 C 
ATOM     16  C   UNK d   1      43.266  11.002  43.211  0.00  0.00     0.129 C 
ATOM     17  H   UNK d   1      41.864  13.964  44.341  0.00  0.00     0.317 HD
ATOM     18  H   UNK d   1      40.544  10.397  48.803  0.00  0.00     0.166 HD
ENDROOT
BRANCH   1  19
ATOM     19  C   UNK d   1      44.020   8.464  44.538  0.00  0.00     0.173 C 
ATOM     20  C   UNK d   1      43.550   8.245  46.000  0.00  0.00     0.042 C 
BRANCH  19  21
ATOM     21  N   UNK d   1      44.773   7.268  44.247  0.00  0.00    -0.344 N 
ATOM     22  C   UNK d   1      45.837   7.329  43.260  0.00  0.00     0.252 C 
ATOM     23  O   UNK d   1      46.142   8.388  42.699  0.00  0.00    -0.268 OA
ATOM     24  H   UNK d   1      44.566   6.395  44.729  0.00  0.00     0.163 HD
BRANCH  22  25
ATOM     25  C   UNK d   1      46.512   6.054  42.965  0.00  0.00     0.033 A 
ATOM     26  C   UNK d   1      47.530   5.636  43.838  0.00  0.00     0.036 A 
ATOM     27  C   UNK d   1      48.242   4.476  43.659  0.00  0.00     0.011 A 
ATOM     28 Br   UNK d   1      49.617   3.982  44.921  0.00  0.00    -0.051 Br
ATOM     29  C   UNK d   1      47.946   3.686  42.574  0.00  0.00     0.019 A 
ATOM     30  C   UNK d   1      46.947   4.084  41.701  0.00  0.00     0.002 A 
ATOM     31  C   UNK d   1      46.234   5.262  41.892  0.00  0.00     0.017 A 
ENDBRANCH  22  25
ENDBRANCH  19  21
ENDBRANCH   1  19
TORSDOF 3
ENDMDL
