MODEL 1
REMARK VINA RESULT:    -7.940      0.000      0.000
REMARK INTER + INTRA:         -11.910
REMARK INTER:                 -10.957
REMARK INTRA:                  -0.953
REMARK UNBOUND:                -0.953
REMARK  7 active torsions:
REMARK  status: ('A' for Active; 'I' for Inactive)
REMARK    1  A    between atoms: C_7  and  C_11 
REMARK    2  A    between atoms: C_11  and  O_12 
REMARK    3  A    between atoms: O_12  and  C_13 
REMARK    4  A    between atoms: C_13  and  C_15 
REMARK    5  A    between atoms: N_17  and  C_26 
REMARK    6  A    between atoms: C_26  and  C_27 
REMARK    7  A    between atoms: C_27  and  O_28 
ROOT
ATOM      1  C   UNK d   1      43.942   7.148  44.325  0.00  0.00     0.315 C 
ATOM      2  O   UNK d   1      43.494   6.030  44.108  0.00  0.00    -0.257 OA
ENDROOT
BRANCH   1   3
ATOM      3  O   UNK d   1      45.234   7.307  43.752  0.00  0.00    -0.310 OA
BRANCH   3   4
ATOM      4  C   UNK d   1      45.501   6.635  42.551  0.00  0.00     0.238 C 
BRANCH   4   5
ATOM      5  C   UNK d   1      46.593   5.677  42.814  0.00  0.00     0.066 A 
ATOM      6  N   UNK d   1      47.404   5.860  43.869  0.00  0.00    -0.233 NA
ATOM      7  C   UNK d   1      48.413   5.021  44.157  0.00  0.00     0.137 A 
ATOM      8  N   UNK d   1      48.650   3.954  43.386  0.00  0.00    -0.272 N 
ATOM      9  C   UNK d   1      49.218   5.242  45.242  0.00  0.00     0.052 A 
ATOM     10  C   UNK d   1      49.667   3.105  43.671  0.00  0.00     0.121 A 
ATOM     11  C   UNK d   1      47.884   3.696  42.306  0.00  0.00     0.255 A 
ATOM     12  C   UNK d   1      50.491   3.311  44.763  0.00  0.00     0.027 A 
ATOM     13 Br   UNK d   1      51.929   2.092  45.149  0.00  0.00    -0.050 Br
ATOM     14  C   UNK d   1      50.263   4.401  45.566  0.00  0.00     0.024 A 
ATOM     15  C   UNK d   1      46.835   4.583  42.022  0.00  0.00     0.104 A 
ATOM     16  O   UNK d   1      48.078   2.704  41.560  0.00  0.00    -0.268 OA
ENDBRANCH   4   5
ENDBRANCH   3   4
ENDBRANCH   1   3
BRANCH   1  17
ATOM     17  C   UNK d   1      43.359   8.262  45.048  0.00  0.00     0.163 A 
ATOM     18  N   UNK d   1      43.516   8.367  46.402  0.00  0.00    -0.163 NA
ATOM     19  N   UNK d   1      42.995   9.372  47.083  0.00  0.00    -0.231 N 
ATOM     20  C   UNK d   1      42.286  10.338  46.476  0.00  0.00     0.274 A 
ATOM     21  O   UNK d   1      41.786  11.304  47.146  0.00  0.00    -0.266 OA
ATOM     22  C   UNK d   1      42.081  10.305  45.117  0.00  0.00     0.046 A 
ATOM     23  C   UNK d   1      42.643   9.233  44.420  0.00  0.00     0.016 A 
ATOM     24  C   UNK d   1      41.355  11.301  44.519  0.00  0.00     0.018 A 
ATOM     25  C   UNK d   1      42.416   9.241  43.066  0.00  0.00     0.015 A 
ATOM     26  C   UNK d   1      41.680  10.246  42.446  0.00  0.00     0.001 A 
ATOM     27  C   UNK d   1      41.140  11.287  43.164  0.00  0.00     0.001 A 
BRANCH  19  28
ATOM     28  C   UNK d   1      43.167   9.473  48.518  0.00  0.00     0.180 C 
BRANCH  28  29
ATOM     29  C   UNK d   1      44.608   9.658  48.913  0.00  0.00     0.186 C 
BRANCH  29  30
ATOM     30  O   UNK d   1      45.429   8.657  48.425  0.00  0.00    -0.399 OA
ATOM     31  H   UNK d   1      44.967   7.798  48.569  0.00  0.00     0.209 HD
ENDBRANCH  29  30
ENDBRANCH  28  29
ENDBRANCH  19  28
ENDBRANCH   1  17
TORSDOF 7
ENDMDL
