/Users/jonathanwahrer/Desktop/Msc/3_Semester/Drug_Design_Praktikum/waehrer_HTS_screening/HTS_experiment/out/docking_results/vina_output/2qfa/1381_docked.pdbqt
 OpenBabel03162220383D

 31 34  0  0  0  0  0  0  0  0999 V2000
   43.9420    7.1480   44.3250 C   0  0  0  0  0  0  0  0  0  0  0  0
   43.4940    6.0300   44.1080 O   0  0  0  0  0  0  0  0  0  0  0  0
   45.2340    7.3070   43.7520 O   0  0  0  0  0  0  0  0  0  0  0  0
   45.5010    6.6350   42.5510 C   0  0  0  0  0  2  0  0  0  0  0  0
   46.5930    5.6770   42.8140 C   0  0  0  0  0  0  0  0  0  0  0  0
   47.4040    5.8600   43.8690 N   0  0  0  0  0  0  0  0  0  0  0  0
   48.4130    5.0210   44.1570 C   0  0  0  0  0  0  0  0  0  0  0  0
   48.6500    3.9540   43.3860 N   0  0  0  0  0  0  0  0  0  0  0  0
   49.2180    5.2420   45.2420 C   0  0  0  0  0  3  0  0  0  0  0  0
   49.6670    3.1050   43.6710 C   0  0  0  0  0  3  0  0  0  0  0  0
   47.8840    3.6960   42.3060 C   0  0  0  0  0  0  0  0  0  0  0  0
   50.4910    3.3110   44.7630 C   0  0  0  0  0  0  0  0  0  0  0  0
   51.9290    2.0920   45.1490 Br  0  0  0  0  0  0  0  0  0  0  0  0
   50.2630    4.4010   45.5660 C   0  0  0  0  0  3  0  0  0  0  0  0
   46.8350    4.5830   42.0220 C   0  0  0  0  0  3  0  0  0  0  0  0
   48.0780    2.7040   41.5600 O   0  0  0  0  0  0  0  0  0  0  0  0
   43.3590    8.2620   45.0480 C   0  0  0  0  0  0  0  0  0  0  0  0
   43.5160    8.3670   46.4020 N   0  0  0  0  0  0  0  0  0  0  0  0
   42.9950    9.3720   47.0830 N   0  0  0  0  0  0  0  0  0  0  0  0
   42.2860   10.3380   46.4760 C   0  0  0  0  0  0  0  0  0  0  0  0
   41.7860   11.3040   47.1460 O   0  0  0  0  0  0  0  0  0  0  0  0
   42.0810   10.3050   45.1170 C   0  0  0  0  0  0  0  0  0  0  0  0
   42.6430    9.2330   44.4200 C   0  0  0  0  0  0  0  0  0  0  0  0
   41.3550   11.3010   44.5190 C   0  0  0  0  0  3  0  0  0  0  0  0
   42.4160    9.2410   43.0660 C   0  0  0  0  0  3  0  0  0  0  0  0
   41.6800   10.2460   42.4460 C   0  0  0  0  0  3  0  0  0  0  0  0
   41.1400   11.2870   43.1640 C   0  0  0  0  0  3  0  0  0  0  0  0
   43.1670    9.4730   48.5180 C   0  0  0  0  0  2  0  0  0  0  0  0
   44.6080    9.6580   48.9130 C   0  0  0  0  0  2  0  0  0  0  0  0
   45.4290    8.6570   48.4250 O   0  0  0  0  0  0  0  0  0  0  0  0
   44.9670    7.7980   48.5690 H   0  0  0  0  0  0  0  0  0  0  0  0
  1 17  1  0  0  0  0
  2  1  2  0  0  0  0
  3  1  1  0  0  0  0
  4  5  1  0  0  0  0
  4  3  1  0  0  0  0
  5  6  1  0  0  0  0
  6  7  2  0  0  0  0
  7  9  1  0  0  0  0
  8 10  1  0  0  0  0
  8  7  1  0  0  0  0
  9 14  2  0  0  0  0
 10 12  2  0  0  0  0
 11  8  1  0  0  0  0
 12 13  1  0  0  0  0
 12 14  1  0  0  0  0
 15 11  1  0  0  0  0
 15  5  2  0  0  0  0
 16 11  2  0  0  0  0
 17 18  2  0  0  0  0
 18 19  1  0  0  0  0
 19 28  1  0  0  0  0
 20 19  1  0  0  0  0
 20 21  2  0  0  0  0
 22 20  1  0  0  0  0
 23 17  1  0  0  0  0
 23 22  2  0  0  0  0
 24 22  1  0  0  0  0
 25 23  1  0  0  0  0
 26 25  2  0  0  0  0
 26 27  1  0  0  0  0
 27 24  2  0  0  0  0
 28 29  1  0  0  0  0
 30 31  1  0  0  0  0
 30 29  1  0  0  0  0
M  END
>  <Pose>
1

>  <Score>
-7.940

$$$$
