MODEL 1
REMARK VINA RESULT:    -8.860      0.000      0.000
REMARK INTER + INTRA:         -10.815
REMARK INTER:                 -11.190
REMARK INTRA:                   0.375
REMARK UNBOUND:                 0.375
REMARK  5 active torsions:
REMARK  status: ('A' for Active; 'I' for Inactive)
REMARK    1  A    between atoms: C_6  and  C_12 
REMARK    2  A    between atoms: C_12  and  C_13 
REMARK    3  A    between atoms: C_13  and  C_14 
REMARK       I    between atoms: C_14  and  N_16 
REMARK    4  A    between atoms: C_18  and  N_24 
REMARK    5  A    between atoms: C_19  and  O_22 
ROOT
ATOM      1  C   UNK d   1      45.235   6.934  42.820  0.00  0.00     0.220 C 
ATOM      2  O   UNK d   1      45.893   7.781  42.174  0.00  0.00    -0.273 OA
ATOM      3  N   UNK d   1      43.948   7.313  43.355  0.00  0.00    -0.350 N 
ATOM      4  C   UNK d   1      43.467   8.648  43.128  0.00  0.00     0.154 C 
ATOM      5  C   UNK d   1      43.449   9.352  44.469  0.00  0.00     0.146 C 
ATOM      6  C   UNK d   1      43.163   8.448  45.613  0.00  0.00     0.078 C 
ATOM      7  C   UNK d   1      42.502   7.164  45.267  0.00  0.00     0.059 C 
ATOM      8  C   UNK d   1      43.102   6.433  44.112  0.00  0.00     0.129 C 
ATOM      9  C   UNK d   1      42.226   9.203  46.566  0.00  0.00     0.048 C 
ENDROOT
BRANCH   1  10
ATOM     10  C   UNK d   1      45.721   5.570  43.056  0.00  0.00     0.110 C 
BRANCH  10  11
ATOM     11  C   UNK d   1      46.585   4.959  42.037  0.00  0.00     0.088 C 
BRANCH  11  12
ATOM     12  C   UNK d   1      47.742   4.163  42.518  0.00  0.00     0.107 A 
ATOM     13  N   UNK d   1      48.185   2.999  41.924  0.00  0.00    -0.233 NA
ATOM     14  C   UNK d   1      49.206   2.500  42.636  0.00  0.00     0.087 A 
ATOM     15  C   UNK d   1      50.008   1.378  42.500  0.00  0.00     0.057 A 
ATOM     16  C   UNK d   1      49.441   3.332  43.705  0.00  0.00     0.064 A 
ATOM     17  C   UNK d   1      51.007   1.108  43.405  0.00  0.00     0.036 A 
ATOM     18 Cl   UNK d   1      52.004  -0.339  43.185  0.00  0.00    -0.084 Cl
ATOM     19  C   UNK d   1      51.230   1.955  44.473  0.00  0.00     0.026 A 
ATOM     20  C   UNK d   1      50.441   3.070  44.618  0.00  0.00     0.034 A 
ATOM     21  N   UNK d   1      48.517   4.330  43.584  0.00  0.00    -0.338 N 
ATOM     22  C   UNK d   1      48.435   5.384  44.579  0.00  0.00     0.158 C 
ENDBRANCH  11  12
ENDBRANCH  10  11
ENDBRANCH   1  10
BRANCH   5  23
ATOM     23  N   UNK d   1      42.540  10.468  44.370  0.00  0.00    -0.300 N 
ATOM     24  C   UNK d   1      41.338  10.313  43.781  0.00  0.00     0.102 A 
ATOM     25  C   UNK d   1      40.439  11.350  43.665  0.00  0.00     0.092 A 
ATOM     26  C   UNK d   1      40.790  12.581  44.170  0.00  0.00     0.250 A 
ATOM     27  O   UNK d   1      40.002  13.581  44.094  0.00  0.00    -0.268 OA
ATOM     28  N   UNK d   1      41.993  12.705  44.751  0.00  0.00    -0.275 N 
ATOM     29  C   UNK d   1      42.846  11.685  44.851  0.00  0.00     0.329 A 
ATOM     30  H   UNK d   1      42.305  13.639  45.154  0.00  0.00     0.173 HD
ATOM     31  O   UNK d   1      43.969  11.855  45.408  0.00  0.00    -0.246 OA
ENDBRANCH   5  23
BRANCH   6  32
ATOM     32  O   UNK d   1      44.305   8.155  46.375  0.00  0.00    -0.388 OA
ATOM     33  H   UNK d   1      44.969   8.899  46.231  0.00  0.00     0.210 HD
ENDBRANCH   6  32
TORSDOF 5
ENDMDL
