/Users/jonathanwahrer/Desktop/Msc/3_Semester/Drug_Design_Praktikum/waehrer_HTS_screening/HTS_experiment/out/docking_results/vina_output/2qfa/1404_docked.pdbqt
 OpenBabel03162220393D

 26 29  0  0  1  0  0  0  0  0999 V2000
   43.7740   15.7170   47.4800 Br  0  0  0  0  0  0  0  0  0  0  0  0
   42.7170   14.5580   46.3940 C   0  0  0  0  0  0  0  0  0  0  0  0
   43.2760   13.4680   45.7540 C   0  0  0  0  0  3  0  0  0  0  0  0
   42.5550   12.6020   44.9600 C   0  0  0  0  0  0  0  0  0  0  0  0
   41.1920   12.8870   44.8300 C   0  0  0  0  0  0  0  0  0  0  0  0
   40.6370   13.9700   45.4660 C   0  0  0  0  0  3  0  0  0  0  0  0
   41.3710   14.8280   46.2580 C   0  0  0  0  0  0  0  0  0  0  0  0
   40.7160   15.9890   46.9250 C   0  0  0  0  0  1  0  0  0  0  0  0
   40.4990   11.9930   44.0250 O   0  0  0  0  0  0  0  0  0  0  0  0
   41.1100   11.0110   43.2100 C   0  0  0  0  0  2  0  0  0  0  0  0
   42.2710   10.3040   43.9850 C   0  0  2  0  0  0  0  0  0  0  0  0
   43.1490   11.4640   44.2710 C   0  0  0  0  0  0  0  0  0  0  0  0
   44.3530   11.5840   43.9860 O   0  0  0  0  0  0  0  0  0  0  0  0
   42.8230    9.2600   43.3090 N   0  0  0  0  0  0  0  0  0  0  0  0
   42.0920    8.1920   42.7740 C   0  0  0  0  0  2  0  0  0  0  0  0
   42.2010    6.9840   43.6790 C   0  0  0  0  0  2  0  0  0  0  0  0
   43.5570    6.5860   43.6170 O   0  0  0  0  0  0  0  0  0  0  0  0
   44.2390    7.5730   44.3490 C   0  0  0  0  0  2  0  0  0  0  0  0
   44.1430    8.8870   43.5700 C   0  0  0  0  0  2  0  0  0  0  0  0
   41.6080    9.8510   45.2360 C   0  0  0  0  0  2  0  0  0  0  0  0
   42.4070    9.2240   46.2420 N   0  0  0  0  0  0  0  0  0  0  0  0
   43.0990   10.0420   47.1640 C   0  0  0  0  0  2  0  0  0  0  0  0
   42.1330   10.6050   48.2170 C   0  0  0  0  0  2  0  0  0  0  0  0
   41.6940    9.4980   48.9500 O   0  0  0  0  0  0  0  0  0  0  0  0
   40.8660    8.7540   48.1010 C   0  0  0  0  0  2  0  0  0  0  0  0
   41.6000    8.2060   46.9160 C   0  0  0  0  0  2  0  0  0  0  0  0
  2  1  1  0  0  0  0
  3  2  2  0  0  0  0
  4  3  1  0  0  0  0
  5  4  2  0  0  0  0
  5  6  1  0  0  0  0
  6  7  2  0  0  0  0
  7  2  1  0  0  0  0
  7  8  1  0  0  0  0
  9  5  1  0  0  0  0
 10 11  1  0  0  0  0
 10  9  1  0  0  0  0
 11 12  1  0  0  0  0
 11 20  1  1  0  0  0
 12  4  1  0  0  0  0
 13 12  2  0  0  0  0
 14 19  1  0  0  0  0
 14 11  1  0  0  0  0
 15 14  1  0  0  0  0
 15 16  1  0  0  0  0
 17 16  1  0  0  0  0
 17 18  1  0  0  0  0
 19 18  1  0  0  0  0
 20 21  1  0  0  0  0
 21 26  1  0  0  0  0
 21 22  1  0  0  0  0
 22 23  1  0  0  0  0
 23 24  1  0  0  0  0
 25 24  1  0  0  0  0
 26 25  1  0  0  0  0
M  END
>  <Pose>
1

>  <Score>
-6.731

$$$$
