/Users/jonathanwahrer/Desktop/Msc/3_Semester/Drug_Design_Praktikum/waehrer_HTS_screening/HTS_experiment/out/docking_results/vina_output/2qfa/1413_docked.pdbqt
 OpenBabel03162220393D

 24 27  0  0  0  0  0  0  0  0999 V2000
   45.4340    6.6510   42.5500 C   0  0  0  0  0  2  0  0  0  0  0  0
   46.5360    5.7450   42.8310 N   0  0  0  0  0  0  0  0  0  0  0  0
   46.8270    4.6820   42.0630 C   0  0  0  0  0  2  0  0  0  0  0  0
   47.8900    3.8400   42.3710 C   0  0  0  0  0  0  0  0  0  0  0  0
   48.6800    4.0710   43.4750 C   0  0  0  0  0  0  0  0  0  0  0  0
   48.4140    2.7230   41.8030 N   0  0  0  0  0  0  0  0  0  0  0  0
   48.3920    5.1410   44.2520 C   0  0  0  0  0  0  0  0  0  0  0  0
   49.6410    3.1300   43.5680 N   0  0  0  0  0  0  0  0  0  0  0  0
   49.4630    5.4790   45.7770 Br  0  0  0  0  0  0  0  0  0  0  0  0
   47.3170    5.9610   43.9110 C   0  0  0  0  0  3  0  0  0  0  0  0
   49.4310    2.3360   42.5230 N   0  0  0  0  0  0  0  0  0  0  0  0
   50.6780    2.9360   44.5100 C   0  0  0  0  0  1  0  0  0  0  0  0
   44.3830    6.6500   43.5620 C   0  0  0  0  0  0  0  0  0  0  0  0
   44.1060    5.5280   44.0850 O   0  0  0  0  0  0  0  0  0  0  0  0
   43.6250    7.8090   44.0250 C   0  0  0  0  0  0  0  0  0  0  0  0
   42.9940    8.5980   43.1040 C   0  0  0  0  0  3  0  0  0  0  0  0
   42.2810    9.6960   43.5090 C   0  0  0  0  0  0  0  0  0  0  0  0
   42.1700   10.0480   44.8420 C   0  0  0  0  0  0  0  0  0  0  0  0
   41.6500   10.4800   42.5600 C   0  0  0  0  0  3  0  0  0  0  0  0
   42.8250    9.2240   45.7540 C   0  0  0  0  0  3  0  0  0  0  0  0
   41.4580   11.1480   45.2730 C   0  0  0  0  0  3  0  0  0  0  0  0
   43.5380    8.1270   45.3540 C   0  0  0  0  0  3  0  0  0  0  0  0
   40.8350   11.9190   44.3160 C   0  0  0  0  0  3  0  0  0  0  0  0
   40.9380   11.5790   42.9840 C   0  0  0  0  0  3  0  0  0  0  0  0
  1  2  1  0  0  0  0
  1 13  1  0  0  0  0
  2 10  1  0  0  0  0
  3  4  1  0  0  0  0
  3  2  1  0  0  0  0
  4  5  2  0  0  0  0
  5  8  1  0  0  0  0
  5  7  1  0  0  0  0
  6  4  1  0  0  0  0
  6 11  2  0  0  0  0
  7  9  1  0  0  0  0
  8 12  1  0  0  0  0
 10  7  2  0  0  0  0
 11  8  1  0  0  0  0
 13 15  1  0  0  0  0
 13 14  2  0  0  0  0
 15 22  1  0  0  0  0
 16 17  1  0  0  0  0
 16 15  2  0  0  0  0
 17 18  1  0  0  0  0
 18 21  2  0  0  0  0
 18 20  1  0  0  0  0
 19 24  1  0  0  0  0
 19 17  2  0  0  0  0
 22 20  2  0  0  0  0
 23 21  1  0  0  0  0
 24 23  2  0  0  0  0
M  END
>  <Pose>
1

>  <Score>
-8.378

$$$$
