MODEL 1
REMARK VINA RESULT:    -8.378      0.000      0.000
REMARK INTER + INTRA:         -10.119
REMARK INTER:                  -9.847
REMARK INTRA:                  -0.272
REMARK UNBOUND:                -0.272
REMARK  3 active torsions:
REMARK  status: ('A' for Active; 'I' for Inactive)
REMARK    1  A    between atoms: N_9  and  C_11 
REMARK    2  A    between atoms: C_11  and  C_12 
REMARK    3  A    between atoms: C_12  and  C_14 
ROOT
ATOM      1  C   UNK d   1      45.434   6.651  42.550  0.00  0.00     0.211 C 
ENDROOT
BRANCH   1   2
ATOM      2  N   UNK d   1      46.536   5.745  42.831  0.00  0.00    -0.355 N 
ATOM      3  C   UNK d   1      46.827   4.682  42.063  0.00  0.00     0.127 A 
ATOM      4  C   UNK d   1      47.890   3.840  42.371  0.00  0.00     0.126 A 
ATOM      5  C   UNK d   1      48.680   4.071  43.475  0.00  0.00     0.104 A 
ATOM      6  N   UNK d   1      48.414   2.723  41.803  0.00  0.00    -0.128 NA
ATOM      7  C   UNK d   1      48.392   5.141  44.252  0.00  0.00     0.057 A 
ATOM      8  N   UNK d   1      49.641   3.130  43.568  0.00  0.00    -0.252 N 
ATOM      9 Br   UNK d   1      49.463   5.479  45.777  0.00  0.00    -0.047 Br
ATOM     10  C   UNK d   1      47.317   5.961  43.911  0.00  0.00     0.112 A 
ATOM     11  N   UNK d   1      49.431   2.336  42.523  0.00  0.00    -0.065 NA
ATOM     12  C   UNK d   1      50.678   2.936  44.510  0.00  0.00     0.182 C 
ENDBRANCH   1   2
BRANCH   1  13
ATOM     13  C   UNK d   1      44.383   6.650  43.562  0.00  0.00     0.177 C 
ATOM     14  O   UNK d   1      44.106   5.528  44.085  0.00  0.00    -0.291 OA
BRANCH  13  15
ATOM     15  C   UNK d   1      43.625   7.809  44.025  0.00  0.00     0.012 A 
ATOM     16  C   UNK d   1      42.994   8.598  43.104  0.00  0.00     0.027 A 
ATOM     17  C   UNK d   1      42.281   9.696  43.509  0.00  0.00    -0.025 A 
ATOM     18  C   UNK d   1      42.170  10.048  44.842  0.00  0.00    -0.026 A 
ATOM     19  C   UNK d   1      41.650  10.480  42.560  0.00  0.00     0.012 A 
ATOM     20  C   UNK d   1      42.825   9.224  45.754  0.00  0.00     0.013 A 
ATOM     21  C   UNK d   1      41.458  11.148  45.273  0.00  0.00     0.012 A 
ATOM     22  C   UNK d   1      43.538   8.127  45.354  0.00  0.00     0.016 A 
ATOM     23  C   UNK d   1      40.835  11.919  44.316  0.00  0.00     0.001 A 
ATOM     24  C   UNK d   1      40.938  11.579  42.984  0.00  0.00     0.001 A 
ENDBRANCH  13  15
ENDBRANCH   1  13
TORSDOF 3
ENDMDL
