MODEL 1
REMARK VINA RESULT:    -6.235      0.000      0.000
REMARK INTER + INTRA:          -9.053
REMARK INTER:                  -7.693
REMARK INTRA:                  -1.360
REMARK UNBOUND:                -1.360
REMARK  4 active torsions:
REMARK  status: ('A' for Active; 'I' for Inactive)
REMARK    1  A    between atoms: C_12  and  C_15 
REMARK    2  A    between atoms: C_12  and  C_23 
REMARK    3  A    between atoms: C_15  and  N_16 
REMARK    4  A    between atoms: C_23  and  N_24 
ROOT
ATOM      1 Br   UNK d   1      38.634  10.330  50.208  0.00  0.00    -0.048 Br
ATOM      2  C   UNK d   1      38.486  10.571  48.312  0.00  0.00     0.052 A 
ATOM      3  C   UNK d   1      39.591  10.403  47.513  0.00  0.00     0.100 A 
ATOM      4  C   UNK d   1      39.526  10.571  46.120  0.00  0.00     0.047 A 
ATOM      5  C   UNK d   1      38.297  10.912  45.599  0.00  0.00     0.038 A 
ATOM      6  C   UNK d   1      37.173  11.088  46.378  0.00  0.00     0.019 A 
ATOM      7  C   UNK d   1      37.262  10.917  47.741  0.00  0.00    -0.024 A 
ATOM      8  C   UNK d   1      36.110  11.084  48.664  0.00  0.00     0.051 C 
ATOM      9 Br   UNK d   1      35.483  11.560  45.629  0.00  0.00    -0.051 Br
ATOM     10  C   UNK d   1      40.716  10.386  45.315  0.00  0.00     0.176 C 
ATOM     11  O   UNK d   1      40.646  10.429  44.083  0.00  0.00    -0.291 OA
ATOM     12  C   UNK d   1      42.010  10.147  45.980  0.00  0.00     0.095 C 
ATOM     13  C   UNK d   1      41.725   9.363  47.242  0.00  0.00     0.197 C 
ATOM     14  O   UNK d   1      40.816  10.057  48.076  0.00  0.00    -0.347 OA
ENDROOT
BRANCH  12  15
ATOM     15  C   UNK d   1      43.013   9.450  45.111  0.00  0.00     0.256 C 
BRANCH  15  16
ATOM     16  N   UNK d   1      43.227   8.082  45.384  0.00  0.00    -0.069 N 
ATOM     17  C   UNK d   1      42.392   7.277  44.543  0.00  0.00     0.239 C 
ATOM     18  C   UNK d   1      42.778   7.250  43.107  0.00  0.00     0.007 C 
ATOM     19  C   UNK d   1      44.077   7.863  42.754  0.00  0.00     0.007 C 
ATOM     20  C   UNK d   1      41.687   7.987  42.321  0.00  0.00     0.011 C 
ATOM     21  C   UNK d   1      45.078   7.970  43.837  0.00  0.00     0.028 C 
ATOM     22  C   UNK d   1      44.573   7.612  45.204  0.00  0.00     0.235 C 
ATOM     23  H   UNK d   1      42.962   7.868  46.379  0.00  0.00     0.279 HD
ENDBRANCH  15  16
ENDBRANCH  12  15
BRANCH  12  24
ATOM     24  C   UNK d   1      42.530  11.511  46.382  0.00  0.00     0.256 C 
BRANCH  24  25
ATOM     25  N   UNK d   1      42.566  12.480  45.340  0.00  0.00    -0.069 N 
ATOM     26  C   UNK d   1      43.919  13.014  45.191  0.00  0.00     0.239 C 
ATOM     27  C   UNK d   1      44.083  14.358  45.838  0.00  0.00     0.007 C 
ATOM     28  C   UNK d   1      43.374  14.368  47.173  0.00  0.00     0.007 C 
ATOM     29  C   UNK d   1      45.577  14.529  46.143  0.00  0.00     0.011 C 
ATOM     30  C   UNK d   1      41.904  14.259  46.910  0.00  0.00     0.028 C 
ATOM     31  C   UNK d   1      41.701  13.619  45.559  0.00  0.00     0.235 C 
ATOM     32  H   UNK d   1      42.322  12.055  44.442  0.00  0.00     0.279 HD
ENDBRANCH  24  25
ENDBRANCH  12  24
TORSDOF 4
ENDMDL
