MODEL 1
REMARK VINA RESULT:    -7.318      0.000      0.000
REMARK INTER + INTRA:         -10.645
REMARK INTER:                  -9.885
REMARK INTRA:                  -0.759
REMARK UNBOUND:                -0.759
REMARK  6 active torsions:
REMARK  status: ('A' for Active; 'I' for Inactive)
REMARK    1  A    between atoms: C_13  and  C_29 
REMARK    2  A    between atoms: C_15  and  C_16 
REMARK       I    between atoms: C_16  and  N_18 
REMARK    3  A    between atoms: N_18  and  C_19 
REMARK    4  A    between atoms: C_20  and  O_27 
REMARK    5  A    between atoms: C_23  and  O_25 
REMARK    6  A    between atoms: C_29  and  C_30 
REMARK       I    between atoms: C_30  and  N_32 
ROOT
ATOM      1 Cl   UNK d   1      43.679  11.103  49.515  0.00  0.00    -0.084 Cl
ATOM      2  C   UNK d   1      42.993   9.876  48.455  0.00  0.00     0.034 A 
ATOM      3  C   UNK d   1      43.428   9.701  47.169  0.00  0.00     0.036 A 
ATOM      4  C   UNK d   1      42.857   8.727  46.382  0.00  0.00     0.019 A 
ATOM      5  C   UNK d   1      41.860   7.957  46.923  0.00  0.00     0.044 A 
ATOM      6  C   UNK d   1      41.419   8.138  48.236  0.00  0.00     0.032 A 
ATOM      7  C   UNK d   1      41.992   9.107  49.006  0.00  0.00     0.026 A 
ATOM      8  N   UNK d   1      41.372   6.984  46.007  0.00  0.00    -0.324 N 
ATOM      9  C   UNK d   1      42.106   7.156  44.827  0.00  0.00     0.267 A 
ATOM     10  O   UNK d   1      41.917   6.419  43.804  0.00  0.00    -0.270 OA
ATOM     11  C   UNK d   1      43.059   8.263  44.989  0.00  0.00     0.278 A 
ATOM     12  N   UNK d   1      44.380   7.742  44.775  0.00  0.00     0.113 N 
ATOM     13  C   UNK d   1      44.904   8.289  43.562  0.00  0.00     0.232 C 
ATOM     14  C   UNK d   1      43.767   8.933  42.836  0.00  0.00     0.053 C 
ATOM     15  C   UNK d   1      42.828   9.281  43.957  0.00  0.00     0.133 C 
ATOM     16  H   UNK d   1      40.611   6.273  46.176  0.00  0.00     0.169 HD
ATOM     17  H   UNK d   1      44.985   7.895  45.608  0.00  0.00     0.318 HD
ENDROOT
BRANCH  15  18
ATOM     18  C   UNK d   1      42.946  10.697  44.389  0.00  0.00     0.229 C 
ATOM     19  O   UNK d   1      44.059  11.242  44.189  0.00  0.00    -0.273 OA
ATOM     20  N   UNK d   1      41.907  11.418  44.988  0.00  0.00    -0.324 N 
ATOM     21  H   UNK d   1      41.001  10.867  45.102  0.00  0.00     0.169 HD
BRANCH  20  22
ATOM     22  C   UNK d   1      41.900  12.740  45.436  0.00  0.00     0.071 A 
ATOM     23  C   UNK d   1      40.713  13.457  45.416  0.00  0.00     0.095 A 
ATOM     24  C   UNK d   1      40.633  14.766  45.846  0.00  0.00     0.042 A 
ATOM     25  C   UNK d   1      41.739  15.427  46.317  0.00  0.00     0.039 A 
ATOM     26  C   UNK d   1      42.923  14.747  46.347  0.00  0.00     0.070 A 
ATOM     27  C   UNK d   1      42.989  13.426  45.912  0.00  0.00     0.069 A 
BRANCH  23  28
ATOM     28  O   UNK d   1      39.553  12.859  44.954  0.00  0.00    -0.354 OA
ATOM     29  C   UNK d   1      38.403  12.682  45.724  0.00  0.00     0.210 C 
ENDBRANCH  23  28
BRANCH  26  30
ATOM     30  O   UNK d   1      44.061  15.377  46.816  0.00  0.00    -0.356 OA
ATOM     31  C   UNK d   1      45.363  15.032  46.378  0.00  0.00     0.210 C 
ENDBRANCH  26  30
ENDBRANCH  20  22
ENDBRANCH  15  18
BRANCH  13  32
ATOM     32  C   UNK d   1      45.594   7.230  42.718  0.00  0.00     0.138 C 
BRANCH  32  33
ATOM     33  C   UNK d   1      45.918   6.028  43.498  0.00  0.00     0.217 C 
ATOM     34  O   UNK d   1      45.076   5.128  43.643  0.00  0.00    -0.274 OA
ATOM     35  N   UNK d   1      47.191   5.897  44.085  0.00  0.00    -0.370 N 
ATOM     36  H   UNK d   1      47.701   4.997  43.959  0.00  0.00     0.159 HD
ATOM     37  H   UNK d   1      47.666   6.647  44.644  0.00  0.00     0.159 HD
ENDBRANCH  32  33
ENDBRANCH  13  32
TORSDOF 6
ENDMDL
