MODEL 1
REMARK VINA RESULT:    -6.813      0.000      0.000
REMARK INTER + INTRA:          -7.837
REMARK INTER:                  -7.609
REMARK INTRA:                  -0.228
REMARK UNBOUND:                -0.228
REMARK  2 active torsions:
REMARK  status: ('A' for Active; 'I' for Inactive)
REMARK    1  A    between atoms: N_4  and  C_8 
REMARK    2  A    between atoms: C_8  and  C_9 
ROOT
ATOM      1  C   UNK d   1      45.553   5.791  42.652  0.00  0.00     0.168 A 
ATOM      2  N   UNK d   1      44.674   5.319  43.551  0.00  0.00    -0.148 NA
ATOM      3  N   UNK d   1      43.927   6.318  44.050  0.00  0.00    -0.206 N 
ATOM      4  C   UNK d   1      44.338   7.452  43.455  0.00  0.00     0.169 A 
ATOM      5  N   UNK d   1      45.328   7.122  42.605  0.00  0.00    -0.209 NA
ATOM      6  C   UNK d   1      43.708   8.629  43.812  0.00  0.00     0.079 A 
ATOM      7  C   UNK d   1      42.688   8.665  44.744  0.00  0.00     0.162 A 
ATOM      8  N   UNK d   1      42.250   9.932  44.908  0.00  0.00    -0.256 N 
ATOM      9  N   UNK d   1      42.978  10.674  44.095  0.00  0.00    -0.182 NA
ATOM     10  C   UNK d   1      43.871   9.935  43.413  0.00  0.00     0.158 A 
ATOM     11  C   UNK d   1      41.183  10.361  45.810  0.00  0.00     0.182 C 
ATOM     12  N   UNK d   1      42.329   7.494  45.298  0.00  0.00    -0.222 NA
ATOM     13  C   UNK d   1      42.934   6.344  44.960  0.00  0.00     0.239 A 
ENDROOT
BRANCH   1  14
ATOM     14  C   UNK d   1      46.567   5.041  41.860  0.00  0.00     0.232 C 
BRANCH  14  15
ATOM     15  N   UNK d   1      47.636   4.530  42.702  0.00  0.00    -0.272 N 
ATOM     16  C   UNK d   1      48.011   5.003  43.908  0.00  0.00     0.134 A 
ATOM     17  C   UNK d   1      49.072   4.229  44.372  0.00  0.00     0.054 A 
ATOM     18 Br   UNK d   1      50.029   4.407  46.010  0.00  0.00    -0.047 Br
ATOM     19  C   UNK d   1      49.308   3.283  43.397  0.00  0.00     0.069 A 
ATOM     20  N   UNK d   1      48.422   3.495  42.404  0.00  0.00    -0.176 NA
ATOM     21  C   UNK d   1      50.365   2.250  43.495  0.00  0.00     0.074 C 
ENDBRANCH  14  15
ENDBRANCH   1  14
TORSDOF 2
ENDMDL
