/Users/jonathanwahrer/Desktop/Msc/3_Semester/Drug_Design_Praktikum/waehrer_HTS_screening/HTS_experiment/out/docking_results/vina_output/2qfa/1432_docked.pdbqt
 OpenBabel03162220403D

 21 24  0  0  0  0  0  0  0  0999 V2000
   45.5530    5.7910   42.6520 C   0  0  0  0  0  0  0  0  0  0  0  0
   44.6740    5.3190   43.5510 N   0  0  0  0  0  0  0  0  0  0  0  0
   43.9270    6.3180   44.0500 N   0  0  0  0  0  0  0  0  0  0  0  0
   44.3380    7.4520   43.4550 C   0  0  0  0  0  0  0  0  0  0  0  0
   45.3280    7.1220   42.6050 N   0  0  0  0  0  0  0  0  0  0  0  0
   43.7080    8.6290   43.8120 C   0  0  0  0  0  0  0  0  0  0  0  0
   42.6880    8.6650   44.7440 C   0  0  0  0  0  0  0  0  0  0  0  0
   42.2500    9.9320   44.9080 N   0  0  0  0  0  0  0  0  0  0  0  0
   42.9780   10.6740   44.0950 N   0  0  0  0  0  0  0  0  0  0  0  0
   43.8710    9.9350   43.4130 C   0  0  0  0  0  3  0  0  0  0  0  0
   41.1830   10.3610   45.8100 C   0  0  0  0  0  1  0  0  0  0  0  0
   42.3290    7.4940   45.2980 N   0  0  0  0  0  0  0  0  0  0  0  0
   42.9340    6.3440   44.9600 C   0  0  0  0  0  3  0  0  0  0  0  0
   46.5670    5.0410   41.8600 C   0  0  0  0  0  2  0  0  0  0  0  0
   47.6360    4.5300   42.7020 N   0  0  0  0  0  0  0  0  0  0  0  0
   48.0110    5.0030   43.9080 C   0  0  0  0  0  3  0  0  0  0  0  0
   49.0720    4.2290   44.3720 C   0  0  0  0  0  0  0  0  0  0  0  0
   50.0290    4.4070   46.0100 Br  0  0  0  0  0  0  0  0  0  0  0  0
   49.3080    3.2830   43.3970 C   0  0  0  0  0  0  0  0  0  0  0  0
   48.4220    3.4950   42.4040 N   0  0  0  0  0  0  0  0  0  0  0  0
   50.3650    2.2500   43.4950 C   0  0  0  0  0  1  0  0  0  0  0  0
  1  2  2  0  0  0  0
  2  3  1  0  0  0  0
  3 13  1  0  0  0  0
  4  6  1  0  0  0  0
  4  3  1  0  0  0  0
  5  1  1  0  0  0  0
  5  4  2  0  0  0  0
  6  7  2  0  0  0  0
  7  8  1  0  0  0  0
  7 12  1  0  0  0  0
  8 11  1  0  0  0  0
  9  8  1  0  0  0  0
 10  6  1  0  0  0  0
 10  9  2  0  0  0  0
 13 12  2  0  0  0  0
 14  1  1  0  0  0  0
 14 15  1  0  0  0  0
 15 16  1  0  0  0  0
 16 17  2  0  0  0  0
 17 18  1  0  0  0  0
 19 21  1  0  0  0  0
 19 17  1  0  0  0  0
 20 15  1  0  0  0  0
 20 19  2  0  0  0  0
M  END
>  <Pose>
1

>  <Score>
-6.813

$$$$
