/Users/jonathanwahrer/Desktop/Msc/3_Semester/Drug_Design_Praktikum/waehrer_HTS_screening/HTS_experiment/out/docking_results/vina_output/2qfa/1433_docked.pdbqt
 OpenBabel03162220403D

 28 31  0  0  1  0  0  0  0  0999 V2000
   43.8740   13.1260   50.1320 Br  0  0  0  0  0  0  0  0  0  0  0  0
   44.1670   13.3730   48.2740 C   0  0  0  0  0  0  0  0  0  0  0  0
   43.6400   12.4530   47.3620 C   0  0  0  0  0  0  0  0  0  0  0  0
   43.8210   12.6060   46.0100 C   0  0  0  0  0  0  0  0  0  0  0  0
   44.5420   13.6960   45.5840 C   0  0  0  0  0  3  0  0  0  0  0  0
   45.0790   14.6280   46.4710 C   0  0  0  0  0  0  0  0  0  0  0  0
   44.8830   14.4610   47.8450 C   0  0  0  0  0  0  0  0  0  0  0  0
   45.4470   15.4530   48.8020 C   0  0  0  0  0  1  0  0  0  0  0  0
   45.8690   15.7800   45.9620 C   0  0  0  0  0  1  0  0  0  0  0  0
   43.2640   11.6980   44.9660 C   0  0  2  0  0  3  0  0  0  0  0  0
   42.6520   10.4390   45.4990 C   0  0  2  0  0  0  0  0  0  0  0  0
   43.1970   10.1830   46.8920 C   0  0  0  0  0  2  0  0  0  0  0  0
   42.9130   11.3300   47.7350 O   0  0  0  0  0  0  0  0  0  0  0  0
   43.1140    9.3680   44.6420 N   0  0  0  0  0  0  0  0  0  0  0  0
   42.1910    9.0190   43.6130 C   0  0  0  0  0  2  0  0  0  0  0  0
   42.4240    7.6880   42.9580 C   0  0  0  0  0  2  0  0  0  0  0  0
   42.8620    6.6940   43.7910 O   0  0  0  0  0  0  0  0  0  0  0  0
   44.0480    7.1310   44.3960 C   0  0  0  0  0  2  0  0  0  0  0  0
   43.5710    8.2290   45.3820 C   0  0  0  0  0  2  0  0  0  0  0  0
   41.1810   10.4510   45.6700 C   0  0  0  0  0  2  0  0  0  0  0  0
   40.3620   11.5100   45.2950 N   0  0  0  0  0  0  0  0  0  0  0  0
   38.9480   11.0230   45.1540 C   0  0  0  0  0  2  0  0  0  0  0  0
   38.4790   10.3670   46.4000 C   0  0  0  0  0  2  0  0  0  0  0  0
   39.0180   10.8660   47.5550 O   0  0  0  0  0  0  0  0  0  0  0  0
   39.4630   12.1540   47.5010 C   0  0  0  0  0  2  0  0  0  0  0  0
   40.1300   12.5900   46.2370 C   0  0  0  0  0  2  0  0  0  0  0  0
   44.3360   11.3830   44.0750 O   0  0  0  0  0  0  0  0  0  0  0  0
   45.1180   11.1590   44.6380 H   0  0  0  0  0  0  0  0  0  0  0  0
  2  1  1  0  0  0  0
  3 13  1  0  0  0  0
  3  2  2  0  0  0  0
  4  3  1  0  0  0  0
  5  4  2  0  0  0  0
  5  6  1  0  0  0  0
  6  7  2  0  0  0  0
  7  2  1  0  0  0  0
  7  8  1  0  0  0  0
  9  6  1  0  0  0  0
 10 27  1  6  0  0  0
 10 11  1  0  0  0  0
 10  4  1  0  0  0  0
 11 20  1  1  0  0  0
 11 12  1  0  0  0  0
 12 13  1  0  0  0  0
 14 19  1  0  0  0  0
 14 11  1  0  0  0  0
 15 14  1  0  0  0  0
 16 15  1  0  0  0  0
 16 17  1  0  0  0  0
 17 18  1  0  0  0  0
 18 19  1  0  0  0  0
 21 20  1  0  0  0  0
 21 26  1  0  0  0  0
 22 21  1  0  0  0  0
 22 23  1  0  0  0  0
 23 24  1  0  0  0  0
 25 24  1  0  0  0  0
 26 25  1  0  0  0  0
 27 28  1  0  0  0  0
M  END
>  <Pose>
1

>  <Score>
-5.984

$$$$
