MODEL 1
REMARK VINA RESULT:    -5.984      0.000      0.000
REMARK INTER + INTRA:          -8.067
REMARK INTER:                  -7.209
REMARK INTRA:                  -0.859
REMARK UNBOUND:                -0.859
REMARK  4 active torsions:
REMARK  status: ('A' for Active; 'I' for Inactive)
REMARK    1  A    between atoms: C_10  and  O_27 
REMARK    2  A    between atoms: C_11  and  N_14 
REMARK    3  A    between atoms: C_11  and  C_20 
REMARK    4  A    between atoms: C_20  and  N_21 
ROOT
ATOM      1 Br   UNK d   1      43.874  13.126  50.132  0.00  0.00    -0.048 Br
ATOM      2  C   UNK d   1      44.167  13.373  48.274  0.00  0.00     0.051 A 
ATOM      3  C   UNK d   1      43.640  12.453  47.362  0.00  0.00     0.095 A 
ATOM      4  C   UNK d   1      43.821  12.606  46.010  0.00  0.00     0.008 A 
ATOM      5  C   UNK d   1      44.542  13.696  45.584  0.00  0.00     0.020 A 
ATOM      6  C   UNK d   1      45.079  14.628  46.471  0.00  0.00    -0.054 A 
ATOM      7  C   UNK d   1      44.883  14.461  47.845  0.00  0.00    -0.036 A 
ATOM      8  C   UNK d   1      45.447  15.453  48.802  0.00  0.00     0.050 C 
ATOM      9  C   UNK d   1      45.869  15.780  45.962  0.00  0.00     0.049 C 
ATOM     10  C   UNK d   1      43.264  11.698  44.966  0.00  0.00     0.197 C 
ATOM     11  C   UNK d   1      42.652  10.439  45.499  0.00  0.00     0.236 C 
ATOM     12  C   UNK d   1      43.197  10.183  46.892  0.00  0.00     0.222 C 
ATOM     13  O   UNK d   1      42.913  11.330  47.735  0.00  0.00    -0.346 OA
ENDROOT
BRANCH  11  14
ATOM     14  N   UNK d   1      43.114   9.368  44.642  0.00  0.00     0.109 N 
ATOM     15  C   UNK d   1      42.191   9.019  43.613  0.00  0.00     0.299 C 
ATOM     16  C   UNK d   1      42.424   7.688  42.958  0.00  0.00     0.198 C 
ATOM     17  O   UNK d   1      42.862   6.694  43.791  0.00  0.00    -0.388 OA
ATOM     18  C   UNK d   1      44.048   7.131  44.396  0.00  0.00     0.198 C 
ATOM     19  C   UNK d   1      43.571   8.229  45.382  0.00  0.00     0.299 C 
ENDBRANCH  11  14
BRANCH  11  20
ATOM     20  C   UNK d   1      41.181  10.451  45.670  0.00  0.00     0.319 C 
BRANCH  20  21
ATOM     21  N   UNK d   1      40.362  11.510  45.295  0.00  0.00     0.095 N 
ATOM     22  C   UNK d   1      38.948  11.023  45.154  0.00  0.00     0.298 C 
ATOM     23  C   UNK d   1      38.479  10.367  46.400  0.00  0.00     0.198 C 
ATOM     24  O   UNK d   1      39.018  10.866  47.555  0.00  0.00    -0.388 OA
ATOM     25  C   UNK d   1      39.463  12.154  47.501  0.00  0.00     0.198 C 
ATOM     26  C   UNK d   1      40.130  12.590  46.237  0.00  0.00     0.298 C 
ENDBRANCH  20  21
ENDBRANCH  11  20
BRANCH  10  27
ATOM     27  O   UNK d   1      44.336  11.383  44.075  0.00  0.00    -0.388 OA
ATOM     28  H   UNK d   1      45.118  11.159  44.638  0.00  0.00     0.210 HD
ENDBRANCH  10  27
TORSDOF 4
ENDMDL
