MODEL 1
REMARK VINA RESULT:    -6.495      0.000      0.000
REMARK INTER + INTRA:          -8.249
REMARK INTER:                  -7.255
REMARK INTRA:                  -0.995
REMARK UNBOUND:                -0.995
REMARK  2 active torsions:
REMARK  status: ('A' for Active; 'I' for Inactive)
REMARK    1  A    between atoms: N_5  and  C_8 
REMARK    2  A    between atoms: C_8  and  C_9 
REMARK       I    between atoms: C_9  and  N_11 
ROOT
ATOM      1  C   UNK d   1      40.839  11.207  44.819  0.00  0.00     0.171 C 
ATOM      2  O   UNK d   1      39.688  10.584  45.046  0.00  0.00    -0.175 OA
ATOM      3  N   UNK d   1      41.552  10.716  43.736  0.00  0.00    -0.361 N 
ATOM      4  C   UNK d   1      42.806  11.157  43.239  0.00  0.00     0.127 C 
ATOM      5  C   UNK d   1      43.883  10.117  43.550  0.00  0.00     0.061 C 
ATOM      6  C   UNK d   1      43.270   8.727  43.524  0.00  0.00     0.118 C 
ATOM      7  N   UNK d   1      44.307   7.853  43.002  0.00  0.00    -0.324 N 
ATOM      8  C   UNK d   1      45.064   7.396  44.142  0.00  0.00     0.323 C 
ATOM      9  O   UNK d   1      46.215   6.894  44.111  0.00  0.00    -0.247 OA
ATOM     10  N   UNK d   1      44.254   7.626  45.311  0.00  0.00    -0.277 N 
ATOM     11  C   UNK d   1      43.029   8.211  44.887  0.00  0.00     0.254 C 
ATOM     12  O   UNK d   1      41.977   8.258  45.567  0.00  0.00    -0.270 OA
ATOM     13  C   UNK d   1      42.079   8.637  42.624  0.00  0.00     0.061 C 
ATOM     14  C   UNK d   1      40.975   9.582  42.973  0.00  0.00     0.127 C 
ATOM     15  H   UNK d   1      44.481   7.597  42.008  0.00  0.00     0.165 HD
ATOM     16  H   UNK d   1      44.521   7.404  46.280  0.00  0.00     0.173 HD
ENDROOT
BRANCH   1  17
ATOM     17  C   UNK d   1      41.076  12.266  45.779  0.00  0.00     0.216 C 
BRANCH  17  18
ATOM     18  N   UNK d   1      42.151  12.159  46.703  0.00  0.00    -0.341 N 
ATOM     19  C   UNK d   1      43.315  12.864  46.579  0.00  0.00     0.046 A 
ATOM     20  C   UNK d   1      44.138  12.559  47.632  0.00  0.00     0.010 A 
ATOM     21  C   UNK d   1      43.749  13.772  45.612  0.00  0.00     0.030 A 
ATOM     22  C   UNK d   1      43.464  11.652  48.412  0.00  0.00     0.045 A 
ATOM     23  C   UNK d   1      45.387  13.153  47.726  0.00  0.00     0.015 A 
ATOM     24 Br   UNK d   1      44.193  10.911  50.016  0.00  0.00    -0.048 Br
ATOM     25  C   UNK d   1      42.249  11.418  47.831  0.00  0.00     0.027 A 
ATOM     26  C   UNK d   1      41.201  10.506  48.344  0.00  0.00     0.070 C 
ATOM     27  C   UNK d   1      45.806  14.048  46.769  0.00  0.00     0.001 A 
ATOM     28  C   UNK d   1      45.001  14.365  45.711  0.00  0.00     0.002 A 
ENDBRANCH  17  18
ENDBRANCH   1  17
TORSDOF 2
ENDMDL
