MODEL 1
REMARK VINA RESULT:    -5.396      0.000      0.000
REMARK INTER + INTRA:          -9.722
REMARK INTER:                  -6.973
REMARK INTRA:                  -2.748
REMARK UNBOUND:                -2.748
REMARK  5 active torsions:
REMARK  status: ('A' for Active; 'I' for Inactive)
REMARK    1  A    between atoms: N_3  and  C_14 
REMARK    2  A    between atoms: C_14  and  C_15 
REMARK    3  A    between atoms: C_15  and  C_16 
REMARK    4  A    between atoms: C_16  and  C_17 
REMARK    5  A    between atoms: C_17  and  N_18 
ROOT
ATOM      1  C   UNK d   1      40.690  14.564  47.435  0.00  0.00     0.022 C 
ENDROOT
BRANCH   1   2
ATOM      2  C   UNK d   1      41.031  14.681  45.956  0.00  0.00     0.132 C 
BRANCH   2   3
ATOM      3  N   UNK d   1      41.929  13.631  45.538  0.00  0.00    -0.318 N 
ATOM      4  C   UNK d   1      43.257  13.504  45.773  0.00  0.00     0.180 A 
ATOM      5 Br   UNK d   1      44.268  14.779  46.772  0.00  0.00    -0.008 Br
ATOM      6  N   UNK d   1      43.729  12.377  45.208  0.00  0.00    -0.203 NA
ATOM      7  C   UNK d   1      42.704  11.744  44.590  0.00  0.00     0.169 A 
ATOM      8  C   UNK d   1      41.601  12.541  44.808  0.00  0.00     0.152 A 
ATOM      9  N   UNK d   1      42.643  10.591  43.885  0.00  0.00    -0.286 N 
ATOM     10  C   UNK d   1      40.389  12.129  44.280  0.00  0.00     0.280 A 
ATOM     11  N   UNK d   1      40.337  10.985  43.582  0.00  0.00    -0.273 N 
ATOM     12  O   UNK d   1      39.397  12.863  44.486  0.00  0.00    -0.265 OA
ATOM     13  C   UNK d   1      41.449  10.224  43.386  0.00  0.00     0.330 A 
ATOM     14  H   UNK d   1      39.425  10.667  43.179  0.00  0.00     0.173 HD
ATOM     15  O   UNK d   1      41.314   9.164  42.720  0.00  0.00    -0.246 OA
ATOM     16  C   UNK d   1      43.815   9.765  43.664  0.00  0.00     0.163 C 
ENDBRANCH   2   3
ENDBRANCH   1   2
BRANCH   1  17
ATOM     17  C   UNK d   1      39.392  13.827  47.634  0.00  0.00     0.022 C 
BRANCH  17  18
ATOM     18  C   UNK d   1      39.463  12.679  48.597  0.00  0.00     0.132 C 
BRANCH  18  19
ATOM     19  N   UNK d   1      39.827  11.480  47.918  0.00  0.00    -0.318 N 
ATOM     20  C   UNK d   1      41.001  10.860  47.814  0.00  0.00     0.152 A 
ATOM     21  C   UNK d   1      40.828   9.696  47.073  0.00  0.00     0.169 A 
ATOM     22  C   UNK d   1      42.267  11.133  48.261  0.00  0.00     0.280 A 
ATOM     23  N   UNK d   1      39.538   9.660  46.753  0.00  0.00    -0.203 NA
ATOM     24  N   UNK d   1      41.861   8.888  46.817  0.00  0.00    -0.286 N 
ATOM     25  C   UNK d   1      38.914  10.728  47.253  0.00  0.00     0.180 A 
ATOM     26 Br   UNK d   1      37.053  11.081  47.034  0.00  0.00    -0.008 Br
ATOM     27  C   UNK d   1      43.097   9.179  47.268  0.00  0.00     0.330 A 
ATOM     28  C   UNK d   1      41.708   7.661  46.042  0.00  0.00     0.163 C 
ATOM     29  O   UNK d   1      44.062   8.414  47.023  0.00  0.00    -0.246 OA
ATOM     30  N   UNK d   1      43.277  10.295  47.981  0.00  0.00    -0.273 N 
ATOM     31  H   UNK d   1      44.233  10.561  48.355  0.00  0.00     0.173 HD
ATOM     32  O   UNK d   1      42.455  12.171  48.925  0.00  0.00    -0.265 OA
ENDBRANCH  18  19
ENDBRANCH  17  18
ENDBRANCH   1  17
TORSDOF 5
ENDMDL
