/Users/jonathanwahrer/Desktop/Msc/3_Semester/Drug_Design_Praktikum/waehrer_HTS_screening/HTS_experiment/out/docking_results/vina_output/2qfa/1435_docked.pdbqt
 OpenBabel03162220413D

 32 35  0  0  0  0  0  0  0  0999 V2000
   40.6900   14.5640   47.4350 C   0  0  0  0  0  2  0  0  0  0  0  0
   41.0310   14.6810   45.9560 C   0  0  0  0  0  2  0  0  0  0  0  0
   41.9290   13.6310   45.5380 N   0  0  0  0  0  0  0  0  0  0  0  0
   43.2570   13.5040   45.7730 C   0  0  0  0  0  0  0  0  0  0  0  0
   44.2680   14.7790   46.7720 Br  0  0  0  0  0  0  0  0  0  0  0  0
   43.7290   12.3770   45.2080 N   0  0  0  0  0  0  0  0  0  0  0  0
   42.7040   11.7440   44.5900 C   0  0  0  0  0  0  0  0  0  0  0  0
   41.6010   12.5410   44.8080 C   0  0  0  0  0  0  0  0  0  0  0  0
   42.6430   10.5910   43.8850 N   0  0  0  0  0  0  0  0  0  0  0  0
   40.3890   12.1290   44.2800 C   0  0  0  0  0  0  0  0  0  0  0  0
   40.3370   10.9850   43.5820 N   0  0  0  0  0  0  0  0  0  0  0  0
   39.3970   12.8630   44.4860 O   0  0  0  0  0  0  0  0  0  0  0  0
   41.4490   10.2240   43.3860 C   0  0  0  0  0  0  0  0  0  0  0  0
   39.4250   10.6670   43.1790 H   0  0  0  0  0  0  0  0  0  0  0  0
   41.3140    9.1640   42.7200 O   0  0  0  0  0  0  0  0  0  0  0  0
   43.8150    9.7650   43.6640 C   0  0  0  0  0  1  0  0  0  0  0  0
   39.3920   13.8270   47.6340 C   0  0  0  0  0  2  0  0  0  0  0  0
   39.4630   12.6790   48.5970 C   0  0  0  0  0  2  0  0  0  0  0  0
   39.8270   11.4800   47.9180 N   0  0  0  0  0  0  0  0  0  0  0  0
   41.0010   10.8600   47.8140 C   0  0  0  0  0  0  0  0  0  0  0  0
   40.8280    9.6960   47.0730 C   0  0  0  0  0  0  0  0  0  0  0  0
   42.2670   11.1330   48.2610 C   0  0  0  0  0  0  0  0  0  0  0  0
   39.5380    9.6600   46.7530 N   0  0  0  0  0  0  0  0  0  0  0  0
   41.8610    8.8880   46.8170 N   0  0  0  0  0  0  0  0  0  0  0  0
   38.9140   10.7280   47.2530 C   0  0  0  0  0  0  0  0  0  0  0  0
   37.0530   11.0810   47.0340 Br  0  0  0  0  0  0  0  0  0  0  0  0
   43.0970    9.1790   47.2680 C   0  0  0  0  0  0  0  0  0  0  0  0
   41.7080    7.6610   46.0420 C   0  0  0  0  0  1  0  0  0  0  0  0
   44.0620    8.4140   47.0230 O   0  0  0  0  0  0  0  0  0  0  0  0
   43.2770   10.2950   47.9810 N   0  0  0  0  0  0  0  0  0  0  0  0
   44.2330   10.5610   48.3550 H   0  0  0  0  0  0  0  0  0  0  0  0
   42.4550   12.1710   48.9250 O   0  0  0  0  0  0  0  0  0  0  0  0
  1 17  1  0  0  0  0
  2  1  1  0  0  0  0
  3  4  1  0  0  0  0
  3  2  1  0  0  0  0
  4  5  1  0  0  0  0
  6  4  2  0  0  0  0
  7  8  2  0  0  0  0
  7  6  1  0  0  0  0
  8  3  1  0  0  0  0
  9  7  1  0  0  0  0
 10 12  2  0  0  0  0
 10  8  1  0  0  0  0
 11 10  1  0  0  0  0
 13 11  1  0  0  0  0
 13  9  1  0  0  0  0
 14 11  1  0  0  0  0
 15 13  2  0  0  0  0
 16  9  1  0  0  0  0
 17 18  1  0  0  0  0
 19 18  1  0  0  0  0
 20 19  1  0  0  0  0
 20 22  1  0  0  0  0
 21 20  2  0  0  0  0
 22 32  2  0  0  0  0
 23 21  1  0  0  0  0
 23 25  2  0  0  0  0
 24 21  1  0  0  0  0
 24 27  1  0  0  0  0
 25 19  1  0  0  0  0
 26 25  1  0  0  0  0
 27 30  1  0  0  0  0
 28 24  1  0  0  0  0
 29 27  2  0  0  0  0
 30 22  1  0  0  0  0
 30 31  1  0  0  0  0
M  END
>  <Pose>
1

>  <Score>
-5.396

$$$$
