MODEL 1
REMARK VINA RESULT:    -7.609      0.000      0.000
REMARK INTER + INTRA:         -12.496
REMARK INTER:                 -10.945
REMARK INTRA:                  -1.552
REMARK UNBOUND:                -1.552
REMARK  9 active torsions:
REMARK  status: ('A' for Active; 'I' for Inactive)
REMARK    1  A    between atoms: C_3  and  O_33 
REMARK    2  A    between atoms: C_6  and  C_9 
REMARK    3  A    between atoms: C_7  and  O_8 
REMARK    4  A    between atoms: N_10  and  N_11 
REMARK       I    between atoms: N_11  and  C_12 
REMARK    5  A    between atoms: C_12  and  C_14 
REMARK    6  A    between atoms: N_17  and  C_26 
REMARK    7  A    between atoms: C_18  and  C_19 
REMARK    8  A    between atoms: C_19  and  N_20 
REMARK    9  A    between atoms: C_30  and  N_31 
ROOT
ATOM      1  C   UNK d   1      42.397  10.013  43.751  0.00  0.00     0.176 A 
ATOM      2  N   UNK d   1      41.649  10.387  42.663  0.00  0.00    -0.124 NA
ATOM      3  N   UNK d   1      40.938  11.438  42.966  0.00  0.00    -0.058 NA
ATOM      4  N   UNK d   1      41.151  11.822  44.213  0.00  0.00    -0.191 N 
ATOM      5  C   UNK d   1      42.046  10.958  44.721  0.00  0.00     0.104 A 
ENDROOT
BRANCH   1   6
ATOM      6  C   UNK d   1      43.306   8.884  43.793  0.00  0.00     0.294 C 
ATOM      7  N   UNK d   1      44.607   8.791  43.317  0.00  0.00    -0.242 N 
ATOM      8  H   UNK d   1      45.162   9.537  42.834  0.00  0.00     0.192 HD
ATOM      9  O   UNK d   1      42.821   7.830  44.353  0.00  0.00    -0.264 OA
BRANCH   7  10
ATOM     10  N   UNK d   1      45.282   7.536  43.497  0.00  0.00    -0.183 NA
ATOM     11  C   UNK d   1      46.566   7.500  43.435  0.00  0.00     0.153 C 
BRANCH  11  12
ATOM     12  C   UNK d   1      47.347   6.284  43.604  0.00  0.00     0.019 A 
ATOM     13  C   UNK d   1      48.254   6.159  44.622  0.00  0.00     0.038 A 
ATOM     14  C   UNK d   1      49.009   5.005  44.800  0.00  0.00     0.046 A 
ATOM     15  C   UNK d   1      48.849   3.935  43.923  0.00  0.00     0.103 A 
ATOM     16 Br   UNK d   1      50.254   4.875  46.223  0.00  0.00    -0.048 Br
ATOM     17  C   UNK d   1      47.948   4.052  42.905  0.00  0.00     0.079 A 
ATOM     18 Br   UNK d   1      47.698   2.620  41.691  0.00  0.00    -0.045 Br
ATOM     19  C   UNK d   1      47.198   5.219  42.744  0.00  0.00     0.097 A 
BRANCH  15  20
ATOM     20  O   UNK d   1      49.613   2.794  44.117  0.00  0.00    -0.358 OA
ATOM     21  H   UNK d   1      49.189   1.880  44.124  0.00  0.00     0.217 HD
ENDBRANCH  15  20
BRANCH  19  22
ATOM     22  O   UNK d   1      46.278   5.357  41.717  0.00  0.00    -0.358 OA
ATOM     23  H   UNK d   1      45.642   6.144  41.705  0.00  0.00     0.217 HD
ENDBRANCH  19  22
ENDBRANCH  11  12
ENDBRANCH   7  10
ENDBRANCH   1   6
BRANCH   5  24
ATOM     24  C   UNK d   1      42.629  10.984  46.066  0.00  0.00     0.334 C 
BRANCH  24  25
ATOM     25  N   UNK d   1      41.663  10.769  47.147  0.00  0.00     0.098 N 
ATOM     26  C   UNK d   1      42.407  10.542  48.401  0.00  0.00     0.299 C 
ATOM     27  C   UNK d   1      43.500   9.558  48.169  0.00  0.00     0.198 C 
ATOM     28  O   UNK d   1      42.980   8.415  47.612  0.00  0.00    -0.388 OA
ATOM     29  C   UNK d   1      41.611   8.364  47.596  0.00  0.00     0.198 C 
ATOM     30  C   UNK d   1      40.942   9.503  46.872  0.00  0.00     0.299 C 
ENDBRANCH  24  25
ENDBRANCH   5  24
BRANCH   4  31
ATOM     31  C   UNK d   1      40.542  12.953  44.809  0.00  0.00     0.229 A 
ATOM     32  N   UNK d   1      41.099  14.117  45.206  0.00  0.00    -0.081 NA
ATOM     33  O   UNK d   1      40.178  14.903  45.698  0.00  0.00    -0.103 OA
ATOM     34  N   UNK d   1      39.008  14.318  45.654  0.00  0.00    -0.083 NA
ATOM     35  C   UNK d   1      39.196  13.106  45.106  0.00  0.00     0.201 A 
BRANCH  35  36
ATOM     36  N   UNK d   1      38.167  12.165  44.886  0.00  0.00    -0.379 N 
ATOM     37  H   UNK d   1      37.183  12.459  45.026  0.00  0.00     0.158 HD
ATOM     38  H   UNK d   1      38.355  11.191  44.588  0.00  0.00     0.158 HD
ENDBRANCH  35  36
ENDBRANCH   4  31
TORSDOF 9
ENDMDL
