MODEL 1
REMARK VINA RESULT:    -8.431      0.000      0.000
REMARK INTER + INTRA:         -11.926
REMARK INTER:                 -11.389
REMARK INTRA:                  -0.538
REMARK UNBOUND:                -0.538
REMARK  6 active torsions:
REMARK  status: ('A' for Active; 'I' for Inactive)
REMARK    1  A    between atoms: C_6  and  C_8 
REMARK       I    between atoms: C_8  and  N_10 
REMARK    2  A    between atoms: N_10  and  C_11 
REMARK    3  A    between atoms: C_11  and  C_12 
REMARK    4  A    between atoms: C_12  and  N_13 
REMARK    5  A    between atoms: C_16  and  C_18 
REMARK    6  A    between atoms: C_20  and  C_23 
ROOT
ATOM      1  N   UNK d   1      43.840   8.060  43.630  0.00  0.00    -0.281 N 
ATOM      2  N   UNK d   1      43.434   7.021  44.340  0.00  0.00     0.005 NA
ATOM      3  N   UNK d   1      44.232   5.981  44.140  0.00  0.00    -0.154 NA
ATOM      4  C   UNK d   1      45.199   6.324  43.274  0.00  0.00     0.146 A 
ATOM      5  C   UNK d   1      44.944   7.638  42.957  0.00  0.00     0.145 A 
ENDROOT
BRANCH   1   6
ATOM      6  C   UNK d   1      43.246   9.400  43.559  0.00  0.00     0.165 C 
BRANCH   6   7
ATOM      7  C   UNK d   1      42.940   9.797  44.986  0.00  0.00     0.144 C 
BRANCH   7   8
ATOM      8  N   UNK d   1      43.803  10.887  45.413  0.00  0.00    -0.355 N 
ATOM      9  C   UNK d   1      43.307  12.214  45.308  0.00  0.00     0.253 C 
ATOM     10  O   UNK d   1      42.134  12.415  44.848  0.00  0.00    -0.268 OA
ATOM     11  H   UNK d   1      44.756  10.708  45.787  0.00  0.00     0.162 HD
BRANCH   9  12
ATOM     12  C   UNK d   1      44.084  13.378  45.707  0.00  0.00     0.050 A 
ATOM     13  C   UNK d   1      43.775  14.042  46.859  0.00  0.00     0.133 A 
ATOM     14  N   UNK d   1      44.431  15.125  47.314  0.00  0.00    -0.271 NA
ATOM     15  C   UNK d   1      45.470  15.602  46.589  0.00  0.00     0.135 A 
ATOM     16  C   UNK d   1      45.835  14.979  45.416  0.00  0.00     0.029 A 
ATOM     17 Br   UNK d   1      47.308  15.685  44.427  0.00  0.00    -0.050 Br
ATOM     18  C   UNK d   1      45.143  13.856  44.961  0.00  0.00     0.039 A 
ENDBRANCH   9  12
ENDBRANCH   7   8
ENDBRANCH   6   7
ENDBRANCH   1   6
BRANCH   4  19
ATOM     19  C   UNK d   1      46.281   5.493  42.777  0.00  0.00     0.228 A 
ATOM     20  N   UNK d   1      47.095   4.701  43.498  0.00  0.00    -0.198 NA
ATOM     21  C   UNK d   1      47.967   4.096  42.676  0.00  0.00     0.191 A 
ATOM     22  N   UNK d   1      47.669   4.533  41.442  0.00  0.00    -0.105 NA
ATOM     23  O   UNK d   1      46.670   5.356  41.537  0.00  0.00    -0.189 OA
BRANCH  21  24
ATOM     24  C   UNK d   1      49.035   3.144  43.051  0.00  0.00     0.032 A 
ATOM     25  C   UNK d   1      49.814   3.392  44.158  0.00  0.00     0.131 A 
ATOM     26  N   UNK d   1      50.789   2.533  44.509  0.00  0.00    -0.272 NA
ATOM     27  C   UNK d   1      51.058   1.405  43.820  0.00  0.00     0.116 A 
ATOM     28  C   UNK d   1      50.270   1.165  42.712  0.00  0.00     0.020 A 
ATOM     29  C   UNK d   1      49.268   2.013  42.319  0.00  0.00     0.018 A 
ENDBRANCH  21  24
ENDBRANCH   4  19
TORSDOF 6
ENDMDL
