/Users/jonathanwahrer/Desktop/Msc/3_Semester/Drug_Design_Praktikum/waehrer_HTS_screening/HTS_experiment/out/docking_results/vina_output/2qfa/1466_docked.pdbqt
 OpenBabel03162220433D

 29 32  0  0  0  0  0  0  0  0999 V2000
   43.8400    8.0600   43.6300 N   0  0  0  0  0  0  0  0  0  0  0  0
   43.4340    7.0210   44.3400 N   0  0  0  0  0  0  0  0  0  0  0  0
   44.2320    5.9810   44.1400 N   0  0  0  0  0  0  0  0  0  0  0  0
   45.1990    6.3240   43.2740 C   0  0  0  0  0  0  0  0  0  0  0  0
   44.9440    7.6380   42.9570 C   0  0  0  0  0  3  0  0  0  0  0  0
   43.2460    9.4000   43.5590 C   0  0  0  0  0  2  0  0  0  0  0  0
   42.9400    9.7970   44.9860 C   0  0  0  0  0  2  0  0  0  0  0  0
   43.8030   10.8870   45.4130 N   0  0  0  0  0  0  0  0  0  0  0  0
   43.3070   12.2140   45.3080 C   0  0  0  0  0  0  0  0  0  0  0  0
   42.1340   12.4150   44.8480 O   0  0  0  0  0  0  0  0  0  0  0  0
   44.7560   10.7080   45.7870 H   0  0  0  0  0  0  0  0  0  0  0  0
   44.0840   13.3780   45.7070 C   0  0  0  0  0  0  0  0  0  0  0  0
   43.7750   14.0420   46.8590 C   0  0  0  0  0  3  0  0  0  0  0  0
   44.4310   15.1250   47.3140 N   0  0  0  0  0  0  0  0  0  0  0  0
   45.4700   15.6020   46.5890 C   0  0  0  0  0  3  0  0  0  0  0  0
   45.8350   14.9790   45.4160 C   0  0  0  0  0  0  0  0  0  0  0  0
   47.3080   15.6850   44.4270 Br  0  0  0  0  0  0  0  0  0  0  0  0
   45.1430   13.8560   44.9610 C   0  0  0  0  0  3  0  0  0  0  0  0
   46.2810    5.4930   42.7770 C   0  0  0  0  0  0  0  0  0  0  0  0
   47.0950    4.7010   43.4980 N   0  0  0  0  0  0  0  0  0  0  0  0
   47.9670    4.0960   42.6760 C   0  0  0  0  0  0  0  0  0  0  0  0
   47.6690    4.5330   41.4420 N   0  0  0  0  0  0  0  0  0  0  0  0
   46.6700    5.3560   41.5370 O   0  0  0  0  0  0  0  0  0  0  0  0
   49.0350    3.1440   43.0510 C   0  0  0  0  0  0  0  0  0  0  0  0
   49.8140    3.3920   44.1580 C   0  0  0  0  0  3  0  0  0  0  0  0
   50.7890    2.5330   44.5090 N   0  0  0  0  0  0  0  0  0  0  0  0
   51.0580    1.4050   43.8200 C   0  0  0  0  0  3  0  0  0  0  0  0
   50.2700    1.1650   42.7120 C   0  0  0  0  0  3  0  0  0  0  0  0
   49.2680    2.0130   42.3190 C   0  0  0  0  0  3  0  0  0  0  0  0
  1  2  1  0  0  0  0
  3  2  2  0  0  0  0
  4  3  1  0  0  0  0
  5  4  2  0  0  0  0
  5  1  1  0  0  0  0
  6  1  1  0  0  0  0
  6  7  1  0  0  0  0
  7  8  1  0  0  0  0
  8 11  1  0  0  0  0
  9  8  1  0  0  0  0
  9 12  1  0  0  0  0
 10  9  2  0  0  0  0
 12 13  1  0  0  0  0
 13 14  2  0  0  0  0
 15 14  1  0  0  0  0
 16 15  2  0  0  0  0
 17 16  1  0  0  0  0
 18 16  1  0  0  0  0
 18 12  2  0  0  0  0
 19  4  1  0  0  0  0
 19 20  2  0  0  0  0
 21 24  1  0  0  0  0
 21 20  1  0  0  0  0
 22 23  1  0  0  0  0
 22 21  2  0  0  0  0
 23 19  1  0  0  0  0
 24 25  1  0  0  0  0
 25 26  2  0  0  0  0
 27 26  1  0  0  0  0
 28 27  2  0  0  0  0
 29 28  1  0  0  0  0
 29 24  2  0  0  0  0
M  END
>  <Pose>
1

>  <Score>
-8.431

$$$$
