MODEL 1
REMARK VINA RESULT:    -6.672      0.000      0.000
REMARK INTER + INTRA:          -9.719
REMARK INTER:                  -9.012
REMARK INTRA:                  -0.707
REMARK UNBOUND:                -0.707
REMARK  6 active torsions:
REMARK  status: ('A' for Active; 'I' for Inactive)
REMARK    1  A    between atoms: C_3  and  N_8 
REMARK       I    between atoms: N_11  and  C_14 
REMARK    2  A    between atoms: C_14  and  C_16 
REMARK    3  A    between atoms: N_18  and  C_26 
REMARK    4  A    between atoms: C_26  and  C_27 
REMARK    5  A    between atoms: C_27  and  C_28 
REMARK    6  A    between atoms: C_28  and  O_29 
ROOT
ATOM      1  C   UNK d   1      42.129  11.197  46.516  0.00  0.00     0.079 A 
ATOM      2  C   UNK d   1      42.438  10.907  45.216  0.00  0.00     0.110 A 
ATOM      3  N   UNK d   1      41.521  10.530  44.273  0.00  0.00    -0.364 N 
ATOM      4  C   UNK d   1      40.252  10.442  44.657  0.00  0.00     0.110 A 
ATOM      5  C   UNK d   1      39.845  10.712  45.937  0.00  0.00     0.080 A 
ATOM      6  C   UNK d   1      40.830  11.112  46.925  0.00  0.00     0.111 A 
ATOM      7  N   UNK d   1      40.150  11.308  48.070  0.00  0.00    -0.170 NA
ATOM      8  N   UNK d   1      38.864  11.070  47.878  0.00  0.00    -0.242 N 
ATOM      9  C   UNK d   1      38.636  10.708  46.609  0.00  0.00     0.275 A 
ATOM     10  O   UNK d   1      37.542  10.403  46.044  0.00  0.00    -0.266 OA
ATOM     11  H   UNK d   1      38.080  11.138  48.585  0.00  0.00     0.192 HD
ENDROOT
BRANCH   1  12
ATOM     12  C   UNK d   1      43.166  11.592  47.455  0.00  0.00     0.257 C 
ATOM     13  N   UNK d   1      43.306  12.923  47.907  0.00  0.00    -0.345 N 
ATOM     14  C   UNK d   1      44.320  13.345  48.835  0.00  0.00     0.146 C 
ATOM     15  C   UNK d   1      42.389  13.921  47.421  0.00  0.00     0.146 C 
ATOM     16  C   UNK d   1      44.895  14.649  48.342  0.00  0.00     0.143 C 
ATOM     17  N   UNK d   1      44.566  14.934  46.970  0.00  0.00    -0.376 N 
ATOM     18  C   UNK d   1      43.195  14.803  46.457  0.00  0.00     0.143 C 
ATOM     19  O   UNK d   1      43.947  10.678  47.853  0.00  0.00    -0.267 OA
BRANCH  17  20
ATOM     20  C   UNK d   1      45.547  15.353  46.051  0.00  0.00     0.052 A 
ATOM     21  C   UNK d   1      46.201  16.558  46.181  0.00  0.00     0.060 A 
ATOM     22 Cl   UNK d   1      45.804  17.618  47.537  0.00  0.00    -0.082 Cl
ATOM     23  C   UNK d   1      47.159  16.958  45.273  0.00  0.00     0.026 A 
ATOM     24  C   UNK d   1      47.470  16.137  44.218  0.00  0.00     0.002 A 
ATOM     25  C   UNK d   1      46.830  14.905  44.050  0.00  0.00     0.002 A 
ATOM     26  C   UNK d   1      45.874  14.551  44.991  0.00  0.00     0.031 A 
ENDBRANCH  17  20
ENDBRANCH   1  12
BRANCH   3  27
ATOM     27  C   UNK d   1      41.966  10.208  42.925  0.00  0.00     0.130 C 
BRANCH  27  28
ATOM     28  C   UNK d   1      42.073   8.785  42.604  0.00  0.00     0.046 C 
BRANCH  28  29
ATOM     29  C   UNK d   1      43.072   7.881  43.177  0.00  0.00     0.168 C 
BRANCH  29  30
ATOM     30  O   UNK d   1      44.324   8.281  43.452  0.00  0.00    -0.396 OA
ATOM     31  C   UNK d   1      45.417   7.672  42.987  0.00  0.00     0.201 C 
ENDBRANCH  29  30
ENDBRANCH  28  29
ENDBRANCH  27  28
ENDBRANCH   3  27
TORSDOF 6
ENDMDL
