/Users/jonathanwahrer/Desktop/Msc/3_Semester/Drug_Design_Praktikum/waehrer_HTS_screening/HTS_experiment/out/docking_results/vina_output/2qfa/1477_docked.pdbqt
 OpenBabel03162220443D

 35 39  0  0  1  0  0  0  0  0999 V2000
   41.6930   12.3240   45.7820 C   0  0  2  0  0  3  0  0  0  0  0  0
   41.8220   11.2520   44.8950 N   0  0  0  0  0  0  0  0  0  0  0  0
   41.1750   11.6500   43.6480 C   0  0  0  0  0  0  0  0  0  0  0  0
   41.1830   11.0380   42.5510 O   0  0  0  0  0  0  0  0  0  0  0  0
   40.4770   12.9120   43.8400 C   0  0  0  0  0  0  0  0  0  0  0  0
   39.8120   13.5510   42.9580 O   0  0  0  0  0  0  0  0  0  0  0  0
   40.6960   13.2860   45.2120 C   0  0  2  0  0  3  0  0  0  0  0  0
   40.1480   14.3190   45.8180 C   0  0  2  0  0  3  0  0  0  0  0  0
   40.8540   15.5380   45.6860 O   0  0  0  0  0  1  0  0  0  0  0  0
   38.9210   14.3100   46.5930 C   0  0  0  0  0  0  0  0  0  0  0  0
   37.6290   14.1820   46.2510 N   0  0  0  0  0  0  0  0  0  0  0  0
   36.8040   14.2800   47.3040 C   0  0  0  0  0  0  0  0  0  0  0  0
   37.1060   13.9600   45.0150 C   0  0  0  0  0  3  0  0  0  0  0  0
   37.6000   14.4800   48.3790 N   0  0  0  0  0  0  0  0  0  0  0  0
   35.4330   14.1610   47.1840 C   0  0  0  0  0  3  0  0  0  0  0  0
   38.8770   14.5040   47.9910 C   0  0  0  0  0  0  0  0  0  0  0  0
   40.0560   14.6950   48.8470 C   0  0  0  0  0  1  0  0  0  0  0  0
   34.8950   13.9390   45.9450 C   0  0  0  0  0  3  0  0  0  0  0  0
   35.7450   13.8380   44.8590 C   0  0  0  0  0  3  0  0  0  0  0  0
   42.8250   13.0040   46.3790 C   0  0  0  0  0  0  0  0  0  0  0  0
   43.8250   13.5610   45.5700 C   0  0  0  0  0  3  0  0  0  0  0  0
   44.8780   14.2550   46.1250 C   0  0  0  0  0  0  0  0  0  0  0  0
   46.2270   15.0110   45.0250 Br  0  0  0  0  0  0  0  0  0  0  0  0
   44.9820   14.4230   47.4910 C   0  0  0  0  0  3  0  0  0  0  0  0
   44.0150   13.8860   48.3220 C   0  0  0  0  0  3  0  0  0  0  0  0
   42.9890   13.2070   47.7310 C   0  0  0  0  0  3  0  0  0  0  0  0
   42.3600    9.9600   45.1140 C   0  0  0  0  0  2  0  0  0  0  0  0
   43.5830    9.5170   44.4480 C   0  0  0  0  0  2  0  0  0  0  0  0
   43.5240    8.6610   43.3000 N   0  0  0  0  0  4  0  0  0  0  0  0
   44.8210    7.9900   43.2120 C   0  0  0  0  0  2  0  0  0  0  0  0
   44.8660    6.7100   43.9840 C   0  0  0  0  0  2  0  0  0  0  0  0
   43.7550    6.5950   44.8320 O   0  0  0  0  0  0  0  0  0  0  0  0
   42.6650    6.4940   43.9970 C   0  0  0  0  0  2  0  0  0  0  0  0
   42.4080    7.7770   43.2980 C   0  0  0  0  0  2  0  0  0  0  0  0
   43.4930    9.2190   42.3960 H   0  0  0  0  0  0  0  0  0  0  0  0
  1 20  1  6  0  0  0
  2 27  1  0  0  0  0
  2  1  1  0  0  0  0
  3  5  1  0  0  0  0
  3  2  1  0  0  0  0
  4  3  2  0  0  0  0
  5  7  1  0  0  0  0
  6  5  2  0  0  0  0
  7  1  1  0  0  0  0
  7  8  1  6  0  0  0
  8  9  1  1  0  0  0
  8 10  1  0  0  0  0
 10 16  2  0  0  0  0
 11 10  1  0  0  0  0
 11 12  1  0  0  0  0
 12 14  2  0  0  0  0
 13 11  1  0  0  0  0
 15 12  1  0  0  0  0
 16 14  1  0  0  0  0
 16 17  1  0  0  0  0
 18 15  2  0  0  0  0
 19 13  2  0  0  0  0
 19 18  1  0  0  0  0
 20 26  1  0  0  0  0
 21 22  1  0  0  0  0
 21 20  2  0  0  0  0
 22 24  2  0  0  0  0
 23 22  1  0  0  0  0
 24 25  1  0  0  0  0
 26 25  2  0  0  0  0
 28 27  1  0  0  0  0
 29 28  1  0  0  0  0
 30 29  1  0  0  0  0
 30 31  1  0  0  0  0
 31 32  1  0  0  0  0
 33 32  1  0  0  0  0
 34 29  1  0  0  0  0
 34 33  1  0  0  0  0
 35 29  1  0  0  0  0
M  END
>  <Pose>
1

>  <Score>
-6.763

$$$$
