MODEL 1
REMARK VINA RESULT:    -6.763      0.000      0.000
REMARK INTER + INTRA:         -11.097
REMARK INTER:                  -9.135
REMARK INTRA:                  -1.962
REMARK UNBOUND:                -1.962
REMARK  6 active torsions:
REMARK  status: ('A' for Active; 'I' for Inactive)
REMARK    1  A    between atoms: C_4  and  C_8 
REMARK    2  A    between atoms: N_9  and  C_27 
REMARK    3  A    between atoms: C_14  and  C_15 
REMARK    4  A    between atoms: C_15  and  C_17 
REMARK    5  A    between atoms: C_27  and  C_28 
REMARK    6  A    between atoms: C_28  and  N_29 
ROOT
ATOM      1  C   UNK d   1      41.693  12.324  45.782  0.00  0.00     0.161 C 
ATOM      2  N   UNK d   1      41.822  11.252  44.895  0.00  0.00    -0.331 N 
ATOM      3  C   UNK d   1      41.175  11.650  43.648  0.00  0.00     0.295 C 
ATOM      4  O   UNK d   1      41.183  11.038  42.551  0.00  0.00    -0.264 OA
ATOM      5  C   UNK d   1      40.477  12.912  43.840  0.00  0.00     0.251 C 
ATOM      6  O   UNK d   1      39.812  13.551  42.958  0.00  0.00    -0.282 OA
ATOM      7  C   UNK d   1      40.696  13.286  45.212  0.00  0.00     0.064 C 
ENDROOT
BRANCH   7   8
ATOM      8  C   UNK d   1      40.148  14.319  45.818  0.00  0.00     0.149 C 
ATOM      9  O   UNK d   1      40.854  15.538  45.686  0.00  0.00    -0.189 OA
BRANCH   8  10
ATOM     10  C   UNK d   1      38.921  14.310  46.593  0.00  0.00     0.102 A 
ATOM     11  N   UNK d   1      37.629  14.182  46.251  0.00  0.00    -0.302 N 
ATOM     12  C   UNK d   1      36.804  14.280  47.304  0.00  0.00     0.134 A 
ATOM     13  C   UNK d   1      37.106  13.960  45.015  0.00  0.00     0.099 A 
ATOM     14  N   UNK d   1      37.600  14.480  48.379  0.00  0.00    -0.233 NA
ATOM     15  C   UNK d   1      35.433  14.161  47.184  0.00  0.00     0.051 A 
ATOM     16  C   UNK d   1      38.877  14.504  47.991  0.00  0.00     0.063 A 
ATOM     17  C   UNK d   1      40.056  14.695  48.847  0.00  0.00     0.073 C 
ATOM     18  C   UNK d   1      34.895  13.939  45.945  0.00  0.00     0.005 A 
ATOM     19  C   UNK d   1      35.745  13.838  44.859  0.00  0.00     0.018 A 
ENDBRANCH   8  10
ENDBRANCH   7   8
BRANCH   1  20
ATOM     20  C   UNK d   1      42.825  13.004  46.379  0.00  0.00    -0.029 A 
ATOM     21  C   UNK d   1      43.825  13.561  45.570  0.00  0.00     0.028 A 
ATOM     22  C   UNK d   1      44.878  14.255  46.125  0.00  0.00     0.011 A 
ATOM     23 Br   UNK d   1      46.227  15.011  45.025  0.00  0.00    -0.051 Br
ATOM     24  C   UNK d   1      44.982  14.423  47.491  0.00  0.00     0.019 A 
ATOM     25  C   UNK d   1      44.015  13.886  48.322  0.00  0.00     0.002 A 
ATOM     26  C   UNK d   1      42.989  13.207  47.731  0.00  0.00     0.009 A 
ENDBRANCH   1  20
BRANCH   2  27
ATOM     27  C   UNK d   1      42.360   9.960  45.114  0.00  0.00     0.155 C 
BRANCH  27  28
ATOM     28  C   UNK d   1      43.583   9.517  44.448  0.00  0.00     0.255 C 
BRANCH  28  29
ATOM     29  N   UNK d   1      43.524   8.661  43.300  0.00  0.00    -0.066 N 
ATOM     30  C   UNK d   1      44.821   7.990  43.212  0.00  0.00     0.261 C 
ATOM     31  C   UNK d   1      44.866   6.710  43.984  0.00  0.00     0.195 C 
ATOM     32  O   UNK d   1      43.755   6.595  44.832  0.00  0.00    -0.388 OA
ATOM     33  C   UNK d   1      42.665   6.494  43.997  0.00  0.00     0.195 C 
ATOM     34  C   UNK d   1      42.408   7.777  43.298  0.00  0.00     0.261 C 
ATOM     35  H   UNK d   1      43.493   9.219  42.396  0.00  0.00     0.280 HD
ENDBRANCH  28  29
ENDBRANCH  27  28
ENDBRANCH   2  27
TORSDOF 6
ENDMDL
