/Users/jonathanwahrer/Desktop/Msc/3_Semester/Drug_Design_Praktikum/waehrer_HTS_screening/HTS_experiment/out/docking_results/vina_output/2qfa/1487_docked.pdbqt
 OpenBabel03162220453D

 29 32  0  0  1  0  0  0  0  0999 V2000
   41.7720    8.7470   43.9300 N   0  0  0  0  0  4  0  0  0  0  0  0
   41.9940   10.0800   43.4260 C   0  0  0  0  0  2  0  0  0  0  0  0
   41.4920   11.1010   44.3590 C   0  0  2  0  0  0  0  0  0  0  0  0
   40.9210   10.3290   45.4260 N   0  0  0  0  0  0  0  0  0  0  0  0
   39.9240   10.6360   46.4240 C   0  0  0  0  0  3  0  0  0  0  0  0
   40.3920   10.5330   47.8400 C   0  0  0  0  0  3  0  0  0  0  0  0
   41.7290    9.9030   48.0230 C   0  0  0  0  0  2  0  0  0  0  0  0
   41.5710    8.3800   47.8160 C   0  0  0  0  0  2  0  0  0  0  0  0
   41.8010    8.1870   46.3280 C   0  0  0  0  0  3  0  0  0  0  0  0
   41.5200    9.0060   45.3410 C   0  0  0  0  0  0  0  0  0  0  0  0
   40.9640    8.2420   43.5830 H   0  0  0  0  0  0  0  0  0  0  0  0
   40.4130   11.8040   43.7530 O   0  0  0  0  0  0  0  0  0  0  0  0
   39.6260   11.6750   44.3790 H   0  0  0  0  0  0  0  0  0  0  0  0
   42.4160   12.1220   44.7870 C   0  0  0  0  0  0  0  0  0  0  0  0
   42.0320   13.2500   45.5130 C   0  0  0  0  0  3  0  0  0  0  0  0
   42.9290   14.2170   45.9430 C   0  0  0  0  0  0  0  0  0  0  0  0
   44.2810   14.0570   45.6380 C   0  0  0  0  0  3  0  0  0  0  0  0
   44.6990   12.9680   44.9280 C   0  0  0  0  0  3  0  0  0  0  0  0
   43.7600   12.0110   44.5100 C   0  0  0  0  0  3  0  0  0  0  0  0
   42.4690   15.3350   46.6750 N   0  0  0  0  0  0  0  0  0  0  0  0
   43.2120   15.8510   47.5670 O   0  0  0  0  0  0  0  0  0  0  0  0
   41.2630   15.9000   46.4880 O   0  0  0  0  0  0  0  0  0  0  0  0
   42.9050    7.8920   43.9130 C   0  0  0  0  0  0  0  0  0  0  0  0
   44.1500    8.3130   43.5140 C   0  0  0  0  0  3  0  0  0  0  0  0
   45.2320    7.4440   43.3940 C   0  0  0  0  0  0  0  0  0  0  0  0
   46.8110    8.0440   42.9130 Cl  0  0  0  0  0  0  0  0  0  0  0  0
   45.0740    6.1030   43.6810 C   0  0  0  0  0  3  0  0  0  0  0  0
   43.8470    5.6410   44.0780 C   0  0  0  0  0  3  0  0  0  0  0  0
   42.7800    6.5260   44.1910 C   0  0  0  0  0  3  0  0  0  0  0  0
  1 10  1  0  0  0  0
  2  1  1  0  0  0  0
  2  3  1  0  0  0  0
  3 12  1  6  0  0  0
  3 14  1  0  0  0  0
  3  4  1  0  0  0  0
  4  5  1  0  0  0  0
  5  6  2  0  0  0  0
  6  7  1  0  0  0  0
  8  7  1  0  0  0  0
  9  8  1  0  0  0  0
 10  4  1  0  0  0  0
 10  9  2  0  0  0  0
 11  1  1  0  0  0  0
 12 13  1  0  0  0  0
 14 15  1  0  0  0  0
 15 16  2  0  0  0  0
 16 20  1  0  0  0  0
 17 16  1  0  0  0  0
 18 17  2  0  0  0  0
 19 14  2  0  0  0  0
 19 18  1  0  0  0  0
 20 21  2  0  0  0  0
 22 20  2  0  0  0  0
 23  1  1  0  0  0  0
 23 29  1  0  0  0  0
 24 23  2  0  0  0  0
 25 24  1  0  0  0  0
 25 27  2  0  0  0  0
 26 25  1  0  0  0  0
 27 28  1  0  0  0  0
 28 29  2  0  0  0  0
M  END
>  <Pose>
1

>  <Score>
-7.524

$$$$
