MODEL 1
REMARK VINA RESULT:    -7.524      0.000      0.000
REMARK INTER + INTRA:          -9.704
REMARK INTER:                  -9.064
REMARK INTRA:                  -0.640
REMARK UNBOUND:                -0.640
REMARK  4 active torsions:
REMARK  status: ('A' for Active; 'I' for Inactive)
REMARK    1  A    between atoms: C_4  and  N_8 
REMARK    2  A    between atoms: C_10  and  O_18 
REMARK    3  A    between atoms: C_10  and  C_19 
REMARK    4  A    between atoms: C_21  and  N_25 
ROOT
ATOM      1  N   UNK d   1      41.772   8.747  43.930  0.00  0.00     0.009 N 
ATOM      2  C   UNK d   1      41.994  10.080  43.426  0.00  0.00     0.316 C 
ATOM      3  C   UNK d   1      41.492  11.101  44.359  0.00  0.00     0.189 C 
ATOM      4  N   UNK d   1      40.921  10.329  45.426  0.00  0.00    -0.324 N 
ATOM      5  C   UNK d   1      39.924  10.636  46.424  0.00  0.00     0.128 C 
ATOM      6  C   UNK d   1      40.392  10.533  47.840  0.00  0.00     0.020 C 
ATOM      7  C   UNK d   1      41.729   9.903  48.023  0.00  0.00     0.005 C 
ATOM      8  C   UNK d   1      41.571   8.380  47.816  0.00  0.00     0.031 C 
ATOM      9  C   UNK d   1      41.801   8.187  46.328  0.00  0.00     0.030 C 
ATOM     10  C   UNK d   1      41.520   9.006  45.341  0.00  0.00     0.208 C 
ATOM     11  H   UNK d   1      40.964   8.242  43.583  0.00  0.00     0.295 HD
ENDROOT
BRANCH   3  12
ATOM     12  O   UNK d   1      40.413  11.804  43.753  0.00  0.00    -0.365 OA
ATOM     13  H   UNK d   1      39.626  11.675  44.379  0.00  0.00     0.213 HD
ENDBRANCH   3  12
BRANCH   3  14
ATOM     14  C   UNK d   1      42.416  12.122  44.787  0.00  0.00     0.001 A 
ATOM     15  C   UNK d   1      42.032  13.250  45.513  0.00  0.00     0.048 A 
ATOM     16  C   UNK d   1      42.929  14.217  45.943  0.00  0.00     0.103 A 
ATOM     17  C   UNK d   1      44.281  14.057  45.638  0.00  0.00     0.036 A 
ATOM     18  C   UNK d   1      44.699  12.968  44.928  0.00  0.00     0.003 A 
ATOM     19  C   UNK d   1      43.760  12.011  44.510  0.00  0.00     0.012 A 
BRANCH  16  20
ATOM     20  N   UNK d   1      42.469  15.335  46.675  0.00  0.00    -0.116 N 
ATOM     21  O   UNK d   1      43.212  15.851  47.567  0.00  0.00    -0.532 OA
ATOM     22  O   UNK d   1      41.263  15.900  46.488  0.00  0.00    -0.532 OA
ENDBRANCH  16  20
ENDBRANCH   3  14
BRANCH   1  23
ATOM     23  C   UNK d   1      42.905   7.892  43.913  0.00  0.00     0.143 A 
ATOM     24  C   UNK d   1      44.150   8.313  43.514  0.00  0.00     0.061 A 
ATOM     25  C   UNK d   1      45.232   7.444  43.394  0.00  0.00     0.036 A 
ATOM     26 Cl   UNK d   1      46.811   8.044  42.913  0.00  0.00    -0.084 Cl
ATOM     27  C   UNK d   1      45.074   6.103  43.681  0.00  0.00     0.024 A 
ATOM     28  C   UNK d   1      43.847   5.641  44.078  0.00  0.00     0.004 A 
ATOM     29  C   UNK d   1      42.780   6.526  44.191  0.00  0.00     0.038 A 
ENDBRANCH   1  23
TORSDOF 4
ENDMDL
