MODEL 1
REMARK VINA RESULT:    -7.773      0.000      0.000
REMARK INTER + INTRA:          -9.669
REMARK INTER:                  -9.590
REMARK INTRA:                  -0.079
REMARK UNBOUND:                -0.079
REMARK  4 active torsions:
REMARK  status: ('A' for Active; 'I' for Inactive)
REMARK    1  A    between atoms: C_7  and  N_8 
REMARK    2  A    between atoms: C_14  and  C_16 
REMARK    3  A    between atoms: N_23  and  C_31 
REMARK    4  A    between atoms: C_25  and  C_28 
ROOT
ATOM      1  F   UNK d   1      46.171   4.379  41.153  0.00  0.00    -0.204 F 
ATOM      2  C   UNK d   1      46.945   4.548  42.240  0.00  0.00     0.151 A 
ATOM      3  C   UNK d   1      48.076   3.737  42.265  0.00  0.00     0.062 A 
ATOM      4  C   UNK d   1      48.965   3.808  43.315  0.00  0.00     0.045 A 
ATOM      5  C   UNK d   1      48.700   4.700  44.327  0.00  0.00     0.051 A 
ATOM      6  C   UNK d   1      47.564   5.503  44.283  0.00  0.00     0.071 A 
ATOM      7  C   UNK d   1      46.673   5.441  43.246  0.00  0.00     0.175 A 
ATOM      8  N   UNK d   1      49.584   4.754  45.343  0.00  0.00    -0.350 N 
ATOM      9  C   UNK d   1      50.683   3.980  45.390  0.00  0.00     0.114 A 
ATOM     10  C   UNK d   1      50.977   3.077  44.392  0.00  0.00     0.107 A 
ATOM     11  C   UNK d   1      50.102   2.989  43.335  0.00  0.00     0.202 A 
ATOM     12  O   UNK d   1      50.310   2.188  42.394  0.00  0.00    -0.286 OA
ENDROOT
BRANCH   7  13
ATOM     13  N   UNK d   1      45.541   6.255  43.243  0.00  0.00    -0.035 N 
ATOM     14  C   UNK d   1      45.768   7.640  43.569  0.00  0.00     0.261 C 
ATOM     15  C   UNK d   1      44.459   8.444  43.381  0.00  0.00     0.153 C 
ATOM     16  N   UNK d   1      43.553   7.914  44.321  0.00  0.00    -0.356 N 
ATOM     17  C   UNK d   1      43.163   6.503  43.932  0.00  0.00     0.153 C 
ATOM     18  C   UNK d   1      43.029   8.383  45.478  0.00  0.00     0.187 C 
ATOM     19  C   UNK d   1      44.461   5.763  44.034  0.00  0.00     0.261 C 
ATOM     20  O   UNK d   1      42.138   7.607  46.047  0.00  0.00    -0.171 OA
ATOM     21  H   UNK d   1      45.183   6.262  42.238  0.00  0.00     0.287 HD
BRANCH  18  22
ATOM     22  C   UNK d   1      43.274   9.596  46.207  0.00  0.00     0.019 A 
ATOM     23  C   UNK d   1      43.161  10.842  45.681  0.00  0.00     0.039 A 
ATOM     24  C   UNK d   1      43.354  11.990  46.440  0.00  0.00     0.035 A 
ATOM     25  C   UNK d   1      43.673  11.868  47.768  0.00  0.00     0.024 A 
ATOM     26 Cl   UNK d   1      43.193  13.590  45.712  0.00  0.00    -0.084 Cl
ATOM     27  C   UNK d   1      43.802  10.637  48.347  0.00  0.00     0.003 A 
ATOM     28  C   UNK d   1      43.605   9.531  47.577  0.00  0.00     0.016 A 
ENDBRANCH  18  22
ENDBRANCH   7  13
BRANCH   8  29
ATOM     29  C   UNK d   1      49.284   5.711  46.414  0.00  0.00     0.090 A 
ATOM     30  C   UNK d   1      50.295   6.067  47.415  0.00  0.00     0.028 A 
ATOM     31  C   UNK d   1      49.308   5.075  47.844  0.00  0.00     0.028 A 
ENDBRANCH   8  29
BRANCH  10  32
ATOM     32  C   UNK d   1      52.187   2.236  44.459  0.00  0.00     0.214 C 
ATOM     33  O   UNK d   1      52.258   1.125  43.909  0.00  0.00    -0.644 OA
ATOM     34  O   UNK d   1      53.270   2.716  45.160  0.00  0.00    -0.644 OA
ENDBRANCH  10  32
TORSDOF 4
ENDMDL
