MODEL 1
REMARK VINA RESULT:    -8.841      0.000      0.000
REMARK INTER + INTRA:         -12.647
REMARK INTER:                 -11.942
REMARK INTRA:                  -0.705
REMARK UNBOUND:                -0.705
REMARK  6 active torsions:
REMARK  status: ('A' for Active; 'I' for Inactive)
REMARK    1  A    between atoms: C_5  and  C_8 
REMARK       I    between atoms: C_8  and  N_10 
REMARK    2  A    between atoms: N_10  and  C_11 
REMARK    3  A    between atoms: C_11  and  C_12 
REMARK    4  A    between atoms: C_12  and  N_13 
REMARK       I    between atoms: N_13  and  C_14 
REMARK    5  A    between atoms: C_14  and  C_16 
REMARK    6  A    between atoms: N_19  and  C_22 
ROOT
ATOM      1  N   UNK d   1      44.226   8.282  44.151  0.00  0.00    -0.359 N 
ATOM      2  C   UNK d   1      42.939   8.771  43.723  0.00  0.00     0.222 C 
ATOM      3  O   UNK d   1      42.445   8.332  42.673  0.00  0.00    -0.273 OA
ATOM      4  H   UNK d   1      44.555   8.663  45.034  0.00  0.00     0.162 HD
ENDROOT
BRANCH   2   5
ATOM      5  C   UNK d   1      42.195   9.785  44.507  0.00  0.00     0.081 C 
ATOM      6  C   UNK d   1      42.176  11.071  43.711  0.00  0.00     0.034 C 
ATOM      7  C   UNK d   1      43.578  11.637  43.743  0.00  0.00     0.125 C 
ATOM      8  N   UNK d   1      43.786  12.092  45.115  0.00  0.00    -0.364 N 
ATOM      9  C   UNK d   1      43.215  11.367  46.200  0.00  0.00     0.125 C 
ATOM     10  C   UNK d   1      42.735  10.000  45.872  0.00  0.00     0.034 C 
BRANCH   8  11
ATOM     11  C   UNK d   1      44.563  13.257  45.305  0.00  0.00     0.148 A 
ATOM     12  N   UNK d   1      45.444  13.707  44.391  0.00  0.00    -0.129 NA
ATOM     13  N   UNK d   1      46.179  14.791  44.554  0.00  0.00    -0.108 N 
ATOM     14  N   UNK d   1      47.083  15.376  43.775  0.00  0.00    -0.021 NA
ATOM     15  C   UNK d   1      46.108  15.545  45.657  0.00  0.00     0.196 A 
ATOM     16  N   UNK d   1      47.562  16.445  44.353  0.00  0.00    -0.021 NA
ATOM     17  N   UNK d   1      46.973  16.573  45.522  0.00  0.00    -0.107 NA
ATOM     18  C   UNK d   1      45.221  15.135  46.636  0.00  0.00     0.060 A 
ATOM     19  C   UNK d   1      44.452  14.001  46.467  0.00  0.00     0.056 A 
ENDBRANCH   8  11
ENDBRANCH   2   5
BRANCH   1  20
ATOM     20  C   UNK d   1      44.852   7.317  43.336  0.00  0.00     0.142 C 
BRANCH  20  21
ATOM     21  C   UNK d   1      44.775   5.877  43.631  0.00  0.00     0.142 C 
BRANCH  21  22
ATOM     22  N   UNK d   1      45.974   5.131  43.686  0.00  0.00    -0.355 N 
ATOM     23  C   UNK d   1      46.864   4.747  42.694  0.00  0.00     0.251 C 
ATOM     24  O   UNK d   1      46.696   5.064  41.497  0.00  0.00    -0.268 OA
ATOM     25  H   UNK d   1      46.289   4.763  44.687  0.00  0.00     0.162 HD
BRANCH  23  26
ATOM     26  C   UNK d   1      48.073   3.938  42.977  0.00  0.00     0.032 A 
ATOM     27  C   UNK d   1      48.870   4.256  44.056  0.00  0.00     0.018 A 
ATOM     28  C   UNK d   1      49.995   3.529  44.363  0.00  0.00     0.025 A 
ATOM     29  C   UNK d   1      50.342   2.447  43.570  0.00  0.00     0.034 A 
ATOM     30 Cl   UNK d   1      51.779   1.512  43.952  0.00  0.00    -0.084 Cl
ATOM     31  C   UNK d   1      49.572   2.103  42.491  0.00  0.00     0.025 A 
ATOM     32  C   UNK d   1      48.435   2.864  42.208  0.00  0.00     0.018 A 
ENDBRANCH  23  26
ENDBRANCH  21  22
ENDBRANCH  20  21
ENDBRANCH   1  20
TORSDOF 6
ENDMDL
