/Users/jonathanwahrer/Desktop/Msc/3_Semester/Drug_Design_Praktikum/waehrer_HTS_screening/HTS_experiment/out/docking_results/vina_output/2qfa/1507_docked.pdbqt
 OpenBabel03162220463D

 32 35  0  0  1  0  0  0  0  0999 V2000
   43.1450    8.1850   45.1610 C   0  0  0  0  0  0  0  0  0  0  0  0
   42.2740    8.9920   44.5910 C   0  0  0  0  0  0  0  0  0  0  0  0
   41.2700    9.9120   45.2180 C   0  0  2  0  0  3  0  0  0  0  0  0
   41.3750   11.0640   44.3990 N   0  0  0  0  0  0  0  0  0  0  0  0
   41.4240   10.5200   43.0450 C   0  0  0  0  0  0  0  0  0  0  0  0
   41.0460   11.0740   41.9800 O   0  0  0  0  0  0  0  0  0  0  0  0
   42.0030    9.1870   43.1670 C   0  0  0  0  0  0  0  0  0  0  0  0
   42.2530    8.3140   42.2710 O   0  0  0  0  0  0  0  0  0  0  0  0
   43.2500    8.0690   46.5360 O   0  0  0  0  0  1  0  0  0  0  0  0
   44.0490    7.3640   44.3640 C   0  0  0  0  0  0  0  0  0  0  0  0
   43.8850    5.9950   44.2550 C   0  0  0  0  0  3  0  0  0  0  0  0
   44.7900    5.2910   43.5120 C   0  0  0  0  0  3  0  0  0  0  0  0
   45.8610    5.8590   42.8620 C   0  0  0  0  0  0  0  0  0  0  0  0
   47.0930    4.7980   41.8340 Br  0  0  0  0  0  0  0  0  0  0  0  0
   46.0310    7.2240   42.9680 C   0  0  0  0  0  3  0  0  0  0  0  0
   45.1120    7.9570   43.7240 C   0  0  0  0  0  3  0  0  0  0  0  0
   41.3190    9.9590   46.6410 C   0  0  0  0  0  0  0  0  0  0  0  0
   40.4380    9.1960   47.3690 C   0  0  0  0  0  3  0  0  0  0  0  0
   40.4350    9.1760   48.7430 C   0  0  0  0  0  3  0  0  0  0  0  0
   41.3420    9.9420   49.4590 C   0  0  0  0  0  0  0  0  0  0  0  0
   42.2190   10.7020   48.7110 C   0  0  0  0  0  3  0  0  0  0  0  0
   41.3500    9.9250   51.2050 Cl  0  0  0  0  0  0  0  0  0  0  0  0
   42.2160   10.7170   47.3340 C   0  0  0  0  0  3  0  0  0  0  0  0
   41.3780   12.4930   44.6500 C   0  0  0  0  0  2  0  0  0  0  0  0
   40.2110   13.0640   45.3570 C   0  0  0  0  0  2  0  0  0  0  0  0
   38.9150   12.6270   44.8270 N   0  0  0  0  0  4  0  0  0  0  0  0
   38.2100   13.7300   44.2710 C   0  0  0  0  0  2  0  0  0  0  0  0
   36.9410   14.1210   44.9440 C   0  0  0  0  0  2  0  0  0  0  0  0
   36.2780   13.1050   45.6050 O   0  0  0  0  0  0  0  0  0  0  0  0
   37.1840   12.6660   46.5980 C   0  0  0  0  0  2  0  0  0  0  0  0
   38.2470   11.9150   45.8770 C   0  0  0  0  0  2  0  0  0  0  0  0
   39.1660   11.9250   44.0650 H   0  0  0  0  0  0  0  0  0  0  0  0
  1  9  1  0  0  0  0
  2  1  2  0  0  0  0
  2  3  1  0  0  0  0
  3 17  1  1  0  0  0
  4 24  1  0  0  0  0
  4  3  1  0  0  0  0
  5  7  1  0  0  0  0
  5  4  1  0  0  0  0
  6  5  2  0  0  0  0
  7  2  1  0  0  0  0
  8  7  2  0  0  0  0
 10  1  1  0  0  0  0
 11 10  1  0  0  0  0
 12 11  2  0  0  0  0
 13 15  2  0  0  0  0
 13 12  1  0  0  0  0
 14 13  1  0  0  0  0
 15 16  1  0  0  0  0
 16 10  2  0  0  0  0
 17 23  2  0  0  0  0
 17 18  1  0  0  0  0
 18 19  2  0  0  0  0
 19 20  1  0  0  0  0
 20 22  1  0  0  0  0
 21 20  2  0  0  0  0
 23 21  1  0  0  0  0
 24 25  1  0  0  0  0
 26 25  1  0  0  0  0
 26 31  1  0  0  0  0
 27 26  1  0  0  0  0
 27 28  1  0  0  0  0
 28 29  1  0  0  0  0
 29 30  1  0  0  0  0
 31 30  1  0  0  0  0
 32 26  1  0  0  0  0
M  END
>  <Pose>
1

>  <Score>
-7.232

$$$$
