/Users/jonathanwahrer/Desktop/Msc/3_Semester/Drug_Design_Praktikum/waehrer_HTS_screening/HTS_experiment/out/docking_results/vina_output/2qfa/1516_docked.pdbqt
 OpenBabel03162220473D

 30 33  0  0  1  0  0  0  0  0999 V2000
   42.7030    7.8240   43.5350 C   0  0  0  0  0  0  0  0  0  0  0  0
   41.9550    7.6410   42.4720 O   0  0  0  0  0  0  0  0  0  0  0  0
   42.5040    9.0450   44.1640 N   0  0  0  0  0  0  0  0  0  0  0  0
   43.1720    9.4610   45.3530 C   0  0  0  0  0  2  0  0  0  0  0  0
   42.4380   10.7070   45.9010 C   0  0  0  0  0  2  0  0  0  0  0  0
   42.7010   11.8260   44.9120 C   0  0  2  0  0  0  0  0  0  0  0  0
   44.0840   12.0640   44.8370 N   0  0  0  0  0  0  0  0  0  0  0  0
   44.7150   12.9150   45.7510 C   0  0  0  0  0  2  0  0  0  0  0  0
   43.9730   14.1180   46.1990 C   0  0  0  0  0  2  0  0  0  0  0  0
   42.5210   14.0560   45.9290 C   0  0  0  0  0  0  0  0  0  0  0  0
   41.5850   14.9830   46.2090 N   0  0  0  0  0  0  0  0  0  0  0  0
   40.4030   14.5170   45.7950 C   0  0  0  0  0  3  0  0  0  0  0  0
   40.5970   13.2930   45.2540 N   0  0  0  0  0  0  0  0  0  0  0  0
   41.9070   12.9910   45.3300 C   0  0  0  0  0  0  0  0  0  0  0  0
   42.2410   11.3370   43.5280 C   0  0  0  0  0  2  0  0  0  0  0  0
   41.5430   10.0080   43.6020 C   0  0  0  0  0  2  0  0  0  0  0  0
   44.6540   11.4890   44.2280 H   0  0  0  0  0  0  0  0  0  0  0  0
   39.8550   12.6920   44.8520 H   0  0  0  0  0  0  0  0  0  0  0  0
   43.5910    6.7040   43.8400 C   0  0  0  0  0  2  0  0  0  0  0  0
   44.9080    6.8090   43.4790 N   0  0  0  0  0  0  0  0  0  0  0  0
   46.2110    6.9140   43.1230 C   0  0  0  0  0  0  0  0  0  0  0  0
   46.8570    7.9700   42.8920 O   0  0  0  0  0  0  0  0  0  0  0  0
   44.7460    8.1720   43.3780 H   0  0  0  0  0  0  0  0  0  0  0  0
   47.0010    5.6480   42.9780 C   0  0  0  0  0  0  0  0  0  0  0  0
   47.9720    5.3710   43.8940 C   0  0  0  0  0  3  0  0  0  0  0  0
   48.7170    4.1930   43.7720 C   0  0  0  0  0  3  0  0  0  0  0  0
   48.4470    3.3510   42.7300 C   0  0  0  0  0  0  0  0  0  0  0  0
   49.3890    1.8750   42.5760 Cl  0  0  0  0  0  0  0  0  0  0  0  0
   47.4760    3.6290   41.8130 C   0  0  0  0  0  3  0  0  0  0  0  0
   46.7300    4.8170   41.9450 C   0  0  0  0  0  3  0  0  0  0  0  0
  1 19  1  0  0  0  0
  1  3  1  0  0  0  0
  2  1  2  0  0  0  0
  3  4  1  0  0  0  0
  4  5  1  0  0  0  0
  6 15  1  6  0  0  0
  6 14  1  0  0  0  0
  6  5  1  0  0  0  0
  7  6  1  0  0  0  0
  7  8  1  0  0  0  0
  8  9  1  0  0  0  0
 10  9  1  0  0  0  0
 10 11  1  0  0  0  0
 12 11  2  0  0  0  0
 13 14  1  0  0  0  0
 13 12  1  0  0  0  0
 14 10  2  0  0  0  0
 15 16  1  0  0  0  0
 16  3  1  0  0  0  0
 17  7  1  0  0  0  0
 18 13  1  0  0  0  0
 20 19  1  0  0  0  0
 21 20  1  0  0  0  0
 22 21  2  0  0  0  0
 23 20  1  0  0  0  0
 24 21  1  0  0  0  0
 24 25  1  0  0  0  0
 26 25  2  0  0  0  0
 27 26  1  0  0  0  0
 28 27  1  0  0  0  0
 29 30  1  0  0  0  0
 29 27  2  0  0  0  0
 30 24  2  0  0  0  0
M  END
>  <Pose>
1

>  <Score>
-8.336

$$$$
