MODEL 1
REMARK VINA RESULT:    -8.336      0.000      0.000
REMARK INTER + INTRA:         -10.173
REMARK INTER:                  -9.797
REMARK INTRA:                  -0.375
REMARK UNBOUND:                -0.375
REMARK  3 active torsions:
REMARK  status: ('A' for Active; 'I' for Inactive)
REMARK    1  A    between atoms: C_5  and  C_8 
REMARK       I    between atoms: C_8  and  N_10 
REMARK    2  A    between atoms: N_10  and  C_11 
REMARK    3  A    between atoms: C_11  and  C_12 
REMARK       I    between atoms: C_12  and  N_14 
ROOT
ATOM      1  C   UNK d   1      42.703   7.824  43.535  0.00  0.00     0.171 C 
ATOM      2  O   UNK d   1      41.955   7.641  42.472  0.00  0.00    -0.175 OA
ATOM      3  N   UNK d   1      42.504   9.045  44.164  0.00  0.00    -0.361 N 
ATOM      4  C   UNK d   1      43.172   9.461  45.353  0.00  0.00     0.127 C 
ATOM      5  C   UNK d   1      42.438  10.707  45.901  0.00  0.00     0.057 C 
ATOM      6  C   UNK d   1      42.701  11.826  44.912  0.00  0.00     0.073 C 
ATOM      7  N   UNK d   1      44.084  12.064  44.837  0.00  0.00    -0.407 N 
ATOM      8  C   UNK d   1      44.715  12.915  45.751  0.00  0.00     0.121 C 
ATOM      9  C   UNK d   1      43.973  14.118  46.199  0.00  0.00     0.080 C 
ATOM     10  C   UNK d   1      42.521  14.056  45.929  0.00  0.00     0.062 A 
ATOM     11  N   UNK d   1      41.585  14.983  46.209  0.00  0.00    -0.246 NA
ATOM     12  C   UNK d   1      40.403  14.517  45.795  0.00  0.00     0.207 A 
ATOM     13  N   UNK d   1      40.597  13.293  45.254  0.00  0.00    -0.350 N 
ATOM     14  C   UNK d   1      41.907  12.991  45.330  0.00  0.00     0.063 A 
ATOM     15  C   UNK d   1      42.241  11.337  43.528  0.00  0.00     0.057 C 
ATOM     16  C   UNK d   1      41.543  10.008  43.602  0.00  0.00     0.127 C 
ATOM     17  H   UNK d   1      44.654  11.489  44.228  0.00  0.00     0.154 HD
ATOM     18  H   UNK d   1      39.855  12.692  44.852  0.00  0.00     0.166 HD
ENDROOT
BRANCH   1  19
ATOM     19  C   UNK d   1      43.591   6.704  43.840  0.00  0.00     0.210 C 
BRANCH  19  20
ATOM     20  N   UNK d   1      44.908   6.809  43.479  0.00  0.00    -0.349 N 
ATOM     21  C   UNK d   1      46.211   6.914  43.123  0.00  0.00     0.252 C 
ATOM     22  O   UNK d   1      46.857   7.970  42.892  0.00  0.00    -0.268 OA
ATOM     23  H   UNK d   1      44.746   8.172  43.378  0.00  0.00     0.163 HD
BRANCH  21  24
ATOM     24  C   UNK d   1      47.001   5.648  42.978  0.00  0.00     0.032 A 
ATOM     25  C   UNK d   1      47.972   5.371  43.894  0.00  0.00     0.018 A 
ATOM     26  C   UNK d   1      48.717   4.193  43.772  0.00  0.00     0.025 A 
ATOM     27  C   UNK d   1      48.447   3.351  42.730  0.00  0.00     0.034 A 
ATOM     28 Cl   UNK d   1      49.389   1.875  42.576  0.00  0.00    -0.084 Cl
ATOM     29  C   UNK d   1      47.476   3.629  41.813  0.00  0.00     0.025 A 
ATOM     30  C   UNK d   1      46.730   4.817  41.945  0.00  0.00     0.018 A 
ENDBRANCH  21  24
ENDBRANCH  19  20
ENDBRANCH   1  19
TORSDOF 3
ENDMDL
