/Users/jonathanwahrer/Desktop/Msc/3_Semester/Drug_Design_Praktikum/waehrer_HTS_screening/HTS_experiment/out/docking_results/vina_output/2qfa/1518_docked.pdbqt
 OpenBabel03162220473D

 31 34  0  0  1  0  0  0  0  0999 V2000
   42.4300    8.0300   43.3920 C   0  0  0  0  0  0  0  0  0  0  0  0
   42.1060    7.6620   42.2370 O   0  0  0  0  0  0  0  0  0  0  0  0
   41.9700    9.2660   43.9040 N   0  0  0  0  0  0  0  0  0  0  0  0
   42.3100    9.7480   45.2270 C   0  0  0  0  0  2  0  0  0  0  0  0
   41.1270   10.5540   45.7430 C   0  0  0  0  0  2  0  0  0  0  0  0
   40.9030   11.7870   44.8680 C   0  0  1  0  0  0  0  0  0  0  0  0
   39.4880   12.0180   44.8340 N   0  0  0  0  0  0  0  0  0  0  0  0
   39.1690   13.3800   44.4620 C   0  0  0  0  0  2  0  0  0  0  0  0
   39.5450   14.3000   45.6220 C   0  0  0  0  0  2  0  0  0  0  0  0
   41.0130   14.1310   45.8280 C   0  0  0  0  0  0  0  0  0  0  0  0
   41.9610   14.9700   46.3410 N   0  0  0  0  0  0  0  0  0  0  0  0
   43.1420   14.3290   46.3050 C   0  0  0  0  0  3  0  0  0  0  0  0
   42.9350   13.1090   45.7770 N   0  0  0  0  0  0  0  0  0  0  0  0
   41.6150   12.9470   45.4660 C   0  0  0  0  0  0  0  0  0  0  0  0
   41.4010   11.5420   43.4600 C   0  0  0  0  0  2  0  0  0  0  0  0
   41.1170   10.1150   43.0950 C   0  0  0  0  0  2  0  0  0  0  0  0
   39.0040   11.3510   44.2010 H   0  0  0  0  0  0  0  0  0  0  0  0
   41.7220   15.9290   46.6800 H   0  0  0  0  0  0  0  0  0  0  0  0
   43.3020    7.1400   44.1910 C   0  0  0  0  0  2  0  0  0  0  0  0
   44.7480    7.5130   44.1040 C   0  0  0  0  0  2  0  0  0  0  0  0
   45.5490    6.3170   43.9300 N   0  0  0  0  0  0  0  0  0  0  0  0
   46.8320    6.3120   43.3810 C   0  0  0  0  0  0  0  0  0  0  0  0
   47.3600    7.3880   43.0020 O   0  0  0  0  0  0  0  0  0  0  0  0
   45.0960    5.4290   44.2520 H   0  0  0  0  0  0  0  0  0  0  0  0
   47.6110    5.0870   43.2190 C   0  0  0  0  0  0  0  0  0  0  0  0
   48.6210    4.7380   44.0880 C   0  0  0  0  0  3  0  0  0  0  0  0
   49.3260    3.5620   43.8820 C   0  0  0  0  0  3  0  0  0  0  0  0
   49.0420    2.7210   42.8150 C   0  0  0  0  0  0  0  0  0  0  0  0
   49.9830    1.2540   42.6290 Cl  0  0  0  0  0  0  0  0  0  0  0  0
   48.0330    3.0600   41.9380 C   0  0  0  0  0  3  0  0  0  0  0  0
   47.3470    4.2230   42.1570 C   0  0  0  0  0  3  0  0  0  0  0  0
  1  3  1  0  0  0  0
  1 19  1  0  0  0  0
  2  1  2  0  0  0  0
  3  4  1  0  0  0  0
  4  5  1  0  0  0  0
  6 15  1  6  0  0  0
  6 14  1  0  0  0  0
  6  5  1  0  0  0  0
  7  6  1  0  0  0  0
  8  7  1  0  0  0  0
  8  9  1  0  0  0  0
  9 10  1  0  0  0  0
 10 11  1  0  0  0  0
 11 18  1  0  0  0  0
 12 11  1  0  0  0  0
 13 12  2  0  0  0  0
 14 13  1  0  0  0  0
 14 10  2  0  0  0  0
 16 15  1  0  0  0  0
 16  3  1  0  0  0  0
 17  7  1  0  0  0  0
 20 19  1  0  0  0  0
 21 20  1  0  0  0  0
 21 24  1  0  0  0  0
 22 21  1  0  0  0  0
 23 22  2  0  0  0  0
 25 22  1  0  0  0  0
 25 26  1  0  0  0  0
 27 26  2  0  0  0  0
 28 27  1  0  0  0  0
 29 28  1  0  0  0  0
 30 31  1  0  0  0  0
 30 28  2  0  0  0  0
 31 25  2  0  0  0  0
M  END
>  <Pose>
1

>  <Score>
-8.160

$$$$
