MODEL 1
REMARK VINA RESULT:    -6.196      0.000      0.000
REMARK INTER + INTRA:          -7.486
REMARK INTER:                  -7.102
REMARK INTRA:                  -0.384
REMARK UNBOUND:                -0.384
REMARK  3 active torsions:
REMARK  status: ('A' for Active; 'I' for Inactive)
REMARK    1  A    between atoms: N_12  and  C_15 
REMARK    2  A    between atoms: C_15  and  C_16 
REMARK    3  A    between atoms: C_16  and  O_21 
ROOT
ATOM      1 Cl   UNK d   1      42.874  15.136  46.503  0.00  0.00    -0.082 Cl
ATOM      2  C   UNK d   1      43.116  13.438  46.857  0.00  0.00     0.061 A 
ATOM      3  C   UNK d   1      42.624  12.491  45.993  0.00  0.00     0.065 A 
ATOM      4  N   UNK d   1      41.940  12.533  44.837  0.00  0.00    -0.357 N 
ATOM      5  C   UNK d   1      41.687  11.297  44.367  0.00  0.00     0.020 A 
ATOM      6  C   UNK d   1      42.245  10.432  45.285  0.00  0.00    -0.006 A 
ATOM      7  C   UNK d   1      42.831  11.157  46.300  0.00  0.00     0.002 A 
ATOM      8  C   UNK d   1      43.517  10.826  47.451  0.00  0.00     0.014 A 
ATOM      9  C   UNK d   1      44.019  11.753  48.331  0.00  0.00     0.003 A 
ATOM     10  C   UNK d   1      43.808  13.092  48.018  0.00  0.00     0.026 A 
ATOM     11  C   UNK d   1      42.096   8.988  44.980  0.00  0.00     0.158 C 
ATOM     12  N   UNK d   1      42.557   8.849  43.617  0.00  0.00    -0.405 N 
ATOM     13  C   UNK d   1      41.743   9.473  42.649  0.00  0.00     0.123 C 
ATOM     14  C   UNK d   1      41.011  10.671  43.211  0.00  0.00     0.077 C 
ATOM     15  H   UNK d   1      41.620  13.402  44.324  0.00  0.00     0.166 HD
ENDROOT
BRANCH  12  16
ATOM     16  C   UNK d   1      43.148   7.615  43.314  0.00  0.00     0.156 C 
BRANCH  16  17
ATOM     17  C   UNK d   1      44.644   7.645  43.378  0.00  0.00     0.101 A 
ATOM     18  C   UNK d   1      45.205   6.914  44.548  0.00  0.00     0.308 A 
ATOM     19  N   UNK d   1      46.123   5.916  44.116  0.00  0.00     0.086 N 
ATOM     20  C   UNK d   1      46.162   5.899  42.690  0.00  0.00     0.272 A 
ATOM     21  H   UNK d   1      47.075   6.002  44.544  0.00  0.00     0.315 HD
ATOM     22  C   UNK d   1      45.189   6.909  42.184  0.00  0.00     0.071 A 
BRANCH  17  23
ATOM     23  O   UNK d   1      45.126   8.958  43.295  0.00  0.00    -0.386 OA
ATOM     24  H   UNK d   1      44.648   9.374  42.530  0.00  0.00     0.210 HD
ENDBRANCH  17  23
ENDBRANCH  16  17
ENDBRANCH  12  16
TORSDOF 3
ENDMDL
