MODEL 1
REMARK VINA RESULT:    -6.146      0.000      0.000
REMARK INTER + INTRA:          -7.971
REMARK INTER:                  -7.224
REMARK INTRA:                  -0.747
REMARK UNBOUND:                -0.747
REMARK  3 active torsions:
REMARK  status: ('A' for Active; 'I' for Inactive)
REMARK    1  A    between atoms: C_4  and  N_8 
REMARK    2  A    between atoms: C_11  and  N_15 
REMARK    3  A    between atoms: N_18  and  C_21 
ROOT
ATOM      1  N   UNK d   1      41.831  12.229  44.563  0.00  0.00    -0.251 N 
ATOM      2  C   UNK d   1      42.879  11.268  44.551  0.00  0.00     0.254 C 
ATOM      3  O   UNK d   1      43.909  11.360  45.262  0.00  0.00    -0.270 OA
ATOM      4  C   UNK d   1      42.498  10.238  43.592  0.00  0.00     0.181 C 
ATOM      5  C   UNK d   1      41.655  10.998  42.590  0.00  0.00     0.138 C 
ATOM      6  C   UNK d   1      41.098  12.143  43.334  0.00  0.00     0.233 C 
ATOM      7  O   UNK d   1      40.164  12.910  42.978  0.00  0.00    -0.273 OA
ENDROOT
BRANCH   4   8
ATOM      8  N   UNK d   1      41.848   9.102  44.110  0.00  0.00    -0.397 N 
ATOM      9  C   UNK d   1      42.038   8.792  45.469  0.00  0.00     0.138 C 
ATOM     10  C   UNK d   1      43.141   7.730  45.580  0.00  0.00     0.161 C 
ATOM     11  N   UNK d   1      43.347   7.099  44.286  0.00  0.00    -0.211 N 
ATOM     12  C   UNK d   1      42.252   6.855  43.368  0.00  0.00     0.161 C 
ATOM     13  C   UNK d   1      41.389   8.090  43.267  0.00  0.00     0.138 C 
BRANCH  11  14
ATOM     14  C   UNK d   1      44.658   6.708  43.857  0.00  0.00     0.724 A 
ATOM     15  N   UNK d   1      45.626   7.627  43.654  0.00  0.00    -0.075 NA
ATOM     16  C   UNK d   1      46.861   7.251  43.268  0.00  0.00     0.138 A 
ATOM     17  C   UNK d   1      47.183   5.914  43.064  0.00  0.00     0.040 A 
ATOM     18  C   UNK d   1      46.187   4.978  43.275  0.00  0.00     0.138 A 
ATOM     19  N   UNK d   1      44.975   5.416  43.660  0.00  0.00    -0.075 NA
ENDBRANCH  11  14
ENDBRANCH   4   8
BRANCH   1  20
ATOM     20  C   UNK d   1      41.570  13.119  45.648  0.00  0.00     0.046 A 
ATOM     21  C   UNK d   1      40.532  12.943  46.539  0.00  0.00     0.049 A 
ATOM     22  C   UNK d   1      40.321  13.838  47.584  0.00  0.00     0.013 A 
ATOM     23 Br   UNK d   1      38.891  13.604  48.818  0.00  0.00    -0.051 Br
ATOM     24  C   UNK d   1      41.149  14.927  47.754  0.00  0.00     0.019 A 
ATOM     25  C   UNK d   1      42.188  15.121  46.878  0.00  0.00     0.004 A 
ATOM     26  C   UNK d   1      42.380  14.230  45.858  0.00  0.00     0.030 A 
ENDBRANCH   1  20
TORSDOF 3
ENDMDL
