/Users/jonathanwahrer/Desktop/Msc/3_Semester/Drug_Design_Praktikum/waehrer_HTS_screening/HTS_experiment/out/docking_results/vina_output/2qfa/1533_docked.pdbqt
 OpenBabel03162220483D

 28 31  0  0  1  0  0  0  0  0999 V2000
   43.7370   13.1880   46.1050 C   0  0  0  0  0  0  0  0  0  0  0  0
   42.3850   13.2940   46.0310 N   0  0  0  0  0  0  0  0  0  0  0  0
   41.8250   12.1910   46.5380 C   0  0  2  0  0  3  0  0  0  0  0  0
   42.7980   11.3270   46.9640 N   0  0  0  0  0  0  0  0  0  0  0  0
   43.9570   11.9500   46.6920 C   0  0  0  0  0  3  0  0  0  0  0  0
   40.3490   12.2630   46.4650 C   0  0  0  0  0  2  0  0  0  0  0  0
   40.1230   13.7460   46.3620 C   0  0  0  0  0  2  0  0  0  0  0  0
   41.3360   14.2140   45.5920 C   0  0  0  0  0  2  0  0  0  0  0  0
   42.6040   10.0210   47.5240 C   0  0  0  0  0  3  0  0  0  0  0  0
   42.5980    8.8280   46.7220 C   0  0  0  0  0  0  0  0  0  0  0  0
   42.4150    7.7210   47.4360 O   0  0  0  0  0  1  0  0  0  0  0  0
   42.7460    8.5650   45.3140 C   0  0  0  0  0  0  0  0  0  0  0  0
   43.7230    7.6440   44.8720 C   0  0  0  0  0  3  0  0  0  0  0  0
   43.9370    7.3280   43.5560 C   0  0  0  0  0  0  0  0  0  0  0  0
   43.1350    7.9610   42.6290 C   0  0  0  0  0  3  0  0  0  0  0  0
   42.1750    8.8620   43.0340 C   0  0  0  0  0  3  0  0  0  0  0  0
   41.9620    9.1810   44.3760 C   0  0  0  0  0  3  0  0  0  0  0  0
   44.9220    6.4030   43.1350 N   0  0  0  0  0  0  0  0  0  0  0  0
   45.7030    6.7200   42.2310 O   0  0  0  0  0  0  0  0  0  0  0  0
   45.0370    5.1660   43.6990 O   0  0  0  0  0  0  0  0  0  0  0  0
   44.7840   14.1200   45.6880 C   0  0  0  0  0  0  0  0  0  0  0  0
   45.4470   13.8780   44.5060 C   0  0  0  0  0  3  0  0  0  0  0  0
   46.4460   14.7360   44.0400 C   0  0  0  0  0  3  0  0  0  0  0  0
   46.7720   15.8480   44.7820 C   0  0  0  0  0  0  0  0  0  0  0  0
   46.1190   16.0940   45.9540 C   0  0  0  0  0  0  0  0  0  0  0  0
   48.0360   16.9200   44.1760 Cl  0  0  0  0  0  0  0  0  0  0  0  0
   46.5590   17.5170   46.8720 Cl  0  0  0  0  0  0  0  0  0  0  0  0
   45.1260   15.2290   46.4040 C   0  0  0  0  0  3  0  0  0  0  0  0
  1  5  2  0  0  0  0
  2  1  1  0  0  0  0
  2  3  1  0  0  0  0
  3  6  1  6  0  0  0
  3  4  1  0  0  0  0
  4  9  1  0  0  0  0
  5  4  1  0  0  0  0
  7  6  1  0  0  0  0
  8  2  1  0  0  0  0
  8  7  1  0  0  0  0
 10 11  1  0  0  0  0
 10  9  2  0  0  0  0
 12 10  1  0  0  0  0
 13 12  1  0  0  0  0
 14 13  2  0  0  0  0
 15 16  2  0  0  0  0
 15 14  1  0  0  0  0
 16 17  1  0  0  0  0
 17 12  2  0  0  0  0
 18 14  1  0  0  0  0
 18 20  2  0  0  0  0
 19 18  2  0  0  0  0
 21  1  1  0  0  0  0
 21 28  1  0  0  0  0
 22 21  2  0  0  0  0
 23 22  1  0  0  0  0
 23 24  2  0  0  0  0
 24 25  1  0  0  0  0
 25 28  2  0  0  0  0
 25 27  1  0  0  0  0
 26 24  1  0  0  0  0
M  END
>  <Pose>
1

>  <Score>
-8.082

$$$$
