MODEL 1
REMARK VINA RESULT:    -8.082      0.000      0.000
REMARK INTER + INTRA:         -10.908
REMARK INTER:                  -9.972
REMARK INTRA:                  -0.936
REMARK UNBOUND:                -0.936
REMARK  4 active torsions:
REMARK  status: ('A' for Active; 'I' for Inactive)
REMARK    1  A    between atoms: C_6  and  C_8 
REMARK    2  A    between atoms: N_11  and  C_13 
REMARK    3  A    between atoms: C_14  and  C_16 
REMARK    4  A    between atoms: C_18  and  N_22 
ROOT
ATOM      1  C   UNK d   1      43.737  13.188  46.105  0.00  0.00     0.061 A 
ATOM      2  N   UNK d   1      42.385  13.294  46.031  0.00  0.00    -0.335 N 
ATOM      3  C   UNK d   1      41.825  12.191  46.538  0.00  0.00     0.086 A 
ATOM      4  N   UNK d   1      42.798  11.327  46.964  0.00  0.00    -0.338 N 
ATOM      5  C   UNK d   1      43.957  11.950  46.692  0.00  0.00     0.123 A 
ATOM      6  C   UNK d   1      40.349  12.263  46.465  0.00  0.00     0.078 C 
ATOM      7  C   UNK d   1      40.123  13.746  46.362  0.00  0.00     0.028 C 
ATOM      8  C   UNK d   1      41.336  14.214  45.592  0.00  0.00     0.131 C 
ENDROOT
BRANCH   4   9
ATOM      9  C   UNK d   1      42.604  10.021  47.524  0.00  0.00     0.198 C 
ATOM     10  C   UNK d   1      42.598   8.828  46.722  0.00  0.00     0.113 C 
ATOM     11  O   UNK d   1      42.415   7.721  47.436  0.00  0.00    -0.194 OA
BRANCH  10  12
ATOM     12  C   UNK d   1      42.746   8.565  45.314  0.00  0.00     0.000 A 
ATOM     13  C   UNK d   1      43.723   7.644  44.872  0.00  0.00     0.050 A 
ATOM     14  C   UNK d   1      43.937   7.328  43.556  0.00  0.00     0.103 A 
ATOM     15  C   UNK d   1      43.135   7.961  42.629  0.00  0.00     0.036 A 
ATOM     16  C   UNK d   1      42.175   8.862  43.034  0.00  0.00     0.003 A 
ATOM     17  C   UNK d   1      41.962   9.181  44.376  0.00  0.00     0.014 A 
BRANCH  14  18
ATOM     18  N   UNK d   1      44.922   6.403  43.135  0.00  0.00    -0.116 N 
ATOM     19  O   UNK d   1      45.703   6.720  42.231  0.00  0.00    -0.532 OA
ATOM     20  O   UNK d   1      45.037   5.166  43.699  0.00  0.00    -0.532 OA
ENDBRANCH  14  18
ENDBRANCH  10  12
ENDBRANCH   4   9
BRANCH   1  21
ATOM     21  C   UNK d   1      44.784  14.120  45.688  0.00  0.00    -0.006 A 
ATOM     22  C   UNK d   1      45.447  13.878  44.506  0.00  0.00     0.015 A 
ATOM     23  C   UNK d   1      46.446  14.736  44.040  0.00  0.00     0.026 A 
ATOM     24  C   UNK d   1      46.772  15.848  44.782  0.00  0.00     0.055 A 
ATOM     25  C   UNK d   1      46.119  16.094  45.954  0.00  0.00     0.056 A 
ATOM     26 Cl   UNK d   1      48.036  16.920  44.176  0.00  0.00    -0.083 Cl
ATOM     27 Cl   UNK d   1      46.559  17.517  46.872  0.00  0.00    -0.083 Cl
ATOM     28  C   UNK d   1      45.126  15.229  46.404  0.00  0.00     0.039 A 
ENDBRANCH   1  21
TORSDOF 4
ENDMDL
