MODEL 1
REMARK VINA RESULT:    -8.171      0.000      0.000
REMARK INTER + INTRA:         -11.447
REMARK INTER:                 -10.559
REMARK INTRA:                  -0.888
REMARK UNBOUND:                -0.888
REMARK  5 active torsions:
REMARK  status: ('A' for Active; 'I' for Inactive)
REMARK    1  A    between atoms: C_6  and  C_8 
REMARK    2  A    between atoms: N_11  and  C_13 
REMARK    3  A    between atoms: C_13  and  C_14 
REMARK    4  A    between atoms: C_14  and  C_16 
REMARK    5  A    between atoms: C_18  and  N_22 
ROOT
ATOM      1  C   UNK d   1      44.217  12.919  45.756  0.00  0.00     0.061 A 
ATOM      2  N   UNK d   1      43.961  12.259  46.897  0.00  0.00    -0.335 N 
ATOM      3  C   UNK d   1      43.020  11.319  46.671  0.00  0.00     0.086 A 
ATOM      4  N   UNK d   1      42.675  11.379  45.373  0.00  0.00    -0.338 N 
ATOM      5  C   UNK d   1      43.396  12.362  44.763  0.00  0.00     0.123 A 
ATOM      6  C   UNK d   1      42.720  10.591  47.926  0.00  0.00     0.078 C 
ATOM      7  C   UNK d   1      44.056  10.711  48.614  0.00  0.00     0.028 C 
ATOM      8  C   UNK d   1      44.354  12.189  48.309  0.00  0.00     0.131 C 
ENDROOT
BRANCH   4   9
ATOM      9  C   UNK d   1      41.689  10.587  44.735  0.00  0.00     0.198 C 
BRANCH   9  10
ATOM     10  C   UNK d   1      41.993   9.583  43.756  0.00  0.00     0.113 C 
ATOM     11  O   UNK d   1      41.397   9.824  42.605  0.00  0.00    -0.194 OA
BRANCH  10  12
ATOM     12  C   UNK d   1      42.806   8.390  43.792  0.00  0.00     0.000 A 
ATOM     13  C   UNK d   1      43.982   8.218  43.114  0.00  0.00     0.050 A 
ATOM     14  C   UNK d   1      44.717   7.032  43.198  0.00  0.00     0.103 A 
ATOM     15  C   UNK d   1      44.271   6.006  43.967  0.00  0.00     0.036 A 
ATOM     16  C   UNK d   1      43.089   6.152  44.660  0.00  0.00     0.003 A 
ATOM     17  C   UNK d   1      42.362   7.308  44.586  0.00  0.00     0.014 A 
BRANCH  14  18
ATOM     18  N   UNK d   1      45.939   6.917  42.466  0.00  0.00    -0.116 N 
ATOM     19  O   UNK d   1      46.892   7.664  42.746  0.00  0.00    -0.532 OA
ATOM     20  O   UNK d   1      46.094   6.012  41.465  0.00  0.00    -0.532 OA
ENDBRANCH  14  18
ENDBRANCH  10  12
ENDBRANCH   9  10
ENDBRANCH   4   9
BRANCH   1  21
ATOM     21  C   UNK d   1      45.146  14.016  45.477  0.00  0.00    -0.006 A 
ATOM     22  C   UNK d   1      45.910  14.012  44.306  0.00  0.00     0.015 A 
ATOM     23  C   UNK d   1      46.780  15.021  43.986  0.00  0.00     0.026 A 
ATOM     24  C   UNK d   1      46.939  16.100  44.822  0.00  0.00     0.055 A 
ATOM     25  C   UNK d   1      46.205  16.136  45.977  0.00  0.00     0.056 A 
ATOM     26 Cl   UNK d   1      48.053  17.382  44.404  0.00  0.00    -0.083 Cl
ATOM     27 Cl   UNK d   1      46.353  17.467  47.081  0.00  0.00    -0.083 Cl
ATOM     28  C   UNK d   1      45.315  15.089  46.287  0.00  0.00     0.039 A 
ENDBRANCH   1  21
TORSDOF 5
ENDMDL
