/Users/jonathanwahrer/Desktop/Msc/3_Semester/Drug_Design_Praktikum/waehrer_HTS_screening/HTS_experiment/out/docking_results/vina_output/2qfa/1535_docked.pdbqt
 OpenBabel03162220483D

 28 31  0  0  1  0  0  0  0  0999 V2000
   44.2170   12.9190   45.7560 C   0  0  0  0  0  0  0  0  0  0  0  0
   43.9610   12.2590   46.8970 N   0  0  0  0  0  0  0  0  0  0  0  0
   43.0200   11.3190   46.6710 C   0  0  2  0  0  3  0  0  0  0  0  0
   42.6750   11.3790   45.3730 N   0  0  0  0  0  0  0  0  0  0  0  0
   43.3960   12.3620   44.7630 C   0  0  0  0  0  3  0  0  0  0  0  0
   42.7200   10.5910   47.9260 C   0  0  0  0  0  2  0  0  0  0  0  0
   44.0560   10.7110   48.6140 C   0  0  0  0  0  2  0  0  0  0  0  0
   44.3540   12.1890   48.3090 C   0  0  0  0  0  2  0  0  0  0  0  0
   41.6890   10.5870   44.7350 C   0  0  0  0  0  2  0  0  0  0  0  0
   41.9930    9.5830   43.7560 C   0  0  2  0  0  3  0  0  0  0  0  0
   41.3970    9.8240   42.6050 O   0  0  0  0  0  1  0  0  0  0  0  0
   42.8060    8.3900   43.7920 C   0  0  0  0  0  0  0  0  0  0  0  0
   43.9820    8.2180   43.1140 C   0  0  0  0  0  3  0  0  0  0  0  0
   44.7170    7.0320   43.1980 C   0  0  0  0  0  0  0  0  0  0  0  0
   44.2710    6.0060   43.9670 C   0  0  0  0  0  3  0  0  0  0  0  0
   43.0890    6.1520   44.6600 C   0  0  0  0  0  3  0  0  0  0  0  0
   42.3620    7.3080   44.5860 C   0  0  0  0  0  3  0  0  0  0  0  0
   45.9390    6.9170   42.4660 N   0  0  0  0  0  0  0  0  0  0  0  0
   46.8920    7.6640   42.7460 O   0  0  0  0  0  0  0  0  0  0  0  0
   46.0940    6.0120   41.4650 O   0  0  0  0  0  0  0  0  0  0  0  0
   45.1460   14.0160   45.4770 C   0  0  0  0  0  0  0  0  0  0  0  0
   45.9100   14.0120   44.3060 C   0  0  0  0  0  3  0  0  0  0  0  0
   46.7800   15.0210   43.9860 C   0  0  0  0  0  3  0  0  0  0  0  0
   46.9390   16.1000   44.8220 C   0  0  0  0  0  0  0  0  0  0  0  0
   46.2050   16.1360   45.9770 C   0  0  0  0  0  0  0  0  0  0  0  0
   48.0530   17.3820   44.4040 Cl  0  0  0  0  0  0  0  0  0  0  0  0
   46.3530   17.4670   47.0810 Cl  0  0  0  0  0  0  0  0  0  0  0  0
   45.3150   15.0890   46.2870 C   0  0  0  0  0  3  0  0  0  0  0  0
  1  2  1  0  0  0  0
  2  8  1  0  0  0  0
  3  2  1  0  0  0  0
  3  6  1  1  0  0  0
  4  3  1  0  0  0  0
  5  4  1  0  0  0  0
  5  1  2  0  0  0  0
  6  7  1  0  0  0  0
  8  7  1  0  0  0  0
  9  4  1  0  0  0  0
 10 11  1  1  0  0  0
 10 12  1  0  0  0  0
 10  9  1  0  0  0  0
 12 17  1  0  0  0  0
 13 14  1  0  0  0  0
 13 12  2  0  0  0  0
 14 15  2  0  0  0  0
 15 16  1  0  0  0  0
 17 16  2  0  0  0  0
 18 19  2  0  0  0  0
 18 14  1  0  0  0  0
 20 18  2  0  0  0  0
 21  1  1  0  0  0  0
 21 28  1  0  0  0  0
 22 21  2  0  0  0  0
 23 22  1  0  0  0  0
 23 24  2  0  0  0  0
 24 25  1  0  0  0  0
 25 28  2  0  0  0  0
 25 27  1  0  0  0  0
 26 24  1  0  0  0  0
M  END
>  <Pose>
1

>  <Score>
-8.171

$$$$
