MODEL 1
REMARK VINA RESULT:    -7.185      0.000      0.000
REMARK INTER + INTRA:          -9.204
REMARK INTER:                  -8.445
REMARK INTRA:                  -0.759
REMARK UNBOUND:                -0.759
REMARK  3 active torsions:
REMARK  status: ('A' for Active; 'I' for Inactive)
REMARK    1  A    between atoms: S_1  and  N_4 
REMARK    2  A    between atoms: S_1  and  C_19 
REMARK    3  A    between atoms: C_7  and  C_10 
REMARK       I    between atoms: C_10  and  N_12 
ROOT
ATOM      1  S   UNK d   1      44.280   7.447  44.313  0.00  0.00     0.262 S 
ATOM      2  O   UNK d   1      45.107   7.654  45.587  0.00  0.00    -0.200 OA
ATOM      3  O   UNK d   1      43.486   6.174  44.618  0.00  0.00    -0.200 OA
ENDROOT
BRANCH   1   4
ATOM      4  N   UNK d   1      45.319   7.169  43.058  0.00  0.00    -0.307 N 
ATOM      5  C   UNK d   1      45.258   6.065  42.216  0.00  0.00     0.136 C 
ATOM      6  C   UNK d   1      46.085   4.880  42.600  0.00  0.00     0.034 C 
ATOM      7  C   UNK d   1      47.221   5.340  43.510  0.00  0.00     0.081 C 
ATOM      8  C   UNK d   1      47.700   6.646  42.856  0.00  0.00     0.034 C 
ATOM      9  C   UNK d   1      46.667   7.688  43.255  0.00  0.00     0.136 C 
BRANCH   7  10
ATOM     10  C   UNK d   1      48.287   4.356  43.602  0.00  0.00     0.224 C 
ATOM     11  O   UNK d   1      48.481   3.560  42.647  0.00  0.00    -0.273 OA
ATOM     12  N   UNK d   1      49.110   4.271  44.730  0.00  0.00    -0.348 N 
ATOM     13  C   UNK d   1      50.219   3.316  44.839  0.00  0.00     0.156 C 
ATOM     14  C   UNK d   1      48.897   5.113  45.873  0.00  0.00     0.156 C 
ATOM     15  C   UNK d   1      50.714   3.400  46.267  0.00  0.00     0.291 C 
ATOM     16  N   UNK d   1      51.221   4.729  46.548  0.00  0.00     0.087 N 
ATOM     17  C   UNK d   1      50.192   5.738  46.362  0.00  0.00     0.291 C 
ATOM     18  C   UNK d   1      51.775   4.803  47.883  0.00  0.00     0.310 C 
ENDBRANCH   7  10
ENDBRANCH   1   4
BRANCH   1  19
ATOM     19  C   UNK d   1      43.208   8.814  44.228  0.00  0.00     0.104 A 
ATOM     20  C   UNK d   1      43.386   9.882  45.124  0.00  0.00     0.066 A 
ATOM     21  C   UNK d   1      42.552  10.969  45.151  0.00  0.00     0.097 A 
ATOM     22  C   UNK d   1      41.505  11.036  44.284  0.00  0.00     0.070 A 
ATOM     23  O   UNK d   1      42.762  12.015  46.060  0.00  0.00    -0.340 OA
ATOM     24  C   UNK d   1      41.282  10.024  43.386  0.00  0.00     0.058 A 
ATOM     25  N   UNK d   1      40.638  12.182  44.331  0.00  0.00    -0.323 N 
ATOM     26  C   UNK d   1      42.147   8.929  43.378  0.00  0.00     0.059 A 
ATOM     27 Cl   UNK d   1      41.861   7.701  42.156  0.00  0.00    -0.083 Cl
ATOM     28  C   UNK d   1      40.890  13.211  45.273  0.00  0.00     0.246 C 
ATOM     29  H   UNK d   1      39.836  12.243  43.672  0.00  0.00     0.169 HD
ATOM     30  O   UNK d   1      40.434  14.364  45.123  0.00  0.00    -0.271 OA
ATOM     31  C   UNK d   1      41.722  12.868  46.456  0.00  0.00     0.278 C 
ENDBRANCH   1  19
TORSDOF 3
ENDMDL
