MODEL 1
REMARK VINA RESULT:    -7.479      0.000      0.000
REMARK INTER + INTRA:         -10.547
REMARK INTER:                 -10.103
REMARK INTRA:                  -0.444
REMARK UNBOUND:                -0.444
REMARK  6 active torsions:
REMARK  status: ('A' for Active; 'I' for Inactive)
REMARK    1  A    between atoms: C_5  and  C_8 
REMARK    2  A    between atoms: N_9  and  C_26 
REMARK    3  A    between atoms: C_15  and  C_17 
REMARK    4  A    between atoms: C_20  and  O_23 
REMARK    5  A    between atoms: C_26  and  C_27 
REMARK    6  A    between atoms: C_27  and  N_28 
ROOT
ATOM      1  C   UNK d   1      41.280  10.912  45.285  0.00  0.00     0.161 C 
ATOM      2  N   UNK d   1      40.600  10.409  46.486  0.00  0.00    -0.331 N 
ATOM      3  C   UNK d   1      41.630   9.836  47.278  0.00  0.00     0.295 C 
ATOM      4  O   UNK d   1      41.642   9.722  48.515  0.00  0.00    -0.264 OA
ATOM      5  C   UNK d   1      42.670   9.409  46.347  0.00  0.00     0.250 C 
ATOM      6  O   UNK d   1      43.785   8.848  46.563  0.00  0.00    -0.282 OA
ATOM      7  C   UNK d   1      42.187   9.762  45.004  0.00  0.00     0.062 C 
ATOM      8  C   UNK d   1      42.529   9.187  43.868  0.00  0.00     0.130 C 
ATOM      9  O   UNK d   1      41.993   9.693  42.681  0.00  0.00    -0.190 OA
ENDROOT
BRANCH   1  10
ATOM     10  C   UNK d   1      42.052  12.100  45.725  0.00  0.00    -0.030 A 
ATOM     11  C   UNK d   1      43.269  12.419  45.162  0.00  0.00     0.011 A 
ATOM     12  C   UNK d   1      44.007  13.517  45.552  0.00  0.00     0.024 A 
ATOM     13  C   UNK d   1      43.542  14.358  46.546  0.00  0.00     0.034 A 
ATOM     14 Cl   UNK d   1      44.470  15.767  47.058  0.00  0.00    -0.084 Cl
ATOM     15  C   UNK d   1      42.332  14.059  47.121  0.00  0.00     0.024 A 
ATOM     16  C   UNK d   1      41.598  12.963  46.730  0.00  0.00     0.011 A 
ENDBRANCH   1  10
BRANCH   8  17
ATOM     17  C   UNK d   1      43.435   8.050  43.796  0.00  0.00     0.002 A 
ATOM     18  C   UNK d   1      44.784   8.197  43.519  0.00  0.00     0.024 A 
ATOM     19  C   UNK d   1      45.633   7.114  43.425  0.00  0.00    -0.028 A 
ATOM     20  C   UNK d   1      45.159   5.822  43.607  0.00  0.00     0.074 A 
ATOM     21  C   UNK d   1      47.068   7.319  43.128  0.00  0.00     0.051 C 
ATOM     22  C   UNK d   1      43.820   5.663  43.882  0.00  0.00     0.038 A 
ATOM     23  C   UNK d   1      42.969   6.768  43.974  0.00  0.00     0.017 A 
BRANCH  20  24
ATOM     24  O   UNK d   1      46.003   4.719  43.516  0.00  0.00    -0.355 OA
ATOM     25  C   UNK d   1      46.466   4.318  42.257  0.00  0.00     0.210 C 
ENDBRANCH  20  24
ENDBRANCH   8  17
BRANCH   2  26
ATOM     26  C   UNK d   1      39.171  10.492  46.790  0.00  0.00     0.155 C 
BRANCH  26  27
ATOM     27  C   UNK d   1      38.559  11.392  45.742  0.00  0.00     0.255 C 
BRANCH  27  28
ATOM     28  N   UNK d   1      37.408  12.104  46.229  0.00  0.00    -0.066 N 
ATOM     29  C   UNK d   1      36.640  12.633  45.150  0.00  0.00     0.261 C 
ATOM     30  C   UNK d   1      36.901  14.059  44.795  0.00  0.00     0.195 C 
ATOM     31  O   UNK d   1      37.255  14.866  45.842  0.00  0.00    -0.388 OA
ATOM     32  C   UNK d   1      38.315  14.367  46.587  0.00  0.00     0.195 C 
ATOM     33  C   UNK d   1      37.846  13.072  47.195  0.00  0.00     0.261 C 
ATOM     34  H   UNK d   1      36.811  11.376  46.715  0.00  0.00     0.280 HD
ENDBRANCH  27  28
ENDBRANCH  26  27
ENDBRANCH   2  26
TORSDOF 6
ENDMDL
