MODEL 1
REMARK VINA RESULT:    -6.633      0.000      0.000
REMARK INTER + INTRA:          -7.205
REMARK INTER:                  -7.021
REMARK INTRA:                  -0.184
REMARK UNBOUND:                -0.184
REMARK  1 active torsions:
REMARK  status: ('A' for Active; 'I' for Inactive)
REMARK       I    between atoms: N_10  and  C_13 
REMARK    1  A    between atoms: C_13  and  C_15 
ROOT
ATOM      1 Cl   UNK d   1      45.424   6.528  42.083  0.00  0.00    -0.083 Cl
ATOM      2  C   UNK d   1      44.298   7.185  43.262  0.00  0.00     0.050 A 
ATOM      3  C   UNK d   1      44.032   8.534  43.350  0.00  0.00     0.125 A 
ATOM      4  N   UNK d   1      43.157   9.042  44.267  0.00  0.00    -0.271 N 
ATOM      5  C   UNK d   1      42.508   8.244  45.134  0.00  0.00     0.137 A 
ATOM      6  N   UNK d   1      41.638   8.746  46.046  0.00  0.00    -0.234 NA
ATOM      7  C   UNK d   1      41.383  10.070  46.126  0.00  0.00     0.051 A 
ATOM      8  C   UNK d   1      42.024  10.908  45.261  0.00  0.00     0.053 A 
ATOM      9  C   UNK d   1      41.777  12.386  45.306  0.00  0.00     0.172 C 
ATOM     10  N   UNK d   1      40.411  12.524  45.839  0.00  0.00    -0.342 N 
ATOM     11  C   UNK d   1      40.248  12.002  47.167  0.00  0.00     0.132 C 
ATOM     12  C   UNK d   1      40.410  10.492  47.168  0.00  0.00     0.080 C 
ATOM     13  C   UNK d   1      39.455  13.124  45.025  0.00  0.00     0.274 C 
ATOM     14  O   UNK d   1      39.808  13.530  43.864  0.00  0.00    -0.266 OA
ATOM     15  C   UNK d   1      42.908  10.362  44.341  0.00  0.00     0.263 A 
ATOM     16  O   UNK d   1      43.498  11.120  43.547  0.00  0.00    -0.267 OA
ATOM     17  C   UNK d   1      42.769   6.885  45.052  0.00  0.00     0.053 A 
ATOM     18  C   UNK d   1      43.647   6.343  44.138  0.00  0.00     0.029 A 
ENDROOT
BRANCH  13  19
ATOM     19  C   UNK d   1      38.046  13.343  45.373  0.00  0.00     0.141 A 
ATOM     20  N   UNK d   1      37.548  14.560  45.609  0.00  0.00    -0.253 NA
ATOM     21  C   UNK d   1      36.264  14.751  45.926  0.00  0.00     0.136 A 
ATOM     22  C   UNK d   1      35.377  13.699  46.028  0.00  0.00     0.135 A 
ATOM     23  N   UNK d   1      35.895  12.482  45.788  0.00  0.00    -0.269 NA
ATOM     24  C   UNK d   1      37.172  12.266  45.471  0.00  0.00     0.153 A 
ENDBRANCH  13  19
TORSDOF 1
ENDMDL
