/Users/jonathanwahrer/Desktop/Msc/3_Semester/Drug_Design_Praktikum/waehrer_HTS_screening/HTS_experiment/out/docking_results/vina_output/2qfa/1548_docked.pdbqt
 OpenBabel03162220493D

 24 27  0  0  1  0  0  0  0  0999 V2000
   45.4240    6.5280   42.0830 Cl  0  0  0  0  0  0  0  0  0  0  0  0
   44.2980    7.1850   43.2620 C   0  0  0  0  0  0  0  0  0  0  0  0
   44.0320    8.5340   43.3500 C   0  0  0  0  0  2  0  0  0  0  0  0
   43.1570    9.0420   44.2670 N   0  0  0  0  0  0  0  0  0  0  0  0
   42.5080    8.2440   45.1340 C   0  0  0  0  0  0  0  0  0  0  0  0
   41.6380    8.7460   46.0460 N   0  0  0  0  0  0  0  0  0  0  0  0
   41.3830   10.0700   46.1260 C   0  0  0  0  0  0  0  0  0  0  0  0
   42.0240   10.9080   45.2610 C   0  0  1  0  0  3  0  0  0  0  0  0
   41.7770   12.3860   45.3060 C   0  0  0  0  0  2  0  0  0  0  0  0
   40.4110   12.5240   45.8390 N   0  0  0  0  0  0  0  0  0  0  0  0
   40.2480   12.0020   47.1670 C   0  0  0  0  0  2  0  0  0  0  0  0
   40.4100   10.4920   47.1680 C   0  0  0  0  0  2  0  0  0  0  0  0
   39.4550   13.1240   45.0250 C   0  0  0  0  0  0  0  0  0  0  0  0
   39.8080   13.5300   43.8640 O   0  0  0  0  0  0  0  0  0  0  0  0
   42.9080   10.3620   44.3410 C   0  0  0  0  0  0  0  0  0  0  0  0
   43.4980   11.1200   43.5470 O   0  0  0  0  0  0  0  0  0  0  0  0
   42.7690    6.8850   45.0520 C   0  0  0  0  0  3  0  0  0  0  0  0
   43.6470    6.3430   44.1380 C   0  0  0  0  0  3  0  0  0  0  0  0
   38.0460   13.3430   45.3730 C   0  0  0  0  0  0  0  0  0  0  0  0
   37.5480   14.5600   45.6090 N   0  0  0  0  0  0  0  0  0  0  0  0
   36.2640   14.7510   45.9260 C   0  0  0  0  0  3  0  0  0  0  0  0
   35.3770   13.6990   46.0280 C   0  0  0  0  0  3  0  0  0  0  0  0
   35.8950   12.4820   45.7880 N   0  0  0  0  0  0  0  0  0  0  0  0
   37.1720   12.2660   45.4710 C   0  0  0  0  0  3  0  0  0  0  0  0
  1  2  1  0  0  0  0
  2  3  1  0  0  0  0
  2 18  2  0  0  0  0
  3  4  1  0  0  0  0
  4 15  1  0  0  0  0
  4  5  1  0  0  0  0
  5  6  1  0  0  0  0
  6  7  2  0  0  0  0
  7 12  1  0  0  0  0
  8  9  1  1  0  0  0
  8  7  1  0  0  0  0
  9 10  1  0  0  0  0
 10 11  1  0  0  0  0
 11 12  1  0  0  0  0
 13 19  1  0  0  0  0
 13 10  1  0  0  0  0
 14 13  2  0  0  0  0
 15  8  1  0  0  0  0
 16 15  2  0  0  0  0
 17  5  2  0  0  0  0
 18 17  1  0  0  0  0
 19 24  2  0  0  0  0
 19 20  1  0  0  0  0
 20 21  2  0  0  0  0
 21 22  1  0  0  0  0
 23 22  2  0  0  0  0
 24 23  1  0  0  0  0
M  END
>  <Pose>
1

>  <Score>
-6.633

$$$$
