MODEL 1
REMARK VINA RESULT:    -6.783      0.000      0.000
REMARK INTER + INTRA:          -8.641
REMARK INTER:                  -7.774
REMARK INTRA:                  -0.866
REMARK UNBOUND:                -0.866
REMARK  3 active torsions:
REMARK  status: ('A' for Active; 'I' for Inactive)
REMARK    1  A    between atoms: C_3  and  O_25 
REMARK    2  A    between atoms: C_4  and  C_9 
REMARK    3  A    between atoms: C_11  and  C_22 
ROOT
ATOM      1  C   UNK d   1      41.557   8.853  45.662  0.00  0.00     0.272 C 
ATOM      2  N   UNK d   1      41.119   9.991  44.946  0.00  0.00    -0.047 N 
ATOM      3  C   UNK d   1      41.478  10.064  43.560  0.00  0.00     0.291 C 
ATOM      4  C   UNK d   1      43.002   9.906  43.429  0.00  0.00     0.086 C 
ATOM      5  C   UNK d   1      43.255   8.532  43.902  0.00  0.00    -0.018 A 
ATOM      6  C   UNK d   1      44.120   7.549  43.449  0.00  0.00    -0.001 A 
ATOM      7  C   UNK d   1      43.929   6.456  44.265  0.00  0.00     0.043 A 
ATOM      8  N   UNK d   1      42.991   6.739  45.182  0.00  0.00    -0.356 N 
ATOM      9  C   UNK d   1      42.569   8.027  44.962  0.00  0.00     0.052 A 
ATOM     10  C   UNK d   1      44.684   5.325  44.014  0.00  0.00     0.030 A 
ATOM     11  C   UNK d   1      45.583   5.341  42.977  0.00  0.00     0.002 A 
ATOM     12  C   UNK d   1      45.772   6.436  42.163  0.00  0.00     0.001 A 
ATOM     13  C   UNK d   1      45.018   7.582  42.404  0.00  0.00     0.014 A 
ATOM     14  H   UNK d   1      40.050  10.006  44.989  0.00  0.00     0.279 HD
ATOM     15  H   UNK d   1      41.404  10.907  45.374  0.00  0.00     0.279 HD
ATOM     16  H   UNK d   1      42.611   6.129  45.951  0.00  0.00     0.166 HD
ENDROOT
BRANCH   1  17
ATOM     17  C   UNK d   1      42.186   9.297  46.959  0.00  0.00     0.014 A 
ATOM     18  C   UNK d   1      42.218   8.477  48.073  0.00  0.00     0.091 A 
ATOM     19  C   UNK d   1      42.815   8.910  49.261  0.00  0.00     0.046 A 
ATOM     20 Br   UNK d   1      42.845   7.766  50.794  0.00  0.00    -0.048 Br
ATOM     21  C   UNK d   1      43.380  10.152  49.355  0.00  0.00     0.041 A 
ATOM     22  C   UNK d   1      43.351  10.969  48.249  0.00  0.00     0.013 A 
ATOM     23  C   UNK d   1      42.761  10.547  47.064  0.00  0.00     0.031 A 
ATOM     24 Br   UNK d   1      44.135  12.726  48.340  0.00  0.00    -0.051 Br
BRANCH  18  25
ATOM     25  O   UNK d   1      41.681   7.217  48.090  0.00  0.00    -0.359 OA
ATOM     26  H   UNK d   1      42.131   6.388  48.366  0.00  0.00     0.217 HD
ENDBRANCH  18  25
ENDBRANCH   1  17
BRANCH   3  27
ATOM     27  C   UNK d   1      41.033  11.355  42.995  0.00  0.00     0.205 C 
ATOM     28  O   UNK d   1      41.261  11.600  41.782  0.00  0.00    -0.646 OA
ATOM     29  O   UNK d   1      40.378  12.266  43.806  0.00  0.00    -0.646 OA
ENDBRANCH   3  27
TORSDOF 3
ENDMDL
