MODEL 1
REMARK VINA RESULT:    -7.759      0.000      0.000
REMARK INTER + INTRA:         -10.639
REMARK INTER:                 -10.026
REMARK INTRA:                  -0.612
REMARK UNBOUND:                -0.612
REMARK  5 active torsions:
REMARK  status: ('A' for Active; 'I' for Inactive)
REMARK    1  A    between atoms: C_7  and  C_11 
REMARK    2  A    between atoms: C_11  and  O_12 
REMARK    3  A    between atoms: O_12  and  C_13 
REMARK    4  A    between atoms: C_13  and  C_15 
REMARK    5  A    between atoms: C_15  and  N_16 
ROOT
ATOM      1  O   UNK d   1      45.231   6.887  44.259  0.00  0.00    -0.314 OA
ENDROOT
BRANCH   1   2
ATOM      2  C   UNK d   1      46.170   6.884  43.220  0.00  0.00     0.238 C 
BRANCH   2   3
ATOM      3  C   UNK d   1      47.176   5.804  43.357  0.00  0.00     0.066 A 
ATOM      4  N   UNK d   1      48.073   5.756  44.362  0.00  0.00    -0.233 NA
ATOM      5  C   UNK d   1      48.969   4.772  44.461  0.00  0.00     0.137 A 
ATOM      6  N   UNK d   1      49.051   3.750  43.572  0.00  0.00    -0.272 N 
ATOM      7  C   UNK d   1      49.863   4.794  45.530  0.00  0.00     0.052 A 
ATOM      8  C   UNK d   1      49.969   2.784  43.717  0.00  0.00     0.121 A 
ATOM      9  C   UNK d   1      48.160   3.769  42.547  0.00  0.00     0.255 A 
ATOM     10  C   UNK d   1      50.868   2.772  44.757  0.00  0.00     0.027 A 
ATOM     11 Br   UNK d   1      52.171   1.362  44.927  0.00  0.00    -0.050 Br
ATOM     12  C   UNK d   1      50.803   3.795  45.668  0.00  0.00     0.024 A 
ATOM     13  C   UNK d   1      47.229   4.782  42.433  0.00  0.00     0.104 A 
ATOM     14  O   UNK d   1      48.242   2.815  41.724  0.00  0.00    -0.268 OA
ENDBRANCH   2   3
ENDBRANCH   1   2
BRANCH   1  15
ATOM     15  C   UNK d   1      44.031   6.214  44.255  0.00  0.00     0.277 C 
ATOM     16  O   UNK d   1      44.052   5.051  43.759  0.00  0.00    -0.263 OA
BRANCH  15  17
ATOM     17  C   UNK d   1      42.776   6.801  44.795  0.00  0.00     0.245 C 
BRANCH  17  18
ATOM     18  N   UNK d   1      42.767   8.259  44.667  0.00  0.00    -0.278 N 
ATOM     19  C   UNK d   1      42.512   9.022  43.490  0.00  0.00     0.232 C 
ATOM     20  O   UNK d   1      42.075   8.580  42.398  0.00  0.00    -0.273 OA
ATOM     21  C   UNK d   1      42.854  10.433  43.781  0.00  0.00     0.091 C 
ATOM     22  C   UNK d   1      42.525  10.496  45.255  0.00  0.00     0.091 C 
ATOM     23  C   UNK d   1      42.157  11.425  42.943  0.00  0.00     0.015 C 
ATOM     24  C   UNK d   1      41.034  10.568  45.523  0.00  0.00     0.015 C 
ATOM     25  C   UNK d   1      43.026   9.179  45.713  0.00  0.00     0.232 C 
ATOM     26  C   UNK d   1      40.217  10.746  44.271  0.00  0.00     0.001 C 
ATOM     27  C   UNK d   1      40.796  11.820  43.394  0.00  0.00     0.001 C 
ATOM     28  O   UNK d   1      43.583   8.903  46.821  0.00  0.00    -0.273 OA
ENDBRANCH  17  18
ENDBRANCH  15  17
ENDBRANCH   1  15
TORSDOF 5
ENDMDL
