MODEL 1
REMARK VINA RESULT:    -6.536      0.000      0.000
REMARK INTER + INTRA:          -9.252
REMARK INTER:                  -8.064
REMARK INTRA:                  -1.188
REMARK UNBOUND:                -1.188
REMARK  4 active torsions:
REMARK  status: ('A' for Active; 'I' for Inactive)
REMARK    1  A    between atoms: C_3  and  N_8 
REMARK       I    between atoms: N_11  and  C_14 
REMARK    2  A    between atoms: C_14  and  C_16 
REMARK    3  A    between atoms: C_16  and  N_17 
REMARK    4  A    between atoms: C_19  and  C_23 
REMARK       I    between atoms: C_23  and  N_25 
ROOT
ATOM      1  N   UNK d   1      44.830  15.803  47.497  0.00  0.00    -0.376 N 
ATOM      2  C   UNK d   1      43.512  16.391  47.600  0.00  0.00     0.143 C 
ATOM      3  C   UNK d   1      42.879  15.933  48.912  0.00  0.00     0.145 C 
ATOM      4  N   UNK d   1      43.185  14.528  49.130  0.00  0.00    -0.348 N 
ATOM      5  C   UNK d   1      44.571  14.124  49.170  0.00  0.00     0.145 C 
ATOM      6  C   UNK d   1      45.414  15.304  48.752  0.00  0.00     0.143 C 
ATOM      7  C   UNK d   1      42.159  13.559  49.304  0.00  0.00     0.239 C 
ATOM      8  O   UNK d   1      40.951  13.950  49.268  0.00  0.00    -0.271 OA
ENDROOT
BRANCH   7   9
ATOM      9  C   UNK d   1      42.407  12.129  49.525  0.00  0.00     0.254 C 
BRANCH   9  10
ATOM     10  N   UNK d   1      41.834  11.272  48.489  0.00  0.00    -0.265 N 
ATOM     11  N   UNK d   1      41.806  11.444  47.182  0.00  0.00    -0.167 NA
ATOM     12  C   UNK d   1      41.194  10.447  46.540  0.00  0.00     0.146 A 
ATOM     13  C   UNK d   1      40.791   9.551  47.513  0.00  0.00     0.065 A 
ATOM     14  C   UNK d   1      41.201  10.088  48.713  0.00  0.00     0.029 A 
ATOM     15  C   UNK d   1      40.981   9.465  50.035  0.00  0.00     0.070 C 
BRANCH  12  16
ATOM     16  C   UNK d   1      40.991  10.325  45.085  0.00  0.00     0.274 C 
ATOM     17  O   UNK d   1      39.930  10.724  44.564  0.00  0.00    -0.266 OA
ATOM     18  N   UNK d   1      42.015   9.753  44.299  0.00  0.00    -0.343 N 
ATOM     19  C   UNK d   1      43.260   9.273  44.829  0.00  0.00     0.152 C 
ATOM     20  C   UNK d   1      41.826   9.627  42.851  0.00  0.00     0.152 C 
ATOM     21  C   UNK d   1      43.998   8.606  43.661  0.00  0.00     0.187 C 
ATOM     22  O   UNK d   1      43.204   7.664  43.045  0.00  0.00    -0.388 OA
ATOM     23  C   UNK d   1      42.056   8.175  42.486  0.00  0.00     0.187 C 
ENDBRANCH  12  16
ENDBRANCH   9  10
ENDBRANCH   7   9
BRANCH   1  24
ATOM     24  C   UNK d   1      45.578  15.670  46.326  0.00  0.00     0.052 A 
ATOM     25  C   UNK d   1      45.437  14.643  45.418  0.00  0.00     0.060 A 
ATOM     26 Cl   UNK d   1      44.263  13.415  45.726  0.00  0.00    -0.082 Cl
ATOM     27  C   UNK d   1      46.197  14.549  44.268  0.00  0.00     0.026 A 
ATOM     28  C   UNK d   1      47.132  15.499  43.997  0.00  0.00     0.002 A 
ATOM     29  C   UNK d   1      47.307  16.539  44.871  0.00  0.00     0.002 A 
ATOM     30  C   UNK d   1      46.544  16.626  46.018  0.00  0.00     0.031 A 
ENDBRANCH   1  24
TORSDOF 4
ENDMDL
