MODEL 1
REMARK VINA RESULT:    -7.453      0.000      0.000
REMARK INTER + INTRA:          -9.883
REMARK INTER:                  -9.414
REMARK INTRA:                  -0.469
REMARK UNBOUND:                -0.469
REMARK  5 active torsions:
REMARK  status: ('A' for Active; 'I' for Inactive)
REMARK    1  A    between atoms: C_7  and  C_11 
REMARK    2  A    between atoms: C_11  and  N_12 
REMARK    3  A    between atoms: C_17  and  C_21 
REMARK    4  A    between atoms: C_21  and  O_22 
REMARK    5  A    between atoms: C_21  and  C_23 
ROOT
ATOM      1  N   UNK d   1      45.623   6.377  42.736  0.00  0.00    -0.400 N 
ATOM      2  C   UNK d   1      46.495   7.242  43.414  0.00  0.00     0.139 C 
ATOM      3  C   UNK d   1      47.579   6.588  44.204  0.00  0.00     0.170 C 
ATOM      4  N   UNK d   1      47.955   5.294  43.653  0.00  0.00    -0.270 N 
ATOM      5  N   UNK d   1      48.931   4.504  44.099  0.00  0.00    -0.174 NA
ATOM      6  C   UNK d   1      48.983   3.401  43.347  0.00  0.00     0.085 A 
ATOM      7  C   UNK d   1      47.998   3.516  42.398  0.00  0.00     0.060 A 
ATOM      8  C   UNK d   1      47.341   4.734  42.600  0.00  0.00     0.050 A 
ATOM      9  C   UNK d   1      46.212   5.394  41.898  0.00  0.00     0.176 C 
ENDROOT
BRANCH   1  10
ATOM     10  C   UNK d   1      44.391   6.062  43.330  0.00  0.00     0.177 C 
BRANCH  10  11
ATOM     11  C   UNK d   1      43.580   7.195  43.796  0.00  0.00     0.059 A 
ATOM     12  N   UNK d   1      43.016   8.107  42.984  0.00  0.00    -0.233 NA
ATOM     13  C   UNK d   1      42.280   9.134  43.448  0.00  0.00     0.137 A 
ATOM     14  N   UNK d   1      42.052   9.326  44.757  0.00  0.00    -0.272 N 
ATOM     15  C   UNK d   1      41.749  10.012  42.498  0.00  0.00     0.053 A 
ATOM     16  C   UNK d   1      41.308  10.364  45.216  0.00  0.00     0.125 A 
ATOM     17  C   UNK d   1      42.593   8.443  45.620  0.00  0.00     0.255 A 
ATOM     18  C   UNK d   1      40.783  11.232  44.285  0.00  0.00     0.050 A 
ATOM     19 Cl   UNK d   1      39.818  12.577  44.875  0.00  0.00    -0.083 Cl
ATOM     20  C   UNK d   1      40.992  11.072  42.931  0.00  0.00     0.029 A 
ATOM     21  C   UNK d   1      43.346   7.392  45.146  0.00  0.00     0.103 A 
ATOM     22  O   UNK d   1      42.403   8.584  46.868  0.00  0.00    -0.268 OA
ENDBRANCH  10  11
ENDBRANCH   1  10
BRANCH   6  23
ATOM     23  C   UNK d   1      49.938   2.262  43.516  0.00  0.00     0.171 C 
BRANCH  23  24
ATOM     24  O   UNK d   1      49.549   1.245  42.629  0.00  0.00    -0.389 OA
ATOM     25  H   UNK d   1      50.328   0.657  42.404  0.00  0.00     0.210 HD
ENDBRANCH  23  24
BRANCH  23  26
ATOM     26  C   UNK d   1      51.337   2.684  43.074  0.00  0.00     0.034 C 
ATOM     27  C   UNK d   1      51.898   1.602  42.164  0.00  0.00     0.008 C 
ENDBRANCH  23  26
ENDBRANCH   6  23
TORSDOF 5
ENDMDL
