MODEL 1
REMARK VINA RESULT:    -8.203      0.000      0.000
REMARK INTER + INTRA:         -10.274
REMARK INTER:                  -9.642
REMARK INTRA:                  -0.632
REMARK UNBOUND:                -0.632
REMARK  3 active torsions:
REMARK  status: ('A' for Active; 'I' for Inactive)
REMARK    1  A    between atoms: C_5  and  C_8 
REMARK       I    between atoms: C_8  and  N_10 
REMARK    2  A    between atoms: C_18  and  C_22 
REMARK    3  A    between atoms: C_22  and  C_23 
ROOT
ATOM      1  C   UNK d   1      41.940  13.279  45.523  0.00  0.00     0.187 C 
ATOM      2  O   UNK d   1      40.841  13.933  45.180  0.00  0.00    -0.171 OA
ATOM      3  N   UNK d   1      41.909  11.890  45.316  0.00  0.00    -0.355 N 
ATOM      4  C   UNK d   1      42.965  10.999  45.640  0.00  0.00     0.160 C 
ATOM      5  C   UNK d   1      42.465   9.554  45.475  0.00  0.00     0.197 C 
ATOM      6  N   UNK d   1      42.041   9.447  44.103  0.00  0.00    -0.334 N 
ATOM      7  C   UNK d   1      40.988  10.305  43.672  0.00  0.00     0.147 C 
ATOM      8  C   UNK d   1      40.685  11.367  44.709  0.00  0.00     0.145 C 
ATOM      9  C   UNK d   1      42.649   8.531  43.228  0.00  0.00     0.243 C 
ATOM     10  O   UNK d   1      42.038   8.184  42.201  0.00  0.00    -0.271 OA
ATOM     11  C   UNK d   1      43.992   8.012  43.558  0.00  0.00     0.182 C 
ATOM     12  N   UNK d   1      43.960   7.624  44.938  0.00  0.00    -0.346 N 
ATOM     13  C   UNK d   1      43.463   8.563  45.874  0.00  0.00     0.243 C 
ATOM     14  O   UNK d   1      43.863   8.575  47.081  0.00  0.00    -0.271 OA
ATOM     15  H   UNK d   1      44.289   6.684  45.269  0.00  0.00     0.163 HD
ENDROOT
BRANCH   1  16
ATOM     16  C   UNK d   1      42.954  14.150  46.050  0.00  0.00     0.018 A 
ATOM     17  C   UNK d   1      44.300  14.125  45.781  0.00  0.00     0.017 A 
ATOM     18  C   UNK d   1      45.232  14.987  46.361  0.00  0.00     0.025 A 
ATOM     19  C   UNK d   1      44.814  15.923  47.251  0.00  0.00     0.034 A 
ATOM     20 Cl   UNK d   1      45.964  17.035  48.010  0.00  0.00    -0.084 Cl
ATOM     21  C   UNK d   1      43.482  16.002  47.563  0.00  0.00     0.025 A 
ATOM     22  C   UNK d   1      42.580  15.139  46.976  0.00  0.00     0.017 A 
ENDBRANCH   1  16
BRANCH  11  23
ATOM     23  C   UNK d   1      44.486   6.975  42.623  0.00  0.00     0.095 C 
BRANCH  23  24
ATOM     24  C   UNK d   1      45.718   6.365  43.150  0.00  0.00     0.053 A 
ATOM     25  N   UNK d   1      46.777   6.964  43.699  0.00  0.00    -0.247 NA
ATOM     26  C   UNK d   1      47.697   6.018  44.050  0.00  0.00     0.207 A 
ATOM     27  N   UNK d   1      47.220   4.816  43.721  0.00  0.00    -0.359 N 
ATOM     28  C   UNK d   1      46.015   5.002  43.171  0.00  0.00     0.116 A 
ATOM     29  H   UNK d   1      47.686   3.916  43.861  0.00  0.00     0.166 HD
ENDBRANCH  23  24
ENDBRANCH  11  23
TORSDOF 3
ENDMDL
