/Users/jonathanwahrer/Desktop/Msc/3_Semester/Drug_Design_Praktikum/waehrer_HTS_screening/HTS_experiment/out/docking_results/vina_output/2qfa/1591_docked.pdbqt
 OpenBabel03162220513D

 26 29  0  0  0  0  0  0  0  0999 V2000
   42.2450    6.8850   44.5060 Cl  0  0  0  0  0  0  0  0  0  0  0  0
   43.8180    7.1910   43.8030 C   0  0  0  0  0  0  0  0  0  0  0  0
   44.1400    8.4400   43.3520 C   0  0  0  0  0  0  0  0  0  0  0  0
   45.4170    8.5630   42.7980 C   0  0  0  0  0  3  0  0  0  0  0  0
   46.2420    7.5070   42.7310 N   0  0  0  0  0  0  0  0  0  0  0  0
   45.9530    6.2990   43.1580 N   0  0  0  0  0  0  0  0  0  0  0  0
   44.7380    6.1340   43.6980 C   0  0  0  0  0  0  0  0  0  0  0  0
   44.3680    5.0150   44.1370 O   0  0  0  0  0  0  0  0  0  0  0  0
   43.2710    9.5530   43.4480 N   0  0  0  0  0  0  0  0  0  0  0  0
   43.6290   10.7740   44.1500 C   0  0  0  0  0  2  0  0  0  0  0  0
   42.7250   11.0230   45.3300 C   0  0  0  0  0  2  0  0  0  0  0  0
   41.3880   10.6780   44.9100 N   0  0  0  0  0  0  0  0  0  0  0  0
   41.0980   10.6990   43.5000 C   0  0  0  0  0  2  0  0  0  0  0  0
   41.9310    9.5600   42.8720 C   0  0  0  0  0  2  0  0  0  0  0  0
   40.3900   10.3310   45.8510 C   0  0  0  0  0  0  0  0  0  0  0  0
   39.0560   10.6080   45.7830 N   0  0  0  0  0  0  0  0  0  0  0  0
   38.4550   10.1180   46.8490 N   0  0  0  0  0  0  0  0  0  0  0  0
   39.3770    9.5310   47.6010 C   0  0  0  0  0  0  0  0  0  0  0  0
   40.5220    9.6710   46.9860 O   0  0  0  0  0  0  0  0  0  0  0  0
   39.2120    8.8260   48.9130 C   0  0  0  0  0  1  0  0  0  0  0  0
   46.8890    5.2310   43.0490 C   0  0  0  0  0  0  0  0  0  0  0  0
   46.8250    4.2830   42.0480 C   0  0  0  0  0  3  0  0  0  0  0  0
   47.7380    3.2540   41.9510 C   0  0  0  0  0  3  0  0  0  0  0  0
   48.7620    3.1350   42.8680 C   0  0  0  0  0  3  0  0  0  0  0  0
   48.8320    4.0800   43.8700 C   0  0  0  0  0  3  0  0  0  0  0  0
   47.9150    5.1100   43.9640 C   0  0  0  0  0  3  0  0  0  0  0  0
  2  1  1  0  0  0  0
  3  9  1  0  0  0  0
  3  2  2  0  0  0  0
  4  3  1  0  0  0  0
  5  4  2  0  0  0  0
  5  6  1  0  0  0  0
  6  7  1  0  0  0  0
  7  2  1  0  0  0  0
  7  8  2  0  0  0  0
  9 10  1  0  0  0  0
 10 11  1  0  0  0  0
 12 11  1  0  0  0  0
 12 15  1  0  0  0  0
 13 12  1  0  0  0  0
 14  9  1  0  0  0  0
 14 13  1  0  0  0  0
 15 19  1  0  0  0  0
 16 15  2  0  0  0  0
 16 17  1  0  0  0  0
 17 18  2  0  0  0  0
 18 20  1  0  0  0  0
 19 18  1  0  0  0  0
 21  6  1  0  0  0  0
 21 26  1  0  0  0  0
 22 21  2  0  0  0  0
 23 22  1  0  0  0  0
 23 24  2  0  0  0  0
 24 25  1  0  0  0  0
 25 26  2  0  0  0  0
M  END
>  <Pose>
1

>  <Score>
-7.536

$$$$
