MODEL 1
REMARK VINA RESULT:    -7.536      0.000      0.000
REMARK INTER + INTRA:          -9.266
REMARK INTER:                  -8.857
REMARK INTRA:                  -0.409
REMARK UNBOUND:                -0.409
REMARK  3 active torsions:
REMARK  status: ('A' for Active; 'I' for Inactive)
REMARK    1  A    between atoms: C_3  and  N_15 
REMARK    2  A    between atoms: N_6  and  C_9 
REMARK    3  A    between atoms: N_18  and  C_21 
ROOT
ATOM      1 Cl   UNK d   1      42.245   6.885  44.506  0.00  0.00    -0.076 Cl
ATOM      2  C   UNK d   1      43.818   7.191  43.803  0.00  0.00     0.131 A 
ATOM      3  C   UNK d   1      44.140   8.440  43.352  0.00  0.00     0.077 A 
ATOM      4  C   UNK d   1      45.417   8.563  42.798  0.00  0.00     0.170 A 
ATOM      5  N   UNK d   1      46.242   7.507  42.731  0.00  0.00    -0.174 NA
ATOM      6  N   UNK d   1      45.953   6.299  43.158  0.00  0.00    -0.197 N 
ATOM      7  C   UNK d   1      44.738   6.134  43.698  0.00  0.00     0.292 A 
ATOM      8  O   UNK d   1      44.368   5.015  44.137  0.00  0.00    -0.264 OA
ENDROOT
BRANCH   3   9
ATOM      9  N   UNK d   1      43.271   9.553  43.448  0.00  0.00    -0.375 N 
ATOM     10  C   UNK d   1      43.629  10.774  44.150  0.00  0.00     0.143 C 
ATOM     11  C   UNK d   1      42.725  11.023  45.330  0.00  0.00     0.146 C 
ATOM     12  N   UNK d   1      41.388  10.678  44.910  0.00  0.00    -0.341 N 
ATOM     13  C   UNK d   1      41.098  10.699  43.500  0.00  0.00     0.146 C 
ATOM     14  C   UNK d   1      41.931   9.560  42.872  0.00  0.00     0.143 C 
BRANCH  12  15
ATOM     15  C   UNK d   1      40.390  10.331  45.851  0.00  0.00     0.270 A 
ATOM     16  N   UNK d   1      39.056  10.608  45.783  0.00  0.00    -0.103 NA
ATOM     17  N   UNK d   1      38.455  10.118  46.849  0.00  0.00    -0.126 NA
ATOM     18  C   UNK d   1      39.377   9.531  47.601  0.00  0.00     0.167 A 
ATOM     19  O   UNK d   1      40.522   9.671  46.986  0.00  0.00    -0.260 OA
ATOM     20  C   UNK d   1      39.212   8.826  48.913  0.00  0.00     0.102 C 
ENDBRANCH  12  15
ENDBRANCH   3   9
BRANCH   6  21
ATOM     21  C   UNK d   1      46.889   5.231  43.049  0.00  0.00     0.062 A 
ATOM     22  C   UNK d   1      46.825   4.283  42.048  0.00  0.00     0.032 A 
ATOM     23  C   UNK d   1      47.738   3.254  41.951  0.00  0.00     0.002 A 
ATOM     24  C   UNK d   1      48.762   3.135  42.868  0.00  0.00     0.000 A 
ATOM     25  C   UNK d   1      48.832   4.080  43.870  0.00  0.00     0.002 A 
ATOM     26  C   UNK d   1      47.915   5.110  43.964  0.00  0.00     0.032 A 
ENDBRANCH   6  21
TORSDOF 3
ENDMDL
