MODEL 1
REMARK VINA RESULT:    -7.612      0.000      0.000
REMARK INTER + INTRA:          -9.673
REMARK INTER:                  -9.169
REMARK INTRA:                  -0.504
REMARK UNBOUND:                -0.504
REMARK  4 active torsions:
REMARK  status: ('A' for Active; 'I' for Inactive)
REMARK    1  A    between atoms: C_7  and  C_9 
REMARK       I    between atoms: C_9  and  N_11 
REMARK    2  A    between atoms: N_17  and  C_20 
REMARK    3  A    between atoms: C_20  and  C_21 
REMARK    4  A    between atoms: C_21  and  O_22 
ROOT
ATOM      1  C   UNK d   1      42.223   8.537  45.740  0.00  0.00     0.274 C 
ATOM      2  O   UNK d   1      41.998   7.703  46.692  0.00  0.00    -0.266 OA
ATOM      3  N   UNK d   1      42.630   8.001  44.533  0.00  0.00    -0.341 N 
ATOM      4  C   UNK d   1      42.918   8.788  43.358  0.00  0.00     0.131 C 
ATOM      5  C   UNK d   1      44.397   8.763  43.039  0.00  0.00     0.066 C 
ATOM      6  C   UNK d   1      44.948   7.398  43.338  0.00  0.00     0.039 A 
ATOM      7  C   UNK d   1      44.244   6.384  43.928  0.00  0.00     0.056 A 
ATOM      8  N   UNK d   1      45.110   5.341  44.009  0.00  0.00    -0.297 N 
ATOM      9  N   UNK d   1      46.281   5.664  43.509  0.00  0.00    -0.255 N 
ATOM     10  C   UNK d   1      46.245   6.930  43.075  0.00  0.00     0.270 A 
ATOM     11  O   UNK d   1      47.177   7.604  42.530  0.00  0.00    -0.266 OA
ATOM     12  C   UNK d   1      42.820   6.543  44.341  0.00  0.00     0.185 C 
ATOM     13  H   UNK d   1      44.830   4.420  44.426  0.00  0.00     0.187 HD
ENDROOT
BRANCH   1  14
ATOM     14  C   UNK d   1      42.027   9.945  46.038  0.00  0.00     0.142 A 
ATOM     15  N   UNK d   1      40.892  10.645  46.052  0.00  0.00    -0.224 NA
ATOM     16  C   UNK d   1      41.162  11.919  46.381  0.00  0.00     0.134 A 
ATOM     17  N   UNK d   1      42.478  12.042  46.580  0.00  0.00    -0.313 N 
ATOM     18  C   UNK d   1      40.273  13.000  46.515  0.00  0.00     0.052 A 
ATOM     19  C   UNK d   1      42.994  13.254  46.927  0.00  0.00     0.122 A 
ATOM     20  C   UNK d   1      43.048  10.846  46.379  0.00  0.00     0.135 A 
ATOM     21  C   UNK d   1      42.147  14.330  47.065  0.00  0.00     0.050 A 
ATOM     22 Cl   UNK d   1      42.765  15.910  47.509  0.00  0.00    -0.083 Cl
ATOM     23  C   UNK d   1      40.783  14.213  46.861  0.00  0.00     0.029 A 
ENDBRANCH   1  14
BRANCH   9  24
ATOM     24  C   UNK d   1      47.481   4.821  43.410  0.00  0.00     0.178 C 
BRANCH  24  25
ATOM     25  C   UNK d   1      47.440   3.974  42.160  0.00  0.00     0.186 C 
BRANCH  25  26
ATOM     26  O   UNK d   1      47.664   4.721  41.009  0.00  0.00    -0.399 OA
ATOM     27  H   UNK d   1      48.626   4.695  40.726  0.00  0.00     0.209 HD
ENDBRANCH  25  26
ENDBRANCH  24  25
ENDBRANCH   9  24
TORSDOF 4
ENDMDL
