/Users/jonathanwahrer/Desktop/Msc/3_Semester/Drug_Design_Praktikum/waehrer_HTS_screening/HTS_experiment/out/docking_results/vina_output/2qfa/1594_docked.pdbqt
 OpenBabel03162220513D

 27 30  0  0  0  0  0  0  0  0999 V2000
   42.2230    8.5370   45.7400 C   0  0  0  0  0  0  0  0  0  0  0  0
   41.9980    7.7030   46.6920 O   0  0  0  0  0  0  0  0  0  0  0  0
   42.6300    8.0010   44.5330 N   0  0  0  0  0  0  0  0  0  0  0  0
   42.9180    8.7880   43.3580 C   0  0  0  0  0  2  0  0  0  0  0  0
   44.3970    8.7630   43.0390 C   0  0  0  0  0  2  0  0  0  0  0  0
   44.9480    7.3980   43.3380 C   0  0  0  0  0  0  0  0  0  0  0  0
   44.2440    6.3840   43.9280 C   0  0  0  0  0  0  0  0  0  0  0  0
   45.1100    5.3410   44.0090 N   0  0  0  0  0  0  0  0  0  0  0  0
   46.2810    5.6640   43.5090 N   0  0  0  0  0  0  0  0  0  0  0  0
   46.2450    6.9300   43.0750 C   0  0  0  0  0  0  0  0  0  0  0  0
   47.1770    7.6040   42.5300 O   0  0  0  0  0  0  0  0  0  0  0  0
   42.8200    6.5430   44.3410 C   0  0  0  0  0  2  0  0  0  0  0  0
   44.8300    4.4200   44.4260 H   0  0  0  0  0  0  0  0  0  0  0  0
   42.0270    9.9450   46.0380 C   0  0  0  0  0  0  0  0  0  0  0  0
   40.8920   10.6450   46.0520 N   0  0  0  0  0  0  0  0  0  0  0  0
   41.1620   11.9190   46.3810 C   0  0  0  0  0  0  0  0  0  0  0  0
   42.4780   12.0420   46.5800 N   0  0  0  0  0  0  0  0  0  0  0  0
   40.2730   13.0000   46.5150 C   0  0  0  0  0  3  0  0  0  0  0  0
   42.9940   13.2540   46.9270 C   0  0  0  0  0  3  0  0  0  0  0  0
   43.0480   10.8460   46.3790 C   0  0  0  0  0  3  0  0  0  0  0  0
   42.1470   14.3300   47.0650 C   0  0  0  0  0  0  0  0  0  0  0  0
   42.7650   15.9100   47.5090 Cl  0  0  0  0  0  0  0  0  0  0  0  0
   40.7830   14.2130   46.8610 C   0  0  0  0  0  3  0  0  0  0  0  0
   47.4810    4.8210   43.4100 C   0  0  0  0  0  2  0  0  0  0  0  0
   47.4400    3.9740   42.1600 C   0  0  0  0  0  2  0  0  0  0  0  0
   47.6640    4.7210   41.0090 O   0  0  0  0  0  0  0  0  0  0  0  0
   48.6260    4.6950   40.7260 H   0  0  0  0  0  0  0  0  0  0  0  0
  1 14  1  0  0  0  0
  1  2  2  0  0  0  0
  3  1  1  0  0  0  0
  4  3  1  0  0  0  0
  5  6  1  0  0  0  0
  5  4  1  0  0  0  0
  6  7  2  0  0  0  0
  7  8  1  0  0  0  0
  7 12  1  0  0  0  0
  8 13  1  0  0  0  0
  9  8  1  0  0  0  0
 10  6  1  0  0  0  0
 10  9  1  0  0  0  0
 11 10  2  0  0  0  0
 12  3  1  0  0  0  0
 14 15  1  0  0  0  0
 14 20  2  0  0  0  0
 15 16  2  0  0  0  0
 16 18  1  0  0  0  0
 16 17  1  0  0  0  0
 17 19  1  0  0  0  0
 18 23  2  0  0  0  0
 19 21  2  0  0  0  0
 20 17  1  0  0  0  0
 21 22  1  0  0  0  0
 23 21  1  0  0  0  0
 24  9  1  0  0  0  0
 25 24  1  0  0  0  0
 26 25  1  0  0  0  0
 27 26  1  0  0  0  0
M  END
>  <Pose>
1

>  <Score>
-7.612

$$$$
