/Users/jonathanwahrer/Desktop/Msc/3_Semester/Drug_Design_Praktikum/waehrer_HTS_screening/HTS_experiment/out/docking_results/vina_output/2qfa/1609_docked.pdbqt
 OpenBabel03162220513D

 26 29  0  0  1  0  0  0  0  0999 V2000
   45.6010    6.5830   43.2420 N   0  0  0  0  0  0  0  0  0  0  0  0
   46.8670    6.1100   42.7500 C   0  0  2  0  0  3  0  0  0  0  0  0
   46.5560    4.6540   42.4680 C   0  0  2  0  0  3  0  0  0  0  0  0
   45.8050    4.3160   43.6270 O   0  0  0  0  0  0  0  0  0  0  0  0
   44.9820    5.4430   43.8280 C   0  0  0  0  0  0  0  0  0  0  0  0
   43.8710    5.3910   44.4430 O   0  0  0  0  0  0  0  0  0  0  0  0
   47.9360    4.1050   42.4490 C   0  0  0  0  0  2  0  0  0  0  0  0
   48.4680    4.6380   43.7240 N   0  0  0  0  0  0  0  0  0  0  0  0
   47.8690    5.9240   43.9040 C   0  0  0  0  0  2  0  0  0  0  0  0
   49.3740    3.8940   44.4850 C   0  0  0  0  0  0  0  0  0  0  0  0
   49.7500    2.7200   44.0750 O   0  0  0  0  0  0  0  0  0  0  0  0
   44.9940    7.8940   43.2090 C   0  0  0  0  0  2  0  0  0  0  0  0
   43.5200    7.8700   42.9090 C   0  0  0  0  0  2  0  0  0  0  0  0
   42.8780    9.1830   43.1540 C   0  0  0  0  0  0  0  0  0  0  0  0
   43.5160   10.1590   43.9190 C   0  0  0  0  0  3  0  0  0  0  0  0
   42.9320   11.3810   44.1520 C   0  0  0  0  0  0  0  0  0  0  0  0
   43.7790   12.5840   45.1270 Cl  0  0  0  0  0  0  0  0  0  0  0  0
   41.6920   11.7050   43.6460 C   0  0  0  0  0  3  0  0  0  0  0  0
   41.0560   10.7440   42.8890 C   0  0  0  0  0  3  0  0  0  0  0  0
   41.6360    9.5120   42.6480 C   0  0  0  0  0  3  0  0  0  0  0  0
   49.9750    4.2980   45.7430 C   0  0  0  0  0  0  0  0  0  0  0  0
   51.2700    4.6570   45.9530 N   0  0  0  0  0  0  0  0  0  0  0  0
   51.4230    4.9630   47.2390 C   0  0  0  0  0  3  0  0  0  0  0  0
   52.2890    4.6910   44.9370 C   0  0  0  0  0  1  0  0  0  0  0  0
   50.2530    4.8090   47.8620 N   0  0  0  0  0  0  0  0  0  0  0  0
   49.3460    4.3980   46.9480 C   0  0  0  0  0  3  0  0  0  0  0  0
  1  5  1  0  0  0  0
  2  1  1  0  0  0  0
  2  9  1  1  0  0  0
  3  7  1  1  0  0  0
  3  2  1  0  0  0  0
  3  4  1  0  0  0  0
  4  5  1  0  0  0  0
  5  6  2  0  0  0  0
  7  8  1  0  0  0  0
  8  9  1  0  0  0  0
  8 10  1  0  0  0  0
 10 21  1  0  0  0  0
 11 10  2  0  0  0  0
 12  1  1  0  0  0  0
 13 14  1  0  0  0  0
 13 12  1  0  0  0  0
 14 15  1  0  0  0  0
 15 16  2  0  0  0  0
 16 17  1  0  0  0  0
 18 16  1  0  0  0  0
 19 18  2  0  0  0  0
 20 19  1  0  0  0  0
 20 14  2  0  0  0  0
 21 22  1  0  0  0  0
 21 26  2  0  0  0  0
 22 23  1  0  0  0  0
 23 25  2  0  0  0  0
 24 22  1  0  0  0  0
 26 25  1  0  0  0  0
M  END
>  <Pose>
1

>  <Score>
-7.754

$$$$
