MODEL 1
REMARK VINA RESULT:    -6.541      0.000      0.000
REMARK INTER + INTRA:          -8.047
REMARK INTER:                  -7.306
REMARK INTRA:                  -0.741
REMARK UNBOUND:                -0.741
REMARK  2 active torsions:
REMARK  status: ('A' for Active; 'I' for Inactive)
REMARK    1  A    between atoms: C_3  and  C_13 
REMARK    2  A    between atoms: C_5  and  N_8 
REMARK       I    between atoms: C_13  and  N_15 
ROOT
ATOM      1  C   UNK d   1      41.431  11.774  46.110  0.00  0.00     0.255 C 
ATOM      2  O   UNK d   1      40.493  11.391  46.856  0.00  0.00    -0.267 OA
ATOM      3  N   UNK d   1      42.243  12.896  46.427  0.00  0.00    -0.348 N 
ATOM      4  C   UNK d   1      41.980  13.621  47.651  0.00  0.00     0.129 C 
ATOM      5  C   UNK d   1      43.287  14.266  48.071  0.00  0.00     0.061 C 
ATOM      6  C   UNK d   1      44.480  13.395  47.741  0.00  0.00     0.119 C 
ATOM      7  N   UNK d   1      45.632  13.993  48.376  0.00  0.00    -0.324 N 
ATOM      8  C   UNK d   1      45.711  13.505  49.707  0.00  0.00     0.325 C 
ATOM      9  O   UNK d   1      46.336  14.013  50.691  0.00  0.00    -0.247 OA
ATOM     10  N   UNK d   1      44.936  12.303  49.730  0.00  0.00    -0.272 N 
ATOM     11  C   UNK d   1      44.401  12.079  48.425  0.00  0.00     0.256 C 
ATOM     12  O   UNK d   1      43.964  10.980  47.988  0.00  0.00    -0.270 OA
ATOM     13  C   UNK d   1      44.699  11.416  50.872  0.00  0.00     0.164 C 
ATOM     14  C   UNK d   1      44.663  13.217  46.263  0.00  0.00     0.061 C 
ATOM     15  C   UNK d   1      43.329  13.367  45.598  0.00  0.00     0.129 C 
ATOM     16  H   UNK d   1      46.277  14.663  47.916  0.00  0.00     0.165 HD
ENDROOT
BRANCH   1  17
ATOM     17  C   UNK d   1      41.641  10.993  44.887  0.00  0.00     0.056 A 
ATOM     18  C   UNK d   1      41.104  11.412  43.690  0.00  0.00     0.050 A 
ATOM     19 Cl   UNK d   1      40.159  12.908  43.662  0.00  0.00    -0.083 Cl
ATOM     20  C   UNK d   1      41.284  10.698  42.523  0.00  0.00     0.027 A 
ATOM     21  C   UNK d   1      42.026   9.543  42.601  0.00  0.00     0.033 A 
ATOM     22  C   UNK d   1      42.585   9.084  43.782  0.00  0.00     0.059 A 
ATOM     23  C   UNK d   1      42.378   9.830  44.923  0.00  0.00     0.050 A 
BRANCH  22  24
ATOM     24  N   UNK d   1      43.345   7.876  43.794  0.00  0.00    -0.245 N 
ATOM     25  N   UNK d   1      42.999   6.696  44.247  0.00  0.00    -0.180 NA
ATOM     26  C   UNK d   1      44.026   5.815  44.064  0.00  0.00     0.140 A 
ATOM     27  C   UNK d   1      45.065   6.491  43.463  0.00  0.00     0.040 A 
ATOM     28  C   UNK d   1      44.596   7.799  43.307  0.00  0.00     0.120 A 
ENDBRANCH  22  24
ENDBRANCH   1  17
TORSDOF 2
ENDMDL
