/Users/jonathanwahrer/Desktop/Msc/3_Semester/Drug_Design_Praktikum/waehrer_HTS_screening/HTS_experiment/out/docking_results/vina_output/2qfa/1624_docked.pdbqt
 OpenBabel03162220523D

 32 35  0  0  1  0  0  0  0  0999 V2000
   42.0950   12.1610   44.8590 C   0  0  1  0  0  3  0  0  0  0  0  0
   42.7170   10.8330   45.0110 N   0  0  0  0  0  0  0  0  0  0  0  0
   42.3110   10.2930   46.2620 C   0  0  0  0  0  0  0  0  0  0  0  0
   42.8660    9.4030   46.9080 O   0  0  0  0  0  0  0  0  0  0  0  0
   41.0780   10.9990   46.6630 C   0  0  0  0  0  0  0  0  0  0  0  0
   40.3870   10.8280   47.7180 O   0  0  0  0  0  0  0  0  0  0  0  0
   40.8060   11.9480   45.5960 C   0  0  0  0  0  0  0  0  0  0  0  0
   39.6390   12.5060   45.3870 C   0  0  0  0  0  0  0  0  0  0  0  0
   39.5350   13.4320   44.3540 O   0  0  0  0  0  1  0  0  0  0  0  0
   43.5650   10.2780   43.9870 C   0  0  0  0  0  2  0  0  0  0  0  0
   42.8880    9.4430   42.9680 C   0  0  0  0  0  2  0  0  0  0  0  0
   43.2180    8.0680   42.8820 N   0  0  0  0  0  4  0  0  0  0  0  0
   42.4340    7.2180   43.7520 C   0  0  0  0  0  2  0  0  0  0  0  0
   43.2670    6.3700   44.6830 C   0  0  0  0  0  2  0  0  0  0  0  0
   44.2960    5.6930   44.0810 O   0  0  0  0  0  0  0  0  0  0  0  0
   45.0480    6.4760   43.2250 C   0  0  0  0  0  2  0  0  0  0  0  0
   44.6120    7.9050   43.3450 C   0  0  0  0  0  2  0  0  0  0  0  0
   43.2370    7.7070   41.9140 H   0  0  0  0  0  0  0  0  0  0  0  0
   42.9420   13.1750   45.4730 C   0  0  0  0  0  0  0  0  0  0  0  0
   44.2820   13.2480   45.2630 C   0  0  0  0  0  3  0  0  0  0  0  0
   45.0910   14.2160   45.8400 C   0  0  0  0  0  3  0  0  0  0  0  0
   44.5330   15.1490   46.6630 C   0  0  0  0  0  0  0  0  0  0  0  0
   45.4920   16.3910   47.4170 Cl  0  0  0  0  0  0  0  0  0  0  0  0
   43.1570   15.1010   46.8990 C   0  0  0  0  0  3  0  0  0  0  0  0
   42.3750   14.1300   46.3160 C   0  0  0  0  0  3  0  0  0  0  0  0
   38.4170   12.2430   46.1400 C   0  0  0  0  0  0  0  0  0  0  0  0
   38.1090   13.1530   47.1450 C   0  0  0  0  0  3  0  0  0  0  0  0
   36.9660   12.9850   47.8740 C   0  0  0  0  0  3  0  0  0  0  0  0
   36.1110   11.9270   47.6340 C   0  0  0  0  0  0  0  0  0  0  0  0
   36.4210   11.0280   46.6360 C   0  0  0  0  0  3  0  0  0  0  0  0
   34.6730   11.7540   48.5850 Cl  0  0  0  0  0  0  0  0  0  0  0  0
   37.5780   11.2090   45.9050 C   0  0  0  0  0  3  0  0  0  0  0  0
  1  2  1  0  0  0  0
  1 19  1  1  0  0  0
  1  7  1  0  0  0  0
  2  3  1  0  0  0  0
  3  5  1  0  0  0  0
  3  4  2  0  0  0  0
  5  6  2  0  0  0  0
  7  5  1  0  0  0  0
  8  7  2  0  0  0  0
  8 26  1  0  0  0  0
  9  8  1  0  0  0  0
 10  2  1  0  0  0  0
 11 10  1  0  0  0  0
 12 11  1  0  0  0  0
 12 17  1  0  0  0  0
 12 13  1  0  0  0  0
 13 14  1  0  0  0  0
 15 14  1  0  0  0  0
 16 17  1  0  0  0  0
 16 15  1  0  0  0  0
 18 12  1  0  0  0  0
 19 25  1  0  0  0  0
 20 19  2  0  0  0  0
 20 21  1  0  0  0  0
 21 22  2  0  0  0  0
 22 24  1  0  0  0  0
 22 23  1  0  0  0  0
 25 24  2  0  0  0  0
 26 27  1  0  0  0  0
 27 28  2  0  0  0  0
 29 28  1  0  0  0  0
 29 31  1  0  0  0  0
 30 29  2  0  0  0  0
 32 26  2  0  0  0  0
 32 30  1  0  0  0  0
M  END
>  <Pose>
1

>  <Score>
-6.922

$$$$
