MODEL 1
REMARK VINA RESULT:    -7.260      0.000      0.000
REMARK INTER + INTRA:          -9.434
REMARK INTER:                  -8.534
REMARK INTRA:                  -0.900
REMARK UNBOUND:                -0.900
REMARK  3 active torsions:
REMARK  status: ('A' for Active; 'I' for Inactive)
REMARK    1  A    between atoms: C_4  and  C_8 
REMARK    2  A    between atoms: N_9  and  C_23 
REMARK    3  A    between atoms: C_15  and  C_17 
ROOT
ATOM      1  C   UNK d   1      42.155  10.234  44.903  0.00  0.00     0.185 C 
ATOM      2  N   UNK d   1      42.501   8.873  45.201  0.00  0.00    -0.128 N 
ATOM      3  C   UNK d   1      41.768   8.406  46.329  0.00  0.00     0.314 C 
ATOM      4  O   UNK d   1      42.009   7.380  47.030  0.00  0.00    -0.263 OA
ATOM      5  C   UNK d   1      40.648   9.343  46.554  0.00  0.00     0.251 C 
ATOM      6  O   UNK d   1      39.798   9.242  47.467  0.00  0.00    -0.282 OA
ATOM      7  C   UNK d   1      40.783  10.348  45.508  0.00  0.00     0.063 C 
ATOM      8  C   UNK d   1      39.845  11.220  45.203  0.00  0.00     0.130 C 
ATOM      9  O   UNK d   1      40.150  12.163  44.200  0.00  0.00    -0.190 OA
ENDROOT
BRANCH   1  10
ATOM     10  C   UNK d   1      43.095  11.231  45.474  0.00  0.00    -0.028 A 
ATOM     11  C   UNK d   1      43.848  12.071  44.665  0.00  0.00     0.033 A 
ATOM     12  C   UNK d   1      44.728  13.008  45.153  0.00  0.00     0.034 A 
ATOM     13 Cl   UNK d   1      45.659  14.053  44.103  0.00  0.00    -0.084 Cl
ATOM     14  C   UNK d   1      44.864  13.111  46.520  0.00  0.00     0.024 A 
ATOM     15  C   UNK d   1      44.138  12.298  47.365  0.00  0.00     0.002 A 
ATOM     16  C   UNK d   1      43.263  11.368  46.849  0.00  0.00     0.010 A 
ENDBRANCH   1  10
BRANCH   8  17
ATOM     17  C   UNK d   1      38.529  11.265  45.825  0.00  0.00     0.001 A 
ATOM     18  C   UNK d   1      38.307  12.123  46.912  0.00  0.00     0.014 A 
ATOM     19  C   UNK d   1      37.065  12.209  47.501  0.00  0.00     0.001 A 
ATOM     20  C   UNK d   1      35.988  11.468  47.061  0.00  0.00     0.000 A 
ATOM     21  C   UNK d   1      36.184  10.620  45.995  0.00  0.00     0.001 A 
ATOM     22  C   UNK d   1      37.443  10.535  45.400  0.00  0.00     0.014 A 
ENDBRANCH   8  17
BRANCH   2  23
ATOM     23  C   UNK d   1      43.437   8.093  44.490  0.00  0.00     0.710 A 
ATOM     24  N   UNK d   1      43.331   6.747  44.646  0.00  0.00    -0.200 N 
ATOM     25  C   UNK d   1      44.154   5.902  44.027  0.00  0.00     0.107 A 
ATOM     26  H   UNK d   1      42.582   6.334  45.268  0.00  0.00     0.183 HD
ATOM     27  C   UNK d   1      45.130   6.427  43.211  0.00  0.00     0.037 A 
ATOM     28  C   UNK d   1      45.218   7.795  43.067  0.00  0.00     0.138 A 
ATOM     29  N   UNK d   1      44.384   8.641  43.696  0.00  0.00    -0.077 NA
ENDBRANCH   2  23
TORSDOF 3
ENDMDL
