/Users/jonathanwahrer/Desktop/Msc/3_Semester/Drug_Design_Praktikum/waehrer_HTS_screening/HTS_experiment/out/docking_results/vina_output/2qfa/1638_docked.pdbqt
 OpenBabel03162220543D

 38 41  0  0  1  0  0  0  0  0999 V2000
   37.9330   12.8510   46.4260 C   0  0  0  0  0  0  0  0  0  0  0  0
   38.7360   12.8420   47.5590 C   0  0  0  0  0  0  0  0  0  0  0  0
   39.7440   11.9350   47.6640 N   0  0  0  0  0  0  0  0  0  0  0  0
   40.0080   11.0320   46.7100 C   0  0  0  0  0  0  0  0  0  0  0  0
   39.2330   11.0340   45.6110 N   0  0  0  0  0  0  0  0  0  0  0  0
   38.2260   11.9110   45.4620 C   0  0  0  0  0  3  0  0  0  0  0  0
   41.0680   10.0840   46.8190 N   0  0  0  0  0  0  0  0  0  0  0  0
   40.8240    8.6750   47.0030 C   0  0  0  0  0  2  0  0  0  0  0  0
   41.4900    7.7920   45.9850 C   0  0  0  0  0  2  0  0  0  0  0  0
   42.7140    8.4490   45.3690 C   0  0  2  0  0  0  0  0  0  0  0  0
   43.2910    9.2860   46.5230 C   0  0  0  0  0  2  0  0  0  0  0  0
   42.4570   10.5020   46.7530 C   0  0  0  0  0  2  0  0  0  0  0  0
   42.4600    9.2790   44.2920 N   0  0  0  0  0  0  0  0  0  0  0  0
   41.7080    8.8510   43.1770 C   0  0  0  0  0  2  0  0  0  0  0  0
   40.9570   10.0780   42.6350 C   0  0  0  0  0  2  0  0  0  0  0  0
   41.7070   11.3080   43.0680 C   0  0  0  0  0  2  0  0  0  0  0  0
   43.2020   11.1300   42.9920 C   0  0  0  0  0  2  0  0  0  0  0  0
   43.6460    9.9080   43.7790 C   0  0  0  0  0  2  0  0  0  0  0  0
   43.7130    7.3870   45.1080 C   0  0  0  0  0  0  0  0  0  0  0  0
   43.3410    6.2090   44.7810 O   0  0  0  0  0  0  0  0  0  0  0  0
   45.0940    7.5890   45.1970 N   0  0  0  0  0  0  0  0  0  0  0  0
   45.6030    7.1930   46.0350 H   0  0  0  0  0  0  0  0  0  0  0  0
   45.6960    8.0900   44.5140 H   0  0  0  0  0  0  0  0  0  0  0  0
   38.4560   13.7940   48.5570 N   0  0  0  0  0  0  0  0  0  0  0  0
   38.0230   13.5580   49.4740 H   0  0  0  0  0  0  0  0  0  0  0  0
   38.6890   14.7930   48.3830 H   0  0  0  0  0  0  0  0  0  0  0  0
   36.6240   14.0010   46.2460 S   0  0  0  0  0  0  0  0  0  0  0  0
   35.5760   13.8170   47.2940 O   0  0  0  0  0  0  0  0  0  0  0  0
   37.2280   15.3820   46.2890 O   0  0  0  0  0  0  0  0  0  0  0  0
   35.9270   13.7720   44.6350 C   0  0  0  0  0  0  0  0  0  0  0  0
   34.9860   12.7850   44.4240 C   0  0  0  0  0  0  0  0  0  0  0  0
   34.4690   12.6430   43.1530 C   0  0  0  0  0  3  0  0  0  0  0  0
   34.8740   13.4620   42.1050 C   0  0  0  0  0  3  0  0  0  0  0  0
   35.8160   14.4370   42.3560 C   0  0  0  0  0  0  0  0  0  0  0  0
   36.3520   14.6040   43.6160 C   0  0  0  0  0  3  0  0  0  0  0  0
   36.3420   15.4880   41.0340 Cl  0  0  0  0  0  0  0  0  0  0  0  0
   34.6130   11.9980   45.4780 O   0  0  0  0  0  0  0  0  0  0  0  0
   34.8230   10.6170   45.5750 C   0  0  0  0  0  1  0  0  0  0  0  0
  1  2  2  0  0  0  0
  2  3  1  0  0  0  0
  2 24  1  0  0  0  0
  4  7  1  0  0  0  0
  4  3  2  0  0  0  0
  5  4  1  0  0  0  0
  6  5  2  0  0  0  0
  6  1  1  0  0  0  0
  7  8  1  0  0  0  0
  9  8  1  0  0  0  0
 10 19  1  6  0  0  0
 10  9  1  0  0  0  0
 10 11  1  0  0  0  0
 11 12  1  0  0  0  0
 12  7  1  0  0  0  0
 13 10  1  0  0  0  0
 14 13  1  0  0  0  0
 15 16  1  0  0  0  0
 15 14  1  0  0  0  0
 17 16  1  0  0  0  0
 17 18  1  0  0  0  0
 18 13  1  0  0  0  0
 19 21  1  0  0  0  0
 20 19  2  0  0  0  0
 21 22  1  0  0  0  0
 23 21  1  0  0  0  0
 24 25  1  0  0  0  0
 26 24  1  0  0  0  0
 27 29  2  0  0  0  0
 27  1  1  0  0  0  0
 27 28  2  0  0  0  0
 30 27  1  0  0  0  0
 31 30  1  0  0  0  0
 31 37  1  0  0  0  0
 32 31  2  0  0  0  0
 33 34  2  0  0  0  0
 33 32  1  0  0  0  0
 34 35  1  0  0  0  0
 35 30  2  0  0  0  0
 36 34  1  0  0  0  0
 37 38  1  0  0  0  0
M  END
>  <Pose>
1

>  <Score>
-6.181

$$$$
