MODEL 1
REMARK VINA RESULT:    -6.181      0.000      0.000
REMARK INTER + INTRA:          -9.908
REMARK INTER:                  -8.530
REMARK INTRA:                  -1.378
REMARK UNBOUND:                -1.378
REMARK  7 active torsions:
REMARK  status: ('A' for Active; 'I' for Inactive)
REMARK    1  A    between atoms: S_1  and  C_4 
REMARK    2  A    between atoms: S_1  and  C_26 
REMARK    3  A    between atoms: C_5  and  N_25 
REMARK    4  A    between atoms: C_7  and  N_10 
REMARK    5  A    between atoms: C_13  and  N_16 
REMARK    6  A    between atoms: C_13  and  C_22 
REMARK       I    between atoms: C_22  and  N_24 
REMARK    7  A    between atoms: C_27  and  O_33 
ROOT
ATOM      1  C   UNK d   1      37.933  12.851  46.426  0.00  0.00     0.128 A 
ATOM      2  C   UNK d   1      38.736  12.842  47.559  0.00  0.00     0.164 A 
ATOM      3  N   UNK d   1      39.744  11.935  47.664  0.00  0.00    -0.044 NA
ATOM      4  C   UNK d   1      40.008  11.032  46.710  0.00  0.00     0.726 A 
ATOM      5  N   UNK d   1      39.233  11.034  45.611  0.00  0.00    -0.073 NA
ATOM      6  C   UNK d   1      38.226  11.911  45.462  0.00  0.00     0.164 A 
ENDROOT
BRANCH   4   7
ATOM      7  N   UNK d   1      41.068  10.084  46.819  0.00  0.00    -0.214 N 
ATOM      8  C   UNK d   1      40.824   8.675  47.003  0.00  0.00     0.144 C 
ATOM      9  C   UNK d   1      41.490   7.792  45.985  0.00  0.00     0.072 C 
ATOM     10  C   UNK d   1      42.714   8.449  45.369  0.00  0.00     0.241 C 
ATOM     11  C   UNK d   1      43.291   9.286  46.523  0.00  0.00     0.072 C 
ATOM     12  C   UNK d   1      42.457  10.502  46.753  0.00  0.00     0.144 C 
BRANCH  10  13
ATOM     13  N   UNK d   1      42.460   9.279  44.292  0.00  0.00     0.107 N 
ATOM     14  C   UNK d   1      41.708   8.851  43.177  0.00  0.00     0.274 C 
ATOM     15  C   UNK d   1      40.957  10.078  42.635  0.00  0.00     0.030 C 
ATOM     16  C   UNK d   1      41.707  11.308  43.068  0.00  0.00     0.003 C 
ATOM     17  C   UNK d   1      43.202  11.130  42.992  0.00  0.00     0.030 C 
ATOM     18  C   UNK d   1      43.646   9.908  43.779  0.00  0.00     0.274 C 
ENDBRANCH  10  13
BRANCH  10  19
ATOM     19  C   UNK d   1      43.713   7.387  45.108  0.00  0.00     0.255 C 
ATOM     20  O   UNK d   1      43.341   6.209  44.781  0.00  0.00    -0.271 OA
ATOM     21  N   UNK d   1      45.094   7.589  45.197  0.00  0.00    -0.368 N 
ATOM     22  H   UNK d   1      45.603   7.193  46.035  0.00  0.00     0.159 HD
ATOM     23  H   UNK d   1      45.696   8.090  44.514  0.00  0.00     0.159 HD
ENDBRANCH  10  19
ENDBRANCH   4   7
BRANCH   2  24
ATOM     24  N   UNK d   1      38.456  13.794  48.557  0.00  0.00    -0.382 N 
ATOM     25  H   UNK d   1      38.023  13.558  49.474  0.00  0.00     0.157 HD
ATOM     26  H   UNK d   1      38.689  14.793  48.383  0.00  0.00     0.157 HD
ENDBRANCH   2  24
BRANCH   1  27
ATOM     27  S   UNK d   1      36.624  14.001  46.246  0.00  0.00     0.214 S 
ATOM     28  O   UNK d   1      35.576  13.817  47.294  0.00  0.00    -0.217 OA
ATOM     29  O   UNK d   1      37.228  15.382  46.289  0.00  0.00    -0.217 OA
BRANCH  27  30
ATOM     30  C   UNK d   1      35.927  13.772  44.635  0.00  0.00     0.099 A 
ATOM     31  C   UNK d   1      34.986  12.785  44.424  0.00  0.00     0.090 A 
ATOM     32  C   UNK d   1      34.469  12.643  43.153  0.00  0.00     0.040 A 
ATOM     33  C   UNK d   1      34.874  13.462  42.105  0.00  0.00     0.026 A 
ATOM     34  C   UNK d   1      35.816  14.437  42.356  0.00  0.00     0.035 A 
ATOM     35  C   UNK d   1      36.352  14.604  43.616  0.00  0.00     0.050 A 
ATOM     36 Cl   UNK d   1      36.342  15.488  41.034  0.00  0.00    -0.084 Cl
BRANCH  31  37
ATOM     37  O   UNK d   1      34.613  11.998  45.478  0.00  0.00    -0.354 OA
ATOM     38  C   UNK d   1      34.823  10.617  45.575  0.00  0.00     0.210 C 
ENDBRANCH  31  37
ENDBRANCH  27  30
ENDBRANCH   1  27
TORSDOF 7
ENDMDL
