MODEL 1
REMARK VINA RESULT:    -6.415      0.000      0.000
REMARK INTER + INTRA:          -6.415
REMARK INTER:                  -6.415
REMARK INTRA:                   0.000
REMARK UNBOUND:                 0.000
REMARK  0 active torsions:
REMARK  status: ('A' for Active; 'I' for Inactive)
ROOT
ATOM      1 Cl   UNK d   1      45.973  14.724  44.846  0.00  0.00    -0.084 Cl
ATOM      2  C   UNK d   1      44.991  13.580  45.765  0.00  0.00     0.034 A 
ATOM      3  C   UNK d   1      43.891  12.968  45.216  0.00  0.00     0.034 A 
ATOM      4  C   UNK d   1      43.126  12.063  45.967  0.00  0.00    -0.006 A 
ATOM      5  C   UNK d   1      43.446  11.760  47.260  0.00  0.00     0.044 A 
ATOM      6  C   UNK d   1      44.572  12.382  47.830  0.00  0.00     0.032 A 
ATOM      7  C   UNK d   1      45.298  13.263  47.067  0.00  0.00     0.026 A 
ATOM      8  N   UNK d   1      42.545  10.825  47.831  0.00  0.00    -0.321 N 
ATOM      9  C   UNK d   1      41.593  10.522  46.826  0.00  0.00     0.242 A 
ATOM     10  O   UNK d   1      40.632   9.715  46.989  0.00  0.00    -0.271 OA
ATOM     11  C   UNK d   1      41.915  11.287  45.602  0.00  0.00     0.111 A 
ATOM     12  C   UNK d   1      40.734  12.196  45.333  0.00  0.00     0.132 C 
ATOM     13  C   UNK d   1      39.635  11.282  44.874  0.00  0.00     0.225 C 
ATOM     14  O   UNK d   1      38.506  11.255  45.398  0.00  0.00    -0.273 OA
ATOM     15  N   UNK d   1      39.950  10.416  43.777  0.00  0.00    -0.311 N 
ATOM     16  C   UNK d   1      41.292   9.985  43.590  0.00  0.00     0.133 A 
ATOM     17  N   UNK d   1      41.888   9.190  42.661  0.00  0.00    -0.262 N 
ATOM     18  N   UNK d   1      43.166   9.118  42.943  0.00  0.00    -0.185 NA
ATOM     19  C   UNK d   1      43.460   9.839  44.036  0.00  0.00     0.151 A 
ATOM     20  C   UNK d   1      42.256  10.408  44.469  0.00  0.00     0.030 A 
ATOM     21  C   UNK d   1      42.605  10.293  49.196  0.00  0.00     0.159 C 
ATOM     22  H   UNK d   1      39.211  10.097  43.112  0.00  0.00     0.170 HD
ATOM     23  H   UNK d   1      41.363   8.739  41.876  0.00  0.00     0.191 HD
ENDROOT
TORSDOF 0
ENDMDL
