/Users/jonathanwahrer/Desktop/Msc/3_Semester/Drug_Design_Praktikum/waehrer_HTS_screening/HTS_experiment/out/docking_results/vina_output/2qfa/1651_docked.pdbqt
 OpenBabel03162220543D

 23 26  0  0  1  0  0  0  0  0999 V2000
   45.9730   14.7240   44.8460 Cl  0  0  0  0  0  0  0  0  0  0  0  0
   44.9910   13.5800   45.7650 C   0  0  0  0  0  0  0  0  0  0  0  0
   43.8910   12.9680   45.2160 C   0  0  0  0  0  3  0  0  0  0  0  0
   43.1260   12.0630   45.9670 C   0  0  0  0  0  0  0  0  0  0  0  0
   43.4460   11.7600   47.2600 C   0  0  0  0  0  0  0  0  0  0  0  0
   44.5720   12.3820   47.8300 C   0  0  0  0  0  3  0  0  0  0  0  0
   45.2980   13.2630   47.0670 C   0  0  0  0  0  3  0  0  0  0  0  0
   42.5450   10.8250   47.8310 N   0  0  0  0  0  0  0  0  0  0  0  0
   41.5930   10.5220   46.8260 C   0  0  0  0  0  0  0  0  0  0  0  0
   40.6320    9.7150   46.9890 O   0  0  0  0  0  0  0  0  0  0  0  0
   41.9150   11.2870   45.6020 C   0  0  1  0  0  0  0  0  0  0  0  0
   40.7340   12.1960   45.3330 C   0  0  0  0  0  2  0  0  0  0  0  0
   39.6350   11.2820   44.8740 C   0  0  0  0  0  0  0  0  0  0  0  0
   38.5060   11.2550   45.3980 O   0  0  0  0  0  0  0  0  0  0  0  0
   39.9500   10.4160   43.7770 N   0  0  0  0  0  0  0  0  0  0  0  0
   41.2920    9.9850   43.5900 C   0  0  0  0  0  0  0  0  0  0  0  0
   41.8880    9.1900   42.6610 N   0  0  0  0  0  0  0  0  0  0  0  0
   43.1660    9.1180   42.9430 N   0  0  0  0  0  0  0  0  0  0  0  0
   43.4600    9.8390   44.0360 C   0  0  0  0  0  3  0  0  0  0  0  0
   42.2560   10.4080   44.4690 C   0  0  0  0  0  0  0  0  0  0  0  0
   42.6050   10.2930   49.1960 C   0  0  0  0  0  1  0  0  0  0  0  0
   39.2110   10.0970   43.1120 H   0  0  0  0  0  0  0  0  0  0  0  0
   41.3630    8.7390   41.8760 H   0  0  0  0  0  0  0  0  0  0  0  0
  1  2  1  0  0  0  0
  2  7  1  0  0  0  0
  3  2  2  0  0  0  0
  3  4  1  0  0  0  0
  4  5  2  0  0  0  0
  5  6  1  0  0  0  0
  5  8  1  0  0  0  0
  7  6  2  0  0  0  0
  8 21  1  0  0  0  0
  9 10  2  0  0  0  0
  9  8  1  0  0  0  0
 11 12  1  6  0  0  0
 11  4  1  0  0  0  0
 11  9  1  0  0  0  0
 13 12  1  0  0  0  0
 13 14  2  0  0  0  0
 15 13  1  0  0  0  0
 16 15  1  0  0  0  0
 16 20  2  0  0  0  0
 17 18  1  0  0  0  0
 17 16  1  0  0  0  0
 18 19  2  0  0  0  0
 19 20  1  0  0  0  0
 20 11  1  0  0  0  0
 22 15  1  0  0  0  0
 23 17  1  0  0  0  0
M  END
>  <Pose>
1

>  <Score>
-6.415

$$$$
