MODEL 1
REMARK VINA RESULT:    -6.964      0.000      0.000
REMARK INTER + INTRA:          -9.754
REMARK INTER:                  -8.999
REMARK INTRA:                  -0.755
REMARK UNBOUND:                -0.755
REMARK  5 active torsions:
REMARK  status: ('A' for Active; 'I' for Inactive)
REMARK    1  A    between atoms: C_5  and  N_8 
REMARK    2  A    between atoms: N_15  and  C_18 
REMARK    3  A    between atoms: C_18  and  C_19 
REMARK       I    between atoms: C_19  and  N_21 
REMARK       I    between atoms: N_24  and  C_27 
REMARK    4  A    between atoms: C_27  and  O_29 
REMARK    5  A    between atoms: O_29  and  C_30 
ROOT
ATOM      1  N   UNK d   1      42.355   9.109  43.600  0.00  0.00    -0.215 N 
ATOM      2  N   UNK d   1      41.930   9.801  42.577  0.00  0.00    -0.177 NA
ATOM      3  C   UNK d   1      41.124  10.806  42.934  0.00  0.00     0.160 A 
ATOM      4  C   UNK d   1      41.018  10.760  44.318  0.00  0.00     0.099 A 
ATOM      5  C   UNK d   1      41.807   9.679  44.698  0.00  0.00     0.169 A 
ATOM      6  N   UNK d   1      41.865   9.420  46.007  0.00  0.00    -0.223 NA
ATOM      7  C   UNK d   1      41.194  10.170  46.909  0.00  0.00     0.215 A 
ATOM      8  N   UNK d   1      40.426  11.218  46.573  0.00  0.00    -0.299 N 
ATOM      9  C   UNK d   1      40.342  11.512  45.250  0.00  0.00     0.264 A 
ATOM     10  O   UNK d   1      39.633  12.485  44.887  0.00  0.00    -0.267 OA
ENDROOT
BRANCH   8  11
ATOM     11  C   UNK d   1      39.708  12.044  47.549  0.00  0.00     0.236 C 
BRANCH  11  12
ATOM     12  C   UNK d   1      38.319  11.591  47.742  0.00  0.00     0.238 C 
ATOM     13  O   UNK d   1      38.206  10.423  48.258  0.00  0.00    -0.272 OA
ATOM     14  N   UNK d   1      37.156  12.290  47.429  0.00  0.00    -0.348 N 
ATOM     15  C   UNK d   1      35.830  11.683  47.621  0.00  0.00     0.145 C 
ATOM     16  C   UNK d   1      37.159  13.648  46.932  0.00  0.00     0.145 C 
ATOM     17  C   UNK d   1      35.266  11.558  46.199  0.00  0.00     0.148 C 
ATOM     18  N   UNK d   1      35.341  12.824  45.518  0.00  0.00    -0.325 N 
ATOM     19  C   UNK d   1      35.841  13.959  46.270  0.00  0.00     0.148 C 
ATOM     20  C   UNK d   1      34.968  12.953  44.162  0.00  0.00     0.362 C 
ATOM     21  O   UNK d   1      34.589  11.888  43.548  0.00  0.00    -0.238 OA
BRANCH  20  22
ATOM     22  O   UNK d   1      34.966  14.117  43.426  0.00  0.00    -0.304 OA
BRANCH  22  23
ATOM     23  C   UNK d   1      35.048  14.080  41.988  0.00  0.00     0.176 C 
ATOM     24  C   UNK d   1      36.182  15.014  41.606  0.00  0.00     0.034 C 
ENDBRANCH  22  23
ENDBRANCH  20  22
ENDBRANCH  11  12
ENDBRANCH   8  11
BRANCH   1  25
ATOM     25  C   UNK d   1      43.232   7.995  43.581  0.00  0.00     0.060 A 
ATOM     26  C   UNK d   1      42.966   6.770  44.136  0.00  0.00     0.033 A 
ATOM     27  C   UNK d   1      43.908   5.761  44.088  0.00  0.00     0.026 A 
ATOM     28  C   UNK d   1      45.142   5.912  43.498  0.00  0.00     0.034 A 
ATOM     29 Cl   UNK d   1      46.343   4.663  43.429  0.00  0.00    -0.084 Cl
ATOM     30  C   UNK d   1      45.429   7.140  42.931  0.00  0.00     0.026 A 
ATOM     31  C   UNK d   1      44.476   8.134  42.990  0.00  0.00     0.033 A 
ENDBRANCH   1  25
TORSDOF 5
ENDMDL
