/Users/jonathanwahrer/Desktop/Msc/3_Semester/Drug_Design_Praktikum/waehrer_HTS_screening/HTS_experiment/out/docking_results/vina_output/2qfa/1673_docked.pdbqt
 OpenBabel03162220553D

 35 38  0  0  1  0  0  0  0  0999 V2000
   42.0770   10.7950   44.5350 C   0  0  2  0  0  3  0  0  0  0  0  0
   42.1500    9.5170   45.3260 C   0  0  1  0  0  3  0  0  0  0  0  0
   42.6860    8.5430   44.4830 N   0  0  0  0  0  0  0  0  0  0  0  0
   42.0220    8.8580   43.1950 C   0  0  0  0  0  0  0  0  0  0  0  0
   41.6810    8.0430   42.2960 O   0  0  0  0  0  0  0  0  0  0  0  0
   41.8360   10.3000   43.1610 C   0  0  0  0  0  0  0  0  0  0  0  0
   41.5270   10.9780   42.1400 O   0  0  0  0  0  0  0  0  0  0  0  0
   42.3970    9.6630   46.7380 C   0  0  0  0  0  0  0  0  0  0  0  0
   43.5630    9.3720   47.3740 C   0  0  0  0  0  3  0  0  0  0  0  0
   43.7050    9.5670   48.7390 C   0  0  0  0  0  0  0  0  0  0  0  0
   42.6220   10.0720   49.4740 C   0  0  0  0  0  0  0  0  0  0  0  0
   41.4520   10.3640   48.8340 C   0  0  0  0  0  3  0  0  0  0  0  0
   41.3140   10.1740   47.4940 C   0  0  0  0  0  3  0  0  0  0  0  0
   42.7110   10.2840   50.8350 O   0  0  0  0  0  1  0  0  0  0  0  0
   43.2790   11.6270   44.5950 C   0  0  0  0  0  0  0  0  0  0  0  0
   44.3040   11.3040   43.8990 O   0  0  0  0  0  0  0  0  0  0  0  0
   43.4430   12.8340   45.3920 C   0  0  0  0  0  0  0  0  0  0  0  0
   42.3750   13.4630   45.9920 C   0  0  0  0  0  3  0  0  0  0  0  0
   42.6150   14.6290   46.7100 C   0  0  0  0  0  3  0  0  0  0  0  0
   43.8580   15.1890   46.8550 C   0  0  0  0  0  0  0  0  0  0  0  0
   44.1140   16.8100   47.8680 Br  0  0  0  0  0  0  0  0  0  0  0  0
   44.9310   14.5630   46.2570 C   0  0  0  0  0  3  0  0  0  0  0  0
   44.6950   13.4100   45.5460 C   0  0  0  0  0  3  0  0  0  0  0  0
   43.4980    7.3670   44.4960 C   0  0  0  0  0  2  0  0  0  0  0  0
   44.9620    7.5500   44.3520 C   0  0  0  0  0  2  0  0  0  0  0  0
   45.5790    7.7180   43.1060 N   0  0  0  0  0  4  0  0  0  0  0  0
   47.0420    7.6100   43.1730 C   0  0  0  0  0  2  0  0  0  0  0  0
   47.5030    6.2570   43.5990 C   0  0  0  0  0  2  0  0  0  0  0  0
   46.4330    5.3930   43.6410 O   0  0  0  0  0  0  0  0  0  0  0  0
   45.8180    5.4120   42.3780 C   0  0  0  0  0  2  0  0  0  0  0  0
   45.0700    6.7110   42.1580 C   0  0  0  0  0  2  0  0  0  0  0  0
   45.3770    8.6210   42.6840 H   0  0  0  0  0  0  0  0  0  0  0  0
   44.8570    9.2880   49.4020 O   0  0  0  0  0  0  0  0  0  0  0  0
   45.9970   10.0850   49.3610 C   0  0  0  0  0  2  0  0  0  0  0  0
   45.7310   11.5090   48.9060 C   0  0  0  0  0  1  0  0  0  0  0  0
  1 15  1  6  0  0  0
  1  2  1  0  0  0  0
  2  8  1  1  0  0  0
  3 24  1  0  0  0  0
  3  2  1  0  0  0  0
  4  3  1  0  0  0  0
  5  4  2  0  0  0  0
  6  4  1  0  0  0  0
  6  1  1  0  0  0  0
  7  6  2  0  0  0  0
  8  9  2  0  0  0  0
  8 13  1  0  0  0  0
  9 10  1  0  0  0  0
 10 33  1  0  0  0  0
 10 11  2  0  0  0  0
 11 14  1  0  0  0  0
 12 11  1  0  0  0  0
 13 12  2  0  0  0  0
 15 17  1  0  0  0  0
 16 15  2  0  0  0  0
 17 23  2  0  0  0  0
 17 18  1  0  0  0  0
 18 19  2  0  0  0  0
 19 20  1  0  0  0  0
 20 21  1  0  0  0  0
 22 20  2  0  0  0  0
 23 22  1  0  0  0  0
 25 24  1  0  0  0  0
 26 27  1  0  0  0  0
 26 25  1  0  0  0  0
 27 28  1  0  0  0  0
 28 29  1  0  0  0  0
 30 29  1  0  0  0  0
 31 30  1  0  0  0  0
 31 26  1  0  0  0  0
 32 26  1  0  0  0  0
 34 33  1  0  0  0  0
 35 34  1  0  0  0  0
M  END
>  <Pose>
1

>  <Score>
-6.773

$$$$
