MODEL 1
REMARK VINA RESULT:    -6.773      0.000      0.000
REMARK INTER + INTRA:         -11.857
REMARK INTER:                  -9.544
REMARK INTRA:                  -2.312
REMARK UNBOUND:                -2.312
REMARK  7 active torsions:
REMARK  status: ('A' for Active; 'I' for Inactive)
REMARK    1  A    between atoms: C_5  and  C_8 
REMARK    2  A    between atoms: C_8  and  C_10 
REMARK    3  A    between atoms: N_12  and  C_17 
REMARK    4  A    between atoms: C_17  and  C_18 
REMARK    5  A    between atoms: C_18  and  N_19 
REMARK    6  A    between atoms: C_27  and  O_32 
REMARK    7  A    between atoms: O_32  and  C_33 
ROOT
ATOM      1  C   UNK d   1      42.077  10.795  44.535  0.00  0.00     0.167 C 
ATOM      2  C   UNK d   1      42.150   9.517  45.326  0.00  0.00     0.140 C 
ATOM      3  N   UNK d   1      42.686   8.543  44.483  0.00  0.00    -0.334 N 
ATOM      4  C   UNK d   1      42.022   8.858  43.195  0.00  0.00     0.291 C 
ATOM      5  O   UNK d   1      41.681   8.043  42.296  0.00  0.00    -0.264 OA
ATOM      6  C   UNK d   1      41.836  10.300  43.161  0.00  0.00     0.230 C 
ATOM      7  O   UNK d   1      41.527  10.978  42.140  0.00  0.00    -0.286 OA
ATOM      8  C   UNK d   1      42.397   9.663  46.738  0.00  0.00    -0.031 A 
ATOM      9  C   UNK d   1      43.563   9.372  47.374  0.00  0.00     0.049 A 
ATOM     10  C   UNK d   1      43.705   9.567  48.739  0.00  0.00     0.105 A 
ATOM     11  C   UNK d   1      42.622  10.072  49.474  0.00  0.00     0.140 A 
ATOM     12  C   UNK d   1      41.452  10.364  48.834  0.00  0.00     0.043 A 
ATOM     13  C   UNK d   1      41.314  10.174  47.494  0.00  0.00     0.012 A 
ATOM     14  O   UNK d   1      42.711  10.284  50.835  0.00  0.00    -0.189 OA
ENDROOT
BRANCH   1  15
ATOM     15  C   UNK d   1      43.279  11.627  44.595  0.00  0.00     0.173 C 
ATOM     16  O   UNK d   1      44.304  11.304  43.899  0.00  0.00    -0.291 OA
BRANCH  15  17
ATOM     17  C   UNK d   1      43.443  12.834  45.392  0.00  0.00     0.011 A 
ATOM     18  C   UNK d   1      42.375  13.463  45.992  0.00  0.00     0.016 A 
ATOM     19  C   UNK d   1      42.615  14.629  46.710  0.00  0.00     0.020 A 
ATOM     20  C   UNK d   1      43.858  15.189  46.855  0.00  0.00     0.011 A 
ATOM     21 Br   UNK d   1      44.114  16.810  47.868  0.00  0.00    -0.051 Br
ATOM     22  C   UNK d   1      44.931  14.563  46.257  0.00  0.00     0.020 A 
ATOM     23  C   UNK d   1      44.695  13.410  45.546  0.00  0.00     0.016 A 
ENDBRANCH  15  17
ENDBRANCH   1  15
BRANCH   3  24
ATOM     24  C   UNK d   1      43.498   7.367  44.496  0.00  0.00     0.154 C 
BRANCH  24  25
ATOM     25  C   UNK d   1      44.962   7.550  44.352  0.00  0.00     0.255 C 
BRANCH  25  26
ATOM     26  N   UNK d   1      45.579   7.718  43.106  0.00  0.00    -0.066 N 
ATOM     27  C   UNK d   1      47.042   7.610  43.173  0.00  0.00     0.261 C 
ATOM     28  C   UNK d   1      47.503   6.257  43.599  0.00  0.00     0.195 C 
ATOM     29  O   UNK d   1      46.433   5.393  43.641  0.00  0.00    -0.388 OA
ATOM     30  C   UNK d   1      45.818   5.412  42.378  0.00  0.00     0.195 C 
ATOM     31  C   UNK d   1      45.070   6.711  42.158  0.00  0.00     0.261 C 
ATOM     32  H   UNK d   1      45.377   8.621  42.684  0.00  0.00     0.280 HD
ENDBRANCH  25  26
ENDBRANCH  24  25
ENDBRANCH   3  24
BRANCH  10  33
ATOM     33  O   UNK d   1      44.857   9.288  49.402  0.00  0.00    -0.349 OA
BRANCH  33  34
ATOM     34  C   UNK d   1      45.997  10.085  49.361  0.00  0.00     0.171 C 
ATOM     35  C   UNK d   1      45.731  11.509  48.906  0.00  0.00     0.034 C 
ENDBRANCH  33  34
ENDBRANCH  10  33
TORSDOF 7
ENDMDL
