MODEL 1
REMARK VINA RESULT:    -7.773      0.000      0.000
REMARK INTER + INTRA:          -9.679
REMARK INTER:                  -9.136
REMARK INTRA:                  -0.543
REMARK UNBOUND:                -0.543
REMARK  3 active torsions:
REMARK  status: ('A' for Active; 'I' for Inactive)
REMARK    1  A    between atoms: C_9  and  C_11 
REMARK       I    between atoms: C_11  and  N_13 
REMARK    2  A    between atoms: N_13  and  C_14 
REMARK    3  A    between atoms: C_14  and  C_15 
ROOT
ATOM      1  C   UNK d   1      46.350   5.878  42.842  0.00  0.00     0.254 C 
ATOM      2  O   UNK d   1      46.181   5.778  41.612  0.00  0.00    -0.268 OA
ATOM      3  N   UNK d   1      45.411   6.620  43.603  0.00  0.00    -0.350 N 
ATOM      4  H   UNK d   1      45.539   6.712  44.624  0.00  0.00     0.163 HD
ENDROOT
BRANCH   1   5
ATOM      5  C   UNK d   1      47.508   5.227  43.444  0.00  0.00     0.063 A 
ATOM      6  C   UNK d   1      48.005   4.084  42.843  0.00  0.00     0.098 A 
ATOM      7  C   UNK d   1      49.094   3.452  43.391  0.00  0.00     0.111 A 
ATOM      8  N   UNK d   1      47.630   3.381  41.741  0.00  0.00    -0.257 N 
ATOM      9  C   UNK d   1      49.672   3.968  44.528  0.00  0.00     0.055 A 
ATOM     10  N   UNK d   1      49.352   2.380  42.604  0.00  0.00    -0.130 NA
ATOM     11  C   UNK d   1      49.182   5.106  45.132  0.00  0.00     0.014 A 
ATOM     12 Br   UNK d   1      50.006   5.800  46.711  0.00  0.00    -0.051 Br
ATOM     13  C   UNK d   1      48.096   5.742  44.591  0.00  0.00     0.038 A 
ATOM     14  N   UNK d   1      48.456   2.377  41.634  0.00  0.00    -0.067 NA
ATOM     15  H   UNK d   1      46.819   3.675  41.159  0.00  0.00     0.191 HD
ENDBRANCH   1   5
BRANCH   3  16
ATOM     16  C   UNK d   1      44.275   7.254  42.980  0.00  0.00     0.203 C 
BRANCH  16  17
ATOM     17  C   UNK d   1      43.362   7.781  44.053  0.00  0.00     0.148 A 
ATOM     18  N   UNK d   1      42.805   9.001  44.115  0.00  0.00    -0.319 N 
ATOM     19  C   UNK d   1      42.043   9.123  45.222  0.00  0.00     0.130 A 
ATOM     20  C   UNK d   1      42.871  10.158  43.250  0.00  0.00     0.132 C 
ATOM     21  N   UNK d   1      42.131   7.949  45.860  0.00  0.00    -0.135 NA
ATOM     22  C   UNK d   1      41.362  10.433  45.416  0.00  0.00     0.081 C 
ATOM     23  N   UNK d   1      42.930   7.135  45.154  0.00  0.00    -0.133 NA
ATOM     24  C   UNK d   1      40.586  10.664  44.111  0.00  0.00     0.009 C 
ATOM     25  C   UNK d   1      41.458  10.573  42.901  0.00  0.00     0.021 C 
ENDBRANCH  16  17
ENDBRANCH   3  16
TORSDOF 3
ENDMDL
