MODEL 1
REMARK VINA RESULT:    -7.376      0.000      0.000
REMARK INTER + INTRA:         -10.181
REMARK INTER:                  -9.533
REMARK INTRA:                  -0.649
REMARK UNBOUND:                -0.649
REMARK  5 active torsions:
REMARK  status: ('A' for Active; 'I' for Inactive)
REMARK    1  A    between atoms: N_7  and  C_11 
REMARK    2  A    between atoms: C_11  and  C_12 
REMARK    3  A    between atoms: C_12  and  N_13 
REMARK    4  A    between atoms: C_21  and  C_23 
REMARK    5  A    between atoms: C_23  and  O_25 
ROOT
ATOM      1  N   UNK d   1      42.546  12.143  44.897  0.00  0.00    -0.363 N 
ATOM      2  C   UNK d   1      41.523  12.951  45.255  0.00  0.00     0.110 A 
ATOM      3  C   UNK d   1      41.720  14.110  45.973  0.00  0.00     0.080 A 
ATOM      4  C   UNK d   1      43.072  14.491  46.366  0.00  0.00     0.111 A 
ATOM      5  N   UNK d   1      42.956  15.643  47.041  0.00  0.00    -0.170 NA
ATOM      6  N   UNK d   1      41.668  16.017  47.107  0.00  0.00    -0.242 N 
ATOM      7  C   UNK d   1      40.912  15.109  46.471  0.00  0.00     0.275 A 
ATOM      8  O   UNK d   1      39.667  15.183  46.364  0.00  0.00    -0.266 OA
ATOM      9  C   UNK d   1      44.095  13.641  45.983  0.00  0.00     0.086 A 
ATOM     10  C   UNK d   1      43.779  12.517  45.271  0.00  0.00     0.110 A 
ATOM     11  H   UNK d   1      41.362  16.896  47.596  0.00  0.00     0.192 HD
ENDROOT
BRANCH   1  12
ATOM     12  C   UNK d   1      42.301  10.923  44.136  0.00  0.00     0.148 C 
BRANCH  12  13
ATOM     13  C   UNK d   1      43.635  10.254  43.887  0.00  0.00     0.150 C 
BRANCH  13  14
ATOM     14  N   UNK d   1      43.581   8.832  44.149  0.00  0.00    -0.338 N 
ATOM     15  C   UNK d   1      42.647   8.203  44.893  0.00  0.00     0.210 A 
ATOM     16  N   UNK d   1      42.896   6.882  44.929  0.00  0.00    -0.242 NA
ATOM     17  C   UNK d   1      44.014   6.624  44.197  0.00  0.00     0.086 A 
ATOM     18  C   UNK d   1      44.704   5.465  43.902  0.00  0.00     0.057 A 
ATOM     19  C   UNK d   1      44.410   7.861  43.728  0.00  0.00     0.064 A 
ATOM     20  C   UNK d   1      45.832   5.527  43.112  0.00  0.00     0.036 A 
ATOM     21 Cl   UNK d   1      46.763   4.088  42.695  0.00  0.00    -0.084 Cl
ATOM     22  C   UNK d   1      46.219   6.770  42.649  0.00  0.00     0.026 A 
ATOM     23  C   UNK d   1      45.535   7.933  42.940  0.00  0.00     0.034 A 
ENDBRANCH  13  14
ENDBRANCH  12  13
ENDBRANCH   1  12
BRANCH   9  24
ATOM     24  C   UNK d   1      45.461  13.989  46.358  0.00  0.00     0.296 C 
ATOM     25  O   UNK d   1      46.021  13.352  47.285  0.00  0.00    -0.259 OA
BRANCH  24  26
ATOM     26  O   UNK d   1      46.148  14.992  45.727  0.00  0.00    -0.322 OA
ATOM     27  C   UNK d   1      46.562  14.873  44.375  0.00  0.00     0.213 C 
ENDBRANCH  24  26
ENDBRANCH   9  24
TORSDOF 5
ENDMDL
