MODEL 1
REMARK VINA RESULT:    -8.637      0.000      0.000
REMARK INTER + INTRA:         -11.313
REMARK INTER:                 -10.910
REMARK INTRA:                  -0.404
REMARK UNBOUND:                -0.404
REMARK  5 active torsions:
REMARK  status: ('A' for Active; 'I' for Inactive)
REMARK    1  A    between atoms: C_6  and  C_11 
REMARK    2  A    between atoms: C_11  and  C_12 
REMARK    3  A    between atoms: C_12  and  C_13 
REMARK       I    between atoms: C_13  and  N_15 
REMARK    4  A    between atoms: C_17  and  N_21 
REMARK    5  A    between atoms: C_18  and  O_20 
ROOT
ATOM      1  C   UNK d   1      42.315   8.676  43.416  0.00  0.00     0.220 C 
ATOM      2  O   UNK d   1      42.056   8.335  42.235  0.00  0.00    -0.273 OA
ATOM      3  N   UNK d   1      41.593   9.749  43.978  0.00  0.00    -0.348 N 
ATOM      4  C   UNK d   1      41.678  10.362  45.288  0.00  0.00     0.154 C 
ATOM      5  C   UNK d   1      41.527  11.790  45.007  0.00  0.00     0.142 C 
ATOM      6  C   UNK d   1      41.067  11.919  43.553  0.00  0.00     0.161 C 
ATOM      7  C   UNK d   1      40.557  10.484  43.301  0.00  0.00     0.159 C 
ENDROOT
BRANCH   1   8
ATOM      8  C   UNK d   1      43.363   7.932  44.145  0.00  0.00     0.110 C 
BRANCH   8   9
ATOM      9  C   UNK d   1      44.724   8.369  43.695  0.00  0.00     0.087 C 
BRANCH   9  10
ATOM     10  C   UNK d   1      45.615   7.215  43.472  0.00  0.00     0.105 A 
ATOM     11  N   UNK d   1      46.665   6.861  44.263  0.00  0.00    -0.343 N 
ATOM     12  C   UNK d   1      47.287   5.771  43.787  0.00  0.00     0.064 A 
ATOM     13  H   UNK d   1      46.992   7.339  45.139  0.00  0.00     0.167 HD
ATOM     14  C   UNK d   1      48.374   5.015  44.191  0.00  0.00     0.055 A 
ATOM     15  C   UNK d   1      46.609   5.410  42.648  0.00  0.00     0.085 A 
ATOM     16  C   UNK d   1      48.780   3.907  43.459  0.00  0.00     0.036 A 
ATOM     17 Cl   UNK d   1      50.157   2.968  43.985  0.00  0.00    -0.084 Cl
ATOM     18  C   UNK d   1      48.104   3.541  42.316  0.00  0.00     0.026 A 
ATOM     19  C   UNK d   1      47.017   4.309  41.925  0.00  0.00     0.036 A 
ATOM     20  N   UNK d   1      45.612   6.288  42.477  0.00  0.00    -0.233 NA
ENDBRANCH   9  10
ENDBRANCH   8   9
ENDBRANCH   1   8
BRANCH   5  21
ATOM     21  N   UNK d   1      42.548  12.716  45.309  0.00  0.00    -0.300 N 
ATOM     22  C   UNK d   1      42.226  13.762  46.117  0.00  0.00     0.108 A 
ATOM     23  C   UNK d   1      43.151  14.718  46.473  0.00  0.00     0.022 A 
ATOM     24  C   UNK d   1      44.445  14.635  46.013  0.00  0.00     0.256 A 
ATOM     25  C   UNK d   1      42.781  15.865  47.365  0.00  0.00     0.056 C 
ATOM     26  O   UNK d   1      45.317  15.500  46.325  0.00  0.00    -0.267 OA
ATOM     27  N   UNK d   1      44.762  13.602  45.217  0.00  0.00    -0.275 N 
ATOM     28  C   UNK d   1      43.822  12.707  44.906  0.00  0.00     0.329 A 
ATOM     29  H   UNK d   1      45.758  13.515  44.844  0.00  0.00     0.173 HD
ATOM     30  O   UNK d   1      44.174  11.767  44.164  0.00  0.00    -0.246 OA
ENDBRANCH   5  21
BRANCH   6  31
ATOM     31  O   UNK d   1      40.058  12.833  43.386  0.00  0.00    -0.392 OA
ATOM     32  H   UNK d   1      39.245  12.482  43.828  0.00  0.00     0.210 HD
ENDBRANCH   6  31
TORSDOF 5
ENDMDL
