/Users/jonathanwahrer/Desktop/Msc/3_Semester/Drug_Design_Praktikum/waehrer_HTS_screening/HTS_experiment/out/docking_results/vina_output/2qfa/1690_docked.pdbqt
 OpenBabel03162220573D

 34 37  0  0  1  0  0  0  0  0999 V2000
   39.6700   11.6370   46.4780 C   0  0  0  0  0  0  0  0  0  0  0  0
   40.0490   12.0570   47.6020 O   0  0  0  0  0  0  0  0  0  0  0  0
   40.5900   11.5100   45.3950 N   0  0  0  0  0  0  0  0  0  0  0  0
   40.2270   11.0360   44.0780 C   0  0  0  0  0  2  0  0  0  0  0  0
   41.3600   10.1800   43.4860 C   0  0  2  0  0  0  0  0  0  0  0  0
   42.1060    9.6110   44.6440 C   0  0  2  0  0  3  0  0  0  0  0  0
   42.9000   10.7100   45.3140 C   0  0  0  0  0  2  0  0  0  0  0  0
   41.9750   11.8720   45.6100 C   0  0  0  0  0  2  0  0  0  0  0  0
   42.1550   11.0730   42.5870 C   0  0  0  0  0  1  0  0  0  0  0  0
   38.2630   11.2660   46.2490 C   0  0  0  0  0  2  0  0  0  0  0  0
   37.3650   12.2770   46.9030 C   0  0  0  0  0  2  0  0  0  0  0  0
   36.8580   13.2100   45.8680 C   0  0  0  0  0  0  0  0  0  0  0  0
   37.1010   13.0940   44.5340 N   0  0  0  0  0  0  0  0  0  0  0  0
   36.5190   14.0940   43.8600 C   0  0  0  0  0  0  0  0  0  0  0  0
   37.6740   12.3080   44.1200 H   0  0  0  0  0  0  0  0  0  0  0  0
   36.4600   14.4290   42.5280 C   0  0  0  0  0  3  0  0  0  0  0  0
   35.8850   14.8720   44.7990 C   0  0  0  0  0  0  0  0  0  0  0  0
   35.7740   15.5450   42.0830 C   0  0  0  0  0  0  0  0  0  0  0  0
   35.6930   15.9810   40.3910 Cl  0  0  0  0  0  0  0  0  0  0  0  0
   35.1380   16.3240   43.0330 C   0  0  0  0  0  3  0  0  0  0  0  0
   35.1950   15.9870   44.3800 C   0  0  0  0  0  3  0  0  0  0  0  0
   36.1180   14.3020   45.9850 N   0  0  0  0  0  0  0  0  0  0  0  0
   40.7140    9.1930   42.7280 O   0  0  0  0  0  0  0  0  0  0  0  0
   41.3660    8.8240   42.0500 H   0  0  0  0  0  0  0  0  0  0  0  0
   42.8670    8.4410   44.3840 N   0  0  0  0  0  0  0  0  0  0  0  0
   43.9770    8.4270   43.6300 C   0  0  0  0  0  3  0  0  0  0  0  0
   44.6960    7.2620   43.3960 C   0  0  0  0  0  0  0  0  0  0  0  0
   44.2600    6.0840   43.9560 C   0  0  0  0  0  0  0  0  0  0  0  0
   45.9330    7.3090   42.5430 C   0  0  0  0  0  1  0  0  0  0  0  0
   44.9150    5.0160   43.7460 O   0  0  0  0  0  0  0  0  0  0  0  0
   43.1510    6.1010   44.7080 N   0  0  0  0  0  0  0  0  0  0  0  0
   42.4900    7.2540   44.9050 C   0  0  0  0  0  0  0  0  0  0  0  0
   42.8100    5.2150   45.1380 H   0  0  0  0  0  0  0  0  0  0  0  0
   41.4300    7.2660   45.6250 O   0  0  0  0  0  0  0  0  0  0  0  0
  1  2  2  0  0  0  0
  3  8  1  0  0  0  0
  3  1  1  0  0  0  0
  4  3  1  0  0  0  0
  5  9  1  6  0  0  0
  5  4  1  0  0  0  0
  5  6  1  0  0  0  0
  6 25  1  6  0  0  0
  6  7  1  0  0  0  0
  7  8  1  0  0  0  0
 10  1  1  0  0  0  0
 10 11  1  0  0  0  0
 12 22  2  0  0  0  0
 12 11  1  0  0  0  0
 13 12  1  0  0  0  0
 14 13  1  0  0  0  0
 14 17  1  0  0  0  0
 15 13  1  0  0  0  0
 16 14  2  0  0  0  0
 17 22  1  0  0  0  0
 18 16  1  0  0  0  0
 18 20  2  0  0  0  0
 19 18  1  0  0  0  0
 20 21  1  0  0  0  0
 21 17  2  0  0  0  0
 23  5  1  0  0  0  0
 24 23  1  0  0  0  0
 25 32  1  0  0  0  0
 26 25  1  0  0  0  0
 27 26  2  0  0  0  0
 27 28  1  0  0  0  0
 28 31  1  0  0  0  0
 29 27  1  0  0  0  0
 30 28  2  0  0  0  0
 31 32  1  0  0  0  0
 31 33  1  0  0  0  0
 32 34  2  0  0  0  0
M  END
>  <Pose>
1

>  <Score>
-8.169

$$$$
