MODEL 1
REMARK VINA RESULT:    -8.169      0.000      0.000
REMARK INTER + INTRA:         -11.178
REMARK INTER:                 -10.318
REMARK INTRA:                  -0.860
REMARK UNBOUND:                -0.860
REMARK  5 active torsions:
REMARK  status: ('A' for Active; 'I' for Inactive)
REMARK    1  A    between atoms: C_6  and  C_11 
REMARK    2  A    between atoms: C_11  and  C_12 
REMARK    3  A    between atoms: C_12  and  C_13 
REMARK       I    between atoms: C_13  and  N_15 
REMARK    4  A    between atoms: C_17  and  O_30 
REMARK    5  A    between atoms: C_18  and  N_21 
ROOT
ATOM      1  C   UNK d   1      39.670  11.637  46.478  0.00  0.00     0.220 C 
ATOM      2  O   UNK d   1      40.049  12.057  47.602  0.00  0.00    -0.273 OA
ATOM      3  N   UNK d   1      40.590  11.510  45.395  0.00  0.00    -0.349 N 
ATOM      4  C   UNK d   1      40.227  11.036  44.078  0.00  0.00     0.165 C 
ATOM      5  C   UNK d   1      41.360  10.180  43.486  0.00  0.00     0.091 C 
ATOM      6  C   UNK d   1      42.106   9.611  44.644  0.00  0.00     0.131 C 
ATOM      7  C   UNK d   1      42.900  10.710  45.314  0.00  0.00     0.049 C 
ATOM      8  C   UNK d   1      41.975  11.872  45.610  0.00  0.00     0.128 C 
ATOM      9  C   UNK d   1      42.155  11.073  42.587  0.00  0.00     0.050 C 
ENDROOT
BRANCH   1  10
ATOM     10  C   UNK d   1      38.263  11.266  46.249  0.00  0.00     0.110 C 
BRANCH  10  11
ATOM     11  C   UNK d   1      37.365  12.277  46.903  0.00  0.00     0.087 C 
BRANCH  11  12
ATOM     12  C   UNK d   1      36.858  13.210  45.868  0.00  0.00     0.105 A 
ATOM     13  N   UNK d   1      37.101  13.094  44.534  0.00  0.00    -0.343 N 
ATOM     14  C   UNK d   1      36.519  14.094  43.860  0.00  0.00     0.064 A 
ATOM     15  H   UNK d   1      37.674  12.308  44.120  0.00  0.00     0.167 HD
ATOM     16  C   UNK d   1      36.460  14.429  42.528  0.00  0.00     0.055 A 
ATOM     17  C   UNK d   1      35.885  14.872  44.799  0.00  0.00     0.085 A 
ATOM     18  C   UNK d   1      35.774  15.545  42.083  0.00  0.00     0.036 A 
ATOM     19 Cl   UNK d   1      35.693  15.981  40.391  0.00  0.00    -0.084 Cl
ATOM     20  C   UNK d   1      35.138  16.324  43.033  0.00  0.00     0.026 A 
ATOM     21  C   UNK d   1      35.195  15.987  44.380  0.00  0.00     0.036 A 
ATOM     22  N   UNK d   1      36.118  14.302  45.985  0.00  0.00    -0.233 NA
ENDBRANCH  11  12
ENDBRANCH  10  11
ENDBRANCH   1  10
BRANCH   5  23
ATOM     23  O   UNK d   1      40.714   9.193  42.728  0.00  0.00    -0.386 OA
ATOM     24  H   UNK d   1      41.366   8.824  42.050  0.00  0.00     0.210 HD
ENDBRANCH   5  23
BRANCH   6  25
ATOM     25  N   UNK d   1      42.867   8.441  44.384  0.00  0.00    -0.301 N 
ATOM     26  C   UNK d   1      43.977   8.427  43.630  0.00  0.00     0.108 A 
ATOM     27  C   UNK d   1      44.696   7.262  43.396  0.00  0.00     0.022 A 
ATOM     28  C   UNK d   1      44.260   6.084  43.956  0.00  0.00     0.256 A 
ATOM     29  C   UNK d   1      45.933   7.309  42.543  0.00  0.00     0.056 C 
ATOM     30  O   UNK d   1      44.915   5.016  43.746  0.00  0.00    -0.267 OA
ATOM     31  N   UNK d   1      43.151   6.101  44.708  0.00  0.00    -0.275 N 
ATOM     32  C   UNK d   1      42.490   7.254  44.905  0.00  0.00     0.329 A 
ATOM     33  H   UNK d   1      42.810   5.215  45.138  0.00  0.00     0.173 HD
ATOM     34  O   UNK d   1      41.430   7.266  45.625  0.00  0.00    -0.246 OA
ENDBRANCH   6  25
TORSDOF 5
ENDMDL
