/Users/jonathanwahrer/Desktop/Msc/3_Semester/Drug_Design_Praktikum/waehrer_HTS_screening/HTS_experiment/out/docking_results/vina_output/2qfa/1691_docked.pdbqt
 OpenBabel03162220573D

 35 39  0  0  1  0  0  0  0  0999 V2000
   44.5930    7.3690   44.2840 C   0  0  0  0  0  0  0  0  0  0  0  0
   45.4280    7.5180   45.1970 O   0  0  0  0  0  0  0  0  0  0  0  0
   43.7180    8.4150   43.9500 N   0  0  0  0  0  0  0  0  0  0  0  0
   43.5600    9.7300   44.4860 C   0  0  0  0  0  2  0  0  0  0  0  0
   42.0280    9.9430   44.5400 C   0  0  1  0  0  3  0  0  0  0  0  0
   41.6270    9.1900   43.3210 C   0  0  2  0  0  3  0  0  0  0  0  0
   42.7500    8.3170   42.8750 C   0  0  0  0  0  2  0  0  0  0  0  0
   44.5340    6.0880   43.5630 C   0  0  0  0  0  2  0  0  0  0  0  0
   45.4800    6.1000   42.3830 C   0  0  0  0  0  2  0  0  0  0  0  0
   46.6510    5.2150   42.6890 C   0  0  0  0  0  0  0  0  0  0  0  0
   46.9950    4.1300   41.9740 N   0  0  0  0  0  0  0  0  0  0  0  0
   48.0880    3.5420   42.4880 C   0  0  0  0  0  0  0  0  0  0  0  0
   46.4970    3.7620   41.1190 H   0  0  0  0  0  0  0  0  0  0  0  0
   48.8290    2.4160   42.1300 C   0  0  0  0  0  3  0  0  0  0  0  0
   48.4450    4.3000   43.5830 C   0  0  0  0  0  0  0  0  0  0  0  0
   49.9280    2.0530   42.8720 C   0  0  0  0  0  0  0  0  0  0  0  0
   50.8960    0.6420   42.4610 Cl  0  0  0  0  0  0  0  0  0  0  0  0
   50.2790    2.8080   43.9560 C   0  0  0  0  0  3  0  0  0  0  0  0
   49.5470    3.9360   44.3260 C   0  0  0  0  0  3  0  0  0  0  0  0
   47.5490    5.3060   43.6700 N   0  0  0  0  0  0  0  0  0  0  0  0
   41.5310    9.3930   45.7690 N   0  0  0  0  0  0  0  0  0  0  0  0
   40.4320    9.7520   46.4530 C   0  0  0  0  0  0  0  0  0  0  0  0
   40.3320    8.9410   47.6020 C   0  0  0  0  0  0  0  0  0  0  0  0
   39.4910   10.6890   46.2230 N   0  0  0  0  0  0  0  0  0  0  0  0
   41.3910    8.1160   47.5660 N   0  0  0  0  0  0  0  0  0  0  0  0
   39.2930    9.0900   48.4930 C   0  0  0  0  0  0  0  0  0  0  0  0
   42.1160    8.3710   46.4800 C   0  0  0  0  0  3  0  0  0  0  0  0
   39.2310    8.3500   49.5110 O   0  0  0  0  0  0  0  0  0  0  0  0
   38.3790   10.0310   48.2300 N   0  0  0  0  0  0  0  0  0  0  0  0
   38.4810   10.7930   47.1400 C   0  0  0  0  0  0  0  0  0  0  0  0
   37.2620   10.2130   49.1590 C   0  0  0  0  0  1  0  0  0  0  0  0
   37.6130   11.6750   46.9080 O   0  0  0  0  0  0  0  0  0  0  0  0
   39.5370   11.5420   45.0780 C   0  0  0  0  0  1  0  0  0  0  0  0
   41.3010   10.0140   42.2450 O   0  0  0  0  0  0  0  0  0  0  0  0
   41.7660   10.8960   42.3030 H   0  0  0  0  0  0  0  0  0  0  0  0
  1  2  2  0  0  0  0
  3  1  1  0  0  0  0
  3  4  1  0  0  0  0
  5  4  1  1  0  0  0
  5 21  1  0  0  0  0
  6 34  1  6  0  0  0
  6  5  1  0  0  0  0
  7  6  1  0  0  0  0
  7  3  1  0  0  0  0
  8  1  1  0  0  0  0
  9 10  1  0  0  0  0
  9  8  1  0  0  0  0
 10 20  2  0  0  0  0
 11 12  1  0  0  0  0
 11 10  1  0  0  0  0
 12 15  1  0  0  0  0
 13 11  1  0  0  0  0
 14 12  2  0  0  0  0
 14 16  1  0  0  0  0
 15 20  1  0  0  0  0
 15 19  2  0  0  0  0
 16 18  2  0  0  0  0
 17 16  1  0  0  0  0
 18 19  1  0  0  0  0
 21 22  1  0  0  0  0
 21 27  1  0  0  0  0
 22 23  2  0  0  0  0
 23 26  1  0  0  0  0
 24 22  1  0  0  0  0
 24 30  1  0  0  0  0
 25 23  1  0  0  0  0
 26 28  2  0  0  0  0
 27 25  2  0  0  0  0
 29 26  1  0  0  0  0
 29 31  1  0  0  0  0
 30 29  1  0  0  0  0
 32 30  2  0  0  0  0
 33 24  1  0  0  0  0
 34 35  1  0  0  0  0
M  END
>  <Pose>
1

>  <Score>
-8.366

$$$$
