MODEL 1
REMARK VINA RESULT:    -8.366      0.000      0.000
REMARK INTER + INTRA:         -10.868
REMARK INTER:                 -10.567
REMARK INTRA:                  -0.301
REMARK UNBOUND:                -0.301
REMARK  5 active torsions:
REMARK  status: ('A' for Active; 'I' for Inactive)
REMARK    1  A    between atoms: C_6  and  C_11 
REMARK    2  A    between atoms: C_11  and  C_12 
REMARK    3  A    between atoms: C_12  and  C_13 
REMARK       I    between atoms: C_13  and  N_15 
REMARK    4  A    between atoms: C_17  and  N_21 
REMARK    5  A    between atoms: C_18  and  O_20 
ROOT
ATOM      1  C   UNK d   1      44.593   7.369  44.284  0.00  0.00     0.220 C 
ATOM      2  O   UNK d   1      45.428   7.518  45.197  0.00  0.00    -0.273 OA
ATOM      3  N   UNK d   1      43.718   8.415  43.950  0.00  0.00    -0.348 N 
ATOM      4  C   UNK d   1      43.560   9.730  44.486  0.00  0.00     0.154 C 
ATOM      5  C   UNK d   1      42.028   9.943  44.540  0.00  0.00     0.140 C 
ATOM      6  C   UNK d   1      41.627   9.190  43.321  0.00  0.00     0.161 C 
ATOM      7  C   UNK d   1      42.750   8.317  42.875  0.00  0.00     0.159 C 
ENDROOT
BRANCH   1   8
ATOM      8  C   UNK d   1      44.534   6.088  43.563  0.00  0.00     0.110 C 
BRANCH   8   9
ATOM      9  C   UNK d   1      45.480   6.100  42.383  0.00  0.00     0.087 C 
BRANCH   9  10
ATOM     10  C   UNK d   1      46.651   5.215  42.689  0.00  0.00     0.105 A 
ATOM     11  N   UNK d   1      46.995   4.130  41.974  0.00  0.00    -0.343 N 
ATOM     12  C   UNK d   1      48.088   3.542  42.488  0.00  0.00     0.064 A 
ATOM     13  H   UNK d   1      46.497   3.762  41.119  0.00  0.00     0.167 HD
ATOM     14  C   UNK d   1      48.829   2.416  42.130  0.00  0.00     0.055 A 
ATOM     15  C   UNK d   1      48.445   4.300  43.583  0.00  0.00     0.085 A 
ATOM     16  C   UNK d   1      49.928   2.053  42.872  0.00  0.00     0.036 A 
ATOM     17 Cl   UNK d   1      50.896   0.642  42.461  0.00  0.00    -0.084 Cl
ATOM     18  C   UNK d   1      50.279   2.808  43.956  0.00  0.00     0.026 A 
ATOM     19  C   UNK d   1      49.547   3.936  44.326  0.00  0.00     0.036 A 
ATOM     20  N   UNK d   1      47.549   5.306  43.670  0.00  0.00    -0.233 NA
ENDBRANCH   9  10
ENDBRANCH   8   9
ENDBRANCH   1   8
BRANCH   5  21
ATOM     21  N   UNK d   1      41.531   9.393  45.769  0.00  0.00    -0.316 N 
ATOM     22  C   UNK d   1      40.432   9.752  46.453  0.00  0.00     0.149 A 
ATOM     23  C   UNK d   1      40.332   8.941  47.602  0.00  0.00     0.170 A 
ATOM     24  N   UNK d   1      39.491  10.689  46.223  0.00  0.00    -0.287 N 
ATOM     25  N   UNK d   1      41.391   8.116  47.566  0.00  0.00    -0.234 NA
ATOM     26  C   UNK d   1      39.293   9.090  48.493  0.00  0.00     0.283 A 
ATOM     27  C   UNK d   1      42.116   8.371  46.480  0.00  0.00     0.212 A 
ATOM     28  O   UNK d   1      39.231   8.350  49.511  0.00  0.00    -0.265 OA
ATOM     29  N   UNK d   1      38.379  10.031  48.230  0.00  0.00    -0.269 N 
ATOM     30  C   UNK d   1      38.481  10.793  47.140  0.00  0.00     0.332 A 
ATOM     31  C   UNK d   1      37.262  10.213  49.159  0.00  0.00     0.164 C 
ATOM     32  O   UNK d   1      37.613  11.675  46.908  0.00  0.00    -0.246 OA
ATOM     33  C   UNK d   1      39.537  11.542  45.078  0.00  0.00     0.163 C 
ENDBRANCH   5  21
BRANCH   6  34
ATOM     34  O   UNK d   1      41.301  10.014  42.245  0.00  0.00    -0.392 OA
ATOM     35  H   UNK d   1      41.766  10.896  42.303  0.00  0.00     0.210 HD
ENDBRANCH   6  34
TORSDOF 5
ENDMDL
