/Users/jonathanwahrer/Desktop/Msc/3_Semester/Drug_Design_Praktikum/waehrer_HTS_screening/HTS_experiment/out/docking_results/vina_output/2qfa/1699_docked.pdbqt
 OpenBabel03162220573D

 31 34  0  0  1  0  0  0  0  0999 V2000
   39.1130    8.1650   49.9560 Cl  0  0  0  0  0  0  0  0  0  0  0  0
   39.0830    9.1520   48.5310 C   0  0  0  0  0  0  0  0  0  0  0  0
   40.1920    9.2400   47.7020 C   0  0  0  0  0  3  0  0  0  0  0  0
   40.1830   10.0210   46.5640 C   0  0  0  0  0  0  0  0  0  0  0  0
   39.0410   10.7140   46.2700 C   0  0  0  0  0  0  0  0  0  0  0  0
   37.9020   10.6500   47.0790 C   0  0  0  0  0  3  0  0  0  0  0  0
   37.9460    9.8610   48.2070 C   0  0  0  0  0  3  0  0  0  0  0  0
   39.2320   11.4700   45.0820 N   0  0  0  0  0  0  0  0  0  0  0  0
   40.5530   11.2390   44.6180 C   0  0  0  0  0  0  0  0  0  0  0  0
   41.0020   11.8250   43.5810 O   0  0  0  0  0  0  0  0  0  0  0  0
   41.1750   10.2810   45.5230 C   0  0  2  0  0  0  0  0  0  0  0  0
   41.5770    9.0520   44.8340 N   0  0  0  0  0  0  0  0  0  0  0  0
   42.7660    9.4970   44.1420 C   0  0  1  0  0  3  0  0  0  0  0  0
   43.4890   10.4010   45.0870 C   0  0  2  0  0  3  0  0  0  0  0  0
   42.4640   10.7010   46.1390 C   0  0  1  0  0  3  0  0  0  0  0  0
   42.5550   12.1460   46.4630 C   0  0  0  0  0  0  0  0  0  0  0  0
   41.8920   12.6480   47.4080 O   0  0  0  0  0  0  0  0  0  0  0  0
   43.4660   12.7350   45.5490 N   0  0  0  0  0  0  0  0  0  0  0  0
   43.7250   11.7690   44.5230 C   0  0  0  0  0  0  0  0  0  0  0  0
   44.0840   11.9750   43.3600 O   0  0  0  0  0  0  0  0  0  0  0  0
   38.5130   12.0990   44.6140 H   0  0  0  0  0  0  0  0  0  0  0  0
   41.8770    8.3980   45.5910 H   0  0  0  0  0  0  0  0  0  0  0  0
   43.6130    8.3490   43.6560 C   0  0  2  0  0  3  0  0  0  0  0  0
   43.5380    7.1490   44.5640 C   0  0  0  0  0  1  0  0  0  0  0  0
   44.9240    8.8000   43.5650 O   0  0  0  0  0  0  0  0  0  0  0  0
   45.5860    8.0630   43.6130 H   0  0  0  0  0  0  0  0  0  0  0  0
   44.0260   14.0310   45.6300 C   0  0  0  0  0  2  0  0  0  0  0  0
   45.4940   14.1790   45.7240 C   0  0  0  0  0  3  0  0  0  0  0  0
   46.2080   14.7510   44.5620 C   0  0  0  0  0  3  0  0  0  0  0  0
   47.5060   15.1820   44.7940 O   0  0  0  0  0  0  0  0  0  0  0  0
   47.6220   16.4840   44.2500 C   0  0  0  0  0  1  0  0  0  0  0  0
  2  1  1  0  0  0  0
  3  2  2  0  0  0  0
  4  3  1  0  0  0  0
  5  4  2  0  0  0  0
  5  6  1  0  0  0  0
  6  7  2  0  0  0  0
  7  2  1  0  0  0  0
  8  5  1  0  0  0  0
  9  8  1  0  0  0  0
 10  9  2  0  0  0  0
 11  9  1  6  0  0  0
 11 15  1  0  0  0  0
 11  4  1  0  0  0  0
 12 11  1  0  0  0  0
 12 22  1  0  0  0  0
 13 23  1  1  0  0  0
 13 12  1  0  0  0  0
 13 14  1  0  0  0  0
 14 19  1  6  0  0  0
 14 15  1  0  0  0  0
 15 16  1  6  0  0  0
 16 17  2  0  0  0  0
 18 27  1  0  0  0  0
 18 16  1  0  0  0  0
 19 18  1  0  0  0  0
 20 19  2  0  0  0  0
 21  8  1  0  0  0  0
 23 24  1  1  0  0  0
 25 26  1  0  0  0  0
 25 23  1  0  0  0  0
 27 28  1  0  0  0  0
 29 30  1  0  0  0  0
 29 28  2  0  0  0  0
 31 30  1  0  0  0  0
M  END
>  <Pose>
1

>  <Score>
-6.774

$$$$
