MODEL 1
REMARK VINA RESULT:    -7.484      0.000      0.000
REMARK INTER + INTRA:          -7.484
REMARK INTER:                  -7.484
REMARK INTRA:                   0.000
REMARK UNBOUND:                 0.000
REMARK  0 active torsions:
REMARK  status: ('A' for Active; 'I' for Inactive)
ROOT
ATOM      1  F   UNK d   1      44.117  15.690  46.909  0.00  0.00    -0.202 F 
ATOM      2  C   UNK d   1      44.184  14.595  46.079  0.00  0.00     0.165 A 
ATOM      3  C   UNK d   1      43.140  13.663  46.113  0.00  0.00     0.086 A 
ATOM      4  C   UNK d   1      43.188  12.572  45.299  0.00  0.00     0.030 A 
ATOM      5  C   UNK d   1      44.274  12.385  44.432  0.00  0.00     0.016 A 
ATOM      6  C   UNK d   1      45.280  13.311  44.419  0.00  0.00     0.028 A 
ATOM      7  C   UNK d   1      45.252  14.418  45.233  0.00  0.00     0.074 A 
ATOM      8 Cl   UNK d   1      46.556  15.613  45.211  0.00  0.00    -0.081 Cl
ATOM      9  C   UNK d   1      41.969  11.753  45.531  0.00  0.00     0.222 A 
ATOM     10  N   UNK d   1      42.353  10.444  45.953  0.00  0.00    -0.336 N 
ATOM     11  C   UNK d   1      42.634   9.428  45.015  0.00  0.00     0.141 A 
ATOM     12  N   UNK d   1      43.309   8.299  45.355  0.00  0.00    -0.243 NA
ATOM     13  C   UNK d   1      43.601   7.309  44.506  0.00  0.00     0.119 A 
ATOM     14  C   UNK d   1      43.197   7.413  43.179  0.00  0.00     0.020 A 
ATOM     15  C   UNK d   1      42.514   8.518  42.755  0.00  0.00     0.022 A 
ATOM     16  C   UNK d   1      42.247   9.500  43.684  0.00  0.00     0.077 A 
ATOM     17  C   UNK d   1      41.520  10.723  43.331  0.00  0.00     0.258 C 
ATOM     18  O   UNK d   1      41.144  10.833  42.114  0.00  0.00    -0.267 OA
ATOM     19  N   UNK d   1      41.243  11.731  44.273  0.00  0.00    -0.318 N 
ATOM     20  C   UNK d   1      41.225  12.486  46.561  0.00  0.00     0.277 A 
ATOM     21  O   UNK d   1      40.098  12.158  47.086  0.00  0.00    -0.268 OA
ATOM     22  N   UNK d   1      41.944  13.642  46.904  0.00  0.00    -0.320 N 
ATOM     23  H   UNK d   1      42.436  10.201  46.971  0.00  0.00     0.164 HD
ATOM     24  H   UNK d   1      40.513  12.437  44.023  0.00  0.00     0.166 HD
ATOM     25  H   UNK d   1      41.705  14.394  47.604  0.00  0.00     0.169 HD
ENDROOT
TORSDOF 0
ENDMDL
