/Users/jonathanwahrer/Desktop/Msc/3_Semester/Drug_Design_Praktikum/waehrer_HTS_screening/HTS_experiment/out/docking_results/vina_output/2qfa/1721_docked.pdbqt
 OpenBabel03162220583D

 28 31  0  0  1  0  0  0  0  0999 V2000
   45.1340    7.4670   43.2220 C   0  0  0  0  0  2  0  0  0  0  0  0
   46.4730    7.4760   43.6760 N   0  0  0  0  0  0  0  0  0  0  0  0
   46.9250    8.3450   43.9730 H   0  0  0  0  0  0  0  0  0  0  0  0
   47.2200    6.2370   43.7070 C   0  0  0  0  0  0  0  0  0  0  0  0
   48.0760    6.0580   44.7670 C   0  0  1  0  0  3  0  0  0  0  0  0
   48.8150    4.8800   44.8340 C   0  0  0  0  0  0  0  0  0  0  0  0
   48.4360    6.7570   45.8540 N   0  0  0  0  0  0  0  0  0  0  0  0
   48.6270    4.0040   43.8410 N   0  0  0  0  0  4  0  0  0  0  0  0
   49.5720    4.9270   45.9410 N   0  0  0  0  0  0  0  0  0  0  0  0
   47.8030    4.1670   42.8140 C   0  0  0  0  0  0  0  0  0  0  0  0
   47.6360    2.9540   41.5720 Cl  0  0  0  0  0  0  0  0  0  0  0  0
   47.0850    5.3110   42.7490 N   0  0  0  0  0  0  0  0  0  0  0  0
   49.3470    6.0860   46.5830 C   0  0  0  0  0  3  0  0  0  0  0  0
   48.0250    7.7060   46.0610 H   0  0  0  0  0  0  0  0  0  0  0  0
   44.1210    7.8320   44.2000 C   0  0  0  0  0  0  0  0  0  0  0  0
   44.3920    7.3380   45.4280 O   0  0  0  0  0  0  0  0  0  0  0  0
   42.9710    8.5660   44.1010 N   0  0  0  0  0  0  0  0  0  0  0  0
   42.3700    9.1150   42.9340 C   0  0  0  0  0  2  0  0  0  0  0  0
   42.2570    8.8490   45.4040 C   0  0  0  0  0  2  0  0  0  0  0  0
   42.3460   10.6410   42.9730 C   0  0  0  0  0  2  0  0  0  0  0  0
   42.2350   10.9860   44.3610 N   0  0  0  0  0  0  0  0  0  0  0  0
   41.4470   10.1330   45.2020 C   0  0  0  0  0  2  0  0  0  0  0  0
   42.8610   12.1170   44.9140 C   0  0  0  0  0  0  0  0  0  0  0  0
   42.1780   13.0150   45.6830 N   0  0  0  0  0  0  0  0  0  0  0  0
   42.7050   14.0950   46.2300 C   0  0  0  0  0  3  0  0  0  0  0  0
   44.0240   14.4130   46.0620 C   0  0  0  0  0  3  0  0  0  0  0  0
   44.7780   13.5420   45.2900 C   0  0  0  0  0  3  0  0  0  0  0  0
   44.2030   12.4130   44.7270 C   0  0  0  0  0  3  0  0  0  0  0  0
  1  2  1  0  0  0  0
  1 15  1  0  0  0  0
  2  4  1  0  0  0  0
  2  3  1  0  0  0  0
  5  4  1  6  0  0  0
  5  6  1  0  0  0  0
  5  7  1  0  0  0  0
  6  9  1  0  0  0  0
  7 14  1  0  0  0  0
  7 13  1  0  0  0  0
  8  6  2  0  0  0  0
  9 13  2  0  0  0  0
 10  8  2  0  0  0  0
 11 10  1  0  0  0  0
 12 10  1  0  0  0  0
 12  4  2  0  0  0  0
 15 16  2  0  0  0  0
 17 15  1  0  0  0  0
 17 19  1  0  0  0  0
 18 20  1  0  0  0  0
 18 17  1  0  0  0  0
 20 21  1  0  0  0  0
 21 23  1  0  0  0  0
 21 22  1  0  0  0  0
 22 19  1  0  0  0  0
 23 24  1  0  0  0  0
 24 25  2  0  0  0  0
 26 25  1  0  0  0  0
 27 26  2  0  0  0  0
 28 23  2  0  0  0  0
 28 27  1  0  0  0  0
M  END
>  <Pose>
1

>  <Score>
-7.791

$$$$
