MODEL 1
REMARK VINA RESULT:    -7.435      0.000      0.000
REMARK INTER + INTRA:         -10.167
REMARK INTER:                  -9.825
REMARK INTRA:                  -0.342
REMARK UNBOUND:                -0.342
REMARK  6 active torsions:
REMARK  status: ('A' for Active; 'I' for Inactive)
REMARK    1  A    between atoms: C_3  and  O_10 
REMARK    2  A    between atoms: O_10  and  C_11 
REMARK    3  A    between atoms: C_11  and  C_12 
REMARK    4  A    between atoms: C_12  and  O_13 
REMARK    5  A    between atoms: C_12  and  C_14 
REMARK    6  A    between atoms: C_14  and  N_15 
ROOT
ATOM      1  N   UNK d   1      44.777   6.930  43.156  0.00  0.00    -0.068 N 
ATOM      2  C   UNK d   1      44.261   6.375  44.362  0.00  0.00     0.241 C 
ATOM      3  C   UNK d   1      42.984   6.981  44.851  0.00  0.00     0.031 C 
ATOM      4  C   UNK d   1      43.128   8.345  45.427  0.00  0.00     0.138 C 
ATOM      5  N   UNK d   1      42.496   9.391  44.673  0.00  0.00    -0.317 N 
ATOM      6  C   UNK d   1      42.202   9.318  43.361  0.00  0.00     0.020 A 
ATOM      7  C   UNK d   1      41.602  10.312  42.644  0.00  0.00     0.026 A 
ATOM      8  C   UNK d   1      41.265  11.483  43.291  0.00  0.00     0.007 A 
ATOM      9  C   UNK d   1      41.562  11.567  44.631  0.00  0.00     0.074 A 
ATOM     10  C   UNK d   1      42.167  10.545  45.322  0.00  0.00     0.247 A 
ATOM     11  O   UNK d   1      42.424  10.657  46.549  0.00  0.00    -0.268 OA
ATOM     12  C   UNK d   1      42.598   8.011  42.712  0.00  0.00     0.062 C 
ATOM     13  C   UNK d   1      44.070   8.016  42.594  0.00  0.00     0.245 C 
ATOM     14  C   UNK d   1      42.042   6.960  43.641  0.00  0.00     0.020 C 
ATOM     15  H   UNK d   1      44.797   6.149  42.432  0.00  0.00     0.280 HD
ENDROOT
BRANCH   1  16
ATOM     16  C   UNK d   1      46.170   7.254  43.395  0.00  0.00     0.268 C 
BRANCH  16  17
ATOM     17  C   UNK d   1      46.887   6.256  44.247  0.00  0.00     0.168 C 
BRANCH  17  18
ATOM     18  C   UNK d   1      47.781   5.443  43.311  0.00  0.00     0.209 C 
BRANCH  18  19
ATOM     19  O   UNK d   1      48.215   4.331  44.038  0.00  0.00    -0.346 OA
BRANCH  19  20
ATOM     20  C   UNK d   1      49.267   3.521  43.771  0.00  0.00     0.103 A 
ATOM     21  C   UNK d   1      49.192   2.594  42.756  0.00  0.00     0.046 A 
ATOM     22 Br   UNK d   1      47.580   2.485  41.747  0.00  0.00    -0.048 Br
ATOM     23  C   UNK d   1      50.252   1.743  42.452  0.00  0.00     0.028 A 
ATOM     24  C   UNK d   1      51.406   1.820  43.175  0.00  0.00    -0.059 A 
ATOM     25  C   UNK d   1      51.513   2.741  44.200  0.00  0.00     0.028 A 
ATOM     26  C   UNK d   1      52.540   0.903  42.843  0.00  0.00     0.048 C 
ATOM     27  C   UNK d   1      50.439   3.588  44.492  0.00  0.00     0.046 A 
ATOM     28 Br   UNK d   1      50.576   4.859  45.901  0.00  0.00    -0.048 Br
ENDBRANCH  19  20
ENDBRANCH  18  19
ENDBRANCH  17  18
BRANCH  17  29
ATOM     29  O   UNK d   1      47.638   6.916  45.218  0.00  0.00    -0.392 OA
ATOM     30  H   UNK d   1      46.976   7.379  45.807  0.00  0.00     0.210 HD
ENDBRANCH  17  29
ENDBRANCH  16  17
ENDBRANCH   1  16
TORSDOF 6
ENDMDL
