/Users/jonathanwahrer/Desktop/Msc/3_Semester/Drug_Design_Praktikum/waehrer_HTS_screening/HTS_experiment/out/docking_results/vina_output/2qfa/1732_docked.pdbqt
 OpenBabel03162220593D

 28 31  0  0  0  0  0  0  0  0999 V2000
   42.9370   13.2320   46.7930 N   0  0  0  0  0  0  0  0  0  0  0  0
   43.8730   12.8660   47.6530 N   0  0  0  0  0  2  0  0  0  0  0  0
   45.0200   13.4670   47.3570 N   0  0  0  0  0  0  0  0  0  0  0  0
   44.8180   14.2440   46.2730 C   0  0  0  0  0  0  0  0  0  0  0  0
   43.5240   14.0710   45.9570 N   0  0  0  0  0  2  0  0  0  0  0  0
   41.5320   12.7970   46.7690 C   0  0  0  0  0  2  0  0  0  0  0  0
   41.4050   11.4660   46.1190 C   0  0  0  0  0  0  0  0  0  0  0  0
   42.4640   10.8930   45.4150 N   0  0  0  0  0  0  0  0  0  0  0  0
   43.3570   11.4710   45.3780 H   0  0  0  0  0  0  0  0  0  0  0  0
   40.3080   10.8900   46.2330 O   0  0  0  0  0  0  0  0  0  0  0  0
   42.5120    9.6530   44.7440 C   0  0  0  0  0  0  0  0  0  0  0  0
   42.0540    9.5390   43.4310 C   0  0  0  0  0  0  0  0  0  0  0  0
   41.3700   11.0890   42.5870 Br  0  0  0  0  0  0  0  0  0  0  0  0
   42.0710    8.3660   42.7150 C   0  0  0  0  0  3  0  0  0  0  0  0
   42.5630    7.2240   43.3060 C   0  0  0  0  0  3  0  0  0  0  0  0
   43.0280    7.2730   44.5960 C   0  0  0  0  0  3  0  0  0  0  0  0
   42.9980    8.4820   45.2960 C   0  0  0  0  0  3  0  0  0  0  0  0
   45.8000   15.0840   45.6010 C   0  0  0  0  0  0  0  0  0  0  0  0
   46.1680   16.2610   46.2080 C   0  0  0  0  0  0  0  0  0  0  0  0
   47.1010   17.0590   45.5680 C   0  0  0  0  0  3  0  0  0  0  0  0
   47.6570   16.7110   44.3630 C   0  0  0  0  0  3  0  0  0  0  0  0
   47.2890   15.5300   43.7520 C   0  0  0  0  0  3  0  0  0  0  0  0
   46.3560   14.7330   44.3930 C   0  0  0  0  0  3  0  0  0  0  0  0
   45.6340   16.6910   47.4600 N   0  0  0  0  0  0  0  0  0  0  0  0
   46.2220   16.4780   48.6310 N   0  0  0  0  0  0  0  0  0  0  0  0
   45.4750   16.9970   49.5800 N   0  0  0  0  0  0  0  0  0  0  0  0
   44.4040   17.5430   49.0080 N   0  0  0  0  0  0  0  0  0  0  0  0
   44.5050   17.3500   47.6770 C   0  0  0  0  0  3  0  0  0  0  0  0
  1  2  1  0  0  0  0
  3  2  1  0  0  0  0
  4  3  2  0  0  0  0
  5  4  1  0  0  0  0
  5  1  1  0  0  0  0
  6  1  1  0  0  0  0
  7 10  2  0  0  0  0
  7  6  1  0  0  0  0
  8  7  1  0  0  0  0
  9  8  1  0  0  0  0
 11 17  1  0  0  0  0
 11  8  1  0  0  0  0
 12 11  2  0  0  0  0
 13 12  1  0  0  0  0
 14 15  2  0  0  0  0
 14 12  1  0  0  0  0
 15 16  1  0  0  0  0
 16 17  2  0  0  0  0
 18 19  1  0  0  0  0
 18  4  1  0  0  0  0
 19 24  1  0  0  0  0
 20 19  2  0  0  0  0
 21 20  1  0  0  0  0
 22 21  2  0  0  0  0
 22 23  1  0  0  0  0
 23 18  2  0  0  0  0
 24 28  1  0  0  0  0
 24 25  1  0  0  0  0
 25 26  2  0  0  0  0
 27 26  1  0  0  0  0
 28 27  2  0  0  0  0
M  END
>  <Pose>
1

>  <Score>
-7.253

$$$$
