MODEL 1
REMARK VINA RESULT:    -7.321      0.000      0.000
REMARK INTER + INTRA:         -10.299
REMARK INTER:                  -9.247
REMARK INTRA:                  -1.052
REMARK UNBOUND:                -1.052
REMARK  5 active torsions:
REMARK  status: ('A' for Active; 'I' for Inactive)
REMARK    1  A    between atoms: C_13  and  C_30 
REMARK    2  A    between atoms: N_18  and  C_21 
REMARK    3  A    between atoms: C_21  and  C_22 
REMARK    4  A    between atoms: C_23  and  O_28 
REMARK    5  A    between atoms: C_30  and  O_31 
ROOT
ATOM      1 Cl   UNK d   1      41.752   8.120  48.539  0.00  0.00    -0.084 Cl
ATOM      2  C   UNK d   1      41.773   8.424  46.795  0.00  0.00     0.034 A 
ATOM      3  C   UNK d   1      41.465   9.664  46.291  0.00  0.00     0.036 A 
ATOM      4  C   UNK d   1      41.484   9.891  44.941  0.00  0.00     0.019 A 
ATOM      5  C   UNK d   1      41.815   8.865  44.092  0.00  0.00     0.044 A 
ATOM      6  C   UNK d   1      42.134   7.596  44.573  0.00  0.00     0.032 A 
ATOM      7  C   UNK d   1      42.106   7.400  45.936  0.00  0.00     0.026 A 
ATOM      8  N   UNK d   1      41.778   9.287  42.741  0.00  0.00    -0.324 N 
ATOM      9  C   UNK d   1      41.400  10.656  42.756  0.00  0.00     0.267 A 
ATOM     10  O   UNK d   1      41.255  11.381  41.748  0.00  0.00    -0.270 OA
ATOM     11  C   UNK d   1      41.201  11.107  44.146  0.00  0.00     0.279 A 
ATOM     12  N   UNK d   1      39.872  11.618  44.377  0.00  0.00     0.116 N 
ATOM     13  C   UNK d   1      39.978  12.714  45.288  0.00  0.00     0.264 C 
ATOM     14  C   UNK d   1      41.305  13.384  45.016  0.00  0.00     0.130 C 
ATOM     15  C   UNK d   1      42.109  12.243  44.447  0.00  0.00     0.147 C 
ATOM     16  C   UNK d   1      43.166  11.937  45.442  0.00  0.00     0.235 C 
ATOM     17  O   UNK d   1      43.838  10.885  45.585  0.00  0.00    -0.272 OA
ATOM     18  N   UNK d   1      43.293  13.121  46.256  0.00  0.00    -0.283 N 
ATOM     19  C   UNK d   1      42.018  13.796  46.252  0.00  0.00     0.234 C 
ATOM     20  O   UNK d   1      41.572  14.589  47.121  0.00  0.00    -0.272 OA
ATOM     21  H   UNK d   1      41.982   8.729  41.861  0.00  0.00     0.169 HD
ATOM     22  H   UNK d   1      39.259  10.873  44.724  0.00  0.00     0.318 HD
ENDROOT
BRANCH  13  23
ATOM     23  C   UNK d   1      38.823  13.681  45.144  0.00  0.00     0.148 C 
ATOM     24  C   UNK d   1      37.551  12.876  45.393  0.00  0.00     0.041 C 
BRANCH  23  25
ATOM     25  O   UNK d   1      38.913  14.602  46.184  0.00  0.00    -0.394 OA
ATOM     26  H   UNK d   1      39.843  14.912  46.269  0.00  0.00     0.210 HD
ENDBRANCH  23  25
ENDBRANCH  13  23
BRANCH  18  27
ATOM     27  C   UNK d   1      44.476  13.570  46.959  0.00  0.00     0.176 C 
BRANCH  27  28
ATOM     28  C   UNK d   1      45.309  14.429  46.064  0.00  0.00    -0.006 A 
ATOM     29  C   UNK d   1      45.722  15.680  46.470  0.00  0.00     0.076 A 
ATOM     30  C   UNK d   1      46.494  16.456  45.622  0.00  0.00     0.037 A 
ATOM     31  C   UNK d   1      46.870  16.016  44.368  0.00  0.00     0.003 A 
ATOM     32  C   UNK d   1      46.462  14.768  43.952  0.00  0.00     0.001 A 
ATOM     33  C   UNK d   1      45.696  14.006  44.805  0.00  0.00     0.011 A 
BRANCH  29  34
ATOM     34  O   UNK d   1      45.340  16.123  47.740  0.00  0.00    -0.355 OA
ATOM     35  C   UNK d   1      44.351  17.154  47.830  0.00  0.00     0.210 C 
ENDBRANCH  29  34
ENDBRANCH  27  28
ENDBRANCH  18  27
TORSDOF 5
ENDMDL
