MODEL 1
REMARK VINA RESULT:    -8.943      0.000      0.000
REMARK INTER + INTRA:         -12.016
REMARK INTER:                 -11.295
REMARK INTRA:                  -0.721
REMARK UNBOUND:                -0.721
REMARK  5 active torsions:
REMARK  status: ('A' for Active; 'I' for Inactive)
REMARK    1  A    between atoms: C_4  and  N_8 
REMARK    2  A    between atoms: C_14  and  C_17 
REMARK    3  A    between atoms: C_19  and  C_22 
REMARK    4  A    between atoms: C_24  and  O_30 
REMARK    5  A    between atoms: C_25  and  O_28 
ROOT
ATOM      1  N   UNK d   1      44.666  13.195  47.052  0.00  0.00    -0.233 N 
ATOM      2  C   UNK d   1      45.469  12.306  47.827  0.00  0.00     0.336 C 
ATOM      3  O   UNK d   1      46.592  12.612  48.295  0.00  0.00    -0.246 OA
ATOM      4  N   UNK d   1      44.967  10.996  48.085  0.00  0.00    -0.277 N 
ATOM      5  C   UNK d   1      43.685  10.617  47.562  0.00  0.00     0.244 C 
ATOM      6  O   UNK d   1      43.196   9.532  48.024  0.00  0.00    -0.272 OA
ATOM      7  C   UNK d   1      42.968  11.420  46.554  0.00  0.00     0.221 C 
ATOM      8  C   UNK d   1      43.392  12.841  46.530  0.00  0.00     0.251 C 
ATOM      9  O   UNK d   1      42.604  13.689  46.043  0.00  0.00    -0.271 OA
ATOM     10  H   UNK d   1      45.507  10.289  48.648  0.00  0.00     0.173 HD
ENDROOT
BRANCH   7  11
ATOM     11  C   UNK d   1      43.126  10.812  45.181  0.00  0.00     0.041 C 
ATOM     12  C   UNK d   1      42.290   9.934  44.659  0.00  0.00     0.026 C 
ATOM     13  C   UNK d   1      42.839   9.622  43.321  0.00  0.00     0.134 C 
ATOM     14  N   UNK d   1      43.537  10.851  42.989  0.00  0.00    -0.228 NA
ATOM     15  N   UNK d   1      44.158  11.099  44.238  0.00  0.00    -0.323 N 
ATOM     16  H   UNK d   1      44.189  10.786  42.203  0.00  0.00     0.147 HD
ATOM     17  H   UNK d   1      45.098  11.406  44.488  0.00  0.00     0.180 HD
BRANCH  13  18
ATOM     18  C   UNK d   1      43.791   8.479  43.395  0.00  0.00    -0.032 A 
ATOM     19  C   UNK d   1      45.129   8.555  43.132  0.00  0.00     0.048 A 
ATOM     20  C   UNK d   1      45.978   7.472  43.254  0.00  0.00     0.099 A 
ATOM     21  C   UNK d   1      45.487   6.242  43.655  0.00  0.00     0.101 A 
ATOM     22  C   UNK d   1      44.110   6.171  43.923  0.00  0.00     0.040 A 
ATOM     23  C   UNK d   1      43.280   7.259  43.795  0.00  0.00     0.012 A 
BRANCH  20  24
ATOM     24  O   UNK d   1      47.348   7.603  42.970  0.00  0.00    -0.358 OA
ATOM     25  H   UNK d   1      47.931   6.775  43.042  0.00  0.00     0.217 HD
ENDBRANCH  20  24
BRANCH  21  26
ATOM     26  O   UNK d   1      46.301   5.144  43.791  0.00  0.00    -0.353 OA
ATOM     27  C   UNK d   1      46.655   4.336  42.688  0.00  0.00     0.210 C 
ENDBRANCH  21  26
ENDBRANCH  13  18
ENDBRANCH   7  11
BRANCH   1  28
ATOM     28  C   UNK d   1      45.194  14.491  46.793  0.00  0.00     0.048 A 
ATOM     29  C   UNK d   1      45.947  14.748  45.661  0.00  0.00     0.054 A 
ATOM     30  C   UNK d   1      46.459  15.989  45.373  0.00  0.00     0.036 A 
ATOM     31 Cl   UNK d   1      47.407  16.264  43.936  0.00  0.00    -0.084 Cl
ATOM     32  C   UNK d   1      46.198  17.012  46.267  0.00  0.00     0.024 A 
ATOM     33  C   UNK d   1      45.452  16.797  47.408  0.00  0.00     0.004 A 
ATOM     34  C   UNK d   1      44.957  15.520  47.653  0.00  0.00     0.030 A 
ENDBRANCH   1  28
TORSDOF 5
ENDMDL
