MODEL 1
REMARK VINA RESULT:    -8.392      0.000      0.000
REMARK INTER + INTRA:         -11.326
REMARK INTER:                 -10.599
REMARK INTRA:                  -0.726
REMARK UNBOUND:                -0.726
REMARK  5 active torsions:
REMARK  status: ('A' for Active; 'I' for Inactive)
REMARK    1  A    between atoms: C_4  and  N_8 
REMARK    2  A    between atoms: C_14  and  C_17 
REMARK    3  A    between atoms: C_19  and  C_22 
REMARK    4  A    between atoms: C_24  and  O_29 
REMARK    5  A    between atoms: C_25  and  O_28 
ROOT
ATOM      1  N   UNK d   1      42.795  12.894  46.794  0.00  0.00    -0.233 N 
ATOM      2  C   UNK d   1      42.968  11.679  47.505  0.00  0.00     0.336 C 
ATOM      3  O   UNK d   1      44.033  11.410  48.078  0.00  0.00    -0.246 OA
ATOM      4  N   UNK d   1      41.895  10.728  47.571  0.00  0.00    -0.277 N 
ATOM      5  C   UNK d   1      40.646  10.986  46.932  0.00  0.00     0.244 C 
ATOM      6  O   UNK d   1      39.590  10.439  47.292  0.00  0.00    -0.272 OA
ATOM      7  C   UNK d   1      40.623  11.956  45.780  0.00  0.00     0.221 C 
ATOM      8  C   UNK d   1      41.506  13.075  46.170  0.00  0.00     0.251 C 
ATOM      9  O   UNK d   1      41.156  14.293  45.966  0.00  0.00    -0.271 OA
ATOM     10  H   UNK d   1      42.042   9.853  48.090  0.00  0.00     0.173 HD
ENDROOT
BRANCH   7  11
ATOM     11  C   UNK d   1      41.074  11.256  44.540  0.00  0.00     0.041 C 
ATOM     12  C   UNK d   1      42.222  11.356  43.902  0.00  0.00     0.026 C 
ATOM     13  C   UNK d   1      42.189  10.453  42.718  0.00  0.00     0.134 C 
ATOM     14  N   UNK d   1      40.724  10.349  42.497  0.00  0.00    -0.228 NA
ATOM     15  N   UNK d   1      40.249  10.335  43.815  0.00  0.00    -0.323 N 
ATOM     16  H   UNK d   1      40.390  11.173  41.958  0.00  0.00     0.147 HD
ATOM     17  H   UNK d   1      39.482   9.795  44.202  0.00  0.00     0.180 HD
BRANCH  13  18
ATOM     18  C   UNK d   1      42.626   9.093  43.134  0.00  0.00    -0.032 A 
ATOM     19  C   UNK d   1      43.948   8.842  43.561  0.00  0.00     0.048 A 
ATOM     20  C   UNK d   1      44.384   7.624  43.982  0.00  0.00     0.101 A 
ATOM     21  C   UNK d   1      43.505   6.558  44.004  0.00  0.00     0.099 A 
ATOM     22  C   UNK d   1      42.208   6.766  43.594  0.00  0.00     0.040 A 
ATOM     23  C   UNK d   1      41.781   8.004  43.169  0.00  0.00     0.012 A 
BRANCH  20  24
ATOM     24  O   UNK d   1      45.710   7.429  44.393  0.00  0.00    -0.353 OA
ATOM     25  C   UNK d   1      46.699   7.142  43.428  0.00  0.00     0.210 C 
ENDBRANCH  20  24
BRANCH  21  26
ATOM     26  O   UNK d   1      43.933   5.306  44.434  0.00  0.00    -0.358 OA
ATOM     27  H   UNK d   1      43.310   4.741  44.996  0.00  0.00     0.217 HD
ENDBRANCH  21  26
ENDBRANCH  13  18
ENDBRANCH   7  11
BRANCH   1  28
ATOM     28  C   UNK d   1      43.775  13.918  46.694  0.00  0.00     0.048 A 
ATOM     29  C   UNK d   1      44.610  13.912  45.570  0.00  0.00     0.054 A 
ATOM     30  C   UNK d   1      45.599  14.852  45.388  0.00  0.00     0.036 A 
ATOM     31 Cl   UNK d   1      46.593  14.762  43.959  0.00  0.00    -0.084 Cl
ATOM     32  C   UNK d   1      45.814  15.845  46.306  0.00  0.00     0.024 A 
ATOM     33  C   UNK d   1      44.985  15.861  47.431  0.00  0.00     0.004 A 
ATOM     34  C   UNK d   1      43.998  14.915  47.606  0.00  0.00     0.030 A 
ENDBRANCH   1  28
TORSDOF 5
ENDMDL
