MODEL 1
REMARK VINA RESULT:    -6.964      0.000      0.000
REMARK INTER + INTRA:          -8.815
REMARK INTER:                  -8.185
REMARK INTRA:                  -0.630
REMARK UNBOUND:                -0.630
REMARK  3 active torsions:
REMARK  status: ('A' for Active; 'I' for Inactive)
REMARK    1  A    between atoms: S_1  and  N_4 
REMARK    2  A    between atoms: S_1  and  N_22 
REMARK       I    between atoms: N_7  and  C_10 
REMARK    3  A    between atoms: C_10  and  C_12 
ROOT
ATOM      1  N   UNK d   1      43.590  13.767  47.205  0.00  0.00    -0.295 N 
ATOM      2  C   UNK d   1      43.310  12.471  47.744  0.00  0.00     0.156 C 
ATOM      3  C   UNK d   1      43.208  11.403  46.672  0.00  0.00     0.147 C 
ATOM      4  N   UNK d   1      42.349  11.878  45.620  0.00  0.00    -0.344 N 
ATOM      5  C   UNK d   1      41.670  13.144  45.812  0.00  0.00     0.147 C 
ATOM      6  C   UNK d   1      42.726  14.174  46.150  0.00  0.00     0.156 C 
ATOM      7  C   UNK d   1      42.142  11.159  44.407  0.00  0.00     0.274 C 
ATOM      8  O   UNK d   1      41.390  11.595  43.505  0.00  0.00    -0.266 OA
ENDROOT
BRANCH   7   9
ATOM      9  C   UNK d   1      42.810   9.876  44.179  0.00  0.00     0.142 A 
ATOM     10  N   UNK d   1      42.416   8.664  44.658  0.00  0.00    -0.224 NA
ATOM     11  C   UNK d   1      43.279   7.727  44.237  0.00  0.00     0.134 A 
ATOM     12  N   UNK d   1      44.203   8.344  43.502  0.00  0.00    -0.313 N 
ATOM     13  C   UNK d   1      43.356   6.356  44.425  0.00  0.00     0.052 A 
ATOM     14  C   UNK d   1      43.940   9.657  43.451  0.00  0.00     0.135 A 
ATOM     15  C   UNK d   1      45.194   7.612  42.958  0.00  0.00     0.122 A 
ATOM     16  C   UNK d   1      45.319   6.259  43.110  0.00  0.00     0.050 A 
ATOM     17  C   UNK d   1      44.364   5.597  43.874  0.00  0.00     0.029 A 
ATOM     18 Cl   UNK d   1      46.629   5.333  42.384  0.00  0.00    -0.083 Cl
ENDBRANCH   7   9
BRANCH   1  19
ATOM     19  S   UNK d   1      45.226  14.123  46.972  0.00  0.00     0.301 S 
ATOM     20  O   UNK d   1      46.069  12.975  47.423  0.00  0.00    -0.188 OA
ATOM     21  O   UNK d   1      45.465  14.340  45.505  0.00  0.00    -0.188 OA
BRANCH  19  22
ATOM     22  N   UNK d   1      45.753  15.538  47.792  0.00  0.00    -0.189 NA
ATOM     23  C   UNK d   1      44.977  15.805  48.989  0.00  0.00     0.135 C 
ATOM     24  C   UNK d   1      45.105  17.280  49.284  0.00  0.00     0.183 C 
ATOM     25  O   UNK d   1      46.355  17.771  48.923  0.00  0.00    -0.389 OA
ATOM     26  C   UNK d   1      46.554  17.771  47.544  0.00  0.00     0.183 C 
ATOM     27  C   UNK d   1      45.636  16.718  46.956  0.00  0.00     0.135 C 
ENDBRANCH  19  22
ENDBRANCH   1  19
TORSDOF 3
ENDMDL
