MODEL 1
REMARK VINA RESULT:    -8.111      0.000      0.000
REMARK INTER + INTRA:         -10.920
REMARK INTER:                 -10.008
REMARK INTRA:                  -0.912
REMARK UNBOUND:                -0.912
REMARK  4 active torsions:
REMARK  status: ('A' for Active; 'I' for Inactive)
REMARK    1  A    between atoms: C_5  and  N_8 
REMARK    2  A    between atoms: C_12  and  C_13 
REMARK    3  A    between atoms: C_13  and  N_14 
REMARK    4  A    between atoms: N_14  and  C_15 
ROOT
ATOM      1  N   UNK d   1      45.962   5.729  43.483  0.00  0.00    -0.220 N 
ATOM      2  N   UNK d   1      44.791   5.436  44.020  0.00  0.00    -0.291 N 
ATOM      3  C   UNK d   1      43.933   6.473  43.945  0.00  0.00     0.056 A 
ATOM      4  C   UNK d   1      42.694   6.556  44.367  0.00  0.00     0.045 C 
ATOM      5  C   UNK d   1      44.613   7.497  43.315  0.00  0.00     0.076 A 
ATOM      6  C   UNK d   1      45.867   6.995  43.044  0.00  0.00     0.280 A 
ATOM      7  O   UNK d   1      46.793   7.623  42.471  0.00  0.00    -0.265 OA
ATOM      8  H   UNK d   1      44.538   4.518  44.456  0.00  0.00     0.187 HD
ENDROOT
BRANCH   5   9
ATOM      9  C   UNK d   1      44.128   8.716  43.035  0.00  0.00     0.103 C 
BRANCH   9  10
ATOM     10  N   UNK d   1      44.367   9.729  44.003  0.00  0.00    -0.384 N 
ATOM     11  H   UNK d   1      45.313  10.015  44.324  0.00  0.00     0.159 HD
BRANCH  10  12
ATOM     12  C   UNK d   1      43.228  10.417  44.588  0.00  0.00     0.109 C 
ATOM     13  C   UNK d   1      42.967   9.887  45.990  0.00  0.00     0.311 C 
ATOM     14  N   UNK d   1      41.877  10.619  46.574  0.00  0.00     0.147 N 
ATOM     15  C   UNK d   1      40.705  10.401  45.733  0.00  0.00     0.547 C 
ATOM     16  C   UNK d   1      42.234  12.019  46.618  0.00  0.00     0.547 C 
ATOM     17  N   UNK d   1      40.898  10.929  44.412  0.00  0.00     0.147 N 
ATOM     18  C   UNK d   1      41.246  12.331  44.469  0.00  0.00     0.547 C 
ATOM     19  C   UNK d   1      41.979  10.211  43.785  0.00  0.00     0.311 C 
ATOM     20  N   UNK d   1      42.413  12.566  45.277  0.00  0.00     0.147 N 
ATOM     21  C   UNK d   1      43.544  11.894  44.680  0.00  0.00     0.311 C 
ENDBRANCH  10  12
ENDBRANCH   9  10
ENDBRANCH   5   9
BRANCH   1  22
ATOM     22  C   UNK d   1      47.108   4.860  43.390  0.00  0.00     0.060 A 
ATOM     23  C   UNK d   1      48.157   4.909  44.251  0.00  0.00     0.033 A 
ATOM     24  C   UNK d   1      49.222   4.025  44.077  0.00  0.00     0.020 A 
ATOM     25  C   UNK d   1      49.239   3.100  43.053  0.00  0.00     0.006 A 
ATOM     26  I   UNK d   1      50.848   1.767  42.794  0.00  0.00    -0.045 I 
ATOM     27  C   UNK d   1      48.178   3.046  42.178  0.00  0.00     0.020 A 
ATOM     28  C   UNK d   1      47.136   3.928  42.367  0.00  0.00     0.033 A 
ENDBRANCH   1  22
TORSDOF 4
ENDMDL
