MODEL 1
REMARK VINA RESULT:    -8.159      0.000      0.000
REMARK INTER + INTRA:          -9.674
REMARK INTER:                  -9.113
REMARK INTRA:                  -0.561
REMARK UNBOUND:                -0.561
REMARK  2 active torsions:
REMARK  status: ('A' for Active; 'I' for Inactive)
REMARK    1  A    between atoms: C_5  and  C_8 
REMARK       I    between atoms: C_8  and  N_10 
REMARK    2  A    between atoms: N_13  and  C_16 
ROOT
ATOM      1  C   UNK d   1      43.062   8.082  44.828  0.00  0.00     0.187 C 
ATOM      2  O   UNK d   1      42.992   7.744  46.091  0.00  0.00    -0.171 OA
ATOM      3  N   UNK d   1      42.143   9.042  44.432  0.00  0.00    -0.356 N 
ATOM      4  C   UNK d   1      41.871   9.616  43.157  0.00  0.00     0.145 C 
ATOM      5  C   UNK d   1      42.577  10.987  43.178  0.00  0.00     0.144 C 
ATOM      6  N   UNK d   1      42.348  11.569  44.513  0.00  0.00    -0.361 N 
ATOM      7  C   UNK d   1      41.187  11.142  45.239  0.00  0.00     0.144 C 
ATOM      8  C   UNK d   1      41.300   9.654  45.514  0.00  0.00     0.145 C 
ENDROOT
BRANCH   1   9
ATOM      9  C   UNK d   1      44.085   7.386  44.101  0.00  0.00     0.018 A 
ATOM     10  C   UNK d   1      44.143   5.988  44.154  0.00  0.00     0.017 A 
ATOM     11  C   UNK d   1      45.112   5.245  43.522  0.00  0.00     0.025 A 
ATOM     12  C   UNK d   1      46.098   5.855  42.788  0.00  0.00     0.034 A 
ATOM     13 Cl   UNK d   1      47.347   4.903  41.972  0.00  0.00    -0.084 Cl
ATOM     14  C   UNK d   1      46.083   7.223  42.707  0.00  0.00     0.025 A 
ATOM     15  C   UNK d   1      45.086   7.971  43.359  0.00  0.00     0.017 A 
ENDBRANCH   1   9
BRANCH   6  16
ATOM     16  C   UNK d   1      43.270  12.527  45.027  0.00  0.00     0.146 A 
ATOM     17  N   UNK d   1      44.326  12.944  44.294  0.00  0.00    -0.147 NA
ATOM     18  N   UNK d   1      45.202  13.827  44.738  0.00  0.00    -0.204 N 
ATOM     19  C   UNK d   1      45.110  14.381  45.955  0.00  0.00     0.174 A 
ATOM     20  C   UNK d   1      46.317  14.378  44.180  0.00  0.00     0.261 A 
ATOM     21  N   UNK d   1      46.132  15.249  46.155  0.00  0.00    -0.129 NA
ATOM     22  C   UNK d   1      44.054  14.004  46.768  0.00  0.00     0.058 A 
ATOM     23  N   UNK d   1      46.865  15.238  45.056  0.00  0.00    -0.141 NA
ATOM     24  C   UNK d   1      43.157  13.083  46.281  0.00  0.00     0.056 A 
ENDBRANCH   6  16
TORSDOF 2
ENDMDL
