MODEL 1
REMARK VINA RESULT:    -8.110      0.000      0.000
REMARK INTER + INTRA:         -10.742
REMARK INTER:                 -10.007
REMARK INTRA:                  -0.735
REMARK UNBOUND:                -0.735
REMARK  4 active torsions:
REMARK  status: ('A' for Active; 'I' for Inactive)
REMARK    1  A    between atoms: C_5  and  N_8 
REMARK    2  A    between atoms: C_10  and  C_24 
REMARK    3  A    between atoms: N_11  and  C_14 
REMARK    4  A    between atoms: C_14  and  C_15 
REMARK       I    between atoms: C_15  and  N_17 
ROOT
ATOM      1  N   UNK d   1      43.590   9.403  43.772  0.00  0.00    -0.181 N 
ATOM      2  N   UNK d   1      43.986  10.385  44.502  0.00  0.00    -0.144 NA
ATOM      3  C   UNK d   1      43.131  11.472  44.400  0.00  0.00     0.165 A 
ATOM      4  N   UNK d   1      42.180  11.108  43.561  0.00  0.00    -0.272 N 
ATOM      5  C   UNK d   1      42.470   9.819  43.177  0.00  0.00     0.352 A 
ATOM      6  O   UNK d   1      41.760   9.167  42.381  0.00  0.00    -0.244 OA
ENDROOT
BRANCH   4   7
ATOM      7  C   UNK d   1      41.101  11.875  43.023  0.00  0.00     0.222 C 
BRANCH   7   8
ATOM      8  C   UNK d   1      40.164  12.434  44.017  0.00  0.00     0.172 C 
ATOM      9  O   UNK d   1      39.905  13.694  43.823  0.00  0.00    -0.175 OA
ATOM     10  N   UNK d   1      39.530  11.858  45.095  0.00  0.00    -0.351 N 
ATOM     11  C   UNK d   1      39.692  10.497  45.533  0.00  0.00     0.145 C 
ATOM     12  C   UNK d   1      38.586  12.664  45.888  0.00  0.00     0.227 C 
ATOM     13  C   UNK d   1      38.878  10.193  46.803  0.00  0.00     0.142 C 
ATOM     14  N   UNK d   1      37.480  10.571  46.575  0.00  0.00    -0.358 N 
ATOM     15  C   UNK d   1      37.334  11.876  45.973  0.00  0.00     0.235 C 
ATOM     16  H   UNK d   1      36.684   9.974  46.816  0.00  0.00     0.162 HD
ATOM     17  O   UNK d   1      36.214  12.263  45.569  0.00  0.00    -0.272 OA
ENDBRANCH   7   8
ENDBRANCH   4   7
BRANCH   3  18
ATOM     18  C   UNK d   1      43.419  12.702  45.133  0.00  0.00     0.012 A 
ATOM     19  C   UNK d   1      44.669  13.306  44.942  0.00  0.00     0.015 A 
ATOM     20  C   UNK d   1      45.088  14.423  45.609  0.00  0.00     0.001 A 
ATOM     21  C   UNK d   1      44.265  15.036  46.544  0.00  0.00     0.000 A 
ATOM     22  C   UNK d   1      43.044  14.455  46.742  0.00  0.00     0.001 A 
ATOM     23  C   UNK d   1      42.621  13.312  46.057  0.00  0.00     0.015 A 
ENDBRANCH   3  18
BRANCH   1  24
ATOM     24  C   UNK d   1      44.241   8.143  43.650  0.00  0.00     0.063 A 
ATOM     25  C   UNK d   1      45.463   8.054  43.012  0.00  0.00     0.033 A 
ATOM     26  C   UNK d   1      46.111   6.838  42.883  0.00  0.00     0.026 A 
ATOM     27  C   UNK d   1      45.580   5.661  43.378  0.00  0.00     0.034 A 
ATOM     28 Cl   UNK d   1      46.390   4.115  43.219  0.00  0.00    -0.084 Cl
ATOM     29  C   UNK d   1      44.354   5.753  44.018  0.00  0.00     0.026 A 
ATOM     30  C   UNK d   1      43.701   6.976  44.149  0.00  0.00     0.033 A 
ENDBRANCH   1  24
TORSDOF 4
ENDMDL
