MODEL 1
REMARK VINA RESULT:    -7.078      0.000      0.000
REMARK INTER + INTRA:          -8.856
REMARK INTER:                  -8.319
REMARK INTRA:                  -0.537
REMARK UNBOUND:                -0.537
REMARK  3 active torsions:
REMARK  status: ('A' for Active; 'I' for Inactive)
REMARK    1  A    between atoms: N_15  and  C_19 
REMARK    2  A    between atoms: C_19  and  C_20 
REMARK       I    between atoms: C_20  and  N_22 
REMARK    3  A    between atoms: N_22  and  C_23 
ROOT
ATOM      1 Cl   UNK d   1      46.197  14.633  44.217  0.00  0.00    -0.084 Cl
ATOM      2  C   UNK d   1      44.903  13.912  45.174  0.00  0.00     0.036 A 
ATOM      3  C   UNK d   1      44.391  12.672  44.835  0.00  0.00     0.055 A 
ATOM      4  C   UNK d   1      43.387  12.102  45.568  0.00  0.00     0.077 A 
ATOM      5  C   UNK d   1      42.919  12.816  46.646  0.00  0.00     0.038 A 
ATOM      6  C   UNK d   1      43.409  14.044  47.003  0.00  0.00     0.019 A 
ATOM      7  C   UNK d   1      44.425  14.610  46.252  0.00  0.00     0.025 A 
ATOM      8  C   UNK d   1      41.836  12.231  47.461  0.00  0.00     0.153 A 
ATOM      9  N   UNK d   1      41.203  12.642  48.503  0.00  0.00    -0.270 NA
ATOM     10  C   UNK d   1      40.213  11.702  48.942  0.00  0.00     0.172 A 
ATOM     11  C   UNK d   1      40.310  10.566  47.977  0.00  0.00     0.171 A 
ATOM     12  N   UNK d   1      41.355  10.959  47.061  0.00  0.00    -0.160 N 
ATOM     13  C   UNK d   1      41.881  10.257  45.926  0.00  0.00     0.736 A 
ATOM     14  N   UNK d   1      41.587   9.070  45.374  0.00  0.00     0.025 NA
ATOM     15  N   UNK d   1      42.356   8.856  44.322  0.00  0.00    -0.194 N 
ATOM     16  C   UNK d   1      43.144   9.940  44.223  0.00  0.00     0.365 A 
ATOM     17  O   UNK d   1      44.015  10.094  43.332  0.00  0.00    -0.244 OA
ATOM     18  N   UNK d   1      42.867  10.830  45.213  0.00  0.00    -0.090 N 
ENDROOT
BRANCH  15  19
ATOM     19  C   UNK d   1      42.369   7.696  43.435  0.00  0.00     0.259 C 
BRANCH  19  20
ATOM     20  C   UNK d   1      43.579   6.890  43.718  0.00  0.00     0.237 C 
ATOM     21  O   UNK d   1      43.566   6.100  44.704  0.00  0.00    -0.272 OA
ATOM     22  N   UNK d   1      44.755   6.965  42.927  0.00  0.00    -0.356 N 
ATOM     23  H   UNK d   1      44.748   7.620  42.119  0.00  0.00     0.162 HD
BRANCH  22  24
ATOM     24  C   UNK d   1      45.912   6.158  43.243  0.00  0.00     0.076 C 
ATOM     25  C   UNK d   1      46.260   5.236  42.072  0.00  0.00     0.032 C 
ATOM     26  C   UNK d   1      47.088   7.116  43.379  0.00  0.00     0.032 C 
ENDBRANCH  22  24
ENDBRANCH  19  20
ENDBRANCH  15  19
TORSDOF 3
ENDMDL
