/Users/jonathanwahrer/Desktop/Msc/3_Semester/Drug_Design_Praktikum/waehrer_HTS_screening/HTS_experiment/out/docking_results/vina_output/2qfa/1804_docked.pdbqt
 OpenBabel03162221033D

 26 30  0  0  0  0  0  0  0  0999 V2000
   46.0420   14.7620   45.7060 Cl  0  0  0  0  0  0  0  0  0  0  0  0
   44.3780   14.2280   45.7990 C   0  0  0  0  0  0  0  0  0  0  0  0
   43.9160   13.0890   45.1610 C   0  0  0  0  0  3  0  0  0  0  0  0
   42.6060   12.6790   45.2420 C   0  0  0  0  0  0  0  0  0  0  0  0
   41.7620   13.4580   45.9950 C   0  0  0  0  0  0  0  0  0  0  0  0
   42.1660   14.5980   46.6500 C   0  0  0  0  0  3  0  0  0  0  0  0
   43.5040   14.9870   46.5470 C   0  0  0  0  0  3  0  0  0  0  0  0
   40.3480   13.0500   46.1050 C   0  0  0  0  0  0  0  0  0  0  0  0
   39.3560   13.5750   46.7270 N   0  0  0  0  0  0  0  0  0  0  0  0
   38.1450   12.8190   46.5510 C   0  0  0  0  0  3  0  0  0  0  0  0
   38.5450   11.6760   45.6740 C   0  0  0  0  0  3  0  0  0  0  0  0
   39.9490   11.8770   45.4270 N   0  0  0  0  0  0  0  0  0  0  0  0
   40.8810   11.0970   44.6500 C   0  0  0  0  0  0  0  0  0  0  0  0
   40.7350    9.9670   43.9300 N   0  0  0  0  0  0  0  0  0  0  0  0
   41.8970    9.6380   43.3930 N   0  0  0  0  0  0  0  0  0  0  0  0
   42.7610   10.5850   43.7940 C   0  0  0  0  0  0  0  0  0  0  0  0
   43.9800   10.5840   43.4610 O   0  0  0  0  0  0  0  0  0  0  0  0
   42.1580   11.5060   44.5760 N   0  0  0  0  0  0  0  0  0  0  0  0
   42.1940    8.4810   42.5350 C   0  0  0  0  0  2  0  0  0  0  0  0
   42.7700    7.4090   43.3880 C   0  0  0  0  0  0  0  0  0  0  0  0
   42.0020    6.8920   44.2380 O   0  0  0  0  0  0  0  0  0  0  0  0
   44.1200    6.9850   43.2580 N   0  0  0  0  0  0  0  0  0  0  0  0
   44.7370    5.9470   44.0620 C   0  0  0  0  0  2  0  0  0  0  0  0
   45.1010    7.4910   42.3280 C   0  0  0  0  0  2  0  0  0  0  0  0
   46.2040    5.9650   43.7240 C   0  0  0  0  0  2  0  0  0  0  0  0
   46.3800    7.3610   43.1620 C   0  0  0  0  0  2  0  0  0  0  0  0
  1  2  1  0  0  0  0
  2  7  1  0  0  0  0
  3  4  1  0  0  0  0
  3  2  2  0  0  0  0
  4  5  2  0  0  0  0
  5  8  1  0  0  0  0
  5  6  1  0  0  0  0
  7  6  2  0  0  0  0
  8  9  2  0  0  0  0
 10  9  1  0  0  0  0
 11 10  2  0  0  0  0
 12 11  1  0  0  0  0
 12  8  1  0  0  0  0
 13 12  1  0  0  0  0
 14 13  2  0  0  0  0
 15 16  1  0  0  0  0
 15 14  1  0  0  0  0
 16 18  1  0  0  0  0
 17 16  2  0  0  0  0
 18 13  1  0  0  0  0
 18  4  1  0  0  0  0
 19 20  1  0  0  0  0
 19 15  1  0  0  0  0
 20 21  2  0  0  0  0
 22 20  1  0  0  0  0
 22 23  1  0  0  0  0
 24 26  1  0  0  0  0
 24 22  1  0  0  0  0
 25 23  1  0  0  0  0
 26 25  1  0  0  0  0
M  END
>  <Pose>
1

>  <Score>
-6.946

$$$$
