MODEL 1
REMARK VINA RESULT:    -7.413      0.000      0.000
REMARK INTER + INTRA:          -9.131
REMARK INTER:                  -8.713
REMARK INTRA:                  -0.419
REMARK UNBOUND:                -0.419
REMARK  3 active torsions:
REMARK  status: ('A' for Active; 'I' for Inactive)
REMARK    1  A    between atoms: C_10  and  N_11 
REMARK    2  A    between atoms: N_14  and  C_17 
REMARK    3  A    between atoms: C_22  and  C_23 
REMARK       I    between atoms: C_23  and  N_25 
ROOT
ATOM      1  N   UNK d   1      44.638   7.418  43.960  0.00  0.00    -0.384 N 
ATOM      2  C   UNK d   1      43.485   6.569  44.181  0.00  0.00     0.142 C 
ATOM      3  C   UNK d   1      42.261   7.490  44.305  0.00  0.00     0.144 C 
ATOM      4  N   UNK d   1      42.627   8.865  44.343  0.00  0.00    -0.362 N 
ATOM      5  C   UNK d   1      43.301   9.343  43.137  0.00  0.00     0.144 C 
ATOM      6  C   UNK d   1      44.519   8.468  42.967  0.00  0.00     0.142 C 
ENDROOT
BRANCH   1   7
ATOM      7  C   UNK d   1      45.874   7.250  44.642  0.00  0.00     0.134 C 
ATOM      8  C   UNK d   1      46.779   6.327  44.418  0.00  0.00     0.124 A 
ATOM      9  N   UNK d   1      46.632   5.333  43.422  0.00  0.00    -0.340 N 
ATOM     10  N   UNK d   1      47.986   6.307  45.213  0.00  0.00    -0.308 N 
ATOM     11  C   UNK d   1      47.655   4.334  43.209  0.00  0.00     0.049 A 
ATOM     12  H   UNK d   1      45.783   5.312  42.830  0.00  0.00     0.167 HD
ATOM     13  C   UNK d   1      48.807   4.298  43.953  0.00  0.00     0.060 A 
ATOM     14  C   UNK d   1      47.472   3.389  42.233  0.00  0.00     0.032 A 
ATOM     15  C   UNK d   1      49.763   3.328  43.722  0.00  0.00     0.043 A 
ATOM     16  C   UNK d   1      48.969   5.315  44.981  0.00  0.00     0.259 A 
ATOM     17  C   UNK d   1      49.579   2.391  42.753  0.00  0.00     0.035 A 
ATOM     18 Cl   UNK d   1      50.763   1.130  42.414  0.00  0.00    -0.084 Cl
ATOM     19  C   UNK d   1      48.428   2.416  41.999  0.00  0.00     0.026 A 
ATOM     20  O   UNK d   1      50.045   5.278  45.672  0.00  0.00    -0.267 OA
ATOM     21  H   UNK d   1      48.128   7.022  45.954  0.00  0.00     0.170 HD
ENDBRANCH   1   7
BRANCH   4  22
ATOM     22  C   UNK d   1      42.447   9.811  45.382  0.00  0.00     0.141 A 
ATOM     23  N   UNK d   1      43.232   9.691  46.516  0.00  0.00    -0.242 NA
ATOM     24  C   UNK d   1      43.150  10.506  47.566  0.00  0.00     0.119 A 
ATOM     25  C   UNK d   1      42.238  11.523  47.525  0.00  0.00     0.020 A 
ATOM     26  C   UNK d   1      41.446  11.673  46.421  0.00  0.00     0.022 A 
ATOM     27  C   UNK d   1      41.528  10.815  45.306  0.00  0.00     0.077 A 
BRANCH  27  28
ATOM     28  C   UNK d   1      40.704  11.020  44.154  0.00  0.00     0.253 C 
ATOM     29  O   UNK d   1      40.963  11.762  43.209  0.00  0.00    -0.268 OA
ATOM     30  N   UNK d   1      39.471  10.316  44.070  0.00  0.00    -0.366 N 
ATOM     31  H   UNK d   1      39.455   9.279  43.943  0.00  0.00     0.159 HD
ATOM     32  H   UNK d   1      38.537  10.779  44.127  0.00  0.00     0.159 HD
ENDBRANCH  27  28
ENDBRANCH   4  22
TORSDOF 3
ENDMDL
