MODEL 1
REMARK VINA RESULT:    -7.239      0.000      0.000
REMARK INTER + INTRA:          -8.855
REMARK INTER:                  -8.085
REMARK INTRA:                  -0.770
REMARK UNBOUND:                -0.770
REMARK  2 active torsions:
REMARK  status: ('A' for Active; 'I' for Inactive)
REMARK    1  A    between atoms: C_5  and  N_8 
REMARK    2  A    between atoms: C_12  and  C_20 
ROOT
ATOM      1  N   UNK d   1      41.936  12.072  45.388  0.00  0.00    -0.252 N 
ATOM      2  C   UNK d   1      41.937  10.786  45.987  0.00  0.00     0.239 C 
ATOM      3  O   UNK d   1      42.371  10.545  47.139  0.00  0.00    -0.272 OA
ATOM      4  C   UNK d   1      41.349   9.806  45.034  0.00  0.00     0.138 C 
ATOM      5  C   UNK d   1      42.396   9.110  44.220  0.00  0.00     0.142 C 
ATOM      6  O   UNK d   1      41.683   8.892  43.020  0.00  0.00    -0.360 OA
ATOM      7  C   UNK d   1      41.412  10.254  42.733  0.00  0.00     0.160 C 
ATOM      8  C   UNK d   1      40.677  10.664  43.962  0.00  0.00     0.128 C 
ATOM      9  C   UNK d   1      41.000  12.074  44.310  0.00  0.00     0.239 C 
ATOM     10  O   UNK d   1      40.526  13.065  43.747  0.00  0.00    -0.272 OA
ATOM     11  C   UNK d   1      42.794  10.796  42.807  0.00  0.00     0.005 C 
ATOM     12  C   UNK d   1      43.381  10.114  43.786  0.00  0.00     0.015 C 
ENDROOT
BRANCH   1  13
ATOM     13  C   UNK d   1      42.769  13.144  45.848  0.00  0.00     0.045 A 
ATOM     14  C   UNK d   1      44.105  13.211  45.523  0.00  0.00     0.031 A 
ATOM     15  C   UNK d   1      44.917  14.234  45.960  0.00  0.00     0.021 A 
ATOM     16  C   UNK d   1      44.363  15.213  46.749  0.00  0.00     0.011 A 
ATOM     17 Br   UNK d   1      45.449  16.638  47.373  0.00  0.00    -0.051 Br
ATOM     18  C   UNK d   1      43.034  15.167  47.088  0.00  0.00     0.021 A 
ATOM     19  C   UNK d   1      42.207  14.132  46.646  0.00  0.00     0.031 A 
ENDBRANCH   1  13
BRANCH   5  20
ATOM     20  C   UNK d   1      42.934   7.873  44.800  0.00  0.00     0.298 C 
ATOM     21  O   UNK d   1      44.212   7.989  45.273  0.00  0.00    -0.356 OA
ATOM     22  C   UNK d   1      45.051   7.266  44.462  0.00  0.00     0.197 C 
ATOM     23  C   UNK d   1      44.191   6.650  43.407  0.00  0.00     0.197 C 
ATOM     24  O   UNK d   1      42.902   6.825  43.898  0.00  0.00    -0.356 OA
ENDBRANCH   5  20
TORSDOF 2
ENDMDL
