/Users/jonathanwahrer/Desktop/Msc/3_Semester/Drug_Design_Praktikum/waehrer_HTS_screening/HTS_experiment/out/docking_results/vina_output/2qfa/1808_docked.pdbqt
 OpenBabel03162221033D

 24 28  0  0  1  0  0  0  0  0999 V2000
   41.9350   12.0570   45.3610 N   0  0  0  0  0  0  0  0  0  0  0  0
   41.9310   10.7730   45.9660 C   0  0  0  0  0  0  0  0  0  0  0  0
   42.3670   10.5360   47.1180 O   0  0  0  0  0  0  0  0  0  0  0  0
   41.3340    9.7920   45.0200 C   0  0  2  0  0  3  0  0  0  0  0  0
   42.3730    9.0870   44.2060 C   0  0  1  0  0  0  0  0  0  0  0  0
   41.6550    8.8670   43.0100 O   0  0  0  0  0  0  0  0  0  0  0  0
   41.3910   10.2290   42.7170 C   0  0  1  0  0  3  0  0  0  0  0  0
   40.6630   10.6500   43.9460 C   0  0  2  0  0  3  0  0  0  0  0  0
   40.9960   12.0600   44.2870 C   0  0  0  0  0  0  0  0  0  0  0  0
   40.5260   13.0500   43.7210 O   0  0  0  0  0  0  0  0  0  0  0  0
   42.7770   10.7620   42.7830 C   0  0  0  0  0  2  0  0  0  0  0  0
   43.3630   10.0820   43.7640 C   0  0  0  0  0  2  0  0  0  0  0  0
   42.7770   13.1260   45.8130 C   0  0  0  0  0  0  0  0  0  0  0  0
   44.1130   13.1810   45.4860 C   0  0  0  0  0  3  0  0  0  0  0  0
   44.9330   14.2010   45.9160 C   0  0  0  0  0  3  0  0  0  0  0  0
   44.3860   15.1890   46.6980 C   0  0  0  0  0  0  0  0  0  0  0  0
   45.4840   16.6100   47.3110 Br  0  0  0  0  0  0  0  0  0  0  0  0
   43.0570   15.1550   47.0390 C   0  0  0  0  0  3  0  0  0  0  0  0
   42.2230   14.1230   46.6040 C   0  0  0  0  0  3  0  0  0  0  0  0
   42.9060    7.8490   44.7900 C   0  0  0  0  0  3  0  0  0  0  0  0
   44.1730    7.9690   45.2900 O   0  0  0  0  0  0  0  0  0  0  0  0
   45.0320    7.2540   44.4930 C   0  0  0  0  0  2  0  0  0  0  0  0
   44.1980    6.6410   43.4170 C   0  0  0  0  0  2  0  0  0  0  0  0
   42.8980    6.8060   43.8820 O   0  0  0  0  0  0  0  0  0  0  0  0
  1 13  1  0  0  0  0
  1  2  1  0  0  0  0
  2  3  2  0  0  0  0
  4  2  1  1  0  0  0
  5 20  1  1  0  0  0
  5  4  1  0  0  0  0
  6  5  1  0  0  0  0
  7 11  1  1  0  0  0
  7  6  1  0  0  0  0
  7  8  1  0  0  0  0
  8  9  1  1  0  0  0
  8  4  1  0  0  0  0
  9  1  1  0  0  0  0
 10  9  2  0  0  0  0
 11 12  1  0  0  0  0
 12  5  1  0  0  0  0
 13 19  1  0  0  0  0
 14 13  2  0  0  0  0
 14 15  1  0  0  0  0
 15 16  2  0  0  0  0
 16 18  1  0  0  0  0
 16 17  1  0  0  0  0
 19 18  2  0  0  0  0
 20 21  1  0  0  0  0
 22 21  1  0  0  0  0
 23 24  1  0  0  0  0
 23 22  1  0  0  0  0
 24 20  1  0  0  0  0
M  END
>  <Pose>
1

>  <Score>
-7.274

$$$$
