MODEL 1
REMARK VINA RESULT:    -7.274      0.000      0.000
REMARK INTER + INTRA:          -8.894
REMARK INTER:                  -8.125
REMARK INTRA:                  -0.770
REMARK UNBOUND:                -0.770
REMARK  2 active torsions:
REMARK  status: ('A' for Active; 'I' for Inactive)
REMARK    1  A    between atoms: C_5  and  N_8 
REMARK    2  A    between atoms: C_12  and  C_20 
ROOT
ATOM      1  N   UNK d   1      41.935  12.057  45.361  0.00  0.00    -0.252 N 
ATOM      2  C   UNK d   1      41.931  10.773  45.966  0.00  0.00     0.239 C 
ATOM      3  O   UNK d   1      42.367  10.536  47.118  0.00  0.00    -0.272 OA
ATOM      4  C   UNK d   1      41.334   9.792  45.020  0.00  0.00     0.138 C 
ATOM      5  C   UNK d   1      42.373   9.087  44.206  0.00  0.00     0.142 C 
ATOM      6  O   UNK d   1      41.655   8.867  43.010  0.00  0.00    -0.360 OA
ATOM      7  C   UNK d   1      41.391  10.229  42.717  0.00  0.00     0.160 C 
ATOM      8  C   UNK d   1      40.663  10.650  43.946  0.00  0.00     0.128 C 
ATOM      9  C   UNK d   1      40.996  12.060  44.287  0.00  0.00     0.239 C 
ATOM     10  O   UNK d   1      40.526  13.050  43.721  0.00  0.00    -0.272 OA
ATOM     11  C   UNK d   1      42.777  10.762  42.783  0.00  0.00     0.005 C 
ATOM     12  C   UNK d   1      43.363  10.082  43.764  0.00  0.00     0.015 C 
ENDROOT
BRANCH   1  13
ATOM     13  C   UNK d   1      42.777  13.126  45.813  0.00  0.00     0.045 A 
ATOM     14  C   UNK d   1      44.113  13.181  45.486  0.00  0.00     0.031 A 
ATOM     15  C   UNK d   1      44.933  14.201  45.916  0.00  0.00     0.021 A 
ATOM     16  C   UNK d   1      44.386  15.189  46.698  0.00  0.00     0.011 A 
ATOM     17 Br   UNK d   1      45.484  16.610  47.311  0.00  0.00    -0.051 Br
ATOM     18  C   UNK d   1      43.057  15.155  47.039  0.00  0.00     0.021 A 
ATOM     19  C   UNK d   1      42.223  14.123  46.604  0.00  0.00     0.031 A 
ENDBRANCH   1  13
BRANCH   5  20
ATOM     20  C   UNK d   1      42.906   7.849  44.790  0.00  0.00     0.298 C 
ATOM     21  O   UNK d   1      44.173   7.969  45.290  0.00  0.00    -0.356 OA
ATOM     22  C   UNK d   1      45.032   7.254  44.493  0.00  0.00     0.197 C 
ATOM     23  C   UNK d   1      44.198   6.641  43.417  0.00  0.00     0.197 C 
ATOM     24  O   UNK d   1      42.898   6.806  43.882  0.00  0.00    -0.356 OA
ENDBRANCH   5  20
TORSDOF 2
ENDMDL
