MODEL 1
REMARK VINA RESULT:    -7.872      0.000      0.000
REMARK INTER + INTRA:         -10.292
REMARK INTER:                 -10.172
REMARK INTRA:                  -0.119
REMARK UNBOUND:                -0.119
REMARK  5 active torsions:
REMARK  status: ('A' for Active; 'I' for Inactive)
REMARK    1  A    between atoms: S_1  and  N_4 
REMARK    2  A    between atoms: S_1  and  C_26 
REMARK       I    between atoms: N_7  and  C_10 
REMARK    3  A    between atoms: C_10  and  C_12 
REMARK    4  A    between atoms: N_14  and  C_18 
REMARK    5  A    between atoms: C_18  and  C_19 
ROOT
ATOM      1  N   UNK d   1      41.965  12.201  46.592  0.00  0.00    -0.203 NA
ATOM      2  C   UNK d   1      40.800  11.863  45.815  0.00  0.00     0.127 C 
ATOM      3  C   UNK d   1      40.897  10.401  45.450  0.00  0.00     0.141 C 
ATOM      4  N   UNK d   1      41.945   9.784  46.222  0.00  0.00    -0.349 N 
ATOM      5  C   UNK d   1      42.133  10.086  47.636  0.00  0.00     0.141 C 
ATOM      6  C   UNK d   1      41.831  11.565  47.887  0.00  0.00     0.127 C 
ATOM      7  C   UNK d   1      42.823   8.874  45.606  0.00  0.00     0.226 C 
ATOM      8  O   UNK d   1      43.724   8.305  46.316  0.00  0.00    -0.273 OA
ENDROOT
BRANCH   7   9
ATOM      9  C   UNK d   1      42.712   8.579  44.152  0.00  0.00     0.105 C 
ATOM     10  C   UNK d   1      43.978   8.872  43.400  0.00  0.00     0.140 C 
ATOM     11  N   UNK d   1      44.592   7.572  43.149  0.00  0.00    -0.347 N 
ATOM     12  C   UNK d   1      43.820   6.553  43.758  0.00  0.00     0.221 C 
ATOM     13  O   UNK d   1      44.259   5.423  44.079  0.00  0.00    -0.273 OA
ATOM     14  C   UNK d   1      42.461   7.117  43.908  0.00  0.00     0.118 C 
BRANCH  11  15
ATOM     15  C   UNK d   1      45.809   7.371  42.395  0.00  0.00     0.166 C 
BRANCH  15  16
ATOM     16  C   UNK d   1      46.749   6.466  43.098  0.00  0.00    -0.018 A 
ATOM     17  C   UNK d   1      47.053   5.236  42.534  0.00  0.00     0.042 A 
ATOM     18  C   UNK d   1      47.921   4.338  43.132  0.00  0.00     0.024 A 
ATOM     19 Cl   UNK d   1      46.306   4.821  41.015  0.00  0.00    -0.084 Cl
ATOM     20  C   UNK d   1      48.487   4.713  44.333  0.00  0.00     0.002 A 
ATOM     21  C   UNK d   1      48.206   5.933  44.924  0.00  0.00     0.001 A 
ATOM     22  C   UNK d   1      47.328   6.817  44.299  0.00  0.00     0.010 A 
ENDBRANCH  15  16
ENDBRANCH  11  15
ENDBRANCH   7   9
BRANCH   1  23
ATOM     23  S   UNK d   1      42.158  13.904  46.725  0.00  0.00     0.248 S 
ATOM     24  O   UNK d   1      41.692  14.412  48.060  0.00  0.00    -0.206 OA
ATOM     25  O   UNK d   1      41.233  14.527  45.700  0.00  0.00    -0.206 OA
BRANCH  23  26
ATOM     26  C   UNK d   1      43.788  14.395  46.379  0.00  0.00     0.132 A 
ATOM     27  C   UNK d   1      44.536  15.443  46.866  0.00  0.00     0.083 A 
ATOM     28  N   UNK d   1      45.763  15.390  46.263  0.00  0.00    -0.132 NA
ATOM     29  C   UNK d   1      44.075  16.426  47.865  0.00  0.00     0.074 C 
ATOM     30  O   UNK d   1      45.763  14.386  45.469  0.00  0.00    -0.216 OA
ATOM     31  C   UNK d   1      44.619  13.745  45.486  0.00  0.00     0.100 A 
ATOM     32  C   UNK d   1      44.342  12.546  44.666  0.00  0.00     0.081 C 
ENDBRANCH  23  26
ENDBRANCH   1  23
TORSDOF 5
ENDMDL
