MODEL 1
REMARK VINA RESULT:    -8.445      0.000      0.000
REMARK INTER + INTRA:         -11.044
REMARK INTER:                 -10.420
REMARK INTRA:                  -0.625
REMARK UNBOUND:                -0.625
REMARK  4 active torsions:
REMARK  status: ('A' for Active; 'I' for Inactive)
REMARK    1  A    between atoms: C_7  and  O_8 
REMARK    2  A    between atoms: C_13  and  C_16 
REMARK    3  A    between atoms: C_16  and  C_17 
REMARK       I    between atoms: C_17  and  N_19 
REMARK       I    between atoms: N_22  and  C_25 
REMARK    4  A    between atoms: C_25  and  C_27 
ROOT
ATOM      1  C   UNK d   1      42.357   7.926  45.801  0.00  0.00     0.224 C 
ATOM      2  O   UNK d   1      41.651   6.982  46.299  0.00  0.00    -0.273 OA
ATOM      3  N   UNK d   1      43.110   7.641  44.676  0.00  0.00    -0.349 N 
ATOM      4  C   UNK d   1      43.136   6.354  44.053  0.00  0.00     0.145 C 
ATOM      5  C   UNK d   1      44.581   5.852  44.074  0.00  0.00     0.145 C 
ATOM      6  N   UNK d   1      45.427   6.814  43.453  0.00  0.00    -0.355 N 
ATOM      7  C   UNK d   1      44.777   8.051  42.971  0.00  0.00     0.145 C 
ATOM      8  C   UNK d   1      43.928   8.662  44.063  0.00  0.00     0.145 C 
ATOM      9  C   UNK d   1      46.820   6.687  43.268  0.00  0.00     0.204 C 
ATOM     10  O   UNK d   1      47.366   7.728  42.649  0.00  0.00    -0.170 OA
ENDROOT
BRANCH   1  11
ATOM     11  C   UNK d   1      42.303   9.250  46.481  0.00  0.00     0.148 C 
BRANCH  11  12
ATOM     12  C   UNK d   1      40.927   9.797  46.489  0.00  0.00     0.033 A 
ATOM     13  C   UNK d   1      40.436  10.466  45.369  0.00  0.00     0.295 A 
ATOM     14  O   UNK d   1      39.227  10.969  45.320  0.00  0.00    -0.274 OA
ATOM     15  O   UNK d   1      41.231  10.567  44.376  0.00  0.00    -0.259 OA
ATOM     16  C   UNK d   1      38.381  10.887  46.318  0.00  0.00     0.093 A 
ATOM     17  C   UNK d   1      38.765  10.246  47.473  0.00  0.00     0.006 A 
ATOM     18  C   UNK d   1      37.095  11.436  46.235  0.00  0.00     0.076 A 
ATOM     19  C   UNK d   1      37.868  10.166  48.510  0.00  0.00     0.041 A 
ATOM     20  C   UNK d   1      40.051   9.700  47.546  0.00  0.00    -0.036 A 
ATOM     21  C   UNK d   1      36.591  10.713  48.425  0.00  0.00     0.068 A 
ATOM     22 Cl   UNK d   1      35.448  10.616  49.744  0.00  0.00    -0.081 Cl
ATOM     23  C   UNK d   1      36.196  11.357  47.275  0.00  0.00     0.092 A 
ATOM     24  C   UNK d   1      40.448   9.019  48.774  0.00  0.00     0.050 C 
BRANCH  23  25
ATOM     25  O   UNK d   1      34.906  11.913  47.183  0.00  0.00    -0.354 OA
ATOM     26  C   UNK d   1      34.192  11.939  45.972  0.00  0.00     0.210 C 
ENDBRANCH  23  25
ENDBRANCH  11  12
ENDBRANCH   1  11
BRANCH   9  27
ATOM     27  C   UNK d   1      47.742   5.651  43.623  0.00  0.00     0.095 A 
ATOM     28  C   UNK d   1      47.960   4.577  42.724  0.00  0.00     0.108 A 
ATOM     29  C   UNK d   1      48.830   3.564  43.028  0.00  0.00     0.253 A 
ATOM     30  O   UNK d   1      49.006   2.621  42.212  0.00  0.00    -0.268 OA
ATOM     31  N   UNK d   1      49.518   3.522  44.177  0.00  0.00    -0.271 N 
ATOM     32  C   UNK d   1      49.312   4.532  45.023  0.00  0.00     0.329 A 
ATOM     33  C   UNK d   1      50.429   2.443  44.481  0.00  0.00     0.164 C 
ATOM     34  O   UNK d   1      49.943   4.538  46.131  0.00  0.00    -0.246 OA
ATOM     35  N   UNK d   1      48.444   5.567  44.747  0.00  0.00    -0.304 N 
ATOM     36  H   UNK d   1      48.359   6.307  45.472  0.00  0.00     0.171 HD
ENDBRANCH   9  27
TORSDOF 4
ENDMDL
