MODEL 1
REMARK VINA RESULT:    -7.116      0.000      0.000
REMARK INTER + INTRA:          -7.820
REMARK INTER:                  -7.532
REMARK INTRA:                  -0.288
REMARK UNBOUND:                -0.288
REMARK  1 active torsions:
REMARK  status: ('A' for Active; 'I' for Inactive)
REMARK    1  A    between atoms: C_8  and  N_10 
ROOT
ATOM      1 Cl   UNK d   1      47.793  17.394  45.114  0.00  0.00    -0.076 Cl
ATOM      2  C   UNK d   1      46.549  16.207  45.490  0.00  0.00     0.127 A 
ATOM      3  C   UNK d   1      45.745  16.427  46.587  0.00  0.00     0.050 A 
ATOM      4  N   UNK d   1      44.799  15.516  46.865  0.00  0.00    -0.190 N 
ATOM      5  C   UNK d   1      44.609  14.401  46.111  0.00  0.00     0.747 A 
ATOM      6  N   UNK d   1      45.387  14.177  45.039  0.00  0.00    -0.005 N 
ATOM      7  N   UNK d   1      45.012  13.035  44.471  0.00  0.00     0.046 NA
ATOM      8  C   UNK d   1      43.987  12.490  45.156  0.00  0.00     0.772 A 
ATOM      9  N   UNK d   1      43.758  13.362  46.171  0.00  0.00     0.133 NA
ATOM     10  C   UNK d   1      46.353  15.076  44.729  0.00  0.00     0.308 A 
ATOM     11  O   UNK d   1      47.090  14.867  43.714  0.00  0.00    -0.264 OA
ATOM     12  C   UNK d   1      45.942  17.654  47.430  0.00  0.00     0.071 C 
ATOM     13  H   UNK d   1      44.185  15.677  47.698  0.00  0.00     0.184 HD
ENDROOT
BRANCH   8  14
ATOM     14  N   UNK d   1      43.298  11.274  44.881  0.00  0.00    -0.076 N 
ATOM     15  C   UNK d   1      42.798  10.868  43.615  0.00  0.00     0.251 C 
ATOM     16  O   UNK d   1      43.131  11.284  42.475  0.00  0.00    -0.272 OA
ATOM     17  C   UNK d   1      41.752   9.808  43.816  0.00  0.00     0.096 C 
ATOM     18  C   UNK d   1      41.875   9.389  45.238  0.00  0.00     0.096 C 
ATOM     19  C   UNK d   1      42.046   8.650  42.887  0.00  0.00     0.042 C 
ATOM     20  C   UNK d   1      42.308   7.947  45.433  0.00  0.00     0.042 C 
ATOM     21  C   UNK d   1      42.964  10.225  45.777  0.00  0.00     0.251 C 
ATOM     22  C   UNK d   1      43.510   7.743  44.562  0.00  0.00    -0.030 C 
ATOM     23  C   UNK d   1      43.359   8.100  43.300  0.00  0.00    -0.030 C 
ATOM     24  O   UNK d   1      43.541  10.045  46.899  0.00  0.00    -0.272 OA
ENDBRANCH   8  14
TORSDOF 1
ENDMDL
