MODEL 1
REMARK VINA RESULT:    -6.663      0.000      0.000
REMARK INTER + INTRA:         -10.691
REMARK INTER:                  -9.390
REMARK INTRA:                  -1.301
REMARK UNBOUND:                -1.301
REMARK  9 active torsions:
REMARK  status: ('A' for Active; 'I' for Inactive)
REMARK    1  A    between atoms: C_3  and  C_9 
REMARK    2  A    between atoms: N_10  and  N_11 
REMARK    3  A    between atoms: N_11  and  C_12 
REMARK    4  A    between atoms: N_13  and  C_22 
REMARK    5  A    between atoms: C_18  and  N_21 
REMARK    6  A    between atoms: C_24  and  C_29 
REMARK    7  A    between atoms: C_25  and  O_28 
REMARK    8  A    between atoms: C_26  and  O_27 
REMARK    9  A    between atoms: C_29  and  O_30 
ROOT
ATOM      1  C   UNK d   1      42.587  11.352  46.306  0.00  0.00     0.727 A 
ATOM      2  N   UNK d   1      41.812  10.341  45.884  0.00  0.00    -0.131 N 
ATOM      3  C   UNK d   1      40.614  10.525  46.465  0.00  0.00     0.182 A 
ATOM      4  N   UNK d   1      39.449   9.833  46.415  0.00  0.00    -0.221 NA
ATOM      5  C   UNK d   1      38.359  10.228  47.102  0.00  0.00     0.237 A 
ATOM      6  N   UNK d   1      38.407  11.340  47.867  0.00  0.00    -0.222 NA
ATOM      7  C   UNK d   1      39.527  12.079  47.968  0.00  0.00     0.156 A 
ATOM      8  C   UNK d   1      40.631  11.655  47.254  0.00  0.00     0.168 A 
ATOM      9  N   UNK d   1      41.883  12.156  47.137  0.00  0.00    -0.055 NA
ENDROOT
BRANCH   1  10
ATOM     10  N   UNK d   1      43.944  11.560  45.943  0.00  0.00    -0.107 N 
ATOM     11  H   UNK d   1      44.462  10.862  45.357  0.00  0.00     0.208 HD
BRANCH  10  12
ATOM     12  N   UNK d   1      44.659  12.691  46.342  0.00  0.00    -0.172 NA
ATOM     13  C   UNK d   1      44.465  13.792  45.714  0.00  0.00     0.154 C 
BRANCH  13  14
ATOM     14  C   UNK d   1      45.172  15.027  46.066  0.00  0.00     0.026 A 
ATOM     15  C   UNK d   1      44.847  15.741  47.199  0.00  0.00     0.047 A 
ATOM     16 Cl   UNK d   1      43.560  15.134  48.215  0.00  0.00    -0.083 Cl
ATOM     17  C   UNK d   1      45.534  16.916  47.514  0.00  0.00     0.025 A 
ATOM     18  C   UNK d   1      46.549  17.399  46.715  0.00  0.00     0.003 A 
ATOM     19  C   UNK d   1      46.868  16.677  45.583  0.00  0.00     0.025 A 
ATOM     20  C   UNK d   1      46.186  15.510  45.267  0.00  0.00     0.047 A 
ATOM     21 Cl   UNK d   1      46.606  14.603  43.819  0.00  0.00    -0.083 Cl
ENDBRANCH  13  14
ENDBRANCH  10  12
ENDBRANCH   1  10
BRANCH   2  22
ATOM     22  C   UNK d   1      42.112   9.250  45.003  0.00  0.00     0.279 C 
ATOM     23  O   UNK d   1      43.260   9.470  44.247  0.00  0.00    -0.353 OA
ATOM     24  C   UNK d   1      43.514   8.191  43.755  0.00  0.00     0.179 C 
ATOM     25  C   UNK d   1      43.558   7.389  45.047  0.00  0.00     0.182 C 
ATOM     26  C   UNK d   1      42.367   7.970  45.780  0.00  0.00     0.199 C 
BRANCH  24  27
ATOM     27  C   UNK d   1      44.813   8.107  42.999  0.00  0.00     0.198 C 
BRANCH  27  28
ATOM     28  O   UNK d   1      45.859   7.665  43.772  0.00  0.00    -0.398 OA
ATOM     29  H   UNK d   1      45.927   8.159  44.618  0.00  0.00     0.209 HD
ENDBRANCH  27  28
ENDBRANCH  24  27
BRANCH  25  30
ATOM     30  O   UNK d   1      43.412   6.028  44.816  0.00  0.00    -0.390 OA
ATOM     31  H   UNK d   1      44.310   5.668  44.583  0.00  0.00     0.210 HD
ENDBRANCH  25  30
BRANCH  26  32
ATOM     32  O   UNK d   1      41.313   7.065  45.630  0.00  0.00    -0.388 OA
ATOM     33  H   UNK d   1      40.517   7.340  46.127  0.00  0.00     0.210 HD
ENDBRANCH  26  32
ENDBRANCH   2  22
BRANCH   7  34
ATOM     34  N   UNK d   1      39.546  13.238  48.777  0.00  0.00    -0.382 N 
ATOM     35  H   UNK d   1      38.681  13.636  49.182  0.00  0.00     0.157 HD
ATOM     36  H   UNK d   1      40.451  13.703  48.970  0.00  0.00     0.157 HD
ENDBRANCH   7  34
TORSDOF 9
ENDMDL
