/Users/jonathanwahrer/Desktop/Msc/3_Semester/Drug_Design_Praktikum/waehrer_HTS_screening/HTS_experiment/out/docking_results/vina_output/2qfa/1835_docked.pdbqt
 OpenBabel03162221053D

 36 39  0  0  1  0  0  0  0  0999 V2000
   42.5870   11.3520   46.3060 C   0  0  0  0  0  0  0  0  0  0  0  0
   41.8120   10.3410   45.8840 N   0  0  0  0  0  0  0  0  0  0  0  0
   40.6140   10.5250   46.4650 C   0  0  0  0  0  0  0  0  0  0  0  0
   39.4490    9.8330   46.4150 N   0  0  0  0  0  0  0  0  0  0  0  0
   38.3590   10.2280   47.1020 C   0  0  0  0  0  3  0  0  0  0  0  0
   38.4070   11.3400   47.8670 N   0  0  0  0  0  0  0  0  0  0  0  0
   39.5270   12.0790   47.9680 C   0  0  0  0  0  0  0  0  0  0  0  0
   40.6310   11.6550   47.2540 C   0  0  0  0  0  0  0  0  0  0  0  0
   41.8830   12.1560   47.1370 N   0  0  0  0  0  0  0  0  0  0  0  0
   43.9440   11.5600   45.9430 N   0  0  0  0  0  0  0  0  0  0  0  0
   44.4620   10.8620   45.3570 H   0  0  0  0  0  0  0  0  0  0  0  0
   44.6590   12.6910   46.3420 N   0  0  0  0  0  0  0  0  0  0  0  0
   44.4650   13.7920   45.7140 C   0  0  0  0  0  3  0  0  0  0  0  0
   45.1720   15.0270   46.0660 C   0  0  0  0  0  0  0  0  0  0  0  0
   44.8470   15.7410   47.1990 C   0  0  0  0  0  0  0  0  0  0  0  0
   43.5600   15.1340   48.2150 Cl  0  0  0  0  0  0  0  0  0  0  0  0
   45.5340   16.9160   47.5140 C   0  0  0  0  0  3  0  0  0  0  0  0
   46.5490   17.3990   46.7150 C   0  0  0  0  0  3  0  0  0  0  0  0
   46.8680   16.6770   45.5830 C   0  0  0  0  0  3  0  0  0  0  0  0
   46.1860   15.5100   45.2670 C   0  0  0  0  0  0  0  0  0  0  0  0
   46.6060   14.6030   43.8190 Cl  0  0  0  0  0  0  0  0  0  0  0  0
   42.1120    9.2500   45.0030 C   0  0  1  0  0  3  0  0  0  0  0  0
   43.2600    9.4700   44.2470 O   0  0  0  0  0  0  0  0  0  0  0  0
   43.5140    8.1910   43.7550 C   0  0  2  0  0  3  0  0  0  0  0  0
   43.5580    7.3890   45.0470 C   0  0  1  0  0  3  0  0  0  0  0  0
   42.3670    7.9700   45.7800 C   0  0  2  0  0  3  0  0  0  0  0  0
   44.8130    8.1070   42.9990 C   0  0  0  0  0  2  0  0  0  0  0  0
   45.8590    7.6650   43.7720 O   0  0  0  0  0  0  0  0  0  0  0  0
   45.9270    8.1590   44.6180 H   0  0  0  0  0  0  0  0  0  0  0  0
   43.4120    6.0280   44.8160 O   0  0  0  0  0  0  0  0  0  0  0  0
   44.3100    5.6680   44.5830 H   0  0  0  0  0  0  0  0  0  0  0  0
   41.3130    7.0650   45.6300 O   0  0  0  0  0  0  0  0  0  0  0  0
   40.5170    7.3400   46.1270 H   0  0  0  0  0  0  0  0  0  0  0  0
   39.5460   13.2380   48.7770 N   0  0  0  0  0  0  0  0  0  0  0  0
   38.6810   13.6360   49.1820 H   0  0  0  0  0  0  0  0  0  0  0  0
   40.4510   13.7030   48.9700 H   0  0  0  0  0  0  0  0  0  0  0  0
  1  9  2  0  0  0  0
  2  1  1  0  0  0  0
  2  3  1  0  0  0  0
  3  8  1  0  0  0  0
  4  3  2  0  0  0  0
  4  5  1  0  0  0  0
  5  6  2  0  0  0  0
  6  7  1  0  0  0  0
  7 34  1  0  0  0  0
  8  7  2  0  0  0  0
  9  8  1  0  0  0  0
 10  1  1  0  0  0  0
 10 12  1  0  0  0  0
 11 10  1  0  0  0  0
 13 14  1  0  0  0  0
 13 12  2  0  0  0  0
 14 15  1  0  0  0  0
 15 17  2  0  0  0  0
 15 16  1  0  0  0  0
 18 17  1  0  0  0  0
 19 18  2  0  0  0  0
 20 19  1  0  0  0  0
 20 14  2  0  0  0  0
 21 20  1  0  0  0  0
 22 26  1  0  0  0  0
 22  2  1  1  0  0  0
 23 22  1  0  0  0  0
 24 27  1  1  0  0  0
 24 23  1  0  0  0  0
 24 25  1  0  0  0  0
 25 30  1  6  0  0  0
 25 26  1  0  0  0  0
 26 32  1  6  0  0  0
 27 28  1  0  0  0  0
 28 29  1  0  0  0  0
 31 30  1  0  0  0  0
 32 33  1  0  0  0  0
 34 36  1  0  0  0  0
 34 35  1  0  0  0  0
M  END
>  <Pose>
1

>  <Score>
-6.663

$$$$
