MODEL 1
REMARK VINA RESULT:    -7.293      0.000      0.000
REMARK INTER + INTRA:         -10.169
REMARK INTER:                  -9.425
REMARK INTRA:                  -0.745
REMARK UNBOUND:                -0.745
REMARK  5 active torsions:
REMARK  status: ('A' for Active; 'I' for Inactive)
REMARK    1  A    between atoms: C_3  and  O_29 
REMARK    2  A    between atoms: C_6  and  N_8 
REMARK       I    between atoms: N_8  and  C_9 
REMARK    3  A    between atoms: C_9  and  C_11 
REMARK    4  A    between atoms: C_11  and  N_12 
REMARK    5  A    between atoms: C_17  and  N_23 
ROOT
ATOM      1  N   UNK d   1      46.224   6.718  42.966  0.00  0.00    -0.299 N 
ATOM      2  C   UNK d   1      46.913   6.850  44.121  0.00  0.00     0.215 A 
ATOM      3  N   UNK d   1      47.854   5.945  44.464  0.00  0.00    -0.223 NA
ATOM      4  C   UNK d   1      48.157   4.888  43.701  0.00  0.00     0.186 A 
ATOM      5  N   UNK d   1      49.091   3.982  44.033  0.00  0.00    -0.042 NA
ATOM      6  C   UNK d   1      49.415   2.913  43.286  0.00  0.00     0.726 A 
ATOM      7  N   UNK d   1      48.732   2.762  42.118  0.00  0.00    -0.074 NA
ATOM      8  C   UNK d   1      47.790   3.644  41.748  0.00  0.00     0.157 A 
ATOM      9  C   UNK d   1      47.467   4.738  42.523  0.00  0.00     0.099 A 
ATOM     10  C   UNK d   1      46.502   5.656  42.160  0.00  0.00     0.264 A 
ATOM     11  O   UNK d   1      45.906   5.465  41.071  0.00  0.00    -0.267 OA
ENDROOT
BRANCH   1  12
ATOM     12  C   UNK d   1      45.214   7.630  42.531  0.00  0.00     0.236 C 
BRANCH  12  13
ATOM     13  C   UNK d   1      44.145   7.841  43.567  0.00  0.00     0.240 C 
ATOM     14  N   UNK d   1      44.039   9.055  44.264  0.00  0.00    -0.326 N 
ATOM     15  H   UNK d   1      44.744   9.834  44.037  0.00  0.00     0.169 HD
ATOM     16  O   UNK d   1      43.377   6.885  43.760  0.00  0.00    -0.271 OA
BRANCH  14  17
ATOM     17  C   UNK d   1      43.059   9.307  45.249  0.00  0.00     0.036 A 
ATOM     18  C   UNK d   1      43.154   8.975  46.575  0.00  0.00     0.032 A 
ATOM     19  C   UNK d   1      42.108   9.264  47.455  0.00  0.00     0.041 A 
ATOM     20  C   UNK d   1      40.945   9.881  47.067  0.00  0.00     0.090 A 
ATOM     21  C   UNK d   1      40.840  10.218  45.739  0.00  0.00     0.069 A 
ATOM     22 Cl   UNK d   1      39.398  11.010  45.139  0.00  0.00    -0.081 Cl
ATOM     23  C   UNK d   1      41.861   9.939  44.866  0.00  0.00     0.056 A 
BRANCH  20  24
ATOM     24  O   UNK d   1      39.917  10.155  47.980  0.00  0.00    -0.354 OA
ATOM     25  C   UNK d   1      39.176   9.096  48.542  0.00  0.00     0.210 C 
ENDBRANCH  20  24
ENDBRANCH  14  17
ENDBRANCH  12  13
ENDBRANCH   1  12
BRANCH   6  26
ATOM     26  N   UNK d   1      50.406   1.980  43.672  0.00  0.00    -0.210 N 
ATOM     27  C   UNK d   1      50.809   1.937  45.058  0.00  0.00     0.167 C 
ATOM     28  C   UNK d   1      51.011   0.480  45.468  0.00  0.00     0.188 C 
ATOM     29  O   UNK d   1      51.801  -0.210  44.551  0.00  0.00    -0.388 OA
ATOM     30  C   UNK d   1      51.048  -0.324  43.382  0.00  0.00     0.188 C 
ATOM     31  C   UNK d   1      51.035   1.066  42.747  0.00  0.00     0.167 C 
ENDBRANCH   6  26
TORSDOF 5
ENDMDL
