/Users/jonathanwahrer/Desktop/Msc/3_Semester/Drug_Design_Praktikum/waehrer_HTS_screening/HTS_experiment/out/docking_results/vina_output/2qfa/1850_docked.pdbqt
 OpenBabel03162221063D

 24 27  0  0  0  0  0  0  0  0999 V2000
   39.6340   13.6670   46.8470 Cl  0  0  0  0  0  0  0  0  0  0  0  0
   40.1840   12.9660   45.3310 C   0  0  0  0  0  0  0  0  0  0  0  0
   41.0850   11.9200   45.3290 C   0  0  0  0  0  0  0  0  0  0  0  0
   41.5140   11.3750   44.1520 C   0  0  0  0  0  0  0  0  0  0  0  0
   41.0250   11.8940   42.9750 C   0  0  0  0  0  3  0  0  0  0  0  0
   40.1260   12.9380   42.9530 C   0  0  0  0  0  3  0  0  0  0  0  0
   39.6990   13.4810   44.1480 C   0  0  0  0  0  3  0  0  0  0  0  0
   42.4780   10.2520   44.0680 C   0  0  0  0  0  2  0  0  0  0  0  0
   42.6850    9.7670   45.4110 N   0  0  0  0  0  0  0  0  0  0  0  0
   42.9070   10.7610   46.4340 C   0  0  0  0  0  2  0  0  0  0  0  0
   41.5490   11.4370   46.6620 C   0  0  0  0  0  2  0  0  0  0  0  0
   42.6750    8.3910   45.7380 C   0  0  0  0  0  0  0  0  0  0  0  0
   42.8620    8.0340   46.9310 O   0  0  0  0  0  0  0  0  0  0  0  0
   42.4530    7.3180   44.7400 C   0  0  0  0  0  2  0  0  0  0  0  0
   43.4140    6.3120   44.8240 O   0  0  0  0  0  0  0  0  0  0  0  0
   44.4120    6.1070   43.8800 C   0  0  0  0  0  0  0  0  0  0  0  0
   45.1210    4.9620   43.9120 N   0  0  0  0  0  0  0  0  0  0  0  0
   46.0890    4.7050   43.0370 N   0  0  0  0  0  0  0  0  0  0  0  0
   46.4230    5.5650   42.0650 C   0  0  0  0  0  0  0  0  0  0  0  0
   46.8970    3.6370   42.9090 C   0  0  0  0  0  3  0  0  0  0  0  0
   47.4290    5.0410   41.3370 N   0  0  0  0  0  0  0  0  0  0  0  0
   45.7120    6.7580   42.0020 C   0  0  0  0  0  3  0  0  0  0  0  0
   47.7050    3.8710   41.8610 N   0  0  0  0  0  0  0  0  0  0  0  0
   44.7120    7.0250   42.9050 C   0  0  0  0  0  3  0  0  0  0  0  0
  2  1  1  0  0  0  0
  3  2  1  0  0  0  0
  3 11  1  0  0  0  0
  4  3  2  0  0  0  0
  5  4  1  0  0  0  0
  6  5  2  0  0  0  0
  6  7  1  0  0  0  0
  7  2  2  0  0  0  0
  8  4  1  0  0  0  0
  8  9  1  0  0  0  0
  9 12  1  0  0  0  0
  9 10  1  0  0  0  0
 10 11  1  0  0  0  0
 12 13  2  0  0  0  0
 14 15  1  0  0  0  0
 14 12  1  0  0  0  0
 16 17  2  0  0  0  0
 16 15  1  0  0  0  0
 18 17  1  0  0  0  0
 19 18  1  0  0  0  0
 20 18  1  0  0  0  0
 21 23  1  0  0  0  0
 21 19  2  0  0  0  0
 22 19  1  0  0  0  0
 22 24  2  0  0  0  0
 23 20  2  0  0  0  0
 24 16  1  0  0  0  0
M  END
>  <Pose>
1

>  <Score>
-7.904

$$$$
