MODEL 1
REMARK VINA RESULT:    -7.904      0.000      0.000
REMARK INTER + INTRA:          -9.680
REMARK INTER:                  -9.290
REMARK INTRA:                  -0.390
REMARK UNBOUND:                -0.390
REMARK  3 active torsions:
REMARK  status: ('A' for Active; 'I' for Inactive)
REMARK       I    between atoms: N_9  and  C_12 
REMARK    1  A    between atoms: C_12  and  C_14 
REMARK    2  A    between atoms: C_14  and  O_15 
REMARK    3  A    between atoms: O_15  and  C_16 
ROOT
ATOM      1 Cl   UNK d   1      39.634  13.667  46.847  0.00  0.00    -0.084 Cl
ATOM      2  C   UNK d   1      40.184  12.966  45.331  0.00  0.00     0.041 A 
ATOM      3  C   UNK d   1      41.085  11.920  45.329  0.00  0.00    -0.027 A 
ATOM      4  C   UNK d   1      41.514  11.375  44.152  0.00  0.00    -0.032 A 
ATOM      5  C   UNK d   1      41.025  11.894  42.975  0.00  0.00     0.009 A 
ATOM      6  C   UNK d   1      40.126  12.938  42.953  0.00  0.00     0.002 A 
ATOM      7  C   UNK d   1      39.699  13.481  44.148  0.00  0.00     0.024 A 
ATOM      8  C   UNK d   1      42.478  10.252  44.068  0.00  0.00     0.165 C 
ATOM      9  N   UNK d   1      42.685   9.767  45.411  0.00  0.00    -0.346 N 
ATOM     10  C   UNK d   1      42.907  10.761  46.434  0.00  0.00     0.131 C 
ATOM     11  C   UNK d   1      41.549  11.437  46.662  0.00  0.00     0.061 C 
ATOM     12  C   UNK d   1      42.675   8.391  45.738  0.00  0.00     0.244 C 
ATOM     13  O   UNK d   1      42.862   8.034  46.931  0.00  0.00    -0.271 OA
ENDROOT
BRANCH  12  14
ATOM     14  C   UNK d   1      42.453   7.318  44.740  0.00  0.00     0.280 C 
BRANCH  14  15
ATOM     15  O   UNK d   1      43.414   6.312  44.824  0.00  0.00    -0.324 OA
BRANCH  15  16
ATOM     16  C   UNK d   1      44.412   6.107  43.880  0.00  0.00     0.184 A 
ATOM     17  N   UNK d   1      45.121   4.962  43.912  0.00  0.00    -0.139 NA
ATOM     18  N   UNK d   1      46.089   4.705  43.037  0.00  0.00    -0.203 N 
ATOM     19  C   UNK d   1      46.423   5.565  42.065  0.00  0.00     0.174 A 
ATOM     20  C   UNK d   1      46.897   3.637  42.909  0.00  0.00     0.261 A 
ATOM     21  N   UNK d   1      47.429   5.041  41.337  0.00  0.00    -0.129 NA
ATOM     22  C   UNK d   1      45.712   6.758  42.002  0.00  0.00     0.059 A 
ATOM     23  N   UNK d   1      47.705   3.871  41.861  0.00  0.00    -0.141 NA
ATOM     24  C   UNK d   1      44.712   7.025  42.905  0.00  0.00     0.063 A 
ENDBRANCH  15  16
ENDBRANCH  14  15
ENDBRANCH  12  14
TORSDOF 3
ENDMDL
