MODEL 1
REMARK VINA RESULT:    -7.905      0.000      0.000
REMARK INTER + INTRA:         -10.319
REMARK INTER:                  -9.753
REMARK INTRA:                  -0.566
REMARK UNBOUND:                -0.566
REMARK  4 active torsions:
REMARK  status: ('A' for Active; 'I' for Inactive)
REMARK    1  A    between atoms: S_1  and  N_4 
REMARK    2  A    between atoms: S_1  and  C_17 
REMARK    3  A    between atoms: C_6  and  O_9 
REMARK    4  A    between atoms: O_9  and  C_10 
ROOT
ATOM      1  N   UNK d   1      44.731   6.747  43.111  0.00  0.00    -0.204 NA
ATOM      2  C   UNK d   1      45.457   5.557  43.425  0.00  0.00     0.140 C 
ATOM      3  C   UNK d   1      46.897   5.771  42.992  0.00  0.00     0.147 C 
ATOM      4  C   UNK d   1      47.031   7.276  43.099  0.00  0.00     0.049 C 
ATOM      5  C   UNK d   1      45.647   7.722  42.611  0.00  0.00     0.110 C 
ENDROOT
BRANCH   1   6
ATOM      6  S   UNK d   1      43.791   7.319  44.435  0.00  0.00     0.243 S 
ATOM      7  O   UNK d   1      44.679   7.662  45.583  0.00  0.00    -0.206 OA
ATOM      8  O   UNK d   1      42.868   6.204  44.852  0.00  0.00    -0.206 OA
BRANCH   6   9
ATOM      9  C   UNK d   1      42.830   8.710  43.994  0.00  0.00     0.077 A 
ATOM     10  C   UNK d   1      42.822   9.837  44.792  0.00  0.00     0.064 A 
ATOM     11  C   UNK d   1      42.078  10.964  44.488  0.00  0.00     0.103 A 
ATOM     12  C   UNK d   1      41.304  10.988  43.343  0.00  0.00     0.102 A 
ATOM     13  O   UNK d   1      42.063  12.092  45.276  0.00  0.00    -0.346 OA
ATOM     14  C   UNK d   1      41.317   9.866  42.555  0.00  0.00     0.041 A 
ATOM     15  O   UNK d   1      40.576  12.137  43.076  0.00  0.00    -0.346 OA
ATOM     16  C   UNK d   1      42.056   8.742  42.854  0.00  0.00     0.028 A 
ATOM     17  C   UNK d   1      40.161  13.048  44.078  0.00  0.00     0.202 C 
ATOM     18  C   UNK d   1      41.099  13.103  45.254  0.00  0.00     0.202 C 
ENDBRANCH   6   9
ENDBRANCH   1   6
BRANCH   3  19
ATOM     19  O   UNK d   1      47.733   5.180  43.973  0.00  0.00    -0.312 OA
BRANCH  19  20
ATOM     20  C   UNK d   1      48.587   4.130  43.675  0.00  0.00     0.268 A 
ATOM     21  N   UNK d   1      48.325   3.459  42.517  0.00  0.00    -0.218 NA
ATOM     22  C   UNK d   1      49.137   2.437  42.201  0.00  0.00     0.146 A 
ATOM     23  C   UNK d   1      50.199   2.060  42.998  0.00  0.00     0.069 A 
ATOM     24  C   UNK d   1      50.417   2.776  44.159  0.00  0.00     0.146 A 
ATOM     25 Cl   UNK d   1      51.250   0.724  42.575  0.00  0.00    -0.081 Cl
ATOM     26  N   UNK d   1      49.601   3.804  44.475  0.00  0.00    -0.218 NA
ENDBRANCH  19  20
ENDBRANCH   3  19
TORSDOF 4
ENDMDL
