MODEL 1
REMARK VINA RESULT:    -7.027      0.000      0.000
REMARK INTER + INTRA:         -10.026
REMARK INTER:                  -9.081
REMARK INTRA:                  -0.946
REMARK UNBOUND:                -0.946
REMARK  5 active torsions:
REMARK  status: ('A' for Active; 'I' for Inactive)
REMARK    1  A    between atoms: C_4  and  C_8 
REMARK    2  A    between atoms: C_8  and  N_9 
REMARK    3  A    between atoms: C_13  and  N_14 
REMARK    4  A    between atoms: N_17  and  C_20 
REMARK    5  A    between atoms: C_20  and  C_21 
REMARK       I    between atoms: C_21  and  N_23 
ROOT
ATOM      1  N   UNK d   1      41.324  11.973  45.109  0.00  0.00    -0.168 N 
ATOM      2  C   UNK d   1      41.769  13.150  45.630  0.00  0.00     0.167 A 
ATOM      3  C   UNK d   1      43.110  13.014  45.875  0.00  0.00     0.185 A 
ATOM      4  N   UNK d   1      43.430  11.776  45.501  0.00  0.00    -0.044 NA
ATOM      5  C   UNK d   1      42.342  11.113  45.025  0.00  0.00     0.707 A 
ATOM      6  N   UNK d   1      43.771  14.054  46.412  0.00  0.00    -0.286 N 
ATOM      7  C   UNK d   1      43.142  15.221  46.714  0.00  0.00     0.330 A 
ATOM      8  O   UNK d   1      43.759  16.210  47.221  0.00  0.00    -0.246 OA
ATOM      9  N   UNK d   1      41.828  15.383  46.485  0.00  0.00    -0.273 N 
ATOM     10  C   UNK d   1      41.152  14.357  45.950  0.00  0.00     0.280 A 
ATOM     11  O   UNK d   1      39.931  14.539  45.752  0.00  0.00    -0.265 OA
ATOM     12  C   UNK d   1      45.180  13.958  46.692  0.00  0.00     0.163 C 
ATOM     13  H   UNK d   1      41.339  16.299  46.722  0.00  0.00     0.173 HD
ENDROOT
BRANCH   5  14
ATOM     14  N   UNK d   1      42.355   9.740  44.582  0.00  0.00    -0.212 N 
ATOM     15  C   UNK d   1      42.418   9.555  43.150  0.00  0.00     0.171 C 
ATOM     16  C   UNK d   1      42.516   8.112  42.729  0.00  0.00     0.293 C 
ATOM     17  N   UNK d   1      43.503   7.489  43.533  0.00  0.00     0.100 N 
ATOM     18  C   UNK d   1      43.130   7.442  44.907  0.00  0.00     0.293 C 
ATOM     19  C   UNK d   1      42.307   8.589  45.416  0.00  0.00     0.171 C 
BRANCH  17  20
ATOM     20  C   UNK d   1      44.793   8.054  43.290  0.00  0.00     0.374 C 
BRANCH  20  21
ATOM     21  C   UNK d   1      45.905   7.059  43.297  0.00  0.00     0.243 C 
ATOM     22  O   UNK d   1      46.189   6.322  42.340  0.00  0.00    -0.272 OA
ATOM     23  N   UNK d   1      46.655   6.997  44.519  0.00  0.00    -0.369 N 
ATOM     24  H   UNK d   1      46.323   6.444  45.340  0.00  0.00     0.159 HD
ATOM     25  H   UNK d   1      47.532   7.510  44.578  0.00  0.00     0.159 HD
ENDBRANCH  20  21
ENDBRANCH  17  20
ENDBRANCH   5  14
BRANCH   1  26
ATOM     26  C   UNK d   1      39.975  11.758  44.705  0.00  0.00     0.186 C 
BRANCH  26  27
ATOM     27  C   UNK d   1      39.037  11.352  45.784  0.00  0.00    -0.038 A 
ATOM     28  C   UNK d   1      39.477  10.401  46.717  0.00  0.00     0.032 A 
ATOM     29  C   UNK d   1      38.699   9.949  47.746  0.00  0.00     0.034 A 
ATOM     30 Cl   UNK d   1      39.246   8.763  48.927  0.00  0.00    -0.084 Cl
ATOM     31  C   UNK d   1      37.418  10.439  47.885  0.00  0.00     0.024 A 
ATOM     32  C   UNK d   1      36.976  11.374  46.972  0.00  0.00     0.002 A 
ATOM     33  C   UNK d   1      37.770  11.830  45.930  0.00  0.00     0.009 A 
ENDBRANCH  26  27
ENDBRANCH   1  26
TORSDOF 5
ENDMDL
