/Users/jonathanwahrer/Desktop/Msc/3_Semester/Drug_Design_Praktikum/waehrer_HTS_screening/HTS_experiment/out/docking_results/vina_output/2qfa/1863_docked.pdbqt
 OpenBabel03162221073D

 33 36  0  0  0  0  0  0  0  0999 V2000
   41.3240   11.9730   45.1090 N   0  0  0  0  0  0  0  0  0  0  0  0
   41.7690   13.1500   45.6300 C   0  0  0  0  0  0  0  0  0  0  0  0
   43.1100   13.0140   45.8750 C   0  0  0  0  0  0  0  0  0  0  0  0
   43.4300   11.7760   45.5010 N   0  0  0  0  0  0  0  0  0  0  0  0
   42.3420   11.1130   45.0250 C   0  0  0  0  0  0  0  0  0  0  0  0
   43.7710   14.0540   46.4120 N   0  0  0  0  0  0  0  0  0  0  0  0
   43.1420   15.2210   46.7140 C   0  0  0  0  0  0  0  0  0  0  0  0
   43.7590   16.2100   47.2210 O   0  0  0  0  0  0  0  0  0  0  0  0
   41.8280   15.3830   46.4850 N   0  0  0  0  0  0  0  0  0  0  0  0
   41.1520   14.3570   45.9500 C   0  0  0  0  0  0  0  0  0  0  0  0
   39.9310   14.5390   45.7520 O   0  0  0  0  0  0  0  0  0  0  0  0
   45.1800   13.9580   46.6920 C   0  0  0  0  0  1  0  0  0  0  0  0
   41.3390   16.2990   46.7220 H   0  0  0  0  0  0  0  0  0  0  0  0
   42.3550    9.7400   44.5820 N   0  0  0  0  0  0  0  0  0  0  0  0
   42.4180    9.5550   43.1500 C   0  0  0  0  0  2  0  0  0  0  0  0
   42.5160    8.1120   42.7290 C   0  0  0  0  0  2  0  0  0  0  0  0
   43.5030    7.4890   43.5330 N   0  0  0  0  0  0  0  0  0  0  0  0
   43.1300    7.4420   44.9070 C   0  0  0  0  0  2  0  0  0  0  0  0
   42.3070    8.5890   45.4160 C   0  0  0  0  0  2  0  0  0  0  0  0
   44.7930    8.0540   43.2900 C   0  0  0  0  0  2  0  0  0  0  0  0
   45.9050    7.0590   43.2970 C   0  0  0  0  0  0  0  0  0  0  0  0
   46.1890    6.3220   42.3400 O   0  0  0  0  0  0  0  0  0  0  0  0
   46.6550    6.9970   44.5190 N   0  0  0  0  0  0  0  0  0  0  0  0
   46.3230    6.4440   45.3400 H   0  0  0  0  0  0  0  0  0  0  0  0
   47.5320    7.5100   44.5780 H   0  0  0  0  0  0  0  0  0  0  0  0
   39.9750   11.7580   44.7050 C   0  0  0  0  0  2  0  0  0  0  0  0
   39.0370   11.3520   45.7840 C   0  0  0  0  0  0  0  0  0  0  0  0
   39.4770   10.4010   46.7170 C   0  0  0  0  0  3  0  0  0  0  0  0
   38.6990    9.9490   47.7460 C   0  0  0  0  0  0  0  0  0  0  0  0
   39.2460    8.7630   48.9270 Cl  0  0  0  0  0  0  0  0  0  0  0  0
   37.4180   10.4390   47.8850 C   0  0  0  0  0  3  0  0  0  0  0  0
   36.9760   11.3740   46.9720 C   0  0  0  0  0  3  0  0  0  0  0  0
   37.7700   11.8300   45.9300 C   0  0  0  0  0  3  0  0  0  0  0  0
  1  2  1  0  0  0  0
  2  3  2  0  0  0  0
  2 10  1  0  0  0  0
  3  6  1  0  0  0  0
  4  3  1  0  0  0  0
  5  1  1  0  0  0  0
  5  4  2  0  0  0  0
  6 12  1  0  0  0  0
  6  7  1  0  0  0  0
  7  8  2  0  0  0  0
  9  7  1  0  0  0  0
  9 13  1  0  0  0  0
 10  9  1  0  0  0  0
 11 10  2  0  0  0  0
 14  5  1  0  0  0  0
 14 19  1  0  0  0  0
 15 14  1  0  0  0  0
 16 15  1  0  0  0  0
 16 17  1  0  0  0  0
 17 18  1  0  0  0  0
 18 19  1  0  0  0  0
 20 21  1  0  0  0  0
 20 17  1  0  0  0  0
 21 23  1  0  0  0  0
 22 21  2  0  0  0  0
 23 25  1  0  0  0  0
 23 24  1  0  0  0  0
 26  1  1  0  0  0  0
 26 27  1  0  0  0  0
 27 33  2  0  0  0  0
 27 28  1  0  0  0  0
 28 29  2  0  0  0  0
 29 31  1  0  0  0  0
 29 30  1  0  0  0  0
 32 31  2  0  0  0  0
 33 32  1  0  0  0  0
M  END
>  <Pose>
1

>  <Score>
-7.027

$$$$
