MODEL 1
REMARK VINA RESULT:    -7.784      0.000      0.000
REMARK INTER + INTRA:          -9.790
REMARK INTER:                  -9.149
REMARK INTRA:                  -0.641
REMARK UNBOUND:                -0.641
REMARK  3 active torsions:
REMARK  status: ('A' for Active; 'I' for Inactive)
REMARK    1  A    between atoms: C_4  and  C_8 
REMARK    2  A    between atoms: C_8  and  N_9 
REMARK       I    between atoms: N_16  and  C_19 
REMARK    3  A    between atoms: C_19  and  C_21 
ROOT
ATOM      1  N   UNK d   1      42.168   8.410  44.185  0.00  0.00    -0.264 N 
ATOM      2  C   UNK d   1      41.750   8.684  42.839  0.00  0.00     0.326 C 
ATOM      3  O   UNK d   1      41.917   7.894  41.851  0.00  0.00    -0.247 OA
ATOM      4  N   UNK d   1      41.126   9.964  42.797  0.00  0.00    -0.324 N 
ATOM      5  C   UNK d   1      41.604  10.668  43.966  0.00  0.00     0.119 C 
ATOM      6  C   UNK d   1      42.995  11.178  43.636  0.00  0.00     0.061 C 
ATOM      7  C   UNK d   1      43.649  11.513  44.971  0.00  0.00     0.129 C 
ATOM      8  N   UNK d   1      42.748  12.311  45.780  0.00  0.00    -0.346 N 
ATOM      9  C   UNK d   1      41.507  12.775  45.218  0.00  0.00     0.129 C 
ATOM     10  C   UNK d   1      40.742  11.763  44.431  0.00  0.00     0.061 C 
ATOM     11  C   UNK d   1      43.098  12.633  47.117  0.00  0.00     0.273 C 
ATOM     12  O   UNK d   1      42.300  13.330  47.823  0.00  0.00    -0.266 OA
ATOM     13  C   UNK d   1      41.778   9.557  44.935  0.00  0.00     0.256 C 
ATOM     14  O   UNK d   1      41.630   9.547  46.186  0.00  0.00    -0.270 OA
ATOM     15  H   UNK d   1      40.466  10.321  42.080  0.00  0.00     0.165 HD
ENDROOT
BRANCH   1  16
ATOM     16  C   UNK d   1      42.840   7.235  44.690  0.00  0.00     0.175 C 
BRANCH  16  17
ATOM     17  C   UNK d   1      44.162   7.018  44.065  0.00  0.00    -0.038 A 
ATOM     18  C   UNK d   1      44.672   5.752  43.886  0.00  0.00     0.032 A 
ATOM     19  C   UNK d   1      45.900   5.509  43.309  0.00  0.00     0.034 A 
ATOM     20 Cl   UNK d   1      46.544   3.895  43.085  0.00  0.00    -0.084 Cl
ATOM     21  C   UNK d   1      46.629   6.609  42.900  0.00  0.00     0.024 A 
ATOM     22  C   UNK d   1      46.129   7.883  43.073  0.00  0.00     0.002 A 
ATOM     23  C   UNK d   1      44.894   8.108  43.655  0.00  0.00     0.009 A 
ENDBRANCH  16  17
ENDBRANCH   1  16
BRANCH  11  24
ATOM     24  C   UNK d   1      44.337  12.210  47.746  0.00  0.00     0.141 A 
ATOM     25  N   UNK d   1      44.429  11.091  48.491  0.00  0.00    -0.253 NA
ATOM     26  C   UNK d   1      45.609  10.759  49.044  0.00  0.00     0.136 A 
ATOM     27  C   UNK d   1      46.744  11.524  48.881  0.00  0.00     0.135 A 
ATOM     28  N   UNK d   1      46.656  12.639  48.141  0.00  0.00    -0.269 NA
ATOM     29  C   UNK d   1      45.465  12.979  47.578  0.00  0.00     0.153 A 
ENDBRANCH  11  24
TORSDOF 3
ENDMDL
