/Users/jonathanwahrer/Desktop/Msc/3_Semester/Drug_Design_Praktikum/waehrer_HTS_screening/HTS_experiment/out/docking_results/vina_output/2qfa/1865_docked.pdbqt
 OpenBabel03162221073D

 29 32  0  0  1  0  0  0  0  0999 V2000
   42.1680    8.4100   44.1850 N   0  0  0  0  0  0  0  0  0  0  0  0
   41.7500    8.6840   42.8390 C   0  0  0  0  0  0  0  0  0  0  0  0
   41.9170    7.8940   41.8510 O   0  0  0  0  0  0  0  0  0  0  0  0
   41.1260    9.9640   42.7970 N   0  0  0  0  0  0  0  0  0  0  0  0
   41.6040   10.6680   43.9660 C   0  0  1  0  0  0  0  0  0  0  0  0
   42.9950   11.1780   43.6360 C   0  0  0  0  0  2  0  0  0  0  0  0
   43.6490   11.5130   44.9710 C   0  0  0  0  0  2  0  0  0  0  0  0
   42.7480   12.3110   45.7800 N   0  0  0  0  0  0  0  0  0  0  0  0
   41.5070   12.7750   45.2180 C   0  0  0  0  0  2  0  0  0  0  0  0
   40.7420   11.7630   44.4310 C   0  0  0  0  0  2  0  0  0  0  0  0
   43.0980   12.6330   47.1170 C   0  0  0  0  0  0  0  0  0  0  0  0
   42.3000   13.3300   47.8230 O   0  0  0  0  0  0  0  0  0  0  0  0
   41.7780    9.5570   44.9350 C   0  0  0  0  0  0  0  0  0  0  0  0
   41.6300    9.5470   46.1860 O   0  0  0  0  0  0  0  0  0  0  0  0
   40.4660   10.3210   42.0800 H   0  0  0  0  0  0  0  0  0  0  0  0
   42.8400    7.2350   44.6900 C   0  0  0  0  0  2  0  0  0  0  0  0
   44.1620    7.0180   44.0650 C   0  0  0  0  0  0  0  0  0  0  0  0
   44.6720    5.7520   43.8860 C   0  0  0  0  0  3  0  0  0  0  0  0
   45.9000    5.5090   43.3090 C   0  0  0  0  0  0  0  0  0  0  0  0
   46.5440    3.8950   43.0850 Cl  0  0  0  0  0  0  0  0  0  0  0  0
   46.6290    6.6090   42.9000 C   0  0  0  0  0  3  0  0  0  0  0  0
   46.1290    7.8830   43.0730 C   0  0  0  0  0  3  0  0  0  0  0  0
   44.8940    8.1080   43.6550 C   0  0  0  0  0  3  0  0  0  0  0  0
   44.3370   12.2100   47.7460 C   0  0  0  0  0  0  0  0  0  0  0  0
   44.4290   11.0910   48.4910 N   0  0  0  0  0  0  0  0  0  0  0  0
   45.6090   10.7590   49.0440 C   0  0  0  0  0  3  0  0  0  0  0  0
   46.7440   11.5240   48.8810 C   0  0  0  0  0  3  0  0  0  0  0  0
   46.6560   12.6390   48.1410 N   0  0  0  0  0  0  0  0  0  0  0  0
   45.4650   12.9790   47.5780 C   0  0  0  0  0  3  0  0  0  0  0  0
  1 16  1  0  0  0  0
  1 13  1  0  0  0  0
  2  1  1  0  0  0  0
  3  2  2  0  0  0  0
  4  2  1  0  0  0  0
  4  5  1  0  0  0  0
  5  6  1  6  0  0  0
  5 10  1  0  0  0  0
  5 13  1  0  0  0  0
  6  7  1  0  0  0  0
  7  8  1  0  0  0  0
  8 11  1  0  0  0  0
  9  8  1  0  0  0  0
 10  9  1  0  0  0  0
 11 24  1  0  0  0  0
 11 12  2  0  0  0  0
 13 14  2  0  0  0  0
 15  4  1  0  0  0  0
 17 16  1  0  0  0  0
 18 17  1  0  0  0  0
 19 18  2  0  0  0  0
 20 19  1  0  0  0  0
 21 22  2  0  0  0  0
 21 19  1  0  0  0  0
 22 23  1  0  0  0  0
 23 17  2  0  0  0  0
 24 25  1  0  0  0  0
 25 26  2  0  0  0  0
 27 26  1  0  0  0  0
 28 27  2  0  0  0  0
 29 24  2  0  0  0  0
 29 28  1  0  0  0  0
M  END
>  <Pose>
1

>  <Score>
-7.784

$$$$
