/Users/jonathanwahrer/Desktop/Msc/3_Semester/Drug_Design_Praktikum/waehrer_HTS_screening/HTS_experiment/out/docking_results/vina_output/2qfa/1871_docked.pdbqt
 OpenBabel03162221073D

 28 31  0  0  1  0  0  0  0  0999 V2000
   40.8320   11.3630   44.3410 C   0  0  2  0  0  0  0  0  0  0  0  0
   42.1930   11.0960   44.0850 N   0  0  0  0  0  4  0  0  0  0  0  0
   43.0060   12.0860   44.6550 C   0  0  0  0  0  0  0  0  0  0  0  0
   44.2550   12.4780   44.7140 C   0  0  0  0  0  3  0  0  0  0  0  0
   44.6570   13.6520   45.4960 C   0  0  0  0  0  3  0  0  0  0  0  0
   43.7620   14.2100   46.5020 C   0  0  0  0  0  3  0  0  0  0  0  0
   42.3900   13.5850   46.5650 C   0  0  0  0  0  2  0  0  0  0  0  0
   42.0550   12.9490   45.3410 N   0  0  0  0  0  0  0  0  0  0  0  0
   40.8970   12.8950   44.4580 C   0  0  2  0  0  3  0  0  0  0  0  0
   39.7290   13.5410   45.0770 C   0  0  0  0  0  1  0  0  0  0  0  0
   42.2730   11.3890   43.0080 H   0  0  0  0  0  0  0  0  0  0  0  0
   40.2200   10.8090   45.5470 C   0  0  0  0  0  0  0  0  0  0  0  0
   38.8680   10.5920   45.5870 C   0  0  0  0  0  3  0  0  0  0  0  0
   38.2340   10.0840   46.7190 C   0  0  0  0  0  3  0  0  0  0  0  0
   39.0090    9.7950   47.8340 C   0  0  0  0  0  0  0  0  0  0  0  0
   38.3060    9.1550   49.3080 Cl  0  0  0  0  0  0  0  0  0  0  0  0
   40.3700   10.0190   47.7780 C   0  0  0  0  0  3  0  0  0  0  0  0
   40.9970   10.5220   46.6560 C   0  0  0  0  0  3  0  0  0  0  0  0
   40.0840   11.1140   43.2130 O   0  0  0  0  0  0  0  0  0  0  0  0
   40.5500   11.1430   42.3580 H   0  0  0  0  0  0  0  0  0  0  0  0
   42.5930    9.7670   43.9970 C   0  0  0  0  0  0  0  0  0  0  0  0
   43.3550    9.2660   45.0400 C   0  0  0  0  0  3  0  0  0  0  0  0
   43.8230    7.9740   45.0690 C   0  0  0  0  0  3  0  0  0  0  0  0
   43.5570    7.0700   44.0350 C   0  0  0  0  0  0  0  0  0  0  0  0
   42.8020    7.5930   43.0150 C   0  0  0  0  0  3  0  0  0  0  0  0
   42.3370    8.8850   42.9930 C   0  0  0  0  0  3  0  0  0  0  0  0
   44.0290    5.7720   44.0770 O   0  0  0  0  0  0  0  0  0  0  0  0
   45.2590    5.4620   43.4720 C   0  0  0  0  0  1  0  0  0  0  0  0
  1 19  1  6  0  0  0
  1  9  1  0  0  0  0
  1 12  1  0  0  0  0
  2  1  1  0  0  0  0
  2  3  1  0  0  0  0
  3  4  2  0  0  0  0
  3  8  1  0  0  0  0
  4  5  1  0  0  0  0
  5  6  2  0  0  0  0
  6  7  1  0  0  0  0
  8  7  1  0  0  0  0
  9 10  1  1  0  0  0
  9  8  1  0  0  0  0
 11  2  1  0  0  0  0
 12 13  2  0  0  0  0
 12 18  1  0  0  0  0
 13 14  1  0  0  0  0
 14 15  2  0  0  0  0
 15 16  1  0  0  0  0
 17 15  1  0  0  0  0
 18 17  2  0  0  0  0
 20 19  1  0  0  0  0
 21  2  1  0  0  0  0
 21 22  1  0  0  0  0
 22 23  2  0  0  0  0
 24 27  1  0  0  0  0
 24 23  1  0  0  0  0
 25 24  2  0  0  0  0
 26 25  1  0  0  0  0
 26 21  2  0  0  0  0
 28 27  1  0  0  0  0
M  END
>  <Pose>
1

>  <Score>
-7.336

$$$$
