MODEL 1
REMARK VINA RESULT:    -7.336      0.000      0.000
REMARK INTER + INTRA:          -8.155
REMARK INTER:                  -8.837
REMARK INTRA:                   0.682
REMARK UNBOUND:                 0.682
REMARK  4 active torsions:
REMARK  status: ('A' for Active; 'I' for Inactive)
REMARK    1  A    between atoms: C_5  and  C_8 
REMARK    2  A    between atoms: C_8  and  O_26 
REMARK    3  A    between atoms: N_9  and  C_18 
REMARK    4  A    between atoms: C_21  and  O_24 
ROOT
ATOM      1  C   UNK d   1      40.832  11.363  44.341  0.00  0.00     0.287 C 
ATOM      2  N   UNK d   1      42.193  11.096  44.085  0.00  0.00     0.042 N 
ATOM      3  C   UNK d   1      43.006  12.086  44.655  0.00  0.00     0.210 C 
ATOM      4  C   UNK d   1      44.255  12.478  44.714  0.00  0.00     0.030 C 
ATOM      5  C   UNK d   1      44.657  13.652  45.496  0.00  0.00     0.032 C 
ATOM      6  C   UNK d   1      43.762  14.210  46.502  0.00  0.00     0.024 C 
ATOM      7  C   UNK d   1      42.390  13.585  46.565  0.00  0.00     0.125 C 
ATOM      8  N   UNK d   1      42.055  12.949  45.341  0.00  0.00    -0.351 N 
ATOM      9  C   UNK d   1      40.897  12.895  44.458  0.00  0.00     0.151 C 
ATOM     10  C   UNK d   1      39.729  13.541  45.077  0.00  0.00     0.038 C 
ATOM     11  H   UNK d   1      42.273  11.389  43.008  0.00  0.00     0.299 HD
ENDROOT
BRANCH   1  12
ATOM     12  C   UNK d   1      40.220  10.809  45.547  0.00  0.00     0.008 A 
ATOM     13  C   UNK d   1      38.868  10.592  45.587  0.00  0.00     0.014 A 
ATOM     14  C   UNK d   1      38.234  10.084  46.719  0.00  0.00     0.024 A 
ATOM     15  C   UNK d   1      39.009   9.795  47.834  0.00  0.00     0.034 A 
ATOM     16 Cl   UNK d   1      38.306   9.155  49.308  0.00  0.00    -0.084 Cl
ATOM     17  C   UNK d   1      40.370  10.019  47.778  0.00  0.00     0.024 A 
ATOM     18  C   UNK d   1      40.997  10.522  46.656  0.00  0.00     0.014 A 
ENDBRANCH   1  12
BRANCH   1  19
ATOM     19  O   UNK d   1      40.084  11.114  43.213  0.00  0.00    -0.359 OA
ATOM     20  H   UNK d   1      40.550  11.143  42.358  0.00  0.00     0.213 HD
ENDBRANCH   1  19
BRANCH   2  21
ATOM     21  C   UNK d   1      42.593   9.767  43.997  0.00  0.00     0.146 A 
ATOM     22  C   UNK d   1      43.355   9.266  45.040  0.00  0.00     0.041 A 
ATOM     23  C   UNK d   1      43.823   7.974  45.069  0.00  0.00     0.039 A 
ATOM     24  C   UNK d   1      43.557   7.070  44.035  0.00  0.00     0.068 A 
ATOM     25  C   UNK d   1      42.802   7.593  43.015  0.00  0.00     0.039 A 
ATOM     26  C   UNK d   1      42.337   8.885  42.993  0.00  0.00     0.041 A 
BRANCH  24  27
ATOM     27  O   UNK d   1      44.029   5.772  44.077  0.00  0.00    -0.356 OA
ATOM     28  C   UNK d   1      45.259   5.462  43.472  0.00  0.00     0.210 C 
ENDBRANCH  24  27
ENDBRANCH   2  21
TORSDOF 4
ENDMDL
