MODEL 1
REMARK VINA RESULT:    -8.585      0.000      0.000
REMARK INTER + INTRA:         -11.090
REMARK INTER:                 -10.592
REMARK INTRA:                  -0.498
REMARK UNBOUND:                -0.498
REMARK  4 active torsions:
REMARK  status: ('A' for Active; 'I' for Inactive)
REMARK    1  A    between atoms: C_5  and  N_8 
REMARK    2  A    between atoms: N_15  and  C_16 
REMARK    3  A    between atoms: C_16  and  C_17 
REMARK    4  A    between atoms: C_19  and  O_23 
ROOT
ATOM      1  N   UNK d   1      42.354  11.518  44.736  0.00  0.00    -0.241 N 
ATOM      2  C   UNK d   1      42.783  10.267  45.025  0.00  0.00     0.286 A 
ATOM      3  O   UNK d   1      43.571   9.995  45.969  0.00  0.00    -0.265 OA
ATOM      4  C   UNK d   1      42.242   9.342  44.148  0.00  0.00     0.154 A 
ATOM      5  C   UNK d   1      41.478  10.032  43.317  0.00  0.00     0.152 A 
ATOM      6  N   UNK d   1      40.952   9.128  42.464  0.00  0.00    -0.279 N 
ATOM      7  N   UNK d   1      41.406   7.910  42.791  0.00  0.00    -0.239 N 
ATOM      8  N   UNK d   1      42.208   8.034  43.836  0.00  0.00    -0.266 N 
ATOM      9  C   UNK d   1      41.545  11.363  43.674  0.00  0.00     0.286 A 
ATOM     10  O   UNK d   1      40.928  12.272  43.077  0.00  0.00    -0.265 OA
ATOM     11  H   UNK d   1      40.304   9.348  41.685  0.00  0.00     0.189 HD
ATOM     12  H   UNK d   1      41.193   6.999  42.333  0.00  0.00     0.208 HD
ENDROOT
BRANCH   8  13
ATOM     13  C   UNK d   1      42.914   6.971  44.519  0.00  0.00     0.189 C 
BRANCH  13  14
ATOM     14  C   UNK d   1      44.264   6.716  43.957  0.00  0.00    -0.036 A 
ATOM     15  C   UNK d   1      44.779   5.460  43.723  0.00  0.00     0.045 A 
ATOM     16  C   UNK d   1      46.035   5.227  43.199  0.00  0.00     0.068 A 
ATOM     17  C   UNK d   1      46.831   6.303  42.888  0.00  0.00     0.037 A 
ATOM     18  C   UNK d   1      46.357   7.575  43.105  0.00  0.00     0.003 A 
ATOM     19  C   UNK d   1      45.093   7.780  43.632  0.00  0.00     0.009 A 
BRANCH  16  20
ATOM     20  O   UNK d   1      46.462   3.908  43.001  0.00  0.00    -0.356 OA
ATOM     21  C   UNK d   1      47.562   3.606  42.167  0.00  0.00     0.210 C 
ENDBRANCH  16  20
ENDBRANCH  13  14
ENDBRANCH   8  13
BRANCH   1  22
ATOM     22  C   UNK d   1      42.695  12.709  45.412  0.00  0.00     0.046 A 
ATOM     23  C   UNK d   1      43.965  13.243  45.344  0.00  0.00     0.032 A 
ATOM     24  C   UNK d   1      44.324  14.407  45.998  0.00  0.00     0.026 A 
ATOM     25  C   UNK d   1      43.366  15.057  46.747  0.00  0.00     0.034 A 
ATOM     26 Cl   UNK d   1      43.749  16.550  47.612  0.00  0.00    -0.084 Cl
ATOM     27  C   UNK d   1      42.081  14.563  46.847  0.00  0.00     0.026 A 
ATOM     28  C   UNK d   1      41.764  13.388  46.173  0.00  0.00     0.032 A 
ENDBRANCH   1  22
TORSDOF 4
ENDMDL
