MODEL 1
REMARK VINA RESULT:    -8.181      0.000      0.000
REMARK INTER + INTRA:         -10.062
REMARK INTER:                  -9.616
REMARK INTRA:                  -0.445
REMARK UNBOUND:                -0.445
REMARK  3 active torsions:
REMARK  status: ('A' for Active; 'I' for Inactive)
REMARK    1  A    between atoms: C_5  and  N_8 
REMARK    2  A    between atoms: N_15  and  C_16 
REMARK    3  A    between atoms: C_16  and  C_17 
ROOT
ATOM      1  N   UNK d   1      42.006  11.802  44.895  0.00  0.00    -0.241 N 
ATOM      2  C   UNK d   1      42.492  10.579  45.205  0.00  0.00     0.286 A 
ATOM      3  O   UNK d   1      43.239  10.350  46.179  0.00  0.00    -0.265 OA
ATOM      4  C   UNK d   1      42.051   9.626  44.303  0.00  0.00     0.154 A 
ATOM      5  C   UNK d   1      41.279  10.284  43.425  0.00  0.00     0.152 A 
ATOM      6  N   UNK d   1      40.855   9.351  42.555  0.00  0.00    -0.279 N 
ATOM      7  N   UNK d   1      41.349   8.173  42.892  0.00  0.00    -0.239 N 
ATOM      8  N   UNK d   1      42.090   8.326  43.969  0.00  0.00    -0.266 N 
ATOM      9  C   UNK d   1      41.261  11.611  43.799  0.00  0.00     0.286 A 
ATOM     10  O   UNK d   1      40.630  12.519  43.191  0.00  0.00    -0.265 OA
ATOM     11  H   UNK d   1      40.233   9.497  41.734  0.00  0.00     0.189 HD
ATOM     12  H   UNK d   1      41.183   7.254  42.387  0.00  0.00     0.208 HD
ENDROOT
BRANCH   1  13
ATOM     13  C   UNK d   1      42.236  13.029  45.585  0.00  0.00     0.046 A 
ATOM     14  C   UNK d   1      43.498  13.579  45.670  0.00  0.00     0.032 A 
ATOM     15  C   UNK d   1      43.730  14.767  46.337  0.00  0.00     0.026 A 
ATOM     16  C   UNK d   1      42.703  15.457  46.946  0.00  0.00     0.034 A 
ATOM     17 Cl   UNK d   1      43.002  16.972  47.795  0.00  0.00    -0.084 Cl
ATOM     18  C   UNK d   1      41.436  14.917  46.867  0.00  0.00     0.026 A 
ATOM     19  C   UNK d   1      41.213  13.728  46.200  0.00  0.00     0.032 A 
ENDBRANCH   1  13
BRANCH   8  20
ATOM     20  C   UNK d   1      42.823   7.301  44.675  0.00  0.00     0.189 C 
BRANCH  20  21
ATOM     21  C   UNK d   1      44.100   6.930  44.029  0.00  0.00    -0.038 A 
ATOM     22  C   UNK d   1      44.447   5.606  43.917  0.00  0.00     0.009 A 
ATOM     23  C   UNK d   1      45.641   5.284  43.316  0.00  0.00     0.001 A 
ATOM     24  C   UNK d   1      46.491   6.260  42.826  0.00  0.00     0.000 A 
ATOM     25  C   UNK d   1      46.145   7.587  42.938  0.00  0.00     0.001 A 
ATOM     26  C   UNK d   1      44.954   7.891  43.538  0.00  0.00     0.009 A 
ENDBRANCH  20  21
ENDBRANCH   8  20
TORSDOF 3
ENDMDL
