MODEL 1
REMARK VINA RESULT:    -6.972      0.000      0.000
REMARK INTER + INTRA:          -9.142
REMARK INTER:                  -8.195
REMARK INTRA:                  -0.947
REMARK UNBOUND:                -0.947
REMARK  3 active torsions:
REMARK  status: ('A' for Active; 'I' for Inactive)
REMARK    1  A    between atoms: S_1  and  N_4 
REMARK    2  A    between atoms: S_1  and  C_26 
REMARK       I    between atoms: N_7  and  C_10 
REMARK    3  A    between atoms: C_12  and  N_13 
ROOT
ATOM      1  N   UNK d   1      38.159  14.008  45.450  0.00  0.00    -0.303 N 
ATOM      2  C   UNK d   1      39.074  13.004  45.070  0.00  0.00     0.155 C 
ATOM      3  C   UNK d   1      40.493  13.579  45.261  0.00  0.00     0.145 C 
ATOM      4  N   UNK d   1      40.621  13.678  46.692  0.00  0.00    -0.358 N 
ATOM      5  C   UNK d   1      39.703  14.684  47.269  0.00  0.00     0.145 C 
ATOM      6  C   UNK d   1      38.370  14.714  46.643  0.00  0.00     0.155 C 
ATOM      7  C   UNK d   1      41.461  12.978  47.557  0.00  0.00     0.172 C 
ATOM      8  O   UNK d   1      41.301  13.323  48.820  0.00  0.00    -0.175 OA
ATOM      9  C   UNK d   1      42.464  11.958  47.390  0.00  0.00     0.224 C 
ENDROOT
BRANCH   9  10
ATOM     10  N   UNK d   1      42.757  11.499  46.067  0.00  0.00    -0.260 N 
ATOM     11  C   UNK d   1      43.837  11.951  45.249  0.00  0.00     0.326 C 
ATOM     12  O   UNK d   1      44.670  12.849  45.611  0.00  0.00    -0.247 OA
ATOM     13  N   UNK d   1      43.795  11.239  44.030  0.00  0.00    -0.324 N 
ATOM     14  C   UNK d   1      42.950  10.069  44.217  0.00  0.00     0.119 C 
ATOM     15  H   UNK d   1      44.270  11.484  43.148  0.00  0.00     0.165 HD
ATOM     16  C   UNK d   1      42.120   9.719  43.032  0.00  0.00     0.019 C 
ATOM     17  C   UNK d   1      43.857   8.939  44.650  0.00  0.00     0.041 C 
ATOM     18  C   UNK d   1      42.050  10.499  45.329  0.00  0.00     0.257 C 
ATOM     19  C   UNK d   1      41.973   8.193  43.006  0.00  0.00     0.007 C 
ATOM     20  C   UNK d   1      40.716  10.274  43.076  0.00  0.00     0.013 C 
ATOM     21  C   UNK d   1      43.320   7.652  42.567  0.00  0.00     0.001 C 
ATOM     22  C   UNK d   1      44.408   8.311  43.378  0.00  0.00     0.003 C 
ATOM     23  O   UNK d   1      40.905  10.072  45.572  0.00  0.00    -0.270 OA
ENDBRANCH   9  10
BRANCH   1  24
ATOM     24  S   UNK d   1      36.527  13.669  45.077  0.00  0.00     0.267 S 
ATOM     25  O   UNK d   1      36.242  12.244  44.814  0.00  0.00    -0.200 OA
ATOM     26  O   UNK d   1      35.677  14.126  46.239  0.00  0.00    -0.200 OA
BRANCH  24  27
ATOM     27  C   UNK d   1      36.101  14.641  43.658  0.00  0.00     0.121 A 
ATOM     28  S   UNK d   1      35.172  16.064  43.548  0.00  0.00    -0.064 SA
ATOM     29  C   UNK d   1      35.260  16.321  41.868  0.00  0.00     0.075 A 
ATOM     30  C   UNK d   1      36.025  15.271  41.431  0.00  0.00     0.033 A 
ATOM     31 Cl   UNK d   1      34.539  17.627  40.915  0.00  0.00    -0.076 Cl
ATOM     32  C   UNK d   1      36.457  14.404  42.363  0.00  0.00     0.035 A 
ENDBRANCH  24  27
ENDBRANCH   1  24
TORSDOF 3
ENDMDL
