MODEL 1
REMARK VINA RESULT:    -6.915      0.000      0.000
REMARK INTER + INTRA:          -9.643
REMARK INTER:                  -8.936
REMARK INTRA:                  -0.707
REMARK UNBOUND:                -0.707
REMARK  5 active torsions:
REMARK  status: ('A' for Active; 'I' for Inactive)
REMARK    1  A    between atoms: C_9  and  N_11 
REMARK    2  A    between atoms: C_14  and  C_17 
REMARK       I    between atoms: C_17  and  N_19 
REMARK    3  A    between atoms: N_19  and  C_20 
REMARK    4  A    between atoms: C_20  and  C_21 
REMARK    5  A    between atoms: C_21  and  N_22 
ROOT
ATOM      1  N   UNK d   1      43.098  12.220  44.833  0.00  0.00    -0.364 N 
ATOM      2  C   UNK d   1      43.503  11.412  43.706  0.00  0.00     0.125 C 
ATOM      3  C   UNK d   1      42.345  10.884  42.903  0.00  0.00     0.034 C 
ATOM      4  C   UNK d   1      41.304  10.349  43.824  0.00  0.00     0.081 C 
ATOM      5  C   UNK d   1      40.751  11.453  44.657  0.00  0.00     0.034 C 
ATOM      6  C   UNK d   1      41.735  12.408  45.225  0.00  0.00     0.125 C 
ENDROOT
BRANCH   4   7
ATOM      7  C   UNK d   1      41.758   9.176  44.574  0.00  0.00     0.222 C 
ATOM      8  O   UNK d   1      41.600   9.165  45.819  0.00  0.00    -0.273 OA
ATOM      9  N   UNK d   1      42.367   8.059  43.966  0.00  0.00    -0.359 N 
ATOM     10  H   UNK d   1      42.500   8.068  42.913  0.00  0.00     0.162 HD
BRANCH   9  11
ATOM     11  C   UNK d   1      42.820   6.896  44.694  0.00  0.00     0.152 C 
BRANCH  11  12
ATOM     12  C   UNK d   1      43.545   5.896  43.840  0.00  0.00     0.292 C 
BRANCH  12  13
ATOM     13  N   UNK d   1      44.976   5.944  44.082  0.00  0.00     0.094 N 
ATOM     14  C   UNK d   1      45.472   7.270  44.233  0.00  0.00     0.298 C 
ATOM     15  C   UNK d   1      46.307   7.664  43.030  0.00  0.00     0.198 C 
ATOM     16  O   UNK d   1      47.400   6.835  42.988  0.00  0.00    -0.388 OA
ATOM     17  C   UNK d   1      47.140   5.490  42.997  0.00  0.00     0.198 C 
ATOM     18  C   UNK d   1      45.721   5.096  43.222  0.00  0.00     0.298 C 
ENDBRANCH  12  13
ENDBRANCH  11  12
ENDBRANCH   9  11
ENDBRANCH   4   7
BRANCH   1  19
ATOM     19  C   UNK d   1      44.108  12.856  45.585  0.00  0.00     0.160 A 
ATOM     20  C   UNK d   1      44.504  12.347  46.793  0.00  0.00     0.128 A 
ATOM     21  C   UNK d   1      45.523  12.969  47.528  0.00  0.00     0.184 A 
ATOM     22  N   UNK d   1      44.109  11.292  47.524  0.00  0.00    -0.345 N 
ATOM     23  N   UNK d   1      46.082  14.065  47.007  0.00  0.00    -0.196 NA
ATOM     24  N   UNK d   1      45.727  12.303  48.659  0.00  0.00    -0.222 NA
ATOM     25  C   UNK d   1      45.704  14.570  45.832  0.00  0.00     0.227 A 
ATOM     26 Cl   UNK d   1      46.474  15.996  45.215  0.00  0.00    -0.041 Cl
ATOM     27  N   UNK d   1      44.734  13.980  45.128  0.00  0.00    -0.198 NA
ATOM     28  C   UNK d   1      44.856  11.286  48.635  0.00  0.00     0.210 A 
ATOM     29  H   UNK d   1      43.350  10.629  47.240  0.00  0.00     0.167 HD
ENDBRANCH   1  19
TORSDOF 5
ENDMDL
