/Users/jonathanwahrer/Desktop/Msc/3_Semester/Drug_Design_Praktikum/waehrer_HTS_screening/HTS_experiment/out/docking_results/vina_output/2qfa/1928_docked.pdbqt
 OpenBabel03162221093D

 28 31  0  0  0  0  0  0  0  0999 V2000
   48.3080    3.9380   42.8500 N   0  0  0  0  0  0  0  0  0  0  0  0
   49.0400    2.8310   42.6040 C   0  0  0  0  0  2  0  0  0  0  0  0
   49.9690    2.3870   43.5100 C   0  0  0  0  0  0  0  0  0  0  0  0
   50.1630    3.1300   44.7600 C   0  0  0  0  0  0  0  0  0  0  0  0
   51.1230    2.4750   45.4490 N   0  0  0  0  0  2  0  0  0  0  0  0
   51.5240    1.4300   44.7550 N   0  0  0  0  0  0  0  0  0  0  0  0
   50.8700    1.3260   43.5890 C   0  0  0  0  0  0  0  0  0  0  0  0
   51.0120    0.4500   42.7020 O   0  0  0  0  0  0  0  0  0  0  0  0
   49.3920    4.2540   44.9670 C   0  0  0  0  0  0  0  0  0  0  0  0
   48.5000    4.5980   43.9900 C   0  0  0  0  0  3  0  0  0  0  0  0
   52.2550    0.7690   45.0740 H   0  0  0  0  0  0  0  0  0  0  0  0
   47.3310    4.3660   41.8470 C   0  0  0  0  0  2  0  0  0  0  0  0
   46.2190    5.0810   42.5030 C   0  0  0  0  0  0  0  0  0  0  0  0
   45.5170    4.6040   43.5020 O   0  0  0  0  0  0  0  0  0  0  0  0
   44.6200    5.4800   43.8430 N   0  0  0  0  0  0  0  0  0  0  0  0
   44.7140    6.5670   43.0630 C   0  0  0  0  0  0  0  0  0  0  0  0
   45.7230    6.3140   42.2180 N   0  0  0  0  0  0  0  0  0  0  0  0
   43.8710    7.7510   43.1540 C   0  0  0  0  0  0  0  0  0  0  0  0
   42.5630    7.7420   42.7290 C   0  0  0  0  0  3  0  0  0  0  0  0
   41.7540    8.8600   42.8120 C   0  0  0  0  0  3  0  0  0  0  0  0
   42.2470   10.0420   43.3340 C   0  0  0  0  0  0  0  0  0  0  0  0
   41.2400   11.4760   43.4500 Cl  0  0  0  0  0  0  0  0  0  0  0  0
   43.5660   10.0550   43.7640 C   0  0  0  0  0  3  0  0  0  0  0  0
   44.3680    8.9280   43.6770 C   0  0  0  0  0  3  0  0  0  0  0  0
   49.5580    5.0210   46.2010 C   0  0  0  0  0  0  0  0  0  0  0  0
   50.0070    6.1750   46.1750 O   0  0  0  0  0  0  0  0  0  0  0  0
   49.2210    4.4780   47.4300 O   0  0  0  0  0  0  0  0  0  0  0  0
   49.2390    5.2050   48.6360 C   0  0  0  0  0  1  0  0  0  0  0  0
  1 10  1  0  0  0  0
  2  1  1  0  0  0  0
  2  3  1  0  0  0  0
  3  7  1  0  0  0  0
  3  4  2  0  0  0  0
  4  9  1  0  0  0  0
  4  5  1  0  0  0  0
  6 11  1  0  0  0  0
  6  5  1  0  0  0  0
  7  6  1  0  0  0  0
  8  7  2  0  0  0  0
  9 25  1  0  0  0  0
 10  9  2  0  0  0  0
 12 13  1  0  0  0  0
 12  1  1  0  0  0  0
 13 14  1  0  0  0  0
 14 15  1  0  0  0  0
 16 18  1  0  0  0  0
 16 15  2  0  0  0  0
 17 13  2  0  0  0  0
 17 16  1  0  0  0  0
 18 24  1  0  0  0  0
 19 20  1  0  0  0  0
 19 18  2  0  0  0  0
 20 21  2  0  0  0  0
 21 22  1  0  0  0  0
 21 23  1  0  0  0  0
 24 23  2  0  0  0  0
 25 27  1  0  0  0  0
 26 25  2  0  0  0  0
 27 28  1  0  0  0  0
M  END
>  <Pose>
1

>  <Score>
-8.066

$$$$
