MODEL 1
REMARK VINA RESULT:    -8.066      0.000      0.000
REMARK INTER + INTRA:         -10.846
REMARK INTER:                 -10.424
REMARK INTRA:                  -0.422
REMARK UNBOUND:                -0.422
REMARK  5 active torsions:
REMARK  status: ('A' for Active; 'I' for Inactive)
REMARK    1  A    between atoms: C_5  and  C_8 
REMARK    2  A    between atoms: C_11  and  C_13 
REMARK    3  A    between atoms: C_13  and  N_14 
REMARK    4  A    between atoms: C_22  and  C_24 
REMARK    5  A    between atoms: C_24  and  O_26 
ROOT
ATOM      1  N   UNK d   1      48.308   3.938  42.850  0.00  0.00    -0.357 N 
ATOM      2  C   UNK d   1      49.040   2.831  42.604  0.00  0.00     0.110 A 
ATOM      3  C   UNK d   1      49.969   2.387  43.510  0.00  0.00     0.080 A 
ATOM      4  C   UNK d   1      50.163   3.130  44.760  0.00  0.00     0.111 A 
ATOM      5  N   UNK d   1      51.123   2.475  45.449  0.00  0.00    -0.170 NA
ATOM      6  N   UNK d   1      51.524   1.430  44.755  0.00  0.00    -0.242 N 
ATOM      7  C   UNK d   1      50.870   1.326  43.589  0.00  0.00     0.275 A 
ATOM      8  O   UNK d   1      51.012   0.450  42.702  0.00  0.00    -0.266 OA
ATOM      9  C   UNK d   1      49.392   4.254  44.967  0.00  0.00     0.086 A 
ATOM     10  C   UNK d   1      48.500   4.598  43.990  0.00  0.00     0.111 A 
ATOM     11  H   UNK d   1      52.255   0.769  45.074  0.00  0.00     0.192 HD
ENDROOT
BRANCH   1  12
ATOM     12  C   UNK d   1      47.331   4.366  41.847  0.00  0.00     0.216 C 
BRANCH  12  13
ATOM     13  C   UNK d   1      46.219   5.081  42.503  0.00  0.00     0.191 A 
ATOM     14  O   UNK d   1      45.517   4.604  43.502  0.00  0.00    -0.194 OA
ATOM     15  N   UNK d   1      44.620   5.480  43.843  0.00  0.00    -0.105 NA
ATOM     16  C   UNK d   1      44.714   6.567  43.063  0.00  0.00     0.189 A 
ATOM     17  N   UNK d   1      45.723   6.314  42.218  0.00  0.00    -0.202 NA
BRANCH  16  18
ATOM     18  C   UNK d   1      43.871   7.751  43.154  0.00  0.00     0.014 A 
ATOM     19  C   UNK d   1      42.563   7.742  42.729  0.00  0.00     0.017 A 
ATOM     20  C   UNK d   1      41.754   8.860  42.812  0.00  0.00     0.025 A 
ATOM     21  C   UNK d   1      42.247  10.042  43.334  0.00  0.00     0.034 A 
ATOM     22 Cl   UNK d   1      41.240  11.476  43.450  0.00  0.00    -0.084 Cl
ATOM     23  C   UNK d   1      43.566  10.055  43.764  0.00  0.00     0.025 A 
ATOM     24  C   UNK d   1      44.368   8.928  43.677  0.00  0.00     0.017 A 
ENDBRANCH  16  18
ENDBRANCH  12  13
ENDBRANCH   1  12
BRANCH   9  25
ATOM     25  C   UNK d   1      49.558   5.021  46.201  0.00  0.00     0.296 C 
ATOM     26  O   UNK d   1      50.007   6.175  46.175  0.00  0.00    -0.259 OA
BRANCH  25  27
ATOM     27  O   UNK d   1      49.221   4.478  47.430  0.00  0.00    -0.322 OA
ATOM     28  C   UNK d   1      49.239   5.205  48.636  0.00  0.00     0.213 C 
ENDBRANCH  25  27
ENDBRANCH   9  25
TORSDOF 5
ENDMDL
