MODEL 1
REMARK VINA RESULT:    -7.453      0.000      0.000
REMARK INTER + INTRA:         -10.352
REMARK INTER:                  -9.414
REMARK INTRA:                  -0.938
REMARK UNBOUND:                -0.938
REMARK  5 active torsions:
REMARK  status: ('A' for Active; 'I' for Inactive)
REMARK    1  A    between atoms: C_6  and  C_12 
REMARK    2  A    between atoms: C_12  and  C_13 
REMARK    3  A    between atoms: C_13  and  C_14 
REMARK       I    between atoms: C_14  and  N_16 
REMARK    4  A    between atoms: C_18  and  N_24 
REMARK    5  A    between atoms: C_19  and  O_22 
ROOT
ATOM      1  C   UNK d   1      40.610  13.456  46.178  0.00  0.00     0.220 C 
ATOM      2  O   UNK d   1      40.389  14.269  45.244  0.00  0.00    -0.273 OA
ATOM      3  N   UNK d   1      41.799  13.558  46.923  0.00  0.00    -0.350 N 
ATOM      4  C   UNK d   1      42.807  14.585  46.657  0.00  0.00     0.154 C 
ATOM      5  C   UNK d   1      44.037  13.830  46.194  0.00  0.00     0.146 C 
ATOM      6  C   UNK d   1      44.451  12.795  47.214  0.00  0.00     0.078 C 
ATOM      7  C   UNK d   1      43.557  12.883  48.456  0.00  0.00     0.059 C 
ATOM      8  C   UNK d   1      42.121  12.656  48.015  0.00  0.00     0.129 C 
ATOM      9  C   UNK d   1      45.892  12.883  47.615  0.00  0.00     0.048 C 
ENDROOT
BRANCH   1  10
ATOM     10  C   UNK d   1      39.603  12.405  46.467  0.00  0.00     0.110 C 
BRANCH  10  11
ATOM     11  C   UNK d   1      39.398  11.448  45.339  0.00  0.00     0.088 C 
BRANCH  11  12
ATOM     12  C   UNK d   1      40.582  10.604  45.043  0.00  0.00     0.107 A 
ATOM     13  N   UNK d   1      41.428  10.662  44.000  0.00  0.00    -0.233 NA
ATOM     14  C   UNK d   1      42.379   9.718  44.097  0.00  0.00     0.087 A 
ATOM     15  C   UNK d   1      43.470   9.328  43.336  0.00  0.00     0.057 A 
ATOM     16  C   UNK d   1      42.128   9.022  45.261  0.00  0.00     0.064 A 
ATOM     17  C   UNK d   1      44.292   8.292  43.699  0.00  0.00     0.036 A 
ATOM     18 Cl   UNK d   1      45.677   7.790  42.742  0.00  0.00    -0.084 Cl
ATOM     19  C   UNK d   1      44.013   7.618  44.869  0.00  0.00     0.026 A 
ATOM     20  C   UNK d   1      42.928   7.974  45.663  0.00  0.00     0.034 A 
ATOM     21  N   UNK d   1      41.041   9.575  45.813  0.00  0.00    -0.338 N 
ATOM     22  C   UNK d   1      40.381   9.187  47.058  0.00  0.00     0.158 C 
ENDBRANCH  11  12
ENDBRANCH  10  11
ENDBRANCH   1  10
BRANCH   5  23
ATOM     23  N   UNK d   1      45.093  14.654  45.723  0.00  0.00    -0.300 N 
ATOM     24  C   UNK d   1      45.513  15.749  46.422  0.00  0.00     0.108 A 
ATOM     25  C   UNK d   1      46.538  16.551  45.966  0.00  0.00     0.022 A 
ATOM     26  C   UNK d   1      47.159  16.246  44.775  0.00  0.00     0.256 A 
ATOM     27  C   UNK d   1      47.019  17.746  46.702  0.00  0.00     0.056 C 
ATOM     28  O   UNK d   1      48.112  16.963  44.318  0.00  0.00    -0.267 OA
ATOM     29  N   UNK d   1      46.739  15.167  44.092  0.00  0.00    -0.275 N 
ATOM     30  C   UNK d   1      45.721  14.403  44.583  0.00  0.00     0.329 A 
ATOM     31  H   UNK d   1      47.204  14.933  43.195  0.00  0.00     0.173 HD
ATOM     32  O   UNK d   1      45.374  13.412  43.904  0.00  0.00    -0.246 OA
ENDBRANCH   5  23
BRANCH   6  33
ATOM     33  O   UNK d   1      44.256  11.475  46.740  0.00  0.00    -0.388 OA
ATOM     34  H   UNK d   1      44.068  10.927  47.541  0.00  0.00     0.210 HD
ENDBRANCH   6  33
TORSDOF 5
ENDMDL
