MODEL 1
REMARK VINA RESULT:    -6.993      0.000      0.000
REMARK INTER + INTRA:          -8.600
REMARK INTER:                  -8.629
REMARK INTRA:                   0.028
REMARK UNBOUND:                 0.028
REMARK  4 active torsions:
REMARK  status: ('A' for Active; 'I' for Inactive)
REMARK    1  A    between atoms: C_6  and  C_11 
REMARK    2  A    between atoms: C_11  and  N_12 
REMARK       I    between atoms: N_12  and  C_13 
REMARK    3  A    between atoms: C_13  and  C_15 
REMARK    4  A    between atoms: C_15  and  N_18 
ROOT
ATOM      1  N   UNK d   1      49.018   2.968  43.385  0.00  0.00    -0.352 N 
ATOM      2  C   UNK d   1      50.329   2.458  43.325  0.00  0.00     0.246 C 
ATOM      3  O   UNK d   1      50.875   2.402  42.210  0.00  0.00    -0.271 OA
ATOM      4  H   UNK d   1      48.539   3.024  44.314  0.00  0.00     0.162 HD
ENDROOT
BRANCH   1   5
ATOM      5  C   UNK d   1      48.296   3.421  42.210  0.00  0.00     0.201 C 
BRANCH   5   6
ATOM      6  C   UNK d   1      47.258   4.434  42.606  0.00  0.00     0.123 A 
ATOM      7  N   UNK d   1      47.231   5.738  42.276  0.00  0.00    -0.232 NA
ATOM      8  C   UNK d   1      46.153   6.341  42.807  0.00  0.00     0.087 A 
ATOM      9  C   UNK d   1      45.630   7.616  42.801  0.00  0.00     0.057 A 
ATOM     10  C   UNK d   1      45.453   5.362  43.518  0.00  0.00     0.062 A 
ATOM     11  C   UNK d   1      44.463   7.976  43.454  0.00  0.00     0.036 A 
ATOM     12 Cl   UNK d   1      43.836   9.622  43.414  0.00  0.00    -0.084 Cl
ATOM     13  C   UNK d   1      43.787   6.980  44.153  0.00  0.00     0.026 A 
ATOM     14  C   UNK d   1      44.292   5.705  44.170  0.00  0.00     0.034 A 
ATOM     15  N   UNK d   1      46.166   4.229  43.360  0.00  0.00    -0.341 N 
ATOM     16  H   UNK d   1      45.906   3.305  43.774  0.00  0.00     0.167 HD
ENDBRANCH   5   6
ENDBRANCH   1   5
BRANCH   2  17
ATOM     17  C   UNK d   1      51.064   1.996  44.515  0.00  0.00     0.110 A 
ATOM     18  C   UNK d   1      50.736   0.639  45.000  0.00  0.00     0.044 A 
ATOM     19  C   UNK d   1      52.006   0.772  44.258  0.00  0.00     0.044 A 
BRANCH  17  20
ATOM     20  N   UNK d   1      51.684   2.952  45.382  0.00  0.00    -0.392 N 
ATOM     21  C   UNK d   1      51.055   3.176  46.623  0.00  0.00     0.144 C 
ATOM     22  C   UNK d   1      50.190   4.424  46.486  0.00  0.00     0.187 C 
ATOM     23  O   UNK d   1      50.987   5.536  46.351  0.00  0.00    -0.388 OA
ATOM     24  C   UNK d   1      52.191   5.316  45.730  0.00  0.00     0.187 C 
ATOM     25  C   UNK d   1      52.155   4.133  44.783  0.00  0.00     0.144 C 
ENDBRANCH  17  20
ENDBRANCH   2  17
TORSDOF 4
ENDMDL
