/Users/jonathanwahrer/Desktop/Msc/3_Semester/Drug_Design_Praktikum/waehrer_HTS_screening/HTS_experiment/out/docking_results/vina_output/2qfa/1937_docked.pdbqt
 OpenBabel03162221103D

 31 34  0  0  1  0  0  0  0  0999 V2000
   40.3830   12.8970   45.3300 N   0  0  0  0  0  0  0  0  0  0  0  0
   39.3540   12.0770   45.7730 C   0  0  0  0  0  2  0  0  0  0  0  0
   39.7060   10.5970   45.3200 C   0  0  0  0  0  2  0  0  0  0  0  0
   41.1440   10.6540   45.3260 N   0  0  0  0  0  0  0  0  0  0  0  0
   41.6520   11.2630   44.0620 C   0  0  0  0  0  2  0  0  0  0  0  0
   40.8050   12.4990   43.9400 C   0  0  0  0  0  2  0  0  0  0  0  0
   41.9530   10.1450   46.2970 C   0  0  0  0  0  0  0  0  0  0  0  0
   43.1190   10.6530   46.4230 O   0  0  0  0  0  0  0  0  0  0  0  0
   40.3000   14.3380   45.3270 C   0  0  0  0  0  2  0  0  0  0  0  0
   41.4760   14.8480   46.1670 C   0  0  0  0  0  0  0  0  0  0  0  0
   42.5170   13.9550   46.4270 N   0  0  0  0  0  0  0  0  0  0  0  0
   42.2790   12.9190   46.2250 H   0  0  0  0  0  0  0  0  0  0  0  0
   41.4770   15.9860   46.5600 O   0  0  0  0  0  0  0  0  0  0  0  0
   43.7780   14.2450   47.0080 C   0  0  0  0  0  2  0  0  0  0  0  0
   44.7930   14.6760   46.0100 C   0  0  0  0  0  0  0  0  0  0  0  0
   45.5700   15.7900   46.3070 C   0  0  0  0  0  0  0  0  0  0  0  0
   45.1260   16.7660   47.6860 Cl  0  0  0  0  0  0  0  0  0  0  0  0
   46.6200   16.1650   45.5340 C   0  0  0  0  0  3  0  0  0  0  0  0
   47.0180   15.4750   44.4060 C   0  0  0  0  0  3  0  0  0  0  0  0
   46.2270   14.3460   44.1080 C   0  0  0  0  0  3  0  0  0  0  0  0
   45.1420   13.9680   44.8910 C   0  0  0  0  0  3  0  0  0  0  0  0
   41.6590    9.0260   47.2470 C   0  0  1  0  0  3  0  0  0  0  0  0
   41.3330    7.8970   46.3720 O   0  0  0  0  0  0  0  0  0  0  0  0
   42.1430    7.9300   45.2010 C   0  0  0  0  0  0  0  0  0  0  0  0
   43.4260    8.3910   45.3360 C   0  0  0  0  0  0  0  0  0  0  0  0
   41.6730    7.5100   43.9620 C   0  0  0  0  0  3  0  0  0  0  0  0
   44.2890    8.4680   44.2490 C   0  0  0  0  0  3  0  0  0  0  0  0
   43.8760    8.7950   46.5980 O   0  0  0  0  0  0  0  0  0  0  0  0
   43.7790    8.0500   43.0250 C   0  0  0  0  0  3  0  0  0  0  0  0
   42.4980    7.5730   42.8560 C   0  0  0  0  0  3  0  0  0  0  0  0
   43.0570    8.6100   47.7790 C   0  0  0  0  0  2  0  0  0  0  0  0
  1  2  1  0  0  0  0
  3  4  1  0  0  0  0
  3  2  1  0  0  0  0
  4  7  1  0  0  0  0
  5  4  1  0  0  0  0
  6  5  1  0  0  0  0
  6  1  1  0  0  0  0
  7  8  2  0  0  0  0
  9  1  1  0  0  0  0
  9 10  1  0  0  0  0
 10 11  1  0  0  0  0
 10 13  2  0  0  0  0
 11 14  1  0  0  0  0
 12 11  1  0  0  0  0
 15 16  1  0  0  0  0
 15 14  1  0  0  0  0
 16 17  1  0  0  0  0
 18 16  2  0  0  0  0
 19 18  1  0  0  0  0
 20 19  2  0  0  0  0
 20 21  1  0  0  0  0
 21 15  2  0  0  0  0
 22  7  1  6  0  0  0
 22 31  1  0  0  0  0
 23 22  1  0  0  0  0
 24 25  1  0  0  0  0
 24 23  1  0  0  0  0
 25 28  1  0  0  0  0
 26 24  2  0  0  0  0
 27 25  2  0  0  0  0
 28 31  1  0  0  0  0
 29 27  1  0  0  0  0
 30 29  2  0  0  0  0
 30 26  1  0  0  0  0
M  END
>  <Pose>
1

>  <Score>
-6.571

$$$$
