MODEL 1
REMARK VINA RESULT:    -6.571      0.000      0.000
REMARK INTER + INTRA:          -6.466
REMARK INTER:                  -8.492
REMARK INTRA:                   2.026
REMARK UNBOUND:                 2.026
REMARK  5 active torsions:
REMARK  status: ('A' for Active; 'I' for Inactive)
REMARK    1  A    between atoms: C_3  and  C_8 
REMARK    2  A    between atoms: C_8  and  N_9 
REMARK       I    between atoms: N_9  and  C_10 
REMARK    3  A    between atoms: C_10  and  C_12 
REMARK    4  A    between atoms: C_12  and  N_13 
REMARK       I    between atoms: N_16  and  C_19 
REMARK    5  A    between atoms: C_19  and  C_21 
ROOT
ATOM      1  N   UNK d   1      40.383  12.897  45.330  0.00  0.00     0.100 N 
ATOM      2  C   UNK d   1      39.354  12.077  45.773  0.00  0.00     0.293 C 
ATOM      3  C   UNK d   1      39.706  10.597  45.320  0.00  0.00     0.156 C 
ATOM      4  N   UNK d   1      41.144  10.654  45.326  0.00  0.00    -0.346 N 
ATOM      5  C   UNK d   1      41.652  11.263  44.062  0.00  0.00     0.156 C 
ATOM      6  C   UNK d   1      40.805  12.499  43.940  0.00  0.00     0.293 C 
ATOM      7  C   UNK d   1      41.953  10.145  46.297  0.00  0.00     0.251 C 
ATOM      8  O   UNK d   1      43.119  10.653  46.423  0.00  0.00    -0.270 OA
ENDROOT
BRANCH   1   9
ATOM      9  C   UNK d   1      40.300  14.338  45.327  0.00  0.00     0.374 C 
BRANCH   9  10
ATOM     10  C   UNK d   1      41.476  14.848  46.167  0.00  0.00     0.246 C 
ATOM     11  N   UNK d   1      42.517  13.955  46.427  0.00  0.00    -0.355 N 
ATOM     12  H   UNK d   1      42.279  12.919  46.225  0.00  0.00     0.162 HD
ATOM     13  O   UNK d   1      41.477  15.986  46.560  0.00  0.00    -0.272 OA
BRANCH  11  14
ATOM     14  C   UNK d   1      43.778  14.245  47.008  0.00  0.00     0.162 C 
BRANCH  14  15
ATOM     15  C   UNK d   1      44.793  14.676  46.010  0.00  0.00    -0.019 A 
ATOM     16  C   UNK d   1      45.570  15.790  46.307  0.00  0.00     0.042 A 
ATOM     17 Cl   UNK d   1      45.126  16.766  47.686  0.00  0.00    -0.084 Cl
ATOM     18  C   UNK d   1      46.620  16.165  45.534  0.00  0.00     0.024 A 
ATOM     19  C   UNK d   1      47.018  15.475  44.406  0.00  0.00     0.002 A 
ATOM     20  C   UNK d   1      46.227  14.346  44.108  0.00  0.00     0.001 A 
ATOM     21  C   UNK d   1      45.142  13.968  44.891  0.00  0.00     0.010 A 
ENDBRANCH  14  15
ENDBRANCH  11  14
ENDBRANCH   9  10
ENDBRANCH   1   9
BRANCH   7  22
ATOM     22  C   UNK d   1      41.659   9.026  47.247  0.00  0.00     0.245 C 
ATOM     23  O   UNK d   1      41.333   7.897  46.372  0.00  0.00    -0.331 OA
ATOM     24  C   UNK d   1      42.143   7.930  45.201  0.00  0.00     0.103 A 
ATOM     25  C   UNK d   1      43.426   8.391  45.336  0.00  0.00     0.102 A 
ATOM     26  C   UNK d   1      41.673   7.510  43.962  0.00  0.00     0.040 A 
ATOM     27  C   UNK d   1      44.289   8.468  44.249  0.00  0.00     0.039 A 
ATOM     28  O   UNK d   1      43.876   8.795  46.598  0.00  0.00    -0.345 OA
ATOM     29  C   UNK d   1      43.779   8.050  43.025  0.00  0.00     0.003 A 
ATOM     30  C   UNK d   1      42.498   7.573  42.856  0.00  0.00     0.003 A 
ATOM     31  C   UNK d   1      43.057   8.610  47.779  0.00  0.00     0.218 C 
ENDBRANCH   7  22
TORSDOF 5
ENDMDL
