/Users/jonathanwahrer/Desktop/Msc/3_Semester/Drug_Design_Praktikum/waehrer_HTS_screening/HTS_experiment/out/docking_results/vina_output/2qfa/1939_docked.pdbqt
 OpenBabel03162221113D

 28 31  0  0  0  0  0  0  0  0999 V2000
   42.3520   12.8900   46.2040 N   0  0  0  0  0  0  0  0  0  0  0  0
   41.3160   13.6930   46.5940 C   0  0  0  0  0  0  0  0  0  0  0  0
   40.1820   13.3560   45.9090 C   0  0  0  0  0  0  0  0  0  0  0  0
   40.5560   12.3580   45.1200 N   0  0  0  0  0  0  0  0  0  0  0  0
   41.8840   12.0510   45.2790 C   0  0  0  0  0  0  0  0  0  0  0  0
   39.0180   14.0040   46.1050 N   0  0  0  0  0  0  0  0  0  0  0  0
   38.9570   15.0220   47.0030 C   0  0  0  0  0  0  0  0  0  0  0  0
   37.8540   15.5940   47.1520 O   0  0  0  0  0  0  0  0  0  0  0  0
   40.0450   15.3900   47.7000 N   0  0  0  0  0  0  0  0  0  0  0  0
   41.1990   14.7370   47.4960 C   0  0  0  0  0  0  0  0  0  0  0  0
   42.1830   15.1190   48.1680 O   0  0  0  0  0  0  0  0  0  0  0  0
   37.8620   13.5800   45.3350 C   0  0  0  0  0  1  0  0  0  0  0  0
   39.9450   16.1760   48.3760 H   0  0  0  0  0  0  0  0  0  0  0  0
   43.6770   13.0120   46.7520 C   0  0  0  0  0  2  0  0  0  0  0  0
   44.6200   13.8570   46.0220 C   0  0  0  0  0  0  0  0  0  0  0  0
   45.0930   13.5890   44.7800 C   0  0  0  0  0  3  0  0  0  0  0  0
   46.0360   14.4020   44.1430 C   0  0  0  0  0  3  0  0  0  0  0  0
   46.5200   15.5140   44.7640 C   0  0  0  0  0  0  0  0  0  0  0  0
   47.6980   16.4990   43.9240 Cl  0  0  0  0  0  0  0  0  0  0  0  0
   46.0660   15.8230   46.0250 C   0  0  0  0  0  3  0  0  0  0  0  0
   45.1390   15.0080   46.6340 C   0  0  0  0  0  3  0  0  0  0  0  0
   42.5200   11.0300   44.5390 N   0  0  0  0  0  0  0  0  0  0  0  0
   43.0640    9.8970   45.2770 C   0  0  0  0  0  2  0  0  0  0  0  0
   42.8130    8.7050   44.3350 C   0  0  0  0  0  2  0  0  0  0  0  0
   41.5980    8.8770   43.5720 N   0  0  0  0  0  0  0  0  0  0  0  0
   41.6500    9.9670   42.6210 C   0  0  0  0  0  2  0  0  0  0  0  0
   41.4560    8.0030   43.0370 H   0  0  0  0  0  0  0  0  0  0  0  0
   42.7080   10.9300   43.1390 C   0  0  0  0  0  2  0  0  0  0  0  0
  1  2  1  0  0  0  0
  1 14  1  0  0  0  0
  2 10  1  0  0  0  0
  3  6  1  0  0  0  0
  3  2  2  0  0  0  0
  4  5  2  0  0  0  0
  4  3  1  0  0  0  0
  5  1  1  0  0  0  0
  6  7  1  0  0  0  0
  7  8  2  0  0  0  0
  7  9  1  0  0  0  0
  9 13  1  0  0  0  0
 10  9  1  0  0  0  0
 10 11  2  0  0  0  0
 12  6  1  0  0  0  0
 15 21  1  0  0  0  0
 15 14  1  0  0  0  0
 16 15  2  0  0  0  0
 17 18  2  0  0  0  0
 17 16  1  0  0  0  0
 18 20  1  0  0  0  0
 19 18  1  0  0  0  0
 20 21  2  0  0  0  0
 22 23  1  0  0  0  0
 22  5  1  0  0  0  0
 24 23  1  0  0  0  0
 25 24  1  0  0  0  0
 26 28  1  0  0  0  0
 26 25  1  0  0  0  0
 27 25  1  0  0  0  0
 28 22  1  0  0  0  0
M  END
>  <Pose>
1

>  <Score>
-6.405

$$$$
