MODEL 1
REMARK VINA RESULT:    -6.405      0.000      0.000
REMARK INTER + INTRA:          -8.362
REMARK INTER:                  -7.529
REMARK INTRA:                  -0.833
REMARK UNBOUND:                -0.833
REMARK  3 active torsions:
REMARK  status: ('A' for Active; 'I' for Inactive)
REMARK    1  A    between atoms: C_5  and  C_8 
REMARK    2  A    between atoms: C_8  and  N_9 
REMARK    3  A    between atoms: C_13  and  N_14 
ROOT
ATOM      1  N   UNK d   1      42.352  12.890  46.204  0.00  0.00    -0.168 N 
ATOM      2  C   UNK d   1      41.316  13.693  46.594  0.00  0.00     0.167 A 
ATOM      3  C   UNK d   1      40.182  13.356  45.909  0.00  0.00     0.185 A 
ATOM      4  N   UNK d   1      40.556  12.358  45.120  0.00  0.00    -0.044 NA
ATOM      5  C   UNK d   1      41.884  12.051  45.279  0.00  0.00     0.707 A 
ATOM      6  N   UNK d   1      39.018  14.004  46.105  0.00  0.00    -0.286 N 
ATOM      7  C   UNK d   1      38.957  15.022  47.003  0.00  0.00     0.330 A 
ATOM      8  O   UNK d   1      37.854  15.594  47.152  0.00  0.00    -0.246 OA
ATOM      9  N   UNK d   1      40.045  15.390  47.700  0.00  0.00    -0.273 N 
ATOM     10  C   UNK d   1      41.199  14.737  47.496  0.00  0.00     0.280 A 
ATOM     11  O   UNK d   1      42.183  15.119  48.168  0.00  0.00    -0.265 OA
ATOM     12  C   UNK d   1      37.862  13.580  45.335  0.00  0.00     0.163 C 
ATOM     13  H   UNK d   1      39.945  16.176  48.376  0.00  0.00     0.173 HD
ENDROOT
BRANCH   1  14
ATOM     14  C   UNK d   1      43.677  13.012  46.752  0.00  0.00     0.186 C 
BRANCH  14  15
ATOM     15  C   UNK d   1      44.620  13.857  46.022  0.00  0.00    -0.039 A 
ATOM     16  C   UNK d   1      45.093  13.589  44.780  0.00  0.00     0.010 A 
ATOM     17  C   UNK d   1      46.036  14.402  44.143  0.00  0.00     0.024 A 
ATOM     18  C   UNK d   1      46.520  15.514  44.764  0.00  0.00     0.034 A 
ATOM     19 Cl   UNK d   1      47.698  16.499  43.924  0.00  0.00    -0.084 Cl
ATOM     20  C   UNK d   1      46.066  15.823  46.025  0.00  0.00     0.024 A 
ATOM     21  C   UNK d   1      45.139  15.008  46.634  0.00  0.00     0.010 A 
ENDBRANCH  14  15
ENDBRANCH   1  14
BRANCH   5  22
ATOM     22  N   UNK d   1      42.520  11.030  44.539  0.00  0.00    -0.212 N 
ATOM     23  C   UNK d   1      43.064   9.897  45.277  0.00  0.00     0.171 C 
ATOM     24  C   UNK d   1      42.813   8.705  44.335  0.00  0.00     0.290 C 
ATOM     25  N   UNK d   1      41.598   8.877  43.572  0.00  0.00     0.086 N 
ATOM     26  C   UNK d   1      41.650   9.967  42.621  0.00  0.00     0.290 C 
ATOM     27  H   UNK d   1      41.456   8.003  43.037  0.00  0.00     0.316 HD
ATOM     28  C   UNK d   1      42.708  10.930  43.139  0.00  0.00     0.171 C 
ENDBRANCH   5  22
TORSDOF 3
ENDMDL
