MODEL 1
REMARK VINA RESULT:    -6.627      0.000      0.000
REMARK INTER + INTRA:          -9.283
REMARK INTER:                  -8.564
REMARK INTRA:                  -0.719
REMARK UNBOUND:                -0.719
REMARK  5 active torsions:
REMARK  status: ('A' for Active; 'I' for Inactive)
REMARK    1  A    between atoms: C_5  and  C_8 
REMARK    2  A    between atoms: N_9  and  C_22 
REMARK    3  A    between atoms: C_15  and  C_17 
REMARK    4  A    between atoms: C_22  and  C_23 
REMARK    5  A    between atoms: C_23  and  N_24 
ROOT
ATOM      1  C   UNK d   1      41.696  10.266  44.751  0.00  0.00     0.161 C 
ATOM      2  N   UNK d   1      42.428   9.002  44.892  0.00  0.00    -0.331 N 
ATOM      3  C   UNK d   1      42.829   8.948  46.249  0.00  0.00     0.295 C 
ATOM      4  O   UNK d   1      43.840   8.366  46.708  0.00  0.00    -0.264 OA
ATOM      5  C   UNK d   1      41.830   9.710  47.021  0.00  0.00     0.251 C 
ATOM      6  O   UNK d   1      41.807   9.914  48.256  0.00  0.00    -0.282 OA
ATOM      7  C   UNK d   1      40.875  10.178  46.026  0.00  0.00     0.064 C 
ATOM      8  C   UNK d   1      39.626  10.439  46.203  0.00  0.00     0.153 C 
ATOM      9  O   UNK d   1      38.824  10.868  45.148  0.00  0.00    -0.188 OA
ENDROOT
BRANCH   2  10
ATOM     10  C   UNK d   1      42.682   8.032  43.835  0.00  0.00     0.155 C 
BRANCH  10  11
ATOM     11  C   UNK d   1      44.129   7.855  43.497  0.00  0.00     0.255 C 
BRANCH  11  12
ATOM     12  N   UNK d   1      44.800   6.782  44.146  0.00  0.00    -0.066 N 
ATOM     13  C   UNK d   1      44.898   5.554  43.425  0.00  0.00     0.261 C 
ATOM     14  C   UNK d   1      45.719   5.655  42.159  0.00  0.00     0.195 C 
ATOM     15  O   UNK d   1      47.000   6.120  42.436  0.00  0.00    -0.388 OA
ATOM     16  C   UNK d   1      46.982   7.284  43.197  0.00  0.00     0.195 C 
ATOM     17  C   UNK d   1      46.194   7.147  44.473  0.00  0.00     0.261 C 
ATOM     18  H   UNK d   1      44.307   6.583  45.044  0.00  0.00     0.280 HD
ENDBRANCH  11  12
ENDBRANCH  10  11
ENDBRANCH   2  10
BRANCH   1  19
ATOM     19  C   UNK d   1      42.604  11.421  44.956  0.00  0.00    -0.030 A 
ATOM     20  C   UNK d   1      42.270  12.485  45.756  0.00  0.00     0.011 A 
ATOM     21  C   UNK d   1      43.113  13.560  45.962  0.00  0.00     0.024 A 
ATOM     22  C   UNK d   1      44.346  13.581  45.348  0.00  0.00     0.034 A 
ATOM     23 Cl   UNK d   1      45.475  14.897  45.555  0.00  0.00    -0.084 Cl
ATOM     24  C   UNK d   1      44.702  12.528  44.544  0.00  0.00     0.024 A 
ATOM     25  C   UNK d   1      43.857  11.460  44.342  0.00  0.00     0.011 A 
ENDBRANCH   1  19
BRANCH   8  26
ATOM     26  C   UNK d   1      39.012  10.294  47.520  0.00  0.00     0.112 A 
ATOM     27  O   UNK d   1      38.658   9.260  48.196  0.00  0.00    -0.320 OA
ATOM     28  C   UNK d   1      38.142   9.605  49.341  0.00  0.00     0.142 A 
ATOM     29  C   UNK d   1      38.150  10.973  49.447  0.00  0.00     0.027 A 
ATOM     30  C   UNK d   1      38.705  11.428  48.284  0.00  0.00     0.042 A 
ENDBRANCH   8  26
TORSDOF 5
ENDMDL
