MODEL 1
REMARK VINA RESULT:    -7.400      0.000      0.000
REMARK INTER + INTRA:          -8.302
REMARK INTER:                  -7.833
REMARK INTRA:                  -0.469
REMARK UNBOUND:                -0.469
REMARK  1 active torsions:
REMARK  status: ('A' for Active; 'I' for Inactive)
REMARK    1  A    between atoms: C_5  and  N_8 
ROOT
ATOM      1  N   UNK d   1      42.849   9.504  44.238  0.00  0.00    -0.252 N 
ATOM      2  C   UNK d   1      42.907  10.369  45.382  0.00  0.00     0.237 C 
ATOM      3  O   UNK d   1      43.301   9.949  46.525  0.00  0.00    -0.272 OA
ATOM      4  C   UNK d   1      42.459  11.718  45.000  0.00  0.00     0.104 C 
ATOM      5  C   UNK d   1      41.673  11.468  43.735  0.00  0.00     0.104 C 
ATOM      6  C   UNK d   1      40.228  11.849  43.971  0.00  0.00     0.076 C 
ATOM      7  C   UNK d   1      40.233  13.374  44.150  0.00  0.00     0.091 C 
ATOM      8  C   UNK d   1      41.022  13.622  45.403  0.00  0.00     0.133 C 
ATOM      9  O   UNK d   1      41.129  14.734  45.847  0.00  0.00    -0.298 OA
ATOM     10  C   UNK d   1      41.653  12.416  46.042  0.00  0.00     0.076 C 
ATOM     11  C   UNK d   1      40.483  11.534  46.493  0.00  0.00     0.091 C 
ATOM     12  C   UNK d   1      39.691  11.257  45.244  0.00  0.00     0.133 C 
ATOM     13  O   UNK d   1      38.690  10.597  45.303  0.00  0.00    -0.298 OA
ATOM     14  C   UNK d   1      41.875  10.067  43.371  0.00  0.00     0.237 C 
ATOM     15  O   UNK d   1      41.286   9.463  42.446  0.00  0.00    -0.272 OA
ENDROOT
BRANCH   1  16
ATOM     16  C   UNK d   1      43.605   8.322  43.998  0.00  0.00     0.045 A 
ATOM     17  C   UNK d   1      44.796   8.391  43.300  0.00  0.00     0.032 A 
ATOM     18  C   UNK d   1      45.562   7.277  43.044  0.00  0.00     0.026 A 
ATOM     19  C   UNK d   1      45.170   6.034  43.477  0.00  0.00     0.034 A 
ATOM     20 Cl   UNK d   1      46.143   4.603  43.156  0.00  0.00    -0.084 Cl
ATOM     21  C   UNK d   1      43.979   5.941  44.179  0.00  0.00     0.026 A 
ATOM     22  C   UNK d   1      43.228   7.068  44.423  0.00  0.00     0.032 A 
ENDBRANCH   1  16
TORSDOF 1
ENDMDL
