/Users/jonathanwahrer/Desktop/Msc/3_Semester/Drug_Design_Praktikum/waehrer_HTS_screening/HTS_experiment/out/docking_results/vina_output/2qfa/1941_docked.pdbqt
 OpenBabel03162221113D

 22 25  0  0  1  0  0  0  0  0999 V2000
   42.8490    9.5040   44.2380 N   0  0  0  0  0  0  0  0  0  0  0  0
   42.9070   10.3690   45.3820 C   0  0  0  0  0  0  0  0  0  0  0  0
   43.3010    9.9490   46.5250 O   0  0  0  0  0  0  0  0  0  0  0  0
   42.4590   11.7180   45.0000 C   0  0  1  0  0  3  0  0  0  0  0  0
   41.6730   11.4680   43.7350 C   0  0  2  0  0  3  0  0  0  0  0  0
   40.2280   11.8490   43.9710 C   0  0  2  0  0  3  0  0  0  0  0  0
   40.2330   13.3740   44.1500 C   0  0  0  0  0  2  0  0  0  0  0  0
   41.0220   13.6220   45.4030 C   0  0  0  0  0  0  0  0  0  0  0  0
   41.1290   14.7340   45.8470 O   0  0  0  0  0  0  0  0  0  0  0  0
   41.6530   12.4160   46.0420 C   0  0  1  0  0  3  0  0  0  0  0  0
   40.4830   11.5340   46.4930 C   0  0  0  0  0  2  0  0  0  0  0  0
   39.6910   11.2570   45.2440 C   0  0  0  0  0  0  0  0  0  0  0  0
   38.6900   10.5970   45.3030 O   0  0  0  0  0  0  0  0  0  0  0  0
   41.8750   10.0670   43.3710 C   0  0  0  0  0  0  0  0  0  0  0  0
   41.2860    9.4630   42.4460 O   0  0  0  0  0  0  0  0  0  0  0  0
   43.6050    8.3220   43.9980 C   0  0  0  0  0  0  0  0  0  0  0  0
   44.7960    8.3910   43.3000 C   0  0  0  0  0  3  0  0  0  0  0  0
   45.5620    7.2770   43.0440 C   0  0  0  0  0  3  0  0  0  0  0  0
   45.1700    6.0340   43.4770 C   0  0  0  0  0  0  0  0  0  0  0  0
   46.1430    4.6030   43.1560 Cl  0  0  0  0  0  0  0  0  0  0  0  0
   43.9790    5.9410   44.1790 C   0  0  0  0  0  3  0  0  0  0  0  0
   43.2280    7.0680   44.4230 C   0  0  0  0  0  3  0  0  0  0  0  0
  1  2  1  0  0  0  0
  2  3  2  0  0  0  0
  4  2  1  1  0  0  0
  4 10  1  0  0  0  0
  5 14  1  1  0  0  0
  5  6  1  0  0  0  0
  5  4  1  0  0  0  0
  6  7  1  1  0  0  0
  6 12  1  0  0  0  0
  7  8  1  0  0  0  0
  8  9  2  0  0  0  0
  8 10  1  0  0  0  0
 10 11  1  6  0  0  0
 12 13  2  0  0  0  0
 12 11  1  0  0  0  0
 14  1  1  0  0  0  0
 15 14  2  0  0  0  0
 16  1  1  0  0  0  0
 16 22  1  0  0  0  0
 17 16  2  0  0  0  0
 18 17  1  0  0  0  0
 18 19  2  0  0  0  0
 19 21  1  0  0  0  0
 20 19  1  0  0  0  0
 21 22  2  0  0  0  0
M  END
>  <Pose>
1

>  <Score>
-7.400

$$$$
