/Users/jonathanwahrer/Desktop/Msc/3_Semester/Drug_Design_Praktikum/waehrer_HTS_screening/HTS_experiment/out/docking_results/vina_output/2qfa/1943_docked.pdbqt
 OpenBabel03162221113D

 34 38  0  0  1  0  0  0  0  0999 V2000
   43.0340    8.9420   45.0750 N   0  0  0  0  0  0  0  0  0  0  0  0
   41.8790    9.6930   44.6390 C   0  0  0  0  0  0  0  0  0  0  0  0
   41.3770    9.6620   43.5120 O   0  0  0  0  0  0  0  0  0  0  0  0
   41.3780   10.5100   45.7520 C   0  0  2  0  0  3  0  0  0  0  0  0
   41.0720   11.9510   45.4190 C   0  0  2  0  0  0  0  0  0  0  0  0
   42.2550   12.7280   45.6960 N   0  0  0  0  0  0  0  0  0  0  0  0
   43.3340   11.7770   45.8710 C   0  0  2  0  0  3  0  0  0  0  0  0
   42.6200   10.6560   46.5990 C   0  0  2  0  0  3  0  0  0  0  0  0
   43.2640    9.3400   46.4360 C   0  0  0  0  0  0  0  0  0  0  0  0
   43.8640    8.7500   47.3380 O   0  0  0  0  0  0  0  0  0  0  0  0
   39.9370   12.3240   46.3330 C   0  0  0  0  0  0  0  0  0  0  0  0
   38.8200   12.4810   45.5620 C   0  0  0  0  0  0  0  0  0  0  0  0
   37.5690   12.7750   46.1260 C   0  0  0  0  0  3  0  0  0  0  0  0
   37.4410   12.9170   47.4920 C   0  0  0  0  0  3  0  0  0  0  0  0
   38.5600   12.7630   48.2650 C   0  0  0  0  0  3  0  0  0  0  0  0
   39.7830   12.4730   47.6960 C   0  0  0  0  0  3  0  0  0  0  0  0
   39.1370   12.3880   44.1820 N   0  0  0  0  0  0  0  0  0  0  0  0
   40.5360   12.1670   44.0900 C   0  0  0  0  0  0  0  0  0  0  0  0
   41.1610   12.1730   43.0080 O   0  0  0  0  0  0  0  0  0  0  0  0
   42.4240   13.3550   44.8740 H   0  0  0  0  0  0  0  0  0  0  0  0
   38.4540   12.4700   43.3680 H   0  0  0  0  0  0  0  0  0  0  0  0
   44.4610   12.3360   46.6990 C   0  0  0  0  0  2  0  0  0  0  0  0
   44.8890   13.6750   46.3040 C   0  0  0  0  0  0  0  0  0  0  0  0
   45.0920   13.9470   45.1050 O   0  0  0  0  0  0  0  0  0  0  0  0
   45.0790   14.6750   47.2860 N   0  0  0  0  0  0  0  0  0  0  0  0
   44.9890   14.5160   48.3180 H   0  0  0  0  0  0  0  0  0  0  0  0
   45.3330   15.6770   47.0430 H   0  0  0  0  0  0  0  0  0  0  0  0
   43.7950    8.0070   44.3650 C   0  0  0  0  0  0  0  0  0  0  0  0
   43.6720    6.6550   44.5310 C   0  0  0  0  0  3  0  0  0  0  0  0
   44.4270    5.7270   43.8230 C   0  0  0  0  0  3  0  0  0  0  0  0
   45.3480    6.1700   42.9050 C   0  0  0  0  0  0  0  0  0  0  0  0
   46.3010    5.0100   41.9950 Cl  0  0  0  0  0  0  0  0  0  0  0  0
   45.4970    7.5090   42.7140 C   0  0  0  0  0  3  0  0  0  0  0  0
   44.7240    8.4200   43.4410 C   0  0  0  0  0  3  0  0  0  0  0  0
  1  9  1  0  0  0  0
  2  1  1  0  0  0  0
  3  2  2  0  0  0  0
  4  2  1  6  0  0  0
  4  8  1  0  0  0  0
  5 18  1  6  0  0  0
  5  6  1  0  0  0  0
  5  4  1  0  0  0  0
  5 11  1  0  0  0  0
  6  7  1  0  0  0  0
  7  8  1  0  0  0  0
  7 22  1  1  0  0  0
  8  9  1  6  0  0  0
  9 10  2  0  0  0  0
 11 16  1  0  0  0  0
 12 13  1  0  0  0  0
 12 11  2  0  0  0  0
 13 14  2  0  0  0  0
 14 15  1  0  0  0  0
 16 15  2  0  0  0  0
 17 12  1  0  0  0  0
 18 17  1  0  0  0  0
 19 18  2  0  0  0  0
 20  6  1  0  0  0  0
 21 17  1  0  0  0  0
 23 22  1  0  0  0  0
 23 25  1  0  0  0  0
 24 23  2  0  0  0  0
 25 26  1  0  0  0  0
 27 25  1  0  0  0  0
 28 29  1  0  0  0  0
 28  1  1  0  0  0  0
 30 29  2  0  0  0  0
 31 30  1  0  0  0  0
 32 31  1  0  0  0  0
 33 31  2  0  0  0  0
 33 34  1  0  0  0  0
 34 28  2  0  0  0  0
M  END
>  <Pose>
1

>  <Score>
-7.597

$$$$
