MODEL 1
REMARK VINA RESULT:    -7.597      0.000      0.000
REMARK INTER + INTRA:          -9.927
REMARK INTER:                  -8.929
REMARK INTRA:                  -0.998
REMARK UNBOUND:                -0.998
REMARK  3 active torsions:
REMARK  status: ('A' for Active; 'I' for Inactive)
REMARK    1  A    between atoms: C_5  and  N_8 
REMARK    2  A    between atoms: C_14  and  C_18 
REMARK    3  A    between atoms: C_18  and  C_19 
REMARK       I    between atoms: C_19  and  N_21 
ROOT
ATOM      1  N   UNK d   1      43.034   8.942  45.075  0.00  0.00    -0.252 N 
ATOM      2  C   UNK d   1      41.879   9.693  44.639  0.00  0.00     0.239 C 
ATOM      3  O   UNK d   1      41.377   9.662  43.512  0.00  0.00    -0.272 OA
ATOM      4  C   UNK d   1      41.378  10.510  45.752  0.00  0.00     0.147 C 
ATOM      5  C   UNK d   1      41.072  11.951  45.419  0.00  0.00     0.279 C 
ATOM      6  N   UNK d   1      42.255  12.728  45.696  0.00  0.00     0.114 N 
ATOM      7  C   UNK d   1      43.334  11.777  45.871  0.00  0.00     0.245 C 
ATOM      8  C   UNK d   1      42.620  10.656  46.599  0.00  0.00     0.129 C 
ATOM      9  C   UNK d   1      43.264   9.340  46.436  0.00  0.00     0.238 C 
ATOM     10  O   UNK d   1      43.864   8.750  47.338  0.00  0.00    -0.272 OA
ATOM     11  C   UNK d   1      39.937  12.324  46.333  0.00  0.00     0.017 A 
ATOM     12  C   UNK d   1      38.820  12.481  45.562  0.00  0.00     0.044 A 
ATOM     13  C   UNK d   1      37.569  12.775  46.126  0.00  0.00     0.030 A 
ATOM     14  C   UNK d   1      37.441  12.917  47.492  0.00  0.00     0.002 A 
ATOM     15  C   UNK d   1      38.560  12.763  48.265  0.00  0.00     0.001 A 
ATOM     16  C   UNK d   1      39.783  12.473  47.696  0.00  0.00     0.012 A 
ATOM     17  N   UNK d   1      39.137  12.388  44.182  0.00  0.00    -0.324 N 
ATOM     18  C   UNK d   1      40.536  12.167  44.090  0.00  0.00     0.267 C 
ATOM     19  O   UNK d   1      41.161  12.173  43.008  0.00  0.00    -0.270 OA
ATOM     20  H   UNK d   1      42.424  13.355  44.874  0.00  0.00     0.318 HD
ATOM     21  H   UNK d   1      38.454  12.470  43.368  0.00  0.00     0.169 HD
ENDROOT
BRANCH   7  22
ATOM     22  C   UNK d   1      44.461  12.336  46.699  0.00  0.00     0.139 C 
BRANCH  22  23
ATOM     23  C   UNK d   1      44.889  13.675  46.304  0.00  0.00     0.217 C 
ATOM     24  O   UNK d   1      45.092  13.947  45.105  0.00  0.00    -0.274 OA
ATOM     25  N   UNK d   1      45.079  14.675  47.286  0.00  0.00    -0.370 N 
ATOM     26  H   UNK d   1      44.989  14.516  48.318  0.00  0.00     0.159 HD
ATOM     27  H   UNK d   1      45.333  15.677  47.043  0.00  0.00     0.159 HD
ENDBRANCH  22  23
ENDBRANCH   7  22
BRANCH   1  28
ATOM     28  C   UNK d   1      43.795   8.007  44.365  0.00  0.00     0.045 A 
ATOM     29  C   UNK d   1      43.672   6.655  44.531  0.00  0.00     0.032 A 
ATOM     30  C   UNK d   1      44.427   5.727  43.823  0.00  0.00     0.026 A 
ATOM     31  C   UNK d   1      45.348   6.170  42.905  0.00  0.00     0.034 A 
ATOM     32 Cl   UNK d   1      46.301   5.010  41.995  0.00  0.00    -0.084 Cl
ATOM     33  C   UNK d   1      45.497   7.509  42.714  0.00  0.00     0.026 A 
ATOM     34  C   UNK d   1      44.724   8.420  43.441  0.00  0.00     0.032 A 
ENDBRANCH   1  28
TORSDOF 3
ENDMDL
