/Users/jonathanwahrer/Desktop/Msc/3_Semester/Drug_Design_Praktikum/waehrer_HTS_screening/HTS_experiment/out/docking_results/vina_output/2qfa/1956_docked.pdbqt
 OpenBabel03162221123D

 35 38  0  0  1  0  0  0  0  0999 V2000
   39.9610   11.0570   45.1230 C   0  0  0  0  0  0  0  0  0  0  0  0
   40.8540   10.1840   45.5590 C   0  0  0  0  0  0  0  0  0  0  0  0
   42.1770    9.8850   44.8990 C   0  0  2  0  0  3  0  0  0  0  0  0
   42.6500    8.6800   45.5160 N   0  0  0  0  0  0  0  0  0  0  0  0
   41.8780    8.3690   46.6670 C   0  0  0  0  0  0  0  0  0  0  0  0
   42.1030    7.4770   47.4980 O   0  0  0  0  0  0  0  0  0  0  0  0
   40.7430    9.3200   46.6910 C   0  0  0  0  0  0  0  0  0  0  0  0
   39.8500    9.3320   47.5710 O   0  0  0  0  0  0  0  0  0  0  0  0
   40.2980   11.7480   43.9360 O   0  0  0  0  0  1  0  0  0  0  0  0
   43.0470   11.0660   45.1470 C   0  0  0  0  0  0  0  0  0  0  0  0
   43.8440   11.5500   44.1490 C   0  0  0  0  0  3  0  0  0  0  0  0
   44.6300   12.6420   44.3820 C   0  0  0  0  0  3  0  0  0  0  0  0
   44.6460   13.2790   45.6040 C   0  0  0  0  0  0  0  0  0  0  0  0
   43.8410   12.7900   46.6160 C   0  0  0  0  0  3  0  0  0  0  0  0
   43.0440   11.6800   46.3740 C   0  0  0  0  0  3  0  0  0  0  0  0
   45.4500   14.3900   45.8330 O   0  0  0  0  0  0  0  0  0  0  0  0
   46.2470   14.8830   44.7470 C   0  0  0  0  0  2  0  0  0  0  0  0
   46.8910   16.2010   45.1710 C   0  0  0  0  0  2  0  0  0  0  0  0
   47.7670   16.6580   44.0130 C   0  0  0  0  0  1  0  0  0  0  0  0
   43.7590    7.8660   45.0300 C   0  0  0  0  0  2  0  0  0  0  0  0
   43.5130    7.4730   43.6140 C   0  0  0  0  0  2  0  0  0  0  0  0
   44.7290    6.9320   42.9860 N   0  0  0  0  0  4  0  0  0  0  0  0
   44.9870    5.6460   43.5580 C   0  0  0  0  0  2  0  0  0  0  0  0
   46.4120    5.1740   43.2790 C   0  0  0  0  0  2  0  0  0  0  0  0
   47.2610    6.1630   43.8070 O   0  0  0  0  0  0  0  0  0  0  0  0
   47.1410    7.2770   43.0030 C   0  0  0  0  0  2  0  0  0  0  0  0
   45.7770    7.9000   43.2260 C   0  0  0  0  0  2  0  0  0  0  0  0
   44.5890    6.8270   41.9470 H   0  0  0  0  0  0  0  0  0  0  0  0
   38.7090   11.3080   45.8020 C   0  0  0  0  0  0  0  0  0  0  0  0
   37.5720   10.5660   45.4520 C   0  0  0  0  0  3  0  0  0  0  0  0
   36.3380   10.7830   46.0290 C   0  0  0  0  0  3  0  0  0  0  0  0
   36.1730   11.7550   46.9870 C   0  0  0  0  0  0  0  0  0  0  0  0
   34.6380   12.0800   47.7580 Cl  0  0  0  0  0  0  0  0  0  0  0  0
   37.2610   12.4960   47.3490 C   0  0  0  0  0  3  0  0  0  0  0  0
   38.5140   12.2730   46.7610 C   0  0  0  0  0  3  0  0  0  0  0  0
  1  2  2  0  0  0  0
  1 29  1  0  0  0  0
  2  7  1  0  0  0  0
  3 10  1  1  0  0  0
  3  4  1  0  0  0  0
  3  2  1  0  0  0  0
  4  5  1  0  0  0  0
  5  7  1  0  0  0  0
  5  6  2  0  0  0  0
  7  8  2  0  0  0  0
  9  1  1  0  0  0  0
 10 15  1  0  0  0  0
 11 12  1  0  0  0  0
 11 10  2  0  0  0  0
 12 13  2  0  0  0  0
 13 16  1  0  0  0  0
 13 14  1  0  0  0  0
 15 14  2  0  0  0  0
 17 18  1  0  0  0  0
 17 16  1  0  0  0  0
 19 18  1  0  0  0  0
 20  4  1  0  0  0  0
 21 20  1  0  0  0  0
 22 27  1  0  0  0  0
 22 23  1  0  0  0  0
 22 21  1  0  0  0  0
 24 23  1  0  0  0  0
 24 25  1  0  0  0  0
 26 27  1  0  0  0  0
 26 25  1  0  0  0  0
 28 22  1  0  0  0  0
 29 35  1  0  0  0  0
 30 29  2  0  0  0  0
 30 31  1  0  0  0  0
 31 32  2  0  0  0  0
 32 34  1  0  0  0  0
 32 33  1  0  0  0  0
 35 34  2  0  0  0  0
M  END
>  <Pose>
1

>  <Score>
-7.434

$$$$
