MODEL 1
REMARK VINA RESULT:    -7.434      0.000      0.000
REMARK INTER + INTRA:         -12.173
REMARK INTER:                 -10.911
REMARK INTRA:                  -1.262
REMARK UNBOUND:                -1.262
REMARK  8 active torsions:
REMARK  status: ('A' for Active; 'I' for Inactive)
REMARK    1  A    between atoms: C_5  and  C_8 
REMARK    2  A    between atoms: C_10  and  C_24 
REMARK    3  A    between atoms: N_11  and  C_16 
REMARK    4  A    between atoms: C_16  and  C_17 
REMARK    5  A    between atoms: C_17  and  N_18 
REMARK    6  A    between atoms: C_27  and  O_30 
REMARK    7  A    between atoms: O_30  and  C_31 
REMARK    8  A    between atoms: C_31  and  C_32 
ROOT
ATOM      1  C   UNK d   1      39.961  11.057  45.123  0.00  0.00     0.130 C 
ATOM      2  C   UNK d   1      40.854  10.184  45.559  0.00  0.00     0.062 C 
ATOM      3  C   UNK d   1      42.177   9.885  44.899  0.00  0.00     0.161 C 
ATOM      4  N   UNK d   1      42.650   8.680  45.516  0.00  0.00    -0.331 N 
ATOM      5  C   UNK d   1      41.878   8.369  46.667  0.00  0.00     0.295 C 
ATOM      6  O   UNK d   1      42.103   7.477  47.498  0.00  0.00    -0.264 OA
ATOM      7  C   UNK d   1      40.743   9.320  46.691  0.00  0.00     0.250 C 
ATOM      8  O   UNK d   1      39.850   9.332  47.571  0.00  0.00    -0.282 OA
ATOM      9  O   UNK d   1      40.298  11.748  43.936  0.00  0.00    -0.190 OA
ENDROOT
BRANCH   3  10
ATOM     10  C   UNK d   1      43.047  11.066  45.147  0.00  0.00    -0.030 A 
ATOM     11  C   UNK d   1      43.844  11.550  44.149  0.00  0.00     0.012 A 
ATOM     12  C   UNK d   1      44.630  12.642  44.382  0.00  0.00     0.037 A 
ATOM     13  C   UNK d   1      44.646  13.279  45.604  0.00  0.00     0.068 A 
ATOM     14  C   UNK d   1      43.841  12.790  46.616  0.00  0.00     0.037 A 
ATOM     15  C   UNK d   1      43.044  11.680  46.374  0.00  0.00     0.012 A 
BRANCH  13  16
ATOM     16  O   UNK d   1      45.450  14.390  45.833  0.00  0.00    -0.351 OA
BRANCH  16  17
ATOM     17  C   UNK d   1      46.247  14.883  44.747  0.00  0.00     0.175 C 
BRANCH  17  18
ATOM     18  C   UNK d   1      46.891  16.201  45.171  0.00  0.00     0.022 C 
ATOM     19  C   UNK d   1      47.767  16.658  44.013  0.00  0.00     0.007 C 
ENDBRANCH  17  18
ENDBRANCH  16  17
ENDBRANCH  13  16
ENDBRANCH   3  10
BRANCH   4  20
ATOM     20  C   UNK d   1      43.759   7.866  45.030  0.00  0.00     0.155 C 
BRANCH  20  21
ATOM     21  C   UNK d   1      43.513   7.473  43.614  0.00  0.00     0.255 C 
BRANCH  21  22
ATOM     22  N   UNK d   1      44.729   6.932  42.986  0.00  0.00    -0.066 N 
ATOM     23  C   UNK d   1      44.987   5.646  43.558  0.00  0.00     0.261 C 
ATOM     24  C   UNK d   1      46.412   5.174  43.279  0.00  0.00     0.195 C 
ATOM     25  O   UNK d   1      47.261   6.163  43.807  0.00  0.00    -0.388 OA
ATOM     26  C   UNK d   1      47.141   7.277  43.003  0.00  0.00     0.195 C 
ATOM     27  C   UNK d   1      45.777   7.900  43.226  0.00  0.00     0.261 C 
ATOM     28  H   UNK d   1      44.589   6.827  41.947  0.00  0.00     0.280 HD
ENDBRANCH  21  22
ENDBRANCH  20  21
ENDBRANCH   4  20
BRANCH   1  29
ATOM     29  C   UNK d   1      38.709  11.308  45.802  0.00  0.00     0.001 A 
ATOM     30  C   UNK d   1      37.572  10.566  45.452  0.00  0.00     0.016 A 
ATOM     31  C   UNK d   1      36.338  10.783  46.029  0.00  0.00     0.024 A 
ATOM     32  C   UNK d   1      36.173  11.755  46.987  0.00  0.00     0.034 A 
ATOM     33 Cl   UNK d   1      34.638  12.080  47.758  0.00  0.00    -0.084 Cl
ATOM     34  C   UNK d   1      37.261  12.496  47.349  0.00  0.00     0.024 A 
ATOM     35  C   UNK d   1      38.514  12.273  46.761  0.00  0.00     0.016 A 
ENDBRANCH   1  29
TORSDOF 8
ENDMDL
