MODEL 1
REMARK VINA RESULT:    -7.943      0.000      0.000
REMARK INTER + INTRA:         -12.036
REMARK INTER:                 -10.962
REMARK INTRA:                  -1.075
REMARK UNBOUND:                -1.075
REMARK  7 active torsions:
REMARK  status: ('A' for Active; 'I' for Inactive)
REMARK    1  A    between atoms: C_5  and  C_8 
REMARK    2  A    between atoms: C_8  and  O_9 
REMARK    3  A    between atoms: C_8  and  C_10 
REMARK    4  A    between atoms: N_17  and  C_20 
REMARK    5  A    between atoms: C_20  and  C_21 
REMARK    6  A    between atoms: C_21  and  C_22 
REMARK    7  A    between atoms: C_22  and  O_23 
ROOT
ATOM      1  C   UNK d   1      42.809  12.304  45.704  0.00  0.00     0.269 C 
ATOM      2  N   UNK d   1      41.391  12.466  45.998  0.00  0.00     0.116 N 
ATOM      3  C   UNK d   1      40.794  11.148  45.910  0.00  0.00     0.279 A 
ATOM      4  C   UNK d   1      41.901  10.255  46.389  0.00  0.00     0.147 C 
ATOM      5  C   UNK d   1      43.160  10.872  45.866  0.00  0.00     0.131 C 
ATOM      6  C   UNK d   1      43.447  10.185  44.577  0.00  0.00     0.233 C 
ATOM      7  O   UNK d   1      44.252  10.561  43.693  0.00  0.00    -0.272 OA
ATOM      8  N   UNK d   1      42.616   9.004  44.551  0.00  0.00    -0.287 N 
ATOM      9  C   UNK d   1      41.913   8.916  45.773  0.00  0.00     0.234 C 
ATOM     10  O   UNK d   1      41.381   7.894  46.271  0.00  0.00    -0.272 OA
ATOM     11  C   UNK d   1      39.585  11.027  46.760  0.00  0.00     0.017 A 
ATOM     12  C   UNK d   1      38.533  10.762  45.916  0.00  0.00     0.044 A 
ATOM     13  C   UNK d   1      37.265  10.597  46.456  0.00  0.00     0.030 A 
ATOM     14  C   UNK d   1      37.095  10.700  47.816  0.00  0.00     0.002 A 
ATOM     15  C   UNK d   1      38.148  10.965  48.675  0.00  0.00     0.001 A 
ATOM     16  C   UNK d   1      39.403  11.129  48.125  0.00  0.00     0.012 A 
ATOM     17  N   UNK d   1      38.971  10.709  44.546  0.00  0.00    -0.324 N 
ATOM     18  C   UNK d   1      40.366  10.953  44.536  0.00  0.00     0.267 A 
ATOM     19  O   UNK d   1      41.055  10.984  43.503  0.00  0.00    -0.270 OA
ATOM     20  H   UNK d   1      40.960  13.128  45.345  0.00  0.00     0.318 HD
ATOM     21  H   UNK d   1      38.325  10.520  43.747  0.00  0.00     0.169 HD
ENDROOT
BRANCH   1  22
ATOM     22  C   UNK d   1      43.531  13.234  46.642  0.00  0.00     0.185 C 
BRANCH  22  23
ATOM     23  C   UNK d   1      44.601  14.026  45.971  0.00  0.00    -0.028 A 
ATOM     24  C   UNK d   1      45.111  15.175  46.573  0.00  0.00     0.011 A 
ATOM     25  C   UNK d   1      46.080  15.930  45.967  0.00  0.00     0.024 A 
ATOM     26  C   UNK d   1      46.599  15.590  44.733  0.00  0.00     0.034 A 
ATOM     27 Cl   UNK d   1      47.841  16.549  43.946  0.00  0.00    -0.084 Cl
ATOM     28  C   UNK d   1      46.080  14.452  44.157  0.00  0.00     0.024 A 
ATOM     29  C   UNK d   1      45.108  13.677  44.743  0.00  0.00     0.011 A 
ENDBRANCH  22  23
BRANCH  22  30
ATOM     30  O   UNK d   1      42.705  14.088  47.326  0.00  0.00    -0.389 OA
ATOM     31  H   UNK d   1      42.866  15.006  46.989  0.00  0.00     0.210 HD
ENDBRANCH  22  30
ENDBRANCH   1  22
BRANCH   8  32
ATOM     32  C   UNK d   1      42.520   8.086  43.454  0.00  0.00     0.137 C 
BRANCH  32  33
ATOM     33  C   UNK d   1      43.689   7.198  43.245  0.00  0.00     0.046 C 
BRANCH  33  34
ATOM     34  C   UNK d   1      43.824   6.039  44.168  0.00  0.00     0.168 C 
BRANCH  34  35
ATOM     35  O   UNK d   1      44.814   5.143  43.786  0.00  0.00    -0.396 OA
ATOM     36  C   UNK d   1      45.717   5.789  42.917  0.00  0.00     0.201 C 
ENDBRANCH  34  35
ENDBRANCH  33  34
ENDBRANCH  32  33
ENDBRANCH   8  32
TORSDOF 7
ENDMDL
