MODEL 1
REMARK VINA RESULT:    -7.804      0.000      0.000
REMARK INTER + INTRA:          -9.925
REMARK INTER:                  -9.401
REMARK INTRA:                  -0.524
REMARK UNBOUND:                -0.524
REMARK  4 active torsions:
REMARK  status: ('A' for Active; 'I' for Inactive)
REMARK    1  A    between atoms: C_5  and  C_8 
REMARK    2  A    between atoms: C_8  and  C_9 
REMARK       I    between atoms: C_9  and  N_11 
REMARK    3  A    between atoms: C_17  and  N_21 
REMARK    4  A    between atoms: C_19  and  O_20 
ROOT
ATOM      1  C   UNK d   1      44.759   7.118  44.412  0.00  0.00     0.224 C 
ATOM      2  O   UNK d   1      45.125   7.611  45.534  0.00  0.00    -0.273 OA
ATOM      3  N   UNK d   1      45.682   6.810  43.402  0.00  0.00    -0.346 N 
ATOM      4  C   UNK d   1      45.281   6.259  42.147  0.00  0.00     0.131 C 
ATOM      5  C   UNK d   1      46.335   5.432  41.467  0.00  0.00     0.065 C 
ATOM      6  C   UNK d   1      47.291   4.899  42.468  0.00  0.00     0.024 A 
ATOM      7  C   UNK d   1      47.689   5.669  43.545  0.00  0.00     0.082 A 
ATOM      8  N   UNK d   1      48.555   5.200  44.450  0.00  0.00    -0.065 NA
ATOM      9  C   UNK d   1      49.090   3.963  44.376  0.00  0.00     0.727 A 
ATOM     10  N   UNK d   1      48.703   3.204  43.322  0.00  0.00    -0.038 NA
ATOM     11  C   UNK d   1      47.836   3.631  42.388  0.00  0.00     0.189 A 
ATOM     12  C   UNK d   1      47.081   7.049  43.625  0.00  0.00     0.186 C 
ENDROOT
BRANCH   1  13
ATOM     13  C   UNK d   1      43.290   6.885  44.231  0.00  0.00     0.141 C 
BRANCH  13  14
ATOM     14  C   UNK d   1      42.562   8.156  44.089  0.00  0.00    -0.049 A 
ATOM     15  C   UNK d   1      42.084   8.883  45.158  0.00  0.00     0.009 A 
ATOM     16  C   UNK d   1      41.404  10.070  44.993  0.00  0.00     0.024 A 
ATOM     17  C   UNK d   1      41.176  10.573  43.716  0.00  0.00     0.034 A 
ATOM     18 Cl   UNK d   1      40.314  12.078  43.490  0.00  0.00    -0.084 Cl
ATOM     19  C   UNK d   1      41.661   9.832  42.654  0.00  0.00     0.024 A 
ATOM     20  C   UNK d   1      42.341   8.646  42.821  0.00  0.00     0.009 A 
ENDBRANCH  13  14
ENDBRANCH   1  13
BRANCH  11  21
ATOM     21  O   UNK d   1      47.460   2.828  41.320  0.00  0.00    -0.344 OA
ATOM     22  H   UNK d   1      46.672   3.065  40.712  0.00  0.00     0.219 HD
ENDBRANCH  11  21
BRANCH   9  23
ATOM     23  N   UNK d   1      49.995   3.516  45.354  0.00  0.00    -0.210 N 
ATOM     24  C   UNK d   1      50.293   4.326  46.498  0.00  0.00     0.167 C 
ATOM     25  C   UNK d   1      50.799   3.366  47.584  0.00  0.00     0.188 C 
ATOM     26  O   UNK d   1      51.955   2.738  47.191  0.00  0.00    -0.388 OA
ATOM     27  C   UNK d   1      51.953   2.203  45.932  0.00  0.00     0.188 C 
ATOM     28  C   UNK d   1      50.631   2.241  45.216  0.00  0.00     0.167 C 
ENDBRANCH   9  23
TORSDOF 4
ENDMDL
