/Users/jonathanwahrer/Desktop/Msc/3_Semester/Drug_Design_Praktikum/waehrer_HTS_screening/HTS_experiment/out/docking_results/vina_output/2qfa/1960_docked.pdbqt
 OpenBabel03162221133D

 28 31  0  0  0  0  0  0  0  0999 V2000
   42.9320    9.4950   44.8080 C   0  0  0  0  0  0  0  0  0  0  0  0
   43.3720    9.1960   45.9500 O   0  0  0  0  0  0  0  0  0  0  0  0
   41.5810    9.8530   44.6810 N   0  0  0  0  0  0  0  0  0  0  0  0
   40.6880    9.8790   45.8530 C   0  0  0  0  0  2  0  0  0  0  0  0
   39.7460   11.0640   45.7020 C   0  0  0  0  0  2  0  0  0  0  0  0
   40.4420   12.0480   44.8980 N   0  0  0  0  0  0  0  0  0  0  0  0
   40.5720   11.7200   43.4880 C   0  0  0  0  0  2  0  0  0  0  0  0
   40.9380   10.2270   43.4290 C   0  0  0  0  0  2  0  0  0  0  0  0
   40.9710   13.2410   45.4560 C   0  0  0  0  0  0  0  0  0  0  0  0
   40.1240   14.2700   45.8210 C   0  0  0  0  0  3  0  0  0  0  0  0
   40.6600   15.4110   46.3450 N   0  0  0  0  0  0  0  0  0  0  0  0
   41.9560   15.5810   46.5190 N   0  0  0  0  0  0  0  0  0  0  0  0
   42.8520   14.6030   46.1800 C   0  0  0  0  0  0  0  0  0  0  0  0
   42.3120   13.4660   45.6590 C   0  0  0  0  0  3  0  0  0  0  0  0
   44.2260   14.8520   46.3910 N   0  0  0  0  0  0  0  0  0  0  0  0
   44.6650   15.9000   47.2930 C   0  0  0  0  0  2  0  0  0  0  0  0
   45.7970   16.7100   46.6610 C   0  0  0  0  0  2  0  0  0  0  0  0
   46.7640   15.8920   46.1110 O   0  0  0  0  0  0  0  0  0  0  0  0
   46.1770   15.1610   45.0900 C   0  0  0  0  0  2  0  0  0  0  0  0
   45.2650   14.1010   45.7330 C   0  0  0  0  0  2  0  0  0  0  0  0
   43.8800    9.4470   43.6790 C   0  0  0  0  0  2  0  0  0  0  0  0
   44.5120    8.1060   43.5550 C   0  0  0  0  0  0  0  0  0  0  0  0
   45.8320    8.0140   43.1210 C   0  0  0  0  0  3  0  0  0  0  0  0
   46.4560    6.7870   42.9940 C   0  0  0  0  0  3  0  0  0  0  0  0
   45.7710    5.6100   43.2990 C   0  0  0  0  0  0  0  0  0  0  0  0
   46.5470    4.0640   43.1430 Cl  0  0  0  0  0  0  0  0  0  0  0  0
   44.4680    5.7190   43.7260 C   0  0  0  0  0  3  0  0  0  0  0  0
   43.8370    6.9560   43.8550 C   0  0  0  0  0  3  0  0  0  0  0  0
  1  2  2  0  0  0  0
  3  1  1  0  0  0  0
  3  4  1  0  0  0  0
  5  4  1  0  0  0  0
  6  9  1  0  0  0  0
  6  5  1  0  0  0  0
  7  6  1  0  0  0  0
  8  7  1  0  0  0  0
  8  3  1  0  0  0  0
  9 14  2  0  0  0  0
  9 10  1  0  0  0  0
 10 11  2  0  0  0  0
 11 12  1  0  0  0  0
 13 15  1  0  0  0  0
 13 12  2  0  0  0  0
 14 13  1  0  0  0  0
 15 16  1  0  0  0  0
 17 16  1  0  0  0  0
 18 17  1  0  0  0  0
 19 20  1  0  0  0  0
 19 18  1  0  0  0  0
 20 15  1  0  0  0  0
 21  1  1  0  0  0  0
 22 21  1  0  0  0  0
 22 28  1  0  0  0  0
 23 22  2  0  0  0  0
 24 23  1  0  0  0  0
 24 25  2  0  0  0  0
 25 27  1  0  0  0  0
 26 25  1  0  0  0  0
 27 28  2  0  0  0  0
M  END
>  <Pose>
1

>  <Score>
-7.888

$$$$
