MODEL 1
REMARK VINA RESULT:    -7.888      0.000      0.000
REMARK INTER + INTRA:         -10.459
REMARK INTER:                  -9.733
REMARK INTRA:                  -0.726
REMARK UNBOUND:                -0.726
REMARK  4 active torsions:
REMARK  status: ('A' for Active; 'I' for Inactive)
REMARK    1  A    between atoms: C_5  and  C_8 
REMARK    2  A    between atoms: C_8  and  C_9 
REMARK       I    between atoms: C_9  and  N_11 
REMARK    3  A    between atoms: N_14  and  C_17 
REMARK    4  A    between atoms: C_21  and  N_23 
ROOT
ATOM      1  C   UNK d   1      42.932   9.495  44.808  0.00  0.00     0.224 C 
ATOM      2  O   UNK d   1      43.372   9.196  45.950  0.00  0.00    -0.273 OA
ATOM      3  N   UNK d   1      41.581   9.853  44.681  0.00  0.00    -0.349 N 
ATOM      4  C   UNK d   1      40.688   9.879  45.853  0.00  0.00     0.145 C 
ATOM      5  C   UNK d   1      39.746  11.064  45.702  0.00  0.00     0.143 C 
ATOM      6  N   UNK d   1      40.442  12.048  44.898  0.00  0.00    -0.376 N 
ATOM      7  C   UNK d   1      40.572  11.720  43.488  0.00  0.00     0.143 C 
ATOM      8  C   UNK d   1      40.938  10.227  43.429  0.00  0.00     0.145 C 
ENDROOT
BRANCH   6   9
ATOM      9  C   UNK d   1      40.971  13.241  45.456  0.00  0.00     0.053 A 
ATOM     10  C   UNK d   1      40.124  14.270  45.821  0.00  0.00     0.170 A 
ATOM     11  N   UNK d   1      40.660  15.411  46.345  0.00  0.00    -0.158 NA
ATOM     12  N   UNK d   1      41.956  15.581  46.519  0.00  0.00    -0.132 NA
ATOM     13  C   UNK d   1      42.852  14.603  46.180  0.00  0.00     0.150 A 
ATOM     14  C   UNK d   1      42.312  13.466  45.659  0.00  0.00     0.083 A 
BRANCH  13  15
ATOM     15  N   UNK d   1      44.226  14.852  46.391  0.00  0.00    -0.360 N 
ATOM     16  C   UNK d   1      44.665  15.900  47.293  0.00  0.00     0.151 C 
ATOM     17  C   UNK d   1      45.797  16.710  46.661  0.00  0.00     0.187 C 
ATOM     18  O   UNK d   1      46.764  15.892  46.111  0.00  0.00    -0.388 OA
ATOM     19  C   UNK d   1      46.177  15.161  45.090  0.00  0.00     0.187 C 
ATOM     20  C   UNK d   1      45.265  14.101  45.733  0.00  0.00     0.151 C 
ENDBRANCH  13  15
ENDBRANCH   6   9
BRANCH   1  21
ATOM     21  C   UNK d   1      43.880   9.447  43.679  0.00  0.00     0.141 C 
BRANCH  21  22
ATOM     22  C   UNK d   1      44.512   8.106  43.555  0.00  0.00    -0.049 A 
ATOM     23  C   UNK d   1      45.832   8.014  43.121  0.00  0.00     0.009 A 
ATOM     24  C   UNK d   1      46.456   6.787  42.994  0.00  0.00     0.024 A 
ATOM     25  C   UNK d   1      45.771   5.610  43.299  0.00  0.00     0.034 A 
ATOM     26 Cl   UNK d   1      46.547   4.064  43.143  0.00  0.00    -0.084 Cl
ATOM     27  C   UNK d   1      44.468   5.719  43.726  0.00  0.00     0.024 A 
ATOM     28  C   UNK d   1      43.837   6.956  43.855  0.00  0.00     0.009 A 
ENDBRANCH  21  22
ENDBRANCH   1  21
TORSDOF 4
ENDMDL
