/Users/jonathanwahrer/Desktop/Msc/3_Semester/Drug_Design_Praktikum/waehrer_HTS_screening/HTS_experiment/out/docking_results/vina_output/2qfa/1966_docked.pdbqt
 OpenBabel03162221133D

 27 30  0  0  0  0  0  0  0  0999 V2000
   42.9450   11.7410   47.4090 C   0  0  0  0  0  0  0  0  0  0  0  0
   43.0850   11.5270   48.6760 O   0  0  0  0  0  0  0  0  0  0  0  0
   42.1030   11.0260   46.5960 N   0  0  0  0  0  0  0  0  0  0  0  0
   41.2660   10.3150   45.7870 C   0  0  0  0  0  2  0  0  0  0  0  0
   41.7110   10.2550   47.6550 H   0  0  0  0  0  0  0  0  0  0  0  0
   43.8210   12.8620   46.9750 C   0  0  0  0  0  0  0  0  0  0  0  0
   44.5440   12.9940   45.8150 C   0  0  0  0  0  0  0  0  0  0  0  0
   44.6240   12.1080   44.7930 F   0  0  0  0  0  0  0  0  0  0  0  0
   45.2190   14.1840   45.8000 N   0  0  0  0  0  0  0  0  0  0  0  0
   44.9060   14.7830   46.9600 C   0  0  0  0  0  0  0  0  0  0  0  0
   46.0410   14.7520   44.9020 C   0  0  0  0  0  3  0  0  0  0  0  0
   44.0740   13.9940   47.6590 N   0  0  0  0  0  0  0  0  0  0  0  0
   45.4640   16.0150   47.2010 C   0  0  0  0  0  3  0  0  0  0  0  0
   46.3220   16.6400   46.2940 C   0  0  0  0  0  3  0  0  0  0  0  0
   46.6170   15.9980   45.1220 C   0  0  0  0  0  0  0  0  0  0  0  0
   47.6890   16.7300   43.9280 Cl  0  0  0  0  0  0  0  0  0  0  0  0
   41.2580   10.7230   44.3350 C   0  0  0  0  0  0  0  0  0  0  0  0
   41.8950   10.0940   43.3450 N   0  0  0  0  0  0  0  0  0  0  0  0
   41.6440   10.7490   42.2240 N   0  0  0  0  0  0  0  0  0  0  0  0
   40.8640   11.7790   42.4700 N   0  0  0  0  0  0  0  0  0  0  0  0
   40.6290   11.7550   43.7820 N   0  0  0  0  0  0  0  0  0  0  0  0
   42.6790    8.9180   43.5520 C   0  0  0  0  0  0  0  0  0  0  0  0
   44.0580    9.0150   43.4020 C   0  0  0  0  0  3  0  0  0  0  0  0
   44.8750    7.9040   43.5720 C   0  0  0  0  0  3  0  0  0  0  0  0
   44.3460    6.6710   43.8930 C   0  0  0  0  0  3  0  0  0  0  0  0
   42.9780    6.5820   44.0410 C   0  0  0  0  0  3  0  0  0  0  0  0
   42.1610    7.6860   43.8720 C   0  0  0  0  0  3  0  0  0  0  0  0
  1  2  2  0  0  0  0
  3  1  1  0  0  0  0
  3  5  1  0  0  0  0
  4  3  1  0  0  0  0
  6  1  1  0  0  0  0
  6 12  1  0  0  0  0
  7  6  2  0  0  0  0
  8  7  1  0  0  0  0
  9  7  1  0  0  0  0
  9 10  1  0  0  0  0
 10 13  1  0  0  0  0
 10 12  2  0  0  0  0
 11 15  2  0  0  0  0
 11  9  1  0  0  0  0
 14 13  2  0  0  0  0
 15 14  1  0  0  0  0
 16 15  1  0  0  0  0
 17  4  1  0  0  0  0
 18 22  1  0  0  0  0
 18 17  1  0  0  0  0
 19 20  2  0  0  0  0
 19 18  1  0  0  0  0
 20 21  1  0  0  0  0
 21 17  2  0  0  0  0
 22 27  1  0  0  0  0
 23 22  2  0  0  0  0
 23 24  1  0  0  0  0
 24 25  2  0  0  0  0
 25 26  1  0  0  0  0
 27 26  2  0  0  0  0
M  END
>  <Pose>
1

>  <Score>
-7.473

$$$$
