MODEL 1
REMARK VINA RESULT:    -7.473      0.000      0.000
REMARK INTER + INTRA:          -9.564
REMARK INTER:                  -8.784
REMARK INTRA:                  -0.780
REMARK UNBOUND:                -0.780
REMARK  3 active torsions:
REMARK  status: ('A' for Active; 'I' for Inactive)
REMARK    1  A    between atoms: C_6  and  C_7 
REMARK       I    between atoms: C_7  and  N_9 
REMARK    2  A    between atoms: C_10  and  C_11 
REMARK    3  A    between atoms: N_12  and  C_16 
ROOT
ATOM      1  C   UNK d   1      42.945  11.741  47.409  0.00  0.00     0.275 C 
ATOM      2  O   UNK d   1      43.085  11.527  48.676  0.00  0.00    -0.266 OA
ATOM      3  N   UNK d   1      42.103  11.026  46.596  0.00  0.00    -0.348 N 
ATOM      4  C   UNK d   1      41.266  10.315  45.787  0.00  0.00     0.205 C 
ATOM      5  H   UNK d   1      41.711  10.255  47.655  0.00  0.00     0.163 HD
ENDROOT
BRANCH   1   6
ATOM      6  C   UNK d   1      43.821  12.862  46.975  0.00  0.00     0.183 A 
ATOM      7  C   UNK d   1      44.544  12.994  45.815  0.00  0.00     0.231 A 
ATOM      8  F   UNK d   1      44.624  12.108  44.793  0.00  0.00    -0.183 F 
ATOM      9  N   UNK d   1      45.219  14.184  45.800  0.00  0.00    -0.279 N 
ATOM     10  C   UNK d   1      44.906  14.783  46.960  0.00  0.00     0.137 A 
ATOM     11  C   UNK d   1      46.041  14.752  44.902  0.00  0.00     0.125 A 
ATOM     12  N   UNK d   1      44.074  13.994  47.659  0.00  0.00    -0.220 NA
ATOM     13  C   UNK d   1      45.464  16.015  47.201  0.00  0.00     0.053 A 
ATOM     14  C   UNK d   1      46.322  16.640  46.294  0.00  0.00     0.029 A 
ATOM     15  C   UNK d   1      46.617  15.998  45.122  0.00  0.00     0.050 A 
ATOM     16 Cl   UNK d   1      47.689  16.730  43.928  0.00  0.00    -0.083 Cl
ENDBRANCH   1   6
BRANCH   4  17
ATOM     17  C   UNK d   1      41.258  10.723  44.335  0.00  0.00     0.171 A 
ATOM     18  N   UNK d   1      41.895  10.094  43.345  0.00  0.00    -0.197 N 
ATOM     19  N   UNK d   1      41.644  10.749  42.224  0.00  0.00    -0.039 NA
ATOM     20  N   UNK d   1      40.864  11.779  42.470  0.00  0.00    -0.023 NA
ATOM     21  N   UNK d   1      40.629  11.755  43.782  0.00  0.00    -0.112 NA
BRANCH  18  22
ATOM     22  C   UNK d   1      42.679   8.918  43.552  0.00  0.00     0.062 A 
ATOM     23  C   UNK d   1      44.058   9.015  43.402  0.00  0.00     0.032 A 
ATOM     24  C   UNK d   1      44.875   7.904  43.572  0.00  0.00     0.002 A 
ATOM     25  C   UNK d   1      44.346   6.671  43.893  0.00  0.00     0.000 A 
ATOM     26  C   UNK d   1      42.978   6.582  44.041  0.00  0.00     0.002 A 
ATOM     27  C   UNK d   1      42.161   7.686  43.872  0.00  0.00     0.032 A 
ENDBRANCH  18  22
ENDBRANCH   4  17
TORSDOF 3
ENDMDL
