/Users/jonathanwahrer/Desktop/Msc/3_Semester/Drug_Design_Praktikum/waehrer_HTS_screening/HTS_experiment/out/docking_results/vina_output/2qfa/1969_docked.pdbqt
 OpenBabel03162221133D

 26 29  0  0  0  0  0  0  0  0999 V2000
   42.5250   10.5490   44.9780 C   0  0  0  0  0  0  0  0  0  0  0  0
   42.4530   11.3550   43.8460 O   0  0  0  0  0  0  0  0  0  0  0  0
   42.1890    9.2690   44.6870 N   0  0  0  0  0  0  0  0  0  0  0  0
   42.2050    8.0730   45.4750 C   0  0  0  0  0  2  0  0  0  0  0  0
   42.3530    6.8520   44.5430 C   0  0  0  0  0  2  0  0  0  0  0  0
   43.1780    7.3550   43.4360 N   0  0  0  0  0  0  0  0  0  0  0  0
   42.5990    8.2690   42.5080 C   0  0  0  0  0  2  0  0  0  0  0  0
   41.6260    9.0680   43.3130 C   0  0  0  0  0  2  0  0  0  0  0  0
   42.9480   11.4920   45.9980 C   0  0  0  0  0  0  0  0  0  0  0  0
   43.3010   12.2810   46.8510 N   0  0  0  0  0  0  0  0  0  0  0  0
   44.0310   13.2130   46.8970 N   0  0  0  0  0  0  0  0  0  0  0  0
   44.5080   13.3380   45.6770 N   0  0  0  0  0  0  0  0  0  0  0  0
   43.9720   12.3700   44.9820 C   0  0  0  0  0  3  0  0  0  0  0  0
   45.4450   14.3900   45.3510 C   0  0  0  0  0  0  0  0  0  0  0  0
   45.7480   15.4320   46.1560 C   0  0  0  0  0  3  0  0  0  0  0  0
   46.6690   16.3990   45.7720 C   0  0  0  0  0  0  0  0  0  0  0  0
   47.1010   17.7710   46.7430 Cl  0  0  0  0  0  0  0  0  0  0  0  0
   47.3130   16.3010   44.4960 C   0  0  0  0  0  3  0  0  0  0  0  0
   47.0000   15.2500   43.7060 C   0  0  0  0  0  3  0  0  0  0  0  0
   46.0950   14.3390   44.1340 C   0  0  0  0  0  3  0  0  0  0  0  0
   44.5280    7.0250   43.3820 C   0  0  0  0  0  0  0  0  0  0  0  0
   44.9480    5.6940   43.4870 N   0  0  0  0  0  0  0  0  0  0  0  0
   46.1640    5.2780   43.4240 C   0  0  0  0  0  3  0  0  0  0  0  0
   47.2390    6.1570   43.2230 C   0  0  0  0  0  3  0  0  0  0  0  0
   46.8320    7.4820   43.1250 C   0  0  0  0  0  3  0  0  0  0  0  0
   45.6040    7.8340   43.2000 N   0  0  0  0  0  0  0  0  0  0  0  0
  1  9  1  0  0  0  0
  2  1  2  0  0  0  0
  3  1  1  0  0  0  0
  3  4  1  0  0  0  0
  5  4  1  0  0  0  0
  6  5  1  0  0  0  0
  7  8  1  0  0  0  0
  7  6  1  0  0  0  0
  8  3  1  0  0  0  0
  9 10  1  0  0  0  0
 10 11  2  0  0  0  0
 12 11  1  0  0  0  0
 13 12  1  0  0  0  0
 13  9  2  0  0  0  0
 14 12  1  0  0  0  0
 14 15  1  0  0  0  0
 16 15  2  0  0  0  0
 16 17  1  0  0  0  0
 18 16  1  0  0  0  0
 19 20  1  0  0  0  0
 19 18  2  0  0  0  0
 20 14  2  0  0  0  0
 21  6  1  0  0  0  0
 21 22  2  0  0  0  0
 23 22  1  0  0  0  0
 24 23  2  0  0  0  0
 25 26  2  0  0  0  0
 25 24  1  0  0  0  0
 26 21  1  0  0  0  0
M  END
>  <Pose>
1

>  <Score>
-8.104

$$$$
