MODEL 1
REMARK VINA RESULT:    -8.104      0.000      0.000
REMARK INTER + INTRA:         -10.210
REMARK INTER:                  -9.525
REMARK INTRA:                  -0.685
REMARK UNBOUND:                -0.685
REMARK  3 active torsions:
REMARK  status: ('A' for Active; 'I' for Inactive)
REMARK    1  A    between atoms: C_4  and  N_8 
REMARK    2  A    between atoms: C_11  and  C_13 
REMARK    3  A    between atoms: N_18  and  C_21 
ROOT
ATOM      1  C   UNK d   1      42.525  10.549  44.978  0.00  0.00     0.209 C 
ATOM      2  O   UNK d   1      42.453  11.355  43.846  0.00  0.00    -0.170 OA
ATOM      3  N   UNK d   1      42.189   9.269  44.687  0.00  0.00    -0.354 N 
ATOM      4  C   UNK d   1      42.205   8.073  45.475  0.00  0.00     0.145 C 
ATOM      5  C   UNK d   1      42.353   6.852  44.543  0.00  0.00     0.161 C 
ATOM      6  N   UNK d   1      43.178   7.355  43.436  0.00  0.00    -0.211 N 
ATOM      7  C   UNK d   1      42.599   8.269  42.508  0.00  0.00     0.161 C 
ATOM      8  C   UNK d   1      41.626   9.068  43.313  0.00  0.00     0.145 C 
ENDROOT
BRANCH   1   9
ATOM      9  C   UNK d   1      42.948  11.492  45.998  0.00  0.00     0.151 A 
ATOM     10  N   UNK d   1      43.301  12.281  46.851  0.00  0.00    -0.126 NA
ATOM     11  N   UNK d   1      44.031  13.213  46.897  0.00  0.00    -0.060 NA
ATOM     12  N   UNK d   1      44.508  13.338  45.677  0.00  0.00    -0.224 N 
ATOM     13  C   UNK d   1      43.972  12.370  44.982  0.00  0.00     0.158 A 
BRANCH  12  14
ATOM     14  C   UNK d   1      45.445  14.390  45.351  0.00  0.00     0.061 A 
ATOM     15  C   UNK d   1      45.748  15.432  46.156  0.00  0.00     0.055 A 
ATOM     16  C   UNK d   1      46.669  16.399  45.772  0.00  0.00     0.036 A 
ATOM     17 Cl   UNK d   1      47.101  17.771  46.743  0.00  0.00    -0.084 Cl
ATOM     18  C   UNK d   1      47.313  16.301  44.496  0.00  0.00     0.024 A 
ATOM     19  C   UNK d   1      47.000  15.250  43.706  0.00  0.00     0.004 A 
ATOM     20  C   UNK d   1      46.095  14.339  44.134  0.00  0.00     0.032 A 
ENDBRANCH  12  14
ENDBRANCH   1   9
BRANCH   6  21
ATOM     21  C   UNK d   1      44.528   7.025  43.382  0.00  0.00     0.724 A 
ATOM     22  N   UNK d   1      44.948   5.694  43.487  0.00  0.00    -0.075 NA
ATOM     23  C   UNK d   1      46.164   5.278  43.424  0.00  0.00     0.138 A 
ATOM     24  C   UNK d   1      47.239   6.157  43.223  0.00  0.00     0.040 A 
ATOM     25  C   UNK d   1      46.832   7.482  43.125  0.00  0.00     0.138 A 
ATOM     26  N   UNK d   1      45.604   7.834  43.200  0.00  0.00    -0.075 NA
ENDBRANCH   6  21
TORSDOF 3
ENDMDL
