MODEL 1
REMARK VINA RESULT:    -6.459      0.000      0.000
REMARK INTER + INTRA:          -5.794
REMARK INTER:                  -6.837
REMARK INTRA:                   1.043
REMARK UNBOUND:                 1.043
REMARK  1 active torsions:
REMARK  status: ('A' for Active; 'I' for Inactive)
REMARK       I    between atoms: N_10  and  C_13 
REMARK    1  A    between atoms: C_13  and  C_15 
ROOT
ATOM      1 Cl   UNK d   1      40.950  14.218  48.672  0.00  0.00    -0.083 Cl
ATOM      2  C   UNK d   1      41.010  13.216  47.223  0.00  0.00     0.050 A 
ATOM      3  C   UNK d   1      41.555  11.949  47.233  0.00  0.00     0.125 A 
ATOM      4  N   UNK d   1      41.610  11.163  46.130  0.00  0.00    -0.271 N 
ATOM      5  C   UNK d   1      41.130  11.579  44.943  0.00  0.00     0.137 A 
ATOM      6  N   UNK d   1      41.177  10.806  43.826  0.00  0.00    -0.234 NA
ATOM      7  C   UNK d   1      41.706   9.569  43.827  0.00  0.00     0.051 A 
ATOM      8  C   UNK d   1      42.206   9.124  45.047  0.00  0.00     0.053 A 
ATOM      9  C   UNK d   1      42.792   7.758  45.049  0.00  0.00     0.172 C 
ATOM     10  N   UNK d   1      43.637   7.699  43.851  0.00  0.00    -0.347 N 
ATOM     11  C   UNK d   1      42.995   7.856  42.577  0.00  0.00     0.132 C 
ATOM     12  C   UNK d   1      41.761   8.713  42.615  0.00  0.00     0.080 C 
ATOM     13  C   UNK d   1      45.031   7.503  43.963  0.00  0.00     0.224 C 
ATOM     14  O   UNK d   1      45.506   7.390  45.144  0.00  0.00    -0.273 OA
ATOM     15  C   UNK d   1      42.145   9.930  46.162  0.00  0.00     0.263 A 
ATOM     16  O   UNK d   1      42.610   9.499  47.267  0.00  0.00    -0.267 OA
ATOM     17  C   UNK d   1      40.580  12.850  44.911  0.00  0.00     0.053 A 
ATOM     18  C   UNK d   1      40.512  13.668  46.020  0.00  0.00     0.029 A 
ENDROOT
BRANCH  13  19
ATOM     19  C   UNK d   1      45.929   7.424  42.790  0.00  0.00     0.082 C 
ATOM     20  C   UNK d   1      45.684   6.180  41.964  0.00  0.00     0.040 C 
ATOM     21  C   UNK d   1      45.487   5.050  42.966  0.00  0.00     0.168 C 
ATOM     22  O   UNK d   1      46.356   5.209  44.045  0.00  0.00    -0.391 OA
ATOM     23  C   UNK d   1      47.553   5.822  43.653  0.00  0.00     0.168 C 
ATOM     24  C   UNK d   1      47.367   7.289  43.313  0.00  0.00     0.040 C 
ENDBRANCH  13  19
TORSDOF 1
ENDMDL
