/Users/jonathanwahrer/Desktop/Msc/3_Semester/Drug_Design_Praktikum/waehrer_HTS_screening/HTS_experiment/out/docking_results/vina_output/2qfa/1976_docked.pdbqt
 OpenBabel03162221143D

 26 29  0  0  0  0  0  0  0  0999 V2000
   43.0420   10.1540   43.8070 C   0  0  0  0  0  0  0  0  0  0  0  0
   44.3090   10.2520   43.9670 O   0  0  0  0  0  0  0  0  0  0  0  0
   42.1430   11.0960   44.3740 N   0  0  0  0  0  0  0  0  0  0  0  0
   40.7480   10.9400   44.1600 C   0  0  0  0  0  2  0  0  0  0  0  0
   40.1820   12.2940   43.7140 C   0  0  0  0  0  2  0  0  0  0  0  0
   40.4190   13.1680   44.9280 C   0  0  0  0  0  0  0  0  0  0  0  0
   41.6180   13.0750   45.6040 C   0  0  0  0  0  0  0  0  0  0  0  0
   41.8050   13.8620   46.7020 N   0  0  0  0  0  0  0  0  0  0  0  0
   40.8740   14.7180   47.1490 C   0  0  0  0  0  3  0  0  0  0  0  0
   39.7110   14.7960   46.4780 N   0  0  0  0  0  0  0  0  0  0  0  0
   39.4620   14.0350   45.3710 C   0  0  0  0  0  0  0  0  0  0  0  0
   42.6830   12.1600   45.1510 C   0  0  0  0  0  2  0  0  0  0  0  0
   42.5420    9.0010   42.9930 C   0  0  0  0  0  2  0  0  0  0  0  0
   43.3890    7.7920   43.2310 C   0  0  0  0  0  0  0  0  0  0  0  0
   43.1220    6.8850   44.2380 C   0  0  0  0  0  0  0  0  0  0  0  0
   41.7410    7.1900   45.2570 Cl  0  0  0  0  0  0  0  0  0  0  0  0
   43.9300    5.7750   44.4230 C   0  0  0  0  0  3  0  0  0  0  0  0
   45.0290    5.5190   43.6240 C   0  0  0  0  0  0  0  0  0  0  0  0
   45.3080    6.4180   42.6120 C   0  0  0  0  0  0  0  0  0  0  0  0
   45.8600    4.4360   43.7660 O   0  0  0  0  0  0  0  0  0  0  0  0
   44.4920    7.5200   42.4410 C   0  0  0  0  0  3  0  0  0  0  0  0
   46.4050    6.1620   41.8150 O   0  0  0  0  0  0  0  0  0  0  0  0
   47.0360    4.9040   41.6850 C   0  0  0  0  0  2  0  0  0  0  0  0
   46.7040    3.9360   42.7650 C   0  0  0  0  0  2  0  0  0  0  0  0
   38.2670   14.1120   44.6790 O   0  0  0  0  0  0  0  0  0  0  0  0
   38.0830   14.9500   44.1400 H   0  0  0  0  0  0  0  0  0  0  0  0
  1  2  2  0  0  0  0
  1  3  1  0  0  0  0
  3 12  1  0  0  0  0
  4  3  1  0  0  0  0
  5  4  1  0  0  0  0
  5  6  1  0  0  0  0
  6 11  1  0  0  0  0
  6  7  2  0  0  0  0
  7  8  1  0  0  0  0
  8  9  2  0  0  0  0
 10  9  1  0  0  0  0
 11 10  2  0  0  0  0
 12  7  1  0  0  0  0
 13 14  1  0  0  0  0
 13  1  1  0  0  0  0
 14 15  1  0  0  0  0
 15 17  2  0  0  0  0
 15 16  1  0  0  0  0
 18 20  1  0  0  0  0
 18 17  1  0  0  0  0
 19 18  2  0  0  0  0
 21 19  1  0  0  0  0
 21 14  2  0  0  0  0
 22 19  1  0  0  0  0
 23 22  1  0  0  0  0
 23 24  1  0  0  0  0
 24 20  1  0  0  0  0
 25 11  1  0  0  0  0
 26 25  1  0  0  0  0
M  END
>  <Pose>
1

>  <Score>
-7.275

$$$$
