MODEL 1
REMARK VINA RESULT:    -7.275      0.000      0.000
REMARK INTER + INTRA:          -8.546
REMARK INTER:                  -8.338
REMARK INTRA:                  -0.207
REMARK UNBOUND:                -0.207
REMARK  3 active torsions:
REMARK  status: ('A' for Active; 'I' for Inactive)
REMARK    1  A    between atoms: C_7  and  C_8 
REMARK    2  A    between atoms: C_8  and  C_9 
REMARK       I    between atoms: C_9  and  N_11 
REMARK    3  A    between atoms: C_19  and  O_20 
ROOT
ATOM      1  C   UNK d   1      43.042  10.154  43.807  0.00  0.00     0.224 C 
ATOM      2  O   UNK d   1      44.309  10.252  43.967  0.00  0.00    -0.273 OA
ATOM      3  N   UNK d   1      42.143  11.096  44.374  0.00  0.00    -0.346 N 
ATOM      4  C   UNK d   1      40.748  10.940  44.160  0.00  0.00     0.131 C 
ATOM      5  C   UNK d   1      40.182  12.294  43.714  0.00  0.00     0.065 C 
ATOM      6  C   UNK d   1      40.419  13.168  44.928  0.00  0.00     0.022 A 
ATOM      7  C   UNK d   1      41.618  13.075  45.604  0.00  0.00     0.064 A 
ATOM      8  N   UNK d   1      41.805  13.862  46.702  0.00  0.00    -0.244 NA
ATOM      9  C   UNK d   1      40.874  14.718  47.149  0.00  0.00     0.236 A 
ATOM     10  N   UNK d   1      39.711  14.796  46.478  0.00  0.00    -0.217 NA
ATOM     11  C   UNK d   1      39.462  14.035  45.371  0.00  0.00     0.171 A 
ATOM     12  C   UNK d   1      42.683  12.160  45.151  0.00  0.00     0.185 C 
ENDROOT
BRANCH   1  13
ATOM     13  C   UNK d   1      42.542   9.001  42.993  0.00  0.00     0.143 C 
BRANCH  13  14
ATOM     14  C   UNK d   1      43.389   7.792  43.231  0.00  0.00    -0.025 A 
ATOM     15  C   UNK d   1      43.122   6.885  44.238  0.00  0.00     0.043 A 
ATOM     16 Cl   UNK d   1      41.741   7.190  45.257  0.00  0.00    -0.084 Cl
ATOM     17  C   UNK d   1      43.930   5.775  44.423  0.00  0.00     0.064 A 
ATOM     18  C   UNK d   1      45.029   5.519  43.624  0.00  0.00     0.103 A 
ATOM     19  C   UNK d   1      45.308   6.418  42.612  0.00  0.00     0.102 A 
ATOM     20  O   UNK d   1      45.860   4.436  43.766  0.00  0.00    -0.346 OA
ATOM     21  C   UNK d   1      44.492   7.520  42.441  0.00  0.00     0.049 A 
ATOM     22  O   UNK d   1      46.405   6.162  41.815  0.00  0.00    -0.346 OA
ATOM     23  C   UNK d   1      47.036   4.904  41.685  0.00  0.00     0.202 C 
ATOM     24  C   UNK d   1      46.704   3.936  42.765  0.00  0.00     0.202 C 
ENDBRANCH  13  14
ENDBRANCH   1  13
BRANCH  11  25
ATOM     25  O   UNK d   1      38.267  14.112  44.679  0.00  0.00    -0.344 OA
ATOM     26  H   UNK d   1      38.083  14.950  44.140  0.00  0.00     0.219 HD
ENDBRANCH  11  25
TORSDOF 3
ENDMDL
