MODEL 1
REMARK VINA RESULT:    -6.824      0.000      0.000
REMARK INTER + INTRA:          -8.437
REMARK INTER:                  -8.021
REMARK INTRA:                  -0.416
REMARK UNBOUND:                -0.416
REMARK  3 active torsions:
REMARK  status: ('A' for Active; 'I' for Inactive)
REMARK    1  A    between atoms: N_15  and  C_19 
REMARK    2  A    between atoms: C_19  and  C_20 
REMARK    3  A    between atoms: C_20  and  C_21 
REMARK       I    between atoms: C_21  and  N_23 
ROOT
ATOM      1 Cl   UNK d   1      52.036  -0.110  41.960  0.00  0.00    -0.084 Cl
ATOM      2  C   UNK d   1      51.689   1.166  43.107  0.00  0.00     0.036 A 
ATOM      3  C   UNK d   1      50.601   2.005  42.983  0.00  0.00     0.055 A 
ATOM      4  C   UNK d   1      50.316   3.015  43.879  0.00  0.00     0.077 A 
ATOM      5  C   UNK d   1      51.174   3.179  44.949  0.00  0.00     0.038 A 
ATOM      6  C   UNK d   1      52.265   2.346  45.085  0.00  0.00     0.019 A 
ATOM      7  C   UNK d   1      52.550   1.337  44.188  0.00  0.00     0.025 A 
ATOM      8  C   UNK d   1      50.888   4.255  45.924  0.00  0.00     0.153 A 
ATOM      9  N   UNK d   1      51.503   4.612  46.972  0.00  0.00    -0.270 NA
ATOM     10  C   UNK d   1      50.884   5.729  47.654  0.00  0.00     0.172 A 
ATOM     11  C   UNK d   1      49.686   6.066  46.827  0.00  0.00     0.171 A 
ATOM     12  N   UNK d   1      49.755   5.094  45.753  0.00  0.00    -0.160 N 
ATOM     13  C   UNK d   1      48.919   4.857  44.620  0.00  0.00     0.736 A 
ATOM     14  N   UNK d   1      47.800   5.479  44.209  0.00  0.00     0.024 NA
ATOM     15  N   UNK d   1      47.337   4.935  43.096  0.00  0.00    -0.203 N 
ATOM     16  C   UNK d   1      48.206   3.935  42.807  0.00  0.00     0.364 A 
ATOM     17  O   UNK d   1      48.085   3.192  41.809  0.00  0.00    -0.244 OA
ATOM     18  N   UNK d   1      49.183   3.868  43.726  0.00  0.00    -0.090 N 
ENDROOT
BRANCH  15  19
ATOM     19  C   UNK d   1      46.157   5.326  42.350  0.00  0.00     0.166 C 
BRANCH  19  20
ATOM     20  C   UNK d   1      45.083   5.822  43.329  0.00  0.00     0.124 C 
BRANCH  20  21
ATOM     21  C   UNK d   1      44.838   7.272  43.126  0.00  0.00     0.216 C 
ATOM     22  O   UNK d   1      43.709   7.776  42.902  0.00  0.00    -0.274 OA
ATOM     23  N   UNK d   1      45.952   8.147  43.188  0.00  0.00    -0.370 N 
ATOM     24  H   UNK d   1      46.889   7.910  42.816  0.00  0.00     0.159 HD
ATOM     25  H   UNK d   1      45.813   9.078  43.634  0.00  0.00     0.159 HD
ENDBRANCH  20  21
ENDBRANCH  19  20
ENDBRANCH  15  19
TORSDOF 3
ENDMDL
