/Users/jonathanwahrer/Desktop/Msc/3_Semester/Drug_Design_Praktikum/waehrer_HTS_screening/HTS_experiment/out/docking_results/vina_output/2qfa/1986_docked.pdbqt
 OpenBabel03172211053D

 30 33  0  0  1  0  0  0  0  0999 V2000
   44.1060    7.2960   43.5210 Cl  0  0  0  0  0  0  0  0  0  0  0  0
   42.9450    8.5970   43.7170 C   0  0  0  0  0  0  0  0  0  0  0  0
   42.7670    9.2120   44.9400 C   0  0  0  0  0  3  0  0  0  0  0  0
   41.8400   10.2500   45.0980 C   0  0  0  0  0  0  0  0  0  0  0  0
   41.1290   10.6160   43.9830 C   0  0  2  0  0  3  0  0  0  0  0  0
   41.3130    9.9890   42.7430 C   0  0  0  0  0  3  0  0  0  0  0  0
   42.2270    8.9690   42.5990 C   0  0  0  0  0  3  0  0  0  0  0  0
   40.2020   11.6460   44.1130 O   0  0  0  0  0  0  0  0  0  0  0  0
   39.9670   12.3110   45.3050 C   0  0  0  0  0  0  0  0  0  0  0  0
   40.6860   11.9390   46.4300 C   0  0  0  0  0  0  0  0  0  0  0  0
   41.6900   10.8690   46.4290 C   0  0  0  0  0  0  0  0  0  0  0  0
   40.4170   12.6320   47.5940 C   0  0  0  0  0  0  0  0  0  0  0  0
   41.0470   12.3360   48.6590 O   0  0  0  0  0  0  0  0  0  0  0  0
   39.5180   13.6230   47.6950 N   0  0  0  0  0  0  0  0  0  0  0  0
   38.8390   13.9520   46.5690 C   0  0  0  0  0  0  0  0  0  0  0  0
   37.9990   14.8850   46.6860 O   0  0  0  0  0  0  0  0  0  0  0  0
   39.0680   13.3040   45.4120 N   0  0  0  0  0  0  0  0  0  0  0  0
   38.3010   13.7130   44.2530 C   0  0  0  0  0  1  0  0  0  0  0  0
   39.2730   14.3270   48.9540 C   0  0  0  0  0  1  0  0  0  0  0  0
   43.0130   11.4330   46.8530 C   0  0  0  0  0  3  0  0  0  0  0  0
   43.7110   10.8820   47.9060 C   0  0  0  0  0  0  0  0  0  0  0  0
   44.9100   11.4030   48.2820 N   0  0  0  0  0  0  0  0  0  0  0  0
   43.1890    9.8050   48.5670 O   0  0  0  0  0  0  0  0  0  0  0  0
   45.4320   12.4710   47.6280 C   0  0  0  0  0  0  0  0  0  0  0  0
   45.6010   10.7730   49.4030 C   0  0  0  0  0  1  0  0  0  0  0  0
   46.5470   12.9290   48.0060 O   0  0  0  0  0  0  0  0  0  0  0  0
   44.7750   13.0290   46.5990 N   0  0  0  0  0  0  0  0  0  0  0  0
   43.5880   12.5180   46.2220 C   0  0  0  0  0  0  0  0  0  0  0  0
   45.3650   14.1780   45.9190 C   0  0  0  0  0  1  0  0  0  0  0  0
   42.9940   13.0440   45.2710 O   0  0  0  0  0  0  0  0  0  0  0  0
  1  2  1  0  0  0  0
  2  3  2  0  0  0  0
  3  4  1  0  0  0  0
  4 11  2  0  0  0  0
  5  6  1  6  0  0  0
  5  8  1  0  0  0  0
  5  4  1  0  0  0  0
  7  6  2  0  0  0  0
  7  2  1  0  0  0  0
  8  9  1  0  0  0  0
  9 17  1  0  0  0  0
  9 10  2  0  0  0  0
 10 12  1  0  0  0  0
 11 10  1  0  0  0  0
 11 20  1  0  0  0  0
 12 14  1  0  0  0  0
 12 13  2  0  0  0  0
 14 19  1  0  0  0  0
 15 16  2  0  0  0  0
 15 14  1  0  0  0  0
 17 15  1  0  0  0  0
 18 17  1  0  0  0  0
 20 21  1  0  0  0  0
 21 22  1  0  0  0  0
 21 23  2  0  0  0  0
 22 25  1  0  0  0  0
 24 26  2  0  0  0  0
 24 22  1  0  0  0  0
 27 24  1  0  0  0  0
 28 27  1  0  0  0  0
 28 20  1  0  0  0  0
 29 27  1  0  0  0  0
 30 28  2  0  0  0  0
M  END
>  <Pose>
1

>  <Score>
-6.825

$$$$
