MODEL 1
REMARK VINA RESULT:    -6.825      0.000      0.000
REMARK INTER + INTRA:          -6.962
REMARK INTER:                  -7.224
REMARK INTRA:                   0.262
REMARK UNBOUND:                 0.262
REMARK  1 active torsions:
REMARK  status: ('A' for Active; 'I' for Inactive)
REMARK    1  A    between atoms: C_11  and  C_12 
ROOT
ATOM      1 Cl   UNK d   1      44.106   7.296  43.521  0.00  0.00    -0.084 Cl
ATOM      2  C   UNK d   1      42.945   8.597  43.717  0.00  0.00     0.034 A 
ATOM      3  C   UNK d   1      42.767   9.212  44.940  0.00  0.00     0.034 A 
ATOM      4  C   UNK d   1      41.840  10.250  45.098  0.00  0.00    -0.009 A 
ATOM      5  C   UNK d   1      41.129  10.616  43.983  0.00  0.00     0.085 A 
ATOM      6  C   UNK d   1      41.313   9.989  42.743  0.00  0.00     0.039 A 
ATOM      7  C   UNK d   1      42.227   8.969  42.599  0.00  0.00     0.026 A 
ATOM      8  O   UNK d   1      40.202  11.646  44.113  0.00  0.00    -0.292 OA
ATOM      9  C   UNK d   1      39.967  12.311  45.305  0.00  0.00     0.166 A 
ATOM     10  C   UNK d   1      40.686  11.939  46.430  0.00  0.00     0.075 A 
ATOM     11  C   UNK d   1      41.690  10.869  46.429  0.00  0.00     0.107 A 
ATOM     12  C   UNK d   1      40.417  12.632  47.594  0.00  0.00     0.262 A 
ATOM     13  O   UNK d   1      41.047  12.336  48.659  0.00  0.00    -0.267 OA
ATOM     14  N   UNK d   1      39.518  13.623  47.695  0.00  0.00    -0.270 N 
ATOM     15  C   UNK d   1      38.839  13.952  46.569  0.00  0.00     0.332 A 
ATOM     16  O   UNK d   1      37.999  14.885  46.686  0.00  0.00    -0.246 OA
ATOM     17  N   UNK d   1      39.068  13.304  45.412  0.00  0.00    -0.283 N 
ATOM     18  C   UNK d   1      38.301  13.713  44.253  0.00  0.00     0.163 C 
ATOM     19  C   UNK d   1      39.273  14.327  48.954  0.00  0.00     0.164 C 
ENDROOT
BRANCH  11  20
ATOM     20  C   UNK d   1      43.013  11.433  46.853  0.00  0.00     0.078 A 
ATOM     21  C   UNK d   1      43.711  10.882  47.906  0.00  0.00     0.197 A 
ATOM     22  N   UNK d   1      44.910  11.403  48.282  0.00  0.00    -0.281 N 
ATOM     23  O   UNK d   1      43.189   9.805  48.567  0.00  0.00    -0.171 OA
ATOM     24  C   UNK d   1      45.432  12.471  47.628  0.00  0.00     0.332 A 
ATOM     25  C   UNK d   1      45.601  10.773  49.403  0.00  0.00     0.163 C 
ATOM     26  O   UNK d   1      46.547  12.929  48.006  0.00  0.00    -0.246 OA
ATOM     27  N   UNK d   1      44.775  13.029  46.599  0.00  0.00    -0.270 N 
ATOM     28  C   UNK d   1      43.588  12.518  46.222  0.00  0.00     0.262 A 
ATOM     29  C   UNK d   1      45.365  14.178  45.919  0.00  0.00     0.164 C 
ATOM     30  O   UNK d   1      42.994  13.044  45.271  0.00  0.00    -0.267 OA
ENDBRANCH  11  20
TORSDOF 1
ENDMDL
