MODEL 1
REMARK VINA RESULT:    -6.553      0.000      0.000
REMARK INTER + INTRA:          -8.690
REMARK INTER:                  -7.702
REMARK INTRA:                  -0.988
REMARK UNBOUND:                -0.988
REMARK  3 active torsions:
REMARK  status: ('A' for Active; 'I' for Inactive)
REMARK       I    between atoms: N_11  and  C_13 
REMARK    1  A    between atoms: C_13  and  C_15 
REMARK    2  A    between atoms: C_15  and  N_16 
REMARK    3  A    between atoms: C_19  and  C_22 
REMARK       I    between atoms: C_22  and  N_24 
ROOT
ATOM      1 Cl   UNK d   1      46.506  12.838  50.515  0.00  0.00    -0.084 Cl
ATOM      2  C   UNK d   1      45.260  12.795  49.291  0.00  0.00     0.034 A 
ATOM      3  C   UNK d   1      44.186  11.941  49.403  0.00  0.00     0.035 A 
ATOM      4  C   UNK d   1      43.218  11.921  48.432  0.00  0.00    -0.005 A 
ATOM      5  C   UNK d   1      43.328  12.774  47.328  0.00  0.00     0.078 A 
ATOM      6  C   UNK d   1      44.406  13.636  47.207  0.00  0.00     0.039 A 
ATOM      7  C   UNK d   1      45.351  13.626  48.196  0.00  0.00     0.026 A 
ATOM      8  O   UNK d   1      42.440  12.873  46.268  0.00  0.00    -0.338 OA
ATOM      9  C   UNK d   1      41.075  12.529  46.250  0.00  0.00     0.088 C 
ATOM     10  C   UNK d   1      40.854  11.064  46.440  0.00  0.00     0.164 C 
ATOM     11  N   UNK d   1      41.693  10.438  47.418  0.00  0.00    -0.344 N 
ATOM     12  C   UNK d   1      42.125  10.950  48.692  0.00  0.00     0.167 C 
ATOM     13  C   UNK d   1      42.194   9.124  47.126  0.00  0.00     0.248 C 
ATOM     14  O   UNK d   1      42.924   8.589  47.997  0.00  0.00    -0.271 OA
ATOM     15  C   UNK d   1      40.326  13.372  47.270  0.00  0.00     0.066 C 
ATOM     16  C   UNK d   1      39.800  14.639  46.620  0.00  0.00     0.170 C 
ATOM     17  O   UNK d   1      38.821  14.384  45.680  0.00  0.00    -0.391 OA
ATOM     18  C   UNK d   1      38.992  13.126  45.114  0.00  0.00     0.170 C 
ATOM     19  C   UNK d   1      40.474  12.896  44.891  0.00  0.00     0.066 C 
ENDROOT
BRANCH  13  20
ATOM     20  C   UNK d   1      41.872   8.438  45.875  0.00  0.00     0.374 C 
BRANCH  20  21
ATOM     21  N   UNK d   1      42.938   7.844  45.155  0.00  0.00     0.097 N 
ATOM     22  C   UNK d   1      43.969   8.823  44.800  0.00  0.00     0.273 C 
ATOM     23  C   UNK d   1      43.351   9.858  43.937  0.00  0.00     0.044 C 
ATOM     24  C   UNK d   1      42.492   9.369  42.819  0.00  0.00     0.081 C 
ATOM     25  C   UNK d   1      42.090   7.947  42.846  0.00  0.00     0.044 C 
ATOM     26  C   UNK d   1      42.576   7.110  43.968  0.00  0.00     0.273 C 
BRANCH  24  27
ATOM     27  C   UNK d   1      41.316  10.249  42.610  0.00  0.00     0.219 C 
ATOM     28  O   UNK d   1      41.468  11.347  42.037  0.00  0.00    -0.273 OA
ATOM     29  N   UNK d   1      40.041   9.843  43.058  0.00  0.00    -0.370 N 
ATOM     30  H   UNK d   1      39.366   9.529  42.300  0.00  0.00     0.159 HD
ATOM     31  H   UNK d   1      39.712   9.823  44.031  0.00  0.00     0.159 HD
ENDBRANCH  24  27
ENDBRANCH  20  21
ENDBRANCH  13  20
TORSDOF 3
ENDMDL
