MODEL 1
REMARK VINA RESULT:    -6.488      0.000      0.000
REMARK INTER + INTRA:          -8.108
REMARK INTER:                  -7.625
REMARK INTRA:                  -0.482
REMARK UNBOUND:                -0.482
REMARK  3 active torsions:
REMARK  status: ('A' for Active; 'I' for Inactive)
REMARK    1  A    between atoms: S_1  and  N_4 
REMARK    2  A    between atoms: S_1  and  C_23 
REMARK       I    between atoms: N_7  and  C_10 
REMARK    3  A    between atoms: C_10  and  C_12 
ROOT
ATOM      1  N   UNK d   1      36.581  13.212  44.981  0.00  0.00    -0.303 N 
ATOM      2  C   UNK d   1      36.730  11.888  45.503  0.00  0.00     0.155 C 
ATOM      3  C   UNK d   1      38.168  11.468  45.662  0.00  0.00     0.146 C 
ATOM      4  N   UNK d   1      39.018  12.561  46.073  0.00  0.00    -0.345 N 
ATOM      5  C   UNK d   1      38.534  13.890  46.335  0.00  0.00     0.146 C 
ATOM      6  C   UNK d   1      37.237  14.238  45.709  0.00  0.00     0.155 C 
ATOM      7  C   UNK d   1      40.408  12.307  46.229  0.00  0.00     0.260 C 
ATOM      8  O   UNK d   1      41.211  13.230  46.591  0.00  0.00    -0.267 OA
ENDROOT
BRANCH   7   9
ATOM      9  C   UNK d   1      40.962  10.977  45.979  0.00  0.00     0.118 A 
ATOM     10  C   UNK d   1      41.083  10.012  46.958  0.00  0.00     0.141 A 
ATOM     11  N   UNK d   1      41.602   8.807  46.654  0.00  0.00    -0.242 NA
ATOM     12  C   UNK d   1      42.022   8.472  45.421  0.00  0.00     0.136 A 
ATOM     13  N   UNK d   1      41.910   9.402  44.454  0.00  0.00    -0.273 N 
ATOM     14  C   UNK d   1      42.552   7.218  45.145  0.00  0.00     0.051 A 
ATOM     15  C   UNK d   1      42.324   9.085  43.211  0.00  0.00     0.102 A 
ATOM     16  C   UNK d   1      41.396  10.618  44.718  0.00  0.00     0.270 A 
ATOM     17  C   UNK d   1      42.856   7.848  42.907  0.00  0.00     0.018 A 
ATOM     18  C   UNK d   1      42.984   6.872  43.876  0.00  0.00     0.005 A 
ATOM     19  O   UNK d   1      41.291  11.486  43.817  0.00  0.00    -0.266 OA
ENDBRANCH   7   9
BRANCH   1  20
ATOM     20  S   UNK d   1      35.020  13.587  44.443  0.00  0.00     0.267 S 
ATOM     21  O   UNK d   1      34.215  12.361  44.236  0.00  0.00    -0.200 OA
ATOM     22  O   UNK d   1      34.351  14.470  45.472  0.00  0.00    -0.200 OA
BRANCH  20  23
ATOM     23  C   UNK d   1      35.144  14.491  42.924  0.00  0.00     0.121 A 
ATOM     24  S   UNK d   1      35.099  16.174  42.658  0.00  0.00    -0.064 SA
ATOM     25  C   UNK d   1      35.282  16.184  40.963  0.00  0.00     0.075 A 
ATOM     26  C   UNK d   1      35.375  14.856  40.653  0.00  0.00     0.033 A 
ATOM     27 Cl   UNK d   1      35.345  17.556  39.838  0.00  0.00    -0.076 Cl
ATOM     28  C   UNK d   1      35.304  13.981  41.661  0.00  0.00     0.035 A 
ENDBRANCH  20  23
ENDBRANCH   1  20
TORSDOF 3
ENDMDL
