MODEL 1
REMARK VINA RESULT:    -7.273      0.000      0.000
REMARK INTER + INTRA:          -8.834
REMARK INTER:                  -8.549
REMARK INTRA:                  -0.286
REMARK UNBOUND:                -0.286
REMARK  3 active torsions:
REMARK  status: ('A' for Active; 'I' for Inactive)
REMARK    1  A    between atoms: S_1  and  N_4 
REMARK    2  A    between atoms: S_1  and  C_16 
REMARK       I    between atoms: N_7  and  C_10 
REMARK    3  A    between atoms: C_10  and  C_12 
ROOT
ATOM      1  S   UNK d   1      41.441  10.185  45.538  0.00  0.00     0.262 S 
ATOM      2  O   UNK d   1      40.341   9.728  46.483  0.00  0.00    -0.200 OA
ATOM      3  O   UNK d   1      40.713  11.062  44.521  0.00  0.00    -0.200 OA
ENDROOT
BRANCH   1   4
ATOM      4  N   UNK d   1      42.145   8.891  44.742  0.00  0.00    -0.304 N 
ATOM      5  C   UNK d   1      42.097   7.634  45.349  0.00  0.00     0.155 C 
ATOM      6  C   UNK d   1      42.528   6.500  44.408  0.00  0.00     0.146 C 
ATOM      7  N   UNK d   1      43.621   6.896  43.571  0.00  0.00    -0.349 N 
ATOM      8  C   UNK d   1      43.562   8.200  42.948  0.00  0.00     0.146 C 
ATOM      9  C   UNK d   1      44.709   6.039  43.370  0.00  0.00     0.224 C 
ATOM     10  C   UNK d   1      43.382   9.207  44.067  0.00  0.00     0.155 C 
ATOM     11  O   UNK d   1      44.738   4.910  43.923  0.00  0.00    -0.273 OA
BRANCH   9  12
ATOM     12  C   UNK d   1      45.873   6.409  42.505  0.00  0.00     0.078 C 
ATOM     13  C   UNK d   1      46.905   5.314  42.377  0.00  0.00     0.014 C 
ATOM     14  C   UNK d   1      47.609   5.929  43.585  0.00  0.00     0.002 C 
ATOM     15  C   UNK d   1      46.886   7.237  43.254  0.00  0.00     0.014 C 
ENDBRANCH   9  12
ENDBRANCH   1   4
BRANCH   1  16
ATOM     16  C   UNK d   1      42.518  11.240  46.426  0.00  0.00     0.104 A 
ATOM     17  C   UNK d   1      42.782  12.526  45.912  0.00  0.00     0.066 A 
ATOM     18  C   UNK d   1      43.665  13.379  46.533  0.00  0.00     0.098 A 
ATOM     19  C   UNK d   1      44.341  13.036  47.682  0.00  0.00     0.070 A 
ATOM     20  O   UNK d   1      43.907  14.647  46.004  0.00  0.00    -0.335 OA
ATOM     21  C   UNK d   1      44.087  11.786  48.188  0.00  0.00     0.058 A 
ATOM     22  N   UNK d   1      45.239  13.959  48.270  0.00  0.00    -0.323 N 
ATOM     23  C   UNK d   1      43.189  10.902  47.571  0.00  0.00     0.059 A 
ATOM     24 Cl   UNK d   1      42.863   9.357  48.319  0.00  0.00    -0.083 Cl
ATOM     25  C   UNK d   1      45.478  15.247  47.716  0.00  0.00     0.251 C 
ATOM     26  H   UNK d   1      45.750  13.693  49.144  0.00  0.00     0.169 HD
ATOM     27  O   UNK d   1      46.043  16.186  48.309  0.00  0.00    -0.270 OA
ATOM     28  C   UNK d   1      45.006  15.457  46.322  0.00  0.00     0.217 C 
ATOM     29  C   UNK d   1      46.111  15.166  45.332  0.00  0.00     0.050 C 
ENDBRANCH   1  16
TORSDOF 3
ENDMDL
