/Users/jonathanwahrer/Desktop/Msc/3_Semester/Drug_Design_Praktikum/waehrer_HTS_screening/HTS_experiment/out/docking_results/vina_output/2qfa/2012_docked.pdbqt
 OpenBabel03162221153D

 25 28  0  0  1  0  0  0  0  0999 V2000
   42.0310    9.6570   44.1020 N   0  0  0  0  0  0  0  0  0  0  0  0
   41.6280   10.6340   43.1490 C   0  0  0  0  0  0  0  0  0  0  0  0
   41.7080   10.4890   41.9180 O   0  0  0  0  0  0  0  0  0  0  0  0
   41.1140   11.8180   43.8560 C   0  0  1  0  0  3  0  0  0  0  0  0
   40.0730   12.4920   43.3040 O   0  0  0  0  0  0  0  0  0  0  0  0
   39.3540   12.8960   44.4140 N   0  0  0  0  0  0  0  0  0  0  0  0
   39.3870   11.8370   45.3730 C   0  0  0  0  0  0  0  0  0  0  0  0
   40.4740   11.1510   45.0380 C   0  0  0  0  0  0  0  0  0  0  0  0
   41.2980    9.9840   45.3120 C   0  0  0  0  0  0  0  0  0  0  0  0
   41.3310    9.3990   46.4250 O   0  0  0  0  0  0  0  0  0  0  0  0
   38.8950   13.8180   44.4970 H   0  0  0  0  0  0  0  0  0  0  0  0
   42.9270    8.5570   43.9960 C   0  0  0  0  0  0  0  0  0  0  0  0
   44.2390    8.7140   43.6120 C   0  0  0  0  0  3  0  0  0  0  0  0
   45.0430    7.5800   43.5390 C   0  0  0  0  0  0  0  0  0  0  0  0
   46.7290    7.7140   43.0490 Cl  0  0  0  0  0  0  0  0  0  0  0  0
   44.5270    6.3380   43.8430 C   0  0  0  0  0  3  0  0  0  0  0  0
   43.2070    6.1820   44.2320 C   0  0  0  0  0  3  0  0  0  0  0  0
   42.4140    7.2880   44.3060 C   0  0  0  0  0  3  0  0  0  0  0  0
   38.4890   11.5900   46.4850 C   0  0  0  0  0  0  0  0  0  0  0  0
   38.8620   11.8590   47.8050 C   0  0  0  0  0  3  0  0  0  0  0  0
   37.8590   11.5300   48.6320 N   0  0  0  0  0  0  0  0  0  0  0  0
   36.8550   11.0570   47.8920 N   0  0  0  0  0  0  0  0  0  0  0  0
   37.7950   11.6330   50.0860 C   0  0  0  0  0  1  0  0  0  0  0  0
   37.2250   11.0880   46.5910 C   0  0  0  0  0  0  0  0  0  0  0  0
   36.3960   10.6300   45.4470 C   0  0  0  0  0  1  0  0  0  0  0  0
  1  9  1  0  0  0  0
  2  1  1  0  0  0  0
  3  2  2  0  0  0  0
  4  2  1  6  0  0  0
  4  8  1  0  0  0  0
  5  4  1  0  0  0  0
  5  6  1  0  0  0  0
  6 11  1  0  0  0  0
  6  7  1  0  0  0  0
  7 19  1  0  0  0  0
  8  9  1  0  0  0  0
  8  7  2  0  0  0  0
  9 10  2  0  0  0  0
 12  1  1  0  0  0  0
 12 18  1  0  0  0  0
 13 12  2  0  0  0  0
 14 13  1  0  0  0  0
 14 16  2  0  0  0  0
 15 14  1  0  0  0  0
 16 17  1  0  0  0  0
 17 18  2  0  0  0  0
 19 24  1  0  0  0  0
 19 20  2  0  0  0  0
 20 21  1  0  0  0  0
 21 23  1  0  0  0  0
 22 21  1  0  0  0  0
 24 22  2  0  0  0  0
 25 24  1  0  0  0  0
M  END
>  <Pose>
1

>  <Score>
-6.489

$$$$
