MODEL 1
REMARK VINA RESULT:    -6.489      0.000      0.000
REMARK INTER + INTRA:          -7.828
REMARK INTER:                  -7.248
REMARK INTRA:                  -0.580
REMARK UNBOUND:                -0.580
REMARK  2 active torsions:
REMARK  status: ('A' for Active; 'I' for Inactive)
REMARK    1  A    between atoms: C_4  and  N_8 
REMARK    2  A    between atoms: C_14  and  C_18 
ROOT
ATOM      1  N   UNK d   1      42.031   9.657  44.102  0.00  0.00    -0.246 N 
ATOM      2  C   UNK d   1      41.628  10.634  43.149  0.00  0.00     0.268 C 
ATOM      3  O   UNK d   1      41.708  10.489  41.918  0.00  0.00    -0.269 OA
ATOM      4  C   UNK d   1      41.114  11.818  43.856  0.00  0.00     0.285 C 
ATOM      5  O   UNK d   1      40.073  12.492  43.304  0.00  0.00    -0.260 OA
ATOM      6  N   UNK d   1      39.354  12.896  44.414  0.00  0.00    -0.264 N 
ATOM      7  C   UNK d   1      39.387  11.837  45.373  0.00  0.00     0.083 C 
ATOM      8  C   UNK d   1      40.474  11.151  45.038  0.00  0.00     0.080 C 
ATOM      9  C   UNK d   1      41.298   9.984  45.312  0.00  0.00     0.266 C 
ATOM     10  O   UNK d   1      41.331   9.399  46.425  0.00  0.00    -0.267 OA
ATOM     11  H   UNK d   1      38.895  13.818  44.497  0.00  0.00     0.194 HD
ENDROOT
BRANCH   1  12
ATOM     12  C   UNK d   1      42.927   8.557  43.996  0.00  0.00     0.047 A 
ATOM     13  C   UNK d   1      44.239   8.714  43.612  0.00  0.00     0.054 A 
ATOM     14  C   UNK d   1      45.043   7.580  43.539  0.00  0.00     0.036 A 
ATOM     15 Cl   UNK d   1      46.729   7.714  43.049  0.00  0.00    -0.084 Cl
ATOM     16  C   UNK d   1      44.527   6.338  43.843  0.00  0.00     0.024 A 
ATOM     17  C   UNK d   1      43.207   6.182  44.232  0.00  0.00     0.004 A 
ATOM     18  C   UNK d   1      42.414   7.288  44.306  0.00  0.00     0.030 A 
ENDBRANCH   1  12
BRANCH   7  19
ATOM     19  C   UNK d   1      38.489  11.590  46.485  0.00  0.00     0.036 A 
ATOM     20  C   UNK d   1      38.862  11.859  47.805  0.00  0.00     0.127 A 
ATOM     21  N   UNK d   1      37.859  11.530  48.632  0.00  0.00    -0.284 N 
ATOM     22  N   UNK d   1      36.855  11.057  47.892  0.00  0.00    -0.177 NA
ATOM     23  C   UNK d   1      37.795  11.633  50.086  0.00  0.00     0.179 C 
ATOM     24  C   UNK d   1      37.225  11.088  46.591  0.00  0.00     0.065 A 
ATOM     25  C   UNK d   1      36.396  10.630  45.447  0.00  0.00     0.073 C 
ENDBRANCH   7  19
TORSDOF 2
ENDMDL
