MODEL 1
REMARK VINA RESULT:    -6.395      0.000      0.000
REMARK INTER + INTRA:          -7.797
REMARK INTER:                  -7.142
REMARK INTRA:                  -0.655
REMARK UNBOUND:                -0.655
REMARK  2 active torsions:
REMARK  status: ('A' for Active; 'I' for Inactive)
REMARK    1  A    between atoms: C_4  and  C_10 
REMARK    2  A    between atoms: C_5  and  O_8 
ROOT
ATOM      1  C   UNK d   1      41.990  10.464  46.158  0.00  0.00     0.188 A 
ATOM      2  N   UNK d   1      42.488  11.614  46.603  0.00  0.00    -0.107 N 
ATOM      3  C   UNK d   1      41.937  11.922  47.814  0.00  0.00     0.735 A 
ATOM      4  N   UNK d   1      41.087  10.905  48.084  0.00  0.00     0.045 NA
ATOM      5  N   UNK d   1      41.107  10.034  47.113  0.00  0.00    -0.114 NA
ATOM      6  N   UNK d   1      42.432  13.080  48.278  0.00  0.00    -0.174 N 
ATOM      7  C   UNK d   1      43.308  13.556  47.401  0.00  0.00     0.165 A 
ATOM      8  C   UNK d   1      43.347  12.632  46.343  0.00  0.00     0.170 A 
ATOM      9  N   UNK d   1      44.165  12.850  45.306  0.00  0.00    -0.286 N 
ATOM     10  C   UNK d   1      44.931  13.974  45.322  0.00  0.00     0.332 A 
ATOM     11  O   UNK d   1      45.697  14.156  44.325  0.00  0.00    -0.246 OA
ATOM     12  N   UNK d   1      44.930  14.880  46.297  0.00  0.00    -0.269 N 
ATOM     13  C   UNK d   1      44.118  14.665  47.333  0.00  0.00     0.282 A 
ATOM     14  O   UNK d   1      44.078  15.490  48.282  0.00  0.00    -0.265 OA
ATOM     15  C   UNK d   1      45.792  16.074  46.237  0.00  0.00     0.164 C 
ATOM     16  C   UNK d   1      44.282  11.931  44.212  0.00  0.00     0.163 C 
ATOM     17  C   UNK d   1      42.085  13.727  49.527  0.00  0.00     0.176 C 
ENDROOT
BRANCH   1  18
ATOM     18  C   UNK d   1      42.223   9.676  44.952  0.00  0.00     0.047 A 
ATOM     19  C   UNK d   1      43.157   8.644  44.948  0.00  0.00     0.037 A 
ATOM     20  C   UNK d   1      43.311   7.864  43.835  0.00  0.00     0.012 A 
ATOM     21 Br   UNK d   1      44.594   6.438  43.813  0.00  0.00    -0.051 Br
ATOM     22  C   UNK d   1      42.575   8.042  42.678  0.00  0.00     0.022 A 
ATOM     23  C   UNK d   1      41.649   9.072  42.695  0.00  0.00     0.039 A 
ATOM     24  C   UNK d   1      41.487   9.856  43.800  0.00  0.00     0.082 A 
BRANCH  24  25
ATOM     25  O   UNK d   1      40.546  10.909  43.831  0.00  0.00    -0.355 OA
ATOM     26  C   UNK d   1      40.764  12.099  43.095  0.00  0.00     0.210 C 
ENDBRANCH  24  25
ENDBRANCH   1  18
TORSDOF 2
ENDMDL
