MODEL 1
REMARK VINA RESULT:    -7.058      0.000      0.000
REMARK INTER + INTRA:          -8.176
REMARK INTER:                  -7.883
REMARK INTRA:                  -0.292
REMARK UNBOUND:                -0.292
REMARK  2 active torsions:
REMARK  status: ('A' for Active; 'I' for Inactive)
REMARK    1  A    between atoms: C_7  and  C_11 
REMARK    2  A    between atoms: C_11  and  N_12 
ROOT
ATOM      1 Cl   UNK d   1      51.093   1.741  44.930  0.00  0.00    -0.083 Cl
ATOM      2  C   UNK d   1      50.070   3.159  44.774  0.00  0.00     0.050 A 
ATOM      3  C   UNK d   1      49.157   3.303  43.746  0.00  0.00     0.125 A 
ATOM      4  N   UNK d   1      48.370   4.405  43.634  0.00  0.00    -0.272 N 
ATOM      5  C   UNK d   1      48.424   5.423  44.509  0.00  0.00     0.137 A 
ATOM      6  N   UNK d   1      47.649   6.519  44.407  0.00  0.00    -0.233 NA
ATOM      7  C   UNK d   1      46.759   6.667  43.410  0.00  0.00     0.059 A 
ATOM      8  C   UNK d   1      46.694   5.614  42.496  0.00  0.00     0.103 A 
ATOM      9  C   UNK d   1      47.494   4.497  42.611  0.00  0.00     0.255 A 
ATOM     10  O   UNK d   1      47.431   3.539  41.775  0.00  0.00    -0.268 OA
ATOM     11  C   UNK d   1      49.333   5.305  45.553  0.00  0.00     0.053 A 
ATOM     12  C   UNK d   1      50.142   4.193  45.683  0.00  0.00     0.029 A 
ENDROOT
BRANCH   7  13
ATOM     13  C   UNK d   1      45.881   7.857  43.255  0.00  0.00     0.177 C 
BRANCH  13  14
ATOM     14  N   UNK d   1      44.567   7.525  43.664  0.00  0.00    -0.401 N 
ATOM     15  C   UNK d   1      43.603   7.279  42.659  0.00  0.00     0.122 C 
ATOM     16  C   UNK d   1      42.176   7.611  43.064  0.00  0.00     0.061 C 
ATOM     17  C   UNK d   1      42.223   8.983  43.636  0.00  0.00    -0.013 A 
ATOM     18  C   UNK d   1      43.215   9.211  44.566  0.00  0.00     0.061 A 
ATOM     19  C   UNK d   1      41.322   9.946  43.242  0.00  0.00     0.128 A 
ATOM     20  N   UNK d   1      43.299  10.435  45.110  0.00  0.00    -0.236 NA
ATOM     21  C   UNK d   1      44.115   8.079  44.895  0.00  0.00     0.177 C 
ATOM     22  C   UNK d   1      42.420  11.418  44.744  0.00  0.00     0.122 A 
ATOM     23  N   UNK d   1      41.459  11.157  43.826  0.00  0.00    -0.245 NA
ATOM     24  C   UNK d   1      42.503  12.777  45.338  0.00  0.00     0.093 C 
ENDBRANCH  13  14
ENDBRANCH   7  13
TORSDOF 2
ENDMDL
