/Users/jonathanwahrer/Desktop/Msc/3_Semester/Drug_Design_Praktikum/waehrer_HTS_screening/HTS_experiment/out/docking_results/vina_output/2qfa/2017_docked.pdbqt
 OpenBabel03162221153D

 24 27  0  0  0  0  0  0  0  0999 V2000
   51.0930    1.7410   44.9300 Cl  0  0  0  0  0  0  0  0  0  0  0  0
   50.0700    3.1590   44.7740 C   0  0  0  0  0  0  0  0  0  0  0  0
   49.1570    3.3030   43.7460 C   0  0  0  0  0  2  0  0  0  0  0  0
   48.3700    4.4050   43.6340 N   0  0  0  0  0  0  0  0  0  0  0  0
   48.4240    5.4230   44.5090 C   0  0  0  0  0  0  0  0  0  0  0  0
   47.6490    6.5190   44.4070 N   0  0  0  0  0  0  0  0  0  0  0  0
   46.7590    6.6670   43.4100 C   0  0  0  0  0  0  0  0  0  0  0  0
   46.6940    5.6140   42.4960 C   0  0  0  0  0  2  0  0  0  0  0  0
   47.4940    4.4970   42.6110 C   0  0  0  0  0  0  0  0  0  0  0  0
   47.4310    3.5390   41.7750 O   0  0  0  0  0  0  0  0  0  0  0  0
   49.3330    5.3050   45.5530 C   0  0  0  0  0  3  0  0  0  0  0  0
   50.1420    4.1930   45.6830 C   0  0  0  0  0  3  0  0  0  0  0  0
   45.8810    7.8570   43.2550 C   0  0  0  0  0  2  0  0  0  0  0  0
   44.5670    7.5250   43.6640 N   0  0  0  0  0  0  0  0  0  0  0  0
   43.6030    7.2790   42.6590 C   0  0  0  0  0  2  0  0  0  0  0  0
   42.1760    7.6110   43.0640 C   0  0  0  0  0  2  0  0  0  0  0  0
   42.2230    8.9830   43.6360 C   0  0  0  0  0  0  0  0  0  0  0  0
   43.2150    9.2110   44.5660 C   0  0  0  0  0  0  0  0  0  0  0  0
   41.3220    9.9460   43.2420 C   0  0  0  0  0  3  0  0  0  0  0  0
   43.2990   10.4350   45.1100 N   0  0  0  0  0  0  0  0  0  0  0  0
   44.1150    8.0790   44.8950 C   0  0  0  0  0  2  0  0  0  0  0  0
   42.4200   11.4180   44.7440 C   0  0  0  0  0  0  0  0  0  0  0  0
   41.4590   11.1570   43.8260 N   0  0  0  0  0  0  0  0  0  0  0  0
   42.5030   12.7770   45.3380 C   0  0  0  0  0  1  0  0  0  0  0  0
  2  1  1  0  0  0  0
  2 12  2  0  0  0  0
  3  2  1  0  0  0  0
  4  3  1  0  0  0  0
  4  5  1  0  0  0  0
  5 11  2  0  0  0  0
  6  5  1  0  0  0  0
  7  6  2  0  0  0  0
  8  9  1  0  0  0  0
  8  7  1  0  0  0  0
  9  4  1  0  0  0  0
 10  9  2  0  0  0  0
 11 12  1  0  0  0  0
 13  7  1  0  0  0  0
 13 14  1  0  0  0  0
 14 21  1  0  0  0  0
 15 16  1  0  0  0  0
 15 14  1  0  0  0  0
 16 17  1  0  0  0  0
 17 18  2  0  0  0  0
 18 21  1  0  0  0  0
 18 20  1  0  0  0  0
 19 17  1  0  0  0  0
 19 23  2  0  0  0  0
 22 20  2  0  0  0  0
 22 24  1  0  0  0  0
 23 22  1  0  0  0  0
M  END
>  <Pose>
1

>  <Score>
-7.058

$$$$
