MODEL 1
REMARK VINA RESULT:    -5.834      0.000      0.000
REMARK INTER + INTRA:          -4.845
REMARK INTER:                  -6.516
REMARK INTRA:                   1.671
REMARK UNBOUND:                 1.671
REMARK  2 active torsions:
REMARK  status: ('A' for Active; 'I' for Inactive)
REMARK    1  A    between atoms: C_4  and  C_10 
REMARK    2  A    between atoms: C_5  and  O_8 
ROOT
ATOM      1  C   UNK d   1      42.703  10.144  46.040  0.00  0.00     0.048 C 
ATOM      2  C   UNK d   1      42.880   9.131  47.204  0.00  0.00     0.178 C 
ATOM      3  C   UNK d   1      41.782   8.137  46.778  0.00  0.00     0.233 C 
ATOM      4  O   UNK d   1      41.946   6.932  46.714  0.00  0.00    -0.273 OA
ATOM      5  N   UNK d   1      40.554   8.837  46.472  0.00  0.00    -0.334 N 
ATOM      6  C   UNK d   1      40.477  10.191  47.050  0.00  0.00     0.105 C 
ATOM      7  N   UNK d   1      40.923   9.990  48.436  0.00  0.00    -0.334 N 
ATOM      8  C   UNK d   1      42.320   9.641  48.494  0.00  0.00     0.233 C 
ATOM      9  O   UNK d   1      43.015   9.747  49.521  0.00  0.00    -0.273 OA
ATOM     10  C   UNK d   1      41.614  11.012  46.382  0.00  0.00     0.064 C 
ATOM     11  C   UNK d   1      39.178  10.859  46.935  0.00  0.00     0.063 C 
ATOM     12  H   UNK d   1      39.805   8.449  45.893  0.00  0.00     0.165 HD
ATOM     13  H   UNK d   1      40.302  10.085  49.247  0.00  0.00     0.165 HD
ENDROOT
BRANCH   1  14
ATOM     14  C   UNK d   1      42.699   9.283  44.863  0.00  0.00    -0.018 A 
ATOM     15  C   UNK d   1      43.674   8.279  44.811  0.00  0.00     0.029 A 
ATOM     16  C   UNK d   1      43.811   7.460  43.688  0.00  0.00     0.011 A 
ATOM     17 Br   UNK d   1      45.154   6.114  43.650  0.00  0.00    -0.051 Br
ATOM     18  C   UNK d   1      43.004   7.605  42.606  0.00  0.00     0.022 A 
ATOM     19  C   UNK d   1      42.048   8.582  42.639  0.00  0.00     0.038 A 
ATOM     20  C   UNK d   1      41.896   9.403  43.743  0.00  0.00     0.074 A 
BRANCH  20  21
ATOM     21  O   UNK d   1      40.943  10.380  43.812  0.00  0.00    -0.355 OA
ATOM     22  C   UNK d   1      40.978  11.456  42.915  0.00  0.00     0.210 C 
ENDBRANCH  20  21
ENDBRANCH   1  14
TORSDOF 2
ENDMDL
