/Users/jonathanwahrer/Desktop/Msc/3_Semester/Drug_Design_Praktikum/waehrer_HTS_screening/HTS_experiment/out/docking_results/vina_output/2qfa/2020_docked.pdbqt
 OpenBabel03162221153D

 22 24  0  0  1  0  0  0  0  0999 V2000
   42.7030   10.1440   46.0400 C   0  0  2  0  0  3  0  0  0  0  0  0
   42.8800    9.1310   47.2040 C   0  0  2  0  0  3  0  0  0  0  0  0
   41.7820    8.1370   46.7780 C   0  0  0  0  0  0  0  0  0  0  0  0
   41.9460    6.9320   46.7140 O   0  0  0  0  0  0  0  0  0  0  0  0
   40.5540    8.8370   46.4720 N   0  0  0  0  0  0  0  0  0  0  0  0
   40.4770   10.1910   47.0500 C   0  0  1  0  0  0  0  0  0  0  0  0
   40.9230    9.9900   48.4360 N   0  0  0  0  0  0  0  0  0  0  0  0
   42.3200    9.6410   48.4940 C   0  0  0  0  0  0  0  0  0  0  0  0
   43.0150    9.7470   49.5210 O   0  0  0  0  0  0  0  0  0  0  0  0
   41.6140   11.0120   46.3820 C   0  0  0  0  0  2  0  0  0  0  0  0
   39.1780   10.8590   46.9350 C   0  0  0  0  0  1  0  0  0  0  0  0
   39.8050    8.4490   45.8930 H   0  0  0  0  0  0  0  0  0  0  0  0
   40.3020   10.0850   49.2470 H   0  0  0  0  0  0  0  0  0  0  0  0
   42.6990    9.2830   44.8630 C   0  0  0  0  0  0  0  0  0  0  0  0
   43.6740    8.2790   44.8110 C   0  0  0  0  0  3  0  0  0  0  0  0
   43.8110    7.4600   43.6880 C   0  0  0  0  0  0  0  0  0  0  0  0
   45.1540    6.1140   43.6500 Br  0  0  0  0  0  0  0  0  0  0  0  0
   43.0040    7.6050   42.6060 C   0  0  0  0  0  3  0  0  0  0  0  0
   42.0480    8.5820   42.6390 C   0  0  0  0  0  3  0  0  0  0  0  0
   41.8960    9.4030   43.7430 C   0  0  0  0  0  0  0  0  0  0  0  0
   40.9430   10.3800   43.8120 O   0  0  0  0  0  0  0  0  0  0  0  0
   40.9780   11.4560   42.9150 C   0  0  0  0  0  1  0  0  0  0  0  0
  1 14  1  6  0  0  0
  1 10  1  0  0  0  0
  1  2  1  0  0  0  0
  2  3  1  6  0  0  0
  2  8  1  0  0  0  0
  4  3  2  0  0  0  0
  5  3  1  0  0  0  0
  5  6  1  0  0  0  0
  6 11  1  6  0  0  0
  6  7  1  0  0  0  0
  7  8  1  0  0  0  0
  7 13  1  0  0  0  0
  8  9  2  0  0  0  0
 10  6  1  0  0  0  0
 12  5  1  0  0  0  0
 15 14  1  0  0  0  0
 16 15  2  0  0  0  0
 17 16  1  0  0  0  0
 18 19  2  0  0  0  0
 18 16  1  0  0  0  0
 19 20  1  0  0  0  0
 20 21  1  0  0  0  0
 20 14  2  0  0  0  0
 22 21  1  0  0  0  0
M  END
>  <Pose>
1

>  <Score>
-5.834

$$$$
