MODEL 1
REMARK VINA RESULT:    -6.443      0.000      0.000
REMARK INTER + INTRA:          -8.539
REMARK INTER:                  -8.138
REMARK INTRA:                  -0.401
REMARK UNBOUND:                -0.401
REMARK  5 active torsions:
REMARK  status: ('A' for Active; 'I' for Inactive)
REMARK    1  A    between atoms: C_11  and  C_23 
REMARK    2  A    between atoms: N_16  and  C_19 
REMARK    3  A    between atoms: C_19  and  C_20 
REMARK    4  A    between atoms: C_20  and  O_21 
REMARK    5  A    between atoms: C_23  and  O_24 
ROOT
ATOM      1 Cl   UNK d   1      37.790   9.263  50.013  0.00  0.00    -0.082 Cl
ATOM      2  C   UNK d   1      38.302   9.991  48.493  0.00  0.00     0.061 A 
ATOM      3  C   UNK d   1      39.664   9.916  48.149  0.00  0.00     0.066 A 
ATOM      4  C   UNK d   1      40.056  10.476  46.970  0.00  0.00     0.020 A 
ATOM      5  C   UNK d   1      39.156  11.111  46.125  0.00  0.00     0.019 A 
ATOM      6  C   UNK d   1      37.830  11.170  46.489  0.00  0.00    -0.060 A 
ATOM      7  C   UNK d   1      37.391  10.614  47.669  0.00  0.00     0.033 A 
ATOM      8  C   UNK d   1      36.876  11.865  45.554  0.00  0.00     0.048 C 
ATOM      9  C   UNK d   1      41.503  10.148  46.787  0.00  0.00     0.279 C 
ATOM     10  N   UNK d   1      42.278  11.166  46.197  0.00  0.00     0.116 N 
ATOM     11  C   UNK d   1      42.210  10.968  44.777  0.00  0.00     0.264 C 
ATOM     12  C   UNK d   1      41.584   9.663  44.497  0.00  0.00     0.130 C 
ATOM     13  C   UNK d   1      41.673   8.981  45.865  0.00  0.00     0.147 C 
ATOM     14  C   UNK d   1      43.026   8.458  45.824  0.00  0.00     0.235 C 
ATOM     15  O   UNK d   1      43.932   8.347  46.679  0.00  0.00    -0.272 OA
ATOM     16  N   UNK d   1      43.210   8.017  44.453  0.00  0.00    -0.286 N 
ATOM     17  C   UNK d   1      42.303   8.736  43.631  0.00  0.00     0.233 C 
ATOM     18  O   UNK d   1      42.170   8.582  42.409  0.00  0.00    -0.272 OA
ATOM     19  C   UNK d   1      41.928   9.741  48.124  0.00  0.00     0.267 C 
ATOM     20  O   UNK d   1      43.085   9.634  48.639  0.00  0.00    -0.270 OA
ATOM     21  N   UNK d   1      40.783   9.442  48.888  0.00  0.00    -0.323 N 
ATOM     22  H   UNK d   1      41.967  12.130  46.467  0.00  0.00     0.318 HD
ATOM     23  H   UNK d   1      40.704   8.968  49.823  0.00  0.00     0.169 HD
ENDROOT
BRANCH  11  24
ATOM     24  C   UNK d   1      43.545  11.215  44.099  0.00  0.00     0.148 C 
ATOM     25  C   UNK d   1      44.258  12.323  44.802  0.00  0.00     0.041 C 
BRANCH  24  26
ATOM     26  O   UNK d   1      43.500  11.290  42.739  0.00  0.00    -0.394 OA
ATOM     27  H   UNK d   1      43.593  12.206  42.372  0.00  0.00     0.210 HD
ENDBRANCH  24  26
ENDBRANCH  11  24
BRANCH  16  28
ATOM     28  C   UNK d   1      44.124   7.023  43.957  0.00  0.00     0.161 C 
BRANCH  28  29
ATOM     29  C   UNK d   1      45.331   7.543  43.269  0.00  0.00     0.187 C 
BRANCH  29  30
ATOM     30  O   UNK d   1      45.792   6.858  42.186  0.00  0.00    -0.394 OA
ATOM     31  C   UNK d   1      46.133   5.542  42.423  0.00  0.00     0.201 C 
ENDBRANCH  29  30
ENDBRANCH  28  29
ENDBRANCH  16  28
TORSDOF 5
ENDMDL
