MODEL 1
REMARK VINA RESULT:    -6.522      0.000      0.000
REMARK INTER + INTRA:          -9.743
REMARK INTER:                  -8.429
REMARK INTRA:                  -1.315
REMARK UNBOUND:                -1.315
REMARK  5 active torsions:
REMARK  status: ('A' for Active; 'I' for Inactive)
REMARK    1  A    between atoms: C_4  and  C_10 
REMARK    2  A    between atoms: C_5  and  O_8 
REMARK    3  A    between atoms: C_18  and  C_19 
REMARK    4  A    between atoms: C_19  and  N_20 
REMARK    5  A    between atoms: N_23  and  C_26 
ROOT
ATOM      1  C   UNK d   1      44.080  11.485  43.863  0.00  0.00     0.055 C 
ATOM      2  C   UNK d   1      43.888  12.215  44.915  0.00  0.00     0.128 A 
ATOM      3  O   UNK d   1      43.035  11.950  45.949  0.00  0.00    -0.305 OA
ATOM      4  C   UNK d   1      43.127  12.974  46.889  0.00  0.00     0.101 A 
ATOM      5  C   UNK d   1      44.016  13.932  46.518  0.00  0.00     0.051 A 
ATOM      6  C   UNK d   1      44.269  15.040  47.334  0.00  0.00     0.021 A 
ATOM      7  C   UNK d   1      43.638  15.220  48.537  0.00  0.00     0.041 A 
ATOM      8  C   UNK d   1      42.724  14.206  48.874  0.00  0.00     0.118 A 
ATOM      9  C   UNK d   1      42.461  13.120  48.111  0.00  0.00     0.039 A 
ATOM     10  O   UNK d   1      42.089  14.446  50.111  0.00  0.00    -0.191 OA
ATOM     11  C   UNK d   1      44.547  13.485  45.225  0.00  0.00     0.218 A 
ATOM     12  O   UNK d   1      45.410  14.085  44.521  0.00  0.00    -0.284 OA
ENDROOT
BRANCH   1  13
ATOM     13  C   UNK d   1      43.434  10.220  43.544  0.00  0.00     0.001 A 
ATOM     14  C   UNK d   1      44.030   9.034  43.885  0.00  0.00     0.033 A 
ATOM     15  C   UNK d   1      43.431   7.808  43.545  0.00  0.00     0.011 A 
ATOM     16 Br   UNK d   1      44.219   6.144  44.006  0.00  0.00    -0.051 Br
ATOM     17  C   UNK d   1      42.236   7.808  42.861  0.00  0.00     0.022 A 
ATOM     18  C   UNK d   1      41.647   8.982  42.520  0.00  0.00     0.039 A 
ATOM     19  C   UNK d   1      42.241  10.207  42.859  0.00  0.00     0.078 A 
BRANCH  19  20
ATOM     20  O   UNK d   1      41.704  11.407  42.546  0.00  0.00    -0.355 OA
ATOM     21  C   UNK d   1      40.621  12.031  43.145  0.00  0.00     0.210 C 
ENDBRANCH  19  20
ENDBRANCH   1  13
BRANCH   9  22
ATOM     22  C   UNK d   1      41.465  12.082  48.438  0.00  0.00     0.279 C 
BRANCH  22  23
ATOM     23  N   UNK d   1      40.421  12.016  47.444  0.00  0.00    -0.064 N 
ATOM     24  C   UNK d   1      39.521  13.142  47.620  0.00  0.00     0.254 C 
ATOM     25  C   UNK d   1      38.097  12.836  47.422  0.00  0.00     0.144 C 
ATOM     26  N   UNK d   1      37.796  11.802  46.484  0.00  0.00    -0.410 N 
ATOM     27  C   UNK d   1      38.849  11.039  45.987  0.00  0.00     0.144 C 
ATOM     28  C   UNK d   1      39.888  10.785  47.111  0.00  0.00     0.254 C 
ATOM     29  H   UNK d   1      40.995  12.319  46.530  0.00  0.00     0.280 HD
BRANCH  26  30
ATOM     30  C   UNK d   1      36.523  11.197  46.588  0.00  0.00     0.112 C 
ATOM     31  C   UNK d   1      35.869  10.848  45.297  0.00  0.00     0.026 C 
ENDBRANCH  26  30
ENDBRANCH  22  23
ENDBRANCH   9  22
TORSDOF 5
ENDMDL
