/Users/jonathanwahrer/Desktop/Msc/3_Semester/Drug_Design_Praktikum/waehrer_HTS_screening/HTS_experiment/out/docking_results/vina_output/2qfa/2032_docked.pdbqt
 OpenBabel03162221163D

 31 34  0  0  0  0  0  0  0  0999 V2000
   44.0800   11.4850   43.8630 C   0  0  0  0  0  3  0  0  0  0  0  0
   43.8880   12.2150   44.9150 C   0  0  0  0  0  0  0  0  0  0  0  0
   43.0350   11.9500   45.9490 O   0  0  0  0  0  0  0  0  0  0  0  0
   43.1270   12.9740   46.8890 C   0  0  0  0  0  0  0  0  0  0  0  0
   44.0160   13.9320   46.5180 C   0  0  0  0  0  0  0  0  0  0  0  0
   44.2690   15.0400   47.3340 C   0  0  0  0  0  3  0  0  0  0  0  0
   43.6380   15.2200   48.5370 C   0  0  0  0  0  3  0  0  0  0  0  0
   42.7240   14.2060   48.8740 C   0  0  0  0  0  0  0  0  0  0  0  0
   42.4610   13.1200   48.1110 C   0  0  0  0  0  0  0  0  0  0  0  0
   42.0890   14.4460   50.1110 O   0  0  0  0  0  1  0  0  0  0  0  0
   44.5470   13.4850   45.2250 C   0  0  0  0  0  0  0  0  0  0  0  0
   45.4100   14.0850   44.5210 O   0  0  0  0  0  0  0  0  0  0  0  0
   43.4340   10.2200   43.5440 C   0  0  0  0  0  0  0  0  0  0  0  0
   44.0300    9.0340   43.8850 C   0  0  0  0  0  3  0  0  0  0  0  0
   43.4310    7.8080   43.5450 C   0  0  0  0  0  0  0  0  0  0  0  0
   44.2190    6.1440   44.0060 Br  0  0  0  0  0  0  0  0  0  0  0  0
   42.2360    7.8080   42.8610 C   0  0  0  0  0  3  0  0  0  0  0  0
   41.6470    8.9820   42.5200 C   0  0  0  0  0  3  0  0  0  0  0  0
   42.2410   10.2070   42.8590 C   0  0  0  0  0  0  0  0  0  0  0  0
   41.7040   11.4070   42.5460 O   0  0  0  0  0  0  0  0  0  0  0  0
   40.6210   12.0310   43.1450 C   0  0  0  0  0  1  0  0  0  0  0  0
   41.4650   12.0820   48.4380 C   0  0  0  0  0  2  0  0  0  0  0  0
   40.4210   12.0160   47.4440 N   0  0  0  0  0  4  0  0  0  0  0  0
   39.5210   13.1420   47.6200 C   0  0  0  0  0  2  0  0  0  0  0  0
   38.0970   12.8360   47.4220 C   0  0  0  0  0  2  0  0  0  0  0  0
   37.7960   11.8020   46.4840 N   0  0  0  0  0  0  0  0  0  0  0  0
   38.8490   11.0390   45.9870 C   0  0  0  0  0  2  0  0  0  0  0  0
   39.8880   10.7850   47.1110 C   0  0  0  0  0  2  0  0  0  0  0  0
   40.9950   12.3190   46.5300 H   0  0  0  0  0  0  0  0  0  0  0  0
   36.5230   11.1970   46.5880 C   0  0  0  0  0  2  0  0  0  0  0  0
   35.8690   10.8480   45.2970 C   0  0  0  0  0  1  0  0  0  0  0  0
  1  2  2  0  0  0  0
  2 11  1  0  0  0  0
  2  3  1  0  0  0  0
  3  4  1  0  0  0  0
  4  9  1  0  0  0  0
  5  4  2  0  0  0  0
  5  6  1  0  0  0  0
  6  7  2  0  0  0  0
  7  8  1  0  0  0  0
  8 10  1  0  0  0  0
  9 22  1  0  0  0  0
  9  8  2  0  0  0  0
 11  5  1  0  0  0  0
 12 11  2  0  0  0  0
 13  1  1  0  0  0  0
 13 14  1  0  0  0  0
 15 14  2  0  0  0  0
 15 16  1  0  0  0  0
 17 15  1  0  0  0  0
 18 19  1  0  0  0  0
 18 17  2  0  0  0  0
 19 13  2  0  0  0  0
 20 19  1  0  0  0  0
 20 21  1  0  0  0  0
 23 24  1  0  0  0  0
 23 22  1  0  0  0  0
 25 24  1  0  0  0  0
 26 30  1  0  0  0  0
 26 25  1  0  0  0  0
 27 26  1  0  0  0  0
 27 28  1  0  0  0  0
 28 23  1  0  0  0  0
 29 23  1  0  0  0  0
 31 30  1  0  0  0  0
M  END
>  <Pose>
1

>  <Score>
-6.522

$$$$
