/Users/jonathanwahrer/Desktop/Msc/3_Semester/Drug_Design_Praktikum/waehrer_HTS_screening/HTS_experiment/out/docking_results/vina_output/2qfa/2043_docked.pdbqt
 OpenBabel03162221173D

 32 35  0  0  0  0  0  0  0  0999 V2000
   41.6180    9.4470   44.6850 N   0  0  0  0  0  0  0  0  0  0  0  0
   41.8810   10.3750   43.6120 C   0  0  0  0  0  2  0  0  0  0  0  0
   41.2440   11.7120   43.9840 C   0  0  0  0  0  2  0  0  0  0  0  0
   41.4690   11.9790   45.3550 N   0  0  0  0  0  0  0  0  0  0  0  0
   40.5650   11.0970   46.2180 C   0  0  0  0  0  2  0  0  0  0  0  0
   40.5350    9.7770   45.5340 C   0  0  0  0  0  2  0  0  0  0  0  0
   42.3440   12.8030   46.0010 C   0  0  0  0  0  0  0  0  0  0  0  0
   42.0440   12.8300   47.3450 O   0  0  0  0  0  0  0  0  0  0  0  0
   43.4520   13.6400   45.7570 C   0  0  0  0  0  3  0  0  0  0  0  0
   44.0840   14.6480   46.2610 C   0  0  0  0  0  0  0  0  0  0  0  0
   43.7070   15.2960   47.4470 N   0  0  0  0  0  0  0  0  0  0  0  0
   45.3310   15.1410   45.6010 C   0  0  0  0  0  0  0  0  0  0  0  0
   44.4180   16.3600   48.0450 N   0  0  0  0  0  0  0  0  0  0  0  0
   42.8430   15.0410   47.9310 H   0  0  0  0  0  0  0  0  0  0  0  0
   45.5860   16.8230   47.4300 C   0  0  0  0  0  0  0  0  0  0  0  0
   44.0330   16.7700   48.9470 H   0  0  0  0  0  0  0  0  0  0  0  0
   46.2290   17.7710   47.9520 O   0  0  0  0  0  0  0  0  0  0  0  0
   46.0310   16.1830   46.1800 C   0  0  0  0  0  0  0  0  0  0  0  0
   47.1930   16.6860   45.6210 C   0  0  0  0  0  3  0  0  0  0  0  0
   47.6850   16.1470   44.4510 C   0  0  0  0  0  3  0  0  0  0  0  0
   46.9860   15.1130   43.8820 C   0  0  0  0  0  3  0  0  0  0  0  0
   45.8120   14.6080   44.4490 C   0  0  0  0  0  3  0  0  0  0  0  0
   42.9750    8.7570   45.3930 S   0  0  0  0  0  0  0  0  0  0  0  0
   43.8090    9.8810   45.9930 O   0  0  0  0  0  0  0  0  0  0  0  0
   42.5190    7.9360   46.5940 O   0  0  0  0  0  0  0  0  0  0  0  0
   43.9120    7.7330   44.3780 C   0  0  0  0  0  0  0  0  0  0  0  0
   43.8420    6.3660   44.4780 C   0  0  0  0  0  3  0  0  0  0  0  0
   44.6050    5.5630   43.6500 C   0  0  0  0  0  3  0  0  0  0  0  0
   45.4560    6.0910   42.7050 C   0  0  0  0  0  0  0  0  0  0  0  0
   45.5320    7.4700   42.6000 C   0  0  0  0  0  3  0  0  0  0  0  0
   46.4020    5.0290   41.6810 Cl  0  0  0  0  0  0  0  0  0  0  0  0
   44.7570    8.2680   43.4390 C   0  0  0  0  0  3  0  0  0  0  0  0
  1 23  1  0  0  0  0
  1  6  1  0  0  0  0
  2  3  1  0  0  0  0
  2  1  1  0  0  0  0
  3  4  1  0  0  0  0
  4  7  1  0  0  0  0
  4  5  1  0  0  0  0
  6  5  1  0  0  0  0
  7  8  2  0  0  0  0
  9  7  1  0  0  0  0
  9 10  2  0  0  0  0
 10 11  1  0  0  0  0
 11 14  1  0  0  0  0
 11 13  1  0  0  0  0
 12 18  1  0  0  0  0
 12 10  1  0  0  0  0
 13 16  1  0  0  0  0
 15 17  2  0  0  0  0
 15 13  1  0  0  0  0
 18 15  1  0  0  0  0
 19 18  2  0  0  0  0
 20 19  1  0  0  0  0
 21 22  1  0  0  0  0
 21 20  2  0  0  0  0
 22 12  2  0  0  0  0
 23 24  2  0  0  0  0
 23 25  2  0  0  0  0
 26 27  1  0  0  0  0
 26 23  1  0  0  0  0
 28 27  2  0  0  0  0
 29 28  1  0  0  0  0
 30 29  2  0  0  0  0
 30 32  1  0  0  0  0
 31 29  1  0  0  0  0
 32 26  2  0  0  0  0
M  END
>  <Pose>
1

>  <Score>
-8.554

$$$$
