MODEL 1
REMARK VINA RESULT:    -8.554      0.000      0.000
REMARK INTER + INTRA:         -10.871
REMARK INTER:                 -10.054
REMARK INTRA:                  -0.817
REMARK UNBOUND:                -0.817
REMARK  3 active torsions:
REMARK  status: ('A' for Active; 'I' for Inactive)
REMARK    1  A    between atoms: S_1  and  N_4 
REMARK    2  A    between atoms: S_1  and  C_24 
REMARK    3  A    between atoms: C_10  and  C_12 
ROOT
ATOM      1  N   UNK d   1      41.618   9.447  44.685  0.00  0.00    -0.304 N 
ATOM      2  C   UNK d   1      41.881  10.375  43.612  0.00  0.00     0.155 C 
ATOM      3  C   UNK d   1      41.244  11.712  43.984  0.00  0.00     0.145 C 
ATOM      4  N   UNK d   1      41.469  11.979  45.355  0.00  0.00    -0.356 N 
ATOM      5  C   UNK d   1      40.565  11.097  46.218  0.00  0.00     0.145 C 
ATOM      6  C   UNK d   1      40.535   9.777  45.534  0.00  0.00     0.155 C 
ATOM      7  C   UNK d   1      42.344  12.803  46.001  0.00  0.00     0.179 C 
ATOM      8  O   UNK d   1      42.044  12.830  47.345  0.00  0.00    -0.172 OA
ENDROOT
BRANCH   7   9
ATOM      9  C   UNK d   1      43.452  13.640  45.757  0.00  0.00     0.090 C 
ATOM     10  C   UNK d   1      44.084  14.648  46.261  0.00  0.00     0.063 A 
ATOM     11  N   UNK d   1      43.707  15.296  47.447  0.00  0.00    -0.297 N 
ATOM     12  C   UNK d   1      45.331  15.141  45.601  0.00  0.00     0.008 A 
ATOM     13  N   UNK d   1      44.418  16.360  48.045  0.00  0.00    -0.265 N 
ATOM     14  H   UNK d   1      42.843  15.041  47.931  0.00  0.00     0.187 HD
ATOM     15  C   UNK d   1      45.586  16.823  47.430  0.00  0.00     0.271 A 
ATOM     16  H   UNK d   1      44.033  16.770  48.947  0.00  0.00     0.190 HD
ATOM     17  O   UNK d   1      46.229  17.771  47.952  0.00  0.00    -0.266 OA
ATOM     18  C   UNK d   1      46.031  16.183  46.180  0.00  0.00     0.046 A 
ATOM     19  C   UNK d   1      47.193  16.686  45.621  0.00  0.00     0.018 A 
ATOM     20  C   UNK d   1      47.685  16.147  44.451  0.00  0.00     0.001 A 
ATOM     21  C   UNK d   1      46.986  15.113  43.882  0.00  0.00     0.001 A 
ATOM     22  C   UNK d   1      45.812  14.608  44.449  0.00  0.00     0.015 A 
ENDBRANCH   7   9
BRANCH   1  23
ATOM     23  S   UNK d   1      42.975   8.757  45.393  0.00  0.00     0.260 S 
ATOM     24  O   UNK d   1      43.809   9.881  45.993  0.00  0.00    -0.200 OA
ATOM     25  O   UNK d   1      42.519   7.936  46.594  0.00  0.00    -0.200 OA
BRANCH  23  26
ATOM     26  C   UNK d   1      43.912   7.733  44.378  0.00  0.00     0.079 A 
ATOM     27  C   UNK d   1      43.842   6.366  44.478  0.00  0.00     0.027 A 
ATOM     28  C   UNK d   1      44.605   5.563  43.650  0.00  0.00     0.025 A 
ATOM     29  C   UNK d   1      45.456   6.091  42.705  0.00  0.00     0.034 A 
ATOM     30  C   UNK d   1      45.532   7.470  42.600  0.00  0.00     0.025 A 
ATOM     31 Cl   UNK d   1      46.402   5.029  41.681  0.00  0.00    -0.084 Cl
ATOM     32  C   UNK d   1      44.757   8.268  43.439  0.00  0.00     0.027 A 
ENDBRANCH  23  26
ENDBRANCH   1  23
TORSDOF 3
ENDMDL
