MODEL 1
REMARK VINA RESULT:    -7.992      0.000      0.000
REMARK INTER + INTRA:         -11.520
REMARK INTER:                 -10.796
REMARK INTRA:                  -0.724
REMARK UNBOUND:                -0.724
REMARK  8 active torsions:
REMARK  status: ('A' for Active; 'I' for Inactive)
REMARK    1  A    between atoms: C_5  and  C_8 
REMARK    2  A    between atoms: C_15  and  O_17 
REMARK    3  A    between atoms: O_17  and  C_18 
REMARK    4  A    between atoms: C_20  and  C_27 
REMARK    5  A    between atoms: C_21  and  O_26 
REMARK    6  A    between atoms: C_22  and  O_25 
REMARK    7  A    between atoms: C_23  and  O_24 
REMARK    8  A    between atoms: C_27  and  O_28 
ROOT
ATOM      1  C   UNK d   1      46.878   5.717  43.263  0.00  0.00     0.048 A 
ATOM      2  C   UNK d   1      47.273   7.034  43.047  0.00  0.00     0.159 A 
ATOM      3  O   UNK d   1      46.431   8.039  43.086  0.00  0.00    -0.321 OA
ATOM      4  C   UNK d   1      45.151   7.886  43.330  0.00  0.00     0.091 A 
ATOM      5  C   UNK d   1      44.666   6.620  43.556  0.00  0.00     0.049 A 
ATOM      6  C   UNK d   1      43.321   6.507  43.808  0.00  0.00     0.021 A 
ATOM      7  C   UNK d   1      42.466   7.579  43.841  0.00  0.00     0.038 A 
ATOM      8  C   UNK d   1      42.942   8.886  43.613  0.00  0.00     0.074 A 
ATOM      9  C   UNK d   1      44.290   8.991  43.361  0.00  0.00     0.075 A 
ATOM     10  C   UNK d   1      45.523   5.541  43.522  0.00  0.00     0.197 A 
ATOM     11  O   UNK d   1      45.081   4.380  43.729  0.00  0.00    -0.286 OA
ENDROOT
BRANCH   8  12
ATOM     12  O   UNK d   1      42.051   9.938  43.655  0.00  0.00    -0.318 OA
BRANCH  12  13
ATOM     13  C   UNK d   1      42.182  11.087  44.377  0.00  0.00     0.298 C 
ATOM     14  O   UNK d   1      42.670  10.870  45.693  0.00  0.00    -0.348 OA
ATOM     15  C   UNK d   1      43.231  12.067  46.080  0.00  0.00     0.179 C 
ATOM     16  C   UNK d   1      42.259  13.200  46.193  0.00  0.00     0.180 C 
ATOM     17  C   UNK d   1      41.283  13.240  45.041  0.00  0.00     0.183 C 
ATOM     18  C   UNK d   1      40.887  11.850  44.589  0.00  0.00     0.205 C 
BRANCH  15  19
ATOM     19  C   UNK d   1      44.037  11.958  47.349  0.00  0.00     0.198 C 
BRANCH  19  20
ATOM     20  O   UNK d   1      45.316  12.491  47.204  0.00  0.00    -0.398 OA
ATOM     21  H   UNK d   1      45.719  12.471  48.128  0.00  0.00     0.209 HD
ENDBRANCH  19  20
ENDBRANCH  15  19
BRANCH  16  22
ATOM     22  O   UNK d   1      43.001  14.391  46.129  0.00  0.00    -0.390 OA
ATOM     23  H   UNK d   1      43.093  14.794  47.028  0.00  0.00     0.210 HD
ENDBRANCH  16  22
BRANCH  17  24
ATOM     24  O   UNK d   1      40.186  14.018  45.388  0.00  0.00    -0.390 OA
ATOM     25  H   UNK d   1      39.338  13.479  45.431  0.00  0.00     0.210 HD
ENDBRANCH  17  24
BRANCH  18  26
ATOM     26  O   UNK d   1      40.163  11.972  43.409  0.00  0.00    -0.388 OA
ATOM     27  H   UNK d   1      39.301  11.499  43.474  0.00  0.00     0.210 HD
ENDBRANCH  18  26
ENDBRANCH  12  13
ENDBRANCH   8  12
BRANCH   1  28
ATOM     28  C   UNK d   1      47.825   4.623  43.214  0.00  0.00    -0.020 A 
ATOM     29  C   UNK d   1      48.825   4.448  44.147  0.00  0.00     0.014 A 
ATOM     30  C   UNK d   1      49.702   3.375  44.042  0.00  0.00     0.020 A 
ATOM     31  C   UNK d   1      49.615   2.455  43.022  0.00  0.00     0.011 A 
ATOM     32 Br   UNK d   1      50.830   0.983  42.890  0.00  0.00    -0.051 Br
ATOM     33  C   UNK d   1      48.610   2.630  42.083  0.00  0.00     0.020 A 
ATOM     34  C   UNK d   1      47.740   3.696  42.189  0.00  0.00     0.014 A 
ENDBRANCH   1  28
TORSDOF 8
ENDMDL
