/Users/jonathanwahrer/Desktop/Msc/3_Semester/Drug_Design_Praktikum/waehrer_HTS_screening/HTS_experiment/out/docking_results/vina_output/2qfa/2072_docked.pdbqt
 OpenBabel03162221183D

 27 30  0  0  0  0  0  0  0  0999 V2000
   42.1980    9.0700   45.2430 N   0  0  0  0  0  0  0  0  0  0  0  0
   41.4570   10.2750   45.3290 C   0  0  0  0  0  2  0  0  0  0  0  0
   41.7530   11.1920   46.4810 C   0  0  0  0  0  2  0  0  0  0  0  0
   43.1320   11.0830   46.8240 N   0  0  0  0  0  0  0  0  0  0  0  0
   43.3160    9.7250   47.3330 C   0  0  0  0  0  2  0  0  0  0  0  0
   43.1830    8.7800   46.1980 C   0  0  0  0  0  2  0  0  0  0  0  0
   43.6050   12.0510   47.7540 C   0  0  0  0  0  2  0  0  0  0  0  0
   43.1990   13.4340   47.3760 C   0  0  0  0  0  2  0  0  0  0  0  0
   44.2410   14.1400   46.6610 N   0  0  0  0  0  0  0  0  0  0  0  0
   44.8070   13.7920   45.5060 N   0  0  0  0  0  0  0  0  0  0  0  0
   45.7260   14.6980   45.1450 C   0  0  0  0  0  0  0  0  0  0  0  0
   45.7440   15.6430   46.0930 N   0  0  0  0  0  0  0  0  0  0  0  0
   46.5920   14.8440   44.0760 C   0  0  0  0  0  3  0  0  0  0  0  0
   46.5800   16.7060   46.0100 C   0  0  0  0  0  3  0  0  0  0  0  0
   44.8170   15.2860   47.0290 C   0  0  0  0  0  0  0  0  0  0  0  0
   47.4510   16.8730   44.9570 C   0  0  0  0  0  3  0  0  0  0  0  0
   47.4540   15.9130   43.9640 C   0  0  0  0  0  3  0  0  0  0  0  0
   44.6120   15.9880   48.0470 O   0  0  0  0  0  0  0  0  0  0  0  0
   42.8550    8.9190   43.6580 S   0  0  0  0  0  0  0  0  0  0  0  0
   41.7160    8.6980   42.6870 O   0  0  0  0  0  0  0  0  0  0  0  0
   43.5760   10.1450   43.2390 O   0  0  0  0  0  0  0  0  0  0  0  0
   43.9960    7.5680   43.5960 C   0  0  0  0  0  0  0  0  0  0  0  0
   45.6330    7.5560   43.1200 S   0  0  0  0  0  0  0  0  0  0  0  0
   45.9770    5.9050   43.3530 C   0  0  0  0  0  0  0  0  0  0  0  0
   44.7860    5.4010   43.8020 C   0  0  0  0  0  3  0  0  0  0  0  0
   47.6240    4.9480   43.0650 Br  0  0  0  0  0  0  0  0  0  0  0  0
   43.7650    6.2570   43.9280 C   0  0  0  0  0  3  0  0  0  0  0  0
  1  2  1  0  0  0  0
  1  6  1  0  0  0  0
  2  3  1  0  0  0  0
  3  4  1  0  0  0  0
  4  5  1  0  0  0  0
  4  7  1  0  0  0  0
  6  5  1  0  0  0  0
  8  7  1  0  0  0  0
  9 15  1  0  0  0  0
  9  8  1  0  0  0  0
 10  9  1  0  0  0  0
 11 10  2  0  0  0  0
 11 12  1  0  0  0  0
 12 15  1  0  0  0  0
 13 11  1  0  0  0  0
 14 12  1  0  0  0  0
 15 18  2  0  0  0  0
 16 14  2  0  0  0  0
 17 13  2  0  0  0  0
 17 16  1  0  0  0  0
 19  1  1  0  0  0  0
 20 19  2  0  0  0  0
 21 19  2  0  0  0  0
 22 19  1  0  0  0  0
 22 27  2  0  0  0  0
 23 24  1  0  0  0  0
 23 22  1  0  0  0  0
 24 25  2  0  0  0  0
 25 27  1  0  0  0  0
 26 24  1  0  0  0  0
M  END
>  <Pose>
1

>  <Score>
-7.308

$$$$
