MODEL 1
REMARK VINA RESULT:    -7.119      0.000      0.000
REMARK INTER + INTRA:         -11.279
REMARK INTER:                  -9.408
REMARK INTRA:                  -1.871
REMARK UNBOUND:                -1.871
REMARK  6 active torsions:
REMARK  status: ('A' for Active; 'I' for Inactive)
REMARK    1  A    between atoms: C_5  and  C_8 
REMARK    2  A    between atoms: C_12  and  C_17 
REMARK    3  A    between atoms: C_17  and  N_18 
REMARK    4  A    between atoms: N_21  and  C_24 
REMARK    5  A    between atoms: C_24  and  C_25 
REMARK    6  A    between atoms: C_25  and  O_26 
ROOT
ATOM      1  C   UNK d   1      43.560   8.245  43.921  0.00  0.00     0.051 A 
ATOM      2  C   UNK d   1      43.103   9.112  42.956  0.00  0.00     0.032 A 
ATOM      3  C   UNK d   1      42.187  10.107  43.324  0.00  0.00    -0.000 A 
ATOM      4  C   UNK d   1      41.738  10.226  44.620  0.00  0.00     0.100 A 
ATOM      5  C   UNK d   1      40.832  11.182  45.081  0.00  0.00     0.039 A 
ATOM      6  C   UNK d   1      40.393  12.073  44.070  0.00  0.00     0.118 A 
ATOM      7  C   UNK d   1      40.827  11.990  42.750  0.00  0.00     0.041 A 
ATOM      8  C   UNK d   1      41.729  11.001  42.390  0.00  0.00     0.017 A 
ATOM      9  O   UNK d   1      39.499  13.098  44.312  0.00  0.00    -0.191 OA
ATOM     10  O   UNK d   1      42.186   9.402  45.479  0.00  0.00    -0.273 OA
ATOM     11  C   UNK d   1      43.061   8.425  45.228  0.00  0.00     0.299 A 
ATOM     12  O   UNK d   1      43.449   7.654  46.113  0.00  0.00    -0.259 OA
ENDROOT
BRANCH   5  13
ATOM     13  C   UNK d   1      40.450  11.465  46.420  0.00  0.00     0.279 C 
BRANCH  13  14
ATOM     14  N   UNK d   1      40.704  12.709  47.101  0.00  0.00    -0.064 N 
ATOM     15  C   UNK d   1      40.290  12.645  48.531  0.00  0.00     0.265 C 
ATOM     16  C   UNK d   1      40.652  11.321  49.103  0.00  0.00     0.300 C 
ATOM     17  N   UNK d   1      42.062  11.006  49.087  0.00  0.00     0.093 N 
ATOM     18  C   UNK d   1      42.761  11.633  48.018  0.00  0.00     0.300 C 
ATOM     19  C   UNK d   1      42.184  12.776  47.325  0.00  0.00     0.265 C 
ATOM     20  H   UNK d   1      40.470  13.576  46.674  0.00  0.00     0.280 HD
BRANCH  17  21
ATOM     21  C   UNK d   1      42.256   9.549  49.039  0.00  0.00     0.298 C 
BRANCH  21  22
ATOM     22  C   UNK d   1      40.950   8.805  48.883  0.00  0.00     0.194 C 
BRANCH  22  23
ATOM     23  O   UNK d   1      40.921   8.004  47.751  0.00  0.00    -0.399 OA
ATOM     24  H   UNK d   1      41.874   7.820  47.473  0.00  0.00     0.209 HD
ENDBRANCH  22  23
ENDBRANCH  21  22
ENDBRANCH  17  21
ENDBRANCH  13  14
ENDBRANCH   5  13
BRANCH   1  25
ATOM     25  C   UNK d   1      44.613   7.250  43.634  0.00  0.00    -0.020 A 
ATOM     26  C   UNK d   1      45.902   7.752  43.367  0.00  0.00     0.014 A 
ATOM     27  C   UNK d   1      46.950   6.878  43.141  0.00  0.00     0.024 A 
ATOM     28  C   UNK d   1      46.779   5.499  43.164  0.00  0.00     0.034 A 
ATOM     29 Cl   UNK d   1      48.132   4.359  42.966  0.00  0.00    -0.084 Cl
ATOM     30  C   UNK d   1      45.509   5.015  43.421  0.00  0.00     0.024 A 
ATOM     31  C   UNK d   1      44.476   5.908  43.642  0.00  0.00     0.014 A 
ENDBRANCH   1  25
TORSDOF 6
ENDMDL
