MODEL 1
REMARK VINA RESULT:    -5.932      0.000      0.000
REMARK INTER + INTRA:          -8.072
REMARK INTER:                  -6.973
REMARK INTRA:                  -1.099
REMARK UNBOUND:                -1.099
REMARK  3 active torsions:
REMARK  status: ('A' for Active; 'I' for Inactive)
REMARK    1  A    between atoms: C_5  and  C_8 
REMARK    2  A    between atoms: C_8  and  N_9 
REMARK    3  A    between atoms: C_13  and  N_14 
ROOT
ATOM      1  N   UNK d   1      41.654  11.465  45.329  0.00  0.00    -0.168 N 
ATOM      2  C   UNK d   1      42.314  10.446  44.759  0.00  0.00     0.167 A 
ATOM      3  C   UNK d   1      41.968   9.276  45.398  0.00  0.00     0.185 A 
ATOM      4  N   UNK d   1      41.104   9.621  46.340  0.00  0.00    -0.044 NA
ATOM      5  C   UNK d   1      40.892  10.944  46.323  0.00  0.00     0.707 A 
ATOM      6  N   UNK d   1      42.456   8.059  45.052  0.00  0.00    -0.286 N 
ATOM      7  C   UNK d   1      43.322   8.021  44.026  0.00  0.00     0.330 A 
ATOM      8  O   UNK d   1      43.766   6.886  43.721  0.00  0.00    -0.246 OA
ATOM      9  N   UNK d   1      43.696   9.127  43.360  0.00  0.00    -0.273 N 
ATOM     10  C   UNK d   1      43.218  10.340  43.695  0.00  0.00     0.280 A 
ATOM     11  O   UNK d   1      43.541  11.378  43.101  0.00  0.00    -0.265 OA
ATOM     12  C   UNK d   1      42.036   6.883  45.785  0.00  0.00     0.163 C 
ATOM     13  H   UNK d   1      44.367   9.088  42.563  0.00  0.00     0.173 HD
ENDROOT
BRANCH   1  14
ATOM     14  C   UNK d   1      41.740  12.858  44.967  0.00  0.00     0.186 C 
BRANCH  14  15
ATOM     15  C   UNK d   1      42.685  13.690  45.684  0.00  0.00    -0.039 A 
ATOM     16  C   UNK d   1      44.042  13.612  45.622  0.00  0.00     0.010 A 
ATOM     17  C   UNK d   1      44.894  14.474  46.310  0.00  0.00     0.019 A 
ATOM     18  C   UNK d   1      44.346  15.474  47.107  0.00  0.00     0.011 A 
ATOM     19 Br   UNK d   1      45.438  16.703  48.071  0.00  0.00    -0.051 Br
ATOM     20  C   UNK d   1      42.979  15.591  47.199  0.00  0.00     0.019 A 
ATOM     21  C   UNK d   1      42.177  14.717  46.503  0.00  0.00     0.010 A 
ENDBRANCH  14  15
ENDBRANCH   1  14
BRANCH   5  22
ATOM     22  N   UNK d   1      40.027  11.689  47.190  0.00  0.00    -0.213 N 
ATOM     23  C   UNK d   1      40.548  12.092  48.477  0.00  0.00     0.160 C 
ATOM     24  C   UNK d   1      39.744  11.373  49.550  0.00  0.00     0.136 C 
ATOM     25  N   UNK d   1      38.452  10.974  49.102  0.00  0.00    -0.414 N 
ATOM     26  C   UNK d   1      37.843  11.809  48.121  0.00  0.00     0.136 C 
ATOM     27  C   UNK d   1      38.184   9.588  49.027  0.00  0.00     0.143 C 
ATOM     28  C   UNK d   1      38.669  12.054  46.885  0.00  0.00     0.160 C 
ENDBRANCH   5  22
TORSDOF 3
ENDMDL
