MODEL 1
REMARK VINA RESULT:    -7.043      0.000      0.000
REMARK INTER + INTRA:          -7.249
REMARK INTER:                  -7.249
REMARK INTRA:                   0.000
REMARK UNBOUND:                 0.000
REMARK  1 active torsions:
REMARK  status: ('A' for Active; 'I' for Inactive)
REMARK    1  A    between atoms: C_12  and  N_16 
ROOT
ATOM      1 Cl   UNK d   1      42.439  13.788  49.483  0.00  0.00    -0.082 Cl
ATOM      2  C   UNK d   1      43.083  13.313  47.925  0.00  0.00     0.061 A 
ATOM      3  C   UNK d   1      42.446  12.333  47.162  0.00  0.00     0.065 A 
ATOM      4  C   UNK d   1      42.915  11.935  45.946  0.00  0.00    -0.002 A 
ATOM      5  C   UNK d   1      44.070  12.558  45.493  0.00  0.00     0.011 A 
ATOM      6  C   UNK d   1      44.713  13.528  46.231  0.00  0.00     0.002 A 
ATOM      7  C   UNK d   1      44.224  13.916  47.458  0.00  0.00     0.026 A 
ATOM      8  C   UNK d   1      42.021  10.891  45.404  0.00  0.00     0.146 A 
ATOM      9  C   UNK d   1      42.771   9.594  45.244  0.00  0.00     0.071 A 
ATOM     10  C   UNK d   1      42.854   8.946  44.115  0.00  0.00     0.060 A 
ATOM     11  N   UNK d   1      42.232   9.426  42.926  0.00  0.00    -0.342 N 
ATOM     12  C   UNK d   1      41.505  10.640  42.987  0.00  0.00     0.118 A 
ATOM     13  C   UNK d   1      41.414  11.301  44.119  0.00  0.00     0.093 A 
ATOM     14  C   UNK d   1      40.658  12.545  44.138  0.00  0.00     0.101 C 
ATOM     15  N   UNK d   1      40.064  13.538  44.169  0.00  0.00    -0.191 NA
ATOM     16  C   UNK d   1      43.659   7.725  44.323  0.00  0.00     0.106 A 
ATOM     17  O   UNK d   1      44.020   7.735  45.649  0.00  0.00    -0.301 OA
ATOM     18  C   UNK d   1      43.506   8.854  46.262  0.00  0.00     0.294 A 
ATOM     19  O   UNK d   1      43.629   9.207  47.487  0.00  0.00    -0.259 OA
ATOM     20  C   UNK d   1      44.825   7.733  43.360  0.00  0.00     0.053 C 
ATOM     21  C   UNK d   1      42.855   6.466  44.054  0.00  0.00     0.053 C 
ATOM     22  C   UNK d   1      40.977  10.726  46.442  0.00  0.00     0.246 A 
ATOM     23  O   UNK d   1      39.981   9.918  46.402  0.00  0.00    -0.271 OA
ATOM     24  N   UNK d   1      41.269  11.617  47.495  0.00  0.00    -0.324 N 
ATOM     25  H   UNK d   1      42.295   8.913  42.021  0.00  0.00     0.167 HD
ATOM     26  H   UNK d   1      40.677  11.707  48.376  0.00  0.00     0.169 HD
ENDROOT
BRANCH  12  27
ATOM     27  N   UNK d   1      40.852  11.185  41.837  0.00  0.00    -0.384 N 
ATOM     28  H   UNK d   1      39.965  11.697  41.928  0.00  0.00     0.157 HD
ATOM     29  H   UNK d   1      41.291  11.052  40.917  0.00  0.00     0.157 HD
ENDBRANCH  12  27
TORSDOF 1
ENDMDL
