/Users/jonathanwahrer/Desktop/Msc/3_Semester/Drug_Design_Praktikum/waehrer_HTS_screening/HTS_experiment/out/docking_results/vina_output/2qfa/2105_docked.pdbqt
 OpenBabel03162221193D

 29 32  0  0  1  0  0  0  0  0999 V2000
   42.4390   13.7880   49.4830 Cl  0  0  0  0  0  0  0  0  0  0  0  0
   43.0830   13.3130   47.9250 C   0  0  0  0  0  0  0  0  0  0  0  0
   42.4460   12.3330   47.1620 C   0  0  0  0  0  0  0  0  0  0  0  0
   42.9150   11.9350   45.9460 C   0  0  0  0  0  0  0  0  0  0  0  0
   44.0700   12.5580   45.4930 C   0  0  0  0  0  3  0  0  0  0  0  0
   44.7130   13.5280   46.2310 C   0  0  0  0  0  3  0  0  0  0  0  0
   44.2240   13.9160   47.4580 C   0  0  0  0  0  3  0  0  0  0  0  0
   42.0210   10.8910   45.4040 C   0  0  2  0  0  0  0  0  0  0  0  0
   42.7710    9.5940   45.2440 C   0  0  0  0  0  0  0  0  0  0  0  0
   42.8540    8.9460   44.1150 C   0  0  0  0  0  0  0  0  0  0  0  0
   42.2320    9.4260   42.9260 N   0  0  0  0  0  0  0  0  0  0  0  0
   41.5050   10.6400   42.9870 C   0  0  0  0  0  0  0  0  0  0  0  0
   41.4140   11.3010   44.1190 C   0  0  0  0  0  0  0  0  0  0  0  0
   40.6580   12.5450   44.1380 C   0  0  0  0  0  0  0  0  0  0  0  0
   40.0640   13.5380   44.1690 N   0  0  0  0  0  0  0  0  0  0  0  0
   43.6590    7.7250   44.3230 C   0  0  0  0  0  0  0  0  0  0  0  0
   44.0200    7.7350   45.6490 O   0  0  0  0  0  0  0  0  0  0  0  0
   43.5060    8.8540   46.2620 C   0  0  0  0  0  0  0  0  0  0  0  0
   43.6290    9.2070   47.4870 O   0  0  0  0  0  0  0  0  0  0  0  0
   44.8250    7.7330   43.3600 C   0  0  0  0  0  1  0  0  0  0  0  0
   42.8550    6.4660   44.0540 C   0  0  0  0  0  1  0  0  0  0  0  0
   40.9770   10.7260   46.4420 C   0  0  0  0  0  0  0  0  0  0  0  0
   39.9810    9.9180   46.4020 O   0  0  0  0  0  0  0  0  0  0  0  0
   41.2690   11.6170   47.4950 N   0  0  0  0  0  0  0  0  0  0  0  0
   42.2950    8.9130   42.0210 H   0  0  0  0  0  0  0  0  0  0  0  0
   40.6770   11.7070   48.3760 H   0  0  0  0  0  0  0  0  0  0  0  0
   40.8520   11.1850   41.8370 N   0  0  0  0  0  0  0  0  0  0  0  0
   39.9650   11.6970   41.9280 H   0  0  0  0  0  0  0  0  0  0  0  0
   41.2910   11.0520   40.9170 H   0  0  0  0  0  0  0  0  0  0  0  0
  2  1  1  0  0  0  0
  3 24  1  0  0  0  0
  3  2  2  0  0  0  0
  4  3  1  0  0  0  0
  5  4  2  0  0  0  0
  5  6  1  0  0  0  0
  6  7  2  0  0  0  0
  7  2  1  0  0  0  0
  8 13  1  6  0  0  0
  8  4  1  0  0  0  0
  8 22  1  0  0  0  0
  9  8  1  0  0  0  0
  9 18  1  0  0  0  0
 10 16  1  0  0  0  0
 10  9  2  0  0  0  0
 11 12  1  0  0  0  0
 11 10  1  0  0  0  0
 12 13  2  0  0  0  0
 13 14  1  0  0  0  0
 14 15  3  0  0  0  0
 16 17  1  0  0  0  0
 17 18  1  0  0  0  0
 18 19  2  0  0  0  0
 20 16  1  0  0  0  0
 21 16  1  0  0  0  0
 22 24  1  0  0  0  0
 23 22  2  0  0  0  0
 24 26  1  0  0  0  0
 25 11  1  0  0  0  0
 27 28  1  0  0  0  0
 27 12  1  0  0  0  0
 29 27  1  0  0  0  0
M  END
>  <Pose>
1

>  <Score>
-7.043

$$$$
