MODEL 1
REMARK VINA RESULT:    -7.154      0.000      0.000
REMARK INTER + INTRA:          -7.871
REMARK INTER:                  -7.572
REMARK INTRA:                  -0.299
REMARK UNBOUND:                -0.299
REMARK  1 active torsions:
REMARK  status: ('A' for Active; 'I' for Inactive)
REMARK    1  A    between atoms: C_5  and  N_8 
ROOT
ATOM      1  N   UNK d   1      43.042   8.637  44.610  0.00  0.00    -0.250 N 
ATOM      2  C   UNK d   1      42.620   8.754  45.977  0.00  0.00     0.263 C 
ATOM      3  O   UNK d   1      42.953   7.998  46.923  0.00  0.00    -0.270 OA
ATOM      4  C   UNK d   1      41.713   9.915  46.127  0.00  0.00     0.259 C 
ATOM      5  O   UNK d   1      42.098  10.764  47.158  0.00  0.00    -0.266 OA
ATOM      6  N   UNK d   1      43.252  11.319  46.825  0.00  0.00    -0.288 N 
ATOM      7  C   UNK d   1      43.426  11.333  45.440  0.00  0.00     0.125 C 
ATOM      8  C   UNK d   1      42.115  10.747  44.913  0.00  0.00     0.144 C 
ATOM      9  C   UNK d   1      42.366   9.682  43.913  0.00  0.00     0.240 C 
ATOM     10  O   UNK d   1      42.069   9.643  42.681  0.00  0.00    -0.272 OA
ATOM     11  C   UNK d   1      43.800  12.587  44.771  0.00  0.00     0.028 C 
ATOM     12  C   UNK d   1      44.044  13.778  45.612  0.00  0.00     0.004 C 
ATOM     13  C   UNK d   1      44.649  13.332  46.924  0.00  0.00     0.022 C 
ATOM     14  C   UNK d   1      43.630  12.439  47.582  0.00  0.00     0.150 C 
ENDROOT
BRANCH   1  15
ATOM     15  C   UNK d   1      43.946   7.686  44.046  0.00  0.00     0.045 A 
ATOM     16  C   UNK d   1      43.806   6.323  44.204  0.00  0.00     0.032 A 
ATOM     17  C   UNK d   1      44.687   5.408  43.653  0.00  0.00     0.026 A 
ATOM     18  C   UNK d   1      45.764   5.843  42.908  0.00  0.00     0.034 A 
ATOM     19 Cl   UNK d   1      46.887   4.693  42.205  0.00  0.00    -0.084 Cl
ATOM     20  C   UNK d   1      45.915   7.204  42.743  0.00  0.00     0.026 A 
ATOM     21  C   UNK d   1      45.032   8.113  43.295  0.00  0.00     0.032 A 
ENDBRANCH   1  15
TORSDOF 1
ENDMDL
