MODEL 1
REMARK VINA RESULT:    -7.049      0.000      0.000
REMARK INTER + INTRA:          -9.112
REMARK INTER:                  -8.079
REMARK INTRA:                  -1.033
REMARK UNBOUND:                -1.033
REMARK  3 active torsions:
REMARK  status: ('A' for Active; 'I' for Inactive)
REMARK    1  A    between atoms: C_7  and  C_9 
REMARK       I    between atoms: C_9  and  N_11 
REMARK    2  A    between atoms: C_14  and  N_19 
REMARK    3  A    between atoms: C_15  and  O_18 
REMARK       I    between atoms: N_22  and  C_25 
ROOT
ATOM      1  C   UNK d   1      41.834   9.167  45.530  0.00  0.00     0.203 C 
ATOM      2  O   UNK d   1      41.835   9.023  46.862  0.00  0.00    -0.170 OA
ATOM      3  N   UNK d   1      40.780   9.925  45.067  0.00  0.00    -0.358 N 
ATOM      4  C   UNK d   1      39.936  10.425  46.188  0.00  0.00     0.127 C 
ATOM      5  C   UNK d   1      40.469  11.769  46.646  0.00  0.00     0.058 C 
ATOM      6  C   UNK d   1      41.258  12.347  45.534  0.00  0.00     0.253 C 
ATOM      7  C   UNK d   1      40.421  12.521  44.308  0.00  0.00     0.153 C 
ATOM      8  C   UNK d   1      41.014  11.573  43.251  0.00  0.00     0.054 C 
ATOM      9  C   UNK d   1      40.521  10.182  43.692  0.00  0.00     0.127 C 
ENDROOT
BRANCH   1  10
ATOM     10  C   UNK d   1      42.934   8.498  44.891  0.00  0.00     0.088 A 
ATOM     11  N   UNK d   1      43.984   8.990  44.231  0.00  0.00    -0.352 N 
ATOM     12  C   UNK d   1      44.775   7.982  43.752  0.00  0.00     0.043 A 
ATOM     13  H   UNK d   1      44.240   9.974  44.076  0.00  0.00     0.166 HD
ATOM     14  C   UNK d   1      44.202   6.816  44.126  0.00  0.00    -0.005 A 
ATOM     15  C   UNK d   1      45.934   7.968  43.024  0.00  0.00     0.032 A 
ATOM     16  C   UNK d   1      44.751   5.572  43.795  0.00  0.00     0.037 A 
ATOM     17  C   UNK d   1      43.055   7.110  44.836  0.00  0.00     0.048 A 
ATOM     18  C   UNK d   1      45.900   5.576  43.073  0.00  0.00     0.035 A 
ATOM     19 Cl   UNK d   1      46.621   4.025  42.634  0.00  0.00    -0.084 Cl
ATOM     20  C   UNK d   1      46.504   6.752  42.680  0.00  0.00     0.026 A 
ENDBRANCH   1  10
BRANCH   6  21
ATOM     21  N   UNK d   1      42.017  13.529  45.789  0.00  0.00     0.098 N 
ATOM     22  C   UNK d   1      43.436  13.401  45.569  0.00  0.00     0.293 C 
ATOM     23  C   UNK d   1      44.056  12.432  46.501  0.00  0.00     0.156 C 
ATOM     24  N   UNK d   1      43.720  12.883  47.857  0.00  0.00    -0.349 N 
ATOM     25  C   UNK d   1      42.950  14.096  47.941  0.00  0.00     0.156 C 
ATOM     26  C   UNK d   1      44.172  12.139  48.989  0.00  0.00     0.215 C 
ATOM     27  C   UNK d   1      41.734  14.134  47.063  0.00  0.00     0.293 C 
ATOM     28  O   UNK d   1      43.871  12.520  50.128  0.00  0.00    -0.274 OA
ATOM     29  C   UNK d   1      45.001  10.915  48.753  0.00  0.00     0.117 C 
ENDBRANCH   6  21
BRANCH   7  30
ATOM     30  O   UNK d   1      40.371  13.832  43.838  0.00  0.00    -0.393 OA
ATOM     31  H   UNK d   1      39.511  13.895  43.307  0.00  0.00     0.210 HD
ENDBRANCH   7  30
TORSDOF 3
ENDMDL
