/Users/jonathanwahrer/Desktop/Msc/3_Semester/Drug_Design_Praktikum/waehrer_HTS_screening/HTS_experiment/out/docking_results/vina_output/2qfa/2122_docked.pdbqt
 OpenBabel03162221203D

 29 32  0  0  0  0  0  0  0  0999 V2000
   45.8940    6.3080   43.8080 C   0  0  0  0  0  0  0  0  0  0  0  0
   45.1430    5.1930   43.7960 N   0  0  0  0  0  0  0  0  0  0  0  0
   43.9190    5.4640   44.1510 O   0  0  0  0  0  0  0  0  0  0  0  0
   43.8640    6.7570   44.3980 C   0  0  0  0  0  0  0  0  0  0  0  0
   45.0710    7.2920   44.1920 N   0  0  0  0  0  0  0  0  0  0  0  0
   47.3310    6.3820   43.4270 C   0  0  0  0  0  2  0  0  0  0  0  0
   47.7840    5.1170   42.9270 N   0  0  0  0  0  0  0  0  0  0  0  0
   48.6360    4.2350   43.4550 C   0  0  0  0  0  0  0  0  0  0  0  0
   49.3630    4.2290   44.6370 C   0  0  0  0  0  3  0  0  0  0  0  0
   48.7630    3.1410   42.5950 C   0  0  0  0  0  0  0  0  0  0  0  0
   50.1800    3.1340   44.9060 C   0  0  0  0  0  0  0  0  0  0  0  0
   51.1040    3.1210   46.4000 Cl  0  0  0  0  0  0  0  0  0  0  0  0
   50.2820    2.0670   44.0320 C   0  0  0  0  0  3  0  0  0  0  0  0
   49.5680    2.0750   42.8730 C   0  0  0  0  0  3  0  0  0  0  0  0
   47.9810    3.4260   41.5990 O   0  0  0  0  0  0  0  0  0  0  0  0
   47.3860    4.5810   41.7590 C   0  0  0  0  0  0  0  0  0  0  0  0
   46.5790    5.0740   40.9260 O   0  0  0  0  0  0  0  0  0  0  0  0
   42.5870    7.4170   44.8330 C   0  0  0  0  0  0  0  0  0  0  0  0
   42.1290    6.8580   45.8890 O   0  0  0  0  0  0  0  0  0  0  0  0
   42.0820    8.4510   44.1360 N   0  0  0  0  0  0  0  0  0  0  0  0
   41.0740    8.5690   45.0590 H   0  0  0  0  0  0  0  0  0  0  0  0
   41.5500    9.5140   43.4310 C   0  0  0  0  0  2  0  0  0  0  0  0
   42.5950   10.5600   43.0250 C   0  0  0  0  0  2  0  0  0  0  0  0
   42.7010   11.6640   43.8940 N   0  0  0  0  0  0  0  0  0  0  0  0
   43.9700   11.7140   44.5070 C   0  0  0  0  0  2  0  0  0  0  0  0
   43.9610   12.4090   45.8270 C   0  0  0  0  0  2  0  0  0  0  0  0
   43.1560   13.5170   45.7430 O   0  0  0  0  0  0  0  0  0  0  0  0
   41.8170   13.2260   45.5640 C   0  0  0  0  0  2  0  0  0  0  0  0
   41.5720   12.0950   44.6100 C   0  0  0  0  0  2  0  0  0  0  0  0
  1  5  1  0  0  0  0
  2  1  2  0  0  0  0
  2  3  1  0  0  0  0
  3  4  1  0  0  0  0
  4 18  1  0  0  0  0
  5  4  2  0  0  0  0
  6  1  1  0  0  0  0
  7  6  1  0  0  0  0
  7  8  1  0  0  0  0
  8  9  1  0  0  0  0
  9 11  2  0  0  0  0
 10 14  1  0  0  0  0
 10  8  2  0  0  0  0
 11 12  1  0  0  0  0
 13 11  1  0  0  0  0
 14 13  2  0  0  0  0
 15 16  1  0  0  0  0
 15 10  1  0  0  0  0
 16  7  1  0  0  0  0
 17 16  2  0  0  0  0
 18 19  2  0  0  0  0
 20 18  1  0  0  0  0
 20 21  1  0  0  0  0
 22 20  1  0  0  0  0
 23 22  1  0  0  0  0
 23 24  1  0  0  0  0
 24 25  1  0  0  0  0
 24 29  1  0  0  0  0
 25 26  1  0  0  0  0
 27 26  1  0  0  0  0
 28 27  1  0  0  0  0
 29 28  1  0  0  0  0
M  END
>  <Pose>
1

>  <Score>
-7.734

$$$$
