MODEL 1
REMARK VINA RESULT:    -7.734      0.000      0.000
REMARK INTER + INTRA:         -10.768
REMARK INTER:                 -10.447
REMARK INTRA:                  -0.320
REMARK UNBOUND:                -0.320
REMARK  6 active torsions:
REMARK  status: ('A' for Active; 'I' for Inactive)
REMARK    1  A    between atoms: N_11  and  C_12 
REMARK    2  A    between atoms: C_12  and  C_13 
REMARK    3  A    between atoms: C_16  and  C_18 
REMARK       I    between atoms: C_18  and  N_20 
REMARK    4  A    between atoms: N_20  and  C_21 
REMARK    5  A    between atoms: C_21  and  C_22 
REMARK    6  A    between atoms: C_22  and  N_23 
ROOT
ATOM      1  C   UNK d   1      45.894   6.308  43.808  0.00  0.00     0.174 A 
ATOM      2  N   UNK d   1      45.143   5.193  43.796  0.00  0.00    -0.109 NA
ATOM      3  O   UNK d   1      43.919   5.464  44.151  0.00  0.00    -0.186 OA
ATOM      4  C   UNK d   1      43.864   6.757  44.398  0.00  0.00     0.264 A 
ATOM      5  N   UNK d   1      45.071   7.292  44.192  0.00  0.00    -0.198 NA
ENDROOT
BRANCH   1   6
ATOM      6  C   UNK d   1      47.331   6.382  43.427  0.00  0.00     0.217 C 
BRANCH   6   7
ATOM      7  N   UNK d   1      47.784   5.117  42.927  0.00  0.00    -0.283 N 
ATOM      8  C   UNK d   1      48.636   4.235  43.455  0.00  0.00     0.075 A 
ATOM      9  C   UNK d   1      49.363   4.229  44.637  0.00  0.00     0.056 A 
ATOM     10  C   UNK d   1      48.763   3.141  42.595  0.00  0.00     0.108 A 
ATOM     11  C   UNK d   1      50.180   3.134  44.906  0.00  0.00     0.036 A 
ATOM     12 Cl   UNK d   1      51.104   3.121  46.400  0.00  0.00    -0.084 Cl
ATOM     13  C   UNK d   1      50.282   2.067  44.032  0.00  0.00     0.026 A 
ATOM     14  C   UNK d   1      49.568   2.075  42.873  0.00  0.00     0.041 A 
ATOM     15  O   UNK d   1      47.981   3.426  41.599  0.00  0.00    -0.259 OA
ATOM     16  C   UNK d   1      47.386   4.581  41.759  0.00  0.00     0.373 A 
ATOM     17  O   UNK d   1      46.579   5.074  40.926  0.00  0.00    -0.237 OA
ENDBRANCH   6   7
ENDBRANCH   1   6
BRANCH   4  18
ATOM     18  C   UNK d   1      42.587   7.417  44.833  0.00  0.00     0.297 C 
ATOM     19  O   UNK d   1      42.129   6.858  45.889  0.00  0.00    -0.264 OA
ATOM     20  N   UNK d   1      42.082   8.451  44.136  0.00  0.00    -0.352 N 
ATOM     21  H   UNK d   1      41.074   8.569  45.059  0.00  0.00     0.162 HD
BRANCH  20  22
ATOM     22  C   UNK d   1      41.550   9.514  43.431  0.00  0.00     0.142 C 
BRANCH  22  23
ATOM     23  C   UNK d   1      42.595  10.560  43.025  0.00  0.00     0.136 C 
BRANCH  23  24
ATOM     24  N   UNK d   1      42.701  11.664  43.894  0.00  0.00    -0.407 N 
ATOM     25  C   UNK d   1      43.970  11.714  44.507  0.00  0.00     0.143 C 
ATOM     26  C   UNK d   1      43.961  12.409  45.827  0.00  0.00     0.187 C 
ATOM     27  O   UNK d   1      43.156  13.517  45.743  0.00  0.00    -0.388 OA
ATOM     28  C   UNK d   1      41.817  13.226  45.564  0.00  0.00     0.187 C 
ATOM     29  C   UNK d   1      41.572  12.095  44.610  0.00  0.00     0.143 C 
ENDBRANCH  23  24
ENDBRANCH  22  23
ENDBRANCH  20  22
ENDBRANCH   4  18
TORSDOF 6
ENDMDL
