MODEL 1
REMARK VINA RESULT:    -7.617      0.000      0.000
REMARK INTER + INTRA:          -8.842
REMARK INTER:                  -8.508
REMARK INTRA:                  -0.334
REMARK UNBOUND:                -0.334
REMARK  2 active torsions:
REMARK  status: ('A' for Active; 'I' for Inactive)
REMARK    1  A    between atoms: C_5  and  N_8 
REMARK    2  A    between atoms: C_12  and  C_21 
ROOT
ATOM      1  N   UNK d   1      43.265   8.117  44.263  0.00  0.00    -0.252 N 
ATOM      2  C   UNK d   1      43.013   8.717  45.526  0.00  0.00     0.239 C 
ATOM      3  O   UNK d   1      43.790   8.679  46.516  0.00  0.00    -0.272 OA
ATOM      4  C   UNK d   1      41.681   9.409  45.522  0.00  0.00     0.138 C 
ATOM      5  C   UNK d   1      41.823  10.851  45.877  0.00  0.00     0.142 C 
ATOM      6  O   UNK d   1      41.131  11.542  44.852  0.00  0.00    -0.355 OA
ATOM      7  C   UNK d   1      41.815  10.936  43.767  0.00  0.00     0.089 C 
ATOM      8  C   UNK d   1      41.385   9.494  44.017  0.00  0.00     0.133 C 
ATOM      9  C   UNK d   1      42.231   8.505  43.367  0.00  0.00     0.239 C 
ATOM     10  O   UNK d   1      42.054   8.079  42.197  0.00  0.00    -0.272 OA
ATOM     11  C   UNK d   1      43.221  11.178  44.167  0.00  0.00     0.010 C 
ATOM     12  C   UNK d   1      43.220  11.253  45.514  0.00  0.00     0.016 C 
ATOM     13  C   UNK d   1      41.439  11.463  42.445  0.00  0.00     0.051 C 
ENDROOT
BRANCH   1  14
ATOM     14  C   UNK d   1      44.335   7.259  43.858  0.00  0.00     0.045 A 
ATOM     15  C   UNK d   1      45.504   7.723  43.305  0.00  0.00     0.032 A 
ATOM     16  C   UNK d   1      46.532   6.883  42.914  0.00  0.00     0.026 A 
ATOM     17  C   UNK d   1      46.406   5.524  43.072  0.00  0.00     0.034 A 
ATOM     18 Cl   UNK d   1      47.691   4.414  42.583  0.00  0.00    -0.084 Cl
ATOM     19  C   UNK d   1      45.239   5.044  43.623  0.00  0.00     0.026 A 
ATOM     20  C   UNK d   1      44.206   5.892  44.017  0.00  0.00     0.032 A 
ENDBRANCH   1  14
BRANCH   5  21
ATOM     21  C   UNK d   1      41.410  11.253  47.227  0.00  0.00     0.298 C 
ATOM     22  O   UNK d   1      40.464  12.274  47.116  0.00  0.00    -0.356 OA
ATOM     23  C   UNK d   1      39.223  11.700  47.008  0.00  0.00     0.197 C 
ATOM     24  C   UNK d   1      39.400  10.388  47.724  0.00  0.00     0.197 C 
ATOM     25  O   UNK d   1      40.757  10.190  47.852  0.00  0.00    -0.356 OA
ENDBRANCH   5  21
TORSDOF 2
ENDMDL
