/Users/jonathanwahrer/Desktop/Msc/3_Semester/Drug_Design_Praktikum/waehrer_HTS_screening/HTS_experiment/out/docking_results/vina_output/2qfa/2136_docked.pdbqt
 OpenBabel03162221213D

 33 37  0  0  1  0  0  0  0  0999 V2000
   37.6510   12.9520   49.1200 Cl  0  0  0  0  0  0  0  0  0  0  0  0
   38.4480   11.5050   48.5400 C   0  0  0  0  0  0  0  0  0  0  0  0
   39.3740   11.5220   47.5170 C   0  0  0  0  0  0  0  0  0  0  0  0
   39.9880   10.3530   47.0810 C   0  0  0  0  0  0  0  0  0  0  0  0
   39.6280    9.1970   47.7160 C   0  0  0  0  0  3  0  0  0  0  0  0
   38.7090    9.1600   48.7380 C   0  0  0  0  0  3  0  0  0  0  0  0
   38.1090   10.3070   49.1620 C   0  0  0  0  0  3  0  0  0  0  0  0
   40.9100   10.7030   45.9940 C   0  0  2  0  0  0  0  0  0  0  0  0
   40.6020   10.0060   44.7580 N   0  0  0  0  0  0  0  0  0  0  0  0
   41.8290   10.2070   43.9830 C   0  0  1  0  0  3  0  0  0  0  0  0
   42.9540   10.1660   44.9460 C   0  0  2  0  0  3  0  0  0  0  0  0
   42.3050   10.2180   46.2910 C   0  0  1  0  0  3  0  0  0  0  0  0
   43.0650   11.1380   47.1420 C   0  0  0  0  0  0  0  0  0  0  0  0
   42.9410   11.2030   48.3900 O   0  0  0  0  0  0  0  0  0  0  0  0
   43.9170   11.8830   46.2810 N   0  0  0  0  0  0  0  0  0  0  0  0
   43.7480   11.4510   44.9370 C   0  0  0  0  0  0  0  0  0  0  0  0
   44.1610   11.9910   43.8750 O   0  0  0  0  0  0  0  0  0  0  0  0
   40.8050   12.1580   45.8040 C   0  0  0  0  0  0  0  0  0  0  0  0
   41.4020   12.8800   44.9920 O   0  0  0  0  0  0  0  0  0  0  0  0
   39.8570   12.6190   46.7560 N   0  0  0  0  0  0  0  0  0  0  0  0
   39.7700   10.4310   44.2640 H   0  0  0  0  0  0  0  0  0  0  0  0
   39.5410   13.6150   46.8980 H   0  0  0  0  0  0  0  0  0  0  0  0
   41.9780    9.1610   42.9200 C   0  0  0  0  0  2  0  0  0  0  0  0
   42.9490    8.1000   43.2350 C   0  0  0  0  0  0  0  0  0  0  0  0
   44.2790    8.3180   42.8830 C   0  0  0  0  0  3  0  0  0  0  0  0
   45.2110    7.3580   43.1810 C   0  0  0  0  0  3  0  0  0  0  0  0
   44.8940    6.1820   43.8170 C   0  0  0  0  0  3  0  0  0  0  0  0
   43.5690    6.0040   44.1490 C   0  0  0  0  0  3  0  0  0  0  0  0
   42.5910    6.9360   43.8720 C   0  0  0  0  0  3  0  0  0  0  0  0
   44.8260   12.9370   46.7250 C   0  0  0  0  0  2  0  0  0  0  0  0
   44.1130   14.2710   46.5580 C   0  0  0  0  0  2  0  0  0  0  0  0
   45.0100   15.2720   46.2220 O   0  0  0  0  0  0  0  0  0  0  0  0
   45.9130   14.7890   45.2960 C   0  0  0  0  0  1  0  0  0  0  0  0
  2  1  1  0  0  0  0
  2  7  1  0  0  0  0
  3  2  2  0  0  0  0
  4  3  1  0  0  0  0
  4  5  2  0  0  0  0
  5  6  1  0  0  0  0
  6  7  2  0  0  0  0
  8 18  1  6  0  0  0
  8 12  1  0  0  0  0
  8  4  1  0  0  0  0
  9  8  1  0  0  0  0
 10 23  1  6  0  0  0
 10  9  1  0  0  0  0
 10 11  1  0  0  0  0
 11 16  1  6  0  0  0
 11 12  1  0  0  0  0
 12 13  1  1  0  0  0
 13 14  2  0  0  0  0
 15 30  1  0  0  0  0
 15 13  1  0  0  0  0
 16 15  1  0  0  0  0
 17 16  2  0  0  0  0
 18 20  1  0  0  0  0
 19 18  2  0  0  0  0
 20 22  1  0  0  0  0
 20  3  1  0  0  0  0
 21  9  1  0  0  0  0
 23 24  1  0  0  0  0
 24 29  1  0  0  0  0
 25 26  1  0  0  0  0
 25 24  2  0  0  0  0
 26 27  2  0  0  0  0
 27 28  1  0  0  0  0
 29 28  2  0  0  0  0
 31 30  1  0  0  0  0
 32 31  1  0  0  0  0
 33 32  1  0  0  0  0
M  END
>  <Pose>
1

>  <Score>
-7.328

$$$$
