MODEL 1
REMARK VINA RESULT:    -7.328      0.000      0.000
REMARK INTER + INTRA:         -10.284
REMARK INTER:                  -9.470
REMARK INTRA:                  -0.814
REMARK UNBOUND:                -0.814
REMARK  5 active torsions:
REMARK  status: ('A' for Active; 'I' for Inactive)
REMARK    1  A    between atoms: C_10  and  C_22 
REMARK    2  A    between atoms: N_15  and  C_18 
REMARK    3  A    between atoms: C_18  and  C_19 
REMARK    4  A    between atoms: C_19  and  O_20 
REMARK    5  A    between atoms: C_22  and  C_23 
ROOT
ATOM      1 Cl   UNK d   1      37.651  12.952  49.120  0.00  0.00    -0.082 Cl
ATOM      2  C   UNK d   1      38.448  11.505  48.540  0.00  0.00     0.061 A 
ATOM      3  C   UNK d   1      39.374  11.522  47.517  0.00  0.00     0.066 A 
ATOM      4  C   UNK d   1      39.988  10.353  47.081  0.00  0.00     0.019 A 
ATOM      5  C   UNK d   1      39.628   9.197  47.716  0.00  0.00     0.013 A 
ATOM      6  C   UNK d   1      38.709   9.160  48.738  0.00  0.00     0.002 A 
ATOM      7  C   UNK d   1      38.109  10.307  49.162  0.00  0.00     0.026 A 
ATOM      8  C   UNK d   1      40.910  10.703  45.994  0.00  0.00     0.279 A 
ATOM      9  N   UNK d   1      40.602  10.006  44.758  0.00  0.00     0.114 N 
ATOM     10  C   UNK d   1      41.829  10.207  43.983  0.00  0.00     0.240 C 
ATOM     11  C   UNK d   1      42.954  10.166  44.946  0.00  0.00     0.128 C 
ATOM     12  C   UNK d   1      42.305  10.218  46.291  0.00  0.00     0.147 C 
ATOM     13  C   UNK d   1      43.065  11.138  47.142  0.00  0.00     0.235 C 
ATOM     14  O   UNK d   1      42.941  11.203  48.390  0.00  0.00    -0.272 OA
ATOM     15  N   UNK d   1      43.917  11.883  46.281  0.00  0.00    -0.286 N 
ATOM     16  C   UNK d   1      43.748  11.451  44.937  0.00  0.00     0.233 C 
ATOM     17  O   UNK d   1      44.161  11.991  43.875  0.00  0.00    -0.272 OA
ATOM     18  C   UNK d   1      40.805  12.158  45.804  0.00  0.00     0.267 A 
ATOM     19  O   UNK d   1      41.402  12.880  44.992  0.00  0.00    -0.270 OA
ATOM     20  N   UNK d   1      39.857  12.619  46.756  0.00  0.00    -0.323 N 
ATOM     21  H   UNK d   1      39.770  10.431  44.264  0.00  0.00     0.318 HD
ATOM     22  H   UNK d   1      39.541  13.615  46.898  0.00  0.00     0.169 HD
ENDROOT
BRANCH  10  23
ATOM     23  C   UNK d   1      41.978   9.161  42.920  0.00  0.00     0.075 C 
BRANCH  23  24
ATOM     24  C   UNK d   1      42.949   8.100  43.235  0.00  0.00    -0.056 A 
ATOM     25  C   UNK d   1      44.279   8.318  42.883  0.00  0.00     0.007 A 
ATOM     26  C   UNK d   1      45.211   7.358  43.181  0.00  0.00     0.001 A 
ATOM     27  C   UNK d   1      44.894   6.182  43.817  0.00  0.00     0.000 A 
ATOM     28  C   UNK d   1      43.569   6.004  44.149  0.00  0.00     0.001 A 
ATOM     29  C   UNK d   1      42.591   6.936  43.872  0.00  0.00     0.007 A 
ENDBRANCH  23  24
ENDBRANCH  10  23
BRANCH  15  30
ATOM     30  C   UNK d   1      44.826  12.937  46.725  0.00  0.00     0.161 C 
BRANCH  30  31
ATOM     31  C   UNK d   1      44.113  14.271  46.558  0.00  0.00     0.187 C 
BRANCH  31  32
ATOM     32  O   UNK d   1      45.010  15.272  46.222  0.00  0.00    -0.394 OA
ATOM     33  C   UNK d   1      45.913  14.789  45.296  0.00  0.00     0.201 C 
ENDBRANCH  31  32
ENDBRANCH  30  31
ENDBRANCH  15  30
TORSDOF 5
ENDMDL
