/Users/jonathanwahrer/Desktop/Msc/3_Semester/Drug_Design_Praktikum/waehrer_HTS_screening/HTS_experiment/out/docking_results/vina_output/2qfa/2139_docked.pdbqt
 OpenBabel03162221213D

 27 30  0  0  0  0  0  0  0  0999 V2000
   43.3520    7.8760   43.4840 N   0  0  0  0  0  0  0  0  0  0  0  0
   42.8450    7.5660   44.7610 C   0  0  0  0  0  2  0  0  0  0  0  0
   42.2530    8.7080   45.5430 C   0  0  0  0  0  2  0  0  0  0  0  0
   41.8760    9.7370   44.5390 N   0  0  0  0  0  0  0  0  0  0  0  0
   41.3350    9.2010   43.3480 C   0  0  0  0  0  2  0  0  0  0  0  0
   42.4700    8.5590   42.5810 C   0  0  0  0  0  2  0  0  0  0  0  0
   42.0730   11.0840   44.9120 C   0  0  0  0  0  0  0  0  0  0  0  0
   43.2890   11.4660   45.4070 N   0  0  0  0  0  0  0  0  0  0  0  0
   43.5930   12.6880   45.8260 C   0  0  0  0  0  0  0  0  0  0  0  0
   42.6450   13.6390   45.7670 N   0  0  0  0  0  0  0  0  0  0  0  0
   41.4220   13.3200   45.2860 C   0  0  0  0  0  0  0  0  0  0  0  0
   40.3060   14.0480   45.1010 N   0  0  0  0  0  0  0  0  0  0  0  0
   41.0970   12.0360   44.8440 C   0  0  0  0  0  0  0  0  0  0  0  0
   39.3560   13.2710   44.5800 C   0  0  0  0  0  3  0  0  0  0  0  0
   39.8260   12.0230   44.4120 N   0  0  0  0  0  0  0  0  0  0  0  0
   39.2700   11.2380   44.0100 H   0  0  0  0  0  0  0  0  0  0  0  0
   44.9000   13.0240   46.3370 N   0  0  0  0  0  0  0  0  0  0  0  0
   45.6420   13.4020   45.7330 H   0  0  0  0  0  0  0  0  0  0  0  0
   45.1090   12.8860   47.3460 H   0  0  0  0  0  0  0  0  0  0  0  0
   44.7240    8.1930   43.3750 C   0  0  0  0  0  2  0  0  0  0  0  0
   45.6350    7.0700   43.1630 C   0  0  0  0  0  0  0  0  0  0  0  0
   45.4290    6.1830   42.1370 C   0  0  0  0  0  3  0  0  0  0  0  0
   46.2570    5.0950   41.8810 C   0  0  0  0  0  3  0  0  0  0  0  0
   47.3380    4.9190   42.7190 C   0  0  0  0  0  0  0  0  0  0  0  0
   48.4260    3.5700   42.4600 Cl  0  0  0  0  0  0  0  0  0  0  0  0
   47.5470    5.8060   43.7500 C   0  0  0  0  0  3  0  0  0  0  0  0
   46.7160    6.8750   43.9850 C   0  0  0  0  0  3  0  0  0  0  0  0
  1  2  1  0  0  0  0
  2  3  1  0  0  0  0
  4  7  1  0  0  0  0
  4  3  1  0  0  0  0
  5  4  1  0  0  0  0
  6  5  1  0  0  0  0
  6  1  1  0  0  0  0
  7  8  1  0  0  0  0
  8  9  2  0  0  0  0
  9 17  1  0  0  0  0
 10  9  1  0  0  0  0
 11 10  2  0  0  0  0
 12 11  1  0  0  0  0
 13  7  2  0  0  0  0
 13 11  1  0  0  0  0
 14 12  2  0  0  0  0
 15 14  1  0  0  0  0
 15 13  1  0  0  0  0
 16 15  1  0  0  0  0
 17 19  1  0  0  0  0
 18 17  1  0  0  0  0
 20  1  1  0  0  0  0
 21 20  1  0  0  0  0
 21 27  1  0  0  0  0
 22 21  2  0  0  0  0
 23 22  1  0  0  0  0
 23 24  2  0  0  0  0
 24 26  1  0  0  0  0
 25 24  1  0  0  0  0
 26 27  2  0  0  0  0
M  END
>  <Pose>
1

>  <Score>
-7.013

$$$$
