/Users/jonathanwahrer/Desktop/Msc/3_Semester/Drug_Design_Praktikum/waehrer_HTS_screening/HTS_experiment/out/docking_results/vina_output/2qfa/2149_docked.pdbqt
 OpenBabel03162221213D

 24 27  0  0  0  0  0  0  0  0999 V2000
   44.0840    7.1650   43.6830 N   0  0  0  0  0  0  0  0  0  0  0  0
   43.5680    6.2730   44.5080 N   0  0  0  0  0  0  0  0  0  0  0  0
   42.8580    6.8550   45.4560 N   0  0  0  0  0  0  0  0  0  0  0  0
   42.8960    8.1730   45.2660 C   0  0  0  0  0  0  0  0  0  0  0  0
   43.6720    8.3720   44.1440 C   0  0  0  0  0  0  0  0  0  0  0  0
   43.8680    9.6340   43.7350 N   0  0  0  0  0  0  0  0  0  0  0  0
   43.3250   10.6690   44.3980 C   0  0  0  0  0  3  0  0  0  0  0  0
   42.5720   10.4500   45.4910 N   0  0  0  0  0  0  0  0  0  0  0  0
   42.3150    9.2110   45.9850 C   0  0  0  0  0  0  0  0  0  0  0  0
   44.9280    6.9450   42.5090 C   0  0  0  0  0  2  0  0  0  0  0  0
   46.1040    6.1480   42.9430 C   0  0  0  0  0  0  0  0  0  0  0  0
   46.2870    4.9200   42.3680 C   0  0  0  0  0  3  0  0  0  0  0  0
   47.3580    4.1120   42.7140 C   0  0  0  0  0  3  0  0  0  0  0  0
   48.2550    4.5530   43.6540 C   0  0  0  0  0  0  0  0  0  0  0  0
   49.6220    3.5420   44.1090 Cl  0  0  0  0  0  0  0  0  0  0  0  0
   48.0610    5.7930   44.2290 C   0  0  0  0  0  3  0  0  0  0  0  0
   47.0000    6.5930   43.8860 C   0  0  0  0  0  3  0  0  0  0  0  0
   41.5270    8.9770   47.1270 N   0  0  0  0  0  0  0  0  0  0  0  0
   41.9970    8.6140   48.4370 C   0  0  0  0  0  2  0  0  0  0  0  0
   41.5560    9.6550   49.3970 C   0  0  0  0  0  2  0  0  0  0  0  0
   40.5230   10.5200   49.0090 N   0  0  0  0  0  0  0  0  0  0  0  0
   39.6600   10.1740   47.9610 C   0  0  0  0  0  2  0  0  0  0  0  0
   41.0700   11.8430   48.7670 C   0  0  0  0  0  1  0  0  0  0  0  0
   40.0930    9.0980   47.0380 C   0  0  0  0  0  2  0  0  0  0  0  0
  1  5  1  0  0  0  0
  1  2  1  0  0  0  0
  2  3  2  0  0  0  0
  4  3  1  0  0  0  0
  4  9  1  0  0  0  0
  5  4  2  0  0  0  0
  6  5  1  0  0  0  0
  6  7  2  0  0  0  0
  7  8  1  0  0  0  0
  8  9  2  0  0  0  0
  9 18  1  0  0  0  0
 10 11  1  0  0  0  0
 10  1  1  0  0  0  0
 11 17  1  0  0  0  0
 12 13  1  0  0  0  0
 12 11  2  0  0  0  0
 13 14  2  0  0  0  0
 14 15  1  0  0  0  0
 14 16  1  0  0  0  0
 17 16  2  0  0  0  0
 18 19  1  0  0  0  0
 19 20  1  0  0  0  0
 21 20  1  0  0  0  0
 22 21  1  0  0  0  0
 23 21  1  0  0  0  0
 24 18  1  0  0  0  0
 24 22  1  0  0  0  0
M  END
>  <Pose>
1

>  <Score>
-6.937

$$$$
