MODEL 1
REMARK VINA RESULT:    -6.937      0.000      0.000
REMARK INTER + INTRA:          -8.808
REMARK INTER:                  -8.153
REMARK INTRA:                  -0.655
REMARK UNBOUND:                -0.655
REMARK  3 active torsions:
REMARK  status: ('A' for Active; 'I' for Inactive)
REMARK    1  A    between atoms: C_5  and  C_8 
REMARK    2  A    between atoms: C_8  and  N_9 
REMARK    3  A    between atoms: C_17  and  N_18 
ROOT
ATOM      1  N   UNK d   1      44.084   7.165  43.683  0.00  0.00    -0.227 N 
ATOM      2  N   UNK d   1      43.568   6.273  44.508  0.00  0.00    -0.063 NA
ATOM      3  N   UNK d   1      42.858   6.855  45.456  0.00  0.00    -0.124 NA
ATOM      4  C   UNK d   1      42.896   8.173  45.266  0.00  0.00     0.173 A 
ATOM      5  C   UNK d   1      43.672   8.372  44.144  0.00  0.00     0.183 A 
ATOM      6  N   UNK d   1      43.868   9.634  43.735  0.00  0.00    -0.220 NA
ATOM      7  C   UNK d   1      43.325  10.669  44.398  0.00  0.00     0.237 A 
ATOM      8  N   UNK d   1      42.572  10.450  45.491  0.00  0.00    -0.222 NA
ATOM      9  C   UNK d   1      42.315   9.211  45.985  0.00  0.00     0.162 A 
ENDROOT
BRANCH   1  10
ATOM     10  C   UNK d   1      44.928   6.945  42.509  0.00  0.00     0.193 C 
BRANCH  10  11
ATOM     11  C   UNK d   1      46.104   6.148  42.943  0.00  0.00    -0.038 A 
ATOM     12  C   UNK d   1      46.287   4.920  42.368  0.00  0.00     0.010 A 
ATOM     13  C   UNK d   1      47.358   4.112  42.714  0.00  0.00     0.024 A 
ATOM     14  C   UNK d   1      48.255   4.553  43.654  0.00  0.00     0.034 A 
ATOM     15 Cl   UNK d   1      49.622   3.542  44.109  0.00  0.00    -0.084 Cl
ATOM     16  C   UNK d   1      48.061   5.793  44.229  0.00  0.00     0.024 A 
ATOM     17  C   UNK d   1      47.000   6.593  43.886  0.00  0.00     0.010 A 
ENDBRANCH  10  11
ENDBRANCH   1  10
BRANCH   9  18
ATOM     18  N   UNK d   1      41.527   8.977  47.127  0.00  0.00    -0.360 N 
ATOM     19  C   UNK d   1      41.997   8.614  48.437  0.00  0.00     0.154 C 
ATOM     20  C   UNK d   1      41.556   9.655  49.397  0.00  0.00     0.291 C 
ATOM     21  N   UNK d   1      40.523  10.520  49.009  0.00  0.00     0.087 N 
ATOM     22  C   UNK d   1      39.660  10.174  47.961  0.00  0.00     0.291 C 
ATOM     23  C   UNK d   1      41.070  11.843  48.767  0.00  0.00     0.310 C 
ATOM     24  C   UNK d   1      40.093   9.098  47.038  0.00  0.00     0.154 C 
ENDBRANCH   9  18
TORSDOF 3
ENDMDL
