/Users/jonathanwahrer/Desktop/Msc/3_Semester/Drug_Design_Praktikum/waehrer_HTS_screening/HTS_experiment/out/docking_results/vina_output/2qfa/2164_docked.pdbqt
 OpenBabel03162221223D

 25 28  0  0  1  0  0  0  0  0999 V2000
   45.7030    5.7670   42.7320 C   0  0  2  0  0  3  0  0  0  0  0  0
   45.0410    7.0990   42.4950 C   0  0  0  0  0  2  0  0  0  0  0  0
   44.3100    6.9950   43.7660 N   0  0  0  0  0  0  0  0  0  0  0  0
   44.5930    5.5720   43.7230 C   0  0  0  0  0  2  0  0  0  0  0  0
   47.0750    5.8670   43.3410 C   0  0  0  0  0  0  0  0  0  0  0  0
   47.5590    4.8000   44.1140 N   0  0  0  0  0  0  0  0  0  0  0  0
   46.9260    3.9280   44.2480 H   0  0  0  0  0  0  0  0  0  0  0  0
   47.6800    6.9220   43.1020 O   0  0  0  0  0  0  0  0  0  0  0  0
   48.8180    4.7560   44.7440 C   0  0  0  0  0  0  0  0  0  0  0  0
   49.7570    3.8010   44.3260 C   0  0  0  0  0  3  0  0  0  0  0  0
   51.0080    3.6890   44.8860 C   0  0  0  0  0  0  0  0  0  0  0  0
   52.2520    2.3760   44.2880 Br  0  0  0  0  0  0  0  0  0  0  0  0
   51.3750    4.5310   45.8930 C   0  0  0  0  0  3  0  0  0  0  0  0
   50.4850    5.4650   46.3170 C   0  0  0  0  0  3  0  0  0  0  0  0
   49.2120    5.5870   45.7540 C   0  0  0  0  0  3  0  0  0  0  0  0
   43.6480    7.9380   44.5990 C   0  0  0  0  0  0  0  0  0  0  0  0
   43.9180    8.0450   45.9260 N   0  0  0  0  0  0  0  0  0  0  0  0
   43.2680    8.9590   46.7050 C   0  0  0  0  0  3  0  0  0  0  0  0
   42.3460    9.7770   46.1880 N   0  0  0  0  0  0  0  0  0  0  0  0
   42.0300    9.7260   44.8930 C   0  0  0  0  0  0  0  0  0  0  0  0
   41.1540   10.4260   44.1450 N   0  0  0  0  0  0  0  0  0  0  0  0
   42.6880    8.8010   44.1080 C   0  0  0  0  0  0  0  0  0  0  0  0
   41.2540    9.9580   42.9200 N   0  0  0  0  0  0  0  0  0  0  0  0
   40.2570   11.4970   44.5750 C   0  0  0  0  0  1  0  0  0  0  0  0
   42.1670    8.9820   42.8650 N   0  0  0  0  0  0  0  0  0  0  0  0
  1  5  1  1  0  0  0
  1  4  1  0  0  0  0
  2  1  1  0  0  0  0
  2  3  1  0  0  0  0
  3 16  1  0  0  0  0
  4  3  1  0  0  0  0
  5  6  1  0  0  0  0
  6  7  1  0  0  0  0
  6  9  1  0  0  0  0
  8  5  2  0  0  0  0
  9 15  1  0  0  0  0
 10  9  2  0  0  0  0
 10 11  1  0  0  0  0
 11 13  2  0  0  0  0
 12 11  1  0  0  0  0
 13 14  1  0  0  0  0
 15 14  2  0  0  0  0
 16 17  1  0  0  0  0
 17 18  2  0  0  0  0
 19 18  1  0  0  0  0
 20 19  2  0  0  0  0
 21 24  1  0  0  0  0
 21 20  1  0  0  0  0
 22 16  2  0  0  0  0
 22 20  1  0  0  0  0
 23 21  1  0  0  0  0
 25 23  2  0  0  0  0
 25 22  1  0  0  0  0
M  END
>  <Pose>
1

>  <Score>
-7.372

$$$$
