MODEL 1
REMARK VINA RESULT:    -7.372      0.000      0.000
REMARK INTER + INTRA:          -8.954
REMARK INTER:                  -8.665
REMARK INTRA:                  -0.289
REMARK UNBOUND:                -0.289
REMARK  3 active torsions:
REMARK  status: ('A' for Active; 'I' for Inactive)
REMARK    1  A    between atoms: C_4  and  N_8 
REMARK       I    between atoms: N_8  and  C_9 
REMARK    2  A    between atoms: C_9  and  C_11 
REMARK    3  A    between atoms: N_13  and  C_15 
ROOT
ATOM      1  C   UNK d   1      45.703   5.767  42.732  0.00  0.00     0.114 C 
ATOM      2  C   UNK d   1      45.041   7.099  42.495  0.00  0.00     0.140 C 
ATOM      3  N   UNK d   1      44.310   6.995  43.766  0.00  0.00    -0.362 N 
ATOM      4  C   UNK d   1      44.593   5.572  43.723  0.00  0.00     0.140 C 
ENDROOT
BRANCH   1   5
ATOM      5  C   UNK d   1      47.075   5.867  43.341  0.00  0.00     0.229 C 
ATOM      6  N   UNK d   1      47.559   4.800  44.114  0.00  0.00    -0.327 N 
ATOM      7  H   UNK d   1      46.926   3.928  44.248  0.00  0.00     0.169 HD
ATOM      8  O   UNK d   1      47.680   6.922  43.102  0.00  0.00    -0.273 OA
BRANCH   6   9
ATOM      9  C   UNK d   1      48.818   4.756  44.744  0.00  0.00     0.035 A 
ATOM     10  C   UNK d   1      49.757   3.801  44.326  0.00  0.00     0.048 A 
ATOM     11  C   UNK d   1      51.008   3.689  44.886  0.00  0.00     0.013 A 
ATOM     12 Br   UNK d   1      52.252   2.376  44.288  0.00  0.00    -0.051 Br
ATOM     13  C   UNK d   1      51.375   4.531  45.893  0.00  0.00     0.019 A 
ATOM     14  C   UNK d   1      50.485   5.465  46.317  0.00  0.00     0.004 A 
ATOM     15  C   UNK d   1      49.212   5.587  45.754  0.00  0.00     0.029 A 
ENDBRANCH   6   9
ENDBRANCH   1   5
BRANCH   3  16
ATOM     16  C   UNK d   1      43.648   7.938  44.599  0.00  0.00     0.162 A 
ATOM     17  N   UNK d   1      43.918   8.045  45.926  0.00  0.00    -0.222 NA
ATOM     18  C   UNK d   1      43.268   8.959  46.705  0.00  0.00     0.237 A 
ATOM     19  N   UNK d   1      42.346   9.777  46.188  0.00  0.00    -0.220 NA
ATOM     20  C   UNK d   1      42.030   9.726  44.893  0.00  0.00     0.183 A 
ATOM     21  N   UNK d   1      41.154  10.426  44.145  0.00  0.00    -0.236 N 
ATOM     22  C   UNK d   1      42.688   8.801  44.108  0.00  0.00     0.173 A 
ATOM     23  N   UNK d   1      41.254   9.958  42.920  0.00  0.00    -0.064 NA
ATOM     24  C   UNK d   1      40.257  11.497  44.575  0.00  0.00     0.183 C 
ATOM     25  N   UNK d   1      42.167   8.982  42.865  0.00  0.00    -0.124 NA
ENDBRANCH   3  16
TORSDOF 3
ENDMDL
