MODEL 1
REMARK VINA RESULT:    -6.824      0.000      0.000
REMARK INTER + INTRA:          -9.491
REMARK INTER:                  -8.420
REMARK INTRA:                  -1.071
REMARK UNBOUND:                -1.071
REMARK  4 active torsions:
REMARK  status: ('A' for Active; 'I' for Inactive)
REMARK    1  A    between atoms: C_5  and  C_8 
REMARK    2  A    between atoms: C_8  and  C_10 
REMARK    3  A    between atoms: C_10  and  N_11 
REMARK    4  A    between atoms: C_26  and  N_27 
ROOT
ATOM      1  N   UNK d   1      41.492  11.805  45.483  0.00  0.00    -0.092 N 
ATOM      2  N   UNK d   1      40.534  12.206  46.291  0.00  0.00    -0.056 N 
ATOM      3  C   UNK d   1      39.700  11.206  46.609  0.00  0.00     0.767 A 
ATOM      4  N   UNK d   1      38.730  11.635  47.432  0.00  0.00    -0.040 NA
ATOM      5  C   UNK d   1      38.913  12.951  47.674  0.00  0.00     0.188 A 
ATOM      6  C   UNK d   1      40.057  13.298  46.946  0.00  0.00     0.190 A 
ATOM      7  C   UNK d   1      40.431  14.621  47.041  0.00  0.00     0.284 A 
ATOM      8  O   UNK d   1      41.461  14.983  46.396  0.00  0.00    -0.265 OA
ATOM      9  N   UNK d   1      39.761  15.544  47.782  0.00  0.00    -0.269 N 
ATOM     10  C   UNK d   1      38.675  15.131  48.452  0.00  0.00     0.332 A 
ATOM     11  O   UNK d   1      38.060  16.011  49.140  0.00  0.00    -0.246 OA
ATOM     12  N   UNK d   1      38.248  13.861  48.406  0.00  0.00    -0.285 N 
ATOM     13  C   UNK d   1      37.075  13.483  49.146  0.00  0.00     0.163 C 
ATOM     14  C   UNK d   1      40.222  16.913  47.830  0.00  0.00     0.164 C 
ATOM     15  N   UNK d   1      40.179  10.122  45.948  0.00  0.00     0.132 NA
ATOM     16  C   UNK d   1      41.271  10.474  45.256  0.00  0.00     0.736 A 
ENDROOT
BRANCH   1  17
ATOM     17  C   UNK d   1      42.588  12.542  44.896  0.00  0.00     0.253 C 
BRANCH  17  18
ATOM     18  C   UNK d   1      43.748  12.691  45.792  0.00  0.00     0.179 C 
ATOM     19  O   UNK d   1      43.902  11.993  46.819  0.00  0.00    -0.290 OA
BRANCH  18  20
ATOM     20  C   UNK d   1      44.746  13.698  45.457  0.00  0.00     0.011 A 
ATOM     21  C   UNK d   1      45.055  14.742  46.303  0.00  0.00     0.017 A 
ATOM     22  C   UNK d   1      46.003  15.693  45.982  0.00  0.00     0.025 A 
ATOM     23  C   UNK d   1      46.687  15.629  44.775  0.00  0.00     0.034 A 
ATOM     24 Cl   UNK d   1      47.897  16.824  44.343  0.00  0.00    -0.084 Cl
ATOM     25  C   UNK d   1      46.392  14.592  43.915  0.00  0.00     0.025 A 
ATOM     26  C   UNK d   1      45.444  13.646  44.244  0.00  0.00     0.017 A 
ENDBRANCH  18  20
ENDBRANCH  17  18
ENDBRANCH   1  17
BRANCH  16  27
ATOM     27  N   UNK d   1      42.091   9.659  44.424  0.00  0.00    -0.210 N 
ATOM     28  C   UNK d   1      41.855   9.542  42.995  0.00  0.00     0.167 C 
ATOM     29  C   UNK d   1      42.103   8.106  42.605  0.00  0.00     0.188 C 
ATOM     30  O   UNK d   1      43.394   7.718  42.996  0.00  0.00    -0.388 OA
ATOM     31  C   UNK d   1      43.510   7.631  44.366  0.00  0.00     0.188 C 
ATOM     32  C   UNK d   1      43.188   8.933  45.009  0.00  0.00     0.167 C 
ENDBRANCH  16  27
TORSDOF 4
ENDMDL
