/Users/jonathanwahrer/Desktop/Msc/3_Semester/Drug_Design_Praktikum/waehrer_HTS_screening/HTS_experiment/out/docking_results/vina_output/2qfa/2170_docked.pdbqt
 OpenBabel03162221223D

 32 36  0  0  0  0  0  0  0  0999 V2000
   41.4920   11.8050   45.4830 N   0  0  0  0  0  0  0  0  0  0  0  0
   40.5340   12.2060   46.2910 N   0  0  0  0  0  0  0  0  0  0  0  0
   39.7000   11.2060   46.6090 C   0  0  0  0  0  0  0  0  0  0  0  0
   38.7300   11.6350   47.4320 N   0  0  0  0  0  0  0  0  0  0  0  0
   38.9130   12.9510   47.6740 C   0  0  0  0  0  0  0  0  0  0  0  0
   40.0570   13.2980   46.9460 C   0  0  0  0  0  0  0  0  0  0  0  0
   40.4310   14.6210   47.0410 C   0  0  0  0  0  0  0  0  0  0  0  0
   41.4610   14.9830   46.3960 O   0  0  0  0  0  0  0  0  0  0  0  0
   39.7610   15.5440   47.7820 N   0  0  0  0  0  0  0  0  0  0  0  0
   38.6750   15.1310   48.4520 C   0  0  0  0  0  0  0  0  0  0  0  0
   38.0600   16.0110   49.1400 O   0  0  0  0  0  0  0  0  0  0  0  0
   38.2480   13.8610   48.4060 N   0  0  0  0  0  0  0  0  0  0  0  0
   37.0750   13.4830   49.1460 C   0  0  0  0  0  1  0  0  0  0  0  0
   40.2220   16.9130   47.8300 C   0  0  0  0  0  1  0  0  0  0  0  0
   40.1790   10.1220   45.9480 N   0  0  0  0  0  0  0  0  0  0  0  0
   41.2710   10.4740   45.2560 C   0  0  0  0  0  0  0  0  0  0  0  0
   42.5880   12.5420   44.8960 C   0  0  0  0  0  2  0  0  0  0  0  0
   43.7480   12.6910   45.7920 C   0  0  0  0  0  0  0  0  0  0  0  0
   43.9020   11.9930   46.8190 O   0  0  0  0  0  0  0  0  0  0  0  0
   44.7460   13.6980   45.4570 C   0  0  0  0  0  0  0  0  0  0  0  0
   45.0550   14.7420   46.3030 C   0  0  0  0  0  3  0  0  0  0  0  0
   46.0030   15.6930   45.9820 C   0  0  0  0  0  3  0  0  0  0  0  0
   46.6870   15.6290   44.7750 C   0  0  0  0  0  0  0  0  0  0  0  0
   47.8970   16.8240   44.3430 Cl  0  0  0  0  0  0  0  0  0  0  0  0
   46.3920   14.5920   43.9150 C   0  0  0  0  0  3  0  0  0  0  0  0
   45.4440   13.6460   44.2440 C   0  0  0  0  0  3  0  0  0  0  0  0
   42.0910    9.6590   44.4240 N   0  0  0  0  0  0  0  0  0  0  0  0
   41.8550    9.5420   42.9950 C   0  0  0  0  0  2  0  0  0  0  0  0
   42.1030    8.1060   42.6050 C   0  0  0  0  0  2  0  0  0  0  0  0
   43.3940    7.7180   42.9960 O   0  0  0  0  0  0  0  0  0  0  0  0
   43.5100    7.6310   44.3660 C   0  0  0  0  0  2  0  0  0  0  0  0
   43.1880    8.9330   45.0090 C   0  0  0  0  0  2  0  0  0  0  0  0
  1  2  1  0  0  0  0
  2  3  1  0  0  0  0
  2  6  1  0  0  0  0
  3  4  2  0  0  0  0
  4  5  1  0  0  0  0
  5 12  1  0  0  0  0
  6  7  1  0  0  0  0
  6  5  2  0  0  0  0
  7  9  1  0  0  0  0
  8  7  2  0  0  0  0
  9 14  1  0  0  0  0
  9 10  1  0  0  0  0
 10 11  2  0  0  0  0
 12 10  1  0  0  0  0
 12 13  1  0  0  0  0
 15  3  1  0  0  0  0
 16  1  1  0  0  0  0
 16 15  2  0  0  0  0
 17  1  1  0  0  0  0
 17 18  1  0  0  0  0
 18 19  2  0  0  0  0
 20 18  1  0  0  0  0
 20 21  1  0  0  0  0
 22 21  2  0  0  0  0
 23 22  1  0  0  0  0
 24 23  1  0  0  0  0
 25 26  1  0  0  0  0
 25 23  2  0  0  0  0
 26 20  2  0  0  0  0
 27 32  1  0  0  0  0
 27 16  1  0  0  0  0
 28 27  1  0  0  0  0
 29 28  1  0  0  0  0
 29 30  1  0  0  0  0
 30 31  1  0  0  0  0
 31 32  1  0  0  0  0
M  END
>  <Pose>
1

>  <Score>
-6.824

$$$$
