MODEL 1
REMARK VINA RESULT:    -9.057      0.000      0.000
REMARK INTER + INTRA:         -10.376
REMARK INTER:                 -10.116
REMARK INTRA:                  -0.260
REMARK UNBOUND:                -0.260
REMARK  2 active torsions:
REMARK  status: ('A' for Active; 'I' for Inactive)
REMARK    1  A    between atoms: C_10  and  N_11 
REMARK    2  A    between atoms: N_14  and  C_17 
ROOT
ATOM      1  N   UNK d   1      45.141   6.122  43.655  0.00  0.00    -0.384 N 
ATOM      2  C   UNK d   1      45.747   7.432  43.692  0.00  0.00     0.142 C 
ATOM      3  C   UNK d   1      44.707   8.443  43.285  0.00  0.00     0.144 C 
ATOM      4  N   UNK d   1      43.420   8.227  43.917  0.00  0.00    -0.362 N 
ATOM      5  C   UNK d   1      42.849   6.895  43.900  0.00  0.00     0.144 C 
ATOM      6  C   UNK d   1      43.900   5.922  44.367  0.00  0.00     0.142 C 
ENDROOT
BRANCH   1   7
ATOM      7  C   UNK d   1      45.807   5.102  42.924  0.00  0.00     0.134 C 
ATOM      8  C   UNK d   1      46.989   4.612  43.219  0.00  0.00     0.124 A 
ATOM      9  N   UNK d   1      47.752   5.060  44.334  0.00  0.00    -0.340 N 
ATOM     10  N   UNK d   1      47.550   3.591  42.407  0.00  0.00    -0.308 N 
ATOM     11  C   UNK d   1      49.031   4.553  44.682  0.00  0.00     0.049 A 
ATOM     12  H   UNK d   1      47.327   5.809  44.920  0.00  0.00     0.167 HD
ATOM     13  C   UNK d   1      49.584   3.561  43.898  0.00  0.00     0.060 A 
ATOM     14  C   UNK d   1      49.773   4.985  45.761  0.00  0.00     0.032 A 
ATOM     15  C   UNK d   1      50.819   3.031  44.186  0.00  0.00     0.043 A 
ATOM     16  C   UNK d   1      48.817   3.073  42.734  0.00  0.00     0.259 A 
ATOM     17  C   UNK d   1      51.546   3.475  45.269  0.00  0.00     0.035 A 
ATOM     18 Cl   UNK d   1      53.130   2.768  45.604  0.00  0.00    -0.084 Cl
ATOM     19  C   UNK d   1      51.011   4.465  46.062  0.00  0.00     0.026 A 
ATOM     20  O   UNK d   1      49.382   2.158  42.052  0.00  0.00    -0.267 OA
ATOM     21  H   UNK d   1      47.051   3.209  41.572  0.00  0.00     0.170 HD
ENDBRANCH   1   7
BRANCH   4  22
ATOM     22  C   UNK d   1      42.739   9.319  44.539  0.00  0.00     0.142 A 
ATOM     23  N   UNK d   1      42.795   9.440  45.880  0.00  0.00    -0.224 NA
ATOM     24  C   UNK d   1      42.160  10.466  46.514  0.00  0.00     0.237 A 
ATOM     25  N   UNK d   1      41.460  11.383  45.811  0.00  0.00    -0.222 NA
ATOM     26  C   UNK d   1      41.368  11.316  44.479  0.00  0.00     0.162 A 
ATOM     27  N   UNK d   1      40.752  12.075  43.554  0.00  0.00    -0.256 N 
ATOM     28  C   UNK d   1      42.024  10.259  43.845  0.00  0.00     0.076 A 
ATOM     29  N   UNK d   1      40.998  11.536  42.374  0.00  0.00    -0.182 NA
ATOM     30  C   UNK d   1      39.951  13.282  43.782  0.00  0.00     0.182 C 
ATOM     31  C   UNK d   1      41.773  10.425  42.519  0.00  0.00     0.158 A 
ENDBRANCH   4  22
TORSDOF 2
ENDMDL
