/Users/jonathanwahrer/Desktop/Msc/3_Semester/Drug_Design_Praktikum/waehrer_HTS_screening/HTS_experiment/out/docking_results/vina_output/2qfa/2195_docked.pdbqt
 OpenBabel03162221233D

 29 32  0  0  1  0  0  0  0  0999 V2000
   42.9690   10.3450   44.4300 C   0  0  0  0  0  0  0  0  0  0  0  0
   43.9060    9.5400   43.9340 N   0  0  0  0  0  0  0  0  0  0  0  0
   43.9140    8.2190   44.1860 C   0  0  0  0  0  0  0  0  0  0  0  0
   44.7300    7.1950   43.8160 N   0  0  0  0  0  0  0  0  0  0  0  0
   44.2390    6.1080   44.3720 N   0  0  0  0  0  0  0  0  0  0  0  0
   43.1550    6.3740   45.0770 N   0  0  0  0  0  0  0  0  0  0  0  0
   42.9140    7.6870   44.9890 C   0  0  0  0  0  0  0  0  0  0  0  0
   41.9340    8.5130   45.5120 C   0  0  0  0  0  0  0  0  0  0  0  0
   42.0160    9.8130   45.2010 N   0  0  0  0  0  0  0  0  0  0  0  0
   42.9240   11.8090   44.1660 C   0  0  1  0  0  3  0  0  0  0  0  0
   41.6920   12.4810   44.5840 C   0  0  0  0  0  2  0  0  0  0  0  0
   41.6760   13.3310   45.6880 N   0  0  0  0  0  0  0  0  0  0  0  0
   42.7430   13.3910   46.5730 C   0  0  0  0  0  2  0  0  0  0  0  0
   43.9220   12.5130   46.2680 C   0  0  0  0  0  2  0  0  0  0  0  0
   44.1350   12.4470   44.7980 C   0  0  0  0  0  2  0  0  0  0  0  0
   40.1300   13.6780   46.2910 S   0  0  0  0  0  0  0  0  0  0  0  0
   39.8860   15.1330   46.4830 O   0  0  0  0  0  0  0  0  0  0  0  0
   39.9570   12.9320   47.5980 O   0  0  0  0  0  0  0  0  0  0  0  0
   38.8540   13.0270   45.2030 C   0  0  0  0  0  1  0  0  0  0  0  0
   40.9260    7.9990   46.3170 O   0  0  0  0  0  0  0  0  0  0  0  0
   40.8790    7.0080   46.4980 H   0  0  0  0  0  0  0  0  0  0  0  0
   45.8900    7.2930   42.9860 C   0  0  0  0  0  2  0  0  0  0  0  0
   46.8060    6.1320   43.1050 C   0  0  0  0  0  0  0  0  0  0  0  0
   46.7990    5.1880   42.1090 C   0  0  0  0  0  0  0  0  0  0  0  0
   47.6260    4.0680   42.1420 C   0  0  0  0  0  3  0  0  0  0  0  0
   45.7270    5.3650   40.7360 Cl  0  0  0  0  0  0  0  0  0  0  0  0
   48.4880    3.8810   43.2010 C   0  0  0  0  0  3  0  0  0  0  0  0
   48.5020    4.8250   44.2040 C   0  0  0  0  0  3  0  0  0  0  0  0
   47.6700    5.9410   44.1600 C   0  0  0  0  0  3  0  0  0  0  0  0
  1  9  1  0  0  0  0
  2  3  1  0  0  0  0
  2  1  2  0  0  0  0
  3  7  2  0  0  0  0
  4  3  1  0  0  0  0
  4  5  1  0  0  0  0
  5  6  2  0  0  0  0
  7  6  1  0  0  0  0
  7  8  1  0  0  0  0
  8 20  1  0  0  0  0
  9  8  2  0  0  0  0
 10  1  1  1  0  0  0
 10 11  1  0  0  0  0
 10 15  1  0  0  0  0
 11 12  1  0  0  0  0
 12 16  1  0  0  0  0
 12 13  1  0  0  0  0
 14 13  1  0  0  0  0
 15 14  1  0  0  0  0
 16 17  2  0  0  0  0
 16 18  2  0  0  0  0
 19 16  1  0  0  0  0
 20 21  1  0  0  0  0
 22 23  1  0  0  0  0
 22  4  1  0  0  0  0
 23 29  1  0  0  0  0
 24 25  1  0  0  0  0
 24 23  2  0  0  0  0
 25 27  2  0  0  0  0
 26 24  1  0  0  0  0
 27 28  1  0  0  0  0
 29 28  2  0  0  0  0
M  END
>  <Pose>
1

>  <Score>
-7.731

$$$$
