MODEL 1
REMARK VINA RESULT:    -7.731      0.000      0.000
REMARK INTER + INTRA:         -10.516
REMARK INTER:                  -9.764
REMARK INTRA:                  -0.752
REMARK UNBOUND:                -0.752
REMARK  5 active torsions:
REMARK  status: ('A' for Active; 'I' for Inactive)
REMARK    1  A    between atoms: S_1  and  N_4 
REMARK    2  A    between atoms: C_6  and  C_10 
REMARK    3  A    between atoms: N_13  and  C_20 
REMARK    4  A    between atoms: C_17  and  O_19 
REMARK    5  A    between atoms: C_20  and  C_21 
ROOT
ATOM      1  C   UNK d   1      42.969  10.345  44.430  0.00  0.00     0.137 A 
ATOM      2  N   UNK d   1      43.906   9.540  43.934  0.00  0.00    -0.211 NA
ATOM      3  C   UNK d   1      43.914   8.219  44.186  0.00  0.00     0.184 A 
ATOM      4  N   UNK d   1      44.730   7.195  43.816  0.00  0.00    -0.227 N 
ATOM      5  N   UNK d   1      44.239   6.108  44.372  0.00  0.00    -0.063 NA
ATOM      6  N   UNK d   1      43.155   6.374  45.077  0.00  0.00    -0.124 NA
ATOM      7  C   UNK d   1      42.914   7.687  44.989  0.00  0.00     0.180 A 
ATOM      8  C   UNK d   1      41.934   8.513  45.512  0.00  0.00     0.199 A 
ATOM      9  N   UNK d   1      42.016   9.813  45.201  0.00  0.00    -0.207 NA
ENDROOT
BRANCH   1  10
ATOM     10  C   UNK d   1      42.924  11.809  44.166  0.00  0.00     0.076 C 
ATOM     11  C   UNK d   1      41.692  12.481  44.584  0.00  0.00     0.147 C 
ATOM     12  N   UNK d   1      41.676  13.331  45.688  0.00  0.00    -0.310 N 
ATOM     13  C   UNK d   1      42.743  13.391  46.573  0.00  0.00     0.135 C 
ATOM     14  C   UNK d   1      43.922  12.513  46.268  0.00  0.00     0.021 C 
ATOM     15  C   UNK d   1      44.135  12.447  44.798  0.00  0.00     0.015 C 
BRANCH  12  16
ATOM     16  S   UNK d   1      40.130  13.678  46.291  0.00  0.00     0.224 S 
ATOM     17  O   UNK d   1      39.886  15.133  46.483  0.00  0.00    -0.206 OA
ATOM     18  O   UNK d   1      39.957  12.932  47.598  0.00  0.00    -0.206 OA
ATOM     19  C   UNK d   1      38.854  13.027  45.203  0.00  0.00     0.186 C 
ENDBRANCH  12  16
ENDBRANCH   1  10
BRANCH   8  20
ATOM     20  O   UNK d   1      40.926   7.999  46.317  0.00  0.00    -0.343 OA
ATOM     21  H   UNK d   1      40.879   7.008  46.498  0.00  0.00     0.219 HD
ENDBRANCH   8  20
BRANCH   4  22
ATOM     22  C   UNK d   1      45.890   7.293  42.986  0.00  0.00     0.195 C 
BRANCH  22  23
ATOM     23  C   UNK d   1      46.806   6.132  43.105  0.00  0.00    -0.017 A 
ATOM     24  C   UNK d   1      46.799   5.188  42.109  0.00  0.00     0.042 A 
ATOM     25  C   UNK d   1      47.626   4.068  42.142  0.00  0.00     0.024 A 
ATOM     26 Cl   UNK d   1      45.727   5.365  40.736  0.00  0.00    -0.084 Cl
ATOM     27  C   UNK d   1      48.488   3.881  43.201  0.00  0.00     0.002 A 
ATOM     28  C   UNK d   1      48.502   4.825  44.204  0.00  0.00     0.001 A 
ATOM     29  C   UNK d   1      47.670   5.941  44.160  0.00  0.00     0.010 A 
ENDBRANCH  22  23
ENDBRANCH   4  22
TORSDOF 5
ENDMDL
