MODEL 1
REMARK VINA RESULT:    -7.431      0.000      0.000
REMARK INTER + INTRA:          -8.198
REMARK INTER:                  -9.603
REMARK INTRA:                   1.405
REMARK UNBOUND:                 1.405
REMARK  5 active torsions:
REMARK  status: ('A' for Active; 'I' for Inactive)
REMARK    1  A    between atoms: S_1  and  N_4 
REMARK    2  A    between atoms: S_1  and  C_22 
REMARK    3  A    between atoms: C_6  and  C_10 
REMARK       I    between atoms: C_10  and  N_12 
REMARK    4  A    between atoms: N_15  and  C_18 
REMARK    5  A    between atoms: C_18  and  C_19 
ROOT
ATOM      1  N   UNK d   1      44.325  12.542  46.882  0.00  0.00    -0.202 NA
ATOM      2  C   UNK d   1      43.889  11.850  45.653  0.00  0.00     0.149 C 
ATOM      3  C   UNK d   1      42.421  12.038  45.540  0.00  0.00     0.227 C 
ATOM      4  O   UNK d   1      41.652  11.815  46.621  0.00  0.00    -0.374 OA
ATOM      5  C   UNK d   1      42.201  11.760  47.844  0.00  0.00     0.184 C 
ATOM      6  C   UNK d   1      43.686  11.841  47.934  0.00  0.00     0.134 C 
ENDROOT
BRANCH   3   7
ATOM      7  C   UNK d   1      41.954  11.168  44.422  0.00  0.00     0.250 C 
ATOM      8  O   UNK d   1      41.455  11.742  43.417  0.00  0.00    -0.270 OA
ATOM      9  N   UNK d   1      42.029   9.763  44.411  0.00  0.00    -0.347 N 
ATOM     10  C   UNK d   1      42.576   8.966  45.493  0.00  0.00     0.156 C 
ATOM     11  C   UNK d   1      41.548   8.974  43.267  0.00  0.00     0.156 C 
ATOM     12  C   UNK d   1      42.357   7.510  45.133  0.00  0.00     0.292 C 
ATOM     13  N   UNK d   1      43.033   7.129  43.906  0.00  0.00     0.091 N 
ATOM     14  C   UNK d   1      42.735   8.081  42.884  0.00  0.00     0.292 C 
BRANCH  13  15
ATOM     15  C   UNK d   1      44.421   6.957  44.194  0.00  0.00     0.277 C 
BRANCH  15  16
ATOM     16  C   UNK d   1      45.323   7.222  43.020  0.00  0.00     0.014 A 
ATOM     17  C   UNK d   1      46.135   5.997  42.599  0.00  0.00     0.007 A 
ATOM     18  C   UNK d   1      46.783   7.236  43.133  0.00  0.00     0.007 A 
ENDBRANCH  15  16
ENDBRANCH  13  15
ENDBRANCH   3   7
BRANCH   1  19
ATOM     19  S   UNK d   1      44.126  14.209  46.758  0.00  0.00     0.245 S 
ATOM     20  O   UNK d   1      42.874  14.458  45.906  0.00  0.00    -0.206 OA
ATOM     21  O   UNK d   1      43.809  14.878  48.074  0.00  0.00    -0.206 OA
BRANCH  19  22
ATOM     22  C   UNK d   1      45.420  15.012  45.928  0.00  0.00     0.096 A 
ATOM     23  C   UNK d   1      45.959  16.193  46.390  0.00  0.00     0.056 A 
ATOM     24  C   UNK d   1      46.950  16.869  45.705  0.00  0.00     0.025 A 
ATOM     25 Cl   UNK d   1      45.457  16.865  47.953  0.00  0.00    -0.083 Cl
ATOM     26  C   UNK d   1      47.426  16.357  44.524  0.00  0.00     0.002 A 
ATOM     27  C   UNK d   1      46.897  15.168  44.044  0.00  0.00     0.002 A 
ATOM     28  C   UNK d   1      45.916  14.505  44.726  0.00  0.00     0.026 A 
ENDBRANCH  19  22
ENDBRANCH   1  19
TORSDOF 5
ENDMDL
