/Users/jonathanwahrer/Desktop/Msc/3_Semester/Drug_Design_Praktikum/waehrer_HTS_screening/HTS_experiment/out/docking_results/vina_output/2qfa/2210_docked.pdbqt
 OpenBabel03162221243D

 33 36  0  0  0  0  0  0  0  0999 V2000
   44.0610   11.5260   43.9580 C   0  0  0  0  0  3  0  0  0  0  0  0
   43.5650   12.2160   44.9940 C   0  0  0  0  0  0  0  0  0  0  0  0
   42.4590   11.8170   45.7360 O   0  0  0  0  0  0  0  0  0  0  0  0
   42.2400   12.7540   46.7550 C   0  0  0  0  0  0  0  0  0  0  0  0
   43.1460   13.7700   46.7300 C   0  0  0  0  0  0  0  0  0  0  0  0
   43.1260   14.7860   47.6570 C   0  0  0  0  0  3  0  0  0  0  0  0
   42.1600   14.7910   48.6570 C   0  0  0  0  0  3  0  0  0  0  0  0
   41.2330   13.7470   48.6760 C   0  0  0  0  0  0  0  0  0  0  0  0
   41.2550   12.7480   47.7570 C   0  0  0  0  0  0  0  0  0  0  0  0
   40.2980   13.8250   49.7080 O   0  0  0  0  0  1  0  0  0  0  0  0
   44.0370   13.4550   45.5750 C   0  0  0  0  0  0  0  0  0  0  0  0
   44.9990   14.1270   45.1810 O   0  0  0  0  0  0  0  0  0  0  0  0
   40.2000   11.7240   47.6000 C   0  0  0  0  0  2  0  0  0  0  0  0
   40.5770   10.4590   48.0250 N   0  0  0  0  0  4  0  0  0  0  0  0
   40.2010    9.3970   47.0390 C   0  0  0  0  0  2  0  0  0  0  0  0
   41.4960    8.5640   46.8750 C   0  0  0  0  0  2  0  0  0  0  0  0
   42.3930    8.8690   47.9450 N   0  0  0  0  0  0  0  0  0  0  0  0
   41.8260    8.8620   49.2360 C   0  0  0  0  0  2  0  0  0  0  0  0
   40.6040    9.8800   49.2840 C   0  0  0  0  0  2  0  0  0  0  0  0
   41.6830   10.5270   47.7300 H   0  0  0  0  0  0  0  0  0  0  0  0
   43.7080    9.1580   47.6590 C   0  0  0  0  0  2  0  0  0  0  0  0
   44.7360    9.1700   48.7450 C   0  0  0  0  0  2  0  0  0  0  0  0
   45.8720    8.4330   48.3720 O   0  0  0  0  0  0  0  0  0  0  0  0
   45.6360    7.4480   48.3820 H   0  0  0  0  0  0  0  0  0  0  0  0
   43.3530   10.2720   43.6480 C   0  0  0  0  0  0  0  0  0  0  0  0
   43.9030    9.0950   44.0100 C   0  0  0  0  0  3  0  0  0  0  0  0
   43.2630    7.9040   43.6240 C   0  0  0  0  0  0  0  0  0  0  0  0
   44.0150    6.2260   44.1210 Br  0  0  0  0  0  0  0  0  0  0  0  0
   42.1020    7.9110   42.8920 C   0  0  0  0  0  3  0  0  0  0  0  0
   41.5710    9.1350   42.5350 C   0  0  0  0  0  3  0  0  0  0  0  0
   42.1900   10.3350   42.9120 C   0  0  0  0  0  0  0  0  0  0  0  0
   41.6590   11.5650   42.5540 O   0  0  0  0  0  0  0  0  0  0  0  0
   40.5160   12.1510   43.0710 C   0  0  0  0  0  1  0  0  0  0  0  0
  1  2  2  0  0  0  0
  2 11  1  0  0  0  0
  2  3  1  0  0  0  0
  3  4  1  0  0  0  0
  4  9  1  0  0  0  0
  5  4  2  0  0  0  0
  5  6  1  0  0  0  0
  6  7  2  0  0  0  0
  7  8  1  0  0  0  0
  8 10  1  0  0  0  0
  9  8  2  0  0  0  0
 11  5  1  0  0  0  0
 12 11  2  0  0  0  0
 13  9  1  0  0  0  0
 13 14  1  0  0  0  0
 14 19  1  0  0  0  0
 15 14  1  0  0  0  0
 16 15  1  0  0  0  0
 16 17  1  0  0  0  0
 17 18  1  0  0  0  0
 18 19  1  0  0  0  0
 20 14  1  0  0  0  0
 21 17  1  0  0  0  0
 21 22  1  0  0  0  0
 23 24  1  0  0  0  0
 23 22  1  0  0  0  0
 25  1  1  0  0  0  0
 25 26  1  0  0  0  0
 27 26  2  0  0  0  0
 27 28  1  0  0  0  0
 29 27  1  0  0  0  0
 30 29  2  0  0  0  0
 30 31  1  0  0  0  0
 31 25  2  0  0  0  0
 32 31  1  0  0  0  0
 32 33  1  0  0  0  0
M  END
>  <Pose>
1

>  <Score>
-6.201

$$$$
