MODEL 1
REMARK VINA RESULT:    -6.201      0.000      0.000
REMARK INTER + INTRA:         -10.205
REMARK INTER:                  -8.557
REMARK INTRA:                  -1.648
REMARK UNBOUND:                -1.648
REMARK  7 active torsions:
REMARK  status: ('A' for Active; 'I' for Inactive)
REMARK    1  A    between atoms: C_4  and  C_10 
REMARK    2  A    between atoms: C_5  and  O_8 
REMARK    3  A    between atoms: C_18  and  C_19 
REMARK    4  A    between atoms: C_19  and  N_20 
REMARK    5  A    between atoms: N_23  and  C_26 
REMARK    6  A    between atoms: C_26  and  C_27 
REMARK    7  A    between atoms: C_27  and  O_28 
ROOT
ATOM      1  C   UNK d   1      44.061  11.526  43.958  0.00  0.00     0.055 C 
ATOM      2  C   UNK d   1      43.565  12.216  44.994  0.00  0.00     0.128 A 
ATOM      3  O   UNK d   1      42.459  11.817  45.736  0.00  0.00    -0.305 OA
ATOM      4  C   UNK d   1      42.240  12.754  46.755  0.00  0.00     0.101 A 
ATOM      5  C   UNK d   1      43.146  13.770  46.730  0.00  0.00     0.051 A 
ATOM      6  C   UNK d   1      43.126  14.786  47.657  0.00  0.00     0.021 A 
ATOM      7  C   UNK d   1      42.160  14.791  48.657  0.00  0.00     0.041 A 
ATOM      8  C   UNK d   1      41.233  13.747  48.676  0.00  0.00     0.118 A 
ATOM      9  C   UNK d   1      41.255  12.748  47.757  0.00  0.00     0.039 A 
ATOM     10  O   UNK d   1      40.298  13.825  49.708  0.00  0.00    -0.191 OA
ATOM     11  C   UNK d   1      44.037  13.455  45.575  0.00  0.00     0.218 A 
ATOM     12  O   UNK d   1      44.999  14.127  45.181  0.00  0.00    -0.284 OA
ENDROOT
BRANCH   9  13
ATOM     13  C   UNK d   1      40.200  11.724  47.600  0.00  0.00     0.279 C 
BRANCH  13  14
ATOM     14  N   UNK d   1      40.577  10.459  48.025  0.00  0.00    -0.064 N 
ATOM     15  C   UNK d   1      40.201   9.397  47.039  0.00  0.00     0.254 C 
ATOM     16  C   UNK d   1      41.496   8.564  46.875  0.00  0.00     0.144 C 
ATOM     17  N   UNK d   1      42.393   8.869  47.945  0.00  0.00    -0.407 N 
ATOM     18  C   UNK d   1      41.826   8.862  49.236  0.00  0.00     0.144 C 
ATOM     19  C   UNK d   1      40.604   9.880  49.284  0.00  0.00     0.254 C 
ATOM     20  H   UNK d   1      41.683  10.527  47.730  0.00  0.00     0.280 HD
BRANCH  17  21
ATOM     21  C   UNK d   1      43.708   9.158  47.659  0.00  0.00     0.143 C 
BRANCH  21  22
ATOM     22  C   UNK d   1      44.736   9.170  48.745  0.00  0.00     0.183 C 
BRANCH  22  23
ATOM     23  O   UNK d   1      45.872   8.433  48.372  0.00  0.00    -0.399 OA
ATOM     24  H   UNK d   1      45.636   7.448  48.382  0.00  0.00     0.209 HD
ENDBRANCH  22  23
ENDBRANCH  21  22
ENDBRANCH  17  21
ENDBRANCH  13  14
ENDBRANCH   9  13
BRANCH   1  25
ATOM     25  C   UNK d   1      43.353  10.272  43.648  0.00  0.00     0.001 A 
ATOM     26  C   UNK d   1      43.903   9.095  44.010  0.00  0.00     0.033 A 
ATOM     27  C   UNK d   1      43.263   7.904  43.624  0.00  0.00     0.011 A 
ATOM     28 Br   UNK d   1      44.015   6.226  44.121  0.00  0.00    -0.051 Br
ATOM     29  C   UNK d   1      42.102   7.911  42.892  0.00  0.00     0.022 A 
ATOM     30  C   UNK d   1      41.571   9.135  42.535  0.00  0.00     0.039 A 
ATOM     31  C   UNK d   1      42.190  10.335  42.912  0.00  0.00     0.078 A 
BRANCH  31  32
ATOM     32  O   UNK d   1      41.659  11.565  42.554  0.00  0.00    -0.355 OA
ATOM     33  C   UNK d   1      40.516  12.151  43.071  0.00  0.00     0.210 C 
ENDBRANCH  31  32
ENDBRANCH   1  25
TORSDOF 7
ENDMDL
