MODEL 1
REMARK VINA RESULT:    -6.716      0.000      0.000
REMARK INTER + INTRA:          -6.972
REMARK INTER:                  -7.109
REMARK INTRA:                   0.137
REMARK UNBOUND:                 0.137
REMARK  1 active torsions:
REMARK  status: ('A' for Active; 'I' for Inactive)
REMARK    1  A    between atoms: C_9  and  C_21 
ROOT
ATOM      1 Cl   UNK d   1      42.260  16.536  48.779  0.00  0.00    -0.081 Cl
ATOM      2  C   UNK d   1      42.826  15.463  47.518  0.00  0.00     0.070 A 
ATOM      3  C   UNK d   1      41.927  14.518  47.001  0.00  0.00     0.107 A 
ATOM      4  C   UNK d   1      42.340  13.663  46.013  0.00  0.00    -0.007 A 
ATOM      5  C   UNK d   1      43.662  13.789  45.570  0.00  0.00     0.035 A 
ATOM      6  C   UNK d   1      44.535  14.720  46.086  0.00  0.00     0.036 A 
ATOM      7  C   UNK d   1      44.123  15.585  47.083  0.00  0.00     0.050 A 
ATOM      8 Cl   UNK d   1      46.193  14.858  45.513  0.00  0.00    -0.084 Cl
ATOM      9  C   UNK d   1      41.467  12.643  45.413  0.00  0.00     0.107 A 
ATOM     10  C   UNK d   1      40.123  12.677  46.015  0.00  0.00     0.075 A 
ATOM     11  C   UNK d   1      39.733  13.534  46.995  0.00  0.00     0.167 A 
ATOM     12  N   UNK d   1      38.473  13.523  47.519  0.00  0.00    -0.283 N 
ATOM     13  C   UNK d   1      37.613  12.630  47.035  0.00  0.00     0.332 A 
ATOM     14  O   UNK d   1      36.427  12.582  47.492  0.00  0.00    -0.246 OA
ATOM     15  N   UNK d   1      37.957  11.761  46.063  0.00  0.00    -0.270 N 
ATOM     16  C   UNK d   1      39.189  11.763  45.542  0.00  0.00     0.262 A 
ATOM     17  O   UNK d   1      39.511  10.954  44.635  0.00  0.00    -0.267 OA
ATOM     18  C   UNK d   1      36.969  10.809  45.574  0.00  0.00     0.164 C 
ATOM     19  C   UNK d   1      38.090  14.449  48.563  0.00  0.00     0.163 C 
ATOM     20  O   UNK d   1      40.632  14.444  47.479  0.00  0.00    -0.290 OA
ENDROOT
BRANCH   9  21
ATOM     21  C   UNK d   1      42.078  11.275  45.509  0.00  0.00     0.078 A 
ATOM     22  C   UNK d   1      42.232  10.630  46.711  0.00  0.00     0.197 A 
ATOM     23  N   UNK d   1      42.784   9.412  46.829  0.00  0.00    -0.281 N 
ATOM     24  O   UNK d   1      41.798  11.262  47.859  0.00  0.00    -0.171 OA
ATOM     25  C   UNK d   1      43.208   8.797  45.709  0.00  0.00     0.332 A 
ATOM     26  C   UNK d   1      42.929   8.754  48.114  0.00  0.00     0.163 C 
ATOM     27  O   UNK d   1      43.728   7.649  45.831  0.00  0.00    -0.246 OA
ATOM     28  N   UNK d   1      43.078   9.392  44.510  0.00  0.00    -0.270 N 
ATOM     29  C   UNK d   1      42.528  10.607  44.371  0.00  0.00     0.262 A 
ATOM     30  C   UNK d   1      43.550   8.691  43.338  0.00  0.00     0.164 C 
ATOM     31  O   UNK d   1      42.393  11.187  43.268  0.00  0.00    -0.267 OA
ENDBRANCH   9  21
TORSDOF 1
ENDMDL
