/Users/jonathanwahrer/Desktop/Msc/3_Semester/Drug_Design_Praktikum/waehrer_HTS_screening/HTS_experiment/out/docking_results/vina_output/2qfa/2225_docked.pdbqt
 OpenBabel03162221243D

 29 32  0  0  0  0  0  0  0  0999 V2000
   42.5180   10.1140   44.0350 C   0  0  0  0  0  0  0  0  0  0  0  0
   43.2200   10.5170   43.0120 O   0  0  0  0  0  0  0  0  0  0  0  0
   41.2870   10.7280   44.2020 N   0  0  0  0  0  0  0  0  0  0  0  0
   40.9010   11.7860   43.2180 C   0  0  0  0  0  2  0  0  0  0  0  0
   40.2490   12.8800   44.0240 C   0  0  0  0  0  2  0  0  0  0  0  0
   40.6030   12.8410   45.4310 N   0  0  0  0  0  0  0  0  0  0  0  0
   40.2280   11.6660   46.1710 C   0  0  0  0  0  2  0  0  0  0  0  0
   40.2770   10.4970   45.2010 C   0  0  0  0  0  2  0  0  0  0  0  0
   41.2910   13.9230   46.0190 C   0  0  0  0  0  0  0  0  0  0  0  0
   42.6460   14.0280   45.9370 N   0  0  0  0  0  0  0  0  0  0  0  0
   43.3360   15.0270   46.4710 C   0  0  0  0  0  0  0  0  0  0  0  0
   42.6360   15.9860   47.1300 N   0  0  0  0  0  0  0  0  0  0  0  0
   41.3220   15.9540   47.2520 C   0  0  0  0  0  3  0  0  0  0  0  0
   40.6040   14.9030   46.6900 C   0  0  0  0  0  3  0  0  0  0  0  0
   44.7450   15.1500   46.3940 N   0  0  0  0  0  0  0  0  0  0  0  0
   45.4440   16.0720   47.2840 C   0  0  0  0  0  2  0  0  0  0  0  0
   46.2950   16.9500   46.3610 C   0  0  0  0  0  2  0  0  0  0  0  0
   47.1830   16.1760   45.6640 O   0  0  0  0  0  0  0  0  0  0  0  0
   46.6120   15.2650   44.8080 C   0  0  0  0  0  2  0  0  0  0  0  0
   45.5580   14.4030   45.4670 C   0  0  0  0  0  2  0  0  0  0  0  0
   43.1780    9.0630   44.8330 C   0  0  0  0  0  2  0  0  0  0  0  0
   44.0180    8.2130   44.3630 O   0  0  0  0  0  0  0  0  0  0  0  0
   44.8480    7.3290   43.9120 C   0  0  0  0  0  0  0  0  0  0  0  0
   46.1330    7.6220   43.4070 C   0  0  0  0  0  3  0  0  0  0  0  0
   46.9620    6.6440   42.9480 C   0  0  0  0  0  3  0  0  0  0  0  0
   46.6020    5.3160   42.9430 C   0  0  0  0  0  0  0  0  0  0  0  0
   47.6760    4.0750   42.3490 Cl  0  0  0  0  0  0  0  0  0  0  0  0
   45.3520    5.0090   43.4310 C   0  0  0  0  0  3  0  0  0  0  0  0
   44.4970    5.9620   43.8990 C   0  0  0  0  0  3  0  0  0  0  0  0
  1  3  1  0  0  0  0
  1 21  1  0  0  0  0
  2  1  2  0  0  0  0
  3  8  1  0  0  0  0
  4  5  1  0  0  0  0
  4  3  1  0  0  0  0
  5  6  1  0  0  0  0
  6  9  1  0  0  0  0
  6  7  1  0  0  0  0
  8  7  1  0  0  0  0
  9 14  2  0  0  0  0
 10  9  1  0  0  0  0
 10 11  2  0  0  0  0
 11 12  1  0  0  0  0
 12 13  2  0  0  0  0
 14 13  1  0  0  0  0
 15 11  1  0  0  0  0
 15 16  1  0  0  0  0
 17 16  1  0  0  0  0
 18 17  1  0  0  0  0
 19 20  1  0  0  0  0
 19 18  1  0  0  0  0
 20 15  1  0  0  0  0
 22 21  1  0  0  0  0
 23 22  1  0  0  0  0
 24 23  2  0  0  0  0
 25 24  1  0  0  0  0
 26 25  2  0  0  0  0
 26 28  1  0  0  0  0
 27 26  1  0  0  0  0
 28 29  2  0  0  0  0
 29 23  1  0  0  0  0
M  END
>  <Pose>
1

>  <Score>
-7.542

$$$$
