/Users/jonathanwahrer/Desktop/Msc/3_Semester/Drug_Design_Praktikum/waehrer_HTS_screening/HTS_experiment/out/docking_results/vina_output/2qfa/2231_docked.pdbqt
 OpenBabel03162221253D

 27 31  0  0  0  0  0  0  0  0999 V2000
   46.2150    6.4050   43.1310 N   0  0  0  0  0  0  0  0  0  0  0  0
   46.4820    7.6650   42.8330 N   0  0  0  0  0  0  0  0  0  0  0  0
   45.4680    8.4590   43.1150 N   0  0  0  0  0  0  0  0  0  0  0  0
   44.4640    7.7280   43.6260 C   0  0  0  0  0  0  0  0  0  0  0  0
   44.9530    6.4370   43.6280 C   0  0  0  0  0  0  0  0  0  0  0  0
   44.1450    5.4590   44.0970 N   0  0  0  0  0  0  0  0  0  0  0  0
   42.9140    5.7750   44.5390 C   0  0  0  0  0  3  0  0  0  0  0  0
   42.4390    7.0450   44.5350 N   0  0  0  0  0  0  0  0  0  0  0  0
   43.2010    8.0560   44.0780 C   0  0  0  0  0  0  0  0  0  0  0  0
   42.7180    9.3990   44.0660 N   0  0  0  0  0  0  0  0  0  0  0  0
   43.1680   10.2580   45.1450 C   0  0  0  0  0  2  0  0  0  0  0  0
   43.1040   11.7270   44.7340 C   0  0  0  0  0  2  0  0  0  0  0  0
   41.9840   11.9860   43.9040 N   0  0  0  0  0  0  0  0  0  0  0  0
   42.0340   11.2400   42.6090 C   0  0  0  0  0  2  0  0  0  0  0  0
   40.9150   12.8170   44.1920 C   0  0  0  0  0  0  0  0  0  0  0  0
   41.8410    9.7890   43.0080 C   0  0  0  0  0  2  0  0  0  0  0  0
   40.0040   12.8770   43.2350 O   0  0  0  0  0  0  0  0  0  0  0  0
   40.5840   13.6430   45.3430 C   0  0  0  0  0  3  0  0  0  0  0  0
   39.1670   13.7490   45.7600 C   0  0  0  0  0  2  0  0  0  0  0  0
   40.2270   13.1990   46.6860 C   0  0  0  0  0  2  0  0  0  0  0  0
   47.0630    5.2790   42.9650 C   0  0  0  0  0  0  0  0  0  0  0  0
   46.9380    4.3560   41.9530 C   0  0  0  0  0  3  0  0  0  0  0  0
   47.7910    3.2800   41.8430 C   0  0  0  0  0  3  0  0  0  0  0  0
   48.8000    3.1060   42.7570 C   0  0  0  0  0  0  0  0  0  0  0  0
   49.8730    1.7480   42.6120 Cl  0  0  0  0  0  0  0  0  0  0  0  0
   48.9510    4.0050   43.7720 C   0  0  0  0  0  3  0  0  0  0  0  0
   48.0850    5.0780   43.8670 C   0  0  0  0  0  3  0  0  0  0  0  0
  1  5  1  0  0  0  0
  2  3  2  0  0  0  0
  2  1  1  0  0  0  0
  3  4  1  0  0  0  0
  4  5  2  0  0  0  0
  4  9  1  0  0  0  0
  5  6  1  0  0  0  0
  6  7  2  0  0  0  0
  8  7  1  0  0  0  0
  9  8  2  0  0  0  0
 10  9  1  0  0  0  0
 10 11  1  0  0  0  0
 12 11  1  0  0  0  0
 13 15  1  0  0  0  0
 13 12  1  0  0  0  0
 14 16  1  0  0  0  0
 14 13  1  0  0  0  0
 15 18  1  0  0  0  0
 16 10  1  0  0  0  0
 17 15  2  0  0  0  0
 18 19  1  0  0  0  0
 18 20  1  0  0  0  0
 19 20  1  0  0  0  0
 21  1  1  0  0  0  0
 21 27  1  0  0  0  0
 22 21  2  0  0  0  0
 23 22  1  0  0  0  0
 23 24  2  0  0  0  0
 24 26  1  0  0  0  0
 25 24  1  0  0  0  0
 26 27  2  0  0  0  0
M  END
>  <Pose>
1

>  <Score>
-7.407

$$$$
