MODEL 1
REMARK VINA RESULT:    -8.739      0.000      0.000
REMARK INTER + INTRA:         -10.759
REMARK INTER:                 -10.272
REMARK INTRA:                  -0.487
REMARK UNBOUND:                -0.487
REMARK  3 active torsions:
REMARK  status: ('A' for Active; 'I' for Inactive)
REMARK    1  A    between atoms: C_7  and  N_8 
REMARK       I    between atoms: N_8  and  C_9 
REMARK    2  A    between atoms: C_9  and  C_11 
REMARK    3  A    between atoms: N_13  and  C_18 
ROOT
ATOM      1  N   UNK d   1      45.832   7.153  43.148  0.00  0.00    -0.319 N 
ATOM      2  C   UNK d   1      44.534   7.127  43.664  0.00  0.00     0.293 C 
ATOM      3  O   UNK d   1      44.066   6.151  44.267  0.00  0.00    -0.264 OA
ATOM      4  H   UNK d   1      46.147   8.040  42.641  0.00  0.00     0.169 HD
ENDROOT
BRANCH   2   5
ATOM      5  C   UNK d   1      43.635   8.303  43.508  0.00  0.00     0.213 C 
ATOM      6  N   UNK d   1      43.941   9.405  44.121  0.00  0.00    -0.141 NA
ATOM      7  N   UNK d   1      43.154  10.551  44.028  0.00  0.00    -0.198 N 
ATOM      8  C   UNK d   1      41.985  10.515  43.240  0.00  0.00     0.262 C 
ATOM      9  O   UNK d   1      41.345  11.613  43.114  0.00  0.00    -0.269 OA
ATOM     10  C   UNK d   1      41.504   9.283  42.583  0.00  0.00     0.226 C 
ATOM     11  N   UNK d   1      42.465   8.244  42.710  0.00  0.00    -0.360 N 
ATOM     12  H   UNK d   1      42.310   7.349  42.178  0.00  0.00     0.161 HD
BRANCH   7  13
ATOM     13  C   UNK d   1      43.524  11.762  44.731  0.00  0.00     0.062 A 
ATOM     14  C   UNK d   1      42.854  12.172  45.858  0.00  0.00     0.032 A 
ATOM     15  C   UNK d   1      43.234  13.343  46.522  0.00  0.00     0.009 A 
ATOM     16  C   UNK d   1      44.284  14.111  46.060  0.00  0.00    -0.062 A 
ATOM     17  C   UNK d   1      44.944  13.687  44.930  0.00  0.00     0.009 A 
ATOM     18  C   UNK d   1      44.731  15.366  46.734  0.00  0.00     0.048 C 
ATOM     19  C   UNK d   1      44.569  12.544  44.288  0.00  0.00     0.032 A 
ENDBRANCH   7  13
ENDBRANCH   2   5
BRANCH   1  20
ATOM     20  C   UNK d   1      46.757   6.106  43.243  0.00  0.00     0.059 A 
ATOM     21  C   UNK d   1      46.811   5.187  42.192  0.00  0.00     0.063 A 
ATOM     22 Cl   UNK d   1      45.731   5.369  40.827  0.00  0.00    -0.082 Cl
ATOM     23  C   UNK d   1      47.687   4.138  42.194  0.00  0.00     0.058 A 
ATOM     24  C   UNK d   1      48.560   3.931  43.225  0.00  0.00     0.070 A 
ATOM     25  C   UNK d   1      48.539   4.811  44.274  0.00  0.00     0.098 A 
ATOM     26  N   UNK d   1      49.495   2.846  43.247  0.00  0.00    -0.323 N 
ATOM     27  C   UNK d   1      47.636   5.888  44.267  0.00  0.00     0.070 A 
ATOM     28  O   UNK d   1      49.394   4.673  45.364  0.00  0.00    -0.340 OA
ATOM     29  C   UNK d   1      50.577   3.861  45.311  0.00  0.00     0.278 C 
ATOM     30  C   UNK d   1      50.370   2.726  44.364  0.00  0.00     0.246 C 
ATOM     31  O   UNK d   1      50.987   1.656  44.573  0.00  0.00    -0.271 OA
ATOM     32  H   UNK d   1      49.533   2.163  42.465  0.00  0.00     0.169 HD
ENDBRANCH   1  20
TORSDOF 3
ENDMDL
