MODEL 1
REMARK VINA RESULT:    -8.477      0.000      0.000
REMARK INTER + INTRA:         -10.272
REMARK INTER:                  -9.964
REMARK INTRA:                  -0.308
REMARK UNBOUND:                -0.308
REMARK  3 active torsions:
REMARK  status: ('A' for Active; 'I' for Inactive)
REMARK    1  A    between atoms: S_1  and  N_4 
REMARK    2  A    between atoms: S_1  and  C_18 
REMARK    3  A    between atoms: C_21  and  O_24 
ROOT
ATOM      1  N   UNK d   1      45.421   7.004  42.908  0.00  0.00    -0.301 N 
ATOM      2  C   UNK d   1      45.213   6.137  41.837  0.00  0.00     0.140 C 
ATOM      3  C   UNK d   1      46.433   5.328  41.463  0.00  0.00     0.067 C 
ATOM      4  C   UNK d   1      47.357   5.092  42.597  0.00  0.00     0.040 A 
ATOM      5  C   UNK d   1      47.503   6.113  43.504  0.00  0.00     0.067 A 
ATOM      6  N   UNK d   1      48.317   5.991  44.559  0.00  0.00    -0.231 NA
ATOM      7  C   UNK d   1      49.018   4.823  44.736  0.00  0.00     0.154 A 
ATOM      8  N   UNK d   1      48.861   3.831  43.835  0.00  0.00    -0.202 N 
ATOM      9  N   UNK d   1      49.640   2.819  44.228  0.00  0.00    -0.301 N 
ATOM     10  C   UNK d   1      50.281   3.139  45.346  0.00  0.00     0.112 A 
ATOM     11  C   UNK d   1      49.908   4.431  45.713  0.00  0.00     0.071 A 
ATOM     12  C   UNK d   1      48.061   3.900  42.763  0.00  0.00     0.276 A 
ATOM     13  O   UNK d   1      47.917   2.976  41.926  0.00  0.00    -0.266 OA
ATOM     14  C   UNK d   1      46.738   7.353  43.293  0.00  0.00     0.195 C 
ATOM     15  H   UNK d   1      49.740   1.902  43.737  0.00  0.00     0.186 HD
ENDROOT
BRANCH   1  16
ATOM     16  S   UNK d   1      44.191   7.261  44.005  0.00  0.00     0.261 S 
ATOM     17  O   UNK d   1      43.217   6.106  43.949  0.00  0.00    -0.200 OA
ATOM     18  O   UNK d   1      44.713   7.317  45.410  0.00  0.00    -0.200 OA
BRANCH  16  19
ATOM     19  C   UNK d   1      43.259   8.715  43.724  0.00  0.00     0.081 A 
ATOM     20  C   UNK d   1      43.561   9.927  44.320  0.00  0.00     0.052 A 
ATOM     21  C   UNK d   1      42.787  11.048  44.061  0.00  0.00     0.068 A 
ATOM     22  C   UNK d   1      41.703  11.013  43.214  0.00  0.00     0.089 A 
ATOM     23 Cl   UNK d   1      43.182  12.575  44.825  0.00  0.00    -0.081 Cl
ATOM     24  C   UNK d   1      41.403   9.807  42.619  0.00  0.00     0.040 A 
ATOM     25  C   UNK d   1      42.171   8.694  42.877  0.00  0.00     0.028 A 
BRANCH  22  26
ATOM     26  O   UNK d   1      40.934  12.161  42.965  0.00  0.00    -0.354 OA
ATOM     27  C   UNK d   1      40.045  12.637  43.957  0.00  0.00     0.210 C 
ENDBRANCH  22  26
ENDBRANCH  16  19
ENDBRANCH   1  16
TORSDOF 3
ENDMDL
