/Users/jonathanwahrer/Desktop/Msc/3_Semester/Drug_Design_Praktikum/waehrer_HTS_screening/HTS_experiment/out/docking_results/vina_output/2qfa/2270_docked.pdbqt
 OpenBabel03162221253D

 22 24  0  0  1  0  0  0  0  0999 V2000
   44.0830   13.0040   45.4920 C   0  0  0  0  0  0  0  0  0  0  0  0
   43.1310   13.2720   46.2790 O   0  0  0  0  0  0  0  0  0  0  0  0
   44.1940   11.7240   44.8680 N   0  0  0  0  0  0  0  0  0  0  0  0
   44.9800   11.5560   44.2400 H   0  0  0  0  0  0  0  0  0  0  0  0
   45.0740   14.0150   45.2240 C   0  0  0  0  0  0  0  0  0  0  0  0
   45.2660   15.0080   46.1900 C   0  0  0  0  0  3  0  0  0  0  0  0
   46.1790   16.0280   46.0490 C   0  0  0  0  0  0  0  0  0  0  0  0
   46.9430   16.0740   44.9020 C   0  0  0  0  0  0  0  0  0  0  0  0
   48.1190   17.3700   44.6980 Cl  0  0  0  0  0  0  0  0  0  0  0  0
   46.7690   15.0980   43.9310 C   0  0  0  0  0  3  0  0  0  0  0  0
   45.8350   14.0690   44.0920 C   0  0  0  0  0  3  0  0  0  0  0  0
   46.3470   17.0010   47.0250 O   0  0  0  0  0  0  0  0  0  0  0  0
   45.2570   17.4620   47.8000 C   0  0  0  0  0  1  0  0  0  0  0  0
   43.1880   10.7470   45.1590 C   0  0  0  0  0  2  0  0  0  0  0  0
   43.4790    9.3470   44.7920 C   0  0  2  0  0  3  0  0  0  0  0  0
   43.5210    9.0270   43.3980 N   0  0  1  0  0  0  0  0  0  0  0  0
   44.6130    8.0330   43.2630 C   0  0  0  0  0  2  0  0  0  0  0  0
   42.3610    8.3150   42.8990 C   0  0  0  0  0  2  0  0  0  0  0  0
   44.3430    7.0340   44.3960 C   0  0  0  0  0  2  0  0  0  0  0  0
   42.9560    7.0450   44.8130 N   0  0  1  0  0  0  0  0  0  0  0  0
   42.5840    8.3100   45.4510 C   0  0  0  0  0  2  0  0  0  0  0  0
   42.1540    6.9800   43.6030 C   0  0  0  0  0  2  0  0  0  0  0  0
  1  2  2  0  0  0  0
  3 14  1  0  0  0  0
  3  1  1  0  0  0  0
  4  3  1  0  0  0  0
  5  1  1  0  0  0  0
  5  6  1  0  0  0  0
  7  6  2  0  0  0  0
  7 12  1  0  0  0  0
  8  7  1  0  0  0  0
  9  8  1  0  0  0  0
 10 11  1  0  0  0  0
 10  8  2  0  0  0  0
 11  5  2  0  0  0  0
 12 13  1  0  0  0  0
 15 14  1  6  0  0  0
 15 21  1  0  0  0  0
 16 18  1  1  0  0  0
 16 15  1  0  0  0  0
 17 16  1  0  0  0  0
 17 19  1  0  0  0  0
 18 22  1  0  0  0  0
 19 20  1  0  0  0  0
 20 22  1  6  0  0  0
 20 21  1  0  0  0  0
M  END
>  <Pose>
1

>  <Score>
-6.583

$$$$
