MODEL 1
REMARK VINA RESULT:    -6.583      0.000      0.000
REMARK INTER + INTRA:          -8.473
REMARK INTER:                  -8.123
REMARK INTRA:                  -0.351
REMARK UNBOUND:                -0.351
REMARK  4 active torsions:
REMARK  status: ('A' for Active; 'I' for Inactive)
REMARK    1  A    between atoms: C_3  and  O_20 
REMARK    2  A    between atoms: C_5  and  C_8 
REMARK       I    between atoms: C_8  and  N_10 
REMARK    3  A    between atoms: N_10  and  C_11 
REMARK    4  A    between atoms: C_11  and  C_12 
ROOT
ATOM      1  C   UNK d   1      44.083  13.004  45.492  0.00  0.00     0.251 C 
ATOM      2  O   UNK d   1      43.131  13.272  46.279  0.00  0.00    -0.268 OA
ATOM      3  N   UNK d   1      44.194  11.724  44.868  0.00  0.00    -0.355 N 
ATOM      4  H   UNK d   1      44.980  11.556  44.240  0.00  0.00     0.162 HD
ENDROOT
BRANCH   1   5
ATOM      5  C   UNK d   1      45.074  14.015  45.224  0.00  0.00     0.034 A 
ATOM      6  C   UNK d   1      45.266  15.008  46.190  0.00  0.00     0.055 A 
ATOM      7  C   UNK d   1      46.179  16.028  46.049  0.00  0.00     0.090 A 
ATOM      8  C   UNK d   1      46.943  16.074  44.902  0.00  0.00     0.067 A 
ATOM      9 Cl   UNK d   1      48.119  17.370  44.698  0.00  0.00    -0.081 Cl
ATOM     10  C   UNK d   1      46.769  15.098  43.931  0.00  0.00     0.028 A 
ATOM     11  C   UNK d   1      45.835  14.069  44.092  0.00  0.00     0.019 A 
BRANCH   7  12
ATOM     12  O   UNK d   1      46.347  17.001  47.025  0.00  0.00    -0.354 OA
ATOM     13  C   UNK d   1      45.257  17.462  47.800  0.00  0.00     0.210 C 
ENDBRANCH   7  12
ENDBRANCH   1   5
BRANCH   3  14
ATOM     14  C   UNK d   1      43.188  10.747  45.159  0.00  0.00     0.160 C 
BRANCH  14  15
ATOM     15  C   UNK d   1      43.479   9.347  44.792  0.00  0.00     0.268 C 
ATOM     16  N   UNK d   1      43.521   9.027  43.398  0.00  0.00     0.100 N 
ATOM     17  C   UNK d   1      44.613   8.033  43.263  0.00  0.00     0.303 C 
ATOM     18  C   UNK d   1      42.361   8.315  42.899  0.00  0.00     0.303 C 
ATOM     19  C   UNK d   1      44.343   7.034  44.396  0.00  0.00     0.302 C 
ATOM     20  N   UNK d   1      42.956   7.045  44.813  0.00  0.00     0.094 N 
ATOM     21  C   UNK d   1      42.584   8.310  45.451  0.00  0.00     0.309 C 
ATOM     22  C   UNK d   1      42.154   6.980  43.603  0.00  0.00     0.302 C 
ENDBRANCH  14  15
ENDBRANCH   3  14
TORSDOF 4
ENDMDL
