MODEL 1
REMARK VINA RESULT:    -6.621      0.000      0.000
REMARK INTER + INTRA:          -8.426
REMARK INTER:                  -7.975
REMARK INTRA:                  -0.451
REMARK UNBOUND:                -0.451
REMARK  4 active torsions:
REMARK  status: ('A' for Active; 'I' for Inactive)
REMARK    1  A    between atoms: C_5  and  C_8 
REMARK    2  A    between atoms: C_8  and  O_25 
REMARK    3  A    between atoms: N_9  and  C_17 
REMARK    4  A    between atoms: C_20  and  O_23 
ROOT
ATOM      1  C   UNK d   1      41.004  11.279  44.455  0.00  0.00     0.283 C 
ATOM      2  N   UNK d   1      40.639  10.134  45.126  0.00  0.00     0.042 N 
ATOM      3  C   UNK d   1      41.622   9.143  44.740  0.00  0.00     0.210 C 
ATOM      4  C   UNK d   1      42.302   8.225  45.347  0.00  0.00     0.030 C 
ATOM      5  C   UNK d   1      43.263   7.332  44.675  0.00  0.00     0.032 C 
ATOM      6  C   UNK d   1      43.440   7.554  43.215  0.00  0.00     0.023 C 
ATOM      7  C   UNK d   1      42.302   8.255  42.552  0.00  0.00     0.125 C 
ATOM      8  N   UNK d   1      41.777   9.344  43.347  0.00  0.00    -0.356 N 
ATOM      9  C   UNK d   1      41.333  10.702  43.048  0.00  0.00     0.200 C 
ATOM     10  H   UNK d   1      39.759   9.755  44.615  0.00  0.00     0.299 HD
ENDROOT
BRANCH   1  11
ATOM     11  C   UNK d   1      42.149  12.095  44.805  0.00  0.00     0.007 A 
ATOM     12  C   UNK d   1      41.960  13.226  45.576  0.00  0.00     0.014 A 
ATOM     13  C   UNK d   1      43.014  14.026  45.906  0.00  0.00     0.024 A 
ATOM     14  C   UNK d   1      44.310  13.748  45.489  0.00  0.00     0.034 A 
ATOM     15 Cl   UNK d   1      45.676  14.754  45.897  0.00  0.00    -0.084 Cl
ATOM     16  C   UNK d   1      44.495  12.628  44.726  0.00  0.00     0.024 A 
ATOM     17  C   UNK d   1      43.427  11.814  44.390  0.00  0.00     0.014 A 
ENDBRANCH   1  11
BRANCH   1  18
ATOM     18  O   UNK d   1      39.885  12.117  44.187  0.00  0.00    -0.359 OA
ATOM     19  H   UNK d   1      39.400  11.681  43.441  0.00  0.00     0.213 HD
ENDBRANCH   1  18
BRANCH   2  20
ATOM     20  C   UNK d   1      40.315  10.084  46.473  0.00  0.00     0.146 A 
ATOM     21  C   UNK d   1      41.164  10.184  47.522  0.00  0.00     0.041 A 
ATOM     22  C   UNK d   1      40.682  10.127  48.829  0.00  0.00     0.039 A 
ATOM     23  C   UNK d   1      39.338   9.969  49.120  0.00  0.00     0.068 A 
ATOM     24  C   UNK d   1      38.497   9.870  48.031  0.00  0.00     0.039 A 
ATOM     25  C   UNK d   1      38.939   9.921  46.736  0.00  0.00     0.041 A 
BRANCH  23  26
ATOM     26  O   UNK d   1      38.901   9.917  50.434  0.00  0.00    -0.356 OA
ATOM     27  C   UNK d   1      37.750   9.176  50.748  0.00  0.00     0.210 C 
ENDBRANCH  23  26
ENDBRANCH   2  20
TORSDOF 4
ENDMDL
