/Users/jonathanwahrer/Desktop/Msc/3_Semester/Drug_Design_Praktikum/waehrer_HTS_screening/HTS_experiment/out/docking_results/vina_output/2qfa/2272_docked.pdbqt
 OpenBabel03162221263D

 29 32  0  0  0  0  0  0  0  0999 V2000
   44.8320    6.3620   43.9600 C   0  0  0  0  0  0  0  0  0  0  0  0
   43.9440    5.4280   44.0180 O   0  0  0  0  0  0  0  0  0  0  0  0
   46.0850    5.9740   43.4790 N   0  0  0  0  0  0  0  0  0  0  0  0
   47.2960    6.8150   43.5300 C   0  0  0  0  0  2  0  0  0  0  0  0
   48.0860    6.0160   44.6130 C   0  0  0  0  0  2  0  0  0  0  0  0
   48.4370    4.7260   44.0380 N   0  0  0  0  0  0  0  0  0  0  0  0
   47.7010    4.1870   43.0310 C   0  0  0  0  0  2  0  0  0  0  0  0
   46.3090    4.7140   42.8260 C   0  0  0  0  0  2  0  0  0  0  0  0
   44.3710    7.6610   44.3840 C   0  0  0  0  0  2  0  0  0  0  0  0
   44.2680    8.7890   43.4630 C   0  0  0  0  0  2  0  0  0  0  0  0
   43.0520    9.5810   43.5100 N   0  0  0  0  0  0  0  0  0  0  0  0
   42.7660   10.7300   44.1170 C   0  0  0  0  0  0  0  0  0  0  0  0
   41.4400   11.0460   43.9350 C   0  0  0  0  0  0  0  0  0  0  0  0
   43.5840   11.6070   44.8510 C   0  0  0  0  0  3  0  0  0  0  0  0
   40.8730   12.2150   44.4600 C   0  0  0  0  0  3  0  0  0  0  0  0
   40.9510   10.0700   43.2170 O   0  0  0  0  0  0  0  0  0  0  0  0
   41.6570   13.0760   45.1770 C   0  0  0  0  0  0  0  0  0  0  0  0
   40.9870   14.5490   45.8320 Cl  0  0  0  0  0  0  0  0  0  0  0  0
   42.9900   12.7530   45.3540 C   0  0  0  0  0  3  0  0  0  0  0  0
   41.8670    9.1760   42.9390 C   0  0  0  0  0  0  0  0  0  0  0  0
   41.7090    8.1160   42.2660 O   0  0  0  0  0  0  0  0  0  0  0  0
   49.2570    4.0660   44.9390 C   0  0  0  0  0  2  0  0  0  0  0  0
   50.5470    3.5730   44.2820 C   0  0  0  0  0  0  0  0  0  0  0  0
   51.5980    4.2090   44.6750 O   0  0  0  0  0  0  0  0  0  0  0  0
   50.5370    2.5880   43.3910 N   0  0  0  0  0  0  0  0  0  0  0  0
   51.8940    2.5310   43.3820 H   0  0  0  0  0  0  0  0  0  0  0  0
   50.5260    1.5400   42.4430 C   0  0  0  0  0  3  0  0  0  0  0  0
   50.7160    0.0990   43.0540 C   0  0  0  0  0  2  0  0  0  0  0  0
   51.7830    0.7110   42.2830 C   0  0  0  0  0  2  0  0  0  0  0  0
  1  2  2  0  0  0  0
  1  9  1  0  0  0  0
  3  4  1  0  0  0  0
  3  1  1  0  0  0  0
  4  5  1  0  0  0  0
  6  5  1  0  0  0  0
  6 22  1  0  0  0  0
  7  6  1  0  0  0  0
  8  7  1  0  0  0  0
  8  3  1  0  0  0  0
 10 11  1  0  0  0  0
 10  9  1  0  0  0  0
 11 12  1  0  0  0  0
 12 14  1  0  0  0  0
 13 12  2  0  0  0  0
 13 15  1  0  0  0  0
 14 19  2  0  0  0  0
 15 17  2  0  0  0  0
 16 13  1  0  0  0  0
 17 19  1  0  0  0  0
 17 18  1  0  0  0  0
 20 16  1  0  0  0  0
 20 11  1  0  0  0  0
 21 20  2  0  0  0  0
 23 24  2  0  0  0  0
 23 22  1  0  0  0  0
 25 23  1  0  0  0  0
 26 25  1  0  0  0  0
 27 28  1  0  0  0  0
 27 25  1  0  0  0  0
 29 27  1  0  0  0  0
 29 28  1  0  0  0  0
M  END
>  <Pose>
1

>  <Score>
-7.755

$$$$
