MODEL 1
REMARK VINA RESULT:    -7.755      0.000      0.000
REMARK INTER + INTRA:         -10.991
REMARK INTER:                 -10.475
REMARK INTRA:                  -0.516
REMARK UNBOUND:                -0.516
REMARK  6 active torsions:
REMARK  status: ('A' for Active; 'I' for Inactive)
REMARK    1  A    between atoms: N_8  and  C_12 
REMARK    2  A    between atoms: C_12  and  C_13 
REMARK    3  A    between atoms: C_13  and  C_14 
REMARK       I    between atoms: C_14  and  N_16 
REMARK    4  A    between atoms: N_19  and  C_22 
REMARK    5  A    between atoms: C_22  and  C_23 
REMARK       I    between atoms: C_23  and  N_25 
REMARK    6  A    between atoms: N_25  and  C_26 
ROOT
ATOM      1  C   UNK d   1      44.832   6.362  43.960  0.00  0.00     0.221 C 
ATOM      2  O   UNK d   1      43.944   5.428  44.018  0.00  0.00    -0.273 OA
ATOM      3  N   UNK d   1      46.085   5.974  43.479  0.00  0.00    -0.349 N 
ATOM      4  C   UNK d   1      47.296   6.815  43.530  0.00  0.00     0.145 C 
ATOM      5  C   UNK d   1      48.086   6.016  44.613  0.00  0.00     0.137 C 
ATOM      6  N   UNK d   1      48.437   4.726  44.038  0.00  0.00    -0.401 N 
ATOM      7  C   UNK d   1      47.701   4.187  43.031  0.00  0.00     0.137 C 
ATOM      8  C   UNK d   1      46.309   4.714  42.826  0.00  0.00     0.145 C 
ENDROOT
BRANCH   1   9
ATOM      9  C   UNK d   1      44.371   7.661  44.384  0.00  0.00     0.123 C 
BRANCH   9  10
ATOM     10  C   UNK d   1      44.268   8.789  43.463  0.00  0.00     0.144 C 
BRANCH  10  11
ATOM     11  N   UNK d   1      43.052   9.581  43.510  0.00  0.00    -0.290 N 
ATOM     12  C   UNK d   1      42.766  10.730  44.117  0.00  0.00     0.073 A 
ATOM     13  C   UNK d   1      41.440  11.046  43.935  0.00  0.00     0.109 A 
ATOM     14  C   UNK d   1      43.584  11.607  44.851  0.00  0.00     0.034 A 
ATOM     15  C   UNK d   1      40.873  12.215  44.460  0.00  0.00     0.063 A 
ATOM     16  O   UNK d   1      40.951  10.070  43.217  0.00  0.00    -0.259 OA
ATOM     17  C   UNK d   1      41.657  13.076  45.177  0.00  0.00     0.036 A 
ATOM     18 Cl   UNK d   1      40.987  14.549  45.832  0.00  0.00    -0.084 Cl
ATOM     19  C   UNK d   1      42.990  12.753  45.354  0.00  0.00     0.026 A 
ATOM     20  C   UNK d   1      41.867   9.176  42.939  0.00  0.00     0.372 A 
ATOM     21  O   UNK d   1      41.709   8.116  42.266  0.00  0.00    -0.237 OA
ENDBRANCH  10  11
ENDBRANCH   9  10
ENDBRANCH   1   9
BRANCH   6  22
ATOM     22  C   UNK d   1      49.257   4.066  44.939  0.00  0.00     0.219 C 
BRANCH  22  23
ATOM     23  C   UNK d   1      50.547   3.573  44.282  0.00  0.00     0.235 C 
ATOM     24  O   UNK d   1      51.598   4.209  44.675  0.00  0.00    -0.272 OA
ATOM     25  N   UNK d   1      50.537   2.588  43.391  0.00  0.00    -0.355 N 
ATOM     26  H   UNK d   1      51.894   2.531  43.382  0.00  0.00     0.162 HD
BRANCH  25  27
ATOM     27  C   UNK d   1      50.526   1.540  42.443  0.00  0.00     0.084 A 
ATOM     28  C   UNK d   1      50.716   0.099  43.054  0.00  0.00     0.027 A 
ATOM     29  C   UNK d   1      51.783   0.711  42.283  0.00  0.00     0.027 A 
ENDBRANCH  25  27
ENDBRANCH  22  23
ENDBRANCH   6  22
TORSDOF 6
ENDMDL
