MODEL 1
REMARK VINA RESULT:    -5.840      0.000      0.000
REMARK INTER + INTRA:          -6.780
REMARK INTER:                  -6.523
REMARK INTRA:                  -0.257
REMARK UNBOUND:                -0.257
REMARK  2 active torsions:
REMARK  status: ('A' for Active; 'I' for Inactive)
REMARK    1  A    between atoms: C_3  and  N_17 
REMARK    2  A    between atoms: N_17  and  C_18 
ROOT
ATOM      1 Cl   UNK d   1      41.885   8.057  42.172  0.00  0.00    -0.076 Cl
ATOM      2  C   UNK d   1      42.138   8.945  43.658  0.00  0.00     0.135 A 
ATOM      3  C   UNK d   1      42.901   8.398  44.669  0.00  0.00     0.126 A 
ATOM      4  C   UNK d   1      43.061   9.155  45.808  0.00  0.00     0.291 A 
ATOM      5  O   UNK d   1      43.744   8.748  46.798  0.00  0.00    -0.264 OA
ATOM      6  N   UNK d   1      42.487  10.364  45.897  0.00  0.00    -0.241 N 
ATOM      7  N   UNK d   1      41.751  10.925  44.957  0.00  0.00    -0.242 N 
ATOM      8  C   UNK d   1      41.147  12.239  45.094  0.00  0.00     0.134 C 
ATOM      9  C   UNK d   1      39.979  12.240  46.058  0.00  0.00     0.031 C 
ATOM     10  C   UNK d   1      40.473  12.331  47.492  0.00  0.00     0.005 C 
ATOM     11  C   UNK d   1      41.350  11.152  47.847  0.00  0.00     0.031 C 
ATOM     12  C   UNK d   1      42.671  11.154  47.124  0.00  0.00     0.134 C 
ATOM     13  C   UNK d   1      42.954  12.545  46.680  0.00  0.00    -0.002 C 
ATOM     14  C   UNK d   1      42.207  13.104  45.735  0.00  0.00    -0.002 C 
ATOM     15  C   UNK d   1      41.576  10.194  43.816  0.00  0.00     0.287 A 
ATOM     16  O   UNK d   1      40.868  10.711  42.888  0.00  0.00    -0.265 OA
ENDROOT
BRANCH   3  17
ATOM     17  N   UNK d   1      43.508   7.113  44.577  0.00  0.00    -0.380 N 
ATOM     18  H   UNK d   1      42.863   6.308  44.846  0.00  0.00     0.160 HD
BRANCH  17  19
ATOM     19  C   UNK d   1      44.864   6.878  44.163  0.00  0.00     0.073 C 
ATOM     20  C   UNK d   1      45.056   5.472  43.621  0.00  0.00     0.031 C 
ATOM     21  C   UNK d   1      45.374   7.839  43.141  0.00  0.00     0.031 C 
ENDBRANCH  17  19
ENDBRANCH   3  17
TORSDOF 2
ENDMDL
