MODEL 1
REMARK VINA RESULT:    -6.153      0.000      0.000
REMARK INTER + INTRA:          -7.179
REMARK INTER:                  -6.872
REMARK INTRA:                  -0.307
REMARK UNBOUND:                -0.307
REMARK  2 active torsions:
REMARK  status: ('A' for Active; 'I' for Inactive)
REMARK    1  A    between atoms: C_3  and  N_17 
REMARK    2  A    between atoms: N_17  and  C_18 
ROOT
ATOM      1 Cl   UNK d   1      40.557  12.822  43.693  0.00  0.00    -0.076 Cl
ATOM      2  C   UNK d   1      41.457  11.407  44.202  0.00  0.00     0.135 A 
ATOM      3  C   UNK d   1      41.983  11.398  45.477  0.00  0.00     0.126 A 
ATOM      4  C   UNK d   1      42.694  10.240  45.815  0.00  0.00     0.291 A 
ATOM      5  O   UNK d   1      43.190  10.179  46.956  0.00  0.00    -0.264 OA
ATOM      6  N   UNK d   1      42.836   9.233  44.944  0.00  0.00    -0.241 N 
ATOM      7  N   UNK d   1      42.328   9.248  43.721  0.00  0.00    -0.241 N 
ATOM      8  C   UNK d   1      42.571   8.067  42.905  0.00  0.00     0.139 C 
ATOM      9  C   UNK d   1      44.076   7.889  42.841  0.00  0.00     0.021 A 
ATOM     10  C   UNK d   1      44.662   7.918  44.186  0.00  0.00     0.021 A 
ATOM     11  C   UNK d   1      43.581   8.015  45.272  0.00  0.00     0.139 C 
ATOM     12  C   UNK d   1      42.612   6.903  44.983  0.00  0.00    -0.001 C 
ATOM     13  C   UNK d   1      42.089   6.924  43.768  0.00  0.00    -0.001 C 
ATOM     14  C   UNK d   1      44.698   6.638  43.339  0.00  0.00     0.015 A 
ATOM     15  C   UNK d   1      41.644  10.324  43.348  0.00  0.00     0.287 A 
ATOM     16  O   UNK d   1      41.159  10.348  42.188  0.00  0.00    -0.265 OA
ENDROOT
BRANCH   3  17
ATOM     17  N   UNK d   1      41.836  12.460  46.416  0.00  0.00    -0.380 N 
ATOM     18  H   UNK d   1      41.011  12.383  47.048  0.00  0.00     0.160 HD
BRANCH  17  19
ATOM     19  C   UNK d   1      42.704  13.574  46.541  0.00  0.00     0.073 C 
ATOM     20  C   UNK d   1      43.877  13.566  45.595  0.00  0.00     0.031 C 
ATOM     21  C   UNK d   1      42.000  14.909  46.343  0.00  0.00     0.031 C 
ENDBRANCH  17  19
ENDBRANCH   3  17
TORSDOF 2
ENDMDL
