MODEL 1
REMARK VINA RESULT:    -8.110      0.000      0.000
REMARK INTER + INTRA:         -10.957
REMARK INTER:                 -10.480
REMARK INTRA:                  -0.477
REMARK UNBOUND:                -0.477
REMARK  5 active torsions:
REMARK  status: ('A' for Active; 'I' for Inactive)
REMARK    1  A    between atoms: C_3  and  N_15 
REMARK    2  A    between atoms: N_6  and  C_9 
REMARK    3  A    between atoms: N_18  and  C_21 
REMARK    4  A    between atoms: C_21  and  C_22 
REMARK       I    between atoms: C_22  and  N_24 
REMARK       I    between atoms: N_24  and  C_25 
REMARK       I    between atoms: C_25  and  N_27 
REMARK    5  A    between atoms: N_27  and  C_28 
ROOT
ATOM      1  N   UNK d   1      41.930   9.974  45.637  0.00  0.00    -0.375 N 
ATOM      2  C   UNK d   1      41.740   8.726  46.245  0.00  0.00     0.153 C 
ATOM      3  C   UNK d   1      42.577   7.681  45.419  0.00  0.00     0.292 C 
ATOM      4  N   UNK d   1      43.469   8.175  44.493  0.00  0.00     0.100 N 
ATOM      5  C   UNK d   1      43.226   9.458  43.892  0.00  0.00     0.292 C 
ATOM      6  C   UNK d   1      41.740   9.882  44.128  0.00  0.00     0.153 C 
ENDROOT
BRANCH   1   7
ATOM      7  C   UNK d   1      42.419  11.203  46.052  0.00  0.00     0.077 A 
ATOM      8  C   UNK d   1      41.886  12.395  45.824  0.00  0.00     0.131 A 
ATOM      9 Cl   UNK d   1      40.139  12.445  45.354  0.00  0.00    -0.076 Cl
ATOM     10  C   UNK d   1      42.584  13.599  45.940  0.00  0.00     0.292 A 
ATOM     11  N   UNK d   1      43.835  13.567  46.306  0.00  0.00    -0.197 N 
ATOM     12  O   UNK d   1      41.949  14.672  45.660  0.00  0.00    -0.264 OA
ATOM     13  N   UNK d   1      44.416  12.367  46.567  0.00  0.00    -0.174 NA
ATOM     14  C   UNK d   1      43.838  11.228  46.482  0.00  0.00     0.170 A 
BRANCH  11  15
ATOM     15  C   UNK d   1      44.729  14.719  46.195  0.00  0.00     0.062 A 
ATOM     16  C   UNK d   1      44.730  15.739  47.091  0.00  0.00     0.032 A 
ATOM     17  C   UNK d   1      45.665  16.749  47.028  0.00  0.00     0.002 A 
ATOM     18  C   UNK d   1      46.644  16.751  46.036  0.00  0.00     0.000 A 
ATOM     19  C   UNK d   1      46.613  15.696  45.125  0.00  0.00     0.002 A 
ATOM     20  C   UNK d   1      45.694  14.723  45.204  0.00  0.00     0.032 A 
ENDBRANCH  11  15
ENDBRANCH   1   7
BRANCH   4  21
ATOM     21  C   UNK d   1      43.688   7.303  43.291  0.00  0.00     0.375 C 
BRANCH  21  22
ATOM     22  C   UNK d   1      45.115   7.142  43.055  0.00  0.00     0.254 C 
ATOM     23  O   UNK d   1      45.947   7.802  42.708  0.00  0.00    -0.271 OA
ATOM     24  N   UNK d   1      45.583   5.539  43.416  0.00  0.00    -0.278 N 
ATOM     25  C   UNK d   1      47.057   5.845  43.423  0.00  0.00     0.323 C 
ATOM     26  H   UNK d   1      44.825   5.387  43.409  0.00  0.00     0.173 HD
ATOM     27  O   UNK d   1      47.604   6.672  42.747  0.00  0.00    -0.247 OA
ATOM     28  N   UNK d   1      47.735   5.004  44.383  0.00  0.00    -0.338 N 
ATOM     29  H   UNK d   1      47.110   4.288  44.883  0.00  0.00     0.164 HD
BRANCH  28  30
ATOM     30  C   UNK d   1      49.111   5.006  44.712  0.00  0.00     0.086 C 
ATOM     31  C   UNK d   1      49.526   5.131  46.121  0.00  0.00     0.025 C 
ATOM     32  C   UNK d   1      49.668   3.714  46.685  0.00  0.00     0.002 C 
ATOM     33  C   UNK d   1      50.157   2.962  45.470  0.00  0.00     0.002 C 
ATOM     34  C   UNK d   1      49.624   3.618  44.273  0.00  0.00     0.025 C 
ENDBRANCH  28  30
ENDBRANCH  21  22
ENDBRANCH   4  21
TORSDOF 5
ENDMDL
