/Users/jonathanwahrer/Desktop/Msc/3_Semester/Drug_Design_Praktikum/waehrer_HTS_screening/HTS_experiment/out/docking_results/vina_output/2qfa/2298_docked.pdbqt
 OpenBabel03162221293D

 34 37  0  0  0  0  0  0  0  0999 V2000
   46.4360    4.7100   43.1370 C   0  0  0  0  0  2  0  0  0  0  0  0
   46.4950    6.0480   42.6250 N   0  0  0  0  0  0  0  0  0  0  0  0
   45.2940    6.4900   42.0120 C   0  0  0  0  0  2  0  0  0  0  0  0
   44.6490    7.7000   42.6310 C   0  0  0  0  0  2  0  0  0  0  0  0
   44.6490    7.6040   44.0070 N   0  0  0  0  0  0  0  0  0  0  0  0
   45.8630    7.2740   44.6180 C   0  0  0  0  0  2  0  0  0  0  0  0
   46.9600    6.9830   43.5990 C   0  0  0  0  0  2  0  0  0  0  0  0
   43.3000    7.8540   44.9450 S   0  0  0  0  0  0  0  0  0  0  0  0
   42.2960    6.7300   44.8760 O   0  0  0  0  0  0  0  0  0  0  0  0
   43.5950    8.0410   46.4160 O   0  0  0  0  0  0  0  0  0  0  0  0
   42.4460    9.2910   44.3930 C   0  0  0  0  0  0  0  0  0  0  0  0
   41.8170    9.3220   43.1790 C   0  0  0  0  0  3  0  0  0  0  0  0
   41.1510   10.4380   42.7450 C   0  0  0  0  0  3  0  0  0  0  0  0
   41.1190   11.5520   43.5550 C   0  0  0  0  0  0  0  0  0  0  0  0
   41.7540   11.5250   44.7830 C   0  0  0  0  0  3  0  0  0  0  0  0
   40.2580   12.9650   42.9710 Cl  0  0  0  0  0  0  0  0  0  0  0  0
   42.4170   10.4020   45.2070 C   0  0  0  0  0  3  0  0  0  0  0  0
   47.7390    3.9930   42.9280 C   0  0  0  0  0  0  0  0  0  0  0  0
   47.9740    3.5700   41.7750 O   0  0  0  0  0  0  0  0  0  0  0  0
   48.6580    3.8070   43.9920 N   0  0  0  0  0  0  0  0  0  0  0  0
   48.3990    4.1910   44.9400 H   0  0  0  0  0  0  0  0  0  0  0  0
   49.8770    3.1110   43.7030 C   0  0  0  0  0  2  0  0  0  0  0  0
   50.8500    2.9850   44.8100 C   0  0  0  0  0  0  0  0  0  0  0  0
   50.2820    3.6240   46.0540 C   0  0  0  0  0  2  0  0  0  0  0  0
   50.6770    5.0990   46.1790 C   0  0  0  0  0  2  0  0  0  0  0  0
   52.1660    5.2220   46.4320 C   0  0  0  0  0  2  0  0  0  0  0  0
   52.8430    4.0670   45.7160 C   0  0  0  0  0  2  0  0  0  0  0  0
   52.0650    3.8570   44.4340 C   0  0  0  0  0  2  0  0  0  0  0  0
   51.3620    1.7020   45.1050 N   0  0  0  0  0  0  0  0  0  0  0  0
   50.9700    1.0810   46.3200 C   0  0  0  0  0  2  0  0  0  0  0  0
   51.9910   -0.0450   46.5680 C   0  0  0  0  0  2  0  0  0  0  0  0
   51.9150   -0.9790   45.5630 O   0  0  0  0  0  0  0  0  0  0  0  0
   51.0090   -0.6810   44.5770 C   0  0  0  0  0  2  0  0  0  0  0  0
   51.1900    0.7390   44.0390 C   0  0  0  0  0  2  0  0  0  0  0  0
  2  1  1  0  0  0  0
  2  7  1  0  0  0  0
  3  2  1  0  0  0  0
  3  4  1  0  0  0  0
  4  5  1  0  0  0  0
  5  6  1  0  0  0  0
  5  8  1  0  0  0  0
  7  6  1  0  0  0  0
  8 10  2  0  0  0  0
  9  8  2  0  0  0  0
 11  8  1  0  0  0  0
 11 17  1  0  0  0  0
 12 11  2  0  0  0  0
 13 12  1  0  0  0  0
 13 14  2  0  0  0  0
 14 15  1  0  0  0  0
 15 17  2  0  0  0  0
 16 14  1  0  0  0  0
 18  1  1  0  0  0  0
 18 20  1  0  0  0  0
 19 18  2  0  0  0  0
 20 21  1  0  0  0  0
 22 20  1  0  0  0  0
 22 23  1  0  0  0  0
 23 29  1  0  0  0  0
 23 24  1  0  0  0  0
 24 25  1  0  0  0  0
 25 26  1  0  0  0  0
 27 26  1  0  0  0  0
 28 23  1  0  0  0  0
 28 27  1  0  0  0  0
 29 30  1  0  0  0  0
 30 31  1  0  0  0  0
 32 31  1  0  0  0  0
 33 32  1  0  0  0  0
 34 33  1  0  0  0  0
 34 29  1  0  0  0  0
M  END
>  <Pose>
1

>  <Score>
-7.670

$$$$
