MODEL 1
REMARK VINA RESULT:    -8.039      0.000      0.000
REMARK INTER + INTRA:          -9.425
REMARK INTER:                  -9.214
REMARK INTRA:                  -0.211
REMARK UNBOUND:                -0.211
REMARK  3 active torsions:
REMARK  status: ('A' for Active; 'I' for Inactive)
REMARK    1  A    between atoms: C_5  and  C_8 
REMARK    2  A    between atoms: C_8  and  O_23 
REMARK    3  A    between atoms: N_11  and  C_14 
ROOT
ATOM      1  C   UNK d   1      41.142  11.061  44.293  0.00  0.00     0.088 C 
ATOM      2  C   UNK d   1      41.513   9.987  45.262  0.00  0.00     0.062 C 
ATOM      3  C   UNK d   1      43.043   9.861  45.366  0.00  0.00     0.128 C 
ATOM      4  N   UNK d   1      43.422   9.407  44.020  0.00  0.00    -0.364 N 
ATOM      5  C   UNK d   1      43.194  10.366  42.985  0.00  0.00     0.128 C 
ATOM      6  C   UNK d   1      41.798  10.918  42.971  0.00  0.00     0.062 C 
ENDROOT
BRANCH   1   7
ATOM      7  C   UNK d   1      41.293  12.377  44.934  0.00  0.00    -0.024 A 
ATOM      8  C   UNK d   1      42.454  12.893  45.435  0.00  0.00     0.012 A 
ATOM      9  C   UNK d   1      42.449  14.134  46.007  0.00  0.00     0.024 A 
ATOM     10  C   UNK d   1      41.315  14.929  46.117  0.00  0.00     0.034 A 
ATOM     11 Cl   UNK d   1      41.360  16.520  46.849  0.00  0.00    -0.084 Cl
ATOM     12  C   UNK d   1      40.152  14.404  45.612  0.00  0.00     0.024 A 
ATOM     13  C   UNK d   1      40.137  13.151  45.031  0.00  0.00     0.012 A 
ENDBRANCH   1   7
BRANCH   1  14
ATOM     14  O   UNK d   1      39.745  10.922  44.087  0.00  0.00    -0.385 OA
ATOM     15  H   UNK d   1      39.369  10.520  44.929  0.00  0.00     0.211 HD
ENDBRANCH   1  14
BRANCH   4  16
ATOM     16  C   UNK d   1      43.958   8.106  43.865  0.00  0.00     0.148 A 
ATOM     17  N   UNK d   1      45.152   7.948  43.266  0.00  0.00    -0.129 NA
ATOM     18  N   UNK d   1      45.760   6.794  43.074  0.00  0.00    -0.108 N 
ATOM     19  N   UNK d   1      46.916   6.415  42.523  0.00  0.00    -0.021 NA
ATOM     20  C   UNK d   1      45.177   5.672  43.490  0.00  0.00     0.196 A 
ATOM     21  N   UNK d   1      47.054   5.110  42.588  0.00  0.00    -0.021 NA
ATOM     22  N   UNK d   1      45.994   4.635  43.182  0.00  0.00    -0.107 NA
ATOM     23  C   UNK d   1      43.945   5.755  44.116  0.00  0.00     0.060 A 
ATOM     24  C   UNK d   1      43.323   6.971  44.309  0.00  0.00     0.056 A 
ENDBRANCH   4  16
TORSDOF 3
ENDMDL
