/Users/jonathanwahrer/Desktop/Msc/3_Semester/Drug_Design_Praktikum/waehrer_HTS_screening/HTS_experiment/out/docking_results/vina_output/2qfa/2304_docked.pdbqt
 OpenBabel03162221293D

 28 31  0  0  1  0  0  0  0  0999 V2000
   42.7860   10.2600   45.2200 N   0  0  0  0  0  0  0  0  0  0  0  0
   41.5920   10.2290   45.9760 C   0  0  0  0  0  2  0  0  0  0  0  0
   41.4490   11.3410   46.9820 C   0  0  0  0  0  2  0  0  0  0  0  0
   41.8570   12.6200   46.4730 N   0  0  0  0  0  0  0  0  0  0  0  0
   42.5780   12.6260   45.2250 C   0  0  0  0  0  2  0  0  0  0  0  0
   43.5540   11.4540   45.2760 C   0  0  0  0  0  2  0  0  0  0  0  0
   41.5570   13.7920   47.1860 C   0  0  0  0  0  0  0  0  0  0  0  0
   40.9310   13.6600   48.2770 O   0  0  0  0  0  0  0  0  0  0  0  0
   41.9270   15.1630   46.7400 C   0  0  2  0  0  3  0  0  0  0  0  0
   43.2180   15.5330   47.1900 N   0  0  0  0  0  0  0  0  0  0  0  0
   43.2890   16.1820   48.4590 C   0  0  2  0  0  0  0  0  0  0  0  0
   44.5910   15.4530   46.7400 C   0  0  0  0  0  0  0  0  0  0  0  0
   41.7230   17.0760   48.5380 S   0  0  0  0  0  0  0  0  0  0  0  0
   44.3810   17.2130   48.2460 C   0  0  0  0  0  2  0  0  0  0  0  0
   43.5500   15.3160   49.6260 C   0  0  0  0  0  1  0  0  0  0  0  0
   40.9140   16.1910   47.1470 C   0  0  0  0  0  2  0  0  0  0  0  0
   45.4270   16.3170   47.5690 C   0  0  0  0  0  2  0  0  0  0  0  0
   45.0380   14.7540   45.7810 O   0  0  0  0  0  0  0  0  0  0  0  0
   42.7210    9.4960   43.7060 S   0  0  0  0  0  0  0  0  0  0  0  0
   41.3090    9.1850   43.3220 O   0  0  0  0  0  0  0  0  0  0  0  0
   43.2510   10.4540   42.6670 O   0  0  0  0  0  0  0  0  0  0  0  0
   43.7290    8.0540   43.6190 C   0  0  0  0  0  0  0  0  0  0  0  0
   44.9520    8.0930   42.9870 C   0  0  0  0  0  3  0  0  0  0  0  0
   45.7630    6.9860   42.9000 C   0  0  0  0  0  3  0  0  0  0  0  0
   45.3840    5.7730   43.4480 C   0  0  0  0  0  0  0  0  0  0  0  0
   44.1500    5.7660   44.0760 C   0  0  0  0  0  3  0  0  0  0  0  0
   46.3900    4.3430   43.3550 Cl  0  0  0  0  0  0  0  0  0  0  0  0
   43.3310    6.8630   44.1710 C   0  0  0  0  0  3  0  0  0  0  0  0
  1  6  1  0  0  0  0
  1  2  1  0  0  0  0
  2  3  1  0  0  0  0
  4  3  1  0  0  0  0
  4  7  1  0  0  0  0
  5  6  1  0  0  0  0
  5  4  1  0  0  0  0
  7  8  2  0  0  0  0
  9 16  1  0  0  0  0
  9  7  1  1  0  0  0
  9 10  1  0  0  0  0
 10 11  1  0  0  0  0
 11 13  1  0  0  0  0
 11 15  1  1  0  0  0
 12 10  1  0  0  0  0
 12 17  1  0  0  0  0
 14 11  1  0  0  0  0
 16 13  1  0  0  0  0
 17 14  1  0  0  0  0
 18 12  2  0  0  0  0
 19  1  1  0  0  0  0
 20 19  2  0  0  0  0
 21 19  2  0  0  0  0
 22 19  1  0  0  0  0
 22 28  1  0  0  0  0
 23 22  2  0  0  0  0
 24 23  1  0  0  0  0
 24 25  2  0  0  0  0
 25 26  1  0  0  0  0
 26 28  2  0  0  0  0
 27 25  1  0  0  0  0
M  END
>  <Pose>
1

>  <Score>
-6.485

$$$$
