/Users/jonathanwahrer/Desktop/Msc/3_Semester/Drug_Design_Praktikum/waehrer_HTS_screening/HTS_experiment/out/docking_results/vina_output/2qfa/2319_docked.pdbqt
 OpenBabel03162221303D

 33 36  0  0  0  0  0  0  0  0999 V2000
   46.6130    5.8350   43.9400 N   0  0  0  0  0  0  0  0  0  0  0  0
   46.4930    7.0370   43.2060 C   0  0  0  0  0  0  0  0  0  0  0  0
   47.5040    7.7170   42.9360 O   0  0  0  0  0  0  0  0  0  0  0  0
   45.8150    5.2190   44.2010 H   0  0  0  0  0  0  0  0  0  0  0  0
   45.1720    7.5500   42.7220 C   0  0  0  0  0  2  0  0  0  0  0  0
   44.7400    8.7040   43.4630 N   0  0  0  0  0  0  0  0  0  0  0  0
   43.3870    9.1370   43.4970 C   0  0  0  0  0  0  0  0  0  0  0  0
   42.5380    8.4820   42.8530 O   0  0  0  0  0  0  0  0  0  0  0  0
   45.4170    9.2790   44.0170 H   0  0  0  0  0  0  0  0  0  0  0  0
   42.9230   10.3340   44.2590 C   0  0  0  0  0  0  0  0  0  0  0  0
   42.4160    9.9900   45.5140 O   0  0  0  0  0  0  0  0  0  0  0  0
   41.0730   10.0600   45.8770 C   0  0  0  0  0  0  0  0  0  0  0  0
   40.2610   10.8470   45.1040 C   0  0  0  0  0  0  0  0  0  0  0  0
   40.5550    9.3930   46.9470 C   0  0  0  0  0  3  0  0  0  0  0  0
   38.9110   10.9380   45.4440 C   0  0  0  0  0  3  0  0  0  0  0  0
   40.7840   11.5150   44.0310 O   0  0  0  0  0  0  0  0  0  0  0  0
   38.3740   10.2700   46.5220 C   0  0  0  0  0  3  0  0  0  0  0  0
   39.2240    9.4860   47.2790 C   0  0  0  0  0  3  0  0  0  0  0  0
   42.0250   11.2100   43.4570 C   0  0  0  0  0  3  0  0  0  0  0  0
   47.8900    5.4410   44.3500 N   0  0  0  0  0  0  0  0  0  0  0  0
   48.5040    4.4390   43.8420 C   0  0  0  0  0  0  0  0  0  0  0  0
   49.8180    3.8910   44.1410 C   0  0  0  0  0  0  0  0  0  0  0  0
   47.9530    3.5880   42.7810 C   0  0  0  0  0  0  0  0  0  0  0  0
   50.0910    2.7900   43.3480 C   0  0  0  0  0  0  0  0  0  0  0  0
   50.7960    4.2590   45.0390 C   0  0  0  0  0  3  0  0  0  0  0  0
   51.2770    2.0900   43.4440 C   0  0  0  0  0  0  0  0  0  0  0  0
   48.9450    2.6150   42.5220 N   0  0  0  0  0  0  0  0  0  0  0  0
   51.6380    0.5670   42.3420 Br  0  0  0  0  0  0  0  0  0  0  0  0
   52.2490    2.4870   44.3620 C   0  0  0  0  0  3  0  0  0  0  0  0
   51.9910    3.5870   45.1630 C   0  0  0  0  0  0  0  0  0  0  0  0
   53.3070    4.1500   46.4310 Br  0  0  0  0  0  0  0  0  0  0  0  0
   48.8520    1.8640   41.8170 H   0  0  0  0  0  0  0  0  0  0  0  0
   46.8180    3.7600   42.2610 O   0  0  0  0  0  0  0  0  0  0  0  0
  1  4  1  0  0  0  0
  1 20  1  0  0  0  0
  2  1  1  0  0  0  0
  3  2  2  0  0  0  0
  5  2  1  0  0  0  0
  5  6  1  0  0  0  0
  6  7  1  0  0  0  0
  6  9  1  0  0  0  0
  7 10  1  0  0  0  0
  8  7  2  0  0  0  0
 10 11  1  0  0  0  0
 11 12  1  0  0  0  0
 12 14  1  0  0  0  0
 13 15  1  0  0  0  0
 13 12  2  0  0  0  0
 14 18  2  0  0  0  0
 15 17  2  0  0  0  0
 16 13  1  0  0  0  0
 17 18  1  0  0  0  0
 19 16  1  0  0  0  0
 19 10  2  0  0  0  0
 21 22  1  0  0  0  0
 21 20  2  0  0  0  0
 22 25  1  0  0  0  0
 23 21  1  0  0  0  0
 24 26  1  0  0  0  0
 24 22  2  0  0  0  0
 25 30  2  0  0  0  0
 26 29  2  0  0  0  0
 27 23  1  0  0  0  0
 27 24  1  0  0  0  0
 28 26  1  0  0  0  0
 29 30  1  0  0  0  0
 30 31  1  0  0  0  0
 32 27  1  0  0  0  0
 33 23  2  0  0  0  0
M  END
>  <Pose>
1

>  <Score>
-8.587

$$$$
