MODEL 1
REMARK VINA RESULT:    -6.706      0.000      0.000
REMARK INTER + INTRA:          -8.669
REMARK INTER:                  -7.882
REMARK INTRA:                  -0.787
REMARK UNBOUND:                -0.787
REMARK  3 active torsions:
REMARK  status: ('A' for Active; 'I' for Inactive)
REMARK    1  A    between atoms: C_5  and  N_8 
REMARK    2  A    between atoms: C_10  and  C_14 
REMARK       I    between atoms: C_14  and  N_16 
REMARK    3  A    between atoms: N_19  and  C_22 
ROOT
ATOM      1  C   UNK d   1      43.469  11.776  44.800  0.00  0.00     0.226 C 
ATOM      2  O   UNK d   1      44.151  11.972  43.726  0.00  0.00    -0.273 OA
ATOM      3  N   UNK d   1      43.583  12.755  45.792  0.00  0.00    -0.349 N 
ATOM      4  C   UNK d   1      44.446  13.908  45.588  0.00  0.00     0.146 C 
ATOM      5  C   UNK d   1      45.484  14.003  46.701  0.00  0.00     0.161 C 
ATOM      6  N   UNK d   1      44.896  13.550  47.927  0.00  0.00    -0.213 N 
ATOM      7  C   UNK d   1      43.478  13.651  48.088  0.00  0.00     0.161 C 
ATOM      8  C   UNK d   1      42.872  12.690  47.046  0.00  0.00     0.146 C 
ENDROOT
BRANCH   1   9
ATOM      9  C   UNK d   1      42.657  10.554  44.853  0.00  0.00     0.105 C 
ATOM     10  C   UNK d   1      43.409   9.307  45.229  0.00  0.00     0.146 C 
ATOM     11  N   UNK d   1      43.412   8.455  44.046  0.00  0.00    -0.317 N 
ATOM     12  C   UNK d   1      42.239   8.841  43.297  0.00  0.00     0.225 C 
ATOM     13  C   UNK d   1      41.876  10.240  43.620  0.00  0.00     0.119 C 
ATOM     14  O   UNK d   1      41.678   8.021  42.499  0.00  0.00    -0.273 OA
BRANCH  11  15
ATOM     15  C   UNK d   1      44.355   7.450  43.687  0.00  0.00     0.037 A 
ATOM     16  C   UNK d   1      45.488   7.732  42.956  0.00  0.00     0.031 A 
ATOM     17  C   UNK d   1      46.403   6.758  42.602  0.00  0.00     0.026 A 
ATOM     18  C   UNK d   1      46.205   5.457  42.979  0.00  0.00     0.034 A 
ATOM     19 Cl   UNK d   1      47.362   4.202  42.537  0.00  0.00    -0.084 Cl
ATOM     20  C   UNK d   1      45.090   5.141  43.706  0.00  0.00     0.026 A 
ATOM     21  C   UNK d   1      44.167   6.136  44.059  0.00  0.00     0.031 A 
ENDBRANCH  11  15
ENDBRANCH   1   9
BRANCH   6  22
ATOM     22  C   UNK d   1      45.694  13.005  48.956  0.00  0.00     0.704 A 
ATOM     23  N   UNK d   1      45.752  11.699  49.336  0.00  0.00    -0.195 N 
ATOM     24  C   UNK d   1      46.629  11.577  50.342  0.00  0.00     0.128 A 
ATOM     25  C   UNK d   1      44.976  10.604  48.739  0.00  0.00     0.175 C 
ATOM     26  C   UNK d   1      47.143  12.822  50.617  0.00  0.00     0.154 A 
ATOM     27  N   UNK d   1      46.558  13.647  49.767  0.00  0.00    -0.075 NA
ENDBRANCH   6  22
TORSDOF 3
ENDMDL
