/Users/jonathanwahrer/Desktop/Msc/3_Semester/Drug_Design_Praktikum/waehrer_HTS_screening/HTS_experiment/out/docking_results/vina_output/2qfa/2345_docked.pdbqt
 OpenBabel03162221313D

 27 30  0  0  1  0  0  0  0  0999 V2000
   43.4690   11.7760   44.8000 C   0  0  0  0  0  0  0  0  0  0  0  0
   44.1510   11.9720   43.7260 O   0  0  0  0  0  0  0  0  0  0  0  0
   43.5830   12.7550   45.7920 N   0  0  0  0  0  0  0  0  0  0  0  0
   44.4460   13.9080   45.5880 C   0  0  0  0  0  2  0  0  0  0  0  0
   45.4840   14.0030   46.7010 C   0  0  0  0  0  2  0  0  0  0  0  0
   44.8960   13.5500   47.9270 N   0  0  0  0  0  0  0  0  0  0  0  0
   43.4780   13.6510   48.0880 C   0  0  0  0  0  2  0  0  0  0  0  0
   42.8720   12.6900   47.0460 C   0  0  0  0  0  2  0  0  0  0  0  0
   42.6570   10.5540   44.8530 C   0  0  2  0  0  3  0  0  0  0  0  0
   43.4090    9.3070   45.2290 C   0  0  0  0  0  2  0  0  0  0  0  0
   43.4120    8.4550   44.0460 N   0  0  0  0  0  0  0  0  0  0  0  0
   42.2390    8.8410   43.2970 C   0  0  0  0  0  0  0  0  0  0  0  0
   41.8760   10.2400   43.6200 C   0  0  0  0  0  2  0  0  0  0  0  0
   41.6780    8.0210   42.4990 O   0  0  0  0  0  0  0  0  0  0  0  0
   44.3550    7.4500   43.6870 C   0  0  0  0  0  0  0  0  0  0  0  0
   45.4880    7.7320   42.9560 C   0  0  0  0  0  3  0  0  0  0  0  0
   46.4030    6.7580   42.6020 C   0  0  0  0  0  3  0  0  0  0  0  0
   46.2050    5.4570   42.9790 C   0  0  0  0  0  0  0  0  0  0  0  0
   47.3620    4.2020   42.5370 Cl  0  0  0  0  0  0  0  0  0  0  0  0
   45.0900    5.1410   43.7060 C   0  0  0  0  0  3  0  0  0  0  0  0
   44.1670    6.1360   44.0590 C   0  0  0  0  0  3  0  0  0  0  0  0
   45.6940   13.0050   48.9560 C   0  0  0  0  0  0  0  0  0  0  0  0
   45.7520   11.6990   49.3360 N   0  0  0  0  0  0  0  0  0  0  0  0
   46.6290   11.5770   50.3420 C   0  0  0  0  0  3  0  0  0  0  0  0
   44.9760   10.6040   48.7390 C   0  0  0  0  0  1  0  0  0  0  0  0
   47.1430   12.8220   50.6170 C   0  0  0  0  0  3  0  0  0  0  0  0
   46.5580   13.6470   49.7670 N   0  0  0  0  0  0  0  0  0  0  0  0
  1  3  1  0  0  0  0
  2  1  2  0  0  0  0
  3  8  1  0  0  0  0
  4  3  1  0  0  0  0
  4  5  1  0  0  0  0
  5  6  1  0  0  0  0
  6  7  1  0  0  0  0
  6 22  1  0  0  0  0
  8  7  1  0  0  0  0
  9  1  1  6  0  0  0
  9 10  1  0  0  0  0
 11 10  1  0  0  0  0
 12 13  1  0  0  0  0
 12 11  1  0  0  0  0
 13  9  1  0  0  0  0
 14 12  2  0  0  0  0
 15 11  1  0  0  0  0
 15 21  1  0  0  0  0
 16 15  2  0  0  0  0
 17 16  1  0  0  0  0
 17 18  2  0  0  0  0
 18 20  1  0  0  0  0
 19 18  1  0  0  0  0
 20 21  2  0  0  0  0
 22 23  1  0  0  0  0
 22 27  2  0  0  0  0
 23 24  1  0  0  0  0
 24 26  2  0  0  0  0
 25 23  1  0  0  0  0
 27 26  1  0  0  0  0
M  END
>  <Pose>
1

>  <Score>
-6.706

$$$$
