MODEL 1
REMARK VINA RESULT:    -7.183      0.000      0.000
REMARK INTER + INTRA:          -7.885
REMARK INTER:                  -7.603
REMARK INTRA:                  -0.282
REMARK UNBOUND:                -0.282
REMARK  1 active torsions:
REMARK  status: ('A' for Active; 'I' for Inactive)
REMARK    1  A    between atoms: C_5  and  N_8 
ROOT
ATOM      1  N   UNK d   1      42.220  12.931  46.266  0.00  0.00    -0.231 N 
ATOM      2  C   UNK d   1      41.334  13.621  45.372  0.00  0.00     0.357 A 
ATOM      3  O   UNK d   1      41.037  14.824  45.619  0.00  0.00    -0.244 OA
ATOM      4  N   UNK d   1      40.851  12.888  44.260  0.00  0.00    -0.169 NA
ATOM      5  C   UNK d   1      41.129  11.687  44.003  0.00  0.00     0.202 A 
ATOM      6  C   UNK d   1      42.019  10.798  44.826  0.00  0.00     0.140 A 
ATOM      7  C   UNK d   1      41.101   9.733  45.358  0.00  0.00     0.269 C 
ATOM      8  N   UNK d   1      41.678   8.496  45.717  0.00  0.00    -0.043 N 
ATOM      9  C   UNK d   1      42.688   8.004  44.857  0.00  0.00     0.140 A 
ATOM     10  C   UNK d   1      43.343   8.851  44.022  0.00  0.00    -0.021 A 
ATOM     11  C   UNK d   1      44.332   8.331  43.191  0.00  0.00     0.016 A 
ATOM     12  C   UNK d   1      44.623   6.982  43.229  0.00  0.00    -0.061 A 
ATOM     13  C   UNK d   1      43.953   6.118  44.081  0.00  0.00     0.009 A 
ATOM     14  C   UNK d   1      42.966   6.653  44.907  0.00  0.00     0.038 A 
ATOM     15  C   UNK d   1      45.673   6.390  42.340  0.00  0.00     0.048 C 
ATOM     16  C   UNK d   1      43.089  10.305  43.929  0.00  0.00     0.070 C 
ATOM     17  C   UNK d   1      42.118   8.389  47.100  0.00  0.00     0.276 C 
ATOM     18  C   UNK d   1      42.550  11.587  45.964  0.00  0.00     0.251 A 
ATOM     19  O   UNK d   1      43.388  11.062  46.783  0.00  0.00    -0.271 OA
ATOM     20  O   UNK d   1      40.593  11.063  42.861  0.00  0.00    -0.173 OA
ATOM     21  H   UNK d   1      40.899   7.766  45.646  0.00  0.00     0.286 HD
ENDROOT
BRANCH   1  22
ATOM     22  C   UNK d   1      42.674  13.640  47.401  0.00  0.00     0.047 A 
ATOM     23  C   UNK d   1      43.819  14.439  47.357  0.00  0.00     0.032 A 
ATOM     24  C   UNK d   1      44.275  15.139  48.440  0.00  0.00     0.026 A 
ATOM     25  C   UNK d   1      43.614  15.095  49.669  0.00  0.00     0.034 A 
ATOM     26 Cl   UNK d   1      44.210  16.009  51.041  0.00  0.00    -0.084 Cl
ATOM     27  C   UNK d   1      42.482  14.305  49.715  0.00  0.00     0.026 A 
ATOM     28  C   UNK d   1      42.026  13.602  48.625  0.00  0.00     0.032 A 
ENDBRANCH   1  22
TORSDOF 1
ENDMDL
