MODEL 1
REMARK VINA RESULT:    -7.213      0.000      0.000
REMARK INTER + INTRA:          -8.594
REMARK INTER:                  -8.057
REMARK INTRA:                  -0.537
REMARK UNBOUND:                -0.537
REMARK  3 active torsions:
REMARK  status: ('A' for Active; 'I' for Inactive)
REMARK    1  A    between atoms: C_5  and  N_8 
REMARK    2  A    between atoms: C_13  and  O_21 
REMARK    3  A    between atoms: C_14  and  O_20 
ROOT
ATOM      1  N   UNK d   1      43.045   8.268  44.256  0.00  0.00    -0.252 N 
ATOM      2  C   UNK d   1      42.658   8.745  45.555  0.00  0.00     0.236 C 
ATOM      3  O   UNK d   1      43.108   8.268  46.627  0.00  0.00    -0.272 OA
ATOM      4  C   UNK d   1      41.675   9.851  45.438  0.00  0.00     0.099 C 
ATOM      5  C   UNK d   1      42.177  11.159  45.957  0.00  0.00     0.031 C 
ATOM      6  C   UNK d   1      43.677  11.182  45.752  0.00  0.00     0.152 C 
ATOM      7  C   UNK d   1      43.775  11.176  44.228  0.00  0.00     0.152 C 
ATOM      8  C   UNK d   1      42.357  11.295  43.719  0.00  0.00     0.031 C 
ATOM      9  C   UNK d   1      41.548  10.052  43.923  0.00  0.00     0.099 C 
ATOM     10  C   UNK d   1      42.141   8.834  43.320  0.00  0.00     0.236 C 
ATOM     11  O   UNK d   1      41.864   8.405  42.173  0.00  0.00    -0.272 OA
ATOM     12  C   UNK d   1      41.775  12.159  44.860  0.00  0.00     0.016 C 
ENDROOT
BRANCH   1  13
ATOM     13  C   UNK d   1      44.117   7.403  43.909  0.00  0.00     0.045 A 
ATOM     14  C   UNK d   1      45.296   7.917  43.356  0.00  0.00     0.032 A 
ATOM     15  C   UNK d   1      46.333   7.083  43.011  0.00  0.00     0.026 A 
ATOM     16  C   UNK d   1      46.251   5.716  43.196  0.00  0.00     0.034 A 
ATOM     17 Cl   UNK d   1      47.595   4.670  42.741  0.00  0.00    -0.084 Cl
ATOM     18  C   UNK d   1      45.093   5.182  43.742  0.00  0.00     0.026 A 
ATOM     19  C   UNK d   1      44.072   6.039  44.079  0.00  0.00     0.032 A 
ENDBRANCH   1  13
BRANCH   6  20
ATOM     20  O   UNK d   1      44.146  12.400  46.195  0.00  0.00    -0.393 OA
ATOM     21  H   UNK d   1      43.471  13.116  46.240  0.00  0.00     0.210 HD
ENDBRANCH   6  20
BRANCH   7  22
ATOM     22  O   UNK d   1      44.445  12.308  43.768  0.00  0.00    -0.393 OA
ATOM     23  H   UNK d   1      43.778  12.861  43.261  0.00  0.00     0.210 HD
ENDBRANCH   7  22
TORSDOF 3
ENDMDL
