MODEL 1
REMARK VINA RESULT:    -8.105      0.000      0.000
REMARK INTER + INTRA:         -11.802
REMARK INTER:                 -10.710
REMARK INTRA:                  -1.092
REMARK UNBOUND:                -1.092
REMARK  6 active torsions:
REMARK  status: ('A' for Active; 'I' for Inactive)
REMARK    1  A    between atoms: C_5  and  N_8 
REMARK    2  A    between atoms: C_14  and  C_17 
REMARK    3  A    between atoms: C_19  and  C_22 
REMARK    4  A    between atoms: C_24  and  O_31 
REMARK    5  A    between atoms: C_25  and  O_30 
REMARK    6  A    between atoms: C_26  and  O_28 
ROOT
ATOM      1  C   UNK d   1      42.883  11.314  46.019  0.00  0.00     0.041 C 
ATOM      2  C   UNK d   1      42.785  12.345  45.203  0.00  0.00     0.026 C 
ATOM      3  C   UNK d   1      43.880  13.311  45.472  0.00  0.00     0.134 C 
ATOM      4  N   UNK d   1      44.839  12.512  46.183  0.00  0.00    -0.228 NA
ATOM      5  N   UNK d   1      44.029  11.562  46.825  0.00  0.00    -0.323 N 
ATOM      6  H   UNK d   1      45.457  13.026  46.808  0.00  0.00     0.147 HD
ATOM      7  H   UNK d   1      44.249  11.122  47.741  0.00  0.00     0.180 HD
ENDROOT
BRANCH   1   8
ATOM      8  C   UNK d   1      41.986  10.109  46.095  0.00  0.00     0.221 C 
ATOM      9  C   UNK d   1      40.834  10.266  45.180  0.00  0.00     0.244 C 
ATOM     10  N   UNK d   1      40.940   9.843  43.836  0.00  0.00    -0.277 N 
ATOM     11  O   UNK d   1      39.777  10.772  45.605  0.00  0.00    -0.272 OA
ATOM     12  C   UNK d   1      41.958   8.970  43.439  0.00  0.00     0.336 C 
ATOM     13  H   UNK d   1      40.255  10.171  43.095  0.00  0.00     0.173 HD
ATOM     14  N   UNK d   1      42.909   8.486  44.376  0.00  0.00    -0.233 N 
ATOM     15  O   UNK d   1      42.077   8.570  42.228  0.00  0.00    -0.246 OA
ATOM     16  C   UNK d   1      42.790   8.920  45.722  0.00  0.00     0.251 C 
ATOM     17  O   UNK d   1      43.373   8.289  46.621  0.00  0.00    -0.271 OA
BRANCH  14  18
ATOM     18  C   UNK d   1      43.936   7.600  43.953  0.00  0.00     0.047 A 
ATOM     19  C   UNK d   1      45.075   8.085  43.361  0.00  0.00     0.032 A 
ATOM     20  C   UNK d   1      46.091   7.250  42.943  0.00  0.00     0.026 A 
ATOM     21  C   UNK d   1      45.982   5.893  43.112  0.00  0.00     0.034 A 
ATOM     22 Cl   UNK d   1      47.271   4.804  42.583  0.00  0.00    -0.084 Cl
ATOM     23  C   UNK d   1      44.849   5.385  43.703  0.00  0.00     0.026 A 
ATOM     24  C   UNK d   1      43.828   6.248  44.122  0.00  0.00     0.032 A 
ENDBRANCH  14  18
ENDBRANCH   1   8
BRANCH   3  25
ATOM     25  C   UNK d   1      43.339  14.434  46.228  0.00  0.00    -0.030 A 
ATOM     26  C   UNK d   1      44.212  15.226  46.943  0.00  0.00     0.049 A 
ATOM     27  C   UNK d   1      43.799  16.313  47.687  0.00  0.00     0.104 A 
ATOM     28  C   UNK d   1      42.430  16.607  47.706  0.00  0.00     0.133 A 
ATOM     29  C   UNK d   1      41.518  15.844  47.009  0.00  0.00     0.104 A 
ATOM     30  C   UNK d   1      42.005  14.773  46.287  0.00  0.00     0.049 A 
BRANCH  27  31
ATOM     31  O   UNK d   1      44.671  17.118  48.409  0.00  0.00    -0.353 OA
ATOM     32  C   UNK d   1      45.689  17.771  47.679  0.00  0.00     0.210 C 
ENDBRANCH  27  31
BRANCH  28  33
ATOM     33  O   UNK d   1      41.969  17.681  48.434  0.00  0.00    -0.356 OA
ATOM     34  H   UNK d   1      41.675  17.550  49.392  0.00  0.00     0.218 HD
ENDBRANCH  28  33
BRANCH  29  35
ATOM     35  O   UNK d   1      40.197  16.172  47.062  0.00  0.00    -0.353 OA
ATOM     36  C   UNK d   1      39.212  15.553  47.838  0.00  0.00     0.210 C 
ENDBRANCH  29  35
ENDBRANCH   3  25
TORSDOF 6
ENDMDL
