MODEL 1
REMARK VINA RESULT:    -8.872      0.000      0.000
REMARK INTER + INTRA:         -11.726
REMARK INTER:                 -11.206
REMARK INTRA:                  -0.520
REMARK UNBOUND:                -0.520
REMARK  5 active torsions:
REMARK  status: ('A' for Active; 'I' for Inactive)
REMARK    1  A    between atoms: C_5  and  N_8 
REMARK    2  A    between atoms: C_14  and  C_17 
REMARK    3  A    between atoms: C_19  and  C_22 
REMARK    4  A    between atoms: C_24  and  O_30 
REMARK    5  A    between atoms: C_25  and  O_28 
ROOT
ATOM      1  N   UNK d   1      43.667  11.859  46.337  0.00  0.00    -0.233 N 
ATOM      2  C   UNK d   1      43.924  11.148  47.541  0.00  0.00     0.336 C 
ATOM      3  O   UNK d   1      44.910  11.507  48.249  0.00  0.00    -0.246 OA
ATOM      4  N   UNK d   1      43.110  10.069  47.951  0.00  0.00    -0.277 N 
ATOM      5  C   UNK d   1      42.006   9.662  47.166  0.00  0.00     0.244 C 
ATOM      6  O   UNK d   1      41.154   8.811  47.602  0.00  0.00    -0.272 OA
ATOM      7  C   UNK d   1      41.785  10.194  45.821  0.00  0.00     0.221 C 
ATOM      8  C   UNK d   1      42.551  11.422  45.575  0.00  0.00     0.251 C 
ATOM      9  O   UNK d   1      42.214  12.184  44.604  0.00  0.00    -0.271 OA
ATOM     10  H   UNK d   1      43.317   9.555  48.847  0.00  0.00     0.173 HD
ENDROOT
BRANCH   7  11
ATOM     11  C   UNK d   1      42.060   9.142  44.798  0.00  0.00     0.041 C 
ATOM     12  C   UNK d   1      42.653   9.275  43.641  0.00  0.00     0.026 C 
ATOM     13  C   UNK d   1      42.678   7.935  43.005  0.00  0.00     0.134 C 
ATOM     14  N   UNK d   1      41.668   7.189  43.724  0.00  0.00    -0.228 NA
ATOM     15  N   UNK d   1      41.678   7.785  44.990  0.00  0.00    -0.323 N 
ATOM     16  H   UNK d   1      40.730   7.273  43.265  0.00  0.00     0.147 HD
ATOM     17  H   UNK d   1      41.440   7.274  45.879  0.00  0.00     0.180 HD
BRANCH  13  18
ATOM     18  C   UNK d   1      44.012   7.296  43.178  0.00  0.00    -0.032 A 
ATOM     19  C   UNK d   1      45.187   7.968  42.929  0.00  0.00     0.048 A 
ATOM     20  C   UNK d   1      46.430   7.384  43.084  0.00  0.00     0.099 A 
ATOM     21  C   UNK d   1      46.528   6.078  43.506  0.00  0.00     0.101 A 
ATOM     22  C   UNK d   1      45.367   5.390  43.760  0.00  0.00     0.040 A 
ATOM     23  C   UNK d   1      44.133   5.981  43.601  0.00  0.00     0.012 A 
BRANCH  20  24
ATOM     24  O   UNK d   1      47.575   8.111  42.818  0.00  0.00    -0.358 OA
ATOM     25  H   UNK d   1      47.614   9.098  42.978  0.00  0.00     0.217 HD
ENDBRANCH  20  24
BRANCH  21  26
ATOM     26  O   UNK d   1      47.759   5.475  43.668  0.00  0.00    -0.353 OA
ATOM     27  C   UNK d   1      48.028   4.253  43.019  0.00  0.00     0.210 C 
ENDBRANCH  21  26
ENDBRANCH  13  18
ENDBRANCH   7  11
BRANCH   1  28
ATOM     28  C   UNK d   1      44.466  12.950  45.901  0.00  0.00     0.047 A 
ATOM     29  C   UNK d   1      44.693  14.065  46.700  0.00  0.00     0.032 A 
ATOM     30  C   UNK d   1      45.458  15.113  46.287  0.00  0.00     0.026 A 
ATOM     31  C   UNK d   1      46.039  15.084  45.028  0.00  0.00     0.034 A 
ATOM     32 Cl   UNK d   1      47.032  16.414  44.459  0.00  0.00    -0.084 Cl
ATOM     33  C   UNK d   1      45.834  13.988  44.205  0.00  0.00     0.026 A 
ATOM     34  C   UNK d   1      45.045  12.926  44.652  0.00  0.00     0.032 A 
ENDBRANCH   1  28
TORSDOF 5
ENDMDL
