MODEL 1
REMARK VINA RESULT:    -8.431      0.000      0.000
REMARK INTER + INTRA:         -10.734
REMARK INTER:                 -10.156
REMARK INTRA:                  -0.578
REMARK UNBOUND:                -0.578
REMARK  4 active torsions:
REMARK  status: ('A' for Active; 'I' for Inactive)
REMARK    1  A    between atoms: C_5  and  N_8 
REMARK    2  A    between atoms: C_14  and  C_17 
REMARK    3  A    between atoms: C_19  and  C_22 
REMARK    4  A    between atoms: C_24  and  O_28 
ROOT
ATOM      1  N   UNK d   1      42.109  12.533  45.628  0.00  0.00    -0.233 N 
ATOM      2  C   UNK d   1      40.953  13.092  44.984  0.00  0.00     0.336 C 
ATOM      3  O   UNK d   1      40.629  14.309  45.145  0.00  0.00    -0.246 OA
ATOM      4  N   UNK d   1      40.194  12.216  44.163  0.00  0.00    -0.277 N 
ATOM      5  C   UNK d   1      40.586  10.835  43.998  0.00  0.00     0.244 C 
ATOM      6  O   UNK d   1      40.195  10.264  42.972  0.00  0.00    -0.272 OA
ATOM      7  C   UNK d   1      41.399  10.200  45.017  0.00  0.00     0.221 C 
ATOM      8  C   UNK d   1      42.454  11.171  45.434  0.00  0.00     0.251 C 
ATOM      9  O   UNK d   1      43.656  10.857  45.631  0.00  0.00    -0.271 OA
ATOM     10  H   UNK d   1      39.357  12.600  43.690  0.00  0.00     0.173 HD
ENDROOT
BRANCH   7  11
ATOM     11  C   UNK d   1      41.921   8.881  44.743  0.00  0.00     0.041 C 
ATOM     12  C   UNK d   1      42.578   8.449  43.690  0.00  0.00     0.026 C 
ATOM     13  C   UNK d   1      42.929   7.014  43.825  0.00  0.00     0.134 C 
ATOM     14  N   UNK d   1      42.625   6.741  45.210  0.00  0.00    -0.228 NA
ATOM     15  N   UNK d   1      41.781   7.761  45.642  0.00  0.00    -0.323 N 
ATOM     16  H   UNK d   1      43.478   6.632  45.800  0.00  0.00     0.147 HD
ATOM     17  H   UNK d   1      41.172   7.670  46.483  0.00  0.00     0.180 HD
BRANCH  13  18
ATOM     18  C   UNK d   1      44.357   6.747  43.618  0.00  0.00    -0.033 A 
ATOM     19  C   UNK d   1      44.805   5.442  43.753  0.00  0.00     0.045 A 
ATOM     20  C   UNK d   1      46.137   5.157  43.565  0.00  0.00     0.066 A 
ATOM     21  C   UNK d   1      47.047   6.137  43.244  0.00  0.00     0.036 A 
ATOM     22  C   UNK d   1      46.619   7.437  43.107  0.00  0.00     0.003 A 
ATOM     23  C   UNK d   1      45.267   7.722  43.299  0.00  0.00     0.009 A 
BRANCH  20  24
ATOM     24  O   UNK d   1      46.601   3.842  43.697  0.00  0.00    -0.361 OA
ATOM     25  H   UNK d   1      47.582   3.655  43.584  0.00  0.00     0.217 HD
ENDBRANCH  20  24
ENDBRANCH  13  18
ENDBRANCH   7  11
BRANCH   1  26
ATOM     26  C   UNK d   1      42.885  13.419  46.466  0.00  0.00     0.047 A 
ATOM     27  C   UNK d   1      43.885  14.218  45.945  0.00  0.00     0.032 A 
ATOM     28  C   UNK d   1      44.646  15.073  46.721  0.00  0.00     0.026 A 
ATOM     29  C   UNK d   1      44.407  15.143  48.086  0.00  0.00     0.034 A 
ATOM     30 Cl   UNK d   1      45.381  16.227  49.036  0.00  0.00    -0.084 Cl
ATOM     31  C   UNK d   1      43.404  14.347  48.634  0.00  0.00     0.026 A 
ATOM     32  C   UNK d   1      42.663  13.503  47.827  0.00  0.00     0.032 A 
ENDBRANCH   1  26
TORSDOF 4
ENDMDL
