MODEL 1
REMARK VINA RESULT:    -8.435      0.000      0.000
REMARK INTER + INTRA:         -10.536
REMARK INTER:                  -9.914
REMARK INTRA:                  -0.622
REMARK UNBOUND:                -0.622
REMARK  3 active torsions:
REMARK  status: ('A' for Active; 'I' for Inactive)
REMARK    1  A    between atoms: C_5  and  N_8 
REMARK    2  A    between atoms: C_14  and  C_17 
REMARK    3  A    between atoms: C_19  and  C_22 
ROOT
ATOM      1  N   UNK d   1      42.720  10.182  44.348  0.00  0.00    -0.233 N 
ATOM      2  C   UNK d   1      41.872  10.093  43.218  0.00  0.00     0.336 C 
ATOM      3  O   UNK d   1      41.447  11.136  42.662  0.00  0.00    -0.246 OA
ATOM      4  N   UNK d   1      41.510   8.792  42.722  0.00  0.00    -0.277 N 
ATOM      5  C   UNK d   1      41.990   7.611  43.349  0.00  0.00     0.244 C 
ATOM      6  O   UNK d   1      41.412   6.517  43.129  0.00  0.00    -0.272 OA
ATOM      7  C   UNK d   1      43.154   7.690  44.245  0.00  0.00     0.221 C 
ATOM      8  C   UNK d   1      43.179   8.984  44.949  0.00  0.00     0.251 C 
ATOM      9  O   UNK d   1      43.629   9.045  46.145  0.00  0.00    -0.271 OA
ATOM     10  H   UNK d   1      40.888   8.680  41.893  0.00  0.00     0.173 HD
ENDROOT
BRANCH   7  11
ATOM     11  C   UNK d   1      44.432   7.494  43.481  0.00  0.00     0.041 C 
ATOM     12  C   UNK d   1      44.783   6.481  42.732  0.00  0.00     0.026 C 
ATOM     13  C   UNK d   1      46.127   6.727  42.186  0.00  0.00     0.135 C 
ATOM     14  N   UNK d   1      46.344   8.128  42.413  0.00  0.00    -0.228 NA
ATOM     15  N   UNK d   1      45.480   8.448  43.472  0.00  0.00    -0.323 N 
ATOM     16  H   UNK d   1      46.155   8.697  41.583  0.00  0.00     0.147 HD
ATOM     17  H   UNK d   1      45.648   9.267  44.101  0.00  0.00     0.180 HD
BRANCH  13  18
ATOM     18  C   UNK d   1      47.079   5.923  42.994  0.00  0.00    -0.018 A 
ATOM     19  C   UNK d   1      47.380   4.633  42.629  0.00  0.00     0.125 A 
ATOM     20  N   UNK d   1      48.252   3.890  43.366  0.00  0.00    -0.273 NA
ATOM     21  C   UNK d   1      48.853   4.367  44.468  0.00  0.00     0.116 A 
ATOM     22  C   UNK d   1      48.575   5.656  44.862  0.00  0.00     0.020 A 
ATOM     23  C   UNK d   1      47.679   6.434  44.114  0.00  0.00     0.012 A 
ENDBRANCH  13  18
ENDBRANCH   7  11
BRANCH   1  24
ATOM     24  C   UNK d   1      43.105  11.471  44.883  0.00  0.00     0.047 A 
ATOM     25  C   UNK d   1      44.269  12.102  44.502  0.00  0.00     0.032 A 
ATOM     26  C   UNK d   1      44.627  13.340  45.026  0.00  0.00     0.026 A 
ATOM     27  C   UNK d   1      43.825  13.980  45.948  0.00  0.00     0.034 A 
ATOM     28 Cl   UNK d   1      44.271  15.543  46.611  0.00  0.00    -0.084 Cl
ATOM     29  C   UNK d   1      42.662  13.344  46.327  0.00  0.00     0.026 A 
ATOM     30  C   UNK d   1      42.308  12.114  45.805  0.00  0.00     0.032 A 
ENDBRANCH   1  24
TORSDOF 3
ENDMDL
