/Users/jonathanwahrer/Desktop/Msc/3_Semester/Drug_Design_Praktikum/waehrer_HTS_screening/HTS_experiment/out/docking_results/vina_output/2qfa/2361_docked.pdbqt
 OpenBabel03162221333D

 30 33  0  0  1  0  0  0  0  0999 V2000
   42.7200   10.1820   44.3480 N   0  0  0  0  0  0  0  0  0  0  0  0
   41.8720   10.0930   43.2180 C   0  0  0  0  0  0  0  0  0  0  0  0
   41.4470   11.1360   42.6620 O   0  0  0  0  0  0  0  0  0  0  0  0
   41.5100    8.7920   42.7220 N   0  0  0  0  0  0  0  0  0  0  0  0
   41.9900    7.6110   43.3490 C   0  0  0  0  0  0  0  0  0  0  0  0
   41.4120    6.5170   43.1290 O   0  0  0  0  0  0  0  0  0  0  0  0
   43.1540    7.6900   44.2450 C   0  0  2  0  0  3  0  0  0  0  0  0
   43.1790    8.9840   44.9490 C   0  0  0  0  0  0  0  0  0  0  0  0
   43.6290    9.0450   46.1450 O   0  0  0  0  0  0  0  0  0  0  0  0
   40.8880    8.6800   41.8930 H   0  0  0  0  0  0  0  0  0  0  0  0
   44.4320    7.4940   43.4810 C   0  0  1  0  0  3  0  0  0  0  0  0
   44.7830    6.4810   42.7320 C   0  0  0  0  0  2  0  0  0  0  0  0
   46.1270    6.7270   42.1860 C   0  0  1  0  0  3  0  0  0  0  0  0
   46.3440    8.1280   42.4130 N   0  0  0  0  0  0  0  0  0  0  0  0
   45.4800    8.4480   43.4720 N   0  0  0  0  0  0  0  0  0  0  0  0
   46.1550    8.6970   41.5830 H   0  0  0  0  0  0  0  0  0  0  0  0
   45.6480    9.2670   44.1010 H   0  0  0  0  0  0  0  0  0  0  0  0
   47.0790    5.9230   42.9940 C   0  0  0  0  0  0  0  0  0  0  0  0
   47.3800    4.6330   42.6290 C   0  0  0  0  0  3  0  0  0  0  0  0
   48.2520    3.8900   43.3660 N   0  0  0  0  0  0  0  0  0  0  0  0
   48.8530    4.3670   44.4680 C   0  0  0  0  0  3  0  0  0  0  0  0
   48.5750    5.6560   44.8620 C   0  0  0  0  0  3  0  0  0  0  0  0
   47.6790    6.4340   44.1140 C   0  0  0  0  0  3  0  0  0  0  0  0
   43.1050   11.4710   44.8830 C   0  0  0  0  0  0  0  0  0  0  0  0
   44.2690   12.1020   44.5020 C   0  0  0  0  0  3  0  0  0  0  0  0
   44.6270   13.3400   45.0260 C   0  0  0  0  0  3  0  0  0  0  0  0
   43.8250   13.9800   45.9480 C   0  0  0  0  0  0  0  0  0  0  0  0
   44.2710   15.5430   46.6110 Cl  0  0  0  0  0  0  0  0  0  0  0  0
   42.6620   13.3440   46.3270 C   0  0  0  0  0  3  0  0  0  0  0  0
   42.3080   12.1140   45.8050 C   0  0  0  0  0  3  0  0  0  0  0  0
  1 24  1  0  0  0  0
  1  8  1  0  0  0  0
  2  1  1  0  0  0  0
  3  2  2  0  0  0  0
  4  2  1  0  0  0  0
  4  5  1  0  0  0  0
  6  5  2  0  0  0  0
  7  5  1  6  0  0  0
  7  8  1  0  0  0  0
  8  9  2  0  0  0  0
 10  4  1  0  0  0  0
 11 12  1  6  0  0  0
 11  7  1  0  0  0  0
 13 14  1  0  0  0  0
 13 12  1  0  0  0  0
 13 18  1  1  0  0  0
 14 15  1  0  0  0  0
 15 11  1  0  0  0  0
 15 17  1  0  0  0  0
 16 14  1  0  0  0  0
 18 23  1  0  0  0  0
 19 18  2  0  0  0  0
 19 20  1  0  0  0  0
 20 21  2  0  0  0  0
 21 22  1  0  0  0  0
 23 22  2  0  0  0  0
 24 30  1  0  0  0  0
 25 24  2  0  0  0  0
 25 26  1  0  0  0  0
 26 27  2  0  0  0  0
 27 29  1  0  0  0  0
 27 28  1  0  0  0  0
 30 29  2  0  0  0  0
M  END
>  <Pose>
1

>  <Score>
-8.435

$$$$
