/Users/jonathanwahrer/Desktop/Msc/3_Semester/Drug_Design_Praktikum/waehrer_HTS_screening/HTS_experiment/out/docking_results/vina_output/2qfa/2364_docked.pdbqt
 OpenBabel03162221343D

 33 37  0  0  1  0  0  0  0  0999 V2000
   42.3070    8.5280   44.5990 N   0  0  0  0  0  0  0  0  0  0  0  0
   42.1490    8.1430   45.9590 C   0  0  0  0  0  0  0  0  0  0  0  0
   42.0990    6.9060   46.2550 O   0  0  0  0  0  0  0  0  0  0  0  0
   42.0370    9.1030   47.0620 C   0  0  1  0  0  3  0  0  0  0  0  0
   41.8630   10.4600   46.6630 N   0  0  1  0  0  0  0  0  0  0  0  0
   42.4960   10.8530   45.4460 C   0  0  2  0  0  0  0  0  0  0  0  0
   43.9220   11.3310   45.5680 C   0  0  0  0  0  2  0  0  0  0  0  0
   43.5030   12.6540   45.2360 N   0  0  0  0  0  0  0  0  0  0  0  0
   42.1430   12.2970   45.1340 C   0  0  0  0  0  2  0  0  0  0  0  0
   42.2570    9.9210   44.3140 C   0  0  0  0  0  0  0  0  0  0  0  0
   42.0190   10.3070   43.1410 O   0  0  0  0  0  0  0  0  0  0  0  0
   40.4550   10.7260   46.5780 C   0  0  0  0  0  2  0  0  0  0  0  0
   39.7210    9.4890   47.0110 C   0  0  1  0  0  3  0  0  0  0  0  0
   40.7490    8.7530   47.8210 C   0  0  0  0  0  2  0  0  0  0  0  0
   43.9150   13.7400   46.0480 C   0  0  0  0  0  2  0  0  0  0  0  0
   45.0630   14.5130   45.5590 C   0  0  0  0  0  0  0  0  0  0  0  0
   45.5100   15.6020   46.2660 C   0  0  0  0  0  3  0  0  0  0  0  0
   46.6000   16.3560   45.8240 C   0  0  0  0  0  0  0  0  0  0  0  0
   47.2330   15.9950   44.6560 C   0  0  0  0  0  3  0  0  0  0  0  0
   46.8070   14.9100   43.9290 C   0  0  0  0  0  3  0  0  0  0  0  0
   45.7170   14.1790   44.3990 C   0  0  0  0  0  3  0  0  0  0  0  0
   47.0520   17.4520   46.5320 O   0  0  0  0  0  0  0  0  0  0  0  0
   46.4950   17.7080   47.8080 C   0  0  0  0  0  1  0  0  0  0  0  0
   42.5090    7.5570   43.5380 C   0  0  0  0  0  2  0  0  0  0  0  0
   43.9750    7.2530   43.3960 C   0  0  0  0  0  0  0  0  0  0  0  0
   44.4400    5.9600   43.4710 C   0  0  0  0  0  3  0  0  0  0  0  0
   45.7790    5.6540   43.3450 C   0  0  0  0  0  0  0  0  0  0  0  0
   46.3330    3.9970   43.4450 Cl  0  0  0  0  0  0  0  0  0  0  0  0
   46.6950    6.6580   43.1390 C   0  0  0  0  0  3  0  0  0  0  0  0
   46.2100    7.9440   43.0680 C   0  0  0  0  0  3  0  0  0  0  0  0
   44.8930    8.2590   43.1900 C   0  0  0  0  0  3  0  0  0  0  0  0
   38.5700    9.7680   47.7360 O   0  0  0  0  0  0  0  0  0  0  0  0
   37.9340    9.0290   47.5730 H   0  0  0  0  0  0  0  0  0  0  0  0
  1  2  1  0  0  0  0
  2  3  2  0  0  0  0
  2  4  1  0  0  0  0
  4 14  1  1  0  0  0
  5 12  1  6  0  0  0
  5  4  1  0  0  0  0
  6  9  1  6  0  0  0
  6  7  1  0  0  0  0
  6  5  1  0  0  0  0
  8  7  1  0  0  0  0
  8 15  1  0  0  0  0
  9  8  1  0  0  0  0
 10  1  1  0  0  0  0
 10  6  1  0  0  0  0
 11 10  2  0  0  0  0
 12 13  1  0  0  0  0
 13 32  1  1  0  0  0
 13 14  1  0  0  0  0
 16 15  1  0  0  0  0
 16 17  1  0  0  0  0
 18 17  2  0  0  0  0
 18 22  1  0  0  0  0
 19 18  1  0  0  0  0
 20 21  1  0  0  0  0
 20 19  2  0  0  0  0
 21 16  2  0  0  0  0
 22 23  1  0  0  0  0
 24  1  1  0  0  0  0
 25 26  1  0  0  0  0
 25 24  1  0  0  0  0
 27 28  1  0  0  0  0
 27 26  2  0  0  0  0
 29 27  1  0  0  0  0
 30 29  2  0  0  0  0
 30 31  1  0  0  0  0
 31 25  2  0  0  0  0
 33 32  1  0  0  0  0
M  END
>  <Pose>
1

>  <Score>
-8.785

$$$$
