/Users/jonathanwahrer/Desktop/Msc/3_Semester/Drug_Design_Praktikum/waehrer_HTS_screening/HTS_experiment/out/docking_results/vina_output/2qfa/2365_docked.pdbqt
 OpenBabel03162221343D

 32 36  0  0  1  0  0  0  0  0999 V2000
   45.1910    7.7210   43.8440 N   0  0  0  0  0  0  0  0  0  0  0  0
   43.8830    7.8030   44.3430 C   0  0  0  0  0  0  0  0  0  0  0  0
   43.4300    6.8200   45.0060 O   0  0  0  0  0  0  0  0  0  0  0  0
   45.5800    8.5250   43.2950 H   0  0  0  0  0  0  0  0  0  0  0  0
   42.9840    8.9640   44.1480 C   0  0  1  0  0  0  0  0  0  0  0  0
   42.1420    9.2030   45.3850 C   0  0  0  0  0  2  0  0  0  0  0  0
   41.2200   10.3730   45.1870 C   0  0  1  0  0  0  0  0  0  0  0  0
   42.1000   11.6080   44.9850 C   0  0  0  0  0  2  0  0  0  0  0  0
   40.3440   10.2330   43.9810 C   0  0  0  0  0  2  0  0  0  0  0  0
   42.9650   11.4150   43.7800 C   0  0  1  0  0  3  0  0  0  0  0  0
   43.8410   10.1950   43.9460 C   0  0  0  0  0  2  0  0  0  0  0  0
   42.0850   11.2400   42.5640 C   0  0  0  0  0  2  0  0  0  0  0  0
   41.2310   10.0130   42.7820 C   0  0  1  0  0  3  0  0  0  0  0  0
   42.0980    8.7910   42.9340 C   0  0  0  0  0  2  0  0  0  0  0  0
   40.4580   10.5320   46.4100 N   0  0  0  0  0  0  0  0  0  0  0  0
   40.2850   11.5980   47.1710 N   0  0  0  0  0  0  0  0  0  0  0  0
   39.5270   11.3470   48.1960 N   0  0  0  0  0  0  0  0  0  0  0  0
   39.1710   10.0760   48.1360 C   0  0  0  0  0  3  0  0  0  0  0  0
   39.7530    9.5620   47.0160 N   0  0  0  0  0  0  0  0  0  0  0  0
   45.9750    6.6100   44.0630 N   0  0  0  0  0  0  0  0  0  0  0  0
   46.4180    5.7230   43.0530 C   0  0  0  0  0  0  0  0  0  0  0  0
   46.1110    5.9060   41.8480 O   0  0  0  0  0  0  0  0  0  0  0  0
   46.2760    6.3890   45.0530 H   0  0  0  0  0  0  0  0  0  0  0  0
   47.2670    4.5350   43.3540 C   0  0  1  0  0  3  0  0  0  0  0  0
   47.4840    3.6710   42.1570 C   0  0  0  0  0  1  0  0  0  0  0  0
   48.5740    4.9990   43.9550 C   0  0  0  0  0  2  0  0  0  0  0  0
   49.3540    3.9110   44.4960 N   0  0  0  0  0  0  0  0  0  0  0  0
   49.5350    3.5810   45.8010 C   0  0  0  0  0  3  0  0  0  0  0  0
   50.3520    2.4720   45.8880 C   0  0  0  0  0  0  0  0  0  0  0  0
   50.9630    1.5430   47.4360 Br  0  0  0  0  0  0  0  0  0  0  0  0
   50.6550    2.1470   44.5640 C   0  0  0  0  0  3  0  0  0  0  0  0
   50.0260    3.0470   43.7860 N   0  0  0  0  0  0  0  0  0  0  0  0
  1 20  1  0  0  0  0
  1  2  1  0  0  0  0
  2  3  2  0  0  0  0
  4  1  1  0  0  0  0
  5  2  1  1  0  0  0
  5  6  1  0  0  0  0
  7  9  1  6  0  0  0
  7  6  1  0  0  0  0
  7 15  1  0  0  0  0
  8  7  1  0  0  0  0
 10 12  1  6  0  0  0
 10 11  1  0  0  0  0
 10  8  1  0  0  0  0
 11  5  1  0  0  0  0
 13 12  1  1  0  0  0
 13 14  1  0  0  0  0
 13  9  1  0  0  0  0
 14  5  1  0  0  0  0
 15 19  1  0  0  0  0
 15 16  1  0  0  0  0
 16 17  2  0  0  0  0
 18 17  1  0  0  0  0
 19 18  2  0  0  0  0
 20 23  1  0  0  0  0
 21 24  1  0  0  0  0
 21 20  1  0  0  0  0
 22 21  2  0  0  0  0
 24 25  1  6  0  0  0
 24 26  1  0  0  0  0
 26 27  1  0  0  0  0
 27 28  1  0  0  0  0
 28 29  2  0  0  0  0
 29 30  1  0  0  0  0
 31 29  1  0  0  0  0
 32 27  1  0  0  0  0
 32 31  2  0  0  0  0
M  END
>  <Pose>
1

>  <Score>
-8.013

$$$$
