MODEL 1
REMARK VINA RESULT:    -9.040      0.000      0.000
REMARK INTER + INTRA:         -12.734
REMARK INTER:                 -11.418
REMARK INTRA:                  -1.316
REMARK UNBOUND:                -1.316
REMARK  5 active torsions:
REMARK  status: ('A' for Active; 'I' for Inactive)
REMARK    1  A    between atoms: C_5  and  C_8 
REMARK    2  A    between atoms: C_8  and  O_33 
REMARK       I    between atoms: N_11  and  C_14 
REMARK    3  A    between atoms: C_14  and  C_16 
REMARK    4  A    between atoms: C_16  and  N_17 
REMARK       I    between atoms: N_17  and  C_18 
REMARK    5  A    between atoms: C_20  and  C_21 
ROOT
ATOM      1  C   UNK d   1      40.078  12.553  46.612  0.00  0.00     0.172 C 
ATOM      2  C   UNK d   1      38.917  12.649  47.447  0.00  0.00     0.042 C 
ENDROOT
BRANCH   1   3
ATOM      3  C   UNK d   1      39.892  12.116  45.166  0.00  0.00     0.242 C 
ATOM      4  N   UNK d   1      40.587  10.987  44.670  0.00  0.00    -0.350 N 
ATOM      5  C   UNK d   1      40.801  10.653  43.300  0.00  0.00     0.129 C 
ATOM      6  C   UNK d   1      40.876   9.885  45.609  0.00  0.00     0.129 C 
ATOM      7  C   UNK d   1      42.094   9.939  42.994  0.00  0.00     0.062 C 
ATOM      8  C   UNK d   1      42.919   9.511  44.133  0.00  0.00     0.088 C 
ATOM      9  C   UNK d   1      42.208   9.337  45.453  0.00  0.00     0.062 C 
ATOM     10  O   UNK d   1      39.127  12.757  44.449  0.00  0.00    -0.271 OA
BRANCH   8  11
ATOM     11  C   UNK d   1      43.638   8.235  43.916  0.00  0.00    -0.024 A 
ATOM     12  C   UNK d   1      44.847   8.321  43.242  0.00  0.00     0.012 A 
ATOM     13  C   UNK d   1      45.640   7.189  42.999  0.00  0.00     0.024 A 
ATOM     14  C   UNK d   1      45.223   5.953  43.437  0.00  0.00     0.034 A 
ATOM     15 Cl   UNK d   1      46.225   4.509  43.155  0.00  0.00    -0.084 Cl
ATOM     16  C   UNK d   1      44.017   5.868  44.111  0.00  0.00     0.024 A 
ATOM     17  C   UNK d   1      43.249   7.004  44.335  0.00  0.00     0.012 A 
ENDBRANCH   8  11
BRANCH   8  18
ATOM     18  O   UNK d   1      43.919  10.512  44.322  0.00  0.00    -0.385 OA
ATOM     19  H   UNK d   1      44.302  10.468  45.214  0.00  0.00     0.211 HD
ENDBRANCH   8  18
ENDBRANCH   1   3
BRANCH   1  20
ATOM     20  N   UNK d   1      41.174  13.490  46.694  0.00  0.00    -0.356 N 
ATOM     21  C   UNK d   1      42.318  13.321  47.472  0.00  0.00     0.177 C 
ATOM     22  O   UNK d   1      42.207  12.153  48.200  0.00  0.00    -0.172 OA
ATOM     23  C   UNK d   1      43.532  13.943  47.718  0.00  0.00     0.090 C 
ATOM     24  H   UNK d   1      40.956  14.373  46.119  0.00  0.00     0.162 HD
BRANCH  23  25
ATOM     25  C   UNK d   1      44.403  14.863  47.427  0.00  0.00     0.063 A 
ATOM     26  N   UNK d   1      44.748  15.868  48.442  0.00  0.00    -0.297 N 
ATOM     27  N   UNK d   1      45.725  16.826  48.258  0.00  0.00    -0.265 N 
ATOM     28  H   UNK d   1      44.196  15.814  49.341  0.00  0.00     0.187 HD
ATOM     29  C   UNK d   1      46.462  16.913  47.087  0.00  0.00     0.271 A 
ATOM     30  H   UNK d   1      45.920  17.519  49.032  0.00  0.00     0.190 HD
ATOM     31  O   UNK d   1      47.355  17.771  46.874  0.00  0.00    -0.266 OA
ATOM     32  C   UNK d   1      46.185  15.940  46.003  0.00  0.00     0.046 A 
ATOM     33  C   UNK d   1      45.207  15.001  46.229  0.00  0.00     0.008 A 
ATOM     34  C   UNK d   1      46.969  15.979  44.875  0.00  0.00     0.018 A 
ATOM     35  C   UNK d   1      45.052  14.044  45.220  0.00  0.00     0.015 A 
ATOM     36  C   UNK d   1      45.835  14.070  44.075  0.00  0.00     0.001 A 
ATOM     37  C   UNK d   1      46.793  15.032  43.889  0.00  0.00     0.001 A 
ENDBRANCH  23  25
ENDBRANCH   1  20
TORSDOF 5
ENDMDL
