MODEL 1
REMARK VINA RESULT:    -6.859      0.000      0.000
REMARK INTER + INTRA:          -8.767
REMARK INTER:                  -8.061
REMARK INTRA:                  -0.706
REMARK UNBOUND:                -0.706
REMARK  3 active torsions:
REMARK  status: ('A' for Active; 'I' for Inactive)
REMARK    1  A    between atoms: C_3  and  N_15 
REMARK    2  A    between atoms: N_6  and  C_9 
REMARK       I    between atoms: N_18  and  C_21 
REMARK    3  A    between atoms: C_21  and  C_23 
ROOT
ATOM      1 Cl   UNK d   1      41.317   8.159  46.330  0.00  0.00    -0.076 Cl
ATOM      2  C   UNK d   1      42.536   8.584  45.132  0.00  0.00     0.131 A 
ATOM      3  C   UNK d   1      42.521   9.863  44.631  0.00  0.00     0.077 A 
ATOM      4  C   UNK d   1      43.493  10.165  43.690  0.00  0.00     0.170 A 
ATOM      5  N   UNK d   1      44.382   9.229  43.316  0.00  0.00    -0.174 NA
ATOM      6  N   UNK d   1      44.408   7.995  43.790  0.00  0.00    -0.197 N 
ATOM      7  C   UNK d   1      43.478   7.669  44.705  0.00  0.00     0.292 A 
ATOM      8  O   UNK d   1      43.442   6.508  45.203  0.00  0.00    -0.264 OA
ENDROOT
BRANCH   3   9
ATOM      9  N   UNK d   1      41.549  10.783  45.080  0.00  0.00    -0.375 N 
ATOM     10  C   UNK d   1      41.842  11.759  46.124  0.00  0.00     0.143 C 
ATOM     11  C   UNK d   1      40.983  11.321  47.326  0.00  0.00     0.145 C 
ATOM     12  N   UNK d   1      39.617  11.170  46.932  0.00  0.00    -0.347 N 
ATOM     13  C   UNK d   1      39.274  11.542  45.544  0.00  0.00     0.145 C 
ATOM     14  C   UNK d   1      38.598  10.692  47.797  0.00  0.00     0.248 C 
ATOM     15  C   UNK d   1      40.195  10.848  44.561  0.00  0.00     0.143 C 
ATOM     16  O   UNK d   1      37.399  10.574  47.402  0.00  0.00    -0.270 OA
BRANCH  14  17
ATOM     17  C   UNK d   1      38.854  10.303  49.195  0.00  0.00     0.213 C 
ATOM     18  O   UNK d   1      37.815  10.656  50.001  0.00  0.00    -0.376 OA
ATOM     19  C   UNK d   1      37.723   9.725  51.028  0.00  0.00     0.168 C 
ATOM     20  C   UNK d   1      37.936   8.425  50.266  0.00  0.00     0.029 C 
ATOM     21  C   UNK d   1      39.073   8.815  49.345  0.00  0.00     0.043 C 
ENDBRANCH  14  17
ENDBRANCH   3   9
BRANCH   6  22
ATOM     22  C   UNK d   1      45.385   7.040  43.349  0.00  0.00     0.062 A 
ATOM     23  C   UNK d   1      46.559   6.870  44.055  0.00  0.00     0.032 A 
ATOM     24  C   UNK d   1      47.519   5.944  43.638  0.00  0.00     0.002 A 
ATOM     25  C   UNK d   1      47.308   5.187  42.514  0.00  0.00     0.000 A 
ATOM     26  C   UNK d   1      46.146   5.346  41.802  0.00  0.00     0.002 A 
ATOM     27  C   UNK d   1      45.212   6.260  42.225  0.00  0.00     0.032 A 
ENDBRANCH   6  22
TORSDOF 3
ENDMDL
