/Users/jonathanwahrer/Desktop/Msc/3_Semester/Drug_Design_Praktikum/waehrer_HTS_screening/HTS_experiment/out/docking_results/vina_output/2qfa/2381_docked.pdbqt
 OpenBabel03162221363D

 30 33  0  0  0  0  0  0  0  0999 V2000
   41.9010   10.2800   45.1540 N   0  0  0  0  0  0  0  0  0  0  0  0
   40.6960   10.5140   44.4070 C   0  0  0  0  0  2  0  0  0  0  0  0
   40.3090   11.9760   44.4210 C   0  0  0  0  0  2  0  0  0  0  0  0
   40.6570   12.6130   45.6670 N   0  0  0  0  0  0  0  0  0  0  0  0
   41.0200   11.7850   46.7910 C   0  0  0  0  0  2  0  0  0  0  0  0
   42.2200   10.9670   46.3890 C   0  0  0  0  0  2  0  0  0  0  0  0
   40.6400   14.0270   45.7750 C   0  0  0  0  0  0  0  0  0  0  0  0
   40.3210   14.7630   44.7860 O   0  0  0  0  0  0  0  0  0  0  0  0
   42.8360    9.3220   44.6540 C   0  0  0  0  0  0  0  0  0  0  0  0
   42.8040    7.9940   45.0270 C   0  0  0  0  0  0  0  0  0  0  0  0
   41.5760    7.4560   46.1490 Cl  0  0  0  0  0  0  0  0  0  0  0  0
   43.7470    7.1260   44.4980 C   0  0  0  0  0  0  0  0  0  0  0  0
   44.7020    7.5100   43.6320 N   0  0  0  0  0  0  0  0  0  0  0  0
   43.7260    5.9220   44.8320 O   0  0  0  0  0  0  0  0  0  0  0  0
   44.7170    8.7870   43.2850 N   0  0  0  0  0  0  0  0  0  0  0  0
   43.8310    9.6810   43.7620 C   0  0  0  0  0  3  0  0  0  0  0  0
   45.6480    6.5670   43.1210 C   0  0  0  0  0  0  0  0  0  0  0  0
   45.4300    5.9270   41.9180 C   0  0  0  0  0  3  0  0  0  0  0  0
   46.3380    5.0150   41.4180 C   0  0  0  0  0  3  0  0  0  0  0  0
   47.5000    4.7020   42.0920 C   0  0  0  0  0  3  0  0  0  0  0  0
   47.7240    5.3380   43.2950 C   0  0  0  0  0  3  0  0  0  0  0  0
   46.8150    6.2460   43.7890 C   0  0  0  0  0  3  0  0  0  0  0  0
   40.9880   14.7330   47.0350 C   0  0  0  0  0  2  0  0  0  0  0  0
   42.2420   15.3560   46.9580 O   0  0  0  0  0  0  0  0  0  0  0  0
   43.3980   14.6020   46.8960 C   0  0  0  0  0  0  0  0  0  0  0  0
   44.2070   14.3570   45.8590 N   0  0  0  0  0  0  0  0  0  0  0  0
   45.1880   13.5990   46.2240 O   0  0  0  0  0  0  0  0  0  0  0  0
   45.1070   13.2900   47.5020 C   0  0  0  0  0  0  0  0  0  0  0  0
   43.9680   13.9190   47.9610 C   0  0  0  0  0  3  0  0  0  0  0  0
   46.0870   12.4380   48.2010 C   0  0  0  0  0  1  0  0  0  0  0  0
  1  6  1  0  0  0  0
  2  3  1  0  0  0  0
  2  1  1  0  0  0  0
  3  4  1  0  0  0  0
  4  7  1  0  0  0  0
  4  5  1  0  0  0  0
  6  5  1  0  0  0  0
  7 23  1  0  0  0  0
  8  7  2  0  0  0  0
  9 10  2  0  0  0  0
  9  1  1  0  0  0  0
 10 11  1  0  0  0  0
 12 14  2  0  0  0  0
 12 10  1  0  0  0  0
 13 12  1  0  0  0  0
 15 13  1  0  0  0  0
 15 16  2  0  0  0  0
 16  9  1  0  0  0  0
 17 13  1  0  0  0  0
 17 22  1  0  0  0  0
 18 17  2  0  0  0  0
 19 18  1  0  0  0  0
 19 20  2  0  0  0  0
 20 21  1  0  0  0  0
 21 22  2  0  0  0  0
 24 23  1  0  0  0  0
 25 24  1  0  0  0  0
 25 29  1  0  0  0  0
 26 27  1  0  0  0  0
 26 25  2  0  0  0  0
 27 28  1  0  0  0  0
 28 29  2  0  0  0  0
 28 30  1  0  0  0  0
M  END
>  <Pose>
1

>  <Score>
-6.984

$$$$
