MODEL 1
REMARK VINA RESULT:    -6.984      0.000      0.000
REMARK INTER + INTRA:         -10.182
REMARK INTER:                  -9.025
REMARK INTRA:                  -1.157
REMARK UNBOUND:                -1.157
REMARK  5 active torsions:
REMARK  status: ('A' for Active; 'I' for Inactive)
REMARK    1  A    between atoms: C_3  and  N_15 
REMARK    2  A    between atoms: N_6  and  C_9 
REMARK       I    between atoms: N_18  and  C_21 
REMARK    3  A    between atoms: C_21  and  C_23 
REMARK    4  A    between atoms: C_23  and  O_24 
REMARK    5  A    between atoms: O_24  and  C_25 
ROOT
ATOM      1  N   UNK d   1      41.901  10.280  45.154  0.00  0.00    -0.375 N 
ATOM      2  C   UNK d   1      40.696  10.514  44.407  0.00  0.00     0.143 C 
ATOM      3  C   UNK d   1      40.309  11.976  44.421  0.00  0.00     0.145 C 
ATOM      4  N   UNK d   1      40.657  12.613  45.667  0.00  0.00    -0.347 N 
ATOM      5  C   UNK d   1      41.020  11.785  46.791  0.00  0.00     0.145 C 
ATOM      6  C   UNK d   1      42.220  10.967  46.389  0.00  0.00     0.143 C 
ATOM      7  C   UNK d   1      40.640  14.027  45.775  0.00  0.00     0.244 C 
ATOM      8  O   UNK d   1      40.321  14.763  44.786  0.00  0.00    -0.271 OA
ENDROOT
BRANCH   1   9
ATOM      9  C   UNK d   1      42.836   9.322  44.654  0.00  0.00     0.077 A 
ATOM     10  C   UNK d   1      42.804   7.994  45.027  0.00  0.00     0.131 A 
ATOM     11 Cl   UNK d   1      41.576   7.456  46.149  0.00  0.00    -0.076 Cl
ATOM     12  C   UNK d   1      43.747   7.126  44.498  0.00  0.00     0.292 A 
ATOM     13  N   UNK d   1      44.702   7.510  43.632  0.00  0.00    -0.197 N 
ATOM     14  O   UNK d   1      43.726   5.922  44.832  0.00  0.00    -0.264 OA
ATOM     15  N   UNK d   1      44.717   8.787  43.285  0.00  0.00    -0.174 NA
ATOM     16  C   UNK d   1      43.831   9.681  43.762  0.00  0.00     0.170 A 
BRANCH  13  17
ATOM     17  C   UNK d   1      45.648   6.567  43.121  0.00  0.00     0.062 A 
ATOM     18  C   UNK d   1      45.430   5.927  41.918  0.00  0.00     0.032 A 
ATOM     19  C   UNK d   1      46.338   5.015  41.418  0.00  0.00     0.002 A 
ATOM     20  C   UNK d   1      47.500   4.702  42.092  0.00  0.00     0.000 A 
ATOM     21  C   UNK d   1      47.724   5.338  43.295  0.00  0.00     0.002 A 
ATOM     22  C   UNK d   1      46.815   6.246  43.789  0.00  0.00     0.032 A 
ENDBRANCH  13  17
ENDBRANCH   1   9
BRANCH   7  23
ATOM     23  C   UNK d   1      40.988  14.733  47.035  0.00  0.00     0.280 C 
BRANCH  23  24
ATOM     24  O   UNK d   1      42.242  15.356  46.958  0.00  0.00    -0.324 OA
BRANCH  24  25
ATOM     25  C   UNK d   1      43.398  14.602  46.896  0.00  0.00     0.194 A 
ATOM     26  N   UNK d   1      44.207  14.357  45.859  0.00  0.00    -0.103 NA
ATOM     27  O   UNK d   1      45.188  13.599  46.224  0.00  0.00    -0.216 OA
ATOM     28  C   UNK d   1      45.107  13.290  47.502  0.00  0.00     0.079 A 
ATOM     29  C   UNK d   1      43.968  13.919  47.961  0.00  0.00     0.094 A 
ATOM     30  C   UNK d   1      46.087  12.438  48.201  0.00  0.00     0.079 C 
ENDBRANCH  24  25
ENDBRANCH  23  24
ENDBRANCH   7  23
TORSDOF 5
ENDMDL
