MODEL 1
REMARK VINA RESULT:    -8.093      0.000      0.000
REMARK INTER + INTRA:         -10.131
REMARK INTER:                  -9.986
REMARK INTRA:                  -0.145
REMARK UNBOUND:                -0.145
REMARK  4 active torsions:
REMARK  status: ('A' for Active; 'I' for Inactive)
REMARK       I    between atoms: N_11  and  C_13 
REMARK    1  A    between atoms: C_13  and  C_15 
REMARK    2  A    between atoms: C_15  and  C_16 
REMARK    3  A    between atoms: C_16  and  C_17 
REMARK    4  A    between atoms: C_17  and  N_18 
ROOT
ATOM      1 Cl   UNK d   1      45.806  14.412  44.403  0.00  0.00    -0.084 Cl
ATOM      2  C   UNK d   1      44.780  13.197  45.160  0.00  0.00     0.034 A 
ATOM      3  C   UNK d   1      44.257  12.204  44.335  0.00  0.00     0.035 A 
ATOM      4  C   UNK d   1      43.453  11.248  44.912  0.00  0.00    -0.005 A 
ATOM      5  C   UNK d   1      43.183  11.286  46.274  0.00  0.00     0.078 A 
ATOM      6  C   UNK d   1      43.710  12.280  47.090  0.00  0.00     0.039 A 
ATOM      7  C   UNK d   1      44.517  13.241  46.509  0.00  0.00     0.026 A 
ATOM      8  O   UNK d   1      42.386  10.362  46.927  0.00  0.00    -0.338 OA
ATOM      9  C   UNK d   1      41.315   9.599  46.444  0.00  0.00     0.088 C 
ATOM     10  C   UNK d   1      41.625   8.668  45.329  0.00  0.00     0.164 C 
ATOM     11  N   UNK d   1      42.764   8.981  44.528  0.00  0.00    -0.345 N 
ATOM     12  C   UNK d   1      42.994  10.279  43.881  0.00  0.00     0.167 C 
ATOM     13  C   UNK d   1      43.754   7.982  44.323  0.00  0.00     0.220 C 
ATOM     14  O   UNK d   1      43.556   6.869  44.861  0.00  0.00    -0.273 OA
ATOM     15  C   UNK d   1      40.744   8.784  47.621  0.00  0.00     0.066 C 
ATOM     16  C   UNK d   1      40.520   9.761  48.744  0.00  0.00     0.170 C 
ATOM     17  O   UNK d   1      40.744  11.072  48.362  0.00  0.00    -0.391 OA
ATOM     18  C   UNK d   1      39.968  11.455  47.282  0.00  0.00     0.170 C 
ATOM     19  C   UNK d   1      40.162  10.550  46.085  0.00  0.00     0.066 C 
ENDROOT
BRANCH  13  20
ATOM     20  C   UNK d   1      44.948   8.216  43.524  0.00  0.00     0.104 C 
BRANCH  20  21
ATOM     21  C   UNK d   1      45.616   7.055  42.908  0.00  0.00     0.029 C 
BRANCH  21  22
ATOM     22  C   UNK d   1      46.975   6.681  43.331  0.00  0.00     0.137 C 
BRANCH  22  23
ATOM     23  N   UNK d   1      47.488   5.395  43.041  0.00  0.00    -0.269 N 
ATOM     24  C   UNK d   1      48.387   4.662  43.855  0.00  0.00     0.325 C 
ATOM     25  O   UNK d   1      48.889   4.992  44.970  0.00  0.00    -0.247 OA
ATOM     26  N   UNK d   1      48.646   3.438  43.191  0.00  0.00    -0.334 N 
ATOM     27  C   UNK d   1      47.633   3.241  42.158  0.00  0.00     0.227 C 
ATOM     28  H   UNK d   1      49.416   2.765  43.376  0.00  0.00     0.164 HD
ATOM     29  C   UNK d   1      47.199   4.628  41.888  0.00  0.00     0.245 C 
ATOM     30  O   UNK d   1      46.662   5.034  40.796  0.00  0.00    -0.271 OA
ENDBRANCH  22  23
ENDBRANCH  21  22
ENDBRANCH  20  21
ENDBRANCH  13  20
TORSDOF 4
ENDMDL
