/Users/jonathanwahrer/Desktop/Msc/3_Semester/Drug_Design_Praktikum/waehrer_HTS_screening/HTS_experiment/out/docking_results/vina_output/2qfa/2402_docked.pdbqt
 OpenBabel03162221373D

 33 36  0  0  1  0  0  0  0  0999 V2000
   41.8550   10.5550   45.1620 C   0  0  2  0  0  3  0  0  0  0  0  0
   40.9710    9.9270   46.0980 N   0  0  0  0  0  0  0  0  0  0  0  0
   41.5310    8.7150   46.5800 C   0  0  0  0  0  0  0  0  0  0  0  0
   41.1730    7.9690   47.5230 O   0  0  0  0  0  0  0  0  0  0  0  0
   42.7170    8.3940   45.7530 C   0  0  0  0  0  0  0  0  0  0  0  0
   43.4740    7.3990   45.8750 O   0  0  0  0  0  0  0  0  0  0  0  0
   42.8040    9.4720   44.7860 C   0  0  0  0  0  0  0  0  0  0  0  0
   43.6480    9.4490   43.7470 C   0  0  0  0  0  0  0  0  0  0  0  0
   43.6070   10.5960   42.9450 O   0  0  0  0  0  1  0  0  0  0  0  0
   42.4750   11.7850   45.6260 C   0  0  0  0  0  0  0  0  0  0  0  0
   43.6750   11.7260   46.3090 C   0  0  0  0  0  3  0  0  0  0  0  0
   44.3380   12.8200   46.7790 C   0  0  0  0  0  3  0  0  0  0  0  0
   43.8110   14.0640   46.5810 C   0  0  0  0  0  0  0  0  0  0  0  0
   44.7800   15.5660   47.2590 Br  0  0  0  0  0  0  0  0  0  0  0  0
   42.6190   14.1900   45.9080 C   0  0  0  0  0  3  0  0  0  0  0  0
   41.9650   13.0520   45.4390 C   0  0  0  0  0  3  0  0  0  0  0  0
   44.5370    8.3290   43.4560 C   0  0  0  0  0  0  0  0  0  0  0  0
   45.6010    7.9200   44.0550 O   0  0  0  0  0  0  0  0  0  0  0  0
   46.1580    6.8750   43.5180 C   0  0  0  0  0  0  0  0  0  0  0  0
   45.3960    6.5120   42.4180 C   0  0  0  0  0  0  0  0  0  0  0  0
   47.2790    6.1230   43.8230 C   0  0  0  0  0  0  0  0  0  0  0  0
   44.3680    7.4560   42.4010 C   0  0  0  0  0  3  0  0  0  0  0  0
   45.7670    5.4270   41.6600 C   0  0  0  0  0  3  0  0  0  0  0  0
   46.8860    4.6930   41.9790 C   0  0  0  0  0  3  0  0  0  0  0  0
   47.6550    5.0500   43.0790 C   0  0  0  0  0  3  0  0  0  0  0  0
   48.0210    6.5030   44.9220 O   0  0  0  0  0  0  0  0  0  0  0  0
   49.0490    5.7190   45.5110 C   0  0  0  0  0  1  0  0  0  0  0  0
   39.6880   10.4240   46.5150 C   0  0  0  0  0  2  0  0  0  0  0  0
   38.7760   10.6790   45.3290 C   0  0  0  0  0  2  0  0  0  0  0  0
   37.9360   11.8160   45.4900 N   0  0  0  0  0  4  0  0  0  0  0  0
   36.5430   11.5430   45.6750 C   0  0  0  0  0  1  0  0  0  0  0  0
   38.4330   12.6860   46.5470 C   0  0  0  0  0  1  0  0  0  0  0  0
   38.0070   12.3880   44.5960 H   0  0  0  0  0  0  0  0  0  0  0  0
  1 10  1  1  0  0  0
  1  2  1  0  0  0  0
  2 28  1  0  0  0  0
  2  3  1  0  0  0  0
  3  4  2  0  0  0  0
  5  6  2  0  0  0  0
  5  3  1  0  0  0  0
  7  1  1  0  0  0  0
  7  5  1  0  0  0  0
  8  7  2  0  0  0  0
  9  8  1  0  0  0  0
 10 11  1  0  0  0  0
 11 12  2  0  0  0  0
 13 12  1  0  0  0  0
 13 14  1  0  0  0  0
 15 13  2  0  0  0  0
 16 10  2  0  0  0  0
 16 15  1  0  0  0  0
 17  8  1  0  0  0  0
 17 18  1  0  0  0  0
 19 21  1  0  0  0  0
 19 18  1  0  0  0  0
 20 19  2  0  0  0  0
 21 26  1  0  0  0  0
 22 20  1  0  0  0  0
 22 17  2  0  0  0  0
 23 24  2  0  0  0  0
 23 20  1  0  0  0  0
 24 25  1  0  0  0  0
 25 21  2  0  0  0  0
 26 27  1  0  0  0  0
 29 30  1  0  0  0  0
 29 28  1  0  0  0  0
 30 31  1  0  0  0  0
 30 32  1  0  0  0  0
 33 30  1  0  0  0  0
M  END
>  <Pose>
1

>  <Score>
-6.877

$$$$
