MODEL 1
REMARK VINA RESULT:    -7.294      0.000      0.000
REMARK INTER + INTRA:          -8.604
REMARK INTER:                  -8.146
REMARK INTRA:                  -0.457
REMARK UNBOUND:                -0.457
REMARK  2 active torsions:
REMARK  status: ('A' for Active; 'I' for Inactive)
REMARK    1  A    between atoms: C_7  and  C_11 
REMARK    2  A    between atoms: C_11  and  N_12 
ROOT
ATOM      1  N   UNK d   1      43.919   7.177  43.747  0.00  0.00    -0.328 N 
ATOM      2  C   UNK d   1      43.400   8.271  44.323  0.00  0.00     0.151 A 
ATOM      3  C   UNK d   1      42.541   7.925  45.361  0.00  0.00     0.167 A 
ATOM      4  N   UNK d   1      42.558   6.571  45.394  0.00  0.00    -0.223 NA
ATOM      5  C   UNK d   1      43.375   6.124  44.437  0.00  0.00     0.213 A 
ATOM      6  N   UNK d   1      41.876   8.828  46.111  0.00  0.00    -0.286 N 
ATOM      7  C   UNK d   1      42.082  10.123  45.806  0.00  0.00     0.332 A 
ATOM      8  O   UNK d   1      41.469  10.981  46.498  0.00  0.00    -0.246 OA
ATOM      9  N   UNK d   1      42.898  10.510  44.815  0.00  0.00    -0.269 N 
ATOM     10  C   UNK d   1      43.565   9.609  44.064  0.00  0.00     0.282 A 
ATOM     11  O   UNK d   1      44.326   9.950  43.137  0.00  0.00    -0.265 OA
ATOM     12  C   UNK d   1      43.117  11.909  44.489  0.00  0.00     0.164 C 
ATOM     13  C   UNK d   1      40.995   8.401  47.181  0.00  0.00     0.163 C 
ENDROOT
BRANCH   1  14
ATOM     14  C   UNK d   1      44.866   7.051  42.658  0.00  0.00     0.189 C 
BRANCH  14  15
ATOM     15  C   UNK d   1      46.060   6.222  43.034  0.00  0.00     0.060 A 
ATOM     16  N   UNK d   1      46.303   5.089  42.353  0.00  0.00    -0.233 NA
ATOM     17  C   UNK d   1      47.381   4.305  42.651  0.00  0.00     0.137 A 
ATOM     18  N   UNK d   1      48.227   4.644  43.634  0.00  0.00    -0.272 N 
ATOM     19  C   UNK d   1      47.585   3.147  41.918  0.00  0.00     0.052 A 
ATOM     20  C   UNK d   1      49.293   3.870  43.930  0.00  0.00     0.121 A 
ATOM     21  C   UNK d   1      48.035   5.783  44.362  0.00  0.00     0.255 A 
ATOM     22  C   UNK d   1      49.502   2.725  43.211  0.00  0.00     0.027 A 
ATOM     23 Br   UNK d   1      51.014   1.652  43.651  0.00  0.00    -0.050 Br
ATOM     24  C   UNK d   1      48.659   2.338  42.195  0.00  0.00     0.024 A 
ATOM     25  C   UNK d   1      46.939   6.551  44.036  0.00  0.00     0.103 A 
ATOM     26  O   UNK d   1      48.842   6.060  45.262  0.00  0.00    -0.268 OA
ENDBRANCH  14  15
ENDBRANCH   1  14
TORSDOF 2
ENDMDL
