MODEL 1
REMARK VINA RESULT:    -7.953      0.000      0.000
REMARK INTER + INTRA:         -10.645
REMARK INTER:                  -9.812
REMARK INTRA:                  -0.832
REMARK UNBOUND:                -0.832
REMARK  4 active torsions:
REMARK  status: ('A' for Active; 'I' for Inactive)
REMARK    1  A    between atoms: S_1  and  N_4 
REMARK    2  A    between atoms: S_1  and  C_26 
REMARK       I    between atoms: N_7  and  C_10 
REMARK    3  A    between atoms: C_10  and  C_12 
REMARK    4  A    between atoms: C_12  and  C_13 
ROOT
ATOM      1  N   UNK d   1      45.341   6.729  43.493  0.00  0.00    -0.304 N 
ATOM      2  C   UNK d   1      45.099   5.726  42.560  0.00  0.00     0.155 C 
ATOM      3  C   UNK d   1      46.430   5.308  41.921  0.00  0.00     0.146 C 
ATOM      4  N   UNK d   1      47.470   5.255  42.950  0.00  0.00    -0.349 N 
ATOM      5  C   UNK d   1      47.698   6.481  43.689  0.00  0.00     0.146 C 
ATOM      6  C   UNK d   1      46.546   7.427  43.320  0.00  0.00     0.155 C 
ATOM      7  C   UNK d   1      48.179   4.046  43.194  0.00  0.00     0.222 C 
ATOM      8  O   UNK d   1      47.875   3.047  42.502  0.00  0.00    -0.273 OA
ENDROOT
BRANCH   7   9
ATOM      9  C   UNK d   1      49.221   3.984  44.220  0.00  0.00     0.138 C 
BRANCH   9  10
ATOM     10  C   UNK d   1      50.471   3.230  43.791  0.00  0.00     0.186 C 
ATOM     11  N   UNK d   1      50.237   1.835  43.524  0.00  0.00    -0.343 N 
ATOM     12  C   UNK d   1      50.634   0.651  44.202  0.00  0.00     0.254 C 
ATOM     13  H   UNK d   1      49.658   1.595  42.659  0.00  0.00     0.163 HD
ATOM     14  O   UNK d   1      50.659  -0.449  43.588  0.00  0.00    -0.268 OA
ATOM     15  C   UNK d   1      51.050   0.530  45.616  0.00  0.00     0.058 A 
ATOM     16  C   UNK d   1      51.592   1.540  46.419  0.00  0.00     0.050 A 
ATOM     17  C   UNK d   1      50.853  -0.716  46.154  0.00  0.00     0.019 A 
ATOM     18  C   UNK d   1      51.917   1.265  47.717  0.00  0.00     0.030 A 
ATOM     19  N   UNK d   1      51.853   2.875  46.015  0.00  0.00    -0.324 N 
ATOM     20  C   UNK d   1      51.728   0.006  48.290  0.00  0.00     0.002 A 
ATOM     21  C   UNK d   1      51.184  -0.979  47.465  0.00  0.00     0.001 A 
ATOM     22  C   UNK d   1      51.557   3.494  44.759  0.00  0.00     0.245 C 
ATOM     23  H   UNK d   1      52.306   3.457  46.718  0.00  0.00     0.169 HD
ATOM     24  O   UNK d   1      52.392   4.421  44.465  0.00  0.00    -0.271 OA
ENDBRANCH   9  10
ENDBRANCH   7   9
BRANCH   1  25
ATOM     25  S   UNK d   1      44.168   7.279  44.526  0.00  0.00     0.260 S 
ATOM     26  O   UNK d   1      43.181   6.157  44.790  0.00  0.00    -0.200 OA
ATOM     27  O   UNK d   1      44.686   7.690  45.889  0.00  0.00    -0.200 OA
BRANCH  25  28
ATOM     28  C   UNK d   1      43.224   8.629  43.886  0.00  0.00     0.079 A 
ATOM     29  C   UNK d   1      42.161   8.426  43.036  0.00  0.00     0.027 A 
ATOM     30  C   UNK d   1      41.458   9.511  42.559  0.00  0.00     0.025 A 
ATOM     31  C   UNK d   1      41.763  10.818  42.892  0.00  0.00     0.034 A 
ATOM     32  C   UNK d   1      42.837  11.020  43.751  0.00  0.00     0.025 A 
ATOM     33 Cl   UNK d   1      40.883  12.187  42.298  0.00  0.00    -0.084 Cl
ATOM     34  C   UNK d   1      43.536   9.933  44.224  0.00  0.00     0.027 A 
ENDBRANCH  25  28
ENDBRANCH   1  25
TORSDOF 4
ENDMDL
