/Users/jonathanwahrer/Desktop/Msc/3_Semester/Drug_Design_Praktikum/waehrer_HTS_screening/HTS_experiment/out/docking_results/vina_output/2qfa/2417_docked.pdbqt
 OpenBabel03162221383D

 27 30  0  0  1  0  0  0  0  0999 V2000
   42.7840   11.2990   44.4930 N   0  0  0  0  0  0  0  0  0  0  0  0
   43.0300    9.9780   45.1170 C   0  0  0  0  0  2  0  0  0  0  0  0
   43.6220    9.2120   44.0250 C   0  0  2  0  0  3  0  0  0  0  0  0
   42.6020    9.4550   42.9240 C   0  0  2  0  0  3  0  0  0  0  0  0
   42.4930   11.0230   43.1510 C   0  0  0  0  0  2  0  0  0  0  0  0
   43.9630   12.1210   44.8070 C   0  0  0  0  0  2  0  0  0  0  0  0
   43.8240   13.0830   45.8710 C   0  0  0  0  0  0  0  0  0  0  0  0
   44.5570   14.2090   46.1720 C   0  0  0  0  0  0  0  0  0  0  0  0
   45.5090   14.8840   45.4460 C   0  0  0  0  0  0  0  0  0  0  0  0
   44.1660   14.7580   47.3710 C   0  0  0  0  0  0  0  0  0  0  0  0
   46.1050   14.1230   43.9750 Cl  0  0  0  0  0  0  0  0  0  0  0  0
   46.0480   16.0670   45.8770 C   0  0  0  0  0  3  0  0  0  0  0  0
   45.6360   16.6060   47.0910 C   0  0  0  0  0  3  0  0  0  0  0  0
   44.6720   15.9300   47.8450 C   0  0  0  0  0  3  0  0  0  0  0  0
   43.1870   13.9440   47.8240 N   0  0  0  0  0  0  0  0  0  0  0  0
   42.9810   12.9840   46.9630 N   0  0  0  0  0  0  0  0  0  0  0  0
   42.5540   14.0730   49.1480 C   0  0  0  0  0  1  0  0  0  0  0  0
   43.7840    7.7330   44.2700 C   0  0  0  0  0  2  0  0  0  0  0  0
   44.6330    7.1960   43.2530 N   0  0  0  0  0  0  0  0  0  0  0  0
   45.8430    7.9670   43.0610 C   0  0  0  0  0  2  0  0  0  0  0  0
   47.1090    7.1690   43.2680 C   0  0  0  0  0  2  0  0  0  0  0  0
   47.1730    6.0160   42.5200 O   0  0  0  0  0  0  0  0  0  0  0  0
   45.9350    5.3980   42.3720 C   0  0  0  0  0  2  0  0  0  0  0  0
   45.0300    5.8270   43.4870 C   0  0  0  0  0  2  0  0  0  0  0  0
   41.2430    8.9480   43.3110 C   0  0  0  0  0  2  0  0  0  0  0  0
   40.2580    9.8690   42.8680 O   0  0  0  0  0  0  0  0  0  0  0  0
   40.5290   10.1090   41.9000 H   0  0  0  0  0  0  0  0  0  0  0  0
  1  6  1  0  0  0  0
  1  2  1  0  0  0  0
  3 18  1  1  0  0  0
  3  2  1  0  0  0  0
  4  5  1  0  0  0  0
  4 25  1  1  0  0  0
  4  3  1  0  0  0  0
  5  1  1  0  0  0  0
  6  7  1  0  0  0  0
  7  8  1  0  0  0  0
  7 16  2  0  0  0  0
  8 10  1  0  0  0  0
  9 12  1  0  0  0  0
  9  8  2  0  0  0  0
 10 15  1  0  0  0  0
 10 14  2  0  0  0  0
 11  9  1  0  0  0  0
 12 13  2  0  0  0  0
 13 14  1  0  0  0  0
 15 17  1  0  0  0  0
 16 15  1  0  0  0  0
 19 24  1  0  0  0  0
 19 18  1  0  0  0  0
 20 19  1  0  0  0  0
 20 21  1  0  0  0  0
 22 21  1  0  0  0  0
 23 22  1  0  0  0  0
 23 24  1  0  0  0  0
 26 25  1  0  0  0  0
 27 26  1  0  0  0  0
M  END
>  <Pose>
1

>  <Score>
-6.809

$$$$
