MODEL 1
REMARK VINA RESULT:    -7.042      0.000      0.000
REMARK INTER + INTRA:         -10.136
REMARK INTER:                  -9.100
REMARK INTRA:                  -1.036
REMARK UNBOUND:                -1.036
REMARK  5 active torsions:
REMARK  status: ('A' for Active; 'I' for Inactive)
REMARK    1  A    between atoms: C_7  and  N_11 
REMARK    2  A    between atoms: C_13  and  C_17 
REMARK       I    between atoms: C_17  and  N_19 
REMARK    3  A    between atoms: N_19  and  C_20 
REMARK    4  A    between atoms: C_20  and  C_21 
REMARK    5  A    between atoms: C_21  and  N_22 
ROOT
ATOM      1  N   UNK d   1      42.112  12.318  45.338  0.00  0.00    -0.299 N 
ATOM      2  C   UNK d   1      40.955  12.520  44.468  0.00  0.00     0.148 C 
ATOM      3  C   UNK d   1      40.375  11.129  44.348  0.00  0.00     0.105 C 
ATOM      4  C   UNK d   1      40.471  10.616  45.780  0.00  0.00     0.119 C 
ATOM      5  C   UNK d   1      41.661  11.371  46.310  0.00  0.00     0.226 C 
ATOM      6  O   UNK d   1      42.193  11.200  47.447  0.00  0.00    -0.273 OA
ENDROOT
BRANCH   3   7
ATOM      7  C   UNK d   1      41.174  10.272  43.440  0.00  0.00     0.223 C 
ATOM      8  O   UNK d   1      41.556  10.761  42.347  0.00  0.00    -0.273 OA
ATOM      9  N   UNK d   1      41.517   8.938  43.757  0.00  0.00    -0.359 N 
ATOM     10  H   UNK d   1      41.178   8.563  44.679  0.00  0.00     0.162 HD
BRANCH   9  11
ATOM     11  C   UNK d   1      42.294   8.101  42.880  0.00  0.00     0.152 C 
BRANCH  11  12
ATOM     12  C   UNK d   1      42.809   6.903  43.649  0.00  0.00     0.292 C 
BRANCH  12  13
ATOM     13  N   UNK d   1      44.172   7.063  44.093  0.00  0.00     0.094 N 
ATOM     14  C   UNK d   1      44.858   5.798  43.857  0.00  0.00     0.298 C 
ATOM     15  C   UNK d   1      45.355   5.724  42.416  0.00  0.00     0.198 C 
ATOM     16  O   UNK d   1      46.360   6.626  42.155  0.00  0.00    -0.388 OA
ATOM     17  C   UNK d   1      46.299   7.657  43.064  0.00  0.00     0.198 C 
ATOM     18  C   UNK d   1      44.875   8.085  43.352  0.00  0.00     0.298 C 
ENDBRANCH  12  13
ENDBRANCH  11  12
ENDBRANCH   9  11
ENDBRANCH   3   7
BRANCH   1  19
ATOM     19  C   UNK d   1      43.385  12.934  45.229  0.00  0.00     0.165 A 
ATOM     20  N   UNK d   1      44.443  12.614  44.472  0.00  0.00    -0.155 NA
ATOM     21  N   UNK d   1      45.439  13.460  44.685  0.00  0.00    -0.275 N 
ATOM     22  C   UNK d   1      45.058  14.385  45.611  0.00  0.00     0.065 A 
ATOM     23  H   UNK d   1      46.401  13.502  44.266  0.00  0.00     0.189 HD
ATOM     24  C   UNK d   1      45.651  15.462  46.201  0.00  0.00     0.051 A 
ATOM     25  C   UNK d   1      43.770  14.056  45.953  0.00  0.00     0.040 A 
ATOM     26  C   UNK d   1      44.990  16.229  47.134  0.00  0.00     0.013 A 
ATOM     27 Br   UNK d   1      45.839  17.727  47.944  0.00  0.00    -0.051 Br
ATOM     28  C   UNK d   1      43.679  15.900  47.486  0.00  0.00     0.020 A 
ATOM     29  C   UNK d   1      43.079  14.813  46.891  0.00  0.00     0.019 A 
ENDBRANCH   1  19
TORSDOF 5
ENDMDL
