MODEL 1
REMARK VINA RESULT:    -7.556      0.000      0.000
REMARK INTER + INTRA:          -9.209
REMARK INTER:                  -8.440
REMARK INTRA:                  -0.769
REMARK UNBOUND:                -0.769
REMARK  2 active torsions:
REMARK  status: ('A' for Active; 'I' for Inactive)
REMARK    1  A    between atoms: C_4  and  C_8 
REMARK       I    between atoms: C_8  and  N_10 
REMARK    2  A    between atoms: N_13  and  C_16 
ROOT
ATOM      1  C   UNK d   1      42.328   9.958  43.759  0.00  0.00     0.204 C 
ATOM      2  O   UNK d   1      41.952  10.445  42.591  0.00  0.00    -0.170 OA
ATOM      3  N   UNK d   1      41.678  10.445  44.882  0.00  0.00    -0.355 N 
ATOM      4  C   UNK d   1      40.653  11.499  44.685  0.00  0.00     0.145 C 
ATOM      5  C   UNK d   1      41.142  12.701  45.447  0.00  0.00     0.144 C 
ATOM      6  N   UNK d   1      42.312  12.474  46.234  0.00  0.00    -0.362 N 
ATOM      7  C   UNK d   1      42.638  11.206  46.870  0.00  0.00     0.144 C 
ATOM      8  C   UNK d   1      41.830  10.081  46.242  0.00  0.00     0.145 C 
ENDROOT
BRANCH   1   9
ATOM      9  C   UNK d   1      43.378   8.981  43.630  0.00  0.00     0.089 A 
ATOM     10  N   UNK d   1      44.675   9.119  43.352  0.00  0.00    -0.342 N 
ATOM     11  C   UNK d   1      45.322   7.920  43.345  0.00  0.00     0.126 A 
ATOM     12  H   UNK d   1      45.220   9.978  43.140  0.00  0.00     0.167 HD
ATOM     13 Cl   UNK d   1      47.015   7.602  43.034  0.00  0.00    -0.063 Cl
ATOM     14  C   UNK d   1      44.411   6.941  43.632  0.00  0.00     0.074 A 
ATOM     15  C   UNK d   1      43.217   7.600  43.806  0.00  0.00     0.061 A 
ATOM     16 Cl   UNK d   1      44.723   5.223  43.747  0.00  0.00    -0.081 Cl
ENDBRANCH   1   9
BRANCH   6  17
ATOM     17  C   UNK d   1      43.246  13.528  46.433  0.00  0.00     0.142 A 
ATOM     18  N   UNK d   1      43.142  14.361  47.485  0.00  0.00    -0.224 NA
ATOM     19  C   UNK d   1      44.021  15.370  47.689  0.00  0.00     0.237 A 
ATOM     20  N   UNK d   1      45.037  15.571  46.831  0.00  0.00    -0.222 NA
ATOM     21  C   UNK d   1      45.209  14.784  45.757  0.00  0.00     0.162 A 
ATOM     22  N   UNK d   1      46.123  14.771  44.769  0.00  0.00    -0.256 N 
ATOM     23  C   UNK d   1      44.292  13.745  45.562  0.00  0.00     0.076 A 
ATOM     24  N   UNK d   1      45.814  13.770  43.968  0.00  0.00    -0.182 NA
ATOM     25  C   UNK d   1      47.257  15.677  44.584  0.00  0.00     0.182 C 
ATOM     26  C   UNK d   1      44.711  13.124  44.415  0.00  0.00     0.158 A 
ENDBRANCH   6  17
TORSDOF 2
ENDMDL
