MODEL 1
REMARK VINA RESULT:    -6.845      0.000      0.000
REMARK INTER + INTRA:         -10.299
REMARK INTER:                  -9.246
REMARK INTRA:                  -1.053
REMARK UNBOUND:                -1.053
REMARK  6 active torsions:
REMARK  status: ('A' for Active; 'I' for Inactive)
REMARK    1  A    between atoms: C_10  and  C_22 
REMARK    2  A    between atoms: N_15  and  C_18 
REMARK    3  A    between atoms: C_18  and  C_19 
REMARK    4  A    between atoms: C_19  and  C_20 
REMARK    5  A    between atoms: C_22  and  C_23 
REMARK    6  A    between atoms: C_23  and  C_24 
REMARK       I    between atoms: C_24  and  N_26 
ROOT
ATOM      1 Cl   UNK d   1      44.207   7.245  43.717  0.00  0.00    -0.082 Cl
ATOM      2  C   UNK d   1      42.950   8.474  43.617  0.00  0.00     0.061 A 
ATOM      3  C   UNK d   1      42.913   9.437  44.636  0.00  0.00     0.066 A 
ATOM      4  C   UNK d   1      41.935  10.390  44.555  0.00  0.00     0.008 A 
ATOM      5  C   UNK d   1      41.006  10.402  43.494  0.00  0.00     0.012 A 
ATOM      6  C   UNK d   1      41.051   9.455  42.503  0.00  0.00     0.002 A 
ATOM      7  C   UNK d   1      42.038   8.497  42.590  0.00  0.00     0.026 A 
ATOM      8  C   UNK d   1      42.090  11.293  45.704  0.00  0.00     0.151 A 
ATOM      9  N   UNK d   1      40.910  11.486  46.468  0.00  0.00    -0.395 N 
ATOM     10  C   UNK d   1      40.890  12.742  47.079  0.00  0.00     0.092 C 
ATOM     11  C   UNK d   1      41.921  13.558  46.330  0.00  0.00     0.117 C 
ATOM     12  C   UNK d   1      42.467  12.698  45.237  0.00  0.00     0.135 C 
ATOM     13  C   UNK d   1      43.939  12.900  45.198  0.00  0.00     0.234 C 
ATOM     14  O   UNK d   1      44.692  12.404  44.328  0.00  0.00    -0.272 OA
ATOM     15  N   UNK d   1      44.296  13.733  46.302  0.00  0.00    -0.288 N 
ATOM     16  C   UNK d   1      43.131  13.838  47.134  0.00  0.00     0.233 C 
ATOM     17  O   UNK d   1      43.155  14.123  48.341  0.00  0.00    -0.272 OA
ATOM     18  C   UNK d   1      43.215  10.754  46.474  0.00  0.00     0.256 A 
ATOM     19  O   UNK d   1      43.708  11.174  47.567  0.00  0.00    -0.270 OA
ATOM     20  N   UNK d   1      43.720   9.621  45.794  0.00  0.00    -0.323 N 
ATOM     21  H   UNK d   1      40.589  10.674  47.021  0.00  0.00     0.155 HD
ATOM     22  H   UNK d   1      44.528   9.007  46.051  0.00  0.00     0.169 HD
ENDROOT
BRANCH  10  23
ATOM     23  C   UNK d   1      39.600  13.444  47.250  0.00  0.00     0.035 C 
BRANCH  23  24
ATOM     24  C   UNK d   1      38.971  14.058  46.064  0.00  0.00     0.104 C 
BRANCH  24  25
ATOM     25  C   UNK d   1      38.066  13.223  45.268  0.00  0.00     0.215 C 
ATOM     26  O   UNK d   1      37.926  12.014  45.528  0.00  0.00    -0.274 OA
ATOM     27  N   UNK d   1      37.305  13.732  44.175  0.00  0.00    -0.370 N 
ATOM     28  H   UNK d   1      36.525  14.403  44.284  0.00  0.00     0.159 HD
ATOM     29  H   UNK d   1      37.543  13.417  43.219  0.00  0.00     0.159 HD
ENDBRANCH  24  25
ENDBRANCH  23  24
ENDBRANCH  10  23
BRANCH  15  30
ATOM     30  C   UNK d   1      45.554  14.363  46.561  0.00  0.00     0.135 C 
BRANCH  30  31
ATOM     31  C   UNK d   1      45.909  15.503  45.675  0.00  0.00     0.020 C 
BRANCH  31  32
ATOM     32  C   UNK d   1      46.836  15.209  44.550  0.00  0.00    -0.003 C 
ATOM     33  C   UNK d   1      47.612  16.448  44.116  0.00  0.00     0.005 C 
ENDBRANCH  31  32
ENDBRANCH  30  31
ENDBRANCH  15  30
TORSDOF 6
ENDMDL
