MODEL 1
REMARK VINA RESULT:    -7.171      0.000      0.000
REMARK INTER + INTRA:         -11.179
REMARK INTER:                  -9.686
REMARK INTRA:                  -1.493
REMARK UNBOUND:                -1.493
REMARK  6 active torsions:
REMARK  status: ('A' for Active; 'I' for Inactive)
REMARK    1  A    between atoms: S_1  and  N_4 
REMARK    2  A    between atoms: N_7  and  C_10 
REMARK    3  A    between atoms: C_10  and  C_11 
REMARK    4  A    between atoms: C_16  and  C_19 
REMARK    5  A    between atoms: C_19  and  N_20 
REMARK    6  A    between atoms: N_23  and  C_26 
ROOT
ATOM      1  C   UNK d   1      41.768  10.517  44.536  0.00  0.00     0.178 C 
ATOM      2  C   UNK d   1      41.329  11.746  43.815  0.00  0.00     0.276 C 
ATOM      3  O   UNK d   1      40.911  11.724  42.633  0.00  0.00    -0.264 OA
ATOM      4  O   UNK d   1      41.429  12.909  44.575  0.00  0.00    -0.290 OA
ATOM      5  C   UNK d   1      41.334  12.958  45.950  0.00  0.00     0.158 C 
ATOM      6  C   UNK d   1      41.129  11.797  46.610  0.00  0.00     0.028 C 
ATOM      7  C   UNK d   1      41.019  10.576  45.842  0.00  0.00     0.174 C 
ATOM      8  O   UNK d   1      40.340   9.607  46.221  0.00  0.00    -0.292 OA
ENDROOT
BRANCH   6   9
ATOM      9  C   UNK d   1      41.000  11.769  48.073  0.00  0.00     0.161 C 
BRANCH   9  10
ATOM     10  N   UNK d   1      42.174  12.055  48.789  0.00  0.00    -0.405 N 
ATOM     11  C   UNK d   1      42.349  13.285  49.434  0.00  0.00     0.137 C 
ATOM     12  C   UNK d   1      43.851  13.563  49.668  0.00  0.00     0.142 C 
ATOM     13  N   UNK d   1      44.479  13.294  48.400  0.00  0.00    -0.378 N 
ATOM     14  C   UNK d   1      44.500  11.886  48.028  0.00  0.00     0.142 C 
ATOM     15  C   UNK d   1      43.288  11.192  48.634  0.00  0.00     0.137 C 
BRANCH  13  16
ATOM     16  C   UNK d   1      45.015  14.309  47.584  0.00  0.00     0.031 A 
ATOM     17  C   UNK d   1      45.475  14.099  46.304  0.00  0.00     0.053 A 
ATOM     18  C   UNK d   1      45.986  15.129  45.549  0.00  0.00     0.036 A 
ATOM     19  C   UNK d   1      46.068  16.417  46.023  0.00  0.00     0.024 A 
ATOM     20 Cl   UNK d   1      46.554  14.800  43.934  0.00  0.00    -0.084 Cl
ATOM     21  C   UNK d   1      45.617  16.657  47.295  0.00  0.00     0.004 A 
ATOM     22  C   UNK d   1      45.101  15.621  48.060  0.00  0.00     0.029 A 
ENDBRANCH  13  16
ENDBRANCH   9  10
ENDBRANCH   6   9
BRANCH   1  23
ATOM     23  C   UNK d   1      41.475   9.263  43.791  0.00  0.00     0.139 C 
BRANCH  23  24
ATOM     24  N   UNK d   1      42.694   8.706  43.321  0.00  0.00    -0.409 N 
ATOM     25  C   UNK d   1      42.745   7.265  43.300  0.00  0.00     0.132 C 
ATOM     26  C   UNK d   1      43.725   6.833  44.373  0.00  0.00     0.126 C 
ATOM     27  N   UNK d   1      45.040   7.195  43.962  0.00  0.00    -0.208 NA
ATOM     28  C   UNK d   1      45.064   8.448  43.280  0.00  0.00     0.126 C 
ATOM     29  C   UNK d   1      43.899   9.350  43.692  0.00  0.00     0.132 C 
BRANCH  27  30
ATOM     30  S   UNK d   1      45.918   5.949  43.210  0.00  0.00     0.207 S 
ATOM     31  O   UNK d   1      45.364   4.570  43.494  0.00  0.00    -0.212 OA
ATOM     32  O   UNK d   1      45.806   6.139  41.703  0.00  0.00    -0.212 OA
ATOM     33  C   UNK d   1      47.626   5.946  43.606  0.00  0.00     0.180 C 
ENDBRANCH  27  30
ENDBRANCH  23  24
ENDBRANCH   1  23
TORSDOF 6
ENDMDL
