
 OpenBabel03162216323D

 50 53  0  0  0  0  0  0  0  0999 V2000
   18.1450    9.9150   12.1120 B   0  0  0  0  0  0  0  0  0  0  0  0
   19.2160    8.4880   11.4760 C   0  0  0  0  0  0  0  0  0  0  0  0
   20.5550    8.6720   11.2870 C   0  0  0  0  0  0  0  0  0  0  0  0
   21.3160    7.6040   10.8170 C   0  0  0  0  0  0  0  0  0  0  0  0
   20.7010    6.3850   10.5520 C   0  0  0  0  0  0  0  0  0  0  0  0
   19.3580    6.1930   10.7380 C   0  0  0  0  0  0  0  0  0  0  0  0
   18.6180    7.2570   11.2030 C   0  0  0  0  0  0  0  0  0  0  0  0
   17.2590    7.0510   11.3880 O   0  0  0  0  0  0  0  0  0  0  0  0
   18.7340    4.9100   10.4540 C   0  0  0  0  0  0  0  0  0  0  0  0
   17.6390    4.5150   11.0010 N   0  0  0  0  0  0  0  0  0  0  0  0
   17.1060    3.2280   10.6490 N   0  0  0  0  0  0  0  0  0  0  0  0
   16.0200    3.2080    9.7850 C   0  0  0  0  0  0  0  0  0  0  0  0
   15.7120    4.3250    9.2210 O   0  0  0  0  0  0  0  0  0  0  0  0
   15.1660    2.0940    9.4170 C   0  0  0  0  0  0  0  0  0  0  0  0
   15.6070    0.8610    9.0070 N   0  0  0  0  0  0  0  0  0  0  0  0
   14.5810    0.0940    8.7600 N   0  0  0  0  0  0  0  0  0  0  0  0
   13.4410    0.7290    8.9750 N   0  0  0  0  0  0  0  0  0  0  0  0
   13.7740    1.9650    9.3830 C   0  0  0  0  0  0  0  0  0  0  0  0
   12.8560    3.0600    9.7140 C   0  0  0  0  0  0  0  0  0  0  0  0
   11.8280    2.7090   10.6980 N   0  0  0  0  0  0  0  0  0  0  0  0
   10.5900    3.4380   10.3610 C   0  0  0  0  0  0  0  0  0  0  0  0
   10.9050    4.8670   10.0860 C   0  0  0  0  0  0  0  0  0  0  0  0
   11.5960    5.4000   11.1470 O   0  0  0  0  0  0  0  0  0  0  0  0
   11.6500    4.5910   12.2520 C   0  0  0  0  0  0  0  0  0  0  0  0
   12.2580    3.2340   12.0160 C   0  0  0  0  0  0  0  0  0  0  0  0
   12.1630    0.1580    8.7600 C   0  0  0  0  0  0  0  0  0  0  0  0
   11.0040    0.3790    9.4160 N   0  0  0  0  0  0  0  0  0  0  0  0
   10.0530   -0.3480    8.8900 O   0  0  0  0  0  0  0  0  0  0  0  0
   10.5190   -1.0600    7.8970 N   0  0  0  0  0  0  0  0  0  0  0  0
   11.8260   -0.7710    7.7870 C   0  0  0  0  0  0  0  0  0  0  0  0
   12.6870   -1.3400    6.8240 N   0  0  0  0  0  0  0  0  0  0  0  0
   23.1790    7.8260   10.5450 B   0  0  0  0  0  0  0  0  0  0  0  0
   21.1880    9.8790   11.5460 O   0  0  0  0  0  0  0  0  0  0  0  0
   21.2870    5.5650   10.1900 H   0  0  0  0  0  0  0  0  0  0  0  0
   16.6500    7.8320   11.5960 H   0  0  0  0  0  0  0  0  0  0  0  0
   19.2030    4.2330    9.7440 H   0  0  0  0  0  0  0  0  0  0  0  0
   17.5870    2.4060   11.0840 H   0  0  0  0  0  0  0  0  0  0  0  0
   12.3250    3.4270    8.8330 H   0  0  0  0  0  0  0  0  0  0  0  0
   13.4170    3.8820   10.1780 H   0  0  0  0  0  0  0  0  0  0  0  0
   10.0570    2.9460    9.5330 H   0  0  0  0  0  0  0  0  0  0  0  0
    9.9490    3.3740   11.2590 H   0  0  0  0  0  0  0  0  0  0  0  0
   11.4820    5.0230    9.1590 H   0  0  0  0  0  0  0  0  0  0  0  0
    9.9290    5.4340   10.0310 H   0  0  0  0  0  0  0  0  0  0  0  0
   12.3390    5.1120   12.9830 H   0  0  0  0  0  0  0  0  0  0  0  0
   10.6610    4.5380   12.7540 H   0  0  0  0  0  0  0  0  0  0  0  0
   11.8410    2.5640   12.7790 H   0  0  0  0  0  0  0  0  0  0  0  0
   13.3380    3.3030   12.1030 H   0  0  0  0  0  0  0  0  0  0  0  0
   12.2840   -1.9540    6.0930 H   0  0  0  0  0  0  0  0  0  0  0  0
   13.7090   -1.1700    6.8170 H   0  0  0  0  0  0  0  0  0  0  0  0
   20.6700   10.7410   11.5750 H   0  0  0  0  0  0  0  0  0  0  0  0
  2  1  1  0  0  0  0
  3  2  1  0  0  0  0
  3 33  1  0  0  0  0
  4  3  2  0  0  0  0
  5  6  2  0  0  0  0
  5  4  1  0  0  0  0
  6  7  1  0  0  0  0
  7  8  1  0  0  0  0
  7  2  2  0  0  0  0
  8 35  1  0  0  0  0
  9  6  1  0  0  0  0
  9 10  2  0  0  0  0
 11 10  1  0  0  0  0
 11 37  1  0  0  0  0
 12 11  1  0  0  0  0
 13 12  2  0  0  0  0
 14 12  1  0  0  0  0
 15 14  1  0  0  0  0
 16 17  1  0  0  0  0
 16 15  2  0  0  0  0
 17 18  1  0  0  0  0
 18 14  2  0  0  0  0
 18 19  1  0  0  0  0
 19 39  1  0  0  0  0
 19 20  1  0  0  0  0
 20 25  1  0  0  0  0
 21 20  1  0  0  0  0
 21 41  1  0  0  0  0
 22 21  1  0  0  0  0
 22 23  1  0  0  0  0
 23 24  1  0  0  0  0
 24 45  1  0  0  0  0
 24 44  1  0  0  0  0
 25 47  1  0  0  0  0
 25 24  1  0  0  0  0
 25 46  1  0  0  0  0
 26 17  1  0  0  0  0
 26 27  2  0  0  0  0
 28 27  1  0  0  0  0
 29 28  1  0  0  0  0
 30 29  2  0  0  0  0
 30 26  1  0  0  0  0
 31 30  1  0  0  0  0
 32  4  1  0  0  0  0
 33 50  1  0  0  0  0
 34  5  1  0  0  0  0
 36  9  1  0  0  0  0
 38 19  1  0  0  0  0
 40 21  1  0  0  0  0
 42 22  1  0  0  0  0
 43 22  1  0  0  0  0
 48 31  1  0  0  0  0
 49 31  1  0  0  0  0
M  END
>  <Pose>
1

>  <Score>
-7.98

$$$$
