
 OpenBabel03172210413D

 60 63  0  0  1  0  0  0  0  0999 V2000
   18.1130    6.6980    9.9560 B   0  0  0  0  0  0  0  0  0  0  0  0
   19.6130    5.8390   10.7780 C   0  0  0  0  0  0  0  0  0  0  0  0
   19.3630    4.6960   11.5530 C   0  0  0  0  0  0  0  0  0  0  0  0
   20.4370    4.0990   12.1300 C   0  0  0  0  0  0  0  0  0  0  0  0
   21.7400    4.5880   11.9710 C   0  0  0  0  0  0  0  0  0  0  0  0
   21.9580    5.7110   11.2070 C   0  0  0  0  0  0  0  0  0  0  0  0
   20.8820    6.3320   10.6110 C   0  0  0  0  0  0  0  0  0  0  0  0
   23.6830    6.4660   10.9190 B   0  0  0  0  0  0  0  0  0  0  0  0
   20.2380    2.5460   13.1760 B   0  0  0  0  0  0  0  0  0  0  0  0
   18.0930    4.2540   11.6830 O   0  0  0  0  0  0  0  0  0  0  0  0
   17.3420    3.5360   10.7060 C   0  0  0  0  0  0  0  0  0  0  0  0
   15.9170    3.5180   11.0640 C   0  0  1  0  0  0  0  0  0  0  0  0
   15.8470    3.8980   12.4160 O   0  0  0  0  0  0  0  0  0  0  0  0
   14.8170    3.8740   10.1820 C   0  0  0  0  0  0  0  0  0  0  0  0
   13.6820    3.0420   10.0000 N   0  0  0  0  0  0  0  0  0  0  0  0
   13.6320    1.9250    9.2260 C   0  0  0  0  0  0  0  0  0  0  0  0
   12.3770    1.3800    9.2910 C   0  0  0  0  0  0  0  0  0  0  0  0
   11.6960    2.1710   10.0940 N   0  0  0  0  0  0  0  0  0  0  0  0
   12.4620    3.2020   10.5450 C   0  0  0  0  0  0  0  0  0  0  0  0
   11.9160    4.2690   11.3420 N   0  0  0  0  0  0  0  0  0  0  0  0
   11.8400    4.3420   12.7500 C   0  0  0  0  0  0  0  0  0  0  0  0
   11.2550    5.7320   13.1190 C   0  0  0  0  0  0  0  0  0  0  0  0
    9.9240    5.7340   12.5430 N   0  0  0  0  0  4  0  0  0  0  0  0
   10.1750    6.0450   11.1230 C   0  0  0  0  0  0  0  0  0  0  0  0
   11.4190    5.4400   10.6070 C   0  0  0  0  0  0  0  0  0  0  0  0
    9.0890    6.7650   13.1260 C   0  0  0  0  0  0  0  0  0  0  0  0
    8.4210    6.2080   14.3640 C   0  0  0  0  0  0  0  0  0  0  0  0
    7.1470    5.7360   14.0240 O   0  0  0  0  0  0  0  0  0  0  0  0
   11.9880    0.2560    8.6140 N   0  0  0  0  0  0  0  0  0  0  0  0
   12.9120   -0.3280    7.8420 C   0  0  0  0  0  0  0  0  0  0  0  0
   12.5500   -1.3660    7.2190 O   0  0  0  0  0  0  0  0  0  0  0  0
   14.1590    0.1710    7.7410 N   0  0  0  0  0  0  0  0  0  0  0  0
   14.5550    1.2720    8.3990 C   0  0  0  0  0  0  0  0  0  0  0  0
   15.8340    1.7640    8.2730 O   0  0  0  0  0  0  0  0  0  0  0  0
   10.6270   -0.2400    8.7670 C   0  0  0  0  0  0  0  0  0  0  0  0
   22.5700    4.0980   12.4380 H   0  0  0  0  0  0  0  0  0  0  0  0
   21.0150    7.2300    9.9940 H   0  0  0  0  0  0  0  0  0  0  0  0
   17.7130    2.4650   10.8680 H   0  0  0  0  0  0  0  0  0  0  0  0
   17.6150    3.7400    9.6810 H   0  0  0  0  0  0  0  0  0  0  0  0
   15.7270    2.3260   11.2360 H   0  0  0  0  0  0  0  0  0  0  0  0
   15.7170    3.1330   13.0050 H   0  0  0  0  0  0  0  0  0  0  0  0
   14.5230    4.9730   10.2690 H   0  0  0  0  0  0  0  0  0  0  0  0
   15.3370    3.9540    9.1430 H   0  0  0  0  0  0  0  0  0  0  0  0
   12.8390    4.3890   13.2550 H   0  0  0  0  0  0  0  0  0  0  0  0
   11.1260    3.6530   13.2120 H   0  0  0  0  0  0  0  0  0  0  0  0
   11.8750    6.5340   12.6770 H   0  0  0  0  0  0  0  0  0  0  0  0
   11.1620    5.8590   14.1980 H   0  0  0  0  0  0  0  0  0  0  0  0
    9.4630    4.7990   12.5460 H   0  0  0  0  0  0  0  0  0  0  0  0
    9.2770    5.9450   10.5070 H   0  0  0  0  0  0  0  0  0  0  0  0
   10.3630    7.1660   11.1530 H   0  0  0  0  0  0  0  0  0  0  0  0
   11.2610    5.1490    9.5510 H   0  0  0  0  0  0  0  0  0  0  0  0
   12.2880    6.1410   10.5960 H   0  0  0  0  0  0  0  0  0  0  0  0
    8.2700    7.0690   12.4230 H   0  0  0  0  0  0  0  0  0  0  0  0
    9.6750    7.6470   13.4480 H   0  0  0  0  0  0  0  0  0  0  0  0
    8.9810    5.3300   14.7550 H   0  0  0  0  0  0  0  0  0  0  0  0
    8.2980    6.9940   15.1620 H   0  0  0  0  0  0  0  0  0  0  0  0
    6.9960    4.8250   14.3980 H   0  0  0  0  0  0  0  0  0  0  0  0
   10.7190   -1.1230    9.4650 H   0  0  0  0  0  0  0  0  0  0  0  0
   10.0480    0.5040    9.3480 H   0  0  0  0  0  0  0  0  0  0  0  0
   10.1550   -0.5560    7.8400 H   0  0  0  0  0  0  0  0  0  0  0  0
  1  2  1  0  0  0  0
  2  3  1  0  0  0  0
  3 10  1  0  0  0  0
  3  4  2  0  0  0  0
  4  9  1  0  0  0  0
  5  4  1  0  0  0  0
  5 36  1  0  0  0  0
  6  5  2  0  0  0  0
  7  2  2  0  0  0  0
  7  6  1  0  0  0  0
  8  6  1  0  0  0  0
 11 38  1  0  0  0  0
 11 12  1  0  0  0  0
 11 10  1  0  0  0  0
 12 40  1  1  0  0  0
 12 13  1  0  0  0  0
 13 41  1  0  0  0  0
 14 42  1  0  0  0  0
 14 12  1  0  0  0  0
 15 14  1  0  0  0  0
 15 19  1  0  0  0  0
 16 17  2  0  0  0  0
 16 15  1  0  0  0  0
 17 18  1  0  0  0  0
 18 19  2  0  0  0  0
 19 20  1  0  0  0  0
 20 21  1  0  0  0  0
 21 22  1  0  0  0  0
 21 45  1  0  0  0  0
 21 44  1  0  0  0  0
 22 47  1  0  0  0  0
 23 48  1  0  0  0  0
 23 22  1  0  0  0  0
 23 26  1  0  0  0  0
 24 50  1  0  0  0  0
 24 23  1  0  0  0  0
 25 24  1  0  0  0  0
 25 20  1  0  0  0  0
 26 54  1  0  0  0  0
 26 27  1  0  0  0  0
 27 55  1  0  0  0  0
 27 56  1  0  0  0  0
 28 27  1  0  0  0  0
 28 57  1  0  0  0  0
 29 35  1  0  0  0  0
 29 17  1  0  0  0  0
 30 29  1  0  0  0  0
 31 30  2  0  0  0  0
 32 30  1  0  0  0  0
 32 33  1  0  0  0  0
 33 16  1  0  0  0  0
 34 33  2  0  0  0  0
 35 59  1  0  0  0  0
 35 58  1  0  0  0  0
 37  7  1  0  0  0  0
 39 11  1  0  0  0  0
 43 14  1  0  0  0  0
 46 22  1  0  0  0  0
 49 24  1  0  0  0  0
 51 25  1  0  0  0  0
 52 25  1  0  0  0  0
 53 26  1  0  0  0  0
 60 35  1  0  0  0  0
M  END
>  <Pose>
1

>  <Score>
-8.05

$$$$
