
 OpenBabel03172210413D

 43 46  0  0  0  0  0  0  0  0999 V2000
    4.3400    8.1350   11.1940 B   0  0  0  0  0  0  0  0  0  0  0  0
    5.8100    8.2020   12.3920 C   0  0  0  0  0  0  0  0  0  0  0  0
    6.9010    7.3930   12.1520 C   0  0  0  0  0  0  0  0  0  0  0  0
    7.9640    7.4290   13.0010 C   0  0  0  0  0  0  0  0  0  0  0  0
    7.9760    8.2710   14.1190 C   0  0  0  0  0  0  0  0  0  0  0  0
    6.8770    9.0660   14.3340 C   0  0  0  0  0  0  0  0  0  0  0  0
    5.7960    9.0450   13.4890 C   0  0  0  0  0  0  0  0  0  0  0  0
    6.8420   10.2370   15.8470 B   0  0  0  0  0  0  0  0  0  0  0  0
    9.1160    6.5830   12.7590 C   0  0  0  0  0  0  0  0  0  0  0  0
    9.4770    6.3530   11.5550 N   0  0  0  0  0  0  0  0  0  0  0  0
   10.5610    5.5610   11.2110 N   0  0  0  0  0  0  0  0  0  0  0  0
   10.5050    4.4670   10.3140 C   0  0  0  0  0  0  0  0  0  0  0  0
   10.3140    4.7380    9.1050 O   0  0  0  0  0  0  0  0  0  0  0  0
   10.6570    3.0930   10.7270 C   0  0  0  0  0  0  0  0  0  0  0  0
   11.8230    2.4140   10.2550 N   0  0  0  0  0  0  0  0  0  0  0  0
   11.8770    1.3300    9.4370 C   0  0  0  0  0  0  0  0  0  0  0  0
   13.1780    0.9730    9.2160 C   0  0  0  0  0  0  0  0  0  0  0  0
   13.9110    1.8560    9.9120 N   0  0  0  0  0  0  0  0  0  0  0  0
   13.0830    2.7420   10.5510 C   0  0  0  0  0  0  0  0  0  0  0  0
   13.5570    3.8310   11.3960 C   0  0  0  0  0  0  0  0  0  0  0  0
   12.8100    4.5280   12.2610 N   0  0  0  0  0  0  0  0  0  0  0  0
   13.5710    5.4320   12.8500 O   0  0  0  0  0  0  0  0  0  0  0  0
   14.7850    5.3550   12.4040 N   0  0  0  0  0  0  0  0  0  0  0  0
   14.8240    4.3620   11.4880 C   0  0  0  0  0  0  0  0  0  0  0  0
   15.9580    3.9390   10.7530 N   0  0  0  0  0  4  0  0  0  0  0  0
   13.4400   -0.1110    8.4050 C   0  0  0  0  0  0  0  0  0  0  0  0
   12.4260   -0.8450    7.8110 C   0  0  0  0  0  0  0  0  0  0  0  0
   11.1190   -0.4600    8.0530 C   0  0  0  0  0  0  0  0  0  0  0  0
   10.8540    0.6250    8.8640 C   0  0  0  0  0  0  0  0  0  0  0  0
    6.9050    6.5540   11.0510 O   0  0  0  0  0  0  0  0  0  0  0  0
    8.8100    8.3120   14.8010 H   0  0  0  0  0  0  0  0  0  0  0  0
    4.9190    9.6550   13.6290 H   0  0  0  0  0  0  0  0  0  0  0  0
    9.6940    6.1280   13.5540 H   0  0  0  0  0  0  0  0  0  0  0  0
   11.4840    5.7820   11.6420 H   0  0  0  0  0  0  0  0  0  0  0  0
   10.6920    2.9910   11.8570 H   0  0  0  0  0  0  0  0  0  0  0  0
    9.7460    2.5250   10.4530 H   0  0  0  0  0  0  0  0  0  0  0  0
   16.3210    3.0300   11.0680 H   0  0  0  0  0  0  0  0  0  0  0  0
   16.7150    4.6490   10.9530 H   0  0  0  0  0  0  0  0  0  0  0  0
   15.7960    3.9520    9.7130 H   0  0  0  0  0  0  0  0  0  0  0  0
   14.4790   -0.3880    8.2340 H   0  0  0  0  0  0  0  0  0  0  0  0
   12.6680   -1.7020    7.1720 H   0  0  0  0  0  0  0  0  0  0  0  0
   10.3230   -1.0320    7.5900 H   0  0  0  0  0  0  0  0  0  0  0  0
    9.8360    0.9460    9.0690 H   0  0  0  0  0  0  0  0  0  0  0  0
  1  2  1  0  0  0  0
  2  7  1  0  0  0  0
  3  2  2  0  0  0  0
  3  4  1  0  0  0  0
  4  5  2  0  0  0  0
  5  6  1  0  0  0  0
  5 31  1  0  0  0  0
  6  8  1  0  0  0  0
  7 32  1  0  0  0  0
  7  6  2  0  0  0  0
  9  4  1  0  0  0  0
  9 33  1  0  0  0  0
 10  9  2  0  0  0  0
 11 10  1  0  0  0  0
 11 34  1  0  0  0  0
 12 14  1  0  0  0  0
 12 11  1  0  0  0  0
 13 12  2  0  0  0  0
 14 35  1  0  0  0  0
 15 19  1  0  0  0  0
 15 14  1  0  0  0  0
 16 15  1  0  0  0  0
 17 16  1  0  0  0  0
 17 18  1  0  0  0  0
 18 19  2  0  0  0  0
 19 20  1  0  0  0  0
 20 24  1  0  0  0  0
 20 21  2  0  0  0  0
 21 22  1  0  0  0  0
 23 22  1  0  0  0  0
 24 23  2  0  0  0  0
 25 38  1  0  0  0  0
 25 37  1  0  0  0  0
 25 24  1  0  0  0  0
 26 17  2  0  0  0  0
 27 28  2  0  0  0  0
 27 26  1  0  0  0  0
 28 29  1  0  0  0  0
 29 43  1  0  0  0  0
 29 16  2  0  0  0  0
 30  3  1  0  0  0  0
 36 14  1  0  0  0  0
 39 25  1  0  0  0  0
 40 26  1  0  0  0  0
 41 27  1  0  0  0  0
 42 28  1  0  0  0  0
M  END
>  <Pose>
1

>  <Score>
-7.37

$$$$
