
 OpenBabel03172210413D

 58 61  0  0  0  0  0  0  0  0999 V2000
    7.3250   10.4620   12.7930 B   0  0  0  0  0  0  0  0  0  0  0  0
    7.9130    8.6580   13.0800 C   0  0  0  0  0  0  0  0  0  0  0  0
    8.4780    8.3170   14.2780 C   0  0  0  0  0  0  0  0  0  0  0  0
    8.9190    7.0110   14.4780 C   0  0  0  0  0  0  0  0  0  0  0  0
    8.7890    6.0690   13.4680 C   0  0  0  0  0  0  0  0  0  0  0  0
    8.2360    6.4000   12.2650 C   0  0  0  0  0  0  0  0  0  0  0  0
    7.8050    7.6970   12.1000 C   0  0  0  0  0  0  0  0  0  0  0  0
    8.2570    5.5430   11.0620 C   0  0  0  0  0  0  0  0  0  0  0  0
    9.1210    5.3140   10.3200 N   0  0  0  0  0  0  0  0  0  0  0  0
   10.0810    5.0440    9.4730 N   0  0  0  0  0  0  0  0  0  0  0  0
   11.2950    4.6130   10.2040 C   0  0  0  0  0  0  0  0  0  0  0  0
   11.9550    5.3690   11.0610 N   0  0  0  0  0  4  0  0  0  0  0  0
   13.1720    4.9850   11.5430 C   0  0  0  0  0  0  0  0  0  0  0  0
   13.6410    3.8010   11.0840 N   0  0  0  0  0  0  0  0  0  0  0  0
   13.0140    2.9890   10.2120 C   0  0  0  0  0  0  0  0  0  0  0  0
   11.8100    3.4270    9.7790 N   0  0  0  0  0  0  0  0  0  0  0  0
   13.6210    1.8670    9.6750 N   0  0  0  0  0  0  0  0  0  0  0  0
   14.9380    1.6890    9.1980 C   0  0  0  0  0  0  0  0  0  0  0  0
   14.8210    1.3390    7.7120 C   0  0  0  0  0  0  0  0  0  0  0  0
   13.9940    0.2420    7.6050 O   0  0  0  0  0  0  0  0  0  0  0  0
   12.7070    0.4200    8.0580 C   0  0  0  0  0  0  0  0  0  0  0  0
   12.7480    0.6580    9.5950 C   0  0  0  0  0  0  0  0  0  0  0  0
   13.9490    5.8050   12.3940 N   0  0  0  0  0  0  0  0  0  0  0  0
   13.7260    7.2600   12.4020 C   0  0  0  0  0  0  0  0  0  0  0  0
   15.1460    7.8790   12.3260 C   0  0  0  0  0  0  0  0  0  0  0  0
   15.7200    7.5620   13.5230 O   0  0  0  0  0  0  0  0  0  0  0  0
   16.0070    6.2330   13.6670 C   0  0  0  0  0  0  0  0  0  0  0  0
   14.9630    5.2650   13.2160 C   0  0  0  0  0  0  0  0  0  0  0  0
    9.4600    6.7580   15.7000 O   0  0  0  0  0  0  0  0  0  0  0  0
   10.7200    7.0550   16.1880 C   0  0  0  0  0  0  0  0  0  0  0  0
   10.7700    7.0970   17.7080 C   0  0  0  0  0  0  0  0  0  0  0  0
    8.5900    9.2890   15.2500 O   0  0  0  0  0  0  0  0  0  0  0  0
    9.1000    5.0540   13.6120 H   0  0  0  0  0  0  0  0  0  0  0  0
    7.3330    8.0060   11.1890 H   0  0  0  0  0  0  0  0  0  0  0  0
    7.2950    5.0310   10.8190 H   0  0  0  0  0  0  0  0  0  0  0  0
   10.1610    5.0530    8.4750 H   0  0  0  0  0  0  0  0  0  0  0  0
   15.6540    2.4960    9.3410 H   0  0  0  0  0  0  0  0  0  0  0  0
   15.3220    0.7340    9.7020 H   0  0  0  0  0  0  0  0  0  0  0  0
   15.8320    0.9910    7.3830 H   0  0  0  0  0  0  0  0  0  0  0  0
   14.4810    2.2270    7.1730 H   0  0  0  0  0  0  0  0  0  0  0  0
   12.1330   -0.4830    7.9210 H   0  0  0  0  0  0  0  0  0  0  0  0
   12.1540    1.2530    7.5650 H   0  0  0  0  0  0  0  0  0  0  0  0
   11.7680    0.8800    9.9510 H   0  0  0  0  0  0  0  0  0  0  0  0
   13.2850   -0.1470   10.0780 H   0  0  0  0  0  0  0  0  0  0  0  0
   13.2040    7.5930   11.5040 H   0  0  0  0  0  0  0  0  0  0  0  0
   13.1880    7.5810   13.2740 H   0  0  0  0  0  0  0  0  0  0  0  0
   15.0440    8.9460   12.1900 H   0  0  0  0  0  0  0  0  0  0  0  0
   15.6350    7.3800   11.4500 H   0  0  0  0  0  0  0  0  0  0  0  0
   16.1990    6.0390   14.7680 H   0  0  0  0  0  0  0  0  0  0  0  0
   16.9780    6.0080   13.1810 H   0  0  0  0  0  0  0  0  0  0  0  0
   14.5050    4.7360   14.0900 H   0  0  0  0  0  0  0  0  0  0  0  0
   15.4880    4.4750   12.5890 H   0  0  0  0  0  0  0  0  0  0  0  0
   11.3930    6.1910   15.8620 H   0  0  0  0  0  0  0  0  0  0  0  0
   11.1220    7.9840   15.8020 H   0  0  0  0  0  0  0  0  0  0  0  0
    9.7790    7.0730   18.1680 H   0  0  0  0  0  0  0  0  0  0  0  0
   11.3280    8.0180   18.0200 H   0  0  0  0  0  0  0  0  0  0  0  0
   11.3620    6.2270   18.0850 H   0  0  0  0  0  0  0  0  0  0  0  0
    8.9650    9.1320   16.1540 H   0  0  0  0  0  0  0  0  0  0  0  0
  1  2  1  0  0  0  0
  2  3  1  0  0  0  0
  3  4  2  0  0  0  0
  3 32  1  0  0  0  0
  4 29  1  0  0  0  0
  5 33  1  0  0  0  0
  5  4  1  0  0  0  0
  6  5  2  0  0  0  0
  7  6  1  0  0  0  0
  7  2  2  0  0  0  0
  8  6  1  0  0  0  0
  9  8  1  0  0  0  0
 10 11  1  0  0  0  0
 10  9  1  0  0  0  0
 11 12  2  0  0  0  0
 12 13  2  0  0  0  0
 13 23  1  0  0  0  0
 14 13  1  0  0  0  0
 15 14  2  0  0  0  0
 16 11  1  0  0  0  0
 16 15  1  0  0  0  0
 17 15  1  0  0  0  0
 18 37  1  0  0  0  0
 18 17  1  0  0  0  0
 18 38  1  0  0  0  0
 19 18  1  0  0  0  0
 20 19  1  0  0  0  0
 20 21  1  0  0  0  0
 21 22  1  0  0  0  0
 22 17  1  0  0  0  0
 22 43  1  0  0  0  0
 22 44  1  0  0  0  0
 23 24  1  0  0  0  0
 23 28  1  0  0  0  0
 24 46  1  0  0  0  0
 25 24  1  0  0  0  0
 25 26  1  0  0  0  0
 26 27  1  0  0  0  0
 27 49  1  0  0  0  0
 28 27  1  0  0  0  0
 28 51  1  0  0  0  0
 29 30  1  0  0  0  0
 30 31  1  0  0  0  0
 31 56  1  0  0  0  0
 31 57  1  0  0  0  0
 31 55  1  0  0  0  0
 32 58  1  0  0  0  0
 34  7  1  0  0  0  0
 35  8  1  0  0  0  0
 36 10  1  0  0  0  0
 39 19  1  0  0  0  0
 40 19  1  0  0  0  0
 41 21  1  0  0  0  0
 42 21  1  0  0  0  0
 45 24  1  0  0  0  0
 47 25  1  0  0  0  0
 48 25  1  0  0  0  0
 50 27  1  0  0  0  0
 52 28  1  0  0  0  0
 53 30  1  0  0  0  0
 54 30  1  0  0  0  0
M  END
>  <Pose>
1

>  <Score>
-6.39

$$$$
