
 OpenBabel03172210413D

 64 67  0  0  1  0  0  0  0  0999 V2000
    2.6090   11.0970   14.6600 B   0  0  0  0  0  0  0  0  0  0  0  0
    4.0520    9.9460   14.2230 C   0  0  0  0  0  0  0  0  0  0  0  0
    3.8910    9.0270   13.1750 C   0  0  0  0  0  0  0  0  0  0  0  0
    4.9470    8.1830   12.8560 C   0  0  0  0  0  0  0  0  0  0  0  0
    6.0950    8.2790   13.5680 C   0  0  0  0  0  0  0  0  0  0  0  0
    6.2520    9.1870   14.6030 C   0  0  0  0  0  0  0  0  0  0  0  0
    5.2260   10.0340   14.9430 C   0  0  0  0  0  0  0  0  0  0  0  0
    7.5640    9.1700   15.3000 C   0  0  1  0  0  0  0  0  0  0  0  0
    7.3940    8.3960   16.5120 N   0  0  0  0  0  0  0  0  0  0  0  0
    8.0030    7.1410   16.4110 C   0  0  0  0  0  0  0  0  0  0  0  0
    7.9200    6.2170   17.2340 O   0  0  0  0  0  0  0  0  0  0  0  0
    8.7560    7.1130   15.1570 C   0  0  0  0  0  0  0  0  0  0  0  0
    9.4130    6.1080   14.7810 O   0  0  0  0  0  0  0  0  0  0  0  0
    8.5850    8.3940   14.5050 C   0  0  0  0  0  0  0  0  0  0  0  0
    9.1810    8.7650   13.4040 C   0  0  0  0  0  0  0  0  0  0  0  0
    8.8810    9.9970   12.8440 O   0  0  0  0  0  0  0  0  0  0  0  0
   10.1580    7.9350   12.7430 C   0  0  0  0  0  0  0  0  0  0  0  0
    9.6390    7.1010   11.7440 C   0  0  0  0  0  0  0  0  0  0  0  0
   10.4580    6.2820   11.0070 C   0  0  0  0  0  0  0  0  0  0  0  0
   11.8120    6.2670   11.2440 C   0  0  0  0  0  0  0  0  0  0  0  0
   12.3010    7.0970   12.2360 C   0  0  0  0  0  0  0  0  0  0  0  0
   11.4950    7.9270   12.9840 C   0  0  0  0  0  0  0  0  0  0  0  0
   12.4020    5.3450   10.3540 O   0  0  0  0  0  0  0  0  0  0  0  0
   11.3770    4.5050    9.8330 C   0  0  2  0  0  0  0  0  0  0  0  0
   10.1080    5.3210    9.9120 C   0  0  0  0  0  0  0  0  0  0  0  0
   11.1760    3.2610   10.6780 C   0  0  0  0  0  0  0  0  0  0  0  0
    6.6640    8.9240   17.6460 C   0  0  0  0  0  0  0  0  0  0  0  0
    6.6680    8.1100   18.8700 C   0  0  0  0  0  0  0  0  0  0  0  0
    5.4760    7.2770   19.1590 C   0  0  0  0  0  0  0  0  0  0  0  0
    5.7790    5.9750   19.7010 N   0  0  0  0  0  4  0  0  0  0  0  0
    4.7400    5.6090   20.6740 C   0  0  0  0  0  0  0  0  0  0  0  0
    7.0250    6.0960   20.4370 C   0  0  0  0  0  0  0  0  0  0  0  0
    4.7930    7.2670   11.8120 O   0  0  0  0  0  0  0  0  0  0  0  0
    5.8440    6.4860   11.3130 C   0  0  0  0  0  0  0  0  0  0  0  0
    2.7230    8.9420   12.4610 O   0  0  0  0  0  0  0  0  0  0  0  0
    6.9100    7.5970   13.2890 H   0  0  0  0  0  0  0  0  0  0  0  0
    5.3690   10.7390   15.7550 H   0  0  0  0  0  0  0  0  0  0  0  0
    7.9290   10.1890   15.5370 H   0  0  0  0  0  0  0  0  0  0  0  0
    8.5570    7.0900   11.5260 H   0  0  0  0  0  0  0  0  0  0  0  0
   13.3810    7.1050   12.4460 H   0  0  0  0  0  0  0  0  0  0  0  0
   11.8870    8.5910   13.7440 H   0  0  0  0  0  0  0  0  0  0  0  0
   11.5410    4.2170    8.7850 H   0  0  0  0  0  0  0  0  0  0  0  0
    9.2220    4.6850   10.2080 H   0  0  0  0  0  0  0  0  0  0  0  0
    9.8350    5.8160    8.9760 H   0  0  0  0  0  0  0  0  0  0  0  0
   11.6190    3.4320   11.6900 H   0  0  0  0  0  0  0  0  0  0  0  0
   11.5920    2.3610   10.1760 H   0  0  0  0  0  0  0  0  0  0  0  0
   10.1030    3.0890   10.8230 H   0  0  0  0  0  0  0  0  0  0  0  0
    7.0780    9.9270   17.8740 H   0  0  0  0  0  0  0  0  0  0  0  0
    5.6020    9.1590   17.3240 H   0  0  0  0  0  0  0  0  0  0  0  0
    6.8020    8.8060   19.7490 H   0  0  0  0  0  0  0  0  0  0  0  0
    7.5630    7.4620   18.9030 H   0  0  0  0  0  0  0  0  0  0  0  0
    4.7100    7.7430   19.7920 H   0  0  0  0  0  0  0  0  0  0  0  0
    4.9680    7.0830   18.1740 H   0  0  0  0  0  0  0  0  0  0  0  0
    5.9010    5.2310   19.0090 H   0  0  0  0  0  0  0  0  0  0  0  0
    3.7760    5.3690   20.1510 H   0  0  0  0  0  0  0  0  0  0  0  0
    5.0250    4.7110   21.2560 H   0  0  0  0  0  0  0  0  0  0  0  0
    4.6030    6.4670   21.3780 H   0  0  0  0  0  0  0  0  0  0  0  0
    7.7720    5.3480   20.1130 H   0  0  0  0  0  0  0  0  0  0  0  0
    6.8520    6.0320   21.5340 H   0  0  0  0  0  0  0  0  0  0  0  0
    7.5040    7.1010   20.2700 H   0  0  0  0  0  0  0  0  0  0  0  0
    6.7210    7.1050   10.9930 H   0  0  0  0  0  0  0  0  0  0  0  0
    6.1410    5.7670   12.1320 H   0  0  0  0  0  0  0  0  0  0  0  0
    5.4730    5.8970   10.4680 H   0  0  0  0  0  0  0  0  0  0  0  0
    2.7300    9.0160   11.4740 H   0  0  0  0  0  0  0  0  0  0  0  0
  2  1  1  0  0  0  0
  2  7  1  0  0  0  0
  3  2  2  0  0  0  0
  4  3  1  0  0  0  0
  4  5  2  0  0  0  0
  5  6  1  0  0  0  0
  6  7  2  0  0  0  0
  6  8  1  0  0  0  0
  7 37  1  0  0  0  0
  8 38  1  1  0  0  0
  8  9  1  0  0  0  0
  9 27  1  0  0  0  0
 10  9  1  0  0  0  0
 10 11  2  0  0  0  0
 12 10  1  0  0  0  0
 13 12  2  0  0  0  0
 14 12  1  0  0  0  0
 14  8  1  0  0  0  0
 15 14  2  0  0  0  0
 16 15  1  0  0  0  0
 17 22  1  0  0  0  0
 17 15  1  0  0  0  0
 18 17  2  0  0  0  0
 19 20  2  0  0  0  0
 19 18  1  0  0  0  0
 20 21  1  0  0  0  0
 21 40  1  0  0  0  0
 21 22  2  0  0  0  0
 22 41  1  0  0  0  0
 23 20  1  0  0  0  0
 24 42  1  6  0  0  0
 24 25  1  0  0  0  0
 24 23  1  0  0  0  0
 24 26  1  0  0  0  0
 25 43  1  0  0  0  0
 25 19  1  0  0  0  0
 26 47  1  0  0  0  0
 26 45  1  0  0  0  0
 27 48  1  0  0  0  0
 27 28  1  0  0  0  0
 28 51  1  0  0  0  0
 28 29  1  0  0  0  0
 28 50  1  0  0  0  0
 29 30  1  0  0  0  0
 29 52  1  0  0  0  0
 30 32  1  0  0  0  0
 30 31  1  0  0  0  0
 31 56  1  0  0  0  0
 31 57  1  0  0  0  0
 32 59  1  0  0  0  0
 33  4  1  0  0  0  0
 34 33  1  0  0  0  0
 34 62  1  0  0  0  0
 35  3  1  0  0  0  0
 36  5  1  0  0  0  0
 39 18  1  0  0  0  0
 44 25  1  0  0  0  0
 46 26  1  0  0  0  0
 49 27  1  0  0  0  0
 53 29  1  0  0  0  0
 54 30  1  0  0  0  0
 55 31  1  0  0  0  0
 58 32  1  0  0  0  0
 60 32  1  0  0  0  0
 61 34  1  0  0  0  0
 63 34  1  0  0  0  0
 64 35  1  0  0  0  0
M  END
>  <Pose>
1

>  <Score>
-5.83

$$$$
