
 OpenBabel03172210413D

 39 42  0  0  1  0  0  0  0  0999 V2000
   14.9050    0.6480    7.8970 B   0  0  0  0  0  0  0  0  0  0  0  0
   13.1770    0.8100    8.6720 C   0  0  0  0  0  0  0  0  0  0  0  0
   12.1530   -0.0010    8.2440 C   0  0  0  0  0  0  0  0  0  0  0  0
   10.9100    0.1390    8.8240 C   0  0  0  0  0  0  0  0  0  0  0  0
   10.6260    1.0510    9.8170 C   0  0  0  0  0  0  0  0  0  0  0  0
   11.6580    1.8600   10.2420 C   0  0  0  0  0  0  0  0  0  0  0  0
   12.9100    1.7420    9.6790 C   0  0  0  0  0  0  0  0  0  0  0  0
   11.4800    2.8820   11.3130 C   0  0  2  0  0  0  0  0  0  0  0  0
   10.4100    3.7260   10.9750 N   0  0  0  0  0  4  0  0  0  0  0  0
   10.5410    5.1230   11.1500 C   0  0  1  0  0  0  0  0  0  0  0  0
   11.6150    5.5570   12.1110 C   0  0  0  0  0  0  0  0  0  0  0  0
   12.8810    4.8160   11.9010 C   0  0  0  0  0  0  0  0  0  0  0  0
   14.1950    5.1800   12.0220 C   0  0  0  0  0  0  0  0  0  0  0  0
   14.9130    4.0440   11.6890 C   0  0  0  0  0  0  0  0  0  0  0  0
   14.0440    3.0440   11.3820 N   0  0  0  0  0  0  0  0  0  0  0  0
   12.7960    3.5140   11.5120 C   0  0  0  0  0  0  0  0  0  0  0  0
   16.2870    4.1430   11.7310 C   0  0  0  0  0  0  0  0  0  0  0  0
   16.9190    5.3150   12.0870 C   0  0  0  0  0  0  0  0  0  0  0  0
   16.2020    6.4470   12.4180 C   0  0  0  0  0  0  0  0  0  0  0  0
   14.8200    6.3650   12.3820 C   0  0  0  0  0  0  0  0  0  0  0  0
   10.7790    5.8450    9.8690 C   0  0  0  0  0  0  0  0  0  0  0  0
   10.1230    6.9130    9.6220 O   0  0  0  0  0  0  0  0  0  0  0  0
   11.7030    5.3500    8.9630 O   0  0  0  0  0  0  0  0  0  0  0  0
    9.5060   -0.9960    8.2130 B   0  0  0  0  0  0  0  0  0  0  0  0
   12.3620   -0.9590    7.2310 O   0  0  0  0  0  0  0  0  0  0  0  0
    9.6750    1.1800   10.2820 H   0  0  0  0  0  0  0  0  0  0  0  0
   13.7700    2.3410    9.9630 H   0  0  0  0  0  0  0  0  0  0  0  0
   11.2670    2.2990   12.2510 H   0  0  0  0  0  0  0  0  0  0  0  0
   10.0660    3.5510    9.9880 H   0  0  0  0  0  0  0  0  0  0  0  0
    9.5610    3.4150   11.5480 H   0  0  0  0  0  0  0  0  0  0  0  0
    9.5850    5.5770   11.5520 H   0  0  0  0  0  0  0  0  0  0  0  0
   11.3260    5.4400   13.1750 H   0  0  0  0  0  0  0  0  0  0  0  0
   11.8290    6.6340   11.9490 H   0  0  0  0  0  0  0  0  0  0  0  0
   14.3870    2.0990   11.1040 H   0  0  0  0  0  0  0  0  0  0  0  0
   16.8700    3.2740   11.4770 H   0  0  0  0  0  0  0  0  0  0  0  0
   18.0180    5.3880   12.1190 H   0  0  0  0  0  0  0  0  0  0  0  0
   16.7330    7.3480   12.6930 H   0  0  0  0  0  0  0  0  0  0  0  0
   14.2340    7.2370   12.6370 H   0  0  0  0  0  0  0  0  0  0  0  0
   13.3160   -1.1940    6.9960 H   0  0  0  0  0  0  0  0  0  0  0  0
  1  2  1  0  0  0  0
  2  7  1  0  0  0  0
  3  2  2  0  0  0  0
  3  4  1  0  0  0  0
  4  5  2  0  0  0  0
  5  6  1  0  0  0  0
  5 26  1  0  0  0  0
  6  8  1  0  0  0  0
  7 27  1  0  0  0  0
  7  6  2  0  0  0  0
  8 16  1  0  0  0  0
  8 28  1  1  0  0  0
  9 10  1  0  0  0  0
  9  8  1  0  0  0  0
  9 30  1  0  0  0  0
 10 31  1  1  0  0  0
 10 11  1  0  0  0  0
 11 32  1  0  0  0  0
 12 13  1  0  0  0  0
 12 11  1  0  0  0  0
 13 20  1  0  0  0  0
 14 17  1  0  0  0  0
 14 13  2  0  0  0  0
 15 16  1  0  0  0  0
 15 14  1  0  0  0  0
 16 12  2  0  0  0  0
 17 18  2  0  0  0  0
 18 36  1  0  0  0  0
 18 19  1  0  0  0  0
 19 37  1  0  0  0  0
 20 19  2  0  0  0  0
 20 38  1  0  0  0  0
 21 10  1  0  0  0  0
 22 21  1  0  0  0  0
 23 21  2  0  0  0  0
 24  4  1  0  0  0  0
 25  3  1  0  0  0  0
 29  9  1  0  0  0  0
 33 11  1  0  0  0  0
 34 15  1  0  0  0  0
 35 17  1  0  0  0  0
 39 25  1  0  0  0  0
M  END
>  <Pose>
1

>  <Score>
-5.75

$$$$
