
 OpenBabel03172210413D

 52 55  0  0  0  0  0  0  0  0999 V2000
   11.0240    2.5430   11.0000 B   0  0  0  0  0  0  0  0  0  0  0  0
   12.4350    1.8920    9.9040 C   0  0  0  0  0  0  0  0  0  0  0  0
   12.1550    0.8600    9.0210 C   0  0  0  0  0  0  0  0  0  0  0  0
   13.1980    0.4000    8.2400 C   0  0  0  0  0  0  0  0  0  0  0  0
   14.4520    0.9440    8.3390 C   0  0  0  0  0  0  0  0  0  0  0  0
   14.7570    1.9830    9.2170 C   0  0  0  0  0  0  0  0  0  0  0  0
   13.7060    2.4290    9.9880 C   0  0  0  0  0  0  0  0  0  0  0  0
   16.0980    2.5280    9.2560 C   0  0  0  0  0  0  0  0  0  0  0  0
   16.7960    2.5530   10.3390 N   0  0  0  0  0  0  0  0  0  0  0  0
   18.0800    3.0660   10.4250 N   0  0  0  0  0  0  0  0  0  0  0  0
   18.4590    3.8840   11.5250 C   0  0  0  0  0  0  0  0  0  0  0  0
   19.7350    4.1530   11.7500 N   0  0  0  0  0  4  0  0  0  0  0  0
   20.1800    4.9390   12.7460 C   0  0  0  0  0  0  0  0  0  0  0  0
   19.2430    5.4760   13.5580 N   0  0  0  0  0  0  0  0  0  0  0  0
   17.9170    5.2350   13.3790 C   0  0  0  0  0  0  0  0  0  0  0  0
   17.5430    4.4320   12.3520 N   0  0  0  0  0  0  0  0  0  0  0  0
   16.9490    5.8150   14.2240 N   0  0  0  0  0  0  0  0  0  0  0  0
   17.3250    6.5050   15.4320 C   0  0  0  0  0  0  0  0  0  0  0  0
   16.6510    7.8810   15.3380 C   0  0  0  0  0  0  0  0  0  0  0  0
   15.3030    7.7050   15.0960 O   0  0  0  0  0  0  0  0  0  0  0  0
   15.0980    7.2190   13.8060 C   0  0  0  0  0  0  0  0  0  0  0  0
   15.5520    5.7460   13.8780 C   0  0  0  0  0  0  0  0  0  0  0  0
   21.5770    5.2070   12.9470 N   0  0  0  0  0  0  0  0  0  0  0  0
   22.1300    5.3460   14.2640 C   0  0  0  0  0  0  0  0  0  0  0  0
   23.6050    5.3660   14.3680 C   0  0  0  0  0  0  0  0  0  0  0  0
   24.2640    5.6140   13.1720 O   0  0  0  0  0  0  0  0  0  0  0  0
   23.7900    4.8180   12.1390 C   0  0  0  0  0  0  0  0  0  0  0  0
   22.4150    5.3320   11.7900 C   0  0  0  0  0  0  0  0  0  0  0  0
   15.5040    0.4720    7.5450 O   0  0  0  0  0  0  0  0  0  0  0  0
   10.8840    0.3000    8.9140 O   0  0  0  0  0  0  0  0  0  0  0  0
   12.9590   -0.4150    7.5500 H   0  0  0  0  0  0  0  0  0  0  0  0
   13.9310    3.2470   10.6890 H   0  0  0  0  0  0  0  0  0  0  0  0
   16.5370    2.9270    8.3560 H   0  0  0  0  0  0  0  0  0  0  0  0
   18.7670    2.8590    9.6910 H   0  0  0  0  0  0  0  0  0  0  0  0
   16.9260    5.9640   16.3140 H   0  0  0  0  0  0  0  0  0  0  0  0
   18.4340    6.6410   15.4990 H   0  0  0  0  0  0  0  0  0  0  0  0
   16.8520    8.4190   16.2810 H   0  0  0  0  0  0  0  0  0  0  0  0
   17.1510    8.4070   14.4870 H   0  0  0  0  0  0  0  0  0  0  0  0
   15.8510    7.7250   13.1300 H   0  0  0  0  0  0  0  0  0  0  0  0
   14.0720    7.3280   13.4640 H   0  0  0  0  0  0  0  0  0  0  0  0
   15.0120    5.3250   14.7750 H   0  0  0  0  0  0  0  0  0  0  0  0
   15.3360    5.2010   12.9540 H   0  0  0  0  0  0  0  0  0  0  0  0
   21.6760    6.2760   14.7060 H   0  0  0  0  0  0  0  0  0  0  0  0
   21.7450    4.4670   14.8680 H   0  0  0  0  0  0  0  0  0  0  0  0
   23.9850    4.4160   14.8240 H   0  0  0  0  0  0  0  0  0  0  0  0
   23.9000    6.1830   15.0750 H   0  0  0  0  0  0  0  0  0  0  0  0
   24.5030    4.8790   11.3120 H   0  0  0  0  0  0  0  0  0  0  0  0
   23.6410    3.7500   12.4530 H   0  0  0  0  0  0  0  0  0  0  0  0
   22.0640    4.6770   10.9500 H   0  0  0  0  0  0  0  0  0  0  0  0
   22.4400    6.3710   11.4000 H   0  0  0  0  0  0  0  0  0  0  0  0
   15.2870   -0.1860    6.8030 H   0  0  0  0  0  0  0  0  0  0  0  0
   10.2410    0.5100    8.1650 H   0  0  0  0  0  0  0  0  0  0  0  0
  2  7  1  0  0  0  0
  2  1  1  0  0  0  0
  3  2  2  0  0  0  0
  4  5  2  0  0  0  0
  4  3  1  0  0  0  0
  5  6  1  0  0  0  0
  6  8  1  0  0  0  0
  6  7  2  0  0  0  0
  7 32  1  0  0  0  0
  8  9  2  0  0  0  0
  9 10  1  0  0  0  0
 10 11  1  0  0  0  0
 11 12  2  0  0  0  0
 11 16  1  0  0  0  0
 12 13  2  0  0  0  0
 13 23  1  0  0  0  0
 13 14  1  0  0  0  0
 15 14  2  0  0  0  0
 15 17  1  0  0  0  0
 16 15  1  0  0  0  0
 17 18  1  0  0  0  0
 18 36  1  0  0  0  0
 18 35  1  0  0  0  0
 19 18  1  0  0  0  0
 19 37  1  0  0  0  0
 20 19  1  0  0  0  0
 21 22  1  0  0  0  0
 21 20  1  0  0  0  0
 22 17  1  0  0  0  0
 22 41  1  0  0  0  0
 23 24  1  0  0  0  0
 24 25  1  0  0  0  0
 24 43  1  0  0  0  0
 24 44  1  0  0  0  0
 25 45  1  0  0  0  0
 25 46  1  0  0  0  0
 26 25  1  0  0  0  0
 27 48  1  0  0  0  0
 27 26  1  0  0  0  0
 28 27  1  0  0  0  0
 28 23  1  0  0  0  0
 29  5  1  0  0  0  0
 30  3  1  0  0  0  0
 31  4  1  0  0  0  0
 33  8  1  0  0  0  0
 34 10  1  0  0  0  0
 38 19  1  0  0  0  0
 39 21  1  0  0  0  0
 40 21  1  0  0  0  0
 42 22  1  0  0  0  0
 47 27  1  0  0  0  0
 49 28  1  0  0  0  0
 50 28  1  0  0  0  0
 51 29  1  0  0  0  0
 52 30  1  0  0  0  0
M  END
>  <Pose>
1

>  <Score>
-6.30

$$$$
