
 OpenBabel03172210413D

 41 43  0  0  1  0  0  0  0  0999 V2000
   10.8840   -0.2080    8.9190 B   0  0  0  0  0  0  0  0  0  0  0  0
   12.6290    0.5980    8.9460 C   0  0  0  0  0  0  0  0  0  0  0  0
   12.8520    1.5490    9.9520 C   0  0  0  0  0  0  0  0  0  0  0  0
   14.1110    2.1100    9.9490 C   0  0  0  0  0  0  0  0  0  0  0  0
   15.0760    1.7460    9.0070 C   0  0  0  0  0  0  0  0  0  0  0  0
   14.8340    0.8110    8.0310 C   0  0  0  0  0  0  0  0  0  0  0  0
   13.5830    0.2440    8.0240 C   0  0  0  0  0  0  0  0  0  0  0  0
   15.8800    0.4340    7.0320 C   0  0  0  0  0  0  0  0  0  0  0  0
   11.8290    1.8710   10.8740 N   0  0  0  0  0  0  0  0  0  0  0  0
   11.8010    2.8970   11.8200 C   0  0  0  0  0  0  0  0  0  0  0  0
   11.5470    2.6720   13.0110 O   0  0  0  0  0  0  0  0  0  0  0  0
   12.0820    4.2790   11.3830 C   0  0  0  0  0  0  0  0  0  0  0  0
   11.0280    5.2200   11.5730 N   0  0  1  0  0  4  0  0  0  0  0  0
   11.5440    6.5460   11.1970 C   0  0  0  0  0  0  0  0  0  0  0  0
   10.3560    7.3970   10.8250 C   0  0  0  0  0  0  0  0  0  0  0  0
    9.3000    7.0520   11.7760 N   0  0  1  0  0  0  0  0  0  0  0  0
    8.7090    5.8160   11.2710 C   0  0  0  0  0  0  0  0  0  0  0  0
    9.8400    4.9250   10.7760 C   0  0  0  0  0  0  0  0  0  0  0  0
    9.9020    6.7330   13.0610 C   0  0  0  0  0  0  0  0  0  0  0  0
   10.5880    5.3620   12.9460 C   0  0  0  0  0  0  0  0  0  0  0  0
   14.3660    2.8560   10.6950 H   0  0  0  0  0  0  0  0  0  0  0  0
   16.0680    2.2000    9.0180 H   0  0  0  0  0  0  0  0  0  0  0  0
   13.3570   -0.4990    7.2640 H   0  0  0  0  0  0  0  0  0  0  0  0
   15.4230    0.0020    6.1180 H   0  0  0  0  0  0  0  0  0  0  0  0
   16.5910   -0.2900    7.4350 H   0  0  0  0  0  0  0  0  0  0  0  0
   16.3540    1.3870    6.7110 H   0  0  0  0  0  0  0  0  0  0  0  0
   10.9680    1.2480   10.8400 H   0  0  0  0  0  0  0  0  0  0  0  0
   12.3190    4.3010   10.2750 H   0  0  0  0  0  0  0  0  0  0  0  0
   12.9810    4.7040   11.8970 H   0  0  0  0  0  0  0  0  0  0  0  0
   12.0970    6.9230   12.0760 H   0  0  0  0  0  0  0  0  0  0  0  0
   12.2650    6.4390   10.3600 H   0  0  0  0  0  0  0  0  0  0  0  0
   10.0670    7.1430    9.7910 H   0  0  0  0  0  0  0  0  0  0  0  0
   10.5970    8.4940   10.9230 H   0  0  0  0  0  0  0  0  0  0  0  0
    8.0800    6.0520   10.3890 H   0  0  0  0  0  0  0  0  0  0  0  0
    8.1180    5.2910   12.0600 H   0  0  0  0  0  0  0  0  0  0  0  0
    9.5390    3.8970   10.9850 H   0  0  0  0  0  0  0  0  0  0  0  0
   10.1000    5.1100    9.7220 H   0  0  0  0  0  0  0  0  0  0  0  0
   10.6100    7.5370   13.3070 H   0  0  0  0  0  0  0  0  0  0  0  0
    9.1020    6.6970   13.8320 H   0  0  0  0  0  0  0  0  0  0  0  0
    9.7980    4.6130   13.1800 H   0  0  0  0  0  0  0  0  0  0  0  0
   11.4100    5.3750   13.6690 H   0  0  0  0  0  0  0  0  0  0  0  0
  1  2  1  0  0  0  0
  2  3  1  0  0  0  0
  3  9  1  0  0  0  0
  4  3  2  0  0  0  0
  4 21  1  0  0  0  0
  5 22  1  0  0  0  0
  5  4  1  0  0  0  0
  6  5  2  0  0  0  0
  7  6  1  0  0  0  0
  7  2  2  0  0  0  0
  8 25  1  0  0  0  0
  8  6  1  0  0  0  0
  9 10  1  0  0  0  0
 10 11  2  0  0  0  0
 12 10  1  0  0  0  0
 12 29  1  0  0  0  0
 13 12  1  6  0  0  0
 13 20  1  0  0  0  0
 14 13  1  0  0  0  0
 14 30  1  0  0  0  0
 15 33  1  0  0  0  0
 15 14  1  0  0  0  0
 16 15  1  6  0  0  0
 16 19  1  0  0  0  0
 17 16  1  0  0  0  0
 17 35  1  0  0  0  0
 18 36  1  0  0  0  0
 18 17  1  0  0  0  0
 18 13  1  0  0  0  0
 19 38  1  0  0  0  0
 19 39  1  0  0  0  0
 20 19  1  0  0  0  0
 20 40  1  0  0  0  0
 20 41  1  0  0  0  0
 23  7  1  0  0  0  0
 24  8  1  0  0  0  0
 26  8  1  0  0  0  0
 27  9  1  0  0  0  0
 28 12  1  0  0  0  0
 31 14  1  0  0  0  0
 32 15  1  0  0  0  0
 34 17  1  0  0  0  0
 37 18  1  0  0  0  0
M  END
>  <Pose>
1

>  <Score>
-4.80

$$$$
