
 OpenBabel03172210413D

 33 36  0  0  1  0  0  0  0  0999 V2000
   14.0060    2.9240   10.9510 B   0  0  0  0  0  0  0  0  0  0  0  0
   12.7680    1.8330    9.9570 C   0  0  0  0  0  0  0  0  0  0  0  0
   11.4360    2.1740   10.0310 C   0  0  0  0  0  0  0  0  0  0  0  0
   10.5650    1.3710    9.3020 C   0  0  0  0  0  0  0  0  0  0  0  0
   11.0030    0.2980    8.5500 C   0  0  0  0  0  0  0  0  0  0  0  0
   12.3560   -0.0180    8.4980 C   0  0  0  0  0  0  0  0  0  0  0  0
   13.2220    0.7670    9.2120 C   0  0  0  0  0  0  0  0  0  0  0  0
   10.9430    3.2680   10.7900 N   0  0  0  0  0  0  0  0  0  0  0  0
   10.1960    4.3940   10.3570 C   0  0  0  0  0  0  0  0  0  0  0  0
    9.7510    4.5390    9.2040 O   0  0  0  0  0  0  0  0  0  0  0  0
   10.0170    5.3700   11.4560 C   0  0  2  0  0  0  0  0  0  0  0  0
   10.6940    6.6720   11.2040 C   0  0  1  0  0  0  0  0  0  0  0  0
   11.4940    6.9080   12.3530 O   0  0  0  0  0  0  0  0  0  0  0  0
   12.1600    5.6550   12.3390 C   0  0  1  0  0  0  0  0  0  0  0  0
   10.9170    4.7840   12.5590 C   0  0  2  0  0  0  0  0  0  0  0  0
   11.1670    3.3800   12.1980 C   0  0  0  0  0  0  0  0  0  0  0  0
   11.5090    2.4380   12.9460 O   0  0  0  0  0  0  0  0  0  0  0  0
   12.6230    5.6100   10.9350 C   0  0  0  0  0  0  0  0  0  0  0  0
   11.8070    6.4040   10.2420 C   0  0  0  0  0  0  0  0  0  0  0  0
    9.8500    7.8220   10.8460 C   0  0  0  0  0  0  0  0  0  0  0  0
    8.5440    7.5650   11.3030 O   0  0  0  0  0  0  0  0  0  0  0  0
    9.5100    1.6210    9.3450 H   0  0  0  0  0  0  0  0  0  0  0  0
   10.3000   -0.3250    7.9820 H   0  0  0  0  0  0  0  0  0  0  0  0
   12.6660   -0.8650    7.8970 H   0  0  0  0  0  0  0  0  0  0  0  0
   14.2740    0.5450    9.1890 H   0  0  0  0  0  0  0  0  0  0  0  0
    8.9790    5.4560   11.7960 H   0  0  0  0  0  0  0  0  0  0  0  0
   12.9150    5.5510   13.0900 H   0  0  0  0  0  0  0  0  0  0  0  0
   10.5240    4.9590   13.5570 H   0  0  0  0  0  0  0  0  0  0  0  0
   13.4520    5.0680   10.4660 H   0  0  0  0  0  0  0  0  0  0  0  0
   11.9060    6.7740    9.2320 H   0  0  0  0  0  0  0  0  0  0  0  0
    9.7410    7.9320    9.7340 H   0  0  0  0  0  0  0  0  0  0  0  0
   10.2320    8.7740   11.2300 H   0  0  0  0  0  0  0  0  0  0  0  0
    7.9300    8.2830   10.9710 H   0  0  0  0  0  0  0  0  0  0  0  0
  2  3  1  0  0  0  0
  2  1  1  0  0  0  0
  3  8  1  0  0  0  0
  4 22  1  0  0  0  0
  4  3  2  0  0  0  0
  5  4  1  0  0  0  0
  6  5  2  0  0  0  0
  6  7  1  0  0  0  0
  7  2  2  0  0  0  0
  8 16  1  0  0  0  0
  9  8  1  0  0  0  0
  9 11  1  0  0  0  0
 10  9  2  0  0  0  0
 11 26  1  1  0  0  0
 11 15  1  0  0  0  0
 12 20  1  6  0  0  0
 12 11  1  0  0  0  0
 12 13  1  0  0  0  0
 14 13  1  0  0  0  0
 14 15  1  0  0  0  0
 14 27  1  1  0  0  0
 15 28  1  1  0  0  0
 16 15  1  0  0  0  0
 16 17  2  0  0  0  0
 18 14  1  0  0  0  0
 19 18  2  0  0  0  0
 19 12  1  0  0  0  0
 20 32  1  0  0  0  0
 20 21  1  0  0  0  0
 23  5  1  0  0  0  0
 24  6  1  0  0  0  0
 25  7  1  0  0  0  0
 29 18  1  0  0  0  0
 30 19  1  0  0  0  0
 31 20  1  0  0  0  0
 33 21  1  0  0  0  0
M  END
>  <Pose>
1

>  <Score>
-4.41

$$$$
