
 OpenBabel03172210413D

 52 55  0  0  1  0  0  0  0  0999 V2000
    5.4310   10.4100   13.9270 B   0  0  0  0  0  0  0  0  0  0  0  0
    5.9400    8.7030   13.1920 C   0  0  0  0  0  0  0  0  0  0  0  0
    6.8770    7.9370   13.8430 C   0  0  0  0  0  0  0  0  0  0  0  0
    7.2450    6.7210   13.3080 C   0  0  0  0  0  0  0  0  0  0  0  0
    6.6880    6.2760   12.1510 C   0  0  0  0  0  0  0  0  0  0  0  0
    5.7550    7.0520   11.5210 C   0  0  0  0  0  0  0  0  0  0  0  0
    5.3470    8.2930   12.0160 C   0  0  0  0  0  0  0  0  0  0  0  0
    8.2470    5.9000   14.0850 C   0  0  0  0  0  0  0  0  0  0  0  0
    7.8280    5.3630   15.0960 O   0  0  0  0  0  0  0  0  0  0  0  0
    9.5110    5.8770   13.5050 N   0  0  0  0  0  0  0  0  0  0  0  0
    9.8510    6.4710   12.2640 C   0  0  1  0  0  0  0  0  0  0  0  0
    9.9640    7.9870   12.2890 C   0  0  0  0  0  0  0  0  0  0  0  0
   11.0300    5.9010   11.6280 C   0  0  0  0  0  0  0  0  0  0  0  0
   11.9850    6.7000   11.3770 O   0  0  0  0  0  0  0  0  0  0  0  0
   11.1280    4.5230   11.2790 N   0  0  0  0  0  0  0  0  0  0  0  0
   11.0590    4.0600    9.9160 C   0  0  0  0  0  0  0  0  0  0  0  0
   12.4790    3.4960    9.6720 C   0  0  0  0  0  0  0  0  0  0  0  0
   12.5110    2.2020   10.4400 C   0  0  2  0  0  0  0  0  0  0  0  0
   13.9180    1.8220   10.5490 N   0  0  0  0  0  0  0  0  0  0  0  0
   14.5660    1.7020    9.2960 C   0  0  0  0  0  0  0  0  0  0  0  0
   13.9920    0.5960    8.4310 C   0  0  0  0  0  0  0  0  0  0  0  0
   12.5400    0.4370    8.6350 C   0  0  0  0  0  0  0  0  0  0  0  0
   11.6780   -0.3830    8.0100 N   0  0  0  0  0  0  0  0  0  0  0  0
   10.4580   -0.1710    8.5490 C   0  0  0  0  0  0  0  0  0  0  0  0
   10.5800    0.7840    9.5060 N   0  0  0  0  0  0  0  0  0  0  0  0
   11.8650    1.1840    9.5810 C   0  0  0  0  0  0  0  0  0  0  0  0
   11.9390    2.2600   11.8120 C   0  0  0  0  0  0  0  0  0  0  0  0
   11.3190    3.5330   12.2780 C   0  0  0  0  0  0  0  0  0  0  0  0
    7.3490    8.2480   14.7870 H   0  0  0  0  0  0  0  0  0  0  0  0
    6.9850    5.2880   11.7410 H   0  0  0  0  0  0  0  0  0  0  0  0
    5.2840    6.7280   10.5890 H   0  0  0  0  0  0  0  0  0  0  0  0
    4.5990    8.9080   11.5320 H   0  0  0  0  0  0  0  0  0  0  0  0
   10.2930    5.3360   13.9840 H   0  0  0  0  0  0  0  0  0  0  0  0
    8.9310    6.3290   11.6180 H   0  0  0  0  0  0  0  0  0  0  0  0
   10.7080    8.3110   11.4950 H   0  0  0  0  0  0  0  0  0  0  0  0
    8.9850    8.4720   11.9280 H   0  0  0  0  0  0  0  0  0  0  0  0
   10.2690    8.4050   13.2230 H   0  0  0  0  0  0  0  0  0  0  0  0
   10.9180    4.8220    9.1350 H   0  0  0  0  0  0  0  0  0  0  0  0
   10.3910    3.2270    9.7270 H   0  0  0  0  0  0  0  0  0  0  0  0
   12.4820    3.2940    8.5840 H   0  0  0  0  0  0  0  0  0  0  0  0
   13.2550    4.2110    9.8980 H   0  0  0  0  0  0  0  0  0  0  0  0
   14.0530    0.9770   11.1610 H   0  0  0  0  0  0  0  0  0  0  0  0
   14.5940    2.6680    8.7810 H   0  0  0  0  0  0  0  0  0  0  0  0
   15.6240    1.4180    9.4770 H   0  0  0  0  0  0  0  0  0  0  0  0
   14.4760   -0.3890    8.6750 H   0  0  0  0  0  0  0  0  0  0  0  0
   14.2260    0.8550    7.3740 H   0  0  0  0  0  0  0  0  0  0  0  0
    9.5400   -0.6920    8.2530 H   0  0  0  0  0  0  0  0  0  0  0  0
    9.7350    1.0770   10.0360 H   0  0  0  0  0  0  0  0  0  0  0  0
   11.1650    1.4700   11.8960 H   0  0  0  0  0  0  0  0  0  0  0  0
   12.7190    1.9710   12.5800 H   0  0  0  0  0  0  0  0  0  0  0  0
   11.9000    3.9910   13.0910 H   0  0  0  0  0  0  0  0  0  0  0  0
   10.2930    3.3370   12.7250 H   0  0  0  0  0  0  0  0  0  0  0  0
  2  3  1  0  0  0  0
  2  1  1  0  0  0  0
  3 29  1  0  0  0  0
  4  3  2  0  0  0  0
  4  8  1  0  0  0  0
  5  4  1  0  0  0  0
  6  7  1  0  0  0  0
  6  5  2  0  0  0  0
  7  2  2  0  0  0  0
  8  9  2  0  0  0  0
 10 33  1  0  0  0  0
 10  8  1  0  0  0  0
 11 34  1  6  0  0  0
 11 12  1  0  0  0  0
 11 10  1  0  0  0  0
 12 37  1  0  0  0  0
 13 11  1  0  0  0  0
 14 13  2  0  0  0  0
 15 13  1  0  0  0  0
 15 28  1  0  0  0  0
 16 15  1  0  0  0  0
 17 41  1  0  0  0  0
 17 16  1  0  0  0  0
 17 18  1  0  0  0  0
 18 26  1  6  0  0  0
 18 19  1  0  0  0  0
 18 27  1  0  0  0  0
 19 42  1  0  0  0  0
 20 44  1  0  0  0  0
 20 19  1  0  0  0  0
 21 22  1  0  0  0  0
 21 45  1  0  0  0  0
 21 20  1  0  0  0  0
 22 26  2  0  0  0  0
 23 24  2  0  0  0  0
 23 22  1  0  0  0  0
 24 25  1  0  0  0  0
 25 26  1  0  0  0  0
 25 48  1  0  0  0  0
 27 49  1  0  0  0  0
 27 28  1  0  0  0  0
 27 50  1  0  0  0  0
 28 52  1  0  0  0  0
 28 51  1  0  0  0  0
 30  5  1  0  0  0  0
 31  6  1  0  0  0  0
 32  7  1  0  0  0  0
 35 12  1  0  0  0  0
 36 12  1  0  0  0  0
 38 16  1  0  0  0  0
 39 16  1  0  0  0  0
 40 17  1  0  0  0  0
 43 20  1  0  0  0  0
 46 21  1  0  0  0  0
 47 24  1  0  0  0  0
M  END
>  <Pose>
1

>  <Score>
-6.66

$$$$
