
 OpenBabel03172210413D

 35 38  0  0  1  0  0  0  0  0999 V2000
   11.2430    0.0330    9.0130 B   0  0  0  0  0  0  0  0  0  0  0  0
   11.6490    1.7200    9.7960 C   0  0  0  0  0  0  0  0  0  0  0  0
   10.7060    2.7160    9.7420 C   0  0  0  0  0  0  0  0  0  0  0  0
   10.9530    3.9670   10.3030 C   0  0  0  0  0  0  0  0  0  0  0  0
   12.1540    4.1740   10.9060 C   0  0  0  0  0  0  0  0  0  0  0  0
   13.0970    3.1710   10.9580 C   0  0  0  0  0  0  0  0  0  0  0  0
   12.8770    1.9300   10.4120 C   0  0  0  0  0  0  0  0  0  0  0  0
    9.9290    4.9890   10.2160 C   0  0  0  0  0  0  0  0  0  0  0  0
   10.1070    5.9120    9.4020 O   0  0  0  0  0  0  0  0  0  0  0  0
    8.7760    4.9390   11.0180 N   0  0  0  0  0  0  0  0  0  0  0  0
    8.5280    5.7440   12.1470 N   0  0  0  0  0  0  0  0  0  0  0  0
    9.4720    5.8090   13.2340 C   0  0  0  0  0  0  0  0  0  0  0  0
   10.5850    5.2040   13.3400 O   0  0  0  0  0  0  0  0  0  0  0  0
    8.9460    6.7100   14.2420 C   0  0  1  0  0  0  0  0  0  0  0  0
    7.8740    7.5660   13.5390 C   0  0  2  0  0  0  0  0  0  0  0  0
    6.7590    7.7110   14.5230 C   0  0  2  0  0  0  0  0  0  0  0  0
    7.4570    7.3540   15.8500 C   0  0  0  0  0  0  0  0  0  0  0  0
    8.0530    6.0480   15.2820 C   0  0  1  0  0  0  0  0  0  0  0  0
    6.8260    5.4910   14.6430 C   0  0  0  0  0  0  0  0  0  0  0  0
    5.9250    6.4580   14.4200 C   0  0  0  0  0  0  0  0  0  0  0  0
    7.4480    6.5740   12.4740 C   0  0  0  0  0  0  0  0  0  0  0  0
    6.2980    6.5280   11.9830 O   0  0  0  0  0  0  0  0  0  0  0  0
    9.7520    2.5250    9.2550 H   0  0  0  0  0  0  0  0  0  0  0  0
   12.3960    5.1140   11.3500 H   0  0  0  0  0  0  0  0  0  0  0  0
   14.0710    3.3240   11.4410 H   0  0  0  0  0  0  0  0  0  0  0  0
   13.5700    1.1190   10.4230 H   0  0  0  0  0  0  0  0  0  0  0  0
    8.0430    4.2210   10.7170 H   0  0  0  0  0  0  0  0  0  0  0  0
    9.6850    7.3190   14.7650 H   0  0  0  0  0  0  0  0  0  0  0  0
    8.2690    8.4810   13.1120 H   0  0  0  0  0  0  0  0  0  0  0  0
    6.2210    8.6250   14.5280 H   0  0  0  0  0  0  0  0  0  0  0  0
    6.7260    7.1310   16.6370 H   0  0  0  0  0  0  0  0  0  0  0  0
    8.2290    8.0700   16.1280 H   0  0  0  0  0  0  0  0  0  0  0  0
    8.5390    5.4450   16.0110 H   0  0  0  0  0  0  0  0  0  0  0  0
    6.6480    4.4450   14.3780 H   0  0  0  0  0  0  0  0  0  0  0  0
    4.8890    6.4570   14.2150 H   0  0  0  0  0  0  0  0  0  0  0  0
  1  2  1  0  0  0  0
  2  7  1  0  0  0  0
  3  2  2  0  0  0  0
  3  4  1  0  0  0  0
  4  5  2  0  0  0  0
  5  6  1  0  0  0  0
  5 24  1  0  0  0  0
  6 25  1  0  0  0  0
  7 26  1  0  0  0  0
  7  6  2  0  0  0  0
  8  4  1  0  0  0  0
  8 10  1  0  0  0  0
  9  8  2  0  0  0  0
 10 11  1  0  0  0  0
 11 21  1  0  0  0  0
 11 12  1  0  0  0  0
 12 13  2  0  0  0  0
 12 14  1  0  0  0  0
 14 28  1  1  0  0  0
 14 18  1  0  0  0  0
 15 29  1  6  0  0  0
 15 14  1  0  0  0  0
 15 16  1  0  0  0  0
 16 30  1  6  0  0  0
 16 17  1  0  0  0  0
 17 32  1  0  0  0  0
 17 31  1  0  0  0  0
 18 17  1  0  0  0  0
 18 33  1  1  0  0  0
 19 18  1  0  0  0  0
 20 16  1  0  0  0  0
 20 19  1  0  0  0  0
 21 15  1  0  0  0  0
 22 21  2  0  0  0  0
 23  3  1  0  0  0  0
 27 10  1  0  0  0  0
 34 19  1  0  0  0  0
 35 20  1  0  0  0  0
M  END
>  <Pose>
1

>  <Score>
-5.57

$$$$
