
 OpenBabel03172210413D

 44 47  0  0  0  0  0  0  0  0999 V2000
   18.4360    8.7420   11.2190 B   0  0  0  0  0  0  0  0  0  0  0  0
   17.5050    7.2340   11.9290 C   0  0  0  0  0  0  0  0  0  0  0  0
   17.2070    6.1800   11.0550 C   0  0  0  0  0  0  0  0  0  0  0  0
   16.5420    5.0260   11.4940 C   0  0  0  0  0  0  0  0  0  0  0  0
   16.1870    4.9780   12.8120 C   0  0  0  0  0  0  0  0  0  0  0  0
   16.4760    6.0250   13.7130 C   0  0  0  0  0  0  0  0  0  0  0  0
   17.1550    7.1740   13.2280 C   0  0  0  0  0  0  0  0  0  0  0  0
   16.5970    3.7970   10.6560 C   0  0  0  0  0  0  0  0  0  0  0  0
   15.4780    3.1110   10.4000 C   0  0  0  0  0  0  0  0  0  0  0  0
   14.2540    3.4060   10.8370 O   0  0  0  0  0  0  0  0  0  0  0  0
   13.3210    2.4660   10.3300 C   0  0  0  0  0  0  0  0  0  0  0  0
   13.9360    1.5460    9.5510 C   0  0  0  0  0  0  0  0  0  0  0  0
   13.1450    0.5940    8.9140 C   0  0  0  0  0  0  0  0  0  0  0  0
   11.7970    0.5810    9.0950 C   0  0  0  0  0  0  0  0  0  0  0  0
   11.2030    1.5140    9.9210 C   0  0  0  0  0  0  0  0  0  0  0  0
   11.9200    2.4870   10.5760 C   0  0  0  0  0  0  0  0  0  0  0  0
   11.5590    3.2060   11.7820 C   0  0  0  0  0  0  0  0  0  0  0  0
   11.6660    4.4140   12.3670 N   0  0  0  0  0  4  0  0  0  0  0  0
   12.3410    5.5360   11.8800 C   0  0  0  0  0  0  0  0  0  0  0  0
   11.4360    6.5330   11.1230 C   0  0  0  0  0  0  0  0  0  0  0  0
   10.4940    7.1330   11.9250 O   0  0  0  0  0  0  0  0  0  0  0  0
    9.9910    6.1980   12.8370 C   0  0  0  0  0  0  0  0  0  0  0  0
   10.1700    4.8360   12.4140 C   0  0  0  0  0  0  0  0  0  0  0  0
    9.8170    1.4550   10.0850 O   0  0  0  0  0  0  0  0  0  0  0  0
   15.3730    1.9090    9.5630 C   0  0  0  0  0  0  0  0  0  0  0  0
   16.2980    1.3110    8.9840 O   0  0  0  0  0  0  0  0  0  0  0  0
   17.5370    6.2770   10.0720 H   0  0  0  0  0  0  0  0  0  0  0  0
   15.6890    4.1460   13.2340 H   0  0  0  0  0  0  0  0  0  0  0  0
   16.2390    6.0440   14.7530 H   0  0  0  0  0  0  0  0  0  0  0  0
   17.3990    7.9670   13.8960 H   0  0  0  0  0  0  0  0  0  0  0  0
   17.5230    3.4290   10.2780 H   0  0  0  0  0  0  0  0  0  0  0  0
   13.6100   -0.1280    8.2950 H   0  0  0  0  0  0  0  0  0  0  0  0
   11.1620   -0.1710    8.5760 H   0  0  0  0  0  0  0  0  0  0  0  0
   10.2760    3.2440   11.5100 H   0  0  0  0  0  0  0  0  0  0  0  0
   11.3050    2.3440   12.5980 H   0  0  0  0  0  0  0  0  0  0  0  0
   11.9060    4.2860   13.4220 H   0  0  0  0  0  0  0  0  0  0  0  0
   13.2090    5.3270   11.2330 H   0  0  0  0  0  0  0  0  0  0  0  0
   12.7500    6.1840   12.7640 H   0  0  0  0  0  0  0  0  0  0  0  0
   11.0290    6.0270   10.2230 H   0  0  0  0  0  0  0  0  0  0  0  0
   12.1440    7.3550   10.8010 H   0  0  0  0  0  0  0  0  0  0  0  0
   10.3060    6.3400   13.8750 H   0  0  0  0  0  0  0  0  0  0  0  0
    8.8570    6.3610   12.8480 H   0  0  0  0  0  0  0  0  0  0  0  0
    9.8550    4.6220   11.3300 H   0  0  0  0  0  0  0  0  0  0  0  0
    9.7350    4.1090   13.0420 H   0  0  0  0  0  0  0  0  0  0  0  0
  1  2  1  0  0  0  0
  2  7  1  0  0  0  0
  3  4  1  0  0  0  0
  3  2  2  0  0  0  0
  4  5  2  0  0  0  0
  5 28  1  0  0  0  0
  5  6  1  0  0  0  0
  6 29  1  0  0  0  0
  7  6  2  0  0  0  0
  7 30  1  0  0  0  0
  8  4  1  0  0  0  0
  9  8  2  0  0  0  0
  9 10  1  0  0  0  0
 11 16  1  0  0  0  0
 11 10  1  0  0  0  0
 12 25  1  0  0  0  0
 12 11  2  0  0  0  0
 13 14  2  0  0  0  0
 13 12  1  0  0  0  0
 14 15  1  0  0  0  0
 15 24  1  0  0  0  0
 15 16  2  0  0  0  0
 16 17  1  0  0  0  0
 17 18  1  0  0  0  0
 17 35  1  0  0  0  0
 18 23  1  0  0  0  0
 18 36  1  0  0  0  0
 19 18  1  0  0  0  0
 19 38  1  0  0  0  0
 20 19  1  0  0  0  0
 20 21  1  0  0  0  0
 21 22  1  0  0  0  0
 22 42  1  0  0  0  0
 22 41  1  0  0  0  0
 23 22  1  0  0  0  0
 23 44  1  0  0  0  0
 25  9  1  0  0  0  0
 26 25  2  0  0  0  0
 27  3  1  0  0  0  0
 31  8  1  0  0  0  0
 32 13  1  0  0  0  0
 33 14  1  0  0  0  0
 34 17  1  0  0  0  0
 37 19  1  0  0  0  0
 39 20  1  0  0  0  0
 40 20  1  0  0  0  0
 43 23  1  0  0  0  0
M  END
>  <Pose>
1

>  <Score>
-6.12

$$$$
