
 OpenBabel03172210413D

 63 66  0  0  1  0  0  0  0  0999 V2000
   11.9640   12.0070   16.0120 B   0  0  0  0  0  0  0  0  0  0  0  0
   10.2750   11.2470   16.4680 C   0  0  0  0  0  0  0  0  0  0  0  0
    9.6700   10.3570   15.6070 C   0  0  0  0  0  0  0  0  0  0  0  0
    8.4420    9.7760   15.8930 C   0  0  0  0  0  0  0  0  0  0  0  0
    7.8670   10.1510   17.0990 C   0  0  0  0  0  0  0  0  0  0  0  0
    8.4650   11.0400   17.9670 C   0  0  0  0  0  0  0  0  0  0  0  0
    9.6840   11.6030   17.6600 C   0  0  0  0  0  0  0  0  0  0  0  0
    7.8010    8.8120   14.9660 C   0  0  2  0  0  0  0  0  0  0  0  0
    7.2780    7.7070   15.7460 N   0  0  0  0  0  0  0  0  0  0  0  0
    8.3940    6.8990   16.0880 C   0  0  0  0  0  0  0  0  0  0  0  0
    8.5030    6.1270   17.0660 O   0  0  0  0  0  0  0  0  0  0  0  0
    9.4280    7.1400   15.0570 C   0  0  0  0  0  0  0  0  0  0  0  0
   10.5630    6.6190   14.9840 O   0  0  0  0  0  0  0  0  0  0  0  0
    8.8450    8.1100   14.1400 C   0  0  0  0  0  0  0  0  0  0  0  0
    9.1580    8.2590   12.8900 C   0  0  0  0  0  0  0  0  0  0  0  0
    8.4410    9.2100   12.1350 O   0  0  0  0  0  0  0  0  0  0  0  0
   10.2000    7.5280   12.1820 C   0  0  0  0  0  0  0  0  0  0  0  0
   11.5420    7.6790   12.0810 C   0  0  0  0  0  0  0  0  0  0  0  0
   12.0240    6.6710   11.3250 N   0  0  0  0  0  0  0  0  0  0  0  0
   11.0420    5.8570   10.9190 C   0  0  0  0  0  0  0  0  0  0  0  0
    9.8860    6.3710   11.4420 C   0  0  0  0  0  0  0  0  0  0  0  0
    8.5210    5.7930   11.2540 C   0  0  0  0  0  0  0  0  0  0  0  0
   11.1770    4.6500   10.0780 C   0  0  0  0  0  0  0  0  0  0  0  0
   11.7250    4.7430    8.9690 O   0  0  0  0  0  0  0  0  0  0  0  0
   10.7010    3.4290   10.5150 O   0  0  0  0  0  0  0  0  0  0  0  0
   11.0440    2.1970    9.9230 C   0  0  0  0  0  0  0  0  0  0  0  0
   12.3910    8.7820   12.6450 C   0  0  0  0  0  0  0  0  0  0  0  0
    5.8810    7.4610   16.1130 C   0  0  0  0  0  0  0  0  0  0  0  0
    5.1710    6.6560   15.0460 C   0  0  0  0  0  0  0  0  0  0  0  0
    4.5240    7.4520   14.0540 N   0  0  0  0  0  4  0  0  0  0  0  0
    5.4450    8.1910   13.1980 C   0  0  0  0  0  0  0  0  0  0  0  0
    4.6880    8.5940   11.9620 C   0  0  0  0  0  0  0  0  0  0  0  0
    3.3450    8.6250   12.2400 O   0  0  0  0  0  0  0  0  0  0  0  0
    3.0250    9.2060   13.4540 C   0  0  0  0  0  0  0  0  0  0  0  0
    3.6460    8.4600   14.6340 C   0  0  0  0  0  0  0  0  0  0  0  0
   10.1360   10.0850   14.6660 H   0  0  0  0  0  0  0  0  0  0  0  0
    6.9030    9.7080   17.3440 H   0  0  0  0  0  0  0  0  0  0  0  0
    8.0010   11.3240   18.9090 H   0  0  0  0  0  0  0  0  0  0  0  0
   10.1690   12.3130   18.3460 H   0  0  0  0  0  0  0  0  0  0  0  0
    7.0390    9.2870   14.3230 H   0  0  0  0  0  0  0  0  0  0  0  0
   13.0510    6.5490   11.0860 H   0  0  0  0  0  0  0  0  0  0  0  0
    8.3230    5.5970   10.1800 H   0  0  0  0  0  0  0  0  0  0  0  0
    7.7710    6.5320   11.5810 H   0  0  0  0  0  0  0  0  0  0  0  0
    8.3900    4.8420   11.7900 H   0  0  0  0  0  0  0  0  0  0  0  0
   12.1210    2.1370    9.6500 H   0  0  0  0  0  0  0  0  0  0  0  0
   10.3890    1.9680    9.0400 H   0  0  0  0  0  0  0  0  0  0  0  0
   10.8210    1.4090   10.6890 H   0  0  0  0  0  0  0  0  0  0  0  0
   12.9860    8.4340   13.5060 H   0  0  0  0  0  0  0  0  0  0  0  0
   11.7630    9.6420   12.9180 H   0  0  0  0  0  0  0  0  0  0  0  0
   13.0800    9.0710   11.7890 H   0  0  0  0  0  0  0  0  0  0  0  0
    5.8160    6.9100   17.0740 H   0  0  0  0  0  0  0  0  0  0  0  0
    5.3300    8.4240   16.1900 H   0  0  0  0  0  0  0  0  0  0  0  0
    4.4380    5.9680   15.5630 H   0  0  0  0  0  0  0  0  0  0  0  0
    5.8730    5.9770   14.5310 H   0  0  0  0  0  0  0  0  0  0  0  0
    3.9110    6.8490   13.4770 H   0  0  0  0  0  0  0  0  0  0  0  0
    5.6860    9.1430   13.7530 H   0  0  0  0  0  0  0  0  0  0  0  0
    6.3880    7.6810   13.0160 H   0  0  0  0  0  0  0  0  0  0  0  0
    5.0080    9.5650   11.5450 H   0  0  0  0  0  0  0  0  0  0  0  0
    4.8440    7.8360   11.1490 H   0  0  0  0  0  0  0  0  0  0  0  0
    1.9090    9.0890   13.5640 H   0  0  0  0  0  0  0  0  0  0  0  0
    3.2410   10.2930   13.4960 H   0  0  0  0  0  0  0  0  0  0  0  0
    2.8920    8.0370   15.2990 H   0  0  0  0  0  0  0  0  0  0  0  0
    4.2810    9.2070   15.1770 H   0  0  0  0  0  0  0  0  0  0  0  0
  1  2  1  0  0  0  0
  2  7  1  0  0  0  0
  3  4  1  0  0  0  0
  3  2  2  0  0  0  0
  4  5  2  0  0  0  0
  5 37  1  0  0  0  0
  5  6  1  0  0  0  0
  6 38  1  0  0  0  0
  7  6  2  0  0  0  0
  7 39  1  0  0  0  0
  8 40  1  6  0  0  0
  8  9  1  0  0  0  0
  8  4  1  0  0  0  0
  9 10  1  0  0  0  0
  9 28  1  0  0  0  0
 10 11  2  0  0  0  0
 12 10  1  0  0  0  0
 13 12  2  0  0  0  0
 14  8  1  0  0  0  0
 14 12  1  0  0  0  0
 15 14  2  0  0  0  0
 16 15  1  0  0  0  0
 17 15  1  0  0  0  0
 18 17  2  0  0  0  0
 18 27  1  0  0  0  0
 19 18  1  0  0  0  0
 20 19  1  0  0  0  0
 20 21  2  0  0  0  0
 21 17  1  0  0  0  0
 22 21  1  0  0  0  0
 22 43  1  0  0  0  0
 22 44  1  0  0  0  0
 23 25  1  0  0  0  0
 23 20  1  0  0  0  0
 24 23  2  0  0  0  0
 26 25  1  0  0  0  0
 26 47  1  0  0  0  0
 27 49  1  0  0  0  0
 27 48  1  0  0  0  0
 28 52  1  0  0  0  0
 28 51  1  0  0  0  0
 29 53  1  0  0  0  0
 29 28  1  0  0  0  0
 30 35  1  0  0  0  0
 30 29  1  0  0  0  0
 31 56  1  0  0  0  0
 31 30  1  0  0  0  0
 32 33  1  0  0  0  0
 32 31  1  0  0  0  0
 33 34  1  0  0  0  0
 34 61  1  0  0  0  0
 34 60  1  0  0  0  0
 34 35  1  0  0  0  0
 35 63  1  0  0  0  0
 35 62  1  0  0  0  0
 36  3  1  0  0  0  0
 41 19  1  0  0  0  0
 42 22  1  0  0  0  0
 45 26  1  0  0  0  0
 46 26  1  0  0  0  0
 50 27  1  0  0  0  0
 54 29  1  0  0  0  0
 55 30  1  0  0  0  0
 57 31  1  0  0  0  0
 58 32  1  0  0  0  0
 59 32  1  0  0  0  0
M  END
>  <Pose>
1

>  <Score>
-6.58

$$$$
