
 OpenBabel03172210413D

 63 66  0  0  1  0  0  0  0  0999 V2000
   13.2130    9.2250   15.9990 B   0  0  0  0  0  0  0  0  0  0  0  0
   13.2580    7.8460   14.6850 C   0  0  0  0  0  0  0  0  0  0  0  0
   12.0790    7.2560   14.2430 C   0  0  0  0  0  0  0  0  0  0  0  0
   12.0950    6.2600   13.2930 C   0  0  0  0  0  0  0  0  0  0  0  0
   13.3060    5.8490   12.7820 C   0  0  0  0  0  0  0  0  0  0  0  0
   14.4790    6.4320   13.2180 C   0  0  0  0  0  0  0  0  0  0  0  0
   14.4740    7.4310   14.1680 C   0  0  0  0  0  0  0  0  0  0  0  0
   10.8580    5.6200   12.8100 C   0  0  1  0  0  0  0  0  0  0  0  0
    9.9730    6.5380   12.1200 N   0  0  0  0  0  0  0  0  0  0  0  0
   10.2320    6.5330   10.7330 C   0  0  0  0  0  0  0  0  0  0  0  0
    9.9330    7.3600    9.8330 O   0  0  0  0  0  0  0  0  0  0  0  0
   10.9850    5.2820   10.4690 C   0  0  0  0  0  0  0  0  0  0  0  0
   11.3810    4.9400    9.3370 O   0  0  0  0  0  0  0  0  0  0  0  0
   11.1380    4.6000   11.7420 C   0  0  0  0  0  0  0  0  0  0  0  0
   11.4130    3.3310   11.9040 C   0  0  0  0  0  0  0  0  0  0  0  0
   11.4590    2.8010   13.2050 O   0  0  0  0  0  0  0  0  0  0  0  0
   11.6790    2.4530   10.7960 C   0  0  0  0  0  0  0  0  0  0  0  0
   10.6030    1.6840   10.3280 C   0  0  0  0  0  0  0  0  0  0  0  0
   10.7740    0.7920    9.3060 C   0  0  0  0  0  0  0  0  0  0  0  0
   12.0060    0.6070    8.6910 C   0  0  0  0  0  0  0  0  0  0  0  0
   13.0350    1.3620    9.1610 C   0  0  0  0  0  0  0  0  0  0  0  0
   12.8800    2.2660   10.1920 C   0  0  0  0  0  0  0  0  0  0  0  0
   12.0960   -0.3120    7.6660 O   0  0  0  0  0  0  0  0  0  0  0  0
   13.2790   -1.0710    7.4690 C   0  0  0  0  0  0  0  0  0  0  0  0
    9.6150   -0.0210    8.8190 C   0  0  0  0  0  0  0  0  0  0  0  0
    8.9320    7.3680   12.7460 C   0  0  0  0  0  0  0  0  0  0  0  0
    8.7350    6.9460   14.1760 C   0  0  0  0  0  0  0  0  0  0  0  0
    7.7870    5.8130   14.3760 C   0  0  0  0  0  0  0  0  0  0  0  0
    6.8570    6.0180   15.4650 N   0  0  0  0  0  4  0  0  0  0  0  0
    7.3050    7.0610   16.3670 C   0  0  0  0  0  0  0  0  0  0  0  0
    6.3570    8.2300   16.3460 C   0  0  0  0  0  0  0  0  0  0  0  0
    5.0990    7.7680   16.7850 O   0  0  0  0  0  0  0  0  0  0  0  0
    4.5820    6.8340   15.8900 C   0  0  0  0  0  0  0  0  0  0  0  0
    5.5660    6.3680   14.8650 C   0  0  0  0  0  0  0  0  0  0  0  0
   11.1430    7.5800   14.6460 H   0  0  0  0  0  0  0  0  0  0  0  0
   13.3840    5.0690   12.0320 H   0  0  0  0  0  0  0  0  0  0  0  0
   15.4220    6.1010   12.8080 H   0  0  0  0  0  0  0  0  0  0  0  0
   15.3920    7.8850   14.5090 H   0  0  0  0  0  0  0  0  0  0  0  0
   10.2580    5.1810   13.6370 H   0  0  0  0  0  0  0  0  0  0  0  0
    9.6140    1.8060   10.7950 H   0  0  0  0  0  0  0  0  0  0  0  0
   14.0150    1.2470    8.7060 H   0  0  0  0  0  0  0  0  0  0  0  0
   13.7460    2.8360   10.5660 H   0  0  0  0  0  0  0  0  0  0  0  0
   13.1240   -1.9080    6.7790 H   0  0  0  0  0  0  0  0  0  0  0  0
   13.7020   -1.4440    8.4340 H   0  0  0  0  0  0  0  0  0  0  0  0
   14.0910   -0.4320    7.0240 H   0  0  0  0  0  0  0  0  0  0  0  0
    9.2470   -0.5760    9.7180 H   0  0  0  0  0  0  0  0  0  0  0  0
    9.9420   -0.7520    8.0840 H   0  0  0  0  0  0  0  0  0  0  0  0
    8.8070    0.6190    8.4000 H   0  0  0  0  0  0  0  0  0  0  0  0
    7.9860    7.2930   12.1810 H   0  0  0  0  0  0  0  0  0  0  0  0
    9.3150    8.4240   12.7620 H   0  0  0  0  0  0  0  0  0  0  0  0
    9.7080    6.6280   14.6410 H   0  0  0  0  0  0  0  0  0  0  0  0
    8.3450    7.8030   14.7900 H   0  0  0  0  0  0  0  0  0  0  0  0
    8.4110    4.8980   14.5510 H   0  0  0  0  0  0  0  0  0  0  0  0
    7.1820    5.5810   13.4770 H   0  0  0  0  0  0  0  0  0  0  0  0
    6.6720    5.1560   16.0190 H   0  0  0  0  0  0  0  0  0  0  0  0
    8.3080    7.4390   16.0800 H   0  0  0  0  0  0  0  0  0  0  0  0
    7.3090    6.6870   17.4320 H   0  0  0  0  0  0  0  0  0  0  0  0
    6.6630    9.0030   17.0530 H   0  0  0  0  0  0  0  0  0  0  0  0
    6.2650    8.6760   15.3340 H   0  0  0  0  0  0  0  0  0  0  0  0
    4.2060    5.9420   16.4340 H   0  0  0  0  0  0  0  0  0  0  0  0
    3.7360    7.3190   15.3410 H   0  0  0  0  0  0  0  0  0  0  0  0
    5.1710    5.3830   14.4780 H   0  0  0  0  0  0  0  0  0  0  0  0
    5.6840    7.0440   14.0010 H   0  0  0  0  0  0  0  0  0  0  0  0
  2  1  1  0  0  0  0
  3 35  1  0  0  0  0
  3  2  1  0  0  0  0
  4  3  2  0  0  0  0
  5  6  2  0  0  0  0
  5  4  1  0  0  0  0
  6  7  1  0  0  0  0
  7 38  1  0  0  0  0
  7  2  2  0  0  0  0
  8  4  1  0  0  0  0
  8 39  1  1  0  0  0
  9 26  1  0  0  0  0
  9  8  1  0  0  0  0
 10  9  1  0  0  0  0
 11 10  2  0  0  0  0
 12 10  1  0  0  0  0
 12 14  1  0  0  0  0
 13 12  2  0  0  0  0
 14 15  2  0  0  0  0
 14  8  1  0  0  0  0
 15 16  1  0  0  0  0
 17 15  1  0  0  0  0
 18 40  1  0  0  0  0
 18 17  1  0  0  0  0
 19 18  2  0  0  0  0
 20 21  2  0  0  0  0
 20 19  1  0  0  0  0
 21 22  1  0  0  0  0
 22 42  1  0  0  0  0
 22 17  2  0  0  0  0
 23 20  1  0  0  0  0
 24 23  1  0  0  0  0
 24 44  1  0  0  0  0
 25 19  1  0  0  0  0
 25 46  1  0  0  0  0
 26 50  1  0  0  0  0
 26 27  1  0  0  0  0
 27 28  1  0  0  0  0
 27 51  1  0  0  0  0
 27 52  1  0  0  0  0
 28 53  1  0  0  0  0
 28 29  1  0  0  0  0
 29 55  1  0  0  0  0
 29 30  1  0  0  0  0
 30 57  1  0  0  0  0
 31 30  1  0  0  0  0
 31 32  1  0  0  0  0
 31 58  1  0  0  0  0
 33 60  1  0  0  0  0
 33 32  1  0  0  0  0
 34 29  1  0  0  0  0
 34 33  1  0  0  0  0
 36  5  1  0  0  0  0
 37  6  1  0  0  0  0
 41 21  1  0  0  0  0
 43 24  1  0  0  0  0
 45 24  1  0  0  0  0
 47 25  1  0  0  0  0
 48 25  1  0  0  0  0
 49 26  1  0  0  0  0
 54 28  1  0  0  0  0
 56 30  1  0  0  0  0
 59 31  1  0  0  0  0
 61 33  1  0  0  0  0
 62 34  1  0  0  0  0
 63 34  1  0  0  0  0
M  END
>  <Pose>
1

>  <Score>
-6.39

$$$$
