
 OpenBabel03172210413D

 62 66  0  0  1  0  0  0  0  0999 V2000
   16.7680    9.1440   13.4930 B   0  0  0  0  0  0  0  0  0  0  0  0
   16.4460    7.4960   12.5700 C   0  0  0  0  0  0  0  0  0  0  0  0
   15.3000    6.7780   12.7920 C   0  0  0  0  0  0  0  0  0  0  0  0
   15.0140    5.5610   12.1420 C   0  0  0  0  0  0  0  0  0  0  0  0
   15.9980    5.1690   11.2630 C   0  0  0  0  0  0  0  0  0  0  0  0
   17.1580    5.8740   11.0240 C   0  0  0  0  0  0  0  0  0  0  0  0
   17.3930    7.0590   11.6840 C   0  0  0  0  0  0  0  0  0  0  0  0
   13.7830    4.8860   12.4280 C   0  0  2  0  0  0  0  0  0  0  0  0
   13.4180    3.7030   11.7310 N   0  0  0  0  0  0  0  0  0  0  0  0
   12.0730    3.4130   12.2390 C   0  0  0  0  0  0  0  0  0  0  0  0
   11.5410    2.2940   12.3090 O   0  0  0  0  0  0  0  0  0  0  0  0
   11.4980    4.7080   12.6390 C   0  0  0  0  0  0  0  0  0  0  0  0
   10.3650    4.9350   13.1210 O   0  0  0  0  0  0  0  0  0  0  0  0
   12.5330    5.6980   12.3510 C   0  0  0  0  0  0  0  0  0  0  0  0
   12.3540    6.9600   12.0580 C   0  0  0  0  0  0  0  0  0  0  0  0
   13.5060    7.7180   11.7520 O   0  0  0  0  0  0  0  0  0  0  0  0
   11.0440    7.5940   12.0460 C   0  0  0  0  0  0  0  0  0  0  0  0
   10.4970    8.5310   12.8340 N   0  0  0  0  0  0  0  0  0  0  0  0
    9.2380    8.7610   12.4500 C   0  0  0  0  0  0  0  0  0  0  0  0
    8.9850    7.9490   11.3900 N   0  0  0  0  0  0  0  0  0  0  0  0
   10.0700    7.2160   11.1090 C   0  0  0  0  0  0  0  0  0  0  0  0
   10.2140    6.2040   10.0250 C   0  0  0  0  0  0  0  0  0  0  0  0
    8.4380    9.7040   13.0910 C   0  0  0  0  0  0  0  0  0  0  0  0
    9.0020   10.3970   14.1440 C   0  0  0  0  0  0  0  0  0  0  0  0
   10.3080   10.1350   14.5150 C   0  0  0  0  0  0  0  0  0  0  0  0
   11.0770    9.1990   13.8680 C   0  0  0  0  0  0  0  0  0  0  0  0
    7.0470    9.9170   12.6230 C   0  0  0  0  0  0  0  0  0  0  0  0
   14.0850    2.8340   10.7770 C   0  0  0  0  0  0  0  0  0  0  0  0
   13.3370    1.5980   10.4130 C   0  0  0  0  0  0  0  0  0  0  0  0
   12.8390    1.6190    9.0520 N   0  0  0  0  0  4  0  0  0  0  0  0
   13.9120    1.4780    8.0930 C   0  0  0  0  0  0  0  0  0  0  0  0
   14.4270    0.0360    8.1050 C   0  0  0  0  0  0  0  0  0  0  0  0
   13.3690   -0.7480    7.6310 O   0  0  0  0  0  0  0  0  0  0  0  0
   12.4060   -0.7470    8.6610 C   0  0  0  0  0  0  0  0  0  0  0  0
   11.8030    0.6250    8.8490 C   0  0  0  0  0  0  0  0  0  0  0  0
   14.5830    7.1830   13.5140 H   0  0  0  0  0  0  0  0  0  0  0  0
   15.8600    4.2720   10.7170 H   0  0  0  0  0  0  0  0  0  0  0  0
   17.9080    5.5330   10.3270 H   0  0  0  0  0  0  0  0  0  0  0  0
   18.2800    7.6490   11.5360 H   0  0  0  0  0  0  0  0  0  0  0  0
   13.8090    4.5730   13.5290 H   0  0  0  0  0  0  0  0  0  0  0  0
    9.9480    5.2110   10.4400 H   0  0  0  0  0  0  0  0  0  0  0  0
   11.2670    6.1880    9.7220 H   0  0  0  0  0  0  0  0  0  0  0  0
    9.5420    6.4670    9.1690 H   0  0  0  0  0  0  0  0  0  0  0  0
    8.3990   11.1460   14.6690 H   0  0  0  0  0  0  0  0  0  0  0  0
   10.7570   10.6730   15.3380 H   0  0  0  0  0  0  0  0  0  0  0  0
   12.0950    8.9850   14.1460 H   0  0  0  0  0  0  0  0  0  0  0  0
    6.5210   10.5960   13.3260 H   0  0  0  0  0  0  0  0  0  0  0  0
    6.5130    8.9330   12.5960 H   0  0  0  0  0  0  0  0  0  0  0  0
    6.9880   10.3720   11.6300 H   0  0  0  0  0  0  0  0  0  0  0  0
   14.2270    3.4220    9.8420 H   0  0  0  0  0  0  0  0  0  0  0  0
   15.1270    2.6130   11.1280 H   0  0  0  0  0  0  0  0  0  0  0  0
   14.1090    0.7620   10.4590 H   0  0  0  0  0  0  0  0  0  0  0  0
   12.5330    1.2770   11.0500 H   0  0  0  0  0  0  0  0  0  0  0  0
   12.3960    2.5520    8.8680 H   0  0  0  0  0  0  0  0  0  0  0  0
   14.7520    2.1000    8.4580 H   0  0  0  0  0  0  0  0  0  0  0  0
   13.6430    1.8190    7.0940 H   0  0  0  0  0  0  0  0  0  0  0  0
   15.3370   -0.0540    7.5060 H   0  0  0  0  0  0  0  0  0  0  0  0
   14.5820   -0.2570    9.1560 H   0  0  0  0  0  0  0  0  0  0  0  0
   12.9640   -0.9820    9.6000 H   0  0  0  0  0  0  0  0  0  0  0  0
   11.6100   -1.4710    8.4810 H   0  0  0  0  0  0  0  0  0  0  0  0
   11.2060    0.5850    9.7840 H   0  0  0  0  0  0  0  0  0  0  0  0
   11.1080    0.9060    8.0350 H   0  0  0  0  0  0  0  0  0  0  0  0
  2  3  1  0  0  0  0
  2  1  1  0  0  0  0
  3 36  1  0  0  0  0
  4  8  1  0  0  0  0
  4  3  2  0  0  0  0
  5  4  1  0  0  0  0
  6  5  2  0  0  0  0
  6  7  1  0  0  0  0
  7  2  2  0  0  0  0
  8 40  1  1  0  0  0
  9 10  1  0  0  0  0
  9  8  1  0  0  0  0
 10 11  2  0  0  0  0
 10 12  1  0  0  0  0
 12 13  2  0  0  0  0
 14  8  1  0  0  0  0
 14 12  1  0  0  0  0
 15 14  2  0  0  0  0
 16 15  1  0  0  0  0
 17 15  1  0  0  0  0
 17 18  1  0  0  0  0
 18 26  1  0  0  0  0
 19 18  1  0  0  0  0
 19 23  1  0  0  0  0
 20 19  2  0  0  0  0
 21 20  1  0  0  0  0
 21 17  2  0  0  0  0
 22 41  1  0  0  0  0
 22 21  1  0  0  0  0
 23 24  2  0  0  0  0
 24 25  1  0  0  0  0
 24 44  1  0  0  0  0
 25 45  1  0  0  0  0
 26 46  1  0  0  0  0
 26 25  2  0  0  0  0
 27 23  1  0  0  0  0
 27 47  1  0  0  0  0
 28 51  1  0  0  0  0
 28  9  1  0  0  0  0
 29 52  1  0  0  0  0
 29 28  1  0  0  0  0
 29 53  1  0  0  0  0
 30 29  1  0  0  0  0
 31 32  1  0  0  0  0
 31 55  1  0  0  0  0
 31 30  1  0  0  0  0
 32 58  1  0  0  0  0
 33 32  1  0  0  0  0
 33 34  1  0  0  0  0
 34 35  1  0  0  0  0
 34 59  1  0  0  0  0
 35 30  1  0  0  0  0
 35 61  1  0  0  0  0
 37  5  1  0  0  0  0
 38  6  1  0  0  0  0
 39  7  1  0  0  0  0
 42 22  1  0  0  0  0
 43 22  1  0  0  0  0
 48 27  1  0  0  0  0
 49 27  1  0  0  0  0
 50 28  1  0  0  0  0
 54 30  1  0  0  0  0
 56 31  1  0  0  0  0
 57 32  1  0  0  0  0
 60 34  1  0  0  0  0
 62 35  1  0  0  0  0
M  END
>  <Pose>
1

>  <Score>
-5.48

$$$$
