
 OpenBabel03172210413D

 57 60  0  0  1  0  0  0  0  0999 V2000
    5.1040    8.3530   11.4860 B   0  0  0  0  0  0  0  0  0  0  0  0
    6.0470    7.6910   12.9960 C   0  0  0  0  0  0  0  0  0  0  0  0
    7.4340    7.8290   13.0510 C   0  0  0  0  0  0  0  0  0  0  0  0
    8.1330    7.3670   14.1150 C   0  0  0  0  0  0  0  0  0  0  0  0
    7.4230    6.7490   15.1510 C   0  0  0  0  0  0  0  0  0  0  0  0
    6.0670    6.6160   15.0940 C   0  0  0  0  0  0  0  0  0  0  0  0
    5.3380    7.0800   14.0210 C   0  0  0  0  0  0  0  0  0  0  0  0
    9.5890    7.4760   14.2590 C   0  0  2  0  0  0  0  0  0  0  0  0
   10.1080    8.8280   14.1860 N   0  0  0  0  0  0  0  0  0  0  0  0
   11.4970    8.6780   13.8630 C   0  0  0  0  0  0  0  0  0  0  0  0
   12.4230    9.4720   14.1060 O   0  0  0  0  0  0  0  0  0  0  0  0
   11.6380    7.3980   13.1800 C   0  0  0  0  0  0  0  0  0  0  0  0
   12.6650    6.8260   12.7070 O   0  0  0  0  0  0  0  0  0  0  0  0
   10.3030    6.8220   13.1180 C   0  0  0  0  0  0  0  0  0  0  0  0
    9.8940    5.9060   12.2630 C   0  0  0  0  0  0  0  0  0  0  0  0
    8.5790    5.4500   12.4330 O   0  0  0  0  0  0  0  0  0  0  0  0
   10.6910    5.3550   11.1770 C   0  0  0  0  0  0  0  0  0  0  0  0
   11.4260    4.2340   11.1890 N   0  0  0  0  0  0  0  0  0  0  0  0
   11.9980    4.0170    9.9770 C   0  0  0  0  0  0  0  0  0  0  0  0
   11.5860    5.0590    9.2030 N   0  0  0  0  0  0  0  0  0  0  0  0
   10.8050    5.8820    9.8810 C   0  0  0  0  0  0  0  0  0  0  0  0
   10.1230    7.1330    9.4840 C   0  0  0  0  0  0  0  0  0  0  0  0
   12.8210    2.9330    9.7150 C   0  0  0  0  0  0  0  0  0  0  0  0
   13.0890    2.0200   10.7130 C   0  0  0  0  0  0  0  0  0  0  0  0
   12.5010    2.2500   11.9520 C   0  0  0  0  0  0  0  0  0  0  0  0
   11.6980    3.3250   12.1730 C   0  0  0  0  0  0  0  0  0  0  0  0
    9.3970   10.0900   14.4050 C   0  0  0  0  0  0  0  0  0  0  0  0
    8.7650   10.1910   15.7440 C   0  0  0  0  0  0  0  0  0  0  0  0
    7.3870    9.6990   15.9120 C   0  0  0  0  0  0  0  0  0  0  0  0
    6.4200   10.6440   16.3480 N   0  0  0  0  0  4  0  0  0  0  0  0
    6.1080   10.4290   17.7410 C   0  0  0  0  0  0  0  0  0  0  0  0
    5.1580   10.4210   15.6170 C   0  0  0  0  0  0  0  0  0  0  0  0
    7.9140    8.3030   12.2280 H   0  0  0  0  0  0  0  0  0  0  0  0
    7.9700    6.3750   16.0050 H   0  0  0  0  0  0  0  0  0  0  0  0
    5.5050    6.1340   15.9020 H   0  0  0  0  0  0  0  0  0  0  0  0
    4.2450    6.9750   13.9700 H   0  0  0  0  0  0  0  0  0  0  0  0
    9.9520    7.0370   15.1870 H   0  0  0  0  0  0  0  0  0  0  0  0
   10.6180    7.4830    8.5490 H   0  0  0  0  0  0  0  0  0  0  0  0
   10.3090    7.9390   10.2330 H   0  0  0  0  0  0  0  0  0  0  0  0
    9.0470    7.0070    9.2850 H   0  0  0  0  0  0  0  0  0  0  0  0
   13.2510    2.8070    8.7320 H   0  0  0  0  0  0  0  0  0  0  0  0
   13.7220    1.1530   10.5740 H   0  0  0  0  0  0  0  0  0  0  0  0
   12.6990    1.5380   12.7620 H   0  0  0  0  0  0  0  0  0  0  0  0
   11.2310    3.5310   13.1460 H   0  0  0  0  0  0  0  0  0  0  0  0
   10.0570   10.9460   14.1490 H   0  0  0  0  0  0  0  0  0  0  0  0
    8.5770   10.1280   13.6610 H   0  0  0  0  0  0  0  0  0  0  0  0
    9.4170    9.7690   16.5520 H   0  0  0  0  0  0  0  0  0  0  0  0
    8.7470   11.2960   15.9950 H   0  0  0  0  0  0  0  0  0  0  0  0
    7.0510    9.3140   14.9100 H   0  0  0  0  0  0  0  0  0  0  0  0
    7.3820    8.7750   16.5620 H   0  0  0  0  0  0  0  0  0  0  0  0
    6.6580   11.6370   16.1350 H   0  0  0  0  0  0  0  0  0  0  0  0
    5.0430   10.1720   17.9200 H   0  0  0  0  0  0  0  0  0  0  0  0
    6.7110    9.5710   18.0960 H   0  0  0  0  0  0  0  0  0  0  0  0
    6.3860   11.2850   18.3830 H   0  0  0  0  0  0  0  0  0  0  0  0
    5.3030   10.6150   14.5300 H   0  0  0  0  0  0  0  0  0  0  0  0
    4.7950    9.3820   15.8150 H   0  0  0  0  0  0  0  0  0  0  0  0
    4.3720   11.1220   15.9520 H   0  0  0  0  0  0  0  0  0  0  0  0
  1  2  1  0  0  0  0
  2  3  2  0  0  0  0
  2  7  1  0  0  0  0
  3  4  1  0  0  0  0
  4  8  1  0  0  0  0
  4  5  2  0  0  0  0
  5 34  1  0  0  0  0
  6  5  1  0  0  0  0
  6 35  1  0  0  0  0
  7  6  2  0  0  0  0
  8 37  1  1  0  0  0
  9  8  1  0  0  0  0
  9 27  1  0  0  0  0
 10 11  2  0  0  0  0
 10  9  1  0  0  0  0
 12 10  1  0  0  0  0
 13 12  2  0  0  0  0
 14 12  1  0  0  0  0
 14  8  1  0  0  0  0
 15 16  1  0  0  0  0
 15 14  2  0  0  0  0
 17 18  1  0  0  0  0
 17 15  1  0  0  0  0
 18 26  1  0  0  0  0
 19 18  1  0  0  0  0
 20 21  1  0  0  0  0
 20 19  2  0  0  0  0
 21 17  2  0  0  0  0
 22 21  1  0  0  0  0
 22 39  1  0  0  0  0
 23 19  1  0  0  0  0
 23 24  2  0  0  0  0
 24 25  1  0  0  0  0
 25 26  2  0  0  0  0
 25 43  1  0  0  0  0
 26 44  1  0  0  0  0
 27 28  1  0  0  0  0
 28 29  1  0  0  0  0
 28 48  1  0  0  0  0
 28 47  1  0  0  0  0
 29 30  1  0  0  0  0
 29 50  1  0  0  0  0
 30 31  1  0  0  0  0
 31 52  1  0  0  0  0
 31 53  1  0  0  0  0
 31 54  1  0  0  0  0
 32 56  1  0  0  0  0
 32 57  1  0  0  0  0
 32 30  1  0  0  0  0
 33  3  1  0  0  0  0
 36  7  1  0  0  0  0
 38 22  1  0  0  0  0
 40 22  1  0  0  0  0
 41 23  1  0  0  0  0
 42 24  1  0  0  0  0
 45 27  1  0  0  0  0
 46 27  1  0  0  0  0
 49 29  1  0  0  0  0
 51 30  1  0  0  0  0
 55 32  1  0  0  0  0
M  END
>  <Pose>
1

>  <Score>
-5.54

$$$$
