
 OpenBabel03172210413D

 58 61  0  0  1  0  0  0  0  0999 V2000
    6.5050    6.3030   15.3400 B   0  0  0  0  0  0  0  0  0  0  0  0
    7.4660    6.2650   13.6720 C   0  0  0  0  0  0  0  0  0  0  0  0
    8.8190    6.0850   13.6590 C   0  0  0  0  0  0  0  0  0  0  0  0
    9.5760    6.0480   12.4860 C   0  0  0  0  0  0  0  0  0  0  0  0
    8.8600    6.2100   11.3210 C   0  0  0  0  0  0  0  0  0  0  0  0
    7.4800    6.3950   11.3220 C   0  0  0  0  0  0  0  0  0  0  0  0
    6.7890    6.4220   12.4990 C   0  0  0  0  0  0  0  0  0  0  0  0
   11.0470    5.8440   12.5210 C   0  0  2  0  0  0  0  0  0  0  0  0
   11.7970    6.9760   12.0160 N   0  0  0  0  0  0  0  0  0  0  0  0
   11.8390    6.8070   10.5820 C   0  0  0  0  0  0  0  0  0  0  0  0
   12.0280    7.7240    9.7460 O   0  0  0  0  0  0  0  0  0  0  0  0
   11.6210    5.3810   10.3200 C   0  0  0  0  0  0  0  0  0  0  0  0
   11.5790    4.7870    9.2120 O   0  0  0  0  0  0  0  0  0  0  0  0
   11.4510    4.7130   11.6050 C   0  0  0  0  0  0  0  0  0  0  0  0
   11.6030    3.4280   11.8760 C   0  0  0  0  0  0  0  0  0  0  0  0
   11.3770    2.9790   13.1520 O   0  0  0  0  0  0  0  0  0  0  0  0
   12.0130    2.4670   10.8340 C   0  0  0  0  0  0  0  0  0  0  0  0
   11.2410    1.5680   10.2860 O   0  0  0  0  0  0  0  0  0  0  0  0
   11.8380    0.8460    9.3980 C   0  0  0  0  0  0  0  0  0  0  0  0
   13.1360    1.2910    9.3310 C   0  0  0  0  0  0  0  0  0  0  0  0
   13.2450    2.3200   10.2440 C   0  0  0  0  0  0  0  0  0  0  0  0
   13.9920    0.6740    8.4460 C   0  0  0  0  0  0  0  0  0  0  0  0
   13.5770   -0.3660    7.6390 C   0  0  0  0  0  0  0  0  0  0  0  0
   12.2470   -0.7860    7.7390 C   0  0  0  0  0  0  0  0  0  0  0  0
   11.3650   -0.1950    8.6090 C   0  0  0  0  0  0  0  0  0  0  0  0
   10.0690   -0.6360    8.6750 O   0  0  0  0  0  0  0  0  0  0  0  0
    9.3690   -1.3240    7.6880 C   0  0  0  0  0  0  0  0  0  0  0  0
   12.3760    8.0730   12.7520 C   0  0  0  0  0  0  0  0  0  0  0  0
   13.7840    7.7600   13.1970 C   0  0  0  0  0  0  0  0  0  0  0  0
   14.7660    7.5660   12.0990 C   0  0  0  0  0  0  0  0  0  0  0  0
   15.7860    8.5640   12.0140 N   0  0  0  0  0  4  0  0  0  0  0  0
   16.8440    8.1470   11.0890 C   0  0  0  0  0  0  0  0  0  0  0  0
   16.3610    8.8810   13.2850 C   0  0  0  0  0  0  0  0  0  0  0  0
    9.3780    5.9570   14.5760 H   0  0  0  0  0  0  0  0  0  0  0  0
    9.3250    6.1990   10.3710 H   0  0  0  0  0  0  0  0  0  0  0  0
    6.9160    6.5230   10.4070 H   0  0  0  0  0  0  0  0  0  0  0  0
    5.7110    6.5650   12.5600 H   0  0  0  0  0  0  0  0  0  0  0  0
   11.2990    5.6290   13.5790 H   0  0  0  0  0  0  0  0  0  0  0  0
   14.1260    2.8990   10.4550 H   0  0  0  0  0  0  0  0  0  0  0  0
   15.0100    1.0300    8.4010 H   0  0  0  0  0  0  0  0  0  0  0  0
   14.2640   -0.8370    6.9510 H   0  0  0  0  0  0  0  0  0  0  0  0
   11.9720   -1.6160    7.0730 H   0  0  0  0  0  0  0  0  0  0  0  0
    9.6190   -1.0290    6.6510 H   0  0  0  0  0  0  0  0  0  0  0  0
    8.2620   -1.2730    7.8240 H   0  0  0  0  0  0  0  0  0  0  0  0
    9.6420   -2.4010    7.7640 H   0  0  0  0  0  0  0  0  0  0  0  0
   12.3940    8.9790   12.1130 H   0  0  0  0  0  0  0  0  0  0  0  0
   11.7640    8.2180   13.6670 H   0  0  0  0  0  0  0  0  0  0  0  0
   14.1550    8.5950   13.8690 H   0  0  0  0  0  0  0  0  0  0  0  0
   13.7590    6.8760   13.8980 H   0  0  0  0  0  0  0  0  0  0  0  0
   14.1800    7.5130   11.1480 H   0  0  0  0  0  0  0  0  0  0  0  0
   15.2540    6.5670   12.2310 H   0  0  0  0  0  0  0  0  0  0  0  0
   15.4280    9.4720   11.6000 H   0  0  0  0  0  0  0  0  0  0  0  0
   17.4090    9.0470   10.7880 H   0  0  0  0  0  0  0  0  0  0  0  0
   17.4780    7.3530   11.5140 H   0  0  0  0  0  0  0  0  0  0  0  0
   16.3740    7.6930   10.1730 H   0  0  0  0  0  0  0  0  0  0  0  0
   15.5740    9.2840   13.9530 H   0  0  0  0  0  0  0  0  0  0  0  0
   16.8090    7.9870   13.7640 H   0  0  0  0  0  0  0  0  0  0  0  0
   17.1790    9.6320   13.1260 H   0  0  0  0  0  0  0  0  0  0  0  0
  2  1  1  0  0  0  0
  3  2  1  0  0  0  0
  3 34  1  0  0  0  0
  4  8  1  0  0  0  0
  4  3  2  0  0  0  0
  5  6  2  0  0  0  0
  5  4  1  0  0  0  0
  6  7  1  0  0  0  0
  7 37  1  0  0  0  0
  7  2  2  0  0  0  0
  8 38  1  1  0  0  0
  9  8  1  0  0  0  0
  9 28  1  0  0  0  0
 10  9  1  0  0  0  0
 11 10  2  0  0  0  0
 12 10  1  0  0  0  0
 12 14  1  0  0  0  0
 13 12  2  0  0  0  0
 14 15  2  0  0  0  0
 14  8  1  0  0  0  0
 15 16  1  0  0  0  0
 17 15  1  0  0  0  0
 18 17  1  0  0  0  0
 19 18  1  0  0  0  0
 20 19  1  0  0  0  0
 20 21  1  0  0  0  0
 21 39  1  0  0  0  0
 21 17  2  0  0  0  0
 22 20  2  0  0  0  0
 23 24  2  0  0  0  0
 23 22  1  0  0  0  0
 24 25  1  0  0  0  0
 25 26  1  0  0  0  0
 25 19  2  0  0  0  0
 27 45  1  0  0  0  0
 27 44  1  0  0  0  0
 27 26  1  0  0  0  0
 28 29  1  0  0  0  0
 28 47  1  0  0  0  0
 29 48  1  0  0  0  0
 29 49  1  0  0  0  0
 30 51  1  0  0  0  0
 30 29  1  0  0  0  0
 31 30  1  0  0  0  0
 31 33  1  0  0  0  0
 32 54  1  0  0  0  0
 32 31  1  0  0  0  0
 33 57  1  0  0  0  0
 33 56  1  0  0  0  0
 35  5  1  0  0  0  0
 36  6  1  0  0  0  0
 40 22  1  0  0  0  0
 41 23  1  0  0  0  0
 42 24  1  0  0  0  0
 43 27  1  0  0  0  0
 46 28  1  0  0  0  0
 50 30  1  0  0  0  0
 52 31  1  0  0  0  0
 53 32  1  0  0  0  0
 55 32  1  0  0  0  0
 58 33  1  0  0  0  0
M  END
>  <Pose>
1

>  <Score>
-7.51

$$$$
