
 OpenBabel03172210413D

 38 41  0  0  1  0  0  0  0  0999 V2000
    6.3060    6.3790   11.4630 B   0  0  0  0  0  0  0  0  0  0  0  0
    8.0170    6.8140   12.1800 C   0  0  0  0  0  0  0  0  0  0  0  0
    8.9170    5.8370   12.5350 C   0  0  0  0  0  0  0  0  0  0  0  0
   10.1840    6.1240   13.0650 C   0  0  0  0  0  0  0  0  0  0  0  0
   10.4890    7.4480   13.2140 C   0  0  0  0  0  0  0  0  0  0  0  0
    9.5680    8.4330   12.8500 C   0  0  0  0  0  0  0  0  0  0  0  0
    8.3470    8.1270   12.3390 C   0  0  0  0  0  0  0  0  0  0  0  0
   11.0430    5.0600   13.4020 N   0  0  0  0  0  0  0  0  0  0  0  0
   11.2930    3.9340   12.6020 C   0  0  0  0  0  0  0  0  0  0  0  0
   11.8640    2.8970   12.9690 O   0  0  0  0  0  0  0  0  0  0  0  0
   10.8470    3.9430   11.1650 C   0  0  2  0  0  0  0  0  0  0  0  0
   11.0130    2.6190   10.4660 C   0  0  0  0  0  0  0  0  0  0  0  0
   12.3030    3.0450    9.9040 N   0  0  2  0  0  0  0  0  0  0  0  0
   11.8910    4.4060   10.1920 C   0  0  0  0  0  0  0  0  0  0  0  0
   13.4100    2.3490    9.3430 C   0  0  1  0  0  0  0  0  0  0  0  0
   14.6800    2.8200    9.4340 N   0  0  0  0  0  0  0  0  0  0  0  0
   15.7260    2.1320    8.8880 C   0  0  0  0  0  0  0  0  0  0  0  0
   15.5340    0.9750    8.2470 N   0  0  0  0  0  0  0  0  0  0  0  0
   14.3120    0.4540    8.1210 C   0  0  0  0  0  0  0  0  0  0  0  0
   13.8640   -0.6730    7.5330 N   0  0  0  0  0  0  0  0  0  0  0  0
   12.5600   -0.6900    7.7080 N   0  0  0  0  0  0  0  0  0  0  0  0
   12.1650    0.3910    8.3900 N   0  0  0  0  0  0  0  0  0  0  0  0
   13.2570    1.1510    8.6730 C   0  0  0  0  0  0  0  0  0  0  0  0
   14.6400   -1.6940    6.8330 C   0  0  0  0  0  0  0  0  0  0  0  0
    8.6310    4.8010   12.3980 H   0  0  0  0  0  0  0  0  0  0  0  0
   11.4540    7.7610   13.6190 H   0  0  0  0  0  0  0  0  0  0  0  0
    9.8670    9.4810   12.9920 H   0  0  0  0  0  0  0  0  0  0  0  0
    7.6470    8.9140   12.0620 H   0  0  0  0  0  0  0  0  0  0  0  0
   11.5430    5.1360   14.3620 H   0  0  0  0  0  0  0  0  0  0  0  0
    9.8270    4.3390   11.0260 H   0  0  0  0  0  0  0  0  0  0  0  0
   11.2070    1.7460   11.1240 H   0  0  0  0  0  0  0  0  0  0  0  0
   10.3140    2.4160    9.6500 H   0  0  0  0  0  0  0  0  0  0  0  0
   12.6710    5.0330   10.6740 H   0  0  0  0  0  0  0  0  0  0  0  0
   11.5010    4.8790    9.2790 H   0  0  0  0  0  0  0  0  0  0  0  0
   16.7070    2.5670    8.9990 H   0  0  0  0  0  0  0  0  0  0  0  0
   14.1640   -2.6850    6.9080 H   0  0  0  0  0  0  0  0  0  0  0  0
   15.6550   -1.8130    7.3120 H   0  0  0  0  0  0  0  0  0  0  0  0
   14.8270   -1.4350    5.7900 H   0  0  0  0  0  0  0  0  0  0  0  0
  1  2  1  0  0  0  0
  2  7  2  0  0  0  0
  2  3  1  0  0  0  0
  3  4  2  0  0  0  0
  4  5  1  0  0  0  0
  4  8  1  0  0  0  0
  5 26  1  0  0  0  0
  6 27  1  0  0  0  0
  6  5  2  0  0  0  0
  7  6  1  0  0  0  0
  8 29  1  0  0  0  0
  9 10  2  0  0  0  0
  9  8  1  0  0  0  0
 11 30  1  6  0  0  0
 11  9  1  0  0  0  0
 12 31  1  0  0  0  0
 12 11  1  0  0  0  0
 13 14  1  6  0  0  0
 13 12  1  0  0  0  0
 14 33  1  0  0  0  0
 14 11  1  0  0  0  0
 15 23  1  1  0  0  0
 15 16  1  0  0  0  0
 15 13  1  0  0  0  0
 17 35  1  0  0  0  0
 17 16  2  0  0  0  0
 18 17  1  0  0  0  0
 19 18  1  0  0  0  0
 19 23  2  0  0  0  0
 20 21  1  0  0  0  0
 20 19  1  0  0  0  0
 21 22  2  0  0  0  0
 22 23  1  0  0  0  0
 24 36  1  0  0  0  0
 24 37  1  0  0  0  0
 24 20  1  0  0  0  0
 25  3  1  0  0  0  0
 28  7  1  0  0  0  0
 32 12  1  0  0  0  0
 34 14  1  0  0  0  0
 38 24  1  0  0  0  0
M  END
>  <Pose>
1

>  <Score>
-6.59

$$$$
