
 OpenBabel03172210413D

 25 28  0  0  1  0  0  0  0  0999 V2000
    9.0820    6.1830   13.4380 B   0  0  0  0  0  0  0  0  0  0  0  0
   10.1530    5.5500   11.9940 C   0  0  0  0  0  0  0  0  0  0  0  0
   10.9090    4.3940   12.1000 C   0  0  0  0  0  0  0  0  0  0  0  0
   11.7000    3.8790   11.1090 C   0  0  0  0  0  0  0  0  0  0  0  0
   11.6970    4.6340    9.9170 C   0  0  0  0  0  0  0  0  0  0  0  0
   10.9600    5.7840    9.7760 C   0  0  0  0  0  0  0  0  0  0  0  0
   10.1830    6.2480   10.8150 C   0  0  0  0  0  0  0  0  0  0  0  0
   12.4830    2.7080   11.1750 N   0  0  0  0  0  0  0  0  0  0  0  0
   12.5530    1.7270   10.1580 C   0  0  1  0  0  0  0  0  0  0  0  0
   11.5710    0.9370    9.7360 N   0  0  0  0  0  0  0  0  0  0  0  0
   11.6810    0.0160    8.7640 C   0  0  0  0  0  0  0  0  0  0  0  0
   10.8690   -0.8790    8.1740 N   0  0  0  0  0  0  0  0  0  0  0  0
   11.4930   -1.5480    7.2570 O   0  0  0  0  0  0  0  0  0  0  0  0
   12.7050   -1.1200    7.2220 N   0  0  0  0  0  0  0  0  0  0  0  0
   12.9040   -0.1480    8.1270 C   0  0  0  0  0  0  0  0  0  0  0  0
   13.9250    0.6290    8.5180 N   0  0  0  0  0  0  0  0  0  0  0  0
   15.1760    0.6590    8.0660 N   0  0  0  0  0  0  0  0  0  0  0  0
   15.8260    1.6010    8.7660 N   0  0  0  0  0  0  0  0  0  0  0  0
   14.9670    2.1340    9.6370 N   0  0  0  0  0  0  0  0  0  0  0  0
   13.7800    1.5390    9.4940 C   0  0  0  0  0  0  0  0  0  0  0  0
   10.8440    3.8940   13.0410 H   0  0  0  0  0  0  0  0  0  0  0  0
   12.2910    4.3010    9.0880 H   0  0  0  0  0  0  0  0  0  0  0  0
   10.9690    6.3550    8.8510 H   0  0  0  0  0  0  0  0  0  0  0  0
    9.6040    7.1490   10.7100 H   0  0  0  0  0  0  0  0  0  0  0  0
   13.0490    2.5820   12.0630 H   0  0  0  0  0  0  0  0  0  0  0  0
  2  3  1  0  0  0  0
  2  1  1  0  0  0  0
  3 21  1  0  0  0  0
  4  8  1  0  0  0  0
  4  3  2  0  0  0  0
  5  4  1  0  0  0  0
  6  5  2  0  0  0  0
  6  7  1  0  0  0  0
  7  2  2  0  0  0  0
  8 25  1  0  0  0  0
  9  8  1  6  0  0  0
 10  9  1  0  0  0  0
 11 10  2  0  0  0  0
 12 11  1  0  0  0  0
 13 12  1  0  0  0  0
 14 13  1  0  0  0  0
 14 15  2  0  0  0  0
 15 16  1  0  0  0  0
 15 11  1  0  0  0  0
 16 20  1  0  0  0  0
 17 16  1  0  0  0  0
 17 18  2  0  0  0  0
 18 19  1  0  0  0  0
 20 19  2  0  0  0  0
 20  9  1  0  0  0  0
 22  5  1  0  0  0  0
 23  6  1  0  0  0  0
 24  7  1  0  0  0  0
M  END
>  <Pose>
1

>  <Score>
-6.47

$$$$
