
 OpenBabel03172210413D

 52 55  0  0  1  0  0  0  0  0999 V2000
    4.0640    9.2790   15.0140 B   0  0  0  0  0  0  0  0  0  0  0  0
    4.7380    8.6130   13.3800 C   0  0  0  0  0  0  0  0  0  0  0  0
    6.0610    8.1920   13.3120 C   0  0  0  0  0  0  0  0  0  0  0  0
    6.6250    7.6940   12.1520 C   0  0  0  0  0  0  0  0  0  0  0  0
    5.7920    7.6360   11.0570 C   0  0  0  0  0  0  0  0  0  0  0  0
    4.4720    8.0360   11.0530 C   0  0  0  0  0  0  0  0  0  0  0  0
    3.9520    8.5270   12.2310 C   0  0  0  0  0  0  0  0  0  0  0  0
    7.9750    7.2750   12.1500 N   0  0  0  0  0  0  0  0  0  0  0  0
    8.4350    5.9610   11.7240 C   0  0  0  0  0  0  0  0  0  0  0  0
    9.5910    6.4540   10.8280 C   0  0  1  0  0  0  0  0  0  0  0  0
   10.3470    7.2350   11.9090 C   0  0  0  0  0  0  0  0  0  0  0  0
    9.1810    7.9370   12.5150 C   0  0  0  0  0  0  0  0  0  0  0  0
    9.2500    8.9570   13.2390 O   0  0  0  0  0  0  0  0  0  0  0  0
   10.3480    5.3590   10.2530 C   0  0  0  0  0  0  0  0  0  0  0  0
   10.7340    5.4640    9.0620 O   0  0  0  0  0  0  0  0  0  0  0  0
   10.6340    4.2170   11.0300 N   0  0  0  0  0  0  0  0  0  0  0  0
   10.9560    4.2740   12.4490 C   0  0  0  0  0  0  0  0  0  0  0  0
   11.8420    3.0860   12.7990 C   0  0  0  0  0  0  0  0  0  0  0  0
   12.6250    2.6170   11.6720 N   0  0  0  0  0  0  0  0  0  0  0  0
   11.7560    2.0380   10.7090 C   0  0  0  0  0  0  0  0  0  0  0  0
   10.6030    2.9130   10.3540 C   0  0  0  0  0  0  0  0  0  0  0  0
   13.5520    3.5890   11.2130 C   0  0  0  0  0  0  0  0  0  0  0  0
   14.9500    3.0600   11.0150 C   0  0  0  0  0  0  0  0  0  0  0  0
   15.1000    2.2220    9.8600 N   0  0  0  0  0  0  0  0  0  0  0  0
   15.8580    2.4230    8.7800 C   0  0  0  0  0  0  0  0  0  0  0  0
   15.7030    1.3920    7.9220 N   0  0  0  0  0  0  0  0  0  0  0  0
   14.8380    0.5250    8.4620 C   0  0  0  0  0  0  0  0  0  0  0  0
   14.4670    1.0550    9.6760 C   0  0  0  0  0  0  0  0  0  0  0  0
    6.6850    8.2500   14.1870 H   0  0  0  0  0  0  0  0  0  0  0  0
    6.1970    7.2540   10.1330 H   0  0  0  0  0  0  0  0  0  0  0  0
    3.8300    7.9840   10.1850 H   0  0  0  0  0  0  0  0  0  0  0  0
    2.9170    8.8550   12.2850 H   0  0  0  0  0  0  0  0  0  0  0  0
    7.6840    5.4230   11.1190 H   0  0  0  0  0  0  0  0  0  0  0  0
    8.8170    5.4040   12.5860 H   0  0  0  0  0  0  0  0  0  0  0  0
    9.1280    7.1570   10.1340 H   0  0  0  0  0  0  0  0  0  0  0  0
   10.8390    6.5320   12.6050 H   0  0  0  0  0  0  0  0  0  0  0  0
   11.0650    7.9390   11.4560 H   0  0  0  0  0  0  0  0  0  0  0  0
    9.9940    4.2290   12.9970 H   0  0  0  0  0  0  0  0  0  0  0  0
   11.4830    5.1730   12.7610 H   0  0  0  0  0  0  0  0  0  0  0  0
   11.1960    2.2750   13.1350 H   0  0  0  0  0  0  0  0  0  0  0  0
   12.5360    3.3210   13.6360 H   0  0  0  0  0  0  0  0  0  0  0  0
   12.3300    1.7560    9.7930 H   0  0  0  0  0  0  0  0  0  0  0  0
   11.3790    1.0760   11.1580 H   0  0  0  0  0  0  0  0  0  0  0  0
   10.5700    3.0500    9.2520 H   0  0  0  0  0  0  0  0  0  0  0  0
    9.6480    2.3930   10.6640 H   0  0  0  0  0  0  0  0  0  0  0  0
   13.2570    4.0350   10.2300 H   0  0  0  0  0  0  0  0  0  0  0  0
   13.6080    4.4570   11.9350 H   0  0  0  0  0  0  0  0  0  0  0  0
   15.6780    3.9130   11.0140 H   0  0  0  0  0  0  0  0  0  0  0  0
   15.2020    2.4900   11.9560 H   0  0  0  0  0  0  0  0  0  0  0  0
   16.5050    3.2550    8.5820 H   0  0  0  0  0  0  0  0  0  0  0  0
   14.5100   -0.4130    8.0010 H   0  0  0  0  0  0  0  0  0  0  0  0
   13.7600    0.5520   10.3390 H   0  0  0  0  0  0  0  0  0  0  0  0
  2  1  1  0  0  0  0
  3  2  1  0  0  0  0
  3 29  1  0  0  0  0
  4  3  2  0  0  0  0
  5  4  1  0  0  0  0
  6  5  2  0  0  0  0
  6  7  1  0  0  0  0
  7 32  1  0  0  0  0
  7  2  2  0  0  0  0
  8  4  1  0  0  0  0
  8 12  1  0  0  0  0
  9  8  1  0  0  0  0
  9 34  1  0  0  0  0
 10 35  1  6  0  0  0
 10  9  1  0  0  0  0
 10 11  1  0  0  0  0
 11 12  1  0  0  0  0
 11 36  1  0  0  0  0
 12 13  2  0  0  0  0
 14 10  1  0  0  0  0
 14 16  1  0  0  0  0
 15 14  2  0  0  0  0
 16 17  1  0  0  0  0
 17 39  1  0  0  0  0
 17 18  1  0  0  0  0
 17 38  1  0  0  0  0
 18 40  1  0  0  0  0
 18 41  1  0  0  0  0
 19 18  1  0  0  0  0
 20 43  1  0  0  0  0
 20 19  1  0  0  0  0
 21 45  1  0  0  0  0
 21 20  1  0  0  0  0
 21 16  1  0  0  0  0
 22 19  1  0  0  0  0
 22 47  1  0  0  0  0
 23 22  1  0  0  0  0
 23 49  1  0  0  0  0
 24 23  1  0  0  0  0
 25 24  1  0  0  0  0
 26 27  1  0  0  0  0
 26 25  2  0  0  0  0
 27 28  2  0  0  0  0
 28 24  1  0  0  0  0
 28 52  1  0  0  0  0
 30  5  1  0  0  0  0
 31  6  1  0  0  0  0
 33  9  1  0  0  0  0
 37 11  1  0  0  0  0
 42 20  1  0  0  0  0
 44 21  1  0  0  0  0
 46 22  1  0  0  0  0
 48 23  1  0  0  0  0
 50 25  1  0  0  0  0
 51 27  1  0  0  0  0
M  END
>  <Pose>
1

>  <Score>
-7.26

$$$$
