
 OpenBabel03172210413D

 48 51  0  0  1  0  0  0  0  0999 V2000
   14.7830    1.0420    9.6130 B   0  0  0  0  0  0  0  0  0  0  0  0
   13.3060    2.2240    9.7910 C   0  0  0  0  0  0  0  0  0  0  0  0
   12.0050    1.8590    9.5110 C   0  0  0  0  0  0  0  0  0  0  0  0
   10.9550    2.7430    9.6500 C   0  0  0  0  0  0  0  0  0  0  0  0
   11.1490    4.0400   10.0760 C   0  0  0  0  0  0  0  0  0  0  0  0
   12.4460    4.4050   10.3550 C   0  0  0  0  0  0  0  0  0  0  0  0
   13.5000    3.5330   10.2190 C   0  0  0  0  0  0  0  0  0  0  0  0
   10.0300    4.9810   10.2240 C   0  0  0  0  0  0  0  0  0  0  0  0
    9.6430    5.5560    9.1510 O   0  0  0  0  0  0  0  0  0  0  0  0
    9.4070    5.2530   11.4450 N   0  0  0  0  0  0  0  0  0  0  0  0
    9.7650    6.4150   12.2170 C   0  0  2  0  0  0  0  0  0  0  0  0
    9.8130    6.1300   13.6980 C   0  0  0  0  0  0  0  0  0  0  0  0
    8.4910    6.4800   14.1720 N   0  0  0  0  0  0  0  0  0  0  0  0
    7.8280    7.3380   13.2050 C   0  0  1  0  0  0  0  0  0  0  0  0
    8.7030    7.4580   12.0060 C   0  0  0  0  0  0  0  0  0  0  0  0
    6.5210    6.7030   12.9220 C   0  0  0  0  0  0  0  0  0  0  0  0
    6.1590    6.5460   11.7350 O   0  0  0  0  0  0  0  0  0  0  0  0
    5.7260    6.2940   14.0200 N   0  0  0  0  0  0  0  0  0  0  0  0
    6.2420    6.0990   15.3550 C   0  0  1  0  0  0  0  0  0  0  0  0
    7.7310    6.1760   15.3340 C   0  0  0  0  0  0  0  0  0  0  0  0
    8.3920    5.9580   16.4120 O   0  0  0  0  0  0  0  0  0  0  0  0
    5.6280    7.0770   16.3280 C   0  0  0  0  0  0  0  0  0  0  0  0
    4.9270    8.1840   15.6180 C   0  0  0  0  0  0  0  0  0  0  0  0
    5.6510    9.2400   15.0620 C   0  0  0  0  0  0  0  0  0  0  0  0
    4.9500   10.2350   14.4170 C   0  0  0  0  0  0  0  0  0  0  0  0
    3.5710   10.2310   14.2970 C   0  0  0  0  0  0  0  0  0  0  0  0
    2.9020    9.1690   14.8600 C   0  0  0  0  0  0  0  0  0  0  0  0
    3.5480    8.1460   15.5180 C   0  0  0  0  0  0  0  0  0  0  0  0
   11.8600    0.8280    9.1730 H   0  0  0  0  0  0  0  0  0  0  0  0
    9.9820    2.3850    9.4160 H   0  0  0  0  0  0  0  0  0  0  0  0
   12.6470    5.4070   10.6910 H   0  0  0  0  0  0  0  0  0  0  0  0
   14.5310    3.8310   10.4430 H   0  0  0  0  0  0  0  0  0  0  0  0
    8.6770    4.6210   11.8150 H   0  0  0  0  0  0  0  0  0  0  0  0
   10.7680    6.7460   11.9200 H   0  0  0  0  0  0  0  0  0  0  0  0
   10.0600    5.0720   13.8240 H   0  0  0  0  0  0  0  0  0  0  0  0
   10.5530    6.7290   14.2420 H   0  0  0  0  0  0  0  0  0  0  0  0
    7.6940    8.3440   13.6550 H   0  0  0  0  0  0  0  0  0  0  0  0
    8.1500    7.3400   11.0660 H   0  0  0  0  0  0  0  0  0  0  0  0
    9.1970    8.4490   11.9890 H   0  0  0  0  0  0  0  0  0  0  0  0
    4.7050    6.1300   13.8170 H   0  0  0  0  0  0  0  0  0  0  0  0
    5.9980    5.0590   15.6550 H   0  0  0  0  0  0  0  0  0  0  0  0
    6.3890    7.4970   17.0110 H   0  0  0  0  0  0  0  0  0  0  0  0
    4.8570    6.5190   16.8940 H   0  0  0  0  0  0  0  0  0  0  0  0
    6.7240    9.2290   15.1640 H   0  0  0  0  0  0  0  0  0  0  0  0
    5.5030   11.0740   13.9720 H   0  0  0  0  0  0  0  0  0  0  0  0
    3.0730   11.0400   13.7770 H   0  0  0  0  0  0  0  0  0  0  0  0
    1.8100    9.1530   14.7720 H   0  0  0  0  0  0  0  0  0  0  0  0
    3.0160    7.3180   15.9570 H   0  0  0  0  0  0  0  0  0  0  0  0
  1  2  1  0  0  0  0
  2  7  1  0  0  0  0
  3  4  1  0  0  0  0
  3  2  2  0  0  0  0
  4  5  2  0  0  0  0
  5  8  1  0  0  0  0
  5  6  1  0  0  0  0
  6 31  1  0  0  0  0
  7  6  2  0  0  0  0
  7 32  1  0  0  0  0
  8 10  1  0  0  0  0
  9  8  2  0  0  0  0
 10 33  1  0  0  0  0
 10 11  1  0  0  0  0
 11 34  1  6  0  0  0
 11 12  1  0  0  0  0
 12 35  1  0  0  0  0
 12 13  1  0  0  0  0
 12 36  1  0  0  0  0
 13 20  1  0  0  0  0
 14 37  1  1  0  0  0
 14 13  1  0  0  0  0
 15 11  1  0  0  0  0
 15 14  1  0  0  0  0
 16 14  1  0  0  0  0
 16 18  1  0  0  0  0
 17 16  2  0  0  0  0
 18 19  1  0  0  0  0
 19 41  1  1  0  0  0
 19 22  1  0  0  0  0
 20 19  1  0  0  0  0
 20 21  2  0  0  0  0
 22 43  1  0  0  0  0
 22 42  1  0  0  0  0
 23 22  1  0  0  0  0
 24 44  1  0  0  0  0
 24 23  2  0  0  0  0
 25 24  1  0  0  0  0
 26 25  2  0  0  0  0
 26 27  1  0  0  0  0
 27 28  2  0  0  0  0
 28 23  1  0  0  0  0
 28 48  1  0  0  0  0
 29  3  1  0  0  0  0
 30  4  1  0  0  0  0
 38 15  1  0  0  0  0
 39 15  1  0  0  0  0
 40 18  1  0  0  0  0
 45 25  1  0  0  0  0
 46 26  1  0  0  0  0
 47 27  1  0  0  0  0
M  END
>  <Pose>
1

>  <Score>
-7.10

$$$$
