
 OpenBabel03172210413D

 55 58  0  0  1  0  0  0  0  0999 V2000
   13.7980    1.1090    9.7950 B   0  0  0  0  0  0  0  0  0  0  0  0
   12.5970    2.4920   10.3820 C   0  0  0  0  0  0  0  0  0  0  0  0
   12.3080    3.5060    9.4980 C   0  0  0  0  0  0  0  0  0  0  0  0
   11.4580    4.5000    9.8910 C   0  0  0  0  0  0  0  0  0  0  0  0
   10.8890    4.4910   11.1640 C   0  0  0  0  0  0  0  0  0  0  0  0
   11.1810    3.4870   12.0260 C   0  0  0  0  0  0  0  0  0  0  0  0
   12.0380    2.4770   11.6420 C   0  0  0  0  0  0  0  0  0  0  0  0
   10.0410    5.6280   11.4820 C   0  0  0  0  0  0  0  0  0  0  0  0
   10.5530    6.7710   11.8550 C   0  0  0  0  0  0  0  0  0  0  0  0
    9.8070    8.0310   12.2090 C   0  0  2  0  0  0  0  0  0  0  0  0
   10.6310    8.6340   13.1990 N   0  0  0  0  0  0  0  0  0  0  0  0
   11.9950    8.2390   12.9150 C   0  0  0  0  0  0  0  0  0  0  0  0
   13.0480    8.7930   13.3120 O   0  0  0  0  0  0  0  0  0  0  0  0
   11.9550    7.0550   12.0630 C   0  0  0  0  0  0  0  0  0  0  0  0
   12.9770    6.4310   11.6190 O   0  0  0  0  0  0  0  0  0  0  0  0
   10.3680    9.5320   14.3080 C   0  0  0  0  0  0  0  0  0  0  0  0
    9.0240   10.1860   14.3020 C   0  0  0  0  0  0  0  0  0  0  0  0
    8.3370   10.0750   15.5790 N   0  0  0  0  0  4  0  0  0  0  0  0
    6.9160   10.4100   15.4340 C   0  0  0  0  0  0  0  0  0  0  0  0
    6.2960   10.0970   16.8030 C   0  0  0  0  0  0  0  0  0  0  0  0
    6.8590   10.8380   17.8130 O   0  0  0  0  0  0  0  0  0  0  0  0
    8.2430   10.7650   17.8680 C   0  0  0  0  0  0  0  0  0  0  0  0
    8.8790   11.0190   16.5230 C   0  0  0  0  0  0  0  0  0  0  0  0
    8.4180    7.7500   12.5510 C   0  0  0  0  0  0  0  0  0  0  0  0
    7.9890    6.9930   13.6080 C   0  0  0  0  0  0  0  0  0  0  0  0
    6.6590    6.7830   13.8680 C   0  0  0  0  0  0  0  0  0  0  0  0
    5.7160    7.3440   13.0500 C   0  0  0  0  0  0  0  0  0  0  0  0
    6.0910    8.1230   11.9600 C   0  0  0  0  0  0  0  0  0  0  0  0
    7.4290    8.3130   11.7290 C   0  0  0  0  0  0  0  0  0  0  0  0
    6.2890    5.9930   14.9740 N   0  0  0  0  0  0  0  0  0  0  0  0
    7.1060    5.2470   15.5720 O   0  0  0  0  0  0  0  0  0  0  0  0
    4.9840    6.0450   15.4100 O   0  0  0  0  0  0  0  0  0  0  0  0
    8.6350    5.5250   11.3970 O   0  0  0  0  0  0  0  0  0  0  0  0
   12.7350    3.5480    8.4900 H   0  0  0  0  0  0  0  0  0  0  0  0
   11.2200    5.3190    9.1870 H   0  0  0  0  0  0  0  0  0  0  0  0
   10.7570    3.4940   13.0410 H   0  0  0  0  0  0  0  0  0  0  0  0
   12.2720    1.6690   12.3390 H   0  0  0  0  0  0  0  0  0  0  0  0
    9.8620    8.6870   11.3010 H   0  0  0  0  0  0  0  0  0  0  0  0
   11.1300   10.3420   14.2490 H   0  0  0  0  0  0  0  0  0  0  0  0
   10.4930    9.0180   15.2840 H   0  0  0  0  0  0  0  0  0  0  0  0
    8.3450    9.9320   13.5020 H   0  0  0  0  0  0  0  0  0  0  0  0
    9.2540   11.2990   14.1370 H   0  0  0  0  0  0  0  0  0  0  0  0
    8.3600    9.1390   15.9910 H   0  0  0  0  0  0  0  0  0  0  0  0
    6.4090    9.7450   14.7090 H   0  0  0  0  0  0  0  0  0  0  0  0
    6.7500   11.4750   15.2550 H   0  0  0  0  0  0  0  0  0  0  0  0
    5.2180   10.2600   16.8020 H   0  0  0  0  0  0  0  0  0  0  0  0
    6.4760    8.9980   16.9580 H   0  0  0  0  0  0  0  0  0  0  0  0
    8.5670   11.6200   18.5300 H   0  0  0  0  0  0  0  0  0  0  0  0
    8.6250    9.8400   18.3190 H   0  0  0  0  0  0  0  0  0  0  0  0
    9.9650   10.8380   16.6040 H   0  0  0  0  0  0  0  0  0  0  0  0
    8.6720   12.0630   16.1940 H   0  0  0  0  0  0  0  0  0  0  0  0
    8.7230    6.5440   14.2490 H   0  0  0  0  0  0  0  0  0  0  0  0
    4.6520    7.2180   13.2010 H   0  0  0  0  0  0  0  0  0  0  0  0
    5.3360    8.5700   11.3080 H   0  0  0  0  0  0  0  0  0  0  0  0
    7.7230    8.9290   10.8660 H   0  0  0  0  0  0  0  0  0  0  0  0
  1  2  1  0  0  0  0
  2  7  1  0  0  0  0
  3  4  1  0  0  0  0
  3  2  2  0  0  0  0
  4  5  2  0  0  0  0
  5  8  1  0  0  0  0
  5  6  1  0  0  0  0
  6 36  1  0  0  0  0
  7  6  2  0  0  0  0
  7 37  1  0  0  0  0
  8  9  2  0  0  0  0
  9 14  1  0  0  0  0
  9 10  1  0  0  0  0
 10 38  1  6  0  0  0
 10 24  1  0  0  0  0
 10 11  1  0  0  0  0
 11 16  1  0  0  0  0
 12 11  1  0  0  0  0
 12 13  2  0  0  0  0
 14 12  1  0  0  0  0
 15 14  2  0  0  0  0
 16 40  1  0  0  0  0
 17 16  1  0  0  0  0
 17 18  1  0  0  0  0
 18 43  1  0  0  0  0
 18 23  1  0  0  0  0
 19 18  1  0  0  0  0
 19 20  1  0  0  0  0
 20 47  1  0  0  0  0
 20 21  1  0  0  0  0
 21 22  1  0  0  0  0
 22 49  1  0  0  0  0
 22 48  1  0  0  0  0
 23 50  1  0  0  0  0
 23 22  1  0  0  0  0
 24 25  1  0  0  0  0
 25 26  2  0  0  0  0
 25 52  1  0  0  0  0
 26 30  1  0  0  0  0
 27 53  1  0  0  0  0
 27 26  1  0  0  0  0
 28 27  2  0  0  0  0
 29 28  1  0  0  0  0
 29 24  2  0  0  0  0
 30 32  2  0  0  0  0
 30 31  2  0  0  0  0
 33  8  1  0  0  0  0
 34  3  1  0  0  0  0
 35  4  1  0  0  0  0
 39 16  1  0  0  0  0
 41 17  1  0  0  0  0
 42 17  1  0  0  0  0
 44 19  1  0  0  0  0
 45 19  1  0  0  0  0
 46 20  1  0  0  0  0
 51 23  1  0  0  0  0
 54 28  1  0  0  0  0
 55 29  1  0  0  0  0
M  END
>  <Pose>
1

>  <Score>
-6.40

$$$$
