
 OpenBabel03172210413D

 59 62  0  0  1  0  0  0  0  0999 V2000
   11.2410    5.7870    9.4230 B   0  0  0  0  0  0  0  0  0  0  0  0
   10.0940    5.8900   10.9510 C   0  0  0  0  0  0  0  0  0  0  0  0
   10.6080    6.2940   12.1650 C   0  0  0  0  0  0  0  0  0  0  0  0
    9.7970    6.3770   13.2760 C   0  0  0  0  0  0  0  0  0  0  0  0
    8.4320    6.0640   13.2460 C   0  0  0  0  0  0  0  0  0  0  0  0
    7.9370    5.6630   12.0280 C   0  0  0  0  0  0  0  0  0  0  0  0
    8.7570    5.5770   10.8950 C   0  0  0  0  0  0  0  0  0  0  0  0
    7.6360    6.1360   14.4630 C   0  0  0  0  0  0  0  0  0  0  0  0
    6.5020    6.7940   14.5580 C   0  0  0  0  0  0  0  0  0  0  0  0
    5.6390    6.8950   15.7900 C   0  0  2  0  0  0  0  0  0  0  0  0
    4.4840    7.6280   15.4030 N   0  0  0  0  0  0  0  0  0  0  0  0
    4.6080    8.1210   14.0530 C   0  0  0  0  0  0  0  0  0  0  0  0
    3.8290    8.8460   13.4180 O   0  0  0  0  0  0  0  0  0  0  0  0
    5.8860    7.5930   13.5230 C   0  0  0  0  0  0  0  0  0  0  0  0
    6.3400    7.8220   12.3560 O   0  0  0  0  0  0  0  0  0  0  0  0
    3.3070    7.9030   16.1830 C   0  0  0  0  0  0  0  0  0  0  0  0
    3.4100    9.0710   17.1020 C   0  0  0  0  0  0  0  0  0  0  0  0
    3.3310    8.7640   18.4980 N   0  0  0  0  0  4  0  0  0  0  0  0
    2.7380    9.8140   19.3010 C   0  0  0  0  0  0  0  0  0  0  0  0
    2.5520    9.2580   20.6970 C   0  0  0  0  0  0  0  0  0  0  0  0
    3.8560    9.0770   21.2150 O   0  0  0  0  0  0  0  0  0  0  0  0
    4.4120    8.0250   20.4820 C   0  0  0  0  0  0  0  0  0  0  0  0
    4.6710    8.5330   19.0730 C   0  0  0  0  0  0  0  0  0  0  0  0
    6.4730    7.6590   16.7680 C   0  0  0  0  0  0  0  0  0  0  0  0
    6.6930    8.9790   16.5320 C   0  0  0  0  0  0  0  0  0  0  0  0
    7.4590    9.7310   17.3990 C   0  0  0  0  0  0  0  0  0  0  0  0
    8.0060    9.1460   18.5090 C   0  0  0  0  0  0  0  0  0  0  0  0
    7.7820    7.8150   18.7450 C   0  0  0  0  0  0  0  0  0  0  0  0
    7.0140    7.0550   17.8790 C   0  0  0  0  0  0  0  0  0  0  0  0
    8.8240    9.9330   19.4350 C   0  0  0  0  0  0  0  0  0  0  0  0
   10.0780    9.8940   19.3380 O   0  0  0  0  0  0  0  0  0  0  0  0
    8.2920   10.7200   20.4190 O   0  0  0  0  0  0  0  0  0  0  0  0
    7.0930   11.4450   20.2590 C   0  0  0  0  0  0  0  0  0  0  0  0
    8.0630    5.4790   15.6400 O   0  0  0  0  0  0  0  0  0  0  0  0
   11.6740    6.5440   12.2120 H   0  0  0  0  0  0  0  0  0  0  0  0
   10.2170    6.6920   14.2120 H   0  0  0  0  0  0  0  0  0  0  0  0
    6.8820    5.3810   11.9460 H   0  0  0  0  0  0  0  0  0  0  0  0
    8.3400    5.2590    9.9510 H   0  0  0  0  0  0  0  0  0  0  0  0
    5.4750    5.8580   16.1150 H   0  0  0  0  0  0  0  0  0  0  0  0
    2.4010    8.0360   15.5230 H   0  0  0  0  0  0  0  0  0  0  0  0
    3.0390    7.0160   16.8260 H   0  0  0  0  0  0  0  0  0  0  0  0
    2.5240    9.7370   16.8810 H   0  0  0  0  0  0  0  0  0  0  0  0
    4.2880    9.7150   16.8960 H   0  0  0  0  0  0  0  0  0  0  0  0
    2.8410    7.8460   18.6730 H   0  0  0  0  0  0  0  0  0  0  0  0
    1.7920   10.2100   18.8820 H   0  0  0  0  0  0  0  0  0  0  0  0
    3.4820   10.6450   19.3900 H   0  0  0  0  0  0  0  0  0  0  0  0
    2.0150    9.9960   21.3320 H   0  0  0  0  0  0  0  0  0  0  0  0
    2.0190    8.2670   20.6640 H   0  0  0  0  0  0  0  0  0  0  0  0
    3.6090    7.2430   20.3800 H   0  0  0  0  0  0  0  0  0  0  0  0
    5.3330    7.6360   20.9540 H   0  0  0  0  0  0  0  0  0  0  0  0
    5.1800    9.5300   19.0820 H   0  0  0  0  0  0  0  0  0  0  0  0
    5.2430    7.7990   18.4700 H   0  0  0  0  0  0  0  0  0  0  0  0
    6.2860    9.4740   15.6780 H   0  0  0  0  0  0  0  0  0  0  0  0
    7.6250   10.7650   17.2010 H   0  0  0  0  0  0  0  0  0  0  0  0
    8.2320    7.3710   19.6430 H   0  0  0  0  0  0  0  0  0  0  0  0
    6.8420    6.0220   18.0640 H   0  0  0  0  0  0  0  0  0  0  0  0
    7.2530   12.5040   20.0480 H   0  0  0  0  0  0  0  0  0  0  0  0
    6.4690   11.0040   19.4420 H   0  0  0  0  0  0  0  0  0  0  0  0
    6.4770   11.3830   21.1990 H   0  0  0  0  0  0  0  0  0  0  0  0
  1  2  1  0  0  0  0
  2  3  1  0  0  0  0
  3 35  1  0  0  0  0
  3  4  2  0  0  0  0
  4 36  1  0  0  0  0
  5  4  1  0  0  0  0
  5  8  1  0  0  0  0
  6  5  2  0  0  0  0
  7  2  2  0  0  0  0
  7  6  1  0  0  0  0
  8  9  2  0  0  0  0
  8 34  1  0  0  0  0
  9 10  1  0  0  0  0
 10 39  1  1  0  0  0
 10 24  1  0  0  0  0
 11 10  1  0  0  0  0
 11 16  1  0  0  0  0
 12 11  1  0  0  0  0
 13 12  2  0  0  0  0
 14 12  1  0  0  0  0
 14  9  1  0  0  0  0
 15 14  2  0  0  0  0
 16 41  1  0  0  0  0
 16 17  1  0  0  0  0
 17 18  1  0  0  0  0
 18 44  1  0  0  0  0
 18 23  1  0  0  0  0
 18 19  1  0  0  0  0
 19 46  1  0  0  0  0
 19 20  1  0  0  0  0
 20 21  1  0  0  0  0
 20 47  1  0  0  0  0
 22 50  1  0  0  0  0
 22 21  1  0  0  0  0
 23 51  1  0  0  0  0
 23 22  1  0  0  0  0
 24 29  1  0  0  0  0
 25 24  2  0  0  0  0
 25 26  1  0  0  0  0
 26 27  2  0  0  0  0
 27 28  1  0  0  0  0
 27 30  1  0  0  0  0
 28 55  1  0  0  0  0
 29 56  1  0  0  0  0
 29 28  2  0  0  0  0
 30 32  1  0  0  0  0
 31 30  2  0  0  0  0
 33 32  1  0  0  0  0
 33 59  1  0  0  0  0
 37  6  1  0  0  0  0
 38  7  1  0  0  0  0
 40 16  1  0  0  0  0
 42 17  1  0  0  0  0
 43 17  1  0  0  0  0
 45 19  1  0  0  0  0
 48 20  1  0  0  0  0
 49 22  1  0  0  0  0
 52 23  1  0  0  0  0
 53 25  1  0  0  0  0
 54 26  1  0  0  0  0
 57 33  1  0  0  0  0
 58 33  1  0  0  0  0
M  END
>  <Pose>
1

>  <Score>
-5.39

$$$$
