
 OpenBabel03172210413D

 53 56  0  0  1  0  0  0  0  0999 V2000
   12.6400   -0.7390    7.7730 B   0  0  0  0  0  0  0  0  0  0  0  0
   12.3110    0.6650    9.0370 C   0  0  0  0  0  0  0  0  0  0  0  0
   13.3380    1.2370    9.7510 C   0  0  0  0  0  0  0  0  0  0  0  0
   13.0910    2.2510   10.6640 C   0  0  0  0  0  0  0  0  0  0  0  0
   11.8190    2.7260   10.8930 C   0  0  0  0  0  0  0  0  0  0  0  0
   10.7940    2.1530   10.1770 C   0  0  0  0  0  0  0  0  0  0  0  0
   11.0360    1.1300    9.2550 C   0  0  0  0  0  0  0  0  0  0  0  0
   11.5700    3.8100   11.8290 C   0  0  0  0  0  0  0  0  0  0  0  0
   11.6080    5.0930   11.5250 C   0  0  0  0  0  0  0  0  0  0  0  0
   11.3790    6.2880   12.3860 C   0  0  1  0  0  0  0  0  0  0  0  0
   12.3040    7.2830   11.8170 N   0  0  0  0  0  0  0  0  0  0  0  0
   12.3000    7.0280   10.4260 C   0  0  0  0  0  0  0  0  0  0  0  0
   12.6170    7.8490    9.5560 O   0  0  0  0  0  0  0  0  0  0  0  0
   11.8640    5.6540   10.2010 C   0  0  0  0  0  0  0  0  0  0  0  0
   11.7110    5.0110    9.1320 O   0  0  0  0  0  0  0  0  0  0  0  0
   12.9810    8.2410   12.6130 C   0  0  0  0  0  0  0  0  0  0  0  0
   14.4080    8.0310   12.9160 C   0  0  0  0  0  0  0  0  0  0  0  0
   15.3440    8.6330   12.0170 N   0  0  0  0  0  4  0  0  0  0  0  0
   15.7600    7.8300   10.9210 C   0  0  0  0  0  0  0  0  0  0  0  0
   17.1770    7.3600   11.1680 C   0  0  0  0  0  0  0  0  0  0  0  0
   17.3930    7.0080   12.4970 O   0  0  0  0  0  0  0  0  0  0  0  0
   17.3360    8.0950   13.3490 C   0  0  0  0  0  0  0  0  0  0  0  0
   16.5070    9.1730   12.6870 C   0  0  0  0  0  0  0  0  0  0  0  0
    9.9900    6.7500   12.4160 C   0  0  0  0  0  0  0  0  0  0  0  0
    9.6070    7.9200   11.7500 C   0  0  0  0  0  0  0  0  0  0  0  0
    8.3340    8.4020   11.7390 C   0  0  0  0  0  0  0  0  0  0  0  0
    7.3360    7.7230   12.4130 C   0  0  0  0  0  0  0  0  0  0  0  0
    7.6790    6.5770   13.0720 C   0  0  0  0  0  0  0  0  0  0  0  0
    8.9870    6.0840   13.0830 C   0  0  0  0  0  0  0  0  0  0  0  0
   11.2650    3.4690   13.1610 O   0  0  0  0  0  0  0  0  0  0  0  0
   14.3400    0.8770    9.5840 H   0  0  0  0  0  0  0  0  0  0  0  0
   13.8880    2.7140   11.2370 H   0  0  0  0  0  0  0  0  0  0  0  0
    9.7580    2.4500   10.2540 H   0  0  0  0  0  0  0  0  0  0  0  0
   10.2210    0.6830    8.6940 H   0  0  0  0  0  0  0  0  0  0  0  0
   11.6770    6.0360   13.4250 H   0  0  0  0  0  0  0  0  0  0  0  0
   12.8310    9.2450   12.1290 H   0  0  0  0  0  0  0  0  0  0  0  0
   12.3860    8.3460   13.5700 H   0  0  0  0  0  0  0  0  0  0  0  0
   14.5900    6.9150   12.8350 H   0  0  0  0  0  0  0  0  0  0  0  0
   14.7130    8.2830   13.9430 H   0  0  0  0  0  0  0  0  0  0  0  0
   14.8330    9.4770   11.6130 H   0  0  0  0  0  0  0  0  0  0  0  0
   15.0760    6.9860   10.6930 H   0  0  0  0  0  0  0  0  0  0  0  0
   15.7980    8.4570    9.9830 H   0  0  0  0  0  0  0  0  0  0  0  0
   17.8510    8.1760   10.8270 H   0  0  0  0  0  0  0  0  0  0  0  0
   17.3540    6.4950   10.4910 H   0  0  0  0  0  0  0  0  0  0  0  0
   18.3510    8.4970   13.5370 H   0  0  0  0  0  0  0  0  0  0  0  0
   16.9280    7.8030   14.3380 H   0  0  0  0  0  0  0  0  0  0  0  0
   16.2130    9.9700   13.4310 H   0  0  0  0  0  0  0  0  0  0  0  0
   17.1750    9.6980   11.9770 H   0  0  0  0  0  0  0  0  0  0  0  0
   10.3740    8.4710   11.2130 H   0  0  0  0  0  0  0  0  0  0  0  0
    8.0850    9.3100   11.2110 H   0  0  0  0  0  0  0  0  0  0  0  0
    6.3240    8.1140   12.3990 H   0  0  0  0  0  0  0  0  0  0  0  0
    6.9430    6.0120   13.6110 H   0  0  0  0  0  0  0  0  0  0  0  0
    9.1900    5.1880   13.6150 H   0  0  0  0  0  0  0  0  0  0  0  0
  1  2  1  0  0  0  0
  2  7  2  0  0  0  0
  2  3  1  0  0  0  0
  3  4  2  0  0  0  0
  4  5  1  0  0  0  0
  4 32  1  0  0  0  0
  5  8  1  0  0  0  0
  6 33  1  0  0  0  0
  6  5  2  0  0  0  0
  7  6  1  0  0  0  0
  8 30  1  0  0  0  0
  9  8  2  0  0  0  0
  9 10  1  0  0  0  0
 10 24  1  0  0  0  0
 10 35  1  1  0  0  0
 11 10  1  0  0  0  0
 11 16  1  0  0  0  0
 12 11  1  0  0  0  0
 13 12  2  0  0  0  0
 14 12  1  0  0  0  0
 14  9  1  0  0  0  0
 15 14  2  0  0  0  0
 16 17  1  0  0  0  0
 16 37  1  0  0  0  0
 17 39  1  0  0  0  0
 18 23  1  0  0  0  0
 18 17  1  0  0  0  0
 19 20  1  0  0  0  0
 19 18  1  0  0  0  0
 20 21  1  0  0  0  0
 21 22  1  0  0  0  0
 22 45  1  0  0  0  0
 22 46  1  0  0  0  0
 23 22  1  0  0  0  0
 23 47  1  0  0  0  0
 24 29  1  0  0  0  0
 25 24  2  0  0  0  0
 26 25  1  0  0  0  0
 26 27  2  0  0  0  0
 27 28  1  0  0  0  0
 28 29  2  0  0  0  0
 28 52  1  0  0  0  0
 29 53  1  0  0  0  0
 31  3  1  0  0  0  0
 34  7  1  0  0  0  0
 36 16  1  0  0  0  0
 38 17  1  0  0  0  0
 40 18  1  0  0  0  0
 41 19  1  0  0  0  0
 42 19  1  0  0  0  0
 43 20  1  0  0  0  0
 44 20  1  0  0  0  0
 48 23  1  0  0  0  0
 49 25  1  0  0  0  0
 50 26  1  0  0  0  0
 51 27  1  0  0  0  0
M  END
>  <Pose>
1

>  <Score>
-6.02

$$$$
