
 OpenBabel03172210413D

 48 51  0  0  1  0  0  0  0  0999 V2000
    6.8460    6.2560   12.1800 B   0  0  0  0  0  0  0  0  0  0  0  0
    8.7300    6.6010   12.1920 C   0  0  0  0  0  0  0  0  0  0  0  0
    9.3150    7.1770   11.0880 C   0  0  0  0  0  0  0  0  0  0  0  0
   10.6630    7.4220   11.1030 C   0  0  0  0  0  0  0  0  0  0  0  0
   11.4130    7.0940   12.2050 C   0  0  0  0  0  0  0  0  0  0  0  0
   10.7940    6.5200   13.2890 C   0  0  0  0  0  0  0  0  0  0  0  0
    9.4340    6.2530   13.3210 C   0  0  0  0  0  0  0  0  0  0  0  0
   12.9000    7.3610   12.2180 C   0  0  1  0  0  0  0  0  0  0  0  0
   13.0690    8.6940   12.5350 O   0  0  0  0  0  0  0  0  0  0  0  0
   13.5990    6.4140   13.1460 C   0  0  0  0  0  0  0  0  0  0  0  0
   14.3660    5.4100   12.4670 N   0  0  0  0  0  0  0  0  0  0  0  0
   13.7970    4.5340   11.6050 C   0  0  0  0  0  0  0  0  0  0  0  0
   14.8230    3.7220   11.1470 C   0  0  0  0  0  0  0  0  0  0  0  0
   14.5250    2.7270   10.2350 C   0  0  0  0  0  0  0  0  0  0  0  0
   13.2220    2.5200    9.7650 C   0  0  0  0  0  0  0  0  0  0  0  0
   12.2290    3.3590   10.2520 C   0  0  0  0  0  0  0  0  0  0  0  0
   12.4970    4.3550   11.1590 C   0  0  0  0  0  0  0  0  0  0  0  0
   16.0050    4.0940   11.7240 N   0  0  0  0  0  0  0  0  0  0  0  0
   15.6830    5.1410   12.5310 C   0  0  2  0  0  0  0  0  0  0  0  0
   16.5510    5.7700   13.2500 N   0  0  0  0  0  0  0  0  0  0  0  0
   17.2580    3.4470   11.4760 C   0  0  0  0  0  0  0  0  0  0  0  0
   18.3870    4.4030   11.2100 C   0  0  0  0  0  0  0  0  0  0  0  0
   18.3010    5.2560   10.1230 C   0  0  0  0  0  0  0  0  0  0  0  0
   19.2960    6.1630    9.8130 C   0  0  0  0  0  0  0  0  0  0  0  0
   20.3970    6.1980   10.6310 C   0  0  0  0  0  0  0  0  0  0  0  0
   20.5080    5.3650   11.7130 C   0  0  0  0  0  0  0  0  0  0  0  0
   19.5050    4.4770   11.9930 C   0  0  0  0  0  0  0  0  0  0  0  0
    8.7000    7.4380   10.2030 H   0  0  0  0  0  0  0  0  0  0  0  0
   11.1380    7.8750   10.2410 H   0  0  0  0  0  0  0  0  0  0  0  0
   11.3820    6.2470   14.1830 H   0  0  0  0  0  0  0  0  0  0  0  0
    8.9530    5.7950   14.1910 H   0  0  0  0  0  0  0  0  0  0  0  0
   13.2490    7.2460   11.1580 H   0  0  0  0  0  0  0  0  0  0  0  0
   13.3690    9.2420   11.7830 H   0  0  0  0  0  0  0  0  0  0  0  0
   14.3450    7.0400   13.7200 H   0  0  0  0  0  0  0  0  0  0  0  0
   12.9400    5.9820   13.9090 H   0  0  0  0  0  0  0  0  0  0  0  0
   15.3320    2.1060    9.8750 H   0  0  0  0  0  0  0  0  0  0  0  0
   13.0410    1.7400    9.0610 H   0  0  0  0  0  0  0  0  0  0  0  0
   11.2140    3.2130    9.8990 H   0  0  0  0  0  0  0  0  0  0  0  0
   11.6990    4.9870   11.5150 H   0  0  0  0  0  0  0  0  0  0  0  0
   16.2220    6.5800   13.8580 H   0  0  0  0  0  0  0  0  0  0  0  0
   17.5540    5.5800   13.3030 H   0  0  0  0  0  0  0  0  0  0  0  0
   17.2000    2.7730   10.5900 H   0  0  0  0  0  0  0  0  0  0  0  0
   17.5380    2.8530   12.3700 H   0  0  0  0  0  0  0  0  0  0  0  0
   17.4340    5.2510    9.4420 H   0  0  0  0  0  0  0  0  0  0  0  0
   19.2110    6.8340    8.9470 H   0  0  0  0  0  0  0  0  0  0  0  0
   21.2090    6.8960   10.4310 H   0  0  0  0  0  0  0  0  0  0  0  0
   21.4150    5.4300   12.3420 H   0  0  0  0  0  0  0  0  0  0  0  0
   19.6120    3.8370   12.8350 H   0  0  0  0  0  0  0  0  0  0  0  0
  1  2  1  0  0  0  0
  2  7  1  0  0  0  0
  3  4  1  0  0  0  0
  3  2  2  0  0  0  0
  4  5  2  0  0  0  0
  5  8  1  0  0  0  0
  5  6  1  0  0  0  0
  6  7  2  0  0  0  0
  6 30  1  0  0  0  0
  7 31  1  0  0  0  0
  8 32  1  6  0  0  0
  8  9  1  0  0  0  0
  8 10  1  0  0  0  0
 10 34  1  0  0  0  0
 10 35  1  0  0  0  0
 11 19  1  0  0  0  0
 11 10  1  0  0  0  0
 12 11  1  0  0  0  0
 13 12  2  0  0  0  0
 13 18  1  0  0  0  0
 14 13  1  0  0  0  0
 15 14  2  0  0  0  0
 15 16  1  0  0  0  0
 16 17  2  0  0  0  0
 17 39  1  0  0  0  0
 17 12  1  0  0  0  0
 18 19  1  0  0  0  0
 19 20  1  1  0  0  0
 20 41  1  0  0  0  0
 20 40  1  0  0  0  0
 21 18  1  0  0  0  0
 21 43  1  0  0  0  0
 22 21  1  0  0  0  0
 22 27  1  0  0  0  0
 23 22  2  0  0  0  0
 24 23  1  0  0  0  0
 24 25  2  0  0  0  0
 25 26  1  0  0  0  0
 26 27  2  0  0  0  0
 26 47  1  0  0  0  0
 27 48  1  0  0  0  0
 28  3  1  0  0  0  0
 29  4  1  0  0  0  0
 33  9  1  0  0  0  0
 36 14  1  0  0  0  0
 37 15  1  0  0  0  0
 38 16  1  0  0  0  0
 42 21  1  0  0  0  0
 44 23  1  0  0  0  0
 45 24  1  0  0  0  0
 46 25  1  0  0  0  0
M  END
>  <Pose>
1

>  <Score>
-5.09

$$$$
