
 OpenBabel03172210413D

 44 47  0  0  0  0  0  0  0  0999 V2000
   15.8750    7.3660   13.7350 B   0  0  0  0  0  0  0  0  0  0  0  0
   15.9750    5.8930   12.5040 C   0  0  0  0  0  0  0  0  0  0  0  0
   14.8880    5.0790   12.2820 C   0  0  0  0  0  0  0  0  0  0  0  0
   14.9600    4.0180   11.4000 C   0  0  0  0  0  0  0  0  0  0  0  0
   16.1190    3.7240   10.7010 C   0  0  0  0  0  0  0  0  0  0  0  0
   17.2040    4.5420   10.9260 C   0  0  0  0  0  0  0  0  0  0  0  0
   17.1380    5.6160   11.8180 C   0  0  0  0  0  0  0  0  0  0  0  0
   16.1580    2.5980    9.7740 C   0  0  0  0  0  0  0  0  0  0  0  0
   15.0220    1.9700    9.4500 C   0  0  0  0  0  0  0  0  0  0  0  0
   13.7810    2.3290    9.9510 O   0  0  0  0  0  0  0  0  0  0  0  0
   12.7700    1.5130    9.4520 C   0  0  0  0  0  0  0  0  0  0  0  0
   13.3400    0.6020    8.6140 C   0  0  0  0  0  0  0  0  0  0  0  0
   12.5540   -0.3360    7.9780 C   0  0  0  0  0  0  0  0  0  0  0  0
   11.2060   -0.3070    8.2260 C   0  0  0  0  0  0  0  0  0  0  0  0
   10.6180    0.6280    9.0870 C   0  0  0  0  0  0  0  0  0  0  0  0
   11.3830    1.5690    9.7300 C   0  0  0  0  0  0  0  0  0  0  0  0
   10.9140    2.6060   10.6570 C   0  0  0  0  0  0  0  0  0  0  0  0
   10.7770    3.9260   10.1760 N   0  0  0  0  0  4  0  0  0  0  0  0
    9.7160    4.6510   10.8450 C   0  0  0  0  0  0  0  0  0  0  0  0
   10.2580    5.2870   12.1110 C   0  0  0  0  0  0  0  0  0  0  0  0
   10.9600    6.4260   11.7500 O   0  0  0  0  0  0  0  0  0  0  0  0
   11.5880    6.1730   10.5260 C   0  0  0  0  0  0  0  0  0  0  0  0
   11.9950    4.7100   10.4430 C   0  0  0  0  0  0  0  0  0  0  0  0
    9.2380    0.5900    9.2850 O   0  0  0  0  0  0  0  0  0  0  0  0
   14.7870    0.8510    8.5770 C   0  0  0  0  0  0  0  0  0  0  0  0
   15.6730    0.2380    7.9280 O   0  0  0  0  0  0  0  0  0  0  0  0
   13.9850    5.3150   12.8340 H   0  0  0  0  0  0  0  0  0  0  0  0
   14.0960    3.3780   11.2300 H   0  0  0  0  0  0  0  0  0  0  0  0
   18.1250    4.3590   10.4100 H   0  0  0  0  0  0  0  0  0  0  0  0
   17.9850    6.2650   12.0050 H   0  0  0  0  0  0  0  0  0  0  0  0
   17.0720    2.2240    9.3150 H   0  0  0  0  0  0  0  0  0  0  0  0
   12.9910   -1.0670    7.3060 H   0  0  0  0  0  0  0  0  0  0  0  0
   10.5680   -1.0240    7.7440 H   0  0  0  0  0  0  0  0  0  0  0  0
   11.5180    2.5510   11.5940 H   0  0  0  0  0  0  0  0  0  0  0  0
    9.8780    2.2740   10.9790 H   0  0  0  0  0  0  0  0  0  0  0  0
   10.6710    3.9590    9.1420 H   0  0  0  0  0  0  0  0  0  0  0  0
    9.2000    5.3870   10.2030 H   0  0  0  0  0  0  0  0  0  0  0  0
    8.9480    3.9230   11.1840 H   0  0  0  0  0  0  0  0  0  0  0  0
   10.8970    4.5470   12.6270 H   0  0  0  0  0  0  0  0  0  0  0  0
    9.3610    5.5210   12.7430 H   0  0  0  0  0  0  0  0  0  0  0  0
   12.4630    6.8470   10.4760 H   0  0  0  0  0  0  0  0  0  0  0  0
   10.9270    6.4410    9.6670 H   0  0  0  0  0  0  0  0  0  0  0  0
   12.6930    4.6020    9.5850 H   0  0  0  0  0  0  0  0  0  0  0  0
   12.4940    4.4260   11.3680 H   0  0  0  0  0  0  0  0  0  0  0  0
  2  1  1  0  0  0  0
  3  2  1  0  0  0  0
  3 27  1  0  0  0  0
  4  3  2  0  0  0  0
  5  6  2  0  0  0  0
  5  4  1  0  0  0  0
  6  7  1  0  0  0  0
  7 30  1  0  0  0  0
  7  2  2  0  0  0  0
  8  5  1  0  0  0  0
  9  8  2  0  0  0  0
  9 10  1  0  0  0  0
 11 16  1  0  0  0  0
 11 10  1  0  0  0  0
 12 11  2  0  0  0  0
 13 14  2  0  0  0  0
 13 12  1  0  0  0  0
 14 15  1  0  0  0  0
 15 24  1  0  0  0  0
 15 16  2  0  0  0  0
 16 17  1  0  0  0  0
 17 35  1  0  0  0  0
 17 34  1  0  0  0  0
 18 23  1  0  0  0  0
 18 17  1  0  0  0  0
 18 19  1  0  0  0  0
 19 38  1  0  0  0  0
 19 20  1  0  0  0  0
 20 39  1  0  0  0  0
 20 40  1  0  0  0  0
 21 20  1  0  0  0  0
 22 21  1  0  0  0  0
 23 22  1  0  0  0  0
 23 44  1  0  0  0  0
 25 12  1  0  0  0  0
 25  9  1  0  0  0  0
 26 25  2  0  0  0  0
 28  4  1  0  0  0  0
 29  6  1  0  0  0  0
 31  8  1  0  0  0  0
 32 13  1  0  0  0  0
 33 14  1  0  0  0  0
 36 18  1  0  0  0  0
 37 19  1  0  0  0  0
 41 22  1  0  0  0  0
 42 22  1  0  0  0  0
 43 23  1  0  0  0  0
M  END
>  <Pose>
1

>  <Score>
-5.93

$$$$
