
 OpenBabel03172210413D

 50 54  0  0  1  0  0  0  0  0999 V2000
   20.8320    6.0190   11.9250 B   0  0  0  0  0  0  0  0  0  0  0  0
   19.2410    5.0960   11.4570 C   0  0  0  0  0  0  0  0  0  0  0  0
   18.0850    5.7970   11.1740 C   0  0  0  0  0  0  0  0  0  0  0  0
   16.9190    5.1160   10.8300 C   0  0  0  0  0  0  0  0  0  0  0  0
   16.8760    3.7420   10.7600 C   0  0  0  0  0  0  0  0  0  0  0  0
   18.0330    3.0520   11.0420 C   0  0  0  0  0  0  0  0  0  0  0  0
   19.2110    3.7180   11.3900 C   0  0  0  0  0  0  0  0  0  0  0  0
   15.6540    3.0290   10.4000 C   0  0  0  0  0  0  0  0  0  0  0  0
   14.4150    3.2580   10.8810 N   0  0  0  0  0  0  0  0  0  0  0  0
   13.5300    2.4000   10.3160 C   0  0  1  0  0  0  0  0  0  0  0  0
   14.2000    1.6060    9.4620 N   0  0  0  0  0  0  0  0  0  0  0  0
   15.4970    1.9870    9.5090 C   0  0  0  0  0  0  0  0  0  0  0  0
   13.2830    0.7760    8.9300 C   0  0  0  0  0  0  0  0  0  0  0  0
   12.0360    1.0480    9.4510 C   0  0  0  0  0  0  0  0  0  0  0  0
   10.9040    0.3360    9.0710 C   0  0  0  0  0  0  0  0  0  0  0  0
   11.0170   -0.6770    8.1470 C   0  0  0  0  0  0  0  0  0  0  0  0
   12.2670   -0.9420    7.6320 C   0  0  0  0  0  0  0  0  0  0  0  0
   13.4060   -0.2530    7.9900 C   0  0  0  0  0  0  0  0  0  0  0  0
   12.2270    2.0760   10.3200 N   0  0  0  0  0  0  0  0  0  0  0  0
   11.1430    2.6610   11.0810 C   0  0  0  0  0  0  0  0  0  0  0  0
   11.1310    4.1700   10.9700 C   0  0  0  0  0  0  0  0  0  0  0  0
   10.0600    4.7200   11.7500 N   0  0  0  0  0  4  0  0  0  0  0  0
    9.1230    5.4210   10.8970 C   0  0  0  0  0  0  0  0  0  0  0  0
    8.7110    6.7590   11.4600 C   0  0  0  0  0  0  0  0  0  0  0  0
    8.2880    6.5820   12.7790 O   0  0  0  0  0  0  0  0  0  0  0  0
    9.2730    6.0360   13.5750 C   0  0  0  0  0  0  0  0  0  0  0  0
   10.4820    5.6220   12.7780 C   0  0  0  0  0  0  0  0  0  0  0  0
   18.1100    6.8820   11.2270 H   0  0  0  0  0  0  0  0  0  0  0  0
   16.0440    5.6950   10.6190 H   0  0  0  0  0  0  0  0  0  0  0  0
   18.0610    1.9750   11.0040 H   0  0  0  0  0  0  0  0  0  0  0  0
   20.1200    3.1560   11.6100 H   0  0  0  0  0  0  0  0  0  0  0  0
   14.1510    3.9810   11.5810 H   0  0  0  0  0  0  0  0  0  0  0  0
   16.3030    1.5470    8.9400 H   0  0  0  0  0  0  0  0  0  0  0  0
    9.9640    0.5980    9.5150 H   0  0  0  0  0  0  0  0  0  0  0  0
   10.1420   -1.2630    7.8230 H   0  0  0  0  0  0  0  0  0  0  0  0
   12.3650   -1.7320    6.9090 H   0  0  0  0  0  0  0  0  0  0  0  0
   14.3780   -0.4430    7.6030 H   0  0  0  0  0  0  0  0  0  0  0  0
   10.1670    2.2850   10.6900 H   0  0  0  0  0  0  0  0  0  0  0  0
   11.2210    2.3340   12.1360 H   0  0  0  0  0  0  0  0  0  0  0  0
   11.0070    4.4900    9.9350 H   0  0  0  0  0  0  0  0  0  0  0  0
   12.0960    4.5380   11.3700 H   0  0  0  0  0  0  0  0  0  0  0  0
    9.5140    3.9520   12.2160 H   0  0  0  0  0  0  0  0  0  0  0  0
    9.5670    5.5840    9.8740 H   0  0  0  0  0  0  0  0  0  0  0  0
    8.1910    4.8370   10.7300 H   0  0  0  0  0  0  0  0  0  0  0  0
    7.8470    7.1070   10.8580 H   0  0  0  0  0  0  0  0  0  0  0  0
    9.5340    7.4880   11.3640 H   0  0  0  0  0  0  0  0  0  0  0  0
    9.5880    6.8460   14.2910 H   0  0  0  0  0  0  0  0  0  0  0  0
    8.9150    5.1670   14.1710 H   0  0  0  0  0  0  0  0  0  0  0  0
   11.1390    5.0440   13.4880 H   0  0  0  0  0  0  0  0  0  0  0  0
   10.9950    6.5200   12.4070 H   0  0  0  0  0  0  0  0  0  0  0  0
  2  1  1  0  0  0  0
  3 28  1  0  0  0  0
  3  2  2  0  0  0  0
  4  3  1  0  0  0  0
  5  4  2  0  0  0  0
  5  6  1  0  0  0  0
  6  7  2  0  0  0  0
  7  2  1  0  0  0  0
  7 31  1  0  0  0  0
  8  5  1  0  0  0  0
  8  9  1  0  0  0  0
  9 32  1  0  0  0  0
 10 11  1  1  0  0  0
 10 19  1  0  0  0  0
 10  9  1  0  0  0  0
 11 12  1  0  0  0  0
 12  8  2  0  0  0  0
 13 14  1  0  0  0  0
 13 11  1  0  0  0  0
 14 19  1  0  0  0  0
 15 14  2  0  0  0  0
 15 34  1  0  0  0  0
 16 15  1  0  0  0  0
 17 18  1  0  0  0  0
 17 16  2  0  0  0  0
 18 13  2  0  0  0  0
 19 20  1  0  0  0  0
 20 39  1  0  0  0  0
 21 20  1  0  0  0  0
 21 41  1  0  0  0  0
 21 22  1  0  0  0  0
 22 42  1  0  0  0  0
 22 27  1  0  0  0  0
 23 24  1  0  0  0  0
 23 22  1  0  0  0  0
 24 25  1  0  0  0  0
 25 26  1  0  0  0  0
 26 48  1  0  0  0  0
 26 47  1  0  0  0  0
 27 49  1  0  0  0  0
 27 26  1  0  0  0  0
 29  4  1  0  0  0  0
 30  6  1  0  0  0  0
 33 12  1  0  0  0  0
 35 16  1  0  0  0  0
 36 17  1  0  0  0  0
 37 18  1  0  0  0  0
 38 20  1  0  0  0  0
 40 21  1  0  0  0  0
 43 23  1  0  0  0  0
 44 23  1  0  0  0  0
 45 24  1  0  0  0  0
 46 24  1  0  0  0  0
 50 27  1  0  0  0  0
M  END
>  <Pose>
1

>  <Score>
-6.06

$$$$
