
 OpenBabel03172210413D

 57 60  0  0  0  0  0  0  0  0999 V2000
    6.5660    8.7540   12.1920 B   0  0  0  0  0  0  0  0  0  0  0  0
    8.1390    7.7020   11.9170 C   0  0  0  0  0  0  0  0  0  0  0  0
    9.1060    8.1800   11.0820 C   0  0  0  0  0  0  0  0  0  0  0  0
   10.2440    7.4310   10.8730 C   0  0  0  0  0  0  0  0  0  0  0  0
   10.4660    6.1940   11.4730 C   0  0  0  0  0  0  0  0  0  0  0  0
    9.4800    5.7370   12.3080 C   0  0  0  0  0  0  0  0  0  0  0  0
    8.3120    6.4830   12.5370 C   0  0  0  0  0  0  0  0  0  0  0  0
   11.6480    5.4070   11.2420 C   0  0  0  0  0  0  0  0  0  0  0  0
   12.8580    5.7860   11.7710 C   0  0  0  0  0  0  0  0  0  0  0  0
   13.9730    5.1110   11.5640 O   0  0  0  0  0  0  0  0  0  0  0  0
   13.9920    4.0270   10.8320 C   0  0  0  0  0  0  0  0  0  0  0  0
   12.8330    3.6020   10.2850 C   0  0  0  0  0  0  0  0  0  0  0  0
   12.8220    2.4660    9.5070 C   0  0  0  0  0  0  0  0  0  0  0  0
   14.0030    1.7960    9.3110 C   0  0  0  0  0  0  0  0  0  0  0  0
   15.2060    2.2480    9.8860 C   0  0  0  0  0  0  0  0  0  0  0  0
   15.2410    3.3690   10.6600 C   0  0  0  0  0  0  0  0  0  0  0  0
   16.3840    3.9400   11.3300 C   0  0  0  0  0  0  0  0  0  0  0  0
   17.6170    4.1750   10.6970 N   0  0  0  0  0  4  0  0  0  0  0  0
   18.6410    3.3080   11.1600 C   0  0  0  0  0  0  0  0  0  0  0  0
   20.0470    3.7600   11.1060 C   0  0  0  0  0  0  0  0  0  0  0  0
   20.1910    5.1460   10.9940 N   0  0  0  0  0  0  0  0  0  0  0  0
   19.3750    5.8350   10.0920 C   0  0  0  0  0  0  0  0  0  0  0  0
   17.9320    5.5020   10.3060 C   0  0  0  0  0  0  0  0  0  0  0  0
   21.1300    5.8310   11.7780 C   0  0  0  0  0  0  0  0  0  0  0  0
   16.2930    1.4470    9.5780 O   0  0  0  0  0  0  0  0  0  0  0  0
   11.6270    4.2540   10.4560 C   0  0  0  0  0  0  0  0  0  0  0  0
   10.5680    3.8630    9.9550 O   0  0  0  0  0  0  0  0  0  0  0  0
   12.9020    6.9980   12.6040 C   0  0  0  0  0  0  0  0  0  0  0  0
   13.7320    7.8910   12.3010 O   0  0  0  0  0  0  0  0  0  0  0  0
   12.0960    7.2030   13.6810 O   0  0  0  0  0  0  0  0  0  0  0  0
   11.1820    8.2740   13.6980 C   0  0  0  0  0  0  0  0  0  0  0  0
   11.9330    9.5630   13.5110 C   0  0  0  0  0  0  0  0  0  0  0  0
    8.9500    9.1520   10.5970 H   0  0  0  0  0  0  0  0  0  0  0  0
   10.9940    7.8050   10.2230 H   0  0  0  0  0  0  0  0  0  0  0  0
    9.5460    4.7940   12.8260 H   0  0  0  0  0  0  0  0  0  0  0  0
    7.5390    6.1190   13.1910 H   0  0  0  0  0  0  0  0  0  0  0  0
   11.8800    2.1350    9.0730 H   0  0  0  0  0  0  0  0  0  0  0  0
   14.0070    0.9050    8.7070 H   0  0  0  0  0  0  0  0  0  0  0  0
   16.6200    3.3280   12.2880 H   0  0  0  0  0  0  0  0  0  0  0  0
   16.0730    4.9270   11.8160 H   0  0  0  0  0  0  0  0  0  0  0  0
   17.4110    3.7150    9.6770 H   0  0  0  0  0  0  0  0  0  0  0  0
   18.4030    2.9970   12.2170 H   0  0  0  0  0  0  0  0  0  0  0  0
   18.5910    2.2880   10.6290 H   0  0  0  0  0  0  0  0  0  0  0  0
   20.6310    3.2380   10.2770 H   0  0  0  0  0  0  0  0  0  0  0  0
   20.6290    3.4330   12.0270 H   0  0  0  0  0  0  0  0  0  0  0  0
   19.6300    5.6600    9.0100 H   0  0  0  0  0  0  0  0  0  0  0  0
   19.5270    6.9370   10.2280 H   0  0  0  0  0  0  0  0  0  0  0  0
   17.4650    6.2360   10.9920 H   0  0  0  0  0  0  0  0  0  0  0  0
   17.4310    5.7710    9.3100 H   0  0  0  0  0  0  0  0  0  0  0  0
   20.6810    6.7750   12.1560 H   0  0  0  0  0  0  0  0  0  0  0  0
   21.3350    5.2320   12.7130 H   0  0  0  0  0  0  0  0  0  0  0  0
   22.1290    5.9940   11.3280 H   0  0  0  0  0  0  0  0  0  0  0  0
   10.3800    8.1460   12.9260 H   0  0  0  0  0  0  0  0  0  0  0  0
   10.6100    8.2870   14.6730 H   0  0  0  0  0  0  0  0  0  0  0  0
   11.5750   10.3540   14.2230 H   0  0  0  0  0  0  0  0  0  0  0  0
   13.0160    9.3630   13.5890 H   0  0  0  0  0  0  0  0  0  0  0  0
   11.7310    9.8870   12.4560 H   0  0  0  0  0  0  0  0  0  0  0  0
  2  1  1  0  0  0  0
  2  7  1  0  0  0  0
  3  2  2  0  0  0  0
  4  3  1  0  0  0  0
  4  5  2  0  0  0  0
  5  6  1  0  0  0  0
  6  7  2  0  0  0  0
  6 35  1  0  0  0  0
  7 36  1  0  0  0  0
  8  5  1  0  0  0  0
  8  9  2  0  0  0  0
  9 28  1  0  0  0  0
 10  9  1  0  0  0  0
 11 10  1  0  0  0  0
 12 26  1  0  0  0  0
 12 11  2  0  0  0  0
 13 12  1  0  0  0  0
 14 13  2  0  0  0  0
 14 15  1  0  0  0  0
 15 16  2  0  0  0  0
 16 11  1  0  0  0  0
 16 17  1  0  0  0  0
 17 40  1  0  0  0  0
 17 39  1  0  0  0  0
 18 19  1  0  0  0  0
 18 17  1  0  0  0  0
 19 42  1  0  0  0  0
 20 19  1  0  0  0  0
 20 45  1  0  0  0  0
 21 20  1  0  0  0  0
 21 24  1  0  0  0  0
 22 47  1  0  0  0  0
 22 23  1  0  0  0  0
 22 21  1  0  0  0  0
 23 18  1  0  0  0  0
 23 48  1  0  0  0  0
 24 50  1  0  0  0  0
 24 51  1  0  0  0  0
 25 15  1  0  0  0  0
 26  8  1  0  0  0  0
 27 26  2  0  0  0  0
 28 30  1  0  0  0  0
 29 28  2  0  0  0  0
 30 31  1  0  0  0  0
 31 54  1  0  0  0  0
 32 56  1  0  0  0  0
 32 31  1  0  0  0  0
 32 55  1  0  0  0  0
 33  3  1  0  0  0  0
 34  4  1  0  0  0  0
 37 13  1  0  0  0  0
 38 14  1  0  0  0  0
 41 18  1  0  0  0  0
 43 19  1  0  0  0  0
 44 20  1  0  0  0  0
 46 22  1  0  0  0  0
 49 23  1  0  0  0  0
 52 24  1  0  0  0  0
 53 31  1  0  0  0  0
 57 32  1  0  0  0  0
M  END
>  <Pose>
1

>  <Score>
-6.04

$$$$
