
 OpenBabel03172210413D

 60 63  0  0  1  0  0  0  0  0999 V2000
    5.5090    7.5540   11.8060 B   0  0  0  0  0  0  0  0  0  0  0  0
    7.3020    6.9590   12.0740 C   0  0  0  0  0  0  0  0  0  0  0  0
    8.1340    7.6440   12.9280 C   0  0  0  0  0  0  0  0  0  0  0  0
    9.4480    7.2110   13.1270 C   0  0  0  0  0  0  0  0  0  0  0  0
    9.9370    6.1010   12.4840 C   0  0  0  0  0  0  0  0  0  0  0  0
    9.0810    5.4360   11.6350 C   0  0  0  0  0  0  0  0  0  0  0  0
    7.7780    5.8510   11.4260 C   0  0  0  0  0  0  0  0  0  0  0  0
   11.3040    5.6540   12.7120 C   0  0  2  0  0  0  0  0  0  0  0  0
   12.2610    6.6890   12.3780 N   0  0  0  0  0  0  0  0  0  0  0  0
   12.3890    6.6740   10.9550 C   0  0  0  0  0  0  0  0  0  0  0  0
   12.7350    7.6310   10.2190 O   0  0  0  0  0  0  0  0  0  0  0  0
   12.0350    5.3220   10.5380 C   0  0  0  0  0  0  0  0  0  0  0  0
   11.9970    4.8270    9.3830 O   0  0  0  0  0  0  0  0  0  0  0  0
   11.7040    4.5680   11.7430 C   0  0  0  0  0  0  0  0  0  0  0  0
   11.7230    3.2660   11.8920 C   0  0  0  0  0  0  0  0  0  0  0  0
   11.3050    2.7810   13.1440 O   0  0  0  0  0  0  0  0  0  0  0  0
   12.1530    2.3430   10.8470 C   0  0  0  0  0  0  0  0  0  0  0  0
   11.2920    1.6630   10.0150 C   0  0  0  0  0  0  0  0  0  0  0  0
   11.6910    0.7700    9.0360 C   0  0  0  0  0  0  0  0  0  0  0  0
   13.0270    0.5390    8.8730 C   0  0  0  0  0  0  0  0  0  0  0  0
   13.9340    1.2060    9.6910 C   0  0  0  0  0  0  0  0  0  0  0  0
   13.4990    2.0880   10.6570 C   0  0  0  0  0  0  0  0  0  0  0  0
   10.6920    0.1800    8.2940 O   0  0  0  0  0  0  0  0  0  0  0  0
   10.1800   -1.1010    8.4250 C   0  0  0  0  0  0  0  0  0  0  0  0
   12.9730    7.5880   13.3020 C   0  0  0  0  0  0  0  0  0  0  0  0
   12.6940    9.0540   12.9380 C   0  0  0  0  0  0  0  0  0  0  0  0
   12.4830    9.8440   14.1980 C   0  0  0  0  0  0  0  0  0  0  0  0
   13.4480   10.9160   14.2490 N   0  0  0  0  0  4  0  0  0  0  0  0
   14.3390   10.8480   15.3640 C   0  0  0  0  0  0  0  0  0  0  0  0
   13.6870   11.1900   16.6600 C   0  0  0  0  0  0  0  0  0  0  0  0
   13.0960   12.4400   16.6010 O   0  0  0  0  0  0  0  0  0  0  0  0
   12.1140   12.3990   15.6110 C   0  0  0  0  0  0  0  0  0  0  0  0
   12.8130   12.2210   14.2770 C   0  0  0  0  0  0  0  0  0  0  0  0
    7.7310    8.5130   13.4220 H   0  0  0  0  0  0  0  0  0  0  0  0
   10.0480    7.7780   13.7980 H   0  0  0  0  0  0  0  0  0  0  0  0
    9.4920    4.5660   11.1410 H   0  0  0  0  0  0  0  0  0  0  0  0
    7.1370    5.3000   10.7580 H   0  0  0  0  0  0  0  0  0  0  0  0
   11.4180    5.3000   13.7540 H   0  0  0  0  0  0  0  0  0  0  0  0
   10.2370    1.8490   10.1230 H   0  0  0  0  0  0  0  0  0  0  0  0
   13.3630   -0.1570    8.1120 H   0  0  0  0  0  0  0  0  0  0  0  0
   14.9850    0.9770    9.5110 H   0  0  0  0  0  0  0  0  0  0  0  0
   14.2620    2.5860   11.2770 H   0  0  0  0  0  0  0  0  0  0  0  0
    9.9940   -1.6010    7.4330 H   0  0  0  0  0  0  0  0  0  0  0  0
   10.8250   -1.7110    9.0640 H   0  0  0  0  0  0  0  0  0  0  0  0
    9.1730   -1.0330    8.8880 H   0  0  0  0  0  0  0  0  0  0  0  0
   14.0430    7.4480   13.1560 H   0  0  0  0  0  0  0  0  0  0  0  0
   12.5830    7.3510   14.2960 H   0  0  0  0  0  0  0  0  0  0  0  0
   13.5270    9.4970   12.3960 H   0  0  0  0  0  0  0  0  0  0  0  0
   11.7840    9.1220   12.3060 H   0  0  0  0  0  0  0  0  0  0  0  0
   11.4370   10.2260   14.1520 H   0  0  0  0  0  0  0  0  0  0  0  0
   12.5980    9.1950   15.0630 H   0  0  0  0  0  0  0  0  0  0  0  0
   14.0130   10.8870   13.3690 H   0  0  0  0  0  0  0  0  0  0  0  0
   14.7840    9.8290   15.4110 H   0  0  0  0  0  0  0  0  0  0  0  0
   15.1880   11.5510   15.1730 H   0  0  0  0  0  0  0  0  0  0  0  0
   12.8710   10.4580   16.8820 H   0  0  0  0  0  0  0  0  0  0  0  0
   14.4500   11.1220   17.4690 H   0  0  0  0  0  0  0  0  0  0  0  0
   11.4980   13.3180   15.5790 H   0  0  0  0  0  0  0  0  0  0  0  0
   11.4150   11.5450   15.7500 H   0  0  0  0  0  0  0  0  0  0  0  0
   13.6140   12.9850   14.2400 H   0  0  0  0  0  0  0  0  0  0  0  0
   12.1120   12.3640   13.4420 H   0  0  0  0  0  0  0  0  0  0  0  0
  1  2  1  0  0  0  0
  2  3  1  0  0  0  0
  3  4  2  0  0  0  0
  3 34  1  0  0  0  0
  4 35  1  0  0  0  0
  5  8  1  0  0  0  0
  5  4  1  0  0  0  0
  6  5  2  0  0  0  0
  7  6  1  0  0  0  0
  7  2  2  0  0  0  0
  8 38  1  1  0  0  0
  9  8  1  0  0  0  0
  9 25  1  0  0  0  0
 10  9  1  0  0  0  0
 11 10  2  0  0  0  0
 12 10  1  0  0  0  0
 12 14  1  0  0  0  0
 13 12  2  0  0  0  0
 14 15  2  0  0  0  0
 14  8  1  0  0  0  0
 15 16  1  0  0  0  0
 17 15  1  0  0  0  0
 18 39  1  0  0  0  0
 18 17  2  0  0  0  0
 19 18  1  0  0  0  0
 20 19  2  0  0  0  0
 20 21  1  0  0  0  0
 21 22  2  0  0  0  0
 22 17  1  0  0  0  0
 22 42  1  0  0  0  0
 23 24  1  0  0  0  0
 23 19  1  0  0  0  0
 24 45  1  0  0  0  0
 24 44  1  0  0  0  0
 25 47  1  0  0  0  0
 26 25  1  0  0  0  0
 26 27  1  0  0  0  0
 27 28  1  0  0  0  0
 27 51  1  0  0  0  0
 28 33  1  0  0  0  0
 28 29  1  0  0  0  0
 29 53  1  0  0  0  0
 29 30  1  0  0  0  0
 30 55  1  0  0  0  0
 30 56  1  0  0  0  0
 31 30  1  0  0  0  0
 32 58  1  0  0  0  0
 32 31  1  0  0  0  0
 33 32  1  0  0  0  0
 36  6  1  0  0  0  0
 37  7  1  0  0  0  0
 40 20  1  0  0  0  0
 41 21  1  0  0  0  0
 43 24  1  0  0  0  0
 46 25  1  0  0  0  0
 48 26  1  0  0  0  0
 49 26  1  0  0  0  0
 50 27  1  0  0  0  0
 52 28  1  0  0  0  0
 54 29  1  0  0  0  0
 57 32  1  0  0  0  0
 59 33  1  0  0  0  0
 60 33  1  0  0  0  0
M  END
>  <Pose>
1

>  <Score>
-7.03

$$$$
