
 OpenBabel03172210413D

 56 59  0  0  1  0  0  0  0  0999 V2000
   16.6010    8.6620   13.7490 B   0  0  0  0  0  0  0  0  0  0  0  0
   15.2440    7.5850   12.9340 C   0  0  0  0  0  0  0  0  0  0  0  0
   14.4570    8.0640   11.9090 C   0  0  0  0  0  0  0  0  0  0  0  0
   13.4940    7.2790   11.3430 C   0  0  0  0  0  0  0  0  0  0  0  0
   13.2550    5.9620   11.7650 C   0  0  0  0  0  0  0  0  0  0  0  0
   14.0300    5.4970   12.7680 C   0  0  0  0  0  0  0  0  0  0  0  0
   15.0150    6.2960   13.3510 C   0  0  0  0  0  0  0  0  0  0  0  0
   12.2410    5.2410   11.0980 C   0  0  1  0  0  0  0  0  0  0  0  0
   12.0520    3.8550   11.0470 N   0  0  0  0  0  0  0  0  0  0  0  0
   11.0030    3.6890   10.0200 C   0  0  0  0  0  0  0  0  0  0  0  0
   10.8460    2.7050    9.2440 O   0  0  0  0  0  0  0  0  0  0  0  0
   10.2030    4.9140   10.1150 C   0  0  0  0  0  0  0  0  0  0  0  0
    9.1760    5.2360    9.4420 O   0  0  0  0  0  0  0  0  0  0  0  0
   10.8330    5.7200   11.1780 C   0  0  0  0  0  0  0  0  0  0  0  0
   10.2530    6.5780   11.9870 C   0  0  0  0  0  0  0  0  0  0  0  0
   10.9850    7.2060   12.9880 O   0  0  0  0  0  0  0  0  0  0  0  0
    8.8460    6.9320   11.8920 C   0  0  0  0  0  0  0  0  0  0  0  0
    7.8000    6.0630   11.8850 C   0  0  0  0  0  0  0  0  0  0  0  0
    6.4950    6.5350   11.8350 C   0  0  0  0  0  0  0  0  0  0  0  0
    6.2440    7.8880   11.7920 C   0  0  0  0  0  0  0  0  0  0  0  0
    7.2740    8.7990   11.7970 C   0  0  0  0  0  0  0  0  0  0  0  0
    8.5690    8.3030   11.8470 C   0  0  0  0  0  0  0  0  0  0  0  0
    4.8540    8.4330   11.7380 C   0  0  0  0  0  0  0  0  0  0  0  0
   12.6010    2.6570   11.6630 C   0  0  0  0  0  0  0  0  0  0  0  0
   13.8680    2.1600   11.0170 C   0  0  0  0  0  0  0  0  0  0  0  0
   13.7050    1.7620    9.6580 N   0  0  0  0  0  4  0  0  0  0  0  0
   13.0460    0.4710    9.5880 C   0  0  0  0  0  0  0  0  0  0  0  0
   12.8540    0.1060    8.1400 C   0  0  0  0  0  0  0  0  0  0  0  0
   14.1340   -0.1570    7.6270 O   0  0  0  0  0  0  0  0  0  0  0  0
   14.8520    1.0150    7.6710 C   0  0  0  0  0  0  0  0  0  0  0  0
   15.0420    1.5350    9.0730 C   0  0  0  0  0  0  0  0  0  0  0  0
   14.6480    9.0900   11.5870 H   0  0  0  0  0  0  0  0  0  0  0  0
   12.8900    7.7070   10.5270 H   0  0  0  0  0  0  0  0  0  0  0  0
   13.9810    4.5070   13.2030 H   0  0  0  0  0  0  0  0  0  0  0  0
   15.6460    5.9340   14.1610 H   0  0  0  0  0  0  0  0  0  0  0  0
   12.4710    5.4860    9.9480 H   0  0  0  0  0  0  0  0  0  0  0  0
    7.9960    4.9900   11.8870 H   0  0  0  0  0  0  0  0  0  0  0  0
    5.6720    5.8330   11.8310 H   0  0  0  0  0  0  0  0  0  0  0  0
    7.0970    9.8800   11.7620 H   0  0  0  0  0  0  0  0  0  0  0  0
    9.4180    8.9840   11.8530 H   0  0  0  0  0  0  0  0  0  0  0  0
    4.6420    8.9330   10.7730 H   0  0  0  0  0  0  0  0  0  0  0  0
    4.1190    7.5910   11.8630 H   0  0  0  0  0  0  0  0  0  0  0  0
    4.6650    9.1380   12.5730 H   0  0  0  0  0  0  0  0  0  0  0  0
   12.9000    2.9200   12.7200 H   0  0  0  0  0  0  0  0  0  0  0  0
   11.8910    1.8360   11.6750 H   0  0  0  0  0  0  0  0  0  0  0  0
   14.6410    2.9990   11.0200 H   0  0  0  0  0  0  0  0  0  0  0  0
   14.3110    1.3250   11.6300 H   0  0  0  0  0  0  0  0  0  0  0  0
   13.2140    2.4620    9.0830 H   0  0  0  0  0  0  0  0  0  0  0  0
   12.0810    0.4170   10.0920 H   0  0  0  0  0  0  0  0  0  0  0  0
   13.6980   -0.2860   10.0790 H   0  0  0  0  0  0  0  0  0  0  0  0
   12.3770    0.9160    7.5740 H   0  0  0  0  0  0  0  0  0  0  0  0
   12.2410   -0.8090    8.0420 H   0  0  0  0  0  0  0  0  0  0  0  0
   15.8680    0.7900    7.2490 H   0  0  0  0  0  0  0  0  0  0  0  0
   14.3760    1.7780    7.0480 H   0  0  0  0  0  0  0  0  0  0  0  0
   15.5290    0.7790    9.7120 H   0  0  0  0  0  0  0  0  0  0  0  0
   15.6380    2.4510    9.0300 H   0  0  0  0  0  0  0  0  0  0  0  0
  2  7  1  0  0  0  0
  2  1  1  0  0  0  0
  3  2  2  0  0  0  0
  4  5  2  0  0  0  0
  4  3  1  0  0  0  0
  5  6  1  0  0  0  0
  6 34  1  0  0  0  0
  6  7  2  0  0  0  0
  7 35  1  0  0  0  0
  8 36  1  6  0  0  0
  8 14  1  0  0  0  0
  8  5  1  0  0  0  0
  9  8  1  0  0  0  0
  9 24  1  0  0  0  0
 10 12  1  0  0  0  0
 10  9  1  0  0  0  0
 11 10  2  0  0  0  0
 12 14  1  0  0  0  0
 13 12  2  0  0  0  0
 14 15  2  0  0  0  0
 15 16  1  0  0  0  0
 17 15  1  0  0  0  0
 18 37  1  0  0  0  0
 18 17  1  0  0  0  0
 19 18  2  0  0  0  0
 20 21  2  0  0  0  0
 20 19  1  0  0  0  0
 21 22  1  0  0  0  0
 22 40  1  0  0  0  0
 22 17  2  0  0  0  0
 23 20  1  0  0  0  0
 23 42  1  0  0  0  0
 23 43  1  0  0  0  0
 24 45  1  0  0  0  0
 24 44  1  0  0  0  0
 25 46  1  0  0  0  0
 25 47  1  0  0  0  0
 25 24  1  0  0  0  0
 26 25  1  0  0  0  0
 27 26  1  0  0  0  0
 27 50  1  0  0  0  0
 27 49  1  0  0  0  0
 28 27  1  0  0  0  0
 29 30  1  0  0  0  0
 29 28  1  0  0  0  0
 30 31  1  0  0  0  0
 31 26  1  0  0  0  0
 31 55  1  0  0  0  0
 32  3  1  0  0  0  0
 33  4  1  0  0  0  0
 38 19  1  0  0  0  0
 39 21  1  0  0  0  0
 41 23  1  0  0  0  0
 48 26  1  0  0  0  0
 51 28  1  0  0  0  0
 52 28  1  0  0  0  0
 53 30  1  0  0  0  0
 54 30  1  0  0  0  0
 56 31  1  0  0  0  0
M  END
>  <Pose>
1

>  <Score>
-6.47

$$$$
