
 OpenBabel03172210413D

 53 56  0  0  1  0  0  0  0  0999 V2000
   11.3620    1.3880    9.5060 B   0  0  0  0  0  0  0  0  0  0  0  0
   11.1240    3.0140   10.4620 C   0  0  0  0  0  0  0  0  0  0  0  0
   10.7530    4.1950    9.8600 C   0  0  0  0  0  0  0  0  0  0  0  0
   10.5870    5.3750   10.5990 C   0  0  0  0  0  0  0  0  0  0  0  0
   10.7900    5.3920   11.9490 C   0  0  0  0  0  0  0  0  0  0  0  0
   11.1610    4.1950   12.5260 C   0  0  0  0  0  0  0  0  0  0  0  0
   11.3280    3.0270   11.8160 C   0  0  0  0  0  0  0  0  0  0  0  0
   10.6520    6.5550   12.7390 C   0  0  1  0  0  0  0  0  0  0  0  0
   11.3350    7.7650   12.4580 N   0  0  0  0  0  0  0  0  0  0  0  0
   10.8490    8.6730   13.4930 C   0  0  0  0  0  0  0  0  0  0  0  0
   11.4800    9.6520   13.9780 O   0  0  0  0  0  0  0  0  0  0  0  0
    9.5050    8.2090   13.8310 C   0  0  0  0  0  0  0  0  0  0  0  0
    8.7000    8.6920   14.6690 O   0  0  0  0  0  0  0  0  0  0  0  0
    9.2610    7.0410   12.9810 C   0  0  0  0  0  0  0  0  0  0  0  0
    8.1010    6.5980   12.5310 C   0  0  0  0  0  0  0  0  0  0  0  0
    8.0530    5.5070   11.6780 O   0  0  0  0  0  0  0  0  0  0  0  0
    6.8190    7.1900   12.8860 C   0  0  0  0  0  0  0  0  0  0  0  0
    6.1250    7.7650   11.8120 C   0  0  0  0  0  0  0  0  0  0  0  0
    4.8820    8.3320   11.9680 C   0  0  0  0  0  0  0  0  0  0  0  0
    4.3100    8.3250   13.2360 C   0  0  0  0  0  0  0  0  0  0  0  0
    4.9970    7.7570   14.2860 C   0  0  0  0  0  0  0  0  0  0  0  0
    6.2440    7.1910   14.1190 C   0  0  0  0  0  0  0  0  0  0  0  0
    2.7290    9.0490   13.4220 Cl  0  0  0  0  0  0  0  0  0  0  0  0
   12.3420    8.1570   11.4690 C   0  0  0  0  0  0  0  0  0  0  0  0
   13.6340    7.4070   11.5710 C   0  0  0  0  0  0  0  0  0  0  0  0
   14.7680    8.2710   11.8080 N   0  0  0  0  0  4  0  0  0  0  0  0
   15.9850    7.7680   11.2360 C   0  0  0  0  0  0  0  0  0  0  0  0
   16.5260    6.5510   11.9290 C   0  0  0  0  0  0  0  0  0  0  0  0
   16.6450    6.7390   13.3070 O   0  0  0  0  0  0  0  0  0  0  0  0
   15.3500    7.0070   13.7770 C   0  0  0  0  0  0  0  0  0  0  0  0
   14.9620    8.3690   13.2430 C   0  0  0  0  0  0  0  0  0  0  0  0
   10.5970    4.1750    8.8020 H   0  0  0  0  0  0  0  0  0  0  0  0
   10.2830    6.2180   10.0050 H   0  0  0  0  0  0  0  0  0  0  0  0
   11.3460    4.1080   13.6080 H   0  0  0  0  0  0  0  0  0  0  0  0
   11.6200    2.1050   12.3060 H   0  0  0  0  0  0  0  0  0  0  0  0
   10.9990    6.2790   13.8040 H   0  0  0  0  0  0  0  0  0  0  0  0
    6.5480    7.7830   10.8180 H   0  0  0  0  0  0  0  0  0  0  0  0
    4.3770    8.7670   11.1140 H   0  0  0  0  0  0  0  0  0  0  0  0
    4.5270    7.7680   15.2550 H   0  0  0  0  0  0  0  0  0  0  0  0
    6.7540    6.7220   14.9540 H   0  0  0  0  0  0  0  0  0  0  0  0
   12.5970    9.2390   11.6790 H   0  0  0  0  0  0  0  0  0  0  0  0
   11.9640    8.0310   10.4410 H   0  0  0  0  0  0  0  0  0  0  0  0
   13.8120    6.9660   10.5540 H   0  0  0  0  0  0  0  0  0  0  0  0
   13.6520    6.5530   12.2530 H   0  0  0  0  0  0  0  0  0  0  0  0
   14.6160    9.2360   11.4550 H   0  0  0  0  0  0  0  0  0  0  0  0
   15.9340    7.5720   10.1610 H   0  0  0  0  0  0  0  0  0  0  0  0
   16.7560    8.5790   11.3720 H   0  0  0  0  0  0  0  0  0  0  0  0
   15.9440    5.6340   11.6930 H   0  0  0  0  0  0  0  0  0  0  0  0
   17.5660    6.3950   11.5520 H   0  0  0  0  0  0  0  0  0  0  0  0
   15.3130    7.0080   14.8860 H   0  0  0  0  0  0  0  0  0  0  0  0
   14.7080    6.1980   13.4250 H   0  0  0  0  0  0  0  0  0  0  0  0
   14.0430    8.7560   13.7510 H   0  0  0  0  0  0  0  0  0  0  0  0
   15.8280    9.0480   13.4590 H   0  0  0  0  0  0  0  0  0  0  0  0
  1  2  1  0  0  0  0
  2  7  1  0  0  0  0
  3  2  2  0  0  0  0
  3  4  1  0  0  0  0
  4  5  2  0  0  0  0
  5  6  1  0  0  0  0
  5  8  1  0  0  0  0
  6 34  1  0  0  0  0
  7 35  1  0  0  0  0
  7  6  2  0  0  0  0
  8 14  1  0  0  0  0
  8 36  1  1  0  0  0
  9  8  1  0  0  0  0
  9 10  1  0  0  0  0
 10 12  1  0  0  0  0
 10 11  2  0  0  0  0
 12 13  2  0  0  0  0
 14 12  1  0  0  0  0
 15 17  1  0  0  0  0
 15 14  2  0  0  0  0
 16 15  1  0  0  0  0
 17 22  1  0  0  0  0
 18 19  1  0  0  0  0
 18 17  2  0  0  0  0
 19 20  2  0  0  0  0
 20 23  1  0  0  0  0
 20 21  1  0  0  0  0
 21 39  1  0  0  0  0
 22 21  2  0  0  0  0
 22 40  1  0  0  0  0
 24 25  1  0  0  0  0
 24 41  1  0  0  0  0
 24  9  1  0  0  0  0
 25 26  1  0  0  0  0
 25 44  1  0  0  0  0
 26 31  1  0  0  0  0
 27 47  1  0  0  0  0
 27 26  1  0  0  0  0
 27 28  1  0  0  0  0
 28 29  1  0  0  0  0
 29 30  1  0  0  0  0
 30 50  1  0  0  0  0
 31 53  1  0  0  0  0
 31 52  1  0  0  0  0
 31 30  1  0  0  0  0
 32  3  1  0  0  0  0
 33  4  1  0  0  0  0
 37 18  1  0  0  0  0
 38 19  1  0  0  0  0
 42 24  1  0  0  0  0
 43 25  1  0  0  0  0
 45 26  1  0  0  0  0
 46 27  1  0  0  0  0
 48 28  1  0  0  0  0
 49 28  1  0  0  0  0
 51 30  1  0  0  0  0
M  END
>  <Pose>
1

>  <Score>
-6.54

$$$$
