
 OpenBabel03172210413D

 62 66  0  0  1  0  0  0  0  0999 V2000
   10.9140    2.6310   10.2480 B   0  0  0  0  0  0  0  0  0  0  0  0
   10.6200    4.3150   11.0940 C   0  0  0  0  0  0  0  0  0  0  0  0
   10.7160    4.4770   12.4630 C   0  0  0  0  0  0  0  0  0  0  0  0
   10.5030    5.6940   13.0750 C   0  0  0  0  0  0  0  0  0  0  0  0
   10.1880    6.7930   12.3280 C   0  0  0  0  0  0  0  0  0  0  0  0
   10.0920    6.6380   10.9740 C   0  0  0  0  0  0  0  0  0  0  0  0
   10.3000    5.4320   10.3460 C   0  0  0  0  0  0  0  0  0  0  0  0
    9.9740    8.0840   12.9050 C   0  0  2  0  0  0  0  0  0  0  0  0
   10.9880    8.8280   13.5250 N   0  0  0  0  0  0  0  0  0  0  0  0
   10.2710    9.9880   14.0280 C   0  0  0  0  0  0  0  0  0  0  0  0
   10.7300   11.1590   14.2560 O   0  0  0  0  0  0  0  0  0  0  0  0
    8.8840    9.5900   14.2420 C   0  0  0  0  0  0  0  0  0  0  0  0
    7.8840   10.2530   14.6660 O   0  0  0  0  0  0  0  0  0  0  0  0
    8.8330    8.1830   13.8510 C   0  0  0  0  0  0  0  0  0  0  0  0
    7.9630    7.2600   14.2180 C   0  0  0  0  0  0  0  0  0  0  0  0
    8.0480    5.9790   13.6920 O   0  0  0  0  0  0  0  0  0  0  0  0
    6.8960    7.5210   15.1710 C   0  0  0  0  0  0  0  0  0  0  0  0
    6.8950    7.2890   16.4950 N   0  0  0  0  0  0  0  0  0  0  0  0
    5.7270    7.7050   17.0390 C   0  0  0  0  0  0  0  0  0  0  0  0
    4.9960    8.2010   16.0280 N   0  0  0  0  0  0  0  0  0  0  0  0
    5.6640    8.1100   14.8800 C   0  0  0  0  0  0  0  0  0  0  0  0
    5.2620    8.5240   13.5100 C   0  0  0  0  0  0  0  0  0  0  0  0
    5.4510    7.5790   18.3830 C   0  0  0  0  0  0  0  0  0  0  0  0
    6.3640    7.0150   19.2430 C   0  0  0  0  0  0  0  0  0  0  0  0
    7.5570    6.5850   18.7060 C   0  0  0  0  0  0  0  0  0  0  0  0
    7.7810    6.7330   17.3720 C   0  0  0  0  0  0  0  0  0  0  0  0
   12.3970    8.7770   13.7460 C   0  0  0  0  0  0  0  0  0  0  0  0
   13.3480    8.3850   12.7290 C   0  0  0  0  0  0  0  0  0  0  0  0
   13.4210    6.9230   12.3560 C   0  0  0  0  0  0  0  0  0  0  0  0
   13.9250    6.1150   13.4620 N   0  0  0  0  0  4  0  0  0  0  0  0
   14.7970    6.8240   14.3510 C   0  0  0  0  0  0  0  0  0  0  0  0
   16.2440    6.8110   13.9540 C   0  0  0  0  0  0  0  0  0  0  0  0
   16.4590    6.3970   12.6670 O   0  0  0  0  0  0  0  0  0  0  0  0
   15.8850    5.2000   12.3290 C   0  0  0  0  0  0  0  0  0  0  0  0
   14.5840    4.9280   13.0100 C   0  0  0  0  0  0  0  0  0  0  0  0
   10.9670    3.6070   13.0720 H   0  0  0  0  0  0  0  0  0  0  0  0
   10.6010    5.7380   14.1860 H   0  0  0  0  0  0  0  0  0  0  0  0
    9.8490    7.4840   10.3040 H   0  0  0  0  0  0  0  0  0  0  0  0
   10.2220    5.3140    9.2560 H   0  0  0  0  0  0  0  0  0  0  0  0
    9.6280    8.7430   12.0390 H   0  0  0  0  0  0  0  0  0  0  0  0
    6.1270    9.0200   13.0280 H   0  0  0  0  0  0  0  0  0  0  0  0
    4.4430    9.2480   13.6100 H   0  0  0  0  0  0  0  0  0  0  0  0
    4.9380    7.6190   12.9670 H   0  0  0  0  0  0  0  0  0  0  0  0
    4.5120    7.9210   18.7820 H   0  0  0  0  0  0  0  0  0  0  0  0
    6.1940    6.8970   20.2890 H   0  0  0  0  0  0  0  0  0  0  0  0
    8.2840    6.1440   19.3640 H   0  0  0  0  0  0  0  0  0  0  0  0
    8.7310    6.3820   16.9380 H   0  0  0  0  0  0  0  0  0  0  0  0
   12.6320    8.2090   14.7030 H   0  0  0  0  0  0  0  0  0  0  0  0
   12.6750    9.8360   14.0550 H   0  0  0  0  0  0  0  0  0  0  0  0
   13.4730    9.0610   11.8410 H   0  0  0  0  0  0  0  0  0  0  0  0
   14.3790    8.5580   13.2060 H   0  0  0  0  0  0  0  0  0  0  0  0
   14.1430    6.7430   11.5270 H   0  0  0  0  0  0  0  0  0  0  0  0
   12.4000    6.5660   12.1400 H   0  0  0  0  0  0  0  0  0  0  0  0
   13.0830    5.8340   14.0230 H   0  0  0  0  0  0  0  0  0  0  0  0
   14.4560    7.8440   14.6250 H   0  0  0  0  0  0  0  0  0  0  0  0
   14.7540    6.2520   15.3290 H   0  0  0  0  0  0  0  0  0  0  0  0
   16.9020    6.2680   14.6890 H   0  0  0  0  0  0  0  0  0  0  0  0
   16.6110    7.8760   14.0180 H   0  0  0  0  0  0  0  0  0  0  0  0
   16.6000    4.3380   12.4460 H   0  0  0  0  0  0  0  0  0  0  0  0
   15.6780    5.2300   11.2200 H   0  0  0  0  0  0  0  0  0  0  0  0
   14.8020    4.3100   13.9140 H   0  0  0  0  0  0  0  0  0  0  0  0
   13.8730    4.3320   12.4020 H   0  0  0  0  0  0  0  0  0  0  0  0
  1  2  1  0  0  0  0
  2  3  1  0  0  0  0
  3 36  1  0  0  0  0
  3  4  2  0  0  0  0
  4 37  1  0  0  0  0
  5  8  1  0  0  0  0
  5  4  1  0  0  0  0
  6  5  2  0  0  0  0
  7  6  1  0  0  0  0
  7  2  2  0  0  0  0
  8 40  1  6  0  0  0
  8  9  1  0  0  0  0
  8 14  1  0  0  0  0
  9 27  1  0  0  0  0
  9 10  1  0  0  0  0
 10 12  1  0  0  0  0
 10 11  2  0  0  0  0
 12 13  2  0  0  0  0
 14 15  2  0  0  0  0
 14 12  1  0  0  0  0
 15 17  1  0  0  0  0
 16 15  1  0  0  0  0
 17 18  1  0  0  0  0
 18 19  1  0  0  0  0
 18 26  1  0  0  0  0
 19 23  1  0  0  0  0
 20 19  2  0  0  0  0
 21 17  2  0  0  0  0
 21 20  1  0  0  0  0
 22 42  1  0  0  0  0
 22 21  1  0  0  0  0
 23 44  1  0  0  0  0
 23 24  2  0  0  0  0
 24 45  1  0  0  0  0
 25 24  1  0  0  0  0
 25 46  1  0  0  0  0
 26 25  2  0  0  0  0
 27 49  1  0  0  0  0
 27 48  1  0  0  0  0
 28 51  1  0  0  0  0
 28 27  1  0  0  0  0
 29 28  1  0  0  0  0
 29 30  1  0  0  0  0
 30 54  1  0  0  0  0
 30 31  1  0  0  0  0
 31 55  1  0  0  0  0
 31 56  1  0  0  0  0
 32 58  1  0  0  0  0
 32 31  1  0  0  0  0
 32 57  1  0  0  0  0
 33 32  1  0  0  0  0
 34 59  1  0  0  0  0
 34 33  1  0  0  0  0
 34 35  1  0  0  0  0
 35 30  1  0  0  0  0
 35 61  1  0  0  0  0
 38  6  1  0  0  0  0
 39  7  1  0  0  0  0
 41 22  1  0  0  0  0
 43 22  1  0  0  0  0
 47 26  1  0  0  0  0
 50 28  1  0  0  0  0
 52 29  1  0  0  0  0
 53 29  1  0  0  0  0
 60 34  1  0  0  0  0
 62 35  1  0  0  0  0
M  END
>  <Pose>
1

>  <Score>
-5.46

$$$$
