
 OpenBabel03172210413D

 47 50  0  0  1  0  0  0  0  0999 V2000
   12.0370   -0.9460    8.1300 B   0  0  0  0  0  0  0  0  0  0  0  0
   12.0490    0.7410    9.0370 C   0  0  0  0  0  0  0  0  0  0  0  0
   10.8920    1.3430    9.4500 C   0  0  0  0  0  0  0  0  0  0  0  0
   10.9070    2.5750   10.1110 C   0  0  0  0  0  0  0  0  0  0  0  0
   12.0770    3.2270   10.3740 C   0  0  0  0  0  0  0  0  0  0  0  0
   13.2340    2.6310    9.9640 C   0  0  0  0  0  0  0  0  0  0  0  0
   13.2300    1.3950    9.2980 C   0  0  0  0  0  0  0  0  0  0  0  0
   12.0980    4.4860   11.0510 N   0  0  0  0  0  0  0  0  0  0  0  0
   11.1130    5.5130   11.0660 C   0  0  0  0  0  0  0  0  0  0  0  0
   10.0740    5.5200   10.3710 O   0  0  0  0  0  0  0  0  0  0  0  0
   11.4700    6.5820   12.0100 C   0  0  2  0  0  0  0  0  0  0  0  0
   12.9840    6.4280   12.1070 C   0  0  0  0  0  0  0  0  0  0  0  0
   13.1720    4.9590   11.8860 C   0  0  0  0  0  0  0  0  0  0  0  0
   14.1350    4.3520   12.3910 O   0  0  0  0  0  0  0  0  0  0  0  0
   10.8700    6.4730   13.3200 N   0  0  0  0  0  4  0  0  0  0  0  0
   11.0140    7.6820   14.0950 C   0  0  0  0  0  0  0  0  0  0  0  0
    9.8030    8.5880   14.0700 C   0  0  0  0  0  0  0  0  0  0  0  0
    8.5800    7.8320   14.1580 N   0  0  0  0  0  0  0  0  0  0  0  0
    8.7620    6.4390   14.4900 C   0  0  0  0  0  0  0  0  0  0  0  0
    9.5820    5.8780   13.3140 C   0  0  0  0  0  0  0  0  0  0  0  0
    7.3100    8.3710   13.9260 C   0  0  0  0  0  0  0  0  0  0  0  0
    6.7700    9.4580   14.5830 C   0  0  0  0  0  0  0  0  0  0  0  0
    5.4940    9.9370   14.3310 C   0  0  0  0  0  0  0  0  0  0  0  0
    4.7050    9.3270   13.3940 C   0  0  0  0  0  0  0  0  0  0  0  0
    5.1940    8.2340   12.7080 C   0  0  0  0  0  0  0  0  0  0  0  0
    6.4710    7.7750   12.9770 C   0  0  0  0  0  0  0  0  0  0  0  0
    3.4120    9.7580   13.0930 O   0  0  0  0  0  0  0  0  0  0  0  0
    9.9640    0.8500    9.2550 H   0  0  0  0  0  0  0  0  0  0  0  0
    9.9600    2.9620   10.3930 H   0  0  0  0  0  0  0  0  0  0  0  0
   14.2010    3.0440   10.1110 H   0  0  0  0  0  0  0  0  0  0  0  0
   14.1490    0.9300    8.9790 H   0  0  0  0  0  0  0  0  0  0  0  0
   11.3160    7.6010   11.5830 H   0  0  0  0  0  0  0  0  0  0  0  0
   13.4990    7.0280   11.3400 H   0  0  0  0  0  0  0  0  0  0  0  0
   13.3000    6.7210   13.1240 H   0  0  0  0  0  0  0  0  0  0  0  0
   11.5090    5.7730   13.8290 H   0  0  0  0  0  0  0  0  0  0  0  0
   11.8700    8.2570   13.6790 H   0  0  0  0  0  0  0  0  0  0  0  0
   11.2640    7.4710   15.1590 H   0  0  0  0  0  0  0  0  0  0  0  0
    9.8650    9.2160   15.0060 H   0  0  0  0  0  0  0  0  0  0  0  0
    9.9060    9.2540   13.2250 H   0  0  0  0  0  0  0  0  0  0  0  0
    9.4000    6.3730   15.3950 H   0  0  0  0  0  0  0  0  0  0  0  0
    7.8690    5.8550   14.6390 H   0  0  0  0  0  0  0  0  0  0  0  0
    9.0710    6.1380   12.3540 H   0  0  0  0  0  0  0  0  0  0  0  0
    9.6630    4.7860   13.3850 H   0  0  0  0  0  0  0  0  0  0  0  0
    7.3990    9.9630   15.3370 H   0  0  0  0  0  0  0  0  0  0  0  0
    5.1460   10.7790   14.8750 H   0  0  0  0  0  0  0  0  0  0  0  0
    4.5930    7.7270   11.9610 H   0  0  0  0  0  0  0  0  0  0  0  0
    6.8810    6.9140   12.4500 H   0  0  0  0  0  0  0  0  0  0  0  0
  1  2  1  0  0  0  0
  2  7  2  0  0  0  0
  2  3  1  0  0  0  0
  3  4  2  0  0  0  0
  4  5  1  0  0  0  0
  4 29  1  0  0  0  0
  5  8  1  0  0  0  0
  6 30  1  0  0  0  0
  6  5  2  0  0  0  0
  7  6  1  0  0  0  0
  8  9  1  0  0  0  0
  8 13  1  0  0  0  0
  9 11  1  0  0  0  0
 10  9  2  0  0  0  0
 11 32  1  6  0  0  0
 11 12  1  0  0  0  0
 11 15  1  0  0  0  0
 12 34  1  0  0  0  0
 13 12  1  0  0  0  0
 13 14  2  0  0  0  0
 15 35  1  0  0  0  0
 15 16  1  0  0  0  0
 16 37  1  0  0  0  0
 17 16  1  0  0  0  0
 17 18  1  0  0  0  0
 17 38  1  0  0  0  0
 18 19  1  0  0  0  0
 19 41  1  0  0  0  0
 19 40  1  0  0  0  0
 20 15  1  0  0  0  0
 20 43  1  0  0  0  0
 20 19  1  0  0  0  0
 21 18  1  0  0  0  0
 21 22  1  0  0  0  0
 22 44  1  0  0  0  0
 23 22  2  0  0  0  0
 23 45  1  0  0  0  0
 24 23  1  0  0  0  0
 25 26  1  0  0  0  0
 25 24  2  0  0  0  0
 26 21  2  0  0  0  0
 27 24  1  0  0  0  0
 28  3  1  0  0  0  0
 31  7  1  0  0  0  0
 33 12  1  0  0  0  0
 36 16  1  0  0  0  0
 39 17  1  0  0  0  0
 42 20  1  0  0  0  0
 46 25  1  0  0  0  0
 47 26  1  0  0  0  0
M  END
>  <Pose>
1

>  <Score>
-5.97

$$$$
