
 OpenBabel03172210413D

 44 47  0  0  0  0  0  0  0  0999 V2000
    9.3780   -1.3580    7.6540 B   0  0  0  0  0  0  0  0  0  0  0  0
   10.8360   -0.2840    8.2920 C   0  0  0  0  0  0  0  0  0  0  0  0
   10.6140    0.8010    9.1120 C   0  0  0  0  0  0  0  0  0  0  0  0
   11.6620    1.5760    9.5720 C   0  0  0  0  0  0  0  0  0  0  0  0
   12.9740    1.2960    9.2290 C   0  0  0  0  0  0  0  0  0  0  0  0
   13.1740    0.2060    8.4070 C   0  0  0  0  0  0  0  0  0  0  0  0
   12.1370   -0.5720    7.9450 C   0  0  0  0  0  0  0  0  0  0  0  0
   14.0380    2.1090    9.7160 N   0  0  0  0  0  0  0  0  0  0  0  0
   13.9650    3.0850   10.6370 C   0  0  0  0  0  0  0  0  0  0  0  0
   12.8900    3.4250   11.2200 O   0  0  0  0  0  0  0  0  0  0  0  0
   15.2170    3.6600   10.8570 C   0  0  0  0  0  0  0  0  0  0  0  0
   16.0510    3.0110   10.0500 C   0  0  0  0  0  0  0  0  0  0  0  0
   17.2480    3.5810   10.2780 N   0  0  0  0  0  0  0  0  0  0  0  0
   17.1380    4.5350   11.1880 N   0  0  0  0  0  0  0  0  0  0  0  0
   15.8810    4.5920   11.5540 N   0  0  0  0  0  0  0  0  0  0  0  0
   15.2920    5.4810   12.5230 C   0  0  0  0  0  0  0  0  0  0  0  0
   14.6080    6.6470   11.8700 C   0  0  0  0  0  0  0  0  0  0  0  0
   13.3860    6.4730   11.6480 O   0  0  0  0  0  0  0  0  0  0  0  0
   15.2820    7.8250   11.5380 N   0  0  0  0  0  0  0  0  0  0  0  0
   16.6660    8.0340   11.5180 C   0  0  0  0  0  0  0  0  0  0  0  0
   17.2090    8.8340   12.5370 C   0  0  0  0  0  0  0  0  0  0  0  0
   18.5610    9.0650   12.5560 C   0  0  0  0  0  0  0  0  0  0  0  0
   19.4240    8.5430   11.6150 C   0  0  0  0  0  0  0  0  0  0  0  0
   18.9040    7.7660   10.6230 C   0  0  0  0  0  0  0  0  0  0  0  0
   17.5460    7.5280   10.5930 C   0  0  0  0  0  0  0  0  0  0  0  0
   16.3560    9.4300   13.5840 C   0  0  0  0  0  0  0  0  0  0  0  0
   15.3380    2.0600    9.3470 C   0  0  0  0  0  0  0  0  0  0  0  0
   15.7830    1.2600    8.4960 O   0  0  0  0  0  0  0  0  0  0  0  0
    9.6000    1.0560    9.4060 H   0  0  0  0  0  0  0  0  0  0  0  0
   11.4950    2.4370   10.2230 H   0  0  0  0  0  0  0  0  0  0  0  0
   14.1820   -0.0360    8.1250 H   0  0  0  0  0  0  0  0  0  0  0  0
   12.2830   -1.4360    7.2950 H   0  0  0  0  0  0  0  0  0  0  0  0
   18.1110    3.2620    9.7680 H   0  0  0  0  0  0  0  0  0  0  0  0
   17.9490    5.1080   11.5150 H   0  0  0  0  0  0  0  0  0  0  0  0
   14.4800    4.9580   13.0980 H   0  0  0  0  0  0  0  0  0  0  0  0
   16.1050    5.8220   13.2010 H   0  0  0  0  0  0  0  0  0  0  0  0
   14.6380    8.6440   11.2730 H   0  0  0  0  0  0  0  0  0  0  0  0
   19.0250    9.6840   13.3360 H   0  0  0  0  0  0  0  0  0  0  0  0
   20.5000    8.7350   11.6420 H   0  0  0  0  0  0  0  0  0  0  0  0
   19.5740    7.3450    9.8660 H   0  0  0  0  0  0  0  0  0  0  0  0
   17.1940    6.9120    9.7930 H   0  0  0  0  0  0  0  0  0  0  0  0
   16.9320   10.1900   14.1460 H   0  0  0  0  0  0  0  0  0  0  0  0
   15.5000    9.9800   13.1210 H   0  0  0  0  0  0  0  0  0  0  0  0
   15.9740    8.7000   14.3150 H   0  0  0  0  0  0  0  0  0  0  0  0
  1  2  1  0  0  0  0
  2  3  1  0  0  0  0
  3 29  1  0  0  0  0
  3  4  2  0  0  0  0
  4 30  1  0  0  0  0
  5  4  1  0  0  0  0
  5  8  1  0  0  0  0
  6  5  2  0  0  0  0
  7  2  2  0  0  0  0
  7  6  1  0  0  0  0
  8  9  1  0  0  0  0
  9 11  1  0  0  0  0
  9 10  2  0  0  0  0
 11 15  1  0  0  0  0
 12 13  1  0  0  0  0
 12 11  2  0  0  0  0
 13 14  1  0  0  0  0
 14 34  1  0  0  0  0
 14 15  1  0  0  0  0
 15 16  1  0  0  0  0
 16 35  1  0  0  0  0
 16 36  1  0  0  0  0
 17 16  1  0  0  0  0
 18 17  2  0  0  0  0
 19 17  1  0  0  0  0
 20 19  1  0  0  0  0
 20 21  1  0  0  0  0
 21 22  2  0  0  0  0
 21 26  1  0  0  0  0
 22 38  1  0  0  0  0
 23 39  1  0  0  0  0
 23 22  1  0  0  0  0
 24 23  2  0  0  0  0
 25 24  1  0  0  0  0
 25 20  2  0  0  0  0
 26 42  1  0  0  0  0
 26 44  1  0  0  0  0
 27  8  1  0  0  0  0
 27 12  1  0  0  0  0
 28 27  2  0  0  0  0
 31  6  1  0  0  0  0
 32  7  1  0  0  0  0
 33 13  1  0  0  0  0
 37 19  1  0  0  0  0
 40 24  1  0  0  0  0
 41 25  1  0  0  0  0
 43 26  1  0  0  0  0
M  END
>  <Pose>
1

>  <Score>
-7.05

$$$$
