
 OpenBabel03172210413D

 49 52  0  0  0  0  0  0  0  0999 V2000
   11.1240   -1.1650    8.8270 B   0  0  0  0  0  0  0  0  0  0  0  0
   11.5150    0.6330    9.3560 C   0  0  0  0  0  0  0  0  0  0  0  0
   10.5070    1.5240    9.6690 C   0  0  0  0  0  0  0  0  0  0  0  0
   10.7970    2.8300   10.0540 C   0  0  0  0  0  0  0  0  0  0  0  0
   12.0970    3.2840   10.1350 C   0  0  0  0  0  0  0  0  0  0  0  0
   13.0980    2.3910    9.8210 C   0  0  0  0  0  0  0  0  0  0  0  0
   12.8130    1.0950    9.4410 C   0  0  0  0  0  0  0  0  0  0  0  0
   12.4310    4.6110   10.5240 N   0  0  0  0  0  0  0  0  0  0  0  0
   13.4260    5.0580   11.3080 C   0  0  0  0  0  0  0  0  0  0  0  0
   14.2620    4.2860   11.8430 O   0  0  0  0  0  0  0  0  0  0  0  0
   13.3880    6.4370   11.4280 C   0  0  0  0  0  0  0  0  0  0  0  0
   12.3500    6.8350   10.7020 C   0  0  0  0  0  0  0  0  0  0  0  0
   12.3130    8.1710   10.8190 N   0  0  0  0  0  0  0  0  0  0  0  0
   13.3020    8.5780   11.5950 N   0  0  0  0  0  0  0  0  0  0  0  0
   13.9750    7.5260   11.9790 N   0  0  0  0  0  0  0  0  0  0  0  0
   15.1370    7.4870   12.8350 C   0  0  0  0  0  0  0  0  0  0  0  0
   14.7370    6.9450   14.1870 C   0  0  0  0  0  0  0  0  0  0  0  0
   14.9320    5.7360   14.4430 O   0  0  0  0  0  0  0  0  0  0  0  0
   14.1540    7.7930   15.1400 N   0  0  0  0  0  0  0  0  0  0  0  0
   13.5320    9.0290   14.8750 C   0  0  0  0  0  0  0  0  0  0  0  0
   12.2030    9.2180   14.5900 C   0  0  0  0  0  0  0  0  0  0  0  0
   11.6580   10.4560   14.3210 C   0  0  0  0  0  0  0  0  0  0  0  0
   12.4950   11.5520   14.3440 C   0  0  0  0  0  0  0  0  0  0  0  0
   13.8430   11.4050   14.6280 C   0  0  0  0  0  0  0  0  0  0  0  0
   14.3630   10.1660   14.8900 C   0  0  0  0  0  0  0  0  0  0  0  0
   11.9650   12.8110   14.0760 O   0  0  0  0  0  0  0  0  0  0  0  0
   12.8430   13.8850   13.8010 C   0  0  0  0  0  0  0  0  0  0  0  0
   10.3040   10.6170   14.0350 O   0  0  0  0  0  0  0  0  0  0  0  0
    9.5460    9.4380   13.7350 C   0  0  0  0  0  0  0  0  0  0  0  0
   11.7570    5.7200   10.1460 C   0  0  0  0  0  0  0  0  0  0  0  0
   10.7310    5.7310    9.3880 O   0  0  0  0  0  0  0  0  0  0  0  0
    9.4840    1.1580    9.6020 H   0  0  0  0  0  0  0  0  0  0  0  0
   10.0050    3.5170   10.2950 H   0  0  0  0  0  0  0  0  0  0  0  0
   14.1200    2.7560    9.8890 H   0  0  0  0  0  0  0  0  0  0  0  0
   13.6290    0.4100    9.1980 H   0  0  0  0  0  0  0  0  0  0  0  0
   11.6280    8.8190   10.3830 H   0  0  0  0  0  0  0  0  0  0  0  0
   13.5330    9.5780   11.8730 H   0  0  0  0  0  0  0  0  0  0  0  0
   15.5830    8.4950   13.0040 H   0  0  0  0  0  0  0  0  0  0  0  0
   15.9020    6.7990   12.4440 H   0  0  0  0  0  0  0  0  0  0  0  0
   14.1830    7.4620   16.1590 H   0  0  0  0  0  0  0  0  0  0  0  0
   11.5240    8.3770   14.5750 H   0  0  0  0  0  0  0  0  0  0  0  0
   14.4770   12.2930   14.6370 H   0  0  0  0  0  0  0  0  0  0  0  0
   15.4390   10.0630   15.1150 H   0  0  0  0  0  0  0  0  0  0  0  0
   13.5010   13.5440   12.9660 H   0  0  0  0  0  0  0  0  0  0  0  0
   13.4620   14.0890   14.6830 H   0  0  0  0  0  0  0  0  0  0  0  0
   12.2440   14.7660   13.4730 H   0  0  0  0  0  0  0  0  0  0  0  0
    9.5000    8.7730   14.6420 H   0  0  0  0  0  0  0  0  0  0  0  0
    8.5180    9.7050   13.4200 H   0  0  0  0  0  0  0  0  0  0  0  0
   10.0280    8.8670   12.9150 H   0  0  0  0  0  0  0  0  0  0  0  0
  1  2  1  0  0  0  0
  2  7  2  0  0  0  0
  2  3  1  0  0  0  0
  3  4  2  0  0  0  0
  4  5  1  0  0  0  0
  4 33  1  0  0  0  0
  5  8  1  0  0  0  0
  6 34  1  0  0  0  0
  6  5  2  0  0  0  0
  7  6  1  0  0  0  0
  8  9  1  0  0  0  0
  9 11  1  0  0  0  0
  9 10  2  0  0  0  0
 11 15  1  0  0  0  0
 12 13  1  0  0  0  0
 12 11  2  0  0  0  0
 13 14  1  0  0  0  0
 14 37  1  0  0  0  0
 14 15  1  0  0  0  0
 15 16  1  0  0  0  0
 16 38  1  0  0  0  0
 16 17  1  0  0  0  0
 17 18  2  0  0  0  0
 17 19  1  0  0  0  0
 19 40  1  0  0  0  0
 20 25  1  0  0  0  0
 20 19  1  0  0  0  0
 21 20  2  0  0  0  0
 22 23  2  0  0  0  0
 22 21  1  0  0  0  0
 23 24  1  0  0  0  0
 24 42  1  0  0  0  0
 24 25  2  0  0  0  0
 25 43  1  0  0  0  0
 26 23  1  0  0  0  0
 27 26  1  0  0  0  0
 27 45  1  0  0  0  0
 28 22  1  0  0  0  0
 29 28  1  0  0  0  0
 29 47  1  0  0  0  0
 30  8  1  0  0  0  0
 30 12  1  0  0  0  0
 31 30  2  0  0  0  0
 32  3  1  0  0  0  0
 35  7  1  0  0  0  0
 36 13  1  0  0  0  0
 39 16  1  0  0  0  0
 41 21  1  0  0  0  0
 44 27  1  0  0  0  0
 46 27  1  0  0  0  0
 48 29  1  0  0  0  0
 49 29  1  0  0  0  0
M  END
>  <Pose>
1

>  <Score>
-7.01

$$$$
