
 OpenBabel03172210413D

 36 39  0  0  0  0  0  0  0  0999 V2000
   16.0130    6.6720   12.1520 B   0  0  0  0  0  0  0  0  0  0  0  0
   14.1040    6.5670   12.0470 C   0  0  0  0  0  0  0  0  0  0  0  0
   13.3420    7.6340   11.6170 C   0  0  0  0  0  0  0  0  0  0  0  0
   11.9550    7.5440   11.5470 C   0  0  0  0  0  0  0  0  0  0  0  0
   11.2970    6.3850   11.9040 C   0  0  0  0  0  0  0  0  0  0  0  0
   12.0710    5.3260   12.3320 C   0  0  0  0  0  0  0  0  0  0  0  0
   13.4490    5.4070   12.4060 C   0  0  0  0  0  0  0  0  0  0  0  0
    9.8710    6.2600   11.8420 N   0  0  0  0  0  0  0  0  0  0  0  0
    8.9890    6.7660   12.7330 C   0  0  0  0  0  0  0  0  0  0  0  0
    9.2470    7.4410   13.7800 O   0  0  0  0  0  0  0  0  0  0  0  0
    7.6910    6.4580   12.3690 C   0  0  0  0  0  0  0  0  0  0  0  0
    7.8050    5.7550   11.2400 C   0  0  0  0  0  0  0  0  0  0  0  0
    6.5340    5.4520   10.8810 N   0  0  0  0  0  0  0  0  0  0  0  0
    5.7100    5.9660   11.7780 N   0  0  0  0  0  0  0  0  0  0  0  0
    6.3990    6.5960   12.7140 N   0  0  0  0  0  0  0  0  0  0  0  0
    5.8690    7.2820   13.8550 C   0  0  0  0  0  0  0  0  0  0  0  0
    5.5990    8.6350   13.8110 C   0  0  0  0  0  0  0  0  0  0  0  0
    5.0840    9.3270   14.9000 C   0  0  0  0  0  0  0  0  0  0  0  0
    4.8240    8.6620   16.0800 C   0  0  0  0  0  0  0  0  0  0  0  0
    5.0930    7.3110   16.1270 C   0  0  0  0  0  0  0  0  0  0  0  0
    5.6060    6.6230   15.0380 C   0  0  0  0  0  0  0  0  0  0  0  0
    4.2970    9.3440   17.2140 N   0  0  0  0  0  0  0  0  0  0  0  0
    3.0790    9.3550   17.4740 O   0  0  0  0  0  0  0  0  0  0  0  0
    5.1440   10.0080   18.0430 O   0  0  0  0  0  0  0  0  0  0  0  0
    9.1380    5.6280   10.9100 C   0  0  0  0  0  0  0  0  0  0  0  0
    9.6390    5.0370    9.9210 O   0  0  0  0  0  0  0  0  0  0  0  0
   13.8720    8.5430   11.3380 H   0  0  0  0  0  0  0  0  0  0  0  0
   11.3650    8.3660   11.2150 H   0  0  0  0  0  0  0  0  0  0  0  0
   11.5650    4.4030   12.6170 H   0  0  0  0  0  0  0  0  0  0  0  0
   14.0510    4.5580   12.7470 H   0  0  0  0  0  0  0  0  0  0  0  0
    6.2760    4.8960   10.0240 H   0  0  0  0  0  0  0  0  0  0  0  0
    4.6580    5.9070   11.7880 H   0  0  0  0  0  0  0  0  0  0  0  0
    5.7940    9.1720   12.8990 H   0  0  0  0  0  0  0  0  0  0  0  0
    4.8750   10.4020   14.8470 H   0  0  0  0  0  0  0  0  0  0  0  0
    4.8830    6.8070   17.0580 H   0  0  0  0  0  0  0  0  0  0  0  0
    5.8130    5.5650   15.0860 H   0  0  0  0  0  0  0  0  0  0  0  0
  2  1  1  0  0  0  0
  2  7  1  0  0  0  0
  3  2  2  0  0  0  0
  4  3  1  0  0  0  0
  4  5  2  0  0  0  0
  5  6  1  0  0  0  0
  6  7  2  0  0  0  0
  6 29  1  0  0  0  0
  7 30  1  0  0  0  0
  8  5  1  0  0  0  0
  8  9  1  0  0  0  0
  9 10  2  0  0  0  0
 11 15  1  0  0  0  0
 11  9  1  0  0  0  0
 12 11  2  0  0  0  0
 13 12  1  0  0  0  0
 13 14  1  0  0  0  0
 14 32  1  0  0  0  0
 14 15  1  0  0  0  0
 15 16  1  0  0  0  0
 16 21  1  0  0  0  0
 17 16  2  0  0  0  0
 17 18  1  0  0  0  0
 18 19  2  0  0  0  0
 19 20  1  0  0  0  0
 19 22  1  0  0  0  0
 20 35  1  0  0  0  0
 21 36  1  0  0  0  0
 21 20  2  0  0  0  0
 22 23  2  0  0  0  0
 22 24  2  0  0  0  0
 25 12  1  0  0  0  0
 25  8  1  0  0  0  0
 26 25  2  0  0  0  0
 27  3  1  0  0  0  0
 28  4  1  0  0  0  0
 31 13  1  0  0  0  0
 33 17  1  0  0  0  0
 34 18  1  0  0  0  0
M  END
>  <Pose>
1

>  <Score>
-6.40

$$$$
