
 OpenBabel03172210413D

 41 44  0  0  1  0  0  0  0  0999 V2000
    9.7140   -0.9390    8.4340 B   0  0  0  0  0  0  0  0  0  0  0  0
   11.1860    0.1860    8.9640 C   0  0  0  0  0  0  0  0  0  0  0  0
   12.4730   -0.2450    8.7670 C   0  0  0  0  0  0  0  0  0  0  0  0
   13.4980    0.5610    9.1470 C   0  0  0  0  0  0  0  0  0  0  0  0
   13.3270    1.8190    9.7370 C   0  0  0  0  0  0  0  0  0  0  0  0
   12.0330    2.2270    9.9230 C   0  0  0  0  0  0  0  0  0  0  0  0
   10.9750    1.4230    9.5430 C   0  0  0  0  0  0  0  0  0  0  0  0
   14.4510    2.5920   10.1020 N   0  0  0  0  0  0  0  0  0  0  0  0
   15.8270    2.4120    9.7140 C   0  0  0  0  0  0  0  0  0  0  0  0
   16.2390    1.8320    8.6700 O   0  0  0  0  0  0  0  0  0  0  0  0
   16.6550    3.0370   10.7710 C   0  0  1  0  0  0  0  0  0  0  0  0
   17.8800    3.6470   10.2920 N   0  0  0  0  0  0  0  0  0  0  0  0
   17.9210    4.7700   11.1750 N   0  0  0  0  0  0  0  0  0  0  0  0
   16.5980    5.2890   11.3130 C   0  0  0  0  0  0  0  0  0  0  0  0
   15.8050    4.2510   11.0700 C   0  0  0  0  0  0  0  0  0  0  0  0
   14.4430    3.7450   10.9510 C   0  0  0  0  0  0  0  0  0  0  0  0
   13.4770    4.3050   11.5410 O   0  0  0  0  0  0  0  0  0  0  0  0
   16.1900    6.6480   11.6500 C   0  0  0  0  0  0  0  0  0  0  0  0
   15.4320    6.8890   12.6180 O   0  0  0  0  0  0  0  0  0  0  0  0
   16.6160    7.7490   10.9210 O   0  0  0  0  0  0  0  0  0  0  0  0
   17.9800    8.1470   10.8990 C   0  0  0  0  0  0  0  0  0  0  0  0
   18.1260    9.4550   11.6210 C   0  0  0  0  0  0  0  0  0  0  0  0
   17.3080    9.7540   12.7090 C   0  0  0  0  0  0  0  0  0  0  0  0
   17.4110   10.9320   13.3980 C   0  0  0  0  0  0  0  0  0  0  0  0
   18.3640   11.8650   12.9990 C   0  0  0  0  0  0  0  0  0  0  0  0
   19.1700   11.5660   11.9220 C   0  0  0  0  0  0  0  0  0  0  0  0
   19.0570   10.3600   11.2270 C   0  0  0  0  0  0  0  0  0  0  0  0
   12.6450   -1.2200    8.3090 H   0  0  0  0  0  0  0  0  0  0  0  0
   14.5140    0.2240    8.9920 H   0  0  0  0  0  0  0  0  0  0  0  0
   11.8190    3.1880   10.3730 H   0  0  0  0  0  0  0  0  0  0  0  0
    9.9510    1.7370    9.6860 H   0  0  0  0  0  0  0  0  0  0  0  0
   16.8040    2.4110   11.6530 H   0  0  0  0  0  0  0  0  0  0  0  0
   17.6290    4.0610    9.3500 H   0  0  0  0  0  0  0  0  0  0  0  0
   18.7650    5.1540   11.6430 H   0  0  0  0  0  0  0  0  0  0  0  0
   18.6530    7.3910   11.3020 H   0  0  0  0  0  0  0  0  0  0  0  0
   18.2590    8.3390    9.8440 H   0  0  0  0  0  0  0  0  0  0  0  0
   16.5740    9.0440   13.0240 H   0  0  0  0  0  0  0  0  0  0  0  0
   16.7800   11.1700   14.2410 H   0  0  0  0  0  0  0  0  0  0  0  0
   18.4720   12.8130   13.5230 H   0  0  0  0  0  0  0  0  0  0  0  0
   19.9210   12.2430   11.5690 H   0  0  0  0  0  0  0  0  0  0  0  0
   19.7050   10.1580   10.3890 H   0  0  0  0  0  0  0  0  0  0  0  0
  1  2  1  0  0  0  0
  2  7  1  0  0  0  0
  3  2  2  0  0  0  0
  3  4  1  0  0  0  0
  4  5  2  0  0  0  0
  5  6  1  0  0  0  0
  5  8  1  0  0  0  0
  6 30  1  0  0  0  0
  7 31  1  0  0  0  0
  7  6  2  0  0  0  0
  8 16  1  0  0  0  0
  9  8  1  0  0  0  0
  9 11  1  0  0  0  0
 10  9  2  0  0  0  0
 11 15  1  0  0  0  0
 11 32  1  1  0  0  0
 12 11  1  0  0  0  0
 12 13  1  0  0  0  0
 13 14  1  0  0  0  0
 13 34  1  0  0  0  0
 14 18  1  0  0  0  0
 15 14  2  0  0  0  0
 16 15  1  0  0  0  0
 16 17  2  0  0  0  0
 18 19  2  0  0  0  0
 20 18  1  0  0  0  0
 21 20  1  0  0  0  0
 21 35  1  0  0  0  0
 21 22  1  0  0  0  0
 22 23  1  0  0  0  0
 23 37  1  0  0  0  0
 23 24  2  0  0  0  0
 24 38  1  0  0  0  0
 25 24  1  0  0  0  0
 25 39  1  0  0  0  0
 26 25  2  0  0  0  0
 27 22  2  0  0  0  0
 27 26  1  0  0  0  0
 28  3  1  0  0  0  0
 29  4  1  0  0  0  0
 33 12  1  0  0  0  0
 36 21  1  0  0  0  0
 40 26  1  0  0  0  0
 41 27  1  0  0  0  0
M  END
>  <Pose>
1

>  <Score>
-6.59

$$$$
