
 OpenBabel03172210413D

 45 48  0  0  1  0  0  0  0  0999 V2000
    4.3730    7.2550   16.6120 B   0  0  0  0  0  0  0  0  0  0  0  0
    5.6680    6.9580   15.2440 C   0  0  0  0  0  0  0  0  0  0  0  0
    6.7540    6.1690   15.5140 C   0  0  0  0  0  0  0  0  0  0  0  0
    7.7020    5.9490   14.5220 C   0  0  0  0  0  0  0  0  0  0  0  0
    7.5810    6.5020   13.2670 C   0  0  0  0  0  0  0  0  0  0  0  0
    6.4810    7.2920   13.0170 C   0  0  0  0  0  0  0  0  0  0  0  0
    5.5220    7.5270   13.9890 C   0  0  0  0  0  0  0  0  0  0  0  0
    8.5970    6.2210   12.3160 N   0  0  0  0  0  0  0  0  0  0  0  0
    8.2550    5.6970   11.0190 C   0  0  0  0  0  0  0  0  0  0  0  0
    7.0440    5.4880   10.7330 O   0  0  0  0  0  0  0  0  0  0  0  0
    9.3170    5.4440   10.1280 N   0  0  0  0  0  0  0  0  0  0  0  0
   10.5410    5.6470   10.3930 C   0  0  0  0  0  0  0  0  0  0  0  0
   11.0800    6.1790   11.6690 C   0  0  1  0  0  0  0  0  0  0  0  0
   12.0920    5.2150   12.1850 C   0  0  0  0  0  0  0  0  0  0  0  0
   13.1350    5.7410   12.9880 N   0  0  0  0  0  4  0  0  0  0  0  0
   12.9720    7.0740   13.4170 C   0  0  0  0  0  0  0  0  0  0  0  0
   12.3100    8.0040   12.6060 C   0  0  0  0  0  0  0  0  0  0  0  0
   12.1610    9.2920   13.0400 C   0  0  0  0  0  0  0  0  0  0  0  0
   12.6290    9.7480   14.2510 C   0  0  0  0  0  0  0  0  0  0  0  0
   13.2800    8.8280   15.0460 C   0  0  0  0  0  0  0  0  0  0  0  0
   13.4470    7.5130   14.6330 C   0  0  0  0  0  0  0  0  0  0  0  0
   12.4470   11.1520   14.6870 C   0  0  0  0  0  0  0  0  0  0  0  0
   11.8200    7.4700   11.3090 C   0  0  0  0  0  0  0  0  0  0  0  0
   14.4600    5.5600   12.3710 C   0  0  0  0  0  0  0  0  0  0  0  0
    9.9710    6.4460   12.6100 C   0  0  0  0  0  0  0  0  0  0  0  0
   10.2050    6.9090   13.7760 O   0  0  0  0  0  0  0  0  0  0  0  0
   11.5030    5.3490    9.4050 O   0  0  0  0  0  0  0  0  0  0  0  0
    6.8390    5.7390   16.5030 H   0  0  0  0  0  0  0  0  0  0  0  0
    8.5370    5.3140   14.8010 H   0  0  0  0  0  0  0  0  0  0  0  0
    6.3530    7.7440   12.0390 H   0  0  0  0  0  0  0  0  0  0  0  0
    4.6510    8.1390   13.8240 H   0  0  0  0  0  0  0  0  0  0  0  0
   11.5420    4.3800   12.6800 H   0  0  0  0  0  0  0  0  0  0  0  0
   12.5750    4.7320   11.2840 H   0  0  0  0  0  0  0  0  0  0  0  0
   13.1850    5.1510   13.8720 H   0  0  0  0  0  0  0  0  0  0  0  0
   11.6400    9.9860   12.3810 H   0  0  0  0  0  0  0  0  0  0  0  0
   13.6650    9.1490   16.0080 H   0  0  0  0  0  0  0  0  0  0  0  0
   13.9600    6.8130   15.2720 H   0  0  0  0  0  0  0  0  0  0  0  0
   13.1590   11.4720   15.4430 H   0  0  0  0  0  0  0  0  0  0  0  0
   12.4150   11.7910   13.7830 H   0  0  0  0  0  0  0  0  0  0  0  0
   11.4120   11.2000   15.1350 H   0  0  0  0  0  0  0  0  0  0  0  0
   11.1640    8.1770   10.7830 H   0  0  0  0  0  0  0  0  0  0  0  0
   12.6970    7.1590   10.7130 H   0  0  0  0  0  0  0  0  0  0  0  0
   14.7360    6.4240   11.7420 H   0  0  0  0  0  0  0  0  0  0  0  0
   14.4620    4.6070   11.8130 H   0  0  0  0  0  0  0  0  0  0  0  0
   15.2130    5.4950   13.1830 H   0  0  0  0  0  0  0  0  0  0  0  0
  2  3  1  0  0  0  0
  2  1  1  0  0  0  0
  3 28  1  0  0  0  0
  4 29  1  0  0  0  0
  4  3  2  0  0  0  0
  5  4  1  0  0  0  0
  6  5  2  0  0  0  0
  6  7  1  0  0  0  0
  7  2  2  0  0  0  0
  8 25  1  0  0  0  0
  8  5  1  0  0  0  0
  9  8  1  0  0  0  0
 10  9  2  0  0  0  0
 11 12  1  0  0  0  0
 11  9  1  0  0  0  0
 13 12  1  6  0  0  0
 13 14  1  0  0  0  0
 13 25  1  0  0  0  0
 14 32  1  0  0  0  0
 14 15  1  0  0  0  0
 15 16  1  0  0  0  0
 15 34  1  0  0  0  0
 16 21  1  0  0  0  0
 17 18  1  0  0  0  0
 17 16  2  0  0  0  0
 18 19  2  0  0  0  0
 19 22  1  0  0  0  0
 19 20  1  0  0  0  0
 20 36  1  0  0  0  0
 21 20  2  0  0  0  0
 21 37  1  0  0  0  0
 22 40  1  0  0  0  0
 22 38  1  0  0  0  0
 23 13  1  0  0  0  0
 23 17  1  0  0  0  0
 24 15  1  0  0  0  0
 24 45  1  0  0  0  0
 25 26  2  0  0  0  0
 27 12  2  0  0  0  0
 30  6  1  0  0  0  0
 31  7  1  0  0  0  0
 33 14  1  0  0  0  0
 35 18  1  0  0  0  0
 39 22  1  0  0  0  0
 41 23  1  0  0  0  0
 42 23  1  0  0  0  0
 43 24  1  0  0  0  0
 44 24  1  0  0  0  0
M  END
>  <Pose>
1

>  <Score>
-5.92

$$$$
