
 OpenBabel03172210413D

 47 51  0  0  1  0  0  0  0  0999 V2000
   21.6680    7.4260   11.1850 B   0  0  0  0  0  0  0  0  0  0  0  0
   20.1280    6.2930   10.9740 C   0  0  0  0  0  0  0  0  0  0  0  0
   20.0980    5.0220   11.4640 C   0  0  0  0  0  0  0  0  0  0  0  0
   18.9640    4.2330   11.2910 C   0  0  0  0  0  0  0  0  0  0  0  0
   17.8500    4.7030   10.6270 C   0  0  0  0  0  0  0  0  0  0  0  0
   17.9160    5.9930   10.1440 C   0  0  0  0  0  0  0  0  0  0  0  0
   19.0250    6.7930   10.3020 C   0  0  0  0  0  0  0  0  0  0  0  0
   16.7080    3.8700   10.4690 N   0  0  0  0  0  0  0  0  0  0  0  0
   16.5780    2.8060    9.6830 N   0  0  0  0  0  0  0  0  0  0  0  0
   15.3470    2.2770    9.8060 C   0  0  0  0  0  0  0  0  0  0  0  0
   14.8820    1.2110    9.1660 C   0  0  0  0  0  0  0  0  0  0  0  0
   14.6350    3.0300   10.7160 C   0  0  1  0  0  0  0  0  0  0  0  0
   13.3780    2.8620   11.1370 C   0  0  0  0  0  0  0  0  0  0  0  0
   12.8670    3.7830   12.0930 N   0  0  0  0  0  4  0  0  0  0  0  0
   11.8050    4.6970   11.7820 C   0  0  2  0  0  0  0  0  0  0  0  0
   12.2600    5.7250   10.7960 C   0  0  0  0  0  0  0  0  0  0  0  0
   11.1310    6.5700   10.4340 N   0  0  1  0  0  0  0  0  0  0  0  0
   10.1090    5.7150    9.8420 C   0  0  0  0  0  0  0  0  0  0  0  0
    9.6000    4.7550   10.7910 N   0  0  2  0  0  0  0  0  0  0  0  0
    9.1310    5.4510   11.9850 C   0  0  0  0  0  0  0  0  0  0  0  0
   10.1760    6.2520   12.5820 N   0  0  2  0  0  0  0  0  0  0  0  0
   10.6330    7.2250   11.6170 C   0  0  0  0  0  0  0  0  0  0  0  0
   11.2740    5.4150   13.0000 C   0  0  0  0  0  0  0  0  0  0  0  0
   10.6610    3.8670   11.1910 C   0  0  0  0  0  0  0  0  0  0  0  0
   15.5270    4.0180   11.1060 C   0  0  0  0  0  0  0  0  0  0  0  0
   15.2570    4.9150   11.9370 O   0  0  0  0  0  0  0  0  0  0  0  0
   20.9560    4.6370   11.9860 H   0  0  0  0  0  0  0  0  0  0  0  0
   18.9450    3.2270   11.6820 H   0  0  0  0  0  0  0  0  0  0  0  0
   17.0540    6.3760    9.6220 H   0  0  0  0  0  0  0  0  0  0  0  0
   19.0840    7.8110    9.9240 H   0  0  0  0  0  0  0  0  0  0  0  0
   17.3240    2.4350    9.0610 H   0  0  0  0  0  0  0  0  0  0  0  0
   15.5160    0.6820    8.4690 H   0  0  0  0  0  0  0  0  0  0  0  0
   13.8900    0.8300    9.3020 H   0  0  0  0  0  0  0  0  0  0  0  0
   12.8060    2.0430   10.7400 H   0  0  0  0  0  0  0  0  0  0  0  0
   13.2840    3.7820   13.0350 H   0  0  0  0  0  0  0  0  0  0  0  0
   12.7070    5.2380    9.9230 H   0  0  0  0  0  0  0  0  0  0  0  0
   13.0390    6.3470   11.2940 H   0  0  0  0  0  0  0  0  0  0  0  0
   10.5610    5.1810    8.9950 H   0  0  0  0  0  0  0  0  0  0  0  0
    9.2530    6.3540    9.5240 H   0  0  0  0  0  0  0  0  0  0  0  0
    8.6930    4.7240   12.6770 H   0  0  0  0  0  0  0  0  0  0  0  0
    8.3200    6.1260   11.6430 H   0  0  0  0  0  0  0  0  0  0  0  0
   11.4850    7.8170   12.0380 H   0  0  0  0  0  0  0  0  0  0  0  0
    9.8110    7.8960   11.3150 H   0  0  0  0  0  0  0  0  0  0  0  0
   12.0740    6.0550   13.4250 H   0  0  0  0  0  0  0  0  0  0  0  0
   10.9290    4.7070   13.7850 H   0  0  0  0  0  0  0  0  0  0  0  0
   11.0880    3.3710   10.2940 H   0  0  0  0  0  0  0  0  0  0  0  0
   10.3310    3.1530   11.9700 H   0  0  0  0  0  0  0  0  0  0  0  0
  2  1  1  0  0  0  0
  2  3  1  0  0  0  0
  3 27  1  0  0  0  0
  4  3  2  0  0  0  0
  4 28  1  0  0  0  0
  5  4  1  0  0  0  0
  6  7  1  0  0  0  0
  6  5  2  0  0  0  0
  7  2  2  0  0  0  0
  8  5  1  0  0  0  0
  8 25  1  0  0  0  0
  9 10  1  0  0  0  0
  9  8  1  0  0  0  0
 10 12  1  0  0  0  0
 11 33  1  0  0  0  0
 11 10  2  0  0  0  0
 12 25  1  0  0  0  0
 12 13  1  1  0  0  0
 13 14  2  0  0  0  0
 14 35  1  0  0  0  0
 15 14  1  1  0  0  0
 15 23  1  0  0  0  0
 16 37  1  0  0  0  0
 16 15  1  0  0  0  0
 17 18  1  1  0  0  0
 17 16  1  0  0  0  0
 17 22  1  0  0  0  0
 19 18  1  6  0  0  0
 19 24  1  0  0  0  0
 19 20  1  0  0  0  0
 20 21  1  0  0  0  0
 20 40  1  0  0  0  0
 21 22  1  6  0  0  0
 21 23  1  0  0  0  0
 22 42  1  0  0  0  0
 23 44  1  0  0  0  0
 23 45  1  0  0  0  0
 24 15  1  0  0  0  0
 24 47  1  0  0  0  0
 25 26  2  0  0  0  0
 29  6  1  0  0  0  0
 30  7  1  0  0  0  0
 31  9  1  0  0  0  0
 32 11  1  0  0  0  0
 34 13  1  0  0  0  0
 36 16  1  0  0  0  0
 38 18  1  0  0  0  0
 39 18  1  0  0  0  0
 41 20  1  0  0  0  0
 43 22  1  0  0  0  0
 46 24  1  0  0  0  0
M  END
>  <Pose>
1

>  <Score>
-6.09

$$$$
