
 OpenBabel03172210413D

 39 43  0  0  1  0  0  0  0  0999 V2000
   15.2990    1.7130    8.7300 B   0  0  0  0  0  0  0  0  0  0  0  0
   13.5340    1.0040    8.9350 C   0  0  0  0  0  0  0  0  0  0  0  0
   13.0700    0.0280    8.0730 C   0  0  0  0  0  0  0  0  0  0  0  0
   11.7970   -0.4890    8.2040 C   0  0  0  0  0  0  0  0  0  0  0  0
   10.8990   -0.0910    9.1660 C   0  0  0  0  0  0  0  0  0  0  0  0
   11.3640    0.8760   10.0150 C   0  0  0  0  0  0  0  0  0  0  0  0
   12.6410    1.4340    9.9320 C   0  0  0  0  0  0  0  0  0  0  0  0
   13.0500    2.5680   10.7620 C   0  0  0  0  0  0  0  0  0  0  0  0
   12.1450    3.6020   11.0460 N   0  0  2  0  0  4  0  0  0  0  0  0
   11.6620    3.9410    9.6590 C   0  0  0  0  0  0  0  0  0  0  0  0
   10.9580    5.1490    9.5620 N   0  0  2  0  0  0  0  0  0  0  0  0
   11.8220    6.1970   10.0760 C   0  0  0  0  0  0  0  0  0  0  0  0
   12.0310    5.9280   11.4780 N   0  0  2  0  0  0  0  0  0  0  0  0
   12.8060    4.7460   11.6710 C   0  0  0  0  0  0  0  0  0  0  0  0
   10.7860    5.7940   12.2430 C   0  0  0  0  0  0  0  0  0  0  0  0
   10.0870    4.6340   11.7150 N   0  0  2  0  0  0  0  0  0  0  0  0
   10.9300    3.4210   11.7770 C   0  0  0  0  0  0  0  0  0  0  0  0
    9.7360    4.9720   10.3560 C   0  0  0  0  0  0  0  0  0  0  0  0
    9.7590   -0.8430    8.9310 O   0  0  0  0  0  0  0  0  0  0  0  0
    9.7360   -1.1770    7.5150 C   0  0  0  0  0  0  0  0  0  0  0  0
   11.1570   -1.4890    7.4090 O   0  0  0  0  0  0  0  0  0  0  0  0
   13.7710   -0.2510    7.3240 H   0  0  0  0  0  0  0  0  0  0  0  0
   10.6520    1.2240   10.8190 H   0  0  0  0  0  0  0  0  0  0  0  0
   13.9080    3.0970   10.1770 H   0  0  0  0  0  0  0  0  0  0  0  0
   13.6100    2.1290   11.6260 H   0  0  0  0  0  0  0  0  0  0  0  0
   10.9650    3.0710    9.4610 H   0  0  0  0  0  0  0  0  0  0  0  0
   12.4640    3.8600    8.9340 H   0  0  0  0  0  0  0  0  0  0  0  0
   11.4800    7.2180    9.8840 H   0  0  0  0  0  0  0  0  0  0  0  0
   12.8190    6.0120    9.5750 H   0  0  0  0  0  0  0  0  0  0  0  0
   13.8130    4.9340   11.3580 H   0  0  0  0  0  0  0  0  0  0  0  0
   12.7240    4.5040   12.7780 H   0  0  0  0  0  0  0  0  0  0  0  0
   11.0510    5.7420   13.2900 H   0  0  0  0  0  0  0  0  0  0  0  0
   10.1750    6.6740   11.9670 H   0  0  0  0  0  0  0  0  0  0  0  0
   10.2790    2.5800   11.4340 H   0  0  0  0  0  0  0  0  0  0  0  0
   11.1720    3.2830   12.8670 H   0  0  0  0  0  0  0  0  0  0  0  0
    9.1270    4.2340    9.8590 H   0  0  0  0  0  0  0  0  0  0  0  0
    9.2730    5.9820   10.4110 H   0  0  0  0  0  0  0  0  0  0  0  0
    9.6660   -0.2530    6.8710 H   0  0  0  0  0  0  0  0  0  0  0  0
    9.0960   -1.9940    7.2720 H   0  0  0  0  0  0  0  0  0  0  0  0
  1  2  1  0  0  0  0
  2  7  1  0  0  0  0
  3  4  1  0  0  0  0
  3  2  2  0  0  0  0
  4  5  2  0  0  0  0
  5  6  1  0  0  0  0
  6 23  1  0  0  0  0
  7  6  2  0  0  0  0
  7  8  1  0  0  0  0
  8 25  1  0  0  0  0
  9  8  1  1  0  0  0
  9 14  1  0  0  0  0
  9 17  1  0  0  0  0
 10  9  1  0  0  0  0
 11 10  1  1  0  0  0
 11 12  1  0  0  0  0
 11 18  1  0  0  0  0
 13 12  1  6  0  0  0
 13 14  1  0  0  0  0
 13 15  1  0  0  0  0
 14 31  1  0  0  0  0
 15 32  1  0  0  0  0
 16 18  1  6  0  0  0
 16 17  1  0  0  0  0
 16 15  1  0  0  0  0
 17 35  1  0  0  0  0
 18 37  1  0  0  0  0
 19  5  1  0  0  0  0
 20 19  1  0  0  0  0
 21 20  1  0  0  0  0
 21  4  1  0  0  0  0
 22  3  1  0  0  0  0
 24  8  1  0  0  0  0
 26 10  1  0  0  0  0
 27 10  1  0  0  0  0
 28 12  1  0  0  0  0
 29 12  1  0  0  0  0
 30 14  1  0  0  0  0
 33 15  1  0  0  0  0
 34 17  1  0  0  0  0
 36 18  1  0  0  0  0
 38 20  1  0  0  0  0
 39 20  1  0  0  0  0
M  END
>  <Pose>
1

>  <Score>
-5.38

$$$$
