
 OpenBabel03172210413D

 41 44  0  0  0  0  0  0  0  0999 V2000
    6.7530    6.0420   11.7880 B   0  0  0  0  0  0  0  0  0  0  0  0
    6.2180    7.4170   13.0090 C   0  0  0  0  0  0  0  0  0  0  0  0
    5.3220    7.1730   14.0200 C   0  0  0  0  0  0  0  0  0  0  0  0
    4.9480    8.1770   14.8910 C   0  0  0  0  0  0  0  0  0  0  0  0
    5.4880    9.4350   14.7350 C   0  0  0  0  0  0  0  0  0  0  0  0
    6.3980    9.6740   13.7060 C   0  0  0  0  0  0  0  0  0  0  0  0
    6.7820    8.6870   12.8280 C   0  0  0  0  0  0  0  0  0  0  0  0
    7.7720    8.9160   11.7610 C   0  0  0  0  0  0  0  0  0  0  0  0
    9.0960    8.7110   12.1550 O   0  0  0  0  0  0  0  0  0  0  0  0
    9.8060    7.5490   11.9090 C   0  0  0  0  0  0  0  0  0  0  0  0
   10.4070    6.8460   12.9620 C   0  0  0  0  0  0  0  0  0  0  0  0
   11.1200    5.6840   12.7730 C   0  0  0  0  0  0  0  0  0  0  0  0
   11.2720    5.1540   11.5110 C   0  0  0  0  0  0  0  0  0  0  0  0
   10.6860    5.8320   10.4630 C   0  0  0  0  0  0  0  0  0  0  0  0
    9.9630    7.0100   10.6510 C   0  0  0  0  0  0  0  0  0  0  0  0
   12.0290    3.9180   11.2940 C   0  0  0  0  0  0  0  0  0  0  0  0
   12.4670    3.3910   10.1390 N   0  0  0  0  0  0  0  0  0  0  0  0
   13.1140    2.2520   10.4060 N   0  0  0  0  0  0  0  0  0  0  0  0
   13.0870    2.0530   11.7160 N   0  0  0  0  0  0  0  0  0  0  0  0
   12.4270    3.0660   12.2520 N   0  0  0  0  0  0  0  0  0  0  0  0
   13.7530    1.3450    9.4750 C   0  0  0  0  0  0  0  0  0  0  0  0
   15.1070    1.8320    9.1360 C   0  0  0  0  0  0  0  0  0  0  0  0
   15.7980    1.2050    8.3160 O   0  0  0  0  0  0  0  0  0  0  0  0
   15.5940    3.0050    9.7520 N   0  0  0  0  0  0  0  0  0  0  0  0
    4.9480   10.2310   15.7260 O   0  0  0  0  0  0  0  0  0  0  0  0
    4.3010    9.4330   16.7020 C   0  0  0  0  0  0  0  0  0  0  0  0
    4.0830    8.2360   15.9850 O   0  0  0  0  0  0  0  0  0  0  0  0
    4.8840    6.1720   14.1550 H   0  0  0  0  0  0  0  0  0  0  0  0
    6.7940   10.6830   13.6540 H   0  0  0  0  0  0  0  0  0  0  0  0
    7.5390    8.3500   10.8340 H   0  0  0  0  0  0  0  0  0  0  0  0
    7.6810    9.9920   11.4770 H   0  0  0  0  0  0  0  0  0  0  0  0
   10.2670    7.2930   13.9450 H   0  0  0  0  0  0  0  0  0  0  0  0
   11.5720    5.1650   13.6070 H   0  0  0  0  0  0  0  0  0  0  0  0
   10.8080    5.4130    9.4790 H   0  0  0  0  0  0  0  0  0  0  0  0
    9.5140    7.5020    9.7910 H   0  0  0  0  0  0  0  0  0  0  0  0
   13.8260    0.3420    9.9410 H   0  0  0  0  0  0  0  0  0  0  0  0
   13.1050    1.2730    8.5780 H   0  0  0  0  0  0  0  0  0  0  0  0
   14.9990    3.6060   10.3870 H   0  0  0  0  0  0  0  0  0  0  0  0
   16.5780    3.3090    9.5890 H   0  0  0  0  0  0  0  0  0  0  0  0
    4.9990    9.2980   17.5500 H   0  0  0  0  0  0  0  0  0  0  0  0
    3.3710    9.9220   17.0360 H   0  0  0  0  0  0  0  0  0  0  0  0
  1  2  1  0  0  0  0
  2  3  1  0  0  0  0
  3 28  1  0  0  0  0
  3  4  2  0  0  0  0
  4 27  1  0  0  0  0
  5  4  1  0  0  0  0
  5 25  1  0  0  0  0
  6  5  2  0  0  0  0
  7  2  2  0  0  0  0
  7  6  1  0  0  0  0
  8  9  1  0  0  0  0
  8  7  1  0  0  0  0
 10  9  1  0  0  0  0
 10 11  1  0  0  0  0
 11 32  1  0  0  0  0
 12 11  2  0  0  0  0
 12 33  1  0  0  0  0
 13 12  1  0  0  0  0
 14 15  1  0  0  0  0
 14 13  2  0  0  0  0
 15 10  2  0  0  0  0
 16 13  1  0  0  0  0
 16 20  1  0  0  0  0
 17 18  1  0  0  0  0
 17 16  2  0  0  0  0
 18 19  1  0  0  0  0
 19 20  2  0  0  0  0
 21 36  1  0  0  0  0
 21 18  1  0  0  0  0
 22 21  1  0  0  0  0
 22 24  1  0  0  0  0
 23 22  2  0  0  0  0
 24 38  1  0  0  0  0
 25 26  1  0  0  0  0
 26 41  1  0  0  0  0
 26 40  1  0  0  0  0
 27 26  1  0  0  0  0
 29  6  1  0  0  0  0
 30  8  1  0  0  0  0
 31  8  1  0  0  0  0
 34 14  1  0  0  0  0
 35 15  1  0  0  0  0
 37 21  1  0  0  0  0
 39 24  1  0  0  0  0
M  END
>  <Pose>
1

>  <Score>
-6.53

$$$$
