
 OpenBabel03172210413D

 53 57  0  0  1  0  0  0  0  0999 V2000
   16.8990    4.9800   12.0020 B   0  0  0  0  0  0  0  0  0  0  0  0
   15.6280    3.8630   11.1440 C   0  0  0  0  0  0  0  0  0  0  0  0
   16.0100    2.7780   10.3900 C   0  0  0  0  0  0  0  0  0  0  0  0
   15.1070    1.9710    9.7720 C   0  0  0  0  0  0  0  0  0  0  0  0
   13.7620    2.2400    9.8960 C   0  0  0  0  0  0  0  0  0  0  0  0
   13.3490    3.3390   10.6580 C   0  0  0  0  0  0  0  0  0  0  0  0
   14.2650    4.1620   11.2890 C   0  0  0  0  0  0  0  0  0  0  0  0
   13.9150    5.2890   12.0710 N   0  0  0  0  0  0  0  0  0  0  0  0
   14.0310    6.6340   11.6630 C   0  0  0  0  0  0  0  0  0  0  0  0
   15.0450    7.3430   11.7800 O   0  0  0  0  0  0  0  0  0  0  0  0
   12.8190    7.2780   11.0280 C   0  0  0  0  0  0  0  0  0  0  0  0
   11.6240    7.0390   11.8040 N   0  0  0  0  0  0  0  0  0  0  0  0
   11.7270    7.2650   13.1670 C   0  0  0  0  0  0  0  0  0  0  0  0
   10.9040    6.4920   14.1250 C   0  0  0  0  0  0  0  0  0  0  0  0
    9.7980    5.9070   13.4220 N   0  0  0  0  0  0  0  0  0  0  0  0
   10.1810    5.1030   12.2890 C   0  0  0  0  0  0  0  0  0  0  0  0
   10.7740    6.0450   11.2740 C   0  0  0  0  0  0  0  0  0  0  0  0
    8.4370    6.0500   13.7350 C   0  0  1  0  0  0  0  0  0  0  0  0
    7.8560    5.5230   14.8430 N   0  0  0  0  0  0  0  0  0  0  0  0
    6.5490    5.6800   15.1170 C   0  0  0  0  0  0  0  0  0  0  0  0
    5.7450    6.3760   14.2940 N   0  0  0  0  0  0  0  0  0  0  0  0
    6.2360    6.9360   13.1700 C   0  0  0  0  0  0  0  0  0  0  0  0
    5.6740    7.6750   12.1790 N   0  0  0  0  0  0  0  0  0  0  0  0
    6.6460    7.9500   11.3280 N   0  0  0  0  0  0  0  0  0  0  0  0
    7.8100    7.4260   11.7180 C   0  0  0  0  0  0  0  0  0  0  0  0
    7.5710    6.7680   12.9040 C   0  0  0  0  0  0  0  0  0  0  0  0
    4.2670    8.0700   12.0980 C   0  0  0  0  0  0  0  0  0  0  0  0
   12.8700    1.4110    9.2630 O   0  0  0  0  0  0  0  0  0  0  0  0
   13.1800    0.6280    8.1370 C   0  0  0  0  0  0  0  0  0  0  0  0
   14.6470    0.5490    7.8560 C   0  0  0  0  0  0  0  0  0  0  0  0
   15.4480    0.8670    9.0020 O   0  0  0  0  0  0  0  0  0  0  0  0
   17.0650    2.5580   10.2880 H   0  0  0  0  0  0  0  0  0  0  0  0
   12.2990    3.5160   10.7330 H   0  0  0  0  0  0  0  0  0  0  0  0
   13.5290    5.1070   13.0500 H   0  0  0  0  0  0  0  0  0  0  0  0
   13.0370    8.3620   11.0180 H   0  0  0  0  0  0  0  0  0  0  0  0
   12.7350    6.9280    9.9820 H   0  0  0  0  0  0  0  0  0  0  0  0
   12.8070    7.1360   13.4800 H   0  0  0  0  0  0  0  0  0  0  0  0
   11.5540    8.3660   13.3700 H   0  0  0  0  0  0  0  0  0  0  0  0
   11.4830    5.6730   14.6180 H   0  0  0  0  0  0  0  0  0  0  0  0
   10.5890    7.1500   14.9600 H   0  0  0  0  0  0  0  0  0  0  0  0
    9.3490    4.5370   11.8660 H   0  0  0  0  0  0  0  0  0  0  0  0
   11.0000    4.3880   12.5690 H   0  0  0  0  0  0  0  0  0  0  0  0
    9.9690    6.5230   10.6780 H   0  0  0  0  0  0  0  0  0  0  0  0
   11.3580    5.4220   10.5620 H   0  0  0  0  0  0  0  0  0  0  0  0
    6.1940    5.2130   16.0330 H   0  0  0  0  0  0  0  0  0  0  0  0
    8.7890    7.4630   11.2600 H   0  0  0  0  0  0  0  0  0  0  0  0
    4.1460    9.1340   11.8240 H   0  0  0  0  0  0  0  0  0  0  0  0
    3.7200    7.4780   11.3290 H   0  0  0  0  0  0  0  0  0  0  0  0
    3.7900    7.8320   13.0740 H   0  0  0  0  0  0  0  0  0  0  0  0
   12.7220   -0.3900    8.2700 H   0  0  0  0  0  0  0  0  0  0  0  0
   12.6710    1.0970    7.2470 H   0  0  0  0  0  0  0  0  0  0  0  0
   14.9070    1.3280    7.0850 H   0  0  0  0  0  0  0  0  0  0  0  0
   14.9470   -0.4150    7.4280 H   0  0  0  0  0  0  0  0  0  0  0  0
  2  7  1  0  0  0  0
  2  1  1  0  0  0  0
  3  2  2  0  0  0  0
  4  5  2  0  0  0  0
  4  3  1  0  0  0  0
  5  6  1  0  0  0  0
  6 33  1  0  0  0  0
  6  7  2  0  0  0  0
  7  8  1  0  0  0  0
  8 34  1  0  0  0  0
  9 10  2  0  0  0  0
  9  8  1  0  0  0  0
 11  9  1  0  0  0  0
 11 12  1  0  0  0  0
 12 13  1  0  0  0  0
 13 38  1  0  0  0  0
 13 37  1  0  0  0  0
 13 14  1  0  0  0  0
 14 39  1  0  0  0  0
 14 40  1  0  0  0  0
 15 14  1  0  0  0  0
 16 42  1  0  0  0  0
 16 15  1  0  0  0  0
 17 12  1  0  0  0  0
 17 16  1  0  0  0  0
 18 15  1  1  0  0  0
 18 19  1  0  0  0  0
 19 20  2  0  0  0  0
 20 45  1  0  0  0  0
 21 20  1  0  0  0  0
 22 21  1  0  0  0  0
 23 22  1  0  0  0  0
 24 25  2  0  0  0  0
 24 23  1  0  0  0  0
 25 26  1  0  0  0  0
 26 22  2  0  0  0  0
 26 18  1  0  0  0  0
 27 23  1  0  0  0  0
 27 49  1  0  0  0  0
 28  5  1  0  0  0  0
 29 50  1  0  0  0  0
 29 28  1  0  0  0  0
 30 29  1  0  0  0  0
 30 31  1  0  0  0  0
 31  4  1  0  0  0  0
 32  3  1  0  0  0  0
 35 11  1  0  0  0  0
 36 11  1  0  0  0  0
 41 16  1  0  0  0  0
 43 17  1  0  0  0  0
 44 17  1  0  0  0  0
 46 25  1  0  0  0  0
 47 27  1  0  0  0  0
 48 27  1  0  0  0  0
 51 29  1  0  0  0  0
 52 30  1  0  0  0  0
 53 30  1  0  0  0  0
M  END
>  <Pose>
1

>  <Score>
-6.74

$$$$
