
 OpenBabel03172210413D

 44 47  0  0  0  0  0  0  0  0999 V2000
    3.7380    8.8140   12.8190 B   0  0  0  0  0  0  0  0  0  0  0  0
    5.6380    8.6830   12.7150 C   0  0  0  0  0  0  0  0  0  0  0  0
    6.2310    7.6330   12.0340 C   0  0  0  0  0  0  0  0  0  0  0  0
    7.6100    7.5110   11.9410 C   0  0  0  0  0  0  0  0  0  0  0  0
    8.3510    8.4960   12.5650 C   0  0  0  0  0  0  0  0  0  0  0  0
    7.7900    9.5470   13.2480 C   0  0  0  0  0  0  0  0  0  0  0  0
    6.4220    9.6440   13.3250 C   0  0  0  0  0  0  0  0  0  0  0  0
    9.7260    8.3790   12.4770 C   0  0  0  0  0  0  0  0  0  0  0  0
   10.4690    9.2540   13.0320 O   0  0  0  0  0  0  0  0  0  0  0  0
   10.2620    7.3130   11.7850 C   0  0  0  0  0  0  0  0  0  0  0  0
    9.4700    6.3640   11.1820 C   0  0  0  0  0  0  0  0  0  0  0  0
    8.1740    6.5190   11.2960 O   0  0  0  0  0  0  0  0  0  0  0  0
   10.0870    5.2460   10.4570 C   0  0  0  0  0  0  0  0  0  0  0  0
   10.1880    5.3410    9.2000 O   0  0  0  0  0  0  0  0  0  0  0  0
   10.5640    4.0880   11.1030 N   0  0  0  0  0  0  0  0  0  0  0  0
   10.1360    2.7980   10.6250 C   0  0  0  0  0  0  0  0  0  0  0  0
   11.2940    1.8830   10.2880 C   0  0  0  0  0  0  0  0  0  0  0  0
   12.3800    2.2010   11.1380 N   0  0  0  0  0  0  0  0  0  0  0  0
   11.9710    2.6440   12.4120 C   0  0  0  0  0  0  0  0  0  0  0  0
   11.4650    4.0870   12.2290 C   0  0  0  0  0  0  0  0  0  0  0  0
   13.4950    2.8280   10.5510 C   0  0  0  0  0  0  0  0  0  0  0  0
   14.2590    2.0130    9.6110 C   0  0  0  0  0  0  0  0  0  0  0  0
   13.7450    1.0880    8.7840 N   0  0  0  0  0  0  0  0  0  0  0  0
   14.7220    0.5860    8.1180 O   0  0  0  0  0  0  0  0  0  0  0  0
   15.8630    1.1310    8.4590 N   0  0  0  0  0  0  0  0  0  0  0  0
   15.6120    2.0520    9.4150 C   0  0  0  0  0  0  0  0  0  0  0  0
   16.6100    2.9240   10.1050 C   0  0  0  0  0  0  0  0  0  0  0  0
    5.6050    6.8980   11.5660 H   0  0  0  0  0  0  0  0  0  0  0  0
    8.4340   10.2800   13.7130 H   0  0  0  0  0  0  0  0  0  0  0  0
    5.9620   10.4740   13.8640 H   0  0  0  0  0  0  0  0  0  0  0  0
   11.3450    7.2350   11.7240 H   0  0  0  0  0  0  0  0  0  0  0  0
    9.4410    2.9000    9.7480 H   0  0  0  0  0  0  0  0  0  0  0  0
    9.5340    2.2940   11.4390 H   0  0  0  0  0  0  0  0  0  0  0  0
   11.5510    1.9860    9.2020 H   0  0  0  0  0  0  0  0  0  0  0  0
   10.9690    0.8100   10.4300 H   0  0  0  0  0  0  0  0  0  0  0  0
   11.0930    2.0500   12.7370 H   0  0  0  0  0  0  0  0  0  0  0  0
   12.7330    2.6560   13.1930 H   0  0  0  0  0  0  0  0  0  0  0  0
   10.9340    4.4270   13.1420 H   0  0  0  0  0  0  0  0  0  0  0  0
   12.3220    4.7760   12.0960 H   0  0  0  0  0  0  0  0  0  0  0  0
   14.1680    3.2070   11.3470 H   0  0  0  0  0  0  0  0  0  0  0  0
   13.1390    3.7520   10.0100 H   0  0  0  0  0  0  0  0  0  0  0  0
   16.1290    3.8830   10.4380 H   0  0  0  0  0  0  0  0  0  0  0  0
   16.9750    2.3940   10.9880 H   0  0  0  0  0  0  0  0  0  0  0  0
   17.4110    3.2250    9.3970 H   0  0  0  0  0  0  0  0  0  0  0  0
  2  1  1  0  0  0  0
  2  7  1  0  0  0  0
  3  2  2  0  0  0  0
  4  3  1  0  0  0  0
  4  5  2  0  0  0  0
  5  6  1  0  0  0  0
  6  7  2  0  0  0  0
  6 29  1  0  0  0  0
  7 30  1  0  0  0  0
  8  5  1  0  0  0  0
  8  9  2  0  0  0  0
 10  8  1  0  0  0  0
 11 12  1  0  0  0  0
 11 10  2  0  0  0  0
 12  4  1  0  0  0  0
 13 15  1  0  0  0  0
 13 11  1  0  0  0  0
 14 13  2  0  0  0  0
 15 20  1  0  0  0  0
 16 15  1  0  0  0  0
 16 33  1  0  0  0  0
 17 35  1  0  0  0  0
 17 16  1  0  0  0  0
 17 18  1  0  0  0  0
 18 19  1  0  0  0  0
 19 36  1  0  0  0  0
 19 37  1  0  0  0  0
 20 19  1  0  0  0  0
 20 38  1  0  0  0  0
 21 18  1  0  0  0  0
 21 40  1  0  0  0  0
 22 21  1  0  0  0  0
 23 22  2  0  0  0  0
 24 25  1  0  0  0  0
 24 23  1  0  0  0  0
 25 26  2  0  0  0  0
 26 22  1  0  0  0  0
 26 27  1  0  0  0  0
 27 42  1  0  0  0  0
 27 43  1  0  0  0  0
 28  3  1  0  0  0  0
 31 10  1  0  0  0  0
 32 16  1  0  0  0  0
 34 17  1  0  0  0  0
 39 20  1  0  0  0  0
 41 21  1  0  0  0  0
 44 27  1  0  0  0  0
M  END
>  <Pose>
1

>  <Score>
-7.07

$$$$
