
 OpenBabel03172210413D

 49 52  0  0  0  0  0  0  0  0999 V2000
    9.5530   -0.5070    8.7800 B   0  0  0  0  0  0  0  0  0  0  0  0
   11.3350    0.1720    8.8400 C   0  0  0  0  0  0  0  0  0  0  0  0
   11.6300    1.2010    9.7120 C   0  0  0  0  0  0  0  0  0  0  0  0
   12.9060    1.7280    9.7960 C   0  0  0  0  0  0  0  0  0  0  0  0
   13.8770    1.1900    8.9740 C   0  0  0  0  0  0  0  0  0  0  0  0
   13.5710    0.1620    8.1060 C   0  0  0  0  0  0  0  0  0  0  0  0
   12.3000   -0.3700    8.0170 C   0  0  0  0  0  0  0  0  0  0  0  0
   15.1110    1.9050    9.2470 C   0  0  0  0  0  0  0  0  0  0  0  0
   16.2140    1.6610    8.6590 O   0  0  0  0  0  0  0  0  0  0  0  0
   14.8500    2.8770   10.2470 N   0  0  0  0  0  0  0  0  0  0  0  0
   13.4940    2.8000   10.6130 C   0  0  0  0  0  0  0  0  0  0  0  0
   12.8770    3.4940   11.4670 O   0  0  0  0  0  0  0  0  0  0  0  0
   15.8620    3.7730   10.7610 C   0  0  0  0  0  0  0  0  0  0  0  0
   15.5330    4.3420   12.0920 C   0  0  0  0  0  0  0  0  0  0  0  0
   16.5410    5.3930   12.4600 C   0  0  0  0  0  0  0  0  0  0  0  0
   16.0970    6.3190   13.5270 C   0  0  0  0  0  0  0  0  0  0  0  0
   16.5750    6.3210   14.6910 O   0  0  0  0  0  0  0  0  0  0  0  0
   15.0620    7.2890   13.2700 N   0  0  0  0  0  0  0  0  0  0  0  0
   14.8890    7.8550   11.9520 C   0  0  0  0  0  0  0  0  0  0  0  0
   13.4630    7.9310   11.5190 C   0  0  0  0  0  0  0  0  0  0  0  0
   12.5180    7.4380   12.4930 N   0  0  0  0  0  0  0  0  0  0  0  0
   12.7220    7.4650   13.9160 C   0  0  0  0  0  0  0  0  0  0  0  0
   14.1540    7.7400   14.3070 C   0  0  0  0  0  0  0  0  0  0  0  0
   11.2920    6.8830   12.0070 C   0  0  0  0  0  0  0  0  0  0  0  0
   10.4570    6.1790   12.8190 N   0  0  0  0  0  0  0  0  0  0  0  0
    9.3070    5.6470   12.4070 C   0  0  0  0  0  0  0  0  0  0  0  0
    8.9310    5.8130   11.0820 C   0  0  0  0  0  0  0  0  0  0  0  0
    9.7390    6.5090   10.2470 N   0  0  0  0  0  0  0  0  0  0  0  0
   10.8910    7.0300   10.6990 C   0  0  0  0  0  0  0  0  0  0  0  0
   10.8920    1.6500   10.3750 H   0  0  0  0  0  0  0  0  0  0  0  0
   14.3680   -0.2270    7.4810 H   0  0  0  0  0  0  0  0  0  0  0  0
   12.0970   -1.1740    7.3270 H   0  0  0  0  0  0  0  0  0  0  0  0
   15.9900    4.5830   10.0270 H   0  0  0  0  0  0  0  0  0  0  0  0
   16.8130    3.1660   10.8490 H   0  0  0  0  0  0  0  0  0  0  0  0
   15.4060    3.5890   12.8880 H   0  0  0  0  0  0  0  0  0  0  0  0
   14.5320    4.8690   12.0580 H   0  0  0  0  0  0  0  0  0  0  0  0
   17.5140    4.9460   12.7720 H   0  0  0  0  0  0  0  0  0  0  0  0
   16.7770    6.0120   11.5680 H   0  0  0  0  0  0  0  0  0  0  0  0
   15.5330    7.3340   11.2170 H   0  0  0  0  0  0  0  0  0  0  0  0
   15.3040    8.9010   12.0110 H   0  0  0  0  0  0  0  0  0  0  0  0
   13.1590    8.9950   11.3030 H   0  0  0  0  0  0  0  0  0  0  0  0
   13.3130    7.3930   10.5550 H   0  0  0  0  0  0  0  0  0  0  0  0
   12.0880    8.2390   14.3550 H   0  0  0  0  0  0  0  0  0  0  0  0
   12.4860    6.4330   14.2890 H   0  0  0  0  0  0  0  0  0  0  0  0
   14.4080    7.3120   15.2960 H   0  0  0  0  0  0  0  0  0  0  0  0
   14.2800    8.8620   14.3470 H   0  0  0  0  0  0  0  0  0  0  0  0
    8.6560    5.0900   13.0680 H   0  0  0  0  0  0  0  0  0  0  0  0
    8.0160    5.4000   10.7180 H   0  0  0  0  0  0  0  0  0  0  0  0
   11.5090    7.5780   10.0070 H   0  0  0  0  0  0  0  0  0  0  0  0
  1  2  1  0  0  0  0
  2  3  1  0  0  0  0
  3  4  2  0  0  0  0
  3 30  1  0  0  0  0
  4 11  1  0  0  0  0
  5  8  1  0  0  0  0
  5  4  1  0  0  0  0
  6  5  2  0  0  0  0
  7  6  1  0  0  0  0
  7  2  2  0  0  0  0
  8 10  1  0  0  0  0
  9  8  2  0  0  0  0
 10 11  1  0  0  0  0
 10 13  1  0  0  0  0
 11 12  2  0  0  0  0
 13 34  1  0  0  0  0
 13 14  1  0  0  0  0
 14 15  1  0  0  0  0
 14 35  1  0  0  0  0
 15 37  1  0  0  0  0
 15 16  1  0  0  0  0
 16 17  2  0  0  0  0
 18 16  1  0  0  0  0
 18 23  1  0  0  0  0
 19 40  1  0  0  0  0
 19 18  1  0  0  0  0
 20 19  1  0  0  0  0
 20 21  1  0  0  0  0
 21 22  1  0  0  0  0
 22 44  1  0  0  0  0
 22 23  1  0  0  0  0
 22 43  1  0  0  0  0
 23 46  1  0  0  0  0
 23 45  1  0  0  0  0
 24 21  1  0  0  0  0
 24 25  1  0  0  0  0
 26 25  2  0  0  0  0
 26 47  1  0  0  0  0
 27 26  1  0  0  0  0
 28 29  1  0  0  0  0
 28 27  2  0  0  0  0
 29 24  2  0  0  0  0
 31  6  1  0  0  0  0
 32  7  1  0  0  0  0
 33 13  1  0  0  0  0
 36 14  1  0  0  0  0
 38 15  1  0  0  0  0
 39 19  1  0  0  0  0
 41 20  1  0  0  0  0
 42 20  1  0  0  0  0
 48 27  1  0  0  0  0
 49 29  1  0  0  0  0
M  END
>  <Pose>
1

>  <Score>
-6.20

$$$$
