
 OpenBabel03172210413D

 58 61  0  0  0  0  0  0  0  0999 V2000
   17.7710    3.5730   11.1350 B   0  0  0  0  0  0  0  0  0  0  0  0
   15.9270    3.3550   10.6890 C   0  0  0  0  0  0  0  0  0  0  0  0
   14.9360    4.1790   11.2410 C   0  0  0  0  0  0  0  0  0  0  0  0
   13.6520    3.9370   10.8440 C   0  0  0  0  0  0  0  0  0  0  0  0
   13.2900    2.9480    9.9540 C   0  0  0  0  0  0  0  0  0  0  0  0
   14.2650    2.1370    9.4180 C   0  0  0  0  0  0  0  0  0  0  0  0
   15.5970    2.3580    9.7970 C   0  0  0  0  0  0  0  0  0  0  0  0
   11.8870    2.9270    9.7250 N   0  0  0  0  0  0  0  0  0  0  0  0
   11.3310    3.9850   10.5480 C   0  0  0  0  0  0  0  0  0  0  0  0
   10.1210    4.2900   10.6060 O   0  0  0  0  0  0  0  0  0  0  0  0
   12.4450    4.5890   11.2440 C   0  0  0  0  0  0  0  0  0  0  0  0
   12.4200    5.4480   12.1900 N   0  0  0  0  0  0  0  0  0  0  0  0
   13.0200    6.0320   13.0020 N   0  0  0  0  0  0  0  0  0  0  0  0
   13.7410    6.7260   14.0000 C   0  0  0  0  0  0  0  0  0  0  0  0
   14.9020    6.6970   14.3420 O   0  0  0  0  0  0  0  0  0  0  0  0
   12.7790    7.6680   14.7580 C   0  0  0  0  0  0  0  0  0  0  0  0
   12.4430    8.6790   13.7830 O   0  0  0  0  0  0  0  0  0  0  0  0
   11.0840    8.6570   13.3580 N   0  0  0  0  0  0  0  0  0  0  0  0
   10.2340    9.4990   13.8010 C   0  0  0  0  0  0  0  0  0  0  0  0
    8.8570    9.4450   13.3670 C   0  0  0  0  0  0  0  0  0  0  0  0
    7.8580   10.2420   13.8160 C   0  0  0  0  0  0  0  0  0  0  0  0
    6.5600    9.9740   13.3130 C   0  0  0  0  0  0  0  0  0  0  0  0
    6.2190    9.0310   12.4370 C   0  0  0  0  0  0  0  0  0  0  0  0
    7.2520    8.2650   12.0140 C   0  0  0  0  0  0  0  0  0  0  0  0
    8.5400    8.3560   12.3810 C   0  0  0  0  0  0  0  0  0  0  0  0
    4.8910    8.8830   12.0200 O   0  0  0  0  0  0  0  0  0  0  0  0
    4.5500    7.9460   11.0040 C   0  0  0  0  0  0  0  0  0  0  0  0
   11.0540    2.1250    8.8440 C   0  0  0  0  0  0  0  0  0  0  0  0
   11.0320    0.7980    9.2170 N   0  0  0  0  0  0  0  0  0  0  0  0
    9.7620    0.2120    9.0650 C   0  0  0  0  0  0  0  0  0  0  0  0
    9.9060   -1.1650    8.4130 C   0  0  0  0  0  0  0  0  0  0  0  0
   10.6910   -0.8950    7.2580 O   0  0  0  0  0  0  0  0  0  0  0  0
   12.0260   -0.7140    7.6460 C   0  0  0  0  0  0  0  0  0  0  0  0
   12.1770    0.0300    8.9360 C   0  0  0  0  0  0  0  0  0  0  0  0
   15.2740    4.9140   11.8760 H   0  0  0  0  0  0  0  0  0  0  0  0
   14.0590    1.3440    8.7050 H   0  0  0  0  0  0  0  0  0  0  0  0
   16.3480    1.7130    9.4000 H   0  0  0  0  0  0  0  0  0  0  0  0
   12.6330    5.1610   14.0120 H   0  0  0  0  0  0  0  0  0  0  0  0
   11.8270    6.9810   14.6510 H   0  0  0  0  0  0  0  0  0  0  0  0
   12.9640    7.8800   15.7210 H   0  0  0  0  0  0  0  0  0  0  0  0
   10.5250   10.2810   14.4990 H   0  0  0  0  0  0  0  0  0  0  0  0
    8.0280   11.0300   14.5100 H   0  0  0  0  0  0  0  0  0  0  0  0
    5.7770   10.6530   13.7020 H   0  0  0  0  0  0  0  0  0  0  0  0
    6.9570    7.4670   11.2800 H   0  0  0  0  0  0  0  0  0  0  0  0
    9.3750    7.7990   12.0760 H   0  0  0  0  0  0  0  0  0  0  0  0
    4.5260    6.9060   11.4260 H   0  0  0  0  0  0  0  0  0  0  0  0
    3.4750    8.1690   10.7130 H   0  0  0  0  0  0  0  0  0  0  0  0
    5.1690    8.0220   10.0940 H   0  0  0  0  0  0  0  0  0  0  0  0
   11.4450    2.3350    7.8260 H   0  0  0  0  0  0  0  0  0  0  0  0
   10.0430    2.6290    8.8410 H   0  0  0  0  0  0  0  0  0  0  0  0
    9.1980    0.1340   10.0250 H   0  0  0  0  0  0  0  0  0  0  0  0
    9.1390    0.8430    8.4110 H   0  0  0  0  0  0  0  0  0  0  0  0
    8.9190   -1.4700    8.0900 H   0  0  0  0  0  0  0  0  0  0  0  0
   10.3960   -1.8880    9.0570 H   0  0  0  0  0  0  0  0  0  0  0  0
   12.5870   -0.2080    6.8510 H   0  0  0  0  0  0  0  0  0  0  0  0
   12.4510   -1.7380    7.7800 H   0  0  0  0  0  0  0  0  0  0  0  0
   12.3660   -0.7320    9.7930 H   0  0  0  0  0  0  0  0  0  0  0  0
   13.0850    0.6410    8.9240 H   0  0  0  0  0  0  0  0  0  0  0  0
  2  1  1  0  0  0  0
  2  3  1  0  0  0  0
  3 35  1  0  0  0  0
  4  3  2  0  0  0  0
  4 11  1  0  0  0  0
  5  4  1  0  0  0  0
  6  7  1  0  0  0  0
  6  5  2  0  0  0  0
  7  2  2  0  0  0  0
  8  5  1  0  0  0  0
  8  9  1  0  0  0  0
  9 10  2  0  0  0  0
  9 11  1  0  0  0  0
 11 12  2  0  0  0  0
 12 13  1  0  0  0  0
 13 14  1  0  0  0  0
 13 38  1  0  0  0  0
 14 15  2  0  0  0  0
 14 16  1  0  0  0  0
 16 40  1  0  0  0  0
 17 16  1  0  0  0  0
 18 17  1  0  0  0  0
 18 19  2  0  0  0  0
 19 41  1  0  0  0  0
 20 19  1  0  0  0  0
 20 21  1  0  0  0  0
 21 42  1  0  0  0  0
 22 43  1  0  0  0  0
 22 21  2  0  0  0  0
 23 22  1  0  0  0  0
 24 25  1  0  0  0  0
 24 23  2  0  0  0  0
 25 20  2  0  0  0  0
 26 23  1  0  0  0  0
 27 46  1  0  0  0  0
 27 26  1  0  0  0  0
 28 29  1  0  0  0  0
 28  8  1  0  0  0  0
 30 29  1  0  0  0  0
 30 51  1  0  0  0  0
 31 54  1  0  0  0  0
 31 30  1  0  0  0  0
 32 33  1  0  0  0  0
 32 31  1  0  0  0  0
 33 56  1  0  0  0  0
 33 34  1  0  0  0  0
 34 29  1  0  0  0  0
 34 57  1  0  0  0  0
 36  6  1  0  0  0  0
 37  7  1  0  0  0  0
 39 16  1  0  0  0  0
 44 24  1  0  0  0  0
 45 25  1  0  0  0  0
 47 27  1  0  0  0  0
 48 27  1  0  0  0  0
 49 28  1  0  0  0  0
 50 28  1  0  0  0  0
 52 30  1  0  0  0  0
 53 31  1  0  0  0  0
 55 33  1  0  0  0  0
 58 34  1  0  0  0  0
M  END
>  <Pose>
1

>  <Score>
-7.01

$$$$
