
 OpenBabel03172210413D

 41 44  0  0  1  0  0  0  0  0999 V2000
   15.8940    2.1870    9.7930 B   0  0  0  0  0  0  0  0  0  0  0  0
   14.3500    2.7860   10.7250 C   0  0  0  0  0  0  0  0  0  0  0  0
   14.1560    4.0970   11.0880 C   0  0  0  0  0  0  0  0  0  0  0  0
   12.9950    4.4560   11.7710 C   0  0  0  0  0  0  0  0  0  0  0  0
   12.0260    3.5710   12.1060 C   0  0  0  0  0  0  0  0  0  0  0  0
   12.2240    2.2380   11.7360 C   0  0  0  0  0  0  0  0  0  0  0  0
   13.3650    1.8640   11.0610 C   0  0  0  0  0  0  0  0  0  0  0  0
   10.9530    4.1860   12.7930 N   0  0  0  0  0  0  0  0  0  0  0  0
   11.2540    5.5570   12.9070 C   0  0  0  0  0  0  0  0  0  0  0  0
   10.5330    6.4330   13.4600 O   0  0  0  0  0  0  0  0  0  0  0  0
   12.5730    5.8080   12.2610 C   0  0  1  0  0  0  0  0  0  0  0  0
   13.5520    6.3050   13.2610 C   0  0  0  0  0  0  0  0  0  0  0  0
   14.2280    7.3830   13.0900 C   0  0  0  0  0  0  0  0  0  0  0  0
   14.0970    8.2140   11.9040 N   0  0  0  0  0  0  0  0  0  0  0  0
   13.1680    7.7530   10.9450 C   0  0  0  0  0  0  0  0  0  0  0  0
   12.4710    6.6610   11.0980 C   0  0  0  0  0  0  0  0  0  0  0  0
   11.5500    6.3110   10.0230 C   0  0  0  0  0  0  0  0  0  0  0  0
   10.8360    6.0300    9.1550 N   0  0  0  0  0  0  0  0  0  0  0  0
   12.9950    8.5450    9.7370 N   0  0  0  0  0  0  0  0  0  0  0  0
   15.1130    7.5880   14.2790 C   0  0  0  0  0  0  0  0  0  0  0  0
   14.8560    6.5210   15.1150 O   0  0  0  0  0  0  0  0  0  0  0  0
   13.9210    5.6900   14.5770 C   0  0  0  0  0  0  0  0  0  0  0  0
   13.4240    4.6170   15.0330 O   0  0  0  0  0  0  0  0  0  0  0  0
   14.8250    8.9360   14.9120 C   0  0  0  0  0  0  0  0  0  0  0  0
   16.5750    7.5290   13.8750 C   0  0  0  0  0  0  0  0  0  0  0  0
    9.7330    3.5480   13.3100 C   0  0  0  0  0  0  0  0  0  0  0  0
   14.9170    4.8140   10.8290 H   0  0  0  0  0  0  0  0  0  0  0  0
   11.4480    1.5300   12.0050 H   0  0  0  0  0  0  0  0  0  0  0  0
   13.4780    0.8190   10.7940 H   0  0  0  0  0  0  0  0  0  0  0  0
   14.6670    9.0730   11.8180 H   0  0  0  0  0  0  0  0  0  0  0  0
   12.9600    8.0260    8.8360 H   0  0  0  0  0  0  0  0  0  0  0  0
   12.9130    9.5700    9.7730 H   0  0  0  0  0  0  0  0  0  0  0  0
   14.1650    8.8420   15.8100 H   0  0  0  0  0  0  0  0  0  0  0  0
   15.7860    9.4230   15.1590 H   0  0  0  0  0  0  0  0  0  0  0  0
   14.3150    9.5480   14.1520 H   0  0  0  0  0  0  0  0  0  0  0  0
   16.9110    6.4740   13.8850 H   0  0  0  0  0  0  0  0  0  0  0  0
   17.1940    8.1350   14.5610 H   0  0  0  0  0  0  0  0  0  0  0  0
   16.7310    7.9340   12.8560 H   0  0  0  0  0  0  0  0  0  0  0  0
    8.8620    3.9410   12.7180 H   0  0  0  0  0  0  0  0  0  0  0  0
    9.7700    2.4530   13.1180 H   0  0  0  0  0  0  0  0  0  0  0  0
    9.5870    3.7450   14.3720 H   0  0  0  0  0  0  0  0  0  0  0  0
  1  2  1  0  0  0  0
  2  7  2  0  0  0  0
  2  3  1  0  0  0  0
  3  4  2  0  0  0  0
  4  5  1  0  0  0  0
  4 11  1  0  0  0  0
  5  8  1  0  0  0  0
  6 28  1  0  0  0  0
  6  5  2  0  0  0  0
  7  6  1  0  0  0  0
  8  9  1  0  0  0  0
  8 26  1  0  0  0  0
  9 10  2  0  0  0  0
 11 16  1  6  0  0  0
 11  9  1  0  0  0  0
 11 12  1  0  0  0  0
 12 22  1  0  0  0  0
 13 12  2  0  0  0  0
 13 20  1  0  0  0  0
 14 13  1  0  0  0  0
 15 16  2  0  0  0  0
 15 14  1  0  0  0  0
 17 16  1  0  0  0  0
 18 17  3  0  0  0  0
 19 32  1  0  0  0  0
 19 15  1  0  0  0  0
 20 24  1  0  0  0  0
 20 21  1  0  0  0  0
 22 23  2  0  0  0  0
 22 21  1  0  0  0  0
 24 34  1  0  0  0  0
 24 33  1  0  0  0  0
 25 36  1  0  0  0  0
 25 20  1  0  0  0  0
 25 37  1  0  0  0  0
 26 41  1  0  0  0  0
 27  3  1  0  0  0  0
 29  7  1  0  0  0  0
 30 14  1  0  0  0  0
 31 19  1  0  0  0  0
 35 24  1  0  0  0  0
 38 25  1  0  0  0  0
 39 26  1  0  0  0  0
 40 26  1  0  0  0  0
M  END
>  <Pose>
1

>  <Score>
-4.27

$$$$
