
 OpenBabel03172210413D

 51 56  0  0  1  0  0  0  0  0999 V2000
    6.3810    6.8160   14.1730 B   0  0  0  0  0  0  0  0  0  0  0  0
    7.4690    6.3290   12.6840 C   0  0  0  0  0  0  0  0  0  0  0  0
    8.8570    6.3450   12.7460 C   0  0  0  0  0  0  0  0  0  0  0  0
    9.6320    5.9940   11.6740 C   0  0  0  0  0  0  0  0  0  0  0  0
    8.9750    5.6180   10.5120 C   0  0  0  0  0  0  0  0  0  0  0  0
    7.5970    5.6000   10.4420 C   0  0  0  0  0  0  0  0  0  0  0  0
    6.8290    5.9560   11.5270 C   0  0  0  0  0  0  0  0  0  0  0  0
    9.9230    5.2810    9.4970 N   0  0  0  0  0  0  0  0  0  0  0  0
   11.2240    5.4440   10.0210 C   0  0  0  0  0  0  0  0  0  0  0  0
   12.2660    5.2260    9.3870 O   0  0  0  0  0  0  0  0  0  0  0  0
   11.0670    5.9080   11.4160 C   0  0  1  0  0  0  0  0  0  0  0  0
   11.8030    7.1300   11.5420 N   0  0  2  0  0  0  0  0  0  0  0  0
   13.1990    6.6990   11.5980 C   0  0  2  0  0  0  0  0  0  0  0  0
   13.2020    5.3730   12.2850 C   0  0  1  0  0  0  0  0  0  0  0  0
   11.7640    5.0070   12.4060 C   0  0  2  0  0  0  0  0  0  0  0  0
   11.7030    3.5930   12.0510 C   0  0  0  0  0  0  0  0  0  0  0  0
   10.7050    2.8440   12.1580 O   0  0  0  0  0  0  0  0  0  0  0  0
   12.9530    3.1810   11.5590 N   0  0  0  0  0  0  0  0  0  0  0  0
   13.8440    4.3030   11.4560 C   0  0  0  0  0  0  0  0  0  0  0  0
   14.9230    4.4000   10.8200 O   0  0  0  0  0  0  0  0  0  0  0  0
   13.3200    1.8460   11.2030 C   0  0  0  0  0  0  0  0  0  0  0  0
   13.3610    1.5670    9.7450 C   0  0  2  0  0  0  0  0  0  0  0  0
   12.7930    0.3490    9.3900 O   0  0  0  0  0  0  0  0  0  0  0  0
   13.1540    0.1940    8.0580 C   0  0  0  0  0  0  0  0  0  0  0  0
   14.5360    0.7430    7.8830 C   0  0  0  0  0  0  0  0  0  0  0  0
   14.7110    1.6280    9.1160 C   0  0  0  0  0  0  0  0  0  0  0  0
   13.8980    7.7040   12.5020 C   0  0  0  0  0  0  0  0  0  0  0  0
   12.8410    8.7150   12.8980 C   0  0  0  0  0  0  0  0  0  0  0  0
   11.5790    7.8500   12.7780 C   0  0  0  0  0  0  0  0  0  0  0  0
    9.2770    6.6540   13.7050 H   0  0  0  0  0  0  0  0  0  0  0  0
    7.0580    5.3060    9.5300 H   0  0  0  0  0  0  0  0  0  0  0  0
    5.7260    5.9380   11.4610 H   0  0  0  0  0  0  0  0  0  0  0  0
    9.6680    4.9620    8.5160 H   0  0  0  0  0  0  0  0  0  0  0  0
   13.6500    6.6840   10.5950 H   0  0  0  0  0  0  0  0  0  0  0  0
   13.7240    5.4200   13.2790 H   0  0  0  0  0  0  0  0  0  0  0  0
   11.3450    5.2310   13.4080 H   0  0  0  0  0  0  0  0  0  0  0  0
   14.3350    1.6550   11.6160 H   0  0  0  0  0  0  0  0  0  0  0  0
   12.6640    1.0740   11.6750 H   0  0  0  0  0  0  0  0  0  0  0  0
   12.7280    2.3500    9.2420 H   0  0  0  0  0  0  0  0  0  0  0  0
   13.2150   -0.9160    7.8710 H   0  0  0  0  0  0  0  0  0  0  0  0
   12.4090    0.6200    7.3570 H   0  0  0  0  0  0  0  0  0  0  0  0
   14.6540    1.3450    6.9590 H   0  0  0  0  0  0  0  0  0  0  0  0
   15.3020   -0.0570    7.9590 H   0  0  0  0  0  0  0  0  0  0  0  0
   15.5430    1.3070    9.7390 H   0  0  0  0  0  0  0  0  0  0  0  0
   14.9490    2.6810    8.7820 H   0  0  0  0  0  0  0  0  0  0  0  0
   14.7780    8.1560   12.0310 H   0  0  0  0  0  0  0  0  0  0  0  0
   14.2560    7.2250   13.4480 H   0  0  0  0  0  0  0  0  0  0  0  0
   12.7840    9.5760   12.2300 H   0  0  0  0  0  0  0  0  0  0  0  0
   12.9210    9.0530   13.9300 H   0  0  0  0  0  0  0  0  0  0  0  0
   10.7050    8.5020   12.7570 H   0  0  0  0  0  0  0  0  0  0  0  0
   11.5810    7.2250   13.6770 H   0  0  0  0  0  0  0  0  0  0  0  0
  2  3  1  0  0  0  0
  2  1  1  0  0  0  0
  3 30  1  0  0  0  0
  4  3  2  0  0  0  0
  5  4  1  0  0  0  0
  6  5  2  0  0  0  0
  6  7  1  0  0  0  0
  7  2  2  0  0  0  0
  8  9  1  0  0  0  0
  8  5  1  0  0  0  0
 10  9  2  0  0  0  0
 11  9  1  6  0  0  0
 11 12  1  0  0  0  0
 11  4  1  0  0  0  0
 11 15  1  0  0  0  0
 12 13  1  0  0  0  0
 12 29  1  1  0  0  0
 13 34  1  6  0  0  0
 13 14  1  0  0  0  0
 13 27  1  0  0  0  0
 14 15  1  0  0  0  0
 14 35  1  1  0  0  0
 15 36  1  1  0  0  0
 16 17  2  0  0  0  0
 16 15  1  0  0  0  0
 18 16  1  0  0  0  0
 19 18  1  0  0  0  0
 19 14  1  0  0  0  0
 20 19  2  0  0  0  0
 21 18  1  0  0  0  0
 21 37  1  0  0  0  0
 21 38  1  0  0  0  0
 22 39  1  6  0  0  0
 22 21  1  0  0  0  0
 23 22  1  0  0  0  0
 24 23  1  0  0  0  0
 25 43  1  0  0  0  0
 25 24  1  0  0  0  0
 25 26  1  0  0  0  0
 26 44  1  0  0  0  0
 26 22  1  0  0  0  0
 27 28  1  0  0  0  0
 27 47  1  0  0  0  0
 28 49  1  0  0  0  0
 29 28  1  0  0  0  0
 29 51  1  0  0  0  0
 31  6  1  0  0  0  0
 32  7  1  0  0  0  0
 33  8  1  0  0  0  0
 40 24  1  0  0  0  0
 41 24  1  0  0  0  0
 42 25  1  0  0  0  0
 45 26  1  0  0  0  0
 46 27  1  0  0  0  0
 48 28  1  0  0  0  0
 50 29  1  0  0  0  0
M  END
>  <Pose>
1

>  <Score>
-5.90

$$$$
