
 OpenBabel03172210413D

 41 44  0  0  1  0  0  0  0  0999 V2000
   10.7510    6.4240    8.0680 B   0  0  0  0  0  0  0  0  0  0  0  0
   11.1280    5.1350    9.4230 C   0  0  0  0  0  0  0  0  0  0  0  0
   12.2690    4.3860    9.2750 C   0  0  0  0  0  0  0  0  0  0  0  0
   12.5880    3.4280   10.2440 C   0  0  0  0  0  0  0  0  0  0  0  0
   11.7620    3.2590   11.3070 C   0  0  0  0  0  0  0  0  0  0  0  0
   10.5880    4.0160   11.4770 C   0  0  0  0  0  0  0  0  0  0  0  0
   10.3000    4.9500   10.5100 C   0  0  0  0  0  0  0  0  0  0  0  0
   12.2520    2.2450   12.1660 N   0  0  0  0  0  0  0  0  0  0  0  0
   13.4370    1.7590   11.6110 C   0  0  0  0  0  0  0  0  0  0  0  0
   14.1910    0.8220   12.0820 O   0  0  0  0  0  0  0  0  0  0  0  0
   13.7120    2.5110   10.3500 C   0  0  2  0  0  0  0  0  0  0  0  0
   15.0190    3.0930   10.5110 C   0  0  0  0  0  0  0  0  0  0  0  0
   16.0630    2.6880    9.7680 C   0  0  0  0  0  0  0  0  0  0  0  0
   17.1470    3.4330   10.1630 N   0  0  0  0  0  0  0  0  0  0  0  0
   16.7630    4.2580   11.1130 N   0  0  0  0  0  0  0  0  0  0  0  0
   15.4650    4.1080   11.3820 C   0  0  0  0  0  0  0  0  0  0  0  0
   14.6310    4.8370   12.3810 C   0  0  0  0  0  0  0  0  0  0  0  0
   15.9720    1.6800    8.7900 O   0  0  0  0  0  0  0  0  0  0  0  0
   14.7190    1.1060    8.6190 C   0  0  0  0  0  0  0  0  0  0  0  0
   13.6760    1.4560    9.3080 C   0  0  0  0  0  0  0  0  0  0  0  0
   12.3750    0.7750    9.0450 C   0  0  0  0  0  0  0  0  0  0  0  0
   12.3960   -0.4460    8.8080 O   0  0  0  0  0  0  0  0  0  0  0  0
   11.1720    1.4260    9.0560 O   0  0  0  0  0  0  0  0  0  0  0  0
    9.9350    0.8250    9.3570 C   0  0  0  0  0  0  0  0  0  0  0  0
    9.8100   -0.4210    8.4740 C   0  0  0  0  0  0  0  0  0  0  0  0
   14.5450    0.0630    7.6320 N   0  0  0  0  0  0  0  0  0  0  0  0
   12.9380    4.5210    8.4170 H   0  0  0  0  0  0  0  0  0  0  0  0
    9.9390    3.8780   12.3200 H   0  0  0  0  0  0  0  0  0  0  0  0
    9.4090    5.5600   10.5920 H   0  0  0  0  0  0  0  0  0  0  0  0
   11.8260    1.8930   13.0700 H   0  0  0  0  0  0  0  0  0  0  0  0
   18.1140    3.3540    9.7730 H   0  0  0  0  0  0  0  0  0  0  0  0
   15.2140    5.6650   12.8310 H   0  0  0  0  0  0  0  0  0  0  0  0
   14.4130    4.1180   13.1970 H   0  0  0  0  0  0  0  0  0  0  0  0
   13.7310    5.2910   11.9340 H   0  0  0  0  0  0  0  0  0  0  0  0
    9.0840    1.5000    9.2190 H   0  0  0  0  0  0  0  0  0  0  0  0
    9.9610    0.4580   10.4060 H   0  0  0  0  0  0  0  0  0  0  0  0
   10.8060   -0.8760    8.2980 H   0  0  0  0  0  0  0  0  0  0  0  0
    9.1630   -1.1860    8.9420 H   0  0  0  0  0  0  0  0  0  0  0  0
    9.3190   -0.1280    7.5160 H   0  0  0  0  0  0  0  0  0  0  0  0
   15.3060   -0.6070    7.5010 H   0  0  0  0  0  0  0  0  0  0  0  0
   13.6770    0.0220    7.0980 H   0  0  0  0  0  0  0  0  0  0  0  0
  1  2  1  0  0  0  0
  2  7  1  0  0  0  0
  3  2  2  0  0  0  0
  3  4  1  0  0  0  0
  4 11  1  0  0  0  0
  4  5  2  0  0  0  0
  5  6  1  0  0  0  0
  5  8  1  0  0  0  0
  6 28  1  0  0  0  0
  7 29  1  0  0  0  0
  7  6  2  0  0  0  0
  8 30  1  0  0  0  0
  9 10  2  0  0  0  0
  9  8  1  0  0  0  0
 11 20  1  6  0  0  0
 11 12  1  0  0  0  0
 11  9  1  0  0  0  0
 12 16  1  0  0  0  0
 13 14  1  0  0  0  0
 13 12  2  0  0  0  0
 14 15  1  0  0  0  0
 15 16  2  0  0  0  0
 16 17  1  0  0  0  0
 17 32  1  0  0  0  0
 17 33  1  0  0  0  0
 18 13  1  0  0  0  0
 19 18  1  0  0  0  0
 19 20  2  0  0  0  0
 21 23  1  0  0  0  0
 21 20  1  0  0  0  0
 22 21  2  0  0  0  0
 23 24  1  0  0  0  0
 24 36  1  0  0  0  0
 25 38  1  0  0  0  0
 25 24  1  0  0  0  0
 26 19  1  0  0  0  0
 27  3  1  0  0  0  0
 31 14  1  0  0  0  0
 34 17  1  0  0  0  0
 35 24  1  0  0  0  0
 37 25  1  0  0  0  0
 39 25  1  0  0  0  0
 40 26  1  0  0  0  0
 41 26  1  0  0  0  0
M  END
>  <Pose>
1

>  <Score>
-5.43

$$$$
