
 OpenBabel03172210413D

 45 48  0  0  1  0  0  0  0  0999 V2000
   17.0790    3.9090   11.3790 B   0  0  0  0  0  0  0  0  0  0  0  0
   15.9060    5.4110   11.5140 C   0  0  0  0  0  0  0  0  0  0  0  0
   14.5640    5.2710   11.7610 C   0  0  0  0  0  0  0  0  0  0  0  0
   13.6710    6.3520   11.8670 C   0  0  0  0  0  0  0  0  0  0  0  0
   14.1980    7.5990   11.7110 C   0  0  0  0  0  0  0  0  0  0  0  0
   15.5720    7.7620   11.4550 C   0  0  0  0  0  0  0  0  0  0  0  0
   16.4200    6.6830   11.3580 C   0  0  0  0  0  0  0  0  0  0  0  0
   13.1920    8.5930   11.8510 N   0  0  0  0  0  0  0  0  0  0  0  0
   11.9780    7.9250   12.1090 C   0  0  0  0  0  0  0  0  0  0  0  0
   10.8410    8.4910   12.3070 O   0  0  0  0  0  0  0  0  0  0  0  0
   12.2490    6.4760   12.1090 C   0  0  2  0  0  0  0  0  0  0  0  0
   11.9290    6.0670   13.4890 N   0  0  0  0  0  0  0  0  0  0  0  0
   10.6360    5.4570   13.4940 C   0  0  2  0  0  0  0  0  0  0  0  0
   10.4940    4.8810   12.1330 C   0  0  1  0  0  0  0  0  0  0  0  0
   11.3460    5.7120   11.2130 C   0  0  2  0  0  0  0  0  0  0  0  0
   11.9290    4.7410   10.3160 C   0  0  0  0  0  0  0  0  0  0  0  0
   12.5030    5.0150    9.2210 O   0  0  0  0  0  0  0  0  0  0  0  0
   11.7530    3.4400   10.8590 N   0  0  0  0  0  0  0  0  0  0  0  0
   11.1340    3.5280   12.1350 C   0  0  0  0  0  0  0  0  0  0  0  0
   11.1590    2.6370   13.0070 O   0  0  0  0  0  0  0  0  0  0  0  0
   12.1690    2.2310   10.1620 C   0  0  0  0  0  0  0  0  0  0  0  0
   11.0010    1.3710    9.7820 C   0  0  0  0  0  0  0  0  0  0  0  0
   11.3830    0.2020    8.9150 C   0  0  0  0  0  0  0  0  0  0  0  0
   10.1000   -0.6050    8.6860 C   0  0  0  0  0  0  0  0  0  0  0  0
    9.5020    6.3800   13.8710 C   0  0  0  0  0  0  0  0  0  0  0  0
   14.1920    4.2730   11.8810 H   0  0  0  0  0  0  0  0  0  0  0  0
   15.9520    8.7830   11.3360 H   0  0  0  0  0  0  0  0  0  0  0  0
   17.4830    6.7890   11.1610 H   0  0  0  0  0  0  0  0  0  0  0  0
   13.3110    9.6460   11.7790 H   0  0  0  0  0  0  0  0  0  0  0  0
   12.6640    5.4310   13.8680 H   0  0  0  0  0  0  0  0  0  0  0  0
   10.6730    4.5940   14.2360 H   0  0  0  0  0  0  0  0  0  0  0  0
    9.4390    4.8170   11.7840 H   0  0  0  0  0  0  0  0  0  0  0  0
   10.7070    6.4780   10.6770 H   0  0  0  0  0  0  0  0  0  0  0  0
   12.7110    2.4920    9.2370 H   0  0  0  0  0  0  0  0  0  0  0  0
   12.8660    1.6610   10.8240 H   0  0  0  0  0  0  0  0  0  0  0  0
   10.2960    1.9930    9.2100 H   0  0  0  0  0  0  0  0  0  0  0  0
   10.5510    0.9720   10.7160 H   0  0  0  0  0  0  0  0  0  0  0  0
   12.1520   -0.4380    9.4050 H   0  0  0  0  0  0  0  0  0  0  0  0
   11.7760    0.5400    7.9550 H   0  0  0  0  0  0  0  0  0  0  0  0
   10.3380   -1.6550    8.4310 H   0  0  0  0  0  0  0  0  0  0  0  0
    9.4390   -0.5040    9.5640 H   0  0  0  0  0  0  0  0  0  0  0  0
    9.5680   -0.0800    7.8410 H   0  0  0  0  0  0  0  0  0  0  0  0
    8.7660    5.8120   14.5180 H   0  0  0  0  0  0  0  0  0  0  0  0
    9.8890    7.1730   14.5060 H   0  0  0  0  0  0  0  0  0  0  0  0
    8.9010    6.6930   13.0020 H   0  0  0  0  0  0  0  0  0  0  0  0
  1  2  1  0  0  0  0
  2  3  1  0  0  0  0
  3  4  2  0  0  0  0
  3 26  1  0  0  0  0
  5  8  1  0  0  0  0
  5  4  1  0  0  0  0
  6  5  2  0  0  0  0
  7  6  1  0  0  0  0
  7  2  2  0  0  0  0
  8  9  1  0  0  0  0
  9 10  2  0  0  0  0
 11  4  1  6  0  0  0
 11  9  1  0  0  0  0
 11 12  1  0  0  0  0
 12 13  1  0  0  0  0
 12 30  1  0  0  0  0
 13 25  1  0  0  0  0
 13 31  1  1  0  0  0
 14 32  1  6  0  0  0
 14 19  1  0  0  0  0
 14 13  1  0  0  0  0
 15 33  1  6  0  0  0
 15 11  1  0  0  0  0
 15 14  1  0  0  0  0
 16 18  1  0  0  0  0
 16 15  1  0  0  0  0
 17 16  2  0  0  0  0
 18 19  1  0  0  0  0
 19 20  2  0  0  0  0
 21 35  1  0  0  0  0
 21 18  1  0  0  0  0
 22 21  1  0  0  0  0
 22 37  1  0  0  0  0
 23 38  1  0  0  0  0
 23 22  1  0  0  0  0
 24 23  1  0  0  0  0
 24 41  1  0  0  0  0
 25 44  1  0  0  0  0
 25 43  1  0  0  0  0
 27  6  1  0  0  0  0
 28  7  1  0  0  0  0
 29  8  1  0  0  0  0
 34 21  1  0  0  0  0
 36 22  1  0  0  0  0
 39 23  1  0  0  0  0
 40 24  1  0  0  0  0
 42 24  1  0  0  0  0
 45 25  1  0  0  0  0
M  END
>  <Pose>
1

>  <Score>
-6.14

$$$$
