
 OpenBabel03172210413D

 41 44  0  0  0  0  0  0  0  0999 V2000
    7.3370   10.7910   12.6840 B   0  0  0  0  0  0  0  0  0  0  0  0
    8.4640    9.3360   13.1640 C   0  0  0  0  0  0  0  0  0  0  0  0
    8.6350    8.2520   12.3280 C   0  0  0  0  0  0  0  0  0  0  0  0
    9.4490    7.1890   12.6610 C   0  0  0  0  0  0  0  0  0  0  0  0
   10.1050    7.2290   13.8770 C   0  0  0  0  0  0  0  0  0  0  0  0
   10.8130    6.0870   13.9400 N   0  0  0  0  0  0  0  0  0  0  0  0
   10.6320    5.3380   12.8240 C   0  0  0  0  0  0  0  0  0  0  0  0
    9.7670    6.0230   11.9980 C   0  0  0  0  0  0  0  0  0  0  0  0
    9.4330    5.4680   10.8160 N   0  0  0  0  0  0  0  0  0  0  0  0
    9.9190    4.2750   10.4250 C   0  0  0  0  0  0  0  0  0  0  0  0
   10.7620    3.5870   11.2070 N   0  0  0  0  0  0  0  0  0  0  0  0
   11.1060    4.1210   12.3880 C   0  0  0  0  0  0  0  0  0  0  0  0
   11.8950    3.4900   13.1340 O   0  0  0  0  0  0  0  0  0  0  0  0
   11.2950    2.2800   10.7860 C   0  0  0  0  0  0  0  0  0  0  0  0
   12.5830    2.4500   10.0760 C   0  0  0  0  0  0  0  0  0  0  0  0
   13.3210    1.2730    9.7990 N   0  0  0  0  0  0  0  0  0  0  0  0
   14.7320    1.3920    9.9250 C   0  0  0  0  0  0  0  0  0  0  0  0
   15.4310    1.6570    8.6220 C   0  0  0  0  0  0  0  0  0  0  0  0
   14.8270    0.9490    7.5130 N   0  0  0  0  0  0  0  0  0  0  0  0
   13.9750   -0.1320    7.9800 C   0  0  0  0  0  0  0  0  0  0  0  0
   12.8220    0.5160    8.7070 C   0  0  0  0  0  0  0  0  0  0  0  0
    9.9250    8.3200   14.7060 C   0  0  0  0  0  0  0  0  0  0  0  0
    9.1120    9.3880   14.3810 C   0  0  0  0  0  0  0  0  0  0  0  0
    8.1250    8.2110   11.3720 H   0  0  0  0  0  0  0  0  0  0  0  0
   11.4240    5.7940   14.7250 H   0  0  0  0  0  0  0  0  0  0  0  0
    9.6380    3.8410    9.4660 H   0  0  0  0  0  0  0  0  0  0  0  0
   10.5120    1.8620   10.1130 H   0  0  0  0  0  0  0  0  0  0  0  0
   11.3160    1.6640   11.6800 H   0  0  0  0  0  0  0  0  0  0  0  0
   12.4230    3.0090    9.1330 H   0  0  0  0  0  0  0  0  0  0  0  0
   13.2400    3.1150   10.7090 H   0  0  0  0  0  0  0  0  0  0  0  0
   15.0090    2.1700   10.6630 H   0  0  0  0  0  0  0  0  0  0  0  0
   15.1290    0.4270   10.3070 H   0  0  0  0  0  0  0  0  0  0  0  0
   16.5060    1.3900    8.6520 H   0  0  0  0  0  0  0  0  0  0  0  0
   15.3720    2.7390    8.3890 H   0  0  0  0  0  0  0  0  0  0  0  0
   14.3010    1.5880    6.8730 H   0  0  0  0  0  0  0  0  0  0  0  0
   14.5570   -0.7390    8.6880 H   0  0  0  0  0  0  0  0  0  0  0  0
   13.6540   -0.6810    7.0720 H   0  0  0  0  0  0  0  0  0  0  0  0
   12.1760   -0.2970    9.1420 H   0  0  0  0  0  0  0  0  0  0  0  0
   12.2110    1.1010    7.9900 H   0  0  0  0  0  0  0  0  0  0  0  0
   10.4430    8.3500   15.6640 H   0  0  0  0  0  0  0  0  0  0  0  0
    8.9730   10.2500   15.0390 H   0  0  0  0  0  0  0  0  0  0  0  0
  1  2  1  0  0  0  0
  2 23  1  0  0  0  0
  3  4  1  0  0  0  0
  3  2  2  0  0  0  0
  4  5  2  0  0  0  0
  5  6  1  0  0  0  0
  5 22  1  0  0  0  0
  6 25  1  0  0  0  0
  7  6  1  0  0  0  0
  8  4  1  0  0  0  0
  8  7  2  0  0  0  0
  9  8  1  0  0  0  0
 10  9  2  0  0  0  0
 10 11  1  0  0  0  0
 11 12  1  0  0  0  0
 12  7  1  0  0  0  0
 12 13  2  0  0  0  0
 14 11  1  0  0  0  0
 14 28  1  0  0  0  0
 15 30  1  0  0  0  0
 15 14  1  0  0  0  0
 16 17  1  0  0  0  0
 16 15  1  0  0  0  0
 17 32  1  0  0  0  0
 17 31  1  0  0  0  0
 18 33  1  0  0  0  0
 18 17  1  0  0  0  0
 19 20  1  0  0  0  0
 19 18  1  0  0  0  0
 20 36  1  0  0  0  0
 20 21  1  0  0  0  0
 21 38  1  0  0  0  0
 21 16  1  0  0  0  0
 22 40  1  0  0  0  0
 23 22  2  0  0  0  0
 23 41  1  0  0  0  0
 24  3  1  0  0  0  0
 26 10  1  0  0  0  0
 27 14  1  0  0  0  0
 29 15  1  0  0  0  0
 34 18  1  0  0  0  0
 35 19  1  0  0  0  0
 37 20  1  0  0  0  0
 39 21  1  0  0  0  0
M  END
>  <Pose>
1

>  <Score>
-6.06

$$$$
