
 OpenBabel03172210413D

 55 58  0  0  0  0  0  0  0  0999 V2000
   13.6800    0.3090    8.4080 B   0  0  0  0  0  0  0  0  0  0  0  0
   13.1430    1.8160    9.4040 C   0  0  0  0  0  0  0  0  0  0  0  0
   14.0600    2.5760   10.1100 C   0  0  0  0  0  0  0  0  0  0  0  0
   13.6940    3.6610   10.8520 C   0  0  0  0  0  0  0  0  0  0  0  0
   14.4560    4.5520   11.5560 N   0  0  0  0  0  0  0  0  0  0  0  0
   13.6240    5.4870   12.0460 C   0  0  0  0  0  0  0  0  0  0  0  0
   12.2910    5.1670   11.6690 C   0  0  0  0  0  0  0  0  0  0  0  0
   12.3950    4.0250   10.9170 C   0  0  0  0  0  0  0  0  0  0  0  0
   11.4500    3.2750   10.2120 C   0  0  0  0  0  0  0  0  0  0  0  0
   11.8080    2.1710    9.4510 C   0  0  0  0  0  0  0  0  0  0  0  0
   10.8830    1.4020    8.7230 O   0  0  0  0  0  0  0  0  0  0  0  0
   11.0450    5.7910   12.1320 C   0  0  0  0  0  0  0  0  0  0  0  0
   10.4360    6.5360   11.3180 O   0  0  0  0  0  0  0  0  0  0  0  0
   10.4850    5.6250   13.3550 O   0  0  0  0  0  0  0  0  0  0  0  0
    9.7560    6.4790   14.1610 C   0  0  0  0  0  0  0  0  0  0  0  0
    8.2920    6.0940   14.3330 C   0  0  0  0  0  0  0  0  0  0  0  0
   13.9290    6.7110   12.7860 C   0  0  0  0  0  0  0  0  0  0  0  0
   13.9510    6.6680   14.2160 N   0  0  0  0  0  4  0  0  0  0  0  0
   13.3150    7.4370   15.1330 C   0  0  0  0  0  0  0  0  0  0  0  0
   14.2440    7.5660   16.3640 C   0  0  0  0  0  0  0  0  0  0  0  0
   15.0560    6.2810   16.2200 C   0  0  0  0  0  0  0  0  0  0  0  0
   15.2940    6.3300   14.7170 C   0  0  0  0  0  0  0  0  0  0  0  0
   15.8530    4.2410   11.9180 C   0  0  0  0  0  0  0  0  0  0  0  0
   16.6840    5.4240   11.3710 C   0  0  0  0  0  0  0  0  0  0  0  0
   17.7870    5.0770   10.6460 C   0  0  0  0  0  0  0  0  0  0  0  0
   18.5860    6.0990   10.1060 C   0  0  0  0  0  0  0  0  0  0  0  0
   18.3020    7.4210   10.2700 C   0  0  0  0  0  0  0  0  0  0  0  0
   17.1620    7.7250   11.0150 C   0  0  0  0  0  0  0  0  0  0  0  0
   16.3600    6.7170   11.5630 C   0  0  0  0  0  0  0  0  0  0  0  0
   15.1160    2.3180   10.0720 H   0  0  0  0  0  0  0  0  0  0  0  0
   10.3970    3.5690   10.2380 H   0  0  0  0  0  0  0  0  0  0  0  0
   10.0410    1.8600    8.3440 H   0  0  0  0  0  0  0  0  0  0  0  0
   10.2060    6.4260   15.1970 H   0  0  0  0  0  0  0  0  0  0  0  0
    9.7990    7.5210   13.8290 H   0  0  0  0  0  0  0  0  0  0  0  0
    7.8660    6.6090   15.2220 H   0  0  0  0  0  0  0  0  0  0  0  0
    7.6710    6.3930   13.4670 H   0  0  0  0  0  0  0  0  0  0  0  0
    8.1650    4.9890   14.4690 H   0  0  0  0  0  0  0  0  0  0  0  0
   14.8990    7.1100   12.4640 H   0  0  0  0  0  0  0  0  0  0  0  0
   13.1100    7.4870   12.5340 H   0  0  0  0  0  0  0  0  0  0  0  0
   13.4940    5.5900   14.3580 H   0  0  0  0  0  0  0  0  0  0  0  0
   12.3910    6.9030   15.6210 H   0  0  0  0  0  0  0  0  0  0  0  0
   12.9560    8.4370   14.9150 H   0  0  0  0  0  0  0  0  0  0  0  0
   13.6680    7.6300   17.2810 H   0  0  0  0  0  0  0  0  0  0  0  0
   14.9160    8.3830   16.1640 H   0  0  0  0  0  0  0  0  0  0  0  0
   14.3820    5.4590   16.5060 H   0  0  0  0  0  0  0  0  0  0  0  0
   15.9550    6.3050   16.8160 H   0  0  0  0  0  0  0  0  0  0  0  0
   15.9680    7.1670   14.5020 H   0  0  0  0  0  0  0  0  0  0  0  0
   15.6680    5.3780   14.3120 H   0  0  0  0  0  0  0  0  0  0  0  0
   16.2830    3.3590   11.5360 H   0  0  0  0  0  0  0  0  0  0  0  0
   15.9470    4.3440   13.0060 H   0  0  0  0  0  0  0  0  0  0  0  0
   18.0660    4.0480   10.4690 H   0  0  0  0  0  0  0  0  0  0  0  0
   19.4750    5.8540    9.5290 H   0  0  0  0  0  0  0  0  0  0  0  0
   18.9270    8.2030    9.8440 H   0  0  0  0  0  0  0  0  0  0  0  0
   16.9100    8.7560   11.1430 H   0  0  0  0  0  0  0  0  0  0  0  0
   15.5070    6.9980   12.1260 H   0  0  0  0  0  0  0  0  0  0  0  0
  1  2  1  0  0  0  0
  2 10  2  0  0  0  0
  2  3  1  0  0  0  0
  3  4  2  0  0  0  0
  4  8  1  0  0  0  0
  4  5  1  0  0  0  0
  5 23  1  0  0  0  0
  5  6  1  0  0  0  0
  6 17  1  0  0  0  0
  7  6  2  0  0  0  0
  7 12  1  0  0  0  0
  8  7  1  0  0  0  0
  9 31  1  0  0  0  0
  9  8  2  0  0  0  0
 10  9  1  0  0  0  0
 11 10  1  0  0  0  0
 12 14  1  0  0  0  0
 13 12  2  0  0  0  0
 14 15  1  0  0  0  0
 15 16  1  0  0  0  0
 15 33  1  0  0  0  0
 16 37  1  0  0  0  0
 16 35  1  0  0  0  0
 17 18  1  0  0  0  0
 18 40  1  0  0  0  0
 18 22  1  0  0  0  0
 18 19  1  0  0  0  0
 19 41  1  0  0  0  0
 19 20  1  0  0  0  0
 20 43  1  0  0  0  0
 21 20  1  0  0  0  0
 21 45  1  0  0  0  0
 21 46  1  0  0  0  0
 22 21  1  0  0  0  0
 23 50  1  0  0  0  0
 24 29  1  0  0  0  0
 24 23  1  0  0  0  0
 25 24  2  0  0  0  0
 26 27  2  0  0  0  0
 26 25  1  0  0  0  0
 27 28  1  0  0  0  0
 28 54  1  0  0  0  0
 28 29  2  0  0  0  0
 29 55  1  0  0  0  0
 30  3  1  0  0  0  0
 32 11  1  0  0  0  0
 34 15  1  0  0  0  0
 36 16  1  0  0  0  0
 38 17  1  0  0  0  0
 39 17  1  0  0  0  0
 42 19  1  0  0  0  0
 44 20  1  0  0  0  0
 47 22  1  0  0  0  0
 48 22  1  0  0  0  0
 49 23  1  0  0  0  0
 51 25  1  0  0  0  0
 52 26  1  0  0  0  0
 53 27  1  0  0  0  0
M  END
>  <Pose>
1

>  <Score>
-5.56

$$$$
