
 OpenBabel03172210413D

 47 50  0  0  0  0  0  0  0  0999 V2000
    6.6870    6.2760   14.5100 B   0  0  0  0  0  0  0  0  0  0  0  0
    7.9520    6.6180   13.1220 C   0  0  0  0  0  0  0  0  0  0  0  0
    9.1170    5.9360   12.8580 C   0  0  0  0  0  0  0  0  0  0  0  0
    9.6960    6.4990   11.8020 N   0  0  0  0  0  0  0  0  0  0  0  0
    8.9190    7.5060   11.4110 N   0  0  0  0  0  0  0  0  0  0  0  0
    7.8330    7.6230   12.1890 C   0  0  0  0  0  0  0  0  0  0  0  0
   10.9640    6.1050   11.1610 C   0  0  0  0  0  0  0  0  0  0  0  0
   10.6540    4.9550   10.2700 C   0  0  0  0  0  0  0  0  0  0  0  0
   10.9130    5.0900    9.0300 O   0  0  0  0  0  0  0  0  0  0  0  0
   10.1090    3.7930   10.7720 N   0  0  0  0  0  0  0  0  0  0  0  0
   10.7710    2.6590   11.3910 C   0  0  0  0  0  0  0  0  0  0  0  0
   11.6460    1.9120   10.4630 C   0  0  0  0  0  0  0  0  0  0  0  0
   11.1590    0.9910    9.5700 C   0  0  0  0  0  0  0  0  0  0  0  0
   11.9970    0.3370    8.6850 C   0  0  0  0  0  0  0  0  0  0  0  0
   13.3500    0.5910    8.6710 C   0  0  0  0  0  0  0  0  0  0  0  0
   13.8640    1.5340    9.5820 C   0  0  0  0  0  0  0  0  0  0  0  0
   13.0340    2.1810   10.4590 C   0  0  0  0  0  0  0  0  0  0  0  0
   13.5820    3.1530   11.4080 C   0  0  0  0  0  0  0  0  0  0  0  0
   14.8910    3.7570   11.0900 C   0  0  0  0  0  0  0  0  0  0  0  0
   15.8050    2.8560   10.3980 N   0  0  0  0  0  0  0  0  0  0  0  0
   15.2860    1.8570    9.5300 C   0  0  0  0  0  0  0  0  0  0  0  0
   16.0720    1.2680    8.7290 O   0  0  0  0  0  0  0  0  0  0  0  0
   17.2170    3.0550   10.6290 C   0  0  0  0  0  0  0  0  0  0  0  0
   14.2190   -0.0450    7.8030 O   0  0  0  0  0  0  0  0  0  0  0  0
   14.1040    0.1160    6.4040 C   0  0  0  0  0  0  0  0  0  0  0  0
   11.1980   -0.5100    7.9420 O   0  0  0  0  0  0  0  0  0  0  0  0
    9.8930   -0.5410    8.4620 C   0  0  0  0  0  0  0  0  0  0  0  0
    9.8300    0.5510    9.3750 O   0  0  0  0  0  0  0  0  0  0  0  0
    9.4660    5.0850   13.4470 H   0  0  0  0  0  0  0  0  0  0  0  0
    7.0160    8.3240   12.1450 H   0  0  0  0  0  0  0  0  0  0  0  0
   11.6620    5.7950   11.9770 H   0  0  0  0  0  0  0  0  0  0  0  0
   11.4170    6.9250   10.6060 H   0  0  0  0  0  0  0  0  0  0  0  0
    9.0490    3.6710   10.7100 H   0  0  0  0  0  0  0  0  0  0  0  0
    9.8830    1.9730   11.6070 H   0  0  0  0  0  0  0  0  0  0  0  0
   11.2330    2.8810   12.3550 H   0  0  0  0  0  0  0  0  0  0  0  0
   13.5600    2.8020   12.4620 H   0  0  0  0  0  0  0  0  0  0  0  0
   12.8450    4.0210   11.4150 H   0  0  0  0  0  0  0  0  0  0  0  0
   14.7570    4.6480   10.4080 H   0  0  0  0  0  0  0  0  0  0  0  0
   15.3490    4.1500   12.0390 H   0  0  0  0  0  0  0  0  0  0  0  0
   17.4090    4.1480   10.7550 H   0  0  0  0  0  0  0  0  0  0  0  0
   17.4730    2.5520   11.5800 H   0  0  0  0  0  0  0  0  0  0  0  0
   17.8530    2.6170    9.8370 H   0  0  0  0  0  0  0  0  0  0  0  0
   13.0080    0.2530    6.1850 H   0  0  0  0  0  0  0  0  0  0  0  0
   14.4490   -0.7770    5.8460 H   0  0  0  0  0  0  0  0  0  0  0  0
   14.6760    1.0100    6.0360 H   0  0  0  0  0  0  0  0  0  0  0  0
    9.6760   -1.4650    9.0430 H   0  0  0  0  0  0  0  0  0  0  0  0
    9.1360   -0.3260    7.6760 H   0  0  0  0  0  0  0  0  0  0  0  0
  2  1  1  0  0  0  0
  3  2  2  0  0  0  0
  3 29  1  0  0  0  0
  4  3  1  0  0  0  0
  5  4  1  0  0  0  0
  5  6  2  0  0  0  0
  6  2  1  0  0  0  0
  7  4  1  0  0  0  0
  7 31  1  0  0  0  0
  8 10  1  0  0  0  0
  8  7  1  0  0  0  0
  9  8  2  0  0  0  0
 10 11  1  0  0  0  0
 11 34  1  0  0  0  0
 11 35  1  0  0  0  0
 12 11  1  0  0  0  0
 13 12  2  0  0  0  0
 14 13  1  0  0  0  0
 15 14  2  0  0  0  0
 15 16  1  0  0  0  0
 16 17  2  0  0  0  0
 17 12  1  0  0  0  0
 17 18  1  0  0  0  0
 18 37  1  0  0  0  0
 18 36  1  0  0  0  0
 19 18  1  0  0  0  0
 19 39  1  0  0  0  0
 20 23  1  0  0  0  0
 20 19  1  0  0  0  0
 21 16  1  0  0  0  0
 21 20  1  0  0  0  0
 22 21  2  0  0  0  0
 23 40  1  0  0  0  0
 23 41  1  0  0  0  0
 24 15  1  0  0  0  0
 25 24  1  0  0  0  0
 26 27  1  0  0  0  0
 26 14  1  0  0  0  0
 27 46  1  0  0  0  0
 27 28  1  0  0  0  0
 28 13  1  0  0  0  0
 30  6  1  0  0  0  0
 32  7  1  0  0  0  0
 33 10  1  0  0  0  0
 38 19  1  0  0  0  0
 42 23  1  0  0  0  0
 43 25  1  0  0  0  0
 44 25  1  0  0  0  0
 45 25  1  0  0  0  0
 47 27  1  0  0  0  0
M  END
>  <Pose>
1

>  <Score>
-7.40

$$$$
