
 OpenBabel03172210413D

 33 37  0  0  0  0  0  0  0  0999 V2000
    4.3610    8.2380   14.1300 B   0  0  0  0  0  0  0  0  0  0  0  0
    5.8800    7.2340   14.6400 C   0  0  0  0  0  0  0  0  0  0  0  0
    7.1530    7.3400   14.1170 C   0  0  0  0  0  0  0  0  0  0  0  0
    7.9420    6.4550   14.7480 N   0  0  0  0  0  0  0  0  0  0  0  0
    7.2120    5.8050   15.6370 N   0  0  0  0  0  0  0  0  0  0  0  0
    5.9360    6.2540   15.6060 C   0  0  0  0  0  0  0  0  0  0  0  0
    9.3530    6.2390   14.5030 C   0  0  0  0  0  0  0  0  0  0  0  0
    9.5930    5.7690   13.1370 N   0  0  0  0  0  0  0  0  0  0  0  0
   10.2600    4.6750   12.8120 N   0  0  0  0  0  0  0  0  0  0  0  0
   10.3090    4.5160   11.4780 C   0  0  0  0  0  0  0  0  0  0  0  0
    9.6220    5.5910   10.9550 C   0  0  0  0  0  0  0  0  0  0  0  0
    9.1760    6.3770   12.0130 C   0  0  0  0  0  0  0  0  0  0  0  0
   10.9460    3.4420   10.7190 C   0  0  0  0  0  0  0  0  0  0  0  0
   10.3520    2.3230   10.2720 N   0  0  0  0  0  0  0  0  0  0  0  0
   11.2330    1.5650    9.6190 N   0  0  0  0  0  0  0  0  0  0  0  0
   12.4310    2.2150    9.6470 C   0  0  0  0  0  0  0  0  0  0  0  0
   12.2280    3.3610   10.3250 N   0  0  0  0  0  0  0  0  0  0  0  0
   13.5120    1.6230    9.0290 C   0  0  0  0  0  0  0  0  0  0  0  0
   13.4270    0.4000    8.3870 C   0  0  0  0  0  0  0  0  0  0  0  0
   14.6320    0.0810    7.8850 N   0  0  0  0  0  0  0  0  0  0  0  0
   15.4580    1.0670    8.1970 N   0  0  0  0  0  0  0  0  0  0  0  0
   14.8140    2.0260    8.8940 C   0  0  0  0  0  0  0  0  0  0  0  0
   12.2280   -0.2030    8.3860 N   0  0  0  0  0  0  0  0  0  0  0  0
   11.1770    0.3780    8.9890 C   0  0  0  0  0  0  0  0  0  0  0  0
    7.4250    8.0240   13.3420 H   0  0  0  0  0  0  0  0  0  0  0  0
    5.1100    5.9260   16.2030 H   0  0  0  0  0  0  0  0  0  0  0  0
    9.7910    5.4940   15.2050 H   0  0  0  0  0  0  0  0  0  0  0  0
    9.9380    7.1870   14.6800 H   0  0  0  0  0  0  0  0  0  0  0  0
    9.4730    5.7690    9.9030 H   0  0  0  0  0  0  0  0  0  0  0  0
    8.6050    7.2930   11.9700 H   0  0  0  0  0  0  0  0  0  0  0  0
   14.8960   -0.7730    7.3490 H   0  0  0  0  0  0  0  0  0  0  0  0
   15.2170    2.9600    9.2940 H   0  0  0  0  0  0  0  0  0  0  0  0
   10.2290   -0.1390    8.9650 H   0  0  0  0  0  0  0  0  0  0  0  0
  1  2  1  0  0  0  0
  2  6  1  0  0  0  0
  3  2  2  0  0  0  0
  3  4  1  0  0  0  0
  4  5  1  0  0  0  0
  6  5  2  0  0  0  0
  6 26  1  0  0  0  0
  7 28  1  0  0  0  0
  7  4  1  0  0  0  0
  7 27  1  0  0  0  0
  8  7  1  0  0  0  0
  9  8  1  0  0  0  0
 10  9  2  0  0  0  0
 11 10  1  0  0  0  0
 11 12  2  0  0  0  0
 12  8  1  0  0  0  0
 13 10  1  0  0  0  0
 14 13  2  0  0  0  0
 15 16  1  0  0  0  0
 15 14  1  0  0  0  0
 16 17  2  0  0  0  0
 17 13  1  0  0  0  0
 18 16  1  0  0  0  0
 19 18  2  0  0  0  0
 20 21  1  0  0  0  0
 20 19  1  0  0  0  0
 21 22  2  0  0  0  0
 22 18  1  0  0  0  0
 22 32  1  0  0  0  0
 23 19  1  0  0  0  0
 23 24  2  0  0  0  0
 24 15  1  0  0  0  0
 25  3  1  0  0  0  0
 29 11  1  0  0  0  0
 30 12  1  0  0  0  0
 31 20  1  0  0  0  0
 33 24  1  0  0  0  0
M  END
>  <Pose>
1

>  <Score>
-8.10

$$$$
