
 OpenBabel03172210413D

 42 45  0  0  0  0  0  0  0  0999 V2000
    2.7860    9.0430   13.4720 B   0  0  0  0  0  0  0  0  0  0  0  0
    4.2980    8.4340   12.4480 C   0  0  0  0  0  0  0  0  0  0  0  0
    5.5750    8.1920   12.9050 C   0  0  0  0  0  0  0  0  0  0  0  0
    6.3450    7.7790   11.8820 N   0  0  0  0  0  0  0  0  0  0  0  0
    5.5740    7.7610   10.8160 N   0  0  0  0  0  0  0  0  0  0  0  0
    4.3320    8.1470   11.1010 C   0  0  0  0  0  0  0  0  0  0  0  0
    7.7190    7.4200   11.8950 C   0  0  0  0  0  0  0  0  0  0  0  0
    8.1010    6.1040   11.8050 C   0  0  0  0  0  0  0  0  0  0  0  0
    9.4180    5.7300   11.8150 C   0  0  0  0  0  0  0  0  0  0  0  0
   10.4740    6.6590   11.9170 C   0  0  0  0  0  0  0  0  0  0  0  0
   10.0780    7.9730   12.0090 C   0  0  0  0  0  0  0  0  0  0  0  0
    8.7240    8.3430   11.9960 C   0  0  0  0  0  0  0  0  0  0  0  0
   11.8360    6.1780   11.9640 C   0  0  0  0  0  0  0  0  0  0  0  0
   12.7280    7.0790   11.6980 O   0  0  0  0  0  0  0  0  0  0  0  0
   12.3260    4.9140   12.2460 N   0  0  0  0  0  0  0  0  0  0  0  0
   11.7730    3.8280   13.0080 C   0  0  0  0  0  0  0  0  0  0  0  0
   11.1880    2.8400   12.0170 C   0  0  0  0  0  0  0  0  0  0  0  0
   12.0650    2.7470   10.7850 C   0  0  0  0  0  0  0  0  0  0  0  0
   12.0850    1.3580   10.3790 N   0  0  0  0  0  0  0  0  0  0  0  0
   10.9460    1.1250    9.5650 C   0  0  0  0  0  0  0  0  0  0  0  0
   10.3910    0.0120    9.2910 O   0  0  0  0  0  0  0  0  0  0  0  0
   10.5140    2.4090    9.0860 N   0  0  0  0  0  0  0  0  0  0  0  0
   11.4150    3.3970    9.6320 C   0  0  0  0  0  0  0  0  0  0  0  0
   11.5610    4.5480    9.1670 O   0  0  0  0  0  0  0  0  0  0  0  0
   13.4720    3.1920   11.0200 C   0  0  0  0  0  0  0  0  0  0  0  0
   13.6390    4.5410   11.6330 C   0  0  0  0  0  0  0  0  0  0  0  0
    5.9050    8.3190   13.9280 H   0  0  0  0  0  0  0  0  0  0  0  0
    3.4590    8.2390   10.4400 H   0  0  0  0  0  0  0  0  0  0  0  0
    7.2860    5.3770   11.7240 H   0  0  0  0  0  0  0  0  0  0  0  0
    9.6760    4.6900   11.7410 H   0  0  0  0  0  0  0  0  0  0  0  0
   10.8210    8.7430   12.1170 H   0  0  0  0  0  0  0  0  0  0  0  0
    8.4550    9.3900   12.0690 H   0  0  0  0  0  0  0  0  0  0  0  0
   12.6810    3.2330   13.4280 H   0  0  0  0  0  0  0  0  0  0  0  0
   11.1850    4.0550   13.8720 H   0  0  0  0  0  0  0  0  0  0  0  0
   11.0570    1.8610   12.4770 H   0  0  0  0  0  0  0  0  0  0  0  0
   10.2040    3.2230   11.7020 H   0  0  0  0  0  0  0  0  0  0  0  0
   12.7840    0.6280   10.6170 H   0  0  0  0  0  0  0  0  0  0  0  0
    9.7100    2.6420    8.4630 H   0  0  0  0  0  0  0  0  0  0  0  0
   13.9550    3.2410    9.9990 H   0  0  0  0  0  0  0  0  0  0  0  0
   14.0610    2.4150   11.5610 H   0  0  0  0  0  0  0  0  0  0  0  0
   14.3280    4.4700   12.5000 H   0  0  0  0  0  0  0  0  0  0  0  0
   13.9950    5.3280   10.9670 H   0  0  0  0  0  0  0  0  0  0  0  0
  2  3  2  0  0  0  0
  2  1  1  0  0  0  0
  3 27  1  0  0  0  0
  4  7  1  0  0  0  0
  4  3  1  0  0  0  0
  5  6  2  0  0  0  0
  5  4  1  0  0  0  0
  6  2  1  0  0  0  0
  7 12  1  0  0  0  0
  8  9  1  0  0  0  0
  8  7  2  0  0  0  0
  9 10  2  0  0  0  0
 10 13  1  0  0  0  0
 10 11  1  0  0  0  0
 11 31  1  0  0  0  0
 12 11  2  0  0  0  0
 12 32  1  0  0  0  0
 13 15  1  0  0  0  0
 14 13  2  0  0  0  0
 15 16  1  0  0  0  0
 16 33  1  0  0  0  0
 16 34  1  0  0  0  0
 17 35  1  0  0  0  0
 17 16  1  0  0  0  0
 18 25  1  0  0  0  0
 18 17  1  0  0  0  0
 19 37  1  0  0  0  0
 19 18  1  0  0  0  0
 20 19  1  0  0  0  0
 21 20  2  0  0  0  0
 22 20  1  0  0  0  0
 22 23  1  0  0  0  0
 23 18  1  0  0  0  0
 24 23  2  0  0  0  0
 25 40  1  0  0  0  0
 25 26  1  0  0  0  0
 26 15  1  0  0  0  0
 26 41  1  0  0  0  0
 28  6  1  0  0  0  0
 29  8  1  0  0  0  0
 30  9  1  0  0  0  0
 36 17  1  0  0  0  0
 38 22  1  0  0  0  0
 39 25  1  0  0  0  0
 42 26  1  0  0  0  0
M  END
>  <Pose>
1

>  <Score>
-6.14

$$$$
