
 OpenBabel03172210413D

 41 44  0  0  0  0  0  0  0  0999 V2000
    7.9350    8.4730   11.8630 B   0  0  0  0  0  0  0  0  0  0  0  0
    9.3670    7.2410   12.1540 C   0  0  0  0  0  0  0  0  0  0  0  0
    9.2400    6.1620   12.9890 C   0  0  0  0  0  0  0  0  0  0  0  0
   10.2540    5.3090   13.1720 N   0  0  0  0  0  0  0  0  0  0  0  0
   11.4640    5.4330   12.5620 C   0  0  0  0  0  0  0  0  0  0  0  0
   11.5850    6.5400   11.7130 C   0  0  0  0  0  0  0  0  0  0  0  0
   10.5660    7.4290   11.5050 C   0  0  0  0  0  0  0  0  0  0  0  0
   12.4980    4.4930   12.7770 N   0  0  0  0  0  0  0  0  0  0  0  0
   12.8760    3.6600   11.6980 C   0  0  0  0  0  0  0  0  0  0  0  0
   14.0070    3.6150   11.0570 C   0  0  0  0  0  0  0  0  0  0  0  0
   13.8660    2.5770   10.0340 C   0  0  0  0  0  0  0  0  0  0  0  0
   14.7860    2.2590    9.2170 O   0  0  0  0  0  0  0  0  0  0  0  0
   12.5640    1.9780   10.0840 N   0  0  0  0  0  0  0  0  0  0  0  0
   11.9180    2.6690   11.1520 C   0  0  0  0  0  0  0  0  0  0  0  0
   10.7420    2.4710   11.5570 O   0  0  0  0  0  0  0  0  0  0  0  0
   12.0570    0.9360    9.2640 C   0  0  0  0  0  0  0  0  0  0  0  0
   12.8380    0.2020    8.4080 C   0  0  0  0  0  0  0  0  0  0  0  0
   12.3030   -0.8380    7.6190 C   0  0  0  0  0  0  0  0  0  0  0  0
   10.9640   -1.1480    7.6900 C   0  0  0  0  0  0  0  0  0  0  0  0
   10.1790   -0.4170    8.5450 C   0  0  0  0  0  0  0  0  0  0  0  0
   10.7250    0.6090    9.3170 C   0  0  0  0  0  0  0  0  0  0  0  0
   15.1800    4.4050   11.2610 N   0  0  0  0  0  0  0  0  0  0  0  0
   16.3950    3.8300   11.2080 C   0  0  0  0  0  0  0  0  0  0  0  0
   17.5680    4.5760   11.4120 C   0  0  0  0  0  0  0  0  0  0  0  0
   17.4840    5.9310   11.6750 C   0  0  0  0  0  0  0  0  0  0  0  0
   16.2290    6.4980   11.7240 C   0  0  0  0  0  0  0  0  0  0  0  0
   15.1100    5.7340   11.5180 C   0  0  0  0  0  0  0  0  0  0  0  0
    8.3050    6.0150   13.5020 H   0  0  0  0  0  0  0  0  0  0  0  0
   12.5460    6.6600   11.2180 H   0  0  0  0  0  0  0  0  0  0  0  0
   10.6570    8.2920   10.8430 H   0  0  0  0  0  0  0  0  0  0  0  0
   12.9570    4.4140   13.6840 H   0  0  0  0  0  0  0  0  0  0  0  0
   13.8900    0.4280    8.3320 H   0  0  0  0  0  0  0  0  0  0  0  0
   12.9620   -1.3910    6.9550 H   0  0  0  0  0  0  0  0  0  0  0  0
   10.5620   -1.9540    7.0770 H   0  0  0  0  0  0  0  0  0  0  0  0
    9.1240   -0.6520    8.6050 H   0  0  0  0  0  0  0  0  0  0  0  0
   10.0490    1.1370    9.9700 H   0  0  0  0  0  0  0  0  0  0  0  0
   16.4370    2.7660   10.9990 H   0  0  0  0  0  0  0  0  0  0  0  0
   18.5320    4.0650   11.3560 H   0  0  0  0  0  0  0  0  0  0  0  0
   18.3890    6.5250   11.8380 H   0  0  0  0  0  0  0  0  0  0  0  0
   16.1520    7.5510   11.9300 H   0  0  0  0  0  0  0  0  0  0  0  0
   14.1020    6.1790   11.5540 H   0  0  0  0  0  0  0  0  0  0  0  0
  1  2  1  0  0  0  0
  2  3  1  0  0  0  0
  3  4  2  0  0  0  0
  3 28  1  0  0  0  0
  5  8  1  0  0  0  0
  5  4  1  0  0  0  0
  6  5  2  0  0  0  0
  7  6  1  0  0  0  0
  7  2  2  0  0  0  0
  8 31  1  0  0  0  0
  9  8  1  0  0  0  0
 10 22  1  0  0  0  0
 10  9  2  0  0  0  0
 11 13  1  0  0  0  0
 11 10  1  0  0  0  0
 12 11  2  0  0  0  0
 13 14  1  0  0  0  0
 14 15  2  0  0  0  0
 14  9  1  0  0  0  0
 16 21  1  0  0  0  0
 16 13  1  0  0  0  0
 17 16  2  0  0  0  0
 18 19  2  0  0  0  0
 18 17  1  0  0  0  0
 19 20  1  0  0  0  0
 20 35  1  0  0  0  0
 20 21  2  0  0  0  0
 21 36  1  0  0  0  0
 22 27  1  0  0  0  0
 23 22  1  0  0  0  0
 23 24  1  0  0  0  0
 24 25  2  0  0  0  0
 25 26  1  0  0  0  0
 25 39  1  0  0  0  0
 26 40  1  0  0  0  0
 27 41  1  0  0  0  0
 27 26  2  0  0  0  0
 29  6  1  0  0  0  0
 30  7  1  0  0  0  0
 32 17  1  0  0  0  0
 33 18  1  0  0  0  0
 34 19  1  0  0  0  0
 37 23  1  0  0  0  0
 38 24  1  0  0  0  0
M  END
>  <Pose>
1

>  <Score>
-6.66

$$$$
