
 OpenBabel03172210413D

 43 46  0  0  0  0  0  0  0  0999 V2000
    6.4310    6.6010   14.9440 B   0  0  0  0  0  0  0  0  0  0  0  0
    7.3870    6.1680   13.3490 C   0  0  0  0  0  0  0  0  0  0  0  0
    6.7490    6.1270   12.1500 C   0  0  0  0  0  0  0  0  0  0  0  0
    7.4040    5.8270   11.0290 N   0  0  0  0  0  0  0  0  0  0  0  0
    8.7160    5.5590   11.0780 C   0  0  0  0  0  0  0  0  0  0  0  0
    9.4200    5.5860   12.2760 C   0  0  0  0  0  0  0  0  0  0  0  0
    8.7520    5.8960   13.4380 C   0  0  0  0  0  0  0  0  0  0  0  0
   10.8330    5.2910   12.2360 C   0  0  0  0  0  0  0  0  0  0  0  0
   11.6450    6.1250   11.8020 O   0  0  0  0  0  0  0  0  0  0  0  0
   11.3460    3.9890   12.7080 N   0  0  0  0  0  0  0  0  0  0  0  0
   11.1270    2.9080   11.8520 C   0  0  0  0  0  0  0  0  0  0  0  0
   12.0620    2.4060   10.8670 C   0  0  0  0  0  0  0  0  0  0  0  0
   11.4230    1.4950    9.9530 C   0  0  0  0  0  0  0  0  0  0  0  0
   12.1400    0.9160    8.9710 C   0  0  0  0  0  0  0  0  0  0  0  0
   13.5120    1.1840    8.8180 C   0  0  0  0  0  0  0  0  0  0  0  0
   14.1380    2.0520    9.6800 C   0  0  0  0  0  0  0  0  0  0  0  0
   13.4000    2.6640   10.7060 C   0  0  0  0  0  0  0  0  0  0  0  0
   14.0370    3.6770   11.5860 C   0  0  0  0  0  0  0  0  0  0  0  0
   15.3310    4.2520   11.0200 C   0  0  0  0  0  0  0  0  0  0  0  0
   16.1980    3.2160   10.5090 N   0  0  0  0  0  0  0  0  0  0  0  0
   15.5670    2.3300    9.5740 C   0  0  0  0  0  0  0  0  0  0  0  0
   16.3020    1.8310    8.6970 O   0  0  0  0  0  0  0  0  0  0  0  0
   17.5820    3.0850   10.9080 C   0  0  0  0  0  0  0  0  0  0  0  0
   14.1580    0.5650    7.8140 O   0  0  0  0  0  0  0  0  0  0  0  0
   11.2620    0.0920    8.2500 O   0  0  0  0  0  0  0  0  0  0  0  0
   10.0410   -0.0350    8.9470 C   0  0  0  0  0  0  0  0  0  0  0  0
   10.1030    1.0430    9.8590 O   0  0  0  0  0  0  0  0  0  0  0  0
    5.6720    6.3360   12.0410 H   0  0  0  0  0  0  0  0  0  0  0  0
    9.2840    5.3110   10.1840 H   0  0  0  0  0  0  0  0  0  0  0  0
    9.2680    5.9290   14.3820 H   0  0  0  0  0  0  0  0  0  0  0  0
   11.7700    4.0720   13.6440 H   0  0  0  0  0  0  0  0  0  0  0  0
   10.8130    2.0120   12.5390 H   0  0  0  0  0  0  0  0  0  0  0  0
   10.0820    3.0600   11.3460 H   0  0  0  0  0  0  0  0  0  0  0  0
   14.2870    3.3020   12.5840 H   0  0  0  0  0  0  0  0  0  0  0  0
   13.3910    4.5840   11.6740 H   0  0  0  0  0  0  0  0  0  0  0  0
   15.8040    4.8020   11.8710 H   0  0  0  0  0  0  0  0  0  0  0  0
   15.0330    4.9530   10.2090 H   0  0  0  0  0  0  0  0  0  0  0  0
   17.5750    2.6290   11.9290 H   0  0  0  0  0  0  0  0  0  0  0  0
   18.0510    4.0820   10.9900 H   0  0  0  0  0  0  0  0  0  0  0  0
   18.0990    2.3910   10.2330 H   0  0  0  0  0  0  0  0  0  0  0  0
   14.7240   -0.2120    7.8000 H   0  0  0  0  0  0  0  0  0  0  0  0
    9.1650    0.0430    8.2690 H   0  0  0  0  0  0  0  0  0  0  0  0
   10.0480   -1.0180    9.4450 H   0  0  0  0  0  0  0  0  0  0  0  0
  2  7  1  0  0  0  0
  2  1  1  0  0  0  0
  3  2  2  0  0  0  0
  4  5  2  0  0  0  0
  4  3  1  0  0  0  0
  5  6  1  0  0  0  0
  6  7  2  0  0  0  0
  7 30  1  0  0  0  0
  8  6  1  0  0  0  0
  8 10  1  0  0  0  0
  9  8  2  0  0  0  0
 10 31  1  0  0  0  0
 11 32  1  0  0  0  0
 11 10  1  0  0  0  0
 12 11  1  0  0  0  0
 13 12  2  0  0  0  0
 14 13  1  0  0  0  0
 15 14  2  0  0  0  0
 15 16  1  0  0  0  0
 16 17  2  0  0  0  0
 17 12  1  0  0  0  0
 17 18  1  0  0  0  0
 18 35  1  0  0  0  0
 18 34  1  0  0  0  0
 19 18  1  0  0  0  0
 19 36  1  0  0  0  0
 20 23  1  0  0  0  0
 20 19  1  0  0  0  0
 21 16  1  0  0  0  0
 21 20  1  0  0  0  0
 22 21  2  0  0  0  0
 23 39  1  0  0  0  0
 23 38  1  0  0  0  0
 24 15  1  0  0  0  0
 25 26  1  0  0  0  0
 25 14  1  0  0  0  0
 26 43  1  0  0  0  0
 26 27  1  0  0  0  0
 27 13  1  0  0  0  0
 28  3  1  0  0  0  0
 29  5  1  0  0  0  0
 33 11  1  0  0  0  0
 37 19  1  0  0  0  0
 40 23  1  0  0  0  0
 41 24  1  0  0  0  0
 42 26  1  0  0  0  0
M  END
>  <Pose>
1

>  <Score>
-7.98

$$$$
