
 OpenBabel03172210413D

 48 44  0  0  1  0  0  0  0  0999 V2000
   12.2600    3.2330   12.0030 B   0  0  0  0  0  0  0  0  0  0  0  0
   12.3180    2.1490   10.4570 C   0  0  0  0  0  0  0  0  0  0  0  0
   11.1660    1.5160   10.0180 C   0  0  0  0  0  0  0  0  0  0  0  0
   11.2580    0.7570    8.9160 N   0  0  0  0  0  0  0  0  0  0  0  0
   12.3920    0.5790    8.2200 C   0  0  0  0  0  0  0  0  0  0  0  0
   13.5280    1.2100    8.6620 C   0  0  0  0  0  0  0  0  0  0  0  0
   13.5180    2.0110    9.7920 C   0  0  1  0  0  0  0  0  0  0  0  0
   14.7760    1.0420    7.9350 C   0  0  0  0  0  0  0  0  0  0  0  0
   14.8190    0.3350    6.8890 O   0  0  0  0  0  0  0  0  0  0  0  0
   15.9460    1.6430    8.3630 O   0  0  0  0  0  0  0  0  0  0  0  0
   11.4270    2.8350    9.5560 N   0  0  0  0  0  0  0  0  0  0  0  0
   11.0860    1.4240    9.4740 C   0  0  0  0  0  0  0  0  0  0  0  0
   12.2350    0.5360    9.8940 C   0  0  0  0  0  0  0  0  0  0  0  0
   13.1030    0.2050    8.6930 C   0  0  0  0  0  0  0  0  0  0  0  0
   13.9510    1.3940    8.3000 C   0  0  0  0  0  0  0  0  0  0  0  0
   13.9250    2.3930    9.3790 C   0  0  0  0  0  0  0  0  0  0  0  0
   12.8160    3.0070    9.9100 C   0  0  1  0  0  0  0  0  0  0  0  0
   12.9670    3.8980   10.8940 N   0  0  0  0  0  0  0  0  0  0  0  0
   14.1670    4.2190   11.3860 C   0  0  0  0  0  0  0  0  0  0  0  0
   15.2870    3.6180   10.8710 C   0  0  0  0  0  0  0  0  0  0  0  0
   15.1610    2.6940    9.8540 C   0  0  0  0  0  0  0  0  0  0  0  0
   16.3480    2.0780    9.3290 N   0  0  0  0  0  4  0  0  0  0  0  0
   16.5620    3.9160   11.3460 C   0  0  0  0  0  0  0  0  0  0  0  0
   16.6710    4.8370   12.3570 C   0  0  0  0  0  0  0  0  0  0  0  0
   15.5480    5.4370   12.8720 C   0  0  0  0  0  0  0  0  0  0  0  0
   14.2770    5.1320   12.3890 C   0  0  0  0  0  0  0  0  0  0  0  0
   10.6280    3.4210   10.6260 C   0  0  0  0  0  0  0  0  0  0  0  0
   10.2510    1.6540   10.5680 H   0  0  0  0  0  0  0  0  0  0  0  0
   12.3870   -0.0450    7.3470 H   0  0  0  0  0  0  0  0  0  0  0  0
   14.3830    2.5140   10.1600 H   0  0  0  0  0  0  0  0  0  0  0  0
   11.2200    3.3130    8.6490 H   0  0  0  0  0  0  0  0  0  0  0  0
   10.7630    1.1190    8.4670 H   0  0  0  0  0  0  0  0  0  0  0  0
   10.2320    1.1750   10.1570 H   0  0  0  0  0  0  0  0  0  0  0  0
   11.8170   -0.4300   10.2490 H   0  0  0  0  0  0  0  0  0  0  0  0
   12.8010    1.0740   10.6720 H   0  0  0  0  0  0  0  0  0  0  0  0
   13.7180   -0.6630    8.9370 H   0  0  0  0  0  0  0  0  0  0  0  0
   12.4330   -0.0360    7.8530 H   0  0  0  0  0  0  0  0  0  0  0  0
   14.9820    1.0450    8.0820 H   0  0  0  0  0  0  0  0  0  0  0  0
   13.5880    1.8420    7.3300 H   0  0  0  0  0  0  0  0  0  0  0  0
   16.4200    1.0490    9.2970 H   0  0  0  0  0  0  0  0  0  0  0  0
   17.1470    2.6560    8.9790 H   0  0  0  0  0  0  0  0  0  0  0  0
   17.4230    3.4270   10.9210 H   0  0  0  0  0  0  0  0  0  0  0  0
   17.6440    5.1000   12.7600 H   0  0  0  0  0  0  0  0  0  0  0  0
   15.6270    6.1590   13.6630 H   0  0  0  0  0  0  0  0  0  0  0  0
   13.3800    5.5920   12.7780 H   0  0  0  0  0  0  0  0  0  0  0  0
    9.6100    3.0070   10.5410 H   0  0  0  0  0  0  0  0  0  0  0  0
   10.6750    4.5200   10.5970 H   0  0  0  0  0  0  0  0  0  0  0  0
   11.0490    3.0550   11.5970 H   0  0  0  0  0  0  0  0  0  0  0  0
  3 33  1  0  0  0  0
  4 12  1  0  0  0  0
  4 13  1  0  0  0  0
  5 14  1  0  0  0  0
  6 14  1  0  0  0  0
  7 16  1  6  0  0  0
  7 17  1  0  0  0  0
  7  2  1  0  0  0  0
  8 15  1  0  0  0  0
  9  8  2  0  0  0  0
 10 22  1  0  0  0  0
 11 27  1  0  0  0  0
 12  3  1  0  0  0  0
 13 34  1  0  0  0  0
 13 35  1  0  0  0  0
 14 36  1  0  0  0  0
 15  6  1  0  0  0  0
 17 11  1  6  0  0  0
 17  2  1  0  0  0  0
 17 18  1  0  0  0  0
 18 19  1  0  0  0  0
 18  1  1  0  0  0  0
 19 26  1  0  0  0  0
 20 23  1  0  0  0  0
 20 19  2  0  0  0  0
 21 30  1  0  0  0  0
 21 20  1  0  0  0  0
 22 21  1  0  0  0  0
 23 24  2  0  0  0  0
 24 43  1  0  0  0  0
 24 25  1  0  0  0  0
 25 44  1  0  0  0  0
 26 45  1  0  0  0  0
 26 25  2  0  0  0  0
 27 48  1  0  0  0  0
 31 11  1  0  0  0  0
 32  4  1  0  0  0  0
 37  5  1  0  0  0  0
 38 10  1  0  0  0  0
 40 22  1  0  0  0  0
 41 22  1  0  0  0  0
 42 23  1  0  0  0  0
 46 27  1  0  0  0  0
 47 27  1  0  0  0  0
M  END
>  <Pose>
1

>  <Score>
-6.37

$$$$
