
 OpenBabel03172210413D

 45 40  0  0  1  0  0  0  0  0999 V2000
   14.9030    0.6670    8.0780 B   0  0  0  0  0  0  0  0  0  0  0  0
   14.2470    1.9250    9.3510 C   0  0  0  0  0  0  0  0  0  0  0  0
   15.0890    2.6320   10.1820 C   0  0  0  0  0  0  0  0  0  0  0  0
   14.6330    3.5210   11.0820 N   0  0  0  0  0  0  0  0  0  0  0  0
   13.3110    3.7250   11.1730 C   0  0  0  0  0  0  0  0  0  0  0  0
   12.4040    3.0590   10.3800 C   0  0  0  0  0  0  0  0  0  0  0  0
   12.8950    2.1590    9.4710 C   0  0  0  0  0  0  0  0  0  0  0  0
   10.9700    3.2930   10.4900 C   0  0  0  0  0  0  0  0  0  0  0  0
   10.1740    2.5950    9.8160 O   0  0  0  0  0  0  0  0  0  0  0  0
   10.5300    4.2910   11.3480 O   0  0  0  0  0  0  0  0  0  0  0  0
   12.9770    4.3940   12.7130 N   0  0  0  0  0  0  0  0  0  0  0  0
   13.6670    5.6480   12.3570 C   0  0  0  0  0  0  0  0  0  0  0  0
   15.1230    5.4910   12.6520 C   0  0  0  0  0  0  0  0  0  0  0  0
   15.6810    4.3720   11.8160 C   0  0  0  0  0  0  0  0  0  0  0  0
   14.6660    3.4900   11.2180 C   0  0  0  0  0  0  0  0  0  0  0  0
   13.3580    3.4970   11.6510 C   0  0  2  0  0  0  0  0  0  0  0  0
   12.4910    2.6720   11.0680 N   0  0  0  0  0  0  0  0  0  0  0  0
   12.8200    1.8240   10.0710 C   0  0  2  0  0  0  0  0  0  0  0  0
   14.1200    1.7890    9.6120 C   0  0  0  0  0  0  0  0  0  0  0  0
   15.0520    2.6250   10.1850 C   0  0  0  0  0  0  0  0  0  0  0  0
   16.3930    2.5870    9.7080 N   0  0  0  0  0  0  0  0  0  0  0  0
   14.4630    0.9130    8.5810 C   0  0  0  0  0  0  0  0  0  0  0  0
   13.5460    0.0700    7.9940 C   0  0  0  0  0  0  0  0  0  0  0  0
   12.2470    0.1080    8.4580 C   0  0  0  0  0  0  0  0  0  0  0  0
   11.9040    0.9780    9.4820 C   0  0  0  0  0  0  0  0  0  0  0  0
   11.5600    4.6940   12.6680 C   0  0  0  0  0  0  0  0  0  0  0  0
   16.1620    2.4360   10.0760 H   0  0  0  0  0  0  0  0  0  0  0  0
   12.9540    4.4410   11.8990 H   0  0  0  0  0  0  0  0  0  0  0  0
   12.2500    1.5930    8.8080 H   0  0  0  0  0  0  0  0  0  0  0  0
   13.2880    4.0570   13.6390 H   0  0  0  0  0  0  0  0  0  0  0  0
   13.2720    6.4980   12.9410 H   0  0  0  0  0  0  0  0  0  0  0  0
   13.5050    5.7760   11.2630 H   0  0  0  0  0  0  0  0  0  0  0  0
   15.6460    6.4550   12.4680 H   0  0  0  0  0  0  0  0  0  0  0  0
   15.2100    5.2600   13.7550 H   0  0  0  0  0  0  0  0  0  0  0  0
   16.3330    4.8480   11.0430 H   0  0  0  0  0  0  0  0  0  0  0  0
   16.3900    3.8080   12.4750 H   0  0  0  0  0  0  0  0  0  0  0  0
   17.0100    1.8410   10.0970 H   0  0  0  0  0  0  0  0  0  0  0  0
   16.7920    3.2360    9.0160 H   0  0  0  0  0  0  0  0  0  0  0  0
   15.4740    0.8830    8.2210 H   0  0  0  0  0  0  0  0  0  0  0  0
   13.8560   -0.5980    7.1930 H   0  0  0  0  0  0  0  0  0  0  0  0
   11.5390   -0.5610    7.9870 H   0  0  0  0  0  0  0  0  0  0  0  0
   10.8740    0.9830    9.8220 H   0  0  0  0  0  0  0  0  0  0  0  0
   11.2800    4.8630   11.6090 H   0  0  0  0  0  0  0  0  0  0  0  0
   10.9860    3.8420   13.1200 H   0  0  0  0  0  0  0  0  0  0  0  0
   11.4150    5.6300   13.2440 H   0  0  0  0  0  0  0  0  0  0  0  0
  1 39  1  0  0  0  0
  1 22  1  0  0  0  0
  2 20  1  0  0  0  0
  4  5  1  0  0  0  0
  6 17  1  0  0  0  0
  7 19  1  0  0  0  0
  8 10  1  0  0  0  0
  9  8  2  0  0  0  0
 10 43  1  0  0  0  0
 11 30  1  0  0  0  0
 12 13  1  0  0  0  0
 12 31  1  0  0  0  0
 13 34  1  0  0  0  0
 14 36  1  0  0  0  0
 14 13  1  0  0  0  0
 15 16  1  0  0  0  0
 15 14  1  0  0  0  0
 16  5  1  6  0  0  0
 17 16  1  0  0  0  0
 18  7  1  6  0  0  0
 18  6  1  0  0  0  0
 20  4  2  0  0  0  0
 21 27  1  0  0  0  0
 21 37  1  0  0  0  0
 23  1  1  0  0  0  0
 23 24  2  0  0  0  0
 24 25  1  0  0  0  0
 25 42  1  0  0  0  0
 25 18  1  0  0  0  0
 26 11  1  0  0  0  0
 26 44  1  0  0  0  0
 26 45  1  0  0  0  0
 28 11  1  0  0  0  0
 29 25  1  0  0  0  0
 32 12  1  0  0  0  0
 33 13  1  0  0  0  0
 35 14  1  0  0  0  0
 38 21  1  0  0  0  0
 40 23  1  0  0  0  0
 41 24  1  0  0  0  0
M  END
>  <Pose>
1

>  <Score>
-7.23

$$$$
