
 OpenBabel03172210413D

 44 47  0  0  1  0  0  0  0  0999 V2000
   10.5170    0.6180    9.2120 B   0  0  0  0  0  0  0  0  0  0  0  0
   11.4980    1.9650   10.1520 C   0  0  0  0  0  0  0  0  0  0  0  0
   12.8680    2.0790   10.0350 C   0  0  0  0  0  0  0  0  0  0  0  0
   13.5890    3.0510   10.7080 C   0  0  0  0  0  0  0  0  0  0  0  0
   12.8650    3.9070   11.5090 C   0  0  0  0  0  0  0  0  0  0  0  0
   11.4980    3.8250   11.6520 C   0  0  0  0  0  0  0  0  0  0  0  0
   10.7920    2.8470   10.9710 C   0  0  0  0  0  0  0  0  0  0  0  0
   10.5540    5.0460   12.7800 B   0  0  0  0  0  0  0  0  0  0  0  0
   15.0090    2.9520   10.4070 C   0  0  0  0  0  0  0  0  0  0  0  0
   15.9930    3.6570   10.8230 N   0  0  0  0  0  0  0  0  0  0  0  0
   17.3140    3.4230   10.4280 N   0  0  0  0  0  0  0  0  0  0  0  0
   18.2680    4.4360   10.6690 C   0  0  0  0  0  0  0  0  0  0  0  0
   18.1430    5.5620   10.1420 O   0  0  0  0  0  0  0  0  0  0  0  0
   19.4590    4.2220   11.5500 C   0  0  0  0  0  0  0  0  0  0  0  0
   19.2350    3.1780   12.5110 N   0  0  0  0  0  0  0  0  0  0  0  0
   20.2580    2.6840   13.3670 C   0  0  0  0  0  0  0  0  0  0  0  0
   20.7120    1.5400   13.1490 O   0  0  0  0  0  0  0  0  0  0  0  0
   20.8180    3.4590   14.5140 C   0  0  2  0  0  0  0  0  0  0  0  0
   19.8420    3.7580   15.4680 O   0  0  0  0  0  0  0  0  0  0  0  0
   19.3330    5.0310   15.7150 C   0  0  0  0  0  0  0  0  0  0  0  0
   20.0760    6.0930   15.2710 C   0  0  0  0  0  0  0  0  0  0  0  0
   19.5910    7.3800   15.5050 C   0  0  0  0  0  0  0  0  0  0  0  0
   18.4040    7.6150   16.1620 C   0  0  0  0  0  0  0  0  0  0  0  0
   17.6830    6.5190   16.5950 C   0  0  0  0  0  0  0  0  0  0  0  0
   18.1560    5.2480   16.3670 C   0  0  0  0  0  0  0  0  0  0  0  0
   21.2560    5.8700   14.6180 O   0  0  0  0  0  0  0  0  0  0  0  0
   21.6210    4.6320   14.0750 C   0  0  0  0  0  0  0  0  0  0  0  0
   15.1390    1.8250    9.4770 C   0  0  0  0  0  0  0  0  0  0  0  0
   16.2360    1.4370    8.9930 O   0  0  0  0  0  0  0  0  0  0  0  0
   13.8260    1.3370    9.2860 N   0  0  0  0  0  0  0  0  0  0  0  0
   13.3820    4.6800   12.0530 H   0  0  0  0  0  0  0  0  0  0  0  0
    9.7340    2.7650   11.0660 H   0  0  0  0  0  0  0  0  0  0  0  0
   17.5230    2.5090    9.9740 H   0  0  0  0  0  0  0  0  0  0  0  0
   20.2790    3.9050   10.8690 H   0  0  0  0  0  0  0  0  0  0  0  0
   19.7840    5.1750   12.0240 H   0  0  0  0  0  0  0  0  0  0  0  0
   18.2940    2.7330   12.6220 H   0  0  0  0  0  0  0  0  0  0  0  0
   21.5190    2.7300   15.0190 H   0  0  0  0  0  0  0  0  0  0  0  0
   20.1950    8.2030   15.1450 H   0  0  0  0  0  0  0  0  0  0  0  0
   18.0650    8.6270   16.3220 H   0  0  0  0  0  0  0  0  0  0  0  0
   16.7320    6.7140   17.1200 H   0  0  0  0  0  0  0  0  0  0  0  0
   17.5730    4.4070   16.7180 H   0  0  0  0  0  0  0  0  0  0  0  0
   22.7200    4.4610   14.2960 H   0  0  0  0  0  0  0  0  0  0  0  0
   21.5550    4.7300   12.9660 H   0  0  0  0  0  0  0  0  0  0  0  0
   13.5860    0.5370    8.6770 H   0  0  0  0  0  0  0  0  0  0  0  0
  1  2  1  0  0  0  0
  2  7  1  0  0  0  0
  3  2  2  0  0  0  0
  3  4  1  0  0  0  0
  4  5  2  0  0  0  0
  5  6  1  0  0  0  0
  5 31  1  0  0  0  0
  6  8  1  0  0  0  0
  7 32  1  0  0  0  0
  7  6  2  0  0  0  0
  9  4  1  0  0  0  0
  9 10  2  0  0  0  0
 11 12  1  0  0  0  0
 11 10  1  0  0  0  0
 12 14  1  0  0  0  0
 13 12  2  0  0  0  0
 14 35  1  0  0  0  0
 14 15  1  0  0  0  0
 15 36  1  0  0  0  0
 15 16  1  0  0  0  0
 16 18  1  0  0  0  0
 17 16  2  0  0  0  0
 18 37  1  1  0  0  0
 18 19  1  0  0  0  0
 19 20  1  0  0  0  0
 20 25  1  0  0  0  0
 21 22  1  0  0  0  0
 21 20  2  0  0  0  0
 22 23  2  0  0  0  0
 23 39  1  0  0  0  0
 23 24  1  0  0  0  0
 24 40  1  0  0  0  0
 25 24  2  0  0  0  0
 25 41  1  0  0  0  0
 26 21  1  0  0  0  0
 27 42  1  0  0  0  0
 27 18  1  0  0  0  0
 27 26  1  0  0  0  0
 28  9  1  0  0  0  0
 29 28  2  0  0  0  0
 30 28  1  0  0  0  0
 30  3  1  0  0  0  0
 33 11  1  0  0  0  0
 34 14  1  0  0  0  0
 38 22  1  0  0  0  0
 43 27  1  0  0  0  0
 44 30  1  0  0  0  0
M  END
>  <Pose>
1

>  <Score>
-6.65

$$$$
