
 OpenBabel03172210413D

 31 34  0  0  0  0  0  0  0  0999 V2000
   12.7780   -0.5480    7.8910 B   0  0  0  0  0  0  0  0  0  0  0  0
   13.3400    0.9250    8.9880 C   0  0  0  0  0  0  0  0  0  0  0  0
   12.3820    1.5410    9.7660 C   0  0  0  0  0  0  0  0  0  0  0  0
   12.7830    2.5930   10.5510 C   0  0  0  0  0  0  0  0  0  0  0  0
   14.1150    3.0110   10.5470 C   0  0  0  0  0  0  0  0  0  0  0  0
   15.0790    2.4040    9.7750 C   0  0  0  0  0  0  0  0  0  0  0  0
   14.6590    1.3330    8.9800 C   0  0  0  0  0  0  0  0  0  0  0  0
   16.5030    2.8250    9.7540 C   0  0  0  0  0  0  0  0  0  0  0  0
   16.8080    3.5450   10.9660 N   0  0  0  0  0  0  0  0  0  0  0  0
   18.1860    3.8470   11.2530 C   0  0  0  0  0  0  0  0  0  0  0  0
   18.8860    3.1150   12.1310 N   0  0  0  0  0  0  0  0  0  0  0  0
   20.1730    3.4040   12.3930 C   0  0  0  0  0  0  0  0  0  0  0  0
   20.8180    4.4650   11.7660 C   0  0  0  0  0  0  0  0  0  0  0  0
   20.1160    5.1880   10.8940 N   0  0  0  0  0  0  0  0  0  0  0  0
   18.8160    4.9000   10.6270 C   0  0  0  0  0  0  0  0  0  0  0  0
   18.3780    5.7890    9.7210 N   0  0  0  0  0  0  0  0  0  0  0  0
   19.3530    6.6260    9.4080 N   0  0  0  0  0  0  0  0  0  0  0  0
   20.4140    6.2540   10.1290 C   0  0  0  0  0  0  0  0  0  0  0  0
   11.6450    3.0340   11.2290 O   0  0  0  0  0  0  0  0  0  0  0  0
   10.5060    2.6020   10.4680 C   0  0  0  0  0  0  0  0  0  0  0  0
   11.0110    1.3520    9.9750 O   0  0  0  0  0  0  0  0  0  0  0  0
   14.3820    3.8380   11.1720 H   0  0  0  0  0  0  0  0  0  0  0  0
   15.3640    0.8150    8.3530 H   0  0  0  0  0  0  0  0  0  0  0  0
   16.6420    3.5460    8.9030 H   0  0  0  0  0  0  0  0  0  0  0  0
   17.1860    1.9660    9.5920 H   0  0  0  0  0  0  0  0  0  0  0  0
   16.0700    3.8470   11.6240 H   0  0  0  0  0  0  0  0  0  0  0  0
   20.7570    2.8320   13.0930 H   0  0  0  0  0  0  0  0  0  0  0  0
   21.8440    4.6920   11.9790 H   0  0  0  0  0  0  0  0  0  0  0  0
   21.3730    6.7680   10.0780 H   0  0  0  0  0  0  0  0  0  0  0  0
    9.6150    2.4830   11.0800 H   0  0  0  0  0  0  0  0  0  0  0  0
   10.3880    3.2710    9.5940 H   0  0  0  0  0  0  0  0  0  0  0  0
  1  2  1  0  0  0  0
  2  3  1  0  0  0  0
  3 21  1  0  0  0  0
  3  4  2  0  0  0  0
  4 19  1  0  0  0  0
  5  4  1  0  0  0  0
  5 22  1  0  0  0  0
  6  5  2  0  0  0  0
  7  2  2  0  0  0  0
  7  6  1  0  0  0  0
  8  6  1  0  0  0  0
  8  9  1  0  0  0  0
  9 10  1  0  0  0  0
  9 26  1  0  0  0  0
 10 11  2  0  0  0  0
 11 12  1  0  0  0  0
 12 27  1  0  0  0  0
 13 28  1  0  0  0  0
 13 12  2  0  0  0  0
 14 13  1  0  0  0  0
 15 14  1  0  0  0  0
 15 10  1  0  0  0  0
 16 15  2  0  0  0  0
 17 16  1  0  0  0  0
 17 18  2  0  0  0  0
 18 14  1  0  0  0  0
 20 30  1  0  0  0  0
 20 19  1  0  0  0  0
 21 20  1  0  0  0  0
 23  7  1  0  0  0  0
 24  8  1  0  0  0  0
 25  8  1  0  0  0  0
 29 18  1  0  0  0  0
 31 20  1  0  0  0  0
M  END
>  <Pose>
1

>  <Score>
-5.59

$$$$
