
 OpenBabel03172210413D

 56 59  0  0  1  0  0  0  0  0999 V2000
   14.3600    2.1340    9.5830 B   0  0  0  0  0  0  0  0  0  0  0  0
   14.6100    3.5490   10.8300 C   0  0  0  0  0  0  0  0  0  0  0  0
   15.8910    3.8950   11.2130 C   0  0  0  0  0  0  0  0  0  0  0  0
   16.1020    4.9160   12.1150 C   0  0  0  0  0  0  0  0  0  0  0  0
   14.9860    5.5640   12.6050 C   0  0  0  0  0  0  0  0  0  0  0  0
   13.7080    5.2120   12.2160 C   0  0  0  0  0  0  0  0  0  0  0  0
   13.4870    4.1910   11.3140 C   0  0  0  0  0  0  0  0  0  0  0  0
   12.2030    3.8270   10.9150 O   0  0  0  0  0  0  0  0  0  0  0  0
   11.7040    4.3890    9.7160 C   0  0  0  0  0  0  0  0  0  0  0  0
   10.3850    5.0890    9.9240 C   0  0  2  0  0  0  0  0  0  0  0  0
    9.5060    4.9020    8.8890 O   0  0  0  0  0  0  0  0  0  0  0  0
   10.5920    6.5300   10.2400 C   0  0  0  0  0  0  0  0  0  0  0  0
   10.2660    6.8840   11.6030 N   0  0  0  0  0  4  0  0  0  0  0  0
   10.3120    5.6580   12.3800 C   0  0  0  0  0  0  0  0  0  0  0  0
    9.7390    5.8500   13.7910 C   0  0  0  0  0  0  0  0  0  0  0  0
    8.4060    6.3240   13.6830 N   0  0  0  0  0  0  0  0  0  0  0  0
    7.9450    6.5660   12.3000 C   0  0  0  0  0  0  0  0  0  0  0  0
    8.9300    7.4610   11.6260 C   0  0  0  0  0  0  0  0  0  0  0  0
    7.5420    6.5620   14.7580 C   0  0  0  0  0  0  0  0  0  0  0  0
    7.9630    6.0280   15.8930 O   0  0  0  0  0  0  0  0  0  0  0  0
    6.3040    7.2650   14.8590 C   0  0  0  0  0  0  0  0  0  0  0  0
    6.0150    8.4930   14.3370 C   0  0  0  0  0  0  0  0  0  0  0  0
    4.7860    9.1230   14.4730 C   0  0  0  0  0  0  0  0  0  0  0  0
    3.7820    8.5170   15.1580 C   0  0  0  0  0  0  0  0  0  0  0  0
    4.0420    7.2750   15.6980 C   0  0  0  0  0  0  0  0  0  0  0  0
    5.2570    6.6520   15.5650 C   0  0  0  0  0  0  0  0  0  0  0  0
   17.3870    5.2620   12.4990 C   0  0  0  0  0  0  0  0  0  0  0  0
   18.5040    4.6170   12.0100 C   0  0  0  0  0  0  0  0  0  0  0  0
   18.2930    3.5930   11.1080 C   0  0  0  0  0  0  0  0  0  0  0  0
   17.0120    3.2480   10.7240 C   0  0  0  0  0  0  0  0  0  0  0  0
   15.1430    6.3670   13.3140 H   0  0  0  0  0  0  0  0  0  0  0  0
   12.8300    5.7250   12.6050 H   0  0  0  0  0  0  0  0  0  0  0  0
   12.4530    5.1280    9.3660 H   0  0  0  0  0  0  0  0  0  0  0  0
   11.6180    3.5670    8.9730 H   0  0  0  0  0  0  0  0  0  0  0  0
    9.9340    4.6240   10.8490 H   0  0  0  0  0  0  0  0  0  0  0  0
    9.7700    4.2250    8.2400 H   0  0  0  0  0  0  0  0  0  0  0  0
    9.9020    7.1300    9.5870 H   0  0  0  0  0  0  0  0  0  0  0  0
   11.6400    6.8290   10.0680 H   0  0  0  0  0  0  0  0  0  0  0  0
   10.9360    7.5560   12.0350 H   0  0  0  0  0  0  0  0  0  0  0  0
    9.8290    4.8310   11.8360 H   0  0  0  0  0  0  0  0  0  0  0  0
   11.3840    5.4080   12.5230 H   0  0  0  0  0  0  0  0  0  0  0  0
    9.7360    4.8370   14.2340 H   0  0  0  0  0  0  0  0  0  0  0  0
   10.4410    6.4950   14.3500 H   0  0  0  0  0  0  0  0  0  0  0  0
    7.9500    5.5790   11.8050 H   0  0  0  0  0  0  0  0  0  0  0  0
    6.9570    7.0190   12.2940 H   0  0  0  0  0  0  0  0  0  0  0  0
    8.9230    8.4500   12.1250 H   0  0  0  0  0  0  0  0  0  0  0  0
    8.5600    7.6350   10.5840 H   0  0  0  0  0  0  0  0  0  0  0  0
    6.7380    9.0410   13.7860 H   0  0  0  0  0  0  0  0  0  0  0  0
    4.6200   10.1030   14.0310 H   0  0  0  0  0  0  0  0  0  0  0  0
    2.8120    8.9780   15.2840 H   0  0  0  0  0  0  0  0  0  0  0  0
    3.2400    6.7940   16.2440 H   0  0  0  0  0  0  0  0  0  0  0  0
    5.3500    5.6820   16.0280 H   0  0  0  0  0  0  0  0  0  0  0  0
   17.5540    6.0640   13.2070 H   0  0  0  0  0  0  0  0  0  0  0  0
   19.4970    4.9120   12.3310 H   0  0  0  0  0  0  0  0  0  0  0  0
   19.1790    3.0890   10.7260 H   0  0  0  0  0  0  0  0  0  0  0  0
   16.8490    2.4440   10.0150 H   0  0  0  0  0  0  0  0  0  0  0  0
  1  2  1  0  0  0  0
  2  3  2  0  0  0  0
  2  7  1  0  0  0  0
  3  4  1  0  0  0  0
  4 27  1  0  0  0  0
  4  5  2  0  0  0  0
  5 31  1  0  0  0  0
  6  5  1  0  0  0  0
  6 32  1  0  0  0  0
  7  6  2  0  0  0  0
  8  7  1  0  0  0  0
  9 10  1  0  0  0  0
  9  8  1  0  0  0  0
 10 12  1  0  0  0  0
 10 35  1  1  0  0  0
 11 10  1  0  0  0  0
 12 13  1  0  0  0  0
 13 18  1  0  0  0  0
 13 39  1  0  0  0  0
 13 14  1  0  0  0  0
 14 41  1  0  0  0  0
 14 15  1  0  0  0  0
 15 42  1  0  0  0  0
 15 43  1  0  0  0  0
 16 15  1  0  0  0  0
 16 19  1  0  0  0  0
 17 16  1  0  0  0  0
 18 46  1  0  0  0  0
 18 17  1  0  0  0  0
 19 21  1  0  0  0  0
 19 20  2  0  0  0  0
 21 26  1  0  0  0  0
 22 23  1  0  0  0  0
 22 21  2  0  0  0  0
 23 24  2  0  0  0  0
 24 50  1  0  0  0  0
 24 25  1  0  0  0  0
 25 51  1  0  0  0  0
 26 25  2  0  0  0  0
 26 52  1  0  0  0  0
 27 53  1  0  0  0  0
 28 54  1  0  0  0  0
 28 27  2  0  0  0  0
 29 28  1  0  0  0  0
 30 29  2  0  0  0  0
 30  3  1  0  0  0  0
 33  9  1  0  0  0  0
 34  9  1  0  0  0  0
 36 11  1  0  0  0  0
 37 12  1  0  0  0  0
 38 12  1  0  0  0  0
 40 14  1  0  0  0  0
 44 17  1  0  0  0  0
 45 17  1  0  0  0  0
 47 18  1  0  0  0  0
 48 22  1  0  0  0  0
 49 23  1  0  0  0  0
 55 29  1  0  0  0  0
 56 30  1  0  0  0  0
M  END
>  <Pose>
1

>  <Score>
-6.33

$$$$
