
 OpenBabel03162215113D

 43 46  0  0  0  0  0  0  0  0999 V2000
   10.8540    7.9330   14.0140 B   0  0  0  0  0  0  0  0  0  0  0  0
   11.2360    6.6300   12.6790 C   0  0  0  0  0  0  0  0  0  0  0  0
   10.3590    6.3150   11.6770 N   0  0  0  0  0  0  0  0  0  0  0  0
   10.9920    5.3690   10.9550 C   0  0  0  0  0  0  0  0  0  0  0  0
   12.2400    5.0910   11.4880 C   0  0  0  0  0  0  0  0  0  0  0  0
   12.3550    5.8990   12.5640 N   0  0  0  0  0  0  0  0  0  0  0  0
   13.0990    4.1940   10.9750 N   0  0  0  0  0  0  0  0  0  0  0  0
   12.6960    3.5400    9.8710 C   0  0  0  0  0  0  0  0  0  0  0  0
   13.4760    2.6760    9.3450 O   0  0  0  0  0  0  0  0  0  0  0  0
   11.4920    3.7790    9.3190 N   0  0  0  0  0  0  0  0  0  0  0  0
   10.6200    4.6880    9.8360 C   0  0  0  0  0  0  0  0  0  0  0  0
    9.5070    4.9000    9.3110 O   0  0  0  0  0  0  0  0  0  0  0  0
   14.4000    3.9080   11.5400 C   0  0  0  0  0  0  0  0  0  0  0  0
    9.0600    6.9280   11.4920 C   0  0  0  0  0  0  0  0  0  0  0  0
    8.1400    6.7680   12.6670 C   0  0  0  0  0  0  0  0  0  0  0  0
    6.7740    6.2450   12.3260 C   0  0  0  0  0  0  0  0  0  0  0  0
    5.7540    7.0440   12.9900 N   0  0  0  0  0  0  0  0  0  0  0  0
    5.4500    7.0920   14.3070 C   0  0  0  0  0  0  0  0  0  0  0  0
    4.4200    7.9770   14.5280 C   0  0  0  0  0  0  0  0  0  0  0  0
    4.1000    8.4680   13.3160 N   0  0  0  0  0  0  0  0  0  0  0  0
    4.9090    7.9010   12.3950 C   0  0  0  0  0  0  0  0  0  0  0  0
    4.9030    8.2260   10.5130 B   0  0  0  0  0  0  0  0  0  0  0  0
    3.9030    8.2320   15.7440 N   0  0  0  0  0  0  0  0  0  0  0  0
    4.4520    7.5630   16.7870 C   0  0  0  0  0  0  0  0  0  0  0  0
    3.9680    7.8020   17.9350 O   0  0  0  0  0  0  0  0  0  0  0  0
    5.4640    6.6860   16.6150 N   0  0  0  0  0  0  0  0  0  0  0  0
    5.9740    6.4380   15.3920 C   0  0  0  0  0  0  0  0  0  0  0  0
    6.9140    5.6300   15.1980 O   0  0  0  0  0  0  0  0  0  0  0  0
    2.8070    9.1810   15.9290 C   0  0  0  0  0  0  0  0  0  0  0  0
   11.1650    3.2810    8.4640 H   0  0  0  0  0  0  0  0  0  0  0  0
   14.4870    4.2920   12.5780 H   0  0  0  0  0  0  0  0  0  0  0  0
   14.4930    2.7900   11.6400 H   0  0  0  0  0  0  0  0  0  0  0  0
   15.2300    4.3400   10.9460 H   0  0  0  0  0  0  0  0  0  0  0  0
    8.6030    6.5720   10.5420 H   0  0  0  0  0  0  0  0  0  0  0  0
    9.2460    8.0370   11.3980 H   0  0  0  0  0  0  0  0  0  0  0  0
    8.0800    7.6980   13.2760 H   0  0  0  0  0  0  0  0  0  0  0  0
    8.6020    6.0030   13.3610 H   0  0  0  0  0  0  0  0  0  0  0  0
    6.5940    6.4100   11.2220 H   0  0  0  0  0  0  0  0  0  0  0  0
    6.6580    5.1920   12.5750 H   0  0  0  0  0  0  0  0  0  0  0  0
    5.8450    6.2030   17.4520 H   0  0  0  0  0  0  0  0  0  0  0  0
    3.1270   10.2140   15.6790 H   0  0  0  0  0  0  0  0  0  0  0  0
    1.9420    8.9320   15.2850 H   0  0  0  0  0  0  0  0  0  0  0  0
    2.5480    9.1650   16.9990 H   0  0  0  0  0  0  0  0  0  0  0  0
  2  1  1  0  0  0  0
  3  2  1  0  0  0  0
  4  5  2  0  0  0  0
  4  3  1  0  0  0  0
  5  6  1  0  0  0  0
  6  2  2  0  0  0  0
  7  5  1  0  0  0  0
  7 13  1  0  0  0  0
  8  7  1  0  0  0  0
  9  8  2  0  0  0  0
 10 11  1  0  0  0  0
 10  8  1  0  0  0  0
 11  4  1  0  0  0  0
 12 11  2  0  0  0  0
 13 32  1  0  0  0  0
 13 31  1  0  0  0  0
 14  3  1  0  0  0  0
 14 15  1  0  0  0  0
 15 36  1  0  0  0  0
 15 37  1  0  0  0  0
 16 39  1  0  0  0  0
 16 15  1  0  0  0  0
 16 17  1  0  0  0  0
 17 18  1  0  0  0  0
 18 19  2  0  0  0  0
 18 27  1  0  0  0  0
 19 23  1  0  0  0  0
 20 19  1  0  0  0  0
 21 17  1  0  0  0  0
 21 20  2  0  0  0  0
 22 21  1  0  0  0  0
 23 29  1  0  0  0  0
 23 24  1  0  0  0  0
 24 25  2  0  0  0  0
 26 24  1  0  0  0  0
 26 40  1  0  0  0  0
 27 26  1  0  0  0  0
 28 27  2  0  0  0  0
 29 43  1  0  0  0  0
 30 10  1  0  0  0  0
 33 13  1  0  0  0  0
 34 14  1  0  0  0  0
 35 14  1  0  0  0  0
 38 16  1  0  0  0  0
 41 29  1  0  0  0  0
 42 29  1  0  0  0  0
M  END
>  <Pose>
1

>  <Score>
-7.22

$$$$
