
 OpenBabel03172210413D

 40 43  0  0  0  0  0  0  0  0999 V2000
   13.3390    7.0670   12.9410 B   0  0  0  0  0  0  0  0  0  0  0  0
   15.0120    6.6890   12.1020 C   0  0  0  0  0  0  0  0  0  0  0  0
   15.3390    5.4630   11.6290 N   0  0  0  0  0  0  0  0  0  0  0  0
   16.5840    5.5810   11.1120 C   0  0  0  0  0  0  0  0  0  0  0  0
   17.0410    6.8880   11.2610 C   0  0  0  0  0  0  0  0  0  0  0  0
   16.0300    7.5360   11.8810 N   0  0  0  0  0  0  0  0  0  0  0  0
   18.2570    7.2530   10.8160 N   0  0  0  0  0  0  0  0  0  0  0  0
   19.0610    6.3610   10.2120 C   0  0  0  0  0  0  0  0  0  0  0  0
   20.2120    6.6980    9.7890 O   0  0  0  0  0  0  0  0  0  0  0  0
   18.6710    5.0850   10.0390 N   0  0  0  0  0  0  0  0  0  0  0  0
   17.4450    4.7100   10.4870 C   0  0  0  0  0  0  0  0  0  0  0  0
   17.0410    3.5200   10.3410 O   0  0  0  0  0  0  0  0  0  0  0  0
   18.7380    8.6070   10.9670 C   0  0  0  0  0  0  0  0  0  0  0  0
   14.5000    4.3150   11.6760 C   0  0  0  0  0  0  0  0  0  0  0  0
   14.7300    3.2660   10.6470 C   0  0  0  0  0  0  0  0  0  0  0  0
   13.6550    2.3990   10.3150 N   0  0  0  0  0  0  0  0  0  0  0  0
   13.6370    1.4290    9.3860 C   0  0  0  0  0  0  0  0  0  0  0  0
   12.3930    0.8330    9.3810 C   0  0  0  0  0  0  0  0  0  0  0  0
   11.6960    1.4860   10.3330 N   0  0  0  0  0  0  0  0  0  0  0  0
   12.4270    2.4310   10.9120 C   0  0  0  0  0  0  0  0  0  0  0  0
   11.8920    3.6320   12.3210 B   0  0  0  0  0  0  0  0  0  0  0  0
   12.1320   -0.1690    8.5430 N   0  0  0  0  0  0  0  0  0  0  0  0
   13.0680   -0.6090    7.6980 C   0  0  0  0  0  0  0  0  0  0  0  0
   12.8470   -1.5650    6.8830 O   0  0  0  0  0  0  0  0  0  0  0  0
   14.3040   -0.0810    7.6420 N   0  0  0  0  0  0  0  0  0  0  0  0
   14.5640    0.9250    8.4870 C   0  0  0  0  0  0  0  0  0  0  0  0
   15.7120    1.4200    8.4440 O   0  0  0  0  0  0  0  0  0  0  0  0
   10.8330   -0.8010    8.5260 C   0  0  0  0  0  0  0  0  0  0  0  0
   19.2790    4.3770    9.5740 H   0  0  0  0  0  0  0  0  0  0  0  0
   18.8960    9.0430    9.9480 H   0  0  0  0  0  0  0  0  0  0  0  0
   19.6680    8.5660   11.5550 H   0  0  0  0  0  0  0  0  0  0  0  0
   17.9890    9.2040   11.5430 H   0  0  0  0  0  0  0  0  0  0  0  0
   13.4230    4.6020   11.7510 H   0  0  0  0  0  0  0  0  0  0  0  0
   14.6820    3.8000   12.6740 H   0  0  0  0  0  0  0  0  0  0  0  0
   15.6670    2.7120   10.9250 H   0  0  0  0  0  0  0  0  0  0  0  0
   15.0070    3.8210    9.6960 H   0  0  0  0  0  0  0  0  0  0  0  0
   15.0190   -0.4520    6.9650 H   0  0  0  0  0  0  0  0  0  0  0  0
   10.4020   -0.6800    9.5380 H   0  0  0  0  0  0  0  0  0  0  0  0
   10.1520   -0.4010    7.7720 H   0  0  0  0  0  0  0  0  0  0  0  0
   10.9170   -1.9050    8.3640 H   0  0  0  0  0  0  0  0  0  0  0  0
  2  1  1  0  0  0  0
  3 14  1  0  0  0  0
  3  2  1  0  0  0  0
  4  5  2  0  0  0  0
  4  3  1  0  0  0  0
  5  6  1  0  0  0  0
  6  2  2  0  0  0  0
  7 13  1  0  0  0  0
  7  5  1  0  0  0  0
  8  7  1  0  0  0  0
  9  8  2  0  0  0  0
 10  8  1  0  0  0  0
 10 11  1  0  0  0  0
 11  4  1  0  0  0  0
 12 11  2  0  0  0  0
 13 32  1  0  0  0  0
 13 31  1  0  0  0  0
 14 33  1  0  0  0  0
 14 34  1  0  0  0  0
 15 35  1  0  0  0  0
 15 14  1  0  0  0  0
 16 15  1  0  0  0  0
 16 20  1  0  0  0  0
 17 16  1  0  0  0  0
 18 17  2  0  0  0  0
 18 19  1  0  0  0  0
 19 20  2  0  0  0  0
 20 21  1  0  0  0  0
 22 18  1  0  0  0  0
 23 22  1  0  0  0  0
 24 23  2  0  0  0  0
 25 23  1  0  0  0  0
 25 26  1  0  0  0  0
 26 17  1  0  0  0  0
 27 26  2  0  0  0  0
 28 22  1  0  0  0  0
 28 38  1  0  0  0  0
 29 10  1  0  0  0  0
 30 13  1  0  0  0  0
 36 15  1  0  0  0  0
 37 25  1  0  0  0  0
 39 28  1  0  0  0  0
 40 28  1  0  0  0  0
M  END
>  <Pose>
1

>  <Score>
-8.04

$$$$
