
 OpenBabel03172210413D

 50 54  0  0  1  0  0  0  0  0999 V2000
    4.6030    8.6330   12.5170 B   0  0  0  0  0  0  0  0  0  0  0  0
    6.0060    7.4260   12.0130 C   0  0  0  0  0  0  0  0  0  0  0  0
    7.3300    7.5810   12.1980 N   0  0  0  0  0  0  0  0  0  0  0  0
    7.9960    6.5370   11.7200 N   0  0  0  0  0  0  0  0  0  0  0  0
    7.0580    5.7110   11.2220 C   0  0  0  0  0  0  0  0  0  0  0  0
    5.8350    6.2370   11.3930 N   0  0  0  0  0  0  0  0  0  0  0  0
    9.4420    6.3260   11.7270 C   0  0  2  0  0  0  0  0  0  0  0  0
    9.7290    4.8420   11.7390 C   0  0  0  0  0  0  0  0  0  0  0  0
   11.1980    4.6150   11.5290 C   0  0  2  0  0  0  0  0  0  0  0  0
   11.9000    5.1900   12.7670 C   0  0  0  0  0  0  0  0  0  0  0  0
   11.5620    6.6550   12.8770 C   0  0  2  0  0  0  0  0  0  0  0  0
   10.0800    6.9110   12.9690 C   0  0  0  0  0  0  0  0  0  0  0  0
   12.1370    7.3670   11.6940 C   0  0  0  0  0  0  0  0  0  0  0  0
   11.5000    6.8090   10.4400 C   0  0  2  0  0  0  0  0  0  0  0  0
   10.0260    7.0180   10.5350 C   0  0  0  0  0  0  0  0  0  0  0  0
   11.7670    5.3230   10.3440 C   0  0  0  0  0  0  0  0  0  0  0  0
   11.5160    3.1750   11.4290 C   0  0  0  0  0  0  0  0  0  0  0  0
   11.1200    2.4170   12.3500 O   0  0  0  0  0  0  0  0  0  0  0  0
   12.2510    2.6620   10.3210 N   0  0  0  0  0  0  0  0  0  0  0  0
   11.8530    1.5560    9.5240 C   0  0  0  0  0  0  0  0  0  0  0  0
   12.7160    0.7410    8.8470 C   0  0  0  0  0  0  0  0  0  0  0  0
   11.9680   -0.1890    8.2080 N   0  0  0  0  0  0  0  0  0  0  0  0
   10.6980    0.0340    8.4700 N   0  0  0  0  0  0  0  0  0  0  0  0
   10.5770    1.0960    9.2740 C   0  0  0  0  0  0  0  0  0  0  0  0
   12.4330   -1.2740    7.3610 C   0  0  0  0  0  0  0  0  0  0  0  0
   14.1620    0.7540    8.7490 C   0  0  0  0  0  0  0  0  0  0  0  0
   14.8530    1.5630    9.4170 O   0  0  0  0  0  0  0  0  0  0  0  0
   14.8970   -0.1260    7.9090 N   0  0  0  0  0  0  0  0  0  0  0  0
    7.2570    4.7590   10.7530 H   0  0  0  0  0  0  0  0  0  0  0  0
    9.5040    4.4990   12.7910 H   0  0  0  0  0  0  0  0  0  0  0  0
    9.0820    4.2600   11.0840 H   0  0  0  0  0  0  0  0  0  0  0  0
   12.9870    5.0940   12.6870 H   0  0  0  0  0  0  0  0  0  0  0  0
   11.5700    4.6990   13.6900 H   0  0  0  0  0  0  0  0  0  0  0  0
   12.0300    7.0550   13.7940 H   0  0  0  0  0  0  0  0  0  0  0  0
    9.6470    6.5130   13.9020 H   0  0  0  0  0  0  0  0  0  0  0  0
    9.9320    8.0020   12.9740 H   0  0  0  0  0  0  0  0  0  0  0  0
   13.2470    7.2550   11.6760 H   0  0  0  0  0  0  0  0  0  0  0  0
   11.9350    8.4510   11.7520 H   0  0  0  0  0  0  0  0  0  0  0  0
   11.8780    7.2860    9.5250 H   0  0  0  0  0  0  0  0  0  0  0  0
    9.8150    8.0930   10.6230 H   0  0  0  0  0  0  0  0  0  0  0  0
    9.5660    6.6320    9.6020 H   0  0  0  0  0  0  0  0  0  0  0  0
   11.2820    4.9290    9.4270 H   0  0  0  0  0  0  0  0  0  0  0  0
   12.8610    5.1920   10.3570 H   0  0  0  0  0  0  0  0  0  0  0  0
   13.1410    3.1440   10.0960 H   0  0  0  0  0  0  0  0  0  0  0  0
    9.6520    1.5300    9.6690 H   0  0  0  0  0  0  0  0  0  0  0  0
   11.6060   -1.9990    7.2260 H   0  0  0  0  0  0  0  0  0  0  0  0
   13.1960   -1.8370    7.9660 H   0  0  0  0  0  0  0  0  0  0  0  0
   12.8330   -0.9170    6.3910 H   0  0  0  0  0  0  0  0  0  0  0  0
   15.1760    0.2270    6.9480 H   0  0  0  0  0  0  0  0  0  0  0  0
   15.1820   -1.0920    8.1610 H   0  0  0  0  0  0  0  0  0  0  0  0
  2  3  2  0  0  0  0
  2  1  1  0  0  0  0
  4  3  1  0  0  0  0
  5  6  2  0  0  0  0
  5  4  1  0  0  0  0
  6  2  1  0  0  0  0
  7  4  1  1  0  0  0
  7  8  1  0  0  0  0
  7 12  1  0  0  0  0
  8 30  1  0  0  0  0
  9 17  1  6  0  0  0
  9  8  1  0  0  0  0
  9 10  1  0  0  0  0
 10 11  1  0  0  0  0
 10 33  1  0  0  0  0
 11 12  1  0  0  0  0
 11 34  1  1  0  0  0
 12 36  1  0  0  0  0
 12 35  1  0  0  0  0
 13 38  1  0  0  0  0
 13 11  1  0  0  0  0
 14 39  1  6  0  0  0
 14 15  1  0  0  0  0
 14 13  1  0  0  0  0
 15 40  1  0  0  0  0
 15  7  1  0  0  0  0
 16 43  1  0  0  0  0
 16 14  1  0  0  0  0
 16  9  1  0  0  0  0
 17 18  2  0  0  0  0
 19 17  1  0  0  0  0
 20 19  1  0  0  0  0
 21 20  2  0  0  0  0
 22 23  1  0  0  0  0
 22 21  1  0  0  0  0
 23 24  2  0  0  0  0
 24 20  1  0  0  0  0
 24 45  1  0  0  0  0
 25 47  1  0  0  0  0
 25 22  1  0  0  0  0
 26 21  1  0  0  0  0
 26 27  2  0  0  0  0
 28 50  1  0  0  0  0
 28 26  1  0  0  0  0
 29  5  1  0  0  0  0
 31  8  1  0  0  0  0
 32 10  1  0  0  0  0
 37 13  1  0  0  0  0
 41 15  1  0  0  0  0
 42 16  1  0  0  0  0
 44 19  1  0  0  0  0
 46 25  1  0  0  0  0
 48 25  1  0  0  0  0
 49 28  1  0  0  0  0
M  END
>  <Pose>
1

>  <Score>
-6.38

$$$$
