
 OpenBabel03172210413D

 37 40  0  0  1  0  0  0  0  0999 V2000
   11.1580    1.4840   12.7830 B   0  0  0  0  0  0  0  0  0  0  0  0
   11.3960    3.3210   12.3470 C   0  0  0  0  0  0  0  0  0  0  0  0
   11.3010    4.3800   13.1810 N   0  0  0  0  0  0  0  0  0  0  0  0
   11.5540    5.5080   12.5580 N   0  0  0  0  0  0  0  0  0  0  0  0
   11.8210    5.1780   11.2810 C   0  0  0  0  0  0  0  0  0  0  0  0
   12.1550    5.9220   10.2220 N   0  0  0  0  0  0  0  0  0  0  0  0
   12.3980    5.3660    9.0210 C   0  0  0  0  0  0  0  0  0  0  0  0
   12.3080    4.0350    8.8500 N   0  0  0  0  0  0  0  0  0  0  0  0
   11.9700    3.2080    9.8870 C   0  0  0  0  0  0  0  0  0  0  0  0
   11.7300    3.7920   11.1000 C   0  0  0  0  0  0  0  0  0  0  0  0
   11.8330    1.8020    9.6320 N   0  0  0  0  0  0  0  0  0  0  0  0
   12.9390    0.9030    9.7350 C   0  0  1  0  0  0  0  0  0  0  0  0
   12.8470   -0.2510    8.8120 C   0  0  0  0  0  0  0  0  0  0  0  0
   11.6660   -0.4280    8.1440 O   0  0  0  0  0  0  0  0  0  0  0  0
   10.5530   -0.1030    8.9110 C   0  0  0  0  0  0  0  0  0  0  0  0
   10.5230    1.3430    9.2870 C   0  0  0  0  0  0  0  0  0  0  0  0
   14.2340    1.6160    9.6660 C   0  0  0  0  0  0  0  0  0  0  0  0
   14.6370    2.5900   10.4830 N   0  0  0  0  0  0  0  0  0  0  0  0
   15.8800    2.9570   10.0600 C   0  0  0  0  0  0  0  0  0  0  0  0
   16.1670    2.1800    9.0000 N   0  0  0  0  0  0  0  0  0  0  0  0
   15.1620    1.3830    8.7840 O   0  0  0  0  0  0  0  0  0  0  0  0
   16.7540    4.0010   10.6420 C   0  0  0  0  0  0  0  0  0  0  0  0
   11.5430    6.8330   13.1470 C   0  0  0  0  0  0  0  0  0  0  0  0
   12.6670    6.0430    8.2030 H   0  0  0  0  0  0  0  0  0  0  0  0
   12.8350    0.4410   10.7910 H   0  0  0  0  0  0  0  0  0  0  0  0
   13.1830   -1.2190    9.2970 H   0  0  0  0  0  0  0  0  0  0  0  0
   13.6400   -0.0990    8.0180 H   0  0  0  0  0  0  0  0  0  0  0  0
    9.6610   -0.3110    8.2800 H   0  0  0  0  0  0  0  0  0  0  0  0
   10.4520   -0.7770    9.7980 H   0  0  0  0  0  0  0  0  0  0  0  0
   10.0340    1.9790    8.5100 H   0  0  0  0  0  0  0  0  0  0  0  0
    9.8890    1.5070   10.2120 H   0  0  0  0  0  0  0  0  0  0  0  0
   16.0980    4.8120   11.0700 H   0  0  0  0  0  0  0  0  0  0  0  0
   17.3990    4.4790    9.8830 H   0  0  0  0  0  0  0  0  0  0  0  0
   17.3820    3.6070   11.4780 H   0  0  0  0  0  0  0  0  0  0  0  0
   10.9900    6.8020   14.1060 H   0  0  0  0  0  0  0  0  0  0  0  0
   11.0160    7.5350   12.4540 H   0  0  0  0  0  0  0  0  0  0  0  0
   12.5760    7.1900   13.3910 H   0  0  0  0  0  0  0  0  0  0  0  0
  2  1  1  0  0  0  0
  2  3  2  0  0  0  0
  4 23  1  0  0  0  0
  4  3  1  0  0  0  0
  5  4  1  0  0  0  0
  6  5  1  0  0  0  0
  7  6  2  0  0  0  0
  8  7  1  0  0  0  0
  8  9  2  0  0  0  0
  9 10  1  0  0  0  0
 10  5  2  0  0  0  0
 10  2  1  0  0  0  0
 11 12  1  0  0  0  0
 11  9  1  0  0  0  0
 12 25  1  1  0  0  0
 13 26  1  0  0  0  0
 13 12  1  0  0  0  0
 14 13  1  0  0  0  0
 14 15  1  0  0  0  0
 15 16  1  0  0  0  0
 15 29  1  0  0  0  0
 16 11  1  0  0  0  0
 16 31  1  0  0  0  0
 17 12  1  0  0  0  0
 17 18  2  0  0  0  0
 19 18  1  0  0  0  0
 19 22  1  0  0  0  0
 20 19  2  0  0  0  0
 21 20  1  0  0  0  0
 21 17  1  0  0  0  0
 22 32  1  0  0  0  0
 22 34  1  0  0  0  0
 23 37  1  0  0  0  0
 23 35  1  0  0  0  0
 24  7  1  0  0  0  0
 27 13  1  0  0  0  0
 28 15  1  0  0  0  0
 30 16  1  0  0  0  0
 33 22  1  0  0  0  0
 36 23  1  0  0  0  0
M  END
>  <Pose>
1

>  <Score>
-4.75

$$$$
