
 OpenBabel03172210413D

 53 56  0  0  1  0  0  0  0  0999 V2000
   11.1580    3.1210   10.7490 B   0  0  0  0  0  0  0  0  0  0  0  0
   11.5750    1.6570    9.6190 C   0  0  0  0  0  0  0  0  0  0  0  0
   10.7550    0.6940    9.1610 N   0  0  0  0  0  0  0  0  0  0  0  0
   11.3910   -0.1700    8.4160 N   0  0  0  0  0  0  0  0  0  0  0  0
   12.6800    0.2130    8.3640 C   0  0  0  0  0  0  0  0  0  0  0  0
   13.7680   -0.2980    7.7620 N   0  0  0  0  0  0  0  0  0  0  0  0
   14.9750    0.2650    7.8640 C   0  0  0  0  0  0  0  0  0  0  0  0
   15.1140    1.3720    8.5830 N   0  0  0  0  0  0  0  0  0  0  0  0
   14.0800    1.9630    9.2270 C   0  0  0  0  0  0  0  0  0  0  0  0
   12.8250    1.3730    9.1190 C   0  0  0  0  0  0  0  0  0  0  0  0
   14.2540    3.1490    9.9480 N   0  0  0  0  0  0  0  0  0  0  0  0
   14.4890    4.4040    9.2930 C   0  0  0  0  0  0  0  0  0  0  0  0
   15.9610    4.7250    9.5670 C   0  0  0  0  0  0  0  0  0  0  0  0
   16.4530    3.9700   10.7250 N   0  0  0  0  0  0  0  0  0  0  0  0
   15.4490    4.0010   11.7920 C   0  0  0  0  0  0  0  0  0  0  0  0
   14.2390    3.1780   11.3910 C   0  0  0  0  0  0  0  0  0  0  0  0
   17.6390    4.6690   11.1960 C   0  0  2  0  0  0  0  0  0  0  0  0
   17.9330    5.7940   10.1670 C   0  0  0  0  0  0  0  0  0  0  0  0
   18.8040    3.7680   11.2470 C   0  0  0  0  0  0  0  0  0  0  0  0
   18.6930    2.7350   10.4640 O   0  0  0  0  0  0  0  0  0  0  0  0
   19.9740    3.8850   12.0150 N   0  0  0  0  0  0  0  0  0  0  0  0
   21.0900    4.7590   11.8150 C   0  0  0  0  0  0  0  0  0  0  0  0
   22.4410    4.0900   11.9640 C   0  0  0  0  0  0  0  0  0  0  0  0
   22.4910    3.0230   13.0030 C   0  0  0  0  0  0  0  0  0  0  0  0
   21.2770    2.1190   12.9600 C   0  0  0  0  0  0  0  0  0  0  0  0
   20.0840    3.0060   13.2020 C   0  0  0  0  0  0  0  0  0  0  0  0
   10.8900   -1.3540    7.7310 C   0  0  0  0  0  0  0  0  0  0  0  0
   15.8540   -0.1870    7.3510 H   0  0  0  0  0  0  0  0  0  0  0  0
   13.9570    5.1990    9.9040 H   0  0  0  0  0  0  0  0  0  0  0  0
   14.2540    4.4480    8.2330 H   0  0  0  0  0  0  0  0  0  0  0  0
   16.5310    4.3530    8.6950 H   0  0  0  0  0  0  0  0  0  0  0  0
   16.1520    5.8090    9.6510 H   0  0  0  0  0  0  0  0  0  0  0  0
   15.9020    3.5240   12.6730 H   0  0  0  0  0  0  0  0  0  0  0  0
   15.1130    5.0200   12.0060 H   0  0  0  0  0  0  0  0  0  0  0  0
   14.2350    2.2070   11.8760 H   0  0  0  0  0  0  0  0  0  0  0  0
   13.3000    3.7380   11.6820 H   0  0  0  0  0  0  0  0  0  0  0  0
   17.4710    5.1190   12.1760 H   0  0  0  0  0  0  0  0  0  0  0  0
   17.5590    5.4930    9.1710 H   0  0  0  0  0  0  0  0  0  0  0  0
   19.0210    5.9410   10.0740 H   0  0  0  0  0  0  0  0  0  0  0  0
   17.4730    6.7350   10.4960 H   0  0  0  0  0  0  0  0  0  0  0  0
   21.0090    5.5300   12.6490 H   0  0  0  0  0  0  0  0  0  0  0  0
   21.1040    5.3130   10.8850 H   0  0  0  0  0  0  0  0  0  0  0  0
   23.1510    4.8970   12.2900 H   0  0  0  0  0  0  0  0  0  0  0  0
   22.8140    3.7510   10.9890 H   0  0  0  0  0  0  0  0  0  0  0  0
   22.5880    3.4730   14.0060 H   0  0  0  0  0  0  0  0  0  0  0  0
   23.3800    2.4000   12.8280 H   0  0  0  0  0  0  0  0  0  0  0  0
   21.2320    1.6270   11.9570 H   0  0  0  0  0  0  0  0  0  0  0  0
   21.3930    1.3610   13.7510 H   0  0  0  0  0  0  0  0  0  0  0  0
   19.1640    2.4410   13.3770 H   0  0  0  0  0  0  0  0  0  0  0  0
   20.2990    3.6380   14.0830 H   0  0  0  0  0  0  0  0  0  0  0  0
   11.3190   -2.2890    8.1730 H   0  0  0  0  0  0  0  0  0  0  0  0
   11.2470   -1.3020    6.6890 H   0  0  0  0  0  0  0  0  0  0  0  0
    9.7970   -1.4410    7.8340 H   0  0  0  0  0  0  0  0  0  0  0  0
  2  1  1  0  0  0  0
  3  2  2  0  0  0  0
  4  3  1  0  0  0  0
  5  4  1  0  0  0  0
  5 10  2  0  0  0  0
  6  7  2  0  0  0  0
  6  5  1  0  0  0  0
  7  8  1  0  0  0  0
  8  9  2  0  0  0  0
  9 11  1  0  0  0  0
 10  9  1  0  0  0  0
 10  2  1  0  0  0  0
 11 16  1  0  0  0  0
 12 13  1  0  0  0  0
 12 29  1  0  0  0  0
 12 11  1  0  0  0  0
 13 32  1  0  0  0  0
 13 14  1  0  0  0  0
 14 17  1  0  0  0  0
 14 15  1  0  0  0  0
 15 34  1  0  0  0  0
 15 33  1  0  0  0  0
 16 36  1  0  0  0  0
 16 15  1  0  0  0  0
 16 35  1  0  0  0  0
 17 19  1  0  0  0  0
 17 37  1  1  0  0  0
 18 40  1  0  0  0  0
 18 17  1  0  0  0  0
 19 21  1  0  0  0  0
 20 19  2  0  0  0  0
 21 26  1  0  0  0  0
 22 23  1  0  0  0  0
 22 21  1  0  0  0  0
 22 41  1  0  0  0  0
 23 43  1  0  0  0  0
 23 24  1  0  0  0  0
 24 45  1  0  0  0  0
 25 24  1  0  0  0  0
 25 26  1  0  0  0  0
 25 48  1  0  0  0  0
 26 49  1  0  0  0  0
 26 50  1  0  0  0  0
 27 53  1  0  0  0  0
 27 51  1  0  0  0  0
 27  4  1  0  0  0  0
 28  7  1  0  0  0  0
 30 12  1  0  0  0  0
 31 13  1  0  0  0  0
 38 18  1  0  0  0  0
 39 18  1  0  0  0  0
 42 22  1  0  0  0  0
 44 23  1  0  0  0  0
 46 24  1  0  0  0  0
 47 25  1  0  0  0  0
 52 27  1  0  0  0  0
M  END
>  <Pose>
1

>  <Score>
-5.23

$$$$
