
 OpenBabel03172210413D

 49 52  0  0  1  0  0  0  0  0999 V2000
    5.9470    6.7180   11.4260 B   0  0  0  0  0  0  0  0  0  0  0  0
    7.4510    6.5140   12.6100 C   0  0  0  0  0  0  0  0  0  0  0  0
    8.6960    6.7880   12.3160 O   0  0  0  0  0  0  0  0  0  0  0  0
    9.4890    6.5350   13.3580 C   0  0  0  0  0  0  0  0  0  0  0  0
    8.6770    6.0710   14.3690 C   0  0  0  0  0  0  0  0  0  0  0  0
    7.3830    6.0500   13.9140 C   0  0  0  0  0  0  0  0  0  0  0  0
   10.9300    6.7300   13.3730 C   0  0  0  0  0  0  0  0  0  0  0  0
   11.3980    7.8750   13.5420 O   0  0  0  0  0  0  0  0  0  0  0  0
   11.8040    5.6410   13.2000 N   0  0  0  0  0  0  0  0  0  0  0  0
   12.7370    5.5350   12.0960 C   0  0  1  0  0  0  0  0  0  0  0  0
   13.8230    6.5300   12.2880 C   0  0  0  0  0  0  0  0  0  0  0  0
   13.1820    4.1480   11.8750 C   0  0  0  0  0  0  0  0  0  0  0  0
   14.4480    3.9580   11.8970 O   0  0  0  0  0  0  0  0  0  0  0  0
   12.3760    3.0270   11.6470 N   0  0  0  0  0  0  0  0  0  0  0  0
   11.0750    3.1100   11.0150 C   0  0  0  0  0  0  0  0  0  0  0  0
   11.1290    2.3160    9.7460 C   0  0  0  0  0  0  0  0  0  0  0  0
   11.6390    0.9280    9.9690 C   0  0  1  0  0  0  0  0  0  0  0  0
   10.6460   -0.0110    9.4790 N   0  0  0  0  0  0  0  0  0  0  0  0
   10.5440    0.1560    8.0410 C   0  0  0  0  0  0  0  0  0  0  0  0
   11.7080   -0.6380    7.4370 C   0  0  0  0  0  0  0  0  0  0  0  0
   12.9370   -0.0790    8.0510 C   0  0  0  0  0  0  0  0  0  0  0  0
   14.2150   -0.1540    7.6320 N   0  0  0  0  0  0  0  0  0  0  0  0
   14.9660    0.5100    8.5230 C   0  0  0  0  0  0  0  0  0  0  0  0
   14.1530    0.9890    9.4820 N   0  0  0  0  0  0  0  0  0  0  0  0
   12.8820    0.6420    9.2190 C   0  0  0  0  0  0  0  0  0  0  0  0
   11.8410    0.6880   11.4650 C   0  0  0  0  0  0  0  0  0  0  0  0
   12.7880    1.6910   12.0370 C   0  0  0  0  0  0  0  0  0  0  0  0
    9.0310    5.7820   15.3390 H   0  0  0  0  0  0  0  0  0  0  0  0
    6.4840    5.7400   14.4480 H   0  0  0  0  0  0  0  0  0  0  0  0
   11.7870    4.8670   13.8950 H   0  0  0  0  0  0  0  0  0  0  0  0
   12.1690    5.8410   11.1680 H   0  0  0  0  0  0  0  0  0  0  0  0
   13.6290    7.0970   13.2220 H   0  0  0  0  0  0  0  0  0  0  0  0
   13.8950    7.3090   11.5000 H   0  0  0  0  0  0  0  0  0  0  0  0
   14.8180    6.0550   12.4550 H   0  0  0  0  0  0  0  0  0  0  0  0
   10.7220    4.1360   10.8870 H   0  0  0  0  0  0  0  0  0  0  0  0
   10.3080    2.6310   11.6940 H   0  0  0  0  0  0  0  0  0  0  0  0
   10.0700    2.2680    9.3580 H   0  0  0  0  0  0  0  0  0  0  0  0
   11.7100    2.8730    8.9840 H   0  0  0  0  0  0  0  0  0  0  0  0
    9.6860    0.2120    9.8660 H   0  0  0  0  0  0  0  0  0  0  0  0
    9.5780   -0.1470    7.6310 H   0  0  0  0  0  0  0  0  0  0  0  0
   10.7490    1.2220    7.7440 H   0  0  0  0  0  0  0  0  0  0  0  0
   11.6140   -1.6870    7.8140 H   0  0  0  0  0  0  0  0  0  0  0  0
   11.7070   -0.5840    6.3450 H   0  0  0  0  0  0  0  0  0  0  0  0
   14.6080   -0.6280    6.7800 H   0  0  0  0  0  0  0  0  0  0  0  0
   16.0300    0.6510    8.5010 H   0  0  0  0  0  0  0  0  0  0  0  0
   12.2680   -0.3380   11.5550 H   0  0  0  0  0  0  0  0  0  0  0  0
   10.8480    0.6890   11.9280 H   0  0  0  0  0  0  0  0  0  0  0  0
   12.6510    1.6610   13.1590 H   0  0  0  0  0  0  0  0  0  0  0  0
   13.8420    1.4910   11.8180 H   0  0  0  0  0  0  0  0  0  0  0  0
  1  2  1  0  0  0  0
  2  6  2  0  0  0  0
  3  2  1  0  0  0  0
  3  4  1  0  0  0  0
  4  7  1  0  0  0  0
  4  5  2  0  0  0  0
  5 28  1  0  0  0  0
  6  5  1  0  0  0  0
  6 29  1  0  0  0  0
  7  8  2  0  0  0  0
  9  7  1  0  0  0  0
  9 30  1  0  0  0  0
 10 31  1  6  0  0  0
 10 11  1  0  0  0  0
 10  9  1  0  0  0  0
 11 34  1  0  0  0  0
 11 32  1  0  0  0  0
 12 13  2  0  0  0  0
 12 10  1  0  0  0  0
 14 12  1  0  0  0  0
 14 27  1  0  0  0  0
 15 14  1  0  0  0  0
 15 36  1  0  0  0  0
 16 17  1  0  0  0  0
 16 15  1  0  0  0  0
 17 25  1  6  0  0  0
 17 26  1  0  0  0  0
 18 39  1  0  0  0  0
 18 17  1  0  0  0  0
 19 18  1  0  0  0  0
 20 42  1  0  0  0  0
 20 19  1  0  0  0  0
 20 21  1  0  0  0  0
 21 25  2  0  0  0  0
 22 21  1  0  0  0  0
 22 23  1  0  0  0  0
 23 24  2  0  0  0  0
 25 24  1  0  0  0  0
 26 46  1  0  0  0  0
 26 47  1  0  0  0  0
 26 27  1  0  0  0  0
 27 48  1  0  0  0  0
 33 11  1  0  0  0  0
 35 15  1  0  0  0  0
 37 16  1  0  0  0  0
 38 16  1  0  0  0  0
 40 19  1  0  0  0  0
 41 19  1  0  0  0  0
 43 20  1  0  0  0  0
 44 22  1  0  0  0  0
 45 23  1  0  0  0  0
 49 27  1  0  0  0  0
M  END
>  <Pose>
1

>  <Score>
-6.09

$$$$
