
 OpenBabel03172210413D

 63 66  0  0  1  0  0  0  0  0999 V2000
   14.5260    0.7650    8.2990 B   0  0  0  0  0  0  0  0  0  0  0  0
   13.0020    1.5600    9.1160 C   0  0  0  0  0  0  0  0  0  0  0  0
   12.9610    2.9260    9.2300 C   0  0  0  0  0  0  0  0  0  0  0  0
   11.9300    3.5830    9.7920 N   0  0  0  0  0  0  0  0  0  0  0  0
   10.9170    2.7840   10.2440 C   0  0  0  0  0  0  0  0  0  0  0  0
    9.9100    3.3280   10.7860 O   0  0  0  0  0  0  0  0  0  0  0  0
   10.9250    1.4640   10.1510 N   0  0  0  0  0  0  0  0  0  0  0  0
   11.9550    0.8080    9.5900 C   0  0  0  0  0  0  0  0  0  0  0  0
   12.0010   -0.4420    9.4800 O   0  0  0  0  0  0  0  0  0  0  0  0
   11.8560    5.0020    9.9250 C   0  0  2  0  0  0  0  0  0  0  0  0
   12.4990    5.5050   11.2240 C   0  0  2  0  0  0  0  0  0  0  0  0
   11.4980    5.4320   12.3250 C   0  0  0  0  0  0  0  0  0  0  0  0
   10.3510    6.3600   11.9960 C   0  0  0  0  0  0  0  0  0  0  0  0
   10.2940    6.6820   10.6530 O   0  0  0  0  0  0  0  0  0  0  0  0
   10.4920    5.5960    9.8110 C   0  0  0  0  0  0  0  0  0  0  0  0
    9.1060    5.7480   12.5260 C   0  0  0  0  0  0  0  0  0  0  0  0
    7.9360    6.6990   12.2330 C   0  0  0  0  0  0  0  0  0  0  0  0
    8.1260    7.8740   13.0180 N   0  0  0  0  0  0  0  0  0  0  0  0
    9.4590    7.9560   13.7040 C   0  0  0  0  0  0  0  0  0  0  0  0
   10.5740    7.6480   12.7600 C   0  0  0  0  0  0  0  0  0  0  0  0
    7.2210    8.9040   13.1870 C   0  0  0  0  0  0  0  0  0  0  0  0
    7.7490   10.1080   13.2740 O   0  0  0  0  0  0  0  0  0  0  0  0
    5.8050    8.8920   13.2830 C   0  0  0  0  0  0  0  0  0  0  0  0
    5.1750    9.2600   14.4860 C   0  0  0  0  0  0  0  0  0  0  0  0
    3.8340    9.3060   14.6970 C   0  0  0  0  0  0  0  0  0  0  0  0
    3.0140    8.9530   13.6050 C   0  0  0  0  0  0  0  0  0  0  0  0
    3.5960    8.5960   12.4370 C   0  0  0  0  0  0  0  0  0  0  0  0
    4.9890    8.5580   12.2510 C   0  0  0  0  0  0  0  0  0  0  0  0
    3.2610    9.6630   15.8810 O   0  0  0  0  0  0  0  0  0  0  0  0
    3.3600    9.1470   17.1380 C   0  0  0  0  0  0  0  0  0  0  0  0
    3.3330    7.6570   17.1610 C   0  0  0  0  0  0  0  0  0  0  0  0
    4.6870    7.1410   16.9570 N   0  0  0  0  0  0  0  0  0  0  0  0
   12.8060    6.8510   11.0140 O   0  0  0  0  0  0  0  0  0  0  0  0
   13.7770    4.7840   11.5100 C   0  0  0  0  0  0  0  0  0  0  0  0
   13.7720    3.5000    8.8630 H   0  0  0  0  0  0  0  0  0  0  0  0
   10.1380    0.8810   10.5050 H   0  0  0  0  0  0  0  0  0  0  0  0
   12.5190    5.4400    9.1180 H   0  0  0  0  0  0  0  0  0  0  0  0
   11.1560    4.4080   12.5670 H   0  0  0  0  0  0  0  0  0  0  0  0
   12.0240    5.7810   13.2620 H   0  0  0  0  0  0  0  0  0  0  0  0
    9.6580    4.9100    9.9500 H   0  0  0  0  0  0  0  0  0  0  0  0
   10.3700    6.0090    8.7650 H   0  0  0  0  0  0  0  0  0  0  0  0
    9.1740    5.6410   13.6150 H   0  0  0  0  0  0  0  0  0  0  0  0
    8.8860    4.7410   12.1170 H   0  0  0  0  0  0  0  0  0  0  0  0
    7.0270    6.1110   12.5600 H   0  0  0  0  0  0  0  0  0  0  0  0
    7.9380    6.8390   11.1420 H   0  0  0  0  0  0  0  0  0  0  0  0
    9.4710    7.3390   14.6020 H   0  0  0  0  0  0  0  0  0  0  0  0
    9.5390    9.0100   14.0570 H   0  0  0  0  0  0  0  0  0  0  0  0
   10.6450    8.5320   12.0610 H   0  0  0  0  0  0  0  0  0  0  0  0
   11.5280    7.6200   13.3350 H   0  0  0  0  0  0  0  0  0  0  0  0
    5.8220    9.5450   15.2880 H   0  0  0  0  0  0  0  0  0  0  0  0
    1.9520    8.9950   13.7870 H   0  0  0  0  0  0  0  0  0  0  0  0
    2.9450    8.3260   11.6020 H   0  0  0  0  0  0  0  0  0  0  0  0
    5.2910    8.2700   11.2760 H   0  0  0  0  0  0  0  0  0  0  0  0
    2.4600    9.4850   17.7520 H   0  0  0  0  0  0  0  0  0  0  0  0
    4.2890    9.5230   17.6620 H   0  0  0  0  0  0  0  0  0  0  0  0
    2.9460    7.1680   18.0430 H   0  0  0  0  0  0  0  0  0  0  0  0
    2.7770    7.2990   16.2440 H   0  0  0  0  0  0  0  0  0  0  0  0
    4.8000    6.1860   17.3290 H   0  0  0  0  0  0  0  0  0  0  0  0
    5.4150    7.8070   17.2350 H   0  0  0  0  0  0  0  0  0  0  0  0
   12.2920    7.2520   10.2680 H   0  0  0  0  0  0  0  0  0  0  0  0
   13.7200    3.6920   11.4000 H   0  0  0  0  0  0  0  0  0  0  0  0
   14.5670    5.2270   10.8630 H   0  0  0  0  0  0  0  0  0  0  0  0
   14.0710    5.0270   12.5550 H   0  0  0  0  0  0  0  0  0  0  0  0
  1  2  1  0  0  0  0
  2  3  2  0  0  0  0
  2  8  1  0  0  0  0
  3  4  1  0  0  0  0
  4 10  1  0  0  0  0
  4  5  1  0  0  0  0
  5  6  2  0  0  0  0
  7  5  1  0  0  0  0
  7 36  1  0  0  0  0
  8  7  1  0  0  0  0
  9  8  2  0  0  0  0
 10 37  1  6  0  0  0
 10 11  1  0  0  0  0
 11 33  1  6  0  0  0
 11 34  1  0  0  0  0
 11 12  1  0  0  0  0
 12 38  1  0  0  0  0
 12 39  1  0  0  0  0
 13 12  1  0  0  0  0
 13 16  1  0  0  0  0
 13 20  1  0  0  0  0
 14 13  1  0  0  0  0
 15 10  1  0  0  0  0
 15 40  1  0  0  0  0
 15 14  1  0  0  0  0
 16 42  1  0  0  0  0
 17 16  1  0  0  0  0
 17 44  1  0  0  0  0
 17 18  1  0  0  0  0
 18 21  1  0  0  0  0
 18 19  1  0  0  0  0
 19 47  1  0  0  0  0
 19 46  1  0  0  0  0
 20 49  1  0  0  0  0
 20 19  1  0  0  0  0
 21 22  2  0  0  0  0
 21 23  1  0  0  0  0
 23 24  1  0  0  0  0
 24 25  2  0  0  0  0
 24 50  1  0  0  0  0
 25 29  1  0  0  0  0
 26 51  1  0  0  0  0
 26 25  1  0  0  0  0
 27 26  2  0  0  0  0
 28 27  1  0  0  0  0
 28 23  2  0  0  0  0
 29 30  1  0  0  0  0
 30 31  1  0  0  0  0
 30 55  1  0  0  0  0
 30 54  1  0  0  0  0
 31 56  1  0  0  0  0
 32 31  1  0  0  0  0
 32 59  1  0  0  0  0
 32 58  1  0  0  0  0
 34 63  1  0  0  0  0
 35  3  1  0  0  0  0
 41 15  1  0  0  0  0
 43 16  1  0  0  0  0
 45 17  1  0  0  0  0
 48 20  1  0  0  0  0
 52 27  1  0  0  0  0
 53 28  1  0  0  0  0
 57 31  1  0  0  0  0
 60 33  1  0  0  0  0
 61 34  1  0  0  0  0
 62 34  1  0  0  0  0
M  END
>  <Pose>
1

>  <Score>
-7.10

$$$$
