
 OpenBabel03172210413D

 53 56  0  0  1  0  0  0  0  0999 V2000
   11.1300    2.3170   10.4000 B   0  0  0  0  0  0  0  0  0  0  0  0
   11.6970    4.0820   10.7890 C   0  0  0  0  0  0  0  0  0  0  0  0
   11.2890    5.1220    9.9750 C   0  0  0  0  0  0  0  0  0  0  0  0
   11.6850    6.4150   10.2450 C   0  0  0  0  0  0  0  0  0  0  0  0
   12.4890    6.6910   11.3260 C   0  0  0  0  0  0  0  0  0  0  0  0
   12.8900    5.6640   12.1260 C   0  0  0  0  0  0  0  0  0  0  0  0
   12.5000    4.3420   11.8700 C   0  0  0  0  0  0  0  0  0  0  0  0
   12.9490    8.0700   11.6540 C   0  0  2  0  0  0  0  0  0  0  0  0
   14.2220    8.0340   12.3710 N   0  0  0  0  0  4  0  0  0  0  0  0
   13.9980    8.1720   13.7190 C   0  0  0  0  0  0  0  0  0  0  0  0
   14.8260    8.5070   14.6770 C   0  0  0  0  0  0  0  0  0  0  0  0
   14.6970    8.6790   16.1530 C   0  0  0  0  0  0  0  0  0  0  0  0
   13.2910    8.6060   16.6580 C   0  0  0  0  0  0  0  0  0  0  0  0
   12.6320    7.2990   16.2860 C   0  0  0  0  0  0  0  0  0  0  0  0
   11.8120    7.4750   15.0230 C   0  0  0  0  0  0  0  0  0  0  0  0
   12.5790    7.9960   13.9380 N   0  0  0  0  0  0  0  0  0  0  0  0
   11.9140    8.5170   12.7360 C   0  0  0  0  0  0  0  0  0  0  0  0
   15.2070    7.2610   11.8150 C   0  0  0  0  0  0  0  0  0  0  0  0
   15.3970    5.9310   12.0400 C   0  0  0  0  0  0  0  0  0  0  0  0
   16.5250    5.2310   11.5810 C   0  0  0  0  0  0  0  0  0  0  0  0
   17.5050    5.8700   10.8690 C   0  0  0  0  0  0  0  0  0  0  0  0
   17.3180    7.2250   10.6330 C   0  0  0  0  0  0  0  0  0  0  0  0
   16.2110    7.9080   11.0870 C   0  0  0  0  0  0  0  0  0  0  0  0
   18.6300    5.2000   10.4170 O   0  0  0  0  0  0  0  0  0  0  0  0
   19.1950    4.0650   11.0220 C   0  0  0  0  0  0  0  0  0  0  0  0
   20.5860    4.5080   11.5150 C   0  0  0  0  0  0  0  0  0  0  0  0
   12.9130    8.9760   10.6660 O   0  0  0  0  0  0  0  0  0  0  0  0
   10.6550    4.9690    9.1170 H   0  0  0  0  0  0  0  0  0  0  0  0
   11.3270    7.1980    9.5700 H   0  0  0  0  0  0  0  0  0  0  0  0
   13.5200    5.8660   12.9700 H   0  0  0  0  0  0  0  0  0  0  0  0
   12.8070    3.5190   12.5020 H   0  0  0  0  0  0  0  0  0  0  0  0
   14.5840    9.0810   12.1060 H   0  0  0  0  0  0  0  0  0  0  0  0
   15.8350    8.7650   14.3630 H   0  0  0  0  0  0  0  0  0  0  0  0
   15.1190    9.6580   16.4390 H   0  0  0  0  0  0  0  0  0  0  0  0
   15.2530    7.8300   16.6350 H   0  0  0  0  0  0  0  0  0  0  0  0
   12.6950    9.4810   16.4310 H   0  0  0  0  0  0  0  0  0  0  0  0
   13.3800    8.5810   17.7860 H   0  0  0  0  0  0  0  0  0  0  0  0
   13.3660    6.5060   16.2100 H   0  0  0  0  0  0  0  0  0  0  0  0
   11.8910    7.0210   17.0960 H   0  0  0  0  0  0  0  0  0  0  0  0
   11.2060    6.5820   14.8100 H   0  0  0  0  0  0  0  0  0  0  0  0
   11.0630    8.2830   15.2900 H   0  0  0  0  0  0  0  0  0  0  0  0
   11.8320    9.5990   12.7930 H   0  0  0  0  0  0  0  0  0  0  0  0
   10.9740    7.9950   12.6030 H   0  0  0  0  0  0  0  0  0  0  0  0
   14.6750    5.3300   12.5570 H   0  0  0  0  0  0  0  0  0  0  0  0
   16.6080    4.1840   11.8060 H   0  0  0  0  0  0  0  0  0  0  0  0
   18.0550    7.8080   10.0630 H   0  0  0  0  0  0  0  0  0  0  0  0
   16.1550    8.9870   10.8740 H   0  0  0  0  0  0  0  0  0  0  0  0
   19.3460    3.2370   10.2530 H   0  0  0  0  0  0  0  0  0  0  0  0
   18.5680    3.6480   11.8150 H   0  0  0  0  0  0  0  0  0  0  0  0
   20.4730    4.5520   12.6130 H   0  0  0  0  0  0  0  0  0  0  0  0
   20.8270    5.5230   11.1540 H   0  0  0  0  0  0  0  0  0  0  0  0
   21.3870    3.8380   11.1690 H   0  0  0  0  0  0  0  0  0  0  0  0
   13.3100    9.8520   10.7810 H   0  0  0  0  0  0  0  0  0  0  0  0
  1  2  1  0  0  0  0
  2  7  1  0  0  0  0
  3  4  1  0  0  0  0
  3  2  2  0  0  0  0
  4  5  2  0  0  0  0
  5  8  1  0  0  0  0
  5  6  1  0  0  0  0
  6 30  1  0  0  0  0
  7  6  2  0  0  0  0
  7 31  1  0  0  0  0
  8 27  1  6  0  0  0
  8  9  1  0  0  0  0
  8 17  1  0  0  0  0
  9 10  1  0  0  0  0
 10 16  1  0  0  0  0
 10 11  2  0  0  0  0
 11 12  1  0  0  0  0
 12 34  1  0  0  0  0
 12 35  1  0  0  0  0
 12 13  1  0  0  0  0
 13 37  1  0  0  0  0
 14 13  1  0  0  0  0
 14 39  1  0  0  0  0
 15 41  1  0  0  0  0
 15 14  1  0  0  0  0
 16 15  1  0  0  0  0
 17 42  1  0  0  0  0
 17 16  1  0  0  0  0
 18 19  1  0  0  0  0
 18  9  1  0  0  0  0
 19 44  1  0  0  0  0
 20 45  1  0  0  0  0
 20 19  2  0  0  0  0
 21 20  1  0  0  0  0
 22 21  2  0  0  0  0
 22 23  1  0  0  0  0
 23 18  2  0  0  0  0
 24 21  1  0  0  0  0
 24 25  1  0  0  0  0
 25 26  1  0  0  0  0
 25 49  1  0  0  0  0
 26 50  1  0  0  0  0
 27 53  1  0  0  0  0
 28  3  1  0  0  0  0
 29  4  1  0  0  0  0
 32  9  1  0  0  0  0
 33 11  1  0  0  0  0
 36 13  1  0  0  0  0
 38 14  1  0  0  0  0
 40 15  1  0  0  0  0
 43 17  1  0  0  0  0
 46 22  1  0  0  0  0
 47 23  1  0  0  0  0
 48 25  1  0  0  0  0
 51 26  1  0  0  0  0
 52 26  1  0  0  0  0
M  END
>  <Pose>
1

>  <Score>
-4.98

$$$$
