
 OpenBabel03172210413D

 47 50  0  0  1  0  0  0  0  0999 V2000
    4.3090    8.1040   10.8280 B   0  0  0  0  0  0  0  0  0  0  0  0
    6.0890    7.8340   11.4600 C   0  0  0  0  0  0  0  0  0  0  0  0
    6.9610    8.8900   11.6490 C   0  0  0  0  0  0  0  0  0  0  0  0
    8.2440    8.6770   12.1090 C   0  0  0  0  0  0  0  0  0  0  0  0
    8.7340    7.4220   12.4040 C   0  0  0  0  0  0  0  0  0  0  0  0
    7.8510    6.3670   12.2090 C   0  0  0  0  0  0  0  0  0  0  0  0
    6.5630    6.5730   11.7490 C   0  0  0  0  0  0  0  0  0  0  0  0
   10.1030    7.2590   12.8880 C   0  0  2  0  0  0  0  0  0  0  0  0
   11.1260    7.4480   11.8890 N   0  0  0  0  0  0  0  0  0  0  0  0
   11.2680    8.2450   10.6780 C   0  0  0  0  0  0  0  0  0  0  0  0
   12.6530    8.6510   10.3570 C   0  0  0  0  0  0  0  0  0  0  0  0
   13.6970    8.2860   11.3830 C   0  0  0  0  0  0  0  0  0  0  0  0
   13.4410    7.0070   12.0370 C   0  0  0  0  0  0  0  0  0  0  0  0
   12.2050    6.6110   12.2760 C   0  0  0  0  0  0  0  0  0  0  0  0
   11.6590    5.4430   12.8810 N   0  0  0  0  0  4  0  0  0  0  0  0
   10.3920    5.8640   13.3930 C   0  0  0  0  0  0  0  0  0  0  0  0
   11.6170    4.4220   11.9410 C   0  0  0  0  0  0  0  0  0  0  0  0
   11.6360    4.7040   10.5950 C   0  0  0  0  0  0  0  0  0  0  0  0
   11.5930    3.6700    9.6460 C   0  0  0  0  0  0  0  0  0  0  0  0
   11.5310    2.3560   10.0190 C   0  0  0  0  0  0  0  0  0  0  0  0
   11.5120    2.0710   11.3970 C   0  0  0  0  0  0  0  0  0  0  0  0
   11.5550    3.1090   12.3040 C   0  0  0  0  0  0  0  0  0  0  0  0
   11.4860    1.2810    9.1330 O   0  0  0  0  0  0  0  0  0  0  0  0
   10.4510    0.3630    9.0010 C   0  0  0  0  0  0  0  0  0  0  0  0
   10.3310    8.2170   13.8970 O   0  0  0  0  0  0  0  0  0  0  0  0
    6.5810    9.8790   11.4200 H   0  0  0  0  0  0  0  0  0  0  0  0
    8.9150    9.5280   12.2510 H   0  0  0  0  0  0  0  0  0  0  0  0
    8.2010    5.3740   12.4270 H   0  0  0  0  0  0  0  0  0  0  0  0
    5.8670    5.7490   11.5960 H   0  0  0  0  0  0  0  0  0  0  0  0
   10.6300    9.1700   10.7500 H   0  0  0  0  0  0  0  0  0  0  0  0
   10.8260    7.6990    9.7950 H   0  0  0  0  0  0  0  0  0  0  0  0
   12.7080    9.7430   10.1040 H   0  0  0  0  0  0  0  0  0  0  0  0
   12.9870    8.1410    9.4050 H   0  0  0  0  0  0  0  0  0  0  0  0
   14.7170    8.2780   10.9450 H   0  0  0  0  0  0  0  0  0  0  0  0
   13.6990    9.1160   12.1420 H   0  0  0  0  0  0  0  0  0  0  0  0
   14.2660    6.3850   12.3230 H   0  0  0  0  0  0  0  0  0  0  0  0
   12.3090    5.1800   13.6710 H   0  0  0  0  0  0  0  0  0  0  0  0
   10.4540    5.9380   14.5020 H   0  0  0  0  0  0  0  0  0  0  0  0
    9.5660    5.1600   13.1860 H   0  0  0  0  0  0  0  0  0  0  0  0
   11.6860    5.7080   10.2080 H   0  0  0  0  0  0  0  0  0  0  0  0
   11.6110    3.9060    8.5870 H   0  0  0  0  0  0  0  0  0  0  0  0
   11.4650    1.0280   11.6920 H   0  0  0  0  0  0  0  0  0  0  0  0
   11.5390    2.8660   13.3440 H   0  0  0  0  0  0  0  0  0  0  0  0
    9.5970    0.5330    9.6450 H   0  0  0  0  0  0  0  0  0  0  0  0
   10.8510   -0.6780    9.0570 H   0  0  0  0  0  0  0  0  0  0  0  0
   10.0520    0.4450    7.9460 H   0  0  0  0  0  0  0  0  0  0  0  0
   10.9440    8.8840   13.5010 H   0  0  0  0  0  0  0  0  0  0  0  0
  1  2  1  0  0  0  0
  2  3  2  0  0  0  0
  2  7  1  0  0  0  0
  3  4  1  0  0  0  0
  4 27  1  0  0  0  0
  4  5  2  0  0  0  0
  5  8  1  0  0  0  0
  6  5  1  0  0  0  0
  6 28  1  0  0  0  0
  7  6  2  0  0  0  0
  8 16  1  0  0  0  0
  8 25  1  1  0  0  0
  9 14  1  0  0  0  0
  9  8  1  0  0  0  0
 10 30  1  0  0  0  0
 10  9  1  0  0  0  0
 11 10  1  0  0  0  0
 11 12  1  0  0  0  0
 12 13  1  0  0  0  0
 12 35  1  0  0  0  0
 13 14  2  0  0  0  0
 13 36  1  0  0  0  0
 14 15  1  0  0  0  0
 15 16  1  0  0  0  0
 15 37  1  0  0  0  0
 16 38  1  0  0  0  0
 17 22  1  0  0  0  0
 17 15  1  0  0  0  0
 18 17  2  0  0  0  0
 19 20  2  0  0  0  0
 19 18  1  0  0  0  0
 20 21  1  0  0  0  0
 21 42  1  0  0  0  0
 21 22  2  0  0  0  0
 22 43  1  0  0  0  0
 23 20  1  0  0  0  0
 24 45  1  0  0  0  0
 24 23  1  0  0  0  0
 24 44  1  0  0  0  0
 26  3  1  0  0  0  0
 29  7  1  0  0  0  0
 31 10  1  0  0  0  0
 32 11  1  0  0  0  0
 33 11  1  0  0  0  0
 34 12  1  0  0  0  0
 39 16  1  0  0  0  0
 40 18  1  0  0  0  0
 41 19  1  0  0  0  0
 46 24  1  0  0  0  0
 47 25  1  0  0  0  0
M  END
>  <Pose>
1

>  <Score>
-4.79

$$$$
