
 OpenBabel03172210413D

 56 59  0  0  1  0  0  0  0  0999 V2000
    5.9840    6.6510   11.4960 B   0  0  0  0  0  0  0  0  0  0  0  0
    7.7620    6.4620   12.1400 C   0  0  0  0  0  0  0  0  0  0  0  0
    8.8070    6.2280   11.2510 C   0  0  0  0  0  0  0  0  0  0  0  0
   10.0880    6.0910   11.7150 C   0  0  0  0  0  0  0  0  0  0  0  0
   10.3500    6.1820   13.0650 C   0  0  0  0  0  0  0  0  0  0  0  0
    9.3030    6.4140   13.9310 C   0  0  0  0  0  0  0  0  0  0  0  0
    8.0050    6.5570   13.4980 C   0  0  0  0  0  0  0  0  0  0  0  0
   11.6880    6.0340   13.5560 N   0  0  0  0  0  0  0  0  0  0  0  0
   12.8490    6.4750   12.8090 C   0  0  0  0  0  0  0  0  0  0  0  0
   13.6010    5.3370   12.1880 C   0  0  0  0  0  0  0  0  0  0  0  0
   14.8540    5.2970   11.7060 N   0  0  0  0  0  0  0  0  0  0  0  0
   15.0850    4.0510   11.2520 C   0  0  1  0  0  0  0  0  0  0  0  0
   13.9500    3.3030   11.4570 N   0  0  0  0  0  0  0  0  0  0  0  0
   13.0770    4.1170   12.0250 N   0  0  0  0  0  0  0  0  0  0  0  0
   13.6970    1.9630   11.1040 C   0  0  0  0  0  0  0  0  0  0  0  0
   13.2440    1.6780    9.7680 C   0  0  1  0  0  0  0  0  0  0  0  0
   13.9080    2.3750    8.8440 O   0  0  0  0  0  0  0  0  0  0  0  0
   12.2450    0.8140    9.2060 C   0  0  0  0  0  0  0  0  0  0  0  0
   12.6160   -0.2740    8.3860 C   0  0  0  0  0  0  0  0  0  0  0  0
   11.7040   -1.1250    7.8200 C   0  0  0  0  0  0  0  0  0  0  0  0
   10.3590   -0.9550    8.0300 C   0  0  0  0  0  0  0  0  0  0  0  0
    9.9560    0.0860    8.8200 C   0  0  0  0  0  0  0  0  0  0  0  0
   10.9040    0.9540    9.3940 C   0  0  0  0  0  0  0  0  0  0  0  0
    9.4320   -1.8230    7.4550 O   0  0  0  0  0  0  0  0  0  0  0  0
    8.1520   -1.4020    7.0530 C   0  0  0  0  0  0  0  0  0  0  0  0
   16.2510    3.4230   10.6230 C   0  0  0  0  0  0  0  0  0  0  0  0
   17.5830    3.9380   11.0980 C   0  0  0  0  0  0  0  0  0  0  0  0
   17.7960    5.3920   10.8310 C   0  0  0  0  0  0  0  0  0  0  0  0
   17.1640    6.1510   11.9750 C   0  0  0  0  0  0  0  0  0  0  0  0
   15.7050    6.4410   11.7190 C   0  0  0  0  0  0  0  0  0  0  0  0
    8.5520    6.1620   10.1900 H   0  0  0  0  0  0  0  0  0  0  0  0
   10.8850    5.9130   11.0270 H   0  0  0  0  0  0  0  0  0  0  0  0
    9.5030    6.4860   14.9820 H   0  0  0  0  0  0  0  0  0  0  0  0
    7.1660    6.7400   14.1570 H   0  0  0  0  0  0  0  0  0  0  0  0
   11.7900    5.5850   14.4920 H   0  0  0  0  0  0  0  0  0  0  0  0
   12.5650    7.2280   12.0230 H   0  0  0  0  0  0  0  0  0  0  0  0
   13.5170    7.0290   13.5020 H   0  0  0  0  0  0  0  0  0  0  0  0
   13.0230    1.4560   11.8860 H   0  0  0  0  0  0  0  0  0  0  0  0
   14.6470    1.3170   11.2470 H   0  0  0  0  0  0  0  0  0  0  0  0
   13.6750   -0.4120    8.2170 H   0  0  0  0  0  0  0  0  0  0  0  0
   12.0580   -1.9440    7.1990 H   0  0  0  0  0  0  0  0  0  0  0  0
    8.8940    0.2340    8.9950 H   0  0  0  0  0  0  0  0  0  0  0  0
   10.4900    1.7220    9.9770 H   0  0  0  0  0  0  0  0  0  0  0  0
    7.6660   -0.8520    7.8920 H   0  0  0  0  0  0  0  0  0  0  0  0
    7.5390   -2.3060    6.8580 H   0  0  0  0  0  0  0  0  0  0  0  0
    8.1810   -0.7790    6.1380 H   0  0  0  0  0  0  0  0  0  0  0  0
   16.2260    3.5390    9.5200 H   0  0  0  0  0  0  0  0  0  0  0  0
   16.2390    2.3400   10.8610 H   0  0  0  0  0  0  0  0  0  0  0  0
   18.3580    3.3760   10.5280 H   0  0  0  0  0  0  0  0  0  0  0  0
   17.7690    3.7150   12.1670 H   0  0  0  0  0  0  0  0  0  0  0  0
   18.8940    5.6100   10.8510 H   0  0  0  0  0  0  0  0  0  0  0  0
   17.3390    5.7300    9.8970 H   0  0  0  0  0  0  0  0  0  0  0  0
   17.6780    7.1310   12.0380 H   0  0  0  0  0  0  0  0  0  0  0  0
   17.3250    5.6490   12.9590 H   0  0  0  0  0  0  0  0  0  0  0  0
   15.6520    6.9430   10.7310 H   0  0  0  0  0  0  0  0  0  0  0  0
   15.3830    7.1070   12.5470 H   0  0  0  0  0  0  0  0  0  0  0  0
  1  2  1  0  0  0  0
  2  7  1  0  0  0  0
  3  4  1  0  0  0  0
  3  2  2  0  0  0  0
  4  5  2  0  0  0  0
  5  8  1  0  0  0  0
  5  6  1  0  0  0  0
  6 33  1  0  0  0  0
  7  6  2  0  0  0  0
  7 34  1  0  0  0  0
  8 35  1  0  0  0  0
  9 37  1  0  0  0  0
  9  8  1  0  0  0  0
 10  9  1  0  0  0  0
 11 30  1  0  0  0  0
 11 10  1  0  0  0  0
 12 26  1  6  0  0  0
 12 13  1  0  0  0  0
 12 11  1  0  0  0  0
 13 14  1  0  0  0  0
 14 10  2  0  0  0  0
 15 39  1  0  0  0  0
 15 13  1  0  0  0  0
 15 38  1  0  0  0  0
 16 17  1  6  0  0  0
 16 15  1  0  0  0  0
 18 23  1  0  0  0  0
 18 16  1  0  0  0  0
 19 18  2  0  0  0  0
 20 21  2  0  0  0  0
 20 19  1  0  0  0  0
 21 22  1  0  0  0  0
 22 42  1  0  0  0  0
 22 23  2  0  0  0  0
 23 43  1  0  0  0  0
 24 21  1  0  0  0  0
 25 24  1  0  0  0  0
 25 44  1  0  0  0  0
 26 48  1  0  0  0  0
 26 27  1  0  0  0  0
 27 50  1  0  0  0  0
 28 51  1  0  0  0  0
 28 27  1  0  0  0  0
 28 29  1  0  0  0  0
 29 53  1  0  0  0  0
 29 54  1  0  0  0  0
 30 29  1  0  0  0  0
 30 56  1  0  0  0  0
 31  3  1  0  0  0  0
 32  4  1  0  0  0  0
 36  9  1  0  0  0  0
 40 19  1  0  0  0  0
 41 20  1  0  0  0  0
 45 25  1  0  0  0  0
 46 25  1  0  0  0  0
 47 26  1  0  0  0  0
 49 27  1  0  0  0  0
 52 28  1  0  0  0  0
 55 30  1  0  0  0  0
M  END
>  <Pose>
1

>  <Score>
-6.93

$$$$
