
 OpenBabel03172210413D

 41 44  0  0  0  0  0  0  0  0999 V2000
   16.9310   11.8730   13.3830 F   0  0  0  0  0  0  0  0  0  0  0  0
   17.9960   11.3590   12.7060 C   0  0  0  0  0  0  0  0  0  0  0  0
   17.8120   10.1380   12.0380 C   0  0  0  0  0  0  0  0  0  0  0  0
   18.8720    9.6200   11.3610 C   0  0  0  0  0  0  0  0  0  0  0  0
   20.1320   10.2540   11.3050 C   0  0  0  0  0  0  0  0  0  0  0  0
   20.2710   11.4480   11.9730 C   0  0  0  0  0  0  0  0  0  0  0  0
   19.2110   11.9930   12.6670 C   0  0  0  0  0  0  0  0  0  0  0  0
   21.4540   12.1060   11.9590 F   0  0  0  0  0  0  0  0  0  0  0  0
   16.5520    9.5220   12.1040 N   0  0  0  0  0  0  0  0  0  0  0  0
   16.2930    8.1900   11.7920 C   0  0  0  0  0  0  0  0  0  0  0  0
   16.8690    7.5650   10.8960 O   0  0  0  0  0  0  0  0  0  0  0  0
   15.2440    7.4350   12.5830 C   0  0  0  0  0  0  0  0  0  0  0  0
   14.0190    7.3890   11.8150 N   0  0  0  0  0  0  0  0  0  0  0  0
   13.3040    8.4610   11.5240 N   0  0  0  0  0  0  0  0  0  0  0  0
   12.2690    8.0280   10.8270 N   0  0  0  0  0  0  0  0  0  0  0  0
   12.3150    6.6890   10.6690 C   0  0  0  0  0  0  0  0  0  0  0  0
   13.4320    6.2950   11.3020 C   0  0  0  0  0  0  0  0  0  0  0  0
   13.4640    4.9300   11.1310 C   0  0  0  0  0  0  0  0  0  0  0  0
   14.3660    4.1740   11.5800 O   0  0  0  0  0  0  0  0  0  0  0  0
   12.4080    4.4890   10.4180 N   0  0  0  0  0  0  0  0  0  0  0  0
   11.6850    5.5830   10.1260 C   0  0  0  0  0  0  0  0  0  0  0  0
   10.6120    5.5900    9.4670 O   0  0  0  0  0  0  0  0  0  0  0  0
   12.1470    3.1190   10.0660 C   0  0  0  0  0  0  0  0  0  0  0  0
   13.1810    2.2690    9.7270 C   0  0  0  0  0  0  0  0  0  0  0  0
   12.9780    0.9490    9.3820 C   0  0  0  0  0  0  0  0  0  0  0  0
   11.6750    0.4900    9.3860 C   0  0  0  0  0  0  0  0  0  0  0  0
   10.5990    1.2960    9.7180 C   0  0  0  0  0  0  0  0  0  0  0  0
   10.8720    2.6070   10.0520 C   0  0  0  0  0  0  0  0  0  0  0  0
   11.4170   -1.3520    8.9040 B   0  0  0  0  0  0  0  0  0  0  0  0
   18.8210    8.7000   10.8270 H   0  0  0  0  0  0  0  0  0  0  0  0
   20.9490    9.8110   10.7580 H   0  0  0  0  0  0  0  0  0  0  0  0
   19.3320   12.9460   13.1970 H   0  0  0  0  0  0  0  0  0  0  0  0
   15.7010   10.1030   12.4190 H   0  0  0  0  0  0  0  0  0  0  0  0
   15.0590    7.9720   13.5420 H   0  0  0  0  0  0  0  0  0  0  0  0
   15.6610    6.4550   12.8220 H   0  0  0  0  0  0  0  0  0  0  0  0
   13.5060    9.4680   11.7890 H   0  0  0  0  0  0  0  0  0  0  0  0
   11.5240    8.6760   10.4580 H   0  0  0  0  0  0  0  0  0  0  0  0
   14.1780    2.6840    9.7410 H   0  0  0  0  0  0  0  0  0  0  0  0
   13.8160    0.2880    9.1160 H   0  0  0  0  0  0  0  0  0  0  0  0
    9.6090    0.8730    9.7000 H   0  0  0  0  0  0  0  0  0  0  0  0
   10.0330    3.2430   10.3120 H   0  0  0  0  0  0  0  0  0  0  0  0
  2  1  1  0  0  0  0
  3  9  1  0  0  0  0
  3  2  2  0  0  0  0
  4  3  1  0  0  0  0
  5  4  2  0  0  0  0
  5  6  1  0  0  0  0
  6  7  2  0  0  0  0
  7  2  1  0  0  0  0
  7 32  1  0  0  0  0
  8  6  1  0  0  0  0
  9 33  1  0  0  0  0
 10  9  1  0  0  0  0
 10 12  1  0  0  0  0
 11 10  2  0  0  0  0
 12 35  1  0  0  0  0
 12 34  1  0  0  0  0
 13 12  1  0  0  0  0
 14 36  1  0  0  0  0
 14 13  1  0  0  0  0
 15 14  1  0  0  0  0
 16 15  1  0  0  0  0
 16 17  2  0  0  0  0
 17 13  1  0  0  0  0
 18 17  1  0  0  0  0
 18 19  2  0  0  0  0
 20 18  1  0  0  0  0
 21 20  1  0  0  0  0
 21 16  1  0  0  0  0
 22 21  2  0  0  0  0
 23 20  1  0  0  0  0
 24 38  1  0  0  0  0
 24 23  2  0  0  0  0
 25 26  2  0  0  0  0
 25 24  1  0  0  0  0
 26 27  1  0  0  0  0
 27 28  2  0  0  0  0
 28 23  1  0  0  0  0
 28 41  1  0  0  0  0
 29 26  1  0  0  0  0
 30  4  1  0  0  0  0
 31  5  1  0  0  0  0
 37 15  1  0  0  0  0
 39 25  1  0  0  0  0
 40 27  1  0  0  0  0
M  END
>  <Pose>
1

>  <Score>
-7.33

$$$$
