
 OpenBabel03172210413D

 53 56  0  0  1  0  0  0  0  0999 V2000
   14.7060    4.9420   13.0940 F   0  0  0  0  0  0  0  0  0  0  0  0
   14.2280    5.9840   12.4320 C   0  0  0  0  0  0  0  0  0  0  0  0
   12.9000    6.0730   12.0700 C   0  0  0  0  0  0  0  0  0  0  0  0
   12.5550    7.2130   11.3880 C   0  0  0  0  0  0  0  0  0  0  0  0
   13.4390    8.2300   11.0610 C   0  0  0  0  0  0  0  0  0  0  0  0
   14.7460    8.1050   11.4360 C   0  0  0  0  0  0  0  0  0  0  0  0
   15.1370    6.9970   12.1140 C   0  0  0  0  0  0  0  0  0  0  0  0
   11.9040    5.0430   12.4120 C   0  0  2  0  0  0  0  0  0  0  0  0
   11.8410    3.9270   11.4810 N   0  0  0  0  0  0  0  0  0  0  0  0
   11.3510    4.5750   10.2880 C   0  0  0  0  0  0  0  0  0  0  0  0
   11.5840    4.2860    9.0850 O   0  0  0  0  0  0  0  0  0  0  0  0
   10.4740    5.7110   10.6900 C   0  0  0  0  0  0  0  0  0  0  0  0
    9.8410    6.5400   10.0380 O   0  0  0  0  0  0  0  0  0  0  0  0
   10.5270    5.6280   12.1790 C   0  0  0  0  0  0  0  0  0  0  0  0
    9.5930    5.9900   13.0230 C   0  0  0  0  0  0  0  0  0  0  0  0
    9.8230    5.8470   14.4070 O   0  0  0  0  0  0  0  0  0  0  0  0
    8.3190    6.5340   12.5750 C   0  0  0  0  0  0  0  0  0  0  0  0
    7.9610    7.8050   12.9670 C   0  0  0  0  0  0  0  0  0  0  0  0
    6.7520    8.3730   12.6000 C   0  0  0  0  0  0  0  0  0  0  0  0
    5.8690    7.6600   11.8180 C   0  0  0  0  0  0  0  0  0  0  0  0
    6.2030    6.4020   11.4200 C   0  0  0  0  0  0  0  0  0  0  0  0
    7.4320    5.8360   11.7990 C   0  0  0  0  0  0  0  0  0  0  0  0
    4.1790    8.4260   11.2910 B   0  0  0  0  0  0  0  0  0  0  0  0
   12.1330    2.5610   11.5640 C   0  0  0  0  0  0  0  0  0  0  0  0
   13.4720    2.0490   11.1710 C   0  0  0  0  0  0  0  0  0  0  0  0
   13.5900    1.7080    9.7820 N   0  0  0  0  0  4  0  0  0  0  0  0
   12.9100    0.4500    9.5490 C   0  0  0  0  0  0  0  0  0  0  0  0
   12.9060    0.1070    8.0710 C   0  0  0  0  0  0  0  0  0  0  0  0
   14.2110    0.0190    7.6240 O   0  0  0  0  0  0  0  0  0  0  0  0
   14.8950    1.2040    7.8750 C   0  0  0  0  0  0  0  0  0  0  0  0
   14.9890    1.4470    9.3880 C   0  0  0  0  0  0  0  0  0  0  0  0
   11.5510    7.3570   11.0880 H   0  0  0  0  0  0  0  0  0  0  0  0
   13.1400    9.1170   10.5240 H   0  0  0  0  0  0  0  0  0  0  0  0
   15.4540    8.8890   11.1900 H   0  0  0  0  0  0  0  0  0  0  0  0
   16.1790    6.9140   12.4030 H   0  0  0  0  0  0  0  0  0  0  0  0
   11.9850    4.7800   13.4550 H   0  0  0  0  0  0  0  0  0  0  0  0
    8.6070    8.4270   13.5840 H   0  0  0  0  0  0  0  0  0  0  0  0
    6.4440    9.3660   12.8920 H   0  0  0  0  0  0  0  0  0  0  0  0
    5.5130    5.8380   10.8050 H   0  0  0  0  0  0  0  0  0  0  0  0
    7.6730    4.8440   11.4920 H   0  0  0  0  0  0  0  0  0  0  0  0
   11.3930    1.9730   10.9480 H   0  0  0  0  0  0  0  0  0  0  0  0
   11.9630    2.1140   12.5990 H   0  0  0  0  0  0  0  0  0  0  0  0
   14.1840    2.9100   11.3310 H   0  0  0  0  0  0  0  0  0  0  0  0
   13.8700    1.2660   11.8590 H   0  0  0  0  0  0  0  0  0  0  0  0
   13.2990    2.4660    9.1300 H   0  0  0  0  0  0  0  0  0  0  0  0
   13.5550   -0.3370   10.0400 H   0  0  0  0  0  0  0  0  0  0  0  0
   11.9350    0.3720   10.0270 H   0  0  0  0  0  0  0  0  0  0  0  0
   12.3060    0.8830    7.5500 H   0  0  0  0  0  0  0  0  0  0  0  0
   12.4310   -0.8850    7.9710 H   0  0  0  0  0  0  0  0  0  0  0  0
   14.2560    2.0290    7.4580 H   0  0  0  0  0  0  0  0  0  0  0  0
   15.8870    1.2380    7.4130 H   0  0  0  0  0  0  0  0  0  0  0  0
   15.3520    0.5600    9.9110 H   0  0  0  0  0  0  0  0  0  0  0  0
   15.5590    2.3730    9.5510 H   0  0  0  0  0  0  0  0  0  0  0  0
  2  1  1  0  0  0  0
  3  8  1  0  0  0  0
  3  2  2  0  0  0  0
  4  3  1  0  0  0  0
  5  4  2  0  0  0  0
  5  6  1  0  0  0  0
  6  7  2  0  0  0  0
  7 35  1  0  0  0  0
  7  2  1  0  0  0  0
  8 36  1  1  0  0  0
  9 24  1  0  0  0  0
  9  8  1  0  0  0  0
 10 12  1  0  0  0  0
 10  9  1  0  0  0  0
 11 10  2  0  0  0  0
 12 14  1  0  0  0  0
 13 12  2  0  0  0  0
 14  8  1  0  0  0  0
 14 15  2  0  0  0  0
 15 16  1  0  0  0  0
 17 18  1  0  0  0  0
 17 15  1  0  0  0  0
 18 37  1  0  0  0  0
 19 38  1  0  0  0  0
 19 18  2  0  0  0  0
 20 19  1  0  0  0  0
 21 22  1  0  0  0  0
 21 20  2  0  0  0  0
 22 17  2  0  0  0  0
 23 20  1  0  0  0  0
 24 42  1  0  0  0  0
 25 43  1  0  0  0  0
 25 24  1  0  0  0  0
 25 44  1  0  0  0  0
 26 25  1  0  0  0  0
 27 26  1  0  0  0  0
 27 47  1  0  0  0  0
 27 46  1  0  0  0  0
 28 27  1  0  0  0  0
 29 30  1  0  0  0  0
 29 28  1  0  0  0  0
 30 31  1  0  0  0  0
 31 53  1  0  0  0  0
 31 26  1  0  0  0  0
 31 52  1  0  0  0  0
 32  4  1  0  0  0  0
 33  5  1  0  0  0  0
 34  6  1  0  0  0  0
 39 21  1  0  0  0  0
 40 22  1  0  0  0  0
 41 24  1  0  0  0  0
 45 26  1  0  0  0  0
 48 28  1  0  0  0  0
 49 28  1  0  0  0  0
 50 30  1  0  0  0  0
 51 30  1  0  0  0  0
M  END
>  <Pose>
1

>  <Score>
-6.82

$$$$
