
 OpenBabel03172210413D

 41 44  0  0  0  0  0  0  0  0999 V2000
   12.7600   -1.5390    6.9430 F   0  0  0  0  0  0  0  0  0  0  0  0
   12.6120   -0.4520    7.7590 C   0  0  0  0  0  0  0  0  0  0  0  0
   13.6580    0.4080    7.9410 C   0  0  0  0  0  0  0  0  0  0  0  0
   13.5170    1.5220    8.7720 C   0  0  0  0  0  0  0  0  0  0  0  0
   12.3370    1.7920    9.4280 C   0  0  0  0  0  0  0  0  0  0  0  0
   11.2960    0.9000    9.2220 C   0  0  0  0  0  0  0  0  0  0  0  0
   11.4240   -0.2010    8.4060 C   0  0  0  0  0  0  0  0  0  0  0  0
   12.1340    2.9170   10.2810 N   0  0  0  0  0  0  0  0  0  0  0  0
   11.2220    3.8980   10.1730 C   0  0  0  0  0  0  0  0  0  0  0  0
   10.3840    3.9170    9.2300 O   0  0  0  0  0  0  0  0  0  0  0  0
   11.3330    4.8290   11.1880 C   0  0  0  0  0  0  0  0  0  0  0  0
   12.3450    4.3980   11.9360 C   0  0  0  0  0  0  0  0  0  0  0  0
   12.4910    5.2750   12.9330 N   0  0  0  0  0  0  0  0  0  0  0  0
   11.5830    6.2230   12.7920 N   0  0  0  0  0  0  0  0  0  0  0  0
   10.8430    5.9780   11.7150 N   0  0  0  0  0  0  0  0  0  0  0  0
    9.7450    6.7290   11.1790 C   0  0  0  0  0  0  0  0  0  0  0  0
    8.4090    6.2290   11.5180 C   0  0  0  0  0  0  0  0  0  0  0  0
    7.7750    5.6420   10.6270 O   0  0  0  0  0  0  0  0  0  0  0  0
    7.8830    6.4110   12.8000 N   0  0  0  0  0  0  0  0  0  0  0  0
    6.6970    7.0750   13.1930 C   0  0  0  0  0  0  0  0  0  0  0  0
    6.0610    7.9780   12.3760 C   0  0  0  0  0  0  0  0  0  0  0  0
    4.8890    8.6540   12.7310 C   0  0  0  0  0  0  0  0  0  0  0  0
    4.3740    8.3750   13.9710 C   0  0  0  0  0  0  0  0  0  0  0  0
    4.9900    7.4770   14.8070 C   0  0  0  0  0  0  0  0  0  0  0  0
    6.1380    6.8280   14.4350 C   0  0  0  0  0  0  0  0  0  0  0  0
    2.7590    9.2700   14.5260 B   0  0  0  0  0  0  0  0  0  0  0  0
   12.8440    3.2320   11.3950 C   0  0  0  0  0  0  0  0  0  0  0  0
   13.7990    2.5110   11.8020 O   0  0  0  0  0  0  0  0  0  0  0  0
   14.5840    0.2000    7.4270 H   0  0  0  0  0  0  0  0  0  0  0  0
   14.3440    2.1840    8.9030 H   0  0  0  0  0  0  0  0  0  0  0  0
   10.3570    1.1180    9.7480 H   0  0  0  0  0  0  0  0  0  0  0  0
   10.6030   -0.8850    8.2560 H   0  0  0  0  0  0  0  0  0  0  0  0
   13.2250    5.1870   13.6890 H   0  0  0  0  0  0  0  0  0  0  0  0
   11.4500    7.0350   13.4110 H   0  0  0  0  0  0  0  0  0  0  0  0
    9.8340    6.6920   10.0520 H   0  0  0  0  0  0  0  0  0  0  0  0
    9.8470    7.8300   11.4060 H   0  0  0  0  0  0  0  0  0  0  0  0
    8.4350    5.9980   13.6360 H   0  0  0  0  0  0  0  0  0  0  0  0
    6.4140    8.2430   11.3830 H   0  0  0  0  0  0  0  0  0  0  0  0
    4.4080    9.3610   12.0670 H   0  0  0  0  0  0  0  0  0  0  0  0
    4.5690    7.2650   15.7900 H   0  0  0  0  0  0  0  0  0  0  0  0
    6.6170    6.1060   15.1290 H   0  0  0  0  0  0  0  0  0  0  0  0
  1  2  1  0  0  0  0
  2  3  2  0  0  0  0
  2  7  1  0  0  0  0
  3  4  1  0  0  0  0
  4 30  1  0  0  0  0
  4  5  2  0  0  0  0
  5  8  1  0  0  0  0
  6  5  1  0  0  0  0
  6 31  1  0  0  0  0
  7  6  2  0  0  0  0
  8 27  1  0  0  0  0
  9  8  1  0  0  0  0
  9 11  1  0  0  0  0
 10  9  2  0  0  0  0
 11 15  1  0  0  0  0
 11 12  2  0  0  0  0
 12 13  1  0  0  0  0
 13 33  1  0  0  0  0
 14 13  1  0  0  0  0
 14 34  1  0  0  0  0
 15 14  1  0  0  0  0
 16 36  1  0  0  0  0
 16 17  1  0  0  0  0
 16 15  1  0  0  0  0
 17 19  1  0  0  0  0
 18 17  2  0  0  0  0
 19 20  1  0  0  0  0
 19 37  1  0  0  0  0
 20 25  1  0  0  0  0
 21 22  1  0  0  0  0
 21 20  2  0  0  0  0
 22 23  2  0  0  0  0
 23 26  1  0  0  0  0
 23 24  1  0  0  0  0
 24 40  1  0  0  0  0
 25 24  2  0  0  0  0
 25 41  1  0  0  0  0
 27 28  2  0  0  0  0
 27 12  1  0  0  0  0
 29  3  1  0  0  0  0
 32  7  1  0  0  0  0
 35 16  1  0  0  0  0
 38 21  1  0  0  0  0
 39 22  1  0  0  0  0
M  END
>  <Pose>
1

>  <Score>
-7.23

$$$$
