
 OpenBabel03172210413D

 40 43  0  0  0  0  0  0  0  0999 V2000
   12.8200    8.0220   12.0150 I   0  0  0  0  0  0  0  0  0  0  0  0
   14.8980    7.5680   12.0760 C   0  0  0  0  0  0  0  0  0  0  0  0
   15.4640    6.3680   12.4510 C   0  0  0  0  0  0  0  0  0  0  0  0
   16.7890    6.5060   12.3540 N   0  0  0  0  0  0  0  0  0  0  0  0
   17.0490    7.7390   11.9350 N   0  0  0  0  0  0  0  0  0  0  0  0
   15.9220    8.4230   11.7530 C   0  0  0  0  0  0  0  0  0  0  0  0
   17.8420    5.5300   12.6880 C   0  0  0  0  0  0  0  0  0  0  0  0
   14.7060    5.1790   12.9280 C   0  0  0  0  0  0  0  0  0  0  0  0
   14.8500    5.0490   14.2120 O   0  0  0  0  0  0  0  0  0  0  0  0
   13.9800    4.3570   12.1720 N   0  0  0  0  0  0  0  0  0  0  0  0
   13.2270    3.5060   11.3890 C   0  0  0  0  0  0  0  0  0  0  0  0
   13.9510    2.8240   10.3840 C   0  0  0  0  0  0  0  0  0  0  0  0
   15.2220    2.9090   10.0070 N   0  0  0  0  0  0  0  0  0  0  0  0
   15.4130    2.0770    9.0280 O   0  0  0  0  0  0  0  0  0  0  0  0
   14.3250    1.4550    8.7490 N   0  0  0  0  0  0  0  0  0  0  0  0
   13.3730    1.8960    9.5810 C   0  0  0  0  0  0  0  0  0  0  0  0
   12.0380    1.5940    9.7360 C   0  0  0  0  0  0  0  0  0  0  0  0
   11.3070    2.2380   10.7010 C   0  0  0  0  0  0  0  0  0  0  0  0
   11.8840    3.1850   11.5250 C   0  0  0  0  0  0  0  0  0  0  0  0
   11.4760    0.6330    8.8820 N   0  0  0  0  0  0  0  0  0  0  0  0
   10.2020   -0.0300    9.1660 C   0  0  0  0  0  0  0  0  0  0  0  0
   10.5600   -1.4950    9.3110 C   0  0  0  0  0  0  0  0  0  0  0  0
   11.9030   -1.7640    9.1030 O   0  0  0  0  0  0  0  0  0  0  0  0
   12.4210   -1.2940    7.9140 C   0  0  0  0  0  0  0  0  0  0  0  0
   12.0240    0.1450    7.6370 C   0  0  0  0  0  0  0  0  0  0  0  0
   15.8030    9.4530   11.4140 H   0  0  0  0  0  0  0  0  0  0  0  0
   18.4540    5.3210   11.8010 H   0  0  0  0  0  0  0  0  0  0  0  0
   17.4250    4.6070   13.1020 H   0  0  0  0  0  0  0  0  0  0  0  0
   18.5000    6.0120   13.4720 H   0  0  0  0  0  0  0  0  0  0  0  0
   13.1550    4.0930   13.2230 H   0  0  0  0  0  0  0  0  0  0  0  0
   10.2690    2.0190   10.8260 H   0  0  0  0  0  0  0  0  0  0  0  0
   11.2480    3.6390   12.2660 H   0  0  0  0  0  0  0  0  0  0  0  0
    9.6240    0.3670    9.9690 H   0  0  0  0  0  0  0  0  0  0  0  0
    9.5560    0.0440    8.2400 H   0  0  0  0  0  0  0  0  0  0  0  0
    9.8720   -2.1420    8.7300 H   0  0  0  0  0  0  0  0  0  0  0  0
   10.3740   -1.7580   10.3940 H   0  0  0  0  0  0  0  0  0  0  0  0
   13.5350   -1.2860    8.0460 H   0  0  0  0  0  0  0  0  0  0  0  0
   12.2010   -1.9390    7.0500 H   0  0  0  0  0  0  0  0  0  0  0  0
   11.1680    0.1030    6.8840 H   0  0  0  0  0  0  0  0  0  0  0  0
   12.7750    0.7460    7.1550 H   0  0  0  0  0  0  0  0  0  0  0  0
  1  2  1  0  0  0  0
  2  3  2  0  0  0  0
  3  8  1  0  0  0  0
  4  3  1  0  0  0  0
  4  7  1  0  0  0  0
  5  4  1  0  0  0  0
  6  5  2  0  0  0  0
  6  2  1  0  0  0  0
  7 28  1  0  0  0  0
  7 29  1  0  0  0  0
  8  9  2  0  0  0  0
 10  8  1  0  0  0  0
 10 30  1  0  0  0  0
 11 19  2  0  0  0  0
 11 10  1  0  0  0  0
 12 11  1  0  0  0  0
 13 12  2  0  0  0  0
 14 13  1  0  0  0  0
 15 14  1  0  0  0  0
 15 16  2  0  0  0  0
 16 17  1  0  0  0  0
 16 12  1  0  0  0  0
 17 18  2  0  0  0  0
 18 31  1  0  0  0  0
 18 19  1  0  0  0  0
 19 32  1  0  0  0  0
 20 21  1  0  0  0  0
 20 17  1  0  0  0  0
 21 22  1  0  0  0  0
 21 33  1  0  0  0  0
 22 36  1  0  0  0  0
 23 22  1  0  0  0  0
 24 37  1  0  0  0  0
 24 23  1  0  0  0  0
 25 24  1  0  0  0  0
 25 20  1  0  0  0  0
 26  6  1  0  0  0  0
 27  7  1  0  0  0  0
 34 21  1  0  0  0  0
 35 22  1  0  0  0  0
 38 24  1  0  0  0  0
 39 25  1  0  0  0  0
 40 25  1  0  0  0  0
M  END
>  <Pose>
1

>  <Score>
-6.11

$$$$
