
 OpenBabel03172210413D

 52 55  0  0  1  0  0  0  0  0999 V2000
   14.3300    5.5780   13.2090 S   0  0  0  0  0  0  0  0  0  0  0  0
   13.1770    6.6980   12.4180 C   0  0  1  0  0  0  0  0  0  0  0  0
   12.3670    5.9440   11.5150 N   0  0  0  0  0  0  0  0  0  0  0  0
   12.5990    4.6510   10.9500 C   0  0  0  0  0  0  0  0  0  0  0  0
   13.7790    4.1200   11.0210 C   0  0  0  0  0  0  0  0  0  0  0  0
   14.9840    4.7970   11.6890 C   0  0  0  0  0  0  0  0  0  0  0  0
   14.1600    2.8300   10.5060 C   0  0  0  0  0  0  0  0  0  0  0  0
   13.6600    2.3040    9.3630 O   0  0  0  0  0  0  0  0  0  0  0  0
   13.8170    0.9620    8.9980 C   0  0  0  0  0  0  0  0  0  0  0  0
   13.2140    0.1140    9.6830 O   0  0  0  0  0  0  0  0  0  0  0  0
   14.6820    0.6560    7.8340 C   0  0  0  0  0  0  0  0  0  0  0  0
   11.4210    4.0070   10.2990 C   0  0  0  0  0  0  0  0  0  0  0  0
   11.1100    4.0790    9.1290 O   0  0  0  0  0  0  0  0  0  0  0  0
   10.5580    3.2280   11.0920 O   0  0  0  0  0  0  0  0  0  0  0  0
   11.4800    7.0460   11.6120 C   0  0  0  0  0  0  0  0  0  0  0  0
   10.6860    7.7560   10.9860 O   0  0  0  0  0  0  0  0  0  0  0  0
   11.9160    7.0870   13.0680 C   0  0  1  0  0  0  0  0  0  0  0  0
   11.1710    6.0910   13.7670 N   0  0  0  0  0  0  0  0  0  0  0  0
    9.8270    6.3550   14.1300 C   0  0  0  0  0  0  0  0  0  0  0  0
    8.9350    6.2220   13.2500 O   0  0  0  0  0  0  0  0  0  0  0  0
    9.4540    6.7750   15.4840 C   0  0  0  0  0  0  0  0  0  0  0  0
    8.5550    6.2860   16.2800 O   0  0  0  0  0  0  0  0  0  0  0  0
    8.5000    6.9140   17.4090 C   0  0  0  0  0  0  0  0  0  0  0  0
    9.4610    7.9310   17.3660 C   0  0  0  0  0  0  0  0  0  0  0  0
   10.0550    7.8270   16.1370 C   0  0  0  0  0  0  0  0  0  0  0  0
    7.5940    6.6460   18.5850 C   0  0  0  0  0  0  0  0  0  0  0  0
    6.4010    7.3780   18.4730 O   0  0  0  0  0  0  0  0  0  0  0  0
    5.8000    7.7640   17.3100 C   0  0  0  0  0  0  0  0  0  0  0  0
    6.2370    8.8120   16.5040 C   0  0  0  0  0  0  0  0  0  0  0  0
    5.5550    9.1150   15.3480 C   0  0  0  0  0  0  0  0  0  0  0  0
    4.4380    8.4310   14.9260 C   0  0  0  0  0  0  0  0  0  0  0  0
    3.9960    7.3870   15.7210 C   0  0  0  0  0  0  0  0  0  0  0  0
    4.6800    7.0760   16.8890 C   0  0  0  0  0  0  0  0  0  0  0  0
    3.5330    8.8960   13.3130 B   0  0  0  0  0  0  0  0  0  0  0  0
   13.6450    7.5750   11.9190 H   0  0  0  0  0  0  0  0  0  0  0  0
   15.7740    4.0940   11.9260 H   0  0  0  0  0  0  0  0  0  0  0  0
   15.3140    5.5700   10.9740 H   0  0  0  0  0  0  0  0  0  0  0  0
   15.3240    2.8140   10.3840 H   0  0  0  0  0  0  0  0  0  0  0  0
   14.0260    2.0410   11.3540 H   0  0  0  0  0  0  0  0  0  0  0  0
   15.4030    1.4830    7.6690 H   0  0  0  0  0  0  0  0  0  0  0  0
   14.0590    0.5660    6.8950 H   0  0  0  0  0  0  0  0  0  0  0  0
   15.2330   -0.2900    7.9470 H   0  0  0  0  0  0  0  0  0  0  0  0
   11.8480    8.0940   13.5120 H   0  0  0  0  0  0  0  0  0  0  0  0
   11.5600    5.1520   14.0370 H   0  0  0  0  0  0  0  0  0  0  0  0
    9.6440    8.6250   18.1810 H   0  0  0  0  0  0  0  0  0  0  0  0
   10.8480    8.4700   15.7790 H   0  0  0  0  0  0  0  0  0  0  0  0
    8.1310    6.8470   19.5370 H   0  0  0  0  0  0  0  0  0  0  0  0
    7.3260    5.5690   18.5990 H   0  0  0  0  0  0  0  0  0  0  0  0
    7.1010    9.3660   16.8060 H   0  0  0  0  0  0  0  0  0  0  0  0
    5.9150    9.9290   14.7450 H   0  0  0  0  0  0  0  0  0  0  0  0
    3.1200    6.8450   15.3960 H   0  0  0  0  0  0  0  0  0  0  0  0
    4.2620    6.2380   17.4550 H   0  0  0  0  0  0  0  0  0  0  0  0
  2 35  1  6  0  0  0
  2 17  1  0  0  0  0
  2  1  1  0  0  0  0
  3 15  1  0  0  0  0
  3  2  1  0  0  0  0
  4  5  2  0  0  0  0
  4  3  1  0  0  0  0
  5  6  1  0  0  0  0
  6 36  1  0  0  0  0
  6  1  1  0  0  0  0
  7  5  1  0  0  0  0
  7 39  1  0  0  0  0
  8  7  1  0  0  0  0
  9  8  1  0  0  0  0
  9 10  2  0  0  0  0
 11 42  1  0  0  0  0
 11  9  1  0  0  0  0
 12  4  1  0  0  0  0
 12 14  1  0  0  0  0
 13 12  2  0  0  0  0
 15 17  1  0  0  0  0
 16 15  2  0  0  0  0
 17 43  1  1  0  0  0
 17 18  1  0  0  0  0
 18 44  1  0  0  0  0
 18 19  1  0  0  0  0
 19 21  1  0  0  0  0
 20 19  2  0  0  0  0
 21 25  2  0  0  0  0
 21 22  1  0  0  0  0
 22 23  1  0  0  0  0
 23 26  1  0  0  0  0
 24 23  2  0  0  0  0
 24 45  1  0  0  0  0
 25 24  1  0  0  0  0
 26 48  1  0  0  0  0
 26 47  1  0  0  0  0
 27 26  1  0  0  0  0
 28 27  1  0  0  0  0
 29 49  1  0  0  0  0
 29 28  2  0  0  0  0
 30 29  1  0  0  0  0
 31 30  2  0  0  0  0
 31 32  1  0  0  0  0
 32 33  2  0  0  0  0
 33 28  1  0  0  0  0
 33 52  1  0  0  0  0
 34 31  1  0  0  0  0
 37  6  1  0  0  0  0
 38  7  1  0  0  0  0
 40 11  1  0  0  0  0
 41 11  1  0  0  0  0
 46 25  1  0  0  0  0
 50 30  1  0  0  0  0
 51 32  1  0  0  0  0
M  END
>  <Pose>
1

>  <Score>
-6.26

$$$$
