
 OpenBabel03172210413D

 50 53  0  0  0  0  0  0  0  0999 V2000
    7.6890    7.8940   11.9960 S   0  0  0  0  0  0  0  0  0  0  0  0
    6.9420    6.7240   11.4160 O   0  0  0  0  0  0  0  0  0  0  0  0
    7.7020    8.9630   10.9170 O   0  0  0  0  0  0  0  0  0  0  0  0
    9.2700    7.4160   12.3730 N   0  0  0  0  0  0  0  0  0  0  0  0
    9.4040    6.4320   13.3930 C   0  0  0  0  0  0  0  0  0  0  0  0
    9.7460    5.0680   13.0100 C   0  0  0  0  0  0  0  0  0  0  0  0
   10.2440    4.8330   11.6680 N   0  0  0  0  0  0  0  0  0  0  0  0
   10.1430    5.8470   10.6640 C   0  0  0  0  0  0  0  0  0  0  0  0
   10.1380    7.2470   11.2640 C   0  0  0  0  0  0  0  0  0  0  0  0
   10.8430    3.6020   11.4000 C   0  0  0  0  0  0  0  0  0  0  0  0
   11.8880    3.3930   12.2290 O   0  0  0  0  0  0  0  0  0  0  0  0
   10.5890    2.5480   10.4610 C   0  0  0  0  0  0  0  0  0  0  0  0
   11.6770    1.8750    9.7550 C   0  0  0  0  0  0  0  0  0  0  0  0
   11.4610    0.7250    9.0370 C   0  0  0  0  0  0  0  0  0  0  0  0
   12.5060    0.0960    8.3620 C   0  0  0  0  0  0  0  0  0  0  0  0
   13.7590    0.6330    8.4140 C   0  0  0  0  0  0  0  0  0  0  0  0
   13.9840    1.8040    9.1400 C   0  0  0  0  0  0  0  0  0  0  0  0
   12.9640    2.4140    9.7980 C   0  0  0  0  0  0  0  0  0  0  0  0
    9.7100   -0.0530    8.9540 B   0  0  0  0  0  0  0  0  0  0  0  0
    6.7510    8.4370   13.3710 C   0  0  0  0  0  0  0  0  0  0  0  0
    6.3740    7.5290   14.3600 C   0  0  0  0  0  0  0  0  0  0  0  0
    5.6250    7.8910   15.4580 C   0  0  0  0  0  0  0  0  0  0  0  0
    5.2100    9.1930   15.6290 C   0  0  0  0  0  0  0  0  0  0  0  0
    5.5780   10.0960   14.6560 C   0  0  0  0  0  0  0  0  0  0  0  0
    6.3330    9.7370   13.5450 C   0  0  0  0  0  0  0  0  0  0  0  0
    4.4410    9.5730   16.7480 O   0  0  0  0  0  0  0  0  0  0  0  0
    4.5340    8.8070   17.9620 C   0  0  0  0  0  0  0  0  0  0  0  0
    4.4530    7.3820   17.5510 C   0  0  0  0  0  0  0  0  0  0  0  0
    3.7130    6.5560   18.1330 O   0  0  0  0  0  0  0  0  0  0  0  0
    5.2370    6.9350   16.4590 N   0  0  0  0  0  0  0  0  0  0  0  0
    8.4170    6.4070   13.9440 H   0  0  0  0  0  0  0  0  0  0  0  0
   10.1240    6.8550   14.1560 H   0  0  0  0  0  0  0  0  0  0  0  0
   10.5260    4.6540   13.7160 H   0  0  0  0  0  0  0  0  0  0  0  0
    8.8730    4.3500   13.1360 H   0  0  0  0  0  0  0  0  0  0  0  0
    9.2310    5.6650   10.0780 H   0  0  0  0  0  0  0  0  0  0  0  0
   10.9750    5.8630    9.9330 H   0  0  0  0  0  0  0  0  0  0  0  0
    9.8760    7.9450   10.4610 H   0  0  0  0  0  0  0  0  0  0  0  0
   11.1840    7.4130   11.6420 H   0  0  0  0  0  0  0  0  0  0  0  0
    9.9610    1.7320   10.9880 H   0  0  0  0  0  0  0  0  0  0  0  0
    9.8620    2.9340    9.6810 H   0  0  0  0  0  0  0  0  0  0  0  0
   12.2690   -0.8070    7.8190 H   0  0  0  0  0  0  0  0  0  0  0  0
   14.5560    0.1470    7.8930 H   0  0  0  0  0  0  0  0  0  0  0  0
   15.0110    2.1970    9.1500 H   0  0  0  0  0  0  0  0  0  0  0  0
   13.1010    3.3260   10.3740 H   0  0  0  0  0  0  0  0  0  0  0  0
    6.6950    6.4990   14.2360 H   0  0  0  0  0  0  0  0  0  0  0  0
    5.2500   11.1370   14.7880 H   0  0  0  0  0  0  0  0  0  0  0  0
    6.6090   10.4780   12.7950 H   0  0  0  0  0  0  0  0  0  0  0  0
    5.5730    8.9280   18.3980 H   0  0  0  0  0  0  0  0  0  0  0  0
    3.7400    9.1510   18.6080 H   0  0  0  0  0  0  0  0  0  0  0  0
    5.5540    5.9640   16.3240 H   0  0  0  0  0  0  0  0  0  0  0  0
  1  4  1  0  0  0  0
  1 20  1  0  0  0  0
  2  1  2  0  0  0  0
  3  1  2  0  0  0  0
  4  5  1  0  0  0  0
  5 31  1  0  0  0  0
  5 32  1  0  0  0  0
  6 34  1  0  0  0  0
  6  5  1  0  0  0  0
  6 33  1  0  0  0  0
  7  6  1  0  0  0  0
  8  9  1  0  0  0  0
  8  7  1  0  0  0  0
  9 38  1  0  0  0  0
  9  4  1  0  0  0  0
 10  7  1  0  0  0  0
 10 11  2  0  0  0  0
 12 39  1  0  0  0  0
 12 10  1  0  0  0  0
 13 18  1  0  0  0  0
 13 12  1  0  0  0  0
 14 13  2  0  0  0  0
 15 16  2  0  0  0  0
 15 14  1  0  0  0  0
 16 17  1  0  0  0  0
 17 43  1  0  0  0  0
 17 18  2  0  0  0  0
 18 44  1  0  0  0  0
 19 14  1  0  0  0  0
 20 25  2  0  0  0  0
 20 21  1  0  0  0  0
 21 22  2  0  0  0  0
 22 23  1  0  0  0  0
 22 30  1  0  0  0  0
 23 26  1  0  0  0  0
 24 46  1  0  0  0  0
 24 23  2  0  0  0  0
 25 24  1  0  0  0  0
 26 27  1  0  0  0  0
 27 48  1  0  0  0  0
 27 49  1  0  0  0  0
 28 27  1  0  0  0  0
 28 29  2  0  0  0  0
 30 28  1  0  0  0  0
 35  8  1  0  0  0  0
 36  8  1  0  0  0  0
 37  9  1  0  0  0  0
 40 12  1  0  0  0  0
 41 15  1  0  0  0  0
 42 16  1  0  0  0  0
 45 21  1  0  0  0  0
 47 25  1  0  0  0  0
 50 30  1  0  0  0  0
M  END
>  <Pose>
1

>  <Score>
-6.68

$$$$
