
 OpenBabel03172210413D

 53 56  0  0  0  0  0  0  0  0999 V2000
   12.7550    2.5440   10.3750 S   0  0  0  0  0  0  0  0  0  0  0  0
   13.8730    3.2130    9.5640 O   0  0  0  0  0  0  0  0  0  0  0  0
   13.4930    2.0320   11.6160 O   0  0  0  0  0  0  0  0  0  0  0  0
   11.6280    3.6970   10.7540 N   0  0  0  0  0  0  0  0  0  0  0  0
   10.3070    3.6540   10.3410 C   0  0  0  0  0  0  0  0  0  0  0  0
    9.6670    5.0400   10.6290 C   0  0  0  0  0  0  0  0  0  0  0  0
    9.9050    5.4070   11.9970 N   0  0  0  0  0  0  0  0  0  0  0  0
   11.2840    5.4950   12.4170 C   0  0  0  0  0  0  0  0  0  0  0  0
   12.1240    4.9350   11.2890 C   0  0  0  0  0  0  0  0  0  0  0  0
    8.8800    5.6770   12.9230 C   0  0  0  0  0  0  0  0  0  0  0  0
    7.9800    4.8260   13.1040 O   0  0  0  0  0  0  0  0  0  0  0  0
    8.8520    6.9330   13.6750 C   0  0  0  0  0  0  0  0  0  0  0  0
    7.6370    7.0230   14.4810 N   0  0  0  0  0  0  0  0  0  0  0  0
    7.3950    6.5830   15.8020 C   0  0  0  0  0  0  0  0  0  0  0  0
    8.2500    6.0030   16.5480 O   0  0  0  0  0  0  0  0  0  0  0  0
    6.0480    6.9090   16.1210 N   0  0  0  0  0  0  0  0  0  0  0  0
    5.6370    7.9430   15.2070 C   0  0  0  0  0  0  0  0  0  0  0  0
    5.8840    9.3270   15.7130 C   0  0  0  0  0  0  0  0  0  0  0  0
    5.0150   10.1620   14.7640 C   0  0  0  0  0  0  0  0  0  0  0  0
    3.7980    9.3060   14.5420 C   0  0  0  0  0  0  0  0  0  0  0  0
    4.1500    7.9110   14.9410 C   0  0  0  0  0  0  0  0  0  0  0  0
    6.4210    7.6220   13.9910 C   0  0  0  0  0  0  0  0  0  0  0  0
    6.0880    7.8320   12.8020 O   0  0  0  0  0  0  0  0  0  0  0  0
   12.2500    1.1820    9.4230 C   0  0  0  0  0  0  0  0  0  0  0  0
   13.0170    0.4880    8.5260 C   0  0  0  0  0  0  0  0  0  0  0  0
   12.4970   -0.5670    7.7690 C   0  0  0  0  0  0  0  0  0  0  0  0
   11.2000   -0.9590    7.8850 C   0  0  0  0  0  0  0  0  0  0  0  0
   10.4070   -0.2870    8.7750 C   0  0  0  0  0  0  0  0  0  0  0  0
   10.9140    0.7510    9.5210 C   0  0  0  0  0  0  0  0  0  0  0  0
   14.8560    0.9210    8.3510 B   0  0  0  0  0  0  0  0  0  0  0  0
    9.6630    2.8700   10.7880 H   0  0  0  0  0  0  0  0  0  0  0  0
   10.2250    3.5740    9.2400 H   0  0  0  0  0  0  0  0  0  0  0  0
   10.1350    5.7480    9.9360 H   0  0  0  0  0  0  0  0  0  0  0  0
    8.6140    4.9300   10.3590 H   0  0  0  0  0  0  0  0  0  0  0  0
   11.5630    6.5820   12.4870 H   0  0  0  0  0  0  0  0  0  0  0  0
   11.5020    5.0280   13.3750 H   0  0  0  0  0  0  0  0  0  0  0  0
   13.1830    4.8070   11.5740 H   0  0  0  0  0  0  0  0  0  0  0  0
   12.1030    5.6860   10.4710 H   0  0  0  0  0  0  0  0  0  0  0  0
    8.9810    7.8270   13.0170 H   0  0  0  0  0  0  0  0  0  0  0  0
    9.7010    7.0120   14.4140 H   0  0  0  0  0  0  0  0  0  0  0  0
    5.5240    6.4320   16.8960 H   0  0  0  0  0  0  0  0  0  0  0  0
    5.4500    9.4160   16.7210 H   0  0  0  0  0  0  0  0  0  0  0  0
    6.9440    9.6400   15.6460 H   0  0  0  0  0  0  0  0  0  0  0  0
    5.5490   10.2740   13.7950 H   0  0  0  0  0  0  0  0  0  0  0  0
    4.7820   11.1380   15.2140 H   0  0  0  0  0  0  0  0  0  0  0  0
    3.4850    9.3010   13.4850 H   0  0  0  0  0  0  0  0  0  0  0  0
    3.0080    9.6660   15.2260 H   0  0  0  0  0  0  0  0  0  0  0  0
    3.6250    7.5570   15.8390 H   0  0  0  0  0  0  0  0  0  0  0  0
    3.9310    7.1720   14.1220 H   0  0  0  0  0  0  0  0  0  0  0  0
   13.1620   -1.0550    7.0900 H   0  0  0  0  0  0  0  0  0  0  0  0
   10.8630   -1.7770    7.2740 H   0  0  0  0  0  0  0  0  0  0  0  0
    9.3760   -0.6010    8.8670 H   0  0  0  0  0  0  0  0  0  0  0  0
   10.2840    1.2790   10.2230 H   0  0  0  0  0  0  0  0  0  0  0  0
  1  4  1  0  0  0  0
  1  3  2  0  0  0  0
  2  1  2  0  0  0  0
  4  9  1  0  0  0  0
  5  6  1  0  0  0  0
  5  4  1  0  0  0  0
  5 31  1  0  0  0  0
  6  7  1  0  0  0  0
  7  8  1  0  0  0  0
  7 10  1  0  0  0  0
  8 35  1  0  0  0  0
  8 36  1  0  0  0  0
  9 37  1  0  0  0  0
  9  8  1  0  0  0  0
 10 11  2  0  0  0  0
 10 12  1  0  0  0  0
 12 40  1  0  0  0  0
 12 13  1  0  0  0  0
 13 14  1  0  0  0  0
 14 16  1  0  0  0  0
 14 15  2  0  0  0  0
 16 41  1  0  0  0  0
 17 18  1  0  0  0  0
 17 16  1  0  0  0  0
 18 42  1  0  0  0  0
 19 45  1  0  0  0  0
 19 18  1  0  0  0  0
 20 19  1  0  0  0  0
 20 21  1  0  0  0  0
 20 47  1  0  0  0  0
 21 17  1  0  0  0  0
 21 48  1  0  0  0  0
 22 13  1  0  0  0  0
 22 17  1  0  0  0  0
 23 22  2  0  0  0  0
 24 29  1  0  0  0  0
 24  1  1  0  0  0  0
 25 24  2  0  0  0  0
 26 27  2  0  0  0  0
 26 25  1  0  0  0  0
 27 28  1  0  0  0  0
 28 52  1  0  0  0  0
 28 29  2  0  0  0  0
 29 53  1  0  0  0  0
 30 25  1  0  0  0  0
 32  5  1  0  0  0  0
 33  6  1  0  0  0  0
 34  6  1  0  0  0  0
 38  9  1  0  0  0  0
 39 12  1  0  0  0  0
 43 18  1  0  0  0  0
 44 19  1  0  0  0  0
 46 20  1  0  0  0  0
 49 21  1  0  0  0  0
 50 26  1  0  0  0  0
 51 27  1  0  0  0  0
M  END
>  <Pose>
1

>  <Score>
-7.35

$$$$
