
 OpenBabel03172210413D

 43 46  0  0  0  0  0  0  0  0999 V2000
    4.3740    9.5980   13.7390 S   0  0  0  0  0  0  0  0  0  0  0  0
    3.0890    9.6030   12.9770 O   0  0  0  0  0  0  0  0  0  0  0  0
    4.7140   11.0350   14.1130 O   0  0  0  0  0  0  0  0  0  0  0  0
    5.6570    9.0390   12.7370 N   0  0  0  0  0  0  0  0  0  0  0  0
    5.5480    7.6770   12.3650 C   0  0  0  0  0  0  0  0  0  0  0  0
    6.5960    6.7550   12.8880 C   0  0  0  0  0  0  0  0  0  0  0  0
    7.8980    7.3550   13.0060 N   0  0  0  0  0  0  0  0  0  0  0  0
    8.0140    8.7340   12.5870 C   0  0  0  0  0  0  0  0  0  0  0  0
    6.8930    9.4530   13.3090 C   0  0  0  0  0  0  0  0  0  0  0  0
    9.0400    6.6910   13.4930 C   0  0  0  0  0  0  0  0  0  0  0  0
    9.3440    6.7810   14.7030 O   0  0  0  0  0  0  0  0  0  0  0  0
    9.8740    5.8970   12.5980 C   0  0  0  0  0  0  0  0  0  0  0  0
   10.6720    4.8970   12.9590 N   0  0  0  0  0  0  0  0  0  0  0  0
   11.2910    4.3870   11.8920 N   0  0  0  0  0  0  0  0  0  0  0  0
   10.9010    5.0580   10.7840 C   0  0  0  0  0  0  0  0  0  0  0  0
    9.9950    6.0240   11.2370 C   0  0  0  0  0  0  0  0  0  0  0  0
   11.3770    4.7480    9.5520 N   0  0  0  0  0  0  0  0  0  0  0  0
   12.2750    3.7300    9.4200 C   0  0  0  0  0  0  0  0  0  0  0  0
   12.6910    3.0260   10.5290 C   0  0  0  0  0  0  0  0  0  0  0  0
   12.1790    3.3800   11.7580 C   0  0  0  0  0  0  0  0  0  0  0  0
   13.9580    1.5910   10.3390 B   0  0  0  0  0  0  0  0  0  0  0  0
    4.1860    8.6150   15.1700 C   0  0  0  0  0  0  0  0  0  0  0  0
    4.2580    9.0260   16.4810 C   0  0  0  0  0  0  0  0  0  0  0  0
    4.0610    7.9840   17.2900 N   0  0  0  0  0  0  0  0  0  0  0  0
    3.8620    6.9110   16.5500 N   0  0  0  0  0  0  0  0  0  0  0  0
    3.9300    7.2460   15.2360 C   0  0  0  0  0  0  0  0  0  0  0  0
    4.0550    7.9860   18.7290 C   0  0  0  0  0  0  0  0  0  0  0  0
    4.5520    7.2930   12.6700 H   0  0  0  0  0  0  0  0  0  0  0  0
    5.5700    7.6200   11.2530 H   0  0  0  0  0  0  0  0  0  0  0  0
    6.3200    6.3410   13.9020 H   0  0  0  0  0  0  0  0  0  0  0  0
    6.7110    5.8620   12.2370 H   0  0  0  0  0  0  0  0  0  0  0  0
    8.9890    9.1810   12.8560 H   0  0  0  0  0  0  0  0  0  0  0  0
    7.8270    8.7490   11.4900 H   0  0  0  0  0  0  0  0  0  0  0  0
    7.0050   10.5460   13.1410 H   0  0  0  0  0  0  0  0  0  0  0  0
    6.9780    9.2500   14.3880 H   0  0  0  0  0  0  0  0  0  0  0  0
    9.4820    6.7390   10.6290 H   0  0  0  0  0  0  0  0  0  0  0  0
   12.6810    3.4470    8.4580 H   0  0  0  0  0  0  0  0  0  0  0  0
   12.4970    2.8370   12.6420 H   0  0  0  0  0  0  0  0  0  0  0  0
    4.4450   10.0350   16.8580 H   0  0  0  0  0  0  0  0  0  0  0  0
    3.8100    6.5870   14.3850 H   0  0  0  0  0  0  0  0  0  0  0  0
    4.9840    7.4900   19.0810 H   0  0  0  0  0  0  0  0  0  0  0  0
    3.2170    7.3670   19.1060 H   0  0  0  0  0  0  0  0  0  0  0  0
    4.0140    9.0150   19.1370 H   0  0  0  0  0  0  0  0  0  0  0  0
  1  3  2  0  0  0  0
  1 22  1  0  0  0  0
  2  1  2  0  0  0  0
  4  9  1  0  0  0  0
  4  1  1  0  0  0  0
  5 28  1  0  0  0  0
  5  4  1  0  0  0  0
  5  6  1  0  0  0  0
  6  7  1  0  0  0  0
  6 30  1  0  0  0  0
  7 10  1  0  0  0  0
  8 32  1  0  0  0  0
  8  7  1  0  0  0  0
  8  9  1  0  0  0  0
  9 35  1  0  0  0  0
 10 11  2  0  0  0  0
 12 13  2  0  0  0  0
 12 10  1  0  0  0  0
 14 13  1  0  0  0  0
 15 16  2  0  0  0  0
 15 14  1  0  0  0  0
 16 12  1  0  0  0  0
 17 15  1  0  0  0  0
 18 17  2  0  0  0  0
 18 19  1  0  0  0  0
 19 20  2  0  0  0  0
 20 14  1  0  0  0  0
 20 38  1  0  0  0  0
 21 19  1  0  0  0  0
 22 26  1  0  0  0  0
 22 23  2  0  0  0  0
 23 39  1  0  0  0  0
 23 24  1  0  0  0  0
 24 27  1  0  0  0  0
 25 24  1  0  0  0  0
 26 25  2  0  0  0  0
 27 41  1  0  0  0  0
 27 42  1  0  0  0  0
 27 43  1  0  0  0  0
 29  5  1  0  0  0  0
 31  6  1  0  0  0  0
 33  8  1  0  0  0  0
 34  9  1  0  0  0  0
 36 16  1  0  0  0  0
 37 18  1  0  0  0  0
 40 26  1  0  0  0  0
M  END
>  <Pose>
1

>  <Score>
-6.87

$$$$
