
 OpenBabel03172210413D

 49 52  0  0  1  0  0  0  0  0999 V2000
    7.5690    7.1790   11.8910 S   0  0  0  0  0  0  0  0  0  0  0  0
    6.8600    8.3670   11.3420 O   0  0  0  0  0  0  0  0  0  0  0  0
    7.0870    5.9520   11.1570 O   0  0  0  0  0  0  0  0  0  0  0  0
    9.2380    7.3230   11.6560 N   0  0  0  0  0  0  0  0  0  0  0  0
    9.7470    6.8330   10.4330 C   0  0  0  0  0  0  0  0  0  0  0  0
   10.4290    5.5280   10.4580 C   0  0  0  0  0  0  0  0  0  0  0  0
   11.2340    5.3620   11.6320 N   0  0  0  0  0  0  0  0  0  0  0  0
   11.3420    6.4440   12.5680 C   0  0  0  0  0  0  0  0  0  0  0  0
   10.0520    7.1630   12.8060 C   0  0  0  0  0  0  0  0  0  0  0  0
   11.9160    4.1530   11.8740 C   0  0  0  0  0  0  0  0  0  0  0  0
   12.5840    4.0340   12.9260 O   0  0  0  0  0  0  0  0  0  0  0  0
   11.8940    3.0150   10.9640 C   0  0  1  0  0  0  0  0  0  0  0  0
   10.7270    2.2930   10.7930 C   0  0  0  0  0  0  0  0  0  0  0  0
   10.7050    1.2450    9.9550 N   0  0  0  0  0  0  0  0  0  0  0  0
   11.7910    0.8550    9.2540 C   0  0  1  0  0  0  0  0  0  0  0  0
   12.9420    1.5350    9.3960 N   0  0  0  0  0  0  0  0  0  0  0  0
   14.0410    1.1450    8.6910 C   0  0  0  0  0  0  0  0  0  0  0  0
   14.0100    0.0660    7.8310 C   0  0  0  0  0  0  0  0  0  0  0  0
   12.8350   -0.6500    7.6690 C   0  0  0  0  0  0  0  0  0  0  0  0
   11.7400   -0.2350    8.3920 C   0  0  0  0  0  0  0  0  0  0  0  0
   15.1840   -0.3890    7.0470 C   0  0  0  0  0  0  0  0  0  0  0  0
   12.9930    2.6010   10.2390 C   0  0  0  0  0  0  0  0  0  0  0  0
   14.0550    3.2280   10.3690 O   0  0  0  0  0  0  0  0  0  0  0  0
    7.2180    6.9710   13.5860 C   0  0  0  0  0  0  0  0  0  0  0  0
    5.9130    6.9970   14.0330 C   0  0  0  0  0  0  0  0  0  0  0  0
    5.7050    6.8240   15.3970 C   0  0  0  0  0  0  0  0  0  0  0  0
    6.7390    6.6350   16.2760 C   0  0  0  0  0  0  0  0  0  0  0  0
    8.0480    6.6100   15.8160 C   0  0  0  0  0  0  0  0  0  0  0  0
    8.2790    6.7810   14.4470 C   0  0  0  0  0  0  0  0  0  0  0  0
    3.9290    6.8510   16.0750 B   0  0  0  0  0  0  0  0  0  0  0  0
    8.9040    6.7900    9.6950 H   0  0  0  0  0  0  0  0  0  0  0  0
   10.4550    7.5950   10.0160 H   0  0  0  0  0  0  0  0  0  0  0  0
    9.6290    4.7300   10.4150 H   0  0  0  0  0  0  0  0  0  0  0  0
   11.1120    5.3620    9.5800 H   0  0  0  0  0  0  0  0  0  0  0  0
   11.7740    6.0780   13.5220 H   0  0  0  0  0  0  0  0  0  0  0  0
   12.1250    7.1460   12.1530 H   0  0  0  0  0  0  0  0  0  0  0  0
   10.2790    8.1610   13.2340 H   0  0  0  0  0  0  0  0  0  0  0  0
    9.4800    6.6080   13.5770 H   0  0  0  0  0  0  0  0  0  0  0  0
    9.8370    2.5970   11.3550 H   0  0  0  0  0  0  0  0  0  0  0  0
   14.9620    1.6970    8.8110 H   0  0  0  0  0  0  0  0  0  0  0  0
   12.7490   -1.5020    7.0100 H   0  0  0  0  0  0  0  0  0  0  0  0
   10.8160   -0.7840    8.2770 H   0  0  0  0  0  0  0  0  0  0  0  0
   15.2290    0.1520    6.0640 H   0  0  0  0  0  0  0  0  0  0  0  0
   15.1270   -1.4860    6.8440 H   0  0  0  0  0  0  0  0  0  0  0  0
   16.1380   -0.1330    7.5590 H   0  0  0  0  0  0  0  0  0  0  0  0
    5.0980    7.1460   13.3450 H   0  0  0  0  0  0  0  0  0  0  0  0
    6.5280    6.5050   17.3290 H   0  0  0  0  0  0  0  0  0  0  0  0
    8.8520    6.4600   16.5180 H   0  0  0  0  0  0  0  0  0  0  0  0
    9.2870    6.7650   14.0730 H   0  0  0  0  0  0  0  0  0  0  0  0
  1 24  1  0  0  0  0
  2  1  2  0  0  0  0
  3  1  2  0  0  0  0
  4  1  1  0  0  0  0
  4  9  1  0  0  0  0
  5  6  1  0  0  0  0
  5  4  1  0  0  0  0
  6  7  1  0  0  0  0
  7 10  1  0  0  0  0
  7  8  1  0  0  0  0
  8  9  1  0  0  0  0
  8 35  1  0  0  0  0
  9 37  1  0  0  0  0
  9 38  1  0  0  0  0
 10 11  2  0  0  0  0
 12 10  1  6  0  0  0
 13 12  1  0  0  0  0
 13 39  1  0  0  0  0
 14 13  2  0  0  0  0
 15 20  1  1  0  0  0
 15 16  1  0  0  0  0
 15 14  1  0  0  0  0
 16 22  1  0  0  0  0
 17 40  1  0  0  0  0
 17 16  1  0  0  0  0
 18 17  2  0  0  0  0
 19 18  1  0  0  0  0
 19 20  2  0  0  0  0
 21 45  1  0  0  0  0
 21 18  1  0  0  0  0
 22 23  2  0  0  0  0
 22 12  1  0  0  0  0
 24 25  2  0  0  0  0
 24 29  1  0  0  0  0
 25 26  1  0  0  0  0
 26 30  1  0  0  0  0
 26 27  2  0  0  0  0
 27 47  1  0  0  0  0
 28 27  1  0  0  0  0
 28 48  1  0  0  0  0
 29 28  2  0  0  0  0
 31  5  1  0  0  0  0
 32  5  1  0  0  0  0
 33  6  1  0  0  0  0
 34  6  1  0  0  0  0
 36  8  1  0  0  0  0
 41 19  1  0  0  0  0
 42 20  1  0  0  0  0
 43 21  1  0  0  0  0
 44 21  1  0  0  0  0
 46 25  1  0  0  0  0
 49 29  1  0  0  0  0
M  END
>  <Pose>
1

>  <Score>
-5.44

$$$$
