
 OpenBabel03172210413D

 54 58  0  0  1  0  0  0  0  0999 V2000
   13.0700    2.6070   10.7980 S   0  0  0  0  0  0  0  0  0  0  0  0
   12.6320    2.1180   12.1730 O   0  0  0  0  0  0  0  0  0  0  0  0
   13.1020    1.3330    9.9520 O   0  0  0  0  0  0  0  0  0  0  0  0
   11.8520    3.5900   10.1880 N   0  0  0  0  0  0  0  0  0  0  0  0
   10.5080    3.2870   10.6020 C   0  0  0  0  0  0  0  0  0  0  0  0
    9.7580    4.5330   11.0160 C   0  0  0  0  0  0  0  0  0  0  0  0
   10.5210    5.2610   12.0610 N   0  0  0  0  0  0  0  0  0  0  0  0
   11.7680    5.7100   11.4570 C   0  0  0  0  0  0  0  0  0  0  0  0
   12.0880    5.0010   10.1530 C   0  0  0  0  0  0  0  0  0  0  0  0
    9.6880    6.4060   12.3580 C   0  0  0  0  0  0  0  0  0  0  0  0
    9.1540    6.5330   13.7210 C   0  0  0  0  0  0  0  0  0  0  0  0
    7.8320    7.0240   13.9210 N   0  0  0  0  0  0  0  0  0  0  0  0
    7.1560    8.1330   13.3410 C   0  0  0  0  0  0  0  0  0  0  0  0
    7.7030    9.1450   12.8780 O   0  0  0  0  0  0  0  0  0  0  0  0
    5.6960    7.8780   13.3830 C   0  0  1  0  0  0  0  0  0  0  0  0
    5.6050    6.9960   14.6500 C   0  0  2  0  0  0  0  0  0  0  0  0
    5.1910    7.9090   15.7420 C   0  0  1  0  0  0  0  0  0  0  0  0
    5.6570    9.2770   15.2150 C   0  0  0  0  0  0  0  0  0  0  0  0
    4.9740    9.0910   13.8490 C   0  0  2  0  0  0  0  0  0  0  0  0
    3.6240    8.6360   14.3220 C   0  0  0  0  0  0  0  0  0  0  0  0
    3.7060    8.1450   15.5590 C   0  0  0  0  0  0  0  0  0  0  0  0
    6.9020    6.3520   14.7990 C   0  0  0  0  0  0  0  0  0  0  0  0
    7.1360    5.3850   15.5660 O   0  0  0  0  0  0  0  0  0  0  0  0
   14.6640    3.2440   10.8220 C   0  0  0  0  0  0  0  0  0  0  0  0
   15.6930    2.5880   10.1900 C   0  0  0  0  0  0  0  0  0  0  0  0
   16.9630    3.1370   10.2220 C   0  0  0  0  0  0  0  0  0  0  0  0
   17.2430    4.3270   10.8690 C   0  0  0  0  0  0  0  0  0  0  0  0
   16.2060    4.9810   11.5010 C   0  0  0  0  0  0  0  0  0  0  0  0
   14.9300    4.4290   11.4680 C   0  0  0  0  0  0  0  0  0  0  0  0
   18.9920    5.0830   10.9150 B   0  0  0  0  0  0  0  0  0  0  0  0
    9.9700    2.8860    9.7110 H   0  0  0  0  0  0  0  0  0  0  0  0
   10.4940    2.5190   11.3740 H   0  0  0  0  0  0  0  0  0  0  0  0
    8.8070    4.2300   11.4900 H   0  0  0  0  0  0  0  0  0  0  0  0
    9.5290    5.2150   10.1780 H   0  0  0  0  0  0  0  0  0  0  0  0
   12.5960    5.4390   12.1320 H   0  0  0  0  0  0  0  0  0  0  0  0
   11.6970    6.8030   11.3180 H   0  0  0  0  0  0  0  0  0  0  0  0
   13.1030    5.2030    9.8130 H   0  0  0  0  0  0  0  0  0  0  0  0
   11.3980    5.4220    9.3870 H   0  0  0  0  0  0  0  0  0  0  0  0
    8.7870    6.3890   11.6650 H   0  0  0  0  0  0  0  0  0  0  0  0
   10.2230    7.3450   12.0040 H   0  0  0  0  0  0  0  0  0  0  0  0
    9.1870    5.4860   14.1710 H   0  0  0  0  0  0  0  0  0  0  0  0
    9.9100    7.1050   14.3290 H   0  0  0  0  0  0  0  0  0  0  0  0
    5.3040    7.3840   12.4990 H   0  0  0  0  0  0  0  0  0  0  0  0
    4.7730    6.2470   14.5090 H   0  0  0  0  0  0  0  0  0  0  0  0
    5.4990    7.6960   16.7370 H   0  0  0  0  0  0  0  0  0  0  0  0
    5.2120   10.1110   15.7680 H   0  0  0  0  0  0  0  0  0  0  0  0
    6.7310    9.3380   15.0640 H   0  0  0  0  0  0  0  0  0  0  0  0
    4.9700    9.9560   13.2300 H   0  0  0  0  0  0  0  0  0  0  0  0
    2.6860    8.6780   13.7780 H   0  0  0  0  0  0  0  0  0  0  0  0
    2.9110    7.9620   16.2560 H   0  0  0  0  0  0  0  0  0  0  0  0
   15.5310    1.6370    9.6580 H   0  0  0  0  0  0  0  0  0  0  0  0
   17.7780    2.6150    9.7210 H   0  0  0  0  0  0  0  0  0  0  0  0
   16.4380    5.9080   12.0020 H   0  0  0  0  0  0  0  0  0  0  0  0
   14.1790    5.0090   11.9860 H   0  0  0  0  0  0  0  0  0  0  0  0
  1 24  1  0  0  0  0
  1  2  2  0  0  0  0
  3  1  2  0  0  0  0
  4  5  1  0  0  0  0
  4  1  1  0  0  0  0
  5  6  1  0  0  0  0
  5 32  1  0  0  0  0
  6 33  1  0  0  0  0
  6  7  1  0  0  0  0
  7 10  1  0  0  0  0
  8  7  1  0  0  0  0
  8 35  1  0  0  0  0
  9  4  1  0  0  0  0
  9  8  1  0  0  0  0
 10 11  1  0  0  0  0
 11 12  1  0  0  0  0
 11 41  1  0  0  0  0
 11 42  1  0  0  0  0
 12 22  1  0  0  0  0
 13 15  1  0  0  0  0
 13 12  1  0  0  0  0
 14 13  2  0  0  0  0
 15 43  1  6  0  0  0
 15 19  1  0  0  0  0
 15 16  1  0  0  0  0
 16 44  1  6  0  0  0
 16 22  1  0  0  0  0
 16 17  1  0  0  0  0
 17 45  1  1  0  0  0
 18 17  1  0  0  0  0
 18 46  1  0  0  0  0
 19 48  1  6  0  0  0
 19 20  1  0  0  0  0
 19 18  1  0  0  0  0
 20 21  1  0  0  0  0
 21 17  1  0  0  0  0
 21 50  1  0  0  0  0
 22 23  2  0  0  0  0
 24 29  1  0  0  0  0
 25 26  1  0  0  0  0
 25 24  2  0  0  0  0
 26 27  2  0  0  0  0
 27 30  1  0  0  0  0
 27 28  1  0  0  0  0
 28 53  1  0  0  0  0
 29 28  2  0  0  0  0
 29 54  1  0  0  0  0
 31  5  1  0  0  0  0
 34  6  1  0  0  0  0
 36  8  1  0  0  0  0
 37  9  1  0  0  0  0
 38  9  1  0  0  0  0
 39 10  1  0  0  0  0
 40 10  1  0  0  0  0
 47 18  1  0  0  0  0
 49 20  1  0  0  0  0
 51 25  1  0  0  0  0
 52 26  1  0  0  0  0
M  END
>  <Pose>
1

>  <Score>
-6.35

$$$$
