
 OpenBabel03172210413D

 37 40  0  0  0  0  0  0  0  0999 V2000
    9.5300    5.5310   11.7930 S   0  0  0  0  0  0  0  0  0  0  0  0
    9.5090    4.8390   13.1520 O   0  0  0  0  0  0  0  0  0  0  0  0
    9.1510    4.5000   10.7940 O   0  0  0  0  0  0  0  0  0  0  0  0
   11.0520    6.1750   11.5470 N   0  0  0  0  0  0  0  0  0  0  0  0
   11.5050    6.3970   10.2290 C   0  0  0  0  0  0  0  0  0  0  0  0
   12.4400    5.3550    9.6650 C   0  0  0  0  0  0  0  0  0  0  0  0
   12.7830    4.3420   10.6130 N   0  0  0  0  0  0  0  0  0  0  0  0
   12.8160    4.5700   12.0470 C   0  0  0  0  0  0  0  0  0  0  0  0
   12.0940    5.8270   12.4320 C   0  0  0  0  0  0  0  0  0  0  0  0
   13.1090    3.0340   10.1660 C   0  0  0  0  0  0  0  0  0  0  0  0
   12.1210    2.0990   10.0410 N   0  0  0  0  0  0  0  0  0  0  0  0
   12.4040    0.8680    9.6150 C   0  0  0  0  0  0  0  0  0  0  0  0
   13.6430    0.4950    9.2950 N   0  0  0  0  0  0  0  0  0  0  0  0
   14.6200    1.3910    9.4100 C   0  0  0  0  0  0  0  0  0  0  0  0
   15.9320    1.3050    9.1700 N   0  0  0  0  0  0  0  0  0  0  0  0
   16.5020    2.5100    9.4520 C   0  0  0  0  0  0  0  0  0  0  0  0
   15.5640    3.3610    9.8670 N   0  0  0  0  0  0  0  0  0  0  0  0
   14.3990    2.6980    9.8500 C   0  0  0  0  0  0  0  0  0  0  0  0
    8.2240    6.7180   11.8610 C   0  0  0  0  0  0  0  0  0  0  0  0
    6.5590    6.4790   12.1340 S   0  0  0  0  0  0  0  0  0  0  0  0
    6.0250    8.0920   12.0420 C   0  0  0  0  0  0  0  0  0  0  0  0
    7.1850    8.7870   11.7980 C   0  0  0  0  0  0  0  0  0  0  0  0
    8.3120    8.0730   11.7060 C   0  0  0  0  0  0  0  0  0  0  0  0
    4.2580    8.7910   12.2310 B   0  0  0  0  0  0  0  0  0  0  0  0
   10.6910    6.6050    9.4930 H   0  0  0  0  0  0  0  0  0  0  0  0
   12.0820    7.3700   10.2530 H   0  0  0  0  0  0  0  0  0  0  0  0
   13.3010    5.8650    9.1900 H   0  0  0  0  0  0  0  0  0  0  0  0
   11.9180    4.8610    8.7970 H   0  0  0  0  0  0  0  0  0  0  0  0
   12.3510    3.7200   12.5810 H   0  0  0  0  0  0  0  0  0  0  0  0
   13.8820    4.6150   12.3600 H   0  0  0  0  0  0  0  0  0  0  0  0
   11.6910    5.7550   13.4610 H   0  0  0  0  0  0  0  0  0  0  0  0
   12.8520    6.6600   12.4240 H   0  0  0  0  0  0  0  0  0  0  0  0
   11.6230    0.1200    9.5120 H   0  0  0  0  0  0  0  0  0  0  0  0
   17.5560    2.7010    9.3390 H   0  0  0  0  0  0  0  0  0  0  0  0
   15.7320    4.3450   10.1470 H   0  0  0  0  0  0  0  0  0  0  0  0
    7.1400    9.8990   11.6880 H   0  0  0  0  0  0  0  0  0  0  0  0
    9.2970    8.5500   11.5100 H   0  0  0  0  0  0  0  0  0  0  0  0
  1 19  1  0  0  0  0
  1  2  2  0  0  0  0
  3  1  2  0  0  0  0
  4  1  1  0  0  0  0
  4  9  1  0  0  0  0
  5 26  1  0  0  0  0
  5  4  1  0  0  0  0
  6  5  1  0  0  0  0
  6  7  1  0  0  0  0
  7  8  1  0  0  0  0
  8 30  1  0  0  0  0
  8  9  1  0  0  0  0
  8 29  1  0  0  0  0
  9 31  1  0  0  0  0
 10  7  1  0  0  0  0
 11 10  1  0  0  0  0
 12 11  2  0  0  0  0
 13 14  2  0  0  0  0
 13 12  1  0  0  0  0
 14 18  1  0  0  0  0
 15 14  1  0  0  0  0
 15 16  2  0  0  0  0
 16 17  1  0  0  0  0
 17 35  1  0  0  0  0
 18 17  1  0  0  0  0
 18 10  2  0  0  0  0
 19 20  1  0  0  0  0
 21 20  1  0  0  0  0
 21 24  1  0  0  0  0
 22 21  2  0  0  0  0
 23 22  1  0  0  0  0
 23 19  2  0  0  0  0
 25  5  1  0  0  0  0
 27  6  1  0  0  0  0
 28  6  1  0  0  0  0
 32  9  1  0  0  0  0
 33 12  1  0  0  0  0
 34 16  1  0  0  0  0
 36 22  1  0  0  0  0
 37 23  1  0  0  0  0
M  END
>  <Pose>
1

>  <Score>
-6.25

$$$$
