
 OpenBabel03172210413D

 40 43  0  0  1  0  0  0  0  0999 V2000
    9.2520    5.8400   11.5260 S   0  0  0  0  0  0  0  0  0  0  0  0
    7.9430    5.2470   11.0730 O   0  0  0  0  0  0  0  0  0  0  0  0
    9.3880    7.1660   10.7930 O   0  0  0  0  0  0  0  0  0  0  0  0
   10.5890    4.8790   11.1110 N   0  0  0  0  0  0  0  0  0  0  0  0
   11.1130    4.2330   12.2680 C   0  0  0  0  0  0  0  0  0  0  0  0
   11.7540    2.8970   11.9580 C   0  0  0  0  0  0  0  0  0  0  0  0
   12.3700    3.0080   10.6610 N   0  0  0  0  0  0  0  0  0  0  0  0
   11.4690    3.1780    9.5490 C   0  0  0  0  0  0  0  0  0  0  0  0
   10.3490    4.0600    9.9720 C   0  0  0  0  0  0  0  0  0  0  0  0
   13.7680    2.9580   10.4560 C   0  0  1  0  0  0  0  0  0  0  0  0
   14.6100    3.7690   11.0970 C   0  0  0  0  0  0  0  0  0  0  0  0
   16.0500    3.7480   10.9160 C   0  0  0  0  0  0  0  0  0  0  0  0
   16.8380    4.5780   11.5790 C   0  0  0  0  0  0  0  0  0  0  0  0
   16.6040    2.8180   10.0100 N   0  0  0  0  0  0  0  0  0  0  0  0
   15.6690    1.9600    9.3390 C   0  0  0  0  0  0  0  0  0  0  0  0
   14.3440    2.0200    9.5420 N   0  0  0  0  0  0  0  0  0  0  0  0
   13.7440    1.1020    8.7790 N   0  0  0  0  0  0  0  0  0  0  0  0
   14.6750    0.4380    8.0720 C   0  0  0  0  0  0  0  0  0  0  0  0
   15.8560    0.9750    8.4250 N   0  0  0  0  0  0  0  0  0  0  0  0
    9.2060    6.2310   13.2440 C   0  0  0  0  0  0  0  0  0  0  0  0
    7.8390    6.2170   14.2510 S   0  0  0  0  0  0  0  0  0  0  0  0
    8.5660    6.6910   15.7150 C   0  0  0  0  0  0  0  0  0  0  0  0
    9.8830    6.8520   15.3740 C   0  0  0  0  0  0  0  0  0  0  0  0
   10.2140    6.6110   14.0830 C   0  0  0  0  0  0  0  0  0  0  0  0
    7.7700    6.9510   17.4550 B   0  0  0  0  0  0  0  0  0  0  0  0
   10.4090    4.1870   13.1240 H   0  0  0  0  0  0  0  0  0  0  0  0
   11.9600    4.8820   12.6420 H   0  0  0  0  0  0  0  0  0  0  0  0
   12.4410    2.5630   12.7450 H   0  0  0  0  0  0  0  0  0  0  0  0
   10.9350    2.1550   11.8660 H   0  0  0  0  0  0  0  0  0  0  0  0
   11.9820    3.5070    8.6250 H   0  0  0  0  0  0  0  0  0  0  0  0
   11.0600    2.1590    9.2780 H   0  0  0  0  0  0  0  0  0  0  0  0
   10.1700    4.7710    9.1100 H   0  0  0  0  0  0  0  0  0  0  0  0
    9.4150    3.4720   10.0260 H   0  0  0  0  0  0  0  0  0  0  0  0
   14.1790    4.4770   11.7870 H   0  0  0  0  0  0  0  0  0  0  0  0
   16.4090    5.2960   12.2780 H   0  0  0  0  0  0  0  0  0  0  0  0
   17.9100    4.5820   11.4620 H   0  0  0  0  0  0  0  0  0  0  0  0
   17.6090    2.7220    9.8100 H   0  0  0  0  0  0  0  0  0  0  0  0
   14.5180   -0.3730    7.3550 H   0  0  0  0  0  0  0  0  0  0  0  0
   10.6130    7.1680   16.1640 H   0  0  0  0  0  0  0  0  0  0  0  0
   11.2770    6.7270   13.7500 H   0  0  0  0  0  0  0  0  0  0  0  0
  1 20  1  0  0  0  0
  2  1  2  0  0  0  0
  3  1  2  0  0  0  0
  4  1  1  0  0  0  0
  4  5  1  0  0  0  0
  5 27  1  0  0  0  0
  5 26  1  0  0  0  0
  6  5  1  0  0  0  0
  6 28  1  0  0  0  0
  7  6  1  0  0  0  0
  8  9  1  0  0  0  0
  8  7  1  0  0  0  0
  9 33  1  0  0  0  0
  9  4  1  0  0  0  0
 10  7  1  1  0  0  0
 10 11  1  0  0  0  0
 11 34  1  0  0  0  0
 12 11  2  0  0  0  0
 12 13  1  0  0  0  0
 13 35  1  0  0  0  0
 14 12  1  0  0  0  0
 15 16  1  0  0  0  0
 15 14  1  0  0  0  0
 16 10  1  0  0  0  0
 17 16  1  0  0  0  0
 18 19  1  0  0  0  0
 18 17  2  0  0  0  0
 19 15  2  0  0  0  0
 20 24  2  0  0  0  0
 20 21  1  0  0  0  0
 21 22  1  0  0  0  0
 22 25  1  0  0  0  0
 23 22  2  0  0  0  0
 23 39  1  0  0  0  0
 24 23  1  0  0  0  0
 29  6  1  0  0  0  0
 30  8  1  0  0  0  0
 31  8  1  0  0  0  0
 32  9  1  0  0  0  0
 36 13  1  0  0  0  0
 37 14  1  0  0  0  0
 38 18  1  0  0  0  0
 40 24  1  0  0  0  0
M  END
>  <Pose>
1

>  <Score>
-7.33

$$$$
