
 OpenBabel03172210413D

 57 60  0  0  1  0  0  0  0  0999 V2000
    5.0940   10.0410   14.3380 S   0  0  0  0  0  0  0  0  0  0  0  0
    3.9170   10.9590   14.2400 O   0  0  0  0  0  0  0  0  0  0  0  0
    6.2050   10.6920   13.5220 O   0  0  0  0  0  0  0  0  0  0  0  0
    4.7940    8.4610   13.7920 N   0  0  0  0  0  0  0  0  0  0  0  0
    3.9360    7.7830   14.7040 C   0  0  0  0  0  0  0  0  0  0  0  0
    4.5110    6.5150   15.2920 C   0  0  0  0  0  0  0  0  0  0  0  0
    5.8950    6.7230   15.7240 N   0  0  0  0  0  0  0  0  0  0  0  0
    6.7000    7.4040   14.7340 C   0  0  0  0  0  0  0  0  0  0  0  0
    7.8790    7.7070   14.9330 O   0  0  0  0  0  0  0  0  0  0  0  0
    5.9350    7.6840   13.4730 C   0  0  2  0  0  0  0  0  0  0  0  0
    6.7990    8.1500   12.3690 C   0  0  0  0  0  0  0  0  0  0  0  0
    7.3880    6.9810   11.6720 C   0  0  0  0  0  0  0  0  0  0  0  0
    6.5870    6.2350   11.0480 O   0  0  0  0  0  0  0  0  0  0  0  0
    8.7900    6.7100   11.7050 N   0  0  0  0  0  0  0  0  0  0  0  0
    9.7340    7.6300   11.1300 C   0  0  0  0  0  0  0  0  0  0  0  0
   11.0750    7.6270   11.7960 C   0  0  0  0  0  0  0  0  0  0  0  0
   11.4570    6.3380   12.3470 N   0  0  0  0  0  0  0  0  0  0  0  0
   10.4540    5.7320   13.2090 C   0  0  0  0  0  0  0  0  0  0  0  0
    9.2500    5.4950   12.3230 C   0  0  0  0  0  0  0  0  0  0  0  0
   12.6770    5.6870   12.1220 C   0  0  0  0  0  0  0  0  0  0  0  0
   13.8560    6.3490   12.3810 C   0  0  0  0  0  0  0  0  0  0  0  0
   15.0620    5.7070   12.1440 C   0  0  0  0  0  0  0  0  0  0  0  0
   15.1380    4.4270   11.6560 C   0  0  0  0  0  0  0  0  0  0  0  0
   13.9570    3.7690   11.3990 C   0  0  0  0  0  0  0  0  0  0  0  0
   12.7470    4.4050   11.6330 C   0  0  0  0  0  0  0  0  0  0  0  0
    5.6620   10.0560   15.9990 C   0  0  0  0  0  0  0  0  0  0  0  0
    6.8220   10.7160   16.3850 C   0  0  0  0  0  0  0  0  0  0  0  0
    7.2850   10.7380   17.6700 C   0  0  0  0  0  0  0  0  0  0  0  0
    6.5960   10.0880   18.6600 C   0  0  0  0  0  0  0  0  0  0  0  0
    5.4200    9.4130   18.3090 C   0  0  0  0  0  0  0  0  0  0  0  0
    4.9840    9.4110   17.0060 C   0  0  0  0  0  0  0  0  0  0  0  0
    7.1880   10.0830   20.4680 B   0  0  0  0  0  0  0  0  0  0  0  0
    2.9980    7.4770   14.1700 H   0  0  0  0  0  0  0  0  0  0  0  0
    3.5980    8.3960   15.5650 H   0  0  0  0  0  0  0  0  0  0  0  0
    4.4200    5.6920   14.5660 H   0  0  0  0  0  0  0  0  0  0  0  0
    3.9230    6.2450   16.1850 H   0  0  0  0  0  0  0  0  0  0  0  0
    6.2850    6.4330   16.6200 H   0  0  0  0  0  0  0  0  0  0  0  0
    5.5480    6.6660   13.1690 H   0  0  0  0  0  0  0  0  0  0  0  0
    7.6070    8.7810   12.8480 H   0  0  0  0  0  0  0  0  0  0  0  0
    6.3230    8.8420   11.6470 H   0  0  0  0  0  0  0  0  0  0  0  0
    9.8820    7.4510   10.0350 H   0  0  0  0  0  0  0  0  0  0  0  0
    9.3650    8.6910   11.1780 H   0  0  0  0  0  0  0  0  0  0  0  0
   11.8240    7.9320   11.0560 H   0  0  0  0  0  0  0  0  0  0  0  0
   11.1220    8.3630   12.6340 H   0  0  0  0  0  0  0  0  0  0  0  0
   10.1280    6.4920   13.9600 H   0  0  0  0  0  0  0  0  0  0  0  0
   10.7340    4.8020   13.6770 H   0  0  0  0  0  0  0  0  0  0  0  0
    9.4770    4.7790   11.5050 H   0  0  0  0  0  0  0  0  0  0  0  0
    8.4250    5.0420   12.9070 H   0  0  0  0  0  0  0  0  0  0  0  0
   13.9070    7.3700   12.7760 H   0  0  0  0  0  0  0  0  0  0  0  0
   15.9970    6.2210   12.3450 H   0  0  0  0  0  0  0  0  0  0  0  0
   16.0950    3.9320   11.4740 H   0  0  0  0  0  0  0  0  0  0  0  0
   13.9900    2.7520   11.0120 H   0  0  0  0  0  0  0  0  0  0  0  0
   11.8740    3.8110   11.3970 H   0  0  0  0  0  0  0  0  0  0  0  0
    7.3940   11.2410   15.6430 H   0  0  0  0  0  0  0  0  0  0  0  0
    8.2030   11.2610   17.9630 H   0  0  0  0  0  0  0  0  0  0  0  0
    4.9060    8.9140   19.1160 H   0  0  0  0  0  0  0  0  0  0  0  0
    4.0790    8.8840   16.7680 H   0  0  0  0  0  0  0  0  0  0  0  0
  1 26  1  0  0  0  0
  2  1  2  0  0  0  0
  3  1  2  0  0  0  0
  4  1  1  0  0  0  0
  4  5  1  0  0  0  0
  5  6  1  0  0  0  0
  5 34  1  0  0  0  0
  6  7  1  0  0  0  0
  6 36  1  0  0  0  0
  7 37  1  0  0  0  0
  8  9  2  0  0  0  0
  8  7  1  0  0  0  0
 10 38  1  6  0  0  0
 10  4  1  0  0  0  0
 10  8  1  0  0  0  0
 11 39  1  0  0  0  0
 11 10  1  0  0  0  0
 12 14  1  0  0  0  0
 12 11  1  0  0  0  0
 13 12  2  0  0  0  0
 14 19  1  0  0  0  0
 15 42  1  0  0  0  0
 15 14  1  0  0  0  0
 15 16  1  0  0  0  0
 16 17  1  0  0  0  0
 16 44  1  0  0  0  0
 17 18  1  0  0  0  0
 18 46  1  0  0  0  0
 18 45  1  0  0  0  0
 19 48  1  0  0  0  0
 19 18  1  0  0  0  0
 20 17  1  0  0  0  0
 20 21  1  0  0  0  0
 21 49  1  0  0  0  0
 22 50  1  0  0  0  0
 22 21  2  0  0  0  0
 23 22  1  0  0  0  0
 24 25  1  0  0  0  0
 24 23  2  0  0  0  0
 25 20  2  0  0  0  0
 26 27  2  0  0  0  0
 26 31  1  0  0  0  0
 27 28  1  0  0  0  0
 28 55  1  0  0  0  0
 28 29  2  0  0  0  0
 29 32  1  0  0  0  0
 30 29  1  0  0  0  0
 30 56  1  0  0  0  0
 31 30  2  0  0  0  0
 33  5  1  0  0  0  0
 35  6  1  0  0  0  0
 40 11  1  0  0  0  0
 41 15  1  0  0  0  0
 43 16  1  0  0  0  0
 47 19  1  0  0  0  0
 51 23  1  0  0  0  0
 52 24  1  0  0  0  0
 53 25  1  0  0  0  0
 54 27  1  0  0  0  0
 57 31  1  0  0  0  0
M  END
>  <Pose>
1

>  <Score>
-6.31

$$$$
