
 OpenBabel03172210413D

 51 54  0  0  0  0  0  0  0  0999 V2000
    7.4530    6.8330   12.1010 S   0  0  0  0  0  0  0  0  0  0  0  0
    7.0460    5.9170   10.9980 O   0  0  0  0  0  0  0  0  0  0  0  0
    7.1000    6.1480   13.4050 O   0  0  0  0  0  0  0  0  0  0  0  0
    6.5920    8.3070   12.0480 N   0  0  0  0  0  0  0  0  0  0  0  0
    6.9470    9.2110   13.1110 C   0  0  0  0  0  0  0  0  0  0  0  0
    5.8030   10.2230   13.2230 C   0  0  0  0  0  0  0  0  0  0  0  0
    4.7020    9.6430   13.8160 O   0  0  0  0  0  0  0  0  0  0  0  0
    4.7460    8.2540   13.6000 C   0  0  0  0  0  0  0  0  0  0  0  0
    5.1680    8.0510   12.1530 C   0  0  0  0  0  0  0  0  0  0  0  0
    9.1930    7.0750   12.1270 C   0  0  0  0  0  0  0  0  0  0  0  0
    9.8960    7.2620   13.2830 C   0  0  0  0  0  0  0  0  0  0  0  0
   11.2740    7.4510   13.2740 C   0  0  0  0  0  0  0  0  0  0  0  0
   11.9820    7.4590   12.1090 C   0  0  0  0  0  0  0  0  0  0  0  0
   11.2770    7.2710   10.9330 C   0  0  0  0  0  0  0  0  0  0  0  0
    9.9070    7.0830   10.9440 C   0  0  0  0  0  0  0  0  0  0  0  0
   13.4490    7.6500   12.0130 C   0  0  0  0  0  0  0  0  0  0  0  0
   14.0730    6.6250   11.2710 O   0  0  0  0  0  0  0  0  0  0  0  0
   14.9920    5.7360   11.7720 C   0  0  0  0  0  0  0  0  0  0  0  0
   16.2050    6.0160   11.7130 O   0  0  0  0  0  0  0  0  0  0  0  0
   14.5680    4.4730   12.3700 C   0  0  0  0  0  0  0  0  0  0  0  0
   14.1990    3.4750   11.4100 N   0  0  0  0  0  0  0  0  0  0  0  0
   12.9020    2.8670   11.3720 C   0  0  0  0  0  0  0  0  0  0  0  0
   11.9420    3.1230   12.1540 O   0  0  0  0  0  0  0  0  0  0  0  0
   12.8600    1.9010   10.2810 C   0  0  0  0  0  0  0  0  0  0  0  0
   14.0790    1.8950    9.6540 C   0  0  0  0  0  0  0  0  0  0  0  0
   14.3100    1.0600    8.5770 C   0  0  0  0  0  0  0  0  0  0  0  0
   13.3220    0.2160    8.1070 C   0  0  0  0  0  0  0  0  0  0  0  0
   12.0910    0.2110    8.7290 C   0  0  0  0  0  0  0  0  0  0  0  0
   11.8870    1.0530    9.8030 C   0  0  0  0  0  0  0  0  0  0  0  0
   10.6970   -0.9370    8.1190 B   0  0  0  0  0  0  0  0  0  0  0  0
   14.9270    2.8770   10.3510 C   0  0  0  0  0  0  0  0  0  0  0  0
   16.1130    3.1620   10.0740 O   0  0  0  0  0  0  0  0  0  0  0  0
    7.8450    9.7720   12.7780 H   0  0  0  0  0  0  0  0  0  0  0  0
    7.1700    8.7290   14.0620 H   0  0  0  0  0  0  0  0  0  0  0  0
    5.5920   10.5820   12.1870 H   0  0  0  0  0  0  0  0  0  0  0  0
    6.0990   11.1130   13.8030 H   0  0  0  0  0  0  0  0  0  0  0  0
    5.4000    7.7470   14.3120 H   0  0  0  0  0  0  0  0  0  0  0  0
    3.7170    7.8880   13.7790 H   0  0  0  0  0  0  0  0  0  0  0  0
    4.9940    7.0230   11.8010 H   0  0  0  0  0  0  0  0  0  0  0  0
    4.5640    8.7710   11.5570 H   0  0  0  0  0  0  0  0  0  0  0  0
    9.3450    7.2580   14.2210 H   0  0  0  0  0  0  0  0  0  0  0  0
   11.7910    7.5980   14.2080 H   0  0  0  0  0  0  0  0  0  0  0  0
   11.8190    7.2740    9.9980 H   0  0  0  0  0  0  0  0  0  0  0  0
    9.3780    6.9370   10.0020 H   0  0  0  0  0  0  0  0  0  0  0  0
   13.6880    8.6140   11.5190 H   0  0  0  0  0  0  0  0  0  0  0  0
   13.8580    7.6770   13.0570 H   0  0  0  0  0  0  0  0  0  0  0  0
   15.3710    4.0430   13.0380 H   0  0  0  0  0  0  0  0  0  0  0  0
   13.6810    4.6000   13.0600 H   0  0  0  0  0  0  0  0  0  0  0  0
   15.2850    1.0790    8.1010 H   0  0  0  0  0  0  0  0  0  0  0  0
   13.5170   -0.4460    7.2480 H   0  0  0  0  0  0  0  0  0  0  0  0
   10.9260    1.0740   10.3160 H   0  0  0  0  0  0  0  0  0  0  0  0
  1 10  1  0  0  0  0
  1  3  2  0  0  0  0
  2  1  2  0  0  0  0
  4  1  1  0  0  0  0
  4  9  1  0  0  0  0
  4  5  1  0  0  0  0
  5  6  1  0  0  0  0
  5 34  1  0  0  0  0
  6 36  1  0  0  0  0
  6  7  1  0  0  0  0
  8 38  1  0  0  0  0
  8  7  1  0  0  0  0
  8 37  1  0  0  0  0
  9  8  1  0  0  0  0
 10 11  1  0  0  0  0
 11 41  1  0  0  0  0
 12 11  2  0  0  0  0
 12 42  1  0  0  0  0
 13 12  1  0  0  0  0
 14 15  1  0  0  0  0
 14 13  2  0  0  0  0
 15 10  2  0  0  0  0
 16 13  1  0  0  0  0
 16 46  1  0  0  0  0
 17 18  1  0  0  0  0
 17 16  1  0  0  0  0
 18 20  1  0  0  0  0
 19 18  2  0  0  0  0
 20 47  1  0  0  0  0
 20 48  1  0  0  0  0
 21 20  1  0  0  0  0
 22 21  1  0  0  0  0
 22 23  2  0  0  0  0
 24 22  1  0  0  0  0
 25 24  2  0  0  0  0
 25 31  1  0  0  0  0
 26 25  1  0  0  0  0
 27 26  2  0  0  0  0
 27 28  1  0  0  0  0
 28 29  2  0  0  0  0
 29 24  1  0  0  0  0
 29 51  1  0  0  0  0
 30 28  1  0  0  0  0
 31 21  1  0  0  0  0
 32 31  2  0  0  0  0
 33  5  1  0  0  0  0
 35  6  1  0  0  0  0
 39  9  1  0  0  0  0
 40  9  1  0  0  0  0
 43 14  1  0  0  0  0
 44 15  1  0  0  0  0
 45 16  1  0  0  0  0
 49 26  1  0  0  0  0
 50 27  1  0  0  0  0
M  END
>  <Pose>
1

>  <Score>
-6.80

$$$$
