
 OpenBabel03172210413D

 47 50  0  0  1  0  0  0  0  0999 V2000
   11.4880    3.1280   11.4450 S   0  0  0  0  0  0  0  0  0  0  0  0
   11.3020    2.8130    9.6350 C   0  0  0  0  0  0  0  0  0  0  0  0
   11.1930    1.3560    9.3950 C   0  0  0  0  0  0  0  0  0  0  0  0
   12.2520    0.5440    9.0680 C   0  0  0  0  0  0  0  0  0  0  0  0
   12.0880   -0.7530    8.7240 C   0  0  0  0  0  0  0  0  0  0  0  0
   10.8300   -1.3430    8.6910 C   0  0  0  0  0  0  0  0  0  0  0  0
    9.7270   -0.5420    9.0170 C   0  0  0  0  0  0  0  0  0  0  0  0
    9.9080    0.7830    9.3620 C   0  0  0  0  0  0  0  0  0  0  0  0
   13.9880    1.3230    9.2600 B   0  0  0  0  0  0  0  0  0  0  0  0
   12.6820    4.4420   11.7320 C   0  0  0  0  0  0  0  0  0  0  0  0
   12.3970    5.7060   12.0440 N   0  0  0  0  0  0  0  0  0  0  0  0
   13.5840    6.3320   12.2610 C   0  0  0  0  0  0  0  0  0  0  0  0
   14.0060    7.5410   12.6630 N   0  0  0  0  0  0  0  0  0  0  0  0
   15.2780    7.8990   12.8690 C   0  0  0  0  0  0  0  0  0  0  0  0
   16.2610    6.9470   12.6400 N   0  0  0  0  0  0  0  0  0  0  0  0
   15.9440    5.7380   12.2460 C   0  0  0  0  0  0  0  0  0  0  0  0
   14.6240    5.3870   12.0470 C   0  0  0  0  0  0  0  0  0  0  0  0
   14.0090    4.2540   11.7320 N   0  0  0  0  0  0  0  0  0  0  0  0
   16.8760    4.7630   11.9960 O   0  0  0  0  0  0  0  0  0  0  0  0
   15.7060    9.1830   13.3470 N   0  0  0  0  0  0  0  0  0  0  0  0
   11.1460    6.3880   12.1210 C   0  0  2  0  0  0  0  0  0  0  0  0
   10.4410    6.1620   13.3240 O   0  0  0  0  0  0  0  0  0  0  0  0
    9.2260    6.8050   12.9930 C   0  0  1  0  0  0  0  0  0  0  0  0
    8.8750    5.9530   11.7450 C   0  0  2  0  0  0  0  0  0  0  0  0
   10.1930    6.1690   10.9910 C   0  0  1  0  0  0  0  0  0  0  0  0
   10.0260    7.3490   10.2210 O   0  0  0  0  0  0  0  0  0  0  0  0
    7.7840    6.4320   11.0710 O   0  0  0  0  0  0  0  0  0  0  0  0
    8.2100    6.6800   14.0640 C   0  0  0  0  0  0  0  0  0  0  0  0
    8.4530    5.5460   14.8480 O   0  0  0  0  0  0  0  0  0  0  0  0
   12.1050    3.2630    9.1170 H   0  0  0  0  0  0  0  0  0  0  0  0
   10.2830    3.3080    9.3930 H   0  0  0  0  0  0  0  0  0  0  0  0
   12.9490   -1.3470    8.4760 H   0  0  0  0  0  0  0  0  0  0  0  0
   10.7140   -2.3850    8.4450 H   0  0  0  0  0  0  0  0  0  0  0  0
    8.7140   -0.9510    8.9950 H   0  0  0  0  0  0  0  0  0  0  0  0
    9.0660    1.3880    9.5690 H   0  0  0  0  0  0  0  0  0  0  0  0
   17.6630    4.8830   11.3690 H   0  0  0  0  0  0  0  0  0  0  0  0
   16.1940    9.3820   14.2180 H   0  0  0  0  0  0  0  0  0  0  0  0
   15.4490   10.0360   12.7370 H   0  0  0  0  0  0  0  0  0  0  0  0
   11.3460    7.4960   12.1600 H   0  0  0  0  0  0  0  0  0  0  0  0
    9.4070    7.8240   12.6490 H   0  0  0  0  0  0  0  0  0  0  0  0
    8.7510    4.8920   12.0310 H   0  0  0  0  0  0  0  0  0  0  0  0
   10.4070    5.3950   10.2930 H   0  0  0  0  0  0  0  0  0  0  0  0
   10.9100    7.4980    9.8160 H   0  0  0  0  0  0  0  0  0  0  0  0
    7.0530    6.6320   11.7040 H   0  0  0  0  0  0  0  0  0  0  0  0
    7.2330    6.4240   13.5420 H   0  0  0  0  0  0  0  0  0  0  0  0
    8.0340    7.5900   14.6190 H   0  0  0  0  0  0  0  0  0  0  0  0
    7.8860    4.8030   14.4750 H   0  0  0  0  0  0  0  0  0  0  0  0
  1 10  1  0  0  0  0
  2  1  1  0  0  0  0
  3  2  1  0  0  0  0
  4  9  1  0  0  0  0
  4  3  2  0  0  0  0
  5  4  1  0  0  0  0
  6  5  2  0  0  0  0
  6  7  1  0  0  0  0
  7  8  2  0  0  0  0
  8  3  1  0  0  0  0
  8 35  1  0  0  0  0
 10 11  1  0  0  0  0
 11 21  1  0  0  0  0
 11 12  1  0  0  0  0
 12 13  1  0  0  0  0
 13 14  2  0  0  0  0
 14 20  1  0  0  0  0
 15 14  1  0  0  0  0
 16 15  2  0  0  0  0
 17 16  1  0  0  0  0
 17 12  2  0  0  0  0
 18 10  2  0  0  0  0
 18 17  1  0  0  0  0
 19 16  1  0  0  0  0
 20 37  1  0  0  0  0
 21 39  1  6  0  0  0
 21 22  1  0  0  0  0
 23 40  1  6  0  0  0
 23 22  1  0  0  0  0
 23 28  1  0  0  0  0
 24 41  1  1  0  0  0
 24 23  1  0  0  0  0
 25 42  1  6  0  0  0
 25 24  1  0  0  0  0
 25 21  1  0  0  0  0
 26 25  1  0  0  0  0
 27 44  1  0  0  0  0
 27 24  1  0  0  0  0
 28 46  1  0  0  0  0
 28 29  1  0  0  0  0
 30  2  1  0  0  0  0
 31  2  1  0  0  0  0
 32  5  1  0  0  0  0
 33  6  1  0  0  0  0
 34  7  1  0  0  0  0
 36 19  1  0  0  0  0
 38 20  1  0  0  0  0
 43 26  1  0  0  0  0
 45 28  1  0  0  0  0
 47 29  1  0  0  0  0
M  END
>  <Pose>
1

>  <Score>
-7.07

$$$$
