
 OpenBabel03172210413D

 36 39  0  0  1  0  0  0  0  0999 V2000
   10.6290    7.5830   11.2620 S   0  0  0  0  0  0  0  0  0  0  0  0
   10.0640    6.0240   10.8640 C   0  0  0  0  0  0  0  0  0  0  0  0
    9.1410    5.7770   11.8460 C   0  0  0  0  0  0  0  0  0  0  0  0
    8.9440    6.7240   12.7650 C   0  0  0  0  0  0  0  0  0  0  0  0
    9.6850    7.8720   12.6520 C   0  0  0  0  0  0  0  0  0  0  0  0
    7.6830    6.5600   14.2300 B   0  0  0  0  0  0  0  0  0  0  0  0
   10.4550    5.1380    9.7440 C   0  0  0  0  0  0  0  0  0  0  0  0
    9.5740    4.9380    8.8730 O   0  0  0  0  0  0  0  0  0  0  0  0
   11.7450    4.5640    9.6820 N   0  0  0  0  0  0  0  0  0  0  0  0
   12.4710    4.1710   10.8810 C   0  0  2  0  0  0  0  0  0  0  0  0
   13.3970    3.0110   10.6200 C   0  0  0  0  0  0  0  0  0  0  0  0
   12.4560    1.9120   10.4650 N   0  0  0  0  0  0  0  0  0  0  0  0
   11.5290    2.0490   11.5640 C   0  0  0  0  0  0  0  0  0  0  0  0
   11.4690    3.5420   11.8250 C   0  0  0  0  0  0  0  0  0  0  0  0
   12.4920    0.9290    9.4180 C   0  0  0  0  0  0  0  0  0  0  0  0
   13.6530    0.5720    8.8390 N   0  0  0  0  0  0  0  0  0  0  0  0
   13.6550   -0.3500    7.8610 C   0  0  0  0  0  0  0  0  0  0  0  0
   12.5020   -0.9500    7.4230 C   0  0  0  0  0  0  0  0  0  0  0  0
   11.3340   -0.6050    7.9910 N   0  0  0  0  0  0  0  0  0  0  0  0
   11.3440    0.3200    8.9700 C   0  0  0  0  0  0  0  0  0  0  0  0
   10.0540    0.4530    9.3330 N   0  0  0  0  0  0  0  0  0  0  0  0
    9.2750   -0.3450    8.6220 N   0  0  0  0  0  0  0  0  0  0  0  0
   10.0640   -1.0210    7.7690 C   0  0  0  0  0  0  0  0  0  0  0  0
    8.6010    4.8050   11.8330 H   0  0  0  0  0  0  0  0  0  0  0  0
    9.6950    8.7750   13.2780 H   0  0  0  0  0  0  0  0  0  0  0  0
   12.1740    4.4240    8.7410 H   0  0  0  0  0  0  0  0  0  0  0  0
   13.0310    4.9950   11.3200 H   0  0  0  0  0  0  0  0  0  0  0  0
   14.0500    3.1420    9.7570 H   0  0  0  0  0  0  0  0  0  0  0  0
   13.9680    2.8350   11.5530 H   0  0  0  0  0  0  0  0  0  0  0  0
   10.5400    1.6170   11.3920 H   0  0  0  0  0  0  0  0  0  0  0  0
   12.0080    1.5780   12.4470 H   0  0  0  0  0  0  0  0  0  0  0  0
   10.4290    3.8750   11.6100 H   0  0  0  0  0  0  0  0  0  0  0  0
   11.7630    3.7790   12.8700 H   0  0  0  0  0  0  0  0  0  0  0  0
   14.6060   -0.6320    7.4000 H   0  0  0  0  0  0  0  0  0  0  0  0
   12.4990   -1.6950    6.6350 H   0  0  0  0  0  0  0  0  0  0  0  0
    9.7690   -1.7510    7.0450 H   0  0  0  0  0  0  0  0  0  0  0  0
  1  5  1  0  0  0  0
  2  1  1  0  0  0  0
  2  3  2  0  0  0  0
  3  4  1  0  0  0  0
  4  6  1  0  0  0  0
  5  4  2  0  0  0  0
  5 25  1  0  0  0  0
  7  2  1  0  0  0  0
  8  7  2  0  0  0  0
  9  7  1  0  0  0  0
  9 10  1  0  0  0  0
 10 27  1  1  0  0  0
 10 14  1  0  0  0  0
 11 10  1  0  0  0  0
 11 29  1  0  0  0  0
 12 11  1  0  0  0  0
 12 13  1  0  0  0  0
 13 14  1  0  0  0  0
 13 31  1  0  0  0  0
 14 33  1  0  0  0  0
 15 12  1  0  0  0  0
 16 15  2  0  0  0  0
 17 16  1  0  0  0  0
 18 17  2  0  0  0  0
 18 19  1  0  0  0  0
 19 20  1  0  0  0  0
 20 21  2  0  0  0  0
 20 15  1  0  0  0  0
 22 21  1  0  0  0  0
 23 19  1  0  0  0  0
 23 22  2  0  0  0  0
 24  3  1  0  0  0  0
 26  9  1  0  0  0  0
 28 11  1  0  0  0  0
 30 13  1  0  0  0  0
 32 14  1  0  0  0  0
 34 17  1  0  0  0  0
 35 18  1  0  0  0  0
 36 23  1  0  0  0  0
M  END
>  <Pose>
1

>  <Score>
-6.87

$$$$
