
 OpenBabel03172210413D

 34 37  0  0  1  0  0  0  0  0999 V2000
    5.3070    6.6340   15.0860 S   0  0  0  0  0  0  0  0  0  0  0  0
    5.1190    7.6790   13.7590 C   0  0  0  0  0  0  0  0  0  0  0  0
    6.3500    7.6550   13.1580 C   0  0  0  0  0  0  0  0  0  0  0  0
    7.2940    6.8760   13.7350 C   0  0  0  0  0  0  0  0  0  0  0  0
    6.9320    6.1870   14.8580 C   0  0  0  0  0  0  0  0  0  0  0  0
    8.6940    6.7610   13.1610 C   0  0  1  0  0  0  0  0  0  0  0  0
    8.7800    7.2610   11.7120 C   0  0  1  0  0  0  0  0  0  0  0  0
    9.3960    8.0040   12.8360 C   0  0  0  0  0  0  0  0  0  0  0  0
    9.6470    6.3990   10.8340 C   0  0  0  0  0  0  0  0  0  0  0  0
    9.9980    5.1160   11.0350 N   0  0  0  0  0  0  0  0  0  0  0  0
   10.7830    4.6870   10.0310 C   0  0  0  0  0  0  0  0  0  0  0  0
   10.9030    5.7430    9.2090 N   0  0  0  0  0  0  0  0  0  0  0  0
   10.2190    6.7490    9.7070 O   0  0  0  0  0  0  0  0  0  0  0  0
   11.3870    3.3670    9.8470 C   0  0  0  0  0  0  0  0  0  0  0  0
   12.6830    3.0570   10.0180 N   0  0  0  0  0  0  0  0  0  0  0  0
   12.8820    1.7600    9.7630 N   0  0  0  0  0  0  0  0  0  0  0  0
   11.6940    1.2140    9.4200 C   0  0  0  0  0  0  0  0  0  0  0  0
   10.7920    2.2210    9.4780 N   0  0  0  0  0  0  0  0  0  0  0  0
   14.1480    1.0510    9.8390 C   0  0  0  0  0  0  0  0  0  0  0  0
   14.7290    0.9750    8.4820 C   0  0  0  0  0  0  0  0  0  0  0  0
   15.7630    1.6330    8.2340 O   0  0  0  0  0  0  0  0  0  0  0  0
   14.1160    0.1700    7.4930 N   0  0  0  0  0  0  0  0  0  0  0  0
    3.5660    8.6780   13.1960 B   0  0  0  0  0  0  0  0  0  0  0  0
    6.5180    8.2710   12.2330 H   0  0  0  0  0  0  0  0  0  0  0  0
    7.5810    5.5090   15.4490 H   0  0  0  0  0  0  0  0  0  0  0  0
    9.3020    5.9000   13.4420 H   0  0  0  0  0  0  0  0  0  0  0  0
    7.8760    7.6400   11.2370 H   0  0  0  0  0  0  0  0  0  0  0  0
   10.5170    8.0010   12.8360 H   0  0  0  0  0  0  0  0  0  0  0  0
    8.9260    8.9840   13.0720 H   0  0  0  0  0  0  0  0  0  0  0  0
   11.5380    0.1780    9.1570 H   0  0  0  0  0  0  0  0  0  0  0  0
   13.9740    0.0600   10.2980 H   0  0  0  0  0  0  0  0  0  0  0  0
   14.8790    1.6110   10.4680 H   0  0  0  0  0  0  0  0  0  0  0  0
   14.6360   -0.6180    7.0170 H   0  0  0  0  0  0  0  0  0  0  0  0
   13.1260    0.2930    7.1700 H   0  0  0  0  0  0  0  0  0  0  0  0
  2  1  1  0  0  0  0
  3  4  1  0  0  0  0
  3  2  2  0  0  0  0
  4  5  2  0  0  0  0
  5  1  1  0  0  0  0
  5 25  1  0  0  0  0
  6 26  1  1  0  0  0
  6  4  1  0  0  0  0
  7 27  1  6  0  0  0
  7  8  1  0  0  0  0
  7  6  1  0  0  0  0
  8 29  1  0  0  0  0
  8  6  1  0  0  0  0
  9 10  2  0  0  0  0
  9  7  1  0  0  0  0
 11 10  1  0  0  0  0
 12 13  1  0  0  0  0
 12 11  2  0  0  0  0
 13  9  1  0  0  0  0
 14 15  2  0  0  0  0
 14 11  1  0  0  0  0
 16 19  1  0  0  0  0
 16 15  1  0  0  0  0
 17 18  2  0  0  0  0
 17 16  1  0  0  0  0
 18 14  1  0  0  0  0
 19 31  1  0  0  0  0
 19 32  1  0  0  0  0
 20 19  1  0  0  0  0
 21 20  2  0  0  0  0
 22 20  1  0  0  0  0
 23  2  1  0  0  0  0
 24  3  1  0  0  0  0
 28  8  1  0  0  0  0
 30 17  1  0  0  0  0
 33 22  1  0  0  0  0
 34 22  1  0  0  0  0
M  END
>  <Pose>
1

>  <Score>
-6.99

$$$$
