
 OpenBabel03172210413D

 51 54  0  0  0  0  0  0  0  0999 V2000
   12.6000    1.1590    9.5800 S   0  0  0  0  0  0  0  0  0  0  0  0
   11.9680   -0.0120    8.5230 C   0  0  0  0  0  0  0  0  0  0  0  0
   13.0780   -0.4390    7.8480 C   0  0  0  0  0  0  0  0  0  0  0  0
   14.2490    0.1180    8.1630 C   0  0  0  0  0  0  0  0  0  0  0  0
   14.2530    1.0800    9.1420 C   0  0  0  0  0  0  0  0  0  0  0  0
   15.4040    1.8240    9.6660 C   0  0  0  0  0  0  0  0  0  0  0  0
   16.3120    2.1200    8.8510 O   0  0  0  0  0  0  0  0  0  0  0  0
   15.4990    2.2170   11.0940 C   0  0  0  0  0  0  0  0  0  0  0  0
   15.8780    3.5990   11.2480 N   0  0  0  0  0  0  0  0  0  0  0  0
   17.1510    4.0300   11.4130 C   0  0  0  0  0  0  0  0  0  0  0  0
   17.1660    5.3870   11.5300 C   0  0  0  0  0  0  0  0  0  0  0  0
   18.3590    6.0630   11.7100 C   0  0  0  0  0  0  0  0  0  0  0  0
   19.5310    5.3440   11.7700 C   0  0  0  0  0  0  0  0  0  0  0  0
   19.5430    3.9780   11.6560 C   0  0  0  0  0  0  0  0  0  0  0  0
   18.3380    3.3360   11.4770 C   0  0  0  0  0  0  0  0  0  0  0  0
   15.8960    5.7930   11.4330 N   0  0  0  0  0  0  0  0  0  0  0  0
   15.1100    4.6920   11.2590 C   0  0  0  0  0  0  0  0  0  0  0  0
   13.8420    4.8190   11.1280 N   0  0  0  0  0  0  0  0  0  0  0  0
   15.4610    7.1800   11.5190 C   0  0  0  0  0  0  0  0  0  0  0  0
   14.4960    7.3060   12.7080 C   0  0  0  0  0  0  0  0  0  0  0  0
   13.6190    8.4330   12.5720 N   0  0  0  0  0  4  0  0  0  0  0  0
   12.5300    8.2240   11.6390 C   0  0  0  0  0  0  0  0  0  0  0  0
   11.7730    6.9600   11.9320 C   0  0  0  0  0  0  0  0  0  0  0  0
   11.4040    6.8110   13.3700 C   0  0  0  0  0  0  0  0  0  0  0  0
   12.2960    7.4920   14.3450 C   0  0  0  0  0  0  0  0  0  0  0  0
   13.0130    8.6990   13.8530 C   0  0  0  0  0  0  0  0  0  0  0  0
   10.1520   -0.5680    8.3450 B   0  0  0  0  0  0  0  0  0  0  0  0
   12.9570   -1.2320    7.0680 H   0  0  0  0  0  0  0  0  0  0  0  0
   15.2010   -0.1740    7.6630 H   0  0  0  0  0  0  0  0  0  0  0  0
   16.1890    1.5300   11.6530 H   0  0  0  0  0  0  0  0  0  0  0  0
   14.5050    2.0560   11.5800 H   0  0  0  0  0  0  0  0  0  0  0  0
   18.3290    7.1430   11.8000 H   0  0  0  0  0  0  0  0  0  0  0  0
   20.4850    5.8330   11.9120 H   0  0  0  0  0  0  0  0  0  0  0  0
   20.4490    3.3810   11.6990 H   0  0  0  0  0  0  0  0  0  0  0  0
   18.3060    2.2670   11.3830 H   0  0  0  0  0  0  0  0  0  0  0  0
   13.1380    4.0980   10.9820 H   0  0  0  0  0  0  0  0  0  0  0  0
   14.9500    7.5340   10.6020 H   0  0  0  0  0  0  0  0  0  0  0  0
   16.3180    7.8510   11.7770 H   0  0  0  0  0  0  0  0  0  0  0  0
   15.1440    7.4810   13.5960 H   0  0  0  0  0  0  0  0  0  0  0  0
   13.9540    6.3410   12.7380 H   0  0  0  0  0  0  0  0  0  0  0  0
   14.1430    9.2620   12.2160 H   0  0  0  0  0  0  0  0  0  0  0  0
   11.8620    9.0970   11.7270 H   0  0  0  0  0  0  0  0  0  0  0  0
   12.9390    8.1610   10.6120 H   0  0  0  0  0  0  0  0  0  0  0  0
   12.3300    6.0590   11.5430 H   0  0  0  0  0  0  0  0  0  0  0  0
   10.8410    6.9980   11.3290 H   0  0  0  0  0  0  0  0  0  0  0  0
   10.3570    7.1680   13.5120 H   0  0  0  0  0  0  0  0  0  0  0  0
   11.4160    5.7080   13.6120 H   0  0  0  0  0  0  0  0  0  0  0  0
   11.6550    7.7630   15.2380 H   0  0  0  0  0  0  0  0  0  0  0  0
   13.0300    6.7640   14.7650 H   0  0  0  0  0  0  0  0  0  0  0  0
   12.3220    9.5690   13.8090 H   0  0  0  0  0  0  0  0  0  0  0  0
   13.8580    8.8950   14.5550 H   0  0  0  0  0  0  0  0  0  0  0  0
  2  1  1  0  0  0  0
  3  4  1  0  0  0  0
  3  2  2  0  0  0  0
  4  5  2  0  0  0  0
  5  1  1  0  0  0  0
  5  6  1  0  0  0  0
  6  8  1  0  0  0  0
  7  6  2  0  0  0  0
  8  9  1  0  0  0  0
  8 31  1  0  0  0  0
  8 30  1  0  0  0  0
  9 17  1  0  0  0  0
  9 10  1  0  0  0  0
 10 15  2  0  0  0  0
 10 11  1  0  0  0  0
 11 12  2  0  0  0  0
 12 13  1  0  0  0  0
 12 32  1  0  0  0  0
 13 33  1  0  0  0  0
 14 34  1  0  0  0  0
 14 13  2  0  0  0  0
 15 14  1  0  0  0  0
 16 19  1  0  0  0  0
 16 11  1  0  0  0  0
 17 16  1  0  0  0  0
 18 17  2  0  0  0  0
 19 38  1  0  0  0  0
 19 20  1  0  0  0  0
 20 40  1  0  0  0  0
 20 39  1  0  0  0  0
 21 20  1  0  0  0  0
 21 26  1  0  0  0  0
 22 42  1  0  0  0  0
 22 23  1  0  0  0  0
 22 21  1  0  0  0  0
 23 24  1  0  0  0  0
 24 46  1  0  0  0  0
 24 47  1  0  0  0  0
 24 25  1  0  0  0  0
 25 49  1  0  0  0  0
 25 48  1  0  0  0  0
 26 25  1  0  0  0  0
 26 51  1  0  0  0  0
 27  2  1  0  0  0  0
 28  3  1  0  0  0  0
 29  4  1  0  0  0  0
 35 15  1  0  0  0  0
 36 18  1  0  0  0  0
 37 19  1  0  0  0  0
 41 21  1  0  0  0  0
 43 22  1  0  0  0  0
 44 23  1  0  0  0  0
 45 23  1  0  0  0  0
 50 26  1  0  0  0  0
M  END
>  <Pose>
1

>  <Score>
-6.53

$$$$
