
 OpenBabel03172210413D

 58 61  0  0  1  0  0  0  0  0999 V2000
   11.3020    1.9920    9.9220 S   0  0  0  0  0  0  0  0  0  0  0  0
   11.6580    0.5910    9.0200 C   0  0  0  0  0  0  0  0  0  0  0  0
   12.9420    0.7370    8.7620 N   0  0  0  0  0  0  0  0  0  0  0  0
   13.5760    1.7830    9.1970 C   0  0  0  0  0  0  0  0  0  0  0  0
   12.8600    2.7050    9.9210 C   0  0  0  0  0  0  0  0  0  0  0  0
   13.2990    3.9970   10.4930 C   0  0  0  0  0  0  0  0  0  0  0  0
   12.4740    4.9970   10.5860 C   0  0  0  0  0  0  0  0  0  0  0  0
   12.8060    6.3420   11.1520 C   0  0  1  0  0  0  0  0  0  0  0  0
   11.5640    6.7440   11.7560 N   0  0  0  0  0  0  0  0  0  0  0  0
   10.5390    6.2190   10.9000 C   0  0  0  0  0  0  0  0  0  0  0  0
    9.3720    6.6400   10.8140 O   0  0  0  0  0  0  0  0  0  0  0  0
   11.0910    5.1060   10.1400 C   0  0  0  0  0  0  0  0  0  0  0  0
   10.5660    4.3570    9.2720 O   0  0  0  0  0  0  0  0  0  0  0  0
   11.4350    7.5250   12.9500 C   0  0  0  0  0  0  0  0  0  0  0  0
   10.3990    7.0780   13.8940 C   0  0  0  0  0  0  0  0  0  0  0  0
    9.0690    7.6140   13.7600 C   0  0  0  0  0  0  0  0  0  0  0  0
    8.0870    7.7960   14.7190 N   0  0  0  0  0  4  0  0  0  0  0  0
    7.9850    6.5840   15.6140 C   0  0  0  0  0  0  0  0  0  0  0  0
    7.1960    5.5260   14.9150 C   0  0  0  0  0  0  0  0  0  0  0  0
    5.8840    5.9780   14.8280 O   0  0  0  0  0  0  0  0  0  0  0  0
    5.9130    7.0270   13.8820 C   0  0  0  0  0  0  0  0  0  0  0  0
    6.7580    8.1680   14.3780 C   0  0  0  0  0  0  0  0  0  0  0  0
   13.9610    6.2610   12.0590 C   0  0  0  0  0  0  0  0  0  0  0  0
   14.0600    5.4930   13.1870 C   0  0  0  0  0  0  0  0  0  0  0  0
   15.1600    5.4490   14.0130 C   0  0  0  0  0  0  0  0  0  0  0  0
   16.2470    6.2250   13.6980 C   0  0  0  0  0  0  0  0  0  0  0  0
   16.2100    7.0160   12.5800 C   0  0  0  0  0  0  0  0  0  0  0  0
   15.0940    7.0360   11.7760 C   0  0  0  0  0  0  0  0  0  0  0  0
   17.7790    6.1600   14.8490 B   0  0  0  0  0  0  0  0  0  0  0  0
   14.6210    4.1510   10.9430 O   0  0  0  0  0  0  0  0  0  0  0  0
   15.0520    2.0070    8.8800 C   0  0  0  0  0  0  0  0  0  0  0  0
   10.7660   -0.5470    8.6020 C   0  0  0  0  0  0  0  0  0  0  0  0
   13.0150    7.0580   10.3330 H   0  0  0  0  0  0  0  0  0  0  0  0
   12.3950    7.6930   13.4060 H   0  0  0  0  0  0  0  0  0  0  0  0
   11.1270    8.5790   12.5710 H   0  0  0  0  0  0  0  0  0  0  0  0
   10.4730    5.9540   13.9480 H   0  0  0  0  0  0  0  0  0  0  0  0
   10.8210    7.3380   14.9340 H   0  0  0  0  0  0  0  0  0  0  0  0
    9.2120    8.6020   13.1330 H   0  0  0  0  0  0  0  0  0  0  0  0
    8.5630    6.9970   12.9140 H   0  0  0  0  0  0  0  0  0  0  0  0
    8.4020    8.5090   15.4200 H   0  0  0  0  0  0  0  0  0  0  0  0
    8.9760    6.3370   15.9510 H   0  0  0  0  0  0  0  0  0  0  0  0
    7.3880    6.9070   16.4850 H   0  0  0  0  0  0  0  0  0  0  0  0
    7.2840    4.5950   15.5080 H   0  0  0  0  0  0  0  0  0  0  0  0
    7.5220    5.3310   13.8760 H   0  0  0  0  0  0  0  0  0  0  0  0
    4.8660    7.3770   13.7870 H   0  0  0  0  0  0  0  0  0  0  0  0
    6.2110    6.5920   12.9310 H   0  0  0  0  0  0  0  0  0  0  0  0
    6.1900    8.4980   15.3360 H   0  0  0  0  0  0  0  0  0  0  0  0
    6.6690    9.0250   13.7420 H   0  0  0  0  0  0  0  0  0  0  0  0
   13.2150    4.8730   13.4500 H   0  0  0  0  0  0  0  0  0  0  0  0
   15.1380    4.8030   14.8890 H   0  0  0  0  0  0  0  0  0  0  0  0
   17.0970    7.6230   12.3600 H   0  0  0  0  0  0  0  0  0  0  0  0
   15.0820    7.6660   10.9020 H   0  0  0  0  0  0  0  0  0  0  0  0
   15.3250    3.0410    9.0340 H   0  0  0  0  0  0  0  0  0  0  0  0
   15.6910    1.3180    9.4630 H   0  0  0  0  0  0  0  0  0  0  0  0
   15.2350    1.7600    7.8030 H   0  0  0  0  0  0  0  0  0  0  0  0
    9.7280   -0.1420    8.4730 H   0  0  0  0  0  0  0  0  0  0  0  0
   11.0580   -0.9060    7.5800 H   0  0  0  0  0  0  0  0  0  0  0  0
   10.7800   -1.3620    9.3290 H   0  0  0  0  0  0  0  0  0  0  0  0
  2  1  1  0  0  0  0
  3  2  2  0  0  0  0
  3  4  1  0  0  0  0
  4  5  2  0  0  0  0
  5  1  1  0  0  0  0
  5  6  1  0  0  0  0
  6  7  2  0  0  0  0
  6 30  1  0  0  0  0
  7  8  1  0  0  0  0
  8 33  1  6  0  0  0
  8  9  1  0  0  0  0
  8 23  1  0  0  0  0
  9 14  1  0  0  0  0
 10  9  1  0  0  0  0
 11 10  2  0  0  0  0
 12  7  1  0  0  0  0
 12 10  1  0  0  0  0
 13 12  2  0  0  0  0
 14 34  1  0  0  0  0
 14 15  1  0  0  0  0
 15 36  1  0  0  0  0
 15 37  1  0  0  0  0
 16 15  1  0  0  0  0
 16 17  1  0  0  0  0
 17 40  1  0  0  0  0
 17 18  1  0  0  0  0
 18 41  1  0  0  0  0
 18 42  1  0  0  0  0
 19 43  1  0  0  0  0
 19 18  1  0  0  0  0
 20 19  1  0  0  0  0
 21 22  1  0  0  0  0
 21 20  1  0  0  0  0
 22 17  1  0  0  0  0
 22 47  1  0  0  0  0
 23 24  1  0  0  0  0
 24 49  1  0  0  0  0
 24 25  2  0  0  0  0
 25 50  1  0  0  0  0
 26 25  1  0  0  0  0
 26 29  1  0  0  0  0
 27 26  2  0  0  0  0
 28 23  2  0  0  0  0
 28 27  1  0  0  0  0
 31 53  1  0  0  0  0
 31  4  1  0  0  0  0
 31 54  1  0  0  0  0
 32  2  1  0  0  0  0
 32 58  1  0  0  0  0
 35 14  1  0  0  0  0
 38 16  1  0  0  0  0
 39 16  1  0  0  0  0
 44 19  1  0  0  0  0
 45 21  1  0  0  0  0
 46 21  1  0  0  0  0
 48 22  1  0  0  0  0
 51 27  1  0  0  0  0
 52 28  1  0  0  0  0
 55 31  1  0  0  0  0
 56 32  1  0  0  0  0
 57 32  1  0  0  0  0
M  END
>  <Pose>
1

>  <Score>
-6.21

$$$$
