
 OpenBabel03172210413D

 46 49  0  0  1  0  0  0  0  0999 V2000
   12.5150    8.1470   11.6400 S   0  0  0  0  0  0  0  0  0  0  0  0
   11.3160    7.0740   11.0680 C   0  0  0  0  0  0  0  0  0  0  0  0
   10.7010    6.6600   12.2160 C   0  0  0  0  0  0  0  0  0  0  0  0
   11.1690    7.1680   13.3840 C   0  0  0  0  0  0  0  0  0  0  0  0
   12.2170    8.0500   13.3050 C   0  0  0  0  0  0  0  0  0  0  0  0
   12.8220    8.6760   14.5170 C   0  0  0  0  0  0  0  0  0  0  0  0
   11.9030    8.8910   15.5820 N   0  0  0  0  0  4  0  0  0  0  0  0
   10.6530    8.2180   15.4880 C   0  0  0  0  0  0  0  0  0  0  0  0
   10.6760    6.8850   14.8080 C   0  0  0  0  0  0  0  0  0  0  0  0
   12.5390    8.6710   16.8750 C   0  0  0  0  0  0  0  0  0  0  0  0
    9.5810    5.6970   11.9810 C   0  0  0  0  0  0  0  0  0  0  0  0
    8.9300    5.2360   12.9740 O   0  0  0  0  0  0  0  0  0  0  0  0
    9.2560    5.3050   10.6620 N   0  0  0  0  0  0  0  0  0  0  0  0
   10.2590    5.3080    9.6200 C   0  0  1  0  0  0  0  0  0  0  0  0
   10.9180    6.6070    9.7500 N   0  0  0  0  0  0  0  0  0  0  0  0
   11.2220    4.2190    9.9310 C   0  0  0  0  0  0  0  0  0  0  0  0
   12.4700    4.5070   10.4410 C   0  0  0  0  0  0  0  0  0  0  0  0
   13.3770    3.5120   10.7360 C   0  0  0  0  0  0  0  0  0  0  0  0
   13.0310    2.1850   10.5150 C   0  0  0  0  0  0  0  0  0  0  0  0
   11.7900    1.8680   10.0060 C   0  0  0  0  0  0  0  0  0  0  0  0
   10.9180    2.8720    9.7250 C   0  0  0  0  0  0  0  0  0  0  0  0
   11.4940    0.5330    9.8050 O   0  0  0  0  0  0  0  0  0  0  0  0
   11.2240   -0.0700    8.5790 C   0  0  0  0  0  0  0  0  0  0  0  0
    9.9210   -0.8390    8.6130 C   0  0  0  0  0  0  0  0  0  0  0  0
   13.9320    1.1630   10.8050 O   0  0  0  0  0  0  0  0  0  0  0  0
   15.1060    3.8950   11.4410 B   0  0  0  0  0  0  0  0  0  0  0  0
   13.6080    7.9650   14.8730 H   0  0  0  0  0  0  0  0  0  0  0  0
   13.3560    9.5930   14.2050 H   0  0  0  0  0  0  0  0  0  0  0  0
   11.6800    9.9350   15.5790 H   0  0  0  0  0  0  0  0  0  0  0  0
    9.8750    8.8480   15.0100 H   0  0  0  0  0  0  0  0  0  0  0  0
   10.2860    8.0410   16.5370 H   0  0  0  0  0  0  0  0  0  0  0  0
   11.3460    6.1640   15.3020 H   0  0  0  0  0  0  0  0  0  0  0  0
    9.6320    6.5330   14.7630 H   0  0  0  0  0  0  0  0  0  0  0  0
   12.2280    9.4200   17.6270 H   0  0  0  0  0  0  0  0  0  0  0  0
   13.6480    8.7420   16.7350 H   0  0  0  0  0  0  0  0  0  0  0  0
   12.2900    7.6740   17.2890 H   0  0  0  0  0  0  0  0  0  0  0  0
    8.2810    5.0090   10.4320 H   0  0  0  0  0  0  0  0  0  0  0  0
    9.8220    5.2120    8.6220 H   0  0  0  0  0  0  0  0  0  0  0  0
   11.1300    7.2390    8.9610 H   0  0  0  0  0  0  0  0  0  0  0  0
   12.7610    5.5220   10.6200 H   0  0  0  0  0  0  0  0  0  0  0  0
    9.9500    2.6580    9.3300 H   0  0  0  0  0  0  0  0  0  0  0  0
   11.2060    0.7200    7.7990 H   0  0  0  0  0  0  0  0  0  0  0  0
   12.0300   -0.7810    8.3000 H   0  0  0  0  0  0  0  0  0  0  0  0
    9.4840   -0.7150    9.6250 H   0  0  0  0  0  0  0  0  0  0  0  0
    9.2400   -0.5110    7.7970 H   0  0  0  0  0  0  0  0  0  0  0  0
   10.1120   -1.9430    8.5190 H   0  0  0  0  0  0  0  0  0  0  0  0
  1  5  1  0  0  0  0
  2  1  1  0  0  0  0
  2  3  2  0  0  0  0
  3  4  1  0  0  0  0
  4  9  1  0  0  0  0
  5  4  2  0  0  0  0
  5  6  1  0  0  0  0
  6 27  1  0  0  0  0
  6  7  1  0  0  0  0
  7 10  1  0  0  0  0
  8  7  1  0  0  0  0
  8 31  1  0  0  0  0
  9 32  1  0  0  0  0
  9  8  1  0  0  0  0
 10 36  1  0  0  0  0
 10 34  1  0  0  0  0
 11  3  1  0  0  0  0
 11 12  2  0  0  0  0
 13 11  1  0  0  0  0
 14 38  1  6  0  0  0
 14 15  1  0  0  0  0
 14 16  1  0  0  0  0
 14 13  1  0  0  0  0
 15  2  1  0  0  0  0
 16 17  1  0  0  0  0
 17 40  1  0  0  0  0
 17 18  2  0  0  0  0
 18 26  1  0  0  0  0
 19 18  1  0  0  0  0
 19 25  1  0  0  0  0
 20 19  2  0  0  0  0
 21 16  2  0  0  0  0
 21 20  1  0  0  0  0
 22 20  1  0  0  0  0
 23 24  1  0  0  0  0
 23 22  1  0  0  0  0
 24 44  1  0  0  0  0
 28  6  1  0  0  0  0
 29  7  1  0  0  0  0
 30  8  1  0  0  0  0
 33  9  1  0  0  0  0
 35 10  1  0  0  0  0
 37 13  1  0  0  0  0
 39 15  1  0  0  0  0
 41 21  1  0  0  0  0
 42 23  1  0  0  0  0
 43 23  1  0  0  0  0
 45 24  1  0  0  0  0
 46 24  1  0  0  0  0
M  END
>  <Pose>
1

>  <Score>
-5.91

$$$$
