
 OpenBabel03172210413D

 40 43  0  0  1  0  0  0  0  0999 V2000
   14.3260    5.7070   12.7770 S   0  0  0  0  0  0  0  0  0  0  0  0
   12.5850    5.8200   12.2880 C   0  0  2  0  0  0  0  0  0  0  0  0
   12.3450    4.3830   11.9130 C   0  0  0  0  0  0  0  0  0  0  0  0
   13.5100    3.7680   11.3530 N   0  0  0  0  0  0  0  0  0  0  0  0
   14.6800    4.3430   11.6740 C   0  0  2  0  0  0  0  0  0  0  0  0
   15.6760    3.6880   11.0660 N   0  0  0  0  0  0  0  0  0  0  0  0
   15.1460    2.6750   10.3440 C   0  0  0  0  0  0  0  0  0  0  0  0
   13.7830    2.7110   10.5140 C   0  0  0  0  0  0  0  0  0  0  0  0
   12.8600    1.7910    9.8930 C   0  0  0  0  0  0  0  0  0  0  0  0
   11.4910    1.9460   10.1740 C   0  0  0  0  0  0  0  0  0  0  0  0
   10.5560    1.1330    9.5870 C   0  0  0  0  0  0  0  0  0  0  0  0
   10.8840    0.1350    8.7030 C   0  0  0  0  0  0  0  0  0  0  0  0
   12.2170   -0.0360    8.4110 C   0  0  0  0  0  0  0  0  0  0  0  0
   13.1730    0.7940    9.0090 C   0  0  0  0  0  0  0  0  0  0  0  0
    9.8590   -0.6610    8.1410 N   0  0  0  0  0  0  0  0  0  0  0  0
    8.6920   -0.5630    8.5350 O   0  0  0  0  0  0  0  0  0  0  0  0
   10.1690   -1.5460    7.1530 O   0  0  0  0  0  0  0  0  0  0  0  0
   17.0640    3.9860   11.1510 C   0  0  0  0  0  0  0  0  0  0  0  0
   17.9940    3.0370   11.5090 C   0  0  0  0  0  0  0  0  0  0  0  0
   19.3450    3.3000   11.5980 C   0  0  0  0  0  0  0  0  0  0  0  0
   19.8090    4.5670   11.3220 C   0  0  0  0  0  0  0  0  0  0  0  0
   18.9030    5.5480   10.9590 C   0  0  0  0  0  0  0  0  0  0  0  0
   17.5560    5.2580   10.8760 C   0  0  0  0  0  0  0  0  0  0  0  0
   21.6760    4.9690   11.4360 B   0  0  0  0  0  0  0  0  0  0  0  0
   12.4170    6.6570   11.0430 C   0  0  0  0  0  0  0  0  0  0  0  0
   11.9340    6.1410   13.1130 H   0  0  0  0  0  0  0  0  0  0  0  0
   12.0290    3.8560   12.8430 H   0  0  0  0  0  0  0  0  0  0  0  0
   11.5060    4.3590   11.1630 H   0  0  0  0  0  0  0  0  0  0  0  0
   15.7270    1.9580    9.7340 H   0  0  0  0  0  0  0  0  0  0  0  0
   11.1750    2.7180   10.8710 H   0  0  0  0  0  0  0  0  0  0  0  0
    9.5080    1.2940    9.8400 H   0  0  0  0  0  0  0  0  0  0  0  0
   12.5280   -0.8100    7.7190 H   0  0  0  0  0  0  0  0  0  0  0  0
   14.1810    0.6210    8.7160 H   0  0  0  0  0  0  0  0  0  0  0  0
   17.6250    2.0260   11.7300 H   0  0  0  0  0  0  0  0  0  0  0  0
   20.0030    2.4940   11.8860 H   0  0  0  0  0  0  0  0  0  0  0  0
   19.2550    6.5570   10.7360 H   0  0  0  0  0  0  0  0  0  0  0  0
   16.8070    5.9940   10.5960 H   0  0  0  0  0  0  0  0  0  0  0  0
   12.5260    7.7270   11.2380 H   0  0  0  0  0  0  0  0  0  0  0  0
   13.1990    6.3190   10.3250 H   0  0  0  0  0  0  0  0  0  0  0  0
   11.4130    6.4600   10.6230 H   0  0  0  0  0  0  0  0  0  0  0  0
  2  1  1  0  0  0  0
  2 26  1  1  0  0  0
  3  2  1  0  0  0  0
  3 27  1  0  0  0  0
  4  5  1  0  0  0  0
  4  3  1  0  0  0  0
  5  1  1  1  0  0  0
  6 18  1  0  0  0  0
  6  5  1  0  0  0  0
  7  8  2  0  0  0  0
  7  6  1  0  0  0  0
  8  4  1  0  0  0  0
  9 10  1  0  0  0  0
  9  8  1  0  0  0  0
 10 30  1  0  0  0  0
 11 31  1  0  0  0  0
 11 10  2  0  0  0  0
 12 11  1  0  0  0  0
 13 12  2  0  0  0  0
 13 14  1  0  0  0  0
 14  9  2  0  0  0  0
 15 16  2  0  0  0  0
 15 12  1  0  0  0  0
 17 15  2  0  0  0  0
 18 19  1  0  0  0  0
 19 20  2  0  0  0  0
 19 34  1  0  0  0  0
 20 35  1  0  0  0  0
 21 24  1  0  0  0  0
 21 20  1  0  0  0  0
 22 21  2  0  0  0  0
 23 22  1  0  0  0  0
 23 18  2  0  0  0  0
 25 38  1  0  0  0  0
 25  2  1  0  0  0  0
 28  3  1  0  0  0  0
 29  7  1  0  0  0  0
 32 13  1  0  0  0  0
 33 14  1  0  0  0  0
 36 22  1  0  0  0  0
 37 23  1  0  0  0  0
 39 25  1  0  0  0  0
 40 25  1  0  0  0  0
M  END
>  <Pose>
1

>  <Score>
-5.79

$$$$
