
 OpenBabel03172210413D

 42 45  0  0  1  0  0  0  0  0999 V2000
   15.4410    4.9800   11.4480 S   0  0  0  0  0  0  0  0  0  0  0  0
   17.0510    4.4640   12.1090 C   0  0  0  0  0  0  0  0  0  0  0  0
   17.3060    3.0510   11.6160 C   0  0  0  0  0  0  0  0  0  0  0  0
   16.9580    2.9410   10.1460 C   0  0  0  0  0  0  0  0  0  0  0  0
   15.5320    2.6710   10.0740 N   0  0  0  0  0  0  0  0  0  0  0  0
   14.7170    3.5580   10.6510 C   0  0  2  0  0  0  0  0  0  0  0  0
   13.4150    3.1370   10.4810 N   0  0  0  0  0  0  0  0  0  0  0  0
   13.4190    1.9990    9.8060 C   0  0  0  0  0  0  0  0  0  0  0  0
   14.7610    1.7210    9.5590 C   0  0  0  0  0  0  0  0  0  0  0  0
   12.3260    1.1450    9.3680 C   0  0  0  0  0  0  0  0  0  0  0  0
   11.0030    1.5640    9.5760 C   0  0  0  0  0  0  0  0  0  0  0  0
    9.9350    0.8050    9.1860 C   0  0  0  0  0  0  0  0  0  0  0  0
   10.0730   -0.4160    8.5650 C   0  0  0  0  0  0  0  0  0  0  0  0
   11.3620   -0.8340    8.3570 C   0  0  0  0  0  0  0  0  0  0  0  0
   12.4730   -0.0720    8.7490 C   0  0  0  0  0  0  0  0  0  0  0  0
    8.9640   -1.1580    8.1830 O   0  0  0  0  0  0  0  0  0  0  0  0
    8.8830   -1.7010    6.8790 C   0  0  0  0  0  0  0  0  0  0  0  0
   12.3100    3.8810   10.9890 C   0  0  0  0  0  0  0  0  0  0  0  0
   11.5040    4.6210   10.1430 C   0  0  0  0  0  0  0  0  0  0  0  0
   10.4090    5.3280   10.6000 C   0  0  0  0  0  0  0  0  0  0  0  0
   10.1260    5.2840   11.9500 C   0  0  0  0  0  0  0  0  0  0  0  0
   10.9350    4.5440   12.7860 C   0  0  0  0  0  0  0  0  0  0  0  0
   12.0310    3.8310   12.3520 C   0  0  0  0  0  0  0  0  0  0  0  0
    8.6250    6.2360   12.6790 B   0  0  0  0  0  0  0  0  0  0  0  0
   17.8510    5.1200   11.7220 H   0  0  0  0  0  0  0  0  0  0  0  0
   16.9690    4.5010   13.2110 H   0  0  0  0  0  0  0  0  0  0  0  0
   18.3550    2.7460   11.8140 H   0  0  0  0  0  0  0  0  0  0  0  0
   16.6570    2.3730   12.2140 H   0  0  0  0  0  0  0  0  0  0  0  0
   17.0950    3.9720    9.7080 H   0  0  0  0  0  0  0  0  0  0  0  0
   17.5570    2.1890    9.6240 H   0  0  0  0  0  0  0  0  0  0  0  0
   15.1830    0.8720    9.0290 H   0  0  0  0  0  0  0  0  0  0  0  0
   10.8430    2.5140   10.0590 H   0  0  0  0  0  0  0  0  0  0  0  0
    8.8990    1.1420    9.3530 H   0  0  0  0  0  0  0  0  0  0  0  0
   11.5440   -1.7800    7.8770 H   0  0  0  0  0  0  0  0  0  0  0  0
   13.4540   -0.4510    8.5610 H   0  0  0  0  0  0  0  0  0  0  0  0
    7.9890   -2.3020    6.7240 H   0  0  0  0  0  0  0  0  0  0  0  0
    9.8230   -2.2970    6.6810 H   0  0  0  0  0  0  0  0  0  0  0  0
    8.9000   -0.8780    6.1480 H   0  0  0  0  0  0  0  0  0  0  0  0
   11.6920    4.6810    9.0740 H   0  0  0  0  0  0  0  0  0  0  0  0
    9.7680    5.9110    9.9560 H   0  0  0  0  0  0  0  0  0  0  0  0
   10.7340    4.4910   13.8650 H   0  0  0  0  0  0  0  0  0  0  0  0
   12.6570    3.2550   13.0220 H   0  0  0  0  0  0  0  0  0  0  0  0
  1  2  1  0  0  0  0
  2 26  1  0  0  0  0
  3 27  1  0  0  0  0
  3  2  1  0  0  0  0
  3 28  1  0  0  0  0
  4  3  1  0  0  0  0
  5  4  1  0  0  0  0
  5  6  1  0  0  0  0
  6  1  1  6  0  0  0
  7  6  1  0  0  0  0
  7 18  1  0  0  0  0
  8  7  1  0  0  0  0
  9  8  2  0  0  0  0
  9  5  1  0  0  0  0
 10 11  1  0  0  0  0
 10  8  1  0  0  0  0
 11 32  1  0  0  0  0
 12 33  1  0  0  0  0
 12 11  2  0  0  0  0
 13 12  1  0  0  0  0
 14 13  2  0  0  0  0
 14 15  1  0  0  0  0
 15 10  2  0  0  0  0
 16 13  1  0  0  0  0
 17 16  1  0  0  0  0
 18 23  1  0  0  0  0
 19 20  1  0  0  0  0
 19 18  2  0  0  0  0
 20 21  2  0  0  0  0
 21 24  1  0  0  0  0
 21 22  1  0  0  0  0
 22 41  1  0  0  0  0
 23 22  2  0  0  0  0
 23 42  1  0  0  0  0
 25  2  1  0  0  0  0
 29  4  1  0  0  0  0
 30  4  1  0  0  0  0
 31  9  1  0  0  0  0
 34 14  1  0  0  0  0
 35 15  1  0  0  0  0
 36 17  1  0  0  0  0
 37 17  1  0  0  0  0
 38 17  1  0  0  0  0
 39 19  1  0  0  0  0
 40 20  1  0  0  0  0
M  END
>  <Pose>
1

>  <Score>
-5.74

$$$$
