
 OpenBabel03172210413D

 45 48  0  0  1  0  0  0  0  0999 V2000
   11.5610    6.9930   13.8660 S   0  0  0  0  0  0  0  0  0  0  0  0
   13.1050    7.9260   13.5280 C   0  0  0  0  0  0  0  0  0  0  0  0
   12.8360    8.6330   12.1970 C   0  0  0  0  0  0  0  0  0  0  0  0
   12.7300    7.5610   11.1170 C   0  0  0  0  0  0  0  0  0  0  0  0
   11.3750    7.0660   11.1370 N   0  0  1  0  0  0  0  0  0  0  0  0
   10.7810    6.7920   12.2690 C   0  0  2  0  0  0  0  0  0  0  0  0
    9.4380    6.3400   11.9520 N   0  0  0  0  0  0  0  0  0  0  0  0
    9.6690    5.6000   10.7300 C   0  0  2  0  0  0  0  0  0  0  0  0
   10.4300    6.7970   10.0490 C   0  0  0  0  0  0  0  0  0  0  0  0
    8.5600    5.2470   10.0280 O   0  0  0  0  0  0  0  0  0  0  0  0
   10.6390    4.5270   10.9780 C   0  0  0  0  0  0  0  0  0  0  0  0
   10.7610    3.8870   12.1990 C   0  0  0  0  0  0  0  0  0  0  0  0
   11.7360    2.8920   12.3690 C   0  0  0  0  0  0  0  0  0  0  0  0
   12.5720    2.5260   11.3830 C   0  0  0  0  0  0  0  0  0  0  0  0
   12.4730    3.1560   10.1240 C   0  0  0  0  0  0  0  0  0  0  0  0
   11.4990    4.1310    9.9980 C   0  0  0  0  0  0  0  0  0  0  0  0
   13.5720    1.5280   11.5140 O   0  0  0  0  0  0  0  0  0  0  0  0
   14.3030    1.0970   10.3860 C   0  0  0  0  0  0  0  0  0  0  0  0
    8.2510    6.6470   12.6480 C   0  0  0  0  0  0  0  0  0  0  0  0
    8.2200    6.3870   14.0400 C   0  0  0  0  0  0  0  0  0  0  0  0
    7.0820    6.6060   14.7970 C   0  0  0  0  0  0  0  0  0  0  0  0
    5.9350    7.0840   14.2260 C   0  0  0  0  0  0  0  0  0  0  0  0
    5.9340    7.3460   12.8710 C   0  0  0  0  0  0  0  0  0  0  0  0
    7.0960    7.1230   12.1080 C   0  0  0  0  0  0  0  0  0  0  0  0
    4.3350    7.3820   15.2250 B   0  0  0  0  0  0  0  0  0  0  0  0
   13.1920    8.6770   14.3330 H   0  0  0  0  0  0  0  0  0  0  0  0
   13.9640    7.2480   13.4480 H   0  0  0  0  0  0  0  0  0  0  0  0
   13.5850    9.3960   11.9830 H   0  0  0  0  0  0  0  0  0  0  0  0
   11.8330    9.1340   12.3270 H   0  0  0  0  0  0  0  0  0  0  0  0
   12.9520    8.0270   10.1300 H   0  0  0  0  0  0  0  0  0  0  0  0
   13.4610    6.7520   11.2370 H   0  0  0  0  0  0  0  0  0  0  0  0
   10.8660    6.5300    9.1140 H   0  0  0  0  0  0  0  0  0  0  0  0
    9.6730    7.6080   10.0420 H   0  0  0  0  0  0  0  0  0  0  0  0
    7.9030    4.8240   10.6630 H   0  0  0  0  0  0  0  0  0  0  0  0
   10.1170    4.1530   13.0080 H   0  0  0  0  0  0  0  0  0  0  0  0
   11.7930    2.4210   13.3430 H   0  0  0  0  0  0  0  0  0  0  0  0
   13.1320    2.8810    9.3330 H   0  0  0  0  0  0  0  0  0  0  0  0
   11.4490    4.5870    9.0170 H   0  0  0  0  0  0  0  0  0  0  0  0
   15.2180    0.5960   10.7450 H   0  0  0  0  0  0  0  0  0  0  0  0
   14.6350    1.9220    9.7250 H   0  0  0  0  0  0  0  0  0  0  0  0
   13.7040    0.3800    9.7530 H   0  0  0  0  0  0  0  0  0  0  0  0
    9.0960    6.0110   14.5200 H   0  0  0  0  0  0  0  0  0  0  0  0
    7.0730    6.4000   15.8670 H   0  0  0  0  0  0  0  0  0  0  0  0
    5.0400    7.7150   12.4040 H   0  0  0  0  0  0  0  0  0  0  0  0
    7.0650    7.3330   11.0400 H   0  0  0  0  0  0  0  0  0  0  0  0
  2  1  1  0  0  0  0
  2 26  1  0  0  0  0
  3 29  1  0  0  0  0
  3  2  1  0  0  0  0
  4  5  1  0  0  0  0
  4 31  1  0  0  0  0
  4  3  1  0  0  0  0
  5  9  1  1  0  0  0
  5  6  1  0  0  0  0
  6  1  1  1  0  0  0
  7  6  1  0  0  0  0
  7 19  1  0  0  0  0
  8 10  1  6  0  0  0
  8 11  1  0  0  0  0
  8  7  1  0  0  0  0
  9  8  1  0  0  0  0
 10 34  1  0  0  0  0
 11 12  1  0  0  0  0
 12 13  2  0  0  0  0
 12 35  1  0  0  0  0
 13 36  1  0  0  0  0
 14 17  1  0  0  0  0
 14 13  1  0  0  0  0
 15 14  2  0  0  0  0
 16 15  1  0  0  0  0
 16 11  2  0  0  0  0
 18 39  1  0  0  0  0
 18 17  1  0  0  0  0
 19 20  1  0  0  0  0
 20 42  1  0  0  0  0
 20 21  2  0  0  0  0
 21 43  1  0  0  0  0
 22 21  1  0  0  0  0
 22 25  1  0  0  0  0
 23 22  2  0  0  0  0
 24 19  2  0  0  0  0
 24 23  1  0  0  0  0
 27  2  1  0  0  0  0
 28  3  1  0  0  0  0
 30  4  1  0  0  0  0
 32  9  1  0  0  0  0
 33  9  1  0  0  0  0
 37 15  1  0  0  0  0
 38 16  1  0  0  0  0
 40 18  1  0  0  0  0
 41 18  1  0  0  0  0
 44 23  1  0  0  0  0
 45 24  1  0  0  0  0
M  END
>  <Pose>
1

>  <Score>
-5.06

$$$$
