
 OpenBabel03172210413D

 49 52  0  0  1  0  0  0  0  0999 V2000
   16.3430    6.2080   14.9350 S   0  0  0  0  0  0  0  0  0  0  0  0
   15.3480    6.7300   16.3100 C   0  0  0  0  0  0  0  0  0  0  0  0
   13.9470    7.0520   15.8310 C   0  0  0  0  0  0  0  0  0  0  0  0
   14.0120    8.1750   14.8110 C   0  0  0  0  0  0  0  0  0  0  0  0
   14.5110    7.6700   13.5520 N   0  0  2  0  0  0  0  0  0  0  0  0
   13.9710    7.7000   12.2320 C   0  0  2  0  0  0  0  0  0  0  0  0
   15.2600    7.8130   11.4330 C   0  0  0  0  0  0  0  0  0  0  0  0
   16.1850    7.0010   12.1910 N   0  0  0  0  0  0  0  0  0  0  0  0
   15.7630    6.9760   13.4070 C   0  0  2  0  0  0  0  0  0  0  0  0
   17.3290    6.3130   11.7050 C   0  0  0  0  0  0  0  0  0  0  0  0
   18.1070    6.9700   10.7600 C   0  0  0  0  0  0  0  0  0  0  0  0
   19.2350    6.3470   10.2160 C   0  0  0  0  0  0  0  0  0  0  0  0
   19.5740    5.0680   10.6210 C   0  0  0  0  0  0  0  0  0  0  0  0
   18.8270    4.3900   11.5540 C   0  0  0  0  0  0  0  0  0  0  0  0
   17.7040    5.0720   12.0640 C   0  0  0  0  0  0  0  0  0  0  0  0
   19.1130    3.1110   12.0000 O   0  0  0  0  0  0  0  0  0  0  0  0
   19.9620    2.7820   13.0620 C   0  0  0  0  0  0  0  0  0  0  0  0
   17.7640    8.2430   10.3580 O   0  0  0  0  0  0  0  0  0  0  0  0
   18.1130    9.4290   11.0310 C   0  0  0  0  0  0  0  0  0  0  0  0
   13.1770    8.8290   12.0600 O   0  0  0  0  0  0  0  0  0  0  0  0
   13.2840    6.4700   11.7930 C   0  0  0  0  0  0  0  0  0  0  0  0
   13.5770    5.2010   12.1820 C   0  0  0  0  0  0  0  0  0  0  0  0
   12.8820    4.1020   11.6730 C   0  0  0  0  0  0  0  0  0  0  0  0
   11.8690    4.2620   10.7510 C   0  0  0  0  0  0  0  0  0  0  0  0
   11.5680    5.5280   10.3540 C   0  0  0  0  0  0  0  0  0  0  0  0
   12.2480    6.6040   10.8520 C   0  0  0  0  0  0  0  0  0  0  0  0
   10.9280    2.7420   10.0550 B   0  0  0  0  0  0  0  0  0  0  0  0
   15.2780    5.9380   17.1020 H   0  0  0  0  0  0  0  0  0  0  0  0
   15.7650    7.6790   16.7540 H   0  0  0  0  0  0  0  0  0  0  0  0
   13.5010    6.1460   15.3600 H   0  0  0  0  0  0  0  0  0  0  0  0
   13.3240    7.4060   16.6650 H   0  0  0  0  0  0  0  0  0  0  0  0
   12.9550    8.5290   14.6730 H   0  0  0  0  0  0  0  0  0  0  0  0
   14.6740    8.9640   15.2130 H   0  0  0  0  0  0  0  0  0  0  0  0
   14.9950    7.4410   10.4440 H   0  0  0  0  0  0  0  0  0  0  0  0
   15.5770    8.8720   11.4100 H   0  0  0  0  0  0  0  0  0  0  0  0
   19.8360    6.8790    9.4760 H   0  0  0  0  0  0  0  0  0  0  0  0
   20.4430    4.5580   10.2130 H   0  0  0  0  0  0  0  0  0  0  0  0
   17.1520    4.5140   12.7790 H   0  0  0  0  0  0  0  0  0  0  0  0
   19.7270    1.7410   13.4460 H   0  0  0  0  0  0  0  0  0  0  0  0
   20.9960    2.7660   12.6090 H   0  0  0  0  0  0  0  0  0  0  0  0
   19.8940    3.4760   13.9240 H   0  0  0  0  0  0  0  0  0  0  0  0
   17.9980    9.2990   12.1120 H   0  0  0  0  0  0  0  0  0  0  0  0
   19.1960    9.6720   10.8790 H   0  0  0  0  0  0  0  0  0  0  0  0
   17.4570   10.2790   10.7170 H   0  0  0  0  0  0  0  0  0  0  0  0
   13.5910    9.4410   11.4110 H   0  0  0  0  0  0  0  0  0  0  0  0
   14.3520    5.0390   12.8940 H   0  0  0  0  0  0  0  0  0  0  0  0
   13.1380    3.0780   12.0080 H   0  0  0  0  0  0  0  0  0  0  0  0
   10.7670    5.6220    9.6290 H   0  0  0  0  0  0  0  0  0  0  0  0
   11.9800    7.5890   10.5100 H   0  0  0  0  0  0  0  0  0  0  0  0
  1  2  1  0  0  0  0
  2 29  1  0  0  0  0
  2 28  1  0  0  0  0
  3  2  1  0  0  0  0
  3 31  1  0  0  0  0
  4 33  1  0  0  0  0
  4  3  1  0  0  0  0
  5  4  1  1  0  0  0
  6 20  1  6  0  0  0
  6  5  1  0  0  0  0
  7  8  1  0  0  0  0
  7  6  1  0  0  0  0
  8  9  1  0  0  0  0
  9  5  1  0  0  0  0
  9  1  1  6  0  0  0
 10 15  1  0  0  0  0
 10  8  1  0  0  0  0
 11 10  2  0  0  0  0
 12 13  2  0  0  0  0
 12 11  1  0  0  0  0
 13 14  1  0  0  0  0
 14 16  1  0  0  0  0
 14 15  2  0  0  0  0
 15 38  1  0  0  0  0
 16 17  1  0  0  0  0
 17 39  1  0  0  0  0
 17 41  1  0  0  0  0
 18 11  1  0  0  0  0
 18 19  1  0  0  0  0
 19 42  1  0  0  0  0
 21 22  1  0  0  0  0
 21  6  1  0  0  0  0
 22 46  1  0  0  0  0
 23 47  1  0  0  0  0
 23 22  2  0  0  0  0
 24 23  1  0  0  0  0
 25 24  2  0  0  0  0
 25 26  1  0  0  0  0
 26 21  2  0  0  0  0
 27 24  1  0  0  0  0
 30  3  1  0  0  0  0
 32  4  1  0  0  0  0
 34  7  1  0  0  0  0
 35  7  1  0  0  0  0
 36 12  1  0  0  0  0
 37 13  1  0  0  0  0
 40 17  1  0  0  0  0
 43 19  1  0  0  0  0
 44 19  1  0  0  0  0
 45 20  1  0  0  0  0
 48 25  1  0  0  0  0
 49 26  1  0  0  0  0
M  END
>  <Pose>
1

>  <Score>
-4.95

$$$$
