
 OpenBabel03172210413D

 43 46  0  0  1  0  0  0  0  0999 V2000
   12.2450    3.2550   12.1300 S   0  0  0  0  0  0  0  0  0  0  0  0
   11.4510    2.2850   10.7820 C   0  0  0  0  0  0  0  0  0  0  0  0
   10.7220    3.2380    9.8500 C   0  0  0  0  0  0  0  0  0  0  0  0
    9.9180    4.2480   10.6280 C   0  0  0  0  0  0  0  0  0  0  0  0
   10.7670    5.3060   11.0740 N   0  0  2  0  0  0  0  0  0  0  0  0
   10.7020    6.7530   11.1550 C   0  0  1  0  0  0  0  0  0  0  0  0
   12.1580    7.1680   11.0490 C   0  0  0  0  0  0  0  0  0  0  0  0
   12.8390    5.9830   11.6080 N   0  0  0  0  0  0  0  0  0  0  0  0
   12.0610    4.9760   11.6050 C   0  0  1  0  0  0  0  0  0  0  0  0
   14.1890    5.9790   12.0660 C   0  0  0  0  0  0  0  0  0  0  0  0
   15.0940    4.9740   11.8970 C   0  0  0  0  0  0  0  0  0  0  0  0
   16.4030    5.0450   12.3540 C   0  0  0  0  0  0  0  0  0  0  0  0
   16.8350    6.1770   13.0150 C   0  0  0  0  0  0  0  0  0  0  0  0
   15.9390    7.2220   13.2060 C   0  0  0  0  0  0  0  0  0  0  0  0
   14.6330    7.1280   12.7390 C   0  0  0  0  0  0  0  0  0  0  0  0
   18.6160    6.3670   13.6870 B   0  0  0  0  0  0  0  0  0  0  0  0
    9.9270    7.3030   10.1530 O   0  0  0  0  0  0  0  0  0  0  0  0
   10.1950    7.2060   12.4720 C   0  0  0  0  0  0  0  0  0  0  0  0
    9.4650    6.3390   13.2610 C   0  0  0  0  0  0  0  0  0  0  0  0
    9.0090    6.8070   14.4930 C   0  0  0  0  0  0  0  0  0  0  0  0
    9.2730    8.0770   14.9080 C   0  0  0  0  0  0  0  0  0  0  0  0
   10.0040    8.9560   14.1290 C   0  0  0  0  0  0  0  0  0  0  0  0
   10.4580    8.4790   12.8940 C   0  0  0  0  0  0  0  0  0  0  0  0
    8.2580    5.9240   15.3110 N   0  0  0  0  0  0  0  0  0  0  0  0
    7.6120    4.9730   14.8300 O   0  0  0  0  0  0  0  0  0  0  0  0
    8.2140    6.0800   16.6670 O   0  0  0  0  0  0  0  0  0  0  0  0
   10.7940    1.5200   11.1960 H   0  0  0  0  0  0  0  0  0  0  0  0
   12.2450    1.8010   10.1880 H   0  0  0  0  0  0  0  0  0  0  0  0
   10.0120    2.6430    9.2310 H   0  0  0  0  0  0  0  0  0  0  0  0
   11.4030    3.7660    9.1770 H   0  0  0  0  0  0  0  0  0  0  0  0
    9.0540    4.5830   10.0310 H   0  0  0  0  0  0  0  0  0  0  0  0
    9.5170    3.7340   11.5520 H   0  0  0  0  0  0  0  0  0  0  0  0
   12.4710    7.3490   10.0160 H   0  0  0  0  0  0  0  0  0  0  0  0
   12.4050    8.0440   11.6910 H   0  0  0  0  0  0  0  0  0  0  0  0
   14.8020    4.0690   11.3940 H   0  0  0  0  0  0  0  0  0  0  0  0
   17.1130    4.2390   12.2120 H   0  0  0  0  0  0  0  0  0  0  0  0
   16.2990    8.1040   13.7240 H   0  0  0  0  0  0  0  0  0  0  0  0
   13.9520    7.9600   12.9010 H   0  0  0  0  0  0  0  0  0  0  0  0
   10.3510    7.9820    9.6100 H   0  0  0  0  0  0  0  0  0  0  0  0
    9.2560    5.3370   12.9320 H   0  0  0  0  0  0  0  0  0  0  0  0
    8.9190    8.4410   15.8630 H   0  0  0  0  0  0  0  0  0  0  0  0
   10.2030    9.9420   14.4730 H   0  0  0  0  0  0  0  0  0  0  0  0
   11.0250    9.1800   12.3020 H   0  0  0  0  0  0  0  0  0  0  0  0
  2 27  1  0  0  0  0
  2  1  1  0  0  0  0
  3  4  1  0  0  0  0
  3  2  1  0  0  0  0
  4 32  1  0  0  0  0
  5  4  1  6  0  0  0
  5  6  1  0  0  0  0
  5  9  1  0  0  0  0
  6 17  1  6  0  0  0
  6 18  1  0  0  0  0
  7  6  1  0  0  0  0
  7  8  1  0  0  0  0
  7 34  1  0  0  0  0
  8 10  1  0  0  0  0
  9  8  1  0  0  0  0
  9  1  1  1  0  0  0
 10 15  1  0  0  0  0
 11 10  2  0  0  0  0
 11 12  1  0  0  0  0
 12 13  2  0  0  0  0
 13 14  1  0  0  0  0
 13 16  1  0  0  0  0
 14 37  1  0  0  0  0
 15 38  1  0  0  0  0
 15 14  2  0  0  0  0
 18 23  2  0  0  0  0
 18 19  1  0  0  0  0
 19 20  2  0  0  0  0
 20 21  1  0  0  0  0
 20 24  1  0  0  0  0
 21 41  1  0  0  0  0
 22 42  1  0  0  0  0
 22 21  2  0  0  0  0
 23 22  1  0  0  0  0
 24 26  2  0  0  0  0
 25 24  2  0  0  0  0
 28  2  1  0  0  0  0
 29  3  1  0  0  0  0
 30  3  1  0  0  0  0
 31  4  1  0  0  0  0
 33  7  1  0  0  0  0
 35 11  1  0  0  0  0
 36 12  1  0  0  0  0
 39 17  1  0  0  0  0
 40 19  1  0  0  0  0
 43 23  1  0  0  0  0
M  END
>  <Pose>
1

>  <Score>
-5.68

$$$$
