
 OpenBabel03172210413D

 41 44  0  0  1  0  0  0  0  0999 V2000
   12.0120    3.1800   12.1960 S   0  0  0  0  0  0  0  0  0  0  0  0
   11.6970    2.2770   10.6150 C   0  0  0  0  0  0  0  0  0  0  0  0
   10.9920    3.1750    9.6320 C   0  0  0  0  0  0  0  0  0  0  0  0
   10.1350    4.2390   10.2820 C   0  0  0  0  0  0  0  0  0  0  0  0
   10.8650    5.2720   10.9040 N   0  0  1  0  0  0  0  0  0  0  0  0
   10.8220    6.7290   11.1220 C   0  0  1  0  0  0  0  0  0  0  0  0
   12.3050    6.9960   11.0240 C   0  0  0  0  0  0  0  0  0  0  0  0
   12.8480    5.8780   11.7820 N   0  0  0  0  0  0  0  0  0  0  0  0
   12.0730    4.9120   11.6300 C   0  0  1  0  0  0  0  0  0  0  0  0
   14.0320    5.9250   12.6070 C   0  0  0  0  0  0  0  0  0  0  0  0
   15.1850    5.2480   12.3630 C   0  0  0  0  0  0  0  0  0  0  0  0
   16.2870    5.2840   13.2090 C   0  0  0  0  0  0  0  0  0  0  0  0
   16.2340    6.0320   14.3550 C   0  0  0  0  0  0  0  0  0  0  0  0
   15.0640    6.7230   14.6060 C   0  0  0  0  0  0  0  0  0  0  0  0
   13.9810    6.6860   13.7720 C   0  0  0  0  0  0  0  0  0  0  0  0
   17.7040    6.1390   15.5850 B   0  0  0  0  0  0  0  0  0  0  0  0
   10.1470    7.3970   10.1470 O   0  0  0  0  0  0  0  0  0  0  0  0
   10.3480    7.0420   12.5110 C   0  0  0  0  0  0  0  0  0  0  0  0
    9.4820    6.2230   13.2100 C   0  0  0  0  0  0  0  0  0  0  0  0
    9.0980    6.5830   14.4960 C   0  0  0  0  0  0  0  0  0  0  0  0
    9.5510    7.7390   15.1190 C   0  0  0  0  0  0  0  0  0  0  0  0
   10.4100    8.5540   14.4330 C   0  0  0  0  0  0  0  0  0  0  0  0
   10.7940    8.1970   13.1410 C   0  0  0  0  0  0  0  0  0  0  0  0
   12.7250    2.1280   10.1740 H   0  0  0  0  0  0  0  0  0  0  0  0
   11.2030    1.3210   10.8220 H   0  0  0  0  0  0  0  0  0  0  0  0
   10.3010    2.5150    9.0270 H   0  0  0  0  0  0  0  0  0  0  0  0
   11.7010    3.7010    8.9580 H   0  0  0  0  0  0  0  0  0  0  0  0
    9.3290    4.5750    9.5960 H   0  0  0  0  0  0  0  0  0  0  0  0
    9.5950    3.6710   11.1140 H   0  0  0  0  0  0  0  0  0  0  0  0
   12.6310    7.9700   11.3130 H   0  0  0  0  0  0  0  0  0  0  0  0
   12.5740    6.7950    9.9370 H   0  0  0  0  0  0  0  0  0  0  0  0
   15.2830    4.6300   11.4570 H   0  0  0  0  0  0  0  0  0  0  0  0
   17.1840    4.7240   12.9680 H   0  0  0  0  0  0  0  0  0  0  0  0
   15.0280    7.3160   15.5240 H   0  0  0  0  0  0  0  0  0  0  0  0
   13.0650    7.2490   13.9930 H   0  0  0  0  0  0  0  0  0  0  0  0
   10.6870    7.7080    9.3780 H   0  0  0  0  0  0  0  0  0  0  0  0
    9.1150    5.3200   12.7350 H   0  0  0  0  0  0  0  0  0  0  0  0
    8.4230    5.9250   15.0100 H   0  0  0  0  0  0  0  0  0  0  0  0
    9.2350    7.9920   16.1230 H   0  0  0  0  0  0  0  0  0  0  0  0
   10.7970    9.4570   14.8760 H   0  0  0  0  0  0  0  0  0  0  0  0
   11.4680    8.8400   12.5930 H   0  0  0  0  0  0  0  0  0  0  0  0
  2 25  1  0  0  0  0
  2  1  1  0  0  0  0
  3  4  1  0  0  0  0
  3  2  1  0  0  0  0
  4 29  1  0  0  0  0
  5  4  1  1  0  0  0
  5  6  1  0  0  0  0
  5  9  1  0  0  0  0
  6 17  1  6  0  0  0
  6 18  1  0  0  0  0
  7  6  1  0  0  0  0
  7 30  1  0  0  0  0
  7  8  1  0  0  0  0
  8 10  1  0  0  0  0
  9  8  1  0  0  0  0
  9  1  1  1  0  0  0
 10 15  1  0  0  0  0
 11 10  2  0  0  0  0
 11 12  1  0  0  0  0
 12 13  2  0  0  0  0
 13 14  1  0  0  0  0
 13 16  1  0  0  0  0
 14 34  1  0  0  0  0
 15 35  1  0  0  0  0
 15 14  2  0  0  0  0
 18 23  2  0  0  0  0
 18 19  1  0  0  0  0
 19 20  2  0  0  0  0
 20 38  1  0  0  0  0
 20 21  1  0  0  0  0
 21 39  1  0  0  0  0
 22 40  1  0  0  0  0
 22 21  2  0  0  0  0
 23 22  1  0  0  0  0
 24  2  1  0  0  0  0
 26  3  1  0  0  0  0
 27  3  1  0  0  0  0
 28  4  1  0  0  0  0
 31  7  1  0  0  0  0
 32 11  1  0  0  0  0
 33 12  1  0  0  0  0
 36 17  1  0  0  0  0
 37 19  1  0  0  0  0
 41 23  1  0  0  0  0
M  END
>  <Pose>
1

>  <Score>
-4.56

$$$$
