
 OpenBabel03172210413D

 49 52  0  0  0  0  0  0  0  0999 V2000
    5.8940    7.4980   17.5970 S   0  0  0  0  0  0  0  0  0  0  0  0
    6.2700    7.2900   19.3650 C   0  0  0  0  0  0  0  0  0  0  0  0
    7.4200    6.3400   19.2680 C   0  0  0  0  0  0  0  0  0  0  0  0
    7.9340    6.2160   18.0000 N   0  0  0  0  0  0  0  0  0  0  0  0
    7.3810    6.6940   17.0010 C   0  0  0  0  0  0  0  0  0  0  0  0
    7.8310    6.6740   15.2710 S   0  0  0  0  0  0  0  0  0  0  0  0
    8.1030    8.3050   14.6110 C   0  0  0  0  0  0  0  0  0  0  0  0
    7.7270    8.5340   13.2070 C   0  0  0  0  0  0  0  0  0  0  0  0
    6.6670    9.2170   12.7560 N   0  0  0  0  0  0  0  0  0  0  0  0
    6.7270    9.1310   11.4160 N   0  0  0  0  0  0  0  0  0  0  0  0
    7.7450    8.4450   11.0380 N   0  0  0  0  0  0  0  0  0  0  0  0
    8.4610    8.0110   12.1370 C   0  0  0  0  0  0  0  0  0  0  0  0
    9.6510    7.2040   12.0540 C   0  0  0  0  0  0  0  0  0  0  0  0
    9.9270    6.4730   13.0850 O   0  0  0  0  0  0  0  0  0  0  0  0
   10.5580    7.1020   11.0040 N   0  0  0  0  0  0  0  0  0  0  0  0
   11.4400    5.9680   10.9300 N   0  0  0  0  0  0  0  0  0  0  0  0
   11.2190    4.9930   10.1410 C   0  0  0  0  0  0  0  0  0  0  0  0
   12.0860    3.8280   10.0350 C   0  0  0  0  0  0  0  0  0  0  0  0
   11.6050    2.6010    9.6390 C   0  0  0  0  0  0  0  0  0  0  0  0
   12.4150    1.4900    9.5280 C   0  0  0  0  0  0  0  0  0  0  0  0
   13.7540    1.5640    9.8140 C   0  0  0  0  0  0  0  0  0  0  0  0
   14.2790    2.8000   10.2210 C   0  0  0  0  0  0  0  0  0  0  0  0
   13.4430    3.8920   10.3220 C   0  0  0  0  0  0  0  0  0  0  0  0
   15.6270    2.8050   10.4930 O   0  0  0  0  0  0  0  0  0  0  0  0
   16.3190    3.8000   11.2060 C   0  0  0  0  0  0  0  0  0  0  0  0
   14.5500    0.4350    9.6960 O   0  0  0  0  0  0  0  0  0  0  0  0
   11.7000   -0.1940    8.9720 B   0  0  0  0  0  0  0  0  0  0  0  0
    5.6110    9.9000   13.4270 C   0  0  0  0  0  0  0  0  0  0  0  0
    5.6780   11.0260   14.1660 N   0  0  0  0  0  0  0  0  0  0  0  0
    4.5300   11.3840   14.6060 O   0  0  0  0  0  0  0  0  0  0  0  0
    3.6550   10.5240   14.1880 N   0  0  0  0  0  0  0  0  0  0  0  0
    4.2740    9.5640   13.4380 C   0  0  0  0  0  0  0  0  0  0  0  0
    3.6530    8.4700   12.7940 N   0  0  0  0  0  4  0  0  0  0  0  0
    6.5120    8.2430   19.8550 H   0  0  0  0  0  0  0  0  0  0  0  0
    5.4160    6.7500   19.8180 H   0  0  0  0  0  0  0  0  0  0  0  0
    7.2030    5.3780   19.7970 H   0  0  0  0  0  0  0  0  0  0  0  0
    8.2390    6.7930   19.9210 H   0  0  0  0  0  0  0  0  0  0  0  0
    9.1660    8.5530   14.7660 H   0  0  0  0  0  0  0  0  0  0  0  0
    7.5160    9.0850   15.1970 H   0  0  0  0  0  0  0  0  0  0  0  0
   10.7140    7.7550   10.2180 H   0  0  0  0  0  0  0  0  0  0  0  0
   10.3460    5.0330    9.5180 H   0  0  0  0  0  0  0  0  0  0  0  0
   10.5420    2.5250    9.4080 H   0  0  0  0  0  0  0  0  0  0  0  0
   13.8620    4.8370   10.6400 H   0  0  0  0  0  0  0  0  0  0  0  0
   17.3560    3.9510   10.7940 H   0  0  0  0  0  0  0  0  0  0  0  0
   15.7540    4.7400   11.2280 H   0  0  0  0  0  0  0  0  0  0  0  0
   16.4980    3.4090   12.2460 H   0  0  0  0  0  0  0  0  0  0  0  0
    4.4010    7.9180   12.2990 H   0  0  0  0  0  0  0  0  0  0  0  0
    2.9010    8.7290   12.1310 H   0  0  0  0  0  0  0  0  0  0  0  0
    3.2540    7.8250   13.5290 H   0  0  0  0  0  0  0  0  0  0  0  0
  1  2  1  0  0  0  0
  2 35  1  0  0  0  0
  2 34  1  0  0  0  0
  3  2  1  0  0  0  0
  3 36  1  0  0  0  0
  3 37  1  0  0  0  0
  4  3  1  0  0  0  0
  5  1  1  0  0  0  0
  5  4  2  0  0  0  0
  6  5  1  0  0  0  0
  7 38  1  0  0  0  0
  7 39  1  0  0  0  0
  7  6  1  0  0  0  0
  8  7  1  0  0  0  0
  9  8  1  0  0  0  0
  9 28  1  0  0  0  0
 10  9  1  0  0  0  0
 11 10  2  0  0  0  0
 11 12  1  0  0  0  0
 12  8  2  0  0  0  0
 13 12  1  0  0  0  0
 13 14  2  0  0  0  0
 15 13  1  0  0  0  0
 16 15  1  0  0  0  0
 17 16  2  0  0  0  0
 18 17  1  0  0  0  0
 18 23  1  0  0  0  0
 19 18  2  0  0  0  0
 20 19  1  0  0  0  0
 20 21  2  0  0  0  0
 21 22  1  0  0  0  0
 22 23  2  0  0  0  0
 22 24  1  0  0  0  0
 23 43  1  0  0  0  0
 24 25  1  0  0  0  0
 25 45  1  0  0  0  0
 25 46  1  0  0  0  0
 26 21  1  0  0  0  0
 27 20  1  0  0  0  0
 28 32  1  0  0  0  0
 28 29  2  0  0  0  0
 29 30  1  0  0  0  0
 31 30  1  0  0  0  0
 32 31  2  0  0  0  0
 33 32  1  0  0  0  0
 33 49  1  0  0  0  0
 40 15  1  0  0  0  0
 41 17  1  0  0  0  0
 42 19  1  0  0  0  0
 44 25  1  0  0  0  0
 47 33  1  0  0  0  0
 48 33  1  0  0  0  0
M  END
>  <Pose>
1

>  <Score>
-9.06

$$$$
