
 OpenBabel03172210413D

 47 50  0  0  0  0  0  0  0  0999 V2000
   17.2820    3.7870   10.8300 S   0  0  0  0  0  0  0  0  0  0  0  0
   16.1640    2.8130    9.9730 C   0  0  0  0  0  0  0  0  0  0  0  0
   16.2490    2.0050    8.8700 N   0  0  0  0  0  0  0  0  0  0  0  0
   15.1830    1.3170    8.4300 C   0  0  0  0  0  0  0  0  0  0  0  0
   15.1670    0.5600    7.4410 O   0  0  0  0  0  0  0  0  0  0  0  0
   14.0330    1.4920    9.1620 C   0  0  0  0  0  0  0  0  0  0  0  0
   13.9390    2.2960   10.2600 C   0  0  0  0  0  0  0  0  0  0  0  0
   15.0480    2.9850   10.6870 N   0  0  0  0  0  0  0  0  0  0  0  0
   15.1060    3.7460   11.7100 N   0  0  0  0  0  0  0  0  0  0  0  0
   16.2080    4.3460   12.0620 C   0  0  0  0  0  0  0  0  0  0  0  0
   16.4800    5.2190   13.1830 N   0  0  0  0  0  0  0  0  0  0  0  0
   17.7800    5.7270   13.4000 C   0  0  0  0  0  0  0  0  0  0  0  0
   17.8230    6.5300   14.6790 C   0  0  0  0  0  0  0  0  0  0  0  0
   17.0520    5.8960   15.6560 O   0  0  0  0  0  0  0  0  0  0  0  0
   15.6900    6.0410   15.3660 C   0  0  0  0  0  0  0  0  0  0  0  0
   15.3550    5.5000   14.0100 C   0  0  0  0  0  0  0  0  0  0  0  0
   12.6490    2.3700   10.9420 C   0  0  0  0  0  0  0  0  0  0  0  0
   12.5950    2.1610   12.2100 O   0  0  0  0  0  0  0  0  0  0  0  0
   11.4210    2.6550   10.3100 N   0  0  0  0  0  0  0  0  0  0  0  0
   10.3530    3.3030   11.0620 C   0  0  0  0  0  0  0  0  0  0  0  0
   10.5850    4.7650   11.1500 C   0  0  0  0  0  0  0  0  0  0  0  0
    9.5000    5.6260   11.0900 C   0  0  0  0  0  0  0  0  0  0  0  0
    9.7080    6.9820   11.1290 C   0  0  0  0  0  0  0  0  0  0  0  0
   10.9620    7.5260   11.2260 C   0  0  0  0  0  0  0  0  0  0  0  0
   12.0500    6.6750   11.2870 C   0  0  0  0  0  0  0  0  0  0  0  0
   11.8360    5.3070   11.2480 C   0  0  0  0  0  0  0  0  0  0  0  0
   13.8290    7.3500   11.4270 B   0  0  0  0  0  0  0  0  0  0  0  0
    8.2450    5.0680   10.9930 O   0  0  0  0  0  0  0  0  0  0  0  0
    7.1260    5.8420   11.4260 C   0  0  0  0  0  0  0  0  0  0  0  0
   13.1490    0.9380    8.8200 H   0  0  0  0  0  0  0  0  0  0  0  0
   18.1130    6.3580   12.5300 H   0  0  0  0  0  0  0  0  0  0  0  0
   18.5600    4.9350   13.5170 H   0  0  0  0  0  0  0  0  0  0  0  0
   17.3490    7.5180   14.4520 H   0  0  0  0  0  0  0  0  0  0  0  0
   18.8470    6.6090   15.0550 H   0  0  0  0  0  0  0  0  0  0  0  0
   15.0960    5.5330   16.1820 H   0  0  0  0  0  0  0  0  0  0  0  0
   15.4430    7.1300   15.4690 H   0  0  0  0  0  0  0  0  0  0  0  0
   14.6810    4.5950   14.1090 H   0  0  0  0  0  0  0  0  0  0  0  0
   14.7440    6.3000   13.4880 H   0  0  0  0  0  0  0  0  0  0  0  0
   11.2540    2.4070    9.3170 H   0  0  0  0  0  0  0  0  0  0  0  0
   10.3570    2.9210   12.1280 H   0  0  0  0  0  0  0  0  0  0  0  0
    9.3520    3.0760   10.6730 H   0  0  0  0  0  0  0  0  0  0  0  0
    8.8430    7.6510   11.0790 H   0  0  0  0  0  0  0  0  0  0  0  0
   11.1370    8.6020   11.2560 H   0  0  0  0  0  0  0  0  0  0  0  0
   12.7370    4.6920   11.2980 H   0  0  0  0  0  0  0  0  0  0  0  0
    6.1940    5.2700   11.2700 H   0  0  0  0  0  0  0  0  0  0  0  0
    7.1850    6.0790   12.5030 H   0  0  0  0  0  0  0  0  0  0  0  0
    7.1390    6.7980   10.8810 H   0  0  0  0  0  0  0  0  0  0  0  0
  1 10  1  0  0  0  0
  2  8  1  0  0  0  0
  2  1  1  0  0  0  0
  3  2  2  0  0  0  0
  4  3  1  0  0  0  0
  4  6  1  0  0  0  0
  5  4  2  0  0  0  0
  6  7  2  0  0  0  0
  7  8  1  0  0  0  0
  7 17  1  0  0  0  0
  8  9  1  0  0  0  0
  9 10  2  0  0  0  0
 10 11  1  0  0  0  0
 11 12  1  0  0  0  0
 11 16  1  0  0  0  0
 12 32  1  0  0  0  0
 12 13  1  0  0  0  0
 13 34  1  0  0  0  0
 13 14  1  0  0  0  0
 15 36  1  0  0  0  0
 15 14  1  0  0  0  0
 15 35  1  0  0  0  0
 16 37  1  0  0  0  0
 16 15  1  0  0  0  0
 17 18  2  0  0  0  0
 19 17  1  0  0  0  0
 19 20  1  0  0  0  0
 20 21  1  0  0  0  0
 20 40  1  0  0  0  0
 21 26  1  0  0  0  0
 22 23  1  0  0  0  0
 22 21  2  0  0  0  0
 23 24  2  0  0  0  0
 24 43  1  0  0  0  0
 24 25  1  0  0  0  0
 25 27  1  0  0  0  0
 26 25  2  0  0  0  0
 26 44  1  0  0  0  0
 28 22  1  0  0  0  0
 28 29  1  0  0  0  0
 29 46  1  0  0  0  0
 30  6  1  0  0  0  0
 31 12  1  0  0  0  0
 33 13  1  0  0  0  0
 38 16  1  0  0  0  0
 39 19  1  0  0  0  0
 41 20  1  0  0  0  0
 42 23  1  0  0  0  0
 45 29  1  0  0  0  0
 47 29  1  0  0  0  0
M  END
>  <Pose>
1

>  <Score>
-7.03

$$$$
