
 OpenBabel03172210413D

 40 43  0  0  1  0  0  0  0  0999 V2000
   14.0260    4.7560   11.8270 S   0  0  0  0  0  0  0  0  0  0  0  0
   12.3350    4.8930   11.2640 C   0  0  1  0  0  0  0  0  0  0  0  0
   11.2750    5.6270   11.3740 N   0  0  0  0  0  0  0  0  0  0  0  0
   10.2070    5.1220   10.5960 C   0  0  0  0  0  0  0  0  0  0  0  0
   10.7630    3.9020    9.9380 C   0  0  0  0  0  0  0  0  0  0  0  0
   12.1660    3.7950   10.4020 N   0  0  0  0  0  0  0  0  0  0  0  0
   13.2790    2.9620   10.2320 C   0  0  0  0  0  0  0  0  0  0  0  0
   14.3730    3.2760   10.8890 C   0  0  0  0  0  0  0  0  0  0  0  0
   13.3050    1.7530    9.3460 C   0  0  0  0  0  0  0  0  0  0  0  0
   12.3170    0.7960    9.4050 C   0  0  0  0  0  0  0  0  0  0  0  0
   12.2950   -0.3350    8.6170 C   0  0  0  0  0  0  0  0  0  0  0  0
   13.3010   -0.5580    7.7060 C   0  0  0  0  0  0  0  0  0  0  0  0
   14.2940    0.3760    7.6290 C   0  0  0  0  0  0  0  0  0  0  0  0
   14.3080    1.5280    8.4380 C   0  0  0  0  0  0  0  0  0  0  0  0
   11.2630    6.8360   12.2160 C   0  0  0  0  0  0  0  0  0  0  0  0
   10.0680    6.7460   13.0800 C   0  0  0  0  0  0  0  0  0  0  0  0
   10.1550    6.3910   14.2730 O   0  0  0  0  0  0  0  0  0  0  0  0
    8.7550    7.0740   12.5450 C   0  0  0  0  0  0  0  0  0  0  0  0
    8.3650    8.4020   12.3600 C   0  0  0  0  0  0  0  0  0  0  0  0
    7.1210    8.7410   11.8620 C   0  0  0  0  0  0  0  0  0  0  0  0
    6.2630    7.7210   11.5470 C   0  0  0  0  0  0  0  0  0  0  0  0
    6.6010    6.3910   11.7120 C   0  0  0  0  0  0  0  0  0  0  0  0
    7.8640    6.0730   12.2170 C   0  0  0  0  0  0  0  0  0  0  0  0
    4.5390    8.2030   10.8560 B   0  0  0  0  0  0  0  0  0  0  0  0
    9.8140    5.8720    9.8540 H   0  0  0  0  0  0  0  0  0  0  0  0
    9.3200    4.9130   11.2520 H   0  0  0  0  0  0  0  0  0  0  0  0
   10.7370    4.0890    8.8430 H   0  0  0  0  0  0  0  0  0  0  0  0
   10.1520    3.0510   10.2790 H   0  0  0  0  0  0  0  0  0  0  0  0
   15.3500    2.7580   10.8970 H   0  0  0  0  0  0  0  0  0  0  0  0
   11.4880    0.9060   10.1020 H   0  0  0  0  0  0  0  0  0  0  0  0
   11.4930   -1.0520    8.7050 H   0  0  0  0  0  0  0  0  0  0  0  0
   13.2820   -1.4430    7.0920 H   0  0  0  0  0  0  0  0  0  0  0  0
   15.1190    0.2560    6.9270 H   0  0  0  0  0  0  0  0  0  0  0  0
   15.1110    2.2280    8.3340 H   0  0  0  0  0  0  0  0  0  0  0  0
   12.1810    6.7190   12.8600 H   0  0  0  0  0  0  0  0  0  0  0  0
   11.3260    7.7420   11.6170 H   0  0  0  0  0  0  0  0  0  0  0  0
    9.0570    9.1780   12.6130 H   0  0  0  0  0  0  0  0  0  0  0  0
    6.8250    9.7550   11.7220 H   0  0  0  0  0  0  0  0  0  0  0  0
    5.9310    5.5900   11.4670 H   0  0  0  0  0  0  0  0  0  0  0  0
    8.1000    5.0260   12.3330 H   0  0  0  0  0  0  0  0  0  0  0  0
  2  3  1  0  0  0  0
  2  1  1  6  0  0  0
  3 15  1  0  0  0  0
  4 26  1  0  0  0  0
  4  3  1  0  0  0  0
  5 28  1  0  0  0  0
  5  6  1  0  0  0  0
  5  4  1  0  0  0  0
  6  2  1  0  0  0  0
  7  6  1  0  0  0  0
  7  8  2  0  0  0  0
  8 29  1  0  0  0  0
  8  1  1  0  0  0  0
  9 10  1  0  0  0  0
  9  7  1  0  0  0  0
 10 30  1  0  0  0  0
 11 31  1  0  0  0  0
 11 10  2  0  0  0  0
 12 11  1  0  0  0  0
 13 12  2  0  0  0  0
 13 14  1  0  0  0  0
 14  9  2  0  0  0  0
 15 35  1  0  0  0  0
 15 16  1  0  0  0  0
 16 17  2  0  0  0  0
 18 16  1  0  0  0  0
 19 18  1  0  0  0  0
 19 37  1  0  0  0  0
 20 19  2  0  0  0  0
 21 22  2  0  0  0  0
 21 20  1  0  0  0  0
 22 23  1  0  0  0  0
 23 40  1  0  0  0  0
 23 18  2  0  0  0  0
 24 21  1  0  0  0  0
 25  4  1  0  0  0  0
 27  5  1  0  0  0  0
 32 12  1  0  0  0  0
 33 13  1  0  0  0  0
 34 14  1  0  0  0  0
 36 15  1  0  0  0  0
 38 20  1  0  0  0  0
 39 22  1  0  0  0  0
M  END
>  <Pose>
1

>  <Score>
-5.85

$$$$
