
 OpenBabel03172210413D

 48 51  0  0  1  0  0  0  0  0999 V2000
    6.2420    6.5970   11.7220 B   0  0  0  0  0  0  0  0  0  0  0  0
    8.0800    6.1330   11.9800 C   0  0  0  0  0  0  0  0  0  0  0  0
    8.7420    5.3940   11.0390 C   0  0  0  0  0  0  0  0  0  0  0  0
   10.0770    5.0530   11.2180 C   0  0  0  0  0  0  0  0  0  0  0  0
   10.6990    5.4720   12.3520 C   0  0  0  0  0  0  0  0  0  0  0  0
   10.0190    6.2200   13.3010 C   0  0  0  0  0  0  0  0  0  0  0  0
    8.7000    6.5570   13.1210 C   0  0  0  0  0  0  0  0  0  0  0  0
   10.7750    4.2630   10.2170 C   0  0  0  0  0  0  0  0  0  0  0  0
   11.1210    4.8380    9.1190 O   0  0  0  0  0  0  0  0  0  0  0  0
   11.0800    2.9010   10.4120 N   0  0  0  0  0  0  0  0  0  0  0  0
   12.4440    2.5660   10.7770 C   0  0  2  0  0  0  0  0  0  0  0  0
   13.1960    3.7790   11.2910 C   0  0  0  0  0  0  0  0  0  0  0  0
   14.5800    3.4350   11.0320 N   0  0  0  0  0  0  0  0  0  0  0  0
   14.6760    2.2300   10.2340 C   0  0  1  0  0  0  0  0  0  0  0  0
   13.2820    2.1680    9.5950 C   0  0  0  0  0  0  0  0  0  0  0  0
   15.7240    2.4160    9.2320 C   0  0  0  0  0  0  0  0  0  0  0  0
   15.5090    2.2260    8.0260 O   0  0  0  0  0  0  0  0  0  0  0  0
   17.0060    2.8240    9.6820 N   0  0  0  0  0  0  0  0  0  0  0  0
   17.1230    3.5810   10.9070 C   0  0  1  0  0  0  0  0  0  0  0  0
   15.8160    4.0560   11.4160 C   0  0  0  0  0  0  0  0  0  0  0  0
   15.7730    5.0340   12.2080 O   0  0  0  0  0  0  0  0  0  0  0  0
   17.9140    2.8480   11.9700 C   0  0  0  0  0  0  0  0  0  0  0  0
   19.2100    3.4790   12.2680 C   0  0  0  0  0  0  0  0  0  0  0  0
   20.2950    3.2450   11.4420 C   0  0  0  0  0  0  0  0  0  0  0  0
   21.5100    3.8310   11.7140 C   0  0  0  0  0  0  0  0  0  0  0  0
   21.7100    4.6640   12.7980 C   0  0  0  0  0  0  0  0  0  0  0  0
   20.6310    4.8990   13.6230 C   0  0  0  0  0  0  0  0  0  0  0  0
   19.4040    4.3200   13.3660 C   0  0  0  0  0  0  0  0  0  0  0  0
    8.2690    5.0430   10.1180 H   0  0  0  0  0  0  0  0  0  0  0  0
   11.7470    5.2160   12.5230 H   0  0  0  0  0  0  0  0  0  0  0  0
   10.5110    6.5530   14.2000 H   0  0  0  0  0  0  0  0  0  0  0  0
    8.1390    7.1430   13.8490 H   0  0  0  0  0  0  0  0  0  0  0  0
   10.3440    2.1910   10.3000 H   0  0  0  0  0  0  0  0  0  0  0  0
   12.5030    1.7980   11.5450 H   0  0  0  0  0  0  0  0  0  0  0  0
   12.9410    4.7040   10.7290 H   0  0  0  0  0  0  0  0  0  0  0  0
   13.0140    3.9470   12.3750 H   0  0  0  0  0  0  0  0  0  0  0  0
   14.8530    1.3210   10.8460 H   0  0  0  0  0  0  0  0  0  0  0  0
   13.1440    1.1210    9.2840 H   0  0  0  0  0  0  0  0  0  0  0  0
   13.2690    2.8960    8.7760 H   0  0  0  0  0  0  0  0  0  0  0  0
   17.8830    2.6000    9.1590 H   0  0  0  0  0  0  0  0  0  0  0  0
   17.7600    4.4770   10.6390 H   0  0  0  0  0  0  0  0  0  0  0  0
   17.2870    2.7730   12.8780 H   0  0  0  0  0  0  0  0  0  0  0  0
   18.1110    1.8360   11.5840 H   0  0  0  0  0  0  0  0  0  0  0  0
   20.2420    2.6080   10.5670 H   0  0  0  0  0  0  0  0  0  0  0  0
   22.3620    3.6520   11.0730 H   0  0  0  0  0  0  0  0  0  0  0  0
   22.6910    5.1100   12.9800 H   0  0  0  0  0  0  0  0  0  0  0  0
   20.7890    5.5570   14.4800 H   0  0  0  0  0  0  0  0  0  0  0  0
   18.5770    4.5250   14.0350 H   0  0  0  0  0  0  0  0  0  0  0  0
  1  2  1  0  0  0  0
  2  7  1  0  0  0  0
  3  4  1  0  0  0  0
  3  2  2  0  0  0  0
  4  5  2  0  0  0  0
  5 30  1  0  0  0  0
  5  6  1  0  0  0  0
  6 31  1  0  0  0  0
  7  6  2  0  0  0  0
  7 32  1  0  0  0  0
  8 10  1  0  0  0  0
  8  4  1  0  0  0  0
  9  8  2  0  0  0  0
 10 11  1  0  0  0  0
 11 12  1  0  0  0  0
 11 34  1  1  0  0  0
 12 36  1  0  0  0  0
 13 12  1  0  0  0  0
 13 20  1  0  0  0  0
 14 37  1  1  0  0  0
 14 13  1  0  0  0  0
 15 14  1  0  0  0  0
 15 11  1  0  0  0  0
 16 18  1  0  0  0  0
 16 14  1  0  0  0  0
 17 16  2  0  0  0  0
 18 19  1  0  0  0  0
 19 41  1  6  0  0  0
 19 20  1  0  0  0  0
 19 22  1  0  0  0  0
 20 21  2  0  0  0  0
 22 23  1  0  0  0  0
 22 42  1  0  0  0  0
 23 28  1  0  0  0  0
 24 25  1  0  0  0  0
 24 23  2  0  0  0  0
 25 26  2  0  0  0  0
 26 46  1  0  0  0  0
 26 27  1  0  0  0  0
 27 47  1  0  0  0  0
 28 27  2  0  0  0  0
 28 48  1  0  0  0  0
 29  3  1  0  0  0  0
 33 10  1  0  0  0  0
 35 12  1  0  0  0  0
 38 15  1  0  0  0  0
 39 15  1  0  0  0  0
 40 18  1  0  0  0  0
 43 22  1  0  0  0  0
 44 24  1  0  0  0  0
 45 25  1  0  0  0  0
M  END
>  <Pose>
1

>  <Score>
-6.84

$$$$
