
 OpenBabel03172210413D

 61 64  0  0  1  0  0  0  0  0999 V2000
   16.5370    8.0040   11.4560 B   0  0  0  0  0  0  0  0  0  0  0  0
   14.7620    7.6780   12.0800 C   0  0  0  0  0  0  0  0  0  0  0  0
   13.8770    6.8540   11.4550 C   0  0  0  0  0  0  0  0  0  0  0  0
   12.5840    6.5920   11.8750 C   0  0  0  0  0  0  0  0  0  0  0  0
   12.1510    7.2270   13.0360 C   0  0  0  0  0  0  0  0  0  0  0  0
   13.0240    8.0700   13.6960 C   0  0  0  0  0  0  0  0  0  0  0  0
   14.3120    8.3110   13.2500 C   0  0  0  0  0  0  0  0  0  0  0  0
   11.7580    5.6900   11.0650 C   0  0  1  0  0  0  0  0  0  0  0  0
   12.1240    4.3400   11.2770 N   0  0  0  0  0  0  0  0  0  0  0  0
   11.0570    3.6490   11.9060 C   0  0  0  0  0  0  0  0  0  0  0  0
   11.1080    2.4470   12.3130 O   0  0  0  0  0  0  0  0  0  0  0  0
    9.9200    4.5390   11.9920 C   0  0  0  0  0  0  0  0  0  0  0  0
    8.8320    4.1750   12.5150 O   0  0  0  0  0  0  0  0  0  0  0  0
   10.3150    5.8030   11.4000 C   0  0  0  0  0  0  0  0  0  0  0  0
    9.5220    6.8410   11.2600 C   0  0  0  0  0  0  0  0  0  0  0  0
   10.0330    8.0100   10.7440 O   0  0  0  0  0  0  0  0  0  0  0  0
    8.1300    6.7750   11.6300 C   0  0  0  0  0  0  0  0  0  0  0  0
    7.4720    7.7570   12.3910 C   0  0  0  0  0  0  0  0  0  0  0  0
    6.1850    7.4170   12.5260 N   0  0  0  0  0  0  0  0  0  0  0  0
    6.0170    6.2750   11.8860 N   0  0  0  0  0  0  0  0  0  0  0  0
    7.1640    5.8550   11.3300 C   0  0  0  0  0  0  0  0  0  0  0  0
    5.1710    8.1400   13.2100 C   0  0  0  0  0  0  0  0  0  0  0  0
    5.2970    8.3330   14.5790 C   0  0  0  0  0  0  0  0  0  0  0  0
    4.3560    9.0350   15.3060 C   0  0  0  0  0  0  0  0  0  0  0  0
    3.2310    9.5820   14.6860 C   0  0  0  0  0  0  0  0  0  0  0  0
    3.1060    9.3890   13.3220 C   0  0  0  0  0  0  0  0  0  0  0  0
    4.0550    8.6880   12.6230 C   0  0  0  0  0  0  0  0  0  0  0  0
    8.1440    8.9710   12.9390 C   0  0  0  0  0  0  0  0  0  0  0  0
   13.4090    3.6910   10.8930 C   0  0  0  0  0  0  0  0  0  0  0  0
   13.1380    2.3000   10.3780 C   0  0  0  0  0  0  0  0  0  0  0  0
   14.3720    1.5740    9.9440 C   0  0  0  0  0  0  0  0  0  0  0  0
   14.2450    0.7460    8.7910 N   0  0  0  0  0  4  0  0  0  0  0  0
   12.9180    0.3800    8.4160 C   0  0  0  0  0  0  0  0  0  0  0  0
   14.8720    1.3950    7.6290 C   0  0  0  0  0  0  0  0  0  0  0  0
   14.2540    6.3680   10.5340 H   0  0  0  0  0  0  0  0  0  0  0  0
   11.1520    7.0510   13.3910 H   0  0  0  0  0  0  0  0  0  0  0  0
   12.6790    8.5650   14.6080 H   0  0  0  0  0  0  0  0  0  0  0  0
   14.9970    8.9740   13.7660 H   0  0  0  0  0  0  0  0  0  0  0  0
   11.9220    5.9320    9.9830 H   0  0  0  0  0  0  0  0  0  0  0  0
    7.3040    4.9520   10.7330 H   0  0  0  0  0  0  0  0  0  0  0  0
    6.1940    7.8930   15.0470 H   0  0  0  0  0  0  0  0  0  0  0  0
    4.4850    9.1720   16.3730 H   0  0  0  0  0  0  0  0  0  0  0  0
    2.5010   10.1300   15.2850 H   0  0  0  0  0  0  0  0  0  0  0  0
    2.2210    9.8210   12.8510 H   0  0  0  0  0  0  0  0  0  0  0  0
    3.9180    8.5650   11.5580 H   0  0  0  0  0  0  0  0  0  0  0  0
    8.8880    9.3700   12.2080 H   0  0  0  0  0  0  0  0  0  0  0  0
    8.5860    8.7840   13.9350 H   0  0  0  0  0  0  0  0  0  0  0  0
    7.3940    9.7880   13.0700 H   0  0  0  0  0  0  0  0  0  0  0  0
   13.9600    4.3340   10.1830 H   0  0  0  0  0  0  0  0  0  0  0  0
   14.0000    3.5570   11.8440 H   0  0  0  0  0  0  0  0  0  0  0  0
   12.7790    1.7360   11.2930 H   0  0  0  0  0  0  0  0  0  0  0  0
   12.2960    2.2520    9.6870 H   0  0  0  0  0  0  0  0  0  0  0  0
   14.7660    0.9150   10.7810 H   0  0  0  0  0  0  0  0  0  0  0  0
   15.2050    2.3190    9.7710 H   0  0  0  0  0  0  0  0  0  0  0  0
   14.8120   -0.1450    8.9290 H   0  0  0  0  0  0  0  0  0  0  0  0
   12.6890    0.6510    7.3500 H   0  0  0  0  0  0  0  0  0  0  0  0
   12.1070    0.7000    9.0990 H   0  0  0  0  0  0  0  0  0  0  0  0
   12.8550   -0.7480    8.4200 H   0  0  0  0  0  0  0  0  0  0  0  0
   15.6820    0.7770    7.2070 H   0  0  0  0  0  0  0  0  0  0  0  0
   15.3010    2.3570    7.9890 H   0  0  0  0  0  0  0  0  0  0  0  0
   14.0970    1.6600    6.8750 H   0  0  0  0  0  0  0  0  0  0  0  0
  1  2  1  0  0  0  0
  2  7  1  0  0  0  0
  3  4  1  0  0  0  0
  3  2  2  0  0  0  0
  4  5  2  0  0  0  0
  5 36  1  0  0  0  0
  5  6  1  0  0  0  0
  6 37  1  0  0  0  0
  7  6  2  0  0  0  0
  7 38  1  0  0  0  0
  8 39  1  6  0  0  0
  8  9  1  0  0  0  0
  8 14  1  0  0  0  0
  8  4  1  0  0  0  0
  9 10  1  0  0  0  0
 10 12  1  0  0  0  0
 10 11  2  0  0  0  0
 12 13  2  0  0  0  0
 14 12  1  0  0  0  0
 15 14  2  0  0  0  0
 15 17  1  0  0  0  0
 16 15  1  0  0  0  0
 17 18  2  0  0  0  0
 18 19  1  0  0  0  0
 18 28  1  0  0  0  0
 19 22  1  0  0  0  0
 20 19  1  0  0  0  0
 21 17  1  0  0  0  0
 21 20  2  0  0  0  0
 22 23  1  0  0  0  0
 23 41  1  0  0  0  0
 23 24  2  0  0  0  0
 24 42  1  0  0  0  0
 25 43  1  0  0  0  0
 25 24  1  0  0  0  0
 26 25  2  0  0  0  0
 27 22  2  0  0  0  0
 27 26  1  0  0  0  0
 28 48  1  0  0  0  0
 28 47  1  0  0  0  0
 29  9  1  0  0  0  0
 29 50  1  0  0  0  0
 30 29  1  0  0  0  0
 30 51  1  0  0  0  0
 31 30  1  0  0  0  0
 31 53  1  0  0  0  0
 32 55  1  0  0  0  0
 32 31  1  0  0  0  0
 33 58  1  0  0  0  0
 33 32  1  0  0  0  0
 33 57  1  0  0  0  0
 34 60  1  0  0  0  0
 34 32  1  0  0  0  0
 35  3  1  0  0  0  0
 40 21  1  0  0  0  0
 44 26  1  0  0  0  0
 45 27  1  0  0  0  0
 46 28  1  0  0  0  0
 49 29  1  0  0  0  0
 52 30  1  0  0  0  0
 54 31  1  0  0  0  0
 56 33  1  0  0  0  0
 59 34  1  0  0  0  0
 61 34  1  0  0  0  0
M  END
>  <Pose>
1

>  <Score>
-5.74

$$$$
