
 OpenBabel03172210413D

 51 53  0  0  0  0  0  0  0  0999 V2000
    7.5130    6.5590   16.1170 B   0  0  0  0  0  0  0  0  0  0  0  0
    7.4910    6.6090   14.2080 C   0  0  0  0  0  0  0  0  0  0  0  0
    6.3800    7.1350   13.5810 C   0  0  0  0  0  0  0  0  0  0  0  0
    6.3720    7.1680   12.2090 C   0  0  0  0  0  0  0  0  0  0  0  0
    7.4430    6.6890   11.4770 C   0  0  0  0  0  0  0  0  0  0  0  0
    8.5400    6.1700   12.0910 C   0  0  0  0  0  0  0  0  0  0  0  0
    8.5550    6.1340   13.4690 C   0  0  0  0  0  0  0  0  0  0  0  0
    9.6790    5.6620   11.3130 C   0  0  0  0  0  0  0  0  0  0  0  0
    9.5920    4.5930   10.6220 N   0  0  0  0  0  0  0  0  0  0  0  0
   10.7040    4.0960    9.8620 N   0  0  0  0  0  0  0  0  0  0  0  0
   11.1140    2.7720   10.1390 C   0  0  0  0  0  0  0  0  0  0  0  0
   10.1390    1.9720   10.4100 O   0  0  0  0  0  0  0  0  0  0  0  0
   12.4790    2.2630   10.1440 C   0  0  0  0  0  0  0  0  0  0  0  0
   12.7570    1.0120    9.6540 N   0  0  0  0  0  0  0  0  0  0  0  0
   14.0570    0.8560    9.7990 N   0  0  0  0  0  0  0  0  0  0  0  0
   14.6090    1.8940   10.3340 N   0  0  0  0  0  0  0  0  0  0  0  0
   13.6480    2.8290   10.5780 C   0  0  0  0  0  0  0  0  0  0  0  0
   13.8060    4.1600   11.1620 C   0  0  0  0  0  0  0  0  0  0  0  0
   14.9340    4.2790   12.0730 N   0  0  0  0  0  0  0  0  0  0  0  0
   16.1470    4.6000   11.3310 C   0  0  0  0  0  0  0  0  0  0  0  0
   16.3640    6.0830   11.2290 C   0  0  0  0  0  0  0  0  0  0  0  0
   15.2140    6.8340   11.3840 O   0  0  0  0  0  0  0  0  0  0  0  0
   14.5590    6.6420   12.5900 C   0  0  0  0  0  0  0  0  0  0  0  0
   14.7190    5.2440   13.1230 C   0  0  0  0  0  0  0  0  0  0  0  0
   11.8390    0.0880    9.1080 C   0  0  0  0  0  0  0  0  0  0  0  0
   10.5320   -0.1150    9.4080 N   0  0  0  0  0  0  0  0  0  0  0  0
   10.0750   -1.0600    8.6670 O   0  0  0  0  0  0  0  0  0  0  0  0
   10.9730   -1.5360    7.8650 N   0  0  0  0  0  0  0  0  0  0  0  0
   12.1110   -0.8340    8.1130 C   0  0  0  0  0  0  0  0  0  0  0  0
   13.3420   -1.0440    7.4410 N   0  0  0  0  0  0  0  0  0  0  0  0
    4.8270    7.8990   11.3290 B   0  0  0  0  0  0  0  0  0  0  0  0
    5.2860    7.6230   14.2820 O   0  0  0  0  0  0  0  0  0  0  0  0
   19.4000    6.3360    9.7890 Cl  0  0  0  0  0  0  0  0  0  0  0  0
    7.4140    6.7250   10.3930 H   0  0  0  0  0  0  0  0  0  0  0  0
    9.4260    5.7230   13.9510 H   0  0  0  0  0  0  0  0  0  0  0  0
   10.5970    6.1940   11.3270 H   0  0  0  0  0  0  0  0  0  0  0  0
   11.1340    4.7370    9.1600 H   0  0  0  0  0  0  0  0  0  0  0  0
   13.9760    4.9570   10.4090 H   0  0  0  0  0  0  0  0  0  0  0  0
   12.9320    4.4710   11.7740 H   0  0  0  0  0  0  0  0  0  0  0  0
   16.9960    4.1570   11.8800 H   0  0  0  0  0  0  0  0  0  0  0  0
   16.0710    4.0810   10.3570 H   0  0  0  0  0  0  0  0  0  0  0  0
   16.7430    6.2870   10.2060 H   0  0  0  0  0  0  0  0  0  0  0  0
   17.1730    6.4370   11.9170 H   0  0  0  0  0  0  0  0  0  0  0  0
   13.4690    6.7950   12.3990 H   0  0  0  0  0  0  0  0  0  0  0  0
   14.8680    7.4260   13.2960 H   0  0  0  0  0  0  0  0  0  0  0  0
   13.9740    4.9220   13.8460 H   0  0  0  0  0  0  0  0  0  0  0  0
   15.6960    5.2590   13.6970 H   0  0  0  0  0  0  0  0  0  0  0  0
   13.9050   -0.2120    7.1850 H   0  0  0  0  0  0  0  0  0  0  0  0
   13.7130   -1.9790    7.1920 H   0  0  0  0  0  0  0  0  0  0  0  0
    4.9890    8.5820   14.2430 H   0  0  0  0  0  0  0  0  0  0  0  0
   20.2840    6.1600   10.8300 H   0  0  0  0  0  0  0  0  0  0  0  0
  2  1  1  0  0  0  0
  3  2  1  0  0  0  0
  3 32  1  0  0  0  0
  4  3  2  0  0  0  0
  5  6  2  0  0  0  0
  5  4  1  0  0  0  0
  6  7  1  0  0  0  0
  7 35  1  0  0  0  0
  7  2  2  0  0  0  0
  8 36  1  0  0  0  0
  8  6  1  0  0  0  0
  9  8  2  0  0  0  0
 10 11  1  0  0  0  0
 10  9  1  0  0  0  0
 11 13  1  0  0  0  0
 11 12  2  0  0  0  0
 13 17  2  0  0  0  0
 14 15  1  0  0  0  0
 14 13  1  0  0  0  0
 15 16  2  0  0  0  0
 16 17  1  0  0  0  0
 17 18  1  0  0  0  0
 18 39  1  0  0  0  0
 18 19  1  0  0  0  0
 19 24  1  0  0  0  0
 20 40  1  0  0  0  0
 20 19  1  0  0  0  0
 21 20  1  0  0  0  0
 21 22  1  0  0  0  0
 21 43  1  0  0  0  0
 22 23  1  0  0  0  0
 23 24  1  0  0  0  0
 23 45  1  0  0  0  0
 24 47  1  0  0  0  0
 24 46  1  0  0  0  0
 25 26  2  0  0  0  0
 25 14  1  0  0  0  0
 27 26  1  0  0  0  0
 28 29  2  0  0  0  0
 28 27  1  0  0  0  0
 29 25  1  0  0  0  0
 30 29  1  0  0  0  0
 31  4  1  0  0  0  0
 33 51  1  0  0  0  0
 34  5  1  0  0  0  0
 37 10  1  0  0  0  0
 38 18  1  0  0  0  0
 41 20  1  0  0  0  0
 42 21  1  0  0  0  0
 44 23  1  0  0  0  0
 48 30  1  0  0  0  0
 49 30  1  0  0  0  0
 50 32  1  0  0  0  0
M  END
>  <Pose>
1

>  <Score>
-8.91

$$$$
