
 OpenBabel03172210413D

 47 50  0  0  0  0  0  0  0  0999 V2000
   10.5480   -0.0750    8.8950 B   0  0  0  0  0  0  0  0  0  0  0  0
   12.2070    0.8260    8.8680 C   0  0  0  0  0  0  0  0  0  0  0  0
   12.3800    1.9630    9.6210 C   0  0  0  0  0  0  0  0  0  0  0  0
   13.5390    2.6210    9.6650 C   0  0  0  0  0  0  0  0  0  0  0  0
   14.6640    2.1490    8.9200 C   0  0  0  0  0  0  0  0  0  0  0  0
   14.5320    1.0160    8.1900 C   0  0  0  0  0  0  0  0  0  0  0  0
   13.3070    0.3430    8.1530 C   0  0  0  0  0  0  0  0  0  0  0  0
   11.2820    2.2630   10.6720 C   0  0  0  0  0  0  0  0  0  0  0  0
   10.6670    3.2900   10.3370 N   0  0  0  0  0  0  0  0  0  0  0  0
    9.7930    4.2370   10.4220 N   0  0  0  0  0  0  0  0  0  0  0  0
   10.6370    5.5300   10.3630 C   0  0  0  0  0  0  0  0  0  0  0  0
   10.8620    5.8990    9.2150 O   0  0  0  0  0  0  0  0  0  0  0  0
   11.0910    6.1750   11.5260 C   0  0  0  0  0  0  0  0  0  0  0  0
   12.1870    6.0440   12.2100 N   0  0  0  0  0  0  0  0  0  0  0  0
   12.3000    7.0270   13.0350 N   0  0  0  0  0  0  0  0  0  0  0  0
   11.2350    7.9130   12.9450 N   0  0  0  0  0  0  0  0  0  0  0  0
   10.4570    7.4090   12.0130 C   0  0  0  0  0  0  0  0  0  0  0  0
    9.1160    7.6600   11.4930 C   0  0  0  0  0  0  0  0  0  0  0  0
    7.9160    7.6110   12.0820 N   0  0  0  0  0  0  0  0  0  0  0  0
    7.1430    8.7980   11.7450 C   0  0  0  0  0  0  0  0  0  0  0  0
    5.7700    8.3320   11.3640 C   0  0  0  0  0  0  0  0  0  0  0  0
    5.8140    6.8090   11.4440 C   0  0  0  0  0  0  0  0  0  0  0  0
    7.0360    6.6080   12.3740 C   0  0  0  0  0  0  0  0  0  0  0  0
   11.2820    9.0490   13.7520 C   0  0  0  0  0  0  0  0  0  0  0  0
   10.3420    9.2670   14.7580 N   0  0  0  0  0  0  0  0  0  0  0  0
   10.5490   10.4210   15.2570 O   0  0  0  0  0  0  0  0  0  0  0  0
   11.5320   11.0080   14.7010 N   0  0  0  0  0  0  0  0  0  0  0  0
   12.0130   10.1640   13.7450 C   0  0  0  0  0  0  0  0  0  0  0  0
   13.1210   10.5560   12.9250 N   0  0  0  0  0  0  0  0  0  0  0  0
   13.6200    3.5430   10.2100 H   0  0  0  0  0  0  0  0  0  0  0  0
   15.5690    2.6750    8.9060 H   0  0  0  0  0  0  0  0  0  0  0  0
   15.3880    0.5730    7.6170 H   0  0  0  0  0  0  0  0  0  0  0  0
   13.2600   -0.5950    7.5980 H   0  0  0  0  0  0  0  0  0  0  0  0
   11.1610    1.6990   11.4860 H   0  0  0  0  0  0  0  0  0  0  0  0
    8.7960    4.3940   10.5430 H   0  0  0  0  0  0  0  0  0  0  0  0
    9.0890    8.2290   10.4970 H   0  0  0  0  0  0  0  0  0  0  0  0
    8.9720    6.5460   10.8200 H   0  0  0  0  0  0  0  0  0  0  0  0
    7.6590    9.3990   10.9970 H   0  0  0  0  0  0  0  0  0  0  0  0
    7.0600    9.4990   12.6380 H   0  0  0  0  0  0  0  0  0  0  0  0
    4.9830    8.7680   11.9990 H   0  0  0  0  0  0  0  0  0  0  0  0
    5.5310    8.6820   10.3150 H   0  0  0  0  0  0  0  0  0  0  0  0
    4.9060    6.4420   11.8930 H   0  0  0  0  0  0  0  0  0  0  0  0
    6.1330    6.4020   10.4900 H   0  0  0  0  0  0  0  0  0  0  0  0
    6.5800    6.8040   13.4070 H   0  0  0  0  0  0  0  0  0  0  0  0
    7.3720    5.5640   12.3120 H   0  0  0  0  0  0  0  0  0  0  0  0
   13.0760   11.4880   12.4900 H   0  0  0  0  0  0  0  0  0  0  0  0
   13.8830    9.9090   12.7340 H   0  0  0  0  0  0  0  0  0  0  0  0
  2  1  1  0  0  0  0
  2  3  1  0  0  0  0
  3  4  2  0  0  0  0
  3  8  1  0  0  0  0
  4 30  1  0  0  0  0
  5  4  1  0  0  0  0
  6  5  2  0  0  0  0
  7  6  1  0  0  0  0
  7  2  2  0  0  0  0
  8 34  1  0  0  0  0
  9 10  1  0  0  0  0
  9  8  1  0  0  0  0
 10 35  1  0  0  0  0
 11 10  1  0  0  0  0
 11 13  1  0  0  0  0
 12 11  2  0  0  0  0
 13 17  2  0  0  0  0
 13 14  1  0  0  0  0
 14 15  2  0  0  0  0
 16 15  1  0  0  0  0
 16 24  1  0  0  0  0
 17 16  1  0  0  0  0
 18 17  1  0  0  0  0
 18 19  1  0  0  0  0
 19 23  1  0  0  0  0
 20 19  1  0  0  0  0
 20 39  1  0  0  0  0
 21 22  1  0  0  0  0
 21 20  1  0  0  0  0
 21 40  1  0  0  0  0
 22 42  1  0  0  0  0
 22 23  1  0  0  0  0
 23 44  1  0  0  0  0
 24 25  2  0  0  0  0
 25 26  1  0  0  0  0
 27 26  1  0  0  0  0
 28 24  1  0  0  0  0
 28 27  2  0  0  0  0
 29 28  1  0  0  0  0
 31  5  1  0  0  0  0
 32  6  1  0  0  0  0
 33  7  1  0  0  0  0
 36 18  1  0  0  0  0
 37 18  1  0  0  0  0
 38 20  1  0  0  0  0
 41 21  1  0  0  0  0
 43 22  1  0  0  0  0
 45 23  1  0  0  0  0
 46 29  1  0  0  0  0
 47 29  1  0  0  0  0
M  END
>  <Pose>
1

>  <Score>
-7.12

$$$$
