
 OpenBabel03172210413D

 57 60  0  0  1  0  0  0  0  0999 V2000
    4.1170    8.1710   11.5090 B   0  0  0  0  0  0  0  0  0  0  0  0
    5.9540    7.6650   11.5230 C   0  0  0  0  0  0  0  0  0  0  0  0
    6.9530    8.6210   11.6230 C   0  0  0  0  0  0  0  0  0  0  0  0
    8.2830    8.2780   11.6350 C   0  0  0  0  0  0  0  0  0  0  0  0
    8.6400    6.9530   11.5470 C   0  0  0  0  0  0  0  0  0  0  0  0
    7.6460    5.9760   11.4460 C   0  0  0  0  0  0  0  0  0  0  0  0
    6.3200    6.3340   11.4340 C   0  0  0  0  0  0  0  0  0  0  0  0
   10.0140    6.5040   11.5850 C   0  0  1  0  0  0  0  0  0  0  0  0
   10.8170    7.0960   10.7480 O   0  0  0  0  0  0  0  0  0  0  0  0
   10.6610    5.5010   12.3990 C   0  0  1  0  0  0  0  0  0  0  0  0
   12.0390    5.3080   12.0290 N   0  0  0  0  0  0  0  0  0  0  0  0
   12.5970    6.6600   12.2640 C   0  0  2  0  0  0  0  0  0  0  0  0
   13.9950    6.5560   12.0960 N   0  0  0  0  0  0  0  0  0  0  0  0
   14.2820    5.2310   11.6420 C   0  0  0  0  0  0  0  0  0  0  0  0
   13.0920    4.5020   11.6080 C   0  0  0  0  0  0  0  0  0  0  0  0
   13.1320    3.1870   11.1940 C   0  0  0  0  0  0  0  0  0  0  0  0
   12.0470    2.5500   11.1730 O   0  0  0  0  0  0  0  0  0  0  0  0
   14.3000    2.6410   10.8360 N   0  0  0  0  0  0  0  0  0  0  0  0
   15.4120    3.3550   10.8770 C   0  0  0  0  0  0  0  0  0  0  0  0
   16.4910    2.8030   10.5300 O   0  0  0  0  0  0  0  0  0  0  0  0
   15.4360    4.6630   11.2790 N   0  0  0  0  0  0  0  0  0  0  0  0
   16.7170    5.3330   11.2760 C   0  0  0  0  0  0  0  0  0  0  0  0
   14.2960    1.2400   10.4020 C   0  0  0  0  0  0  0  0  0  0  0  0
   14.9950    7.5740   12.2950 C   0  0  0  0  0  0  0  0  0  0  0  0
   12.0060    7.0860   13.5410 C   0  0  1  0  0  0  0  0  0  0  0  0
   10.8910    6.0650   13.8100 C   0  0  1  0  0  0  0  0  0  0  0  0
    9.7030    6.6940   14.3780 C   0  0  0  0  0  0  0  0  0  0  0  0
    9.6170    7.9660   14.4270 O   0  0  0  0  0  0  0  0  0  0  0  0
    8.6570    5.9610   14.8700 O   0  0  0  0  0  0  0  0  0  0  0  0
    7.2990    6.1810   14.4800 C   0  0  0  0  0  0  0  0  0  0  0  0
   12.8710    7.2380   14.7040 C   0  0  0  0  0  0  0  0  0  0  0  0
   13.6080    6.2850   15.0670 O   0  0  0  0  0  0  0  0  0  0  0  0
   12.9120    8.4080   15.4320 O   0  0  0  0  0  0  0  0  0  0  0  0
   13.0460    9.6630   14.8010 C   0  0  0  0  0  0  0  0  0  0  0  0
    6.6990    9.6680   11.6940 H   0  0  0  0  0  0  0  0  0  0  0  0
    9.0140    9.0410   11.6940 H   0  0  0  0  0  0  0  0  0  0  0  0
    7.8970    4.9020   11.3730 H   0  0  0  0  0  0  0  0  0  0  0  0
    5.5530    5.5490   11.3530 H   0  0  0  0  0  0  0  0  0  0  0  0
   10.1070    4.5350   12.4630 H   0  0  0  0  0  0  0  0  0  0  0  0
   12.2280    7.3490   11.4580 H   0  0  0  0  0  0  0  0  0  0  0  0
   16.9590    5.8550   12.2210 H   0  0  0  0  0  0  0  0  0  0  0  0
   17.5400    4.5460   11.2090 H   0  0  0  0  0  0  0  0  0  0  0  0
   16.8930    5.9380   10.3590 H   0  0  0  0  0  0  0  0  0  0  0  0
   13.9020    0.5810   11.2040 H   0  0  0  0  0  0  0  0  0  0  0  0
   15.3110    0.9440   10.0700 H   0  0  0  0  0  0  0  0  0  0  0  0
   13.6060    1.1480    9.5350 H   0  0  0  0  0  0  0  0  0  0  0  0
   14.5030    8.5950   12.3170 H   0  0  0  0  0  0  0  0  0  0  0  0
   15.5940    7.4960   13.1940 H   0  0  0  0  0  0  0  0  0  0  0  0
   15.6590    7.6710   11.3780 H   0  0  0  0  0  0  0  0  0  0  0  0
   11.4190    8.0530   13.3890 H   0  0  0  0  0  0  0  0  0  0  0  0
   11.3120    5.2400   14.4420 H   0  0  0  0  0  0  0  0  0  0  0  0
    7.1010    5.6890   13.4950 H   0  0  0  0  0  0  0  0  0  0  0  0
    6.6610    5.7580   15.2810 H   0  0  0  0  0  0  0  0  0  0  0  0
    7.1940    7.2940   14.4100 H   0  0  0  0  0  0  0  0  0  0  0  0
   12.8940   10.4470   15.5850 H   0  0  0  0  0  0  0  0  0  0  0  0
   14.1170    9.7530   14.4910 H   0  0  0  0  0  0  0  0  0  0  0  0
   12.3510    9.7860   13.9450 H   0  0  0  0  0  0  0  0  0  0  0  0
  1  2  1  0  0  0  0
  2  3  1  0  0  0  0
  3  4  2  0  0  0  0
  3 35  1  0  0  0  0
  4 36  1  0  0  0  0
  5  8  1  0  0  0  0
  5  4  1  0  0  0  0
  6  5  2  0  0  0  0
  7  6  1  0  0  0  0
  7  2  2  0  0  0  0
  8  9  1  1  0  0  0
  8 10  1  0  0  0  0
 10 39  1  1  0  0  0
 10 26  1  0  0  0  0
 11 12  1  0  0  0  0
 11 10  1  0  0  0  0
 12 40  1  6  0  0  0
 12 25  1  0  0  0  0
 13 12  1  0  0  0  0
 13 24  1  0  0  0  0
 14 13  1  0  0  0  0
 15 14  2  0  0  0  0
 15 11  1  0  0  0  0
 16 15  1  0  0  0  0
 17 16  2  0  0  0  0
 18 19  1  0  0  0  0
 18 16  1  0  0  0  0
 19 21  1  0  0  0  0
 20 19  2  0  0  0  0
 21 14  1  0  0  0  0
 22 21  1  0  0  0  0
 22 41  1  0  0  0  0
 23 18  1  0  0  0  0
 23 44  1  0  0  0  0
 24 47  1  0  0  0  0
 24 48  1  0  0  0  0
 25 50  1  6  0  0  0
 25 26  1  0  0  0  0
 25 31  1  0  0  0  0
 26 27  1  0  0  0  0
 26 51  1  1  0  0  0
 27 28  2  0  0  0  0
 27 29  1  0  0  0  0
 30 29  1  0  0  0  0
 30 53  1  0  0  0  0
 31 32  2  0  0  0  0
 31 33  1  0  0  0  0
 34 33  1  0  0  0  0
 34 55  1  0  0  0  0
 37  6  1  0  0  0  0
 38  7  1  0  0  0  0
 42 22  1  0  0  0  0
 43 22  1  0  0  0  0
 45 23  1  0  0  0  0
 46 23  1  0  0  0  0
 49 24  1  0  0  0  0
 52 30  1  0  0  0  0
 54 30  1  0  0  0  0
 56 34  1  0  0  0  0
 57 34  1  0  0  0  0
M  END
>  <Pose>
1

>  <Score>
-4.68

$$$$
