
 OpenBabel03172210413D

 52 55  0  0  1  0  0  0  0  0999 V2000
    4.5130    7.8610   11.0580 B   0  0  0  0  0  0  0  0  0  0  0  0
    6.0860    8.2960   12.0880 C   0  0  0  0  0  0  0  0  0  0  0  0
    7.2740    7.6590   11.8310 C   0  0  0  0  0  0  0  0  0  0  0  0
    8.4550    7.9200   12.5450 C   0  0  0  0  0  0  0  0  0  0  0  0
    8.4040    8.8570   13.5320 C   0  0  0  0  0  0  0  0  0  0  0  0
    7.2060    9.5100   13.8020 C   0  0  0  0  0  0  0  0  0  0  0  0
    6.0500    9.2370   13.0900 C   0  0  0  0  0  0  0  0  0  0  0  0
    9.6670    7.1780   12.1590 C   0  0  0  0  0  0  0  0  0  0  0  0
   10.7010    7.7450   11.7840 O   0  0  0  0  0  0  0  0  0  0  0  0
    9.5840    5.7310   12.2570 N   0  0  0  0  0  0  0  0  0  0  0  0
    9.3640    4.9600   11.0580 C   0  0  2  0  0  0  0  0  0  0  0  0
    8.6190    3.7000   11.5730 C   0  0  0  0  0  0  0  0  0  0  0  0
   10.6210    4.4720   10.4130 C   0  0  0  0  0  0  0  0  0  0  0  0
   10.7520    4.6540    9.1850 O   0  0  0  0  0  0  0  0  0  0  0  0
   11.6370    3.8430   11.1420 N   0  0  0  0  0  0  0  0  0  0  0  0
   11.5680    2.8640   12.1730 C   0  0  0  0  0  0  0  0  0  0  0  0
   12.8590    2.0480   12.0080 C   0  0  0  0  0  0  0  0  0  0  0  0
   13.3240    2.0100   10.5730 C   0  0  1  0  0  0  0  0  0  0  0  0
   14.5370    1.2490   10.4370 N   0  0  0  0  0  0  0  0  0  0  0  0
   14.9660    1.3450    9.0340 C   0  0  0  0  0  0  0  0  0  0  0  0
   14.0140    0.6490    8.1120 C   0  0  0  0  0  0  0  0  0  0  0  0
   12.6110    0.7170    8.5790 C   0  0  0  0  0  0  0  0  0  0  0  0
   11.4920    0.2320    8.0310 N   0  0  0  0  0  0  0  0  0  0  0  0
   10.4520    0.5510    8.8270 C   0  0  0  0  0  0  0  0  0  0  0  0
   10.9430    1.2360    9.8680 N   0  0  0  0  0  0  0  0  0  0  0  0
   12.2740    1.3700    9.7720 C   0  0  0  0  0  0  0  0  0  0  0  0
   13.6840    3.4040   10.0360 C   0  0  0  0  0  0  0  0  0  0  0  0
   13.0420    4.3410   10.9680 C   0  0  0  0  0  0  0  0  0  0  0  0
    7.3270    6.9040   11.0600 H   0  0  0  0  0  0  0  0  0  0  0  0
    9.3030    9.0820   14.1040 H   0  0  0  0  0  0  0  0  0  0  0  0
    7.1430   10.2490   14.5550 H   0  0  0  0  0  0  0  0  0  0  0  0
    5.0910    9.7200   13.2760 H   0  0  0  0  0  0  0  0  0  0  0  0
    9.6730    5.2710   13.1610 H   0  0  0  0  0  0  0  0  0  0  0  0
    8.6570    5.4310   10.3550 H   0  0  0  0  0  0  0  0  0  0  0  0
    9.3710    3.2890   12.3310 H   0  0  0  0  0  0  0  0  0  0  0  0
    7.7230    3.9660   12.1010 H   0  0  0  0  0  0  0  0  0  0  0  0
    8.4890    2.9710   10.7700 H   0  0  0  0  0  0  0  0  0  0  0  0
   11.6520    3.4170   13.1450 H   0  0  0  0  0  0  0  0  0  0  0  0
   10.6790    2.2440   12.1830 H   0  0  0  0  0  0  0  0  0  0  0  0
   12.5710    1.0200   12.2620 H   0  0  0  0  0  0  0  0  0  0  0  0
   13.6280    2.3340   12.7330 H   0  0  0  0  0  0  0  0  0  0  0  0
   15.2970    1.7070   10.9940 H   0  0  0  0  0  0  0  0  0  0  0  0
   15.0950    2.3610    8.6680 H   0  0  0  0  0  0  0  0  0  0  0  0
   15.9640    0.8280    8.9330 H   0  0  0  0  0  0  0  0  0  0  0  0
   14.3340   -0.4030    7.8660 H   0  0  0  0  0  0  0  0  0  0  0  0
   14.0270    1.1660    7.1040 H   0  0  0  0  0  0  0  0  0  0  0  0
   11.3570   -0.3080    7.1480 H   0  0  0  0  0  0  0  0  0  0  0  0
    9.4100    0.3280    8.7080 H   0  0  0  0  0  0  0  0  0  0  0  0
   13.3520    3.4330    8.9980 H   0  0  0  0  0  0  0  0  0  0  0  0
   14.7930    3.5950   10.1250 H   0  0  0  0  0  0  0  0  0  0  0  0
   13.0510    5.4010   10.8160 H   0  0  0  0  0  0  0  0  0  0  0  0
   13.5730    4.1980   11.9710 H   0  0  0  0  0  0  0  0  0  0  0  0
  1  2  1  0  0  0  0
  2  7  1  0  0  0  0
  3  2  2  0  0  0  0
  3  4  1  0  0  0  0
  4  5  2  0  0  0  0
  5  6  1  0  0  0  0
  5 30  1  0  0  0  0
  6 31  1  0  0  0  0
  7 32  1  0  0  0  0
  7  6  2  0  0  0  0
  8 10  1  0  0  0  0
  8  4  1  0  0  0  0
  9  8  2  0  0  0  0
 10 33  1  0  0  0  0
 11 34  1  6  0  0  0
 11 12  1  0  0  0  0
 11 10  1  0  0  0  0
 12 36  1  0  0  0  0
 12 35  1  0  0  0  0
 13 11  1  0  0  0  0
 13 15  1  0  0  0  0
 14 13  2  0  0  0  0
 15 16  1  0  0  0  0
 16 39  1  0  0  0  0
 16 38  1  0  0  0  0
 17 16  1  0  0  0  0
 17 40  1  0  0  0  0
 17 41  1  0  0  0  0
 18 26  1  6  0  0  0
 18 17  1  0  0  0  0
 19 18  1  0  0  0  0
 19 42  1  0  0  0  0
 20 19  1  0  0  0  0
 21 22  1  0  0  0  0
 21 20  1  0  0  0  0
 22 26  2  0  0  0  0
 23 22  1  0  0  0  0
 23 24  1  0  0  0  0
 24 25  2  0  0  0  0
 26 25  1  0  0  0  0
 27 50  1  0  0  0  0
 27 18  1  0  0  0  0
 27 28  1  0  0  0  0
 28 15  1  0  0  0  0
 28 52  1  0  0  0  0
 29  3  1  0  0  0  0
 37 12  1  0  0  0  0
 43 20  1  0  0  0  0
 44 20  1  0  0  0  0
 45 21  1  0  0  0  0
 46 21  1  0  0  0  0
 47 23  1  0  0  0  0
 48 24  1  0  0  0  0
 49 27  1  0  0  0  0
 51 28  1  0  0  0  0
M  END
>  <Pose>
1

>  <Score>
-5.97

$$$$
