
 OpenBabel03172210413D

 45 48  0  0  0  0  0  0  0  0999 V2000
    4.1400    7.0270   15.8440 B   0  0  0  0  0  0  0  0  0  0  0  0
    5.8180    6.6070   15.0010 C   0  0  0  0  0  0  0  0  0  0  0  0
    5.9050    6.4920   13.6260 C   0  0  0  0  0  0  0  0  0  0  0  0
    7.0800    6.1970   13.0160 N   0  0  0  0  0  0  0  0  0  0  0  0
    8.1940    6.0090   13.7330 C   0  0  0  0  0  0  0  0  0  0  0  0
    9.3550    5.7160   13.1240 N   0  0  0  0  0  0  0  0  0  0  0  0
    9.4600    5.6000   11.7900 C   0  0  0  0  0  0  0  0  0  0  0  0
    8.3180    5.7920   11.0530 C   0  0  0  0  0  0  0  0  0  0  0  0
    7.0970    6.0980   11.6710 C   0  0  0  0  0  0  0  0  0  0  0  0
    6.0700    6.2690   10.9680 O   0  0  0  0  0  0  0  0  0  0  0  0
   10.7650    5.2760   11.1800 C   0  0  0  0  0  0  0  0  0  0  0  0
   10.5940    4.1160   10.4130 O   0  0  0  0  0  0  0  0  0  0  0  0
   11.1050    2.8960   10.9350 C   0  0  0  0  0  0  0  0  0  0  0  0
   10.7740    2.7400   12.1040 O   0  0  0  0  0  0  0  0  0  0  0  0
   11.9010    2.0470   10.0700 C   0  0  0  0  0  0  0  0  0  0  0  0
   11.3040    1.0870    9.3020 N   0  0  0  0  0  0  0  0  0  0  0  0
   12.0070    0.3010    8.5050 N   0  0  0  0  0  0  0  0  0  0  0  0
   13.3440    0.4090    8.4150 C   0  0  0  0  0  0  0  0  0  0  0  0
   14.0120   -0.3570    7.6430 O   0  0  0  0  0  0  0  0  0  0  0  0
   14.0200    1.3490    9.1560 C   0  0  0  0  0  0  0  0  0  0  0  0
   13.2530    2.1670    9.9900 C   0  0  0  0  0  0  0  0  0  0  0  0
   13.9690    3.0910   10.7100 C   0  0  0  0  0  0  0  0  0  0  0  0
   15.3530    3.1950   10.6090 C   0  0  0  0  0  0  0  0  0  0  0  0
   16.0770    2.3720    9.7790 C   0  0  0  0  0  0  0  0  0  0  0  0
   15.3820    1.4410    9.0480 C   0  0  0  0  0  0  0  0  0  0  0  0
   11.3640   -0.7130    7.6950 C   0  0  0  0  0  0  0  0  0  0  0  0
    9.9210   -0.9210    8.0730 C   0  0  0  0  0  0  0  0  0  0  0  0
    9.1600   -1.4100    7.0270 O   0  0  0  0  0  0  0  0  0  0  0  0
    8.1270    6.1190   15.0960 C   0  0  0  0  0  0  0  0  0  0  0  0
    6.9510    6.4170   15.7530 C   0  0  0  0  0  0  0  0  0  0  0  0
    4.9840    6.6490   13.0610 H   0  0  0  0  0  0  0  0  0  0  0  0
    8.3400    5.7120    9.9760 H   0  0  0  0  0  0  0  0  0  0  0  0
   11.1940    6.1240   10.6100 H   0  0  0  0  0  0  0  0  0  0  0  0
   11.4920    5.1180   12.0240 H   0  0  0  0  0  0  0  0  0  0  0  0
   13.4860    3.7580   11.3700 H   0  0  0  0  0  0  0  0  0  0  0  0
   15.8720    3.9400   11.1990 H   0  0  0  0  0  0  0  0  0  0  0  0
   17.1640    2.4510    9.6970 H   0  0  0  0  0  0  0  0  0  0  0  0
   15.9250    0.7900    8.3940 H   0  0  0  0  0  0  0  0  0  0  0  0
   11.8850   -1.6810    7.8260 H   0  0  0  0  0  0  0  0  0  0  0  0
   11.4240   -0.4410    6.6310 H   0  0  0  0  0  0  0  0  0  0  0  0
    9.4660   -0.0000    8.4830 H   0  0  0  0  0  0  0  0  0  0  0  0
    9.9040   -1.6810    8.8800 H   0  0  0  0  0  0  0  0  0  0  0  0
    8.9070   -0.6440    6.4600 H   0  0  0  0  0  0  0  0  0  0  0  0
    9.0330    5.9670   15.7010 H   0  0  0  0  0  0  0  0  0  0  0  0
    6.9060    6.5030   16.8260 H   0  0  0  0  0  0  0  0  0  0  0  0
  2 30  2  0  0  0  0
  2  1  1  0  0  0  0
  3  2  1  0  0  0  0
  4  3  1  0  0  0  0
  4  5  1  0  0  0  0
  5 29  2  0  0  0  0
  6  5  1  0  0  0  0
  7  6  2  0  0  0  0
  8  9  1  0  0  0  0
  8  7  1  0  0  0  0
  9  4  1  0  0  0  0
 10  9  2  0  0  0  0
 11  7  1  0  0  0  0
 11 34  1  0  0  0  0
 12 13  1  0  0  0  0
 12 11  1  0  0  0  0
 13 14  2  0  0  0  0
 15 13  1  0  0  0  0
 16 15  2  0  0  0  0
 17 16  1  0  0  0  0
 18 17  1  0  0  0  0
 18 20  1  0  0  0  0
 19 18  2  0  0  0  0
 20 21  1  0  0  0  0
 21 15  1  0  0  0  0
 21 22  2  0  0  0  0
 22 35  1  0  0  0  0
 23 22  1  0  0  0  0
 23 36  1  0  0  0  0
 24 23  2  0  0  0  0
 25 20  2  0  0  0  0
 25 24  1  0  0  0  0
 26 39  1  0  0  0  0
 26 27  1  0  0  0  0
 26 17  1  0  0  0  0
 27 41  1  0  0  0  0
 27 42  1  0  0  0  0
 28 27  1  0  0  0  0
 29 44  1  0  0  0  0
 29 30  1  0  0  0  0
 30 45  1  0  0  0  0
 31  3  1  0  0  0  0
 32  8  1  0  0  0  0
 33 11  1  0  0  0  0
 37 24  1  0  0  0  0
 38 25  1  0  0  0  0
 40 26  1  0  0  0  0
 43 28  1  0  0  0  0
M  END
>  <Pose>
1

>  <Score>
-7.66

$$$$
