
 OpenBabel03172210413D

 55 58  0  0  1  0  0  0  0  0999 V2000
   20.7060    2.2650   12.0650 Cl  0  0  0  0  0  0  0  0  0  0  0  0
   19.5530    3.5790   11.7810 C   0  0  0  0  0  0  0  0  0  0  0  0
   18.2160    3.3620   12.0180 C   0  0  0  0  0  0  0  0  0  0  0  0
   17.2820    4.3630   11.8070 C   0  0  0  0  0  0  0  0  0  0  0  0
   15.9500    4.4310   11.9500 N   0  0  0  0  0  0  0  0  0  0  0  0
   15.5180    5.6910   11.5930 C   0  0  0  0  0  0  0  0  0  0  0  0
   16.6150    6.3530   11.2430 N   0  0  0  0  0  0  0  0  0  0  0  0
   17.7350    5.5810   11.3550 C   0  0  0  0  0  0  0  0  0  0  0  0
   19.0740    5.8090   11.1140 C   0  0  0  0  0  0  0  0  0  0  0  0
   19.9910    4.8080   11.3260 C   0  0  0  0  0  0  0  0  0  0  0  0
   16.7160    7.7410   10.8290 C   0  0  0  0  0  0  0  0  0  0  0  0
   14.1080    6.1480   11.6810 C   0  0  0  0  0  0  0  0  0  0  0  0
   13.1540    5.2550   12.3530 C   0  0  0  0  0  0  0  0  0  0  0  0
   11.7940    5.1640   11.8090 C   0  0  0  0  0  0  0  0  0  0  0  0
   11.4120    4.1960   11.1120 O   0  0  0  0  0  0  0  0  0  0  0  0
   10.8640    6.2320   12.0870 N   0  0  0  0  0  0  0  0  0  0  0  0
   10.3210    6.3540   13.4130 C   0  0  0  0  0  0  0  0  0  0  0  0
    8.8430    6.0330   13.3230 C   0  0  2  0  0  0  0  0  0  0  0  0
    8.2250    6.4280   12.0310 C   0  0  1  0  0  0  0  0  0  0  0  0
    8.9680    7.4460   11.2470 C   0  0  0  0  0  0  0  0  0  0  0  0
   10.4350    7.1980   11.1140 C   0  0  0  0  0  0  0  0  0  0  0  0
    7.9760    5.3320   11.1900 O   0  0  0  0  0  0  0  0  0  0  0  0
    6.8430    7.0140   12.3490 C   0  0  0  0  0  0  0  0  0  0  0  0
    8.1960    6.6100   14.4760 N   0  0  0  0  0  0  0  0  0  0  0  0
    8.3720    7.9120   14.7720 C   0  0  0  0  0  0  0  0  0  0  0  0
    7.7740    8.5040   15.8620 C   0  0  0  0  0  0  0  0  0  0  0  0
    6.9720    7.7310   16.6690 C   0  0  0  0  0  0  0  0  0  0  0  0
    6.3900    8.2200   17.6940 O   0  0  0  0  0  0  0  0  0  0  0  0
    6.8160    6.4370   16.3510 N   0  0  0  0  0  0  0  0  0  0  0  0
    7.4060    5.8870   15.2890 C   0  0  0  0  0  0  0  0  0  0  0  0
    7.2260    4.6620   15.0320 O   0  0  0  0  0  0  0  0  0  0  0  0
   17.8250    2.4130   12.3740 H   0  0  0  0  0  0  0  0  0  0  0  0
   19.3770    6.7730   10.7630 H   0  0  0  0  0  0  0  0  0  0  0  0
   21.0500    4.9510   11.1490 H   0  0  0  0  0  0  0  0  0  0  0  0
   15.7810    8.2960   10.9550 H   0  0  0  0  0  0  0  0  0  0  0  0
   17.5410    8.2770   11.3390 H   0  0  0  0  0  0  0  0  0  0  0  0
   17.0020    7.7240    9.7440 H   0  0  0  0  0  0  0  0  0  0  0  0
   13.7800    6.4330   10.6470 H   0  0  0  0  0  0  0  0  0  0  0  0
   14.1740    7.1500   12.2100 H   0  0  0  0  0  0  0  0  0  0  0  0
   13.5830    4.2340   12.5590 H   0  0  0  0  0  0  0  0  0  0  0  0
   13.0140    5.6750   13.4070 H   0  0  0  0  0  0  0  0  0  0  0  0
   10.4950    7.3590   13.8550 H   0  0  0  0  0  0  0  0  0  0  0  0
   10.8220    5.6380   14.0970 H   0  0  0  0  0  0  0  0  0  0  0  0
    8.7590    4.9170   13.4170 H   0  0  0  0  0  0  0  0  0  0  0  0
    8.5430    7.4390   10.2020 H   0  0  0  0  0  0  0  0  0  0  0  0
    8.7290    8.4780   11.6250 H   0  0  0  0  0  0  0  0  0  0  0  0
   10.9520    8.1680   11.3730 H   0  0  0  0  0  0  0  0  0  0  0  0
   10.7550    6.9560   10.0840 H   0  0  0  0  0  0  0  0  0  0  0  0
    6.9770    5.2180   11.1210 H   0  0  0  0  0  0  0  0  0  0  0  0
    6.2630    6.9510   11.3960 H   0  0  0  0  0  0  0  0  0  0  0  0
    6.3040    6.3510   13.0650 H   0  0  0  0  0  0  0  0  0  0  0  0
    6.8970    8.0580   12.6600 H   0  0  0  0  0  0  0  0  0  0  0  0
    9.0100    8.5300   14.1310 H   0  0  0  0  0  0  0  0  0  0  0  0
    7.9160    9.5480   16.0980 H   0  0  0  0  0  0  0  0  0  0  0  0
    6.2050    5.8030   16.9480 H   0  0  0  0  0  0  0  0  0  0  0  0
  2  3  1  0  0  0  0
  2  1  1  0  0  0  0
  3 32  1  0  0  0  0
  4  5  1  0  0  0  0
  4  3  2  0  0  0  0
  6 12  1  0  0  0  0
  6  5  2  0  0  0  0
  7  8  1  0  0  0  0
  7  6  1  0  0  0  0
  8  4  1  0  0  0  0
  9 10  1  0  0  0  0
  9  8  2  0  0  0  0
 10  2  2  0  0  0  0
 11 35  1  0  0  0  0
 11  7  1  0  0  0  0
 11 36  1  0  0  0  0
 12 39  1  0  0  0  0
 12 13  1  0  0  0  0
 13 40  1  0  0  0  0
 13 41  1  0  0  0  0
 14 16  1  0  0  0  0
 14 13  1  0  0  0  0
 15 14  2  0  0  0  0
 16 17  1  0  0  0  0
 17 42  1  0  0  0  0
 17 43  1  0  0  0  0
 18 17  1  0  0  0  0
 18 44  1  1  0  0  0
 18 24  1  0  0  0  0
 19 22  1  6  0  0  0
 19 23  1  0  0  0  0
 19 18  1  0  0  0  0
 20 46  1  0  0  0  0
 20 19  1  0  0  0  0
 21 20  1  0  0  0  0
 21 47  1  0  0  0  0
 21 16  1  0  0  0  0
 23 52  1  0  0  0  0
 23 51  1  0  0  0  0
 24 25  1  0  0  0  0
 24 30  1  0  0  0  0
 25 26  2  0  0  0  0
 26 54  1  0  0  0  0
 26 27  1  0  0  0  0
 27 28  2  0  0  0  0
 29 27  1  0  0  0  0
 29 55  1  0  0  0  0
 30 29  1  0  0  0  0
 31 30  2  0  0  0  0
 33  9  1  0  0  0  0
 34 10  1  0  0  0  0
 37 11  1  0  0  0  0
 38 12  1  0  0  0  0
 45 20  1  0  0  0  0
 48 21  1  0  0  0  0
 49 22  1  0  0  0  0
 50 23  1  0  0  0  0
 53 25  1  0  0  0  0
M  END
>  <Pose>
1

>  <Score>
-6.06

$$$$
