
 OpenBabel03172210413D

 49 52  0  0  0  0  0  0  0  0999 V2000
    3.6220    8.8170   13.0770 B   0  0  0  0  0  0  0  0  0  0  0  0
    4.9730    7.6560   13.7200 C   0  0  0  0  0  0  0  0  0  0  0  0
    6.0150    7.3030   12.8810 C   0  0  0  0  0  0  0  0  0  0  0  0
    7.0310    6.4590   13.2890 C   0  0  0  0  0  0  0  0  0  0  0  0
    6.9820    5.9660   14.5850 C   0  0  0  0  0  0  0  0  0  0  0  0
    5.9440    6.3210   15.4130 C   0  0  0  0  0  0  0  0  0  0  0  0
    4.9230    7.1590   15.0230 C   0  0  0  0  0  0  0  0  0  0  0  0
    8.1400    6.0700   12.4300 C   0  0  0  0  0  0  0  0  0  0  0  0
    7.9030    5.5020   11.3330 O   0  0  0  0  0  0  0  0  0  0  0  0
    9.4930    6.3000   12.7660 N   0  0  0  0  0  0  0  0  0  0  0  0
   10.5360    6.3390   11.7630 C   0  0  0  0  0  0  0  0  0  0  0  0
   11.3390    5.0880   11.7570 C   0  0  0  0  0  0  0  0  0  0  0  0
   11.9530    4.8010   12.8140 O   0  0  0  0  0  0  0  0  0  0  0  0
   11.4410    4.2330   10.6490 N   0  0  0  0  0  0  0  0  0  0  0  0
   10.5180    3.1500   10.4190 C   0  0  0  0  0  0  0  0  0  0  0  0
   11.3140    1.8670   10.5150 C   0  0  0  0  0  0  0  0  0  0  0  0
   12.5370    1.9590    9.6330 C   0  0  0  0  0  0  0  0  0  0  0  0
   13.7070    1.8730   10.4810 N   0  0  0  0  0  0  0  0  0  0  0  0
   14.9460    1.8190    9.7880 C   0  0  0  0  0  0  0  0  0  0  0  0
   14.9930    1.0070    8.5460 C   0  0  0  0  0  0  0  0  0  0  0  0
   13.7490    0.2690    8.2440 C   0  0  0  0  0  0  0  0  0  0  0  0
   13.4970   -0.8520    7.5010 N   0  0  0  0  0  0  0  0  0  0  0  0
   12.1780   -1.0700    7.5710 C   0  0  0  0  0  0  0  0  0  0  0  0
   11.6130   -0.1190    8.3320 N   0  0  0  0  0  0  0  0  0  0  0  0
   12.5670    0.7400    8.7720 C   0  0  0  0  0  0  0  0  0  0  0  0
   12.5920    3.1860    8.7800 C   0  0  0  0  0  0  0  0  0  0  0  0
   12.4970    4.4170    9.6870 C   0  0  0  0  0  0  0  0  0  0  0  0
    6.0170    7.7010   11.8970 H   0  0  0  0  0  0  0  0  0  0  0  0
    7.7410    5.2980   14.9860 H   0  0  0  0  0  0  0  0  0  0  0  0
    5.8880    5.9450   16.4300 H   0  0  0  0  0  0  0  0  0  0  0  0
    4.1050    7.4540   15.6380 H   0  0  0  0  0  0  0  0  0  0  0  0
    9.7450    6.4450   13.7630 H   0  0  0  0  0  0  0  0  0  0  0  0
   11.2470    7.1660   11.9640 H   0  0  0  0  0  0  0  0  0  0  0  0
   10.0370    6.5290   10.7920 H   0  0  0  0  0  0  0  0  0  0  0  0
   10.0760    3.2210    9.3930 H   0  0  0  0  0  0  0  0  0  0  0  0
    9.6580    3.1600   11.1110 H   0  0  0  0  0  0  0  0  0  0  0  0
   10.6950    0.9790   10.2600 H   0  0  0  0  0  0  0  0  0  0  0  0
   11.6050    1.7760   11.5970 H   0  0  0  0  0  0  0  0  0  0  0  0
   13.7210    2.7180   11.1100 H   0  0  0  0  0  0  0  0  0  0  0  0
   15.6960    1.3690   10.5040 H   0  0  0  0  0  0  0  0  0  0  0  0
   15.3720    2.8390    9.5850 H   0  0  0  0  0  0  0  0  0  0  0  0
   15.8300    0.2470    8.5590 H   0  0  0  0  0  0  0  0  0  0  0  0
   15.2460    1.6370    7.6450 H   0  0  0  0  0  0  0  0  0  0  0  0
   14.2410   -1.4080    6.9870 H   0  0  0  0  0  0  0  0  0  0  0  0
   11.6510   -1.8790    7.0940 H   0  0  0  0  0  0  0  0  0  0  0  0
   11.8520    3.2000    7.9800 H   0  0  0  0  0  0  0  0  0  0  0  0
   13.5930    3.2320    8.3170 H   0  0  0  0  0  0  0  0  0  0  0  0
   12.2750    5.3230    9.0850 H   0  0  0  0  0  0  0  0  0  0  0  0
   13.4830    4.5510   10.1380 H   0  0  0  0  0  0  0  0  0  0  0  0
  1  2  1  0  0  0  0
  2  7  1  0  0  0  0
  3  4  1  0  0  0  0
  3  2  2  0  0  0  0
  4  5  2  0  0  0  0
  5 29  1  0  0  0  0
  5  6  1  0  0  0  0
  6 30  1  0  0  0  0
  7  6  2  0  0  0  0
  7 31  1  0  0  0  0
  8 10  1  0  0  0  0
  8  4  1  0  0  0  0
  9  8  2  0  0  0  0
 10 32  1  0  0  0  0
 11 33  1  0  0  0  0
 11 10  1  0  0  0  0
 12 11  1  0  0  0  0
 12 13  2  0  0  0  0
 14 12  1  0  0  0  0
 15 16  1  0  0  0  0
 15 14  1  0  0  0  0
 15 36  1  0  0  0  0
 16 38  1  0  0  0  0
 17 18  1  0  0  0  0
 17 16  1  0  0  0  0
 18 39  1  0  0  0  0
 19 18  1  0  0  0  0
 19 40  1  0  0  0  0
 20 42  1  0  0  0  0
 20 19  1  0  0  0  0
 21 20  1  0  0  0  0
 21 25  2  0  0  0  0
 22 23  1  0  0  0  0
 22 21  1  0  0  0  0
 23 24  2  0  0  0  0
 24 25  1  0  0  0  0
 25 17  1  0  0  0  0
 26 17  1  0  0  0  0
 26 27  1  0  0  0  0
 27 49  1  0  0  0  0
 27 14  1  0  0  0  0
 28  3  1  0  0  0  0
 34 11  1  0  0  0  0
 35 15  1  0  0  0  0
 37 16  1  0  0  0  0
 41 19  1  0  0  0  0
 43 20  1  0  0  0  0
 44 22  1  0  0  0  0
 45 23  1  0  0  0  0
 46 26  1  0  0  0  0
 47 26  1  0  0  0  0
 48 27  1  0  0  0  0
M  END
>  <Pose>
1

>  <Score>
-6.73

$$$$
