
 OpenBabel03172210413D

 47 50  0  0  0  0  0  0  0  0999 V2000
   15.9790    2.7180    9.9710 B   0  0  0  0  0  0  0  0  0  0  0  0
   14.2120    2.0240    9.7390 C   0  0  0  0  0  0  0  0  0  0  0  0
   13.0830    2.4960   10.2630 N   0  0  0  0  0  0  0  0  0  0  0  0
   12.0870    1.7060    9.7740 C   0  0  0  0  0  0  0  0  0  0  0  0
   12.6670    0.7620    8.9560 C   0  0  0  0  0  0  0  0  0  0  0  0
   13.9780    0.9590    8.9360 N   0  0  0  0  0  0  0  0  0  0  0  0
   11.8710   -0.1530    8.3360 N   0  0  0  0  0  0  0  0  0  0  0  0
   10.5560   -0.1060    8.5380 C   0  0  0  0  0  0  0  0  0  0  0  0
    9.8420   -0.9690    7.9490 O   0  0  0  0  0  0  0  0  0  0  0  0
    9.9810    0.8100    9.3330 N   0  0  0  0  0  0  0  0  0  0  0  0
   10.7230    1.7520    9.9810 C   0  0  0  0  0  0  0  0  0  0  0  0
   10.1750    2.6070   10.7210 O   0  0  0  0  0  0  0  0  0  0  0  0
   12.4420   -1.1630    7.4680 C   0  0  0  0  0  0  0  0  0  0  0  0
   12.8420    3.5660   11.1710 C   0  0  0  0  0  0  0  0  0  0  0  0
   12.0740    3.2880   12.3960 C   0  0  0  0  0  0  0  0  0  0  0  0
   11.6340    4.2720   13.2170 O   0  0  0  0  0  0  0  0  0  0  0  0
   10.6960    5.0760   12.5900 C   0  0  0  0  0  0  0  0  0  0  0  0
   10.0150    5.9300   13.6180 C   0  0  0  0  0  0  0  0  0  0  0  0
    8.8460    6.5660   13.0990 N   0  0  0  0  0  0  0  0  0  0  0  0
    7.6520    6.6240   13.7030 C   0  0  0  0  0  0  0  0  0  0  0  0
    6.8050    7.3070   12.8860 C   0  0  0  0  0  0  0  0  0  0  0  0
    7.5040    7.6470   11.8060 N   0  0  0  0  0  0  0  0  0  0  0  0
    8.7690    7.2070   11.9010 C   0  0  0  0  0  0  0  0  0  0  0  0
   10.2080    7.3940   10.6760 B   0  0  0  0  0  0  0  0  0  0  0  0
    5.5300    7.5120   13.2580 N   0  0  0  0  0  0  0  0  0  0  0  0
    5.1130    7.0410   14.4300 C   0  0  0  0  0  0  0  0  0  0  0  0
    3.9150    7.2420   14.7660 O   0  0  0  0  0  0  0  0  0  0  0  0
    5.9230    6.3730   15.2420 N   0  0  0  0  0  0  0  0  0  0  0  0
    7.1980    6.1440   14.9160 C   0  0  0  0  0  0  0  0  0  0  0  0
    7.9420    5.4990   15.7220 O   0  0  0  0  0  0  0  0  0  0  0  0
    4.6150    8.2370   12.4010 C   0  0  0  0  0  0  0  0  0  0  0  0
    8.9490    0.8350    9.4820 H   0  0  0  0  0  0  0  0  0  0  0  0
   13.2960   -0.7360    6.8950 H   0  0  0  0  0  0  0  0  0  0  0  0
   11.7080   -1.5350    6.7450 H   0  0  0  0  0  0  0  0  0  0  0  0
   12.7920   -2.0430    8.0660 H   0  0  0  0  0  0  0  0  0  0  0  0
   13.8710    3.9160   11.5010 H   0  0  0  0  0  0  0  0  0  0  0  0
   12.4610    4.4930   10.6310 H   0  0  0  0  0  0  0  0  0  0  0  0
   11.1230    2.6850   12.1340 H   0  0  0  0  0  0  0  0  0  0  0  0
   12.6200    2.4780   13.0120 H   0  0  0  0  0  0  0  0  0  0  0  0
    9.9080    4.3830   12.1390 H   0  0  0  0  0  0  0  0  0  0  0  0
   11.1500    5.5880   11.7580 H   0  0  0  0  0  0  0  0  0  0  0  0
    9.7840    5.2600   14.4920 H   0  0  0  0  0  0  0  0  0  0  0  0
   10.7780    6.6710   13.9590 H   0  0  0  0  0  0  0  0  0  0  0  0
    5.5770    6.0110   16.1570 H   0  0  0  0  0  0  0  0  0  0  0  0
    4.6370    9.2980   12.6900 H   0  0  0  0  0  0  0  0  0  0  0  0
    4.9070    8.1130   11.3430 H   0  0  0  0  0  0  0  0  0  0  0  0
    3.6060    7.7670   12.5620 H   0  0  0  0  0  0  0  0  0  0  0  0
  2  1  1  0  0  0  0
  2  3  1  0  0  0  0
  3 14  1  0  0  0  0
  4 11  1  0  0  0  0
  4  3  1  0  0  0  0
  5  4  2  0  0  0  0
  6  5  1  0  0  0  0
  6  2  2  0  0  0  0
  7  8  1  0  0  0  0
  7  5  1  0  0  0  0
  8 10  1  0  0  0  0
  9  8  2  0  0  0  0
 10 32  1  0  0  0  0
 10 11  1  0  0  0  0
 11 12  2  0  0  0  0
 13 35  1  0  0  0  0
 13  7  1  0  0  0  0
 14 36  1  0  0  0  0
 14 15  1  0  0  0  0
 15 39  1  0  0  0  0
 15 16  1  0  0  0  0
 17 16  1  0  0  0  0
 17 18  1  0  0  0  0
 18 43  1  0  0  0  0
 18 42  1  0  0  0  0
 19 18  1  0  0  0  0
 19 20  1  0  0  0  0
 20 29  1  0  0  0  0
 21 25  1  0  0  0  0
 21 20  2  0  0  0  0
 22 23  2  0  0  0  0
 22 21  1  0  0  0  0
 23 19  1  0  0  0  0
 24 23  1  0  0  0  0
 25 26  1  0  0  0  0
 26 27  2  0  0  0  0
 26 28  1  0  0  0  0
 28 44  1  0  0  0  0
 29 28  1  0  0  0  0
 29 30  2  0  0  0  0
 31 47  1  0  0  0  0
 31 45  1  0  0  0  0
 31 25  1  0  0  0  0
 33 13  1  0  0  0  0
 34 13  1  0  0  0  0
 37 14  1  0  0  0  0
 38 15  1  0  0  0  0
 40 17  1  0  0  0  0
 41 17  1  0  0  0  0
 46 31  1  0  0  0  0
M  END
>  <Pose>
1

>  <Score>
-8.04

$$$$
