
 OpenBabel03172210413D

 51 54  0  0  0  0  0  0  0  0999 V2000
   21.4270    1.9990   12.9970 Cl  0  0  0  0  0  0  0  0  0  0  0  0
   21.5540    3.5540   12.2060 C   0  0  0  0  0  0  0  0  0  0  0  0
   20.5210    4.0140   11.4450 C   0  0  0  0  0  0  0  0  0  0  0  0
   20.6750    5.2440   10.8460 C   0  0  0  0  0  0  0  0  0  0  0  0
   21.8130    5.9940   10.9950 C   0  0  0  0  0  0  0  0  0  0  0  0
   22.8520    5.5190   11.7670 C   0  0  0  0  0  0  0  0  0  0  0  0
   22.7050    4.2900   12.3690 C   0  0  0  0  0  0  0  0  0  0  0  0
   19.2630    3.2730   11.2330 C   0  0  0  0  0  0  0  0  0  0  0  0
   18.0860    4.0520   11.4030 N   0  0  0  0  0  0  0  0  0  0  0  0
   17.9530    5.1270   12.1710 N   0  0  0  0  0  0  0  0  0  0  0  0
   16.7250    5.6140   12.1080 C   0  0  0  0  0  0  0  0  0  0  0  0
   16.0210    4.7800   11.2270 C   0  0  0  0  0  0  0  0  0  0  0  0
   16.8890    3.8030   10.7940 C   0  0  0  0  0  0  0  0  0  0  0  0
   16.6190    2.8020    9.8680 N   0  0  0  0  0  0  0  0  0  0  0  0
   15.5710    2.0240    9.4910 C   0  0  0  0  0  0  0  0  0  0  0  0
   15.8790    1.4740    8.2690 O   0  0  0  0  0  0  0  0  0  0  0  0
   14.2580    1.5710    9.9210 C   0  0  0  0  0  0  0  0  0  0  0  0
   13.2310    2.3690   10.4380 N   0  0  0  0  0  0  0  0  0  0  0  0
   13.4150    3.2570   11.6170 C   0  0  0  0  0  0  0  0  0  0  0  0
   12.0080    3.6320   12.0330 C   0  0  0  0  0  0  0  0  0  0  0  0
   11.3780    4.4380   10.9270 C   0  0  0  0  0  0  0  0  0  0  0  0
   11.1410    3.5440    9.7280 C   0  0  0  0  0  0  0  0  0  0  0  0
   11.9130    2.2770    9.8780 C   0  0  0  0  0  0  0  0  0  0  0  0
   11.3430    1.1040    9.5920 C   0  0  0  0  0  0  0  0  0  0  0  0
   10.0260    1.0330    9.0200 N   0  0  0  0  0  0  0  0  0  0  0  0
    9.6500   -0.3150    8.8830 N   0  0  0  0  0  0  0  0  0  0  0  0
   10.7090   -1.1140    9.3590 C   0  0  0  0  0  0  0  0  0  0  0  0
   10.8010   -2.3610    9.4230 O   0  0  0  0  0  0  0  0  0  0  0  0
   11.7440   -0.2130    9.7930 N   0  0  0  0  0  0  0  0  0  0  0  0
   19.8810    5.6440   10.2350 H   0  0  0  0  0  0  0  0  0  0  0  0
   21.9080    6.9540   10.5140 H   0  0  0  0  0  0  0  0  0  0  0  0
   23.7490    6.1140   11.8820 H   0  0  0  0  0  0  0  0  0  0  0  0
   23.5160    3.9210   12.9720 H   0  0  0  0  0  0  0  0  0  0  0  0
   19.2820    2.3230   11.8240 H   0  0  0  0  0  0  0  0  0  0  0  0
   19.3030    2.9120   10.1610 H   0  0  0  0  0  0  0  0  0  0  0  0
   16.2790    6.4740   12.6030 H   0  0  0  0  0  0  0  0  0  0  0  0
   14.9940    4.9280   10.9630 H   0  0  0  0  0  0  0  0  0  0  0  0
   17.5110    2.6570    9.2000 H   0  0  0  0  0  0  0  0  0  0  0  0
   13.8740    1.0790    8.9290 H   0  0  0  0  0  0  0  0  0  0  0  0
   14.3880    0.6550   10.6320 H   0  0  0  0  0  0  0  0  0  0  0  0
   13.7960    2.6400   12.4660 H   0  0  0  0  0  0  0  0  0  0  0  0
   13.9700    4.1490   11.4260 H   0  0  0  0  0  0  0  0  0  0  0  0
   12.0550    4.2660   12.9660 H   0  0  0  0  0  0  0  0  0  0  0  0
   11.3900    2.7400   12.2610 H   0  0  0  0  0  0  0  0  0  0  0  0
   10.4050    4.8710   11.2720 H   0  0  0  0  0  0  0  0  0  0  0  0
   12.0490    5.2750   10.6820 H   0  0  0  0  0  0  0  0  0  0  0  0
   10.0510    3.3640    9.5800 H   0  0  0  0  0  0  0  0  0  0  0  0
   11.4820    4.0580    8.8240 H   0  0  0  0  0  0  0  0  0  0  0  0
    9.3680    1.7760    8.7140 H   0  0  0  0  0  0  0  0  0  0  0  0
    8.7500   -0.6980    8.4980 H   0  0  0  0  0  0  0  0  0  0  0  0
   12.6370   -0.5190   10.2140 H   0  0  0  0  0  0  0  0  0  0  0  0
  2  7  1  0  0  0  0
  2  1  1  0  0  0  0
  3  2  2  0  0  0  0
  4  5  2  0  0  0  0
  4  3  1  0  0  0  0
  5  6  1  0  0  0  0
  6 32  1  0  0  0  0
  6  7  2  0  0  0  0
  7 33  1  0  0  0  0
  8  9  1  0  0  0  0
  8  3  1  0  0  0  0
  8 34  1  0  0  0  0
  9 10  1  0  0  0  0
 11 10  2  0  0  0  0
 11 36  1  0  0  0  0
 12 11  1  0  0  0  0
 13 12  2  0  0  0  0
 13  9  1  0  0  0  0
 14 13  1  0  0  0  0
 15 14  1  0  0  0  0
 15 17  1  0  0  0  0
 16 15  2  0  0  0  0
 17 18  1  0  0  0  0
 17 40  1  0  0  0  0
 18 19  1  0  0  0  0
 19 20  1  0  0  0  0
 19 41  1  0  0  0  0
 20 44  1  0  0  0  0
 20 43  1  0  0  0  0
 21 45  1  0  0  0  0
 21 20  1  0  0  0  0
 22 23  1  0  0  0  0
 22 21  1  0  0  0  0
 23 18  1  0  0  0  0
 24 29  1  0  0  0  0
 24 23  2  0  0  0  0
 25 24  1  0  0  0  0
 26 25  1  0  0  0  0
 26 27  1  0  0  0  0
 27 28  2  0  0  0  0
 27 29  1  0  0  0  0
 29 51  1  0  0  0  0
 30  4  1  0  0  0  0
 31  5  1  0  0  0  0
 35  8  1  0  0  0  0
 37 12  1  0  0  0  0
 38 14  1  0  0  0  0
 39 17  1  0  0  0  0
 42 19  1  0  0  0  0
 46 21  1  0  0  0  0
 47 22  1  0  0  0  0
 48 22  1  0  0  0  0
 49 25  1  0  0  0  0
 50 26  1  0  0  0  0
M  END
>  <Pose>
1

>  <Score>
-7.21

$$$$
