
 OpenBabel03172210413D

 50 53  0  0  0  0  0  0  0  0999 V2000
   15.1040    1.1950    8.3030 B   0  0  0  0  0  0  0  0  0  0  0  0
   13.3400    1.3210    8.9810 C   0  0  0  0  0  0  0  0  0  0  0  0
   12.3720    0.4720    8.5290 C   0  0  0  0  0  0  0  0  0  0  0  0
   11.0840    0.5900    9.0450 C   0  0  0  0  0  0  0  0  0  0  0  0
   10.8140    1.5630   10.0020 C   0  0  0  0  0  0  0  0  0  0  0  0
   11.7790    2.4200   10.4600 C   0  0  0  0  0  0  0  0  0  0  0  0
   13.0470    2.2910    9.9410 C   0  0  0  0  0  0  0  0  0  0  0  0
   14.0160    3.1630   10.4130 O   0  0  0  0  0  0  0  0  0  0  0  0
   11.4750    3.4310   11.4610 C   0  0  0  0  0  0  0  0  0  0  0  0
   10.9880    4.5870   11.1800 N   0  0  0  0  0  0  0  0  0  0  0  0
   10.7230    5.5130   12.2450 N   0  0  0  0  0  0  0  0  0  0  0  0
    9.4700    5.4510   12.8410 C   0  0  0  0  0  0  0  0  0  0  0  0
    9.3480    4.6500   13.8430 O   0  0  0  0  0  0  0  0  0  0  0  0
    8.2580    6.1680   12.4940 C   0  0  0  0  0  0  0  0  0  0  0  0
    7.6610    6.1630   11.2590 N   0  0  0  0  0  0  0  0  0  0  0  0
    6.5890    6.9050   11.2920 N   0  0  0  0  0  0  0  0  0  0  0  0
    6.4040    7.4320   12.4900 N   0  0  0  0  0  0  0  0  0  0  0  0
    7.4190    6.9920   13.2530 C   0  0  0  0  0  0  0  0  0  0  0  0
    7.6760    7.3280   14.6560 C   0  0  0  0  0  0  0  0  0  0  0  0
    9.0070    7.8860   14.9100 N   0  0  0  0  0  0  0  0  0  0  0  0
    9.6500    7.0950   15.9780 C   0  0  0  0  0  0  0  0  0  0  0  0
    8.6950    6.8990   17.1040 C   0  0  0  0  0  0  0  0  0  0  0  0
    8.2160    8.1160   17.5210 O   0  0  0  0  0  0  0  0  0  0  0  0
    8.8570    9.1950   16.9710 C   0  0  0  0  0  0  0  0  0  0  0  0
    8.8350    9.2490   15.4660 C   0  0  0  0  0  0  0  0  0  0  0  0
    5.3390    8.3080   12.8150 C   0  0  0  0  0  0  0  0  0  0  0  0
    5.2590    9.2360   13.7930 N   0  0  0  0  0  0  0  0  0  0  0  0
    4.1000    9.8370   13.7400 O   0  0  0  0  0  0  0  0  0  0  0  0
    3.3800    9.3530   12.7590 N   0  0  0  0  0  0  0  0  0  0  0  0
    4.1190    8.4020   12.1630 C   0  0  0  0  0  0  0  0  0  0  0  0
    3.6890    7.6420   11.0540 N   0  0  0  0  0  0  0  0  0  0  0  0
    9.7180   -0.5750    8.4380 B   0  0  0  0  0  0  0  0  0  0  0  0
   12.6220   -0.5050    7.5760 O   0  0  0  0  0  0  0  0  0  0  0  0
    9.8230    1.6540   10.3980 H   0  0  0  0  0  0  0  0  0  0  0  0
   14.0220    4.1300   10.1130 H   0  0  0  0  0  0  0  0  0  0  0  0
   11.6630    3.2170   12.5110 H   0  0  0  0  0  0  0  0  0  0  0  0
   11.5070    6.1650   12.4820 H   0  0  0  0  0  0  0  0  0  0  0  0
    7.5780    6.4570   15.3090 H   0  0  0  0  0  0  0  0  0  0  0  0
    6.9790    8.1130   14.9800 H   0  0  0  0  0  0  0  0  0  0  0  0
   10.0510    6.1500   15.5800 H   0  0  0  0  0  0  0  0  0  0  0  0
   10.5050    7.7020   16.3280 H   0  0  0  0  0  0  0  0  0  0  0  0
    7.8470    6.2380   16.8550 H   0  0  0  0  0  0  0  0  0  0  0  0
    9.2710    6.4720   17.9770 H   0  0  0  0  0  0  0  0  0  0  0  0
    8.2810   10.1060   17.3180 H   0  0  0  0  0  0  0  0  0  0  0  0
    9.8790    9.3070   17.3900 H   0  0  0  0  0  0  0  0  0  0  0  0
    9.7110    9.8340   15.1580 H   0  0  0  0  0  0  0  0  0  0  0  0
    7.9130    9.7180   15.1360 H   0  0  0  0  0  0  0  0  0  0  0  0
    3.8950    6.6270   11.0330 H   0  0  0  0  0  0  0  0  0  0  0  0
    3.1730    8.0580   10.2580 H   0  0  0  0  0  0  0  0  0  0  0  0
   13.5610   -0.8020    7.3700 H   0  0  0  0  0  0  0  0  0  0  0  0
  1  2  1  0  0  0  0
  2  7  1  0  0  0  0
  3  2  2  0  0  0  0
  3  4  1  0  0  0  0
  4  5  2  0  0  0  0
  5 34  1  0  0  0  0
  5  6  1  0  0  0  0
  6  9  1  0  0  0  0
  7  8  1  0  0  0  0
  7  6  2  0  0  0  0
  9 36  1  0  0  0  0
 10  9  2  0  0  0  0
 10 11  1  0  0  0  0
 11 37  1  0  0  0  0
 11 12  1  0  0  0  0
 12 13  2  0  0  0  0
 14 12  1  0  0  0  0
 14 18  2  0  0  0  0
 15 16  2  0  0  0  0
 15 14  1  0  0  0  0
 16 17  1  0  0  0  0
 17 26  1  0  0  0  0
 17 18  1  0  0  0  0
 18 19  1  0  0  0  0
 19 20  1  0  0  0  0
 19 39  1  0  0  0  0
 19 38  1  0  0  0  0
 20 25  1  0  0  0  0
 20 21  1  0  0  0  0
 21 41  1  0  0  0  0
 21 22  1  0  0  0  0
 22 23  1  0  0  0  0
 22 43  1  0  0  0  0
 24 44  1  0  0  0  0
 24 45  1  0  0  0  0
 24 23  1  0  0  0  0
 25 24  1  0  0  0  0
 26 27  2  0  0  0  0
 28 27  1  0  0  0  0
 29 28  1  0  0  0  0
 30 29  2  0  0  0  0
 30 26  1  0  0  0  0
 31 30  1  0  0  0  0
 32  4  1  0  0  0  0
 33  3  1  0  0  0  0
 35  8  1  0  0  0  0
 40 21  1  0  0  0  0
 42 22  1  0  0  0  0
 46 25  1  0  0  0  0
 47 25  1  0  0  0  0
 48 31  1  0  0  0  0
 49 31  1  0  0  0  0
 50 33  1  0  0  0  0
M  END
>  <Pose>
1

>  <Score>
-8.48

$$$$
