
 OpenBabel03172210413D

 54 57  0  0  0  0  0  0  0  0999 V2000
    5.5070   10.3680   16.1850 Cl  0  0  0  0  0  0  0  0  0  0  0  0
    4.7970    9.6510   14.7350 C   0  0  0  0  0  0  0  0  0  0  0  0
    5.6150    9.0340   13.8150 C   0  0  0  0  0  0  0  0  0  0  0  0
    5.0390    8.4870   12.7010 C   0  0  0  0  0  0  0  0  0  0  0  0
    3.6730    8.5280   12.4670 C   0  0  0  0  0  0  0  0  0  0  0  0
    2.8760    9.1630   13.4260 C   0  0  0  0  0  0  0  0  0  0  0  0
    3.4320    9.7200   14.5510 C   0  0  0  0  0  0  0  0  0  0  0  0
    7.0100    8.9560   13.9920 N   0  0  0  0  0  0  0  0  0  0  0  0
    7.8760   10.0480   13.6310 C   0  0  0  0  0  0  0  0  0  0  0  0
    9.0750    9.6160   12.8250 C   0  0  0  0  0  0  0  0  0  0  0  0
    9.2080    8.1890   12.9470 N   0  0  0  0  0  0  0  0  0  0  0  0
    9.0340    7.6130   14.2560 C   0  0  0  0  0  0  0  0  0  0  0  0
    7.5330    7.7060   14.5630 C   0  0  0  0  0  0  0  0  0  0  0  0
    9.4990    7.3360   11.8600 C   0  0  0  0  0  0  0  0  0  0  0  0
    8.7070    7.2300   10.8780 O   0  0  0  0  0  0  0  0  0  0  0  0
   10.7130    6.5380   11.8040 C   0  0  0  0  0  0  0  0  0  0  0  0
   10.6540    5.1730   11.8730 C   0  0  0  0  0  0  0  0  0  0  0  0
   11.7480    4.3520   11.8280 N   0  0  0  0  0  0  0  0  0  0  0  0
   12.9390    4.9310   11.7110 C   0  0  0  0  0  0  0  0  0  0  0  0
   13.0990    6.2890   11.6350 C   0  0  0  0  0  0  0  0  0  0  0  0
   11.9280    7.1450   11.6850 C   0  0  0  0  0  0  0  0  0  0  0  0
   12.3860    8.4080   11.5920 N   0  0  0  0  0  0  0  0  0  0  0  0
   13.7040    8.4040   11.4920 N   0  0  0  0  0  0  0  0  0  0  0  0
   14.1760    7.1510   11.5140 C   0  0  0  0  0  0  0  0  0  0  0  0
   15.3740    6.7400   11.4430 O   0  0  0  0  0  0  0  0  0  0  0  0
   11.5680    2.9100   11.8710 C   0  0  0  0  0  0  0  0  0  0  0  0
   10.7360    2.3320   10.8140 C   0  0  0  0  0  0  0  0  0  0  0  0
   11.2430    1.4800    9.7370 C   0  0  0  0  0  0  0  0  0  0  0  0
   10.4240    0.8460    8.8820 O   0  0  0  0  0  0  0  0  0  0  0  0
   10.4120   -0.4770    8.7100 C   0  0  0  0  0  0  0  0  0  0  0  0
    5.6640    8.0030   11.9750 H   0  0  0  0  0  0  0  0  0  0  0  0
    3.2510    8.0920   11.5870 H   0  0  0  0  0  0  0  0  0  0  0  0
    1.8160    9.1830   13.2190 H   0  0  0  0  0  0  0  0  0  0  0  0
    2.8040   10.1970   15.2660 H   0  0  0  0  0  0  0  0  0  0  0  0
    8.2130   10.6370   14.5090 H   0  0  0  0  0  0  0  0  0  0  0  0
    7.2970   10.7490   12.9920 H   0  0  0  0  0  0  0  0  0  0  0  0
    9.0210    9.9540   11.7720 H   0  0  0  0  0  0  0  0  0  0  0  0
   10.0060   10.0750   13.2600 H   0  0  0  0  0  0  0  0  0  0  0  0
    9.5190    8.2460   15.0540 H   0  0  0  0  0  0  0  0  0  0  0  0
    9.3890    6.5760   14.3210 H   0  0  0  0  0  0  0  0  0  0  0  0
    7.3320    7.6430   15.6400 H   0  0  0  0  0  0  0  0  0  0  0  0
    7.0420    6.8800   14.0090 H   0  0  0  0  0  0  0  0  0  0  0  0
    9.6960    4.6360   11.9700 H   0  0  0  0  0  0  0  0  0  0  0  0
   13.8550    4.3510   11.6430 H   0  0  0  0  0  0  0  0  0  0  0  0
   14.3500    9.2380   11.4060 H   0  0  0  0  0  0  0  0  0  0  0  0
   11.3700    2.5330   12.9000 H   0  0  0  0  0  0  0  0  0  0  0  0
   12.6310    2.5130   11.6850 H   0  0  0  0  0  0  0  0  0  0  0  0
    9.8110    1.8450   11.2900 H   0  0  0  0  0  0  0  0  0  0  0  0
   10.2260    3.2250   10.2910 H   0  0  0  0  0  0  0  0  0  0  0  0
   12.1120    1.9800    9.1780 H   0  0  0  0  0  0  0  0  0  0  0  0
   11.8350    0.6400   10.2690 H   0  0  0  0  0  0  0  0  0  0  0  0
   10.1480   -1.0260    9.6530 H   0  0  0  0  0  0  0  0  0  0  0  0
   11.3000   -0.9630    8.2950 H   0  0  0  0  0  0  0  0  0  0  0  0
    9.5140   -0.7430    8.0420 H   0  0  0  0  0  0  0  0  0  0  0  0
  2  1  1  0  0  0  0
  3  8  1  0  0  0  0
  3  2  2  0  0  0  0
  4  3  1  0  0  0  0
  5  4  2  0  0  0  0
  5  6  1  0  0  0  0
  6  7  2  0  0  0  0
  7  2  1  0  0  0  0
  7 34  1  0  0  0  0
  8 13  1  0  0  0  0
  9  8  1  0  0  0  0
  9 35  1  0  0  0  0
 10 11  1  0  0  0  0
 10 38  1  0  0  0  0
 10  9  1  0  0  0  0
 11 12  1  0  0  0  0
 12 40  1  0  0  0  0
 12 13  1  0  0  0  0
 12 39  1  0  0  0  0
 13 41  1  0  0  0  0
 14 11  1  0  0  0  0
 15 14  2  0  0  0  0
 16 14  1  0  0  0  0
 16 17  1  0  0  0  0
 17 43  1  0  0  0  0
 18 26  1  0  0  0  0
 18 17  1  0  0  0  0
 19 18  1  0  0  0  0
 20 21  1  0  0  0  0
 20 19  2  0  0  0  0
 21 16  2  0  0  0  0
 22 21  1  0  0  0  0
 23 24  1  0  0  0  0
 23 22  1  0  0  0  0
 24 20  1  0  0  0  0
 25 24  2  0  0  0  0
 26 46  1  0  0  0  0
 27 48  1  0  0  0  0
 27 26  1  0  0  0  0
 28 51  1  0  0  0  0
 28 27  1  0  0  0  0
 29 28  1  0  0  0  0
 30 29  1  0  0  0  0
 30 52  1  0  0  0  0
 31  4  1  0  0  0  0
 32  5  1  0  0  0  0
 33  6  1  0  0  0  0
 36  9  1  0  0  0  0
 37 10  1  0  0  0  0
 42 13  1  0  0  0  0
 44 19  1  0  0  0  0
 45 23  1  0  0  0  0
 47 26  1  0  0  0  0
 49 27  1  0  0  0  0
 50 28  1  0  0  0  0
 53 30  1  0  0  0  0
 54 30  1  0  0  0  0
M  END
>  <Pose>
1

>  <Score>
-6.47

$$$$
