
 OpenBabel03172210413D

 56 59  0  0  1  0  0  0  0  0999 V2000
    6.2290   11.1420   20.3070 B   0  0  0  0  0  0  0  0  0  0  0  0
    7.3720   10.6570   18.8360 C   0  0  0  0  0  0  0  0  0  0  0  0
    8.1370   11.6250   18.2100 C   0  0  0  0  0  0  0  0  0  0  0  0
    8.9650   11.2810   17.1460 C   0  0  0  0  0  0  0  0  0  0  0  0
    9.0460    9.9850   16.6920 C   0  0  0  0  0  0  0  0  0  0  0  0
    8.2700    9.0470   17.3370 C   0  0  0  0  0  0  0  0  0  0  0  0
    7.4450    9.3590   18.3890 C   0  0  0  0  0  0  0  0  0  0  0  0
    9.9020    9.6110   15.5870 C   0  0  0  0  0  0  0  0  0  0  0  0
   10.9290    8.9150   15.8080 O   0  0  0  0  0  0  0  0  0  0  0  0
    9.6330   10.0110   14.1800 C   0  0  0  0  0  0  0  0  0  0  0  0
    8.5780    9.2360   13.5980 N   0  0  0  0  0  0  0  0  0  0  0  0
    7.3890    9.6660   13.2420 N   0  0  0  0  0  0  0  0  0  0  0  0
    6.6580    8.6640   12.7320 C   0  0  0  0  0  0  0  0  0  0  0  0
    7.4230    7.5630   12.7730 N   0  0  0  0  0  0  0  0  0  0  0  0
    8.6220    7.9300   13.3150 C   0  0  2  0  0  0  0  0  0  0  0  0
    9.7640    7.0490   13.5510 C   0  0  0  0  0  0  0  0  0  0  0  0
   10.2630    6.3780   12.2930 C   0  0  0  0  0  0  0  0  0  0  0  0
    9.3160    5.3020   11.8120 C   0  0  0  0  0  0  0  0  0  0  0  0
    8.0430    5.8480   11.2420 C   0  0  0  0  0  0  0  0  0  0  0  0
    7.0460    6.2370   12.3240 C   0  0  0  0  0  0  0  0  0  0  0  0
    5.2820    8.7210   12.2190 C   0  0  0  0  0  0  0  0  0  0  0  0
    4.3830    7.8930   12.9620 N   0  0  0  0  0  0  0  0  0  0  0  0
    4.1320    8.0720   14.3520 C   0  0  0  0  0  0  0  0  0  0  0  0
    3.2940    9.0560   14.8270 C   0  0  0  0  0  0  0  0  0  0  0  0
    3.0560    9.2160   16.1680 C   0  0  0  0  0  0  0  0  0  0  0  0
    3.6590    8.3870   17.0610 C   0  0  0  0  0  0  0  0  0  0  0  0
    4.4990    7.4020   16.5890 C   0  0  0  0  0  0  0  0  0  0  0  0
    4.7450    7.2310   15.2430 C   0  0  0  0  0  0  0  0  0  0  0  0
    3.4400    8.5240   18.4100 O   0  0  0  0  0  0  0  0  0  0  0  0
    2.7730    9.6290   18.9690 C   0  0  0  0  0  0  0  0  0  0  0  0
    8.0700   12.6330   18.5710 H   0  0  0  0  0  0  0  0  0  0  0  0
    9.5510   12.0500   16.6760 H   0  0  0  0  0  0  0  0  0  0  0  0
    8.3210    8.0070   16.9880 H   0  0  0  0  0  0  0  0  0  0  0  0
    6.8650    8.5850   18.8510 H   0  0  0  0  0  0  0  0  0  0  0  0
    9.4750   11.1030   14.0880 H   0  0  0  0  0  0  0  0  0  0  0  0
   10.5790    9.7650   13.6150 H   0  0  0  0  0  0  0  0  0  0  0  0
   10.6170    7.6020   13.9820 H   0  0  0  0  0  0  0  0  0  0  0  0
    9.5410    6.2180   14.2810 H   0  0  0  0  0  0  0  0  0  0  0  0
   10.5010    7.0730   11.4870 H   0  0  0  0  0  0  0  0  0  0  0  0
   11.2150    5.8590   12.5690 H   0  0  0  0  0  0  0  0  0  0  0  0
    9.1420    4.5350   12.5700 H   0  0  0  0  0  0  0  0  0  0  0  0
    9.8500    4.7840   10.9650 H   0  0  0  0  0  0  0  0  0  0  0  0
    8.2170    6.7230   10.6170 H   0  0  0  0  0  0  0  0  0  0  0  0
    7.5880    5.0410   10.6050 H   0  0  0  0  0  0  0  0  0  0  0  0
    7.0180    5.5000   13.1400 H   0  0  0  0  0  0  0  0  0  0  0  0
    6.0440    6.2840   11.8720 H   0  0  0  0  0  0  0  0  0  0  0  0
    5.3000    8.3880   11.1490 H   0  0  0  0  0  0  0  0  0  0  0  0
    4.8990    9.7550   12.2120 H   0  0  0  0  0  0  0  0  0  0  0  0
    3.8810    7.1250   12.4930 H   0  0  0  0  0  0  0  0  0  0  0  0
    2.8330    9.6970   14.0640 H   0  0  0  0  0  0  0  0  0  0  0  0
    2.3940    9.9960   16.4910 H   0  0  0  0  0  0  0  0  0  0  0  0
    4.9980    6.7190   17.2820 H   0  0  0  0  0  0  0  0  0  0  0  0
    5.4160    6.4370   14.8860 H   0  0  0  0  0  0  0  0  0  0  0  0
    2.9280    9.6710   20.0540 H   0  0  0  0  0  0  0  0  0  0  0  0
    3.1770   10.5530   18.5060 H   0  0  0  0  0  0  0  0  0  0  0  0
    1.6810    9.6010   18.7550 H   0  0  0  0  0  0  0  0  0  0  0  0
  2  1  1  0  0  0  0
  3 31  1  0  0  0  0
  3  2  2  0  0  0  0
  4  3  1  0  0  0  0
  5  4  2  0  0  0  0
  5  6  1  0  0  0  0
  6  7  2  0  0  0  0
  7  2  1  0  0  0  0
  7 34  1  0  0  0  0
  8  9  2  0  0  0  0
  8  5  1  0  0  0  0
 10  8  1  0  0  0  0
 11 10  1  0  0  0  0
 12 11  1  0  0  0  0
 13 14  1  0  0  0  0
 13 12  2  0  0  0  0
 15 14  1  1  0  0  0
 15 16  1  0  0  0  0
 15 11  1  0  0  0  0
 16 37  1  0  0  0  0
 16 38  1  0  0  0  0
 17 40  1  0  0  0  0
 17 16  1  0  0  0  0
 18 17  1  0  0  0  0
 18 41  1  0  0  0  0
 19 18  1  0  0  0  0
 19 20  1  0  0  0  0
 20 14  1  0  0  0  0
 20 45  1  0  0  0  0
 21 13  1  0  0  0  0
 21 22  1  0  0  0  0
 22 23  1  0  0  0  0
 23 24  2  0  0  0  0
 23 28  1  0  0  0  0
 24 25  1  0  0  0  0
 25 51  1  0  0  0  0
 25 26  2  0  0  0  0
 26 29  1  0  0  0  0
 27 26  1  0  0  0  0
 27 52  1  0  0  0  0
 28 27  2  0  0  0  0
 29 30  1  0  0  0  0
 30 54  1  0  0  0  0
 32  4  1  0  0  0  0
 33  6  1  0  0  0  0
 35 10  1  0  0  0  0
 36 10  1  0  0  0  0
 39 17  1  0  0  0  0
 42 18  1  0  0  0  0
 43 19  1  0  0  0  0
 44 19  1  0  0  0  0
 46 20  1  0  0  0  0
 47 21  1  0  0  0  0
 48 21  1  0  0  0  0
 49 22  1  0  0  0  0
 50 24  1  0  0  0  0
 53 28  1  0  0  0  0
 55 30  1  0  0  0  0
 56 30  1  0  0  0  0
M  END
>  <Pose>
1

>  <Score>
-5.41

$$$$
