
 OpenBabel03172210413D

 48 51  0  0  1  0  0  0  0  0999 V2000
   18.2460    4.9130   10.6230 Cl  0  0  0  0  0  0  0  0  0  0  0  0
   17.0580    5.7280   11.6310 C   0  0  0  0  0  0  0  0  0  0  0  0
   15.8610    5.1000   11.9620 C   0  0  0  0  0  0  0  0  0  0  0  0
   14.8950    5.7080   12.7250 C   0  0  0  0  0  0  0  0  0  0  0  0
   15.1840    7.0080   13.1580 C   0  0  0  0  0  0  0  0  0  0  0  0
   16.3730    7.6530   12.8380 C   0  0  0  0  0  0  0  0  0  0  0  0
   17.3100    7.0110   12.0720 C   0  0  0  0  0  0  0  0  0  0  0  0
   13.7220    5.0370   13.1610 N   0  0  0  0  0  4  0  0  0  0  0  0
   13.7190    3.6080   12.9730 C   0  0  0  0  0  0  0  0  0  0  0  0
   12.4880    3.1530   12.3080 C   0  0  2  0  0  0  0  0  0  0  0  0
   11.7310    4.3610   12.1400 N   0  0  0  0  0  0  0  0  0  0  0  0
   10.3200    4.6080   11.9580 C   0  0  0  0  0  0  0  0  0  0  0  0
    9.9570    5.2990   10.6840 C   0  0  0  0  0  0  0  0  0  0  0  0
   11.1050    5.8430    9.9070 C   0  0  0  0  0  0  0  0  0  0  0  0
   11.6020    7.1200   10.6220 C   0  0  0  0  0  0  0  0  0  0  0  0
   12.6430    6.6090   11.6010 C   0  0  0  0  0  0  0  0  0  0  0  0
   12.6820    5.4570   12.2310 C   0  0  0  0  0  0  0  0  0  0  0  0
   11.7430    2.3350   13.2020 O   0  0  0  0  0  0  0  0  0  0  0  0
   12.6340    2.3660   11.1070 C   0  0  0  0  0  0  0  0  0  0  0  0
   13.8320    2.2570   10.4010 C   0  0  0  0  0  0  0  0  0  0  0  0
   13.9720    1.4790    9.2600 C   0  0  0  0  0  0  0  0  0  0  0  0
   12.8640    0.7700    8.7950 C   0  0  0  0  0  0  0  0  0  0  0  0
   11.6720    0.8510    9.4560 C   0  0  0  0  0  0  0  0  0  0  0  0
   11.5700    1.6490   10.6070 C   0  0  0  0  0  0  0  0  0  0  0  0
   15.2180    1.4150    8.5950 N   0  0  0  0  0  0  0  0  0  0  0  0
   16.1380    2.2330    8.9070 O   0  0  0  0  0  0  0  0  0  0  0  0
   15.4970    0.5250    7.6270 O   0  0  0  0  0  0  0  0  0  0  0  0
   15.7390    4.0920   11.5310 H   0  0  0  0  0  0  0  0  0  0  0  0
   14.4520    7.5140   13.7640 H   0  0  0  0  0  0  0  0  0  0  0  0
   16.5800    8.6800   13.1890 H   0  0  0  0  0  0  0  0  0  0  0  0
   18.2300    7.4900   11.8100 H   0  0  0  0  0  0  0  0  0  0  0  0
   13.4510    5.3920   14.0720 H   0  0  0  0  0  0  0  0  0  0  0  0
   14.6930    3.2900   12.6620 H   0  0  0  0  0  0  0  0  0  0  0  0
   13.6490    3.2180   14.0550 H   0  0  0  0  0  0  0  0  0  0  0  0
    9.6720    3.7240   12.0970 H   0  0  0  0  0  0  0  0  0  0  0  0
    9.9190    5.3260   12.7640 H   0  0  0  0  0  0  0  0  0  0  0  0
    9.2020    6.1030   10.8400 H   0  0  0  0  0  0  0  0  0  0  0  0
    9.4300    4.5710    9.9750 H   0  0  0  0  0  0  0  0  0  0  0  0
   11.9620    5.1550    9.7600 H   0  0  0  0  0  0  0  0  0  0  0  0
   10.8010    6.2120    8.8870 H   0  0  0  0  0  0  0  0  0  0  0  0
   10.7740    7.5950   11.1350 H   0  0  0  0  0  0  0  0  0  0  0  0
   12.1370    7.7690    9.8980 H   0  0  0  0  0  0  0  0  0  0  0  0
   13.4370    7.3170   11.7630 H   0  0  0  0  0  0  0  0  0  0  0  0
   11.5460    2.9250   14.0020 H   0  0  0  0  0  0  0  0  0  0  0  0
   14.6580    2.7970   10.7680 H   0  0  0  0  0  0  0  0  0  0  0  0
   13.0200    0.1740    7.9020 H   0  0  0  0  0  0  0  0  0  0  0  0
   10.7980    0.2860    9.0800 H   0  0  0  0  0  0  0  0  0  0  0  0
   10.5770    1.6340   11.0450 H   0  0  0  0  0  0  0  0  0  0  0  0
  1  2  1  0  0  0  0
  2  3  2  0  0  0  0
  2  7  1  0  0  0  0
  3  4  1  0  0  0  0
  4  5  2  0  0  0  0
  4  8  1  0  0  0  0
  5 29  1  0  0  0  0
  6  5  1  0  0  0  0
  6 30  1  0  0  0  0
  7  6  2  0  0  0  0
  8 32  1  0  0  0  0
  9  8  1  0  0  0  0
  9 34  1  0  0  0  0
 10  9  1  0  0  0  0
 10 18  1  1  0  0  0
 11 17  1  0  0  0  0
 11 10  1  0  0  0  0
 12 35  1  0  0  0  0
 12 11  1  0  0  0  0
 12 36  1  0  0  0  0
 13 37  1  0  0  0  0
 13 12  1  0  0  0  0
 14 15  1  0  0  0  0
 14 13  1  0  0  0  0
 15 41  1  0  0  0  0
 15 16  1  0  0  0  0
 16 43  1  0  0  0  0
 16 17  2  0  0  0  0
 17  8  1  0  0  0  0
 18 44  1  0  0  0  0
 19 10  1  0  0  0  0
 20 45  1  0  0  0  0
 20 19  2  0  0  0  0
 21 20  1  0  0  0  0
 22 21  2  0  0  0  0
 22 23  1  0  0  0  0
 23 24  2  0  0  0  0
 24 48  1  0  0  0  0
 24 19  1  0  0  0  0
 25 26  2  0  0  0  0
 25 21  1  0  0  0  0
 27 25  2  0  0  0  0
 28  3  1  0  0  0  0
 31  7  1  0  0  0  0
 33  9  1  0  0  0  0
 38 13  1  0  0  0  0
 39 14  1  0  0  0  0
 40 14  1  0  0  0  0
 42 15  1  0  0  0  0
 46 22  1  0  0  0  0
 47 23  1  0  0  0  0
M  END
>  <Pose>
1

>  <Score>
-6.36

$$$$
