
 OpenBabel03172210413D

 52 55  0  0  0  0  0  0  0  0999 V2000
   18.3250    3.2800   11.0530 Cl  0  0  0  0  0  0  0  0  0  0  0  0
   17.3690    4.6890   11.4690 C   0  0  0  0  0  0  0  0  0  0  0  0
   16.1570    4.5030   12.1180 C   0  0  0  0  0  0  0  0  0  0  0  0
   15.3520    5.5740   12.4760 C   0  0  0  0  0  0  0  0  0  0  0  0
   15.7560    6.8570   12.1830 C   0  0  0  0  0  0  0  0  0  0  0  0
   16.9790    7.0150   11.5300 C   0  0  0  0  0  0  0  0  0  0  0  0
   17.7850    5.9700   11.1710 C   0  0  0  0  0  0  0  0  0  0  0  0
   14.9540    8.0260   12.5330 C   0  0  0  0  0  0  0  0  0  0  0  0
   15.1570    8.5500   13.6580 O   0  0  0  0  0  0  0  0  0  0  0  0
   13.9950    8.5630   11.6740 N   0  0  0  0  0  0  0  0  0  0  0  0
   13.1140    7.7640   10.8450 C   0  0  0  0  0  0  0  0  0  0  0  0
   12.2230    6.9340   11.7130 C   0  0  0  0  0  0  0  0  0  0  0  0
   10.9990    6.4830   11.0150 C   0  0  0  0  0  0  0  0  0  0  0  0
   11.1290    5.7740    9.9880 O   0  0  0  0  0  0  0  0  0  0  0  0
    9.7110    6.8360   11.4820 N   0  0  0  0  0  0  0  0  0  0  0  0
    9.0380    8.0590   11.0920 C   0  0  0  0  0  0  0  0  0  0  0  0
    8.1870    8.5140   12.2680 C   0  0  0  0  0  0  0  0  0  0  0  0
    7.0960    7.4850   12.5630 C   0  0  0  0  0  0  0  0  0  0  0  0
    6.8980    7.4880   13.9840 N   0  0  0  0  0  0  0  0  0  0  0  0
    5.6100    6.9430   14.3540 C   0  0  0  0  0  0  0  0  0  0  0  0
    4.5260    7.9400   13.9470 C   0  0  0  0  0  0  0  0  0  0  0  0
    4.6380    8.0930   12.4670 C   0  0  0  0  0  0  0  0  0  0  0  0
    3.7170    8.4340   11.5170 N   0  0  0  0  0  0  0  0  0  0  0  0
    4.3350    8.4300   10.3230 C   0  0  0  0  0  0  0  0  0  0  0  0
    5.6220    8.0920   10.5250 N   0  0  0  0  0  0  0  0  0  0  0  0
    5.8500    7.8750   11.8530 C   0  0  0  0  0  0  0  0  0  0  0  0
    7.5320    6.1020   12.1270 C   0  0  0  0  0  0  0  0  0  0  0  0
    9.0020    5.9590   12.3920 C   0  0  0  0  0  0  0  0  0  0  0  0
   15.8440    3.4930   12.3440 H   0  0  0  0  0  0  0  0  0  0  0  0
   14.3930    5.3860   12.9910 H   0  0  0  0  0  0  0  0  0  0  0  0
   17.2860    8.0260   11.3060 H   0  0  0  0  0  0  0  0  0  0  0  0
   18.7290    6.0840   10.6670 H   0  0  0  0  0  0  0  0  0  0  0  0
   13.8680    9.6000   11.5870 H   0  0  0  0  0  0  0  0  0  0  0  0
   13.7650    7.0640   10.2760 H   0  0  0  0  0  0  0  0  0  0  0  0
   12.5700    8.3870   10.1220 H   0  0  0  0  0  0  0  0  0  0  0  0
   12.8000    6.0300   12.0730 H   0  0  0  0  0  0  0  0  0  0  0  0
   11.9770    7.4910   12.6200 H   0  0  0  0  0  0  0  0  0  0  0  0
    9.8170    8.8580   10.9680 H   0  0  0  0  0  0  0  0  0  0  0  0
    8.4520    7.9560   10.1810 H   0  0  0  0  0  0  0  0  0  0  0  0
    8.7940    8.7150   13.1500 H   0  0  0  0  0  0  0  0  0  0  0  0
    7.6690    9.4440   11.9590 H   0  0  0  0  0  0  0  0  0  0  0  0
    7.6580    6.9830   14.4810 H   0  0  0  0  0  0  0  0  0  0  0  0
    5.4370    6.0430   13.7310 H   0  0  0  0  0  0  0  0  0  0  0  0
    5.5430    6.6630   15.4030 H   0  0  0  0  0  0  0  0  0  0  0  0
    3.5570    7.5090   14.2490 H   0  0  0  0  0  0  0  0  0  0  0  0
    4.6950    8.9270   14.4240 H   0  0  0  0  0  0  0  0  0  0  0  0
    2.7240    8.6450   11.7640 H   0  0  0  0  0  0  0  0  0  0  0  0
    3.8280    8.6660    9.3980 H   0  0  0  0  0  0  0  0  0  0  0  0
    7.0070    5.3030   12.6610 H   0  0  0  0  0  0  0  0  0  0  0  0
    7.3670    5.9690   11.0310 H   0  0  0  0  0  0  0  0  0  0  0  0
    9.2640    4.8940   12.2310 H   0  0  0  0  0  0  0  0  0  0  0  0
    9.2440    6.2190   13.4530 H   0  0  0  0  0  0  0  0  0  0  0  0
  1  2  1  0  0  0  0
  2  3  1  0  0  0  0
  3 29  1  0  0  0  0
  3  4  2  0  0  0  0
  4 30  1  0  0  0  0
  5  4  1  0  0  0  0
  5  8  1  0  0  0  0
  6  5  2  0  0  0  0
  7  2  2  0  0  0  0
  7  6  1  0  0  0  0
  8  9  2  0  0  0  0
 10  8  1  0  0  0  0
 11 10  1  0  0  0  0
 11 12  1  0  0  0  0
 12 36  1  0  0  0  0
 12 37  1  0  0  0  0
 13 15  1  0  0  0  0
 13 12  1  0  0  0  0
 14 13  2  0  0  0  0
 15 28  1  0  0  0  0
 16 15  1  0  0  0  0
 16 17  1  0  0  0  0
 17 18  1  0  0  0  0
 17 40  1  0  0  0  0
 18 19  1  0  0  0  0
 19 20  1  0  0  0  0
 19 42  1  0  0  0  0
 20 44  1  0  0  0  0
 21 45  1  0  0  0  0
 21 20  1  0  0  0  0
 21 46  1  0  0  0  0
 22 21  1  0  0  0  0
 23 47  1  0  0  0  0
 23 22  1  0  0  0  0
 24 25  2  0  0  0  0
 24 23  1  0  0  0  0
 25 26  1  0  0  0  0
 26 22  2  0  0  0  0
 26 18  1  0  0  0  0
 27 28  1  0  0  0  0
 27 18  1  0  0  0  0
 27 49  1  0  0  0  0
 28 52  1  0  0  0  0
 31  6  1  0  0  0  0
 32  7  1  0  0  0  0
 33 10  1  0  0  0  0
 34 11  1  0  0  0  0
 35 11  1  0  0  0  0
 38 16  1  0  0  0  0
 39 16  1  0  0  0  0
 41 17  1  0  0  0  0
 43 20  1  0  0  0  0
 48 24  1  0  0  0  0
 50 27  1  0  0  0  0
 51 28  1  0  0  0  0
M  END
>  <Pose>
1

>  <Score>
-7.06

$$$$
