
 OpenBabel03172210413D

 43 46  0  0  0  0  0  0  0  0999 V2000
    4.0550    8.7470   12.9890 B   0  0  0  0  0  0  0  0  0  0  0  0
    5.5500    7.6340   13.3900 C   0  0  0  0  0  0  0  0  0  0  0  0
    6.6730    7.6310   12.5500 C   0  0  0  0  0  0  0  0  0  0  0  0
    7.7450    6.8250   12.8500 C   0  0  0  0  0  0  0  0  0  0  0  0
    7.6890    6.0370   13.9690 C   0  0  0  0  0  0  0  0  0  0  0  0
    6.5720    6.0340   14.8140 C   0  0  0  0  0  0  0  0  0  0  0  0
    5.5060    6.8430   14.5070 C   0  0  0  0  0  0  0  0  0  0  0  0
    8.8890    6.8060   12.0130 N   0  0  0  0  0  0  0  0  0  0  0  0
    9.6370    7.8630   11.6790 N   0  0  0  0  0  0  0  0  0  0  0  0
   10.6210    7.4980   10.8880 N   0  0  0  0  0  0  0  0  0  0  0  0
   10.5500    6.1760   10.6750 C   0  0  0  0  0  0  0  0  0  0  0  0
    9.4530    5.7580   11.3910 C   0  0  0  0  0  0  0  0  0  0  0  0
   11.4540    5.3440    9.8490 C   0  0  0  0  0  0  0  0  0  0  0  0
   11.5690    5.7150    8.6280 O   0  0  0  0  0  0  0  0  0  0  0  0
   12.1510    4.2310   10.3200 N   0  0  0  0  0  0  0  0  0  0  0  0
   12.0000    2.9630    9.6600 C   0  0  0  0  0  0  0  0  0  0  0  0
   13.3120    2.6000    9.0210 C   0  0  0  0  0  0  0  0  0  0  0  0
   14.3800    2.8500    9.9470 N   0  0  0  0  0  0  0  0  0  0  0  0
   13.9720    3.0220   11.3550 C   0  0  0  0  0  0  0  0  0  0  0  0
   13.0460    4.2260   11.4560 C   0  0  0  0  0  0  0  0  0  0  0  0
   15.7430    2.9540    9.6720 C   0  0  0  0  0  0  0  0  0  0  0  0
   16.1660    2.2000    8.7040 O   0  0  0  0  0  0  0  0  0  0  0  0
   16.7740    3.7750   10.2970 C   0  0  0  0  0  0  0  0  0  0  0  0
   16.6400    4.4160   11.6050 C   0  0  0  0  0  0  0  0  0  0  0  0
   17.6710    3.3120   11.3840 C   0  0  0  0  0  0  0  0  0  0  0  0
    6.6330    8.2820   11.6890 H   0  0  0  0  0  0  0  0  0  0  0  0
    8.4930    5.3820   14.2630 H   0  0  0  0  0  0  0  0  0  0  0  0
    6.5230    5.4170   15.6960 H   0  0  0  0  0  0  0  0  0  0  0  0
    4.6310    6.8460   15.1620 H   0  0  0  0  0  0  0  0  0  0  0  0
    9.1020    4.7390   11.4420 H   0  0  0  0  0  0  0  0  0  0  0  0
   11.1520    2.9400    8.9500 H   0  0  0  0  0  0  0  0  0  0  0  0
   11.7330    2.2310   10.4550 H   0  0  0  0  0  0  0  0  0  0  0  0
   13.3010    1.5300    8.6780 H   0  0  0  0  0  0  0  0  0  0  0  0
   13.4890    3.2330    8.1280 H   0  0  0  0  0  0  0  0  0  0  0  0
   13.5100    2.0770   11.6620 H   0  0  0  0  0  0  0  0  0  0  0  0
   14.8730    3.2530   11.9270 H   0  0  0  0  0  0  0  0  0  0  0  0
   13.6010    5.1630   11.5040 H   0  0  0  0  0  0  0  0  0  0  0  0
   12.4440    4.1040   12.3640 H   0  0  0  0  0  0  0  0  0  0  0  0
   17.3840    4.4010    9.5400 H   0  0  0  0  0  0  0  0  0  0  0  0
   17.0820    5.4540   11.7660 H   0  0  0  0  0  0  0  0  0  0  0  0
   15.8490    4.2140   12.3420 H   0  0  0  0  0  0  0  0  0  0  0  0
   17.5910    2.3820   11.9210 H   0  0  0  0  0  0  0  0  0  0  0  0
   18.7460    3.6760   11.3790 H   0  0  0  0  0  0  0  0  0  0  0  0
  1  2  1  0  0  0  0
  2  7  1  0  0  0  0
  3  4  1  0  0  0  0
  3  2  2  0  0  0  0
  4  5  2  0  0  0  0
  5 27  1  0  0  0  0
  5  6  1  0  0  0  0
  6 28  1  0  0  0  0
  7  6  2  0  0  0  0
  7 29  1  0  0  0  0
  8  4  1  0  0  0  0
  9  8  1  0  0  0  0
 10  9  2  0  0  0  0
 11 10  1  0  0  0  0
 11 12  2  0  0  0  0
 12 30  1  0  0  0  0
 12  8  1  0  0  0  0
 13 15  1  0  0  0  0
 13 11  1  0  0  0  0
 14 13  2  0  0  0  0
 15 20  1  0  0  0  0
 16 15  1  0  0  0  0
 16 32  1  0  0  0  0
 17 16  1  0  0  0  0
 17 18  1  0  0  0  0
 18 19  1  0  0  0  0
 19 20  1  0  0  0  0
 19 35  1  0  0  0  0
 19 36  1  0  0  0  0
 20 37  1  0  0  0  0
 20 38  1  0  0  0  0
 21 18  1  0  0  0  0
 21 23  1  0  0  0  0
 22 21  2  0  0  0  0
 23 25  1  0  0  0  0
 23 24  1  0  0  0  0
 24 40  1  0  0  0  0
 24 41  1  0  0  0  0
 25 24  1  0  0  0  0
 25 42  1  0  0  0  0
 26  3  1  0  0  0  0
 31 16  1  0  0  0  0
 33 17  1  0  0  0  0
 34 17  1  0  0  0  0
 39 23  1  0  0  0  0
 43 25  1  0  0  0  0
M  END
>  <Pose>
1

>  <Score>
-6.17

$$$$
