
 OpenBabel03172210413D

 46 49  0  0  1  0  0  0  0  0999 V2000
    8.0100    5.9850   14.7500 Cl  0  0  0  0  0  0  0  0  0  0  0  0
    8.9160    5.9670   13.2610 C   0  0  0  0  0  0  0  0  0  0  0  0
    8.2290    6.0390   12.0700 C   0  0  0  0  0  0  0  0  0  0  0  0
    8.9570    6.0240   10.9050 C   0  0  0  0  0  0  0  0  0  0  0  0
   10.3550    5.9370   10.9630 C   0  0  0  0  0  0  0  0  0  0  0  0
   11.0720    5.8630   12.1180 C   0  0  0  0  0  0  0  0  0  0  0  0
   10.2690    5.8830   13.2860 C   0  0  0  0  0  0  0  0  0  0  0  0
   12.5020    5.7700   12.2400 C   0  0  1  0  0  0  0  0  0  0  0  0
   13.1150    6.9380   12.2490 O   0  0  0  0  0  0  0  0  0  0  0  0
   13.3860    4.6340   12.3550 C   0  0  0  0  0  0  0  0  0  0  0  0
   13.3730    3.5800   11.3980 N   0  0  0  0  0  0  0  0  0  0  0  0
   14.4370    3.1580   10.6460 C   0  0  1  0  0  0  0  0  0  0  0  0
   13.9750    2.1880    9.8530 N   0  0  0  0  0  0  0  0  0  0  0  0
   12.6660    1.9530   10.0470 C   0  0  0  0  0  0  0  0  0  0  0  0
   12.2870    2.8440   11.0350 C   0  0  0  0  0  0  0  0  0  0  0  0
   11.7890    0.9850    9.3910 C   0  0  0  0  0  0  0  0  0  0  0  0
   10.4250    0.9500    9.5250 C   0  0  0  0  0  0  0  0  0  0  0  0
    9.6490   -0.0110    8.8610 C   0  0  0  0  0  0  0  0  0  0  0  0
   10.2140   -0.9640    8.0440 C   0  0  0  0  0  0  0  0  0  0  0  0
   11.5850   -0.9380    7.9030 C   0  0  0  0  0  0  0  0  0  0  0  0
   12.3450    0.0090    8.5570 C   0  0  0  0  0  0  0  0  0  0  0  0
    9.4590   -1.9210    7.3800 O   0  0  0  0  0  0  0  0  0  0  0  0
    8.1240   -1.6430    6.9970 C   0  0  0  0  0  0  0  0  0  0  0  0
   15.0460    1.6710    9.0080 C   0  0  0  0  0  0  0  0  0  0  0  0
   16.2860    2.3840    9.4600 C   0  0  0  0  0  0  0  0  0  0  0  0
   15.8810    3.4270   10.4390 C   0  0  0  0  0  0  0  0  0  0  0  0
    6.4860    6.1480   12.0040 Cl  0  0  0  0  0  0  0  0  0  0  0  0
    8.4290    6.0800    9.9780 H   0  0  0  0  0  0  0  0  0  0  0  0
   10.8180    5.9340   10.0110 H   0  0  0  0  0  0  0  0  0  0  0  0
   10.7570    5.8290   14.2440 H   0  0  0  0  0  0  0  0  0  0  0  0
   14.4870    4.9880   12.4510 H   0  0  0  0  0  0  0  0  0  0  0  0
   13.2750    4.1550   13.4060 H   0  0  0  0  0  0  0  0  0  0  0  0
   11.2950    2.9580   11.4670 H   0  0  0  0  0  0  0  0  0  0  0  0
    9.9450    1.6710   10.1520 H   0  0  0  0  0  0  0  0  0  0  0  0
    8.5730   -0.0290    8.9750 H   0  0  0  0  0  0  0  0  0  0  0  0
   12.0500   -1.6850    7.2590 H   0  0  0  0  0  0  0  0  0  0  0  0
   13.4300    0.0250    8.4410 H   0  0  0  0  0  0  0  0  0  0  0  0
    8.1790   -0.9060    6.1540 H   0  0  0  0  0  0  0  0  0  0  0  0
    7.6430   -2.5750    6.6390 H   0  0  0  0  0  0  0  0  0  0  0  0
    7.5590   -1.1740    7.8320 H   0  0  0  0  0  0  0  0  0  0  0  0
   15.2320    0.5820    9.1740 H   0  0  0  0  0  0  0  0  0  0  0  0
   14.8140    1.8520    7.9400 H   0  0  0  0  0  0  0  0  0  0  0  0
   17.0270    1.7020    9.9450 H   0  0  0  0  0  0  0  0  0  0  0  0
   16.7740    2.8170    8.5400 H   0  0  0  0  0  0  0  0  0  0  0  0
   16.4260    3.3880   11.4020 H   0  0  0  0  0  0  0  0  0  0  0  0
   16.0530    4.4490   10.0130 H   0  0  0  0  0  0  0  0  0  0  0  0
  2  7  1  0  0  0  0
  2  1  1  0  0  0  0
  3  2  2  0  0  0  0
  4  5  2  0  0  0  0
  4  3  1  0  0  0  0
  5  6  1  0  0  0  0
  6  8  1  0  0  0  0
  6  7  2  0  0  0  0
  7 30  1  0  0  0  0
  8  9  1  1  0  0  0
  8 10  1  0  0  0  0
 10 31  1  0  0  0  0
 10 32  1  0  0  0  0
 11 10  1  0  0  0  0
 12 13  1  6  0  0  0
 12 11  1  0  0  0  0
 13 14  1  0  0  0  0
 14 15  2  0  0  0  0
 15 11  1  0  0  0  0
 15 33  1  0  0  0  0
 16 17  1  0  0  0  0
 16 14  1  0  0  0  0
 17 34  1  0  0  0  0
 18 35  1  0  0  0  0
 18 17  2  0  0  0  0
 19 18  1  0  0  0  0
 20 19  2  0  0  0  0
 20 21  1  0  0  0  0
 21 16  2  0  0  0  0
 22 19  1  0  0  0  0
 23 22  1  0  0  0  0
 23 40  1  0  0  0  0
 24 41  1  0  0  0  0
 24 25  1  0  0  0  0
 24 13  1  0  0  0  0
 25 43  1  0  0  0  0
 25 26  1  0  0  0  0
 26 12  1  0  0  0  0
 26 45  1  0  0  0  0
 27  3  1  0  0  0  0
 28  4  1  0  0  0  0
 29  5  1  0  0  0  0
 36 20  1  0  0  0  0
 37 21  1  0  0  0  0
 38 23  1  0  0  0  0
 39 23  1  0  0  0  0
 42 24  1  0  0  0  0
 44 25  1  0  0  0  0
 46 26  1  0  0  0  0
M  END
>  <Pose>
1

>  <Score>
-6.67

$$$$
