
 OpenBabel03172210413D

 44 47  0  0  1  0  0  0  0  0999 V2000
   14.5620    0.4380    8.1830 Cl  0  0  0  0  0  0  0  0  0  0  0  0
   13.1280    1.0990    8.9040 C   0  0  0  0  0  0  0  0  0  0  0  0
   11.9350    0.4320    8.8280 C   0  0  0  0  0  0  0  0  0  0  0  0
   10.8330    1.0040    9.4160 C   0  0  0  0  0  0  0  0  0  0  0  0
   10.9330    2.2080   10.0610 C   0  0  0  0  0  0  0  0  0  0  0  0
   12.1350    2.9160   10.1590 C   0  0  0  0  0  0  0  0  0  0  0  0
   13.2100    2.3370    9.5710 C   0  0  0  0  0  0  0  0  0  0  0  0
   12.1760    4.2100   10.8440 C   0  0  0  0  0  0  0  0  0  0  0  0
   13.1980    4.8600   11.4230 N   0  0  0  0  0  0  0  0  0  0  0  0
   12.7580    6.0300   11.9300 C   0  0  2  0  0  0  0  0  0  0  0  0
   11.4410    6.1250   11.6730 N   0  0  0  0  0  0  0  0  0  0  0  0
   11.0350    5.0130   10.9980 C   0  0  0  0  0  0  0  0  0  0  0  0
   10.6040    7.2180   12.0040 C   0  0  0  0  0  0  0  0  0  0  0  0
    9.5820    7.1570   13.0090 C   0  0  2  0  0  0  0  0  0  0  0  0
   10.0550    6.7280   14.1620 O   0  0  0  0  0  0  0  0  0  0  0  0
    8.1720    7.4660   12.9970 C   0  0  0  0  0  0  0  0  0  0  0  0
    7.6390    8.7150   13.1680 C   0  0  0  0  0  0  0  0  0  0  0  0
    6.2590    8.9400   13.1430 C   0  0  0  0  0  0  0  0  0  0  0  0
    5.4030    7.9040   12.9460 C   0  0  0  0  0  0  0  0  0  0  0  0
    5.9130    6.6360   12.7710 C   0  0  0  0  0  0  0  0  0  0  0  0
    7.2610    6.4050   12.7940 C   0  0  0  0  0  0  0  0  0  0  0  0
    5.7660   10.2680   13.3270 N   0  0  0  0  0  0  0  0  0  0  0  0
    4.5840   10.4390   13.6710 O   0  0  0  0  0  0  0  0  0  0  0  0
    6.5530   11.3590   13.1370 O   0  0  0  0  0  0  0  0  0  0  0  0
   13.8790    6.7630   12.5620 C   0  0  0  0  0  0  0  0  0  0  0  0
   14.7350    5.5980   12.9880 C   0  0  0  0  0  0  0  0  0  0  0  0
   14.6320    4.7430   11.7130 C   0  0  0  0  0  0  0  0  0  0  0  0
   11.7970   -1.1080    8.0070 Cl  0  0  0  0  0  0  0  0  0  0  0  0
    9.8600    0.5020    9.3780 H   0  0  0  0  0  0  0  0  0  0  0  0
   10.0540    2.6270   10.5120 H   0  0  0  0  0  0  0  0  0  0  0  0
   14.1640    2.8160    9.5880 H   0  0  0  0  0  0  0  0  0  0  0  0
   10.0460    4.8110   10.6620 H   0  0  0  0  0  0  0  0  0  0  0  0
   10.0890    7.6030   11.0500 H   0  0  0  0  0  0  0  0  0  0  0  0
   11.2810    8.1000   12.2930 H   0  0  0  0  0  0  0  0  0  0  0  0
    8.2720    9.5730   13.3300 H   0  0  0  0  0  0  0  0  0  0  0  0
    4.3210    8.1050   12.9290 H   0  0  0  0  0  0  0  0  0  0  0  0
    5.2170    5.7990   12.6110 H   0  0  0  0  0  0  0  0  0  0  0  0
    7.6160    5.3830   12.6510 H   0  0  0  0  0  0  0  0  0  0  0  0
   14.3910    7.3670   11.7770 H   0  0  0  0  0  0  0  0  0  0  0  0
   13.5650    7.3790   13.4250 H   0  0  0  0  0  0  0  0  0  0  0  0
   14.1760    5.0390   13.7580 H   0  0  0  0  0  0  0  0  0  0  0  0
   15.7540    5.8460   13.2380 H   0  0  0  0  0  0  0  0  0  0  0  0
   15.1780    5.2600   10.9320 H   0  0  0  0  0  0  0  0  0  0  0  0
   14.9480    3.7110   11.9450 H   0  0  0  0  0  0  0  0  0  0  0  0
  1  2  1  0  0  0  0
  2  7  1  0  0  0  0
  3  2  2  0  0  0  0
  3  4  1  0  0  0  0
  4  5  2  0  0  0  0
  5  6  1  0  0  0  0
  5 30  1  0  0  0  0
  6  8  1  0  0  0  0
  7 31  1  0  0  0  0
  7  6  2  0  0  0  0
  8 12  2  0  0  0  0
  8  9  1  0  0  0  0
  9 27  1  0  0  0  0
 10  9  1  6  0  0  0
 10 25  1  0  0  0  0
 11 10  1  0  0  0  0
 11 13  1  0  0  0  0
 12 11  1  0  0  0  0
 13 34  1  0  0  0  0
 13 14  1  0  0  0  0
 14 15  1  6  0  0  0
 16 14  1  0  0  0  0
 16 17  1  0  0  0  0
 17 35  1  0  0  0  0
 18 17  2  0  0  0  0
 18 22  1  0  0  0  0
 19 18  1  0  0  0  0
 20 21  1  0  0  0  0
 20 19  2  0  0  0  0
 21 16  2  0  0  0  0
 22 23  2  0  0  0  0
 24 22  2  0  0  0  0
 25 26  1  0  0  0  0
 25 40  1  0  0  0  0
 26 42  1  0  0  0  0
 26 41  1  0  0  0  0
 27 44  1  0  0  0  0
 27 26  1  0  0  0  0
 28  3  1  0  0  0  0
 29  4  1  0  0  0  0
 32 12  1  0  0  0  0
 33 13  1  0  0  0  0
 36 19  1  0  0  0  0
 37 20  1  0  0  0  0
 38 21  1  0  0  0  0
 39 25  1  0  0  0  0
 43 27  1  0  0  0  0
M  END
>  <Pose>
1

>  <Score>
-6.44

$$$$
