
 OpenBabel03172210413D

 36 39  0  0  1  0  0  0  0  0999 V2000
   12.4800   -0.8550    7.5740 Cl  0  0  0  0  0  0  0  0  0  0  0  0
   12.7550    0.4190    8.7530 C   0  0  0  0  0  0  0  0  0  0  0  0
   14.0030    0.9610    8.9690 C   0  0  0  0  0  0  0  0  0  0  0  0
   14.2150    1.9500    9.8860 N   0  0  0  0  0  0  0  0  0  0  0  0
   13.2070    2.4480   10.6260 C   0  0  0  0  0  0  0  0  0  0  0  0
   13.4150    3.4300   11.5380 N   0  0  0  0  0  0  0  0  0  0  0  0
   14.6410    3.9560   11.7440 C   0  0  0  0  0  0  0  0  0  0  0  0
   15.6860    3.4760   11.0100 C   0  0  1  0  0  0  0  0  0  0  0  0
   17.0680    4.0240   11.1980 C   0  0  0  0  0  0  0  0  0  0  0  0
   16.8650    5.4050   11.6680 N   0  0  0  0  0  0  0  0  0  0  0  0
   16.1720    5.4980   12.9210 C   0  0  0  0  0  0  0  0  0  0  0  0
   14.7360    5.0280   12.7700 C   0  0  0  0  0  0  0  0  0  0  0  0
   17.3490    6.4390   10.8710 C   0  0  0  0  0  0  0  0  0  0  0  0
   16.5100    7.1780   10.2500 O   0  0  0  0  0  0  0  0  0  0  0  0
   18.7640    6.7740   10.6660 C   0  0  0  0  0  0  0  0  0  0  0  0
   19.3980    7.6870   11.4080 N   0  0  0  0  0  0  0  0  0  0  0  0
   20.6860    7.9860   11.2140 C   0  0  0  0  0  0  0  0  0  0  0  0
   21.4360    7.3680   10.2350 C   0  0  0  0  0  0  0  0  0  0  0  0
   20.7820    6.4520    9.5000 N   0  0  0  0  0  0  0  0  0  0  0  0
   19.4990    6.1360    9.6720 C   0  0  0  0  0  0  0  0  0  0  0  0
   15.4390    2.4690   10.0860 C   0  0  0  0  0  0  0  0  0  0  0  0
   16.3880    2.0240    9.4110 O   0  0  0  0  0  0  0  0  0  0  0  0
   11.9480    1.9080   10.4150 C   0  0  0  0  0  0  0  0  0  0  0  0
   11.7040    0.9090    9.4970 C   0  0  0  0  0  0  0  0  0  0  0  0
   14.8540    0.6100    8.4120 H   0  0  0  0  0  0  0  0  0  0  0  0
   17.6480    3.9900   10.2670 H   0  0  0  0  0  0  0  0  0  0  0  0
   17.5270    3.4010   12.0070 H   0  0  0  0  0  0  0  0  0  0  0  0
   16.2670    6.4230   13.4710 H   0  0  0  0  0  0  0  0  0  0  0  0
   16.6460    4.7110   13.5900 H   0  0  0  0  0  0  0  0  0  0  0  0
   14.1140    5.8970   12.5220 H   0  0  0  0  0  0  0  0  0  0  0  0
   14.3890    4.6400   13.7530 H   0  0  0  0  0  0  0  0  0  0  0  0
   21.1910    8.7310   11.8230 H   0  0  0  0  0  0  0  0  0  0  0  0
   22.4840    7.6080   10.0750 H   0  0  0  0  0  0  0  0  0  0  0  0
   19.0290    5.4050    9.0630 H   0  0  0  0  0  0  0  0  0  0  0  0
   11.1270    2.2960   11.0030 H   0  0  0  0  0  0  0  0  0  0  0  0
   10.7160    0.4870    9.3330 H   0  0  0  0  0  0  0  0  0  0  0  0
  1  2  1  0  0  0  0
  2  3  1  0  0  0  0
  2 24  2  0  0  0  0
  3  4  1  0  0  0  0
  4 21  1  0  0  0  0
  4  5  1  0  0  0  0
  5  6  1  0  0  0  0
  6  7  2  0  0  0  0
  7 12  1  0  0  0  0
  8 21  1  1  0  0  0
  8  9  1  0  0  0  0
  8  7  1  0  0  0  0
  9 10  1  0  0  0  0
  9 27  1  0  0  0  0
 10 11  1  0  0  0  0
 11 28  1  0  0  0  0
 11 29  1  0  0  0  0
 12 11  1  0  0  0  0
 12 31  1  0  0  0  0
 13 10  1  0  0  0  0
 14 13  2  0  0  0  0
 15 13  1  0  0  0  0
 15 16  1  0  0  0  0
 17 16  2  0  0  0  0
 17 32  1  0  0  0  0
 18 17  1  0  0  0  0
 19 20  1  0  0  0  0
 19 18  2  0  0  0  0
 20 15  2  0  0  0  0
 22 21  2  0  0  0  0
 23  5  2  0  0  0  0
 23 35  1  0  0  0  0
 24 23  1  0  0  0  0
 25  3  1  0  0  0  0
 26  9  1  0  0  0  0
 30 12  1  0  0  0  0
 33 18  1  0  0  0  0
 34 20  1  0  0  0  0
 36 24  1  0  0  0  0
M  END
>  <Pose>
1

>  <Score>
-5.96

$$$$
