
 OpenBabel03172210413D

 46 49  0  0  1  0  0  0  0  0999 V2000
   14.6390    1.4170    8.7010 B   0  0  0  0  0  0  0  0  0  0  0  0
   13.4670    2.4210    9.8560 C   0  0  0  0  0  0  0  0  0  0  0  0
   12.8900    3.5940    9.4310 C   0  0  0  0  0  0  0  0  0  0  0  0
   12.0710    4.3150   10.2100 N   0  0  0  0  0  0  0  0  0  0  0  0
   11.7720    3.9080   11.4700 C   0  0  0  0  0  0  0  0  0  0  0  0
   10.9620    4.5890   12.2840 N   0  0  0  0  0  0  0  0  0  0  0  0
   10.3780    5.7420   11.9060 C   0  0  0  0  0  0  0  0  0  0  0  0
   10.6580    6.1880   10.6310 C   0  0  0  0  0  0  0  0  0  0  0  0
   11.4980    5.4750    9.7990 C   0  0  0  0  0  0  0  0  0  0  0  0
   11.7800    5.8460    8.6260 O   0  0  0  0  0  0  0  0  0  0  0  0
    9.4740    6.5200   12.7870 C   0  0  0  0  0  0  0  0  0  0  0  0
    8.1430    6.0940   12.7120 O   0  0  0  0  0  0  0  0  0  0  0  0
    7.0630    6.8910   12.4070 C   0  0  0  0  0  0  0  0  0  0  0  0
    7.1070    7.4740   11.2870 O   0  0  0  0  0  0  0  0  0  0  0  0
    5.9070    7.0670   13.3260 C   0  0  0  0  0  0  0  0  0  0  0  0
    6.3450    7.3940   14.6840 N   0  0  0  0  0  0  0  0  0  0  0  0
    6.8390    6.4950   15.6730 C   0  0  0  0  0  0  0  0  0  0  0  0
    7.1530    5.2910   15.4930 O   0  0  0  0  0  0  0  0  0  0  0  0
    6.9190    7.2310   16.9560 C   0  0  2  0  0  0  0  0  0  0  0  0
    7.2180    8.6240   16.4530 C   0  0  1  0  0  0  0  0  0  0  0  0
    8.6580    8.7950   16.0100 C   0  0  0  0  0  0  0  0  0  0  0  0
    9.5200    7.6040   16.3330 C   0  0  0  0  0  0  0  0  0  0  0  0
    9.3020    7.1440   17.7470 C   0  0  0  0  0  0  0  0  0  0  0  0
    7.8950    6.6920   17.9200 C   0  0  0  0  0  0  0  0  0  0  0  0
    6.3430    8.6880   15.2600 C   0  0  0  0  0  0  0  0  0  0  0  0
    5.7040    9.6940   14.8190 O   0  0  0  0  0  0  0  0  0  0  0  0
   12.3370    2.7230   11.9360 C   0  0  0  0  0  0  0  0  0  0  0  0
   13.1790    1.9900   11.1250 C   0  0  0  0  0  0  0  0  0  0  0  0
   13.1130    3.9360    8.4360 H   0  0  0  0  0  0  0  0  0  0  0  0
   10.2330    7.1110   10.2330 H   0  0  0  0  0  0  0  0  0  0  0  0
    9.8320    6.3750   13.8260 H   0  0  0  0  0  0  0  0  0  0  0  0
    9.5500    7.5870   12.4580 H   0  0  0  0  0  0  0  0  0  0  0  0
    5.2190    7.8610   12.9990 H   0  0  0  0  0  0  0  0  0  0  0  0
    5.3430    6.1160   13.3330 H   0  0  0  0  0  0  0  0  0  0  0  0
    5.9030    7.2600   17.3880 H   0  0  0  0  0  0  0  0  0  0  0  0
    6.9410    9.3960   17.2090 H   0  0  0  0  0  0  0  0  0  0  0  0
    9.1210    9.6950   16.4960 H   0  0  0  0  0  0  0  0  0  0  0  0
    8.7420    8.9850   14.9290 H   0  0  0  0  0  0  0  0  0  0  0  0
   10.5900    7.9550   16.2880 H   0  0  0  0  0  0  0  0  0  0  0  0
    9.4520    6.7890   15.6020 H   0  0  0  0  0  0  0  0  0  0  0  0
    9.5760    7.9950   18.4140 H   0  0  0  0  0  0  0  0  0  0  0  0
   10.0490    6.3380   17.9530 H   0  0  0  0  0  0  0  0  0  0  0  0
    7.5680    7.0030   18.9550 H   0  0  0  0  0  0  0  0  0  0  0  0
    7.8140    5.5820   17.9270 H   0  0  0  0  0  0  0  0  0  0  0  0
   12.1060    2.3940   12.9290 H   0  0  0  0  0  0  0  0  0  0  0  0
   13.6230    1.0720   11.4710 H   0  0  0  0  0  0  0  0  0  0  0  0
  1  2  1  0  0  0  0
  2 28  2  0  0  0  0
  3  2  1  0  0  0  0
  3  4  1  0  0  0  0
  4  5  1  0  0  0  0
  5 27  2  0  0  0  0
  5  6  1  0  0  0  0
  7  6  2  0  0  0  0
  7 11  1  0  0  0  0
  8  7  1  0  0  0  0
  9  4  1  0  0  0  0
  9  8  1  0  0  0  0
 10  9  2  0  0  0  0
 11 31  1  0  0  0  0
 12 11  1  0  0  0  0
 13 12  1  0  0  0  0
 13 15  1  0  0  0  0
 14 13  2  0  0  0  0
 15 34  1  0  0  0  0
 15 16  1  0  0  0  0
 16 25  1  0  0  0  0
 16 17  1  0  0  0  0
 17 19  1  0  0  0  0
 18 17  2  0  0  0  0
 19 35  1  1  0  0  0
 19 24  1  0  0  0  0
 20 19  1  0  0  0  0
 20 36  1  1  0  0  0
 21 22  1  0  0  0  0
 21 20  1  0  0  0  0
 21 37  1  0  0  0  0
 22 23  1  0  0  0  0
 23 24  1  0  0  0  0
 23 42  1  0  0  0  0
 23 41  1  0  0  0  0
 24 44  1  0  0  0  0
 24 43  1  0  0  0  0
 25 20  1  0  0  0  0
 26 25  2  0  0  0  0
 27 45  1  0  0  0  0
 28 46  1  0  0  0  0
 28 27  1  0  0  0  0
 29  3  1  0  0  0  0
 30  8  1  0  0  0  0
 32 11  1  0  0  0  0
 33 15  1  0  0  0  0
 38 21  1  0  0  0  0
 39 22  1  0  0  0  0
 40 22  1  0  0  0  0
M  END
>  <Pose>
1

>  <Score>
-5.89

$$$$
