
 OpenBabel03172210413D

 46 49  0  0  1  0  0  0  0  0999 V2000
   14.9910    2.3460   10.0820 Cl  0  0  0  0  0  0  0  0  0  0  0  0
   13.4030    2.9080   10.5820 C   0  0  0  0  0  0  0  0  0  0  0  0
   12.8440    3.9520    9.8800 C   0  0  0  0  0  0  0  0  0  0  0  0
   11.6170    4.3830   10.2680 N   0  0  0  0  0  0  0  0  0  0  0  0
   10.9550    3.8260   11.2950 C   0  0  0  0  0  0  0  0  0  0  0  0
    9.7380    4.2470   11.6860 N   0  0  0  0  0  0  0  0  0  0  0  0
    9.0920    5.2580   11.0780 C   0  0  0  0  0  0  0  0  0  0  0  0
    9.7730    5.8330   10.0200 C   0  0  0  0  0  0  0  0  0  0  0  0
   11.0180    5.4020    9.6210 C   0  0  0  0  0  0  0  0  0  0  0  0
   11.6070    5.9600    8.6430 O   0  0  0  0  0  0  0  0  0  0  0  0
    7.7640    5.7480   11.4750 C   0  0  0  0  0  0  0  0  0  0  0  0
    7.7330    6.9410   12.2130 N   0  0  0  0  0  0  0  0  0  0  0  0
    7.1120    8.0650   11.6480 C   0  0  0  0  0  0  0  0  0  0  0  0
    5.7040    8.3170   12.0760 C   0  0  0  0  0  0  0  0  0  0  0  0
    5.4380    7.8040   13.4130 N   0  0  0  0  0  0  0  0  0  0  0  0
    4.2980    7.9320   14.0900 N   0  0  0  0  0  0  0  0  0  0  0  0
    4.4230    7.3360   15.2790 C   0  0  0  0  0  0  0  0  0  0  0  0
    5.6930    6.8200   15.3370 C   0  0  0  0  0  0  0  0  0  0  0  0
    6.3410    7.1240   14.1350 C   0  0  0  0  0  0  0  0  0  0  0  0
    7.7040    6.8310   13.6280 C   0  0  0  0  0  0  0  0  0  0  0  0
    3.3710    7.2530   16.3400 C   0  0  1  0  0  0  0  0  0  0  0  0
    3.9760    6.7450   17.5010 O   0  0  0  0  0  0  0  0  0  0  0  0
    2.8870    8.6550   16.7050 C   0  0  0  0  0  0  0  0  0  0  0  0
    3.2160    8.9080   18.1690 C   0  0  0  0  0  0  0  0  0  0  0  0
   11.5180    2.7640   12.0110 C   0  0  0  0  0  0  0  0  0  0  0  0
   12.7580    2.3060   11.6430 C   0  0  0  0  0  0  0  0  0  0  0  0
   13.3510    4.4080    9.0630 H   0  0  0  0  0  0  0  0  0  0  0  0
    9.2940    6.6630    9.4870 H   0  0  0  0  0  0  0  0  0  0  0  0
    7.1480    5.8830   10.5500 H   0  0  0  0  0  0  0  0  0  0  0  0
    7.2140    4.9510   12.0550 H   0  0  0  0  0  0  0  0  0  0  0  0
    7.7050    8.9810   11.9470 H   0  0  0  0  0  0  0  0  0  0  0  0
    7.2170    8.0210   10.5420 H   0  0  0  0  0  0  0  0  0  0  0  0
    5.0160    7.8720   11.3350 H   0  0  0  0  0  0  0  0  0  0  0  0
    5.4580    9.4180   12.0800 H   0  0  0  0  0  0  0  0  0  0  0  0
    6.1470    6.2720   16.1470 H   0  0  0  0  0  0  0  0  0  0  0  0
    8.4380    7.5830   14.0460 H   0  0  0  0  0  0  0  0  0  0  0  0
    8.0450    5.8160   13.9140 H   0  0  0  0  0  0  0  0  0  0  0  0
    2.5220    6.6270   16.0460 H   0  0  0  0  0  0  0  0  0  0  0  0
    4.3210    5.8190   17.3420 H   0  0  0  0  0  0  0  0  0  0  0  0
    1.8010    8.6580   16.5980 H   0  0  0  0  0  0  0  0  0  0  0  0
    3.3230    9.4280   16.0700 H   0  0  0  0  0  0  0  0  0  0  0  0
    3.8120    8.0730   18.5750 H   0  0  0  0  0  0  0  0  0  0  0  0
    3.7260    9.8890   18.3120 H   0  0  0  0  0  0  0  0  0  0  0  0
    2.2770    8.9710   18.7890 H   0  0  0  0  0  0  0  0  0  0  0  0
   10.9590    2.3350   12.8360 H   0  0  0  0  0  0  0  0  0  0  0  0
   13.1970    1.4860   12.1950 H   0  0  0  0  0  0  0  0  0  0  0  0
  1  2  1  0  0  0  0
  2 26  2  0  0  0  0
  3  4  1  0  0  0  0
  3  2  1  0  0  0  0
  4  5  1  0  0  0  0
  5  6  1  0  0  0  0
  5 25  2  0  0  0  0
  7 11  1  0  0  0  0
  7  6  2  0  0  0  0
  8  7  1  0  0  0  0
  9  8  1  0  0  0  0
  9  4  1  0  0  0  0
 10  9  2  0  0  0  0
 11 30  1  0  0  0  0
 11 12  1  0  0  0  0
 12 20  1  0  0  0  0
 13 31  1  0  0  0  0
 13 14  1  0  0  0  0
 13 12  1  0  0  0  0
 14 34  1  0  0  0  0
 14 15  1  0  0  0  0
 15 16  1  0  0  0  0
 15 19  1  0  0  0  0
 16 17  2  0  0  0  0
 17 18  1  0  0  0  0
 17 21  1  0  0  0  0
 18 35  1  0  0  0  0
 19 18  2  0  0  0  0
 20 37  1  0  0  0  0
 20 36  1  0  0  0  0
 20 19  1  0  0  0  0
 21 38  1  6  0  0  0
 21 23  1  0  0  0  0
 21 22  1  0  0  0  0
 23 24  1  0  0  0  0
 24 43  1  0  0  0  0
 24 42  1  0  0  0  0
 24 44  1  0  0  0  0
 25 45  1  0  0  0  0
 26 25  1  0  0  0  0
 26 46  1  0  0  0  0
 27  3  1  0  0  0  0
 28  8  1  0  0  0  0
 29 11  1  0  0  0  0
 32 13  1  0  0  0  0
 33 14  1  0  0  0  0
 39 22  1  0  0  0  0
 40 23  1  0  0  0  0
 41 23  1  0  0  0  0
M  END
>  <Pose>
1

>  <Score>
-5.70

$$$$
