
 OpenBabel03172210413D

 41 44  0  0  0  0  0  0  0  0999 V2000
    4.9350    8.1110   13.1330 Cl  0  0  0  0  0  0  0  0  0  0  0  0
    6.4410    7.2200   13.0170 C   0  0  0  0  0  0  0  0  0  0  0  0
    6.9930    6.9260   11.7910 C   0  0  0  0  0  0  0  0  0  0  0  0
    8.1640    6.2320   11.7390 N   0  0  0  0  0  0  0  0  0  0  0  0
    8.7550    5.8510   12.8760 C   0  0  0  0  0  0  0  0  0  0  0  0
    9.8840    5.1890   12.5750 N   0  0  0  0  0  0  0  0  0  0  0  0
   10.0250    5.1410   11.2500 C   0  0  0  0  0  0  0  0  0  0  0  0
    8.9170    5.8140   10.7120 C   0  0  0  0  0  0  0  0  0  0  0  0
   11.0890    4.5320   10.4700 C   0  0  0  0  0  0  0  0  0  0  0  0
   11.3210    5.0340    9.3090 O   0  0  0  0  0  0  0  0  0  0  0  0
   11.8780    3.4630   10.8490 N   0  0  0  0  0  0  0  0  0  0  0  0
   11.8710    2.1810   10.1860 C   0  0  0  0  0  0  0  0  0  0  0  0
   13.1730    1.9450    9.4510 C   0  0  0  0  0  0  0  0  0  0  0  0
   14.3090    2.5120   10.2540 C   0  0  0  0  0  0  0  0  0  0  0  0
   14.1650    3.2400   11.4040 C   0  0  0  0  0  0  0  0  0  0  0  0
   15.4280    3.5500   11.7960 N   0  0  0  0  0  0  0  0  0  0  0  0
   16.3130    3.0580   10.9590 N   0  0  0  0  0  0  0  0  0  0  0  0
   15.6800    2.4020    9.9780 C   0  0  0  0  0  0  0  0  0  0  0  0
   16.1870    1.7910    8.9830 O   0  0  0  0  0  0  0  0  0  0  0  0
   17.7770    3.1720   11.0270 C   0  0  0  0  0  0  0  0  0  0  0  0
   18.2010    4.6220   11.0670 C   0  0  0  0  0  0  0  0  0  0  0  0
   19.2790    4.8800   10.2290 O   0  0  0  0  0  0  0  0  0  0  0  0
   12.8270    3.5460   11.9860 C   0  0  0  0  0  0  0  0  0  0  0  0
    8.2140    6.1370   14.1410 C   0  0  0  0  0  0  0  0  0  0  0  0
    7.0450    6.8300   14.2000 C   0  0  0  0  0  0  0  0  0  0  0  0
    6.5240    7.2300   10.8690 H   0  0  0  0  0  0  0  0  0  0  0  0
    8.7220    5.9580    9.6490 H   0  0  0  0  0  0  0  0  0  0  0  0
   11.0330    1.9710    9.5420 H   0  0  0  0  0  0  0  0  0  0  0  0
   11.7950    1.4280   11.0400 H   0  0  0  0  0  0  0  0  0  0  0  0
   13.1800    2.3590    8.4430 H   0  0  0  0  0  0  0  0  0  0  0  0
   13.2800    0.8300    9.3510 H   0  0  0  0  0  0  0  0  0  0  0  0
   15.6170    4.1110   12.6610 H   0  0  0  0  0  0  0  0  0  0  0  0
   18.1630    2.7520   10.0750 H   0  0  0  0  0  0  0  0  0  0  0  0
   18.2020    2.6040   11.8510 H   0  0  0  0  0  0  0  0  0  0  0  0
   17.3450    5.2110   10.6790 H   0  0  0  0  0  0  0  0  0  0  0  0
   18.4610    4.9340   12.0850 H   0  0  0  0  0  0  0  0  0  0  0  0
   19.4540    4.1200    9.5970 H   0  0  0  0  0  0  0  0  0  0  0  0
   12.5260    2.8190   12.7590 H   0  0  0  0  0  0  0  0  0  0  0  0
   12.7970    4.5980   12.3330 H   0  0  0  0  0  0  0  0  0  0  0  0
    8.7360    5.8020   15.0400 H   0  0  0  0  0  0  0  0  0  0  0  0
    6.6100    7.0610   15.1750 H   0  0  0  0  0  0  0  0  0  0  0  0
  2  1  1  0  0  0  0
  2 25  1  0  0  0  0
  3  2  2  0  0  0  0
  4  3  1  0  0  0  0
  4  5  1  0  0  0  0
  5 24  1  0  0  0  0
  6  5  2  0  0  0  0
  7  6  1  0  0  0  0
  8  7  2  0  0  0  0
  8  4  1  0  0  0  0
  9 11  1  0  0  0  0
  9  7  1  0  0  0  0
 10  9  2  0  0  0  0
 11 23  1  0  0  0  0
 12 11  1  0  0  0  0
 12 29  1  0  0  0  0
 13 12  1  0  0  0  0
 13 14  1  0  0  0  0
 14 15  2  0  0  0  0
 15 16  1  0  0  0  0
 15 23  1  0  0  0  0
 16 32  1  0  0  0  0
 17 20  1  0  0  0  0
 17 16  1  0  0  0  0
 18 14  1  0  0  0  0
 18 17  1  0  0  0  0
 19 18  2  0  0  0  0
 20 21  1  0  0  0  0
 20 34  1  0  0  0  0
 21 36  1  0  0  0  0
 22 21  1  0  0  0  0
 23 39  1  0  0  0  0
 23 38  1  0  0  0  0
 24 25  2  0  0  0  0
 24 40  1  0  0  0  0
 25 41  1  0  0  0  0
 26  3  1  0  0  0  0
 27  8  1  0  0  0  0
 28 12  1  0  0  0  0
 30 13  1  0  0  0  0
 31 13  1  0  0  0  0
 33 20  1  0  0  0  0
 35 21  1  0  0  0  0
 37 22  1  0  0  0  0
M  END
>  <Pose>
1

>  <Score>
-6.56

$$$$
