
 OpenBabel03172210413D

 45 48  0  0  1  0  0  0  0  0999 V2000
    4.5280    6.7950   15.5170 Cl  0  0  0  0  0  0  0  0  0  0  0  0
    5.5950    7.4140   14.2520 C   0  0  0  0  0  0  0  0  0  0  0  0
    6.9520    7.2200   14.3510 C   0  0  0  0  0  0  0  0  0  0  0  0
    7.8260    7.6940   13.3730 C   0  0  0  0  0  0  0  0  0  0  0  0
    7.2550    8.3620   12.3080 C   0  0  0  0  0  0  0  0  0  0  0  0
    5.8880    8.5510   12.2180 C   0  0  0  0  0  0  0  0  0  0  0  0
    5.0280    8.0810   13.1880 C   0  0  0  0  0  0  0  0  0  0  0  0
    9.2870    7.4800   13.4930 C   0  0  0  0  0  0  0  0  0  0  0  0
    9.6460    6.0200   13.5440 C   0  0  0  0  0  0  0  0  0  0  0  0
   10.3660    5.5590   12.3800 N   0  0  0  0  0  0  0  0  0  0  0  0
   11.5960    4.8230   12.2540 C   0  0  2  0  0  0  0  0  0  0  0  0
   12.0960    5.3000   10.9050 C   0  0  2  0  0  0  0  0  0  0  0  0
   10.8910    5.2660   10.1510 O   0  0  0  0  0  0  0  0  0  0  0  0
    9.9280    5.7780   11.0440 C   0  0  0  0  0  0  0  0  0  0  0  0
    8.8530    6.3380   10.6600 O   0  0  0  0  0  0  0  0  0  0  0  0
   13.0480    4.2030   10.5920 C   0  0  0  0  0  0  0  0  0  0  0  0
   12.1930    3.0160   10.8200 N   0  0  0  0  0  0  0  0  0  0  0  0
   11.3210    3.3500   11.9030 C   0  0  0  0  0  0  0  0  0  0  0  0
   12.3420    1.8690   10.0350 C   0  0  0  0  0  0  0  0  0  0  0  0
   11.3480    1.0410    9.9080 O   0  0  0  0  0  0  0  0  0  0  0  0
   13.5340    1.4720    9.3100 C   0  0  0  0  0  0  0  0  0  0  0  0
   13.6370    0.4790    8.3850 N   0  0  0  0  0  0  0  0  0  0  0  0
   14.8940    0.4340    7.9480 C   0  0  0  0  0  0  0  0  0  0  0  0
   15.6030    1.3770    8.5720 N   0  0  0  0  0  0  0  0  0  0  0  0
   14.7740    2.0290    9.4180 C   0  0  0  0  0  0  0  0  0  0  0  0
   12.5530   -0.3700    7.9660 C   0  0  0  0  0  0  0  0  0  0  0  0
    7.4120    6.6920   15.1920 H   0  0  0  0  0  0  0  0  0  0  0  0
    7.9330    8.7370   11.5380 H   0  0  0  0  0  0  0  0  0  0  0  0
    5.4690    9.0820   11.3640 H   0  0  0  0  0  0  0  0  0  0  0  0
    3.9580    8.2200   13.1310 H   0  0  0  0  0  0  0  0  0  0  0  0
    9.6090    7.9230   14.4580 H   0  0  0  0  0  0  0  0  0  0  0  0
    9.8620    8.0290   12.7050 H   0  0  0  0  0  0  0  0  0  0  0  0
    8.6700    5.4680   13.6660 H   0  0  0  0  0  0  0  0  0  0  0  0
   10.2160    5.7790   14.4650 H   0  0  0  0  0  0  0  0  0  0  0  0
   12.3030    4.9400   13.0650 H   0  0  0  0  0  0  0  0  0  0  0  0
   12.5400    6.3050   10.9400 H   0  0  0  0  0  0  0  0  0  0  0  0
   13.4870    4.2210    9.6040 H   0  0  0  0  0  0  0  0  0  0  0  0
   13.8000    4.1610   11.4080 H   0  0  0  0  0  0  0  0  0  0  0  0
   11.4130    2.7320   12.8020 H   0  0  0  0  0  0  0  0  0  0  0  0
   10.2390    3.2930   11.5740 H   0  0  0  0  0  0  0  0  0  0  0  0
   15.3480   -0.2350    7.2050 H   0  0  0  0  0  0  0  0  0  0  0  0
   15.1330    2.8580   10.0480 H   0  0  0  0  0  0  0  0  0  0  0  0
   11.7830    0.1720    7.3790 H   0  0  0  0  0  0  0  0  0  0  0  0
   12.0550   -0.8600    8.8360 H   0  0  0  0  0  0  0  0  0  0  0  0
   12.9400   -1.1940    7.3320 H   0  0  0  0  0  0  0  0  0  0  0  0
  2  3  1  0  0  0  0
  2  1  1  0  0  0  0
  3 27  1  0  0  0  0
  4  8  1  0  0  0  0
  4  3  2  0  0  0  0
  5  4  1  0  0  0  0
  6  5  2  0  0  0  0
  6  7  1  0  0  0  0
  7  2  2  0  0  0  0
  8  9  1  0  0  0  0
  8 31  1  0  0  0  0
  9 33  1  0  0  0  0
  9 34  1  0  0  0  0
 10  9  1  0  0  0  0
 11 10  1  0  0  0  0
 11 35  1  1  0  0  0
 12 36  1  1  0  0  0
 12 11  1  0  0  0  0
 13 12  1  0  0  0  0
 13 14  1  0  0  0  0
 14 10  1  0  0  0  0
 15 14  2  0  0  0  0
 16 17  1  0  0  0  0
 16 12  1  0  0  0  0
 16 38  1  0  0  0  0
 17 18  1  0  0  0  0
 18 11  1  0  0  0  0
 18 39  1  0  0  0  0
 19 17  1  0  0  0  0
 20 19  2  0  0  0  0
 21 25  2  0  0  0  0
 21 19  1  0  0  0  0
 22 21  1  0  0  0  0
 23 22  1  0  0  0  0
 23 24  2  0  0  0  0
 24 25  1  0  0  0  0
 25 42  1  0  0  0  0
 26 22  1  0  0  0  0
 26 44  1  0  0  0  0
 28  5  1  0  0  0  0
 29  6  1  0  0  0  0
 30  7  1  0  0  0  0
 32  8  1  0  0  0  0
 37 16  1  0  0  0  0
 40 18  1  0  0  0  0
 41 23  1  0  0  0  0
 43 26  1  0  0  0  0
 45 26  1  0  0  0  0
M  END
>  <Pose>
1

>  <Score>
-6.63

$$$$
