
 OpenBabel03172210413D

 53 56  0  0  1  0  0  0  0  0999 V2000
   16.5550    8.3850   13.6300 Cl  0  0  0  0  0  0  0  0  0  0  0  0
   15.0220    7.5970   13.3800 C   0  0  0  0  0  0  0  0  0  0  0  0
   13.8540    8.1520   13.8140 C   0  0  0  0  0  0  0  0  0  0  0  0
   12.6600    7.4820   13.5900 C   0  0  0  0  0  0  0  0  0  0  0  0
   12.5850    6.2840   12.9540 C   0  0  0  0  0  0  0  0  0  0  0  0
   13.7810    5.7200   12.5120 C   0  0  0  0  0  0  0  0  0  0  0  0
   14.9780    6.3660   12.7220 C   0  0  0  0  0  0  0  0  0  0  0  0
   11.3290    5.5800   12.7290 C   0  0  1  0  0  0  0  0  0  0  0  0
   10.3630    6.4830   12.0760 N   0  0  0  0  0  0  0  0  0  0  0  0
   10.5620    6.4040   10.6710 C   0  0  0  0  0  0  0  0  0  0  0  0
   10.2240    7.2300    9.8200 O   0  0  0  0  0  0  0  0  0  0  0  0
   11.2580    5.1320   10.3980 C   0  0  0  0  0  0  0  0  0  0  0  0
   11.6310    4.6700    9.2720 O   0  0  0  0  0  0  0  0  0  0  0  0
   11.4400    4.5000   11.6950 C   0  0  0  0  0  0  0  0  0  0  0  0
   11.6840    3.2240   11.8640 C   0  0  0  0  0  0  0  0  0  0  0  0
   11.8810    2.7640   13.1620 O   0  0  0  0  0  0  0  0  0  0  0  0
   11.7690    2.2210   10.8070 C   0  0  0  0  0  0  0  0  0  0  0  0
   10.5710    1.8800   10.1890 C   0  0  0  0  0  0  0  0  0  0  0  0
   10.5770    0.9660    9.1730 C   0  0  0  0  0  0  0  0  0  0  0  0
   11.7510    0.3730    8.7490 C   0  0  0  0  0  0  0  0  0  0  0  0
   12.9360    0.7150    9.3650 C   0  0  0  0  0  0  0  0  0  0  0  0
   12.9170    1.6400   10.3890 C   0  0  0  0  0  0  0  0  0  0  0  0
   11.7090   -0.7810    7.4570 Cl  0  0  0  0  0  0  0  0  0  0  0  0
    9.4170    7.2530   12.8430 C   0  0  0  0  0  0  0  0  0  0  0  0
    8.0650    7.3900   12.2540 C   0  0  0  0  0  0  0  0  0  0  0  0
    7.0490    8.0200   13.0130 N   0  0  0  0  0  4  0  0  0  0  0  0
    5.7180    7.5120   12.7530 C   0  0  0  0  0  0  0  0  0  0  0  0
    4.7330    8.5780   12.3380 C   0  0  0  0  0  0  0  0  0  0  0  0
    4.7200    9.6920   13.1370 O   0  0  0  0  0  0  0  0  0  0  0  0
    5.9790   10.1860   13.4210 C   0  0  0  0  0  0  0  0  0  0  0  0
    6.9980    9.4420   12.6120 C   0  0  0  0  0  0  0  0  0  0  0  0
   13.8930    9.1050   14.3240 H   0  0  0  0  0  0  0  0  0  0  0  0
   11.7720    7.9620   13.9470 H   0  0  0  0  0  0  0  0  0  0  0  0
   13.7370    4.7680   12.0040 H   0  0  0  0  0  0  0  0  0  0  0  0
   15.9210    5.9630   12.3960 H   0  0  0  0  0  0  0  0  0  0  0  0
   10.8760    5.1820   13.6640 H   0  0  0  0  0  0  0  0  0  0  0  0
    9.6270    2.3440   10.5180 H   0  0  0  0  0  0  0  0  0  0  0  0
    9.6160    0.7280    8.7170 H   0  0  0  0  0  0  0  0  0  0  0  0
   13.8380    0.2360    9.0110 H   0  0  0  0  0  0  0  0  0  0  0  0
   13.8710    1.9120   10.8530 H   0  0  0  0  0  0  0  0  0  0  0  0
    9.8430    8.3010   12.9290 H   0  0  0  0  0  0  0  0  0  0  0  0
    9.3930    6.9190   13.9110 H   0  0  0  0  0  0  0  0  0  0  0  0
    8.1350    7.8970   11.2400 H   0  0  0  0  0  0  0  0  0  0  0  0
    7.6410    6.3730   11.9570 H   0  0  0  0  0  0  0  0  0  0  0  0
    7.2510    8.0570   14.0250 H   0  0  0  0  0  0  0  0  0  0  0  0
    5.3620    6.9940   13.6640 H   0  0  0  0  0  0  0  0  0  0  0  0
    5.7100    6.7650   11.9310 H   0  0  0  0  0  0  0  0  0  0  0  0
    3.7240    8.0880   12.3980 H   0  0  0  0  0  0  0  0  0  0  0  0
    4.8650    8.8170   11.2590 H   0  0  0  0  0  0  0  0  0  0  0  0
    6.0790   11.2570   13.1930 H   0  0  0  0  0  0  0  0  0  0  0  0
    6.2200   10.0280   14.4940 H   0  0  0  0  0  0  0  0  0  0  0  0
    6.7770    9.4590   11.5330 H   0  0  0  0  0  0  0  0  0  0  0  0
    8.0020    9.9090   12.7460 H   0  0  0  0  0  0  0  0  0  0  0  0
  2  1  1  0  0  0  0
  2  3  1  0  0  0  0
  3 32  1  0  0  0  0
  4  3  2  0  0  0  0
  4 33  1  0  0  0  0
  5  4  1  0  0  0  0
  6  7  1  0  0  0  0
  6  5  2  0  0  0  0
  7  2  2  0  0  0  0
  8  5  1  0  0  0  0
  8 36  1  1  0  0  0
  9  8  1  0  0  0  0
  9 24  1  0  0  0  0
 10  9  1  0  0  0  0
 11 10  2  0  0  0  0
 12 10  1  0  0  0  0
 12 14  1  0  0  0  0
 13 12  2  0  0  0  0
 14 15  2  0  0  0  0
 14  8  1  0  0  0  0
 15 16  1  0  0  0  0
 17 15  1  0  0  0  0
 18 37  1  0  0  0  0
 18 17  2  0  0  0  0
 19 18  1  0  0  0  0
 20 19  2  0  0  0  0
 20 21  1  0  0  0  0
 21 22  2  0  0  0  0
 22 17  1  0  0  0  0
 22 40  1  0  0  0  0
 23 20  1  0  0  0  0
 24 41  1  0  0  0  0
 24 42  1  0  0  0  0
 25 24  1  0  0  0  0
 25 26  1  0  0  0  0
 26 45  1  0  0  0  0
 27 26  1  0  0  0  0
 27 46  1  0  0  0  0
 28 48  1  0  0  0  0
 28 27  1  0  0  0  0
 28 29  1  0  0  0  0
 29 30  1  0  0  0  0
 30 51  1  0  0  0  0
 31 53  1  0  0  0  0
 31 26  1  0  0  0  0
 31 30  1  0  0  0  0
 34  6  1  0  0  0  0
 35  7  1  0  0  0  0
 38 19  1  0  0  0  0
 39 21  1  0  0  0  0
 43 25  1  0  0  0  0
 44 25  1  0  0  0  0
 47 27  1  0  0  0  0
 49 28  1  0  0  0  0
 50 30  1  0  0  0  0
 52 31  1  0  0  0  0
M  END
>  <Pose>
1

>  <Score>
-6.43

$$$$
