
 OpenBabel03172210413D

 42 45  0  0  1  0  0  0  0  0999 V2000
    7.3290   10.7710   12.6190 Cl  0  0  0  0  0  0  0  0  0  0  0  0
    7.2430    9.0250   12.5390 C   0  0  0  0  0  0  0  0  0  0  0  0
    8.0920    8.2150   13.2540 C   0  0  0  0  0  0  0  0  0  0  0  0
    8.0500    6.8270   13.2080 C   0  0  0  0  0  0  0  0  0  0  0  0
    7.0830    6.2580   12.3850 C   0  0  0  0  0  0  0  0  0  0  0  0
    6.2200    7.0450   11.6570 C   0  0  0  0  0  0  0  0  0  0  0  0
    6.3020    8.4200   11.7360 C   0  0  0  0  0  0  0  0  0  0  0  0
    8.9880    5.9910   13.9980 C   0  0  1  0  0  0  0  0  0  0  0  0
   10.2770    5.8320   13.3880 N   0  0  0  0  0  0  0  0  0  0  0  0
   11.2050    6.7700   13.9230 C   0  0  0  0  0  0  0  0  0  0  0  0
   12.3270    7.1010   13.4410 O   0  0  0  0  0  0  0  0  0  0  0  0
   10.6250    7.3100   15.1700 C   0  0  0  0  0  0  0  0  0  0  0  0
   11.1680    8.1650   15.9060 O   0  0  0  0  0  0  0  0  0  0  0  0
    9.3410    6.6370   15.3100 C   0  0  0  0  0  0  0  0  0  0  0  0
    8.6230    6.6490   16.4130 C   0  0  0  0  0  0  0  0  0  0  0  0
    7.3760    5.9920   16.3720 O   0  0  0  0  0  0  0  0  0  0  0  0
    9.0330    7.2860   17.6570 C   0  0  0  0  0  0  0  0  0  0  0  0
    9.2340    6.5020   18.8020 C   0  0  0  0  0  0  0  0  0  0  0  0
    9.6510    7.0740   19.9840 C   0  0  0  0  0  0  0  0  0  0  0  0
    9.8900    8.4260   20.1050 C   0  0  0  0  0  0  0  0  0  0  0  0
    9.7000    9.2140   18.9920 C   0  0  0  0  0  0  0  0  0  0  0  0
    9.2770    8.6330   17.7950 C   0  0  0  0  0  0  0  0  0  0  0  0
   10.5980    4.8850   12.3910 C   0  0  1  0  0  0  0  0  0  0  0  0
   11.2640    3.7780   12.8150 N   0  0  0  0  0  0  0  0  0  0  0  0
   11.6230    2.8110   11.9720 C   0  0  0  0  0  0  0  0  0  0  0  0
   11.2990    2.9550   10.6430 C   0  0  0  0  0  0  0  0  0  0  0  0
   10.6230    4.0860   10.2360 C   0  0  0  0  0  0  0  0  0  0  0  0
   10.2660    5.0580   11.0930 N   0  0  0  0  0  0  0  0  0  0  0  0
    8.8240    8.7140   13.8740 H   0  0  0  0  0  0  0  0  0  0  0  0
    7.0390    5.1730   12.3360 H   0  0  0  0  0  0  0  0  0  0  0  0
    5.4570    6.5920   11.0070 H   0  0  0  0  0  0  0  0  0  0  0  0
    5.6180    9.0290   11.1610 H   0  0  0  0  0  0  0  0  0  0  0  0
    8.4890    5.0110   14.1560 H   0  0  0  0  0  0  0  0  0  0  0  0
    9.0450    5.4370   18.7000 H   0  0  0  0  0  0  0  0  0  0  0  0
    9.7920    6.4290   20.8410 H   0  0  0  0  0  0  0  0  0  0  0  0
   10.2190    8.8960   21.0210 H   0  0  0  0  0  0  0  0  0  0  0  0
    9.8820   10.2930   19.0630 H   0  0  0  0  0  0  0  0  0  0  0  0
    9.1590    9.2910   16.9290 H   0  0  0  0  0  0  0  0  0  0  0  0
   11.5130    3.6570   13.8350 H   0  0  0  0  0  0  0  0  0  0  0  0
   12.1540    1.9460   12.3500 H   0  0  0  0  0  0  0  0  0  0  0  0
   11.5860    2.1750    9.9490 H   0  0  0  0  0  0  0  0  0  0  0  0
   10.3910    4.1520    9.1820 H   0  0  0  0  0  0  0  0  0  0  0  0
  2  1  1  0  0  0  0
  2  3  1  0  0  0  0
  3 29  1  0  0  0  0
  4  3  2  0  0  0  0
  4  8  1  0  0  0  0
  5  4  1  0  0  0  0
  6  7  1  0  0  0  0
  6  5  2  0  0  0  0
  7  2  2  0  0  0  0
  8 33  1  1  0  0  0
  8 14  1  0  0  0  0
  9 10  1  0  0  0  0
  9  8  1  0  0  0  0
 10 12  1  0  0  0  0
 11 10  2  0  0  0  0
 12 14  1  0  0  0  0
 12 13  2  0  0  0  0
 14 15  2  0  0  0  0
 15 17  1  0  0  0  0
 16 15  1  0  0  0  0
 17 22  2  0  0  0  0
 17 18  1  0  0  0  0
 18 19  2  0  0  0  0
 19 20  1  0  0  0  0
 19 35  1  0  0  0  0
 20 36  1  0  0  0  0
 21 37  1  0  0  0  0
 21 20  2  0  0  0  0
 22 21  1  0  0  0  0
 23 24  1  0  0  0  0
 23  9  1  1  0  0  0
 24 39  1  0  0  0  0
 25 40  1  0  0  0  0
 25 24  1  0  0  0  0
 26 25  2  0  0  0  0
 27 26  1  0  0  0  0
 27 28  2  0  0  0  0
 28 23  1  0  0  0  0
 30  5  1  0  0  0  0
 31  6  1  0  0  0  0
 32  7  1  0  0  0  0
 34 18  1  0  0  0  0
 38 22  1  0  0  0  0
 41 26  1  0  0  0  0
 42 27  1  0  0  0  0
M  END
>  <Pose>
1

>  <Score>
-5.51

$$$$
