
 OpenBabel03172210413D

 44 47  0  0  0  0  0  0  0  0999 V2000
    7.8450    6.5190   12.1580 S   0  0  0  0  0  0  0  0  0  0  0  0
    7.7030    5.8670   13.4410 O   0  0  0  0  0  0  0  0  0  0  0  0
    7.0410    5.8400   11.0910 O   0  0  0  0  0  0  0  0  0  0  0  0
    7.3360    8.2560   12.1890 C   0  0  0  0  0  0  0  0  0  0  0  0
    9.5240    6.5330   11.5880 C   0  0  0  0  0  0  0  0  0  0  0  0
   10.4970    6.7340   12.4840 N   0  0  0  0  0  0  0  0  0  0  0  0
   11.7960    6.6970   12.2030 C   0  0  0  0  0  0  0  0  0  0  0  0
   12.1550    6.4170   10.8750 C   0  0  0  0  0  0  0  0  0  0  0  0
   11.1690    6.2160    9.9750 C   0  0  0  0  0  0  0  0  0  0  0  0
    9.8570    6.2780   10.3360 N   0  0  0  0  0  0  0  0  0  0  0  0
   11.5200    5.9530    8.6590 O   0  0  0  0  0  0  0  0  0  0  0  0
   13.5920    6.2470   10.6450 C   0  0  0  0  0  0  0  0  0  0  0  0
   14.0330    5.3200   11.6410 N   0  0  0  0  0  0  0  0  0  0  0  0
   14.1700    6.2050   12.8820 C   0  0  0  0  0  0  0  0  0  0  0  0
   12.8910    6.8990   13.1890 C   0  0  0  0  0  0  0  0  0  0  0  0
   13.0200    4.3250   12.1470 C   0  0  0  0  0  0  0  0  0  0  0  0
   13.2520    3.2080   11.1260 C   0  0  0  0  0  0  0  0  0  0  0  0
   12.3040    2.4330   10.5820 C   0  0  0  0  0  0  0  0  0  0  0  0
   12.5650    1.4070    9.6330 C   0  0  0  0  0  0  0  0  0  0  0  0
   13.9140    1.2630    9.2960 C   0  0  0  0  0  0  0  0  0  0  0  0
   14.2270    0.2930    8.3900 C   0  0  0  0  0  0  0  0  0  0  0  0
   13.2810   -0.5620    7.7820 C   0  0  0  0  0  0  0  0  0  0  0  0
   11.9360   -0.3750    8.1490 C   0  0  0  0  0  0  0  0  0  0  0  0
   11.6420    0.6010    9.0600 C   0  0  0  0  0  0  0  0  0  0  0  0
   14.8310    2.0110    9.8060 O   0  0  0  0  0  0  0  0  0  0  0  0
   14.5570    2.9710   10.7030 C   0  0  0  0  0  0  0  0  0  0  0  0
   15.4890    3.7040   11.2130 O   0  0  0  0  0  0  0  0  0  0  0  0
   10.6540    2.7350   11.0100 Cl  0  0  0  0  0  0  0  0  0  0  0  0
    7.8180    8.7530   11.2730 H   0  0  0  0  0  0  0  0  0  0  0  0
    7.8250    8.7380   13.0840 H   0  0  0  0  0  0  0  0  0  0  0  0
    6.2510    8.3720   12.2070 H   0  0  0  0  0  0  0  0  0  0  0  0
   11.5880    6.6710    7.9310 H   0  0  0  0  0  0  0  0  0  0  0  0
   13.8930    6.0370    9.5930 H   0  0  0  0  0  0  0  0  0  0  0  0
   14.0890    7.2640   10.9300 H   0  0  0  0  0  0  0  0  0  0  0  0
   14.5080    5.4880   13.6950 H   0  0  0  0  0  0  0  0  0  0  0  0
   14.9800    6.8800   12.6230 H   0  0  0  0  0  0  0  0  0  0  0  0
   12.5610    6.4710   14.1950 H   0  0  0  0  0  0  0  0  0  0  0  0
   13.0810    7.9590   13.3710 H   0  0  0  0  0  0  0  0  0  0  0  0
   13.2490    3.9680   13.1310 H   0  0  0  0  0  0  0  0  0  0  0  0
   12.0440    4.7890   11.9720 H   0  0  0  0  0  0  0  0  0  0  0  0
   15.2410    0.1260    8.0320 H   0  0  0  0  0  0  0  0  0  0  0  0
   13.5770   -1.3500    7.0600 H   0  0  0  0  0  0  0  0  0  0  0  0
   11.2450   -0.9940    7.6670 H   0  0  0  0  0  0  0  0  0  0  0  0
   10.6110    0.7170    9.4290 H   0  0  0  0  0  0  0  0  0  0  0  0
  1  4  1  0  0  0  0
  1  2  2  0  0  0  0
  3  1  2  0  0  0  0
  4 31  1  0  0  0  0
  4 30  1  0  0  0  0
  5  1  1  0  0  0  0
  5  6  2  0  0  0  0
  7  6  1  0  0  0  0
  7 15  1  0  0  0  0
  8  7  2  0  0  0  0
  9 10  2  0  0  0  0
  9  8  1  0  0  0  0
 10  5  1  0  0  0  0
 11  9  1  0  0  0  0
 12  8  1  0  0  0  0
 12 34  1  0  0  0  0
 12 13  1  0  0  0  0
 13 16  1  0  0  0  0
 13 14  1  0  0  0  0
 14 15  1  0  0  0  0
 14 35  1  0  0  0  0
 15 38  1  0  0  0  0
 15 37  1  0  0  0  0
 16 39  1  0  0  0  0
 17 16  1  0  0  0  0
 18 28  1  0  0  0  0
 18 17  2  0  0  0  0
 19 18  1  0  0  0  0
 20 19  1  0  0  0  0
 20 25  1  0  0  0  0
 21 20  2  0  0  0  0
 22 23  2  0  0  0  0
 22 21  1  0  0  0  0
 23 24  1  0  0  0  0
 24 44  1  0  0  0  0
 24 19  2  0  0  0  0
 25 26  1  0  0  0  0
 26 17  1  0  0  0  0
 26 27  2  0  0  0  0
 29  4  1  0  0  0  0
 32 11  1  0  0  0  0
 33 12  1  0  0  0  0
 36 14  1  0  0  0  0
 40 16  1  0  0  0  0
 41 21  1  0  0  0  0
 42 22  1  0  0  0  0
 43 23  1  0  0  0  0
M  END
>  <Pose>
1

>  <Score>
-5.77

$$$$
