
 OpenBabel03172210413D

 52 55  0  0  0  0  0  0  0  0999 V2000
   11.4950   -1.5660    8.8370 Cl  0  0  0  0  0  0  0  0  0  0  0  0
   11.6210    0.1320    9.1700 C   0  0  0  0  0  0  0  0  0  0  0  0
   12.8110    0.8210    9.2150 C   0  0  0  0  0  0  0  0  0  0  0  0
   12.8900    2.1750    9.4780 C   0  0  0  0  0  0  0  0  0  0  0  0
   11.7520    2.9030    9.7100 C   0  0  0  0  0  0  0  0  0  0  0  0
   10.5610    2.1990    9.6620 C   0  0  0  0  0  0  0  0  0  0  0  0
   10.4620    0.8490    9.4020 C   0  0  0  0  0  0  0  0  0  0  0  0
   11.7120    4.3000    9.9570 N   0  0  0  0  0  0  0  0  0  0  0  0
   10.9360    5.1830    9.3890 N   0  0  0  0  0  0  0  0  0  0  0  0
   11.1590    6.4250    9.8330 C   0  0  0  0  0  0  0  0  0  0  0  0
   12.1730    6.3350   10.7760 C   0  0  0  0  0  0  0  0  0  0  0  0
   12.4930    4.9820   10.8250 C   0  0  0  0  0  0  0  0  0  0  0  0
   13.4580    4.6330   11.6800 N   0  0  0  0  0  0  0  0  0  0  0  0
   14.0870    5.5470   12.4520 C   0  0  0  0  0  0  0  0  0  0  0  0
   13.8010    6.8580   12.4270 N   0  0  0  0  0  0  0  0  0  0  0  0
   12.8240    7.2520   11.5690 C   0  0  0  0  0  0  0  0  0  0  0  0
   12.5200    8.4690   11.5120 O   0  0  0  0  0  0  0  0  0  0  0  0
   14.4900    7.8550   13.2510 C   0  0  0  0  0  0  0  0  0  0  0  0
   14.1810    7.6980   14.6840 C   0  0  0  0  0  0  0  0  0  0  0  0
   14.9460    6.8830   15.3090 O   0  0  0  0  0  0  0  0  0  0  0  0
   13.1690    8.3350   15.3990 N   0  0  0  0  0  0  0  0  0  0  0  0
   13.0380    8.1530   16.8530 C   0  0  0  0  0  0  0  0  0  0  0  0
   11.6980    7.4260   17.0210 C   0  0  0  0  0  0  0  0  0  0  0  0
   10.6540    8.1350   16.3280 N   0  0  0  0  0  0  0  0  0  0  0  0
   11.0080    9.3860   15.6840 C   0  0  0  0  0  0  0  0  0  0  0  0
   12.2090    9.2270   14.7890 C   0  0  0  0  0  0  0  0  0  0  0  0
    9.3400    7.6220   16.2540 C   0  0  0  0  0  0  0  0  0  0  0  0
    8.6050    7.7200   17.3050 O   0  0  0  0  0  0  0  0  0  0  0  0
    8.7610    7.0240   15.1580 O   0  0  0  0  0  0  0  0  0  0  0  0
    7.6970    6.0660   15.3160 C   0  0  0  0  0  0  0  0  0  0  0  0
    6.6840    6.3730   14.2270 C   0  0  0  0  0  0  0  0  0  0  0  0
   13.7080    0.2090    9.0190 H   0  0  0  0  0  0  0  0  0  0  0  0
   13.8410    2.6730    9.5060 H   0  0  0  0  0  0  0  0  0  0  0  0
    9.6320    2.7640    9.8490 H   0  0  0  0  0  0  0  0  0  0  0  0
    9.4730    0.4000    9.3880 H   0  0  0  0  0  0  0  0  0  0  0  0
   10.7100    7.3700    9.5810 H   0  0  0  0  0  0  0  0  0  0  0  0
   14.8780    5.2370   13.1470 H   0  0  0  0  0  0  0  0  0  0  0  0
   14.1360    8.8900   12.9550 H   0  0  0  0  0  0  0  0  0  0  0  0
   15.5660    7.7730   13.0260 H   0  0  0  0  0  0  0  0  0  0  0  0
   13.0490    9.1170   17.3790 H   0  0  0  0  0  0  0  0  0  0  0  0
   13.8210    7.4670   17.1710 H   0  0  0  0  0  0  0  0  0  0  0  0
   11.5330    7.2890   18.1000 H   0  0  0  0  0  0  0  0  0  0  0  0
   11.8190    6.3900   16.5830 H   0  0  0  0  0  0  0  0  0  0  0  0
   11.1660   10.1250   16.4800 H   0  0  0  0  0  0  0  0  0  0  0  0
   10.1410    9.6900   15.0360 H   0  0  0  0  0  0  0  0  0  0  0  0
   12.7090   10.2460   14.7910 H   0  0  0  0  0  0  0  0  0  0  0  0
   11.9690    8.9390   13.7530 H   0  0  0  0  0  0  0  0  0  0  0  0
    8.1180    5.0290   15.1170 H   0  0  0  0  0  0  0  0  0  0  0  0
    7.2230    6.0820   16.2820 H   0  0  0  0  0  0  0  0  0  0  0  0
    6.3210    5.4970   13.6860 H   0  0  0  0  0  0  0  0  0  0  0  0
    5.8630    6.9700   14.7270 H   0  0  0  0  0  0  0  0  0  0  0  0
    7.1470    7.0590   13.5080 H   0  0  0  0  0  0  0  0  0  0  0  0
  1  2  1  0  0  0  0
  2  3  2  0  0  0  0
  2  7  1  0  0  0  0
  3  4  1  0  0  0  0
  4 33  1  0  0  0  0
  4  5  2  0  0  0  0
  5  8  1  0  0  0  0
  6  5  1  0  0  0  0
  6 34  1  0  0  0  0
  7  6  2  0  0  0  0
  8 12  1  0  0  0  0
  9 10  2  0  0  0  0
  9  8  1  0  0  0  0
 10 11  1  0  0  0  0
 11 12  2  0  0  0  0
 11 16  1  0  0  0  0
 12 13  1  0  0  0  0
 13 14  2  0  0  0  0
 14 37  1  0  0  0  0
 15 14  1  0  0  0  0
 15 18  1  0  0  0  0
 16 15  1  0  0  0  0
 17 16  2  0  0  0  0
 18 19  1  0  0  0  0
 19 20  2  0  0  0  0
 19 21  1  0  0  0  0
 21 22  1  0  0  0  0
 22 23  1  0  0  0  0
 22 41  1  0  0  0  0
 22 40  1  0  0  0  0
 23 42  1  0  0  0  0
 24 23  1  0  0  0  0
 25 24  1  0  0  0  0
 25 44  1  0  0  0  0
 26 46  1  0  0  0  0
 26 21  1  0  0  0  0
 26 25  1  0  0  0  0
 27 24  1  0  0  0  0
 27 28  2  0  0  0  0
 29 30  1  0  0  0  0
 29 27  1  0  0  0  0
 30 49  1  0  0  0  0
 31 51  1  0  0  0  0
 31 30  1  0  0  0  0
 32  3  1  0  0  0  0
 35  7  1  0  0  0  0
 36 10  1  0  0  0  0
 38 18  1  0  0  0  0
 39 18  1  0  0  0  0
 43 23  1  0  0  0  0
 45 25  1  0  0  0  0
 47 26  1  0  0  0  0
 48 30  1  0  0  0  0
 50 31  1  0  0  0  0
 52 31  1  0  0  0  0
M  END
>  <Pose>
1

>  <Score>
-5.69

$$$$
