
 OpenBabel03172210413D

 61 64  0  0  1  0  0  0  0  0999 V2000
   11.6910   -1.0850    8.1810 B   0  0  0  0  0  0  0  0  0  0  0  0
   11.8120    0.5660    9.1690 C   0  0  0  0  0  0  0  0  0  0  0  0
   10.6880    1.2550    9.5440 C   0  0  0  0  0  0  0  0  0  0  0  0
   10.7200    2.4490   10.2570 C   0  0  0  0  0  0  0  0  0  0  0  0
   11.9460    2.9690   10.6060 C   0  0  0  0  0  0  0  0  0  0  0  0
   13.0750    2.2630   10.2210 C   0  0  0  0  0  0  0  0  0  0  0  0
   13.0430    1.0820    9.5170 C   0  0  0  0  0  0  0  0  0  0  0  0
   12.0710    4.1960   11.3790 C   0  0  0  0  0  0  0  0  0  0  0  0
   12.0400    4.0330   12.6480 O   0  0  0  0  0  0  0  0  0  0  0  0
   12.2200    5.5440   10.8310 C   0  0  2  0  0  0  0  0  0  0  0  0
   12.4000    6.6310   11.8570 C   0  0  1  0  0  0  0  0  0  0  0  0
   11.1260    7.0750   12.2100 N   0  0  0  0  0  0  0  0  0  0  0  0
   10.4310    7.0750   10.8990 C   0  0  0  0  0  0  0  0  0  0  0  0
    9.5280    7.8670   10.5180 O   0  0  0  0  0  0  0  0  0  0  0  0
   10.9910    5.9770   10.1290 C   0  0  0  0  0  0  0  0  0  0  0  0
   10.5030    5.5010    9.0650 O   0  0  0  0  0  0  0  0  0  0  0  0
   10.3850    7.6070   13.3110 C   0  0  0  0  0  0  0  0  0  0  0  0
    9.0610    7.0040   13.5930 C   0  0  0  0  0  0  0  0  0  0  0  0
    7.9570    7.7680   13.9930 N   0  0  0  0  0  4  0  0  0  0  0  0
    6.6780    7.0740   13.7930 C   0  0  0  0  0  0  0  0  0  0  0  0
    6.5550    5.8390   14.6220 C   0  0  0  0  0  0  0  0  0  0  0  0
    7.6040    5.7670   15.5090 O   0  0  0  0  0  0  0  0  0  0  0  0
    7.6140    6.9560   16.2580 C   0  0  0  0  0  0  0  0  0  0  0  0
    8.0880    8.1230   15.4180 C   0  0  0  0  0  0  0  0  0  0  0  0
   13.5350    6.4880   12.7330 C   0  0  0  0  0  0  0  0  0  0  0  0
   14.7510    5.9940   12.3810 C   0  0  0  0  0  0  0  0  0  0  0  0
   15.7880    5.9160   13.2980 C   0  0  0  0  0  0  0  0  0  0  0  0
   15.5720    6.3550   14.6130 C   0  0  0  0  0  0  0  0  0  0  0  0
   14.3500    6.8500   14.9650 C   0  0  0  0  0  0  0  0  0  0  0  0
   13.3340    6.9280   14.0640 C   0  0  0  0  0  0  0  0  0  0  0  0
   16.5710    6.2980   15.5650 O   0  0  0  0  0  0  0  0  0  0  0  0
   17.0150    5.4310   12.9760 O   0  0  0  0  0  0  0  0  0  0  0  0
   17.4240    5.1310   11.6820 C   0  0  0  0  0  0  0  0  0  0  0  0
   16.9770    3.7610   11.2010 C   0  0  0  0  0  0  0  0  0  0  0  0
    9.7060    0.8590    9.2770 H   0  0  0  0  0  0  0  0  0  0  0  0
    9.7820    2.9340   10.4920 H   0  0  0  0  0  0  0  0  0  0  0  0
   14.0810    2.6330   10.4740 H   0  0  0  0  0  0  0  0  0  0  0  0
   13.9380    0.5450    9.2240 H   0  0  0  0  0  0  0  0  0  0  0  0
   13.0850    5.5730   10.0910 H   0  0  0  0  0  0  0  0  0  0  0  0
   12.7360    7.5430   11.1100 H   0  0  0  0  0  0  0  0  0  0  0  0
   10.9730    7.5390   14.2730 H   0  0  0  0  0  0  0  0  0  0  0  0
   10.1990    8.7010   13.0900 H   0  0  0  0  0  0  0  0  0  0  0  0
    9.1660    6.1560   14.3640 H   0  0  0  0  0  0  0  0  0  0  0  0
    8.7210    6.3760   12.6870 H   0  0  0  0  0  0  0  0  0  0  0  0
    7.8860    8.6510   13.4940 H   0  0  0  0  0  0  0  0  0  0  0  0
    6.5380    6.9310   12.7160 H   0  0  0  0  0  0  0  0  0  0  0  0
    5.9030    7.8020   14.1350 H   0  0  0  0  0  0  0  0  0  0  0  0
    5.6080    5.8410   15.2060 H   0  0  0  0  0  0  0  0  0  0  0  0
    6.6060    4.9650   13.9290 H   0  0  0  0  0  0  0  0  0  0  0  0
    6.6360    7.2020   16.6750 H   0  0  0  0  0  0  0  0  0  0  0  0
    8.3740    6.8030   17.0570 H   0  0  0  0  0  0  0  0  0  0  0  0
    7.5300    9.0560   15.6180 H   0  0  0  0  0  0  0  0  0  0  0  0
    9.1650    8.3490   15.5650 H   0  0  0  0  0  0  0  0  0  0  0  0
   14.9700    5.6140   11.3780 H   0  0  0  0  0  0  0  0  0  0  0  0
   14.1830    7.1950   15.9990 H   0  0  0  0  0  0  0  0  0  0  0  0
   12.3750    7.3270   14.3780 H   0  0  0  0  0  0  0  0  0  0  0  0
   17.0570    5.8860   10.9470 H   0  0  0  0  0  0  0  0  0  0  0  0
   18.5380    5.1530   11.5850 H   0  0  0  0  0  0  0  0  0  0  0  0
   16.1380    3.9030   10.4700 H   0  0  0  0  0  0  0  0  0  0  0  0
   17.8020    3.2670   10.6680 H   0  0  0  0  0  0  0  0  0  0  0  0
   16.6000    3.1410   12.0130 H   0  0  0  0  0  0  0  0  0  0  0  0
  1  2  1  0  0  0  0
  2  7  2  0  0  0  0
  2  3  1  0  0  0  0
  3  4  2  0  0  0  0
  4 36  1  0  0  0  0
  4  5  1  0  0  0  0
  5  8  1  0  0  0  0
  6 37  1  0  0  0  0
  6  5  2  0  0  0  0
  7  6  1  0  0  0  0
  8  9  2  0  0  0  0
 10 39  1  6  0  0  0
 10  8  1  0  0  0  0
 10 11  1  0  0  0  0
 11 40  1  6  0  0  0
 11 12  1  0  0  0  0
 11 25  1  0  0  0  0
 12 17  1  0  0  0  0
 13 12  1  0  0  0  0
 14 13  2  0  0  0  0
 15 10  1  0  0  0  0
 15 13  1  0  0  0  0
 16 15  2  0  0  0  0
 17 18  1  0  0  0  0
 17 41  1  0  0  0  0
 18 19  1  0  0  0  0
 18 43  1  0  0  0  0
 19 24  1  0  0  0  0
 20 19  1  0  0  0  0
 20 47  1  0  0  0  0
 20 21  1  0  0  0  0
 21 48  1  0  0  0  0
 21 22  1  0  0  0  0
 22 23  1  0  0  0  0
 23 50  1  0  0  0  0
 23 51  1  0  0  0  0
 24 53  1  0  0  0  0
 24 52  1  0  0  0  0
 24 23  1  0  0  0  0
 25 30  1  0  0  0  0
 26 25  2  0  0  0  0
 26 27  1  0  0  0  0
 27 28  2  0  0  0  0
 28 29  1  0  0  0  0
 28 31  1  0  0  0  0
 29 55  1  0  0  0  0
 30 56  1  0  0  0  0
 30 29  2  0  0  0  0
 32 27  1  0  0  0  0
 33 32  1  0  0  0  0
 34 33  1  0  0  0  0
 34 61  1  0  0  0  0
 35  3  1  0  0  0  0
 38  7  1  0  0  0  0
 42 17  1  0  0  0  0
 44 18  1  0  0  0  0
 45 19  1  0  0  0  0
 46 20  1  0  0  0  0
 49 21  1  0  0  0  0
 54 26  1  0  0  0  0
 57 33  1  0  0  0  0
 58 33  1  0  0  0  0
 59 34  1  0  0  0  0
 60 34  1  0  0  0  0
M  END
>  <Pose>
1

>  <Score>
-6.64

$$$$
