
 OpenBabel03172210413D

 49 52  0  0  1  0  0  0  0  0999 V2000
    3.5950    8.2750   16.3240 Cl  0  0  0  0  0  0  0  0  0  0  0  0
    5.0300    7.6190   15.5720 C   0  0  0  0  0  0  0  0  0  0  0  0
    5.0060    7.2490   14.2340 C   0  0  0  0  0  0  0  0  0  0  0  0
    6.1350    6.7300   13.6230 C   0  0  0  0  0  0  0  0  0  0  0  0
    6.4230    6.2920   12.3870 N   0  0  0  0  0  0  0  0  0  0  0  0
    7.7140    5.8700   12.3020 C   0  0  0  0  0  0  0  0  0  0  0  0
    8.2190    6.0670   13.5490 N   0  0  0  0  0  0  0  0  0  0  0  0
    7.2850    6.5830   14.3590 C   0  0  0  0  0  0  0  0  0  0  0  0
    7.3030    6.9520   15.6870 C   0  0  0  0  0  0  0  0  0  0  0  0
    6.1810    7.4740   16.3150 C   0  0  0  0  0  0  0  0  0  0  0  0
    8.3640    5.3390   11.0890 C   0  0  0  0  0  0  0  0  0  0  0  0
    9.7940    5.7770   10.9970 C   0  0  0  0  0  0  0  0  0  0  0  0
   10.6990    4.6690   11.3670 C   0  0  0  0  0  0  0  0  0  0  0  0
   10.8810    4.4310   12.5860 O   0  0  0  0  0  0  0  0  0  0  0  0
   11.3690    3.8670   10.4190 N   0  0  0  0  0  0  0  0  0  0  0  0
   12.4290    4.1920    9.4870 C   0  0  0  0  0  0  0  0  0  0  0  0
   13.2940    3.0130    9.5300 C   0  0  2  0  0  0  0  0  0  0  0  0
   12.5320    1.9200   10.2820 C   0  0  1  0  0  0  0  0  0  0  0  0
   11.0950    2.4740   10.1840 C   0  0  0  0  0  0  0  0  0  0  0  0
   12.6240    0.6890    9.6830 O   0  0  0  0  0  0  0  0  0  0  0  0
   14.6360    3.0950    9.9590 N   0  0  0  0  0  0  0  0  0  0  0  0
   14.9070    3.8930   11.0260 C   0  0  0  0  0  0  0  0  0  0  0  0
   16.1830    4.0370   11.5220 C   0  0  0  0  0  0  0  0  0  0  0  0
   17.2320    3.3650   10.9400 C   0  0  0  0  0  0  0  0  0  0  0  0
   18.4170    3.4790   11.3750 O   0  0  0  0  0  0  0  0  0  0  0  0
   16.9650    2.5770    9.8870 N   0  0  0  0  0  0  0  0  0  0  0  0
   15.7070    2.4770    9.4510 C   0  0  0  0  0  0  0  0  0  0  0  0
   15.5170    1.7290    8.4710 O   0  0  0  0  0  0  0  0  0  0  0  0
   16.4650    4.9210   12.7000 C   0  0  0  0  0  0  0  0  0  0  0  0
    4.1070    7.3570   13.6360 H   0  0  0  0  0  0  0  0  0  0  0  0
    5.7030    6.2970   11.6230 H   0  0  0  0  0  0  0  0  0  0  0  0
    8.1870    6.8510   16.2960 H   0  0  0  0  0  0  0  0  0  0  0  0
    6.2290    7.7520   17.3530 H   0  0  0  0  0  0  0  0  0  0  0  0
    7.8200    5.7400   10.2020 H   0  0  0  0  0  0  0  0  0  0  0  0
    8.3080    4.2100   11.0860 H   0  0  0  0  0  0  0  0  0  0  0  0
   10.0270    5.9960    9.9120 H   0  0  0  0  0  0  0  0  0  0  0  0
    9.9920    6.7200   11.5280 H   0  0  0  0  0  0  0  0  0  0  0  0
   12.8500    5.1900    9.6400 H   0  0  0  0  0  0  0  0  0  0  0  0
   11.8960    4.2740    8.4890 H   0  0  0  0  0  0  0  0  0  0  0  0
   13.3540    2.5860    8.4760 H   0  0  0  0  0  0  0  0  0  0  0  0
   12.7650    1.9010   11.3600 H   0  0  0  0  0  0  0  0  0  0  0  0
   10.4420    2.0150   10.9560 H   0  0  0  0  0  0  0  0  0  0  0  0
   10.7470    2.2660    9.1510 H   0  0  0  0  0  0  0  0  0  0  0  0
   13.2200    0.1210   10.2340 H   0  0  0  0  0  0  0  0  0  0  0  0
   14.1440    4.4530   11.5450 H   0  0  0  0  0  0  0  0  0  0  0  0
   17.7610    2.0460    9.4150 H   0  0  0  0  0  0  0  0  0  0  0  0
   15.5410    5.4920   12.9780 H   0  0  0  0  0  0  0  0  0  0  0  0
   16.8710    4.3610   13.5370 H   0  0  0  0  0  0  0  0  0  0  0  0
   17.2230    5.6910   12.3910 H   0  0  0  0  0  0  0  0  0  0  0  0
  2 10  1  0  0  0  0
  2  1  1  0  0  0  0
  3  2  2  0  0  0  0
  4  3  1  0  0  0  0
  4  8  2  0  0  0  0
  5  4  1  0  0  0  0
  6  5  1  0  0  0  0
  6  7  2  0  0  0  0
  7  8  1  0  0  0  0
  8  9  1  0  0  0  0
  9 32  1  0  0  0  0
  9 10  2  0  0  0  0
 10 33  1  0  0  0  0
 11  6  1  0  0  0  0
 12 11  1  0  0  0  0
 12 13  1  0  0  0  0
 12 37  1  0  0  0  0
 13 14  2  0  0  0  0
 15 13  1  0  0  0  0
 16 17  1  0  0  0  0
 16 38  1  0  0  0  0
 16 15  1  0  0  0  0
 17 40  1  6  0  0  0
 17 21  1  0  0  0  0
 17 18  1  0  0  0  0
 18 41  1  1  0  0  0
 19 18  1  0  0  0  0
 19 15  1  0  0  0  0
 19 42  1  0  0  0  0
 20 44  1  0  0  0  0
 20 18  1  0  0  0  0
 21 22  1  0  0  0  0
 22 23  2  0  0  0  0
 22 45  1  0  0  0  0
 23 29  1  0  0  0  0
 24 25  2  0  0  0  0
 24 23  1  0  0  0  0
 26 24  1  0  0  0  0
 27 26  1  0  0  0  0
 27 21  1  0  0  0  0
 28 27  2  0  0  0  0
 29 47  1  0  0  0  0
 29 48  1  0  0  0  0
 30  3  1  0  0  0  0
 31  5  1  0  0  0  0
 34 11  1  0  0  0  0
 35 11  1  0  0  0  0
 36 12  1  0  0  0  0
 39 16  1  0  0  0  0
 43 19  1  0  0  0  0
 46 26  1  0  0  0  0
 49 29  1  0  0  0  0
M  END
>  <Pose>
1

>  <Score>
-6.71

$$$$
