
 OpenBabel03172210413D

 55 58  0  0  1  0  0  0  0  0999 V2000
   20.6660    3.9000   11.4800 Cl  0  0  0  0  0  0  0  0  0  0  0  0
   18.9250    4.0310   11.5910 C   0  0  0  0  0  0  0  0  0  0  0  0
   18.0730    3.2360   10.8450 C   0  0  0  0  0  0  0  0  0  0  0  0
   16.7060    3.3470   10.9390 C   0  0  0  0  0  0  0  0  0  0  0  0
   15.6880    2.7140   10.3420 N   0  0  0  0  0  0  0  0  0  0  0  0
   14.4960    3.1990   10.7860 C   0  0  0  0  0  0  0  0  0  0  0  0
   14.8180    4.1390   11.6630 N   0  0  0  0  0  0  0  0  0  0  0  0
   16.1420    4.2660   11.7900 C   0  0  0  0  0  0  0  0  0  0  0  0
   16.9690    5.0690   12.5430 C   0  0  0  0  0  0  0  0  0  0  0  0
   18.3500    4.9540   12.4460 C   0  0  0  0  0  0  0  0  0  0  0  0
   13.1680    2.7140   10.3420 C   0  0  0  0  0  0  0  0  0  0  0  0
   12.3330    3.8910    9.9280 C   0  0  0  0  0  0  0  0  0  0  0  0
   11.1650    4.0030   10.8190 C   0  0  0  0  0  0  0  0  0  0  0  0
   10.3380    3.0600   10.9140 O   0  0  0  0  0  0  0  0  0  0  0  0
   10.9940    5.2060   11.5670 N   0  0  0  0  0  0  0  0  0  0  0  0
   10.8600    5.2490   13.0060 C   0  0  0  0  0  0  0  0  0  0  0  0
    9.8570    6.3410   13.4170 C   0  0  1  0  0  0  0  0  0  0  0  0
    8.9280    6.5140   12.2650 C   0  0  2  0  0  0  0  0  0  0  0  0
    9.6570    7.2080   11.1370 C   0  0  0  0  0  0  0  0  0  0  0  0
   10.9490    6.4670   10.8590 C   0  0  0  0  0  0  0  0  0  0  0  0
    7.6640    7.0900   12.5610 N   0  0  0  0  0  0  0  0  0  0  0  0
    7.4860    8.0740   13.4550 C   0  0  0  0  0  0  0  0  0  0  0  0
    6.2340    8.6140   13.7190 C   0  0  0  0  0  0  0  0  0  0  0  0
    5.1400    8.1260   13.0430 C   0  0  0  0  0  0  0  0  0  0  0  0
    3.9920    8.6170   13.2810 O   0  0  0  0  0  0  0  0  0  0  0  0
    5.3210    7.1420   12.1510 N   0  0  0  0  0  0  0  0  0  0  0  0
    6.5530    6.6540   11.9300 C   0  0  0  0  0  0  0  0  0  0  0  0
    6.7220    5.7140   11.0760 O   0  0  0  0  0  0  0  0  0  0  0  0
    6.0970    9.7170   14.7320 C   0  0  0  0  0  0  0  0  0  0  0  0
    9.2110    5.8340   14.5540 O   0  0  0  0  0  0  0  0  0  0  0  0
   10.6570    7.5500   13.7840 C   0  0  0  0  0  0  0  0  0  0  0  0
   18.5480    2.5230   10.1840 H   0  0  0  0  0  0  0  0  0  0  0  0
   15.7620    1.9420    9.6240 H   0  0  0  0  0  0  0  0  0  0  0  0
   16.5100    5.7810   13.2030 H   0  0  0  0  0  0  0  0  0  0  0  0
   18.9640    5.6020   13.0530 H   0  0  0  0  0  0  0  0  0  0  0  0
   12.6360    2.2370   11.2050 H   0  0  0  0  0  0  0  0  0  0  0  0
   13.2480    2.0150    9.4830 H   0  0  0  0  0  0  0  0  0  0  0  0
   12.9500    4.8250    9.9660 H   0  0  0  0  0  0  0  0  0  0  0  0
   12.0390    3.8100    8.8530 H   0  0  0  0  0  0  0  0  0  0  0  0
   10.5900    4.2810   13.4220 H   0  0  0  0  0  0  0  0  0  0  0  0
   11.8880    5.4990   13.4050 H   0  0  0  0  0  0  0  0  0  0  0  0
    8.7160    5.4720   11.8760 H   0  0  0  0  0  0  0  0  0  0  0  0
    9.0680    7.1490   10.1810 H   0  0  0  0  0  0  0  0  0  0  0  0
    9.8240    8.2820   11.3110 H   0  0  0  0  0  0  0  0  0  0  0  0
   11.1210    6.3130    9.7750 H   0  0  0  0  0  0  0  0  0  0  0  0
   11.7920    7.0920   11.2780 H   0  0  0  0  0  0  0  0  0  0  0  0
    8.3530    8.4390   13.9700 H   0  0  0  0  0  0  0  0  0  0  0  0
    4.5010    6.7650   11.6320 H   0  0  0  0  0  0  0  0  0  0  0  0
    5.0730    9.6010   15.1880 H   0  0  0  0  0  0  0  0  0  0  0  0
    6.8170    9.4920   15.5340 H   0  0  0  0  0  0  0  0  0  0  0  0
    6.2030   10.7020   14.2740 H   0  0  0  0  0  0  0  0  0  0  0  0
    8.7390    4.9760   14.3050 H   0  0  0  0  0  0  0  0  0  0  0  0
   11.7690    7.3960   13.6560 H   0  0  0  0  0  0  0  0  0  0  0  0
   10.5610    7.7880   14.8840 H   0  0  0  0  0  0  0  0  0  0  0  0
   10.4030    8.4660   13.2550 H   0  0  0  0  0  0  0  0  0  0  0  0
  1  2  1  0  0  0  0
  2 10  1  0  0  0  0
  3  4  1  0  0  0  0
  3  2  2  0  0  0  0
  4  8  2  0  0  0  0
  5  6  1  0  0  0  0
  5  4  1  0  0  0  0
  6  7  2  0  0  0  0
  7  8  1  0  0  0  0
  8  9  1  0  0  0  0
  9 34  1  0  0  0  0
 10  9  2  0  0  0  0
 10 35  1  0  0  0  0
 11  6  1  0  0  0  0
 11 36  1  0  0  0  0
 12 38  1  0  0  0  0
 12 11  1  0  0  0  0
 12 13  1  0  0  0  0
 13 14  2  0  0  0  0
 13 15  1  0  0  0  0
 15 16  1  0  0  0  0
 16 41  1  0  0  0  0
 16 17  1  0  0  0  0
 16 40  1  0  0  0  0
 17 31  1  0  0  0  0
 17 30  1  1  0  0  0
 18 42  1  6  0  0  0
 18 21  1  0  0  0  0
 18 17  1  0  0  0  0
 19 44  1  0  0  0  0
 19 18  1  0  0  0  0
 20 19  1  0  0  0  0
 20 46  1  0  0  0  0
 20 15  1  0  0  0  0
 21 22  1  0  0  0  0
 22 23  2  0  0  0  0
 22 47  1  0  0  0  0
 23 29  1  0  0  0  0
 24 25  2  0  0  0  0
 24 23  1  0  0  0  0
 26 24  1  0  0  0  0
 27 26  1  0  0  0  0
 27 21  1  0  0  0  0
 28 27  2  0  0  0  0
 29 49  1  0  0  0  0
 29 50  1  0  0  0  0
 31 54  1  0  0  0  0
 32  3  1  0  0  0  0
 33  5  1  0  0  0  0
 37 11  1  0  0  0  0
 39 12  1  0  0  0  0
 43 19  1  0  0  0  0
 45 20  1  0  0  0  0
 48 26  1  0  0  0  0
 51 29  1  0  0  0  0
 52 30  1  0  0  0  0
 53 31  1  0  0  0  0
 55 31  1  0  0  0  0
M  END
>  <Pose>
1

>  <Score>
-6.55

$$$$
