
 OpenBabel03172210413D

 30 33  0  0  1  0  0  0  0  0999 V2000
   13.8670   -0.9380    7.2870 F   0  0  0  0  0  0  0  0  0  0  0  0
   13.8160    0.2200    8.0270 C   0  0  0  0  0  0  0  0  0  0  0  0
   12.5820    0.6260    8.5520 C   0  0  0  0  0  0  0  0  0  0  0  0
   12.5100    1.7690    9.2880 C   0  0  0  0  0  0  0  0  0  0  0  0
   13.6610    2.5350    9.5170 C   0  0  0  0  0  0  0  0  0  0  0  0
   14.8530    2.1160    8.9920 C   0  0  0  0  0  0  0  0  0  0  0  0
   14.9480    0.9660    8.2470 C   0  0  0  0  0  0  0  0  0  0  0  0
   16.4920    0.4290    7.5710 Cl  0  0  0  0  0  0  0  0  0  0  0  0
   11.1020    1.9660    9.7220 C   0  0  2  0  0  0  0  0  0  0  0  0
   10.6250    3.2180    9.2260 N   0  0  0  0  0  0  0  0  0  0  0  0
   10.8230    4.4120    9.9520 C   0  0  0  0  0  0  0  0  0  0  0  0
   10.6880    5.6360    9.3780 N   0  0  0  0  0  0  0  0  0  0  0  0
   10.8640    6.7950   10.0190 C   0  0  0  0  0  0  0  0  0  0  0  0
   11.2070    6.7780   11.3660 C   0  0  0  0  0  0  0  0  0  0  0  0
   11.3630    5.5880   12.0200 C   0  0  0  0  0  0  0  0  0  0  0  0
   11.1660    4.4320   11.2960 C   0  0  0  0  0  0  0  0  0  0  0  0
   11.3090    3.1050   11.9040 C   0  0  0  0  0  0  0  0  0  0  0  0
   11.6250    3.0750   13.1420 O   0  0  0  0  0  0  0  0  0  0  0  0
   11.1090    1.9200   11.1740 N   0  0  0  0  0  0  0  0  0  0  0  0
   10.3800    0.8200    9.1570 C   0  0  0  0  0  0  0  0  0  0  0  0
    9.1260    0.5620    9.2680 O   0  0  0  0  0  0  0  0  0  0  0  0
   11.2890    0.0150    8.4520 N   0  0  0  0  0  0  0  0  0  0  0  0
   13.5760    3.4500   10.1120 H   0  0  0  0  0  0  0  0  0  0  0  0
   15.7490    2.6980    9.1620 H   0  0  0  0  0  0  0  0  0  0  0  0
   10.1160    3.2850    8.3110 H   0  0  0  0  0  0  0  0  0  0  0  0
   10.7530    7.7590    9.5440 H   0  0  0  0  0  0  0  0  0  0  0  0
   11.3550    7.6950   11.9080 H   0  0  0  0  0  0  0  0  0  0  0  0
   11.6290    5.4930   13.0670 H   0  0  0  0  0  0  0  0  0  0  0  0
   10.9730    1.0360   11.7170 H   0  0  0  0  0  0  0  0  0  0  0  0
   11.1160   -0.8820    7.9250 H   0  0  0  0  0  0  0  0  0  0  0  0
  1  2  1  0  0  0  0
  2  7  2  0  0  0  0
  2  3  1  0  0  0  0
  3  4  2  0  0  0  0
  4  5  1  0  0  0  0
  4  9  1  0  0  0  0
  5 23  1  0  0  0  0
  6 24  1  0  0  0  0
  6  5  2  0  0  0  0
  7  6  1  0  0  0  0
  8  7  1  0  0  0  0
  9 20  1  6  0  0  0
  9 19  1  0  0  0  0
 10  9  1  0  0  0  0
 10 11  1  0  0  0  0
 11 16  1  0  0  0  0
 12 11  2  0  0  0  0
 12 13  1  0  0  0  0
 13 14  2  0  0  0  0
 14 27  1  0  0  0  0
 14 15  1  0  0  0  0
 15 28  1  0  0  0  0
 16 17  1  0  0  0  0
 16 15  2  0  0  0  0
 17 18  2  0  0  0  0
 19 29  1  0  0  0  0
 19 17  1  0  0  0  0
 20 21  2  0  0  0  0
 22  3  1  0  0  0  0
 22 20  1  0  0  0  0
 25 10  1  0  0  0  0
 26 13  1  0  0  0  0
 30 22  1  0  0  0  0
M  END
>  <Pose>
1

>  <Score>
-5.70

$$$$
