
 OpenBabel03172210413D

 48 51  0  0  0  0  0  0  0  0999 V2000
    8.7190    6.2170   11.5410 S   0  0  0  0  0  0  0  0  0  0  0  0
    7.9410    5.3210   10.5880 O   0  0  0  0  0  0  0  0  0  0  0  0
    9.2890    5.2770   12.5860 O   0  0  0  0  0  0  0  0  0  0  0  0
    9.9930    6.9150   10.7000 N   0  0  0  0  0  0  0  0  0  0  0  0
   10.9000    7.7080   11.4540 C   0  0  0  0  0  0  0  0  0  0  0  0
   12.3390    7.2880   11.2900 C   0  0  0  0  0  0  0  0  0  0  0  0
   12.4810    5.8710   11.0820 N   0  0  0  0  0  0  0  0  0  0  0  0
   11.6750    5.2210   10.0770 C   0  0  0  0  0  0  0  0  0  0  0  0
   10.5840    6.1570    9.6590 C   0  0  0  0  0  0  0  0  0  0  0  0
   13.3890    5.0830   11.8320 C   0  0  0  0  0  0  0  0  0  0  0  0
   14.5130    5.5510   12.0980 O   0  0  0  0  0  0  0  0  0  0  0  0
   13.0420    3.7250   12.3060 C   0  0  0  0  0  0  0  0  0  0  0  0
   13.0320    2.7840   11.2250 N   0  0  0  0  0  0  0  0  0  0  0  0
   14.0880    2.3780   10.3640 C   0  0  0  0  0  0  0  0  0  0  0  0
   15.2570    2.8140   10.4320 O   0  0  0  0  0  0  0  0  0  0  0  0
   13.5650    1.3960    9.4280 C   0  0  0  0  0  0  0  0  0  0  0  0
   12.2310    1.1930    9.6900 C   0  0  0  0  0  0  0  0  0  0  0  0
   11.5140    0.2900    8.9160 C   0  0  0  0  0  0  0  0  0  0  0  0
   12.1020   -0.4050    7.8960 C   0  0  0  0  0  0  0  0  0  0  0  0
   13.4540   -0.2090    7.6190 C   0  0  0  0  0  0  0  0  0  0  0  0
   14.1520    0.6970    8.4040 C   0  0  0  0  0  0  0  0  0  0  0  0
   11.8730    2.0510   10.8120 C   0  0  0  0  0  0  0  0  0  0  0  0
   10.7090    2.0890   11.2900 O   0  0  0  0  0  0  0  0  0  0  0  0
    7.6620    7.3130   12.3480 C   0  0  0  0  0  0  0  0  0  0  0  0
    7.8100    8.6770   12.1580 C   0  0  0  0  0  0  0  0  0  0  0  0
    6.9910    9.5990   12.7790 C   0  0  0  0  0  0  0  0  0  0  0  0
    5.9960    9.1220   13.6130 C   0  0  0  0  0  0  0  0  0  0  0  0
    5.8610    7.7610   13.7930 C   0  0  0  0  0  0  0  0  0  0  0  0
    6.6720    6.8280   13.1780 C   0  0  0  0  0  0  0  0  0  0  0  0
    4.8170   10.3530   14.5100 B   0  0  0  0  0  0  0  0  0  0  0  0
   10.8310    8.7620   11.0540 H   0  0  0  0  0  0  0  0  0  0  0  0
   10.5930    7.7710   12.5180 H   0  0  0  0  0  0  0  0  0  0  0  0
   12.9030    7.6050   12.1880 H   0  0  0  0  0  0  0  0  0  0  0  0
   12.7990    7.8500   10.4360 H   0  0  0  0  0  0  0  0  0  0  0  0
   12.3030    5.0280    9.1570 H   0  0  0  0  0  0  0  0  0  0  0  0
   11.3120    4.2590   10.4730 H   0  0  0  0  0  0  0  0  0  0  0  0
    9.8120    5.6390    9.0620 H   0  0  0  0  0  0  0  0  0  0  0  0
   11.0550    6.8920    8.9400 H   0  0  0  0  0  0  0  0  0  0  0  0
   12.0070    3.7920   12.7450 H   0  0  0  0  0  0  0  0  0  0  0  0
   13.7420    3.3870   13.1030 H   0  0  0  0  0  0  0  0  0  0  0  0
   10.4740    0.1500    9.1400 H   0  0  0  0  0  0  0  0  0  0  0  0
   11.5530   -1.0990    7.3020 H   0  0  0  0  0  0  0  0  0  0  0  0
   13.9640   -0.7240    6.8360 H   0  0  0  0  0  0  0  0  0  0  0  0
   15.2020    0.8450    8.1830 H   0  0  0  0  0  0  0  0  0  0  0  0
    8.5850    9.0950   11.5050 H   0  0  0  0  0  0  0  0  0  0  0  0
    7.0830   10.6690   12.6490 H   0  0  0  0  0  0  0  0  0  0  0  0
    5.0750    7.3640   14.4520 H   0  0  0  0  0  0  0  0  0  0  0  0
    6.5240    5.7580   13.3550 H   0  0  0  0  0  0  0  0  0  0  0  0
  1 24  1  0  0  0  0
  1  3  2  0  0  0  0
  2  1  2  0  0  0  0
  4  5  1  0  0  0  0
  4  1  1  0  0  0  0
  5 32  1  0  0  0  0
  6  5  1  0  0  0  0
  6 33  1  0  0  0  0
  7  6  1  0  0  0  0
  7 10  1  0  0  0  0
  8 36  1  0  0  0  0
  8  7  1  0  0  0  0
  9  8  1  0  0  0  0
  9  4  1  0  0  0  0
 10 11  2  0  0  0  0
 10 12  1  0  0  0  0
 12 39  1  0  0  0  0
 12 40  1  0  0  0  0
 13 12  1  0  0  0  0
 14 15  2  0  0  0  0
 14 13  1  0  0  0  0
 16 17  1  0  0  0  0
 16 14  1  0  0  0  0
 17 22  1  0  0  0  0
 18 41  1  0  0  0  0
 18 17  2  0  0  0  0
 19 18  1  0  0  0  0
 20 19  2  0  0  0  0
 20 21  1  0  0  0  0
 21 16  2  0  0  0  0
 22 13  1  0  0  0  0
 22 23  2  0  0  0  0
 24 29  1  0  0  0  0
 25 24  2  0  0  0  0
 25 26  1  0  0  0  0
 26 27  2  0  0  0  0
 27 28  1  0  0  0  0
 27 30  1  0  0  0  0
 28 47  1  0  0  0  0
 29 48  1  0  0  0  0
 29 28  2  0  0  0  0
 31  5  1  0  0  0  0
 34  6  1  0  0  0  0
 35  8  1  0  0  0  0
 37  9  1  0  0  0  0
 38  9  1  0  0  0  0
 42 19  1  0  0  0  0
 43 20  1  0  0  0  0
 44 21  1  0  0  0  0
 45 25  1  0  0  0  0
 46 26  1  0  0  0  0
M  END
>  <Pose>
1

>  <Score>
-6.55

$$$$
