
 OpenBabel03172210413D

 53 54  0  0  1  0  0  0  0  0999 V2000
    7.3020    8.8450   11.6340 B   0  0  0  0  0  0  0  0  0  0  0  0
    7.0630    7.6320   13.0820 C   0  0  0  0  0  0  0  0  0  0  0  0
    8.0770    6.7450   13.3680 C   0  0  0  0  0  0  0  0  0  0  0  0
    7.8890    5.8740   14.4190 C   0  0  0  0  0  0  0  0  0  0  0  0
    6.7070    5.8930   15.1670 C   0  0  0  0  0  0  0  0  0  0  0  0
    5.7080    6.7950   14.8540 C   0  0  0  0  0  0  0  0  0  0  0  0
    5.8800    7.6630   13.8170 C   0  0  0  0  0  0  0  0  0  0  0  0
    4.4350    6.8340   15.6390 C   0  0  0  0  0  0  0  0  0  0  0  0
    9.2710    4.6360   14.8410 B   0  0  0  0  0  0  0  0  0  0  0  0
    9.2140    6.7450   12.6320 O   0  0  0  0  0  0  0  0  0  0  0  0
    9.7580    5.6910   11.8920 C   0  0  0  0  0  0  0  0  0  0  0  0
    9.9430    6.2080   10.4660 C   0  0  1  0  0  0  0  0  0  0  0  0
    9.8860    7.6000   10.4200 O   0  0  0  0  0  0  0  0  0  0  0  0
   11.2880    5.7400   10.0120 C   0  0  0  0  0  0  0  0  0  0  0  0
   11.8980    4.7610   10.8910 N   0  0  0  0  0  0  0  0  0  0  0  0
   10.8400    4.0750   11.5550 C   0  0  0  0  0  0  0  0  0  0  0  0
   10.9170    2.5820   11.5080 C   0  0  0  0  0  0  0  0  0  0  0  0
   10.5990    1.9890   10.1810 C   0  0  0  0  0  0  0  0  0  0  0  0
   11.7040    1.3480    9.5230 N   0  0  0  0  0  0  0  0  0  0  0  0
   13.0000    1.6140    9.7710 C   0  0  0  0  0  0  0  0  0  0  0  0
   14.0500    1.0060    9.1450 C   0  0  0  0  0  0  0  0  0  0  0  0
   13.7850    0.0470    8.1890 C   0  0  0  0  0  0  0  0  0  0  0  0
   12.4640   -0.2310    7.9300 C   0  0  0  0  0  0  0  0  0  0  0  0
   11.4310    0.4020    8.5790 C   0  0  0  0  0  0  0  0  0  0  0  0
   10.2320    0.1210    8.3160 O   0  0  0  0  0  0  0  0  0  0  0  0
   13.2220    2.6740   10.8260 C   0  0  1  0  0  0  0  0  0  0  0  0
   12.8560    3.9710   10.2200 C   0  0  0  0  0  0  0  0  0  0  0  0
   12.3380    2.2390   11.9700 C   0  0  0  0  0  0  0  0  0  0  0  0
    6.5500    5.2140   15.9910 H   0  0  0  0  0  0  0  0  0  0  0  0
    5.0770    8.3600   13.5950 H   0  0  0  0  0  0  0  0  0  0  0  0
    3.5920    6.9640   14.9350 H   0  0  0  0  0  0  0  0  0  0  0  0
    4.4350    7.7470   16.3000 H   0  0  0  0  0  0  0  0  0  0  0  0
    4.3180    5.9280   16.2740 H   0  0  0  0  0  0  0  0  0  0  0  0
   10.6870    5.2720   12.2980 H   0  0  0  0  0  0  0  0  0  0  0  0
    9.0110    4.8740   11.8310 H   0  0  0  0  0  0  0  0  0  0  0  0
    9.1030    5.8260    9.8850 H   0  0  0  0  0  0  0  0  0  0  0  0
   10.7280    7.8940    9.9690 H   0  0  0  0  0  0  0  0  0  0  0  0
   11.1740    5.2690    9.0140 H   0  0  0  0  0  0  0  0  0  0  0  0
   12.0100    6.5720    9.8840 H   0  0  0  0  0  0  0  0  0  0  0  0
   12.4120    5.3360   11.6260 H   0  0  0  0  0  0  0  0  0  0  0  0
   10.7710    4.3550   12.6490 H   0  0  0  0  0  0  0  0  0  0  0  0
    9.8180    4.3500   11.1580 H   0  0  0  0  0  0  0  0  0  0  0  0
   10.2450    2.1870   12.3240 H   0  0  0  0  0  0  0  0  0  0  0  0
    9.8160    1.1890   10.3330 H   0  0  0  0  0  0  0  0  0  0  0  0
   10.1040    2.7170    9.4830 H   0  0  0  0  0  0  0  0  0  0  0  0
   15.0530    1.2960    9.4200 H   0  0  0  0  0  0  0  0  0  0  0  0
   14.6100   -0.4370    7.6910 H   0  0  0  0  0  0  0  0  0  0  0  0
   12.2190   -0.9810    7.1820 H   0  0  0  0  0  0  0  0  0  0  0  0
   14.2700    2.6080   11.1870 H   0  0  0  0  0  0  0  0  0  0  0  0
   13.8120    4.5740   10.1550 H   0  0  0  0  0  0  0  0  0  0  0  0
   12.5340    3.8890    9.1400 H   0  0  0  0  0  0  0  0  0  0  0  0
   12.5490    2.7440   12.9110 H   0  0  0  0  0  0  0  0  0  0  0  0
   12.3420    1.1210   12.0720 H   0  0  0  0  0  0  0  0  0  0  0  0
  1  2  1  0  0  0  0
  2  3  2  0  0  0  0
  2  7  1  0  0  0  0
  3  4  1  0  0  0  0
  4  9  1  0  0  0  0
  4  5  2  0  0  0  0
  5 29  1  0  0  0  0
  6  5  1  0  0  0  0
  6  8  1  0  0  0  0
  7  6  2  0  0  0  0
  8 33  1  0  0  0  0
  8 32  1  0  0  0  0
 10  3  1  0  0  0  0
 11 34  1  0  0  0  0
 11 10  1  0  0  0  0
 12 36  1  6  0  0  0
 12 11  1  0  0  0  0
 13 12  1  0  0  0  0
 14 12  1  0  0  0  0
 14 15  1  0  0  0  0
 15 40  1  0  0  0  0
 16 41  1  0  0  0  0
 17 28  1  0  0  0  0
 17 43  1  0  0  0  0
 18 44  1  0  0  0  0
 18 17  1  0  0  0  0
 19 20  1  0  0  0  0
 19 18  1  0  0  0  0
 20 26  1  0  0  0  0
 21 46  1  0  0  0  0
 21 20  2  0  0  0  0
 22 21  1  0  0  0  0
 23 22  2  0  0  0  0
 23 24  1  0  0  0  0
 24 19  1  0  0  0  0
 25 24  2  0  0  0  0
 26 49  1  1  0  0  0
 26 28  1  0  0  0  0
 27 26  1  0  0  0  0
 27 15  1  0  0  0  0
 28 53  1  0  0  0  0
 28 52  1  0  0  0  0
 30  7  1  0  0  0  0
 31  8  1  0  0  0  0
 35 11  1  0  0  0  0
 37 13  1  0  0  0  0
 38 14  1  0  0  0  0
 39 14  1  0  0  0  0
 42 16  1  0  0  0  0
 45 18  1  0  0  0  0
 47 22  1  0  0  0  0
 48 23  1  0  0  0  0
 50 27  1  0  0  0  0
 51 27  1  0  0  0  0
M  END
>  <Pose>
1

>  <Score>
-5.42

$$$$
