
 OpenBabel03172210413D

 39 42  0  0  0  0  0  0  0  0999 V2000
   14.4260    1.7420    8.9920 B   0  0  0  0  0  0  0  0  0  0  0  0
   12.7160    0.9370    8.8870 C   0  0  0  0  0  0  0  0  0  0  0  0
   11.6290    1.6310    9.4190 C   0  0  0  0  0  0  0  0  0  0  0  0
   10.4130    0.9830    9.3080 C   0  0  0  0  0  0  0  0  0  0  0  0
   10.2780   -0.2720    8.7080 C   0  0  0  0  0  0  0  0  0  0  0  0
   11.3850   -0.9050    8.2020 C   0  0  0  0  0  0  0  0  0  0  0  0
   12.6180   -0.2970    8.2920 C   0  0  0  0  0  0  0  0  0  0  0  0
   11.8090    2.8960   10.0170 N   0  0  0  0  0  0  0  0  0  0  0  0
   10.9500    3.5900   10.8700 C   0  0  0  0  0  0  0  0  0  0  0  0
    9.7360    3.7100   10.6210 O   0  0  0  0  0  0  0  0  0  0  0  0
   11.4410    4.2240   12.1220 C   0  0  0  0  0  0  0  0  0  0  0  0
   10.5620    5.3350   12.5210 N   0  0  0  0  0  0  0  0  0  0  0  0
   10.4090    6.4950   11.9030 N   0  0  0  0  0  0  0  0  0  0  0  0
    9.5310    7.2440   12.5600 N   0  0  0  0  0  0  0  0  0  0  0  0
    9.1040    6.5470   13.6340 C   0  0  0  0  0  0  0  0  0  0  0  0
    9.7630    5.3780   13.5730 N   0  0  0  0  0  0  0  0  0  0  0  0
    8.1390    6.9800   14.6330 C   0  0  0  0  0  0  0  0  0  0  0  0
    6.8440    7.2030   14.2280 C   0  0  0  0  0  0  0  0  0  0  0  0
    5.9260    7.6160   15.1800 C   0  0  0  0  0  0  0  0  0  0  0  0
    6.2710    7.8050   16.4940 C   0  0  0  0  0  0  0  0  0  0  0  0
    7.5700    7.5810   16.9030 C   0  0  0  0  0  0  0  0  0  0  0  0
    8.4860    7.1690   15.9510 C   0  0  0  0  0  0  0  0  0  0  0  0
    6.4100    7.0290   12.8800 N   0  0  0  0  0  0  0  0  0  0  0  0
    6.3410    5.8540   12.2670 N   0  0  0  0  0  0  0  0  0  0  0  0
    5.9060    6.0400   11.0410 N   0  0  0  0  0  0  0  0  0  0  0  0
    5.6970    7.3440   10.8720 N   0  0  0  0  0  0  0  0  0  0  0  0
    6.0130    7.9640   12.0280 C   0  0  0  0  0  0  0  0  0  0  0  0
    9.5150    1.4160    9.6780 H   0  0  0  0  0  0  0  0  0  0  0  0
    9.3210   -0.7530    8.6340 H   0  0  0  0  0  0  0  0  0  0  0  0
   11.3330   -1.8710    7.7300 H   0  0  0  0  0  0  0  0  0  0  0  0
   13.4670   -0.8220    7.8840 H   0  0  0  0  0  0  0  0  0  0  0  0
   12.7230    3.3880    9.7860 H   0  0  0  0  0  0  0  0  0  0  0  0
   12.4790    4.5720   12.0510 H   0  0  0  0  0  0  0  0  0  0  0  0
   11.3980    3.5110   12.9860 H   0  0  0  0  0  0  0  0  0  0  0  0
    4.9020    7.7950   14.8720 H   0  0  0  0  0  0  0  0  0  0  0  0
    5.5570    8.1280   17.2530 H   0  0  0  0  0  0  0  0  0  0  0  0
    7.8610    7.7250   17.9420 H   0  0  0  0  0  0  0  0  0  0  0  0
    9.4970    7.0000   16.2950 H   0  0  0  0  0  0  0  0  0  0  0  0
    5.9630    9.0210   12.2450 H   0  0  0  0  0  0  0  0  0  0  0  0
  2  1  1  0  0  0  0
  2  3  1  0  0  0  0
  3  8  1  0  0  0  0
  4  3  2  0  0  0  0
  4 28  1  0  0  0  0
  5  4  1  0  0  0  0
  6  7  1  0  0  0  0
  6  5  2  0  0  0  0
  7  2  2  0  0  0  0
  8  9  1  0  0  0  0
  9 11  1  0  0  0  0
 10  9  2  0  0  0  0
 11 12  1  0  0  0  0
 11 34  1  0  0  0  0
 12 16  1  0  0  0  0
 13 12  1  0  0  0  0
 13 14  1  0  0  0  0
 14 15  2  0  0  0  0
 15 17  1  0  0  0  0
 16 15  1  0  0  0  0
 17 22  1  0  0  0  0
 18 17  2  0  0  0  0
 18 19  1  0  0  0  0
 19 20  2  0  0  0  0
 20 21  1  0  0  0  0
 20 36  1  0  0  0  0
 21 37  1  0  0  0  0
 22 38  1  0  0  0  0
 22 21  2  0  0  0  0
 23 18  1  0  0  0  0
 24 23  1  0  0  0  0
 25 24  2  0  0  0  0
 26 25  1  0  0  0  0
 26 27  2  0  0  0  0
 27 39  1  0  0  0  0
 27 23  1  0  0  0  0
 29  5  1  0  0  0  0
 30  6  1  0  0  0  0
 31  7  1  0  0  0  0
 32  8  1  0  0  0  0
 33 11  1  0  0  0  0
 35 19  1  0  0  0  0
M  END
>  <Pose>
1

>  <Score>
-6.40

$$$$
