
 OpenBabel03172210413D

 53 56  0  0  0  0  0  0  0  0999 V2000
   14.1070    1.3670    9.9460 B   0  0  0  0  0  0  0  0  0  0  0  0
   12.8390    2.7470   10.3530 C   0  0  0  0  0  0  0  0  0  0  0  0
   13.2880    4.0310   10.6690 C   0  0  0  0  0  0  0  0  0  0  0  0
   12.3490    5.0160   10.9590 C   0  0  0  0  0  0  0  0  0  0  0  0
   10.9980    4.7610   10.9440 C   0  0  0  0  0  0  0  0  0  0  0  0
   10.2990    5.8890   11.2610 N   0  0  0  0  0  0  0  0  0  0  0  0
   11.2220    6.8350   11.4720 C   0  0  0  0  0  0  0  0  0  0  0  0
   12.5000    6.3430   11.2970 C   0  0  0  0  0  0  0  0  0  0  0  0
    8.8570    5.9840   11.3430 C   0  0  0  0  0  0  0  0  0  0  0  0
    8.3870    6.1110   12.7650 C   0  0  0  0  0  0  0  0  0  0  0  0
    9.2200    5.9800   13.6840 O   0  0  0  0  0  0  0  0  0  0  0  0
    7.0410    6.3710   13.0600 N   0  0  0  0  0  0  0  0  0  0  0  0
    6.3630    5.8350   14.2200 C   0  0  0  0  0  0  0  0  0  0  0  0
    5.7200    7.0100   14.9370 C   0  0  0  0  0  0  0  0  0  0  0  0
    6.1030    8.2370   14.3740 N   0  0  0  0  0  0  0  0  0  0  0  0
    5.8900    8.4830   13.0070 C   0  0  0  0  0  0  0  0  0  0  0  0
    6.2030    7.2240   12.2050 C   0  0  0  0  0  0  0  0  0  0  0  0
    6.8540    9.1470   15.1350 C   0  0  0  0  0  0  0  0  0  0  0  0
    6.0740    9.8690   16.1750 C   0  0  0  0  0  0  0  0  0  0  0  0
    6.1880   11.1200   16.1940 O   0  0  0  0  0  0  0  0  0  0  0  0
    5.2420    9.2340   17.1090 N   0  0  0  0  0  0  0  0  0  0  0  0
    3.8410    9.0130   16.8110 C   0  0  0  0  0  0  0  0  0  0  0  0
    3.5700    7.5370   17.0120 C   0  0  0  0  0  0  0  0  0  0  0  0
    3.7500    7.3070   18.3840 O   0  0  0  0  0  0  0  0  0  0  0  0
    5.0640    7.4590   18.7570 C   0  0  0  0  0  0  0  0  0  0  0  0
    5.6900    8.7630   18.4040 C   0  0  0  0  0  0  0  0  0  0  0  0
   10.5480    3.4990   10.6320 C   0  0  0  0  0  0  0  0  0  0  0  0
   11.4810    2.5090   10.3410 C   0  0  0  0  0  0  0  0  0  0  0  0
   14.3430    4.2070   10.6760 H   0  0  0  0  0  0  0  0  0  0  0  0
   10.9920    7.8600   11.7460 H   0  0  0  0  0  0  0  0  0  0  0  0
   13.4500    6.8400   11.3910 H   0  0  0  0  0  0  0  0  0  0  0  0
    8.4660    6.8680   10.7930 H   0  0  0  0  0  0  0  0  0  0  0  0
    8.3640    5.0660   10.9560 H   0  0  0  0  0  0  0  0  0  0  0  0
    7.0150    5.2300   14.8540 H   0  0  0  0  0  0  0  0  0  0  0  0
    5.5250    5.1510   13.9050 H   0  0  0  0  0  0  0  0  0  0  0  0
    6.1310    6.9750   15.9880 H   0  0  0  0  0  0  0  0  0  0  0  0
    4.6250    6.8530   15.0650 H   0  0  0  0  0  0  0  0  0  0  0  0
    4.9180    8.9000   12.7300 H   0  0  0  0  0  0  0  0  0  0  0  0
    6.6540    9.2390   12.6560 H   0  0  0  0  0  0  0  0  0  0  0  0
    5.2460    6.6780   12.0820 H   0  0  0  0  0  0  0  0  0  0  0  0
    6.7220    7.4320   11.2720 H   0  0  0  0  0  0  0  0  0  0  0  0
    7.7380    8.6080   15.5760 H   0  0  0  0  0  0  0  0  0  0  0  0
    7.3120    9.8950   14.4300 H   0  0  0  0  0  0  0  0  0  0  0  0
    3.2350    9.5420   17.6040 H   0  0  0  0  0  0  0  0  0  0  0  0
    3.5570    9.3810   15.8140 H   0  0  0  0  0  0  0  0  0  0  0  0
    2.4940    7.3380   16.7890 H   0  0  0  0  0  0  0  0  0  0  0  0
    4.2490    6.9470   16.3830 H   0  0  0  0  0  0  0  0  0  0  0  0
    5.1090    7.3490   19.8660 H   0  0  0  0  0  0  0  0  0  0  0  0
    5.6120    6.5820   18.3530 H   0  0  0  0  0  0  0  0  0  0  0  0
    5.4330    9.5140   19.1780 H   0  0  0  0  0  0  0  0  0  0  0  0
    6.7890    8.6420   18.4510 H   0  0  0  0  0  0  0  0  0  0  0  0
    9.4880    3.2570   10.6090 H   0  0  0  0  0  0  0  0  0  0  0  0
   11.1060    1.5230   10.0990 H   0  0  0  0  0  0  0  0  0  0  0  0
  1  2  1  0  0  0  0
  2  3  1  0  0  0  0
  3 29  1  0  0  0  0
  3  4  2  0  0  0  0
  4  8  1  0  0  0  0
  5  4  1  0  0  0  0
  5  6  1  0  0  0  0
  6  9  1  0  0  0  0
  6  7  1  0  0  0  0
  7 30  1  0  0  0  0
  8 31  1  0  0  0  0
  8  7  2  0  0  0  0
  9 10  1  0  0  0  0
 10 12  1  0  0  0  0
 10 11  2  0  0  0  0
 12 13  1  0  0  0  0
 13 34  1  0  0  0  0
 13 14  1  0  0  0  0
 14 37  1  0  0  0  0
 14 36  1  0  0  0  0
 15 14  1  0  0  0  0
 15 18  1  0  0  0  0
 16 15  1  0  0  0  0
 17 16  1  0  0  0  0
 17 12  1  0  0  0  0
 18 42  1  0  0  0  0
 18 19  1  0  0  0  0
 19 20  2  0  0  0  0
 19 21  1  0  0  0  0
 21 26  1  0  0  0  0
 22 23  1  0  0  0  0
 22 21  1  0  0  0  0
 22 44  1  0  0  0  0
 23 24  1  0  0  0  0
 24 25  1  0  0  0  0
 25 48  1  0  0  0  0
 26 51  1  0  0  0  0
 26 25  1  0  0  0  0
 26 50  1  0  0  0  0
 27  5  2  0  0  0  0
 28  2  2  0  0  0  0
 28 27  1  0  0  0  0
 32  9  1  0  0  0  0
 33  9  1  0  0  0  0
 35 13  1  0  0  0  0
 38 16  1  0  0  0  0
 39 16  1  0  0  0  0
 40 17  1  0  0  0  0
 41 17  1  0  0  0  0
 43 18  1  0  0  0  0
 45 22  1  0  0  0  0
 46 23  1  0  0  0  0
 47 23  1  0  0  0  0
 49 25  1  0  0  0  0
 52 27  1  0  0  0  0
 53 28  1  0  0  0  0
M  END
>  <Pose>
1

>  <Score>
-5.58

$$$$
