
 OpenBabel03172210413D

 47 50  0  0  1  0  0  0  0  0999 V2000
   18.3570    3.7780   11.5040 Cl  0  0  0  0  0  0  0  0  0  0  0  0
   17.6020    5.3480   11.4580 C   0  0  0  0  0  0  0  0  0  0  0  0
   16.3260    5.5380   11.9270 C   0  0  0  0  0  0  0  0  0  0  0  0
   15.6950    6.7700   11.9110 C   0  0  0  0  0  0  0  0  0  0  0  0
   16.3790    7.8340   11.4070 C   0  0  0  0  0  0  0  0  0  0  0  0
   17.6750    7.6950   10.9180 C   0  0  0  0  0  0  0  0  0  0  0  0
   18.2680    6.4500   10.9520 C   0  0  0  0  0  0  0  0  0  0  0  0
   14.3650    6.9270   12.3920 N   0  0  0  0  0  0  0  0  0  0  0  0
   14.1060    6.5330   13.7390 C   0  0  0  0  0  0  0  0  0  0  0  0
   14.9850    6.0770   14.5110 O   0  0  0  0  0  0  0  0  0  0  0  0
   12.7770    6.6660   14.2370 N   0  0  0  0  0  0  0  0  0  0  0  0
   11.7510    7.1850   13.3770 C   0  0  0  0  0  0  0  0  0  0  0  0
   10.6540    7.5000   13.9490 O   0  0  0  0  0  0  0  0  0  0  0  0
   11.9390    7.3500   11.9240 C   0  0  1  0  0  0  0  0  0  0  0  0
   13.3650    7.4480   11.5260 C   0  0  0  0  0  0  0  0  0  0  0  0
   13.6410    7.9920   10.4290 O   0  0  0  0  0  0  0  0  0  0  0  0
   11.2720    6.2220   11.1710 C   0  0  0  0  0  0  0  0  0  0  0  0
   10.6980    5.1840   11.7510 C   0  0  0  0  0  0  0  0  0  0  0  0
   10.1910    4.3490   10.6390 C   0  0  1  0  0  0  0  0  0  0  0  0
    9.9520    5.3410    9.6050 N   0  0  0  0  0  0  0  0  0  0  0  0
   11.1320    6.1100    9.7560 N   0  0  0  0  0  0  0  0  0  0  0  0
   11.2250    3.3710   10.2000 C   0  0  0  0  0  0  0  0  0  0  0  0
   12.5720    3.5330   10.3490 C   0  0  0  0  0  0  0  0  0  0  0  0
   13.4890    2.5760    9.9600 C   0  0  0  0  0  0  0  0  0  0  0  0
   13.0600    1.3910    9.3910 C   0  0  0  0  0  0  0  0  0  0  0  0
   11.6740    1.2300    9.2400 C   0  0  0  0  0  0  0  0  0  0  0  0
   10.7750    2.1940    9.6320 C   0  0  0  0  0  0  0  0  0  0  0  0
   13.9420    0.4140    8.9960 O   0  0  0  0  0  0  0  0  0  0  0  0
   14.7940    0.5840    7.8820 C   0  0  0  0  0  0  0  0  0  0  0  0
   14.8670    2.7940   10.1350 O   0  0  0  0  0  0  0  0  0  0  0  0
   15.7530    4.7000   12.3410 H   0  0  0  0  0  0  0  0  0  0  0  0
   15.9130    8.8190   11.3790 H   0  0  0  0  0  0  0  0  0  0  0  0
   18.1510    8.5720   10.5350 H   0  0  0  0  0  0  0  0  0  0  0  0
   19.2650    6.3610   10.5700 H   0  0  0  0  0  0  0  0  0  0  0  0
   12.5160    6.3940   15.2190 H   0  0  0  0  0  0  0  0  0  0  0  0
   11.4800    8.3310   11.6590 H   0  0  0  0  0  0  0  0  0  0  0  0
   10.6290    5.0150   12.8110 H   0  0  0  0  0  0  0  0  0  0  0  0
    9.2520    3.8140   10.8850 H   0  0  0  0  0  0  0  0  0  0  0  0
    9.8150    4.9670    8.6630 H   0  0  0  0  0  0  0  0  0  0  0  0
   11.7770    6.5190    9.0790 H   0  0  0  0  0  0  0  0  0  0  0  0
   12.9440    4.4280   10.7830 H   0  0  0  0  0  0  0  0  0  0  0  0
   11.3750    0.2910    8.7890 H   0  0  0  0  0  0  0  0  0  0  0  0
    9.7120    1.9830    9.4760 H   0  0  0  0  0  0  0  0  0  0  0  0
   14.2060    0.9180    6.9850 H   0  0  0  0  0  0  0  0  0  0  0  0
   15.2390   -0.4010    7.5620 H   0  0  0  0  0  0  0  0  0  0  0  0
   15.5940    1.3230    8.0460 H   0  0  0  0  0  0  0  0  0  0  0  0
   15.2630    3.6550    9.7720 H   0  0  0  0  0  0  0  0  0  0  0  0
  2  1  1  0  0  0  0
  2  3  1  0  0  0  0
  3 31  1  0  0  0  0
  4  3  2  0  0  0  0
  4  8  1  0  0  0  0
  5  4  1  0  0  0  0
  6  7  1  0  0  0  0
  6  5  2  0  0  0  0
  7  2  2  0  0  0  0
  8  9  1  0  0  0  0
  9 11  1  0  0  0  0
  9 10  2  0  0  0  0
 11 35  1  0  0  0  0
 12 13  2  0  0  0  0
 12 11  1  0  0  0  0
 14 36  1  6  0  0  0
 14 12  1  0  0  0  0
 15 14  1  0  0  0  0
 15  8  1  0  0  0  0
 16 15  2  0  0  0  0
 17 18  2  0  0  0  0
 17 14  1  0  0  0  0
 18 37  1  0  0  0  0
 19 38  1  1  0  0  0
 19 18  1  0  0  0  0
 20 21  1  0  0  0  0
 20 19  1  0  0  0  0
 21 17  1  0  0  0  0
 22 23  1  0  0  0  0
 22 19  1  0  0  0  0
 23 41  1  0  0  0  0
 24 30  1  0  0  0  0
 24 23  2  0  0  0  0
 25 24  1  0  0  0  0
 26 25  2  0  0  0  0
 26 27  1  0  0  0  0
 27 22  2  0  0  0  0
 28 25  1  0  0  0  0
 29 46  1  0  0  0  0
 29 28  1  0  0  0  0
 32  5  1  0  0  0  0
 33  6  1  0  0  0  0
 34  7  1  0  0  0  0
 39 20  1  0  0  0  0
 40 21  1  0  0  0  0
 42 26  1  0  0  0  0
 43 27  1  0  0  0  0
 44 29  1  0  0  0  0
 45 29  1  0  0  0  0
 47 30  1  0  0  0  0
M  END
>  <Pose>
1

>  <Score>
-6.40

$$$$
