
 OpenBabel03172210413D

 47 51  0  0  1  0  0  0  0  0999 V2000
   22.1040    6.1690   11.9940 I   0  0  0  0  0  0  0  0  0  0  0  0
   20.2940    5.2690   11.4050 C   0  0  0  0  0  0  0  0  0  0  0  0
   19.2830    5.9960   10.8110 C   0  0  0  0  0  0  0  0  0  0  0  0
   18.0820    5.4030   10.4190 C   0  0  0  0  0  0  0  0  0  0  0  0
   17.9030    4.0720   10.6280 C   0  0  0  0  0  0  0  0  0  0  0  0
   18.9240    3.3540   11.2250 C   0  0  0  0  0  0  0  0  0  0  0  0
   20.1160    3.9210   11.6180 C   0  0  0  0  0  0  0  0  0  0  0  0
   16.7020    3.3660   10.2600 N   0  0  0  0  0  0  0  0  0  0  0  0
   16.5610    2.5180    9.2580 N   0  0  0  0  0  0  0  0  0  0  0  0
   15.3050    2.0310    9.1880 C   0  0  0  0  0  0  0  0  0  0  0  0
   14.7940    1.1750    8.3350 C   0  0  0  0  0  0  0  0  0  0  0  0
   14.6020    2.6150   10.2240 C   0  0  2  0  0  0  0  0  0  0  0  0
   13.3100    2.4080   10.5200 C   0  0  0  0  0  0  0  0  0  0  0  0
   12.7960    3.1210   11.6370 N   0  0  0  0  0  4  0  0  0  0  0  0
   11.8010    4.1560   11.4050 C   0  0  1  0  0  0  0  0  0  0  0  0
   11.4830    4.8710   12.7090 C   0  0  0  0  0  0  0  0  0  0  0  0
   10.5440    5.9270   12.4490 N   0  0  2  0  0  0  0  0  0  0  0  0
    9.3350    5.3130   11.9110 C   0  0  0  0  0  0  0  0  0  0  0  0
    9.5870    4.6640   10.6550 N   0  0  1  0  0  0  0  0  0  0  0  0
   10.1670    5.5920    9.7100 C   0  0  0  0  0  0  0  0  0  0  0  0
   11.3730    6.1930   10.2120 N   0  0  1  0  0  0  0  0  0  0  0  0
   11.1310    6.8420   11.4970 C   0  0  0  0  0  0  0  0  0  0  0  0
   12.3620    5.1620   10.4250 C   0  0  0  0  0  0  0  0  0  0  0  0
   10.5190    3.5870   10.8750 C   0  0  0  0  0  0  0  0  0  0  0  0
   15.5040    3.4360   10.8650 C   0  0  0  0  0  0  0  0  0  0  0  0
   15.2510    4.1500   11.8680 O   0  0  0  0  0  0  0  0  0  0  0  0
   19.4700    7.0550   10.6630 H   0  0  0  0  0  0  0  0  0  0  0  0
   17.3010    5.9850    9.9550 H   0  0  0  0  0  0  0  0  0  0  0  0
   18.7690    2.2890   11.3870 H   0  0  0  0  0  0  0  0  0  0  0  0
   20.9080    3.3250   12.0890 H   0  0  0  0  0  0  0  0  0  0  0  0
   17.3160    2.2420    8.5870 H   0  0  0  0  0  0  0  0  0  0  0  0
   13.7640    0.8800    8.4110 H   0  0  0  0  0  0  0  0  0  0  0  0
   15.3890    0.7480    7.5450 H   0  0  0  0  0  0  0  0  0  0  0  0
   12.7030    1.7300    9.9330 H   0  0  0  0  0  0  0  0  0  0  0  0
   13.0860    2.9520   12.6200 H   0  0  0  0  0  0  0  0  0  0  0  0
   11.0710    4.0940   13.3930 H   0  0  0  0  0  0  0  0  0  0  0  0
   12.4310    5.2050   13.1540 H   0  0  0  0  0  0  0  0  0  0  0  0
    8.4860    6.0230   11.8800 H   0  0  0  0  0  0  0  0  0  0  0  0
    9.0500    4.5130   12.6540 H   0  0  0  0  0  0  0  0  0  0  0  0
    9.4420    6.4200    9.4980 H   0  0  0  0  0  0  0  0  0  0  0  0
   10.4080    5.0570    8.7710 H   0  0  0  0  0  0  0  0  0  0  0  0
   12.1340    7.1310   11.8950 H   0  0  0  0  0  0  0  0  0  0  0  0
   10.5370    7.7730   11.3890 H   0  0  0  0  0  0  0  0  0  0  0  0
   12.5290    4.6530    9.4490 H   0  0  0  0  0  0  0  0  0  0  0  0
   13.3020    5.5620   10.8480 H   0  0  0  0  0  0  0  0  0  0  0  0
   10.1370    2.8430   11.6020 H   0  0  0  0  0  0  0  0  0  0  0  0
   10.6740    3.0480    9.9090 H   0  0  0  0  0  0  0  0  0  0  0  0
  2  7  1  0  0  0  0
  2  1  1  0  0  0  0
  3  2  2  0  0  0  0
  4  5  2  0  0  0  0
  4  3  1  0  0  0  0
  5  6  1  0  0  0  0
  6 29  1  0  0  0  0
  6  7  2  0  0  0  0
  7 30  1  0  0  0  0
  8  5  1  0  0  0  0
  8 25  1  0  0  0  0
  9  8  1  0  0  0  0
 10  9  1  0  0  0  0
 10 12  1  0  0  0  0
 11 32  1  0  0  0  0
 11 10  2  0  0  0  0
 12 13  1  6  0  0  0
 12 25  1  0  0  0  0
 13 14  2  0  0  0  0
 14 35  1  0  0  0  0
 15 14  1  1  0  0  0
 15 16  1  0  0  0  0
 16 37  1  0  0  0  0
 16 36  1  0  0  0  0
 17 22  1  6  0  0  0
 17 16  1  0  0  0  0
 18 17  1  0  0  0  0
 18 39  1  0  0  0  0
 19 20  1  6  0  0  0
 19 24  1  0  0  0  0
 19 18  1  0  0  0  0
 21 20  1  1  0  0  0
 21 23  1  0  0  0  0
 21 22  1  0  0  0  0
 22 42  1  0  0  0  0
 23 45  1  0  0  0  0
 23 15  1  0  0  0  0
 24 15  1  0  0  0  0
 24 46  1  0  0  0  0
 25 26  2  0  0  0  0
 27  3  1  0  0  0  0
 28  4  1  0  0  0  0
 31  9  1  0  0  0  0
 33 11  1  0  0  0  0
 34 13  1  0  0  0  0
 38 18  1  0  0  0  0
 40 20  1  0  0  0  0
 41 20  1  0  0  0  0
 43 22  1  0  0  0  0
 44 23  1  0  0  0  0
 47 24  1  0  0  0  0
M  END
>  <Pose>
1

>  <Score>
-6.19

$$$$
