
 OpenBabel03172210413D

 61 64  0  0  1  0  0  0  0  0999 V2000
   12.3830    5.5070   11.9290 S   0  0  0  0  0  0  0  0  0  0  0  0
   13.2600    5.5650   13.1790 O   0  0  0  0  0  0  0  0  0  0  0  0
   13.0040    6.5590   11.0090 O   0  0  0  0  0  0  0  0  0  0  0  0
   10.8090    5.9390   12.2300 N   0  0  0  0  0  0  0  0  0  0  0  0
   10.4000    6.9830   13.0370 C   0  0  1  0  0  0  0  0  0  0  0  0
    9.7870    8.0210   12.0870 C   0  0  0  0  0  0  0  0  0  0  0  0
    9.1080    7.1340   11.0670 C   0  0  0  0  0  0  0  0  0  0  0  0
    9.9390    5.8740   11.0600 C   0  0  0  0  0  0  0  0  0  0  0  0
    9.3050    6.4790   13.9610 C   0  0  0  0  0  0  0  0  0  0  0  0
    9.0850    5.2610   13.9190 O   0  0  0  0  0  0  0  0  0  0  0  0
    8.6210    7.3880   14.7870 N   0  0  0  0  0  0  0  0  0  0  0  0
    8.1630    6.9800   16.0930 C   0  0  0  0  0  0  0  0  0  0  0  0
    6.7090    6.7330   16.2170 C   0  0  0  0  0  0  0  0  0  0  0  0
    5.8480    7.6960   15.6270 N   0  0  0  0  0  0  0  0  0  0  0  0
    5.9470    9.0190   16.1510 C   0  0  0  0  0  0  0  0  0  0  0  0
    5.8290    9.9880   14.9910 C   0  0  0  0  0  0  0  0  0  0  0  0
    4.5840    9.6480   14.1970 C   0  0  0  0  0  0  0  0  0  0  0  0
    3.4460    9.4510   15.1620 C   0  0  0  0  0  0  0  0  0  0  0  0
    3.4210    8.1250   15.8250 C   0  0  0  0  0  0  0  0  0  0  0  0
    4.5220    7.1970   15.4720 C   0  0  0  0  0  0  0  0  0  0  0  0
   12.5970    3.9640   11.1570 C   0  0  0  0  0  0  0  0  0  0  0  0
   11.4630    3.2780   10.6930 C   0  0  0  0  0  0  0  0  0  0  0  0
   11.5050    2.0350   10.1270 C   0  0  0  0  0  0  0  0  0  0  0  0
   12.7460    1.4350   10.0130 C   0  0  0  0  0  0  0  0  0  0  0  0
   13.8870    2.0440   10.4410 C   0  0  0  0  0  0  0  0  0  0  0  0
   13.7870    3.3090   11.0090 C   0  0  0  0  0  0  0  0  0  0  0  0
   15.3050    4.0660   11.4370 Cl  0  0  0  0  0  0  0  0  0  0  0  0
   12.8050    0.1320    9.4150 N   0  0  0  0  0  0  0  0  0  0  0  0
   11.6030   -0.4900    8.9650 C   0  0  0  0  0  0  0  0  0  0  0  0
   11.5400   -1.7290    8.8700 O   0  0  0  0  0  0  0  0  0  0  0  0
   10.4640    0.3980    8.6260 C   0  0  0  0  0  0  0  0  0  0  0  0
   10.3810    1.3630    9.6710 O   0  0  0  0  0  0  0  0  0  0  0  0
   11.1290    7.5490   13.6200 H   0  0  0  0  0  0  0  0  0  0  0  0
    9.1340    8.7280   12.5870 H   0  0  0  0  0  0  0  0  0  0  0  0
   10.6250    8.5680   11.6200 H   0  0  0  0  0  0  0  0  0  0  0  0
    8.0720    6.9580   11.4460 H   0  0  0  0  0  0  0  0  0  0  0  0
    9.1070    7.5650   10.0580 H   0  0  0  0  0  0  0  0  0  0  0  0
   10.5410    5.7820   10.1270 H   0  0  0  0  0  0  0  0  0  0  0  0
    9.2810    4.9980   11.1900 H   0  0  0  0  0  0  0  0  0  0  0  0
    8.4150    8.3650   14.4990 H   0  0  0  0  0  0  0  0  0  0  0  0
    8.6830    6.0040   16.3230 H   0  0  0  0  0  0  0  0  0  0  0  0
    8.4880    7.6760   16.8820 H   0  0  0  0  0  0  0  0  0  0  0  0
    6.4500    6.6330   17.2790 H   0  0  0  0  0  0  0  0  0  0  0  0
    6.4770    5.7420   15.7370 H   0  0  0  0  0  0  0  0  0  0  0  0
    6.8590    9.1940   16.7470 H   0  0  0  0  0  0  0  0  0  0  0  0
    5.0860    9.2050   16.8250 H   0  0  0  0  0  0  0  0  0  0  0  0
    5.6800   11.0430   15.3580 H   0  0  0  0  0  0  0  0  0  0  0  0
    6.7380   10.0210   14.3630 H   0  0  0  0  0  0  0  0  0  0  0  0
    4.3310   10.3810   13.4400 H   0  0  0  0  0  0  0  0  0  0  0  0
    4.7620    8.6760   13.6920 H   0  0  0  0  0  0  0  0  0  0  0  0
    2.4990    9.6990   14.5980 H   0  0  0  0  0  0  0  0  0  0  0  0
    3.5100   10.2360   15.9550 H   0  0  0  0  0  0  0  0  0  0  0  0
    3.3060    8.2180   16.9450 H   0  0  0  0  0  0  0  0  0  0  0  0
    2.4600    7.6160   15.5170 H   0  0  0  0  0  0  0  0  0  0  0  0
    4.4050    6.8190   14.4360 H   0  0  0  0  0  0  0  0  0  0  0  0
    4.4060    6.2890   16.1210 H   0  0  0  0  0  0  0  0  0  0  0  0
   10.4920    3.7680   10.7920 H   0  0  0  0  0  0  0  0  0  0  0  0
   14.8430    1.5400   10.3350 H   0  0  0  0  0  0  0  0  0  0  0  0
   13.7400   -0.3360    9.3220 H   0  0  0  0  0  0  0  0  0  0  0  0
    9.5110   -0.1210    8.5160 H   0  0  0  0  0  0  0  0  0  0  0  0
   10.7270    0.9770    7.6980 H   0  0  0  0  0  0  0  0  0  0  0  0
  1  4  1  0  0  0  0
  1  2  2  0  0  0  0
  3  1  2  0  0  0  0
  4  5  1  0  0  0  0
  5 33  1  1  0  0  0
  5  9  1  0  0  0  0
  6 34  1  0  0  0  0
  6  5  1  0  0  0  0
  7 36  1  0  0  0  0
  7  6  1  0  0  0  0
  8  7  1  0  0  0  0
  8 39  1  0  0  0  0
  8  4  1  0  0  0  0
  9 11  1  0  0  0  0
 10  9  2  0  0  0  0
 11 12  1  0  0  0  0
 12 13  1  0  0  0  0
 12 41  1  0  0  0  0
 12 42  1  0  0  0  0
 13 43  1  0  0  0  0
 14 15  1  0  0  0  0
 14 13  1  0  0  0  0
 15 45  1  0  0  0  0
 15 46  1  0  0  0  0
 16 47  1  0  0  0  0
 16 15  1  0  0  0  0
 17 16  1  0  0  0  0
 17 18  1  0  0  0  0
 18 19  1  0  0  0  0
 18 52  1  0  0  0  0
 19 53  1  0  0  0  0
 20 14  1  0  0  0  0
 20 19  1  0  0  0  0
 20 56  1  0  0  0  0
 21  1  1  0  0  0  0
 22 57  1  0  0  0  0
 22 21  2  0  0  0  0
 23 22  1  0  0  0  0
 24 23  2  0  0  0  0
 24 25  1  0  0  0  0
 25 26  2  0  0  0  0
 26 21  1  0  0  0  0
 26 27  1  0  0  0  0
 28 24  1  0  0  0  0
 29 28  1  0  0  0  0
 30 29  2  0  0  0  0
 31 29  1  0  0  0  0
 31 32  1  0  0  0  0
 32 23  1  0  0  0  0
 35  6  1  0  0  0  0
 37  7  1  0  0  0  0
 38  8  1  0  0  0  0
 40 11  1  0  0  0  0
 44 13  1  0  0  0  0
 48 16  1  0  0  0  0
 49 17  1  0  0  0  0
 50 17  1  0  0  0  0
 51 18  1  0  0  0  0
 54 19  1  0  0  0  0
 55 20  1  0  0  0  0
 58 25  1  0  0  0  0
 59 28  1  0  0  0  0
 60 31  1  0  0  0  0
 61 31  1  0  0  0  0
M  END
>  <Pose>
1

>  <Score>
-5.87

$$$$
