
 OpenBabel03172210413D

 39 42  0  0  0  0  0  0  0  0999 V2000
    5.3000    8.3000   12.8740 Cl  0  0  0  0  0  0  0  0  0  0  0  0
    6.7670    7.5230   12.2620 C   0  0  0  0  0  0  0  0  0  0  0  0
    7.9740    8.1770   12.2840 C   0  0  0  0  0  0  0  0  0  0  0  0
    9.1120    7.5690   11.8070 C   0  0  0  0  0  0  0  0  0  0  0  0
    9.1310    6.2740   11.2760 C   0  0  0  0  0  0  0  0  0  0  0  0
    7.9080    5.6430   11.2670 C   0  0  0  0  0  0  0  0  0  0  0  0
    6.7370    6.2520   11.7520 C   0  0  0  0  0  0  0  0  0  0  0  0
   10.3750    5.7040   10.8410 C   0  0  0  0  0  0  0  0  0  0  0  0
   10.6070    5.8630    9.5620 O   0  0  0  0  0  0  0  0  0  0  0  0
   11.3650    5.0200   11.5310 N   0  0  0  0  0  0  0  0  0  0  0  0
   12.7820    5.1640   11.5320 C   0  0  0  0  0  0  0  0  0  0  0  0
   13.2980    4.0310   10.6230 C   0  0  0  0  0  0  0  0  0  0  0  0
   12.4980    2.8310   10.9330 N   0  0  0  0  0  0  0  0  0  0  0  0
   11.9020    2.7420   12.2350 C   0  0  0  0  0  0  0  0  0  0  0  0
   10.9150    3.8830   12.4020 C   0  0  0  0  0  0  0  0  0  0  0  0
   12.3500    1.8140    9.9460 C   0  0  0  0  0  0  0  0  0  0  0  0
   11.1680    1.1860    9.7610 N   0  0  0  0  0  0  0  0  0  0  0  0
   10.9940    0.2380    8.8580 N   0  0  0  0  0  0  0  0  0  0  0  0
   11.9820   -0.1760    8.0510 C   0  0  0  0  0  0  0  0  0  0  0  0
   11.5340   -1.1530    7.2240 N   0  0  0  0  0  0  0  0  0  0  0  0
   10.2620   -1.3490    7.5150 N   0  0  0  0  0  0  0  0  0  0  0  0
    9.9110   -0.5130    8.5090 C   0  0  0  0  0  0  0  0  0  0  0  0
   13.2250    0.4200    8.1790 C   0  0  0  0  0  0  0  0  0  0  0  0
   13.3790    1.4040    9.1270 C   0  0  0  0  0  0  0  0  0  0  0  0
    7.9920    9.1800   12.6880 H   0  0  0  0  0  0  0  0  0  0  0  0
   10.0390    8.1140   11.8390 H   0  0  0  0  0  0  0  0  0  0  0  0
    7.8380    4.6370   10.9030 H   0  0  0  0  0  0  0  0  0  0  0  0
    5.7880    5.7220   11.7280 H   0  0  0  0  0  0  0  0  0  0  0  0
   13.2270    6.1210   11.3710 H   0  0  0  0  0  0  0  0  0  0  0  0
   13.1640    4.8060   12.5650 H   0  0  0  0  0  0  0  0  0  0  0  0
   14.3720    3.8340   10.7990 H   0  0  0  0  0  0  0  0  0  0  0  0
   13.1080    4.3770    9.5990 H   0  0  0  0  0  0  0  0  0  0  0  0
   12.6440    2.8570   13.0570 H   0  0  0  0  0  0  0  0  0  0  0  0
   11.3150    1.8060   12.3340 H   0  0  0  0  0  0  0  0  0  0  0  0
   10.8660    4.2570   13.4390 H   0  0  0  0  0  0  0  0  0  0  0  0
    9.8980    3.5960   12.0910 H   0  0  0  0  0  0  0  0  0  0  0  0
    8.9280   -0.4360    8.9680 H   0  0  0  0  0  0  0  0  0  0  0  0
   14.0540    0.1160    7.5460 H   0  0  0  0  0  0  0  0  0  0  0  0
   14.3490    1.9040    9.2660 H   0  0  0  0  0  0  0  0  0  0  0  0
  2  3  1  0  0  0  0
  2  1  1  0  0  0  0
  3 25  1  0  0  0  0
  4 26  1  0  0  0  0
  4  3  2  0  0  0  0
  5  4  1  0  0  0  0
  6  5  2  0  0  0  0
  6  7  1  0  0  0  0
  7  2  2  0  0  0  0
  8  5  1  0  0  0  0
  8 10  1  0  0  0  0
  9  8  2  0  0  0  0
 10 11  1  0  0  0  0
 10 15  1  0  0  0  0
 11 30  1  0  0  0  0
 12 31  1  0  0  0  0
 12 13  1  0  0  0  0
 12 11  1  0  0  0  0
 13 14  1  0  0  0  0
 14 34  1  0  0  0  0
 14 15  1  0  0  0  0
 14 33  1  0  0  0  0
 15 35  1  0  0  0  0
 16 13  1  0  0  0  0
 17 16  2  0  0  0  0
 18 17  1  0  0  0  0
 19 23  1  0  0  0  0
 19 18  1  0  0  0  0
 20 21  1  0  0  0  0
 20 19  2  0  0  0  0
 21 22  2  0  0  0  0
 22 18  1  0  0  0  0
 22 37  1  0  0  0  0
 23 24  2  0  0  0  0
 24 39  1  0  0  0  0
 24 16  1  0  0  0  0
 27  6  1  0  0  0  0
 28  7  1  0  0  0  0
 29 11  1  0  0  0  0
 32 12  1  0  0  0  0
 36 15  1  0  0  0  0
 38 23  1  0  0  0  0
M  END
>  <Pose>
1

>  <Score>
-6.33

$$$$
