
 OpenBabel03172210413D

 42 45  0  0  0  0  0  0  0  0999 V2000
   17.4290    6.8940   16.9760 Cl  0  0  0  0  0  0  0  0  0  0  0  0
   16.3040    7.0090   15.6210 C   0  0  0  0  0  0  0  0  0  0  0  0
   15.0770    7.6000   15.7290 C   0  0  0  0  0  0  0  0  0  0  0  0
   14.1710    7.7090   14.6940 C   0  0  0  0  0  0  0  0  0  0  0  0
   14.5490    7.1760   13.4660 C   0  0  0  0  0  0  0  0  0  0  0  0
   15.8060    6.5690   13.3470 C   0  0  0  0  0  0  0  0  0  0  0  0
   16.6670    6.4860   14.4040 C   0  0  0  0  0  0  0  0  0  0  0  0
   13.6740    7.2510   12.3600 N   0  0  0  0  0  0  0  0  0  0  0  0
   13.2000    8.3570   11.8400 N   0  0  0  0  0  0  0  0  0  0  0  0
   12.4210    7.9970   10.8240 N   0  0  0  0  0  0  0  0  0  0  0  0
   12.3930    6.6570   10.6920 C   0  0  0  0  0  0  0  0  0  0  0  0
   13.1880    6.2050   11.6680 C   0  0  0  0  0  0  0  0  0  0  0  0
   13.1630    4.8240   11.5350 C   0  0  0  0  0  0  0  0  0  0  0  0
   13.7940    4.0400   12.2790 O   0  0  0  0  0  0  0  0  0  0  0  0
   12.3820    4.4330   10.5160 N   0  0  0  0  0  0  0  0  0  0  0  0
   11.9020    5.5760    9.9900 C   0  0  0  0  0  0  0  0  0  0  0  0
   11.1160    5.6480    8.9990 O   0  0  0  0  0  0  0  0  0  0  0  0
   12.0940    3.1160   10.0560 C   0  0  0  0  0  0  0  0  0  0  0  0
   13.0510    2.2880    9.5030 C   0  0  0  0  0  0  0  0  0  0  0  0
   12.7650    1.0130    9.0610 C   0  0  0  0  0  0  0  0  0  0  0  0
   11.4870    0.5020    9.1510 C   0  0  0  0  0  0  0  0  0  0  0  0
   10.5200    1.3180    9.7000 C   0  0  0  0  0  0  0  0  0  0  0  0
   10.8180    2.5950   10.1420 C   0  0  0  0  0  0  0  0  0  0  0  0
   11.2070   -0.7860    8.7010 O   0  0  0  0  0  0  0  0  0  0  0  0
   10.0080   -1.1480    8.0870 C   0  0  0  0  0  0  0  0  0  0  0  0
   13.7290    0.1790    8.5040 O   0  0  0  0  0  0  0  0  0  0  0  0
   14.8120    0.7950    7.8330 C   0  0  0  0  0  0  0  0  0  0  0  0
   14.7870    8.0150   16.6950 H   0  0  0  0  0  0  0  0  0  0  0  0
   13.2050    8.1840   14.8150 H   0  0  0  0  0  0  0  0  0  0  0  0
   16.1110    6.1470   12.3840 H   0  0  0  0  0  0  0  0  0  0  0  0
   17.6540    6.0140   14.3260 H   0  0  0  0  0  0  0  0  0  0  0  0
   13.3950    9.3510   12.1600 H   0  0  0  0  0  0  0  0  0  0  0  0
   11.9090    8.6890   10.2260 H   0  0  0  0  0  0  0  0  0  0  0  0
   14.0540    2.6800    9.4300 H   0  0  0  0  0  0  0  0  0  0  0  0
    9.5170    0.9190    9.7720 H   0  0  0  0  0  0  0  0  0  0  0  0
   10.0490    3.2280   10.5730 H   0  0  0  0  0  0  0  0  0  0  0  0
    9.8020   -2.2370    8.1310 H   0  0  0  0  0  0  0  0  0  0  0  0
    9.1200   -0.6500    8.5580 H   0  0  0  0  0  0  0  0  0  0  0  0
   10.0420   -0.8250    7.0280 H   0  0  0  0  0  0  0  0  0  0  0  0
   15.2510    1.5890    8.4610 H   0  0  0  0  0  0  0  0  0  0  0  0
   15.5890    0.0660    7.5380 H   0  0  0  0  0  0  0  0  0  0  0  0
   14.4200    1.2350    6.8920 H   0  0  0  0  0  0  0  0  0  0  0  0
  2  3  1  0  0  0  0
  2  1  1  0  0  0  0
  3 28  1  0  0  0  0
  4 29  1  0  0  0  0
  4  3  2  0  0  0  0
  5  4  1  0  0  0  0
  6  5  2  0  0  0  0
  6  7  1  0  0  0  0
  7  2  2  0  0  0  0
  8  5  1  0  0  0  0
  9 32  1  0  0  0  0
  9  8  1  0  0  0  0
 10  9  1  0  0  0  0
 11 10  1  0  0  0  0
 11 12  2  0  0  0  0
 12  8  1  0  0  0  0
 13 12  1  0  0  0  0
 13 14  2  0  0  0  0
 15 13  1  0  0  0  0
 16 15  1  0  0  0  0
 16 11  1  0  0  0  0
 17 16  2  0  0  0  0
 18 23  1  0  0  0  0
 18 15  1  0  0  0  0
 19 18  2  0  0  0  0
 20 21  2  0  0  0  0
 20 19  1  0  0  0  0
 21 22  1  0  0  0  0
 22 35  1  0  0  0  0
 22 23  2  0  0  0  0
 23 36  1  0  0  0  0
 24 21  1  0  0  0  0
 25 37  1  0  0  0  0
 25 38  1  0  0  0  0
 25 24  1  0  0  0  0
 26 20  1  0  0  0  0
 27 40  1  0  0  0  0
 27 26  1  0  0  0  0
 30  6  1  0  0  0  0
 31  7  1  0  0  0  0
 33 10  1  0  0  0  0
 34 19  1  0  0  0  0
 39 25  1  0  0  0  0
 41 27  1  0  0  0  0
 42 27  1  0  0  0  0
M  END
>  <Pose>
1

>  <Score>
-6.44

$$$$
