
 OpenBabel03172210413D

 42 45  0  0  0  0  0  0  0  0999 V2000
   17.9690    7.1530   16.4850 Cl  0  0  0  0  0  0  0  0  0  0  0  0
   16.7250    7.2170   15.2310 C   0  0  0  0  0  0  0  0  0  0  0  0
   16.7860    8.1840   14.2480 C   0  0  0  0  0  0  0  0  0  0  0  0
   15.8440    8.2700   13.2570 C   0  0  0  0  0  0  0  0  0  0  0  0
   14.7830    7.3790   13.2070 C   0  0  0  0  0  0  0  0  0  0  0  0
   14.7370    6.4160   14.2010 C   0  0  0  0  0  0  0  0  0  0  0  0
   15.6840    6.3260   15.2000 C   0  0  0  0  0  0  0  0  0  0  0  0
   13.7890    7.4370   12.1970 N   0  0  0  0  0  0  0  0  0  0  0  0
   13.2000    8.5320   11.7580 N   0  0  0  0  0  0  0  0  0  0  0  0
   12.3460    8.1370   10.8220 N   0  0  0  0  0  0  0  0  0  0  0  0
   12.3810    6.8040   10.6550 C   0  0  0  0  0  0  0  0  0  0  0  0
   13.3010    6.3710   11.5330 C   0  0  0  0  0  0  0  0  0  0  0  0
   13.3350    5.0000   11.3590 C   0  0  0  0  0  0  0  0  0  0  0  0
   14.1020    4.2500   12.0330 O   0  0  0  0  0  0  0  0  0  0  0  0
   12.4730    4.5930   10.4120 N   0  0  0  0  0  0  0  0  0  0  0  0
   11.8780    5.7150    9.9740 C   0  0  0  0  0  0  0  0  0  0  0  0
   10.9930    5.7430    9.0680 O   0  0  0  0  0  0  0  0  0  0  0  0
   12.2730    3.2420   10.0030 C   0  0  0  0  0  0  0  0  0  0  0  0
   11.0180    2.6700    9.9400 C   0  0  0  0  0  0  0  0  0  0  0  0
   10.7990    1.3660    9.5460 C   0  0  0  0  0  0  0  0  0  0  0  0
   11.8890    0.5960    9.1990 C   0  0  0  0  0  0  0  0  0  0  0  0
   13.1670    1.1160    9.2430 C   0  0  0  0  0  0  0  0  0  0  0  0
   13.3370    2.4360    9.6470 C   0  0  0  0  0  0  0  0  0  0  0  0
   14.2400    0.3090    8.8860 O   0  0  0  0  0  0  0  0  0  0  0  0
   15.1040    0.6460    7.8360 C   0  0  0  0  0  0  0  0  0  0  0  0
    9.4980    0.8290    9.4990 O   0  0  0  0  0  0  0  0  0  0  0  0
    9.3110   -0.4650    8.9740 C   0  0  0  0  0  0  0  0  0  0  0  0
   17.6270    8.8880   14.2900 H   0  0  0  0  0  0  0  0  0  0  0  0
   15.8990    9.0310   12.4900 H   0  0  0  0  0  0  0  0  0  0  0  0
   13.8940    5.7090   14.1610 H   0  0  0  0  0  0  0  0  0  0  0  0
   15.6150    5.5700   15.9470 H   0  0  0  0  0  0  0  0  0  0  0  0
   13.3860    9.5060   12.0960 H   0  0  0  0  0  0  0  0  0  0  0  0
   11.7260    8.7770   10.2820 H   0  0  0  0  0  0  0  0  0  0  0  0
   10.1830    3.3180   10.2250 H   0  0  0  0  0  0  0  0  0  0  0  0
   11.7190   -0.4350    8.8880 H   0  0  0  0  0  0  0  0  0  0  0  0
   14.3560    2.8510    9.6820 H   0  0  0  0  0  0  0  0  0  0  0  0
   14.5480    0.4670    6.8820 H   0  0  0  0  0  0  0  0  0  0  0  0
   15.4980    1.6730    7.9040 H   0  0  0  0  0  0  0  0  0  0  0  0
   15.9910   -0.0500    7.9040 H   0  0  0  0  0  0  0  0  0  0  0  0
   10.0300   -1.1980    9.3710 H   0  0  0  0  0  0  0  0  0  0  0  0
    8.2900   -0.8220    9.2030 H   0  0  0  0  0  0  0  0  0  0  0  0
    9.4200   -0.4810    7.8610 H   0  0  0  0  0  0  0  0  0  0  0  0
  2  1  1  0  0  0  0
  3 28  1  0  0  0  0
  3  2  2  0  0  0  0
  4  3  1  0  0  0  0
  5  4  2  0  0  0  0
  5  6  1  0  0  0  0
  6  7  2  0  0  0  0
  7  2  1  0  0  0  0
  7 31  1  0  0  0  0
  8  5  1  0  0  0  0
  9 32  1  0  0  0  0
  9  8  1  0  0  0  0
 10  9  1  0  0  0  0
 11 10  1  0  0  0  0
 11 12  2  0  0  0  0
 12  8  1  0  0  0  0
 13 12  1  0  0  0  0
 13 14  2  0  0  0  0
 15 13  1  0  0  0  0
 16 15  1  0  0  0  0
 16 11  1  0  0  0  0
 17 16  2  0  0  0  0
 18 15  1  0  0  0  0
 19 18  1  0  0  0  0
 19 34  1  0  0  0  0
 20 19  2  0  0  0  0
 21 22  2  0  0  0  0
 21 20  1  0  0  0  0
 22 23  1  0  0  0  0
 23 36  1  0  0  0  0
 23 18  2  0  0  0  0
 24 22  1  0  0  0  0
 25 39  1  0  0  0  0
 25 38  1  0  0  0  0
 25 24  1  0  0  0  0
 26 20  1  0  0  0  0
 27 41  1  0  0  0  0
 27 40  1  0  0  0  0
 27 26  1  0  0  0  0
 29  4  1  0  0  0  0
 30  6  1  0  0  0  0
 33 10  1  0  0  0  0
 35 21  1  0  0  0  0
 37 25  1  0  0  0  0
 42 27  1  0  0  0  0
M  END
>  <Pose>
1

>  <Score>
-6.16

$$$$
