
 OpenBabel03162216323D

 38 42  0  0  1  0  0  0  0  0999 V2000
   11.6270   -1.1410    8.7840 B   0  0  0  0  0  0  0  0  0  0  0  0
   11.6970    0.6670    9.3540 C   0  0  0  0  0  0  0  0  0  0  0  0
   10.5270    1.3430    9.6050 C   0  0  0  0  0  0  0  0  0  0  0  0
   10.6070    2.6540   10.0190 C   0  0  0  0  0  0  0  0  0  0  0  0
   11.8130    3.2990   10.1850 C   0  0  0  0  0  0  0  0  0  0  0  0
   12.9950    2.6170    9.9320 C   0  0  0  0  0  0  0  0  0  0  0  0
   12.9100    1.2870    9.5140 C   0  0  0  0  0  0  0  0  0  0  0  0
   11.8820    4.6630   10.6180 N   0  0  0  0  0  0  0  0  0  0  0  0
   12.2590    5.0340   11.9350 C   0  0  0  0  0  0  0  0  0  0  0  0
   12.8820    4.2860   12.7260 O   0  0  0  0  0  0  0  0  0  0  0  0
   11.7970    6.4230   12.2010 C   0  0  2  0  0  0  0  0  0  0  0  0
   10.4640    6.4550   12.8830 C   0  0  1  0  0  0  0  0  0  0  0  0
    9.9400    7.6590   12.3610 O   0  0  0  0  0  0  0  0  0  0  0  0
    9.9800    7.2840   10.9950 C   0  0  1  0  0  0  0  0  0  0  0  0
   11.4270    6.9770   10.8240 C   0  0  2  0  0  0  0  0  0  0  0  0
   11.6070    5.8480    9.8710 C   0  0  0  0  0  0  0  0  0  0  0  0
   11.5270    5.9440    8.6440 O   0  0  0  0  0  0  0  0  0  0  0  0
    9.2310    6.0030   11.0740 C   0  0  0  0  0  0  0  0  0  0  0  0
    9.5930    5.4620   12.2340 C   0  0  0  0  0  0  0  0  0  0  0  0
   10.5000    6.4350   14.3500 C   0  0  0  0  0  0  0  0  0  0  0  0
    9.2760    6.2610   14.9360 O   0  0  0  0  0  0  0  0  0  0  0  0
    8.9150    7.4300   15.5580 C   0  0  0  0  0  0  0  0  0  0  0  0
   10.0330    8.3930   15.3310 C   0  0  0  0  0  0  0  0  0  0  0  0
   11.0660    7.5860   14.8680 O   0  0  0  0  0  0  0  0  0  0  0  0
    9.5440    0.8780    9.4880 H   0  0  0  0  0  0  0  0  0  0  0  0
    9.6890    3.2240   10.2280 H   0  0  0  0  0  0  0  0  0  0  0  0
   13.9300    3.1330   10.0670 H   0  0  0  0  0  0  0  0  0  0  0  0
   13.8310    0.7570    9.3170 H   0  0  0  0  0  0  0  0  0  0  0  0
   12.5730    6.9990   12.7020 H   0  0  0  0  0  0  0  0  0  0  0  0
    9.5590    8.0240   10.3360 H   0  0  0  0  0  0  0  0  0  0  0  0
   12.0530    7.8300   10.5600 H   0  0  0  0  0  0  0  0  0  0  0  0
    8.5540    5.6560   10.3050 H   0  0  0  0  0  0  0  0  0  0  0  0
    9.2540    4.4770   12.5370 H   0  0  0  0  0  0  0  0  0  0  0  0
   11.1640    5.5850   14.6630 H   0  0  0  0  0  0  0  0  0  0  0  0
    8.7310    7.3140   16.6440 H   0  0  0  0  0  0  0  0  0  0  0  0
    8.0040    7.8250   15.0380 H   0  0  0  0  0  0  0  0  0  0  0  0
   10.3250    8.9010   16.2960 H   0  0  0  0  0  0  0  0  0  0  0  0
    9.8020    9.1660   14.5550 H   0  0  0  0  0  0  0  0  0  0  0  0
  1  2  1  0  0  0  0
  2  7  2  0  0  0  0
  2  3  1  0  0  0  0
  3  4  2  0  0  0  0
  4  5  1  0  0  0  0
  4 26  1  0  0  0  0
  5  8  1  0  0  0  0
  6 27  1  0  0  0  0
  6  5  2  0  0  0  0
  7  6  1  0  0  0  0
  8  9  1  0  0  0  0
  9 11  1  0  0  0  0
  9 10  2  0  0  0  0
 11 29  1  1  0  0  0
 11 12  1  0  0  0  0
 12 20  1  1  0  0  0
 13 12  1  0  0  0  0
 14 30  1  6  0  0  0
 14 18  1  0  0  0  0
 14 13  1  0  0  0  0
 15 31  1  6  0  0  0
 15 14  1  0  0  0  0
 15 11  1  0  0  0  0
 16  8  1  0  0  0  0
 16 15  1  0  0  0  0
 17 16  2  0  0  0  0
 18 19  2  0  0  0  0
 19 33  1  0  0  0  0
 19 12  1  0  0  0  0
 20 34  1  0  0  0  0
 20 24  1  0  0  0  0
 20 21  1  0  0  0  0
 21 22  1  0  0  0  0
 22 35  1  0  0  0  0
 23 22  1  0  0  0  0
 23 37  1  0  0  0  0
 24 23  1  0  0  0  0
 25  3  1  0  0  0  0
 28  7  1  0  0  0  0
 32 18  1  0  0  0  0
 36 22  1  0  0  0  0
 38 23  1  0  0  0  0
M  END
>  <Pose>
1

>  <Score>
-5.00

$$$$
