
 OpenBabel03172210413D

 49 52  0  0  1  0  0  0  0  0999 V2000
   22.3470    2.8570   15.4160 Cl  0  0  0  0  0  0  0  0  0  0  0  0
   21.5610    3.4180   13.9550 C   0  0  0  0  0  0  0  0  0  0  0  0
   21.0920    2.5290   12.9990 C   0  0  0  0  0  0  0  0  0  0  0  0
   20.4810    2.9960   11.8640 C   0  0  0  0  0  0  0  0  0  0  0  0
   20.2990    4.3630   11.6090 C   0  0  0  0  0  0  0  0  0  0  0  0
   20.7700    5.2190   12.5650 C   0  0  0  0  0  0  0  0  0  0  0  0
   21.3910    4.7610   13.7210 C   0  0  0  0  0  0  0  0  0  0  0  0
   19.6720    4.7880   10.4190 N   0  0  0  0  0  0  0  0  0  0  0  0
   19.2400    6.0730   10.0780 C   0  0  0  0  0  0  0  0  0  0  0  0
   20.0830    6.9680    9.8130 O   0  0  0  0  0  0  0  0  0  0  0  0
   17.7740    6.4350   10.0190 C   0  0  0  0  0  0  0  0  0  0  0  0
   17.0470    5.2710   10.4930 N   0  0  0  0  0  0  0  0  0  0  0  0
   17.8520    4.5200   11.4780 C   0  0  0  0  0  0  0  0  0  0  0  0
   17.2550    3.1010   11.3730 C   0  0  0  0  0  0  0  0  0  0  0  0
   15.8250    3.3620   11.1460 N   0  0  0  0  0  0  0  0  0  0  0  0
   15.2860    4.4560   11.8910 C   0  0  0  0  0  0  0  0  0  0  0  0
   15.8560    5.7300   11.2470 C   0  0  0  0  0  0  0  0  0  0  0  0
   15.1290    2.5560   10.2340 C   0  0  2  0  0  0  0  0  0  0  0  0
   15.7710    2.0310    9.1460 N   0  0  0  0  0  0  0  0  0  0  0  0
   15.1770    1.2670    8.2300 C   0  0  0  0  0  0  0  0  0  0  0  0
   13.8760    0.9820    8.3550 N   0  0  0  0  0  0  0  0  0  0  0  0
   13.1460    1.4320    9.3690 C   0  0  0  0  0  0  0  0  0  0  0  0
   11.8520    1.3030    9.7250 N   0  0  0  0  0  0  0  0  0  0  0  0
   11.7000    1.9810   10.8340 N   0  0  0  0  0  0  0  0  0  0  0  0
   12.8440    2.5390   11.2000 N   0  0  0  0  0  0  0  0  0  0  0  0
   13.7820    2.2330   10.3230 C   0  0  0  0  0  0  0  0  0  0  0  0
   10.7970    0.5720    9.0490 C   0  0  0  0  0  0  0  0  0  0  0  0
   11.0920   -0.9120    9.0090 C   0  0  0  0  0  0  0  0  0  0  0  0
   21.2290    1.4770   13.1930 H   0  0  0  0  0  0  0  0  0  0  0  0
   20.1230    2.2900   11.1320 H   0  0  0  0  0  0  0  0  0  0  0  0
   20.6940    6.2870   12.4740 H   0  0  0  0  0  0  0  0  0  0  0  0
   21.7460    5.4940   14.4480 H   0  0  0  0  0  0  0  0  0  0  0  0
   19.4820    4.0230    9.6990 H   0  0  0  0  0  0  0  0  0  0  0  0
   17.6340    7.3340   10.6210 H   0  0  0  0  0  0  0  0  0  0  0  0
   17.5890    6.6530    8.9480 H   0  0  0  0  0  0  0  0  0  0  0  0
   17.6720    4.8510   12.5080 H   0  0  0  0  0  0  0  0  0  0  0  0
   18.9090    4.5570   11.2550 H   0  0  0  0  0  0  0  0  0  0  0  0
   17.7450    2.6570   10.4900 H   0  0  0  0  0  0  0  0  0  0  0  0
   17.4250    2.5250   12.2790 H   0  0  0  0  0  0  0  0  0  0  0  0
   15.6190    4.4110   12.9620 H   0  0  0  0  0  0  0  0  0  0  0  0
   14.1980    4.5480   11.8350 H   0  0  0  0  0  0  0  0  0  0  0  0
   15.1220    6.2060   10.6140 H   0  0  0  0  0  0  0  0  0  0  0  0
   16.1430    6.4310   12.0610 H   0  0  0  0  0  0  0  0  0  0  0  0
   15.7690    0.8850    7.3840 H   0  0  0  0  0  0  0  0  0  0  0  0
    9.8470    0.7500    9.5940 H   0  0  0  0  0  0  0  0  0  0  0  0
   10.6340    0.9060    8.0060 H   0  0  0  0  0  0  0  0  0  0  0  0
   10.6750   -1.3490    9.9440 H   0  0  0  0  0  0  0  0  0  0  0  0
   10.6080   -1.3200    8.1010 H   0  0  0  0  0  0  0  0  0  0  0  0
   12.1900   -1.0980    8.9150 H   0  0  0  0  0  0  0  0  0  0  0  0
  2  1  1  0  0  0  0
  3 29  1  0  0  0  0
  3  2  2  0  0  0  0
  4  3  1  0  0  0  0
  5  4  2  0  0  0  0
  5  6  1  0  0  0  0
  6  7  2  0  0  0  0
  7  2  1  0  0  0  0
  7 32  1  0  0  0  0
  8  5  1  0  0  0  0
  9  8  1  0  0  0  0
 10  9  2  0  0  0  0
 11  9  1  0  0  0  0
 11 12  1  0  0  0  0
 11 34  1  0  0  0  0
 12 17  1  0  0  0  0
 12 13  1  0  0  0  0
 13 36  1  0  0  0  0
 14 13  1  0  0  0  0
 14 39  1  0  0  0  0
 15 14  1  0  0  0  0
 15 16  1  0  0  0  0
 16 40  1  0  0  0  0
 17 16  1  0  0  0  0
 17 43  1  0  0  0  0
 18 26  1  0  0  0  0
 18 15  1  6  0  0  0
 19 18  1  0  0  0  0
 20 21  1  0  0  0  0
 20 19  2  0  0  0  0
 21 22  1  0  0  0  0
 22 23  1  0  0  0  0
 22 26  2  0  0  0  0
 23 24  1  0  0  0  0
 24 25  2  0  0  0  0
 26 25  1  0  0  0  0
 27 45  1  0  0  0  0
 27 23  1  0  0  0  0
 28 27  1  0  0  0  0
 28 47  1  0  0  0  0
 30  4  1  0  0  0  0
 31  6  1  0  0  0  0
 33  8  1  0  0  0  0
 35 11  1  0  0  0  0
 37 13  1  0  0  0  0
 38 14  1  0  0  0  0
 41 16  1  0  0  0  0
 42 17  1  0  0  0  0
 44 20  1  0  0  0  0
 46 27  1  0  0  0  0
 48 28  1  0  0  0  0
 49 28  1  0  0  0  0
M  END
>  <Pose>
1

>  <Score>
-6.17

$$$$
