
 OpenBabel03172210413D

 38 41  0  0  0  0  0  0  0  0999 V2000
   15.2500    1.1190    8.3390 Cl  0  0  0  0  0  0  0  0  0  0  0  0
   13.5340    0.8310    8.5880 C   0  0  0  0  0  0  0  0  0  0  0  0
   12.7530    1.7680    9.2330 C   0  0  0  0  0  0  0  0  0  0  0  0
   11.4190    1.5450    9.4270 C   0  0  0  0  0  0  0  0  0  0  0  0
   10.8790    0.3660    8.9650 C   0  0  0  0  0  0  0  0  0  0  0  0
   11.6400   -0.5830    8.3200 C   0  0  0  0  0  0  0  0  0  0  0  0
   12.9870   -0.3480    8.1290 C   0  0  0  0  0  0  0  0  0  0  0  0
   10.5150    2.5020   10.1090 C   0  0  0  0  0  0  0  0  0  0  0  0
   11.2620    3.7180   10.3190 N   0  0  0  0  0  0  0  0  0  0  0  0
   12.6010    3.5770   10.8430 C   0  0  0  0  0  0  0  0  0  0  0  0
   13.4410    3.0090    9.6920 C   0  0  0  0  0  0  0  0  0  0  0  0
   10.7360    5.0000   10.0330 C   0  0  0  0  0  0  0  0  0  0  0  0
    9.7170    5.1050    9.3020 O   0  0  0  0  0  0  0  0  0  0  0  0
   11.3240    6.2560   10.5540 C   0  0  0  0  0  0  0  0  0  0  0  0
   10.3670    7.0860   11.1360 O   0  0  0  0  0  0  0  0  0  0  0  0
    9.7370    6.8200   12.3450 C   0  0  0  0  0  0  0  0  0  0  0  0
    8.4130    6.5750   12.3560 N   0  0  0  0  0  0  0  0  0  0  0  0
    7.7510    6.3150   13.4810 N   0  0  0  0  0  0  0  0  0  0  0  0
    8.3560    6.2770   14.6750 C   0  0  0  0  0  0  0  0  0  0  0  0
    7.4430    5.9920   15.6240 N   0  0  0  0  0  0  0  0  0  0  0  0
    6.2910    5.8580   15.0130 N   0  0  0  0  0  0  0  0  0  0  0  0
    6.4490    6.0500   13.6930 C   0  0  0  0  0  0  0  0  0  0  0  0
    9.7240    6.5250   14.7020 C   0  0  0  0  0  0  0  0  0  0  0  0
   10.4090    6.7950   13.5420 C   0  0  0  0  0  0  0  0  0  0  0  0
    9.8230    0.1370    9.0930 H   0  0  0  0  0  0  0  0  0  0  0  0
   11.1870   -1.5170    7.9600 H   0  0  0  0  0  0  0  0  0  0  0  0
   13.6330   -1.0550    7.6300 H   0  0  0  0  0  0  0  0  0  0  0  0
   10.1850    2.1490   11.1070 H   0  0  0  0  0  0  0  0  0  0  0  0
    9.6060    2.7290    9.5160 H   0  0  0  0  0  0  0  0  0  0  0  0
   13.0310    4.5280   11.2060 H   0  0  0  0  0  0  0  0  0  0  0  0
   12.6450    2.8370   11.6660 H   0  0  0  0  0  0  0  0  0  0  0  0
   14.4580    2.7650   10.0020 H   0  0  0  0  0  0  0  0  0  0  0  0
   13.4380    3.7120    8.8440 H   0  0  0  0  0  0  0  0  0  0  0  0
   11.8590    6.8400    9.7780 H   0  0  0  0  0  0  0  0  0  0  0  0
   12.0930    5.9760   11.3160 H   0  0  0  0  0  0  0  0  0  0  0  0
    5.6890    6.0080   12.9030 H   0  0  0  0  0  0  0  0  0  0  0  0
   10.2080    6.4970   15.6490 H   0  0  0  0  0  0  0  0  0  0  0  0
   11.4710    6.9920   13.5240 H   0  0  0  0  0  0  0  0  0  0  0  0
  1  2  1  0  0  0  0
  2  3  1  0  0  0  0
  3  4  2  0  0  0  0
  3 11  1  0  0  0  0
  4  8  1  0  0  0  0
  5 25  1  0  0  0  0
  5  4  1  0  0  0  0
  6  5  2  0  0  0  0
  7  6  1  0  0  0  0
  7  2  2  0  0  0  0
  8  9  1  0  0  0  0
  8 28  1  0  0  0  0
  9 10  1  0  0  0  0
 10 30  1  0  0  0  0
 10 31  1  0  0  0  0
 11 32  1  0  0  0  0
 11 10  1  0  0  0  0
 12  9  1  0  0  0  0
 12 14  1  0  0  0  0
 13 12  2  0  0  0  0
 14 15  1  0  0  0  0
 14 35  1  0  0  0  0
 15 16  1  0  0  0  0
 16 17  2  0  0  0  0
 16 24  1  0  0  0  0
 17 18  1  0  0  0  0
 18 22  1  0  0  0  0
 18 19  1  0  0  0  0
 19 23  1  0  0  0  0
 19 20  2  0  0  0  0
 21 20  1  0  0  0  0
 22 21  2  0  0  0  0
 23 37  1  0  0  0  0
 24 23  2  0  0  0  0
 26  6  1  0  0  0  0
 27  7  1  0  0  0  0
 29  8  1  0  0  0  0
 33 11  1  0  0  0  0
 34 14  1  0  0  0  0
 36 22  1  0  0  0  0
 38 24  1  0  0  0  0
M  END
>  <Pose>
1

>  <Score>
-5.97

$$$$
