
 OpenBabel03172210413D

 51 54  0  0  0  0  0  0  0  0999 V2000
   17.0990    3.2680   10.6460 B   0  0  0  0  0  0  0  0  0  0  0  0
   15.5470    2.4310    9.9170 C   0  0  0  0  0  0  0  0  0  0  0  0
   14.3160    2.9880   10.0940 C   0  0  0  0  0  0  0  0  0  0  0  0
   13.1770    2.3700    9.5560 C   0  0  0  0  0  0  0  0  0  0  0  0
   13.3320    1.2030    8.8570 C   0  0  0  0  0  0  0  0  0  0  0  0
   14.6030    0.6340    8.6800 C   0  0  0  0  0  0  0  0  0  0  0  0
   15.7020    1.2570    9.2140 C   0  0  0  0  0  0  0  0  0  0  0  0
   12.2460    0.5510    8.3060 O   0  0  0  0  0  0  0  0  0  0  0  0
   11.8720    2.9800    9.7550 C   0  0  0  0  0  0  0  0  0  0  0  0
   11.6180    4.1540    9.2190 N   0  0  0  0  0  0  0  0  0  0  0  0
   10.3550    4.7040    9.4340 N   0  0  0  0  0  0  0  0  0  0  0  0
   10.1610    5.7670   10.3560 C   0  0  0  0  0  0  0  0  0  0  0  0
   11.1870    6.5000   10.8150 N   0  0  0  0  0  4  0  0  0  0  0  0
   11.0520    7.5260   11.6960 C   0  0  0  0  0  0  0  0  0  0  0  0
    9.7770    7.7740   12.0980 N   0  0  0  0  0  0  0  0  0  0  0  0
    8.7120    7.0760   11.6730 C   0  0  0  0  0  0  0  0  0  0  0  0
    8.9270    6.0890   10.8130 N   0  0  0  0  0  0  0  0  0  0  0  0
    7.4120    7.3890   12.1340 N   0  0  0  0  0  0  0  0  0  0  0  0
    6.6450    8.5130   11.6380 C   0  0  0  0  0  0  0  0  0  0  0  0
    5.1670    8.1960   11.7110 C   0  0  0  0  0  0  0  0  0  0  0  0
    4.7380    7.8560   12.9660 O   0  0  0  0  0  0  0  0  0  0  0  0
    5.7670    7.5370   13.8430 C   0  0  0  0  0  0  0  0  0  0  0  0
    6.7430    6.5840   13.1600 C   0  0  0  0  0  0  0  0  0  0  0  0
   12.1510    8.2750   12.1580 N   0  0  0  0  0  0  0  0  0  0  0  0
   12.0240    9.1200   13.3080 C   0  0  0  0  0  0  0  0  0  0  0  0
   13.1300    8.7310   14.2740 C   0  0  0  0  0  0  0  0  0  0  0  0
   14.3450    8.9070   13.5940 O   0  0  0  0  0  0  0  0  0  0  0  0
   14.4710    7.9580   12.5800 C   0  0  0  0  0  0  0  0  0  0  0  0
   13.4180    8.2120   11.4950 C   0  0  0  0  0  0  0  0  0  0  0  0
   14.1660    3.9120   10.6440 H   0  0  0  0  0  0  0  0  0  0  0  0
   14.6900   -0.2880    8.1220 H   0  0  0  0  0  0  0  0  0  0  0  0
   16.7050    0.8380    9.0920 H   0  0  0  0  0  0  0  0  0  0  0  0
   11.9460    0.6490    7.3580 H   0  0  0  0  0  0  0  0  0  0  0  0
   11.1020    2.5000   10.3300 H   0  0  0  0  0  0  0  0  0  0  0  0
    9.5590    4.3080    8.8960 H   0  0  0  0  0  0  0  0  0  0  0  0
    6.8990    8.7020   10.5780 H   0  0  0  0  0  0  0  0  0  0  0  0
    6.8370    9.3770   12.2940 H   0  0  0  0  0  0  0  0  0  0  0  0
    4.8860    7.4620   10.9270 H   0  0  0  0  0  0  0  0  0  0  0  0
    4.6400    9.1540   11.4260 H   0  0  0  0  0  0  0  0  0  0  0  0
    5.3600    7.1170   14.7670 H   0  0  0  0  0  0  0  0  0  0  0  0
    6.3230    8.4760   14.0500 H   0  0  0  0  0  0  0  0  0  0  0  0
    7.4450    6.1340   13.8570 H   0  0  0  0  0  0  0  0  0  0  0  0
    6.1190    5.8490   12.6050 H   0  0  0  0  0  0  0  0  0  0  0  0
   12.2170   10.1730   13.0140 H   0  0  0  0  0  0  0  0  0  0  0  0
   11.0250    8.9910   13.7720 H   0  0  0  0  0  0  0  0  0  0  0  0
   13.0570    7.6700   14.5850 H   0  0  0  0  0  0  0  0  0  0  0  0
   13.1330    9.3820   15.1690 H   0  0  0  0  0  0  0  0  0  0  0  0
   14.2230    6.9770   13.0360 H   0  0  0  0  0  0  0  0  0  0  0  0
   15.4850    7.9980   12.1650 H   0  0  0  0  0  0  0  0  0  0  0  0
   13.6620    9.1240   10.9190 H   0  0  0  0  0  0  0  0  0  0  0  0
   13.4350    7.3320   10.8120 H   0  0  0  0  0  0  0  0  0  0  0  0
  2  3  1  0  0  0  0
  2  1  1  0  0  0  0
  3 30  1  0  0  0  0
  4  9  1  0  0  0  0
  4  3  2  0  0  0  0
  5  4  1  0  0  0  0
  6  5  2  0  0  0  0
  6  7  1  0  0  0  0
  7  2  2  0  0  0  0
  8  5  1  0  0  0  0
  9 34  1  0  0  0  0
 10 11  1  0  0  0  0
 10  9  2  0  0  0  0
 11 12  1  0  0  0  0
 12 17  1  0  0  0  0
 12 13  2  0  0  0  0
 13 14  2  0  0  0  0
 14 15  1  0  0  0  0
 14 24  1  0  0  0  0
 16 15  2  0  0  0  0
 16 18  1  0  0  0  0
 17 16  1  0  0  0  0
 18 23  1  0  0  0  0
 19 20  1  0  0  0  0
 19 18  1  0  0  0  0
 19 37  1  0  0  0  0
 20 21  1  0  0  0  0
 21 22  1  0  0  0  0
 22 41  1  0  0  0  0
 22 40  1  0  0  0  0
 23 22  1  0  0  0  0
 23 42  1  0  0  0  0
 24 25  1  0  0  0  0
 25 45  1  0  0  0  0
 25 26  1  0  0  0  0
 26 46  1  0  0  0  0
 26 47  1  0  0  0  0
 27 26  1  0  0  0  0
 28 48  1  0  0  0  0
 28 27  1  0  0  0  0
 29 24  1  0  0  0  0
 29 28  1  0  0  0  0
 31  6  1  0  0  0  0
 32  7  1  0  0  0  0
 33  8  1  0  0  0  0
 35 11  1  0  0  0  0
 36 19  1  0  0  0  0
 38 20  1  0  0  0  0
 39 20  1  0  0  0  0
 43 23  1  0  0  0  0
 44 25  1  0  0  0  0
 49 28  1  0  0  0  0
 50 29  1  0  0  0  0
 51 29  1  0  0  0  0
M  END
>  <Pose>
1

>  <Score>
-6.39

$$$$
