
 OpenBabel03172210413D

 46 49  0  0  0  0  0  0  0  0999 V2000
    5.1910    7.0900   15.8970 Cl  0  0  0  0  0  0  0  0  0  0  0  0
    5.5150    7.2390   14.1810 C   0  0  0  0  0  0  0  0  0  0  0  0
    6.4590    6.4740   13.5280 C   0  0  0  0  0  0  0  0  0  0  0  0
    6.7180    6.5860   12.1810 C   0  0  0  0  0  0  0  0  0  0  0  0
    6.0140    7.4990   11.4300 C   0  0  0  0  0  0  0  0  0  0  0  0
    5.0630    8.2760   12.0680 C   0  0  0  0  0  0  0  0  0  0  0  0
    4.8140    8.1530   13.4190 C   0  0  0  0  0  0  0  0  0  0  0  0
    7.7380    5.7450   11.5190 C   0  0  0  0  0  0  0  0  0  0  0  0
    9.0850    6.2120   11.7510 N   0  0  0  0  0  0  0  0  0  0  0  0
    9.5750    7.5610   11.7180 C   0  0  0  0  0  0  0  0  0  0  0  0
    8.8600    8.5880   11.4690 O   0  0  0  0  0  0  0  0  0  0  0  0
   10.9700    7.5560   12.0090 N   0  0  0  0  0  0  0  0  0  0  0  0
   11.4220    6.2130   11.7220 C   0  0  0  0  0  0  0  0  0  0  0  0
   11.5900    6.1160   10.2170 C   0  0  0  0  0  0  0  0  0  0  0  0
   11.6280    4.6270    9.8910 C   0  0  0  0  0  0  0  0  0  0  0  0
   12.5520    3.9470   10.7790 N   0  0  0  0  0  0  0  0  0  0  0  0
   13.3640    4.7140   11.6860 C   0  0  0  0  0  0  0  0  0  0  0  0
   12.6530    5.8080   12.4130 C   0  0  0  0  0  0  0  0  0  0  0  0
   12.6540    2.5320   10.7420 C   0  0  0  0  0  0  0  0  0  0  0  0
   12.1470    1.8430   11.6850 O   0  0  0  0  0  0  0  0  0  0  0  0
   13.3150    1.8030    9.6740 C   0  0  0  0  0  0  0  0  0  0  0  0
   12.6580    0.9590    8.8550 N   0  0  0  0  0  0  0  0  0  0  0  0
   13.3340    0.3160    7.8870 C   0  0  0  0  0  0  0  0  0  0  0  0
   14.6890    0.4840    7.6930 C   0  0  0  0  0  0  0  0  0  0  0  0
   15.3460    1.3230    8.5070 N   0  0  0  0  0  0  0  0  0  0  0  0
   14.6670    1.9760    9.4880 C   0  0  0  0  0  0  0  0  0  0  0  0
   10.2210    5.4120   12.0670 C   0  0  0  0  0  0  0  0  0  0  0  0
   10.1360    4.2500   12.5480 O   0  0  0  0  0  0  0  0  0  0  0  0
    7.0010    5.7610   14.1380 H   0  0  0  0  0  0  0  0  0  0  0  0
    6.1710    7.6380   10.3570 H   0  0  0  0  0  0  0  0  0  0  0  0
    4.5100    8.9990   11.4630 H   0  0  0  0  0  0  0  0  0  0  0  0
    4.0700    8.7620   13.9190 H   0  0  0  0  0  0  0  0  0  0  0  0
    7.5750    4.7060   11.8370 H   0  0  0  0  0  0  0  0  0  0  0  0
    7.5790    5.7510   10.4030 H   0  0  0  0  0  0  0  0  0  0  0  0
   11.5450    8.3470   12.3530 H   0  0  0  0  0  0  0  0  0  0  0  0
   10.6870    6.5830    9.7730 H   0  0  0  0  0  0  0  0  0  0  0  0
   12.5190    6.6240    9.8910 H   0  0  0  0  0  0  0  0  0  0  0  0
   11.9260    4.4470    8.8630 H   0  0  0  0  0  0  0  0  0  0  0  0
   10.5910    4.2620   10.0310 H   0  0  0  0  0  0  0  0  0  0  0  0
   14.2350    5.0790   11.0980 H   0  0  0  0  0  0  0  0  0  0  0  0
   13.8100    4.0480   12.4800 H   0  0  0  0  0  0  0  0  0  0  0  0
   13.3540    6.6970   12.3940 H   0  0  0  0  0  0  0  0  0  0  0  0
   12.5320    5.6010   13.4990 H   0  0  0  0  0  0  0  0  0  0  0  0
   12.8110   -0.3710    7.2160 H   0  0  0  0  0  0  0  0  0  0  0  0
   15.1760   -0.0610    6.8990 H   0  0  0  0  0  0  0  0  0  0  0  0
   15.2440    2.6560   10.1340 H   0  0  0  0  0  0  0  0  0  0  0  0
  2  1  1  0  0  0  0
  3 29  1  0  0  0  0
  3  2  1  0  0  0  0
  4  3  2  0  0  0  0
  5  6  2  0  0  0  0
  5  4  1  0  0  0  0
  6  7  1  0  0  0  0
  7 32  1  0  0  0  0
  7  2  2  0  0  0  0
  8  9  1  0  0  0  0
  8 33  1  0  0  0  0
  8  4  1  0  0  0  0
  9 27  1  0  0  0  0
 10  9  1  0  0  0  0
 10 12  1  0  0  0  0
 11 10  2  0  0  0  0
 12 35  1  0  0  0  0
 13 12  1  0  0  0  0
 13 27  1  0  0  0  0
 13 18  1  0  0  0  0
 14 13  1  0  0  0  0
 15 39  1  0  0  0  0
 15 14  1  0  0  0  0
 15 16  1  0  0  0  0
 16 17  1  0  0  0  0
 17 18  1  0  0  0  0
 17 41  1  0  0  0  0
 18 43  1  0  0  0  0
 19 16  1  0  0  0  0
 19 20  2  0  0  0  0
 21 19  1  0  0  0  0
 22 21  2  0  0  0  0
 23 22  1  0  0  0  0
 24 23  2  0  0  0  0
 24 25  1  0  0  0  0
 25 26  2  0  0  0  0
 26 21  1  0  0  0  0
 26 46  1  0  0  0  0
 27 28  2  0  0  0  0
 30  5  1  0  0  0  0
 31  6  1  0  0  0  0
 34  8  1  0  0  0  0
 36 14  1  0  0  0  0
 37 14  1  0  0  0  0
 38 15  1  0  0  0  0
 40 17  1  0  0  0  0
 42 18  1  0  0  0  0
 44 23  1  0  0  0  0
 45 24  1  0  0  0  0
M  END
>  <Pose>
1

>  <Score>
-7.03

$$$$
