
 OpenBabel03172210413D

 50 53  0  0  1  0  0  0  0  0999 V2000
   10.9910    2.5400   10.1920 Cl  0  0  0  0  0  0  0  0  0  0  0  0
   11.5190    4.1580   10.6150 C   0  0  0  0  0  0  0  0  0  0  0  0
   10.9820    5.2850   10.0070 C   0  0  0  0  0  0  0  0  0  0  0  0
   11.4540    6.5360   10.4000 C   0  0  0  0  0  0  0  0  0  0  0  0
   12.4230    6.6790   11.3580 C   0  0  0  0  0  0  0  0  0  0  0  0
   12.9620    5.5590   11.9660 C   0  0  0  0  0  0  0  0  0  0  0  0
   12.4960    4.3190   11.5780 C   0  0  0  0  0  0  0  0  0  0  0  0
   12.8670    8.0150   11.7480 C   0  0  2  0  0  0  0  0  0  0  0  0
   14.0410    8.1440   12.5200 N   0  0  0  0  0  4  0  0  0  0  0  0
   13.7370    8.1130   13.8880 C   0  0  0  0  0  0  0  0  0  0  0  0
   14.2920    8.2660   15.0650 C   0  0  0  0  0  0  0  0  0  0  0  0
   13.5200    8.1270   16.3050 C   0  0  0  0  0  0  0  0  0  0  0  0
   12.2150    7.4780   16.2910 C   0  0  0  0  0  0  0  0  0  0  0  0
   11.6920    7.1060   14.9260 C   0  0  0  0  0  0  0  0  0  0  0  0
   12.2990    7.8890   13.9090 N   0  0  0  0  0  0  0  0  0  0  0  0
   11.8550    8.6250   12.7320 C   0  0  2  0  0  0  0  0  0  0  0  0
   10.4380    8.3540   12.4430 C   0  0  0  0  0  0  0  0  0  0  0  0
   15.2210    7.6120   12.0100 C   0  0  0  0  0  0  0  0  0  0  0  0
   15.3060    6.2330   11.9210 C   0  0  0  0  0  0  0  0  0  0  0  0
   16.4190    5.5830   11.4460 C   0  0  0  0  0  0  0  0  0  0  0  0
   17.5530    6.2800   11.0150 C   0  0  0  0  0  0  0  0  0  0  0  0
   17.4410    7.6440   11.1160 C   0  0  0  0  0  0  0  0  0  0  0  0
   16.3250    8.2870   11.5910 C   0  0  0  0  0  0  0  0  0  0  0  0
   18.6650    5.6160   10.5360 O   0  0  0  0  0  0  0  0  0  0  0  0
   19.7020    6.3460    9.9310 C   0  0  0  0  0  0  0  0  0  0  0  0
   12.9090    8.8850   10.6820 O   0  0  0  0  0  0  0  0  0  0  0  0
   10.2210    5.1780    9.2560 H   0  0  0  0  0  0  0  0  0  0  0  0
   10.9670    7.3510    9.8710 H   0  0  0  0  0  0  0  0  0  0  0  0
   13.7140    5.7050   12.7220 H   0  0  0  0  0  0  0  0  0  0  0  0
   12.9520    3.4780   12.0820 H   0  0  0  0  0  0  0  0  0  0  0  0
   14.2590    9.2340   12.4040 H   0  0  0  0  0  0  0  0  0  0  0  0
   15.3670    8.5360   15.1490 H   0  0  0  0  0  0  0  0  0  0  0  0
   13.4520    9.1510   16.7690 H   0  0  0  0  0  0  0  0  0  0  0  0
   14.2100    7.5630   17.0150 H   0  0  0  0  0  0  0  0  0  0  0  0
   11.4600    8.1320   16.8380 H   0  0  0  0  0  0  0  0  0  0  0  0
   12.2390    6.5380   16.8960 H   0  0  0  0  0  0  0  0  0  0  0  0
   10.6030    7.2970   14.9290 H   0  0  0  0  0  0  0  0  0  0  0  0
   11.7890    6.0170   14.7440 H   0  0  0  0  0  0  0  0  0  0  0  0
   12.0330    9.6830   12.8690 H   0  0  0  0  0  0  0  0  0  0  0  0
   10.1290    8.8340   11.4980 H   0  0  0  0  0  0  0  0  0  0  0  0
   10.0720    7.3360   12.6080 H   0  0  0  0  0  0  0  0  0  0  0  0
    9.8780    8.9730   13.2140 H   0  0  0  0  0  0  0  0  0  0  0  0
   14.4730    5.5660   12.2110 H   0  0  0  0  0  0  0  0  0  0  0  0
   16.4860    4.4950   11.3790 H   0  0  0  0  0  0  0  0  0  0  0  0
   18.3160    8.2280   10.7880 H   0  0  0  0  0  0  0  0  0  0  0  0
   16.3810    9.3430   11.6160 H   0  0  0  0  0  0  0  0  0  0  0  0
   20.4040    6.7860   10.6910 H   0  0  0  0  0  0  0  0  0  0  0  0
   19.3770    7.1760    9.2920 H   0  0  0  0  0  0  0  0  0  0  0  0
   20.3600    5.6820    9.3010 H   0  0  0  0  0  0  0  0  0  0  0  0
   13.0470    8.4970    9.7990 H   0  0  0  0  0  0  0  0  0  0  0  0
  1  2  1  0  0  0  0
  2  7  1  0  0  0  0
  3  4  1  0  0  0  0
  3  2  2  0  0  0  0
  4  5  2  0  0  0  0
  5  8  1  0  0  0  0
  5  6  1  0  0  0  0
  6 29  1  0  0  0  0
  7  6  2  0  0  0  0
  7 30  1  0  0  0  0
  8 26  1  6  0  0  0
  8  9  1  0  0  0  0
  8 16  1  0  0  0  0
  9 10  1  0  0  0  0
 10 15  1  0  0  0  0
 10 11  2  0  0  0  0
 11 32  1  0  0  0  0
 11 12  1  0  0  0  0
 12 33  1  0  0  0  0
 12 34  1  0  0  0  0
 13 12  1  0  0  0  0
 13 35  1  0  0  0  0
 13 36  1  0  0  0  0
 14 37  1  0  0  0  0
 14 13  1  0  0  0  0
 15 14  1  0  0  0  0
 16 39  1  1  0  0  0
 16 15  1  0  0  0  0
 17 41  1  0  0  0  0
 17 16  1  0  0  0  0
 17 42  1  0  0  0  0
 18  9  1  0  0  0  0
 19 18  1  0  0  0  0
 19 43  1  0  0  0  0
 20 19  2  0  0  0  0
 21 22  2  0  0  0  0
 21 20  1  0  0  0  0
 22 23  1  0  0  0  0
 23 46  1  0  0  0  0
 23 18  2  0  0  0  0
 24 21  1  0  0  0  0
 25 24  1  0  0  0  0
 25 47  1  0  0  0  0
 27  3  1  0  0  0  0
 28  4  1  0  0  0  0
 31  9  1  0  0  0  0
 38 14  1  0  0  0  0
 40 17  1  0  0  0  0
 44 20  1  0  0  0  0
 45 22  1  0  0  0  0
 48 25  1  0  0  0  0
 49 25  1  0  0  0  0
 50 26  1  0  0  0  0
M  END
>  <Pose>
1

>  <Score>
-4.65

$$$$
