
 OpenBabel03172210413D

 37 40  0  0  0  0  0  0  0  0999 V2000
    9.1600   -1.1020    7.8500 Cl  0  0  0  0  0  0  0  0  0  0  0  0
   10.6130   -0.2630    8.3870 C   0  0  0  0  0  0  0  0  0  0  0  0
   10.5360    0.9380    9.0600 C   0  0  0  0  0  0  0  0  0  0  0  0
   11.6740    1.5980    9.4810 C   0  0  0  0  0  0  0  0  0  0  0  0
   12.9350    1.0890    9.2520 C   0  0  0  0  0  0  0  0  0  0  0  0
   13.0030   -0.1160    8.5770 C   0  0  0  0  0  0  0  0  0  0  0  0
   11.8700   -0.7830    8.1520 C   0  0  0  0  0  0  0  0  0  0  0  0
   14.1050    1.7770    9.6900 N   0  0  0  0  0  0  0  0  0  0  0  0
   14.1990    2.6930   10.6800 C   0  0  0  0  0  0  0  0  0  0  0  0
   13.2330    3.0760   11.3730 O   0  0  0  0  0  0  0  0  0  0  0  0
   15.5010    3.1430   10.8180 C   0  0  0  0  0  0  0  0  0  0  0  0
   16.2140    2.4860    9.8920 C   0  0  0  0  0  0  0  0  0  0  0  0
   17.4760    2.9280   10.0350 N   0  0  0  0  0  0  0  0  0  0  0  0
   17.5260    3.8180   11.0090 N   0  0  0  0  0  0  0  0  0  0  0  0
   16.3150    3.9630   11.5030 N   0  0  0  0  0  0  0  0  0  0  0  0
   15.9120    4.8390   12.5780 C   0  0  0  0  0  0  0  0  0  0  0  0
   14.8040    5.7500   12.2200 C   0  0  0  0  0  0  0  0  0  0  0  0
   13.5060    5.3070   12.3000 C   0  0  0  0  0  0  0  0  0  0  0  0
   12.4910    6.1710   11.9590 C   0  0  0  0  0  0  0  0  0  0  0  0
   12.7510    7.4630   11.5410 C   0  0  0  0  0  0  0  0  0  0  0  0
   14.0510    7.9080   11.4600 C   0  0  0  0  0  0  0  0  0  0  0  0
   15.0490    7.0380   11.8030 C   0  0  0  0  0  0  0  0  0  0  0  0
   15.3490    1.6550    9.2110 C   0  0  0  0  0  0  0  0  0  0  0  0
   15.6850    0.8880    8.2680 O   0  0  0  0  0  0  0  0  0  0  0  0
    9.5410    1.3280    9.2340 H   0  0  0  0  0  0  0  0  0  0  0  0
   11.6070    2.5430   10.0110 H   0  0  0  0  0  0  0  0  0  0  0  0
   13.9750   -0.5310    8.3870 H   0  0  0  0  0  0  0  0  0  0  0  0
   11.9280   -1.7390    7.6170 H   0  0  0  0  0  0  0  0  0  0  0  0
   18.3090    2.6360    9.4830 H   0  0  0  0  0  0  0  0  0  0  0  0
   18.3920    4.3350   11.3440 H   0  0  0  0  0  0  0  0  0  0  0  0
   15.5790    4.2110   13.4520 H   0  0  0  0  0  0  0  0  0  0  0  0
   16.7860    5.4240   12.9740 H   0  0  0  0  0  0  0  0  0  0  0  0
   13.2630    4.2860   12.6290 H   0  0  0  0  0  0  0  0  0  0  0  0
   11.4570    5.8090   12.0270 H   0  0  0  0  0  0  0  0  0  0  0  0
   11.9500    8.1600   11.2670 H   0  0  0  0  0  0  0  0  0  0  0  0
   14.2850    8.9090   11.1380 H   0  0  0  0  0  0  0  0  0  0  0  0
   16.0740    7.4230   11.7260 H   0  0  0  0  0  0  0  0  0  0  0  0
  1  2  1  0  0  0  0
  2  3  1  0  0  0  0
  3 25  1  0  0  0  0
  3  4  2  0  0  0  0
  4 26  1  0  0  0  0
  5  4  1  0  0  0  0
  5  8  1  0  0  0  0
  6  5  2  0  0  0  0
  7  2  2  0  0  0  0
  7  6  1  0  0  0  0
  8  9  1  0  0  0  0
  9 11  1  0  0  0  0
  9 10  2  0  0  0  0
 11 15  1  0  0  0  0
 12 13  1  0  0  0  0
 12 11  2  0  0  0  0
 13 14  1  0  0  0  0
 14 30  1  0  0  0  0
 14 15  1  0  0  0  0
 15 16  1  0  0  0  0
 16 32  1  0  0  0  0
 16 31  1  0  0  0  0
 17 18  1  0  0  0  0
 17 16  1  0  0  0  0
 18 33  1  0  0  0  0
 19 34  1  0  0  0  0
 19 18  2  0  0  0  0
 20 19  1  0  0  0  0
 21 20  2  0  0  0  0
 21 22  1  0  0  0  0
 22 17  2  0  0  0  0
 23  8  1  0  0  0  0
 23 12  1  0  0  0  0
 24 23  2  0  0  0  0
 27  6  1  0  0  0  0
 28  7  1  0  0  0  0
 29 13  1  0  0  0  0
 35 20  1  0  0  0  0
 36 21  1  0  0  0  0
 37 22  1  0  0  0  0
M  END
>  <Pose>
1

>  <Score>
-6.79

$$$$
