
 OpenBabel03172210413D

 56 59  0  0  1  0  0  0  0  0999 V2000
    5.0680    9.5600   14.7480 S   0  0  0  0  0  0  0  0  0  0  0  0
    5.6760   10.9070   14.7410 O   0  0  0  0  0  0  0  0  0  0  0  0
    3.6830    9.6530   14.1540 O   0  0  0  0  0  0  0  0  0  0  0  0
    5.9420    8.3840   13.8720 N   0  0  0  0  0  0  0  0  0  0  0  0
    7.2530    8.1500   14.3400 C   0  0  0  0  0  0  0  0  0  0  0  0
    7.7910    6.9090   13.5970 C   0  0  0  0  0  0  0  0  0  0  0  0
    7.9550    7.3780   12.2450 N   0  0  0  0  0  0  0  0  0  0  0  0
    6.6620    7.6960   11.6010 C   0  0  0  0  0  0  0  0  0  0  0  0
    5.6860    8.3460   12.4940 C   0  0  0  0  0  0  0  0  0  0  0  0
    9.1220    7.5580   11.5050 C   0  0  0  0  0  0  0  0  0  0  0  0
    8.9810    8.4330   10.5280 O   0  0  0  0  0  0  0  0  0  0  0  0
   10.4540    7.0120   11.5630 C   0  0  0  0  0  0  0  0  0  0  0  0
   10.6580    5.6670   11.1190 N   0  0  0  0  0  0  0  0  0  0  0  0
   10.2030    5.1210    9.8800 C   0  0  0  0  0  0  0  0  0  0  0  0
    9.5310    5.7850    9.0200 O   0  0  0  0  0  0  0  0  0  0  0  0
   10.6250    3.7760    9.8090 N   0  0  0  0  0  0  0  0  0  0  0  0
   11.6740    3.5770   10.7970 C   0  0  1  0  0  0  0  0  0  0  0  0
   11.6420    2.2470   11.4640 C   0  0  1  0  0  0  0  0  0  0  0  0
   13.0900    1.8500   11.7740 C   0  0  0  0  0  0  0  0  0  0  0  0
   13.7130    1.4740   10.4440 C   0  0  0  0  0  0  0  0  0  0  0  0
   13.4050    2.5490    9.4300 C   0  0  0  0  0  0  0  0  0  0  0  0
   12.9890    3.8490   10.1020 C   0  0  0  0  0  0  0  0  0  0  0  0
   10.9130    2.2370   12.7880 C   0  0  0  0  0  0  0  0  0  0  0  0
   11.3660    4.6330   11.8070 C   0  0  0  0  0  0  0  0  0  0  0  0
   11.6670    4.6220   13.0170 O   0  0  0  0  0  0  0  0  0  0  0  0
    4.9220    8.9740   16.4140 C   0  0  0  0  0  0  0  0  0  0  0  0
    4.2880    7.5070   17.0030 S   0  0  0  0  0  0  0  0  0  0  0  0
    4.5270    7.7550   18.6700 C   0  0  0  0  0  0  0  0  0  0  0  0
    5.1040    8.9970   18.7230 C   0  0  0  0  0  0  0  0  0  0  0  0
    5.3060    9.6230   17.5500 C   0  0  0  0  0  0  0  0  0  0  0  0
    4.1270    6.6720   20.0130 Cl  0  0  0  0  0  0  0  0  0  0  0  0
    7.9320    9.0090   14.1570 H   0  0  0  0  0  0  0  0  0  0  0  0
    7.2410    7.9790   15.4270 H   0  0  0  0  0  0  0  0  0  0  0  0
    8.6360    6.4820   14.0940 H   0  0  0  0  0  0  0  0  0  0  0  0
    6.8880    6.2120   13.6140 H   0  0  0  0  0  0  0  0  0  0  0  0
    6.2650    6.7110   11.2630 H   0  0  0  0  0  0  0  0  0  0  0  0
    6.8310    8.2830   10.6760 H   0  0  0  0  0  0  0  0  0  0  0  0
    5.5380    9.4100   12.1370 H   0  0  0  0  0  0  0  0  0  0  0  0
    4.6650    7.8860   12.3410 H   0  0  0  0  0  0  0  0  0  0  0  0
   11.2120    7.6920   11.0300 H   0  0  0  0  0  0  0  0  0  0  0  0
   10.8710    7.0680   12.6300 H   0  0  0  0  0  0  0  0  0  0  0  0
   10.2690    3.0430    9.1770 H   0  0  0  0  0  0  0  0  0  0  0  0
   11.2040    1.4730   10.7920 H   0  0  0  0  0  0  0  0  0  0  0  0
   13.5920    2.7410   12.1660 H   0  0  0  0  0  0  0  0  0  0  0  0
   13.1350    1.0100   12.4920 H   0  0  0  0  0  0  0  0  0  0  0  0
   13.2510    0.4910   10.1500 H   0  0  0  0  0  0  0  0  0  0  0  0
   14.8000    1.3280   10.5110 H   0  0  0  0  0  0  0  0  0  0  0  0
   12.5670    2.1930    8.7930 H   0  0  0  0  0  0  0  0  0  0  0  0
   14.2800    2.7050    8.7540 H   0  0  0  0  0  0  0  0  0  0  0  0
   12.8090    4.5710    9.2530 H   0  0  0  0  0  0  0  0  0  0  0  0
   13.7740    4.2170   10.7700 H   0  0  0  0  0  0  0  0  0  0  0  0
   10.0690    2.9310   12.8420 H   0  0  0  0  0  0  0  0  0  0  0  0
   10.5110    1.1930   12.9490 H   0  0  0  0  0  0  0  0  0  0  0  0
   11.6180    2.3790   13.6570 H   0  0  0  0  0  0  0  0  0  0  0  0
    5.3730    9.4190   19.7210 H   0  0  0  0  0  0  0  0  0  0  0  0
    5.7660   10.6310   17.4900 H   0  0  0  0  0  0  0  0  0  0  0  0
  1 26  1  0  0  0  0
  2  1  2  0  0  0  0
  3  1  2  0  0  0  0
  4  5  1  0  0  0  0
  4  1  1  0  0  0  0
  5 33  1  0  0  0  0
  6 35  1  0  0  0  0
  6 34  1  0  0  0  0
  6  5  1  0  0  0  0
  7  6  1  0  0  0  0
  8  7  1  0  0  0  0
  8  9  1  0  0  0  0
  9  4  1  0  0  0  0
 10 12  1  0  0  0  0
 10  7  1  0  0  0  0
 11 10  2  0  0  0  0
 12 41  1  0  0  0  0
 13 12  1  0  0  0  0
 13 24  1  0  0  0  0
 14 13  1  0  0  0  0
 15 14  2  0  0  0  0
 16 14  1  0  0  0  0
 16 17  1  0  0  0  0
 17 18  1  0  0  0  0
 17 24  1  1  0  0  0
 18 43  1  6  0  0  0
 18 19  1  0  0  0  0
 18 23  1  0  0  0  0
 19 44  1  0  0  0  0
 19 45  1  0  0  0  0
 20 47  1  0  0  0  0
 20 19  1  0  0  0  0
 21 22  1  0  0  0  0
 21 20  1  0  0  0  0
 22 51  1  0  0  0  0
 22 17  1  0  0  0  0
 23 52  1  0  0  0  0
 23 53  1  0  0  0  0
 23 54  1  0  0  0  0
 24 25  2  0  0  0  0
 26 27  1  0  0  0  0
 26 30  2  0  0  0  0
 27 28  1  0  0  0  0
 28 29  2  0  0  0  0
 28 31  1  0  0  0  0
 29 55  1  0  0  0  0
 30 29  1  0  0  0  0
 32  5  1  0  0  0  0
 36  8  1  0  0  0  0
 37  8  1  0  0  0  0
 38  9  1  0  0  0  0
 39  9  1  0  0  0  0
 40 12  1  0  0  0  0
 42 16  1  0  0  0  0
 46 20  1  0  0  0  0
 48 21  1  0  0  0  0
 49 21  1  0  0  0  0
 50 22  1  0  0  0  0
 56 30  1  0  0  0  0
M  END
>  <Pose>
1

>  <Score>
-6.04

$$$$
