
 OpenBabel03172210413D

 60 63  0  0  1  0  0  0  0  0999 V2000
   20.2780    3.0390   11.3290 Cl  0  0  0  0  0  0  0  0  0  0  0  0
   18.7820    3.8890   11.7170 C   0  0  0  0  0  0  0  0  0  0  0  0
   17.6380    3.5870   11.0300 C   0  0  0  0  0  0  0  0  0  0  0  0
   16.4620    4.2330   11.3110 C   0  0  0  0  0  0  0  0  0  0  0  0
   16.4840    5.2110   12.3240 C   0  0  0  0  0  0  0  0  0  0  0  0
   17.6270    5.4970   12.9940 C   0  0  0  0  0  0  0  0  0  0  0  0
   18.8000    4.8490   12.7120 C   0  0  0  0  0  0  0  0  0  0  0  0
   15.3250    4.0160   10.7180 O   0  0  0  0  0  0  0  0  0  0  0  0
   14.2740    3.2700   10.4630 C   0  0  0  0  0  0  0  0  0  0  0  0
   12.9250    3.6030   11.0330 C   0  0  1  0  0  0  0  0  0  0  0  0
   13.1740    4.3470   12.1960 O   0  0  0  0  0  0  0  0  0  0  0  0
   13.3770    5.6830   11.9840 C   0  0  0  0  0  0  0  0  0  0  0  0
   12.1320    6.4410   11.5710 C   0  0  0  0  0  0  0  0  0  0  0  0
   11.4290    5.5000   10.6600 N   0  0  0  0  0  0  0  0  0  0  0  0
   12.2700    4.5620   10.0220 C   0  0  0  0  0  0  0  0  0  0  0  0
   10.0620    5.6250   10.5250 C   0  0  0  0  0  0  0  0  0  0  0  0
    9.5180    5.6200    9.3440 O   0  0  0  0  0  0  0  0  0  0  0  0
    9.1380    5.7660   11.6080 C   0  0  0  0  0  0  0  0  0  0  0  0
    9.4970    5.7860   12.8920 N   0  0  0  0  0  0  0  0  0  0  0  0
    8.6330    5.9190   13.9170 C   0  0  0  0  0  0  0  0  0  0  0  0
    7.2780    6.0450   13.6520 C   0  0  0  0  0  0  0  0  0  0  0  0
    6.8840    6.0310   12.3890 N   0  0  0  0  0  0  0  0  0  0  0  0
    7.7640    5.8970   11.3820 C   0  0  0  0  0  0  0  0  0  0  0  0
    6.3730    6.1880   14.8180 C   0  0  0  0  0  0  0  0  0  0  0  0
   12.0580    2.4810   11.3810 C   0  0  0  0  0  0  0  0  0  0  0  0
   11.4800    1.6800   10.3010 C   0  0  0  0  0  0  0  0  0  0  0  0
   10.2700    1.7640   10.0170 O   0  0  0  0  0  0  0  0  0  0  0  0
   12.2760    0.7790    9.5370 N   0  0  0  0  0  0  0  0  0  0  0  0
   13.7260    0.9190    9.4620 C   0  0  0  0  0  0  0  0  0  0  0  0
   14.1070    0.8080    8.0010 C   0  0  0  0  0  0  0  0  0  0  0  0
   13.6560   -0.4210    7.5090 O   0  0  0  0  0  0  0  0  0  0  0  0
   12.2650   -0.3820    7.4260 C   0  0  0  0  0  0  0  0  0  0  0  0
   11.6860   -0.3210    8.8020 C   0  0  0  0  0  0  0  0  0  0  0  0
   17.6510    2.8450   10.2460 H   0  0  0  0  0  0  0  0  0  0  0  0
   15.5750    5.7560   12.5880 H   0  0  0  0  0  0  0  0  0  0  0  0
   17.6650    6.2490   13.7810 H   0  0  0  0  0  0  0  0  0  0  0  0
   19.7260    5.0370   13.2100 H   0  0  0  0  0  0  0  0  0  0  0  0
   14.1380    3.0920    9.3230 H   0  0  0  0  0  0  0  0  0  0  0  0
   14.4880    2.1810   10.7960 H   0  0  0  0  0  0  0  0  0  0  0  0
   13.7190    6.1300   12.9320 H   0  0  0  0  0  0  0  0  0  0  0  0
   14.1940    5.8230   11.2540 H   0  0  0  0  0  0  0  0  0  0  0  0
   12.4460    7.3430   11.0440 H   0  0  0  0  0  0  0  0  0  0  0  0
   11.4640    6.5850   12.4200 H   0  0  0  0  0  0  0  0  0  0  0  0
   13.1570    5.1710    9.6260 H   0  0  0  0  0  0  0  0  0  0  0  0
   11.9140    4.0230    9.1640 H   0  0  0  0  0  0  0  0  0  0  0  0
    9.0220    5.9230   14.9270 H   0  0  0  0  0  0  0  0  0  0  0  0
    7.4130    5.8880   10.3620 H   0  0  0  0  0  0  0  0  0  0  0  0
    5.3800    6.5970   14.5160 H   0  0  0  0  0  0  0  0  0  0  0  0
    6.2730    5.1810   15.2680 H   0  0  0  0  0  0  0  0  0  0  0  0
    6.7810    6.8570   15.6000 H   0  0  0  0  0  0  0  0  0  0  0  0
   11.1870    2.8650   12.0430 H   0  0  0  0  0  0  0  0  0  0  0  0
   12.5770    1.8060   12.1260 H   0  0  0  0  0  0  0  0  0  0  0  0
   14.0630    1.8870    9.8790 H   0  0  0  0  0  0  0  0  0  0  0  0
   14.2240    0.0630    9.9870 H   0  0  0  0  0  0  0  0  0  0  0  0
   13.6670    1.6570    7.4600 H   0  0  0  0  0  0  0  0  0  0  0  0
   15.2140    0.8000    7.8660 H   0  0  0  0  0  0  0  0  0  0  0  0
   11.8980    0.4890    6.8540 H   0  0  0  0  0  0  0  0  0  0  0  0
   11.9380   -1.3470    6.9700 H   0  0  0  0  0  0  0  0  0  0  0  0
   10.5860   -0.2210    8.7070 H   0  0  0  0  0  0  0  0  0  0  0  0
   11.8590   -1.2470    9.3920 H   0  0  0  0  0  0  0  0  0  0  0  0
  1  2  1  0  0  0  0
  2  7  1  0  0  0  0
  3  4  1  0  0  0  0
  3  2  2  0  0  0  0
  4  5  2  0  0  0  0
  5 35  1  0  0  0  0
  5  6  1  0  0  0  0
  6 36  1  0  0  0  0
  7  6  2  0  0  0  0
  7 37  1  0  0  0  0
  8  4  1  0  0  0  0
  9  8  1  0  0  0  0
  9 39  1  0  0  0  0
 10  9  1  6  0  0  0
 10 25  1  0  0  0  0
 10 11  1  0  0  0  0
 12 11  1  0  0  0  0
 12 40  1  0  0  0  0
 13 12  1  0  0  0  0
 13 43  1  0  0  0  0
 14 13  1  0  0  0  0
 15 14  1  0  0  0  0
 15 10  1  0  0  0  0
 16 14  1  0  0  0  0
 16 18  1  0  0  0  0
 17 16  2  0  0  0  0
 18 19  1  0  0  0  0
 19 20  2  0  0  0  0
 20 46  1  0  0  0  0
 21 20  1  0  0  0  0
 21 24  1  0  0  0  0
 22 21  2  0  0  0  0
 23 18  2  0  0  0  0
 23 22  1  0  0  0  0
 24 49  1  0  0  0  0
 24 50  1  0  0  0  0
 25 51  1  0  0  0  0
 25 52  1  0  0  0  0
 26 25  1  0  0  0  0
 27 26  2  0  0  0  0
 28 26  1  0  0  0  0
 29 28  1  0  0  0  0
 29 53  1  0  0  0  0
 29 54  1  0  0  0  0
 30 29  1  0  0  0  0
 31 30  1  0  0  0  0
 32 31  1  0  0  0  0
 32 33  1  0  0  0  0
 33 60  1  0  0  0  0
 33 28  1  0  0  0  0
 34  3  1  0  0  0  0
 38  9  1  0  0  0  0
 41 12  1  0  0  0  0
 42 13  1  0  0  0  0
 44 15  1  0  0  0  0
 45 15  1  0  0  0  0
 47 23  1  0  0  0  0
 48 24  1  0  0  0  0
 55 30  1  0  0  0  0
 56 30  1  0  0  0  0
 57 32  1  0  0  0  0
 58 32  1  0  0  0  0
 59 33  1  0  0  0  0
M  END
>  <Pose>
1

>  <Score>
-6.74

$$$$
