
 OpenBabel03172210413D

 58 61  0  0  1  0  0  0  0  0999 V2000
    3.6080    8.0300   16.9950 Cl  0  0  0  0  0  0  0  0  0  0  0  0
    4.5690    8.1700   15.5310 C   0  0  0  0  0  0  0  0  0  0  0  0
    5.0120    7.0830   14.8220 C   0  0  0  0  0  0  0  0  0  0  0  0
    5.7700    7.2030   13.6680 C   0  0  0  0  0  0  0  0  0  0  0  0
    6.3280    6.3500   12.7920 N   0  0  0  0  0  0  0  0  0  0  0  0
    6.9770    7.0130   11.8200 C   0  0  0  0  0  0  0  0  0  0  0  0
    6.8060    8.3340   12.1180 N   0  0  0  0  0  0  0  0  0  0  0  0
    6.0790    8.4750   13.2320 C   0  0  0  0  0  0  0  0  0  0  0  0
    5.6530    9.5950   13.9140 C   0  0  0  0  0  0  0  0  0  0  0  0
    4.8950    9.4280   15.0680 C   0  0  0  0  0  0  0  0  0  0  0  0
    7.3700    9.3940   11.2840 C   0  0  0  0  0  0  0  0  0  0  0  0
    7.7270    6.4760   10.6580 C   0  0  0  0  0  0  0  0  0  0  0  0
    8.8110    5.5160   11.0280 C   0  0  0  0  0  0  0  0  0  0  0  0
   10.1560    5.9310   10.5630 C   0  0  0  0  0  0  0  0  0  0  0  0
   10.2690    6.9920    9.8970 O   0  0  0  0  0  0  0  0  0  0  0  0
   11.3010    5.1650   10.8480 N   0  0  0  0  0  0  0  0  0  0  0  0
   11.9000    4.2530    9.8720 C   0  0  0  0  0  0  0  0  0  0  0  0
   11.7340    2.8670   10.4630 C   0  0  2  0  0  0  0  0  0  0  0  0
   12.3400    2.7930   11.8450 C   0  0  1  0  0  0  0  0  0  0  0  0
   13.0270    4.1180   12.1980 C   0  0  0  0  0  0  0  0  0  0  0  0
   11.9800    5.2170   12.1310 C   0  0  0  0  0  0  0  0  0  0  0  0
   11.3550    2.6350   12.8490 O   0  0  0  0  0  0  0  0  0  0  0  0
   13.3010    1.6560   12.0240 C   0  0  0  0  0  0  0  0  0  0  0  0
   12.1050    1.8070    9.5940 N   0  0  0  0  0  0  0  0  0  0  0  0
   11.2350    0.8030    9.2770 C   0  0  0  0  0  0  0  0  0  0  0  0
   11.5940   -0.2280    8.4350 C   0  0  0  0  0  0  0  0  0  0  0  0
   12.8600   -0.2530    7.8950 C   0  0  0  0  0  0  0  0  0  0  0  0
   13.2320   -1.1900    7.1100 O   0  0  0  0  0  0  0  0  0  0  0  0
   13.7120    0.7380    8.2120 N   0  0  0  0  0  0  0  0  0  0  0  0
   13.3110    1.7380    9.0510 C   0  0  0  0  0  0  0  0  0  0  0  0
   14.1460    2.6330    9.3090 O   0  0  0  0  0  0  0  0  0  0  0  0
   10.6720   -1.3320    8.0700 C   0  0  0  0  0  0  0  0  0  0  0  0
    4.7620    6.0900   15.1770 H   0  0  0  0  0  0  0  0  0  0  0  0
    5.8960   10.5900   13.5700 H   0  0  0  0  0  0  0  0  0  0  0  0
    4.5580   10.2980   15.6070 H   0  0  0  0  0  0  0  0  0  0  0  0
    6.8250    9.4620   10.3010 H   0  0  0  0  0  0  0  0  0  0  0  0
    8.4290    9.1740   11.0190 H   0  0  0  0  0  0  0  0  0  0  0  0
    7.2710   10.3650   11.8240 H   0  0  0  0  0  0  0  0  0  0  0  0
    8.1130    7.3000   10.0040 H   0  0  0  0  0  0  0  0  0  0  0  0
    6.9960    5.9260   10.0280 H   0  0  0  0  0  0  0  0  0  0  0  0
    8.8270    5.4330   12.1520 H   0  0  0  0  0  0  0  0  0  0  0  0
    8.5280    4.5200   10.6280 H   0  0  0  0  0  0  0  0  0  0  0  0
   12.9580    4.5800    9.7980 H   0  0  0  0  0  0  0  0  0  0  0  0
   11.3730    4.2860    8.9020 H   0  0  0  0  0  0  0  0  0  0  0  0
   10.6140    2.7880   10.6240 H   0  0  0  0  0  0  0  0  0  0  0  0
   13.3520    4.0500   13.2550 H   0  0  0  0  0  0  0  0  0  0  0  0
   13.9050    4.3110   11.5840 H   0  0  0  0  0  0  0  0  0  0  0  0
   12.4960    6.1990   12.1870 H   0  0  0  0  0  0  0  0  0  0  0  0
   11.2880    5.1160   12.9800 H   0  0  0  0  0  0  0  0  0  0  0  0
   11.7140    3.0870   13.6520 H   0  0  0  0  0  0  0  0  0  0  0  0
   13.2270    1.2070   13.0570 H   0  0  0  0  0  0  0  0  0  0  0  0
   14.3760    1.9810   11.9490 H   0  0  0  0  0  0  0  0  0  0  0  0
   13.1230    0.8330   11.3220 H   0  0  0  0  0  0  0  0  0  0  0  0
   10.2230    0.8250    9.7090 H   0  0  0  0  0  0  0  0  0  0  0  0
   14.6660    0.7240    7.8080 H   0  0  0  0  0  0  0  0  0  0  0  0
   10.1420   -1.0000    7.1420 H   0  0  0  0  0  0  0  0  0  0  0  0
   11.2330   -2.2500    7.7950 H   0  0  0  0  0  0  0  0  0  0  0  0
    9.9590   -1.5290    8.8970 H   0  0  0  0  0  0  0  0  0  0  0  0
  2  1  1  0  0  0  0
  3 33  1  0  0  0  0
  3  2  2  0  0  0  0
  4  3  1  0  0  0  0
  5  4  1  0  0  0  0
  6  7  1  0  0  0  0
  6  5  2  0  0  0  0
  7  8  1  0  0  0  0
  8  4  2  0  0  0  0
  8  9  1  0  0  0  0
  9 10  2  0  0  0  0
 10  2  1  0  0  0  0
 10 35  1  0  0  0  0
 11 38  1  0  0  0  0
 11  7  1  0  0  0  0
 12 13  1  0  0  0  0
 12  6  1  0  0  0  0
 13 41  1  0  0  0  0
 14 16  1  0  0  0  0
 14 13  1  0  0  0  0
 15 14  2  0  0  0  0
 16 21  1  0  0  0  0
 17 18  1  0  0  0  0
 17 16  1  0  0  0  0
 18 45  1  1  0  0  0
 18 19  1  0  0  0  0
 19 23  1  0  0  0  0
 19 20  1  0  0  0  0
 19 22  1  1  0  0  0
 20 46  1  0  0  0  0
 21 48  1  0  0  0  0
 21 20  1  0  0  0  0
 21 49  1  0  0  0  0
 22 50  1  0  0  0  0
 23 51  1  0  0  0  0
 24 18  1  0  0  0  0
 25 24  1  0  0  0  0
 25 54  1  0  0  0  0
 26 25  2  0  0  0  0
 27 29  1  0  0  0  0
 27 26  1  0  0  0  0
 28 27  2  0  0  0  0
 29 30  1  0  0  0  0
 30 31  2  0  0  0  0
 30 24  1  0  0  0  0
 32 26  1  0  0  0  0
 32 58  1  0  0  0  0
 34  9  1  0  0  0  0
 36 11  1  0  0  0  0
 37 11  1  0  0  0  0
 39 12  1  0  0  0  0
 40 12  1  0  0  0  0
 42 13  1  0  0  0  0
 43 17  1  0  0  0  0
 44 17  1  0  0  0  0
 47 20  1  0  0  0  0
 52 23  1  0  0  0  0
 53 23  1  0  0  0  0
 55 29  1  0  0  0  0
 56 32  1  0  0  0  0
 57 32  1  0  0  0  0
M  END
>  <Pose>
1

>  <Score>
-6.70

$$$$
