
 OpenBabel03172210413D

 45 48  0  0  0  0  0  0  0  0999 V2000
    8.0890    8.8220   11.4360 Cl  0  0  0  0  0  0  0  0  0  0  0  0
    9.0220    7.3600   11.6710 C   0  0  0  0  0  0  0  0  0  0  0  0
    9.9090    6.9880   10.7060 C   0  0  0  0  0  0  0  0  0  0  0  0
   10.6740    5.8270   10.8560 C   0  0  0  0  0  0  0  0  0  0  0  0
   10.5760    5.0260   11.9450 C   0  0  0  0  0  0  0  0  0  0  0  0
    9.6540    5.4370   12.9200 C   0  0  0  0  0  0  0  0  0  0  0  0
    8.8920    6.5750   12.7930 C   0  0  0  0  0  0  0  0  0  0  0  0
   11.3890    3.8340   12.1740 C   0  0  0  0  0  0  0  0  0  0  0  0
   12.7780    3.9120   11.8100 N   0  0  0  0  0  0  0  0  0  0  0  0
   13.3700    3.0150   10.9640 C   0  0  0  0  0  0  0  0  0  0  0  0
   14.6900    3.3330   10.7960 C   0  0  0  0  0  0  0  0  0  0  0  0
   14.8670    4.4150   11.5420 N   0  0  0  0  0  0  0  0  0  0  0  0
   13.7100    4.7930   12.1760 C   0  0  0  0  0  0  0  0  0  0  0  0
   13.6420    5.9250   13.0180 N   0  0  0  0  0  0  0  0  0  0  0  0
   14.7700    6.1780   13.9050 C   0  0  0  0  0  0  0  0  0  0  0  0
   14.8640    7.7150   13.9310 C   0  0  0  0  0  0  0  0  0  0  0  0
   14.4700    8.2940   12.6660 N   0  0  0  0  0  0  0  0  0  0  0  0
   13.0700    8.1130   12.3470 C   0  0  0  0  0  0  0  0  0  0  0  0
   12.6120    6.8910   13.1300 C   0  0  0  0  0  0  0  0  0  0  0  0
   15.4970    2.6060   10.0010 N   0  0  0  0  0  0  0  0  0  0  0  0
   15.0000    1.5270    9.3420 C   0  0  0  0  0  0  0  0  0  0  0  0
   15.7880    0.8810    8.6150 O   0  0  0  0  0  0  0  0  0  0  0  0
   13.7100    1.1740    9.4750 N   0  0  0  0  0  0  0  0  0  0  0  0
   12.9150    1.9060   10.2700 C   0  0  0  0  0  0  0  0  0  0  0  0
   11.7230    1.5380   10.3590 O   0  0  0  0  0  0  0  0  0  0  0  0
   16.8850    3.0150    9.8800 C   0  0  0  0  0  0  0  0  0  0  0  0
   10.0490    7.5700    9.8080 H   0  0  0  0  0  0  0  0  0  0  0  0
   11.3490    5.5860   10.0500 H   0  0  0  0  0  0  0  0  0  0  0  0
    9.5570    4.8060   13.8110 H   0  0  0  0  0  0  0  0  0  0  0  0
    8.1810    6.8920   13.5440 H   0  0  0  0  0  0  0  0  0  0  0  0
   10.9040    2.8970   11.7580 H   0  0  0  0  0  0  0  0  0  0  0  0
   11.3230    3.6190   13.2780 H   0  0  0  0  0  0  0  0  0  0  0  0
   15.7010    5.7320   13.5480 H   0  0  0  0  0  0  0  0  0  0  0  0
   14.5720    5.8710   14.9430 H   0  0  0  0  0  0  0  0  0  0  0  0
   14.3260    8.1310   14.8030 H   0  0  0  0  0  0  0  0  0  0  0  0
   15.9480    7.9620   14.0520 H   0  0  0  0  0  0  0  0  0  0  0  0
   14.6460    9.3100   12.7360 H   0  0  0  0  0  0  0  0  0  0  0  0
   12.8870    7.9960   11.2600 H   0  0  0  0  0  0  0  0  0  0  0  0
   12.4590    8.9870   12.6750 H   0  0  0  0  0  0  0  0  0  0  0  0
   12.5700    7.2980   14.2070 H   0  0  0  0  0  0  0  0  0  0  0  0
   11.5910    6.5990   12.9700 H   0  0  0  0  0  0  0  0  0  0  0  0
   13.3790    0.3380    8.9490 H   0  0  0  0  0  0  0  0  0  0  0  0
   17.4260    2.8480   10.8430 H   0  0  0  0  0  0  0  0  0  0  0  0
   16.9770    4.1080    9.6320 H   0  0  0  0  0  0  0  0  0  0  0  0
   17.4290    2.4600    9.1080 H   0  0  0  0  0  0  0  0  0  0  0  0
  1  2  1  0  0  0  0
  2  7  1  0  0  0  0
  3  4  1  0  0  0  0
  3  2  2  0  0  0  0
  4  5  2  0  0  0  0
  5  8  1  0  0  0  0
  5  6  1  0  0  0  0
  6 29  1  0  0  0  0
  7  6  2  0  0  0  0
  7 30  1  0  0  0  0
  8 32  1  0  0  0  0
  9  8  1  0  0  0  0
  9 13  1  0  0  0  0
 10  9  1  0  0  0  0
 11 10  2  0  0  0  0
 11 12  1  0  0  0  0
 12 13  2  0  0  0  0
 13 14  1  0  0  0  0
 14 19  1  0  0  0  0
 14 15  1  0  0  0  0
 15 16  1  0  0  0  0
 15 34  1  0  0  0  0
 16 36  1  0  0  0  0
 16 35  1  0  0  0  0
 17 37  1  0  0  0  0
 17 16  1  0  0  0  0
 18 17  1  0  0  0  0
 18 39  1  0  0  0  0
 18 19  1  0  0  0  0
 19 40  1  0  0  0  0
 20 11  1  0  0  0  0
 21 23  1  0  0  0  0
 21 20  1  0  0  0  0
 22 21  2  0  0  0  0
 23 24  1  0  0  0  0
 24 25  2  0  0  0  0
 24 10  1  0  0  0  0
 26 20  1  0  0  0  0
 26 43  1  0  0  0  0
 27  3  1  0  0  0  0
 28  4  1  0  0  0  0
 31  8  1  0  0  0  0
 33 15  1  0  0  0  0
 38 18  1  0  0  0  0
 41 19  1  0  0  0  0
 42 23  1  0  0  0  0
 44 26  1  0  0  0  0
 45 26  1  0  0  0  0
M  END
>  <Pose>
1

>  <Score>
-6.09

$$$$
