
 OpenBabel03172210413D

 47 51  0  0  1  0  0  0  0  0999 V2000
   12.5710    3.0060    9.7460 Cl  0  0  0  0  0  0  0  0  0  0  0  0
   11.3140    3.9490   10.5270 C   0  0  0  0  0  0  0  0  0  0  0  0
   11.3280    4.1090   11.8910 C   0  0  0  0  0  0  0  0  0  0  0  0
   10.3220    4.8510   12.4990 C   0  0  0  0  0  0  0  0  0  0  0  0
    9.3020    5.4430   11.8070 C   0  0  0  0  0  0  0  0  0  0  0  0
    9.3150    5.2670   10.4450 C   0  0  0  0  0  0  0  0  0  0  0  0
   10.3140    4.5250    9.8060 C   0  0  0  0  0  0  0  0  0  0  0  0
    8.2870    6.1870   12.4180 N   0  0  0  0  0  0  0  0  0  0  0  0
    6.9540    6.4730   11.9390 C   0  0  0  0  0  0  0  0  0  0  0  0
    6.4860    6.1290   10.8500 O   0  0  0  0  0  0  0  0  0  0  0  0
    6.2240    7.2450   12.9530 C   0  0  2  0  0  0  0  0  0  0  0  0
    5.4810    8.4570   12.4420 C   0  0  2  0  0  0  0  0  0  0  0  0
    6.3620    9.5940   12.5580 N   0  0  0  0  0  0  0  0  0  0  0  0
    7.6850    9.0590   12.8100 C   0  0  2  0  0  0  0  0  0  0  0  0
    7.3590    7.8880   13.7140 C   0  0  2  0  0  0  0  0  0  0  0  0
    8.3820    6.8260   13.7010 C   0  0  0  0  0  0  0  0  0  0  0  0
    9.1380    6.5860   14.6460 O   0  0  0  0  0  0  0  0  0  0  0  0
    8.5810   10.0520   13.5020 C   0  0  0  0  0  0  0  0  0  0  0  0
    8.1430   10.4210   14.8450 C   0  0  0  0  0  0  0  0  0  0  0  0
    6.9390   10.6370   15.0810 O   0  0  0  0  0  0  0  0  0  0  0  0
    9.0880   10.5380   15.8900 N   0  0  0  0  0  0  0  0  0  0  0  0
    4.2880    8.5870   13.3490 C   0  0  0  0  0  0  0  0  0  0  0  0
    3.1770    8.2790   12.6160 C   0  0  0  0  0  0  0  0  0  0  0  0
    1.8980    8.2480   13.1910 C   0  0  0  0  0  0  0  0  0  0  0  0
    1.7340    8.5360   14.5300 C   0  0  0  0  0  0  0  0  0  0  0  0
    2.8460    8.8480   15.2650 C   0  0  0  0  0  0  0  0  0  0  0  0
    4.0970    8.8730   14.6850 C   0  0  0  0  0  0  0  0  0  0  0  0
    3.5050    8.0930   11.2480 N   0  0  0  0  0  0  0  0  0  0  0  0
    4.9030    8.3060   11.1220 C   0  0  0  0  0  0  0  0  0  0  0  0
    5.4940    8.3500   10.0230 O   0  0  0  0  0  0  0  0  0  0  0  0
   12.1190    3.6580   12.4920 H   0  0  0  0  0  0  0  0  0  0  0  0
   10.3870    4.9360   13.5530 H   0  0  0  0  0  0  0  0  0  0  0  0
    8.5730    5.6810    9.8020 H   0  0  0  0  0  0  0  0  0  0  0  0
   10.3070    4.3960    8.7230 H   0  0  0  0  0  0  0  0  0  0  0  0
    5.5980    6.6040   13.6080 H   0  0  0  0  0  0  0  0  0  0  0  0
    6.3250   10.1190   11.6520 H   0  0  0  0  0  0  0  0  0  0  0  0
    8.1340    8.6330   11.8860 H   0  0  0  0  0  0  0  0  0  0  0  0
    7.0890    8.2100   14.7330 H   0  0  0  0  0  0  0  0  0  0  0  0
    8.5680   10.9840   12.8610 H   0  0  0  0  0  0  0  0  0  0  0  0
    9.6210    9.6660   13.4460 H   0  0  0  0  0  0  0  0  0  0  0  0
    9.4370    9.7330   16.4650 H   0  0  0  0  0  0  0  0  0  0  0  0
    9.5220   11.4650   16.1720 H   0  0  0  0  0  0  0  0  0  0  0  0
    1.0220    8.0000   12.6020 H   0  0  0  0  0  0  0  0  0  0  0  0
    0.7270    8.5010   14.9520 H   0  0  0  0  0  0  0  0  0  0  0  0
    2.7410    9.0790   16.3080 H   0  0  0  0  0  0  0  0  0  0  0  0
    4.9670    9.1280   15.2820 H   0  0  0  0  0  0  0  0  0  0  0  0
    2.8300    7.8420   10.4630 H   0  0  0  0  0  0  0  0  0  0  0  0
  1  2  1  0  0  0  0
  2  3  1  0  0  0  0
  3 31  1  0  0  0  0
  3  4  2  0  0  0  0
  4 32  1  0  0  0  0
  5  8  1  0  0  0  0
  5  4  1  0  0  0  0
  6  5  2  0  0  0  0
  7  6  1  0  0  0  0
  7  2  2  0  0  0  0
  8 16  1  0  0  0  0
  9  8  1  0  0  0  0
  9 11  1  0  0  0  0
 10  9  2  0  0  0  0
 11 35  1  1  0  0  0
 11 15  1  0  0  0  0
 12 29  1  6  0  0  0
 12 13  1  0  0  0  0
 12 11  1  0  0  0  0
 12 22  1  0  0  0  0
 13 14  1  0  0  0  0
 14 37  1  6  0  0  0
 14 18  1  0  0  0  0
 14 15  1  0  0  0  0
 15 38  1  1  0  0  0
 16 15  1  0  0  0  0
 16 17  2  0  0  0  0
 18 19  1  0  0  0  0
 19 20  2  0  0  0  0
 19 21  1  0  0  0  0
 21 42  1  0  0  0  0
 21 41  1  0  0  0  0
 22 27  1  0  0  0  0
 23 24  1  0  0  0  0
 23 22  2  0  0  0  0
 24 25  2  0  0  0  0
 25 44  1  0  0  0  0
 25 26  1  0  0  0  0
 26 45  1  0  0  0  0
 27 26  2  0  0  0  0
 27 46  1  0  0  0  0
 28 23  1  0  0  0  0
 29 28  1  0  0  0  0
 30 29  2  0  0  0  0
 33  6  1  0  0  0  0
 34  7  1  0  0  0  0
 36 13  1  0  0  0  0
 39 18  1  0  0  0  0
 40 18  1  0  0  0  0
 43 24  1  0  0  0  0
 47 28  1  0  0  0  0
M  END
>  <Pose>
1

>  <Score>
-6.76

$$$$
