
 OpenBabel03172210413D

 37 40  0  0  0  0  0  0  0  0999 V2000
    9.5470    4.9260    9.0540 F   0  0  0  0  0  0  0  0  0  0  0  0
   10.2840    4.9530   10.1910 C   0  0  0  0  0  0  0  0  0  0  0  0
   11.3040    4.0700   10.4170 N   0  0  0  0  0  0  0  0  0  0  0  0
   11.7910    4.3930   11.6250 C   0  0  0  0  0  0  0  0  0  0  0  0
   11.0990    5.4310   12.1220 N   0  0  0  0  0  0  0  0  0  0  0  0
   10.1440    5.8130   11.2520 C   0  0  0  0  0  0  0  0  0  0  0  0
    9.1750    6.9270   11.4330 C   0  0  0  0  0  0  0  0  0  0  0  0
    9.6710    8.0320   10.9830 O   0  0  0  0  0  0  0  0  0  0  0  0
    7.9270    6.8150   11.9930 N   0  0  0  0  0  0  0  0  0  0  0  0
    6.6860    6.7020   12.5480 C   0  0  0  0  0  0  0  0  0  0  0  0
    5.5880    7.4650   11.8510 C   0  0  0  0  0  0  0  0  0  0  0  0
    4.7040    8.2740   12.4410 N   0  0  0  0  0  0  0  0  0  0  0  0
    3.9090    8.7560   11.5010 N   0  0  0  0  0  0  0  0  0  0  0  0
    4.2600    8.2790   10.3270 N   0  0  0  0  0  0  0  0  0  0  0  0
    5.3020    7.4780   10.5530 N   0  0  0  0  0  0  0  0  0  0  0  0
    4.7030    8.5250   13.8470 C   0  0  0  0  0  0  0  0  0  0  0  0
    4.5120    7.4470   14.7050 C   0  0  0  0  0  0  0  0  0  0  0  0
    4.4820    7.6260   16.0820 C   0  0  0  0  0  0  0  0  0  0  0  0
    4.6390    8.8770   16.6430 C   0  0  0  0  0  0  0  0  0  0  0  0
    4.8280    9.9410   15.7870 C   0  0  0  0  0  0  0  0  0  0  0  0
    4.8580    9.7670   14.4150 C   0  0  0  0  0  0  0  0  0  0  0  0
   12.8410    3.6450   12.1000 C   0  0  0  0  0  0  0  0  0  0  0  0
   13.3970    2.5890   11.3760 C   0  0  0  0  0  0  0  0  0  0  0  0
   12.8730    2.2900   10.1470 C   0  0  0  0  0  0  0  0  0  0  0  0
   11.8110    3.0610    9.6890 C   0  0  0  0  0  0  0  0  0  0  0  0
   13.5290    0.9720    9.1750 Cl  0  0  0  0  0  0  0  0  0  0  0  0
    8.1910    5.5240   12.3580 H   0  0  0  0  0  0  0  0  0  0  0  0
    6.6460    7.1120   13.6240 H   0  0  0  0  0  0  0  0  0  0  0  0
    6.2790    5.6520   12.7140 H   0  0  0  0  0  0  0  0  0  0  0  0
    4.3890    6.4630   14.2810 H   0  0  0  0  0  0  0  0  0  0  0  0
    4.3330    6.7970   16.7600 H   0  0  0  0  0  0  0  0  0  0  0  0
    4.6120    9.0210   17.7340 H   0  0  0  0  0  0  0  0  0  0  0  0
    4.9540   10.9410   16.2300 H   0  0  0  0  0  0  0  0  0  0  0  0
    5.0080   10.6290   13.7780 H   0  0  0  0  0  0  0  0  0  0  0  0
   13.2870    3.8440   13.0650 H   0  0  0  0  0  0  0  0  0  0  0  0
   14.2340    1.9960   11.7660 H   0  0  0  0  0  0  0  0  0  0  0  0
   11.4140    2.8110    8.7190 H   0  0  0  0  0  0  0  0  0  0  0  0
  1  2  1  0  0  0  0
  2  3  1  0  0  0  0
  2  6  2  0  0  0  0
  3  4  1  0  0  0  0
  4 22  1  0  0  0  0
  4  5  2  0  0  0  0
  6  7  1  0  0  0  0
  6  5  1  0  0  0  0
  7  9  1  0  0  0  0
  8  7  2  0  0  0  0
  9 27  1  0  0  0  0
  9 10  1  0  0  0  0
 10 29  1  0  0  0  0
 10 28  1  0  0  0  0
 11 12  1  0  0  0  0
 11 10  1  0  0  0  0
 12 16  1  0  0  0  0
 13 12  1  0  0  0  0
 14 15  1  0  0  0  0
 14 13  2  0  0  0  0
 15 11  2  0  0  0  0
 16 21  2  0  0  0  0
 16 17  1  0  0  0  0
 17 18  2  0  0  0  0
 18 19  1  0  0  0  0
 18 31  1  0  0  0  0
 19 32  1  0  0  0  0
 20 33  1  0  0  0  0
 20 19  2  0  0  0  0
 21 20  1  0  0  0  0
 22 35  1  0  0  0  0
 23 36  1  0  0  0  0
 23 22  2  0  0  0  0
 24 23  1  0  0  0  0
 25 24  2  0  0  0  0
 25  3  1  0  0  0  0
 26 24  1  0  0  0  0
 30 17  1  0  0  0  0
 34 21  1  0  0  0  0
 37 25  1  0  0  0  0
M  END
>  <Pose>
1

>  <Score>
-6.30

$$$$
