
 OpenBabel03172210413D

 33 36  0  0  1  0  0  0  0  0999 V2000
   14.6410    1.0110    8.3360 Cl  0  0  0  0  0  0  0  0  0  0  0  0
   13.1190    1.5360    9.0230 C   0  0  0  0  0  0  0  0  0  0  0  0
   12.9600    2.8030    9.5420 C   0  0  0  0  0  0  0  0  0  0  0  0
   11.7600    3.2310   10.0880 C   0  0  0  0  0  0  0  0  0  0  0  0
   10.7180    2.3250   10.0920 C   0  0  0  0  0  0  0  0  0  0  0  0
   10.8770    1.0490    9.5690 C   0  0  0  0  0  0  0  0  0  0  0  0
   12.0760    0.6320    9.0260 C   0  0  0  0  0  0  0  0  0  0  0  0
   11.5940    4.5370   10.6260 N   0  0  0  0  0  0  0  0  0  0  0  0
   12.1210    5.0670   11.8570 C   0  0  0  0  0  0  0  0  0  0  0  0
   12.7490    4.3970   12.7100 O   0  0  0  0  0  0  0  0  0  0  0  0
   11.8100    6.4910   11.9520 C   0  0  2  0  0  0  0  0  0  0  0  0
   10.7600    6.8490   12.9520 C   0  0  1  0  0  0  0  0  0  0  0  0
   10.2690    8.0490   12.3780 O   0  0  0  0  0  0  0  0  0  0  0  0
    9.8240    7.4750   11.1590 C   0  0  1  0  0  0  0  0  0  0  0  0
   11.1050    6.8690   10.6400 C   0  0  2  0  0  0  0  0  0  0  0  0
   10.8430    5.5750   10.0060 C   0  0  0  0  0  0  0  0  0  0  0  0
   10.0650    5.3820    9.0410 O   0  0  0  0  0  0  0  0  0  0  0  0
    8.9790    6.3750   11.6700 C   0  0  0  0  0  0  0  0  0  0  0  0
    9.5550    5.9980   12.8340 C   0  0  0  0  0  0  0  0  0  0  0  0
   11.2490    7.0570   14.3410 C   0  0  0  0  0  0  0  0  0  0  0  0
   10.5400    6.2340   15.2070 O   0  0  0  0  0  0  0  0  0  0  0  0
   13.7780    3.5230    9.5420 H   0  0  0  0  0  0  0  0  0  0  0  0
    9.7660    2.6420   10.5170 H   0  0  0  0  0  0  0  0  0  0  0  0
   10.0470    0.3470    9.5770 H   0  0  0  0  0  0  0  0  0  0  0  0
   12.1810   -0.3700    8.6230 H   0  0  0  0  0  0  0  0  0  0  0  0
   12.6870    7.1380   12.1210 H   0  0  0  0  0  0  0  0  0  0  0  0
    9.3470    8.1810   10.5030 H   0  0  0  0  0  0  0  0  0  0  0  0
   11.7060    7.5510   10.0350 H   0  0  0  0  0  0  0  0  0  0  0  0
    8.0980    5.9470   11.2420 H   0  0  0  0  0  0  0  0  0  0  0  0
    9.1910    5.2390   13.5110 H   0  0  0  0  0  0  0  0  0  0  0  0
   11.0140    8.1190   14.6140 H   0  0  0  0  0  0  0  0  0  0  0  0
   12.3370    6.9400   14.4520 H   0  0  0  0  0  0  0  0  0  0  0  0
   11.1210    5.5140   15.5470 H   0  0  0  0  0  0  0  0  0  0  0  0
  1  2  1  0  0  0  0
  2  7  2  0  0  0  0
  2  3  1  0  0  0  0
  3 22  1  0  0  0  0
  3  4  2  0  0  0  0
  4  5  1  0  0  0  0
  4  8  1  0  0  0  0
  5 23  1  0  0  0  0
  6 24  1  0  0  0  0
  6  5  2  0  0  0  0
  7  6  1  0  0  0  0
  8  9  1  0  0  0  0
  9 11  1  0  0  0  0
  9 10  2  0  0  0  0
 11 26  1  1  0  0  0
 11 12  1  0  0  0  0
 12 20  1  1  0  0  0
 13 12  1  0  0  0  0
 14 27  1  6  0  0  0
 14 18  1  0  0  0  0
 14 13  1  0  0  0  0
 15 28  1  6  0  0  0
 15 14  1  0  0  0  0
 15 11  1  0  0  0  0
 16  8  1  0  0  0  0
 16 15  1  0  0  0  0
 17 16  2  0  0  0  0
 18 19  2  0  0  0  0
 19 12  1  0  0  0  0
 19 30  1  0  0  0  0
 20 32  1  0  0  0  0
 20 31  1  0  0  0  0
 20 21  1  0  0  0  0
 21 33  1  0  0  0  0
 25  7  1  0  0  0  0
 29 18  1  0  0  0  0
M  END
>  <Pose>
1

>  <Score>
-4.99

$$$$
