
 OpenBabel03172210413D

 50 53  0  0  1  0  0  0  0  0999 V2000
   12.4190    2.9600   11.3020 S   0  0  0  0  0  0  0  0  0  0  0  0
   11.9010    1.8720   10.3740 O   0  0  0  0  0  0  0  0  0  0  0  0
   12.2450    2.3660   12.6990 O   0  0  0  0  0  0  0  0  0  0  0  0
   11.5040    4.3570   11.1830 N   0  0  0  0  0  0  0  0  0  0  0  0
   11.5940    5.2970   12.2110 C   0  0  0  0  0  0  0  0  0  0  0  0
   10.9280    6.6350   11.8570 C   0  0  0  0  0  0  0  0  0  0  0  0
    9.7210    6.4400   11.1100 N   0  0  0  0  0  0  0  0  0  0  0  0
    9.7350    5.4760   10.0320 C   0  0  0  0  0  0  0  0  0  0  0  0
   10.1820    4.1590   10.6370 C   0  0  0  0  0  0  0  0  0  0  0  0
    8.5670    7.1680   11.4230 C   0  0  0  0  0  0  0  0  0  0  0  0
    8.5230    8.4080   11.2160 O   0  0  0  0  0  0  0  0  0  0  0  0
    7.3480    6.5270   12.0090 C   0  0  0  0  0  0  0  0  0  0  0  0
    6.1810    7.4740   12.1670 C   0  0  0  0  0  0  0  0  0  0  0  0
    6.6990    7.7720   13.5720 C   0  0  0  0  0  0  0  0  0  0  0  0
    7.4350    6.4300   13.5120 C   0  0  0  0  0  0  0  0  0  0  0  0
   14.1410    3.1250   11.0410 C   0  0  0  0  0  0  0  0  0  0  0  0
   14.8390    4.1290   11.7410 C   0  0  0  0  0  0  0  0  0  0  0  0
   16.1820    4.3470   11.5340 C   0  0  0  0  0  0  0  0  0  0  0  0
   16.9230    3.6070   10.6400 C   0  0  0  0  0  0  0  0  0  0  0  0
   16.2480    2.6260    9.9570 C   0  0  0  0  0  0  0  0  0  0  0  0
   14.8800    2.3870   10.1540 C   0  0  0  0  0  0  0  0  0  0  0  0
   14.1120    1.0700    9.3010 Cl  0  0  0  0  0  0  0  0  0  0  0  0
   18.3010    3.8830   10.4720 N   0  0  0  0  0  0  0  0  0  0  0  0
   18.9650    4.9100   11.1980 C   0  0  0  0  0  0  0  0  0  0  0  0
   20.2020    5.0340   11.2890 O   0  0  0  0  0  0  0  0  0  0  0  0
   18.0900    5.8940   11.8880 C   0  0  2  0  0  0  0  0  0  0  0  0
   16.8490    5.3480   12.2410 O   0  0  0  0  0  0  0  0  0  0  0  0
   17.8440    7.1000   11.0100 C   0  0  0  0  0  0  0  0  0  0  0  0
   12.6540    5.5770   12.3700 H   0  0  0  0  0  0  0  0  0  0  0  0
   11.1520    4.9500   13.1550 H   0  0  0  0  0  0  0  0  0  0  0  0
   10.7060    7.1560   12.8000 H   0  0  0  0  0  0  0  0  0  0  0  0
   11.6250    7.2100   11.2160 H   0  0  0  0  0  0  0  0  0  0  0  0
    8.7680    5.3950    9.5140 H   0  0  0  0  0  0  0  0  0  0  0  0
   10.5340    5.7960    9.3050 H   0  0  0  0  0  0  0  0  0  0  0  0
    9.4820    3.8750   11.4500 H   0  0  0  0  0  0  0  0  0  0  0  0
   10.2360    3.3860    9.8670 H   0  0  0  0  0  0  0  0  0  0  0  0
    7.0860    5.5730   11.4910 H   0  0  0  0  0  0  0  0  0  0  0  0
    5.1980    6.9860   12.1730 H   0  0  0  0  0  0  0  0  0  0  0  0
    6.2190    8.3730   11.4980 H   0  0  0  0  0  0  0  0  0  0  0  0
    7.3850    8.6330   13.6050 H   0  0  0  0  0  0  0  0  0  0  0  0
    5.9200    7.8380   14.3350 H   0  0  0  0  0  0  0  0  0  0  0  0
    6.8470    5.5830   13.9270 H   0  0  0  0  0  0  0  0  0  0  0  0
    8.4480    6.4610   13.9310 H   0  0  0  0  0  0  0  0  0  0  0  0
   14.2720    4.7150   12.4420 H   0  0  0  0  0  0  0  0  0  0  0  0
   16.7850    2.0200    9.2460 H   0  0  0  0  0  0  0  0  0  0  0  0
   18.8580    3.3170    9.7910 H   0  0  0  0  0  0  0  0  0  0  0  0
   18.6080    6.2230   12.8010 H   0  0  0  0  0  0  0  0  0  0  0  0
   18.6050    7.0890   10.1780 H   0  0  0  0  0  0  0  0  0  0  0  0
   17.9460    8.0200   11.6120 H   0  0  0  0  0  0  0  0  0  0  0  0
   16.8450    7.0290   10.5420 H   0  0  0  0  0  0  0  0  0  0  0  0
  1  3  2  0  0  0  0
  2  1  2  0  0  0  0
  4  1  1  0  0  0  0
  4  5  1  0  0  0  0
  5 29  1  0  0  0  0
  5 30  1  0  0  0  0
  6  5  1  0  0  0  0
  6 31  1  0  0  0  0
  7 10  1  0  0  0  0
  7  6  1  0  0  0  0
  8  9  1  0  0  0  0
  8  7  1  0  0  0  0
  9  4  1  0  0  0  0
  9 35  1  0  0  0  0
 10 12  1  0  0  0  0
 11 10  2  0  0  0  0
 12 13  1  0  0  0  0
 12 15  1  0  0  0  0
 13 38  1  0  0  0  0
 13 14  1  0  0  0  0
 14 40  1  0  0  0  0
 14 41  1  0  0  0  0
 15 14  1  0  0  0  0
 15 42  1  0  0  0  0
 15 43  1  0  0  0  0
 16  1  1  0  0  0  0
 16 17  1  0  0  0  0
 17 44  1  0  0  0  0
 18 17  2  0  0  0  0
 18 27  1  0  0  0  0
 19 18  1  0  0  0  0
 20 21  1  0  0  0  0
 20 19  2  0  0  0  0
 21 16  2  0  0  0  0
 22 21  1  0  0  0  0
 23 19  1  0  0  0  0
 23 24  1  0  0  0  0
 24 25  2  0  0  0  0
 24 26  1  0  0  0  0
 26 27  1  0  0  0  0
 26 47  1  1  0  0  0
 28 49  1  0  0  0  0
 28 26  1  0  0  0  0
 32  6  1  0  0  0  0
 33  8  1  0  0  0  0
 34  8  1  0  0  0  0
 36  9  1  0  0  0  0
 37 12  1  0  0  0  0
 39 13  1  0  0  0  0
 45 20  1  0  0  0  0
 46 23  1  0  0  0  0
 48 28  1  0  0  0  0
 50 28  1  0  0  0  0
M  END
>  <Pose>
1

>  <Score>
-6.14

$$$$
