
 OpenBabel03172210413D

 37 40  0  0  1  0  0  0  0  0999 V2000
    8.0610    7.0180   15.7500 Cl  0  0  0  0  0  0  0  0  0  0  0  0
    9.4520    6.9470   14.6730 C   0  0  0  0  0  0  0  0  0  0  0  0
    9.6010    5.8850   13.7840 C   0  0  0  0  0  0  0  0  0  0  0  0
   10.7030    5.8770   12.9610 C   0  0  0  0  0  0  0  0  0  0  0  0
   11.6520    6.9100   13.0160 C   0  0  0  0  0  0  0  0  0  0  0  0
   11.5000    7.9460   13.8880 C   0  0  0  0  0  0  0  0  0  0  0  0
   10.3900    7.9580   14.7160 C   0  0  0  0  0  0  0  0  0  0  0  0
   10.9410    4.8340   12.0240 N   0  0  0  0  0  0  0  0  0  0  0  0
   10.1090    4.2690   11.0180 C   0  0  0  0  0  0  0  0  0  0  0  0
    9.1240    4.8390   10.5190 O   0  0  0  0  0  0  0  0  0  0  0  0
   10.6020    2.9230   10.6790 C   0  0  1  0  0  0  0  0  0  0  0  0
   10.5130    2.5150    9.3870 O   0  0  0  0  0  0  0  0  0  0  0  0
   11.6620    1.7620    9.2300 N   0  0  0  0  0  0  0  0  0  0  0  0
   12.7190    2.4110    9.9420 C   0  0  0  0  0  0  0  0  0  0  0  0
   12.0770    3.1440   10.8460 C   0  0  0  0  0  0  0  0  0  0  0  0
   12.2000    4.1180   11.9200 C   0  0  0  0  0  0  0  0  0  0  0  0
   13.2410    4.2690   12.6080 O   0  0  0  0  0  0  0  0  0  0  0  0
   14.1510    2.2710    9.7690 C   0  0  0  0  0  0  0  0  0  0  0  0
   15.0590    3.0330   10.5090 C   0  0  0  0  0  0  0  0  0  0  0  0
   16.3120    2.7180   10.1460 N   0  0  0  0  0  0  0  0  0  0  0  0
   16.2420    1.7810    9.1990 N   0  0  0  0  0  0  0  0  0  0  0  0
   14.9390    1.5030    8.9620 C   0  0  0  0  0  0  0  0  0  0  0  0
   14.4330    0.5260    7.9650 C   0  0  0  0  0  0  0  0  0  0  0  0
   17.5750    3.2540   10.6420 C   0  0  0  0  0  0  0  0  0  0  0  0
    8.8670    5.0720   13.7290 H   0  0  0  0  0  0  0  0  0  0  0  0
   12.5110    6.8640   12.3440 H   0  0  0  0  0  0  0  0  0  0  0  0
   12.2600    8.7500   13.9170 H   0  0  0  0  0  0  0  0  0  0  0  0
   10.2390    8.7710   15.4280 H   0  0  0  0  0  0  0  0  0  0  0  0
   10.2380    2.1770   11.4200 H   0  0  0  0  0  0  0  0  0  0  0  0
   11.7040    0.8820    8.6910 H   0  0  0  0  0  0  0  0  0  0  0  0
   14.8160    3.7660   11.2590 H   0  0  0  0  0  0  0  0  0  0  0  0
   14.3380   -0.4580    8.4330 H   0  0  0  0  0  0  0  0  0  0  0  0
   15.1900    0.4090    7.1520 H   0  0  0  0  0  0  0  0  0  0  0  0
   13.5080    0.8720    7.4750 H   0  0  0  0  0  0  0  0  0  0  0  0
   18.1510    3.7290    9.8180 H   0  0  0  0  0  0  0  0  0  0  0  0
   17.3870    4.1020   11.3580 H   0  0  0  0  0  0  0  0  0  0  0  0
   18.2110    2.4710   11.0960 H   0  0  0  0  0  0  0  0  0  0  0  0
  2  7  1  0  0  0  0
  2  1  1  0  0  0  0
  3  2  2  0  0  0  0
  4  5  2  0  0  0  0
  4  3  1  0  0  0  0
  5  6  1  0  0  0  0
  6 27  1  0  0  0  0
  6  7  2  0  0  0  0
  7 28  1  0  0  0  0
  8  4  1  0  0  0  0
  9  8  1  0  0  0  0
 10  9  2  0  0  0  0
 11 15  1  0  0  0  0
 11  9  1  0  0  0  0
 11 29  1  1  0  0  0
 12 11  1  0  0  0  0
 13 12  1  0  0  0  0
 13 14  1  0  0  0  0
 14 15  2  0  0  0  0
 15 16  1  0  0  0  0
 16  8  1  0  0  0  0
 16 17  2  0  0  0  0
 18 14  1  0  0  0  0
 18 19  2  0  0  0  0
 19 31  1  0  0  0  0
 20 19  1  0  0  0  0
 20 24  1  0  0  0  0
 21 20  1  0  0  0  0
 22 21  2  0  0  0  0
 22 18  1  0  0  0  0
 23 32  1  0  0  0  0
 23 22  1  0  0  0  0
 24 37  1  0  0  0  0
 24 36  1  0  0  0  0
 25  3  1  0  0  0  0
 26  5  1  0  0  0  0
 30 13  1  0  0  0  0
 33 23  1  0  0  0  0
 34 23  1  0  0  0  0
 35 24  1  0  0  0  0
M  END
>  <Pose>
1

>  <Score>
-5.60

$$$$
