
 OpenBabel03172210413D

 35 37  0  0  1  0  0  0  0  0999 V2000
   10.3140    0.6310    9.1870 B   0  0  0  0  0  0  0  0  0  0  0  0
   11.3900    2.0310    9.8960 C   0  0  0  0  0  0  0  0  0  0  0  0
   10.8060    3.0420   10.6610 C   0  0  0  0  0  0  0  0  0  0  0  0
   11.5760    4.0800   11.2020 C   0  0  0  0  0  0  0  0  0  0  0  0
   12.9320    4.0330   10.9270 C   0  0  0  0  0  0  0  0  0  0  0  0
   13.4910    3.0210   10.1660 C   0  0  0  0  0  0  0  0  0  0  0  0
   12.7250    2.0160    9.6450 C   0  0  0  0  0  0  0  0  0  0  0  0
   13.6670    5.0570   11.4520 O   0  0  0  0  0  0  0  0  0  0  0  0
   14.9410    4.8050   11.9800 C   0  0  0  0  0  0  0  0  0  0  0  0
   10.8850    5.0310   12.0640 C   0  0  2  0  0  0  0  0  0  0  0  0
    9.5890    5.3400   11.2650 C   0  0  2  0  0  0  0  0  0  0  0  0
   10.2520    5.6240    9.9030 C   0  0  0  0  0  0  0  0  0  0  0  0
    9.8780    5.1380    8.8520 O   0  0  0  0  0  0  0  0  0  0  0  0
   11.3620    6.5380   10.0600 N   0  0  0  0  0  0  0  0  0  0  0  0
   11.3250    7.3160   11.3120 C   0  0  1  0  0  0  0  0  0  0  0  0
    9.9320    7.7800   11.3770 N   0  0  0  0  0  0  0  0  0  0  0  0
    9.0220    6.6830   11.5950 C   0  0  0  0  0  0  0  0  0  0  0  0
    7.8600    6.8250   12.0180 O   0  0  0  0  0  0  0  0  0  0  0  0
   11.4550    6.2850   12.4660 C   0  0  0  0  0  0  0  0  0  0  0  0
   12.3140    8.3900   11.4230 C   0  0  0  0  0  0  0  0  0  0  0  0
    9.7440    2.9480   10.7980 H   0  0  0  0  0  0  0  0  0  0  0  0
   14.5510    3.0750   10.0120 H   0  0  0  0  0  0  0  0  0  0  0  0
   13.2520    1.2520    9.0450 H   0  0  0  0  0  0  0  0  0  0  0  0
   14.9250    3.9370   12.6560 H   0  0  0  0  0  0  0  0  0  0  0  0
   15.5590    4.4850   11.0750 H   0  0  0  0  0  0  0  0  0  0  0  0
   15.4260    5.6920   12.4070 H   0  0  0  0  0  0  0  0  0  0  0  0
   10.4940    4.4430   12.9350 H   0  0  0  0  0  0  0  0  0  0  0  0
    8.8650    4.5730   11.2340 H   0  0  0  0  0  0  0  0  0  0  0  0
   12.1220    6.6350    9.3820 H   0  0  0  0  0  0  0  0  0  0  0  0
    9.6590    8.7640   11.2740 H   0  0  0  0  0  0  0  0  0  0  0  0
   10.7790    6.7170   13.2740 H   0  0  0  0  0  0  0  0  0  0  0  0
   12.4220    6.3150   12.9580 H   0  0  0  0  0  0  0  0  0  0  0  0
   11.7930    9.2660   11.9440 H   0  0  0  0  0  0  0  0  0  0  0  0
   13.2130    8.1520   12.0170 H   0  0  0  0  0  0  0  0  0  0  0  0
   12.6390    8.7550   10.4520 H   0  0  0  0  0  0  0  0  0  0  0  0
  1  2  1  0  0  0  0
  2  3  1  0  0  0  0
  3 21  1  0  0  0  0
  3  4  2  0  0  0  0
  4 10  1  0  0  0  0
  5  4  1  0  0  0  0
  5  8  1  0  0  0  0
  6  5  2  0  0  0  0
  7  2  2  0  0  0  0
  7  6  1  0  0  0  0
  8  9  1  0  0  0  0
  9 26  1  0  0  0  0
  9 24  1  0  0  0  0
 10 19  1  0  0  0  0
 10 27  1  1  0  0  0
 11 28  1  6  0  0  0
 11 17  1  0  0  0  0
 11 10  1  0  0  0  0
 12 14  1  0  0  0  0
 12 11  1  0  0  0  0
 13 12  2  0  0  0  0
 14 15  1  0  0  0  0
 15 16  1  0  0  0  0
 15 20  1  1  0  0  0
 15 19  1  0  0  0  0
 16 17  1  0  0  0  0
 17 18  2  0  0  0  0
 19 32  1  0  0  0  0
 19 31  1  0  0  0  0
 20 33  1  0  0  0  0
 20 34  1  0  0  0  0
 22  6  1  0  0  0  0
 23  7  1  0  0  0  0
 25  9  1  0  0  0  0
 29 14  1  0  0  0  0
 30 16  1  0  0  0  0
 35 20  1  0  0  0  0
M  END
>  <Pose>
1

>  <Score>
-5.22

$$$$
