
 OpenBabel03172210413D

 50 53  0  0  1  0  0  0  0  0999 V2000
    8.8490    6.8730   16.0550 Cl  0  0  0  0  0  0  0  0  0  0  0  0
    8.7460    6.5870   14.3200 C   0  0  0  0  0  0  0  0  0  0  0  0
    9.9420    6.3670   13.6140 C   0  0  0  0  0  0  0  0  0  0  0  0
    9.8580    6.1410   12.2720 C   0  0  0  0  0  0  0  0  0  0  0  0
    8.6410    6.1300   11.6050 C   0  0  0  0  0  0  0  0  0  0  0  0
    7.4880    6.3500   12.3220 C   0  0  0  0  0  0  0  0  0  0  0  0
    7.5270    6.5780   13.6800 C   0  0  0  0  0  0  0  0  0  0  0  0
    6.1820    6.3340   11.5740 C   0  0  0  0  0  0  0  0  0  0  0  0
   11.2370    5.8140   11.7940 C   0  0  2  0  0  0  0  0  0  0  0  0
   11.5640    6.3160   10.5200 N   0  0  0  0  0  0  0  0  0  0  0  0
   11.1630    5.3210    9.5660 C   0  0  2  0  0  0  0  0  0  0  0  0
   10.8060    4.0810   10.2800 C   0  0  2  0  0  0  0  0  0  0  0  0
   11.4180    4.3340   11.6600 C   0  0  1  0  0  0  0  0  0  0  0  0
   12.7930    3.9300   11.4290 C   0  0  0  0  0  0  0  0  0  0  0  0
   13.8960    4.3700   11.8200 O   0  0  0  0  0  0  0  0  0  0  0  0
   12.6950    2.7750   10.5550 N   0  0  0  0  0  0  0  0  0  0  0  0
   11.4580    2.8460    9.8620 C   0  0  0  0  0  0  0  0  0  0  0  0
   11.0390    2.0000    9.0600 O   0  0  0  0  0  0  0  0  0  0  0  0
   13.6460    1.7080   10.3870 C   0  0  0  0  0  0  0  0  0  0  0  0
   14.9070    2.0710    9.6940 C   0  0  0  0  0  0  0  0  0  0  0  0
   15.5420    1.1020    8.9780 O   0  0  0  0  0  0  0  0  0  0  0  0
   14.8880    0.6890    7.8360 C   0  0  0  0  0  0  0  0  0  0  0  0
   12.1680    5.1660    8.4410 C   0  0  1  0  0  0  0  0  0  0  0  0
   11.7280    5.5540    7.2110 O   0  0  0  0  0  0  0  0  0  0  0  0
   13.4860    5.7150    8.8780 C   0  0  0  0  0  0  0  0  0  0  0  0
   12.0910    6.2820   12.8840 C   0  0  0  0  0  0  0  0  0  0  0  0
   13.3370    6.5340   12.9220 O   0  0  0  0  0  0  0  0  0  0  0  0
   11.2980    6.4530   14.0350 N   0  0  0  0  0  0  0  0  0  0  0  0
    8.5350    5.9660   10.5330 H   0  0  0  0  0  0  0  0  0  0  0  0
    6.5920    6.7480   14.2240 H   0  0  0  0  0  0  0  0  0  0  0  0
    6.1870    5.4650   10.8860 H   0  0  0  0  0  0  0  0  0  0  0  0
    6.1060    7.2420   10.9090 H   0  0  0  0  0  0  0  0  0  0  0  0
    5.3270    6.2570   12.2490 H   0  0  0  0  0  0  0  0  0  0  0  0
   11.1220    7.2450   10.3170 H   0  0  0  0  0  0  0  0  0  0  0  0
   10.2340    5.6820    9.0190 H   0  0  0  0  0  0  0  0  0  0  0  0
    9.7150    3.9480   10.4820 H   0  0  0  0  0  0  0  0  0  0  0  0
   10.8890    3.7530   12.4390 H   0  0  0  0  0  0  0  0  0  0  0  0
   13.9200    1.3040   11.3900 H   0  0  0  0  0  0  0  0  0  0  0  0
   13.1400    0.8600    9.8640 H   0  0  0  0  0  0  0  0  0  0  0  0
   15.6270    2.4180   10.4900 H   0  0  0  0  0  0  0  0  0  0  0  0
   14.7610    2.9810    9.0630 H   0  0  0  0  0  0  0  0  0  0  0  0
   14.7190    1.4980    7.1230 H   0  0  0  0  0  0  0  0  0  0  0  0
   15.5210   -0.0840    7.3500 H   0  0  0  0  0  0  0  0  0  0  0  0
   13.9100    0.2460    8.1620 H   0  0  0  0  0  0  0  0  0  0  0  0
   12.2950    4.0340    8.3650 H   0  0  0  0  0  0  0  0  0  0  0  0
   12.4360    5.8930    6.6060 H   0  0  0  0  0  0  0  0  0  0  0  0
   14.2690    4.8990    8.8060 H   0  0  0  0  0  0  0  0  0  0  0  0
   13.8780    6.5030    8.1990 H   0  0  0  0  0  0  0  0  0  0  0  0
   13.4310    6.0050    9.9350 H   0  0  0  0  0  0  0  0  0  0  0  0
   11.5880    6.6140   15.0330 H   0  0  0  0  0  0  0  0  0  0  0  0
  2  1  1  0  0  0  0
  3 28  1  0  0  0  0
  3  2  2  0  0  0  0
  4  3  1  0  0  0  0
  5  4  2  0  0  0  0
  5  6  1  0  0  0  0
  6  7  2  0  0  0  0
  7 30  1  0  0  0  0
  7  2  1  0  0  0  0
  8 33  1  0  0  0  0
  8  6  1  0  0  0  0
  9  4  1  1  0  0  0
  9 26  1  0  0  0  0
 10  9  1  0  0  0  0
 11 35  1  6  0  0  0
 11 12  1  0  0  0  0
 11 10  1  0  0  0  0
 12 36  1  1  0  0  0
 12 13  1  0  0  0  0
 13  9  1  0  0  0  0
 13 37  1  1  0  0  0
 14 13  1  0  0  0  0
 14 15  2  0  0  0  0
 16 14  1  0  0  0  0
 17 12  1  0  0  0  0
 17 16  1  0  0  0  0
 18 17  2  0  0  0  0
 19 16  1  0  0  0  0
 19 38  1  0  0  0  0
 20 19  1  0  0  0  0
 20 40  1  0  0  0  0
 21 20  1  0  0  0  0
 22 44  1  0  0  0  0
 22 21  1  0  0  0  0
 23 45  1  6  0  0  0
 23 25  1  0  0  0  0
 23 11  1  0  0  0  0
 24 23  1  0  0  0  0
 25 49  1  0  0  0  0
 26 27  2  0  0  0  0
 26 28  1  0  0  0  0
 28 50  1  0  0  0  0
 29  5  1  0  0  0  0
 31  8  1  0  0  0  0
 32  8  1  0  0  0  0
 34 10  1  0  0  0  0
 39 19  1  0  0  0  0
 41 20  1  0  0  0  0
 42 22  1  0  0  0  0
 43 22  1  0  0  0  0
 46 24  1  0  0  0  0
 47 25  1  0  0  0  0
 48 25  1  0  0  0  0
M  END
>  <Pose>
1

>  <Score>
-4.95

$$$$
