
 OpenBabel03172210413D

 55 58  0  0  0  0  0  0  0  0999 V2000
   15.4450    7.5720   12.9950 B   0  0  0  0  0  0  0  0  0  0  0  0
   16.5640    6.0970   12.5790 C   0  0  0  0  0  0  0  0  0  0  0  0
   16.1980    5.1310   11.6250 C   0  0  0  0  0  0  0  0  0  0  0  0
   17.0250    4.0730   11.3500 C   0  0  0  0  0  0  0  0  0  0  0  0
   18.2250    3.9610   12.0130 C   0  0  0  0  0  0  0  0  0  0  0  0
   18.5890    4.9270   12.9630 C   0  0  0  0  0  0  0  0  0  0  0  0
   17.7680    5.9720   13.2370 C   0  0  0  0  0  0  0  0  0  0  0  0
   19.0000    2.8990   11.6960 O   0  0  0  0  0  0  0  0  0  0  0  0
   20.3840    2.8430   11.6560 C   0  0  0  0  0  0  0  0  0  0  0  0
   16.6570    3.0990   10.3320 C   0  0  0  0  0  0  0  0  0  0  0  0
   15.4800    2.6100   10.1100 C   0  0  0  0  0  0  0  0  0  0  0  0
   14.3310    2.9060   10.7880 O   0  0  0  0  0  0  0  0  0  0  0  0
   13.2780    2.1760   10.2390 C   0  0  0  0  0  0  0  0  0  0  0  0
   13.6820    1.3880    9.2100 C   0  0  0  0  0  0  0  0  0  0  0  0
   12.7730    0.5880    8.5100 C   0  0  0  0  0  0  0  0  0  0  0  0
   11.4390    0.5530    8.8240 C   0  0  0  0  0  0  0  0  0  0  0  0
   11.0700    1.3810    9.8990 C   0  0  0  0  0  0  0  0  0  0  0  0
   11.9240    2.1700   10.5920 C   0  0  0  0  0  0  0  0  0  0  0  0
   11.5490    3.0000   11.7530 C   0  0  0  0  0  0  0  0  0  0  0  0
   10.5380    3.9710   11.4060 N   0  0  0  0  0  4  0  0  0  0  0  0
   10.7810    4.4550   10.0590 C   0  0  0  0  0  0  0  0  0  0  0  0
   10.5430    5.8920    9.8620 C   0  0  0  0  0  0  0  0  0  0  0  0
    9.5310    6.4830   10.6770 N   0  0  0  0  0  0  0  0  0  0  0  0
    8.9950    5.7230   11.7140 C   0  0  0  0  0  0  0  0  0  0  0  0
   10.1120    4.8680   12.3670 C   0  0  0  0  0  0  0  0  0  0  0  0
    9.5740    7.8870   10.8300 C   0  0  0  0  0  0  0  0  0  0  0  0
    8.4800    8.4800   11.6460 C   0  0  0  0  0  0  0  0  0  0  0  0
    9.6930    1.2960   10.1940 O   0  0  0  0  0  0  0  0  0  0  0  0
   15.1230    1.6320    9.0810 C   0  0  0  0  0  0  0  0  0  0  0  0
   15.9010    1.0980    8.2380 O   0  0  0  0  0  0  0  0  0  0  0  0
   15.2420    5.2900   11.1540 H   0  0  0  0  0  0  0  0  0  0  0  0
   19.5420    4.8430   13.4840 H   0  0  0  0  0  0  0  0  0  0  0  0
   18.1000    6.6950   13.9800 H   0  0  0  0  0  0  0  0  0  0  0  0
   20.7980    2.0170   12.2990 H   0  0  0  0  0  0  0  0  0  0  0  0
   20.9290    3.7440   11.9850 H   0  0  0  0  0  0  0  0  0  0  0  0
   20.7390    2.6590   10.5860 H   0  0  0  0  0  0  0  0  0  0  0  0
   17.4500    2.7110    9.6440 H   0  0  0  0  0  0  0  0  0  0  0  0
   13.2020    0.0020    7.7000 H   0  0  0  0  0  0  0  0  0  0  0  0
   10.7250   -0.0440    8.3080 H   0  0  0  0  0  0  0  0  0  0  0  0
   12.4300    3.4250   12.2550 H   0  0  0  0  0  0  0  0  0  0  0  0
   11.1330    2.2700   12.5250 H   0  0  0  0  0  0  0  0  0  0  0  0
    9.6560    3.2960   11.2540 H   0  0  0  0  0  0  0  0  0  0  0  0
   10.2160    3.8330    9.3210 H   0  0  0  0  0  0  0  0  0  0  0  0
   11.8490    4.2400    9.8220 H   0  0  0  0  0  0  0  0  0  0  0  0
   11.5040    6.4610    9.8820 H   0  0  0  0  0  0  0  0  0  0  0  0
   10.1840    6.0240    8.7910 H   0  0  0  0  0  0  0  0  0  0  0  0
    8.4430    6.2950   12.4470 H   0  0  0  0  0  0  0  0  0  0  0  0
    8.3060    4.9300   11.3090 H   0  0  0  0  0  0  0  0  0  0  0  0
    9.4980    4.3160   13.1510 H   0  0  0  0  0  0  0  0  0  0  0  0
   10.8450    5.4470   12.9020 H   0  0  0  0  0  0  0  0  0  0  0  0
   10.5540    8.1420   11.3300 H   0  0  0  0  0  0  0  0  0  0  0  0
    9.6290    8.3290    9.7970 H   0  0  0  0  0  0  0  0  0  0  0  0
    7.6460    7.8040   11.8500 H   0  0  0  0  0  0  0  0  0  0  0  0
    8.8660    8.9080   12.6080 H   0  0  0  0  0  0  0  0  0  0  0  0
    8.0590    9.3240   11.0710 H   0  0  0  0  0  0  0  0  0  0  0  0
  2  1  1  0  0  0  0
  2  7  1  0  0  0  0
  3  2  2  0  0  0  0
  4  3  1  0  0  0  0
  4  5  2  0  0  0  0
  5  6  1  0  0  0  0
  6  7  2  0  0  0  0
  6 32  1  0  0  0  0
  7 33  1  0  0  0  0
  8  5  1  0  0  0  0
  9  8  1  0  0  0  0
  9 35  1  0  0  0  0
  9 34  1  0  0  0  0
 10  4  1  0  0  0  0
 11 10  2  0  0  0  0
 11 12  1  0  0  0  0
 13 18  1  0  0  0  0
 13 12  1  0  0  0  0
 14 13  2  0  0  0  0
 15 16  2  0  0  0  0
 15 14  1  0  0  0  0
 16 17  1  0  0  0  0
 17 28  1  0  0  0  0
 17 18  2  0  0  0  0
 18 19  1  0  0  0  0
 19 40  1  0  0  0  0
 19 41  1  0  0  0  0
 20 19  1  0  0  0  0
 20 25  1  0  0  0  0
 21 20  1  0  0  0  0
 22 45  1  0  0  0  0
 22 21  1  0  0  0  0
 22 23  1  0  0  0  0
 23 26  1  0  0  0  0
 23 24  1  0  0  0  0
 24 25  1  0  0  0  0
 24 47  1  0  0  0  0
 25 50  1  0  0  0  0
 25 49  1  0  0  0  0
 26 51  1  0  0  0  0
 26 27  1  0  0  0  0
 27 53  1  0  0  0  0
 27 54  1  0  0  0  0
 29 14  1  0  0  0  0
 29 11  1  0  0  0  0
 30 29  2  0  0  0  0
 31  3  1  0  0  0  0
 36  9  1  0  0  0  0
 37 10  1  0  0  0  0
 38 15  1  0  0  0  0
 39 16  1  0  0  0  0
 42 20  1  0  0  0  0
 43 21  1  0  0  0  0
 44 21  1  0  0  0  0
 46 22  1  0  0  0  0
 48 24  1  0  0  0  0
 52 26  1  0  0  0  0
 55 27  1  0  0  0  0
M  END
>  <Pose>
1

>  <Score>
-6.19

$$$$
