
 OpenBabel03172210413D

 44 47  0  0  0  0  0  0  0  0999 V2000
   13.0090    0.7480   11.8160 Cl  0  0  0  0  0  0  0  0  0  0  0  0
   12.5330    2.3230   11.2620 C   0  0  0  0  0  0  0  0  0  0  0  0
   12.8680    2.7670   10.0090 C   0  0  0  0  0  0  0  0  0  0  0  0
   12.4620    4.0260    9.6280 C   0  0  0  0  0  0  0  0  0  0  0  0
   11.7340    4.8660   10.4430 C   0  0  0  0  0  0  0  0  0  0  0  0
   11.4060    4.4050   11.6970 C   0  0  0  0  0  0  0  0  0  0  0  0
   11.8090    3.1460   12.0870 C   0  0  0  0  0  0  0  0  0  0  0  0
   11.3190    6.1870   10.0150 N   0  0  0  0  0  0  0  0  0  0  0  0
    9.9530    6.5200   10.2230 C   0  0  0  0  0  0  0  0  0  0  0  0
    9.6120    7.3860   11.3490 C   0  0  0  0  0  0  0  0  0  0  0  0
   10.6650    7.9710   11.8660 O   0  0  0  0  0  0  0  0  0  0  0  0
    8.4170    7.6920   11.9490 N   0  0  0  0  0  0  0  0  0  0  0  0
    7.6830    8.9080   11.8050 C   0  0  0  0  0  0  0  0  0  0  0  0
    6.3000    8.5730   11.2530 C   0  0  0  0  0  0  0  0  0  0  0  0
    5.6930    7.7920   12.2600 O   0  0  0  0  0  0  0  0  0  0  0  0
    6.3170    6.5640   12.2900 C   0  0  0  0  0  0  0  0  0  0  0  0
    7.7520    6.6930   12.8140 C   0  0  0  0  0  0  0  0  0  0  0  0
   13.6170    1.9900    9.1070 N   0  0  0  0  0  0  0  0  0  0  0  0
   14.7530    2.3670    8.5580 N   0  0  0  0  0  0  0  0  0  0  0  0
   15.2140    1.4160    7.7680 N   0  0  0  0  0  0  0  0  0  0  0  0
   14.3430    0.4290    7.8290 N   0  0  0  0  0  0  0  0  0  0  0  0
   13.3240    0.7720    8.6720 C   0  0  0  0  0  0  0  0  0  0  0  0
   12.1940   -0.1160    8.9400 C   0  0  0  0  0  0  0  0  0  0  0  0
   10.7920    0.1860    8.6730 C   0  0  0  0  0  0  0  0  0  0  0  0
   11.5260   -0.7190    7.6690 C   0  0  0  0  0  0  0  0  0  0  0  0
   12.7200    4.4060    8.6230 H   0  0  0  0  0  0  0  0  0  0  0  0
   10.8310    5.0700   12.3370 H   0  0  0  0  0  0  0  0  0  0  0  0
   11.5190    2.8300   13.0990 H   0  0  0  0  0  0  0  0  0  0  0  0
   11.9810    6.8400    9.5850 H   0  0  0  0  0  0  0  0  0  0  0  0
    9.4100    5.5410   10.4060 H   0  0  0  0  0  0  0  0  0  0  0  0
    9.4670    6.8850    9.2730 H   0  0  0  0  0  0  0  0  0  0  0  0
    7.4390    9.2120   12.8950 H   0  0  0  0  0  0  0  0  0  0  0  0
    8.1710    9.7530   11.3500 H   0  0  0  0  0  0  0  0  0  0  0  0
    5.7520    9.4930   11.0470 H   0  0  0  0  0  0  0  0  0  0  0  0
    6.3250    7.9470   10.3630 H   0  0  0  0  0  0  0  0  0  0  0  0
    6.3200    6.1270   11.2710 H   0  0  0  0  0  0  0  0  0  0  0  0
    5.7690    5.8700   12.9390 H   0  0  0  0  0  0  0  0  0  0  0  0
    8.2520    5.7280   12.7960 H   0  0  0  0  0  0  0  0  0  0  0  0
    7.6750    7.1730   13.8100 H   0  0  0  0  0  0  0  0  0  0  0  0
   12.3730   -0.9540    9.6880 H   0  0  0  0  0  0  0  0  0  0  0  0
   10.0110   -0.3130    9.3240 H   0  0  0  0  0  0  0  0  0  0  0  0
   10.3850    1.0680    8.1870 H   0  0  0  0  0  0  0  0  0  0  0  0
   11.1940   -1.7650    7.7030 H   0  0  0  0  0  0  0  0  0  0  0  0
   11.8300   -0.3260    6.7020 H   0  0  0  0  0  0  0  0  0  0  0  0
  2  1  1  0  0  0  0
  2  7  1  0  0  0  0
  3  2  2  0  0  0  0
  4  3  1  0  0  0  0
  4  5  2  0  0  0  0
  5  6  1  0  0  0  0
  6  7  2  0  0  0  0
  6 27  1  0  0  0  0
  7 28  1  0  0  0  0
  8  9  1  0  0  0  0
  8  5  1  0  0  0  0
  9 30  1  0  0  0  0
  9 10  1  0  0  0  0
 10 11  2  0  0  0  0
 10 12  1  0  0  0  0
 12 17  1  0  0  0  0
 13 12  1  0  0  0  0
 13 32  1  0  0  0  0
 14 13  1  0  0  0  0
 14 15  1  0  0  0  0
 15 16  1  0  0  0  0
 16 17  1  0  0  0  0
 16 37  1  0  0  0  0
 17 39  1  0  0  0  0
 18  3  1  0  0  0  0
 19 18  1  0  0  0  0
 20 21  1  0  0  0  0
 20 19  2  0  0  0  0
 21 22  2  0  0  0  0
 22 23  1  0  0  0  0
 22 18  1  0  0  0  0
 23 40  1  0  0  0  0
 24 23  1  0  0  0  0
 24 41  1  0  0  0  0
 25 43  1  0  0  0  0
 25 24  1  0  0  0  0
 25 23  1  0  0  0  0
 26  4  1  0  0  0  0
 29  8  1  0  0  0  0
 31  9  1  0  0  0  0
 33 13  1  0  0  0  0
 34 14  1  0  0  0  0
 35 14  1  0  0  0  0
 36 16  1  0  0  0  0
 38 17  1  0  0  0  0
 42 24  1  0  0  0  0
 44 25  1  0  0  0  0
M  END
>  <Pose>
1

>  <Score>
-5.58

$$$$
