
 OpenBabel03172210413D

 45 48  0  0  0  0  0  0  0  0999 V2000
   10.9690    5.4530    9.6240 S   0  0  0  0  0  0  0  0  0  0  0  0
    9.5900    5.3850    9.0070 O   0  0  0  0  0  0  0  0  0  0  0  0
   11.8470    6.1980    8.6900 O   0  0  0  0  0  0  0  0  0  0  0  0
   10.8440    6.2390   11.1520 N   0  0  0  0  0  0  0  0  0  0  0  0
   10.2760    5.3430   12.0920 C   0  0  0  0  0  0  0  0  0  0  0  0
    9.1110    5.8350   12.9040 C   0  0  0  0  0  0  0  0  0  0  0  0
    8.3500    6.7530   12.1220 N   0  0  0  0  0  0  0  0  0  0  0  0
    9.2120    7.9150   11.9100 C   0  0  0  0  0  0  0  0  0  0  0  0
   10.3050    7.5230   10.9870 C   0  0  0  0  0  0  0  0  0  0  0  0
    7.0980    7.1340   12.6810 C   0  0  0  0  0  0  0  0  0  0  0  0
    6.5260    6.0670   13.5500 C   0  0  0  0  0  0  0  0  0  0  0  0
    5.9740    6.5940   14.7800 N   0  0  0  0  0  0  0  0  0  0  0  0
    4.8130    7.2290   14.9380 N   0  0  0  0  0  0  0  0  0  0  0  0
    4.6310    7.5580   16.2240 C   0  0  0  0  0  0  0  0  0  0  0  0
    5.7020    7.1220   16.8990 N   0  0  0  0  0  0  0  0  0  0  0  0
    5.8140    7.3080   18.2360 C   0  0  0  0  0  0  0  0  0  0  0  0
    4.8420    7.9490   18.9700 C   0  0  0  0  0  0  0  0  0  0  0  0
    3.7260    8.4090   18.3000 C   0  0  0  0  0  0  0  0  0  0  0  0
    3.6410    8.2050   16.9400 C   0  0  0  0  0  0  0  0  0  0  0  0
    6.5290    6.5250   15.9910 C   0  0  0  0  0  0  0  0  0  0  0  0
    7.6240    6.0200   16.3370 O   0  0  0  0  0  0  0  0  0  0  0  0
   11.6400    3.8280    9.8260 C   0  0  0  0  0  0  0  0  0  0  0  0
   13.2280    3.3580   10.2300 S   0  0  0  0  0  0  0  0  0  0  0  0
   13.0260    1.6670   10.2190 C   0  0  0  0  0  0  0  0  0  0  0  0
   11.7050    1.5150    9.8940 C   0  0  0  0  0  0  0  0  0  0  0  0
   10.9910    2.6280    9.6920 C   0  0  0  0  0  0  0  0  0  0  0  0
   14.3170    0.2800   10.5710 B   0  0  0  0  0  0  0  0  0  0  0  0
    9.8930    4.4440   11.5160 H   0  0  0  0  0  0  0  0  0  0  0  0
   11.1080    4.9880   12.7750 H   0  0  0  0  0  0  0  0  0  0  0  0
    8.5590    4.9320   13.2380 H   0  0  0  0  0  0  0  0  0  0  0  0
    9.5760    6.3570   13.7930 H   0  0  0  0  0  0  0  0  0  0  0  0
    8.6600    8.7650   11.4900 H   0  0  0  0  0  0  0  0  0  0  0  0
    9.6620    8.1320   12.9080 H   0  0  0  0  0  0  0  0  0  0  0  0
    9.9180    7.6710    9.9380 H   0  0  0  0  0  0  0  0  0  0  0  0
   11.1380    8.2680   11.1330 H   0  0  0  0  0  0  0  0  0  0  0  0
    7.1820    8.0720   13.3120 H   0  0  0  0  0  0  0  0  0  0  0  0
    6.3820    7.3510   11.8370 H   0  0  0  0  0  0  0  0  0  0  0  0
    5.6690    5.5800   13.0040 H   0  0  0  0  0  0  0  0  0  0  0  0
    7.2860    5.2870   13.8220 H   0  0  0  0  0  0  0  0  0  0  0  0
    6.6940    6.9430   18.7600 H   0  0  0  0  0  0  0  0  0  0  0  0
    4.9150    8.1040   20.0370 H   0  0  0  0  0  0  0  0  0  0  0  0
    2.9480    8.9190   18.8680 H   0  0  0  0  0  0  0  0  0  0  0  0
    2.7670    8.5690   16.4290 H   0  0  0  0  0  0  0  0  0  0  0  0
   11.2780    0.4910    9.8120 H   0  0  0  0  0  0  0  0  0  0  0  0
    9.9060    2.6080    9.4230 H   0  0  0  0  0  0  0  0  0  0  0  0
  1 22  1  0  0  0  0
  1  4  1  0  0  0  0
  2  1  2  0  0  0  0
  3  1  2  0  0  0  0
  4  5  1  0  0  0  0
  5 29  1  0  0  0  0
  5  6  1  0  0  0  0
  6 30  1  0  0  0  0
  6 31  1  0  0  0  0
  7 10  1  0  0  0  0
  7  6  1  0  0  0  0
  8  7  1  0  0  0  0
  8 33  1  0  0  0  0
  9 35  1  0  0  0  0
  9  4  1  0  0  0  0
  9  8  1  0  0  0  0
 10 36  1  0  0  0  0
 10 11  1  0  0  0  0
 11 39  1  0  0  0  0
 11 12  1  0  0  0  0
 12 13  1  0  0  0  0
 12 20  1  0  0  0  0
 13 14  2  0  0  0  0
 14 15  1  0  0  0  0
 14 19  1  0  0  0  0
 15 16  1  0  0  0  0
 16 40  1  0  0  0  0
 16 17  2  0  0  0  0
 17 41  1  0  0  0  0
 18 42  1  0  0  0  0
 18 17  1  0  0  0  0
 19 18  2  0  0  0  0
 20 21  2  0  0  0  0
 20 15  1  0  0  0  0
 22 23  1  0  0  0  0
 24 23  1  0  0  0  0
 24 27  1  0  0  0  0
 25 24  2  0  0  0  0
 26 22  2  0  0  0  0
 26 25  1  0  0  0  0
 28  5  1  0  0  0  0
 32  8  1  0  0  0  0
 34  9  1  0  0  0  0
 37 10  1  0  0  0  0
 38 11  1  0  0  0  0
 43 19  1  0  0  0  0
 44 25  1  0  0  0  0
 45 26  1  0  0  0  0
M  END
>  <Pose>
1

>  <Score>
-6.40

$$$$
