
 OpenBabel03172210413D

 48 51  0  0  0  0  0  0  0  0999 V2000
   20.1060    2.7210   12.9370 B   0  0  0  0  0  0  0  0  0  0  0  0
   18.4960    3.0400   11.9680 C   0  0  0  0  0  0  0  0  0  0  0  0
   17.7220    1.9980   11.4660 C   0  0  0  0  0  0  0  0  0  0  0  0
   16.5600    2.2970   10.7570 C   0  0  0  0  0  0  0  0  0  0  0  0
   16.1300    3.5660   10.5220 C   0  0  0  0  0  0  0  0  0  0  0  0
   16.9440    4.5860   11.0500 C   0  0  0  0  0  0  0  0  0  0  0  0
   18.0990    4.3390   11.7550 C   0  0  0  0  0  0  0  0  0  0  0  0
   14.9590    3.9520    9.7610 C   0  0  0  0  0  0  0  0  0  0  0  0
   13.8280    3.0560    9.7570 N   0  0  0  0  0  0  0  0  0  0  0  0
   13.7170    1.9080    9.0740 C   0  0  0  0  0  0  0  0  0  0  0  0
   12.4910    1.3430    9.3460 C   0  0  0  0  0  0  0  0  0  0  0  0
   11.8920    2.1680   10.1900 N   0  0  0  0  0  0  0  0  0  0  0  0
   12.6790    3.2200   10.4580 C   0  0  0  0  0  0  0  0  0  0  0  0
   12.3780    4.3200   11.3260 N   0  0  0  0  0  0  0  0  0  0  0  0
   11.7430    4.0260   12.5910 C   0  0  0  0  0  0  0  0  0  0  0  0
   10.3560    4.6530   12.5720 C   0  0  0  0  0  0  0  0  0  0  0  0
   10.2510    5.7390   11.6570 N   0  0  0  0  0  0  0  0  0  0  0  0
   11.4370    6.5000   11.4460 C   0  0  0  0  0  0  0  0  0  0  0  0
   12.6460    5.7020   11.0290 C   0  0  0  0  0  0  0  0  0  0  0  0
    9.3800    5.5850   10.5540 C   0  0  0  0  0  0  0  0  0  0  0  0
   12.0650    0.1750    8.8020 N   0  0  0  0  0  0  0  0  0  0  0  0
   12.9030   -0.4400    7.9520 C   0  0  0  0  0  0  0  0  0  0  0  0
   12.4930   -1.5200    7.4580 O   0  0  0  0  0  0  0  0  0  0  0  0
   14.1110    0.0630    7.6430 N   0  0  0  0  0  0  0  0  0  0  0  0
   14.5440    1.2200    8.1780 C   0  0  0  0  0  0  0  0  0  0  0  0
   15.6500    1.7110    7.9130 O   0  0  0  0  0  0  0  0  0  0  0  0
   10.7590   -0.3440    9.1510 C   0  0  0  0  0  0  0  0  0  0  0  0
   18.0190    0.9710   11.6320 H   0  0  0  0  0  0  0  0  0  0  0  0
   16.0220    1.4600   10.3990 H   0  0  0  0  0  0  0  0  0  0  0  0
   16.6860    5.6310   10.9110 H   0  0  0  0  0  0  0  0  0  0  0  0
   18.6890    5.1790   12.1380 H   0  0  0  0  0  0  0  0  0  0  0  0
   14.5690    4.9300   10.1790 H   0  0  0  0  0  0  0  0  0  0  0  0
   15.2640    4.1010    8.6960 H   0  0  0  0  0  0  0  0  0  0  0  0
   12.3500    4.5450   13.3920 H   0  0  0  0  0  0  0  0  0  0  0  0
   11.7270    2.9610   12.8590 H   0  0  0  0  0  0  0  0  0  0  0  0
    9.6540    3.8540   12.2620 H   0  0  0  0  0  0  0  0  0  0  0  0
   10.0680    4.9740   13.5900 H   0  0  0  0  0  0  0  0  0  0  0  0
   11.6730    7.0650   12.3940 H   0  0  0  0  0  0  0  0  0  0  0  0
   11.2400    7.2720   10.6770 H   0  0  0  0  0  0  0  0  0  0  0  0
   13.5170    6.0420   11.6600 H   0  0  0  0  0  0  0  0  0  0  0  0
   12.8580    5.8920    9.9590 H   0  0  0  0  0  0  0  0  0  0  0  0
    9.0690    4.5470   10.3280 H   0  0  0  0  0  0  0  0  0  0  0  0
    9.9050    5.9610    9.6420 H   0  0  0  0  0  0  0  0  0  0  0  0
    8.4480    6.2070   10.6340 H   0  0  0  0  0  0  0  0  0  0  0  0
   14.7540   -0.4210    6.9800 H   0  0  0  0  0  0  0  0  0  0  0  0
   10.3220   -0.9480    8.3210 H   0  0  0  0  0  0  0  0  0  0  0  0
   10.1210    0.4540    9.5230 H   0  0  0  0  0  0  0  0  0  0  0  0
   10.9120   -1.0740    9.9770 H   0  0  0  0  0  0  0  0  0  0  0  0
  2  1  1  0  0  0  0
  3 28  1  0  0  0  0
  3  2  2  0  0  0  0
  4  3  1  0  0  0  0
  5  4  2  0  0  0  0
  5  6  1  0  0  0  0
  6  7  2  0  0  0  0
  7  2  1  0  0  0  0
  7 31  1  0  0  0  0
  8 32  1  0  0  0  0
  8  5  1  0  0  0  0
  9  8  1  0  0  0  0
  9 13  1  0  0  0  0
 10 11  2  0  0  0  0
 10  9  1  0  0  0  0
 11 12  1  0  0  0  0
 12 13  2  0  0  0  0
 13 14  1  0  0  0  0
 14 15  1  0  0  0  0
 15 35  1  0  0  0  0
 15 34  1  0  0  0  0
 16 15  1  0  0  0  0
 16 37  1  0  0  0  0
 17 16  1  0  0  0  0
 18 17  1  0  0  0  0
 18 38  1  0  0  0  0
 19 14  1  0  0  0  0
 19 18  1  0  0  0  0
 19 40  1  0  0  0  0
 20 44  1  0  0  0  0
 20 17  1  0  0  0  0
 21 27  1  0  0  0  0
 21 11  1  0  0  0  0
 22 21  1  0  0  0  0
 23 22  2  0  0  0  0
 24 22  1  0  0  0  0
 24 25  1  0  0  0  0
 25 10  1  0  0  0  0
 26 25  2  0  0  0  0
 27 47  1  0  0  0  0
 27 48  1  0  0  0  0
 29  4  1  0  0  0  0
 30  6  1  0  0  0  0
 33  8  1  0  0  0  0
 36 16  1  0  0  0  0
 39 18  1  0  0  0  0
 41 19  1  0  0  0  0
 42 20  1  0  0  0  0
 43 20  1  0  0  0  0
 45 24  1  0  0  0  0
 46 27  1  0  0  0  0
M  END
>  <Pose>
1

>  <Score>
-5.85

$$$$
