
 OpenBabel03172210413D

 43 46  0  0  0  0  0  0  0  0999 V2000
    7.7010    5.9560   14.4330 B   0  0  0  0  0  0  0  0  0  0  0  0
    8.6970    6.6210   12.9460 C   0  0  0  0  0  0  0  0  0  0  0  0
    8.5850    7.9200   12.5630 C   0  0  0  0  0  0  0  0  0  0  0  0
    9.2740    8.3970   11.5280 N   0  0  0  0  0  0  0  0  0  0  0  0
   10.0950    7.5860   10.8460 C   0  0  0  0  0  0  0  0  0  0  0  0
   10.2490    6.2480   11.1920 C   0  0  0  0  0  0  0  0  0  0  0  0
    9.5420    5.7480   12.2610 C   0  0  0  0  0  0  0  0  0  0  0  0
   11.1600    5.4490   10.4070 C   0  0  0  0  0  0  0  0  0  0  0  0
   11.0300    5.3620    9.1750 O   0  0  0  0  0  0  0  0  0  0  0  0
   12.2680    4.7140   11.0510 N   0  0  0  0  0  0  0  0  0  0  0  0
   12.1020    3.3300   11.1390 C   0  0  0  0  0  0  0  0  0  0  0  0
   12.7600    2.3460   10.3060 C   0  0  0  0  0  0  0  0  0  0  0  0
   14.1900    2.5150   10.3240 C   0  0  0  0  0  0  0  0  0  0  0  0
   14.9720    1.6960    9.5960 C   0  0  0  0  0  0  0  0  0  0  0  0
   14.4180    0.6680    8.8120 C   0  0  0  0  0  0  0  0  0  0  0  0
   13.0560    0.4910    8.7850 C   0  0  0  0  0  0  0  0  0  0  0  0
   12.2300    1.3370    9.5410 C   0  0  0  0  0  0  0  0  0  0  0  0
   10.7650    1.1000    9.5990 C   0  0  0  0  0  0  0  0  0  0  0  0
   10.3530   -0.2980    9.1510 C   0  0  0  0  0  0  0  0  0  0  0  0
   11.0130   -0.6820    7.9250 N   0  0  0  0  0  0  0  0  0  0  0  0
   12.4400   -0.5420    7.9570 C   0  0  0  0  0  0  0  0  0  0  0  0
   13.0930   -1.3380    7.2510 O   0  0  0  0  0  0  0  0  0  0  0  0
   10.2940   -1.1650    6.7650 C   0  0  0  0  0  0  0  0  0  0  0  0
   15.2660   -0.1070    8.1130 O   0  0  0  0  0  0  0  0  0  0  0  0
   16.3010    2.0950    9.8090 O   0  0  0  0  0  0  0  0  0  0  0  0
   16.3270    3.3370   10.4810 C   0  0  0  0  0  0  0  0  0  0  0  0
   15.0110    3.4280   10.9920 O   0  0  0  0  0  0  0  0  0  0  0  0
    7.9280    8.6380   13.0810 H   0  0  0  0  0  0  0  0  0  0  0  0
   10.6740    7.9400    9.9960 H   0  0  0  0  0  0  0  0  0  0  0  0
    9.6410    4.7180   12.5570 H   0  0  0  0  0  0  0  0  0  0  0  0
   13.0010    5.3580   11.3810 H   0  0  0  0  0  0  0  0  0  0  0  0
   12.3110    3.0510   12.2580 H   0  0  0  0  0  0  0  0  0  0  0  0
   10.9520    3.1090   11.1590 H   0  0  0  0  0  0  0  0  0  0  0  0
   10.1790    1.7950    8.9880 H   0  0  0  0  0  0  0  0  0  0  0  0
   10.4030    1.1280   10.6550 H   0  0  0  0  0  0  0  0  0  0  0  0
    9.2430   -0.2500    9.0230 H   0  0  0  0  0  0  0  0  0  0  0  0
   10.6290   -0.9870    9.9800 H   0  0  0  0  0  0  0  0  0  0  0  0
    9.8350   -0.2670    6.2830 H   0  0  0  0  0  0  0  0  0  0  0  0
    9.4730   -1.8340    7.0780 H   0  0  0  0  0  0  0  0  0  0  0  0
   10.9980   -1.6090    6.0500 H   0  0  0  0  0  0  0  0  0  0  0  0
   15.2400   -0.4300    7.2080 H   0  0  0  0  0  0  0  0  0  0  0  0
   17.0890    3.3580   11.2880 H   0  0  0  0  0  0  0  0  0  0  0  0
   16.5490    4.1120    9.7300 H   0  0  0  0  0  0  0  0  0  0  0  0
  2  1  1  0  0  0  0
  3  2  1  0  0  0  0
  3 28  1  0  0  0  0
  4  3  2  0  0  0  0
  5  6  2  0  0  0  0
  5  4  1  0  0  0  0
  6  7  1  0  0  0  0
  7 30  1  0  0  0  0
  7  2  2  0  0  0  0
  8 10  1  0  0  0  0
  8  6  1  0  0  0  0
  9  8  2  0  0  0  0
 10 11  1  0  0  0  0
 10 31  1  0  0  0  0
 11 33  1  0  0  0  0
 11 32  1  0  0  0  0
 12 13  1  0  0  0  0
 12 11  1  0  0  0  0
 13 27  1  0  0  0  0
 14 25  1  0  0  0  0
 14 13  2  0  0  0  0
 15 14  1  0  0  0  0
 16 15  2  0  0  0  0
 16 17  1  0  0  0  0
 17 18  1  0  0  0  0
 17 12  2  0  0  0  0
 18 35  1  0  0  0  0
 19 18  1  0  0  0  0
 19 37  1  0  0  0  0
 20 21  1  0  0  0  0
 20 19  1  0  0  0  0
 21 16  1  0  0  0  0
 22 21  2  0  0  0  0
 23 39  1  0  0  0  0
 23 20  1  0  0  0  0
 24 15  1  0  0  0  0
 25 26  1  0  0  0  0
 26 27  1  0  0  0  0
 26 42  1  0  0  0  0
 29  5  1  0  0  0  0
 34 18  1  0  0  0  0
 36 19  1  0  0  0  0
 38 23  1  0  0  0  0
 40 23  1  0  0  0  0
 41 24  1  0  0  0  0
 43 26  1  0  0  0  0
M  END
>  <Pose>
1

>  <Score>
-7.36

$$$$
