
 OpenBabel03172210413D

 38 41  0  0  1  0  0  0  0  0999 V2000
    4.3060   10.0680   14.6120 Cl  0  0  0  0  0  0  0  0  0  0  0  0
    5.3050    8.6320   14.6980 C   0  0  0  0  0  0  0  0  0  0  0  0
    6.6770    8.7060   14.4610 C   0  0  0  0  0  0  0  0  0  0  0  0
    7.4890    7.6120   14.5180 C   0  0  0  0  0  0  0  0  0  0  0  0
    6.8790    6.4040   14.8270 C   0  0  0  0  0  0  0  0  0  0  0  0
    5.5250    6.3100   15.0660 C   0  0  0  0  0  0  0  0  0  0  0  0
    4.7220    7.4270   15.0030 C   0  0  0  0  0  0  0  0  0  0  0  0
    8.8750    8.0250   14.2190 C   0  0  2  0  0  0  0  0  0  0  0  0
    9.3620    7.3490   12.9620 C   0  0  0  0  0  0  0  0  0  0  0  0
   10.4420    6.6210   12.9090 C   0  0  0  0  0  0  0  0  0  0  0  0
   11.2590    6.4050   14.0580 N   0  0  0  0  0  0  0  0  0  0  0  0
   10.8740    7.0050   15.2820 C   0  0  0  0  0  0  0  0  0  0  0  0
    9.7880    7.7410   15.3460 C   0  0  0  0  0  0  0  0  0  0  0  0
    9.4290    8.3390   16.6250 C   0  0  0  0  0  0  0  0  0  0  0  0
    9.1580    8.8220   17.6400 N   0  0  0  0  0  0  0  0  0  0  0  0
   11.6440    6.8350   16.4760 N   0  0  0  0  0  0  0  0  0  0  0  0
   10.6140    6.1190   11.5310 C   0  0  0  0  0  0  0  0  0  0  0  0
    9.5520    6.6180   10.8150 O   0  0  0  0  0  0  0  0  0  0  0  0
    8.7530    7.3770   11.6380 C   0  0  0  0  0  0  0  0  0  0  0  0
    7.6770    8.0010   11.3330 O   0  0  0  0  0  0  0  0  0  0  0  0
   10.6880    4.6090   11.5620 C   0  0  0  0  0  0  0  0  0  0  0  0
   11.8980    6.6260   10.9000 C   0  0  0  0  0  0  0  0  0  0  0  0
    8.7810    9.4850   13.9810 C   0  0  0  0  0  0  0  0  0  0  0  0
    9.7480   10.2750   13.6850 O   0  0  0  0  0  0  0  0  0  0  0  0
    7.4310    9.8610   14.1360 N   0  0  0  0  0  0  0  0  0  0  0  0
    7.4700    5.5070   14.8860 H   0  0  0  0  0  0  0  0  0  0  0  0
    5.0370    5.3660   15.3090 H   0  0  0  0  0  0  0  0  0  0  0  0
    3.6570    7.3860   15.1850 H   0  0  0  0  0  0  0  0  0  0  0  0
   12.1240    5.8250   14.0220 H   0  0  0  0  0  0  0  0  0  0  0  0
   12.2280    6.0000   16.6120 H   0  0  0  0  0  0  0  0  0  0  0  0
   11.5980    7.5680   17.1950 H   0  0  0  0  0  0  0  0  0  0  0  0
   10.6640    4.1760   10.5460 H   0  0  0  0  0  0  0  0  0  0  0  0
    9.9830    4.1570   12.2680 H   0  0  0  0  0  0  0  0  0  0  0  0
   11.7160    4.3640   11.9590 H   0  0  0  0  0  0  0  0  0  0  0  0
   11.9280    7.7280   11.1350 H   0  0  0  0  0  0  0  0  0  0  0  0
   11.7940    6.4880    9.8060 H   0  0  0  0  0  0  0  0  0  0  0  0
   12.7860    6.0910   11.2420 H   0  0  0  0  0  0  0  0  0  0  0  0
    7.0790   10.8600   14.0210 H   0  0  0  0  0  0  0  0  0  0  0  0
  1  2  1  0  0  0  0
  2  7  1  0  0  0  0
  3  4  1  0  0  0  0
  3  2  2  0  0  0  0
  4  5  2  0  0  0  0
  5 26  1  0  0  0  0
  5  6  1  0  0  0  0
  6 27  1  0  0  0  0
  7  6  2  0  0  0  0
  7 28  1  0  0  0  0
  8  9  1  6  0  0  0
  8  4  1  0  0  0  0
  8 13  1  0  0  0  0
 10  9  2  0  0  0  0
 10 11  1  0  0  0  0
 11 12  1  0  0  0  0
 12 13  2  0  0  0  0
 12 16  1  0  0  0  0
 13 14  1  0  0  0  0
 14 15  3  0  0  0  0
 16 30  1  0  0  0  0
 16 31  1  0  0  0  0
 17 21  1  0  0  0  0
 17 10  1  0  0  0  0
 18 17  1  0  0  0  0
 18 19  1  0  0  0  0
 19  9  1  0  0  0  0
 20 19  2  0  0  0  0
 21 34  1  0  0  0  0
 21 33  1  0  0  0  0
 22 35  1  0  0  0  0
 22 37  1  0  0  0  0
 22 17  1  0  0  0  0
 23 25  1  0  0  0  0
 23  8  1  0  0  0  0
 24 23  2  0  0  0  0
 25  3  1  0  0  0  0
 29 11  1  0  0  0  0
 32 21  1  0  0  0  0
 36 22  1  0  0  0  0
 38 25  1  0  0  0  0
M  END
>  <Pose>
1

>  <Score>
-4.81

$$$$
