
 OpenBabel03172210413D

 36 39  0  0  1  0  0  0  0  0999 V2000
   12.6810   -0.9660    8.0170 Cl  0  0  0  0  0  0  0  0  0  0  0  0
   12.4170    0.5680    8.8280 C   0  0  0  0  0  0  0  0  0  0  0  0
   13.4700    1.4250    9.0700 C   0  0  0  0  0  0  0  0  0  0  0  0
   13.2520    2.6330    9.7110 C   0  0  0  0  0  0  0  0  0  0  0  0
   12.0050    3.0420   10.1330 C   0  0  0  0  0  0  0  0  0  0  0  0
   10.9530    2.1720    9.8850 C   0  0  0  0  0  0  0  0  0  0  0  0
   11.1640    0.9660    9.2450 C   0  0  0  0  0  0  0  0  0  0  0  0
   11.7710    4.2860   10.7950 N   0  0  0  0  0  0  0  0  0  0  0  0
   11.3880    4.5020   12.1620 C   0  0  0  0  0  0  0  0  0  0  0  0
   11.1540    3.6120   13.0160 O   0  0  0  0  0  0  0  0  0  0  0  0
   11.3030    5.9550   12.4370 C   0  0  1  0  0  0  0  0  0  0  0  0
   12.0250    6.3290   13.5650 O   0  0  0  0  0  0  0  0  0  0  0  0
   13.3100    6.1400   13.3110 N   0  0  1  0  0  0  0  0  0  0  0  0
   13.5660    6.1750   11.9390 C   0  0  1  0  0  0  0  0  0  0  0  0
   12.2010    6.5050   11.3340 C   0  0  1  0  0  0  0  0  0  0  0  0
   11.8720    5.5870   10.2180 C   0  0  0  0  0  0  0  0  0  0  0  0
   11.7020    5.8370    8.9870 O   0  0  0  0  0  0  0  0  0  0  0  0
   14.6420    7.0350   11.4270 C   0  0  0  0  0  0  0  0  0  0  0  0
   15.4590    7.7840   12.4040 C   0  0  0  0  0  0  0  0  0  0  0  0
   15.5970    6.9550   13.6620 C   0  0  0  0  0  0  0  0  0  0  0  0
   14.2020    6.7620   14.1990 C   0  0  0  0  0  0  0  0  0  0  0  0
   14.4850    1.1470    8.7540 H   0  0  0  0  0  0  0  0  0  0  0  0
   14.0720    3.3080    9.9040 H   0  0  0  0  0  0  0  0  0  0  0  0
    9.9670    2.4880   10.2140 H   0  0  0  0  0  0  0  0  0  0  0  0
   10.3490    0.2900    9.0520 H   0  0  0  0  0  0  0  0  0  0  0  0
   10.2980    6.3630   12.4080 H   0  0  0  0  0  0  0  0  0  0  0  0
   13.7740    5.1140   11.6040 H   0  0  0  0  0  0  0  0  0  0  0  0
   12.0510    7.5540   11.1260 H   0  0  0  0  0  0  0  0  0  0  0  0
   14.1790    7.7950   10.7280 H   0  0  0  0  0  0  0  0  0  0  0  0
   15.3500    6.4720   10.7470 H   0  0  0  0  0  0  0  0  0  0  0  0
   16.4940    7.9380   12.0130 H   0  0  0  0  0  0  0  0  0  0  0  0
   15.0460    8.7660   12.7070 H   0  0  0  0  0  0  0  0  0  0  0  0
   16.1630    7.5610   14.3960 H   0  0  0  0  0  0  0  0  0  0  0  0
   16.1330    6.0170   13.4980 H   0  0  0  0  0  0  0  0  0  0  0  0
   13.8440    7.7560   14.5670 H   0  0  0  0  0  0  0  0  0  0  0  0
   14.3020    6.1280   15.1260 H   0  0  0  0  0  0  0  0  0  0  0  0
  1  2  1  0  0  0  0
  2  3  2  0  0  0  0
  2  7  1  0  0  0  0
  3  4  1  0  0  0  0
  4 23  1  0  0  0  0
  4  5  2  0  0  0  0
  5  8  1  0  0  0  0
  6  5  1  0  0  0  0
  6 24  1  0  0  0  0
  7  6  2  0  0  0  0
  8  9  1  0  0  0  0
  9 11  1  0  0  0  0
  9 10  2  0  0  0  0
 11 26  1  6  0  0  0
 11 12  1  0  0  0  0
 13 12  1  6  0  0  0
 13 21  1  0  0  0  0
 14 27  1  6  0  0  0
 14 13  1  0  0  0  0
 15 28  1  6  0  0  0
 15 14  1  0  0  0  0
 15 11  1  0  0  0  0
 16  8  1  0  0  0  0
 16 15  1  0  0  0  0
 17 16  2  0  0  0  0
 18 14  1  0  0  0  0
 18 19  1  0  0  0  0
 19 32  1  0  0  0  0
 19 20  1  0  0  0  0
 20 21  1  0  0  0  0
 20 33  1  0  0  0  0
 21 35  1  0  0  0  0
 21 36  1  0  0  0  0
 22  3  1  0  0  0  0
 25  7  1  0  0  0  0
 29 18  1  0  0  0  0
 30 18  1  0  0  0  0
 31 19  1  0  0  0  0
 34 20  1  0  0  0  0
M  END
>  <Pose>
1

>  <Score>
-4.54

$$$$
