
 OpenBabel03172210413D

 54 57  0  0  0  0  0  0  0  0999 V2000
   10.0450   -0.8590    8.7870 B   0  0  0  0  0  0  0  0  0  0  0  0
   11.3780    0.4560    9.1450 C   0  0  0  0  0  0  0  0  0  0  0  0
   11.0340    1.7600    9.4230 C   0  0  0  0  0  0  0  0  0  0  0  0
   11.9940    2.7070    9.6820 C   0  0  0  0  0  0  0  0  0  0  0  0
   13.3150    2.3150    9.6560 C   0  0  0  0  0  0  0  0  0  0  0  0
   13.6780    0.9960    9.3740 C   0  0  0  0  0  0  0  0  0  0  0  0
   12.7050    0.0450    9.1150 C   0  0  0  0  0  0  0  0  0  0  0  0
   14.2660    3.2940    9.9200 O   0  0  0  0  0  0  0  0  0  0  0  0
   15.6260    3.0190   10.1680 C   0  0  0  0  0  0  0  0  0  0  0  0
   11.6420    4.0910    9.9780 C   0  0  0  0  0  0  0  0  0  0  0  0
   11.8540    5.0570    9.1660 N   0  0  0  0  0  0  0  0  0  0  0  0
   11.5240    6.3870    9.4330 N   0  0  0  0  0  0  0  0  0  0  0  0
   11.1970    6.8510   10.7380 C   0  0  0  0  0  0  0  0  0  0  0  0
    9.9320    6.9050   11.2060 N   0  0  0  0  0  4  0  0  0  0  0  0
    9.6580    7.3470   12.4390 C   0  0  0  0  0  0  0  0  0  0  0  0
   10.6770    7.7440   13.2170 N   0  0  0  0  0  0  0  0  0  0  0  0
   11.9740    7.7180   12.8100 C   0  0  0  0  0  0  0  0  0  0  0  0
   12.1780    7.2550   11.5460 N   0  0  0  0  0  0  0  0  0  0  0  0
   13.0380    8.1350   13.6310 N   0  0  0  0  0  0  0  0  0  0  0  0
   14.0820    7.2320   14.0150 C   0  0  0  0  0  0  0  0  0  0  0  0
   14.1830    7.2900   15.5380 C   0  0  0  0  0  0  0  0  0  0  0  0
   14.3960    8.6140   15.8800 O   0  0  0  0  0  0  0  0  0  0  0  0
   13.3140    9.4190   15.6130 C   0  0  0  0  0  0  0  0  0  0  0  0
   13.0910    9.4880   14.1020 C   0  0  0  0  0  0  0  0  0  0  0  0
    8.3270    7.4020   12.9330 N   0  0  0  0  0  0  0  0  0  0  0  0
    7.9680    6.9270   14.2510 C   0  0  0  0  0  0  0  0  0  0  0  0
    6.6610    6.1510   14.2200 C   0  0  0  0  0  0  0  0  0  0  0  0
    5.7060    6.8280   13.4540 O   0  0  0  0  0  0  0  0  0  0  0  0
    6.1100    6.9720   12.1480 C   0  0  0  0  0  0  0  0  0  0  0  0
    7.2670    7.9470   12.1130 C   0  0  0  0  0  0  0  0  0  0  0  0
    9.9870    2.0880    9.4470 H   0  0  0  0  0  0  0  0  0  0  0  0
   14.7320    0.7060    9.3590 H   0  0  0  0  0  0  0  0  0  0  0  0
   13.0080   -0.9660    8.9020 H   0  0  0  0  0  0  0  0  0  0  0  0
   15.7320    2.8850   11.2740 H   0  0  0  0  0  0  0  0  0  0  0  0
   16.0140    2.1660    9.5910 H   0  0  0  0  0  0  0  0  0  0  0  0
   16.2230    3.9220    9.9060 H   0  0  0  0  0  0  0  0  0  0  0  0
   11.1770    4.3320   10.9230 H   0  0  0  0  0  0  0  0  0  0  0  0
   11.5270    7.0450    8.6070 H   0  0  0  0  0  0  0  0  0  0  0  0
   13.8740    6.1860   13.6700 H   0  0  0  0  0  0  0  0  0  0  0  0
   15.0530    7.5980   13.6110 H   0  0  0  0  0  0  0  0  0  0  0  0
   15.0920    6.7120   15.8000 H   0  0  0  0  0  0  0  0  0  0  0  0
   13.3030    6.8470   16.0110 H   0  0  0  0  0  0  0  0  0  0  0  0
   12.3680    9.0090   16.0430 H   0  0  0  0  0  0  0  0  0  0  0  0
   13.5160   10.4290   15.9860 H   0  0  0  0  0  0  0  0  0  0  0  0
   12.1840   10.0690   13.8600 H   0  0  0  0  0  0  0  0  0  0  0  0
   14.0090    9.9740   13.6940 H   0  0  0  0  0  0  0  0  0  0  0  0
    7.7440    7.8520   14.8560 H   0  0  0  0  0  0  0  0  0  0  0  0
    8.7440    6.3110   14.7140 H   0  0  0  0  0  0  0  0  0  0  0  0
    6.8780    5.1450   13.8360 H   0  0  0  0  0  0  0  0  0  0  0  0
    6.2550    6.1470   15.2640 H   0  0  0  0  0  0  0  0  0  0  0  0
    6.3980    5.9750   11.7570 H   0  0  0  0  0  0  0  0  0  0  0  0
    5.2580    7.3200   11.5560 H   0  0  0  0  0  0  0  0  0  0  0  0
    6.9230    8.8800   12.5710 H   0  0  0  0  0  0  0  0  0  0  0  0
    7.6140    8.1440   11.0860 H   0  0  0  0  0  0  0  0  0  0  0  0
  1  2  1  0  0  0  0
  2  3  1  0  0  0  0
  3 31  1  0  0  0  0
  3  4  2  0  0  0  0
  4 10  1  0  0  0  0
  5  4  1  0  0  0  0
  5  8  1  0  0  0  0
  6  5  2  0  0  0  0
  7  2  2  0  0  0  0
  7  6  1  0  0  0  0
  8  9  1  0  0  0  0
  9 34  1  0  0  0  0
 10 37  1  0  0  0  0
 11 12  1  0  0  0  0
 11 10  2  0  0  0  0
 12 13  1  0  0  0  0
 13 14  2  0  0  0  0
 13 18  1  0  0  0  0
 14 15  2  0  0  0  0
 15 25  1  0  0  0  0
 15 16  1  0  0  0  0
 17 16  2  0  0  0  0
 17 19  1  0  0  0  0
 18 17  1  0  0  0  0
 19 20  1  0  0  0  0
 19 24  1  0  0  0  0
 20 21  1  0  0  0  0
 21 41  1  0  0  0  0
 21 22  1  0  0  0  0
 21 42  1  0  0  0  0
 23 22  1  0  0  0  0
 23 44  1  0  0  0  0
 23 43  1  0  0  0  0
 24 23  1  0  0  0  0
 25 26  1  0  0  0  0
 26 48  1  0  0  0  0
 26 47  1  0  0  0  0
 27 26  1  0  0  0  0
 27 50  1  0  0  0  0
 28 27  1  0  0  0  0
 29 28  1  0  0  0  0
 30 29  1  0  0  0  0
 30 53  1  0  0  0  0
 30 25  1  0  0  0  0
 32  6  1  0  0  0  0
 33  7  1  0  0  0  0
 35  9  1  0  0  0  0
 36  9  1  0  0  0  0
 38 12  1  0  0  0  0
 39 20  1  0  0  0  0
 40 20  1  0  0  0  0
 45 24  1  0  0  0  0
 46 24  1  0  0  0  0
 49 27  1  0  0  0  0
 51 29  1  0  0  0  0
 52 29  1  0  0  0  0
 54 30  1  0  0  0  0
M  END
>  <Pose>
1

>  <Score>
-6.93

$$$$
