
 OpenBabel03172210413D

 52 56  0  0  0  0  0  0  0  0999 V2000
    7.8750    6.6130   13.7370 Cl  0  0  0  0  0  0  0  0  0  0  0  0
    9.1820    5.8930   12.8130 C   0  0  0  0  0  0  0  0  0  0  0  0
   10.4580    5.7570   13.3450 C   0  0  0  0  0  0  0  0  0  0  0  0
   11.4720    5.1880   12.6020 C   0  0  0  0  0  0  0  0  0  0  0  0
   11.2730    4.7340   11.3150 C   0  0  0  0  0  0  0  0  0  0  0  0
    9.9820    4.8770   10.7920 C   0  0  0  0  0  0  0  0  0  0  0  0
    8.9630    5.4440   11.5280 C   0  0  0  0  0  0  0  0  0  0  0  0
   12.3410    4.1340   10.5260 C   0  0  0  0  0  0  0  0  0  0  0  0
   12.4790    4.4670    9.3280 O   0  0  0  0  0  0  0  0  0  0  0  0
   13.2200    3.1520   11.1850 C   0  0  0  0  0  0  0  0  0  0  0  0
   14.1350    2.4940   10.2820 N   0  0  0  0  0  0  0  0  0  0  0  0
   13.9210    1.5420    9.3980 N   0  0  0  0  0  0  0  0  0  0  0  0
   15.0440    1.2040    8.7480 C   0  0  0  0  0  0  0  0  0  0  0  0
   14.8040    0.2340    7.8520 N   0  0  0  0  0  0  0  0  0  0  0  0
   13.4930   -0.0890    7.8960 C   0  0  0  0  0  0  0  0  0  0  0  0
   12.9480    0.7460    8.8780 C   0  0  0  0  0  0  0  0  0  0  0  0
   11.5940    0.5930    9.0910 C   0  0  0  0  0  0  0  0  0  0  0  0
   11.0550    1.3310    9.9690 O   0  0  0  0  0  0  0  0  0  0  0  0
   10.8210   -0.2970    8.4140 N   0  0  0  0  0  0  0  0  0  0  0  0
   11.4200   -1.0620    7.4900 C   0  0  0  0  0  0  0  0  0  0  0  0
   10.6770   -1.8900    6.8660 O   0  0  0  0  0  0  0  0  0  0  0  0
   12.7310   -0.9690    7.2260 N   0  0  0  0  0  0  0  0  0  0  0  0
   13.3110   -1.8180    6.2210 C   0  0  0  0  0  0  0  0  0  0  0  0
    9.4070   -0.3970    8.6990 C   0  0  0  0  0  0  0  0  0  0  0  0
   16.0080    2.0040    9.2690 N   0  0  0  0  0  0  0  0  0  0  0  0
   15.4670    2.7970   10.2040 C   0  0  0  0  0  0  0  0  0  0  0  0
   16.1090    3.7880   11.0010 N   0  0  0  0  0  0  0  0  0  0  0  0
   15.3760    4.9080   11.5660 C   0  0  0  0  0  0  0  0  0  0  0  0
   16.2580    6.1280   11.4700 C   0  0  0  0  0  0  0  0  0  0  0  0
   17.4870    5.8830   12.1030 O   0  0  0  0  0  0  0  0  0  0  0  0
   18.2460    4.9670   11.4080 C   0  0  0  0  0  0  0  0  0  0  0  0
   17.5200    3.6770   11.2620 C   0  0  0  0  0  0  0  0  0  0  0  0
   10.6440    6.1020   14.3450 H   0  0  0  0  0  0  0  0  0  0  0  0
   12.4680    5.0820   13.0150 H   0  0  0  0  0  0  0  0  0  0  0  0
    9.7640    4.5410    9.7940 H   0  0  0  0  0  0  0  0  0  0  0  0
    7.9550    5.5600   11.1270 H   0  0  0  0  0  0  0  0  0  0  0  0
   12.7130    2.4490   11.8310 H   0  0  0  0  0  0  0  0  0  0  0  0
   13.8490    3.7760   11.8940 H   0  0  0  0  0  0  0  0  0  0  0  0
   12.6910   -2.7440    6.1440 H   0  0  0  0  0  0  0  0  0  0  0  0
   14.3610   -2.0750    6.5120 H   0  0  0  0  0  0  0  0  0  0  0  0
   13.3890   -1.2890    5.2540 H   0  0  0  0  0  0  0  0  0  0  0  0
    8.8740    0.4870    8.2610 H   0  0  0  0  0  0  0  0  0  0  0  0
    9.2590   -0.3020    9.8050 H   0  0  0  0  0  0  0  0  0  0  0  0
    8.9720   -1.3520    8.4020 H   0  0  0  0  0  0  0  0  0  0  0  0
   15.1290    4.7340   12.6350 H   0  0  0  0  0  0  0  0  0  0  0  0
   14.4440    5.1210   10.9920 H   0  0  0  0  0  0  0  0  0  0  0  0
   16.3830    6.5160   10.4590 H   0  0  0  0  0  0  0  0  0  0  0  0
   15.7730    6.9340   12.0800 H   0  0  0  0  0  0  0  0  0  0  0  0
   18.5170    5.3380   10.3830 H   0  0  0  0  0  0  0  0  0  0  0  0
   19.1610    4.7780   12.0100 H   0  0  0  0  0  0  0  0  0  0  0  0
   17.6620    2.9880   12.1240 H   0  0  0  0  0  0  0  0  0  0  0  0
   17.9840    3.1310   10.3940 H   0  0  0  0  0  0  0  0  0  0  0  0
  2  3  1  0  0  0  0
  2  1  1  0  0  0  0
  3 33  1  0  0  0  0
  4 34  1  0  0  0  0
  4  3  2  0  0  0  0
  5  4  1  0  0  0  0
  6  5  2  0  0  0  0
  6  7  1  0  0  0  0
  7  2  2  0  0  0  0
  8 10  1  0  0  0  0
  8  5  1  0  0  0  0
  9  8  2  0  0  0  0
 10 37  1  0  0  0  0
 10 38  1  0  0  0  0
 11 10  1  0  0  0  0
 12 11  1  0  0  0  0
 13 25  1  0  0  0  0
 13 12  1  0  0  0  0
 14 15  1  0  0  0  0
 14 13  2  0  0  0  0
 15 16  2  0  0  0  0
 16 17  1  0  0  0  0
 16 12  1  0  0  0  0
 17 18  2  0  0  0  0
 19 24  1  0  0  0  0
 19 17  1  0  0  0  0
 20 19  1  0  0  0  0
 21 20  2  0  0  0  0
 22 20  1  0  0  0  0
 22 15  1  0  0  0  0
 23 40  1  0  0  0  0
 23 22  1  0  0  0  0
 24 43  1  0  0  0  0
 25 26  2  0  0  0  0
 26 11  1  0  0  0  0
 26 27  1  0  0  0  0
 27 32  1  0  0  0  0
 27 28  1  0  0  0  0
 28 45  1  0  0  0  0
 29 28  1  0  0  0  0
 29 48  1  0  0  0  0
 29 30  1  0  0  0  0
 31 50  1  0  0  0  0
 31 30  1  0  0  0  0
 32 31  1  0  0  0  0
 32 51  1  0  0  0  0
 35  6  1  0  0  0  0
 36  7  1  0  0  0  0
 39 23  1  0  0  0  0
 41 23  1  0  0  0  0
 42 24  1  0  0  0  0
 44 24  1  0  0  0  0
 46 28  1  0  0  0  0
 47 29  1  0  0  0  0
 49 31  1  0  0  0  0
 52 32  1  0  0  0  0
M  END
>  <Pose>
1

>  <Score>
-7.34

$$$$
