
 OpenBabel03172210413D

 49 52  0  0  0  0  0  0  0  0999 V2000
    4.3270    7.7160   10.9720 Cl  0  0  0  0  0  0  0  0  0  0  0  0
    5.5950    8.4110   11.9880 C   0  0  0  0  0  0  0  0  0  0  0  0
    6.9150    8.0600   11.9020 C   0  0  0  0  0  0  0  0  0  0  0  0
    7.8490    8.6620   12.6710 C   0  0  0  0  0  0  0  0  0  0  0  0
    7.5070    9.6430   13.5600 C   0  0  0  0  0  0  0  0  0  0  0  0
    6.1420   10.0070   13.6530 C   0  0  0  0  0  0  0  0  0  0  0  0
    5.1870    9.4030   12.8850 C   0  0  0  0  0  0  0  0  0  0  0  0
    3.8300    9.7740   13.0210 O   0  0  0  0  0  0  0  0  0  0  0  0
    8.3820   10.2630   14.2980 O   0  0  0  0  0  0  0  0  0  0  0  0
    9.6710    9.9530   14.2070 C   0  0  0  0  0  0  0  0  0  0  0  0
   10.4840   10.5560   14.9180 O   0  0  0  0  0  0  0  0  0  0  0  0
   10.1070    8.9540   13.3140 C   0  0  0  0  0  0  0  0  0  0  0  0
    9.2240    8.2890   12.5360 C   0  0  0  0  0  0  0  0  0  0  0  0
    9.4190    7.1550   11.6180 C   0  0  0  0  0  0  0  0  0  0  0  0
   10.5270    7.0540   10.7730 N   0  0  0  0  0  4  0  0  0  0  0  0
   10.6440    6.1930    9.6980 C   0  0  0  0  0  0  0  0  0  0  0  0
   12.0890    5.5860    9.6350 C   0  0  0  0  0  0  0  0  0  0  0  0
   11.9800    4.6570   10.8600 N   0  0  0  0  0  0  0  0  0  0  0  0
   11.9110    5.3710   12.0400 C   0  0  0  0  0  0  0  0  0  0  0  0
   11.7220    6.8520   11.6430 C   0  0  0  0  0  0  0  0  0  0  0  0
   11.9040    3.2950   10.4980 C   0  0  0  0  0  0  0  0  0  0  0  0
   10.7900    2.6150   10.1470 C   0  0  0  0  0  0  0  0  0  0  0  0
   10.8550    1.3180    9.5620 C   0  0  0  0  0  0  0  0  0  0  0  0
   12.0530    0.6970    9.3270 C   0  0  0  0  0  0  0  0  0  0  0  0
   13.2060    1.3850    9.6930 C   0  0  0  0  0  0  0  0  0  0  0  0
   13.1320    2.6460   10.2660 C   0  0  0  0  0  0  0  0  0  0  0  0
   12.0650   -0.5690    8.7560 O   0  0  0  0  0  0  0  0  0  0  0  0
   11.5080   -0.7960    7.4520 C   0  0  0  0  0  0  0  0  0  0  0  0
    7.1560    7.3050   11.2030 H   0  0  0  0  0  0  0  0  0  0  0  0
    5.8530   10.7800   14.3540 H   0  0  0  0  0  0  0  0  0  0  0  0
   11.1550    8.7150   13.3270 H   0  0  0  0  0  0  0  0  0  0  0  0
    8.5710    6.4910   11.4170 H   0  0  0  0  0  0  0  0  0  0  0  0
    9.8710    6.3830   12.4940 H   0  0  0  0  0  0  0  0  0  0  0  0
   10.7050    8.0450   10.4080 H   0  0  0  0  0  0  0  0  0  0  0  0
   10.0430    5.2380    9.7090 H   0  0  0  0  0  0  0  0  0  0  0  0
   10.4780    6.5900    8.6680 H   0  0  0  0  0  0  0  0  0  0  0  0
   12.8930    6.1960    9.7530 H   0  0  0  0  0  0  0  0  0  0  0  0
   12.0390    4.9560    8.7440 H   0  0  0  0  0  0  0  0  0  0  0  0
   11.0180    5.0390   12.6320 H   0  0  0  0  0  0  0  0  0  0  0  0
   12.7800    5.3490   12.7470 H   0  0  0  0  0  0  0  0  0  0  0  0
   12.5830    7.1960   11.1170 H   0  0  0  0  0  0  0  0  0  0  0  0
   11.6200    7.5030   12.5370 H   0  0  0  0  0  0  0  0  0  0  0  0
    9.8210    3.0920   10.3390 H   0  0  0  0  0  0  0  0  0  0  0  0
    9.9330    0.8480    9.3010 H   0  0  0  0  0  0  0  0  0  0  0  0
   14.1770    0.9320    9.5220 H   0  0  0  0  0  0  0  0  0  0  0  0
   14.0320    3.1210   10.5640 H   0  0  0  0  0  0  0  0  0  0  0  0
   10.5440   -1.4020    7.5890 H   0  0  0  0  0  0  0  0  0  0  0  0
   12.1880   -1.2560    6.7420 H   0  0  0  0  0  0  0  0  0  0  0  0
   11.1240    0.1310    6.9780 H   0  0  0  0  0  0  0  0  0  0  0  0
  1  2  1  0  0  0  0
  2  7  1  0  0  0  0
  3  2  2  0  0  0  0
  3  4  1  0  0  0  0
  4  5  2  0  0  0  0
  5  6  1  0  0  0  0
  5  9  1  0  0  0  0
  6 30  1  0  0  0  0
  7  8  1  0  0  0  0
  7  6  2  0  0  0  0
 10  9  1  0  0  0  0
 10 11  2  0  0  0  0
 12 31  1  0  0  0  0
 12 10  1  0  0  0  0
 13  4  1  0  0  0  0
 13 12  2  0  0  0  0
 14 33  1  0  0  0  0
 14 13  1  0  0  0  0
 15 14  1  0  0  0  0
 15 20  1  0  0  0  0
 16 35  1  0  0  0  0
 16 15  1  0  0  0  0
 17 16  1  0  0  0  0
 17 37  1  0  0  0  0
 17 18  1  0  0  0  0
 18 19  1  0  0  0  0
 19 39  1  0  0  0  0
 19 40  1  0  0  0  0
 20 19  1  0  0  0  0
 20 42  1  0  0  0  0
 21 18  1  0  0  0  0
 22 43  1  0  0  0  0
 22 21  2  0  0  0  0
 23 22  1  0  0  0  0
 24 23  2  0  0  0  0
 24 25  1  0  0  0  0
 25 26  2  0  0  0  0
 26 21  1  0  0  0  0
 26 46  1  0  0  0  0
 27 24  1  0  0  0  0
 28 47  1  0  0  0  0
 28 27  1  0  0  0  0
 29  3  1  0  0  0  0
 32 14  1  0  0  0  0
 34 15  1  0  0  0  0
 36 16  1  0  0  0  0
 38 17  1  0  0  0  0
 41 20  1  0  0  0  0
 44 23  1  0  0  0  0
 45 25  1  0  0  0  0
 48 28  1  0  0  0  0
 49 28  1  0  0  0  0
M  END
>  <Pose>
1

>  <Score>
-6.09

$$$$
