
 OpenBabel03172210413D

 41 44  0  0  1  0  0  0  0  0999 V2000
   11.2300    5.3070   10.6480 S   0  0  0  0  0  0  0  0  0  0  0  0
   12.0050    6.5820   10.4020 O   0  0  0  0  0  0  0  0  0  0  0  0
   10.6500    4.8940    9.3280 O   0  0  0  0  0  0  0  0  0  0  0  0
   12.2580    4.1410   11.2540 N   0  0  0  0  0  0  0  0  0  0  0  0
   13.6340    4.3590   11.2230 C   0  0  0  0  0  0  0  0  0  0  0  0
   14.4410    3.1110   10.9490 C   0  0  0  0  0  0  0  0  0  0  0  0
   13.7100    2.0950   10.1570 C   0  0  2  0  0  0  0  0  0  0  0  0
   12.3650    1.9620   10.4040 C   0  0  0  0  0  0  0  0  0  0  0  0
   11.6240    1.0690    9.7380 N   0  0  0  0  0  0  0  0  0  0  0  0
   12.2200    0.2730    8.7910 C   0  0  1  0  0  0  0  0  0  0  0  0
   13.5420    0.4170    8.5620 N   0  0  0  0  0  0  0  0  0  0  0  0
   13.8720   -0.4600    7.6110 N   0  0  0  0  0  0  0  0  0  0  0  0
   12.8050   -1.1520    7.2320 C   0  0  0  0  0  0  0  0  0  0  0  0
   11.7090   -0.7100    7.9710 C   0  0  0  0  0  0  0  0  0  0  0  0
   14.3300    1.2930    9.1980 C   0  0  0  0  0  0  0  0  0  0  0  0
   15.5590    1.4270    8.9840 O   0  0  0  0  0  0  0  0  0  0  0  0
   11.7510    2.8310   11.4210 C   0  0  0  0  0  0  0  0  0  0  0  0
    9.9020    5.7250   11.7070 C   0  0  0  0  0  0  0  0  0  0  0  0
    8.6350    6.0270   11.2390 C   0  0  0  0  0  0  0  0  0  0  0  0
    7.6190    6.3520   12.1260 C   0  0  0  0  0  0  0  0  0  0  0  0
    7.8140    6.3890   13.4870 C   0  0  0  0  0  0  0  0  0  0  0  0
    9.0760    6.0880   13.9540 C   0  0  0  0  0  0  0  0  0  0  0  0
   10.0850    5.7650   13.0740 C   0  0  0  0  0  0  0  0  0  0  0  0
    6.7710    6.7200   14.3660 O   0  0  0  0  0  0  0  0  0  0  0  0
    6.9110    6.4580   15.7500 C   0  0  0  0  0  0  0  0  0  0  0  0
    6.0210    6.7330   11.5160 Cl  0  0  0  0  0  0  0  0  0  0  0  0
   13.9280    5.1860   10.5250 H   0  0  0  0  0  0  0  0  0  0  0  0
   13.9640    4.7090   12.2470 H   0  0  0  0  0  0  0  0  0  0  0  0
   15.4330    3.3490   10.5110 H   0  0  0  0  0  0  0  0  0  0  0  0
   14.6860    2.6010   11.9280 H   0  0  0  0  0  0  0  0  0  0  0  0
   14.8290   -0.5940    7.2110 H   0  0  0  0  0  0  0  0  0  0  0  0
   12.7520   -1.9240    6.4920 H   0  0  0  0  0  0  0  0  0  0  0  0
   10.7130   -1.0800    7.8900 H   0  0  0  0  0  0  0  0  0  0  0  0
   10.6560    2.8540   11.3760 H   0  0  0  0  0  0  0  0  0  0  0  0
   12.1130    2.4490   12.4210 H   0  0  0  0  0  0  0  0  0  0  0  0
    8.4910    5.9950   10.1660 H   0  0  0  0  0  0  0  0  0  0  0  0
    9.2450    6.1130   15.0390 H   0  0  0  0  0  0  0  0  0  0  0  0
   11.0740    5.5310   13.4640 H   0  0  0  0  0  0  0  0  0  0  0  0
    7.8940    6.9200   16.0540 H   0  0  0  0  0  0  0  0  0  0  0  0
    6.1470    7.0300   16.3260 H   0  0  0  0  0  0  0  0  0  0  0  0
    6.8840    5.3810   15.9770 H   0  0  0  0  0  0  0  0  0  0  0  0
  1  4  1  0  0  0  0
  1 18  1  0  0  0  0
  2  1  2  0  0  0  0
  3  1  2  0  0  0  0
  4 17  1  0  0  0  0
  5  4  1  0  0  0  0
  5 28  1  0  0  0  0
  6  5  1  0  0  0  0
  6 30  1  0  0  0  0
  7 15  1  1  0  0  0
  7  8  1  0  0  0  0
  7  6  1  0  0  0  0
  8 17  1  0  0  0  0
  9  8  2  0  0  0  0
 10 14  1  1  0  0  0
 10  9  1  0  0  0  0
 11 10  1  0  0  0  0
 11 15  1  0  0  0  0
 12 11  1  0  0  0  0
 13 12  1  0  0  0  0
 13 14  2  0  0  0  0
 16 15  2  0  0  0  0
 17 35  1  0  0  0  0
 18 23  1  0  0  0  0
 19 18  2  0  0  0  0
 19 20  1  0  0  0  0
 20 21  2  0  0  0  0
 21 22  1  0  0  0  0
 21 24  1  0  0  0  0
 22 37  1  0  0  0  0
 23 38  1  0  0  0  0
 23 22  2  0  0  0  0
 24 25  1  0  0  0  0
 25 41  1  0  0  0  0
 25 39  1  0  0  0  0
 25 40  1  0  0  0  0
 26 20  1  0  0  0  0
 27  5  1  0  0  0  0
 29  6  1  0  0  0  0
 31 12  1  0  0  0  0
 32 13  1  0  0  0  0
 33 14  1  0  0  0  0
 34 17  1  0  0  0  0
 36 19  1  0  0  0  0
M  END
>  <Pose>
1

>  <Score>
-7.62

$$$$
