
 OpenBabel03172210413D

 47 50  0  0  1  0  0  0  0  0999 V2000
   10.7490    2.6240   10.9400 Cl  0  0  0  0  0  0  0  0  0  0  0  0
   11.4970    4.1830   11.1780 C   0  0  0  0  0  0  0  0  0  0  0  0
   11.2440    5.2760   10.3580 C   0  0  0  0  0  0  0  0  0  0  0  0
   11.8400    6.4860   10.5610 C   0  0  0  0  0  0  0  0  0  0  0  0
   12.7280    6.6670   11.6040 C   0  0  0  0  0  0  0  0  0  0  0  0
   12.9820    5.5920   12.4180 C   0  0  0  0  0  0  0  0  0  0  0  0
   12.3760    4.3650   12.2100 C   0  0  0  0  0  0  0  0  0  0  0  0
   13.3250    7.9720   11.8040 C   0  0  2  0  0  0  0  0  0  0  0  0
   14.5440    8.1770   12.4110 N   0  0  0  0  0  4  0  0  0  0  0  0
   14.3100    7.9280   13.8180 C   0  0  0  0  0  0  0  0  0  0  0  0
   14.9340    7.3110   14.7680 C   0  0  0  0  0  0  0  0  0  0  0  0
   14.4410    7.2190   16.1540 C   0  0  0  0  0  0  0  0  0  0  0  0
   13.1330    7.8760   16.4200 C   0  0  0  0  0  0  0  0  0  0  0  0
   12.7600    8.9360   15.4390 C   0  0  0  0  0  0  0  0  0  0  0  0
   13.0730    8.5690   14.0740 N   0  0  0  0  0  0  0  0  0  0  0  0
   12.3770    8.7050   12.7970 C   0  0  0  0  0  0  0  0  0  0  0  0
   15.7440    7.6500   11.9580 C   0  0  0  0  0  0  0  0  0  0  0  0
   16.7420    8.3140   11.3280 C   0  0  0  0  0  0  0  0  0  0  0  0
   17.9020    7.6440   10.9420 C   0  0  0  0  0  0  0  0  0  0  0  0
   18.0940    6.2930   11.1760 C   0  0  0  0  0  0  0  0  0  0  0  0
   17.0610    5.6440   11.8190 C   0  0  0  0  0  0  0  0  0  0  0  0
   15.9090    6.2730   12.2110 C   0  0  0  0  0  0  0  0  0  0  0  0
   19.2620    5.6660   10.7740 O   0  0  0  0  0  0  0  0  0  0  0  0
   19.4600    4.3120   11.0870 C   0  0  0  0  0  0  0  0  0  0  0  0
   13.1850    8.7480   10.6190 O   0  0  0  0  0  0  0  0  0  0  0  0
   10.5360    5.1040    9.5380 H   0  0  0  0  0  0  0  0  0  0  0  0
   11.5810    7.2910    9.8650 H   0  0  0  0  0  0  0  0  0  0  0  0
   13.6450    5.6240   13.2670 H   0  0  0  0  0  0  0  0  0  0  0  0
   12.5840    3.5080   12.8670 H   0  0  0  0  0  0  0  0  0  0  0  0
   14.6990    9.2510   12.4180 H   0  0  0  0  0  0  0  0  0  0  0  0
   15.8730    6.8030   14.5820 H   0  0  0  0  0  0  0  0  0  0  0  0
   15.2330    7.5090   16.8890 H   0  0  0  0  0  0  0  0  0  0  0  0
   14.3120    6.1100   16.3450 H   0  0  0  0  0  0  0  0  0  0  0  0
   13.2000    8.3450   17.4440 H   0  0  0  0  0  0  0  0  0  0  0  0
   12.2830    7.1390   16.4410 H   0  0  0  0  0  0  0  0  0  0  0  0
   13.2840    9.8950   15.7180 H   0  0  0  0  0  0  0  0  0  0  0  0
   11.6780    9.1610   15.4890 H   0  0  0  0  0  0  0  0  0  0  0  0
   12.3650    9.7860   12.5540 H   0  0  0  0  0  0  0  0  0  0  0  0
   11.3840    8.2500   12.8090 H   0  0  0  0  0  0  0  0  0  0  0  0
   16.6240    9.3680   11.1380 H   0  0  0  0  0  0  0  0  0  0  0  0
   18.6660    8.2380   10.4400 H   0  0  0  0  0  0  0  0  0  0  0  0
   17.2340    4.5770   11.9950 H   0  0  0  0  0  0  0  0  0  0  0  0
   15.1340    5.6960   12.7310 H   0  0  0  0  0  0  0  0  0  0  0  0
   19.6060    4.1760   12.1770 H   0  0  0  0  0  0  0  0  0  0  0  0
   20.2840    3.8660   10.4900 H   0  0  0  0  0  0  0  0  0  0  0  0
   18.5610    3.6840   10.8210 H   0  0  0  0  0  0  0  0  0  0  0  0
   13.5730    9.6350   10.8370 H   0  0  0  0  0  0  0  0  0  0  0  0
  1  2  1  0  0  0  0
  2  7  1  0  0  0  0
  3  4  1  0  0  0  0
  3  2  2  0  0  0  0
  4  5  2  0  0  0  0
  5  8  1  0  0  0  0
  5  6  1  0  0  0  0
  6 28  1  0  0  0  0
  7  6  2  0  0  0  0
  7 29  1  0  0  0  0
  8 25  1  6  0  0  0
  8  9  1  0  0  0  0
  8 16  1  0  0  0  0
  9 30  1  0  0  0  0
  9 10  1  0  0  0  0
 10 15  1  0  0  0  0
 10 11  2  0  0  0  0
 11 12  1  0  0  0  0
 12 33  1  0  0  0  0
 12 13  1  0  0  0  0
 12 32  1  0  0  0  0
 13 35  1  0  0  0  0
 13 34  1  0  0  0  0
 14 37  1  0  0  0  0
 14 36  1  0  0  0  0
 14 13  1  0  0  0  0
 15 14  1  0  0  0  0
 16 39  1  0  0  0  0
 16 15  1  0  0  0  0
 17 22  1  0  0  0  0
 17  9  1  0  0  0  0
 18 17  2  0  0  0  0
 19 20  2  0  0  0  0
 19 18  1  0  0  0  0
 20 21  1  0  0  0  0
 21 42  1  0  0  0  0
 21 22  2  0  0  0  0
 22 43  1  0  0  0  0
 23 24  1  0  0  0  0
 23 20  1  0  0  0  0
 24 44  1  0  0  0  0
 25 47  1  0  0  0  0
 26  3  1  0  0  0  0
 27  4  1  0  0  0  0
 31 11  1  0  0  0  0
 38 16  1  0  0  0  0
 40 18  1  0  0  0  0
 41 19  1  0  0  0  0
 45 24  1  0  0  0  0
 46 24  1  0  0  0  0
M  END
>  <Pose>
1

>  <Score>
-4.88

$$$$
