
 OpenBabel03172210413D

 38 40  0  0  1  0  0  0  0  0999 V2000
    3.0450    8.9320   16.4850 Cl  0  0  0  0  0  0  0  0  0  0  0  0
    4.2960    8.1380   15.5550 C   0  0  0  0  0  0  0  0  0  0  0  0
    5.1450    7.2380   16.1650 C   0  0  0  0  0  0  0  0  0  0  0  0
    6.1030    6.6480   15.3710 C   0  0  0  0  0  0  0  0  0  0  0  0
    6.9350    5.8060   15.8300 O   0  0  0  0  0  0  0  0  0  0  0  0
    6.1780    6.9570   14.0680 N   0  0  0  0  0  0  0  0  0  0  0  0
    5.3880    7.8090   13.4440 N   0  0  0  0  0  0  0  0  0  0  0  0
    5.5040    8.1150   12.0280 C   0  0  1  0  0  0  0  0  0  0  0  0
    6.7200    8.9620   11.7190 C   0  0  0  0  0  0  0  0  0  0  0  0
    7.9620    8.0920   11.6190 C   0  0  0  0  0  0  0  0  0  0  0  0
    8.2340    7.3720   12.9200 C   0  0  0  0  0  0  0  0  0  0  0  0
    7.2100    6.3150   13.2400 C   0  0  2  0  0  0  0  0  0  0  0  0
    6.5370    5.9230   11.9720 C   0  0  0  0  0  0  0  0  0  0  0  0
    5.7440    6.7880   11.3480 C   0  0  0  0  0  0  0  0  0  0  0  0
    4.4290    8.4090   14.2100 C   0  0  0  0  0  0  0  0  0  0  0  0
    3.6490    9.2400   13.6330 O   0  0  0  0  0  0  0  0  0  0  0  0
    5.0690    6.9120   17.5500 N   0  0  0  0  0  0  0  0  0  0  0  0
    5.4390    7.8000   18.6190 C   0  0  0  0  0  0  0  0  0  0  0  0
    4.2320    8.5010   19.2180 C   0  0  0  0  0  0  0  0  0  0  0  0
    6.1930    7.1490   19.7300 C   0  0  0  0  0  0  0  0  0  0  0  0
    4.6020    8.5770   11.6280 H   0  0  0  0  0  0  0  0  0  0  0  0
    6.8520    9.8010   12.4120 H   0  0  0  0  0  0  0  0  0  0  0  0
    6.5600    9.3980   10.7090 H   0  0  0  0  0  0  0  0  0  0  0  0
    8.8200    8.7700   11.4460 H   0  0  0  0  0  0  0  0  0  0  0  0
    7.8210    7.3670   10.8020 H   0  0  0  0  0  0  0  0  0  0  0  0
    8.2400    8.1730   13.7150 H   0  0  0  0  0  0  0  0  0  0  0  0
    9.2680    6.9760   12.9000 H   0  0  0  0  0  0  0  0  0  0  0  0
    7.6470    5.4440   13.7670 H   0  0  0  0  0  0  0  0  0  0  0  0
    6.6860    4.9290   11.5460 H   0  0  0  0  0  0  0  0  0  0  0  0
    5.2810    6.5700   10.3940 H   0  0  0  0  0  0  0  0  0  0  0  0
    4.7070    5.9310   17.7460 H   0  0  0  0  0  0  0  0  0  0  0  0
    6.0800    8.5990   18.1980 H   0  0  0  0  0  0  0  0  0  0  0  0
    3.5280    7.7650   19.6670 H   0  0  0  0  0  0  0  0  0  0  0  0
    4.6090    9.1290   20.0440 H   0  0  0  0  0  0  0  0  0  0  0  0
    3.7270    9.1650   18.4860 H   0  0  0  0  0  0  0  0  0  0  0  0
    6.3170    7.9210   20.5280 H   0  0  0  0  0  0  0  0  0  0  0  0
    7.2140    6.8030   19.4340 H   0  0  0  0  0  0  0  0  0  0  0  0
    5.6030    6.3420   20.1850 H   0  0  0  0  0  0  0  0  0  0  0  0
  2  3  2  0  0  0  0
  2  1  1  0  0  0  0
  3 17  1  0  0  0  0
  4  5  2  0  0  0  0
  4  3  1  0  0  0  0
  6  4  1  0  0  0  0
  7  6  1  0  0  0  0
  7 15  1  0  0  0  0
  8 21  1  6  0  0  0
  8  7  1  0  0  0  0
  9  8  1  0  0  0  0
  9 22  1  0  0  0  0
 10  9  1  0  0  0  0
 10 11  1  0  0  0  0
 11 12  1  0  0  0  0
 11 26  1  0  0  0  0
 12 28  1  1  0  0  0
 12  6  1  0  0  0  0
 13 12  1  0  0  0  0
 14 13  2  0  0  0  0
 14  8  1  0  0  0  0
 15  2  1  0  0  0  0
 16 15  2  0  0  0  0
 17 31  1  0  0  0  0
 17 18  1  0  0  0  0
 18 19  1  0  0  0  0
 18 20  1  0  0  0  0
 19 33  1  0  0  0  0
 19 34  1  0  0  0  0
 20 38  1  0  0  0  0
 20 36  1  0  0  0  0
 23  9  1  0  0  0  0
 24 10  1  0  0  0  0
 25 10  1  0  0  0  0
 27 11  1  0  0  0  0
 29 13  1  0  0  0  0
 30 14  1  0  0  0  0
 32 18  1  0  0  0  0
 35 19  1  0  0  0  0
 37 20  1  0  0  0  0
M  END
>  <Pose>
1

>  <Score>
-4.96

$$$$
