
 OpenBabel03172210413D

 59 62  0  0  1  0  0  0  0  0999 V2000
    6.6760    9.8570   14.2530 Cl  0  0  0  0  0  0  0  0  0  0  0  0
    6.9600    8.2100   14.9480 C   0  0  2  0  0  0  0  0  0  0  0  0
    6.9040    7.1820   14.1130 C   0  0  2  0  0  0  0  0  0  0  0  0
    7.0940    5.8540   14.7470 C   0  0  0  0  0  0  0  0  0  0  0  0
    7.3160    5.8230   16.0070 N   0  0  0  0  0  0  0  0  0  0  0  0
    7.3830    6.9060   16.8250 N   0  0  0  0  0  0  0  0  0  0  0  0
    7.2060    8.0940   16.3160 C   0  0  0  0  0  0  0  0  0  0  0  0
    7.2600    9.1750   16.9950 O   0  0  0  0  0  0  0  0  0  0  0  0
    7.9130    6.6830   18.1690 C   0  0  0  0  0  0  0  0  0  0  0  0
    7.1190    6.5760   19.2650 C   0  0  0  0  0  0  0  0  0  0  0  0
    7.6380    6.2450   20.4980 C   0  0  0  0  0  0  0  0  0  0  0  0
    9.0020    6.0080   20.6550 C   0  0  0  0  0  0  0  0  0  0  0  0
    9.7940    6.1340   19.5140 C   0  0  0  0  0  0  0  0  0  0  0  0
    9.2690    6.4570   18.3230 C   0  0  0  0  0  0  0  0  0  0  0  0
    7.0140    7.2180   12.7320 N   0  0  0  0  0  0  0  0  0  0  0  0
    6.2750    6.6900   11.6640 C   0  0  0  0  0  0  0  0  0  0  0  0
    7.2530    5.7770   10.8360 C   0  0  0  0  0  0  0  0  0  0  0  0
    8.4720    5.4790   11.4030 N   0  0  0  0  0  0  0  0  0  0  0  0
    9.0550    6.3920   12.3480 C   0  0  0  0  0  0  0  0  0  0  0  0
    8.3450    7.7820   12.2490 C   0  0  0  0  0  0  0  0  0  0  0  0
    9.5960    5.2800   10.4280 C   0  0  0  0  0  0  0  0  0  0  0  0
   10.3170    4.0580   10.7530 C   0  0  0  0  0  0  0  0  0  0  0  0
   10.5360    3.4830   11.6860 O   0  0  0  0  0  0  0  0  0  0  0  0
   10.9590    3.3690    9.3280 N   0  0  0  0  0  0  0  0  0  0  0  0
   11.2670    2.0400    9.9660 C   0  0  0  0  0  0  0  0  0  0  0  0
   12.2220    1.7980   10.6520 O   0  0  0  0  0  0  0  0  0  0  0  0
   10.2320    1.0840    9.6500 N   0  0  0  0  0  0  0  0  0  0  0  0
   10.2960    0.0160    8.7250 C   0  0  0  0  0  0  0  0  0  0  0  0
   11.3180    0.0300    7.6620 C   0  0  0  0  0  0  0  0  0  0  0  0
   12.5460   -0.7140    8.1970 C   0  0  0  0  0  0  0  0  0  0  0  0
   11.8970   -1.7630    9.0680 C   0  0  0  0  0  0  0  0  0  0  0  0
   10.6320   -1.2260    9.5770 C   0  0  0  0  0  0  0  0  0  0  0  0
    7.0050    5.0840   14.0140 H   0  0  0  0  0  0  0  0  0  0  0  0
    6.0520    6.7790   19.1760 H   0  0  0  0  0  0  0  0  0  0  0  0
    7.0330    6.1220   21.3430 H   0  0  0  0  0  0  0  0  0  0  0  0
    9.3590    5.7410   21.6240 H   0  0  0  0  0  0  0  0  0  0  0  0
   10.8530    5.9170   19.6680 H   0  0  0  0  0  0  0  0  0  0  0  0
    9.9150    6.5400   17.4590 H   0  0  0  0  0  0  0  0  0  0  0  0
    5.3420    6.1810   11.8630 H   0  0  0  0  0  0  0  0  0  0  0  0
    5.9900    7.5610   11.0090 H   0  0  0  0  0  0  0  0  0  0  0  0
    7.3290    6.3270    9.8480 H   0  0  0  0  0  0  0  0  0  0  0  0
    6.6100    4.8900   10.5480 H   0  0  0  0  0  0  0  0  0  0  0  0
    8.8900    6.1270   13.4210 H   0  0  0  0  0  0  0  0  0  0  0  0
   10.0810    6.6280   12.0760 H   0  0  0  0  0  0  0  0  0  0  0  0
    8.7560    8.5110   12.8810 H   0  0  0  0  0  0  0  0  0  0  0  0
    8.2630    7.9800   11.1520 H   0  0  0  0  0  0  0  0  0  0  0  0
    9.0890    5.2820    9.4730 H   0  0  0  0  0  0  0  0  0  0  0  0
   10.2540    6.1500   10.5190 H   0  0  0  0  0  0  0  0  0  0  0  0
   10.8000    4.0530    9.0050 H   0  0  0  0  0  0  0  0  0  0  0  0
    9.3050    1.2250   10.1740 H   0  0  0  0  0  0  0  0  0  0  0  0
    9.2760   -0.1080    8.1970 H   0  0  0  0  0  0  0  0  0  0  0  0
   10.9430   -0.5950    6.8160 H   0  0  0  0  0  0  0  0  0  0  0  0
   11.5970    1.0330    7.2800 H   0  0  0  0  0  0  0  0  0  0  0  0
   13.1810   -0.0420    8.8130 H   0  0  0  0  0  0  0  0  0  0  0  0
   13.1330   -1.1830    7.3630 H   0  0  0  0  0  0  0  0  0  0  0  0
   12.6090   -1.8870    9.9630 H   0  0  0  0  0  0  0  0  0  0  0  0
   11.7980   -2.7550    8.5820 H   0  0  0  0  0  0  0  0  0  0  0  0
    9.7780   -1.9260    9.6700 H   0  0  0  0  0  0  0  0  0  0  0  0
   10.8620   -0.8190   10.6410 H   0  0  0  0  0  0  0  0  0  0  0  0
  2  1  1  1  0  0  0
  2  7  1  0  0  0  0
  3 15  1  6  0  0  0
  3  4  1  0  0  0  0
  3  2  1  0  0  0  0
  4  5  2  0  0  0  0
  5  6  1  0  0  0  0
  6  9  1  0  0  0  0
  7  6  1  0  0  0  0
  7  8  2  0  0  0  0
  9 14  2  0  0  0  0
  9 10  1  0  0  0  0
 10 11  2  0  0  0  0
 11 12  1  0  0  0  0
 11 35  1  0  0  0  0
 12 36  1  0  0  0  0
 13 37  1  0  0  0  0
 13 12  2  0  0  0  0
 14 13  1  0  0  0  0
 16 39  1  0  0  0  0
 16 15  1  0  0  0  0
 17 18  1  0  0  0  0
 17 16  1  0  0  0  0
 18 19  1  0  0  0  0
 19 43  1  0  0  0  0
 20 19  1  0  0  0  0
 20 15  1  0  0  0  0
 20 45  1  0  0  0  0
 21 48  1  0  0  0  0
 21 22  1  0  0  0  0
 21 18  1  0  0  0  0
 22 23  2  0  0  0  0
 24 25  1  0  0  0  0
 24 22  1  0  0  0  0
 25 26  2  0  0  0  0
 27 25  1  0  0  0  0
 27 50  1  0  0  0  0
 28 32  1  0  0  0  0
 28 27  1  0  0  0  0
 29 30  1  0  0  0  0
 29 28  1  0  0  0  0
 30 54  1  0  0  0  0
 30 31  1  0  0  0  0
 31 32  1  0  0  0  0
 31 56  1  0  0  0  0
 32 58  1  0  0  0  0
 32 59  1  0  0  0  0
 33  4  1  0  0  0  0
 34 10  1  0  0  0  0
 38 14  1  0  0  0  0
 40 16  1  0  0  0  0
 41 17  1  0  0  0  0
 42 17  1  0  0  0  0
 44 19  1  0  0  0  0
 46 20  1  0  0  0  0
 47 21  1  0  0  0  0
 49 24  1  0  0  0  0
 51 28  1  0  0  0  0
 52 29  1  0  0  0  0
 53 29  1  0  0  0  0
 55 30  1  0  0  0  0
 57 31  1  0  0  0  0
M  END
>  <Pose>
1

>  <Score>
-6.41

$$$$
