
 OpenBabel03172210413D

 50 54  0  0  0  0  0  0  0  0999 V2000
    9.5020    7.4380   11.9160 S   0  0  0  0  0  0  0  0  0  0  0  0
    9.8690    8.0240   10.5560 O   0  0  0  0  0  0  0  0  0  0  0  0
   10.0830    8.2950   13.0100 O   0  0  0  0  0  0  0  0  0  0  0  0
   10.0410    5.8700   11.9780 N   0  0  0  0  0  0  0  0  0  0  0  0
   11.3790    5.5690   12.2480 C   0  0  0  0  0  0  0  0  0  0  0  0
   11.7690    4.2250   11.6240 C   0  0  0  0  0  0  0  0  0  0  0  0
   11.3850    4.2280   10.2690 N   0  0  0  0  0  0  0  0  0  0  0  0
   10.0090    4.4590   10.0470 C   0  0  0  0  0  0  0  0  0  0  0  0
    9.3300    4.8400   11.3440 C   0  0  0  0  0  0  0  0  0  0  0  0
   11.9940    3.2480    9.4270 C   0  0  0  0  0  0  0  0  0  0  0  0
   13.4330    3.1540    9.7680 C   0  0  0  0  0  0  0  0  0  0  0  0
   14.2750    2.2280    9.1830 C   0  0  0  0  0  0  0  0  0  0  0  0
   15.6110    2.1030    9.4640 C   0  0  0  0  0  0  0  0  0  0  0  0
   16.2870    1.2080    8.8580 O   0  0  0  0  0  0  0  0  0  0  0  0
   16.1870    2.9340   10.3830 N   0  0  0  0  0  0  0  0  0  0  0  0
   17.4110    2.9210   10.7340 N   0  0  0  0  0  0  0  0  0  0  0  0
   17.8940    3.7430   11.6180 C   0  0  0  0  0  0  0  0  0  0  0  0
   16.4640    4.6330   11.9980 S   0  0  0  0  0  0  0  0  0  0  0  0
   15.3710    3.8270   10.9470 C   0  0  0  0  0  0  0  0  0  0  0  0
   14.0550    3.9480   10.6670 N   0  0  0  0  0  0  0  0  0  0  0  0
   19.2450    3.9100   12.1680 C   0  0  0  0  0  0  0  0  0  0  0  0
   19.7900    2.8830   12.9070 C   0  0  0  0  0  0  0  0  0  0  0  0
   21.0630    2.9800   13.4540 C   0  0  0  0  0  0  0  0  0  0  0  0
   21.8070    4.1240   13.2570 C   0  0  0  0  0  0  0  0  0  0  0  0
   21.2800    5.1700   12.5180 C   0  0  0  0  0  0  0  0  0  0  0  0
   20.0140    5.0270   11.9970 C   0  0  0  0  0  0  0  0  0  0  0  0
   23.3980    4.2590   13.9340 Cl  0  0  0  0  0  0  0  0  0  0  0  0
    7.7560    7.5120   11.9960 C   0  0  0  0  0  0  0  0  0  0  0  0
    6.9580    8.5020   11.5070 N   0  0  0  0  0  0  0  0  0  0  0  0
    5.6760    8.2260   11.7530 C   0  0  0  0  0  0  0  0  0  0  0  0
    5.5870    7.0570   12.4030 N   0  0  0  0  0  0  0  0  0  0  0  0
    6.8680    6.6210   12.5500 C   0  0  0  0  0  0  0  0  0  0  0  0
   11.4860    5.4830   13.3760 H   0  0  0  0  0  0  0  0  0  0  0  0
   12.1420    6.3020   11.8980 H   0  0  0  0  0  0  0  0  0  0  0  0
   11.1930    3.4540   12.1760 H   0  0  0  0  0  0  0  0  0  0  0  0
   12.8560    4.0350   11.7690 H   0  0  0  0  0  0  0  0  0  0  0  0
    9.9010    5.3410    9.3750 H   0  0  0  0  0  0  0  0  0  0  0  0
    9.4690    3.5690    9.6320 H   0  0  0  0  0  0  0  0  0  0  0  0
    8.2670    5.1700   11.1430 H   0  0  0  0  0  0  0  0  0  0  0  0
    9.2430    3.9610   12.0180 H   0  0  0  0  0  0  0  0  0  0  0  0
   11.9060    3.5950    8.3780 H   0  0  0  0  0  0  0  0  0  0  0  0
   11.5260    2.2770    9.6100 H   0  0  0  0  0  0  0  0  0  0  0  0
   13.7910    1.5620    8.4400 H   0  0  0  0  0  0  0  0  0  0  0  0
   19.2530    1.9650   13.0920 H   0  0  0  0  0  0  0  0  0  0  0  0
   21.5180    2.1920   14.0380 H   0  0  0  0  0  0  0  0  0  0  0  0
   21.8630    6.0670   12.3640 H   0  0  0  0  0  0  0  0  0  0  0  0
   19.6150    5.8440   11.4240 H   0  0  0  0  0  0  0  0  0  0  0  0
    4.8410    8.8510   11.4680 H   0  0  0  0  0  0  0  0  0  0  0  0
    4.7240    6.5890   12.7230 H   0  0  0  0  0  0  0  0  0  0  0  0
    7.1050    5.6980   13.0430 H   0  0  0  0  0  0  0  0  0  0  0  0
  1  4  1  0  0  0  0
  1 28  1  0  0  0  0
  1  3  2  0  0  0  0
  2  1  2  0  0  0  0
  4  5  1  0  0  0  0
  5 33  1  0  0  0  0
  6 36  1  0  0  0  0
  6 35  1  0  0  0  0
  6  5  1  0  0  0  0
  7  6  1  0  0  0  0
  8  7  1  0  0  0  0
  8  9  1  0  0  0  0
  9  4  1  0  0  0  0
  9 40  1  0  0  0  0
 10 42  1  0  0  0  0
 10 11  1  0  0  0  0
 10  7  1  0  0  0  0
 11 20  1  0  0  0  0
 12 13  1  0  0  0  0
 12 11  2  0  0  0  0
 13 15  1  0  0  0  0
 14 13  2  0  0  0  0
 15 16  1  0  0  0  0
 15 19  1  0  0  0  0
 16 17  2  0  0  0  0
 17 18  1  0  0  0  0
 17 21  1  0  0  0  0
 19 18  1  0  0  0  0
 20 19  2  0  0  0  0
 21 22  1  0  0  0  0
 22 44  1  0  0  0  0
 22 23  2  0  0  0  0
 23 45  1  0  0  0  0
 24 23  1  0  0  0  0
 24 27  1  0  0  0  0
 25 24  2  0  0  0  0
 26 21  2  0  0  0  0
 26 25  1  0  0  0  0
 28 32  2  0  0  0  0
 29 30  2  0  0  0  0
 29 28  1  0  0  0  0
 30 31  1  0  0  0  0
 31 32  1  0  0  0  0
 31 49  1  0  0  0  0
 32 50  1  0  0  0  0
 34  5  1  0  0  0  0
 37  8  1  0  0  0  0
 38  8  1  0  0  0  0
 39  9  1  0  0  0  0
 41 10  1  0  0  0  0
 43 12  1  0  0  0  0
 46 25  1  0  0  0  0
 47 26  1  0  0  0  0
 48 30  1  0  0  0  0
M  END
>  <Pose>
1

>  <Score>
-7.12

$$$$
