
 OpenBabel03172210413D

 67 70  0  0  1  0  0  0  0  0999 V2000
    8.9200    7.7660   12.2140 S   0  0  0  0  0  0  0  0  0  0  0  0
    8.3620    8.4750   10.9810 O   0  0  0  0  0  0  0  0  0  0  0  0
    9.9850    8.7280   12.7250 O   0  0  0  0  0  0  0  0  0  0  0  0
    9.6670    6.3630   11.7270 N   0  0  0  0  0  0  0  0  0  0  0  0
   10.7300    5.8310   12.4840 C   0  0  0  0  0  0  0  0  0  0  0  0
   12.0140    5.6760   11.6990 C   0  0  2  0  0  0  0  0  0  0  0  0
   11.8180    5.4770   10.2450 C   0  0  0  0  0  0  0  0  0  0  0  0
   10.4590    5.0800    9.7950 C   0  0  0  0  0  0  0  0  0  0  0  0
    9.3130    5.7120   10.5440 C   0  0  0  0  0  0  0  0  0  0  0  0
   12.8480    4.5810   12.2570 C   0  0  0  0  0  0  0  0  0  0  0  0
   14.0910    4.7480   12.2970 O   0  0  0  0  0  0  0  0  0  0  0  0
   12.2320    3.3640   12.7370 N   0  0  0  0  0  0  0  0  0  0  0  0
   11.7270    2.4630   11.7660 C   0  0  0  0  0  0  0  0  0  0  0  0
   12.6080    2.0370   10.6540 C   0  0  0  0  0  0  0  0  0  0  0  0
   12.0290    1.6540    9.4200 N   0  0  0  0  0  0  0  0  0  0  0  0
   10.6450    1.5650    9.3390 C   0  0  0  0  0  0  0  0  0  0  0  0
   10.0710    0.1960    9.1110 C   0  0  0  0  0  0  0  0  0  0  0  0
   10.8200   -0.5550    8.2170 O   0  0  0  0  0  0  0  0  0  0  0  0
   12.0710   -0.7380    8.8060 C   0  0  0  0  0  0  0  0  0  0  0  0
   12.7720    0.6010    8.7690 C   0  0  0  0  0  0  0  0  0  0  0  0
    7.6980    7.6200   13.4230 C   0  0  0  0  0  0  0  0  0  0  0  0
    7.9080    8.1350   14.6930 C   0  0  0  0  0  0  0  0  0  0  0  0
    6.9630    8.0580   15.6870 C   0  0  0  0  0  0  0  0  0  0  0  0
    5.7410    7.4340   15.4090 C   0  0  0  0  0  0  0  0  0  0  0  0
    5.5450    6.9320   14.1640 C   0  0  0  0  0  0  0  0  0  0  0  0
    6.4990    7.0120   13.1630 C   0  0  0  0  0  0  0  0  0  0  0  0
    6.1080    6.2570   11.4300 B   0  0  0  0  0  0  0  0  0  0  0  0
    4.8640    7.4540   16.6110 C   0  0  0  0  0  0  0  0  0  0  0  0
    5.8760    7.6500   17.7220 C   0  0  0  0  0  0  0  0  0  0  0  0
    6.8730    8.4820   17.0400 N   0  0  0  0  0  0  0  0  0  0  0  0
    7.5770    9.5050   17.6710 C   0  0  0  0  0  0  0  0  0  0  0  0
    8.2370    9.2540   18.7390 O   0  0  0  0  0  0  0  0  0  0  0  0
    7.6210   10.8850   17.1940 C   0  0  0  0  0  0  0  0  0  0  0  0
    8.6340   11.7270   17.9670 C   0  0  0  0  0  0  0  0  0  0  0  0
   10.4430    4.7910   12.8150 H   0  0  0  0  0  0  0  0  0  0  0  0
   10.8610    6.4170   13.4080 H   0  0  0  0  0  0  0  0  0  0  0  0
   12.5720    6.6450   11.8740 H   0  0  0  0  0  0  0  0  0  0  0  0
   12.5190    4.6610    9.8890 H   0  0  0  0  0  0  0  0  0  0  0  0
   12.0960    6.4100    9.6940 H   0  0  0  0  0  0  0  0  0  0  0  0
   10.3360    5.4010    8.7260 H   0  0  0  0  0  0  0  0  0  0  0  0
   10.3860    3.9630    9.7500 H   0  0  0  0  0  0  0  0  0  0  0  0
    8.6620    6.3460    9.9150 H   0  0  0  0  0  0  0  0  0  0  0  0
    8.6350    4.8430   10.8230 H   0  0  0  0  0  0  0  0  0  0  0  0
   12.2040    3.2600   13.7540 H   0  0  0  0  0  0  0  0  0  0  0  0
   10.8400    2.9710   11.2910 H   0  0  0  0  0  0  0  0  0  0  0  0
   11.3320    1.5660   12.3470 H   0  0  0  0  0  0  0  0  0  0  0  0
   13.3870    2.8580   10.4580 H   0  0  0  0  0  0  0  0  0  0  0  0
   13.2910    1.2080   11.0490 H   0  0  0  0  0  0  0  0  0  0  0  0
   10.3530    2.1290    8.3680 H   0  0  0  0  0  0  0  0  0  0  0  0
   10.1190    2.1550   10.1010 H   0  0  0  0  0  0  0  0  0  0  0  0
   10.0610   -0.3560   10.0660 H   0  0  0  0  0  0  0  0  0  0  0  0
    9.0290    0.2350    8.7400 H   0  0  0  0  0  0  0  0  0  0  0  0
   11.9920   -1.1820    9.7990 H   0  0  0  0  0  0  0  0  0  0  0  0
   12.7020   -1.4350    8.1930 H   0  0  0  0  0  0  0  0  0  0  0  0
   12.8140    0.8930    7.6780 H   0  0  0  0  0  0  0  0  0  0  0  0
   13.8230    0.5540    9.0920 H   0  0  0  0  0  0  0  0  0  0  0  0
    8.8320    8.6270   14.9610 H   0  0  0  0  0  0  0  0  0  0  0  0
    4.5990    6.4380   13.9150 H   0  0  0  0  0  0  0  0  0  0  0  0
    4.1090    8.2430   16.5930 H   0  0  0  0  0  0  0  0  0  0  0  0
    4.3860    6.4680   16.7480 H   0  0  0  0  0  0  0  0  0  0  0  0
    5.4390    8.1760   18.5940 H   0  0  0  0  0  0  0  0  0  0  0  0
    6.2720    6.6930   18.0650 H   0  0  0  0  0  0  0  0  0  0  0  0
    7.9880   10.8250   16.1210 H   0  0  0  0  0  0  0  0  0  0  0  0
    6.6680   11.4200   17.1950 H   0  0  0  0  0  0  0  0  0  0  0  0
    9.1900   12.3630   17.2620 H   0  0  0  0  0  0  0  0  0  0  0  0
    9.2970   11.0290   18.5230 H   0  0  0  0  0  0  0  0  0  0  0  0
    8.0800   12.3370   18.7070 H   0  0  0  0  0  0  0  0  0  0  0  0
  1  3  2  0  0  0  0
  1 21  1  0  0  0  0
  2  1  2  0  0  0  0
  4  1  1  0  0  0  0
  4  5  1  0  0  0  0
  5 35  1  0  0  0  0
  5 36  1  0  0  0  0
  6 37  1  1  0  0  0
  6 10  1  0  0  0  0
  6  5  1  0  0  0  0
  7  6  1  0  0  0  0
  8  7  1  0  0  0  0
  8  9  1  0  0  0  0
  9 43  1  0  0  0  0
  9  4  1  0  0  0  0
 10 11  2  0  0  0  0
 10 12  1  0  0  0  0
 12 44  1  0  0  0  0
 13 46  1  0  0  0  0
 13 12  1  0  0  0  0
 14 48  1  0  0  0  0
 14 13  1  0  0  0  0
 15 14  1  0  0  0  0
 16 15  1  0  0  0  0
 16 50  1  0  0  0  0
 17 16  1  0  0  0  0
 17 51  1  0  0  0  0
 18 19  1  0  0  0  0
 18 17  1  0  0  0  0
 19 53  1  0  0  0  0
 20 19  1  0  0  0  0
 20 56  1  0  0  0  0
 20 15  1  0  0  0  0
 21 22  1  0  0  0  0
 22 57  1  0  0  0  0
 22 23  2  0  0  0  0
 23 30  1  0  0  0  0
 24 23  1  0  0  0  0
 24 28  1  0  0  0  0
 25 24  2  0  0  0  0
 26 21  2  0  0  0  0
 26 25  1  0  0  0  0
 27 26  1  0  0  0  0
 28 60  1  0  0  0  0
 28 29  1  0  0  0  0
 29 62  1  0  0  0  0
 29 61  1  0  0  0  0
 30 31  1  0  0  0  0
 30 29  1  0  0  0  0
 31 32  2  0  0  0  0
 33 64  1  0  0  0  0
 33 31  1  0  0  0  0
 33 34  1  0  0  0  0
 34 66  1  0  0  0  0
 34 67  1  0  0  0  0
 38  7  1  0  0  0  0
 39  7  1  0  0  0  0
 40  8  1  0  0  0  0
 41  8  1  0  0  0  0
 42  9  1  0  0  0  0
 45 13  1  0  0  0  0
 47 14  1  0  0  0  0
 49 16  1  0  0  0  0
 52 17  1  0  0  0  0
 54 19  1  0  0  0  0
 55 20  1  0  0  0  0
 58 25  1  0  0  0  0
 59 28  1  0  0  0  0
 63 33  1  0  0  0  0
 65 34  1  0  0  0  0
M  END
>  <Pose>
1

>  <Score>
-6.30

$$$$
