
 OpenBabel03172210413D

 49 52  0  0  1  0  0  0  0  0999 V2000
    3.1190    8.0110   16.4160 Cl  0  0  0  0  0  0  0  0  0  0  0  0
    4.3920    7.6030   15.2660 C   0  0  0  0  0  0  0  0  0  0  0  0
    5.3790    6.7140   15.5990 C   0  0  0  0  0  0  0  0  0  0  0  0
    6.3710    6.4020   14.6880 C   0  0  0  0  0  0  0  0  0  0  0  0
    6.4160    6.9560   13.4270 C   0  0  0  0  0  0  0  0  0  0  0  0
    5.4150    7.8490   13.1050 C   0  0  0  0  0  0  0  0  0  0  0  0
    4.4050    8.1720   14.0230 C   0  0  0  0  0  0  0  0  0  0  0  0
    7.4370    6.6300   12.4890 N   0  0  0  0  0  0  0  0  0  0  0  0
    8.8640    6.9170   12.5730 C   0  0  0  0  0  0  0  0  0  0  0  0
    9.5560    5.8720   11.7440 C   0  0  2  0  0  0  0  0  0  0  0  0
    8.5250    5.2610   10.8550 C   0  0  0  0  0  0  0  0  0  0  0  0
    7.2620    5.9360   11.2340 C   0  0  0  0  0  0  0  0  0  0  0  0
    6.1420    5.9650   10.6270 O   0  0  0  0  0  0  0  0  0  0  0  0
   10.3860    4.9270   12.5010 C   0  0  0  0  0  0  0  0  0  0  0  0
   10.0680    4.7370   13.7340 O   0  0  0  0  0  0  0  0  0  0  0  0
   11.4890    4.2080   12.0300 N   0  0  0  0  0  0  0  0  0  0  0  0
   12.3300    4.7610   10.9800 C   0  0  0  0  0  0  0  0  0  0  0  0
   12.3950    3.8090    9.7900 C   0  0  0  0  0  0  0  0  0  0  0  0
   12.3590    2.4590   10.2690 N   0  0  0  0  0  0  0  0  0  0  0  0
   12.8330    2.1860   11.5920 C   0  0  0  0  0  0  0  0  0  0  0  0
   11.8570    2.9090   12.5400 C   0  0  0  0  0  0  0  0  0  0  0  0
   11.8580    1.4160    9.4610 C   0  0  0  0  0  0  0  0  0  0  0  0
   12.5760    0.6230    8.6180 N   0  0  0  0  0  0  0  0  0  0  0  0
   11.7480   -0.2530    8.0340 C   0  0  0  0  0  0  0  0  0  0  0  0
   10.4770   -0.0230    8.5050 C   0  0  0  0  0  0  0  0  0  0  0  0
   10.5870    0.9830    9.3550 N   0  0  0  0  0  0  0  0  0  0  0  0
   14.0240    0.7180    8.3870 C   0  0  0  0  0  0  0  0  0  0  0  0
    5.3460    6.2760   16.5930 H   0  0  0  0  0  0  0  0  0  0  0  0
    7.1250    5.6930   15.0100 H   0  0  0  0  0  0  0  0  0  0  0  0
    5.4060    8.3030   12.1470 H   0  0  0  0  0  0  0  0  0  0  0  0
    3.6250    8.8730   13.7590 H   0  0  0  0  0  0  0  0  0  0  0  0
    9.1670    6.9440   13.6180 H   0  0  0  0  0  0  0  0  0  0  0  0
    8.9910    7.9520   12.1510 H   0  0  0  0  0  0  0  0  0  0  0  0
   10.2300    6.4620   11.0460 H   0  0  0  0  0  0  0  0  0  0  0  0
    8.6630    5.5140    9.7590 H   0  0  0  0  0  0  0  0  0  0  0  0
    8.4890    4.1650   10.9050 H   0  0  0  0  0  0  0  0  0  0  0  0
   13.3580    4.8540   11.4040 H   0  0  0  0  0  0  0  0  0  0  0  0
   12.0240    5.7710   10.6750 H   0  0  0  0  0  0  0  0  0  0  0  0
   13.3930    3.9530    9.3100 H   0  0  0  0  0  0  0  0  0  0  0  0
   11.5630    4.0540    9.0960 H   0  0  0  0  0  0  0  0  0  0  0  0
   12.7710    1.1080   11.8610 H   0  0  0  0  0  0  0  0  0  0  0  0
   13.8520    2.6000   11.7270 H   0  0  0  0  0  0  0  0  0  0  0  0
   12.3540    2.9440   13.5300 H   0  0  0  0  0  0  0  0  0  0  0  0
   10.9590    2.2730   12.5120 H   0  0  0  0  0  0  0  0  0  0  0  0
   12.0300   -1.0110    7.3150 H   0  0  0  0  0  0  0  0  0  0  0  0
    9.5520   -0.5490    8.2430 H   0  0  0  0  0  0  0  0  0  0  0  0
   14.1980    0.9790    7.3140 H   0  0  0  0  0  0  0  0  0  0  0  0
   14.4300    1.5220    9.0200 H   0  0  0  0  0  0  0  0  0  0  0  0
   14.4860   -0.2560    8.5570 H   0  0  0  0  0  0  0  0  0  0  0  0
  2  3  1  0  0  0  0
  2  1  1  0  0  0  0
  3 28  1  0  0  0  0
  4 29  1  0  0  0  0
  4  3  2  0  0  0  0
  5  4  1  0  0  0  0
  6  5  2  0  0  0  0
  6  7  1  0  0  0  0
  7  2  2  0  0  0  0
  8  9  1  0  0  0  0
  8  5  1  0  0  0  0
  9 32  1  0  0  0  0
 10 34  1  6  0  0  0
 10 14  1  0  0  0  0
 10  9  1  0  0  0  0
 11 36  1  0  0  0  0
 11 12  1  0  0  0  0
 11 10  1  0  0  0  0
 12  8  1  0  0  0  0
 13 12  2  0  0  0  0
 14 15  2  0  0  0  0
 16 14  1  0  0  0  0
 16 21  1  0  0  0  0
 17 37  1  0  0  0  0
 17 16  1  0  0  0  0
 18 19  1  0  0  0  0
 18 17  1  0  0  0  0
 19 20  1  0  0  0  0
 20 42  1  0  0  0  0
 20 41  1  0  0  0  0
 20 21  1  0  0  0  0
 21 43  1  0  0  0  0
 22 19  1  0  0  0  0
 23 22  1  0  0  0  0
 24 25  2  0  0  0  0
 24 23  1  0  0  0  0
 25 26  1  0  0  0  0
 26 22  2  0  0  0  0
 27 49  1  0  0  0  0
 27 23  1  0  0  0  0
 27 48  1  0  0  0  0
 30  6  1  0  0  0  0
 31  7  1  0  0  0  0
 33  9  1  0  0  0  0
 35 11  1  0  0  0  0
 38 17  1  0  0  0  0
 39 18  1  0  0  0  0
 40 18  1  0  0  0  0
 44 21  1  0  0  0  0
 45 24  1  0  0  0  0
 46 25  1  0  0  0  0
 47 27  1  0  0  0  0
M  END
>  <Pose>
1

>  <Score>
-5.37

$$$$
