
 OpenBabel03172210413D

 51 54  0  0  1  0  0  0  0  0999 V2000
    4.2960    7.4170   15.6190 Cl  0  0  0  0  0  0  0  0  0  0  0  0
    5.8510    7.3200   14.7830 C   0  0  0  0  0  0  0  0  0  0  0  0
    6.4090    8.4290   14.1980 C   0  0  0  0  0  0  0  0  0  0  0  0
    7.6240    8.3340   13.5500 C   0  0  0  0  0  0  0  0  0  0  0  0
    8.3090    7.1500   13.4660 C   0  0  0  0  0  0  0  0  0  0  0  0
    7.7530    6.0450   14.0480 C   0  0  0  0  0  0  0  0  0  0  0  0
    6.5210    6.1220   14.7110 C   0  0  0  0  0  0  0  0  0  0  0  0
    9.5570    7.0840   12.7890 N   0  0  0  0  0  0  0  0  0  0  0  0
    9.6660    7.5590   11.4540 C   0  0  0  0  0  0  0  0  0  0  0  0
    8.6060    8.0350   10.9170 O   0  0  0  0  0  0  0  0  0  0  0  0
   10.8840    7.5030   10.7710 N   0  0  0  0  0  0  0  0  0  0  0  0
   12.0380    6.9720   11.3920 C   0  0  0  0  0  0  0  0  0  0  0  0
   13.1720    7.2010   10.9270 O   0  0  0  0  0  0  0  0  0  0  0  0
   11.9030    6.1340   12.6040 C   0  0  1  0  0  0  0  0  0  0  0  0
   10.7240    6.5540   13.3990 C   0  0  0  0  0  0  0  0  0  0  0  0
   10.7660    6.4350   14.6350 O   0  0  0  0  0  0  0  0  0  0  0  0
   11.7130    4.6910   12.2240 C   0  0  0  0  0  0  0  0  0  0  0  0
   11.1860    4.2080   11.1170 C   0  0  0  0  0  0  0  0  0  0  0  0
   11.1950    2.7240   11.1550 C   0  0  2  0  0  0  0  0  0  0  0  0
   11.3510    2.4450   12.5560 N   0  0  0  0  0  0  0  0  0  0  0  0
   12.0690    3.5600   13.0120 N   0  0  0  0  0  0  0  0  0  0  0  0
   12.2830    2.2410   10.3120 C   0  0  0  0  0  0  0  0  0  0  0  0
   13.4810    2.9220   10.3320 C   0  0  0  0  0  0  0  0  0  0  0  0
   14.5700    2.5440    9.5730 C   0  0  0  0  0  0  0  0  0  0  0  0
   14.4330    1.4170    8.7530 C   0  0  0  0  0  0  0  0  0  0  0  0
   13.2550    0.7040    8.6980 C   0  0  0  0  0  0  0  0  0  0  0  0
   12.2090    1.1410    9.4850 C   0  0  0  0  0  0  0  0  0  0  0  0
   13.1740   -0.3850    7.8820 O   0  0  0  0  0  0  0  0  0  0  0  0
   12.0080   -1.0470    7.4870 C   0  0  0  0  0  0  0  0  0  0  0  0
   15.4910    0.9990    7.9770 O   0  0  0  0  0  0  0  0  0  0  0  0
   15.7820    3.2230    9.5870 O   0  0  0  0  0  0  0  0  0  0  0  0
   16.7000    2.8690   10.6010 C   0  0  0  0  0  0  0  0  0  0  0  0
    5.8700    9.3590   14.2650 H   0  0  0  0  0  0  0  0  0  0  0  0
    8.0410    9.2220   13.0980 H   0  0  0  0  0  0  0  0  0  0  0  0
    8.2760    5.1070   13.9930 H   0  0  0  0  0  0  0  0  0  0  0  0
    6.0900    5.2480   15.1670 H   0  0  0  0  0  0  0  0  0  0  0  0
   10.9090    7.8720    9.7760 H   0  0  0  0  0  0  0  0  0  0  0  0
   12.8470    6.2180   13.1780 H   0  0  0  0  0  0  0  0  0  0  0  0
   10.8070    4.8460   10.3100 H   0  0  0  0  0  0  0  0  0  0  0  0
   10.2050    2.3700   10.7850 H   0  0  0  0  0  0  0  0  0  0  0  0
   11.7830    1.5490   12.7770 H   0  0  0  0  0  0  0  0  0  0  0  0
   12.7460    3.5440   13.8010 H   0  0  0  0  0  0  0  0  0  0  0  0
   13.6240    3.8010   10.9560 H   0  0  0  0  0  0  0  0  0  0  0  0
   11.2740    0.6130    9.4690 H   0  0  0  0  0  0  0  0  0  0  0  0
   11.2780   -1.1760    8.3170 H   0  0  0  0  0  0  0  0  0  0  0  0
   12.1650   -2.0280    7.0460 H   0  0  0  0  0  0  0  0  0  0  0  0
   11.4910   -0.4140    6.7320 H   0  0  0  0  0  0  0  0  0  0  0  0
   15.3790    0.2110    7.3550 H   0  0  0  0  0  0  0  0  0  0  0  0
   17.5620    3.5570   10.6130 H   0  0  0  0  0  0  0  0  0  0  0  0
   17.0010    1.8130   10.5550 H   0  0  0  0  0  0  0  0  0  0  0  0
   16.1840    3.0110   11.5870 H   0  0  0  0  0  0  0  0  0  0  0  0
  2  1  1  0  0  0  0
  3 33  1  0  0  0  0
  3  2  2  0  0  0  0
  4  3  1  0  0  0  0
  5  4  2  0  0  0  0
  5  6  1  0  0  0  0
  6  7  2  0  0  0  0
  7  2  1  0  0  0  0
  7 36  1  0  0  0  0
  8 15  1  0  0  0  0
  8  5  1  0  0  0  0
  9  8  1  0  0  0  0
 10  9  2  0  0  0  0
 11 12  1  0  0  0  0
 11  9  1  0  0  0  0
 12 14  1  0  0  0  0
 13 12  2  0  0  0  0
 14 38  1  1  0  0  0
 14 15  1  0  0  0  0
 15 16  2  0  0  0  0
 17 14  1  0  0  0  0
 17 21  1  0  0  0  0
 18 19  1  0  0  0  0
 18 17  2  0  0  0  0
 19 40  1  6  0  0  0
 19 20  1  0  0  0  0
 20 41  1  0  0  0  0
 20 21  1  0  0  0  0
 21 42  1  0  0  0  0
 22 23  1  0  0  0  0
 22 19  1  0  0  0  0
 23 43  1  0  0  0  0
 24 31  1  0  0  0  0
 24 23  2  0  0  0  0
 25 24  1  0  0  0  0
 26 25  2  0  0  0  0
 26 27  1  0  0  0  0
 27 22  2  0  0  0  0
 28 26  1  0  0  0  0
 29 28  1  0  0  0  0
 29 45  1  0  0  0  0
 30 25  1  0  0  0  0
 31 32  1  0  0  0  0
 32 49  1  0  0  0  0
 32 51  1  0  0  0  0
 34  4  1  0  0  0  0
 35  6  1  0  0  0  0
 37 11  1  0  0  0  0
 39 18  1  0  0  0  0
 44 27  1  0  0  0  0
 46 29  1  0  0  0  0
 47 29  1  0  0  0  0
 48 30  1  0  0  0  0
 50 32  1  0  0  0  0
M  END
>  <Pose>
1

>  <Score>
-8.34

$$$$
