
 OpenBabel03172210413D

 58 62  0  0  1  0  0  0  0  0999 V2000
    4.7680    8.0910   11.0020 Cl  0  0  0  0  0  0  0  0  0  0  0  0
    6.2250    8.3540   11.9360 C   0  0  0  0  0  0  0  0  0  0  0  0
    6.8690    7.2990   12.5500 C   0  0  0  0  0  0  0  0  0  0  0  0
    8.0160    7.4760   13.2910 C   0  0  0  0  0  0  0  0  0  0  0  0
    8.5180    8.7530   13.4100 C   0  0  0  0  0  0  0  0  0  0  0  0
    7.8730    9.7820   12.8000 C   0  0  0  0  0  0  0  0  0  0  0  0
    6.7260    9.6280   12.0550 C   0  0  0  0  0  0  0  0  0  0  0  0
    8.6980    6.3080   13.9490 C   0  0  0  0  0  0  0  0  0  0  0  0
    9.9360    6.0040   13.2520 N   0  0  0  0  0  0  0  0  0  0  0  0
   11.2030    6.4350   13.7340 C   0  0  0  0  0  0  0  0  0  0  0  0
   11.2580    7.1790   14.7650 O   0  0  0  0  0  0  0  0  0  0  0  0
   12.4740    6.0640   13.1050 C   0  0  1  0  0  0  0  0  0  0  0  0
   12.3540    5.4320   11.8330 N   0  0  1  0  0  0  0  0  0  0  0  0
   11.2030    4.6120   11.6350 C   0  0  0  0  0  0  0  0  0  0  0  0
   11.3370    3.1710   12.0630 C   0  0  0  0  0  0  0  0  0  0  0  0
   11.2880    2.7660   10.6950 N   0  0  0  0  0  0  0  0  0  0  0  0
   11.1940    4.0860   10.2100 C   0  0  0  0  0  0  0  0  0  0  0  0
   12.2700    1.8720   10.1990 C   0  0  0  0  0  0  0  0  0  0  0  0
   11.7840    0.7950    9.3300 C   0  0  0  0  0  0  0  0  0  0  0  0
   12.6550    0.1370    8.4970 C   0  0  0  0  0  0  0  0  0  0  0  0
   12.2190   -0.8930    7.6590 C   0  0  0  0  0  0  0  0  0  0  0  0
   10.8890   -1.2490    7.6730 C   0  0  0  0  0  0  0  0  0  0  0  0
    9.9960   -0.6080    8.4970 C   0  0  0  0  0  0  0  0  0  0  0  0
   10.4650    0.4150    9.3200 C   0  0  0  0  0  0  0  0  0  0  0  0
   13.0920   -1.5570    6.8200 O   0  0  0  0  0  0  0  0  0  0  0  0
   13.9350   -2.5510    7.3710 C   0  0  0  0  0  0  0  0  0  0  0  0
    9.9270    5.2560   12.0420 C   0  0  0  0  0  0  0  0  0  0  0  0
    8.8660    5.1670   11.3740 O   0  0  0  0  0  0  0  0  0  0  0  0
   12.3990    6.4470   10.8200 C   0  0  0  0  0  0  0  0  0  0  0  0
   12.6250    7.7700   11.4970 C   0  0  1  0  0  0  0  0  0  0  0  0
   13.2210    7.3740   12.8170 C   0  0  0  0  0  0  0  0  0  0  0  0
   13.4520    8.6160   10.7700 O   0  0  0  0  0  0  0  0  0  0  0  0
    6.4580    6.2830   12.4470 H   0  0  0  0  0  0  0  0  0  0  0  0
    9.4080    8.8970   13.9810 H   0  0  0  0  0  0  0  0  0  0  0  0
    8.2810   10.7870   12.9010 H   0  0  0  0  0  0  0  0  0  0  0  0
    6.2280   10.4780   11.5740 H   0  0  0  0  0  0  0  0  0  0  0  0
    8.0030    5.4470   13.8650 H   0  0  0  0  0  0  0  0  0  0  0  0
    8.8940    6.5960   14.9990 H   0  0  0  0  0  0  0  0  0  0  0  0
   13.1200    5.4660   13.7900 H   0  0  0  0  0  0  0  0  0  0  0  0
   12.2130    2.9240   12.6590 H   0  0  0  0  0  0  0  0  0  0  0  0
   10.3960    2.8150   12.5770 H   0  0  0  0  0  0  0  0  0  0  0  0
   11.9770    4.4870    9.5610 H   0  0  0  0  0  0  0  0  0  0  0  0
   10.1890    4.3020    9.7420 H   0  0  0  0  0  0  0  0  0  0  0  0
   13.0470    2.5100    9.6770 H   0  0  0  0  0  0  0  0  0  0  0  0
   12.8450    1.4680   11.0850 H   0  0  0  0  0  0  0  0  0  0  0  0
   13.7110    0.3650    8.4340 H   0  0  0  0  0  0  0  0  0  0  0  0
   10.5800   -2.0580    7.0060 H   0  0  0  0  0  0  0  0  0  0  0  0
    8.9660   -0.9300    8.4670 H   0  0  0  0  0  0  0  0  0  0  0  0
    9.7180    0.8830    9.9450 H   0  0  0  0  0  0  0  0  0  0  0  0
   14.5870   -2.9040    6.5420 H   0  0  0  0  0  0  0  0  0  0  0  0
   14.5530   -2.1410    8.2050 H   0  0  0  0  0  0  0  0  0  0  0  0
   13.3590   -3.4100    7.7700 H   0  0  0  0  0  0  0  0  0  0  0  0
   11.4500    6.5290   10.2330 H   0  0  0  0  0  0  0  0  0  0  0  0
   13.2510    6.2270   10.1130 H   0  0  0  0  0  0  0  0  0  0  0  0
   11.6270    8.2440   11.7090 H   0  0  0  0  0  0  0  0  0  0  0  0
   13.0480    8.1160   13.6130 H   0  0  0  0  0  0  0  0  0  0  0  0
   14.2770    7.1240   12.6740 H   0  0  0  0  0  0  0  0  0  0  0  0
   13.3840    9.5130   11.1760 H   0  0  0  0  0  0  0  0  0  0  0  0
  1  2  1  0  0  0  0
  2  7  2  0  0  0  0
  2  3  1  0  0  0  0
  3  4  2  0  0  0  0
  4  5  1  0  0  0  0
  4  8  1  0  0  0  0
  5 34  1  0  0  0  0
  6 35  1  0  0  0  0
  6  5  2  0  0  0  0
  7  6  1  0  0  0  0
  8 38  1  0  0  0  0
  9 10  1  0  0  0  0
  9  8  1  0  0  0  0
 10 11  2  0  0  0  0
 12 10  1  0  0  0  0
 12 39  1  1  0  0  0
 13 29  1  6  0  0  0
 13 12  1  0  0  0  0
 14 13  1  0  0  0  0
 14 27  1  0  0  0  0
 14 15  1  0  0  0  0
 15 41  1  0  0  0  0
 15 40  1  0  0  0  0
 16 15  1  0  0  0  0
 17 16  1  0  0  0  0
 17 14  1  0  0  0  0
 18 16  1  0  0  0  0
 18 45  1  0  0  0  0
 19 18  1  0  0  0  0
 20 19  2  0  0  0  0
 21 22  2  0  0  0  0
 21 20  1  0  0  0  0
 22 23  1  0  0  0  0
 23 24  2  0  0  0  0
 24 19  1  0  0  0  0
 24 49  1  0  0  0  0
 25 26  1  0  0  0  0
 25 21  1  0  0  0  0
 26 52  1  0  0  0  0
 26 51  1  0  0  0  0
 27  9  1  0  0  0  0
 28 27  2  0  0  0  0
 29 30  1  0  0  0  0
 30 55  1  1  0  0  0
 30 31  1  0  0  0  0
 31 12  1  0  0  0  0
 31 56  1  0  0  0  0
 32 58  1  0  0  0  0
 32 30  1  0  0  0  0
 33  3  1  0  0  0  0
 36  7  1  0  0  0  0
 37  8  1  0  0  0  0
 42 17  1  0  0  0  0
 43 17  1  0  0  0  0
 44 18  1  0  0  0  0
 46 20  1  0  0  0  0
 47 22  1  0  0  0  0
 48 23  1  0  0  0  0
 50 26  1  0  0  0  0
 53 29  1  0  0  0  0
 54 29  1  0  0  0  0
 57 31  1  0  0  0  0
M  END
>  <Pose>
1

>  <Score>
-6.42

$$$$
