
 OpenBabel03172210413D

 58 61  0  0  0  0  0  0  0  0999 V2000
   14.5580    1.5360    9.0140 Cl  0  0  0  0  0  0  0  0  0  0  0  0
   15.1170    2.8300   10.0450 C   0  0  0  0  0  0  0  0  0  0  0  0
   14.1720    3.5830   10.7080 C   0  0  0  0  0  0  0  0  0  0  0  0
   14.7090    4.5870   11.5270 C   0  0  0  0  0  0  0  0  0  0  0  0
   16.0380    4.7720   11.6330 N   0  0  0  0  0  0  0  0  0  0  0  0
   16.9450    4.0570   11.0030 N   0  0  0  0  0  0  0  0  0  0  0  0
   16.4810    3.0850   10.2080 C   0  0  0  0  0  0  0  0  0  0  0  0
   17.2820    2.3560    9.5710 O   0  0  0  0  0  0  0  0  0  0  0  0
   18.3340    4.3220   11.1750 C   0  0  0  0  0  0  0  0  0  0  0  0
   19.2030    3.3830   11.7090 C   0  0  0  0  0  0  0  0  0  0  0  0
   20.5510    3.6230   11.8820 C   0  0  0  0  0  0  0  0  0  0  0  0
   21.0470    4.8530   11.5040 C   0  0  0  0  0  0  0  0  0  0  0  0
   20.2080    5.8140   10.9680 C   0  0  0  0  0  0  0  0  0  0  0  0
   18.8450    5.5390   10.8060 C   0  0  0  0  0  0  0  0  0  0  0  0
   12.7840    3.4030   10.5630 N   0  0  0  0  0  0  0  0  0  0  0  0
   12.0370    2.6340   11.5540 C   0  0  0  0  0  0  0  0  0  0  0  0
   10.9250    3.4450   12.1800 C   0  0  0  0  0  0  0  0  0  0  0  0
   10.6620    4.5740   11.3220 N   0  0  0  0  0  0  0  0  0  0  0  0
   10.6040    4.2860    9.9000 C   0  0  0  0  0  0  0  0  0  0  0  0
   12.0360    4.0030    9.4490 C   0  0  0  0  0  0  0  0  0  0  0  0
   10.4650    5.8920   11.7820 C   0  0  0  0  0  0  0  0  0  0  0  0
   11.4130    6.4920   12.3330 O   0  0  0  0  0  0  0  0  0  0  0  0
    9.1790    6.6190   11.6480 C   0  0  0  0  0  0  0  0  0  0  0  0
    8.2500    6.2820   12.7920 C   0  0  0  0  0  0  0  0  0  0  0  0
    8.2210    7.3530   13.8420 C   0  0  0  0  0  0  0  0  0  0  0  0
    6.9710    7.4310   14.5660 N   0  0  0  0  0  0  0  0  0  0  0  0
    5.8330    8.1850   14.1890 C   0  0  0  0  0  0  0  0  0  0  0  0
    5.7200    8.9220   13.1530 O   0  0  0  0  0  0  0  0  0  0  0  0
    4.7850    8.0320   15.1200 N   0  0  0  0  0  0  0  0  0  0  0  0
    5.2390    7.1500   16.1730 C   0  0  0  0  0  0  0  0  0  0  0  0
    6.6180    6.7770   15.7890 C   0  0  0  0  0  0  0  0  0  0  0  0
    7.3700    6.0100   16.4270 O   0  0  0  0  0  0  0  0  0  0  0  0
    3.4740    8.6440   15.0500 C   0  0  0  0  0  0  0  0  0  0  0  0
   13.9980    5.2000   12.0490 H   0  0  0  0  0  0  0  0  0  0  0  0
   18.7980    2.4220   12.0000 H   0  0  0  0  0  0  0  0  0  0  0  0
   21.2230    2.8640   12.3070 H   0  0  0  0  0  0  0  0  0  0  0  0
   22.1040    5.0340   11.6420 H   0  0  0  0  0  0  0  0  0  0  0  0
   20.6330    6.7610   10.6850 H   0  0  0  0  0  0  0  0  0  0  0  0
   18.1780    6.2810   10.3870 H   0  0  0  0  0  0  0  0  0  0  0  0
   11.5780    1.7880   10.9440 H   0  0  0  0  0  0  0  0  0  0  0  0
   12.6340    2.2340   12.3770 H   0  0  0  0  0  0  0  0  0  0  0  0
   11.1950    3.7910   13.1980 H   0  0  0  0  0  0  0  0  0  0  0  0
   10.0190    2.7810   12.2720 H   0  0  0  0  0  0  0  0  0  0  0  0
   10.0110    3.3610    9.7540 H   0  0  0  0  0  0  0  0  0  0  0  0
   10.1410    5.1010    9.3140 H   0  0  0  0  0  0  0  0  0  0  0  0
   12.4600    5.0030    9.2840 H   0  0  0  0  0  0  0  0  0  0  0  0
   12.0150    3.3030    8.6360 H   0  0  0  0  0  0  0  0  0  0  0  0
    9.3350    7.7170   11.6360 H   0  0  0  0  0  0  0  0  0  0  0  0
    8.6830    6.3780   10.6760 H   0  0  0  0  0  0  0  0  0  0  0  0
    8.5670    5.3450   13.2840 H   0  0  0  0  0  0  0  0  0  0  0  0
    7.2150    6.1070   12.4100 H   0  0  0  0  0  0  0  0  0  0  0  0
    8.4160    8.3570   13.3820 H   0  0  0  0  0  0  0  0  0  0  0  0
    9.0140    7.2250   14.6060 H   0  0  0  0  0  0  0  0  0  0  0  0
    4.5910    6.2360   16.2460 H   0  0  0  0  0  0  0  0  0  0  0  0
    5.2050    7.6210   17.1740 H   0  0  0  0  0  0  0  0  0  0  0  0
    2.8520    8.0520   14.3380 H   0  0  0  0  0  0  0  0  0  0  0  0
    3.5780    9.6550   14.5610 H   0  0  0  0  0  0  0  0  0  0  0  0
    3.0160    8.7110   16.0460 H   0  0  0  0  0  0  0  0  0  0  0  0
  1  2  1  0  0  0  0
  2  7  1  0  0  0  0
  2  3  2  0  0  0  0
  3  4  1  0  0  0  0
  4  5  2  0  0  0  0
  4 34  1  0  0  0  0
  6  9  1  0  0  0  0
  6  5  1  0  0  0  0
  7  6  1  0  0  0  0
  8  7  2  0  0  0  0
  9 10  1  0  0  0  0
 10 11  2  0  0  0  0
 10 35  1  0  0  0  0
 11 36  1  0  0  0  0
 12 37  1  0  0  0  0
 12 11  1  0  0  0  0
 13 12  2  0  0  0  0
 14 13  1  0  0  0  0
 14  9  2  0  0  0  0
 15  3  1  0  0  0  0
 15 16  1  0  0  0  0
 16 17  1  0  0  0  0
 16 41  1  0  0  0  0
 17 43  1  0  0  0  0
 17 42  1  0  0  0  0
 18 21  1  0  0  0  0
 18 17  1  0  0  0  0
 19 18  1  0  0  0  0
 20 19  1  0  0  0  0
 20 15  1  0  0  0  0
 21 22  2  0  0  0  0
 23 21  1  0  0  0  0
 23 24  1  0  0  0  0
 24 50  1  0  0  0  0
 24 25  1  0  0  0  0
 25 26  1  0  0  0  0
 25 53  1  0  0  0  0
 26 31  1  0  0  0  0
 27 26  1  0  0  0  0
 27 29  1  0  0  0  0
 28 27  2  0  0  0  0
 29 30  1  0  0  0  0
 30 54  1  0  0  0  0
 30 55  1  0  0  0  0
 31 30  1  0  0  0  0
 31 32  2  0  0  0  0
 33 29  1  0  0  0  0
 33 58  1  0  0  0  0
 38 13  1  0  0  0  0
 39 14  1  0  0  0  0
 40 16  1  0  0  0  0
 44 19  1  0  0  0  0
 45 19  1  0  0  0  0
 46 20  1  0  0  0  0
 47 20  1  0  0  0  0
 48 23  1  0  0  0  0
 49 23  1  0  0  0  0
 51 24  1  0  0  0  0
 52 25  1  0  0  0  0
 56 33  1  0  0  0  0
 57 33  1  0  0  0  0
M  END
>  <Pose>
1

>  <Score>
-6.89

$$$$
