
 OpenBabel03172210413D

 55 58  0  0  1  0  0  0  0  0999 V2000
    5.7350    6.9080   14.6580 B   0  0  0  0  0  0  0  0  0  0  0  0
    7.4520    6.6200   13.8670 C   0  0  0  0  0  0  0  0  0  0  0  0
    8.5420    6.6210   14.6870 C   0  0  0  0  0  0  0  0  0  0  0  0
    9.7830    6.4200   14.1580 C   0  0  0  0  0  0  0  0  0  0  0  0
   10.0230    6.2100   12.8140 C   0  0  0  0  0  0  0  0  0  0  0  0
    8.9050    6.2130   12.0080 C   0  0  0  0  0  0  0  0  0  0  0  0
    7.6240    6.4170   12.5180 C   0  0  0  0  0  0  0  0  0  0  0  0
   11.3870    6.0110   12.3540 C   0  0  2  0  0  0  0  0  0  0  0  0
   11.9630    7.1180   11.6520 N   0  0  0  0  0  0  0  0  0  0  0  0
   12.1280    6.8080   10.2770 C   0  0  0  0  0  0  0  0  0  0  0  0
   12.4230    7.5430    9.3030 O   0  0  0  0  0  0  0  0  0  0  0  0
   11.8880    5.3570   10.0990 C   0  0  0  0  0  0  0  0  0  0  0  0
   11.9430    4.7090    9.0240 O   0  0  0  0  0  0  0  0  0  0  0  0
   11.5800    4.8610   11.4280 C   0  0  0  0  0  0  0  0  0  0  0  0
   11.4760    3.5570   11.7100 C   0  0  0  0  0  0  0  0  0  0  0  0
   11.1410    3.2800   13.0420 O   0  0  0  0  0  0  0  0  0  0  0  0
   11.6950    2.5010   10.7290 C   0  0  0  0  0  0  0  0  0  0  0  0
   12.7630    2.1320   10.1090 O   0  0  0  0  0  0  0  0  0  0  0  0
   12.5980    1.1400    9.2860 C   0  0  0  0  0  0  0  0  0  0  0  0
   11.2620    0.7730    9.3330 C   0  0  0  0  0  0  0  0  0  0  0  0
   10.7080    1.6560   10.2620 C   0  0  0  0  0  0  0  0  0  0  0  0
   10.8110   -0.2630    8.5500 C   0  0  0  0  0  0  0  0  0  0  0  0
   11.6690   -0.9420    7.7160 C   0  0  0  0  0  0  0  0  0  0  0  0
   13.0090   -0.5800    7.6620 C   0  0  0  0  0  0  0  0  0  0  0  0
   13.4450    0.4440    8.4420 C   0  0  0  0  0  0  0  0  0  0  0  0
   14.7700    0.8270    8.4120 O   0  0  0  0  0  0  0  0  0  0  0  0
   15.2190    2.1650    8.2430 C   0  0  0  0  0  0  0  0  0  0  0  0
   12.3330    8.3830   12.2250 C   0  0  0  0  0  0  0  0  0  0  0  0
   13.1940    8.2040   13.4620 C   0  0  0  0  0  0  0  0  0  0  0  0
   14.2380    9.1640   13.5740 N   0  0  0  0  0  4  0  0  0  0  0  0
   14.2730    9.9110   14.7940 C   0  0  0  0  0  0  0  0  0  0  0  0
   15.5350    8.5570   13.3070 C   0  0  0  0  0  0  0  0  0  0  0  0
    8.4400    6.7810   15.7680 H   0  0  0  0  0  0  0  0  0  0  0  0
   10.6300    6.4310   14.8580 H   0  0  0  0  0  0  0  0  0  0  0  0
    9.0320    6.0580   10.9650 H   0  0  0  0  0  0  0  0  0  0  0  0
    6.7760    6.4130   11.8700 H   0  0  0  0  0  0  0  0  0  0  0  0
   12.0450    5.8860   13.2690 H   0  0  0  0  0  0  0  0  0  0  0  0
    9.6630    1.6390   10.5360 H   0  0  0  0  0  0  0  0  0  0  0  0
    9.7750   -0.5520    8.5810 H   0  0  0  0  0  0  0  0  0  0  0  0
   11.3570   -1.7550    7.0850 H   0  0  0  0  0  0  0  0  0  0  0  0
   13.6710   -1.1430    6.9870 H   0  0  0  0  0  0  0  0  0  0  0  0
   16.2180    2.2490    8.7510 H   0  0  0  0  0  0  0  0  0  0  0  0
   15.3090    2.3370    7.1630 H   0  0  0  0  0  0  0  0  0  0  0  0
   14.5670    2.9110    8.7020 H   0  0  0  0  0  0  0  0  0  0  0  0
   11.4530    9.0170   12.4490 H   0  0  0  0  0  0  0  0  0  0  0  0
   12.9430    8.9600   11.4950 H   0  0  0  0  0  0  0  0  0  0  0  0
   13.6010    7.1590   13.4620 H   0  0  0  0  0  0  0  0  0  0  0  0
   12.5770    8.2530   14.3950 H   0  0  0  0  0  0  0  0  0  0  0  0
   14.0950    9.8760   12.7970 H   0  0  0  0  0  0  0  0  0  0  0  0
   13.4000   10.5980   14.8300 H   0  0  0  0  0  0  0  0  0  0  0  0
   14.3860    9.3040   15.7010 H   0  0  0  0  0  0  0  0  0  0  0  0
   15.1800   10.5670   14.7380 H   0  0  0  0  0  0  0  0  0  0  0  0
   15.9100    8.0730   14.2190 H   0  0  0  0  0  0  0  0  0  0  0  0
   15.4360    7.7610   12.5430 H   0  0  0  0  0  0  0  0  0  0  0  0
   16.2200    9.3520   12.9580 H   0  0  0  0  0  0  0  0  0  0  0  0
  2  1  1  0  0  0  0
  2  3  1  0  0  0  0
  3 33  1  0  0  0  0
  4  3  2  0  0  0  0
  4 34  1  0  0  0  0
  5  4  1  0  0  0  0
  6  7  1  0  0  0  0
  6  5  2  0  0  0  0
  7  2  2  0  0  0  0
  8  5  1  0  0  0  0
  8 37  1  1  0  0  0
  9 28  1  0  0  0  0
  9  8  1  0  0  0  0
 10  9  1  0  0  0  0
 11 10  2  0  0  0  0
 12 10  1  0  0  0  0
 12 14  1  0  0  0  0
 13 12  2  0  0  0  0
 14 15  2  0  0  0  0
 14  8  1  0  0  0  0
 15 16  1  0  0  0  0
 17 15  1  0  0  0  0
 18 17  1  0  0  0  0
 19 20  1  0  0  0  0
 19 18  1  0  0  0  0
 20 21  1  0  0  0  0
 21 38  1  0  0  0  0
 21 17  2  0  0  0  0
 22 39  1  0  0  0  0
 22 20  2  0  0  0  0
 23 22  1  0  0  0  0
 24 23  2  0  0  0  0
 24 25  1  0  0  0  0
 25 19  2  0  0  0  0
 26 25  1  0  0  0  0
 27 26  1  0  0  0  0
 27 44  1  0  0  0  0
 27 42  1  0  0  0  0
 28 45  1  0  0  0  0
 28 29  1  0  0  0  0
 29 47  1  0  0  0  0
 29 30  1  0  0  0  0
 29 48  1  0  0  0  0
 30 31  1  0  0  0  0
 31 50  1  0  0  0  0
 31 51  1  0  0  0  0
 32 30  1  0  0  0  0
 32 53  1  0  0  0  0
 35  6  1  0  0  0  0
 36  7  1  0  0  0  0
 40 23  1  0  0  0  0
 41 24  1  0  0  0  0
 43 27  1  0  0  0  0
 46 28  1  0  0  0  0
 49 30  1  0  0  0  0
 52 31  1  0  0  0  0
 54 32  1  0  0  0  0
 55 32  1  0  0  0  0
M  END
>  <Pose>
1

>  <Score>
-6.99

$$$$
