
 OpenBabel03172210413D

 53 56  0  0  1  0  0  0  0  0999 V2000
    6.1610    7.2870   12.0120 Cl  0  0  0  0  0  0  0  0  0  0  0  0
    5.6480    7.4350   13.6900 C   0  0  0  0  0  0  0  0  0  0  0  0
    6.5050    6.9730   14.6600 C   0  0  0  0  0  0  0  0  0  0  0  0
    6.1470    7.1800   15.9720 C   0  0  0  0  0  0  0  0  0  0  0  0
    7.1110    6.5700   16.6960 N   0  0  0  0  0  0  0  0  0  0  0  0
    7.9810    6.0180   15.8920 N   0  0  0  0  0  0  0  0  0  0  0  0
    7.6620    6.2340   14.5640 C   0  0  0  0  0  0  0  0  0  0  0  0
    8.4710    5.8870   13.4230 C   0  0  0  0  0  0  0  0  0  0  0  0
    9.3310    6.9440   12.8690 N   0  0  0  0  0  0  0  0  0  0  0  0
    9.8800    6.4010   11.6040 C   0  0  0  0  0  0  0  0  0  0  0  0
   11.1600    5.8410   12.0250 C   0  0  2  0  0  0  0  0  0  0  0  0
   11.7550    7.0240   12.7720 C   0  0  2  0  0  0  0  0  0  0  0  0
   10.4460    7.3600   13.6050 C   0  0  0  0  0  0  0  0  0  0  0  0
   11.9170    8.2170   11.8740 C   0  0  0  0  0  0  0  0  0  0  0  0
   13.2930    8.5560   11.7940 O   0  0  0  0  0  0  0  0  0  0  0  0
   12.0850    5.4040   10.9160 C   0  0  0  0  0  0  0  0  0  0  0  0
   11.5500    4.2190   10.3220 N   0  0  0  0  0  0  0  0  0  0  0  0
   12.4800    3.5660    9.4260 C   0  0  0  0  0  0  0  0  0  0  0  0
   12.7930    2.1390    9.8130 C   0  0  0  0  0  0  0  0  0  0  0  0
   11.6800    1.3470    9.9810 O   0  0  0  0  0  0  0  0  0  0  0  0
   10.6050    2.0370   10.5340 C   0  0  0  0  0  0  0  0  0  0  0  0
   11.1130    3.2320   11.2810 C   0  0  0  0  0  0  0  0  0  0  0  0
    7.2100    6.6410   18.1640 C   0  0  0  0  0  0  0  0  0  0  0  0
    4.9900    7.8020   16.3320 C   0  0  0  0  0  0  0  0  0  0  0  0
    4.1280    8.2600   15.3310 C   0  0  0  0  0  0  0  0  0  0  0  0
    4.4720    8.0650   13.9980 C   0  0  0  0  0  0  0  0  0  0  0  0
    8.9650    4.9540   13.3250 H   0  0  0  0  0  0  0  0  0  0  0  0
    7.6890    5.8340   12.5410 H   0  0  0  0  0  0  0  0  0  0  0  0
    9.1810    5.7900   11.0420 H   0  0  0  0  0  0  0  0  0  0  0  0
   10.0370    7.3020   10.9420 H   0  0  0  0  0  0  0  0  0  0  0  0
   11.1210    5.0340   12.7420 H   0  0  0  0  0  0  0  0  0  0  0  0
   12.5560    6.7590   13.4280 H   0  0  0  0  0  0  0  0  0  0  0  0
   10.6580    6.9650   14.5660 H   0  0  0  0  0  0  0  0  0  0  0  0
   10.4820    8.5010   13.6930 H   0  0  0  0  0  0  0  0  0  0  0  0
   11.4920    9.1430   12.4280 H   0  0  0  0  0  0  0  0  0  0  0  0
   11.4670    8.2330   10.9170 H   0  0  0  0  0  0  0  0  0  0  0  0
   13.3120    9.5220   11.4270 H   0  0  0  0  0  0  0  0  0  0  0  0
   12.0630    6.2060   10.1670 H   0  0  0  0  0  0  0  0  0  0  0  0
   13.1180    5.2750   11.2650 H   0  0  0  0  0  0  0  0  0  0  0  0
   12.0700    3.6080    8.4090 H   0  0  0  0  0  0  0  0  0  0  0  0
   13.4720    4.1040    9.4130 H   0  0  0  0  0  0  0  0  0  0  0  0
   13.4730    2.1570   10.6670 H   0  0  0  0  0  0  0  0  0  0  0  0
   13.3550    1.7180    8.9390 H   0  0  0  0  0  0  0  0  0  0  0  0
    9.9500    2.3380    9.7010 H   0  0  0  0  0  0  0  0  0  0  0  0
   10.0660    1.3360   11.2260 H   0  0  0  0  0  0  0  0  0  0  0  0
   10.3310    3.6520   11.9480 H   0  0  0  0  0  0  0  0  0  0  0  0
   12.0130    2.9340   11.8530 H   0  0  0  0  0  0  0  0  0  0  0  0
    7.1140    7.7470   18.4540 H   0  0  0  0  0  0  0  0  0  0  0  0
    8.2300    6.3990   18.5030 H   0  0  0  0  0  0  0  0  0  0  0  0
    6.3760    6.1500   18.6080 H   0  0  0  0  0  0  0  0  0  0  0  0
    4.6310    7.8750   17.3830 H   0  0  0  0  0  0  0  0  0  0  0  0
    3.1970    8.7060   15.5530 H   0  0  0  0  0  0  0  0  0  0  0  0
    3.8650    8.3980   13.1900 H   0  0  0  0  0  0  0  0  0  0  0  0
  1  2  1  0  0  0  0
  2 26  2  0  0  0  0
  2  3  1  0  0  0  0
  3  4  2  0  0  0  0
  4 24  1  0  0  0  0
  4  5  1  0  0  0  0
  5 23  1  0  0  0  0
  6  5  1  0  0  0  0
  7  3  1  0  0  0  0
  7  6  2  0  0  0  0
  8  7  1  0  0  0  0
  9  8  1  0  0  0  0
  9 13  1  0  0  0  0
 10 11  1  0  0  0  0
 10  9  1  0  0  0  0
 11 31  1  1  0  0  0
 11 12  1  0  0  0  0
 12 32  1  1  0  0  0
 12 13  1  0  0  0  0
 13 34  1  0  0  0  0
 13 33  1  0  0  0  0
 14 35  1  0  0  0  0
 14 12  1  0  0  0  0
 15 14  1  0  0  0  0
 16 39  1  0  0  0  0
 16 11  1  0  0  0  0
 17 16  1  0  0  0  0
 17 22  1  0  0  0  0
 18 19  1  0  0  0  0
 18 17  1  0  0  0  0
 19 20  1  0  0  0  0
 19 42  1  0  0  0  0
 20 21  1  0  0  0  0
 21 45  1  0  0  0  0
 21 22  1  0  0  0  0
 22 47  1  0  0  0  0
 22 46  1  0  0  0  0
 23 48  1  0  0  0  0
 23 49  1  0  0  0  0
 23 50  1  0  0  0  0
 24 51  1  0  0  0  0
 25 52  1  0  0  0  0
 25 24  2  0  0  0  0
 26 25  1  0  0  0  0
 27  8  1  0  0  0  0
 28  8  1  0  0  0  0
 29 10  1  0  0  0  0
 30 10  1  0  0  0  0
 36 14  1  0  0  0  0
 37 15  1  0  0  0  0
 38 16  1  0  0  0  0
 40 18  1  0  0  0  0
 41 18  1  0  0  0  0
 43 19  1  0  0  0  0
 44 21  1  0  0  0  0
 53 26  1  0  0  0  0
M  END
>  <Pose>
1

>  <Score>
-5.47

$$$$
