
 OpenBabel03172210413D

 40 43  0  0  1  0  0  0  0  0999 V2000
    4.6380    6.0800   12.3150 Cl  0  0  0  0  0  0  0  0  0  0  0  0
    6.3480    6.2770   11.9950 C   0  0  0  0  0  0  0  0  0  0  0  0
    7.1840    5.4400   11.3200 N   0  0  0  0  0  0  0  0  0  0  0  0
    8.4300    5.9140   11.2730 C   0  0  0  0  0  0  0  0  0  0  0  0
    8.3530    7.1290   11.9670 C   0  0  0  0  0  0  0  0  0  0  0  0
    7.0740    7.3590   12.4150 C   0  0  0  0  0  0  0  0  0  0  0  0
    6.4780    8.7290   13.3260 Cl  0  0  0  0  0  0  0  0  0  0  0  0
    9.6290    5.3700   10.6900 C   0  0  0  0  0  0  0  0  0  0  0  0
    9.5550    5.2950    9.3740 O   0  0  0  0  0  0  0  0  0  0  0  0
   10.8030    4.9300   11.2790 N   0  0  0  0  0  0  0  0  0  0  0  0
   12.0850    5.4200   10.7170 C   0  0  0  0  0  0  0  0  0  0  0  0
   12.8220    4.1980   10.2400 C   0  0  0  0  0  0  0  0  0  0  0  0
   12.2000    2.9560   10.5740 N   0  0  0  0  0  0  0  0  0  0  0  0
   11.4140    2.7320   11.7780 C   0  0  0  0  0  0  0  0  0  0  0  0
   10.9880    4.0620   12.3820 C   0  0  0  0  0  0  0  0  0  0  0  0
   12.3320    1.8420    9.7010 C   0  0  2  0  0  0  0  0  0  0  0  0
   11.2650    1.0940    9.3620 N   0  0  0  0  0  0  0  0  0  0  0  0
   11.3720    0.0280    8.5330 C   0  0  0  0  0  0  0  0  0  0  0  0
   12.5650   -0.3150    8.0190 N   0  0  0  0  0  0  0  0  0  0  0  0
   13.6770    0.3800    8.3080 C   0  0  0  0  0  0  0  0  0  0  0  0
   14.9630    0.2480    7.9330 N   0  0  0  0  0  0  0  0  0  0  0  0
   15.6390    1.2150    8.5200 N   0  0  0  0  0  0  0  0  0  0  0  0
   14.8180    1.9820    9.2750 C   0  0  0  0  0  0  0  0  0  0  0  0
   13.5490    1.4780    9.1660 C   0  0  0  0  0  0  0  0  0  0  0  0
   15.5390   -0.7630    7.0450 C   0  0  0  0  0  0  0  0  0  0  0  0
    6.7920    4.5650   10.9190 H   0  0  0  0  0  0  0  0  0  0  0  0
    9.1570    7.8480   12.1650 H   0  0  0  0  0  0  0  0  0  0  0  0
   11.8840    6.1490    9.9190 H   0  0  0  0  0  0  0  0  0  0  0  0
   12.6410    5.9090   11.5560 H   0  0  0  0  0  0  0  0  0  0  0  0
   12.9930    4.3270    9.1520 H   0  0  0  0  0  0  0  0  0  0  0  0
   13.8570    4.2180   10.6930 H   0  0  0  0  0  0  0  0  0  0  0  0
   11.9920    2.1460   12.4990 H   0  0  0  0  0  0  0  0  0  0  0  0
   10.5090    2.1770   11.4810 H   0  0  0  0  0  0  0  0  0  0  0  0
   11.9440    4.3910   12.9480 H   0  0  0  0  0  0  0  0  0  0  0  0
   10.2230    3.9520   13.1220 H   0  0  0  0  0  0  0  0  0  0  0  0
   10.5010   -0.5550    8.2780 H   0  0  0  0  0  0  0  0  0  0  0  0
   15.1080    2.8270    9.8520 H   0  0  0  0  0  0  0  0  0  0  0  0
   16.1670   -1.4390    7.6810 H   0  0  0  0  0  0  0  0  0  0  0  0
   16.1400   -0.3120    6.2430 H   0  0  0  0  0  0  0  0  0  0  0  0
   14.7530   -1.3720    6.5880 H   0  0  0  0  0  0  0  0  0  0  0  0
  2  1  1  0  0  0  0
  2  6  2  0  0  0  0
  3  2  1  0  0  0  0
  4  3  1  0  0  0  0
  4  5  2  0  0  0  0
  5 27  1  0  0  0  0
  5  6  1  0  0  0  0
  6  7  1  0  0  0  0
  8  4  1  0  0  0  0
  8 10  1  0  0  0  0
  9  8  2  0  0  0  0
 10 15  1  0  0  0  0
 11 10  1  0  0  0  0
 11 29  1  0  0  0  0
 12 13  1  0  0  0  0
 12 31  1  0  0  0  0
 12 11  1  0  0  0  0
 13 14  1  0  0  0  0
 14 15  1  0  0  0  0
 14 32  1  0  0  0  0
 15 34  1  0  0  0  0
 15 35  1  0  0  0  0
 16 13  1  1  0  0  0
 17 16  1  0  0  0  0
 18 17  2  0  0  0  0
 19 20  1  0  0  0  0
 19 18  1  0  0  0  0
 20 24  2  0  0  0  0
 21 20  1  0  0  0  0
 21 22  1  0  0  0  0
 22 23  2  0  0  0  0
 23 37  1  0  0  0  0
 24 23  1  0  0  0  0
 24 16  1  0  0  0  0
 25 38  1  0  0  0  0
 25 21  1  0  0  0  0
 26  3  1  0  0  0  0
 28 11  1  0  0  0  0
 30 12  1  0  0  0  0
 33 14  1  0  0  0  0
 36 18  1  0  0  0  0
 39 25  1  0  0  0  0
 40 25  1  0  0  0  0
M  END
>  <Pose>
1

>  <Score>
-6.68

$$$$
