
 OpenBabel03232204043D

 50 53  0  0  0  0  0  0  0  0999 V2000
   11.1900  -63.3930   37.8710 B   0  0  0  0  0  0  0  0  0  0  0  0
   11.0930  -61.5640   38.3560 C   0  0  0  0  0  0  0  0  0  0  0  0
   10.2760  -61.1710   39.3760 C   0  0  0  0  0  0  0  0  0  0  0  0
   10.2250  -59.8200   39.7090 C   0  0  0  0  0  0  0  0  0  0  0  0
   11.0000  -58.9080   39.0000 C   0  0  0  0  0  0  0  0  0  0  0  0
   11.8210  -59.2940   37.9750 C   0  0  0  0  0  0  0  0  0  0  0  0
   11.8620  -60.6330   37.6570 C   0  0  0  0  0  0  0  0  0  0  0  0
   12.6970  -61.0120   36.6180 O   0  0  0  0  0  0  0  0  0  0  0  0
   12.6230  -58.3230   37.2460 C   0  0  0  0  0  0  0  0  0  0  0  0
   13.6790  -58.6300   36.5800 N   0  0  0  0  0  0  0  0  0  0  0  0
   14.3990  -57.5940   35.8930 N   0  0  0  0  0  0  0  0  0  0  0  0
   15.7340  -57.4180   36.2330 C   0  0  0  0  0  0  0  0  0  0  0  0
   16.0580  -57.6900   37.4500 O   0  0  0  0  0  0  0  0  0  0  0  0
   16.8350  -56.9640   35.4060 C   0  0  0  0  0  0  0  0  0  0  0  0
   17.4620  -57.7120   34.4410 N   0  0  0  0  0  0  0  0  0  0  0  0
   18.4030  -57.0020   33.8850 N   0  0  0  0  0  0  0  0  0  0  0  0
   18.4700  -55.7910   34.4120 N   0  0  0  0  0  0  0  0  0  0  0  0
   17.5110  -55.7400   35.3520 C   0  0  0  0  0  0  0  0  0  0  0  0
   17.2080  -54.6140   36.2400 C   0  0  0  0  0  0  0  0  0  0  0  0
   17.7400  -54.7560   37.5980 N   0  0  0  0  0  0  0  0  0  0  0  0
   16.6200  -54.6440   38.5530 C   0  0  0  0  0  0  0  0  0  0  0  0
   15.7720  -53.4720   38.2020 C   0  0  0  0  0  0  0  0  0  0  0  0
   16.5520  -52.3450   38.1220 O   0  0  0  0  0  0  0  0  0  0  0  0
   17.8360  -52.5120   38.5700 C   0  0  0  0  0  0  0  0  0  0  0  0
   18.6180  -53.5920   37.8700 C   0  0  0  0  0  0  0  0  0  0  0  0
   19.4170  -54.8100   34.0280 C   0  0  0  0  0  0  0  0  0  0  0  0
   20.2290  -54.0550   34.7980 N   0  0  0  0  0  0  0  0  0  0  0  0
   20.9600  -53.2790   34.0430 O   0  0  0  0  0  0  0  0  0  0  0  0
   20.6790  -53.4760   32.7800 N   0  0  0  0  0  0  0  0  0  0  0  0
   19.7250  -54.4210   32.7330 C   0  0  0  0  0  0  0  0  0  0  0  0
   19.1520  -54.9130   31.5410 N   0  0  0  0  0  0  0  0  0  0  0  0
    9.1020  -59.2420   41.1220 B   0  0  0  0  0  0  0  0  0  0  0  0
    9.4960  -62.0650   40.0960 O   0  0  0  0  0  0  0  0  0  0  0  0
   10.9600  -57.8690   39.2560 H   0  0  0  0  0  0  0  0  0  0  0  0
   13.5790  -61.4690   36.8140 H   0  0  0  0  0  0  0  0  0  0  0  0
   12.3310  -57.2760   37.2530 H   0  0  0  0  0  0  0  0  0  0  0  0
   13.8470  -57.0520   35.1870 H   0  0  0  0  0  0  0  0  0  0  0  0
   16.1320  -54.4560   36.3470 H   0  0  0  0  0  0  0  0  0  0  0  0
   17.6780  -53.7010   35.8500 H   0  0  0  0  0  0  0  0  0  0  0  0
   16.0550  -55.5880   38.6070 H   0  0  0  0  0  0  0  0  0  0  0  0
   17.0840  -54.4740   39.5420 H   0  0  0  0  0  0  0  0  0  0  0  0
   15.2130  -53.5970   37.2590 H   0  0  0  0  0  0  0  0  0  0  0  0
   15.0520  -53.2960   39.0540 H   0  0  0  0  0  0  0  0  0  0  0  0
   18.3740  -51.5440   38.3340 H   0  0  0  0  0  0  0  0  0  0  0  0
   17.8620  -52.6100   39.6760 H   0  0  0  0  0  0  0  0  0  0  0  0
   19.3890  -53.9300   38.5740 H   0  0  0  0  0  0  0  0  0  0  0  0
   19.0620  -53.1870   36.9660 H   0  0  0  0  0  0  0  0  0  0  0  0
   18.9610  -54.2510   30.7670 H   0  0  0  0  0  0  0  0  0  0  0  0
   18.9130  -55.9120   31.4070 H   0  0  0  0  0  0  0  0  0  0  0  0
    9.7750  -63.0260   40.2060 H   0  0  0  0  0  0  0  0  0  0  0  0
  1  2  1  0  0  0  0
  2  3  1  0  0  0  0
  3  4  2  0  0  0  0
  3 33  1  0  0  0  0
  4 32  1  0  0  0  0
  5 34  1  0  0  0  0
  5  4  1  0  0  0  0
  6  5  2  0  0  0  0
  7  6  1  0  0  0  0
  7  2  2  0  0  0  0
  8 35  1  0  0  0  0
  8  7  1  0  0  0  0
  9 36  1  0  0  0  0
  9  6  1  0  0  0  0
 10  9  2  0  0  0  0
 11 12  1  0  0  0  0
 11 10  1  0  0  0  0
 12 13  2  0  0  0  0
 14 12  1  0  0  0  0
 15 14  1  0  0  0  0
 16 17  1  0  0  0  0
 16 15  2  0  0  0  0
 17 18  1  0  0  0  0
 18 14  2  0  0  0  0
 18 19  1  0  0  0  0
 19 38  1  0  0  0  0
 19 20  1  0  0  0  0
 20 25  1  0  0  0  0
 20 21  1  0  0  0  0
 21 40  1  0  0  0  0
 21 41  1  0  0  0  0
 22 21  1  0  0  0  0
 22 43  1  0  0  0  0
 23 22  1  0  0  0  0
 23 24  1  0  0  0  0
 24 45  1  0  0  0  0
 25 24  1  0  0  0  0
 25 46  1  0  0  0  0
 26 17  1  0  0  0  0
 26 27  2  0  0  0  0
 28 27  1  0  0  0  0
 29 28  1  0  0  0  0
 30 29  2  0  0  0  0
 30 26  1  0  0  0  0
 31 30  1  0  0  0  0
 33 50  1  0  0  0  0
 37 11  1  0  0  0  0
 39 19  1  0  0  0  0
 42 22  1  0  0  0  0
 44 24  1  0  0  0  0
 47 25  1  0  0  0  0
 48 31  1  0  0  0  0
 49 31  1  0  0  0  0
M  END
>  <Pose>
1

>  <Score>
-8.20

$$$$
