
 OpenBabel03232204043D

 60 63  0  0  1  0  0  0  0  0999 V2000
   11.8810  -61.8660   34.1150 B   0  0  0  0  0  0  0  0  0  0  0  0
   11.2990  -61.7950   35.9370 C   0  0  0  0  0  0  0  0  0  0  0  0
   11.6280  -60.6500   36.6800 C   0  0  0  0  0  0  0  0  0  0  0  0
   11.2080  -60.6140   37.9700 C   0  0  0  0  0  0  0  0  0  0  0  0
   10.4810  -61.6620   38.5490 C   0  0  0  0  0  0  0  0  0  0  0  0
   10.1710  -62.7740   37.8000 C   0  0  0  0  0  0  0  0  0  0  0  0
   10.5870  -62.8300   36.4870 C   0  0  0  0  0  0  0  0  0  0  0  0
    9.1880  -64.2570   38.4790 B   0  0  0  0  0  0  0  0  0  0  0  0
   11.5680  -59.1260   39.0660 B   0  0  0  0  0  0  0  0  0  0  0  0
   12.3300  -59.6600   36.0870 O   0  0  0  0  0  0  0  0  0  0  0  0
   13.6520  -59.7550   35.5630 C   0  0  0  0  0  0  0  0  0  0  0  0
   14.3140  -58.4430   35.5940 C   0  0  1  0  0  0  0  0  0  0  0  0
   13.2970  -57.4950   35.8030 O   0  0  0  0  0  0  0  0  0  0  0  0
   15.6380  -58.1750   36.1310 C   0  0  0  0  0  0  0  0  0  0  0  0
   16.0690  -56.8710   36.4880 N   0  0  0  0  0  0  0  0  0  0  0  0
   15.7010  -56.1910   37.6060 C   0  0  0  0  0  0  0  0  0  0  0  0
   16.3120  -54.9650   37.6170 C   0  0  0  0  0  0  0  0  0  0  0  0
   17.0300  -54.9240   36.5140 N   0  0  0  0  0  0  0  0  0  0  0  0
   16.9030  -56.0730   35.7950 C   0  0  0  0  0  0  0  0  0  0  0  0
   17.4940  -56.2300   34.4920 N   0  0  0  0  0  0  0  0  0  0  0  0
   18.4600  -57.1790   34.0920 C   0  0  0  0  0  0  0  0  0  0  0  0
   18.7000  -56.9940   32.5680 C   0  0  0  0  0  0  0  0  0  0  0  0
   19.2330  -55.6510   32.4430 N   0  0  0  0  0  4  0  0  0  0  0  0
   18.0270  -54.8040   32.5130 C   0  0  0  0  0  0  0  0  0  0  0  0
   17.0060  -55.3240   33.4440 C   0  0  0  0  0  0  0  0  0  0  0  0
   19.8920  -55.4540   31.1670 C   0  0  0  0  0  0  0  0  0  0  0  0
   19.1480  -56.2370   30.1080 C   0  0  0  0  0  0  0  0  0  0  0  0
   18.5310  -55.3410   29.2260 O   0  0  0  0  0  0  0  0  0  0  0  0
   16.1430  -54.0270   38.5990 N   0  0  0  0  0  0  0  0  0  0  0  0
   15.3170  -54.3520   39.6010 C   0  0  0  0  0  0  0  0  0  0  0  0
   15.1620  -53.4840   40.5060 O   0  0  0  0  0  0  0  0  0  0  0  0
   14.6880  -55.5430   39.6350 N   0  0  0  0  0  0  0  0  0  0  0  0
   14.8460  -56.4730   38.6790 C   0  0  0  0  0  0  0  0  0  0  0  0
   14.1870  -57.6800   38.7350 O   0  0  0  0  0  0  0  0  0  0  0  0
   16.8530  -52.7580   38.5110 C   0  0  0  0  0  0  0  0  0  0  0  0
   10.1620  -61.6090   39.5710 H   0  0  0  0  0  0  0  0  0  0  0  0
   10.3590  -63.6990   35.8570 H   0  0  0  0  0  0  0  0  0  0  0  0
   13.4490  -59.9710   34.4560 H   0  0  0  0  0  0  0  0  0  0  0  0
   14.2090  -60.6230   35.8850 H   0  0  0  0  0  0  0  0  0  0  0  0
   14.4750  -58.2270   34.4050 H   0  0  0  0  0  0  0  0  0  0  0  0
   12.5510  -57.6180   35.1890 H   0  0  0  0  0  0  0  0  0  0  0  0
   15.9640  -58.9520   36.9010 H   0  0  0  0  0  0  0  0  0  0  0  0
   16.3400  -58.5310   35.2730 H   0  0  0  0  0  0  0  0  0  0  0  0
   18.0930  -58.2380   34.1230 H   0  0  0  0  0  0  0  0  0  0  0  0
   19.4600  -57.0290   34.5090 H   0  0  0  0  0  0  0  0  0  0  0  0
   17.7440  -57.0900   32.0200 H   0  0  0  0  0  0  0  0  0  0  0  0
   19.4420  -57.6950   32.1870 H   0  0  0  0  0  0  0  0  0  0  0  0
   19.8270  -55.3580   33.2480 H   0  0  0  0  0  0  0  0  0  0  0  0
   18.2660  -53.7390   32.5760 H   0  0  0  0  0  0  0  0  0  0  0  0
   17.5890  -54.9260   31.4700 H   0  0  0  0  0  0  0  0  0  0  0  0
   16.5000  -54.4680   33.9290 H   0  0  0  0  0  0  0  0  0  0  0  0
   16.1940  -55.9040   32.9420 H   0  0  0  0  0  0  0  0  0  0  0  0
   20.9410  -55.8510   31.1880 H   0  0  0  0  0  0  0  0  0  0  0  0
   19.8820  -54.3940   30.8490 H   0  0  0  0  0  0  0  0  0  0  0  0
   19.8520  -56.8390   29.4930 H   0  0  0  0  0  0  0  0  0  0  0  0
   18.3470  -56.8890   30.5570 H   0  0  0  0  0  0  0  0  0  0  0  0
   18.1010  -54.5930   29.7260 H   0  0  0  0  0  0  0  0  0  0  0  0
   17.7060  -52.8540   39.2450 H   0  0  0  0  0  0  0  0  0  0  0  0
   17.3510  -52.7040   37.5240 H   0  0  0  0  0  0  0  0  0  0  0  0
   16.2540  -51.8860   38.7630 H   0  0  0  0  0  0  0  0  0  0  0  0
  1  2  1  0  0  0  0
  2  7  2  0  0  0  0
  2  3  1  0  0  0  0
  3  4  2  0  0  0  0
  4  5  1  0  0  0  0
  4  9  1  0  0  0  0
  5 36  1  0  0  0  0
  6  8  1  0  0  0  0
  6  5  2  0  0  0  0
  7  6  1  0  0  0  0
 10  3  1  0  0  0  0
 11 12  1  0  0  0  0
 11 39  1  0  0  0  0
 11 10  1  0  0  0  0
 12 40  1  6  0  0  0
 12 13  1  0  0  0  0
 12 14  1  0  0  0  0
 14 15  1  0  0  0  0
 14 42  1  0  0  0  0
 15 16  1  0  0  0  0
 16 17  2  0  0  0  0
 16 33  1  0  0  0  0
 17 29  1  0  0  0  0
 18 17  1  0  0  0  0
 19 15  1  0  0  0  0
 19 18  2  0  0  0  0
 20 19  1  0  0  0  0
 21 44  1  0  0  0  0
 21 20  1  0  0  0  0
 21 45  1  0  0  0  0
 22 21  1  0  0  0  0
 23 24  1  0  0  0  0
 23 22  1  0  0  0  0
 23 48  1  0  0  0  0
 24 49  1  0  0  0  0
 24 25  1  0  0  0  0
 25 51  1  0  0  0  0
 25 20  1  0  0  0  0
 26 53  1  0  0  0  0
 26 23  1  0  0  0  0
 27 56  1  0  0  0  0
 27 26  1  0  0  0  0
 28 57  1  0  0  0  0
 28 27  1  0  0  0  0
 29 30  1  0  0  0  0
 30 32  1  0  0  0  0
 30 31  2  0  0  0  0
 33 34  2  0  0  0  0
 33 32  1  0  0  0  0
 35 29  1  0  0  0  0
 35 60  1  0  0  0  0
 35 58  1  0  0  0  0
 37  7  1  0  0  0  0
 38 11  1  0  0  0  0
 41 13  1  0  0  0  0
 43 14  1  0  0  0  0
 46 22  1  0  0  0  0
 47 22  1  0  0  0  0
 50 24  1  0  0  0  0
 52 25  1  0  0  0  0
 54 26  1  0  0  0  0
 55 27  1  0  0  0  0
 59 35  1  0  0  0  0
M  END
>  <Pose>
1

>  <Score>
-8.22

$$$$
