
 OpenBabel03232204043D

 50 53  0  0  0  0  0  0  0  0999 V2000
   21.2530  -55.6740   29.6440 B   0  0  0  0  0  0  0  0  0  0  0  0
   19.7870  -56.7500   30.1880 C   0  0  0  0  0  0  0  0  0  0  0  0
   19.8120  -58.1120   29.9850 C   0  0  0  0  0  0  0  0  0  0  0  0
   18.6980  -58.8920   30.3790 C   0  0  0  0  0  0  0  0  0  0  0  0
   17.6430  -58.2390   30.9470 C   0  0  0  0  0  0  0  0  0  0  0  0
   17.5730  -56.8570   31.1710 C   0  0  0  0  0  0  0  0  0  0  0  0
   18.6860  -56.1520   30.7690 C   0  0  0  0  0  0  0  0  0  0  0  0
   16.4100  -56.2850   31.7560 C   0  0  0  0  0  0  0  0  0  0  0  0
   15.6630  -56.6140   32.6100 N   0  0  0  0  0  0  0  0  0  0  0  0
   14.9340  -57.0350   33.5110 N   0  0  0  0  0  0  0  0  0  0  0  0
   14.1320  -57.5010   34.5010 C   0  0  0  0  0  0  0  0  0  0  0  0
   12.9560  -57.8470   34.6030 O   0  0  0  0  0  0  0  0  0  0  0  0
   14.9070  -57.6200   35.8310 C   0  0  0  0  0  0  0  0  0  0  0  0
   14.0480  -57.6980   36.9400 N   0  0  0  0  0  0  0  0  0  0  0  0
   13.0470  -58.6570   36.9690 C   0  0  0  0  0  0  0  0  0  0  0  0
   12.3690  -58.4870   38.1180 C   0  0  0  0  0  0  0  0  0  0  0  0
   12.9320  -57.4700   38.7520 N   0  0  0  0  0  0  0  0  0  0  0  0
   13.9950  -56.9640   38.0180 C   0  0  0  0  0  0  0  0  0  0  0  0
   14.6910  -55.8290   38.5970 C   0  0  0  0  0  0  0  0  0  0  0  0
   14.3750  -55.3240   39.8570 N   0  0  0  0  0  0  0  0  0  0  0  0
   15.1360  -54.3500   40.1520 O   0  0  0  0  0  0  0  0  0  0  0  0
   15.9580  -54.1260   39.2070 N   0  0  0  0  0  0  0  0  0  0  0  0
   15.7110  -55.0390   38.2070 C   0  0  0  0  0  0  0  0  0  0  0  0
   16.4750  -55.0710   37.0220 N   0  0  0  0  0  4  0  0  0  0  0  0
   11.2900  -59.2790   38.4760 C   0  0  0  0  0  0  0  0  0  0  0  0
   10.9350  -60.2670   37.5890 C   0  0  0  0  0  0  0  0  0  0  0  0
   11.5980  -60.4880   36.3970 C   0  0  0  0  0  0  0  0  0  0  0  0
   12.6760  -59.6610   36.0870 C   0  0  0  0  0  0  0  0  0  0  0  0
   18.7500  -60.2550   30.1600 O   0  0  0  0  0  0  0  0  0  0  0  0
   17.6860  -61.1040   30.4230 C   0  0  0  0  0  0  0  0  0  0  0  0
   17.1370  -61.0670   31.8210 C   0  0  0  0  0  0  0  0  0  0  0  0
   20.8630  -58.7690   29.4130 O   0  0  0  0  0  0  0  0  0  0  0  0
   16.7740  -58.7970   31.2510 H   0  0  0  0  0  0  0  0  0  0  0  0
   18.7070  -55.0550   30.9310 H   0  0  0  0  0  0  0  0  0  0  0  0
   16.0520  -55.2650   31.3690 H   0  0  0  0  0  0  0  0  0  0  0  0
   14.6420  -58.2040   32.7860 H   0  0  0  0  0  0  0  0  0  0  0  0
   15.4770  -56.6310   35.9130 H   0  0  0  0  0  0  0  0  0  0  0  0
   15.6200  -58.4140   35.7040 H   0  0  0  0  0  0  0  0  0  0  0  0
   16.5550  -54.0530   36.6430 H   0  0  0  0  0  0  0  0  0  0  0  0
   15.9570  -55.5580   36.2800 H   0  0  0  0  0  0  0  0  0  0  0  0
   17.4460  -55.3130   37.2030 H   0  0  0  0  0  0  0  0  0  0  0  0
   10.7940  -59.0860   39.4210 H   0  0  0  0  0  0  0  0  0  0  0  0
   10.0790  -60.9240   37.8370 H   0  0  0  0  0  0  0  0  0  0  0  0
   11.2770  -61.2750   35.7330 H   0  0  0  0  0  0  0  0  0  0  0  0
   13.2290  -59.7890   35.1760 H   0  0  0  0  0  0  0  0  0  0  0  0
   16.8370  -60.8960   29.6830 H   0  0  0  0  0  0  0  0  0  0  0  0
   17.9440  -62.1850   30.2020 H   0  0  0  0  0  0  0  0  0  0  0  0
   17.1390  -62.0880   32.2300 H   0  0  0  0  0  0  0  0  0  0  0  0
   17.7150  -60.3890   32.4380 H   0  0  0  0  0  0  0  0  0  0  0  0
   16.0410  -60.7820   31.7860 H   0  0  0  0  0  0  0  0  0  0  0  0
  1  2  1  0  0  0  0
  2  7  1  0  0  0  0
  3  2  2  0  0  0  0
  3  4  1  0  0  0  0
  4  5  2  0  0  0  0
  5  6  1  0  0  0  0
  5 33  1  0  0  0  0
  6  8  1  0  0  0  0
  7 34  1  0  0  0  0
  7  6  2  0  0  0  0
  8  9  1  0  0  0  0
  9 10  1  0  0  0  0
 10 11  1  0  0  0  0
 11 12  2  0  0  0  0
 11 13  1  0  0  0  0
 13 37  1  0  0  0  0
 13 14  1  0  0  0  0
 14 15  1  0  0  0  0
 14 18  1  0  0  0  0
 15 16  1  0  0  0  0
 16 25  2  0  0  0  0
 16 17  1  0  0  0  0
 18 19  1  0  0  0  0
 18 17  2  0  0  0  0
 19 20  2  0  0  0  0
 20 21  1  0  0  0  0
 22 21  1  0  0  0  0
 23 19  1  0  0  0  0
 23 22  2  0  0  0  0
 24 41  1  0  0  0  0
 24 23  1  0  0  0  0
 25 42  1  0  0  0  0
 26 43  1  0  0  0  0
 26 25  1  0  0  0  0
 27 26  2  0  0  0  0
 28 27  1  0  0  0  0
 28 15  2  0  0  0  0
 29  4  1  0  0  0  0
 29 30  1  0  0  0  0
 30 31  1  0  0  0  0
 31 48  1  0  0  0  0
 31 49  1  0  0  0  0
 32  3  1  0  0  0  0
 35  8  1  0  0  0  0
 36 10  1  0  0  0  0
 38 13  1  0  0  0  0
 39 24  1  0  0  0  0
 40 24  1  0  0  0  0
 44 27  1  0  0  0  0
 45 28  1  0  0  0  0
 46 30  1  0  0  0  0
 47 30  1  0  0  0  0
 50 31  1  0  0  0  0
M  END
>  <Pose>
1

>  <Score>
-7.69

$$$$
