
 OpenBabel03232204043D

 53 56  0  0  0  0  0  0  0  0999 V2000
   20.9600  -59.8980   28.5640 B   0  0  0  0  0  0  0  0  0  0  0  0
   21.0620  -58.0650   29.1600 C   0  0  0  0  0  0  0  0  0  0  0  0
   22.2130  -57.3490   28.9090 C   0  0  0  0  0  0  0  0  0  0  0  0
   22.3040  -56.0420   29.3020 C   0  0  0  0  0  0  0  0  0  0  0  0
   21.2250  -55.4870   29.9490 C   0  0  0  0  0  0  0  0  0  0  0  0
   20.0490  -56.1610   30.2270 C   0  0  0  0  0  0  0  0  0  0  0  0
   20.0160  -57.5340   29.7840 C   0  0  0  0  0  0  0  0  0  0  0  0
   18.9260  -55.7090   30.8600 C   0  0  0  0  0  0  0  0  0  0  0  0
   18.2160  -54.6230   31.2200 N   0  0  0  0  0  0  0  0  0  0  0  0
   17.0470  -55.4420   31.9330 N   0  0  0  0  0  0  0  0  0  0  0  0
   17.5360  -55.5540   33.2890 C   0  0  0  0  0  0  0  0  0  0  0  0
   18.1060  -54.6020   33.8210 O   0  0  0  0  0  0  0  0  0  0  0  0
   17.2810  -56.7490   34.0610 C   0  0  0  0  0  0  0  0  0  0  0  0
   17.0240  -57.9810   33.7940 N   0  0  0  0  0  0  0  0  0  0  0  0
   16.3900  -58.5410   34.8100 N   0  0  0  0  0  0  0  0  0  0  0  0
   16.2410  -57.6380   35.7680 N   0  0  0  0  0  0  0  0  0  0  0  0
   16.7710  -56.4710   35.4330 C   0  0  0  0  0  0  0  0  0  0  0  0
   16.7740  -55.1540   36.0010 C   0  0  0  0  0  0  0  0  0  0  0  0
   17.7310  -54.8680   37.0720 N   0  0  0  0  0  0  0  0  0  0  0  0
   17.0900  -54.6180   38.3220 C   0  0  0  0  0  0  0  0  0  0  0  0
   16.2970  -53.3440   38.3820 C   0  0  0  0  0  0  0  0  0  0  0  0
   17.1590  -52.2640   38.4510 O   0  0  0  0  0  0  0  0  0  0  0  0
   18.4060  -52.5910   37.9060 C   0  0  0  0  0  0  0  0  0  0  0  0
   18.2170  -53.4660   36.7120 C   0  0  0  0  0  0  0  0  0  0  0  0
   15.2380  -57.8280   36.7970 C   0  0  0  0  0  0  0  0  0  0  0  0
   15.2810  -58.1020   38.0330 N   0  0  0  0  0  0  0  0  0  0  0  0
   14.0670  -58.2320   38.5690 O   0  0  0  0  0  0  0  0  0  0  0  0
   13.2300  -58.0270   37.6180 N   0  0  0  0  0  0  0  0  0  0  0  0
   13.8500  -57.7670   36.4660 C   0  0  0  0  0  0  0  0  0  0  0  0
   13.2800  -57.5110   35.2080 N   0  0  0  0  0  0  0  0  0  0  0  0
   23.4490  -55.2770   29.0490 O   0  0  0  0  0  0  0  0  0  0  0  0
   23.4980  -54.4780   27.8500 C   0  0  0  0  0  0  0  0  0  0  0  0
   23.2800  -57.9670   28.2520 O   0  0  0  0  0  0  0  0  0  0  0  0
   21.3030  -54.4270   30.2520 H   0  0  0  0  0  0  0  0  0  0  0  0
   19.1020  -58.1080   29.9630 H   0  0  0  0  0  0  0  0  0  0  0  0
   18.2730  -56.6030   31.3060 H   0  0  0  0  0  0  0  0  0  0  0  0
   16.3490  -55.6370   31.3480 H   0  0  0  0  0  0  0  0  0  0  0  0
   16.6470  -54.2720   35.3650 H   0  0  0  0  0  0  0  0  0  0  0  0
   15.7680  -55.0600   36.6270 H   0  0  0  0  0  0  0  0  0  0  0  0
   16.4400  -55.4690   38.5610 H   0  0  0  0  0  0  0  0  0  0  0  0
   17.8670  -54.5400   39.1550 H   0  0  0  0  0  0  0  0  0  0  0  0
   15.5210  -53.2610   37.6210 H   0  0  0  0  0  0  0  0  0  0  0  0
   15.7590  -53.3430   39.3750 H   0  0  0  0  0  0  0  0  0  0  0  0
   19.1800  -52.8700   38.5940 H   0  0  0  0  0  0  0  0  0  0  0  0
   18.7660  -51.5870   37.4690 H   0  0  0  0  0  0  0  0  0  0  0  0
   19.1170  -53.5060   36.1150 H   0  0  0  0  0  0  0  0  0  0  0  0
   17.3300  -52.9940   36.1870 H   0  0  0  0  0  0  0  0  0  0  0  0
   13.5510  -58.0260   34.3510 H   0  0  0  0  0  0  0  0  0  0  0  0
   12.5130  -56.7700   35.0680 H   0  0  0  0  0  0  0  0  0  0  0  0
   24.4260  -53.8980   27.7870 H   0  0  0  0  0  0  0  0  0  0  0  0
   23.4210  -55.2110   26.9690 H   0  0  0  0  0  0  0  0  0  0  0  0
   22.6190  -53.8380   27.8410 H   0  0  0  0  0  0  0  0  0  0  0  0
   24.2400  -57.6000   28.4270 H   0  0  0  0  0  0  0  0  0  0  0  0
  1  2  1  0  0  0  0
  2  7  1  0  0  0  0
  3  2  2  0  0  0  0
  3  4  1  0  0  0  0
  4  5  2  0  0  0  0
  5  6  1  0  0  0  0
  5 34  1  0  0  0  0
  6  8  1  0  0  0  0
  7 35  1  0  0  0  0
  7  6  2  0  0  0  0
  8  9  1  0  0  0  0
  8 36  1  0  0  0  0
  9 10  1  0  0  0  0
 10 11  1  0  0  0  0
 11 12  2  0  0  0  0
 11 13  1  0  0  0  0
 13 17  2  0  0  0  0
 14 13  1  0  0  0  0
 14 15  2  0  0  0  0
 15 16  1  0  0  0  0
 16 25  1  0  0  0  0
 17 16  1  0  0  0  0
 17 18  1  0  0  0  0
 18 39  1  0  0  0  0
 18 19  1  0  0  0  0
 19 20  1  0  0  0  0
 20 21  1  0  0  0  0
 20 40  1  0  0  0  0
 20 41  1  0  0  0  0
 21 22  1  0  0  0  0
 21 43  1  0  0  0  0
 23 22  1  0  0  0  0
 23 44  1  0  0  0  0
 24 19  1  0  0  0  0
 24 23  1  0  0  0  0
 25 26  2  0  0  0  0
 26 27  1  0  0  0  0
 28 27  1  0  0  0  0
 29 25  1  0  0  0  0
 29 28  2  0  0  0  0
 30 29  1  0  0  0  0
 31  4  1  0  0  0  0
 32 31  1  0  0  0  0
 33 53  1  0  0  0  0
 33  3  1  0  0  0  0
 37 10  1  0  0  0  0
 38 18  1  0  0  0  0
 42 21  1  0  0  0  0
 45 23  1  0  0  0  0
 46 24  1  0  0  0  0
 47 24  1  0  0  0  0
 48 30  1  0  0  0  0
 49 30  1  0  0  0  0
 50 32  1  0  0  0  0
 51 32  1  0  0  0  0
 52 32  1  0  0  0  0
M  END
>  <Pose>
1

>  <Score>
-8.32

$$$$
