
 OpenBabel03232204043D

 39 42  0  0  1  0  0  0  0  0999 V2000
   17.0210  -61.7720   32.5610 B   0  0  0  0  0  0  0  0  0  0  0  0
   16.1680  -60.1900   33.1780 C   0  0  0  0  0  0  0  0  0  0  0  0
   15.2180  -60.2640   34.1690 C   0  0  0  0  0  0  0  0  0  0  0  0
   14.6160  -59.1000   34.5970 C   0  0  0  0  0  0  0  0  0  0  0  0
   14.9080  -57.8530   34.0880 C   0  0  0  0  0  0  0  0  0  0  0  0
   15.8620  -57.7870   33.0950 C   0  0  0  0  0  0  0  0  0  0  0  0
   16.4800  -58.9340   32.6490 C   0  0  0  0  0  0  0  0  0  0  0  0
   16.2700  -56.4980   32.4680 C   0  0  2  0  0  0  0  0  0  0  0  0
   16.9310  -56.7590   31.2570 N   0  0  0  0  0  4  0  0  0  0  0  0
   18.1140  -56.0540   30.9410 C   0  0  1  0  0  0  0  0  0  0  0  0
   18.3160  -54.7620   31.6860 C   0  0  0  0  0  0  0  0  0  0  0  0
   18.0200  -54.9010   33.1310 C   0  0  0  0  0  0  0  0  0  0  0  0
   18.5670  -54.3250   34.2460 C   0  0  0  0  0  0  0  0  0  0  0  0
   17.8600  -54.8610   35.3090 C   0  0  0  0  0  0  0  0  0  0  0  0
   16.9260  -55.7250   34.8300 N   0  0  0  0  0  0  0  0  0  0  0  0
   17.0210  -55.7520   33.4940 C   0  0  0  0  0  0  0  0  0  0  0  0
   18.2200  -54.4380   36.5700 C   0  0  0  0  0  0  0  0  0  0  0  0
   19.2350  -53.5260   36.7670 C   0  0  0  0  0  0  0  0  0  0  0  0
   19.9390  -52.9930   35.7070 C   0  0  0  0  0  0  0  0  0  0  0  0
   19.5900  -53.4070   34.4320 C   0  0  0  0  0  0  0  0  0  0  0  0
   19.3430  -56.8710   31.1380 C   0  0  0  0  0  0  0  0  0  0  0  0
   20.0810  -57.1430   30.1310 O   0  0  0  0  0  0  0  0  0  0  0  0
   19.6690  -57.3280   32.4050 O   0  0  0  0  0  0  0  0  0  0  0  0
   13.3010  -59.2270   35.9720 B   0  0  0  0  0  0  0  0  0  0  0  0
   14.8620  -61.5020   34.7410 O   0  0  0  0  0  0  0  0  0  0  0  0
   14.4580  -56.9380   34.4010 H   0  0  0  0  0  0  0  0  0  0  0  0
   17.2400  -58.9610   31.8740 H   0  0  0  0  0  0  0  0  0  0  0  0
   15.3140  -55.9290   32.3040 H   0  0  0  0  0  0  0  0  0  0  0  0
   17.1220  -57.7940   31.1280 H   0  0  0  0  0  0  0  0  0  0  0  0
   16.2340  -56.5780   30.4650 H   0  0  0  0  0  0  0  0  0  0  0  0
   18.1410  -55.7690   29.8450 H   0  0  0  0  0  0  0  0  0  0  0  0
   17.7010  -53.9270   31.2930 H   0  0  0  0  0  0  0  0  0  0  0  0
   19.3780  -54.4540   31.5920 H   0  0  0  0  0  0  0  0  0  0  0  0
   16.2840  -56.2360   35.4750 H   0  0  0  0  0  0  0  0  0  0  0  0
   17.6860  -54.8370   37.4150 H   0  0  0  0  0  0  0  0  0  0  0  0
   19.5170  -53.1910   37.7780 H   0  0  0  0  0  0  0  0  0  0  0  0
   20.7280  -52.2800   35.9000 H   0  0  0  0  0  0  0  0  0  0  0  0
   20.1260  -53.0060   33.5830 H   0  0  0  0  0  0  0  0  0  0  0  0
   15.1770  -61.6920   35.6820 H   0  0  0  0  0  0  0  0  0  0  0  0
  1  2  1  0  0  0  0
  2  3  1  0  0  0  0
  3  4  2  0  0  0  0
  3 25  1  0  0  0  0
  4 24  1  0  0  0  0
  5 26  1  0  0  0  0
  5  4  1  0  0  0  0
  6  5  2  0  0  0  0
  7  6  1  0  0  0  0
  7  2  2  0  0  0  0
  8 28  1  6  0  0  0
  8  6  1  0  0  0  0
  8 16  1  0  0  0  0
  9  8  1  0  0  0  0
 10 31  1  6  0  0  0
 10 21  1  0  0  0  0
 10  9  1  0  0  0  0
 10 11  1  0  0  0  0
 11 12  1  0  0  0  0
 12 16  2  0  0  0  0
 12 13  1  0  0  0  0
 13 20  2  0  0  0  0
 13 14  1  0  0  0  0
 14 17  2  0  0  0  0
 15 14  1  0  0  0  0
 15 34  1  0  0  0  0
 16 15  1  0  0  0  0
 17 18  1  0  0  0  0
 17 35  1  0  0  0  0
 18 36  1  0  0  0  0
 19 37  1  0  0  0  0
 19 18  2  0  0  0  0
 20 19  1  0  0  0  0
 21 23  1  0  0  0  0
 22 21  2  0  0  0  0
 25 39  1  0  0  0  0
 27  7  1  0  0  0  0
 29  9  1  0  0  0  0
 30  9  1  0  0  0  0
 32 11  1  0  0  0  0
 33 11  1  0  0  0  0
 38 20  1  0  0  0  0
M  END
>  <Pose>
1

>  <Score>
-5.42

$$$$
