
 OpenBabel03232204043D

 52 55  0  0  0  0  0  0  0  0999 V2000
   22.7030  -54.7950   27.2620 B   0  0  0  0  0  0  0  0  0  0  0  0
   21.6940  -56.0110   28.3200 C   0  0  0  0  0  0  0  0  0  0  0  0
   22.2070  -57.2820   28.5240 C   0  0  0  0  0  0  0  0  0  0  0  0
   21.4530  -58.1490   29.2910 C   0  0  0  0  0  0  0  0  0  0  0  0
   20.2500  -57.7640   29.8230 C   0  0  0  0  0  0  0  0  0  0  0  0
   19.7150  -56.4900   29.6330 C   0  0  0  0  0  0  0  0  0  0  0  0
   20.4800  -55.6390   28.8660 C   0  0  0  0  0  0  0  0  0  0  0  0
   18.4480  -56.1390   30.2420 C   0  0  0  0  0  0  0  0  0  0  0  0
   18.3550  -55.7950   31.4810 N   0  0  0  0  0  0  0  0  0  0  0  0
   17.1680  -55.4550   32.1060 N   0  0  0  0  0  0  0  0  0  0  0  0
   16.9790  -55.7220   33.4910 C   0  0  0  0  0  0  0  0  0  0  0  0
   17.3770  -54.8470   34.4000 N   0  0  0  0  0  4  0  0  0  0  0  0
   17.2120  -55.0030   35.7250 C   0  0  0  0  0  0  0  0  0  0  0  0
   16.5970  -56.1360   36.1300 N   0  0  0  0  0  0  0  0  0  0  0  0
   16.1660  -57.0730   35.2430 C   0  0  0  0  0  0  0  0  0  0  0  0
   16.3680  -56.8460   33.9220 N   0  0  0  0  0  0  0  0  0  0  0  0
   15.5130  -58.2430   35.6780 N   0  0  0  0  0  0  0  0  0  0  0  0
   15.6950  -58.7520   37.0130 C   0  0  0  0  0  0  0  0  0  0  0  0
   14.2780  -58.9200   37.5800 C   0  0  0  0  0  0  0  0  0  0  0  0
   13.5320  -59.6820   36.7030 O   0  0  0  0  0  0  0  0  0  0  0  0
   13.2690  -58.9660   35.5360 C   0  0  0  0  0  0  0  0  0  0  0  0
   14.6210  -58.9450   34.7900 C   0  0  0  0  0  0  0  0  0  0  0  0
   17.6580  -54.0210   36.6750 N   0  0  0  0  0  0  0  0  0  0  0  0
   19.0030  -53.5210   36.6590 C   0  0  0  0  0  0  0  0  0  0  0  0
   19.2850  -52.3420   37.5050 C   0  0  0  0  0  0  0  0  0  0  0  0
   18.3280  -52.0870   38.4770 O   0  0  0  0  0  0  0  0  0  0  0  0
   17.0400  -52.1060   37.9610 C   0  0  0  0  0  0  0  0  0  0  0  0
   16.7180  -53.5470   37.6490 C   0  0  0  0  0  0  0  0  0  0  0  0
   19.4910  -58.6480   30.5980 O   0  0  0  0  0  0  0  0  0  0  0  0
   23.4280  -57.6850   27.9880 O   0  0  0  0  0  0  0  0  0  0  0  0
   21.8730  -59.1490   29.4410 H   0  0  0  0  0  0  0  0  0  0  0  0
   20.0700  -54.6310   28.7040 H   0  0  0  0  0  0  0  0  0  0  0  0
   17.5480  -56.1630   29.6500 H   0  0  0  0  0  0  0  0  0  0  0  0
   16.4140  -55.0090   31.5710 H   0  0  0  0  0  0  0  0  0  0  0  0
   16.1910  -59.7430   36.9740 H   0  0  0  0  0  0  0  0  0  0  0  0
   16.2650  -58.0320   37.6530 H   0  0  0  0  0  0  0  0  0  0  0  0
   14.3680  -59.3810   38.5800 H   0  0  0  0  0  0  0  0  0  0  0  0
   13.8630  -57.8860   37.6740 H   0  0  0  0  0  0  0  0  0  0  0  0
   13.0820  -57.8910   35.8330 H   0  0  0  0  0  0  0  0  0  0  0  0
   12.4660  -59.3940   34.9420 H   0  0  0  0  0  0  0  0  0  0  0  0
   14.9540  -60.0230   34.7750 H   0  0  0  0  0  0  0  0  0  0  0  0
   14.5340  -58.5110   33.7900 H   0  0  0  0  0  0  0  0  0  0  0  0
   19.6700  -54.3870   36.9280 H   0  0  0  0  0  0  0  0  0  0  0  0
   19.2300  -53.2460   35.5820 H   0  0  0  0  0  0  0  0  0  0  0  0
   19.4420  -51.4290   36.8760 H   0  0  0  0  0  0  0  0  0  0  0  0
   20.2530  -52.5130   38.0420 H   0  0  0  0  0  0  0  0  0  0  0  0
   16.3730  -51.6590   38.7030 H   0  0  0  0  0  0  0  0  0  0  0  0
   16.9620  -51.5620   36.9820 H   0  0  0  0  0  0  0  0  0  0  0  0
   15.6720  -53.5300   37.2440 H   0  0  0  0  0  0  0  0  0  0  0  0
   16.7010  -54.1810   38.5600 H   0  0  0  0  0  0  0  0  0  0  0  0
   19.9790  -59.2720   31.2320 H   0  0  0  0  0  0  0  0  0  0  0  0
   24.3070  -57.6130   28.4780 H   0  0  0  0  0  0  0  0  0  0  0  0
  1  2  1  0  0  0  0
  2  3  2  0  0  0  0
  2  7  1  0  0  0  0
  3  4  1  0  0  0  0
  4 31  1  0  0  0  0
  4  5  2  0  0  0  0
  5 29  1  0  0  0  0
  6  5  1  0  0  0  0
  6  8  1  0  0  0  0
  7  6  2  0  0  0  0
  8  9  2  0  0  0  0
  9 10  1  0  0  0  0
 10 11  1  0  0  0  0
 11 16  1  0  0  0  0
 11 12  2  0  0  0  0
 12 13  2  0  0  0  0
 13 14  1  0  0  0  0
 13 23  1  0  0  0  0
 15 17  1  0  0  0  0
 15 14  2  0  0  0  0
 16 15  1  0  0  0  0
 17 18  1  0  0  0  0
 18 19  1  0  0  0  0
 18 36  1  0  0  0  0
 19 38  1  0  0  0  0
 19 37  1  0  0  0  0
 20 19  1  0  0  0  0
 21 39  1  0  0  0  0
 21 20  1  0  0  0  0
 22 21  1  0  0  0  0
 22 17  1  0  0  0  0
 23 28  1  0  0  0  0
 24 23  1  0  0  0  0
 24 43  1  0  0  0  0
 24 25  1  0  0  0  0
 25 46  1  0  0  0  0
 25 26  1  0  0  0  0
 27 26  1  0  0  0  0
 27 47  1  0  0  0  0
 28 27  1  0  0  0  0
 28 50  1  0  0  0  0
 29 51  1  0  0  0  0
 30 52  1  0  0  0  0
 30  3  1  0  0  0  0
 32  7  1  0  0  0  0
 33  8  1  0  0  0  0
 34 10  1  0  0  0  0
 35 18  1  0  0  0  0
 40 21  1  0  0  0  0
 41 22  1  0  0  0  0
 42 22  1  0  0  0  0
 44 24  1  0  0  0  0
 45 25  1  0  0  0  0
 48 27  1  0  0  0  0
 49 28  1  0  0  0  0
M  END
>  <Pose>
1

>  <Score>
-7.48

$$$$
