
 OpenBabel03232204043D

 52 55  0  0  0  0  0  0  0  0999 V2000
   21.8720  -55.5210   29.7730 B   0  0  0  0  0  0  0  0  0  0  0  0
   21.3970  -57.2830   29.2220 C   0  0  0  0  0  0  0  0  0  0  0  0
   22.2910  -58.0590   28.5060 C   0  0  0  0  0  0  0  0  0  0  0  0
   21.9210  -59.3380   28.1170 C   0  0  0  0  0  0  0  0  0  0  0  0
   20.6720  -59.8150   28.4450 C   0  0  0  0  0  0  0  0  0  0  0  0
   19.8040  -59.0060   29.1630 C   0  0  0  0  0  0  0  0  0  0  0  0
   20.1450  -57.7370   29.5620 C   0  0  0  0  0  0  0  0  0  0  0  0
   19.2060  -56.9280   30.3010 C   0  0  0  0  0  0  0  0  0  0  0  0
   19.0180  -55.6640   30.1110 N   0  0  0  0  0  0  0  0  0  0  0  0
   18.0670  -54.9500   30.8920 N   0  0  0  0  0  0  0  0  0  0  0  0
   17.6190  -55.4280   32.1400 C   0  0  0  0  0  0  0  0  0  0  0  0
   18.0820  -54.8680   33.2610 N   0  0  0  0  0  4  0  0  0  0  0  0
   17.6940  -55.2890   34.4950 C   0  0  0  0  0  0  0  0  0  0  0  0
   16.8160  -56.3000   34.5870 N   0  0  0  0  0  0  0  0  0  0  0  0
   16.3330  -56.8840   33.4800 C   0  0  0  0  0  0  0  0  0  0  0  0
   16.7460  -56.4330   32.2580 N   0  0  0  0  0  0  0  0  0  0  0  0
   15.3980  -57.9590   33.5680 N   0  0  0  0  0  0  0  0  0  0  0  0
   14.0020  -57.7770   33.8860 C   0  0  0  0  0  0  0  0  0  0  0  0
   13.5490  -58.7890   34.9160 C   0  0  0  0  0  0  0  0  0  0  0  0
   14.5740  -59.6280   35.3240 O   0  0  0  0  0  0  0  0  0  0  0  0
   15.0980  -60.2890   34.1960 C   0  0  0  0  0  0  0  0  0  0  0  0
   15.8680  -59.3090   33.3330 C   0  0  0  0  0  0  0  0  0  0  0  0
   18.2400  -54.6260   35.6130 N   0  0  0  0  0  0  0  0  0  0  0  0
   19.6520  -54.3520   35.6500 C   0  0  0  0  0  0  0  0  0  0  0  0
   19.7620  -52.8330   35.8510 C   0  0  0  0  0  0  0  0  0  0  0  0
   19.1680  -52.5780   37.0870 O   0  0  0  0  0  0  0  0  0  0  0  0
   17.7920  -52.7790   37.0580 C   0  0  0  0  0  0  0  0  0  0  0  0
   17.4290  -54.2140   36.7320 C   0  0  0  0  0  0  0  0  0  0  0  0
   20.3430  -61.0970   28.0350 O   0  0  0  0  0  0  0  0  0  0  0  0
   23.5440  -57.5750   28.1790 O   0  0  0  0  0  0  0  0  0  0  0  0
   22.6340  -59.9310   27.5590 H   0  0  0  0  0  0  0  0  0  0  0  0
   18.8400  -59.4430   29.3870 H   0  0  0  0  0  0  0  0  0  0  0  0
   18.5930  -57.3760   31.0820 H   0  0  0  0  0  0  0  0  0  0  0  0
   17.6830  -54.0460   30.5470 H   0  0  0  0  0  0  0  0  0  0  0  0
   13.4240  -57.9950   32.9410 H   0  0  0  0  0  0  0  0  0  0  0  0
   13.7640  -56.7520   34.2330 H   0  0  0  0  0  0  0  0  0  0  0  0
   12.7320  -59.4470   34.5210 H   0  0  0  0  0  0  0  0  0  0  0  0
   13.1780  -58.2670   35.8400 H   0  0  0  0  0  0  0  0  0  0  0  0
   15.7760  -61.0820   34.5860 H   0  0  0  0  0  0  0  0  0  0  0  0
   14.2720  -60.7710   33.5980 H   0  0  0  0  0  0  0  0  0  0  0  0
   15.6980  -59.5340   32.2690 H   0  0  0  0  0  0  0  0  0  0  0  0
   16.9650  -59.3930   33.5860 H   0  0  0  0  0  0  0  0  0  0  0  0
   20.1330  -54.6490   34.6940 H   0  0  0  0  0  0  0  0  0  0  0  0
   20.0950  -54.8850   36.5230 H   0  0  0  0  0  0  0  0  0  0  0  0
   20.7890  -52.4760   35.8550 H   0  0  0  0  0  0  0  0  0  0  0  0
   19.1470  -52.3900   35.0190 H   0  0  0  0  0  0  0  0  0  0  0  0
   17.2610  -52.0640   36.4090 H   0  0  0  0  0  0  0  0  0  0  0  0
   17.4360  -52.6130   38.1040 H   0  0  0  0  0  0  0  0  0  0  0  0
   17.7160  -54.8430   37.6150 H   0  0  0  0  0  0  0  0  0  0  0  0
   16.3480  -54.2710   36.5240 H   0  0  0  0  0  0  0  0  0  0  0  0
   19.5840  -61.6410   28.4220 H   0  0  0  0  0  0  0  0  0  0  0  0
   24.1800  -57.3450   28.9310 H   0  0  0  0  0  0  0  0  0  0  0  0
  2  7  1  0  0  0  0
  2  1  1  0  0  0  0
  3  2  2  0  0  0  0
  4  5  2  0  0  0  0
  4  3  1  0  0  0  0
  5  6  1  0  0  0  0
  6 32  1  0  0  0  0
  6  7  2  0  0  0  0
  7  8  1  0  0  0  0
  8 33  1  0  0  0  0
  9  8  2  0  0  0  0
  9 10  1  0  0  0  0
 10 11  1  0  0  0  0
 11 16  1  0  0  0  0
 11 12  2  0  0  0  0
 12 13  2  0  0  0  0
 13 14  1  0  0  0  0
 13 23  1  0  0  0  0
 15 17  1  0  0  0  0
 15 14  2  0  0  0  0
 16 15  1  0  0  0  0
 17 18  1  0  0  0  0
 18 36  1  0  0  0  0
 18 19  1  0  0  0  0
 19 20  1  0  0  0  0
 19 38  1  0  0  0  0
 21 39  1  0  0  0  0
 21 20  1  0  0  0  0
 22 17  1  0  0  0  0
 22 42  1  0  0  0  0
 22 21  1  0  0  0  0
 23 24  1  0  0  0  0
 23 28  1  0  0  0  0
 24 25  1  0  0  0  0
 24 44  1  0  0  0  0
 25 45  1  0  0  0  0
 25 26  1  0  0  0  0
 27 26  1  0  0  0  0
 27 48  1  0  0  0  0
 28 27  1  0  0  0  0
 28 49  1  0  0  0  0
 29 51  1  0  0  0  0
 29  5  1  0  0  0  0
 30  3  1  0  0  0  0
 30 52  1  0  0  0  0
 31  4  1  0  0  0  0
 34 10  1  0  0  0  0
 35 18  1  0  0  0  0
 37 19  1  0  0  0  0
 40 21  1  0  0  0  0
 41 22  1  0  0  0  0
 43 24  1  0  0  0  0
 46 25  1  0  0  0  0
 47 27  1  0  0  0  0
 50 28  1  0  0  0  0
M  END
>  <Pose>
1

>  <Score>
-7.28

$$$$
