
 OpenBabel03232204043D

 46 49  0  0  1  0  0  0  0  0999 V2000
   19.6560  -57.5930   30.6470 B   0  0  0  0  0  0  0  0  0  0  0  0
   19.3400  -56.3620   32.0680 C   0  0  0  0  0  0  0  0  0  0  0  0
   18.7640  -56.8350   33.2400 C   0  0  0  0  0  0  0  0  0  0  0  0
   18.5490  -55.9330   34.2460 C   0  0  0  0  0  0  0  0  0  0  0  0
   18.8590  -54.5920   34.1820 C   0  0  0  0  0  0  0  0  0  0  0  0
   19.4370  -54.1570   32.9860 C   0  0  0  0  0  0  0  0  0  0  0  0
   19.6740  -55.0290   31.9420 C   0  0  0  0  0  0  0  0  0  0  0  0
   18.6270  -53.6680   35.2360 N   0  0  0  0  0  0  0  0  0  0  0  0
   17.4760  -53.7100   36.1070 C   0  0  0  0  0  0  0  0  0  0  0  0
   18.0440  -53.1650   37.3990 C   0  0  1  0  0  0  0  0  0  0  0  0
   18.8290  -51.9680   36.8920 C   0  0  0  0  0  0  0  0  0  0  0  0
   19.4030  -52.5600   35.6550 C   0  0  0  0  0  0  0  0  0  0  0  0
   20.4250  -52.1320   35.0770 O   0  0  0  0  0  0  0  0  0  0  0  0
   16.9850  -52.7670   38.3500 C   0  0  0  0  0  0  0  0  0  0  0  0
   17.0440  -51.6800   38.9730 O   0  0  0  0  0  0  0  0  0  0  0  0
   15.8900  -53.6320   38.5540 N   0  0  0  0  0  0  0  0  0  0  0  0
   16.0420  -54.8530   39.3070 C   0  0  0  0  0  0  0  0  0  0  0  0
   15.0140  -55.8580   38.9160 C   0  0  0  0  0  0  0  0  0  0  0  0
   15.1040  -56.8060   37.9490 N   0  0  0  0  0  0  0  0  0  0  0  0
   13.9640  -57.5160   37.9120 C   0  0  0  0  0  0  0  0  0  0  0  0
   13.1770  -56.9780   38.8790 N   0  0  0  0  0  0  0  0  0  0  0  0
   13.8030  -55.9870   39.4800 N   0  0  0  0  0  0  0  0  0  0  0  0
   14.0290  -58.5750   36.8520 C   0  0  0  0  0  0  0  0  0  0  0  0
   15.2180  -58.1310   36.0300 C   0  0  0  0  0  0  0  0  0  0  0  0
   16.0550  -57.2720   36.9560 C   0  0  0  0  0  0  0  0  0  0  0  0
   18.4140  -58.2780   33.3440 C   0  0  0  0  0  0  0  0  0  0  0  0
   18.0950  -56.3220   35.1650 H   0  0  0  0  0  0  0  0  0  0  0  0
   19.7210  -53.1290   32.8250 H   0  0  0  0  0  0  0  0  0  0  0  0
   20.1200  -54.7100   31.0130 H   0  0  0  0  0  0  0  0  0  0  0  0
   16.7070  -53.0320   35.6680 H   0  0  0  0  0  0  0  0  0  0  0  0
   17.0750  -54.7370   36.2360 H   0  0  0  0  0  0  0  0  0  0  0  0
   18.7370  -53.9260   37.7950 H   0  0  0  0  0  0  0  0  0  0  0  0
   19.6120  -51.7660   37.6520 H   0  0  0  0  0  0  0  0  0  0  0  0
   18.1840  -51.1110   36.6960 H   0  0  0  0  0  0  0  0  0  0  0  0
   14.9600  -53.3980   38.1640 H   0  0  0  0  0  0  0  0  0  0  0  0
   17.0450  -55.3020   39.1890 H   0  0  0  0  0  0  0  0  0  0  0  0
   15.9300  -54.6480   40.4070 H   0  0  0  0  0  0  0  0  0  0  0  0
   14.1780  -59.5550   37.3270 H   0  0  0  0  0  0  0  0  0  0  0  0
   13.1480  -58.5290   36.1780 H   0  0  0  0  0  0  0  0  0  0  0  0
   14.9140  -57.5810   35.1140 H   0  0  0  0  0  0  0  0  0  0  0  0
   15.7470  -59.0380   35.6930 H   0  0  0  0  0  0  0  0  0  0  0  0
   16.5320  -56.4260   36.4350 H   0  0  0  0  0  0  0  0  0  0  0  0
   16.8520  -57.9120   37.3860 H   0  0  0  0  0  0  0  0  0  0  0  0
   17.8780  -58.4650   34.2930 H   0  0  0  0  0  0  0  0  0  0  0  0
   17.8480  -58.6230   32.4570 H   0  0  0  0  0  0  0  0  0  0  0  0
   19.3920  -58.8190   33.4410 H   0  0  0  0  0  0  0  0  0  0  0  0
  1  2  1  0  0  0  0
  2  3  1  0  0  0  0
  3 26  1  0  0  0  0
  3  4  2  0  0  0  0
  4 27  1  0  0  0  0
  5  4  1  0  0  0  0
  5  8  1  0  0  0  0
  6  5  2  0  0  0  0
  7  2  2  0  0  0  0
  7  6  1  0  0  0  0
  8 12  1  0  0  0  0
  8  9  1  0  0  0  0
  9 31  1  0  0  0  0
  9 10  1  0  0  0  0
 10 32  1  1  0  0  0
 10 14  1  0  0  0  0
 11 10  1  0  0  0  0
 11 33  1  0  0  0  0
 12 11  1  0  0  0  0
 13 12  2  0  0  0  0
 14 16  1  0  0  0  0
 14 15  2  0  0  0  0
 16 17  1  0  0  0  0
 17 37  1  0  0  0  0
 18 17  1  0  0  0  0
 18 22  2  0  0  0  0
 19 18  1  0  0  0  0
 20 19  1  0  0  0  0
 20 21  2  0  0  0  0
 21 22  1  0  0  0  0
 23 38  1  0  0  0  0
 23 20  1  0  0  0  0
 24 23  1  0  0  0  0
 24 25  1  0  0  0  0
 25 43  1  0  0  0  0
 25 19  1  0  0  0  0
 26 46  1  0  0  0  0
 26 44  1  0  0  0  0
 28  6  1  0  0  0  0
 29  7  1  0  0  0  0
 30  9  1  0  0  0  0
 34 11  1  0  0  0  0
 35 16  1  0  0  0  0
 36 17  1  0  0  0  0
 39 23  1  0  0  0  0
 40 24  1  0  0  0  0
 41 24  1  0  0  0  0
 42 25  1  0  0  0  0
 45 26  1  0  0  0  0
M  END
>  <Pose>
1

>  <Score>
-6.84

$$$$
