
 OpenBabel03232204043D

 40 43  0  0  0  0  0  0  0  0999 V2000
   14.1490  -57.9180   34.1420 B   0  0  0  0  0  0  0  0  0  0  0  0
   12.8870  -59.1850   34.8110 C   0  0  0  0  0  0  0  0  0  0  0  0
   12.5100  -59.4240   36.0920 C   0  0  0  0  0  0  0  0  0  0  0  0
   11.5870  -60.4450   36.0880 N   0  0  0  0  0  0  0  0  0  0  0  0
   11.4230  -60.7980   34.8400 N   0  0  0  0  0  0  0  0  0  0  0  0
   12.1700  -60.0890   34.0020 C   0  0  0  0  0  0  0  0  0  0  0  0
   10.9300  -61.0100   37.2370 C   0  0  0  0  0  0  0  0  0  0  0  0
   12.9390  -58.7440   37.3320 C   0  0  0  0  0  0  0  0  0  0  0  0
   12.0140  -58.1640   38.0140 O   0  0  0  0  0  0  0  0  0  0  0  0
   14.2570  -58.7040   37.7790 N   0  0  0  0  0  0  0  0  0  0  0  0
   15.1270  -57.5890   37.6760 C   0  0  0  0  0  0  0  0  0  0  0  0
   14.9770  -56.5700   38.6390 C   0  0  0  0  0  0  0  0  0  0  0  0
   14.1170  -56.4600   39.6870 N   0  0  0  0  0  0  0  0  0  0  0  0
   14.3770  -55.3330   40.2770 O   0  0  0  0  0  0  0  0  0  0  0  0
   15.3460  -54.7160   39.6760 N   0  0  0  0  0  0  0  0  0  0  0  0
   15.7640  -55.4480   38.6350 C   0  0  0  0  0  0  0  0  0  0  0  0
   16.7510  -55.2410   37.6940 C   0  0  0  0  0  0  0  0  0  0  0  0
   16.8940  -56.2420   36.7520 C   0  0  0  0  0  0  0  0  0  0  0  0
   16.1010  -57.3870   36.7460 C   0  0  0  0  0  0  0  0  0  0  0  0
   17.5650  -54.0940   37.6770 N   0  0  0  0  0  0  0  0  0  0  0  0
   16.9200  -52.7840   37.6780 C   0  0  0  0  0  0  0  0  0  0  0  0
   17.9160  -51.6740   37.4830 C   0  0  0  0  0  0  0  0  0  0  0  0
   18.9110  -51.9150   36.5950 O   0  0  0  0  0  0  0  0  0  0  0  0
   19.3450  -53.1980   36.4330 C   0  0  0  0  0  0  0  0  0  0  0  0
   18.9950  -54.0170   37.6590 C   0  0  0  0  0  0  0  0  0  0  0  0
   12.2680  -60.1290   32.9380 H   0  0  0  0  0  0  0  0  0  0  0  0
   10.4910  -60.2020   37.8660 H   0  0  0  0  0  0  0  0  0  0  0  0
   11.6640  -61.5570   37.8540 H   0  0  0  0  0  0  0  0  0  0  0  0
   10.1610  -61.7200   36.9010 H   0  0  0  0  0  0  0  0  0  0  0  0
   14.6150  -59.6050   38.2180 H   0  0  0  0  0  0  0  0  0  0  0  0
   17.6620  -56.1000   36.0040 H   0  0  0  0  0  0  0  0  0  0  0  0
   16.2680  -58.1220   35.9860 H   0  0  0  0  0  0  0  0  0  0  0  0
   16.1690  -52.7030   36.8640 H   0  0  0  0  0  0  0  0  0  0  0  0
   16.3940  -52.6010   38.6450 H   0  0  0  0  0  0  0  0  0  0  0  0
   17.3310  -50.7850   37.1130 H   0  0  0  0  0  0  0  0  0  0  0  0
   18.2800  -51.3640   38.4990 H   0  0  0  0  0  0  0  0  0  0  0  0
   18.7870  -53.6450   35.5690 H   0  0  0  0  0  0  0  0  0  0  0  0
   20.4390  -53.2900   36.2420 H   0  0  0  0  0  0  0  0  0  0  0  0
   19.2760  -53.3820   38.5530 H   0  0  0  0  0  0  0  0  0  0  0  0
   19.5580  -54.9260   37.7570 H   0  0  0  0  0  0  0  0  0  0  0  0
  1  2  1  0  0  0  0
  2  3  2  0  0  0  0
  3  8  1  0  0  0  0
  4  3  1  0  0  0  0
  4  7  1  0  0  0  0
  5  4  1  0  0  0  0
  6  2  1  0  0  0  0
  6  5  2  0  0  0  0
  7 28  1  0  0  0  0
  7 27  1  0  0  0  0
  8 10  1  0  0  0  0
  8  9  2  0  0  0  0
 10 30  1  0  0  0  0
 11 10  1  0  0  0  0
 11 12  1  0  0  0  0
 12 13  2  0  0  0  0
 13 14  1  0  0  0  0
 15 14  1  0  0  0  0
 16 12  1  0  0  0  0
 16 15  2  0  0  0  0
 17 16  1  0  0  0  0
 18 17  2  0  0  0  0
 19 18  1  0  0  0  0
 19 11  2  0  0  0  0
 20 21  1  0  0  0  0
 20 17  1  0  0  0  0
 21 34  1  0  0  0  0
 22 21  1  0  0  0  0
 22 36  1  0  0  0  0
 23 22  1  0  0  0  0
 24 23  1  0  0  0  0
 24 25  1  0  0  0  0
 25 20  1  0  0  0  0
 25 40  1  0  0  0  0
 25 39  1  0  0  0  0
 26  6  1  0  0  0  0
 29  7  1  0  0  0  0
 31 18  1  0  0  0  0
 32 19  1  0  0  0  0
 33 21  1  0  0  0  0
 35 22  1  0  0  0  0
 37 24  1  0  0  0  0
 38 24  1  0  0  0  0
M  END
>  <Pose>
1

>  <Score>
-7.46

$$$$
