
 OpenBabel03232204043D

 48 51  0  0  0  0  0  0  0  0999 V2000
   14.8530  -55.9170   39.5590 B   0  0  0  0  0  0  0  0  0  0  0  0
   15.9630  -54.6290   38.7000 C   0  0  0  0  0  0  0  0  0  0  0  0
   16.4190  -54.7200   37.4160 C   0  0  0  0  0  0  0  0  0  0  0  0
   17.2210  -53.7740   36.8170 C   0  0  0  0  0  0  0  0  0  0  0  0
   17.5750  -52.6640   37.5900 C   0  0  0  0  0  0  0  0  0  0  0  0
   17.1490  -52.5200   38.8820 C   0  0  0  0  0  0  0  0  0  0  0  0
   16.3410  -53.5070   39.4330 C   0  0  0  0  0  0  0  0  0  0  0  0
   18.3750  -51.6980   37.0110 O   0  0  0  0  0  0  0  0  0  0  0  0
   19.7220  -51.9700   36.7260 C   0  0  0  0  0  0  0  0  0  0  0  0
   17.6810  -53.8850   35.4430 C   0  0  0  0  0  0  0  0  0  0  0  0
   17.7690  -54.9820   34.7420 C   0  0  0  0  0  0  0  0  0  0  0  0
   17.4260  -56.2410   35.2090 O   0  0  0  0  0  0  0  0  0  0  0  0
   17.6230  -57.2170   34.2500 C   0  0  0  0  0  0  0  0  0  0  0  0
   18.1100  -56.6620   33.0880 C   0  0  0  0  0  0  0  0  0  0  0  0
   18.3790  -57.4620   31.9980 C   0  0  0  0  0  0  0  0  0  0  0  0
   18.1570  -58.8200   32.0830 C   0  0  0  0  0  0  0  0  0  0  0  0
   17.6580  -59.3630   33.2830 C   0  0  0  0  0  0  0  0  0  0  0  0
   17.3840  -58.5930   34.3720 C   0  0  0  0  0  0  0  0  0  0  0  0
   16.8570  -59.0890   35.6130 C   0  0  0  0  0  0  0  0  0  0  0  0
   15.5380  -59.5560   35.7500 N   0  0  0  0  0  4  0  0  0  0  0  0
   14.6610  -58.7340   36.5380 C   0  0  0  0  0  0  0  0  0  0  0  0
   14.0650  -57.5710   35.7850 C   0  0  0  0  0  0  0  0  0  0  0  0
   14.5640  -57.4280   34.4980 O   0  0  0  0  0  0  0  0  0  0  0  0
   14.2800  -58.6160   33.8340 C   0  0  0  0  0  0  0  0  0  0  0  0
   14.9000  -59.8270   34.4490 C   0  0  0  0  0  0  0  0  0  0  0  0
   17.4840  -60.7550   33.2240 O   0  0  0  0  0  0  0  0  0  0  0  0
   18.2160  -55.2260   33.3680 C   0  0  0  0  0  0  0  0  0  0  0  0
   18.6190  -54.3450   32.5770 O   0  0  0  0  0  0  0  0  0  0  0  0
   16.1190  -55.6020   36.8430 H   0  0  0  0  0  0  0  0  0  0  0  0
   17.4000  -51.6720   39.5290 H   0  0  0  0  0  0  0  0  0  0  0  0
   15.9910  -53.4030   40.4700 H   0  0  0  0  0  0  0  0  0  0  0  0
   20.3040  -50.9980   36.6710 H   0  0  0  0  0  0  0  0  0  0  0  0
   19.7970  -52.4290   35.7070 H   0  0  0  0  0  0  0  0  0  0  0  0
   20.2350  -52.5620   37.5110 H   0  0  0  0  0  0  0  0  0  0  0  0
   17.9920  -52.9590   34.9320 H   0  0  0  0  0  0  0  0  0  0  0  0
   18.7630  -57.0120   31.0830 H   0  0  0  0  0  0  0  0  0  0  0  0
   18.3480  -59.4950   31.2650 H   0  0  0  0  0  0  0  0  0  0  0  0
   17.5180  -59.9150   36.0570 H   0  0  0  0  0  0  0  0  0  0  0  0
   16.9770  -58.2980   36.4490 H   0  0  0  0  0  0  0  0  0  0  0  0
   15.5550  -60.5000   36.1880 H   0  0  0  0  0  0  0  0  0  0  0  0
   13.7910  -59.4020   36.8160 H   0  0  0  0  0  0  0  0  0  0  0  0
   15.1210  -58.4310   37.4780 H   0  0  0  0  0  0  0  0  0  0  0  0
   12.9450  -57.6560   35.6740 H   0  0  0  0  0  0  0  0  0  0  0  0
   14.2150  -56.6380   36.3650 H   0  0  0  0  0  0  0  0  0  0  0  0
   14.7400  -58.5130   32.8060 H   0  0  0  0  0  0  0  0  0  0  0  0
   13.1660  -58.7090   33.6840 H   0  0  0  0  0  0  0  0  0  0  0  0
   15.6400  -60.3260   33.7900 H   0  0  0  0  0  0  0  0  0  0  0  0
   14.0940  -60.5750   34.6020 H   0  0  0  0  0  0  0  0  0  0  0  0
  2  7  1  0  0  0  0
  2  1  1  0  0  0  0
  3  2  2  0  0  0  0
  4  3  1  0  0  0  0
  4  5  2  0  0  0  0
  5  6  1  0  0  0  0
  6  7  2  0  0  0  0
  6 30  1  0  0  0  0
  7 31  1  0  0  0  0
  8  5  1  0  0  0  0
  9  8  1  0  0  0  0
  9 34  1  0  0  0  0
 10  4  1  0  0  0  0
 11 12  1  0  0  0  0
 11 10  2  0  0  0  0
 13 18  1  0  0  0  0
 13 12  1  0  0  0  0
 14 27  1  0  0  0  0
 14 13  2  0  0  0  0
 15 16  2  0  0  0  0
 15 14  1  0  0  0  0
 16 17  1  0  0  0  0
 17 18  2  0  0  0  0
 18 19  1  0  0  0  0
 19 20  1  0  0  0  0
 19 38  1  0  0  0  0
 19 39  1  0  0  0  0
 20 40  1  0  0  0  0
 20 21  1  0  0  0  0
 21 41  1  0  0  0  0
 21 42  1  0  0  0  0
 22 44  1  0  0  0  0
 22 21  1  0  0  0  0
 23 22  1  0  0  0  0
 24 25  1  0  0  0  0
 24 23  1  0  0  0  0
 25 48  1  0  0  0  0
 25 20  1  0  0  0  0
 26 17  1  0  0  0  0
 27 11  1  0  0  0  0
 28 27  2  0  0  0  0
 29  3  1  0  0  0  0
 32  9  1  0  0  0  0
 33  9  1  0  0  0  0
 35 10  1  0  0  0  0
 36 15  1  0  0  0  0
 37 16  1  0  0  0  0
 43 22  1  0  0  0  0
 45 24  1  0  0  0  0
 46 24  1  0  0  0  0
 47 25  1  0  0  0  0
M  END
>  <Pose>
1

>  <Score>
-6.60

$$$$
