
 OpenBabel03232204043D

 45 48  0  0  0  0  0  0  0  0999 V2000
   16.7400  -61.0560   33.1050 B   0  0  0  0  0  0  0  0  0  0  0  0
   16.9790  -59.1690   32.9580 C   0  0  0  0  0  0  0  0  0  0  0  0
   17.0410  -58.4050   34.0860 C   0  0  0  0  0  0  0  0  0  0  0  0
   17.2080  -57.0540   34.1400 C   0  0  0  0  0  0  0  0  0  0  0  0
   17.3200  -56.4630   32.8610 C   0  0  0  0  0  0  0  0  0  0  0  0
   17.2650  -57.1930   31.6980 C   0  0  0  0  0  0  0  0  0  0  0  0
   17.0920  -58.5680   31.7390 C   0  0  0  0  0  0  0  0  0  0  0  0
   17.4950  -55.0920   32.7750 O   0  0  0  0  0  0  0  0  0  0  0  0
   18.5650  -54.4720   32.1340 C   0  0  0  0  0  0  0  0  0  0  0  0
   17.2960  -56.2000   35.2900 C   0  0  0  0  0  0  0  0  0  0  0  0
   16.6180  -55.9280   36.3840 N   0  0  0  0  0  0  0  0  0  0  0  0
   17.2560  -54.9600   37.1160 C   0  0  0  0  0  0  0  0  0  0  0  0
   18.3770  -54.6410   36.4300 N   0  0  0  0  0  0  0  0  0  0  0  0
   18.4150  -55.3590   35.3590 N   0  0  0  0  0  0  0  0  0  0  0  0
   16.5560  -54.6970   38.2210 N   0  0  0  0  0  0  0  0  0  0  0  0
   15.4760  -55.4950   38.2020 C   0  0  0  0  0  0  0  0  0  0  0  0
   15.4940  -56.2830   37.0560 C   0  0  0  0  0  0  0  0  0  0  0  0
   14.5620  -57.1780   36.7920 N   0  0  0  0  0  0  0  0  0  0  0  0
   13.5470  -57.3000   37.7040 C   0  0  0  0  0  0  0  0  0  0  0  0
   12.6060  -58.1200   37.5510 O   0  0  0  0  0  0  0  0  0  0  0  0
   13.4950  -56.5500   38.8250 N   0  0  0  0  0  0  0  0  0  0  0  0
   14.4340  -55.6510   39.0960 C   0  0  0  0  0  0  0  0  0  0  0  0
   14.4420  -54.9230   40.1210 O   0  0  0  0  0  0  0  0  0  0  0  0
   14.4870  -58.1080   35.7050 C   0  0  0  0  0  0  0  0  0  0  0  0
   16.8710  -53.7500   39.2500 C   0  0  0  0  0  0  0  0  0  0  0  0
   16.8560  -52.3510   38.6680 C   0  0  0  0  0  0  0  0  0  0  0  0
   18.1600  -51.9090   38.5690 O   0  0  0  0  0  0  0  0  0  0  0  0
   18.5410  -51.7150   37.2300 C   0  0  0  0  0  0  0  0  0  0  0  0
   16.9380  -58.8830   35.0490 H   0  0  0  0  0  0  0  0  0  0  0  0
   17.3490  -56.7630   30.7150 H   0  0  0  0  0  0  0  0  0  0  0  0
   17.0470  -59.1520   30.8390 H   0  0  0  0  0  0  0  0  0  0  0  0
   18.8790  -54.9820   31.2000 H   0  0  0  0  0  0  0  0  0  0  0  0
   18.3330  -53.4170   31.8340 H   0  0  0  0  0  0  0  0  0  0  0  0
   19.4210  -54.4100   32.8430 H   0  0  0  0  0  0  0  0  0  0  0  0
   12.7160  -56.6540   39.5080 H   0  0  0  0  0  0  0  0  0  0  0  0
   15.4460  -58.5950   35.4800 H   0  0  0  0  0  0  0  0  0  0  0  0
   13.7500  -58.9300   36.0100 H   0  0  0  0  0  0  0  0  0  0  0  0
   14.0470  -57.6600   34.8210 H   0  0  0  0  0  0  0  0  0  0  0  0
   17.8060  -53.9810   39.7910 H   0  0  0  0  0  0  0  0  0  0  0  0
   16.0160  -53.7720   39.9880 H   0  0  0  0  0  0  0  0  0  0  0  0
   16.3250  -51.6380   39.3470 H   0  0  0  0  0  0  0  0  0  0  0  0
   16.3530  -52.4090   37.6830 H   0  0  0  0  0  0  0  0  0  0  0  0
   18.4420  -52.6910   36.7060 H   0  0  0  0  0  0  0  0  0  0  0  0
   19.6030  -51.4380   37.1770 H   0  0  0  0  0  0  0  0  0  0  0  0
   17.9300  -50.9630   36.7280 H   0  0  0  0  0  0  0  0  0  0  0  0
  2  1  1  0  0  0  0
  2  3  1  0  0  0  0
  3  4  2  0  0  0  0
  3 29  1  0  0  0  0
  4 10  1  0  0  0  0
  5  4  1  0  0  0  0
  6  7  1  0  0  0  0
  6  5  2  0  0  0  0
  7  2  2  0  0  0  0
  8  5  1  0  0  0  0
  9  8  1  0  0  0  0
  9 34  1  0  0  0  0
 10 14  2  0  0  0  0
 10 11  1  0  0  0  0
 11 17  1  0  0  0  0
 11 12  1  0  0  0  0
 12 15  1  0  0  0  0
 13 12  2  0  0  0  0
 14 13  1  0  0  0  0
 15 25  1  0  0  0  0
 16 15  1  0  0  0  0
 16 22  1  0  0  0  0
 17 16  2  0  0  0  0
 18 17  1  0  0  0  0
 18 19  1  0  0  0  0
 19 21  1  0  0  0  0
 20 19  2  0  0  0  0
 21 22  1  0  0  0  0
 21 35  1  0  0  0  0
 22 23  2  0  0  0  0
 24 37  1  0  0  0  0
 24 18  1  0  0  0  0
 25 39  1  0  0  0  0
 25 40  1  0  0  0  0
 26 25  1  0  0  0  0
 26 41  1  0  0  0  0
 27 26  1  0  0  0  0
 28 27  1  0  0  0  0
 30  6  1  0  0  0  0
 31  7  1  0  0  0  0
 32  9  1  0  0  0  0
 33  9  1  0  0  0  0
 36 24  1  0  0  0  0
 38 24  1  0  0  0  0
 42 26  1  0  0  0  0
 43 28  1  0  0  0  0
 44 28  1  0  0  0  0
 45 28  1  0  0  0  0
M  END
>  <Pose>
1

>  <Score>
-7.65

$$$$
