
 OpenBabel03232204043D

 48 51  0  0  1  0  0  0  0  0999 V2000
   18.3480  -54.3950   35.5800 B   0  0  0  0  0  0  0  0  0  0  0  0
   17.3380  -53.8630   37.1170 C   0  0  0  0  0  0  0  0  0  0  0  0
   16.3780  -54.6900   37.6300 C   0  0  0  0  0  0  0  0  0  0  0  0
   15.6410  -54.3120   38.7450 C   0  0  0  0  0  0  0  0  0  0  0  0
   15.9020  -53.1010   39.3040 C   0  0  0  0  0  0  0  0  0  0  0  0
   16.8770  -52.2690   38.7770 C   0  0  0  0  0  0  0  0  0  0  0  0
   17.6050  -52.6460   37.6750 C   0  0  0  0  0  0  0  0  0  0  0  0
   14.6180  -55.1930   39.2830 C   0  0  0  0  0  0  0  0  0  0  0  0
   14.5580  -55.3510   40.5580 O   0  0  0  0  0  0  0  0  0  0  0  0
   13.7010  -55.8720   38.4570 N   0  0  0  0  0  0  0  0  0  0  0  0
   14.2250  -56.9070   37.5830 C   0  0  2  0  0  0  0  0  0  0  0  0
   14.0330  -56.5490   36.1220 C   0  0  0  0  0  0  0  0  0  0  0  0
   14.0350  -57.8440   35.4690 N   0  0  0  0  0  0  0  0  0  0  0  0
   14.0050  -58.9170   36.4430 C   0  0  1  0  0  0  0  0  0  0  0  0
   13.4600  -58.1960   37.6840 C   0  0  0  0  0  0  0  0  0  0  0  0
   13.0860  -59.9510   35.9690 C   0  0  0  0  0  0  0  0  0  0  0  0
   12.1620  -60.3720   36.6800 O   0  0  0  0  0  0  0  0  0  0  0  0
   13.2840  -60.4650   34.6620 N   0  0  0  0  0  0  0  0  0  0  0  0
   13.9200  -59.6380   33.6610 C   0  0  1  0  0  0  0  0  0  0  0  0
   14.0610  -58.2280   34.0870 C   0  0  0  0  0  0  0  0  0  0  0  0
   14.2100  -57.3270   33.2200 O   0  0  0  0  0  0  0  0  0  0  0  0
   15.2310  -60.2200   33.1750 C   0  0  0  0  0  0  0  0  0  0  0  0
   15.1110  -60.9290   31.8900 C   0  0  0  0  0  0  0  0  0  0  0  0
   15.8610  -60.5160   30.8040 C   0  0  0  0  0  0  0  0  0  0  0  0
   15.7550  -61.1730   29.6000 C   0  0  0  0  0  0  0  0  0  0  0  0
   14.9140  -62.2540   29.4120 C   0  0  0  0  0  0  0  0  0  0  0  0
   14.1650  -62.6680   30.4930 C   0  0  0  0  0  0  0  0  0  0  0  0
   14.2590  -62.0200   31.7090 C   0  0  0  0  0  0  0  0  0  0  0  0
   16.1460  -55.6690   37.2010 H   0  0  0  0  0  0  0  0  0  0  0  0
   15.3360  -52.7740   40.1800 H   0  0  0  0  0  0  0  0  0  0  0  0
   17.0850  -51.3090   39.2190 H   0  0  0  0  0  0  0  0  0  0  0  0
   18.3780  -52.0130   37.2370 H   0  0  0  0  0  0  0  0  0  0  0  0
   12.7010  -55.6290   38.4930 H   0  0  0  0  0  0  0  0  0  0  0  0
   15.2850  -57.0960   37.7360 H   0  0  0  0  0  0  0  0  0  0  0  0
   13.0580  -56.0490   35.9330 H   0  0  0  0  0  0  0  0  0  0  0  0
   14.8550  -55.9030   35.7450 H   0  0  0  0  0  0  0  0  0  0  0  0
   15.0110  -59.3320   36.6580 H   0  0  0  0  0  0  0  0  0  0  0  0
   13.7510  -58.8210   38.5420 H   0  0  0  0  0  0  0  0  0  0  0  0
   12.3790  -58.0840   37.5430 H   0  0  0  0  0  0  0  0  0  0  0  0
   12.9850  -61.4270   34.3850 H   0  0  0  0  0  0  0  0  0  0  0  0
   13.2330  -59.6840   32.7630 H   0  0  0  0  0  0  0  0  0  0  0  0
   15.9710  -59.4000   33.1130 H   0  0  0  0  0  0  0  0  0  0  0  0
   15.5620  -60.9470   33.9330 H   0  0  0  0  0  0  0  0  0  0  0  0
   16.5490  -59.6790   30.8480 H   0  0  0  0  0  0  0  0  0  0  0  0
   16.3390  -60.8550   28.7470 H   0  0  0  0  0  0  0  0  0  0  0  0
   14.8590  -62.7500   28.4400 H   0  0  0  0  0  0  0  0  0  0  0  0
   13.5020  -63.5220   30.3450 H   0  0  0  0  0  0  0  0  0  0  0  0
   13.6550  -62.3710   32.5370 H   0  0  0  0  0  0  0  0  0  0  0  0
  1  2  1  0  0  0  0
  2  3  2  0  0  0  0
  2  7  1  0  0  0  0
  3  4  1  0  0  0  0
  4  8  1  0  0  0  0
  4  5  2  0  0  0  0
  5 30  1  0  0  0  0
  6 31  1  0  0  0  0
  6  5  1  0  0  0  0
  7  6  2  0  0  0  0
  8  9  2  0  0  0  0
 10 33  1  0  0  0  0
 10  8  1  0  0  0  0
 11 15  1  0  0  0  0
 11 34  1  1  0  0  0
 11 10  1  0  0  0  0
 12 11  1  0  0  0  0
 13 12  1  0  0  0  0
 13 14  1  0  0  0  0
 14 37  1  1  0  0  0
 14 15  1  0  0  0  0
 15 38  1  0  0  0  0
 16 14  1  0  0  0  0
 16 17  2  0  0  0  0
 18 16  1  0  0  0  0
 19 41  1  6  0  0  0
 19 20  1  0  0  0  0
 19 18  1  0  0  0  0
 20 13  1  0  0  0  0
 21 20  2  0  0  0  0
 22 19  1  0  0  0  0
 22 43  1  0  0  0  0
 23 22  1  0  0  0  0
 24 44  1  0  0  0  0
 24 23  2  0  0  0  0
 25 24  1  0  0  0  0
 26 25  2  0  0  0  0
 26 27  1  0  0  0  0
 27 28  2  0  0  0  0
 28 23  1  0  0  0  0
 28 48  1  0  0  0  0
 29  3  1  0  0  0  0
 32  7  1  0  0  0  0
 35 12  1  0  0  0  0
 36 12  1  0  0  0  0
 39 15  1  0  0  0  0
 40 18  1  0  0  0  0
 42 22  1  0  0  0  0
 45 25  1  0  0  0  0
 46 26  1  0  0  0  0
 47 27  1  0  0  0  0
M  END
>  <Pose>
1

>  <Score>
-6.65

$$$$
