
 OpenBabel03232204043D

 42 45  0  0  1  0  0  0  0  0999 V2000
    7.6500  -59.4740   39.4700 B   0  0  0  0  0  0  0  0  0  0  0  0
    9.2480  -60.4840   39.2690 C   0  0  0  0  0  0  0  0  0  0  0  0
   10.2300  -60.1390   38.3740 C   0  0  0  0  0  0  0  0  0  0  0  0
   11.3750  -60.8810   38.2150 C   0  0  0  0  0  0  0  0  0  0  0  0
   11.5500  -62.0090   38.9750 C   0  0  0  0  0  0  0  0  0  0  0  0
   10.5810  -62.3940   39.8920 C   0  0  0  0  0  0  0  0  0  0  0  0
    9.4540  -61.6330   40.0270 C   0  0  0  0  0  0  0  0  0  0  0  0
   12.4370  -60.4740   37.2160 C   0  0  0  0  0  0  0  0  0  0  0  0
   12.2670  -61.0670   36.1070 O   0  0  0  0  0  0  0  0  0  0  0  0
   13.4000  -59.5720   37.5950 N   0  0  0  0  0  0  0  0  0  0  0  0
   14.3360  -58.7020   37.9590 C   0  0  2  0  0  0  0  0  0  0  0  0
   13.7550  -57.2940   38.3510 C   0  0  0  0  0  0  0  0  0  0  0  0
   14.9040  -56.4530   38.3670 N   0  0  0  0  0  0  0  0  0  0  0  0
   15.9580  -57.0690   37.5750 C   0  0  1  0  0  0  0  0  0  0  0  0
   15.2910  -58.1640   36.8490 C   0  0  0  0  0  0  0  0  0  0  0  0
   16.6550  -56.0510   36.7740 C   0  0  0  0  0  0  0  0  0  0  0  0
   16.9920  -56.3160   35.6070 O   0  0  0  0  0  0  0  0  0  0  0  0
   16.9410  -54.7810   37.3250 N   0  0  0  0  0  0  0  0  0  0  0  0
   16.0410  -54.2060   38.3000 C   0  0  2  0  0  0  0  0  0  0  0  0
   16.9160  -53.3930   39.2320 C   0  0  0  0  0  0  0  0  0  0  0  0
   18.2810  -53.4700   38.6430 C   0  0  0  0  0  0  0  0  0  0  0  0
   18.0070  -53.7980   37.1680 C   0  0  0  0  0  0  0  0  0  0  0  0
   15.2050  -55.1980   38.9670 C   0  0  0  0  0  0  0  0  0  0  0  0
   14.7220  -54.9500   40.1270 O   0  0  0  0  0  0  0  0  0  0  0  0
   10.1210  -59.2520   37.7640 H   0  0  0  0  0  0  0  0  0  0  0  0
   12.4120  -62.6350   38.8960 H   0  0  0  0  0  0  0  0  0  0  0  0
   10.7510  -63.3000   40.4860 H   0  0  0  0  0  0  0  0  0  0  0  0
    8.6800  -61.9170   40.7430 H   0  0  0  0  0  0  0  0  0  0  0  0
   14.3670  -60.4940   37.2600 H   0  0  0  0  0  0  0  0  0  0  0  0
   15.0430  -58.8720   38.8190 H   0  0  0  0  0  0  0  0  0  0  0  0
   13.0110  -57.0780   37.5870 H   0  0  0  0  0  0  0  0  0  0  0  0
   13.2610  -57.4220   39.3250 H   0  0  0  0  0  0  0  0  0  0  0  0
   16.7320  -57.5160   38.2500 H   0  0  0  0  0  0  0  0  0  0  0  0
   15.9480  -58.9920   36.5220 H   0  0  0  0  0  0  0  0  0  0  0  0
   14.6260  -57.8300   36.0370 H   0  0  0  0  0  0  0  0  0  0  0  0
   15.3650  -53.4370   37.8120 H   0  0  0  0  0  0  0  0  0  0  0  0
   16.8840  -53.8500   40.2690 H   0  0  0  0  0  0  0  0  0  0  0  0
   16.6180  -52.3300   39.2940 H   0  0  0  0  0  0  0  0  0  0  0  0
   18.8250  -54.3140   39.1300 H   0  0  0  0  0  0  0  0  0  0  0  0
   18.8740  -52.5370   38.7430 H   0  0  0  0  0  0  0  0  0  0  0  0
   17.6920  -52.8930   36.6550 H   0  0  0  0  0  0  0  0  0  0  0  0
   18.9280  -54.1850   36.7450 H   0  0  0  0  0  0  0  0  0  0  0  0
  2  1  1  0  0  0  0
  2  7  1  0  0  0  0
  3  2  2  0  0  0  0
  4  3  1  0  0  0  0
  4  5  2  0  0  0  0
  5  6  1  0  0  0  0
  6  7  2  0  0  0  0
  6 27  1  0  0  0  0
  7 28  1  0  0  0  0
  8 10  1  0  0  0  0
  8  4  1  0  0  0  0
  9  8  2  0  0  0  0
 10 11  1  0  0  0  0
 11 12  1  0  0  0  0
 11 30  1  1  0  0  0
 12 13  1  0  0  0  0
 12 32  1  0  0  0  0
 13 23  1  0  0  0  0
 14 33  1  1  0  0  0
 14 13  1  0  0  0  0
 15 14  1  0  0  0  0
 15 11  1  0  0  0  0
 16 18  1  0  0  0  0
 16 14  1  0  0  0  0
 17 16  2  0  0  0  0
 18 19  1  0  0  0  0
 19 36  1  6  0  0  0
 19 23  1  0  0  0  0
 19 20  1  0  0  0  0
 20 38  1  0  0  0  0
 20 37  1  0  0  0  0
 21 40  1  0  0  0  0
 21 39  1  0  0  0  0
 21 20  1  0  0  0  0
 22 18  1  0  0  0  0
 22 21  1  0  0  0  0
 23 24  2  0  0  0  0
 25  3  1  0  0  0  0
 26  5  1  0  0  0  0
 29 10  1  0  0  0  0
 31 12  1  0  0  0  0
 34 15  1  0  0  0  0
 35 15  1  0  0  0  0
 41 22  1  0  0  0  0
 42 22  1  0  0  0  0
M  END
>  <Pose>
1

>  <Score>
-6.75

$$$$
