
 OpenBabel03232204043D

 35 38  0  0  1  0  0  0  0  0999 V2000
   14.5630  -56.2280   38.9900 B   0  0  0  0  0  0  0  0  0  0  0  0
   15.6610  -54.6850   38.7950 C   0  0  0  0  0  0  0  0  0  0  0  0
   16.6940  -54.7220   37.8910 C   0  0  0  0  0  0  0  0  0  0  0  0
   17.5230  -53.6180   37.7080 C   0  0  0  0  0  0  0  0  0  0  0  0
   17.2830  -52.5040   38.4500 C   0  0  0  0  0  0  0  0  0  0  0  0
   16.2450  -52.4730   39.3560 C   0  0  0  0  0  0  0  0  0  0  0  0
   15.4140  -53.5480   39.5540 C   0  0  0  0  0  0  0  0  0  0  0  0
   18.6040  -53.7050   36.7460 C   0  0  0  0  0  0  0  0  0  0  0  0
   19.7420  -53.9490   37.1820 O   0  0  0  0  0  0  0  0  0  0  0  0
   18.3760  -53.5240   35.3710 N   0  0  0  0  0  0  0  0  0  0  0  0
   18.7800  -54.4060   34.3490 N   0  0  0  0  0  0  0  0  0  0  0  0
   20.0580  -54.2570   33.7030 C   0  0  0  0  0  0  0  0  0  0  0  0
   20.9520  -53.3810   33.9300 O   0  0  0  0  0  0  0  0  0  0  0  0
   20.1900  -55.3010   32.7040 C   0  0  1  0  0  0  0  0  0  0  0  0
   19.1590  -56.3850   33.0760 C   0  0  2  0  0  0  0  0  0  0  0  0
   18.5800  -56.8580   31.7830 C   0  0  2  0  0  0  0  0  0  0  0  0
   19.6360  -56.3760   30.7670 C   0  0  0  0  0  0  0  0  0  0  0  0
   19.6430  -54.9390   31.3310 C   0  0  1  0  0  0  0  0  0  0  0  0
   18.1720  -54.7060   31.3950 C   0  0  0  0  0  0  0  0  0  0  0  0
   17.5070  -55.8690   31.4030 C   0  0  0  0  0  0  0  0  0  0  0  0
   18.1360  -55.5050   33.7660 C   0  0  0  0  0  0  0  0  0  0  0  0
   16.9090  -55.7490   33.7920 O   0  0  0  0  0  0  0  0  0  0  0  0
   16.8640  -55.6250   37.3080 H   0  0  0  0  0  0  0  0  0  0  0  0
   17.8890  -51.6320   38.3510 H   0  0  0  0  0  0  0  0  0  0  0  0
   16.0400  -51.5810   39.9610 H   0  0  0  0  0  0  0  0  0  0  0  0
   14.5980  -53.5790   40.2400 H   0  0  0  0  0  0  0  0  0  0  0  0
   17.8470  -52.6310   35.1120 H   0  0  0  0  0  0  0  0  0  0  0  0
   21.1930  -55.7090   32.5750 H   0  0  0  0  0  0  0  0  0  0  0  0
   19.5580  -57.1460   33.7380 H   0  0  0  0  0  0  0  0  0  0  0  0
   18.3150  -57.8810   31.7050 H   0  0  0  0  0  0  0  0  0  0  0  0
   19.2370  -56.3840   29.7450 H   0  0  0  0  0  0  0  0  0  0  0  0
   20.5980  -56.8700   30.8900 H   0  0  0  0  0  0  0  0  0  0  0  0
   20.2200  -54.2560   30.7550 H   0  0  0  0  0  0  0  0  0  0  0  0
   17.6670  -53.7360   31.4320 H   0  0  0  0  0  0  0  0  0  0  0  0
   16.5020  -56.1370   31.2120 H   0  0  0  0  0  0  0  0  0  0  0  0
  2  1  1  0  0  0  0
  2  7  1  0  0  0  0
  3  2  2  0  0  0  0
  4  3  1  0  0  0  0
  4  5  2  0  0  0  0
  5  6  1  0  0  0  0
  6  7  2  0  0  0  0
  6 25  1  0  0  0  0
  7 26  1  0  0  0  0
  8  9  2  0  0  0  0
  8  4  1  0  0  0  0
 10  8  1  0  0  0  0
 11 10  1  0  0  0  0
 12 13  2  0  0  0  0
 12 11  1  0  0  0  0
 14 28  1  6  0  0  0
 14 15  1  0  0  0  0
 14 12  1  0  0  0  0
 15 29  1  1  0  0  0
 15 21  1  0  0  0  0
 16 30  1  6  0  0  0
 16 15  1  0  0  0  0
 17 32  1  0  0  0  0
 17 18  1  0  0  0  0
 17 16  1  0  0  0  0
 18 33  1  6  0  0  0
 18 19  1  0  0  0  0
 18 14  1  0  0  0  0
 19 20  1  0  0  0  0
 19 34  1  0  0  0  0
 20 16  1  0  0  0  0
 21 22  2  0  0  0  0
 21 11  1  0  0  0  0
 23  3  1  0  0  0  0
 24  5  1  0  0  0  0
 27 10  1  0  0  0  0
 31 17  1  0  0  0  0
 35 20  1  0  0  0  0
M  END
>  <Pose>
1

>  <Score>
-5.52

$$$$
