
 OpenBabel03232204043D

 50 53  0  0  0  0  0  0  0  0999 V2000
   12.7390  -64.4220   38.2930 B   0  0  0  0  0  0  0  0  0  0  0  0
   11.5680  -62.9100   38.4050 C   0  0  0  0  0  0  0  0  0  0  0  0
   11.9710  -61.6630   37.9940 C   0  0  0  0  0  0  0  0  0  0  0  0
   11.1630  -60.5410   38.0560 C   0  0  0  0  0  0  0  0  0  0  0  0
    9.8940  -60.7260   38.5620 C   0  0  0  0  0  0  0  0  0  0  0  0
    9.4480  -61.9750   38.9900 C   0  0  0  0  0  0  0  0  0  0  0  0
   10.2930  -63.0620   38.9080 C   0  0  0  0  0  0  0  0  0  0  0  0
   11.6200  -59.2320   37.6090 C   0  0  0  0  0  0  0  0  0  0  0  0
   12.1440  -58.3650   38.3830 N   0  0  0  0  0  0  0  0  0  0  0  0
   12.5890  -57.1020   37.9830 N   0  0  0  0  0  0  0  0  0  0  0  0
   13.9410  -56.8800   37.5970 C   0  0  0  0  0  0  0  0  0  0  0  0
   14.5090  -57.6530   36.6660 N   0  0  0  0  0  4  0  0  0  0  0  0
   15.7970  -57.4940   36.2530 C   0  0  0  0  0  0  0  0  0  0  0  0
   16.4800  -56.4910   36.8470 N   0  0  0  0  0  0  0  0  0  0  0  0
   15.9640  -55.6810   37.7870 C   0  0  0  0  0  0  0  0  0  0  0  0
   14.6760  -55.9110   38.1390 N   0  0  0  0  0  0  0  0  0  0  0  0
   16.6970  -54.6450   38.3890 N   0  0  0  0  0  0  0  0  0  0  0  0
   17.9960  -54.2510   37.9150 C   0  0  0  0  0  0  0  0  0  0  0  0
   18.0480  -52.7240   38.0540 C   0  0  0  0  0  0  0  0  0  0  0  0
   16.7640  -52.1890   37.9860 O   0  0  0  0  0  0  0  0  0  0  0  0
   15.9750  -52.4840   39.0690 C   0  0  0  0  0  0  0  0  0  0  0  0
   16.1530  -53.9410   39.5160 C   0  0  0  0  0  0  0  0  0  0  0  0
   16.3750  -58.3240   35.2680 N   0  0  0  0  0  0  0  0  0  0  0  0
   15.5720  -59.2630   34.5350 C   0  0  0  0  0  0  0  0  0  0  0  0
   15.8060  -58.9850   33.0540 C   0  0  0  0  0  0  0  0  0  0  0  0
   17.1680  -59.1730   32.8330 O   0  0  0  0  0  0  0  0  0  0  0  0
   17.9400  -58.2080   33.4540 C   0  0  0  0  0  0  0  0  0  0  0  0
   17.7790  -58.2530   34.9700 C   0  0  0  0  0  0  0  0  0  0  0  0
   12.9750  -61.5110   37.5910 H   0  0  0  0  0  0  0  0  0  0  0  0
    9.2010  -59.8900   38.6410 H   0  0  0  0  0  0  0  0  0  0  0  0
    8.4540  -62.1250   39.3890 H   0  0  0  0  0  0  0  0  0  0  0  0
    9.9280  -64.0170   39.2440 H   0  0  0  0  0  0  0  0  0  0  0  0
   11.5050  -58.9870   36.5640 H   0  0  0  0  0  0  0  0  0  0  0  0
   11.9030  -56.3200   37.9750 H   0  0  0  0  0  0  0  0  0  0  0  0
   18.1850  -54.5550   36.8670 H   0  0  0  0  0  0  0  0  0  0  0  0
   18.7470  -54.6480   38.6190 H   0  0  0  0  0  0  0  0  0  0  0  0
   18.5950  -52.3540   37.1720 H   0  0  0  0  0  0  0  0  0  0  0  0
   18.5530  -52.4180   38.9770 H   0  0  0  0  0  0  0  0  0  0  0  0
   16.0630  -51.7940   39.9090 H   0  0  0  0  0  0  0  0  0  0  0  0
   14.9010  -52.4260   38.7210 H   0  0  0  0  0  0  0  0  0  0  0  0
   15.1950  -54.3880   39.7950 H   0  0  0  0  0  0  0  0  0  0  0  0
   16.8780  -53.9430   40.3850 H   0  0  0  0  0  0  0  0  0  0  0  0
   14.5030  -59.2270   34.7950 H   0  0  0  0  0  0  0  0  0  0  0  0
   16.0120  -60.2820   34.7180 H   0  0  0  0  0  0  0  0  0  0  0  0
   15.5930  -57.9150   32.8990 H   0  0  0  0  0  0  0  0  0  0  0  0
   15.2360  -59.6550   32.4080 H   0  0  0  0  0  0  0  0  0  0  0  0
   17.6100  -57.2210   33.0450 H   0  0  0  0  0  0  0  0  0  0  0  0
   18.9960  -58.4040   33.1830 H   0  0  0  0  0  0  0  0  0  0  0  0
   18.2660  -59.1930   35.3050 H   0  0  0  0  0  0  0  0  0  0  0  0
   18.2800  -57.3720   35.4010 H   0  0  0  0  0  0  0  0  0  0  0  0
  1  2  1  0  0  0  0
  2  7  1  0  0  0  0
  3  4  1  0  0  0  0
  3  2  2  0  0  0  0
  4  5  2  0  0  0  0
  5 30  1  0  0  0  0
  5  6  1  0  0  0  0
  6 31  1  0  0  0  0
  7  6  2  0  0  0  0
  7 32  1  0  0  0  0
  8  4  1  0  0  0  0
  8  9  2  0  0  0  0
 10  9  1  0  0  0  0
 11 10  1  0  0  0  0
 11 16  1  0  0  0  0
 12 11  2  0  0  0  0
 13 12  2  0  0  0  0
 13 14  1  0  0  0  0
 14 15  2  0  0  0  0
 15 16  1  0  0  0  0
 15 17  1  0  0  0  0
 17 22  1  0  0  0  0
 18 19  1  0  0  0  0
 18 17  1  0  0  0  0
 18 36  1  0  0  0  0
 19 38  1  0  0  0  0
 20 19  1  0  0  0  0
 20 21  1  0  0  0  0
 21 22  1  0  0  0  0
 21 39  1  0  0  0  0
 22 41  1  0  0  0  0
 22 42  1  0  0  0  0
 23 13  1  0  0  0  0
 24 44  1  0  0  0  0
 24 43  1  0  0  0  0
 24 23  1  0  0  0  0
 25 24  1  0  0  0  0
 26 25  1  0  0  0  0
 26 27  1  0  0  0  0
 27 28  1  0  0  0  0
 28 23  1  0  0  0  0
 28 49  1  0  0  0  0
 28 50  1  0  0  0  0
 29  3  1  0  0  0  0
 33  8  1  0  0  0  0
 34 10  1  0  0  0  0
 35 18  1  0  0  0  0
 37 19  1  0  0  0  0
 40 21  1  0  0  0  0
 45 25  1  0  0  0  0
 46 25  1  0  0  0  0
 47 27  1  0  0  0  0
 48 27  1  0  0  0  0
M  END
>  <Pose>
1

>  <Score>
-6.83

$$$$
