
 OpenBabel03232204043D

 61 64  0  0  1  0  0  0  0  0999 V2000
   19.9550  -54.0700   32.8090 B   0  0  0  0  0  0  0  0  0  0  0  0
   18.6010  -55.1200   33.6510 C   0  0  0  0  0  0  0  0  0  0  0  0
   17.9340  -56.1350   33.0350 C   0  0  0  0  0  0  0  0  0  0  0  0
   16.9480  -56.9170   33.6090 C   0  0  0  0  0  0  0  0  0  0  0  0
   16.6080  -56.6450   34.9320 C   0  0  0  0  0  0  0  0  0  0  0  0
   17.2660  -55.6220   35.5880 C   0  0  0  0  0  0  0  0  0  0  0  0
   18.2490  -54.8570   34.9850 C   0  0  0  0  0  0  0  0  0  0  0  0
   16.3170  -57.9570   32.7890 C   0  0  1  0  0  0  0  0  0  0  0  0
   17.2640  -58.9280   32.3860 N   0  0  0  0  0  0  0  0  0  0  0  0
   16.9560  -60.1750   32.9880 C   0  0  0  0  0  0  0  0  0  0  0  0
   17.6690  -61.2220   32.8990 O   0  0  0  0  0  0  0  0  0  0  0  0
   15.7050  -60.0440   33.7020 C   0  0  0  0  0  0  0  0  0  0  0  0
   15.1990  -61.0100   34.3350 O   0  0  0  0  0  0  0  0  0  0  0  0
   15.2480  -58.6790   33.5260 C   0  0  0  0  0  0  0  0  0  0  0  0
   14.1170  -58.2040   33.9980 C   0  0  0  0  0  0  0  0  0  0  0  0
   13.8260  -56.8700   33.8220 O   0  0  0  0  0  0  0  0  0  0  0  0
   13.1780  -59.0530   34.6860 C   0  0  0  0  0  0  0  0  0  0  0  0
   13.0880  -59.1510   36.0860 C   0  0  0  0  0  0  0  0  0  0  0  0
   12.0960  -59.9920   36.4030 N   0  0  0  0  0  0  0  0  0  0  0  0
   11.5710  -60.4180   35.2690 N   0  0  0  0  0  0  0  0  0  0  0  0
   12.1930  -59.8740   34.2120 C   0  0  0  0  0  0  0  0  0  0  0  0
   11.6630  -60.3600   37.7050 C   0  0  0  0  0  0  0  0  0  0  0  0
   11.4410  -59.3610   38.6430 C   0  0  0  0  0  0  0  0  0  0  0  0
   11.0100  -59.6450   39.9230 C   0  0  0  0  0  0  0  0  0  0  0  0
   10.7780  -60.9600   40.3280 C   0  0  0  0  0  0  0  0  0  0  0  0
   10.9990  -61.9560   39.3940 C   0  0  0  0  0  0  0  0  0  0  0  0
   11.4280  -61.6480   38.1280 C   0  0  0  0  0  0  0  0  0  0  0  0
   13.9770  -58.4130   37.0290 C   0  0  0  0  0  0  0  0  0  0  0  0
   18.4090  -58.7280   31.4530 C   0  0  0  0  0  0  0  0  0  0  0  0
   17.9420  -57.9770   30.2330 C   0  0  0  0  0  0  0  0  0  0  0  0
   19.0300  -57.7160   29.2400 C   0  0  0  0  0  0  0  0  0  0  0  0
   19.4110  -56.3530   29.0660 N   0  0  0  0  0  4  0  0  0  0  0  0
   19.8410  -55.6600   30.2360 C   0  0  0  0  0  0  0  0  0  0  0  0
   20.4880  -56.2520   28.0680 C   0  0  0  0  0  0  0  0  0  0  0  0
   18.2270  -56.3220   31.9830 H   0  0  0  0  0  0  0  0  0  0  0  0
   15.8440  -57.2290   35.4110 H   0  0  0  0  0  0  0  0  0  0  0  0
   16.9960  -55.4130   36.6280 H   0  0  0  0  0  0  0  0  0  0  0  0
   18.7650  -54.0530   35.4980 H   0  0  0  0  0  0  0  0  0  0  0  0
   15.8940  -57.4770   31.8690 H   0  0  0  0  0  0  0  0  0  0  0  0
   11.9520  -60.0410   33.1600 H   0  0  0  0  0  0  0  0  0  0  0  0
   11.6300  -58.3290   38.3000 H   0  0  0  0  0  0  0  0  0  0  0  0
   10.8420  -58.8410   40.6300 H   0  0  0  0  0  0  0  0  0  0  0  0
   10.4390  -61.1570   41.3480 H   0  0  0  0  0  0  0  0  0  0  0  0
   10.8150  -62.9800   39.7250 H   0  0  0  0  0  0  0  0  0  0  0  0
   11.5850  -62.4570   37.4300 H   0  0  0  0  0  0  0  0  0  0  0  0
   14.1840  -57.3840   36.6470 H   0  0  0  0  0  0  0  0  0  0  0  0
   14.9010  -58.9760   37.2530 H   0  0  0  0  0  0  0  0  0  0  0  0
   13.4500  -58.2630   38.0030 H   0  0  0  0  0  0  0  0  0  0  0  0
   19.2490  -58.2450   31.9850 H   0  0  0  0  0  0  0  0  0  0  0  0
   18.7110  -59.7520   31.0880 H   0  0  0  0  0  0  0  0  0  0  0  0
   17.2480  -58.7070   29.7130 H   0  0  0  0  0  0  0  0  0  0  0  0
   17.3040  -57.1240   30.4690 H   0  0  0  0  0  0  0  0  0  0  0  0
   18.7420  -58.1110   28.2150 H   0  0  0  0  0  0  0  0  0  0  0  0
   19.9440  -58.3200   29.5180 H   0  0  0  0  0  0  0  0  0  0  0  0
   18.6040  -55.8110   28.6330 H   0  0  0  0  0  0  0  0  0  0  0  0
   20.8600  -55.2030   30.1070 H   0  0  0  0  0  0  0  0  0  0  0  0
   19.7640  -56.2120   31.1920 H   0  0  0  0  0  0  0  0  0  0  0  0
   19.1670  -54.7640   30.3770 H   0  0  0  0  0  0  0  0  0  0  0  0
   20.1910  -55.6220   27.2140 H   0  0  0  0  0  0  0  0  0  0  0  0
   20.6890  -57.2850   27.7030 H   0  0  0  0  0  0  0  0  0  0  0  0
   21.4270  -55.9030   28.5530 H   0  0  0  0  0  0  0  0  0  0  0  0
  1  2  1  0  0  0  0
  2  7  1  0  0  0  0
  3  4  1  0  0  0  0
  3  2  2  0  0  0  0
  4  5  2  0  0  0  0
  5 36  1  0  0  0  0
  5  6  1  0  0  0  0
  6 37  1  0  0  0  0
  7 38  1  0  0  0  0
  7  6  2  0  0  0  0
  8 39  1  6  0  0  0
  8 14  1  0  0  0  0
  8  4  1  0  0  0  0
  9  8  1  0  0  0  0
  9 10  1  0  0  0  0
 10 12  1  0  0  0  0
 11 10  2  0  0  0  0
 12 13  2  0  0  0  0
 14 12  1  0  0  0  0
 14 15  2  0  0  0  0
 15 17  1  0  0  0  0
 16 15  1  0  0  0  0
 17 18  2  0  0  0  0
 18 19  1  0  0  0  0
 18 28  1  0  0  0  0
 19 22  1  0  0  0  0
 20 19  1  0  0  0  0
 21 17  1  0  0  0  0
 21 20  2  0  0  0  0
 22 27  2  0  0  0  0
 22 23  1  0  0  0  0
 23 24  2  0  0  0  0
 24 25  1  0  0  0  0
 24 42  1  0  0  0  0
 25 43  1  0  0  0  0
 26 44  1  0  0  0  0
 26 25  2  0  0  0  0
 27 26  1  0  0  0  0
 28 47  1  0  0  0  0
 28 48  1  0  0  0  0
 29 49  1  0  0  0  0
 29  9  1  0  0  0  0
 30 52  1  0  0  0  0
 30 29  1  0  0  0  0
 31 54  1  0  0  0  0
 31 30  1  0  0  0  0
 32 31  1  0  0  0  0
 32 33  1  0  0  0  0
 33 58  1  0  0  0  0
 33 57  1  0  0  0  0
 34 61  1  0  0  0  0
 34 32  1  0  0  0  0
 35  3  1  0  0  0  0
 40 21  1  0  0  0  0
 41 23  1  0  0  0  0
 45 27  1  0  0  0  0
 46 28  1  0  0  0  0
 50 29  1  0  0  0  0
 51 30  1  0  0  0  0
 53 31  1  0  0  0  0
 55 32  1  0  0  0  0
 56 33  1  0  0  0  0
 59 34  1  0  0  0  0
 60 34  1  0  0  0  0
M  END
>  <Pose>
1

>  <Score>
-6.78

$$$$
