
 OpenBabel03232204043D

 63 66  0  0  1  0  0  0  0  0999 V2000
   18.4030  -58.9610   29.0400 B   0  0  0  0  0  0  0  0  0  0  0  0
   17.1070  -59.8800   30.0950 C   0  0  0  0  0  0  0  0  0  0  0  0
   17.0030  -59.6080   31.4420 C   0  0  0  0  0  0  0  0  0  0  0  0
   16.0750  -60.2500   32.2530 C   0  0  0  0  0  0  0  0  0  0  0  0
   15.2650  -61.1780   31.6170 C   0  0  0  0  0  0  0  0  0  0  0  0
   15.3610  -61.4570   30.2710 C   0  0  0  0  0  0  0  0  0  0  0  0
   16.2890  -60.8080   29.4870 C   0  0  0  0  0  0  0  0  0  0  0  0
   15.9630  -59.9450   33.6990 C   0  0  2  0  0  0  0  0  0  0  0  0
   14.5570  -59.9330   34.0560 N   0  0  0  0  0  0  0  0  0  0  0  0
   14.0370  -58.7000   33.5810 C   0  0  0  0  0  0  0  0  0  0  0  0
   12.8530  -58.4420   33.2730 O   0  0  0  0  0  0  0  0  0  0  0  0
   15.1740  -57.7550   33.5120 C   0  0  0  0  0  0  0  0  0  0  0  0
   15.1450  -56.5580   33.1490 O   0  0  0  0  0  0  0  0  0  0  0  0
   16.3360  -58.5100   33.9610 C   0  0  0  0  0  0  0  0  0  0  0  0
   17.4050  -58.0120   34.5020 C   0  0  0  0  0  0  0  0  0  0  0  0
   18.4070  -58.9050   34.9360 O   0  0  0  0  0  0  0  0  0  0  0  0
   17.6740  -56.5950   34.7040 C   0  0  0  0  0  0  0  0  0  0  0  0
   18.3290  -55.6570   33.9790 C   0  0  0  0  0  0  0  0  0  0  0  0
   18.2230  -54.4770   34.6240 N   0  0  0  0  0  0  0  0  0  0  0  0
   17.5200  -54.6030   35.7560 C   0  0  0  0  0  0  0  0  0  0  0  0
   17.1620  -55.9230   35.8320 C   0  0  0  0  0  0  0  0  0  0  0  0
   16.3620  -56.5390   36.9330 C   0  0  0  0  0  0  0  0  0  0  0  0
   17.1950  -53.5380   36.7260 C   0  0  0  0  0  0  0  0  0  0  0  0
   16.3680  -53.7660   37.6210 O   0  0  0  0  0  0  0  0  0  0  0  0
   17.8030  -52.2990   36.6430 O   0  0  0  0  0  0  0  0  0  0  0  0
   19.1490  -52.0630   36.9860 C   0  0  0  0  0  0  0  0  0  0  0  0
   19.0990  -55.8480   32.7040 C   0  0  0  0  0  0  0  0  0  0  0  0
   13.8110  -60.9750   34.7660 C   0  0  0  0  0  0  0  0  0  0  0  0
   12.8780  -60.3740   35.7930 C   0  0  0  0  0  0  0  0  0  0  0  0
   12.6610  -61.2020   36.9340 N   0  0  0  0  0  4  0  0  0  0  0  0
   11.9480  -62.4390   36.6390 C   0  0  0  0  0  0  0  0  0  0  0  0
   12.1910  -63.3860   37.7820 C   0  0  0  0  0  0  0  0  0  0  0  0
   12.5170  -62.6690   38.9060 O   0  0  0  0  0  0  0  0  0  0  0  0
   11.7430  -61.5410   39.1090 C   0  0  0  0  0  0  0  0  0  0  0  0
   11.8690  -60.5390   37.9620 C   0  0  0  0  0  0  0  0  0  0  0  0
   17.6530  -58.8810   31.9180 H   0  0  0  0  0  0  0  0  0  0  0  0
   14.5300  -61.6940   32.2330 H   0  0  0  0  0  0  0  0  0  0  0  0
   14.7170  -62.1900   29.7880 H   0  0  0  0  0  0  0  0  0  0  0  0
   16.3740  -61.0230   28.4120 H   0  0  0  0  0  0  0  0  0  0  0  0
   16.5620  -60.6310   34.3240 H   0  0  0  0  0  0  0  0  0  0  0  0
   18.6480  -53.5700   34.2720 H   0  0  0  0  0  0  0  0  0  0  0  0
   16.7830  -56.2670   37.9230 H   0  0  0  0  0  0  0  0  0  0  0  0
   16.4300  -57.6370   36.8530 H   0  0  0  0  0  0  0  0  0  0  0  0
   15.3120  -56.2110   36.9220 H   0  0  0  0  0  0  0  0  0  0  0  0
   19.8290  -52.8710   36.6360 H   0  0  0  0  0  0  0  0  0  0  0  0
   19.2680  -51.8830   38.0880 H   0  0  0  0  0  0  0  0  0  0  0  0
   19.4370  -51.1040   36.4800 H   0  0  0  0  0  0  0  0  0  0  0  0
   18.5550  -55.4350   31.8380 H   0  0  0  0  0  0  0  0  0  0  0  0
   19.3300  -56.9130   32.5570 H   0  0  0  0  0  0  0  0  0  0  0  0
   20.0620  -55.2690   32.8690 H   0  0  0  0  0  0  0  0  0  0  0  0
   13.2130  -61.5850   34.0570 H   0  0  0  0  0  0  0  0  0  0  0  0
   14.5120  -61.6290   35.3310 H   0  0  0  0  0  0  0  0  0  0  0  0
   11.9040  -60.1280   35.2720 H   0  0  0  0  0  0  0  0  0  0  0  0
   13.2560  -59.4000   36.1480 H   0  0  0  0  0  0  0  0  0  0  0  0
   13.5710  -61.4160   37.3800 H   0  0  0  0  0  0  0  0  0  0  0  0
   10.8500  -62.1780   36.6650 H   0  0  0  0  0  0  0  0  0  0  0  0
   12.1540  -62.8460   35.6510 H   0  0  0  0  0  0  0  0  0  0  0  0
   11.3350  -64.0500   37.9960 H   0  0  0  0  0  0  0  0  0  0  0  0
   13.0600  -64.0580   37.5500 H   0  0  0  0  0  0  0  0  0  0  0  0
   12.1780  -61.0310   40.0160 H   0  0  0  0  0  0  0  0  0  0  0  0
   10.6830  -61.7660   39.3430 H   0  0  0  0  0  0  0  0  0  0  0  0
   12.3000  -59.5910   38.2870 H   0  0  0  0  0  0  0  0  0  0  0  0
   10.8330  -60.3880   37.5630 H   0  0  0  0  0  0  0  0  0  0  0  0
  1  2  1  0  0  0  0
  2  3  1  0  0  0  0
  3 36  1  0  0  0  0
  3  4  2  0  0  0  0
  4  8  1  0  0  0  0
  5 37  1  0  0  0  0
  5  4  1  0  0  0  0
  6  5  2  0  0  0  0
  7  2  2  0  0  0  0
  7  6  1  0  0  0  0
  8 14  1  0  0  0  0
  8  9  1  0  0  0  0
  8 40  1  1  0  0  0
  9 28  1  0  0  0  0
 10  9  1  0  0  0  0
 11 10  2  0  0  0  0
 12 10  1  0  0  0  0
 12 14  1  0  0  0  0
 13 12  2  0  0  0  0
 14 15  2  0  0  0  0
 15 17  1  0  0  0  0
 15 16  1  0  0  0  0
 17 21  1  0  0  0  0
 18 19  1  0  0  0  0
 18 17  2  0  0  0  0
 19 20  1  0  0  0  0
 20 21  2  0  0  0  0
 20 23  1  0  0  0  0
 21 22  1  0  0  0  0
 22 42  1  0  0  0  0
 23 24  2  0  0  0  0
 25 23  1  0  0  0  0
 25 26  1  0  0  0  0
 26 46  1  0  0  0  0
 27 50  1  0  0  0  0
 27 18  1  0  0  0  0
 28 52  1  0  0  0  0
 28 29  1  0  0  0  0
 29 54  1  0  0  0  0
 29 30  1  0  0  0  0
 30 55  1  0  0  0  0
 30 35  1  0  0  0  0
 31 56  1  0  0  0  0
 31 30  1  0  0  0  0
 31 32  1  0  0  0  0
 32 58  1  0  0  0  0
 32 33  1  0  0  0  0
 33 34  1  0  0  0  0
 34 61  1  0  0  0  0
 34 60  1  0  0  0  0
 35 62  1  0  0  0  0
 35 34  1  0  0  0  0
 38  6  1  0  0  0  0
 39  7  1  0  0  0  0
 41 19  1  0  0  0  0
 43 22  1  0  0  0  0
 44 22  1  0  0  0  0
 45 26  1  0  0  0  0
 47 26  1  0  0  0  0
 48 27  1  0  0  0  0
 49 27  1  0  0  0  0
 51 28  1  0  0  0  0
 53 29  1  0  0  0  0
 57 31  1  0  0  0  0
 59 32  1  0  0  0  0
 63 35  1  0  0  0  0
M  END
>  <Pose>
1

>  <Score>
-7.06

$$$$
