
 OpenBabel03232204043D

 56 59  0  0  1  0  0  0  0  0999 V2000
   14.0560  -63.2620   30.6450 B   0  0  0  0  0  0  0  0  0  0  0  0
   15.0370  -61.7810   29.9710 C   0  0  0  0  0  0  0  0  0  0  0  0
   15.9610  -61.0830   30.7370 C   0  0  0  0  0  0  0  0  0  0  0  0
   16.6650  -60.0090   30.2420 C   0  0  0  0  0  0  0  0  0  0  0  0
   16.4320  -59.6300   28.9540 C   0  0  0  0  0  0  0  0  0  0  0  0
   15.5020  -60.3270   28.1710 C   0  0  0  0  0  0  0  0  0  0  0  0
   14.7990  -61.4010   28.6670 C   0  0  0  0  0  0  0  0  0  0  0  0
   17.6450  -59.2980   31.1020 C   0  0  1  0  0  0  0  0  0  0  0  0
   18.1370  -58.1010   30.4400 N   0  0  0  0  0  0  0  0  0  0  0  0
   17.2880  -57.0120   30.8580 C   0  0  0  0  0  0  0  0  0  0  0  0
   17.1910  -55.9120   30.2610 O   0  0  0  0  0  0  0  0  0  0  0  0
   16.6070  -57.4430   32.0600 C   0  0  0  0  0  0  0  0  0  0  0  0
   15.7640  -56.7990   32.7600 O   0  0  0  0  0  0  0  0  0  0  0  0
   17.0560  -58.7970   32.3580 C   0  0  0  0  0  0  0  0  0  0  0  0
   16.9060  -59.4160   33.5200 C   0  0  0  0  0  0  0  0  0  0  0  0
   17.3810  -60.7450   33.5280 O   0  0  0  0  0  0  0  0  0  0  0  0
   16.3170  -58.8230   34.7080 C   0  0  0  0  0  0  0  0  0  0  0  0
   16.7950  -57.7130   35.3640 C   0  0  0  0  0  0  0  0  0  0  0  0
   16.1720  -57.1730   36.4720 C   0  0  0  0  0  0  0  0  0  0  0  0
   15.0220  -57.7400   36.9740 C   0  0  0  0  0  0  0  0  0  0  0  0
   14.5280  -58.8550   36.3280 C   0  0  0  0  0  0  0  0  0  0  0  0
   15.1580  -59.3880   35.2210 C   0  0  0  0  0  0  0  0  0  0  0  0
   14.2070  -57.0670   38.3890 Cl  0  0  0  0  0  0  0  0  0  0  0  0
   19.1910  -58.0550   29.4780 C   0  0  0  0  0  0  0  0  0  0  0  0
   20.4220  -57.3090   29.7930 C   0  0  0  0  0  0  0  0  0  0  0  0
   20.3780  -55.8370   29.9700 C   0  0  0  0  0  0  0  0  0  0  0  0
   21.4870  -55.0680   29.5160 N   0  0  0  0  0  4  0  0  0  0  0  0
   22.6650  -55.8880   29.3930 C   0  0  0  0  0  0  0  0  0  0  0  0
   22.8530  -56.4630   28.0040 C   0  0  0  0  0  0  0  0  0  0  0  0
   23.0940  -55.4350   27.0890 O   0  0  0  0  0  0  0  0  0  0  0  0
   22.5500  -54.2310   27.5390 C   0  0  0  0  0  0  0  0  0  0  0  0
   21.2090  -54.5490   28.1410 C   0  0  0  0  0  0  0  0  0  0  0  0
   16.1280  -61.4010   31.7520 H   0  0  0  0  0  0  0  0  0  0  0  0
   16.9540  -58.8020   28.5280 H   0  0  0  0  0  0  0  0  0  0  0  0
   15.3160  -60.0350   27.1570 H   0  0  0  0  0  0  0  0  0  0  0  0
   14.0730  -61.9470   28.0600 H   0  0  0  0  0  0  0  0  0  0  0  0
   18.5180  -59.9620   31.2670 H   0  0  0  0  0  0  0  0  0  0  0  0
   17.7040  -57.2480   35.0210 H   0  0  0  0  0  0  0  0  0  0  0  0
   16.5510  -56.2990   36.9850 H   0  0  0  0  0  0  0  0  0  0  0  0
   13.6230  -59.2870   36.7390 H   0  0  0  0  0  0  0  0  0  0  0  0
   14.7590  -60.2690   34.7210 H   0  0  0  0  0  0  0  0  0  0  0  0
   18.7290  -57.5960   28.5410 H   0  0  0  0  0  0  0  0  0  0  0  0
   19.4550  -59.1390   29.2070 H   0  0  0  0  0  0  0  0  0  0  0  0
   21.2550  -57.5670   29.0340 H   0  0  0  0  0  0  0  0  0  0  0  0
   20.8740  -57.7200   30.7710 H   0  0  0  0  0  0  0  0  0  0  0  0
   20.2230  -55.5630   31.0520 H   0  0  0  0  0  0  0  0  0  0  0  0
   19.4490  -55.4100   29.4600 H   0  0  0  0  0  0  0  0  0  0  0  0
   21.6340  -54.2200   30.0580 H   0  0  0  0  0  0  0  0  0  0  0  0
   22.6190  -56.7300   30.1150 H   0  0  0  0  0  0  0  0  0  0  0  0
   23.5630  -55.2930   29.6360 H   0  0  0  0  0  0  0  0  0  0  0  0
   21.9640  -57.0690   27.7380 H   0  0  0  0  0  0  0  0  0  0  0  0
   23.7200  -57.1250   28.0240 H   0  0  0  0  0  0  0  0  0  0  0  0
   23.2410  -53.8080   28.2860 H   0  0  0  0  0  0  0  0  0  0  0  0
   22.4710  -53.5430   26.6690 H   0  0  0  0  0  0  0  0  0  0  0  0
   20.7000  -55.3610   27.5820 H   0  0  0  0  0  0  0  0  0  0  0  0
   20.5980  -53.6320   28.2370 H   0  0  0  0  0  0  0  0  0  0  0  0
  2  1  1  0  0  0  0
  2  3  1  0  0  0  0
  3 33  1  0  0  0  0
  4  3  2  0  0  0  0
  4  8  1  0  0  0  0
  5  4  1  0  0  0  0
  6  7  1  0  0  0  0
  6  5  2  0  0  0  0
  7  2  2  0  0  0  0
  8 37  1  1  0  0  0
  8 14  1  0  0  0  0
  9 10  1  0  0  0  0
  9  8  1  0  0  0  0
 10 12  1  0  0  0  0
 11 10  2  0  0  0  0
 12 14  1  0  0  0  0
 12 13  2  0  0  0  0
 14 15  2  0  0  0  0
 15 16  1  0  0  0  0
 15 17  1  0  0  0  0
 17 22  2  0  0  0  0
 17 18  1  0  0  0  0
 18 19  2  0  0  0  0
 19 20  1  0  0  0  0
 19 39  1  0  0  0  0
 20 23  1  0  0  0  0
 21 40  1  0  0  0  0
 21 20  2  0  0  0  0
 22 21  1  0  0  0  0
 24 25  1  0  0  0  0
 24  9  1  0  0  0  0
 25 26  1  0  0  0  0
 25 45  1  0  0  0  0
 26 46  1  0  0  0  0
 27 26  1  0  0  0  0
 27 48  1  0  0  0  0
 28 27  1  0  0  0  0
 28 50  1  0  0  0  0
 28 49  1  0  0  0  0
 29 52  1  0  0  0  0
 29 28  1  0  0  0  0
 30 31  1  0  0  0  0
 30 29  1  0  0  0  0
 31 32  1  0  0  0  0
 31 53  1  0  0  0  0
 32 56  1  0  0  0  0
 32 27  1  0  0  0  0
 34  5  1  0  0  0  0
 35  6  1  0  0  0  0
 36  7  1  0  0  0  0
 38 18  1  0  0  0  0
 41 22  1  0  0  0  0
 42 24  1  0  0  0  0
 43 24  1  0  0  0  0
 44 25  1  0  0  0  0
 47 26  1  0  0  0  0
 51 29  1  0  0  0  0
 54 31  1  0  0  0  0
 55 32  1  0  0  0  0
M  END
>  <Pose>
1

>  <Score>
-6.53

$$$$
