
 OpenBabel03232204043D

 62 66  0  0  1  0  0  0  0  0999 V2000
   12.9300  -59.4510   37.9600 B   0  0  0  0  0  0  0  0  0  0  0  0
   13.5020  -58.8620   36.2300 C   0  0  0  0  0  0  0  0  0  0  0  0
   14.8040  -58.4970   36.0060 C   0  0  0  0  0  0  0  0  0  0  0  0
   15.2780  -58.0550   34.7540 C   0  0  0  0  0  0  0  0  0  0  0  0
   14.3030  -58.0300   33.7820 C   0  0  0  0  0  0  0  0  0  0  0  0
   12.9880  -58.3910   33.9840 C   0  0  0  0  0  0  0  0  0  0  0  0
   12.5730  -58.8160   35.2260 C   0  0  0  0  0  0  0  0  0  0  0  0
   16.6590  -57.7070   34.6110 C   0  0  2  0  0  0  0  0  0  0  0  0
   17.1110  -56.3830   34.8650 N   0  0  0  0  0  0  0  0  0  0  0  0
   18.5300  -56.4350   34.4990 C   0  0  0  0  0  0  0  0  0  0  0  0
   19.4330  -55.7220   34.9640 O   0  0  0  0  0  0  0  0  0  0  0  0
   18.6530  -57.4900   33.4800 C   0  0  0  0  0  0  0  0  0  0  0  0
   19.6850  -57.8720   32.8830 O   0  0  0  0  0  0  0  0  0  0  0  0
   17.3010  -58.0140   33.2980 C   0  0  0  0  0  0  0  0  0  0  0  0
   16.8090  -58.5620   32.2180 C   0  0  0  0  0  0  0  0  0  0  0  0
   15.4490  -58.9380   32.2500 O   0  0  0  0  0  0  0  0  0  0  0  0
   17.5990  -58.8000   31.0180 C   0  0  0  0  0  0  0  0  0  0  0  0
   18.2380  -57.9640   30.1880 N   0  0  0  0  0  0  0  0  0  0  0  0
   18.7940  -58.6570   29.1910 C   0  0  0  0  0  0  0  0  0  0  0  0
   18.4970  -59.9680   29.3970 N   0  0  0  0  0  0  0  0  0  0  0  0
   17.7650  -60.0980   30.5110 C   0  0  0  0  0  0  0  0  0  0  0  0
   17.2330  -61.3630   31.0920 C   0  0  0  0  0  0  0  0  0  0  0  0
   19.5350  -58.0340   28.1900 C   0  0  0  0  0  0  0  0  0  0  0  0
   19.6760  -56.6630   28.2710 C   0  0  0  0  0  0  0  0  0  0  0  0
   19.0900  -55.9750   29.3180 C   0  0  0  0  0  0  0  0  0  0  0  0
   18.3620  -56.6110   30.2930 C   0  0  0  0  0  0  0  0  0  0  0  0
   20.1270  -58.8550   27.1050 C   0  0  0  0  0  0  0  0  0  0  0  0
   16.4970  -55.1810   35.4010 C   0  0  0  0  0  0  0  0  0  0  0  0
   16.7740  -54.9130   36.8400 C   0  0  0  0  0  0  0  0  0  0  0  0
   17.1450  -53.5360   37.0960 N   0  0  0  0  0  4  0  0  0  0  0  0
   16.9470  -53.1840   38.4850 C   0  0  0  0  0  0  0  0  0  0  0  0
   18.0250  -53.8540   39.3440 C   0  0  0  0  0  0  0  0  0  0  0  0
   19.2360  -53.2700   38.9570 O   0  0  0  0  0  0  0  0  0  0  0  0
   19.5030  -53.7700   37.6660 C   0  0  0  0  0  0  0  0  0  0  0  0
   18.4990  -53.2590   36.6590 C   0  0  0  0  0  0  0  0  0  0  0  0
   15.4970  -58.5560   36.8510 H   0  0  0  0  0  0  0  0  0  0  0  0
   14.5730  -57.7250   32.8040 H   0  0  0  0  0  0  0  0  0  0  0  0
   12.2520  -58.3560   33.1960 H   0  0  0  0  0  0  0  0  0  0  0  0
   11.5600  -59.1100   35.4390 H   0  0  0  0  0  0  0  0  0  0  0  0
   17.2570  -58.3580   35.3380 H   0  0  0  0  0  0  0  0  0  0  0  0
   16.2120  -61.5260   30.6920 H   0  0  0  0  0  0  0  0  0  0  0  0
   17.1670  -61.2280   32.1790 H   0  0  0  0  0  0  0  0  0  0  0  0
   17.9050  -62.2170   30.8220 H   0  0  0  0  0  0  0  0  0  0  0  0
   20.2540  -56.1430   27.4990 H   0  0  0  0  0  0  0  0  0  0  0  0
   19.1960  -54.9020   29.3890 H   0  0  0  0  0  0  0  0  0  0  0  0
   17.9000  -56.0890   31.1130 H   0  0  0  0  0  0  0  0  0  0  0  0
   20.5610  -58.1860   26.3330 H   0  0  0  0  0  0  0  0  0  0  0  0
   19.3250  -59.4820   26.6390 H   0  0  0  0  0  0  0  0  0  0  0  0
   20.9290  -59.5140   27.4490 H   0  0  0  0  0  0  0  0  0  0  0  0
   16.9000  -54.3210   34.8190 H   0  0  0  0  0  0  0  0  0  0  0  0
   15.3990  -55.1810   35.1710 H   0  0  0  0  0  0  0  0  0  0  0  0
   15.7790  -55.0800   37.3680 H   0  0  0  0  0  0  0  0  0  0  0  0
   17.4770  -55.5420   37.3530 H   0  0  0  0  0  0  0  0  0  0  0  0
   16.5180  -52.9050   36.5390 H   0  0  0  0  0  0  0  0  0  0  0  0
   15.9880  -53.6390   38.7980 H   0  0  0  0  0  0  0  0  0  0  0  0
   16.8880  -52.1090   38.6520 H   0  0  0  0  0  0  0  0  0  0  0  0
   17.8020  -53.7320   40.4070 H   0  0  0  0  0  0  0  0  0  0  0  0
   18.0820  -54.9130   39.0430 H   0  0  0  0  0  0  0  0  0  0  0  0
   19.3540  -54.8750   37.7310 H   0  0  0  0  0  0  0  0  0  0  0  0
   20.5110  -53.5250   37.3300 H   0  0  0  0  0  0  0  0  0  0  0  0
   18.6620  -53.8370   35.7260 H   0  0  0  0  0  0  0  0  0  0  0  0
   18.6470  -52.1910   36.4070 H   0  0  0  0  0  0  0  0  0  0  0  0
  2  1  1  0  0  0  0
  3  2  1  0  0  0  0
  3 36  1  0  0  0  0
  4  3  2  0  0  0  0
  5  6  2  0  0  0  0
  5  4  1  0  0  0  0
  6  7  1  0  0  0  0
  7 39  1  0  0  0  0
  7  2  2  0  0  0  0
  8  4  1  0  0  0  0
  8  9  1  0  0  0  0
  8 40  1  1  0  0  0
  9 28  1  0  0  0  0
 10  9  1  0  0  0  0
 10 11  2  0  0  0  0
 12 10  1  0  0  0  0
 13 12  2  0  0  0  0
 14 12  1  0  0  0  0
 14  8  1  0  0  0  0
 15 16  1  0  0  0  0
 15 14  2  0  0  0  0
 17 15  1  0  0  0  0
 18 26  1  0  0  0  0
 18 17  1  0  0  0  0
 19 20  2  0  0  0  0
 19 18  1  0  0  0  0
 20 21  1  0  0  0  0
 21 17  2  0  0  0  0
 21 22  1  0  0  0  0
 22 42  1  0  0  0  0
 23 24  2  0  0  0  0
 23 19  1  0  0  0  0
 24 25  1  0  0  0  0
 25 45  1  0  0  0  0
 25 26  2  0  0  0  0
 26 46  1  0  0  0  0
 27 49  1  0  0  0  0
 27 23  1  0  0  0  0
 28 29  1  0  0  0  0
 29 30  1  0  0  0  0
 29 53  1  0  0  0  0
 29 52  1  0  0  0  0
 30 31  1  0  0  0  0
 31 56  1  0  0  0  0
 31 55  1  0  0  0  0
 31 32  1  0  0  0  0
 32 57  1  0  0  0  0
 33 32  1  0  0  0  0
 34 59  1  0  0  0  0
 34 33  1  0  0  0  0
 35 30  1  0  0  0  0
 35 34  1  0  0  0  0
 37  5  1  0  0  0  0
 38  6  1  0  0  0  0
 41 22  1  0  0  0  0
 43 22  1  0  0  0  0
 44 24  1  0  0  0  0
 47 27  1  0  0  0  0
 48 27  1  0  0  0  0
 50 28  1  0  0  0  0
 51 28  1  0  0  0  0
 54 30  1  0  0  0  0
 58 32  1  0  0  0  0
 60 34  1  0  0  0  0
 61 35  1  0  0  0  0
 62 35  1  0  0  0  0
M  END
>  <Pose>
1

>  <Score>
-6.07

$$$$
