
 OpenBabel03232204043D

 57 60  0  0  1  0  0  0  0  0999 V2000
   17.3150  -52.2980   37.8230 B   0  0  0  0  0  0  0  0  0  0  0  0
   18.0530  -53.4780   36.5300 C   0  0  0  0  0  0  0  0  0  0  0  0
   17.2070  -54.1090   35.6180 C   0  0  0  0  0  0  0  0  0  0  0  0
   17.7050  -54.9550   34.6850 C   0  0  0  0  0  0  0  0  0  0  0  0
   19.0860  -55.1750   34.6670 C   0  0  0  0  0  0  0  0  0  0  0  0
   19.9100  -54.5570   35.5600 C   0  0  0  0  0  0  0  0  0  0  0  0
   19.4240  -53.6920   36.5160 C   0  0  0  0  0  0  0  0  0  0  0  0
   16.8910  -55.6550   33.6840 C   0  0  2  0  0  0  0  0  0  0  0  0
   16.6280  -57.0490   33.9800 N   0  0  0  0  0  0  0  0  0  0  0  0
   16.2730  -57.6380   32.7220 C   0  0  0  0  0  0  0  0  0  0  0  0
   15.5760  -58.6500   32.5260 O   0  0  0  0  0  0  0  0  0  0  0  0
   16.8900  -56.8220   31.6830 C   0  0  0  0  0  0  0  0  0  0  0  0
   16.8640  -56.9380   30.4210 O   0  0  0  0  0  0  0  0  0  0  0  0
   17.6050  -55.7590   32.3730 C   0  0  0  0  0  0  0  0  0  0  0  0
   18.6080  -55.0570   31.8850 C   0  0  0  0  0  0  0  0  0  0  0  0
   19.1010  -54.0350   32.7080 O   0  0  0  0  0  0  0  0  0  0  0  0
   19.2280  -55.2690   30.5850 C   0  0  0  0  0  0  0  0  0  0  0  0
   19.6930  -56.4210   30.0790 N   0  0  0  0  0  0  0  0  0  0  0  0
   20.1630  -56.2400   28.8180 C   0  0  0  0  0  0  0  0  0  0  0  0
   19.9720  -54.9170   28.5590 N   0  0  0  0  0  0  0  0  0  0  0  0
   19.4160  -54.3010   29.5880 C   0  0  0  0  0  0  0  0  0  0  0  0
   19.0200  -52.8890   29.7850 C   0  0  0  0  0  0  0  0  0  0  0  0
   20.7140  -57.2650   28.0650 C   0  0  0  0  0  0  0  0  0  0  0  0
   20.8010  -58.5350   28.5970 C   0  0  0  0  0  0  0  0  0  0  0  0
   20.3180  -58.7110   29.8890 C   0  0  0  0  0  0  0  0  0  0  0  0
   19.7840  -57.6810   30.5990 C   0  0  0  0  0  0  0  0  0  0  0  0
   16.6870  -57.7330   35.2740 C   0  0  0  0  0  0  0  0  0  0  0  0
   15.8320  -57.1090   36.3150 C   0  0  0  0  0  0  0  0  0  0  0  0
   14.5220  -57.7160   36.6070 C   0  0  0  0  0  0  0  0  0  0  0  0
   13.5520  -56.8780   37.2220 N   0  0  0  0  0  4  0  0  0  0  0  0
   14.1870  -56.0050   38.1800 C   0  0  0  0  0  0  0  0  0  0  0  0
   12.6150  -57.7100   38.0000 C   0  0  0  0  0  0  0  0  0  0  0  0
   16.1650  -53.9030   35.6890 H   0  0  0  0  0  0  0  0  0  0  0  0
   19.4950  -55.8490   33.9270 H   0  0  0  0  0  0  0  0  0  0  0  0
   20.9940  -54.7240   35.5500 H   0  0  0  0  0  0  0  0  0  0  0  0
   20.0830  -53.1910   37.2380 H   0  0  0  0  0  0  0  0  0  0  0  0
   15.9310  -55.1700   33.5130 H   0  0  0  0  0  0  0  0  0  0  0  0
   19.5520  -52.2970   29.0050 H   0  0  0  0  0  0  0  0  0  0  0  0
   19.4060  -52.5030   30.7580 H   0  0  0  0  0  0  0  0  0  0  0  0
   17.9380  -52.7140   29.6810 H   0  0  0  0  0  0  0  0  0  0  0  0
   21.0740  -57.0670   27.0660 H   0  0  0  0  0  0  0  0  0  0  0  0
   21.2180  -59.3780   28.0620 H   0  0  0  0  0  0  0  0  0  0  0  0
   20.3760  -59.7110   30.3340 H   0  0  0  0  0  0  0  0  0  0  0  0
   19.4050  -57.7970   31.6240 H   0  0  0  0  0  0  0  0  0  0  0  0
   16.5130  -58.8210   35.1370 H   0  0  0  0  0  0  0  0  0  0  0  0
   17.7330  -57.6530   35.6310 H   0  0  0  0  0  0  0  0  0  0  0  0
   16.3880  -56.9370   37.2720 H   0  0  0  0  0  0  0  0  0  0  0  0
   15.6270  -56.0540   35.9570 H   0  0  0  0  0  0  0  0  0  0  0  0
   14.0930  -58.0590   35.6250 H   0  0  0  0  0  0  0  0  0  0  0  0
   14.6600  -58.6780   37.1830 H   0  0  0  0  0  0  0  0  0  0  0  0
   12.9360  -56.3670   36.5540 H   0  0  0  0  0  0  0  0  0  0  0  0
   13.8270  -56.1530   39.2190 H   0  0  0  0  0  0  0  0  0  0  0  0
   15.2720  -56.2310   38.1800 H   0  0  0  0  0  0  0  0  0  0  0  0
   14.0980  -54.9350   37.9150 H   0  0  0  0  0  0  0  0  0  0  0  0
   12.0450  -58.3850   37.3220 H   0  0  0  0  0  0  0  0  0  0  0  0
   13.1820  -58.2760   38.7790 H   0  0  0  0  0  0  0  0  0  0  0  0
   11.8620  -57.0870   38.5170 H   0  0  0  0  0  0  0  0  0  0  0  0
  2  1  1  0  0  0  0
  3 33  1  0  0  0  0
  3  2  2  0  0  0  0
  4  3  1  0  0  0  0
  5  4  2  0  0  0  0
  5  6  1  0  0  0  0
  6  7  2  0  0  0  0
  7  2  1  0  0  0  0
  7 36  1  0  0  0  0
  8 37  1  6  0  0  0
  8  9  1  0  0  0  0
  8  4  1  0  0  0  0
  9 27  1  0  0  0  0
 10  9  1  0  0  0  0
 11 10  2  0  0  0  0
 12 14  1  0  0  0  0
 12 10  1  0  0  0  0
 13 12  2  0  0  0  0
 14  8  1  0  0  0  0
 15 14  2  0  0  0  0
 15 16  1  0  0  0  0
 17 15  1  0  0  0  0
 18 17  1  0  0  0  0
 18 26  1  0  0  0  0
 19 18  1  0  0  0  0
 20 19  2  0  0  0  0
 20 21  1  0  0  0  0
 21 22  1  0  0  0  0
 21 17  2  0  0  0  0
 22 39  1  0  0  0  0
 23 24  2  0  0  0  0
 23 19  1  0  0  0  0
 24 25  1  0  0  0  0
 25 43  1  0  0  0  0
 25 26  2  0  0  0  0
 26 44  1  0  0  0  0
 27 46  1  0  0  0  0
 27 28  1  0  0  0  0
 28 29  1  0  0  0  0
 28 47  1  0  0  0  0
 29 50  1  0  0  0  0
 29 30  1  0  0  0  0
 30 32  1  0  0  0  0
 30 31  1  0  0  0  0
 31 52  1  0  0  0  0
 32 57  1  0  0  0  0
 32 56  1  0  0  0  0
 34  5  1  0  0  0  0
 35  6  1  0  0  0  0
 38 22  1  0  0  0  0
 40 22  1  0  0  0  0
 41 23  1  0  0  0  0
 42 24  1  0  0  0  0
 45 27  1  0  0  0  0
 48 28  1  0  0  0  0
 49 29  1  0  0  0  0
 51 30  1  0  0  0  0
 53 31  1  0  0  0  0
 54 31  1  0  0  0  0
 55 32  1  0  0  0  0
M  END
>  <Pose>
1

>  <Score>
-5.61

$$$$
