
 OpenBabel03232204043D

 53 56  0  0  1  0  0  0  0  0999 V2000
   18.6510  -52.3730   37.4910 B   0  0  0  0  0  0  0  0  0  0  0  0
   18.7070  -53.6640   36.0740 C   0  0  0  0  0  0  0  0  0  0  0  0
   17.7580  -54.6700   35.9740 C   0  0  0  0  0  0  0  0  0  0  0  0
   17.7710  -55.6130   34.9700 C   0  0  0  0  0  0  0  0  0  0  0  0
   18.7840  -55.5320   34.0330 C   0  0  0  0  0  0  0  0  0  0  0  0
   19.7480  -54.5240   34.1190 C   0  0  0  0  0  0  0  0  0  0  0  0
   19.7160  -53.5880   35.1360 C   0  0  0  0  0  0  0  0  0  0  0  0
   16.7220  -56.6740   34.9130 C   0  0  2  0  0  0  0  0  0  0  0  0
   16.7120  -57.4720   36.1300 N   0  0  0  0  0  0  0  0  0  0  0  0
   17.8910  -58.2990   35.9900 C   0  0  0  0  0  0  0  0  0  0  0  0
   18.5460  -58.8250   36.9150 O   0  0  0  0  0  0  0  0  0  0  0  0
   18.2080  -58.4260   34.5740 C   0  0  0  0  0  0  0  0  0  0  0  0
   19.1350  -59.0400   33.9840 O   0  0  0  0  0  0  0  0  0  0  0  0
   17.1860  -57.6550   33.8660 C   0  0  0  0  0  0  0  0  0  0  0  0
   16.7790  -57.7540   32.6330 C   0  0  0  0  0  0  0  0  0  0  0  0
   15.7920  -56.8500   32.1860 O   0  0  0  0  0  0  0  0  0  0  0  0
   17.3270  -58.7670   31.7500 C   0  0  0  0  0  0  0  0  0  0  0  0
   17.0750  -60.0430   31.8760 O   0  0  0  0  0  0  0  0  0  0  0  0
   17.6910  -60.7390   30.9600 C   0  0  0  0  0  0  0  0  0  0  0  0
   18.3960  -59.8780   30.1760 C   0  0  0  0  0  0  0  0  0  0  0  0
   18.1660  -58.5950   30.6840 C   0  0  0  0  0  0  0  0  0  0  0  0
   15.8120  -57.4880   37.2530 C   0  0  0  0  0  0  0  0  0  0  0  0
   14.3610  -57.2930   36.8770 C   0  0  0  0  0  0  0  0  0  0  0  0
   13.6800  -58.6030   36.8320 C   0  0  0  0  0  0  0  0  0  0  0  0
   12.2780  -58.5780   37.1820 N   0  0  0  0  0  4  0  0  0  0  0  0
   11.5210  -59.6070   36.5070 C   0  0  0  0  0  0  0  0  0  0  0  0
   11.3140  -60.8510   37.2950 C   0  0  0  0  0  0  0  0  0  0  0  0
   11.0140  -60.6680   38.6290 O   0  0  0  0  0  0  0  0  0  0  0  0
   11.8790  -59.7990   39.2810 C   0  0  0  0  0  0  0  0  0  0  0  0
   11.9930  -58.4740   38.5720 C   0  0  0  0  0  0  0  0  0  0  0  0
   16.9650  -54.7260   36.7160 H   0  0  0  0  0  0  0  0  0  0  0  0
   18.8050  -56.2640   33.2420 H   0  0  0  0  0  0  0  0  0  0  0  0
   20.5280  -54.4740   33.3850 H   0  0  0  0  0  0  0  0  0  0  0  0
   20.4500  -52.7970   35.2260 H   0  0  0  0  0  0  0  0  0  0  0  0
   15.7560  -56.3050   34.5930 H   0  0  0  0  0  0  0  0  0  0  0  0
   17.6260  -61.8260   30.8710 H   0  0  0  0  0  0  0  0  0  0  0  0
   19.0100  -60.1300   29.3330 H   0  0  0  0  0  0  0  0  0  0  0  0
   18.6040  -57.7030   30.2710 H   0  0  0  0  0  0  0  0  0  0  0  0
   15.8770  -58.4960   37.7630 H   0  0  0  0  0  0  0  0  0  0  0  0
   16.1260  -56.7760   38.0540 H   0  0  0  0  0  0  0  0  0  0  0  0
   14.3180  -56.8390   35.8600 H   0  0  0  0  0  0  0  0  0  0  0  0
   13.9680  -56.5980   37.6520 H   0  0  0  0  0  0  0  0  0  0  0  0
   14.1330  -59.3500   37.5340 H   0  0  0  0  0  0  0  0  0  0  0  0
   13.7940  -59.0330   35.8170 H   0  0  0  0  0  0  0  0  0  0  0  0
   11.9240  -57.6670   36.7470 H   0  0  0  0  0  0  0  0  0  0  0  0
   10.5260  -59.2260   36.1780 H   0  0  0  0  0  0  0  0  0  0  0  0
   12.0660  -59.8690   35.5750 H   0  0  0  0  0  0  0  0  0  0  0  0
   10.4200  -61.3820   36.8490 H   0  0  0  0  0  0  0  0  0  0  0  0
   12.1450  -61.6040   37.1560 H   0  0  0  0  0  0  0  0  0  0  0  0
   11.4140  -59.5840   40.2780 H   0  0  0  0  0  0  0  0  0  0  0  0
   12.8710  -60.2100   39.4810 H   0  0  0  0  0  0  0  0  0  0  0  0
   10.9810  -57.9820   38.7080 H   0  0  0  0  0  0  0  0  0  0  0  0
   12.6910  -57.8250   39.0920 H   0  0  0  0  0  0  0  0  0  0  0  0
  2  1  1  0  0  0  0
  3  2  1  0  0  0  0
  3 31  1  0  0  0  0
  4  3  2  0  0  0  0
  5  6  2  0  0  0  0
  5  4  1  0  0  0  0
  6  7  1  0  0  0  0
  7 34  1  0  0  0  0
  7  2  2  0  0  0  0
  8 35  1  6  0  0  0
  8  4  1  0  0  0  0
  8  9  1  0  0  0  0
  9 22  1  0  0  0  0
 10  9  1  0  0  0  0
 10 11  2  0  0  0  0
 12 10  1  0  0  0  0
 13 12  2  0  0  0  0
 14 12  1  0  0  0  0
 14  8  1  0  0  0  0
 15 14  2  0  0  0  0
 16 15  1  0  0  0  0
 17 18  1  0  0  0  0
 17 15  1  0  0  0  0
 19 18  1  0  0  0  0
 20 21  1  0  0  0  0
 20 19  2  0  0  0  0
 21 17  2  0  0  0  0
 22 39  1  0  0  0  0
 22 40  1  0  0  0  0
 23 22  1  0  0  0  0
 23 42  1  0  0  0  0
 24 23  1  0  0  0  0
 24 25  1  0  0  0  0
 24 43  1  0  0  0  0
 25 30  1  0  0  0  0
 26 25  1  0  0  0  0
 26 27  1  0  0  0  0
 27 28  1  0  0  0  0
 28 29  1  0  0  0  0
 29 51  1  0  0  0  0
 29 50  1  0  0  0  0
 30 52  1  0  0  0  0
 30 53  1  0  0  0  0
 30 29  1  0  0  0  0
 32  5  1  0  0  0  0
 33  6  1  0  0  0  0
 36 19  1  0  0  0  0
 37 20  1  0  0  0  0
 38 21  1  0  0  0  0
 41 23  1  0  0  0  0
 44 24  1  0  0  0  0
 45 25  1  0  0  0  0
 46 26  1  0  0  0  0
 47 26  1  0  0  0  0
 48 27  1  0  0  0  0
 49 27  1  0  0  0  0
M  END
>  <Pose>
1

>  <Score>
-6.27

$$$$
