
 OpenBabel03232204043D

 58 61  0  0  1  0  0  0  0  0999 V2000
   19.1740  -59.3820   28.8260 B   0  0  0  0  0  0  0  0  0  0  0  0
   18.1510  -59.5070   30.4520 C   0  0  0  0  0  0  0  0  0  0  0  0
   17.6240  -58.3850   31.0240 C   0  0  0  0  0  0  0  0  0  0  0  0
   16.8740  -58.4040   32.2010 C   0  0  0  0  0  0  0  0  0  0  0  0
   16.6970  -59.6490   32.7630 C   0  0  0  0  0  0  0  0  0  0  0  0
   17.2300  -60.8000   32.1890 C   0  0  0  0  0  0  0  0  0  0  0  0
   17.9560  -60.7230   31.0350 C   0  0  0  0  0  0  0  0  0  0  0  0
   16.3170  -57.1570   32.7840 C   0  0  2  0  0  0  0  0  0  0  0  0
   17.3330  -56.2150   33.2090 N   0  0  0  0  0  0  0  0  0  0  0  0
   17.7160  -56.6290   34.5390 C   0  0  0  0  0  0  0  0  0  0  0  0
   18.8040  -56.3560   35.1010 O   0  0  0  0  0  0  0  0  0  0  0  0
   16.5970  -57.4100   35.0740 C   0  0  0  0  0  0  0  0  0  0  0  0
   16.4970  -57.9650   36.1990 O   0  0  0  0  0  0  0  0  0  0  0  0
   15.5560  -57.4550   34.0540 C   0  0  0  0  0  0  0  0  0  0  0  0
   14.2700  -57.7110   34.2210 C   0  0  0  0  0  0  0  0  0  0  0  0
   13.4410  -57.7280   33.1270 O   0  0  0  0  0  0  0  0  0  0  0  0
   13.7060  -57.9760   35.5580 C   0  0  0  0  0  0  0  0  0  0  0  0
   13.8510  -57.2120   36.6070 O   0  0  0  0  0  0  0  0  0  0  0  0
   13.2600  -57.6640   37.6620 C   0  0  0  0  0  0  0  0  0  0  0  0
   12.6560  -58.8450   37.3030 C   0  0  0  0  0  0  0  0  0  0  0  0
   12.9410  -59.0420   35.9680 C   0  0  0  0  0  0  0  0  0  0  0  0
   11.9520  -59.5360   38.2650 C   0  0  0  0  0  0  0  0  0  0  0  0
   11.8440  -59.0710   39.5600 C   0  0  0  0  0  0  0  0  0  0  0  0
   12.4740  -57.8640   39.8800 C   0  0  0  0  0  0  0  0  0  0  0  0
   13.1840  -57.1490   38.9490 C   0  0  0  0  0  0  0  0  0  0  0  0
   13.7850  -55.9690   39.3050 O   0  0  0  0  0  0  0  0  0  0  0  0
   15.1410  -55.6660   39.2280 C   0  0  0  0  0  0  0  0  0  0  0  0
   17.8900  -55.1020   32.4810 C   0  0  0  0  0  0  0  0  0  0  0  0
   17.9950  -55.4020   31.0050 C   0  0  0  0  0  0  0  0  0  0  0  0
   19.3340  -55.8550   30.5460 C   0  0  0  0  0  0  0  0  0  0  0  0
   19.7210  -55.3870   29.2520 N   0  0  0  0  0  4  0  0  0  0  0  0
   19.1870  -56.2620   28.2040 C   0  0  0  0  0  0  0  0  0  0  0  0
   21.1390  -55.2740   29.1020 C   0  0  0  0  0  0  0  0  0  0  0  0
   17.7650  -57.4090   30.5790 H   0  0  0  0  0  0  0  0  0  0  0  0
   16.1460  -59.7880   33.6550 H   0  0  0  0  0  0  0  0  0  0  0  0
   17.0920  -61.7790   32.6300 H   0  0  0  0  0  0  0  0  0  0  0  0
   18.3970  -61.5900   30.5430 H   0  0  0  0  0  0  0  0  0  0  0  0
   15.6620  -56.7220   32.0020 H   0  0  0  0  0  0  0  0  0  0  0  0
   12.6250  -59.8700   35.3600 H   0  0  0  0  0  0  0  0  0  0  0  0
   11.4820  -60.4630   37.9740 H   0  0  0  0  0  0  0  0  0  0  0  0
   11.2870  -59.6270   40.3000 H   0  0  0  0  0  0  0  0  0  0  0  0
   12.3540  -57.5430   40.9250 H   0  0  0  0  0  0  0  0  0  0  0  0
   15.8190  -56.5170   39.4330 H   0  0  0  0  0  0  0  0  0  0  0  0
   15.4310  -54.8040   39.8760 H   0  0  0  0  0  0  0  0  0  0  0  0
   15.3630  -55.3570   38.1810 H   0  0  0  0  0  0  0  0  0  0  0  0
   17.2480  -54.2100   32.6210 H   0  0  0  0  0  0  0  0  0  0  0  0
   18.9210  -54.9390   32.8610 H   0  0  0  0  0  0  0  0  0  0  0  0
   17.2330  -56.1940   30.7320 H   0  0  0  0  0  0  0  0  0  0  0  0
   17.6330  -54.5050   30.4230 H   0  0  0  0  0  0  0  0  0  0  0  0
   19.3240  -56.9730   30.5800 H   0  0  0  0  0  0  0  0  0  0  0  0
   20.0980  -55.5170   31.2910 H   0  0  0  0  0  0  0  0  0  0  0  0
   19.3070  -54.4380   29.0260 H   0  0  0  0  0  0  0  0  0  0  0  0
   19.2020  -55.7040   27.2510 H   0  0  0  0  0  0  0  0  0  0  0  0
   19.7200  -57.2260   28.1560 H   0  0  0  0  0  0  0  0  0  0  0  0
   18.1210  -56.5250   28.4510 H   0  0  0  0  0  0  0  0  0  0  0  0
   21.5270  -54.5410   29.8360 H   0  0  0  0  0  0  0  0  0  0  0  0
   21.6450  -56.2460   29.2700 H   0  0  0  0  0  0  0  0  0  0  0  0
   21.3590  -54.9480   28.0510 H   0  0  0  0  0  0  0  0  0  0  0  0
  1  2  1  0  0  0  0
  2  3  2  0  0  0  0
  2  7  1  0  0  0  0
  3  4  1  0  0  0  0
  4  5  2  0  0  0  0
  4  8  1  0  0  0  0
  5 35  1  0  0  0  0
  6 36  1  0  0  0  0
  6  5  1  0  0  0  0
  7  6  2  0  0  0  0
  8 38  1  6  0  0  0
  8  9  1  0  0  0  0
  8 14  1  0  0  0  0
  9 10  1  0  0  0  0
 10 12  1  0  0  0  0
 10 11  2  0  0  0  0
 12 13  2  0  0  0  0
 14 15  2  0  0  0  0
 14 12  1  0  0  0  0
 15 17  1  0  0  0  0
 16 15  1  0  0  0  0
 17 21  2  0  0  0  0
 17 18  1  0  0  0  0
 18 19  1  0  0  0  0
 19 25  1  0  0  0  0
 20 19  2  0  0  0  0
 20 22  1  0  0  0  0
 21 20  1  0  0  0  0
 22 23  2  0  0  0  0
 23 24  1  0  0  0  0
 23 41  1  0  0  0  0
 24 42  1  0  0  0  0
 25 26  1  0  0  0  0
 25 24  2  0  0  0  0
 27 26  1  0  0  0  0
 27 43  1  0  0  0  0
 27 44  1  0  0  0  0
 28 46  1  0  0  0  0
 28 47  1  0  0  0  0
 28  9  1  0  0  0  0
 29 28  1  0  0  0  0
 30 50  1  0  0  0  0
 30 29  1  0  0  0  0
 30 51  1  0  0  0  0
 31 30  1  0  0  0  0
 32 55  1  0  0  0  0
 32 31  1  0  0  0  0
 33 31  1  0  0  0  0
 33 57  1  0  0  0  0
 33 56  1  0  0  0  0
 34  3  1  0  0  0  0
 37  7  1  0  0  0  0
 39 21  1  0  0  0  0
 40 22  1  0  0  0  0
 45 27  1  0  0  0  0
 48 29  1  0  0  0  0
 49 29  1  0  0  0  0
 52 31  1  0  0  0  0
 53 32  1  0  0  0  0
 54 32  1  0  0  0  0
 58 33  1  0  0  0  0
M  END
>  <Pose>
1

>  <Score>
-6.49

$$$$
