
 OpenBabel03232204043D

 25 28  0  0  1  0  0  0  0  0999 V2000
   16.7740  -56.3870   32.1350 B   0  0  0  0  0  0  0  0  0  0  0  0
   17.9280  -55.3240   33.2190 C   0  0  0  0  0  0  0  0  0  0  0  0
   17.6540  -55.0850   34.5560 C   0  0  0  0  0  0  0  0  0  0  0  0
   18.4340  -54.3350   35.3940 C   0  0  0  0  0  0  0  0  0  0  0  0
   19.5860  -53.7960   34.7830 C   0  0  0  0  0  0  0  0  0  0  0  0
   19.8880  -54.0130   33.4610 C   0  0  0  0  0  0  0  0  0  0  0  0
   19.0600  -54.7790   32.6720 C   0  0  0  0  0  0  0  0  0  0  0  0
   18.1930  -54.0670   36.7580 N   0  0  0  0  0  0  0  0  0  0  0  0
   17.0900  -54.5620   37.4930 C   0  0  1  0  0  0  0  0  0  0  0  0
   16.5410  -55.7680   37.4030 N   0  0  0  0  0  0  0  0  0  0  0  0
   15.4910  -56.1970   38.1230 C   0  0  0  0  0  0  0  0  0  0  0  0
   14.7720  -57.3300   38.2150 N   0  0  0  0  0  0  0  0  0  0  0  0
   13.8300  -57.2190   39.0980 O   0  0  0  0  0  0  0  0  0  0  0  0
   13.9040  -56.0360   39.5970 N   0  0  0  0  0  0  0  0  0  0  0  0
   14.9090  -55.3370   39.0440 C   0  0  0  0  0  0  0  0  0  0  0  0
   15.4300  -54.1080   39.1710 N   0  0  0  0  0  0  0  0  0  0  0  0
   15.0530  -53.1170   39.9760 N   0  0  0  0  0  0  0  0  0  0  0  0
   15.8780  -52.0840   39.7430 N   0  0  0  0  0  0  0  0  0  0  0  0
   16.7460  -52.4550   38.8010 N   0  0  0  0  0  0  0  0  0  0  0  0
   16.4800  -53.7110   38.4360 C   0  0  0  0  0  0  0  0  0  0  0  0
   16.7600  -55.5370   34.9230 H   0  0  0  0  0  0  0  0  0  0  0  0
   20.2530  -53.1940   35.3710 H   0  0  0  0  0  0  0  0  0  0  0  0
   20.7800  -53.5890   33.0060 H   0  0  0  0  0  0  0  0  0  0  0  0
   19.2920  -54.9520   31.6350 H   0  0  0  0  0  0  0  0  0  0  0  0
   18.9060  -53.4480   37.2380 H   0  0  0  0  0  0  0  0  0  0  0  0
  1  2  1  0  0  0  0
  2  3  1  0  0  0  0
  3 21  1  0  0  0  0
  3  4  2  0  0  0  0
  4  8  1  0  0  0  0
  5 22  1  0  0  0  0
  5  4  1  0  0  0  0
  6  5  2  0  0  0  0
  7  2  2  0  0  0  0
  7  6  1  0  0  0  0
  8 25  1  0  0  0  0
  9  8  1  1  0  0  0
  9 20  1  0  0  0  0
 10  9  1  0  0  0  0
 10 11  2  0  0  0  0
 11 12  1  0  0  0  0
 11 15  1  0  0  0  0
 12 13  1  0  0  0  0
 13 14  1  0  0  0  0
 15 16  1  0  0  0  0
 15 14  2  0  0  0  0
 16 17  1  0  0  0  0
 18 17  2  0  0  0  0
 19 18  1  0  0  0  0
 20 19  2  0  0  0  0
 20 16  1  0  0  0  0
 23  6  1  0  0  0  0
 24  7  1  0  0  0  0
M  END
>  <Pose>
1

>  <Score>
-6.71

$$$$
