
 OpenBabel03232204043D

 37 40  0  0  1  0  0  0  0  0999 V2000
   14.6140  -55.9800   38.8840 B   0  0  0  0  0  0  0  0  0  0  0  0
   15.9440  -54.6650   38.5110 C   0  0  0  0  0  0  0  0  0  0  0  0
   16.7180  -54.6950   37.3790 C   0  0  0  0  0  0  0  0  0  0  0  0
   17.6940  -53.7460   37.0800 C   0  0  0  0  0  0  0  0  0  0  0  0
   17.8480  -52.7360   38.0170 C   0  0  0  0  0  0  0  0  0  0  0  0
   17.0780  -52.6970   39.1550 C   0  0  0  0  0  0  0  0  0  0  0  0
   16.1070  -53.6540   39.4350 C   0  0  0  0  0  0  0  0  0  0  0  0
   18.4700  -53.8170   35.9010 N   0  0  0  0  0  0  0  0  0  0  0  0
   19.4860  -52.9140   35.4200 C   0  0  0  0  0  0  0  0  0  0  0  0
   19.5800  -51.7070   35.7840 O   0  0  0  0  0  0  0  0  0  0  0  0
   20.3490  -53.6210   34.4760 C   0  0  2  0  0  0  0  0  0  0  0  0
   20.8340  -52.9270   33.4030 O   0  0  0  0  0  0  0  0  0  0  0  0
   20.8640  -53.9050   32.4110 N   0  0  0  0  0  0  0  0  0  0  0  0
   19.7130  -54.7040   32.5490 C   0  0  0  0  0  0  0  0  0  0  0  0
   19.3500  -54.5510   33.8310 C   0  0  0  0  0  0  0  0  0  0  0  0
   18.3950  -54.8410   34.8940 C   0  0  0  0  0  0  0  0  0  0  0  0
   17.6290  -55.8270   34.9250 O   0  0  0  0  0  0  0  0  0  0  0  0
   19.0640  -55.5620   31.5700 C   0  0  0  0  0  0  0  0  0  0  0  0
   18.7650  -56.9120   31.7720 C   0  0  0  0  0  0  0  0  0  0  0  0
   18.1580  -57.3690   30.6950 N   0  0  0  0  0  0  0  0  0  0  0  0
   18.0560  -56.3750   29.8160 N   0  0  0  0  0  0  0  0  0  0  0  0
   18.5950  -55.2780   30.3180 C   0  0  0  0  0  0  0  0  0  0  0  0
   17.6740  -58.7310   30.4730 C   0  0  0  0  0  0  0  0  0  0  0  0
   19.0960  -57.7100   32.9760 C   0  0  0  0  0  0  0  0  0  0  0  0
   16.6020  -55.4880   36.6470 H   0  0  0  0  0  0  0  0  0  0  0  0
   18.5970  -51.9750   37.8270 H   0  0  0  0  0  0  0  0  0  0  0  0
   17.1780  -51.9110   39.9150 H   0  0  0  0  0  0  0  0  0  0  0  0
   15.5110  -53.6140   40.3320 H   0  0  0  0  0  0  0  0  0  0  0  0
   21.1380  -54.2090   34.9970 H   0  0  0  0  0  0  0  0  0  0  0  0
   21.5980  -54.0210   31.7010 H   0  0  0  0  0  0  0  0  0  0  0  0
   18.6600  -54.3200   29.8350 H   0  0  0  0  0  0  0  0  0  0  0  0
   16.5950  -58.7000   30.1730 H   0  0  0  0  0  0  0  0  0  0  0  0
   18.2670  -59.2790   29.7210 H   0  0  0  0  0  0  0  0  0  0  0  0
   17.7350  -59.2880   31.4400 H   0  0  0  0  0  0  0  0  0  0  0  0
   19.7930  -57.1540   33.6490 H   0  0  0  0  0  0  0  0  0  0  0  0
   18.1450  -57.9890   33.4630 H   0  0  0  0  0  0  0  0  0  0  0  0
   19.5930  -58.6270   32.6120 H   0  0  0  0  0  0  0  0  0  0  0  0
  2  1  1  0  0  0  0
  2  7  1  0  0  0  0
  3  2  2  0  0  0  0
  4  3  1  0  0  0  0
  4  5  2  0  0  0  0
  5  6  1  0  0  0  0
  6  7  2  0  0  0  0
  6 27  1  0  0  0  0
  7 28  1  0  0  0  0
  8  4  1  0  0  0  0
  9 10  2  0  0  0  0
  9  8  1  0  0  0  0
 11 29  1  1  0  0  0
 11  9  1  0  0  0  0
 12 11  1  0  0  0  0
 13 14  1  0  0  0  0
 13 12  1  0  0  0  0
 14 15  2  0  0  0  0
 15 11  1  0  0  0  0
 15 16  1  0  0  0  0
 16 17  2  0  0  0  0
 16  8  1  0  0  0  0
 18 19  2  0  0  0  0
 18 14  1  0  0  0  0
 19 24  1  0  0  0  0
 20 19  1  0  0  0  0
 21 22  2  0  0  0  0
 21 20  1  0  0  0  0
 22 18  1  0  0  0  0
 23 20  1  0  0  0  0
 23 34  1  0  0  0  0
 24 36  1  0  0  0  0
 24 35  1  0  0  0  0
 25  3  1  0  0  0  0
 26  5  1  0  0  0  0
 30 13  1  0  0  0  0
 31 22  1  0  0  0  0
 32 23  1  0  0  0  0
 33 23  1  0  0  0  0
 37 24  1  0  0  0  0
M  END
>  <Pose>
1

>  <Score>
-6.89

$$$$
