
 OpenBabel03232204043D

 45 48  0  0  1  0  0  0  0  0999 V2000
    7.5770  -56.8370   42.1130 B   0  0  0  0  0  0  0  0  0  0  0  0
    8.9700  -58.1430   42.0950 C   0  0  0  0  0  0  0  0  0  0  0  0
    9.5630  -58.5550   40.9330 C   0  0  0  0  0  0  0  0  0  0  0  0
   10.5910  -59.5140   40.8910 C   0  0  0  0  0  0  0  0  0  0  0  0
   10.9710  -60.0260   42.1480 C   0  0  0  0  0  0  0  0  0  0  0  0
   10.3780  -59.6140   43.3160 C   0  0  0  0  0  0  0  0  0  0  0  0
    9.3730  -58.6680   43.2930 C   0  0  0  0  0  0  0  0  0  0  0  0
   11.1060  -59.8570   39.7680 O   0  0  0  0  0  0  0  0  0  0  0  0
   11.6180  -60.1110   38.6080 C   0  0  0  0  0  0  0  0  0  0  0  0
   12.9220  -59.3320   38.3750 C   0  0  0  0  0  0  0  0  0  0  0  0
   12.7310  -57.9410   38.6540 N   0  0  0  0  0  0  0  0  0  0  0  0
   13.5680  -56.9260   38.1140 C   0  0  0  0  0  0  0  0  0  0  0  0
   12.9770  -55.8190   37.8560 O   0  0  0  0  0  0  0  0  0  0  0  0
   15.0130  -57.0720   37.8440 C   0  0  0  0  0  0  0  0  0  0  0  0
   15.7450  -55.8350   37.8060 N   0  0  0  0  0  0  0  0  0  0  0  0
   16.7440  -55.5710   36.8070 C   0  0  0  0  0  0  0  0  0  0  0  0
   17.3260  -56.3990   36.0630 O   0  0  0  0  0  0  0  0  0  0  0  0
   16.9860  -54.1280   36.7930 C   0  0  1  0  0  0  0  0  0  0  0  0
   16.0580  -53.5080   37.8560 C   0  0  2  0  0  0  0  0  0  0  0  0
   16.9170  -52.6300   38.6950 C   0  0  2  0  0  0  0  0  0  0  0  0
   18.0100  -52.2380   37.6790 C   0  0  0  0  0  0  0  0  0  0  0  0
   18.3270  -53.7050   37.3280 C   0  0  1  0  0  0  0  0  0  0  0  0
   18.4660  -54.2430   38.7240 C   0  0  0  0  0  0  0  0  0  0  0  0
   17.7410  -53.5090   39.5610 C   0  0  0  0  0  0  0  0  0  0  0  0
   15.6420  -54.6870   38.6590 C   0  0  0  0  0  0  0  0  0  0  0  0
   15.2740  -54.7100   39.8460 O   0  0  0  0  0  0  0  0  0  0  0  0
    9.2440  -58.1360   39.9750 H   0  0  0  0  0  0  0  0  0  0  0  0
   11.7540  -60.7580   42.1280 H   0  0  0  0  0  0  0  0  0  0  0  0
   10.6750  -60.0110   44.2730 H   0  0  0  0  0  0  0  0  0  0  0  0
    8.9180  -58.3560   44.2180 H   0  0  0  0  0  0  0  0  0  0  0  0
   11.9440  -61.2090   38.5390 H   0  0  0  0  0  0  0  0  0  0  0  0
   10.9600  -59.9610   37.6910 H   0  0  0  0  0  0  0  0  0  0  0  0
   13.7530  -59.7860   38.9440 H   0  0  0  0  0  0  0  0  0  0  0  0
   13.1590  -59.5220   37.2860 H   0  0  0  0  0  0  0  0  0  0  0  0
   11.9480  -57.6550   39.2780 H   0  0  0  0  0  0  0  0  0  0  0  0
   15.0890  -57.5410   36.8170 H   0  0  0  0  0  0  0  0  0  0  0  0
   15.4830  -57.8060   38.5660 H   0  0  0  0  0  0  0  0  0  0  0  0
   16.8110  -53.6500   35.8000 H   0  0  0  0  0  0  0  0  0  0  0  0
   15.2010  -53.0010   37.3810 H   0  0  0  0  0  0  0  0  0  0  0  0
   16.4580  -51.7950   39.1730 H   0  0  0  0  0  0  0  0  0  0  0  0
   17.6040  -51.6900   36.8300 H   0  0  0  0  0  0  0  0  0  0  0  0
   18.8680  -51.7700   38.1770 H   0  0  0  0  0  0  0  0  0  0  0  0
   19.1700  -53.8300   36.6920 H   0  0  0  0  0  0  0  0  0  0  0  0
   19.0520  -55.0920   39.0530 H   0  0  0  0  0  0  0  0  0  0  0  0
   17.6900  -53.4800   40.6390 H   0  0  0  0  0  0  0  0  0  0  0  0
  2  1  1  0  0  0  0
  2  7  1  0  0  0  0
  3  2  2  0  0  0  0
  4  3  1  0  0  0  0
  4  5  2  0  0  0  0
  5  6  1  0  0  0  0
  6 29  1  0  0  0  0
  7  6  2  0  0  0  0
  7 30  1  0  0  0  0
  8  4  1  0  0  0  0
  9  8  1  0  0  0  0
 10  9  1  0  0  0  0
 10 11  1  0  0  0  0
 10 33  1  0  0  0  0
 11 35  1  0  0  0  0
 12 11  1  0  0  0  0
 13 12  2  0  0  0  0
 14 12  1  0  0  0  0
 14 37  1  0  0  0  0
 15 14  1  0  0  0  0
 15 25  1  0  0  0  0
 16 15  1  0  0  0  0
 17 16  2  0  0  0  0
 18 38  1  6  0  0  0
 18 16  1  0  0  0  0
 18 22  1  0  0  0  0
 18 19  1  0  0  0  0
 19 39  1  6  0  0  0
 19 25  1  0  0  0  0
 19 20  1  0  0  0  0
 20 40  1  1  0  0  0
 20 24  1  0  0  0  0
 21 42  1  0  0  0  0
 21 20  1  0  0  0  0
 22 43  1  6  0  0  0
 22 21  1  0  0  0  0
 22 23  1  0  0  0  0
 23 44  1  0  0  0  0
 23 24  2  0  0  0  0
 24 45  1  0  0  0  0
 25 26  2  0  0  0  0
 27  3  1  0  0  0  0
 28  5  1  0  0  0  0
 31  9  1  0  0  0  0
 32  9  1  0  0  0  0
 34 10  1  0  0  0  0
 36 14  1  0  0  0  0
 41 21  1  0  0  0  0
M  END
>  <Pose>
1

>  <Score>
-6.75

$$$$
