
 OpenBabel03232204043D

 48 51  0  0  1  0  0  0  0  0999 V2000
   18.9360  -51.5140   37.1730 B   0  0  0  0  0  0  0  0  0  0  0  0
   17.6040  -52.7990   37.6000 C   0  0  0  0  0  0  0  0  0  0  0  0
   16.5790  -52.5600   38.4930 C   0  0  0  0  0  0  0  0  0  0  0  0
   15.6270  -53.5160   38.7810 C   0  0  0  0  0  0  0  0  0  0  0  0
   15.6480  -54.7630   38.1930 C   0  0  0  0  0  0  0  0  0  0  0  0
   16.6700  -55.0020   37.3030 C   0  0  0  0  0  0  0  0  0  0  0  0
   17.6240  -54.0580   37.0080 C   0  0  0  0  0  0  0  0  0  0  0  0
   14.6340  -55.7810   38.5000 C   0  0  0  0  0  0  0  0  0  0  0  0
   14.0550  -55.6630   39.6330 O   0  0  0  0  0  0  0  0  0  0  0  0
   14.3000  -56.8240   37.6320 N   0  0  0  0  0  0  0  0  0  0  0  0
   14.8610  -58.1400   37.8050 C   0  0  2  0  0  0  0  0  0  0  0  0
   16.0540  -58.3790   36.9110 C   0  0  0  0  0  0  0  0  0  0  0  0
   15.4950  -58.9990   35.7290 N   0  0  0  0  0  0  0  0  0  0  0  0
   14.1760  -59.5330   36.0240 C   0  0  1  0  0  0  0  0  0  0  0  0
   13.8140  -59.1460   37.4150 C   0  0  0  0  0  0  0  0  0  0  0  0
   13.2690  -58.9710   34.9980 C   0  0  0  0  0  0  0  0  0  0  0  0
   12.1870  -58.4520   35.3530 O   0  0  0  0  0  0  0  0  0  0  0  0
   13.6670  -59.0460   33.6420 N   0  0  0  0  0  0  0  0  0  0  0  0
   15.0290  -59.2730   33.2170 C   0  0  1  0  0  0  0  0  0  0  0  0
   15.9420  -59.1900   34.3930 C   0  0  0  0  0  0  0  0  0  0  0  0
   17.2090  -59.2930   34.2200 O   0  0  0  0  0  0  0  0  0  0  0  0
   15.1610  -60.5810   32.4760 C   0  0  0  0  0  0  0  0  0  0  0  0
   16.3680  -60.5930   31.6010 C   0  0  0  0  0  0  0  0  0  0  0  0
   16.9660  -59.3960   31.2040 C   0  0  0  0  0  0  0  0  0  0  0  0
   18.0790  -59.4670   30.3960 C   0  0  0  0  0  0  0  0  0  0  0  0
   18.6250  -60.6640   29.9660 C   0  0  0  0  0  0  0  0  0  0  0  0
   18.0010  -61.8160   30.3840 C   0  0  0  0  0  0  0  0  0  0  0  0
   16.8850  -61.8080   31.1910 C   0  0  0  0  0  0  0  0  0  0  0  0
   16.5690  -51.5690   38.9550 H   0  0  0  0  0  0  0  0  0  0  0  0
   14.8690  -53.2550   39.4790 H   0  0  0  0  0  0  0  0  0  0  0  0
   16.7280  -55.9610   36.8180 H   0  0  0  0  0  0  0  0  0  0  0  0
   18.4350  -54.2550   36.2980 H   0  0  0  0  0  0  0  0  0  0  0  0
   13.6430  -56.6670   36.8500 H   0  0  0  0  0  0  0  0  0  0  0  0
   15.2070  -58.2480   38.8400 H   0  0  0  0  0  0  0  0  0  0  0  0
   16.5230  -57.4100   36.7200 H   0  0  0  0  0  0  0  0  0  0  0  0
   16.8040  -59.0530   37.3430 H   0  0  0  0  0  0  0  0  0  0  0  0
   14.2180  -60.6410   35.9570 H   0  0  0  0  0  0  0  0  0  0  0  0
   12.7870  -58.7670   37.4950 H   0  0  0  0  0  0  0  0  0  0  0  0
   13.9090  -60.0170   38.0930 H   0  0  0  0  0  0  0  0  0  0  0  0
   12.9020  -58.9240   32.9260 H   0  0  0  0  0  0  0  0  0  0  0  0
   15.3130  -58.4290   32.5550 H   0  0  0  0  0  0  0  0  0  0  0  0
   14.2620  -60.7940   31.8710 H   0  0  0  0  0  0  0  0  0  0  0  0
   15.3130  -61.3660   33.2440 H   0  0  0  0  0  0  0  0  0  0  0  0
   16.5290  -58.4710   31.5460 H   0  0  0  0  0  0  0  0  0  0  0  0
   18.5640  -58.5350   30.0730 H   0  0  0  0  0  0  0  0  0  0  0  0
   19.5020  -60.6590   29.3310 H   0  0  0  0  0  0  0  0  0  0  0  0
   18.4230  -62.7710   30.0510 H   0  0  0  0  0  0  0  0  0  0  0  0
   16.4020  -62.7160   31.5140 H   0  0  0  0  0  0  0  0  0  0  0  0
  1  2  1  0  0  0  0
  2  3  1  0  0  0  0
  3  4  2  0  0  0  0
  3 29  1  0  0  0  0
  4 30  1  0  0  0  0
  5  8  1  0  0  0  0
  5  4  1  0  0  0  0
  6  5  2  0  0  0  0
  7  6  1  0  0  0  0
  7  2  2  0  0  0  0
  8  9  2  0  0  0  0
 10 11  1  0  0  0  0
 10  8  1  0  0  0  0
 11 34  1  1  0  0  0
 12 36  1  0  0  0  0
 12 11  1  0  0  0  0
 13 14  1  0  0  0  0
 13 12  1  0  0  0  0
 14 37  1  6  0  0  0
 14 15  1  0  0  0  0
 15 38  1  0  0  0  0
 15 11  1  0  0  0  0
 15 39  1  0  0  0  0
 16 17  2  0  0  0  0
 16 14  1  0  0  0  0
 18 16  1  0  0  0  0
 19 41  1  6  0  0  0
 19 18  1  0  0  0  0
 19 20  1  0  0  0  0
 20 13  1  0  0  0  0
 21 20  2  0  0  0  0
 22 19  1  0  0  0  0
 22 43  1  0  0  0  0
 23 22  1  0  0  0  0
 24 44  1  0  0  0  0
 24 23  1  0  0  0  0
 25 24  2  0  0  0  0
 26 27  2  0  0  0  0
 26 25  1  0  0  0  0
 27 28  1  0  0  0  0
 28 48  1  0  0  0  0
 28 23  2  0  0  0  0
 31  6  1  0  0  0  0
 32  7  1  0  0  0  0
 33 10  1  0  0  0  0
 35 12  1  0  0  0  0
 40 18  1  0  0  0  0
 42 22  1  0  0  0  0
 45 25  1  0  0  0  0
 46 26  1  0  0  0  0
 47 27  1  0  0  0  0
M  END
>  <Pose>
1

>  <Score>
-6.87

$$$$
