
 OpenBabel03232204043D

 42 45  0  0  1  0  0  0  0  0999 V2000
   15.3860  -64.2340   34.0140 B   0  0  0  0  0  0  0  0  0  0  0  0
   14.8450  -62.4170   34.0920 C   0  0  0  0  0  0  0  0  0  0  0  0
   13.6810  -62.0750   34.7600 C   0  0  0  0  0  0  0  0  0  0  0  0
   13.2430  -60.7720   34.8470 C   0  0  0  0  0  0  0  0  0  0  0  0
   13.9610  -59.7510   34.2630 C   0  0  0  0  0  0  0  0  0  0  0  0
   15.1070  -60.0810   33.6040 C   0  0  0  0  0  0  0  0  0  0  0  0
   15.5650  -61.3930   33.5060 C   0  0  0  0  0  0  0  0  0  0  0  0
   13.4630  -58.3670   34.3750 C   0  0  0  0  0  0  0  0  0  0  0  0
   13.1520  -57.7490   33.3360 O   0  0  0  0  0  0  0  0  0  0  0  0
   13.3330  -57.7300   35.6360 N   0  0  0  0  0  0  0  0  0  0  0  0
   13.7430  -58.4140   36.8180 C   0  0  2  0  0  0  0  0  0  0  0  0
   13.4330  -57.6560   38.0870 C   0  0  0  0  0  0  0  0  0  0  0  0
   14.5630  -56.7530   38.2120 N   0  0  0  0  0  0  0  0  0  0  0  0
   15.7080  -57.3320   37.5360 C   0  0  1  0  0  0  0  0  0  0  0  0
   15.2470  -58.5390   36.7920 C   0  0  0  0  0  0  0  0  0  0  0  0
   16.2540  -56.2740   36.6480 C   0  0  0  0  0  0  0  0  0  0  0  0
   16.5840  -56.4710   35.4550 O   0  0  0  0  0  0  0  0  0  0  0  0
   16.4230  -54.9600   37.1480 N   0  0  0  0  0  0  0  0  0  0  0  0
   15.6200  -54.4320   38.2310 C   0  0  2  0  0  0  0  0  0  0  0  0
   16.6840  -53.9020   39.1390 C   0  0  0  0  0  0  0  0  0  0  0  0
   17.6520  -53.2650   38.1350 C   0  0  0  0  0  0  0  0  0  0  0  0
   17.3260  -53.9050   36.7820 C   0  0  0  0  0  0  0  0  0  0  0  0
   14.7660  -55.4880   38.8300 C   0  0  0  0  0  0  0  0  0  0  0  0
   14.1790  -55.2740   39.9450 O   0  0  0  0  0  0  0  0  0  0  0  0
   13.0820  -62.8340   35.2340 H   0  0  0  0  0  0  0  0  0  0  0  0
   12.3190  -60.5100   35.3780 H   0  0  0  0  0  0  0  0  0  0  0  0
   15.7010  -59.3390   33.1360 H   0  0  0  0  0  0  0  0  0  0  0  0
   16.4770  -61.6400   32.9800 H   0  0  0  0  0  0  0  0  0  0  0  0
   12.9420  -56.7600   35.7360 H   0  0  0  0  0  0  0  0  0  0  0  0
   13.2920  -59.4250   36.8290 H   0  0  0  0  0  0  0  0  0  0  0  0
   13.4070  -58.3730   38.9200 H   0  0  0  0  0  0  0  0  0  0  0  0
   12.4720  -57.1560   38.0160 H   0  0  0  0  0  0  0  0  0  0  0  0
   16.5250  -57.5980   38.2560 H   0  0  0  0  0  0  0  0  0  0  0  0
   15.6540  -58.6590   35.7880 H   0  0  0  0  0  0  0  0  0  0  0  0
   15.4960  -59.4650   37.3810 H   0  0  0  0  0  0  0  0  0  0  0  0
   14.9770  -53.5890   37.9000 H   0  0  0  0  0  0  0  0  0  0  0  0
   16.2640  -53.1510   39.8180 H   0  0  0  0  0  0  0  0  0  0  0  0
   17.1920  -54.7340   39.6970 H   0  0  0  0  0  0  0  0  0  0  0  0
   18.7050  -53.4540   38.4300 H   0  0  0  0  0  0  0  0  0  0  0  0
   17.4730  -52.1860   38.0340 H   0  0  0  0  0  0  0  0  0  0  0  0
   16.8560  -53.1700   36.1020 H   0  0  0  0  0  0  0  0  0  0  0  0
   18.2530  -54.2680   36.2980 H   0  0  0  0  0  0  0  0  0  0  0  0
  1  2  1  0  0  0  0
  2  3  1  0  0  0  0
  3  4  2  0  0  0  0
  3 25  1  0  0  0  0
  4 26  1  0  0  0  0
  5  8  1  0  0  0  0
  5  4  1  0  0  0  0
  6  5  2  0  0  0  0
  7  6  1  0  0  0  0
  7  2  2  0  0  0  0
  8 10  1  0  0  0  0
  9  8  2  0  0  0  0
 10 29  1  0  0  0  0
 10 11  1  0  0  0  0
 11 30  1  1  0  0  0
 11 12  1  0  0  0  0
 12 13  1  0  0  0  0
 12 31  1  0  0  0  0
 13 23  1  0  0  0  0
 14 13  1  0  0  0  0
 14 33  1  1  0  0  0
 15 11  1  0  0  0  0
 15 35  1  0  0  0  0
 15 14  1  0  0  0  0
 16 18  1  0  0  0  0
 16 14  1  0  0  0  0
 17 16  2  0  0  0  0
 18 19  1  0  0  0  0
 19 36  1  6  0  0  0
 19 23  1  0  0  0  0
 19 20  1  0  0  0  0
 20 38  1  0  0  0  0
 20 37  1  0  0  0  0
 21 39  1  0  0  0  0
 21 20  1  0  0  0  0
 22 18  1  0  0  0  0
 22 21  1  0  0  0  0
 23 24  2  0  0  0  0
 27  6  1  0  0  0  0
 28  7  1  0  0  0  0
 32 12  1  0  0  0  0
 34 15  1  0  0  0  0
 40 21  1  0  0  0  0
 41 22  1  0  0  0  0
 42 22  1  0  0  0  0
M  END
>  <Pose>
1

>  <Score>
-6.56

$$$$
