
 OpenBabel03232204043D

 49 52  0  0  1  0  0  0  0  0999 V2000
   23.5040  -56.8410   27.0100 B   0  0  0  0  0  0  0  0  0  0  0  0
   22.0300  -56.8230   28.2170 C   0  0  0  0  0  0  0  0  0  0  0  0
   21.9370  -57.6620   29.3070 C   0  0  0  0  0  0  0  0  0  0  0  0
   20.8630  -57.6350   30.1690 C   0  0  0  0  0  0  0  0  0  0  0  0
   19.8040  -56.7400   29.9700 C   0  0  0  0  0  0  0  0  0  0  0  0
   19.9120  -55.9090   28.8750 C   0  0  0  0  0  0  0  0  0  0  0  0
   20.9980  -55.9350   28.0020 C   0  0  0  0  0  0  0  0  0  0  0  0
   18.7010  -56.7150   30.9140 C   0  0  0  0  0  0  0  0  0  0  0  0
   18.5940  -55.7330   31.7720 C   0  0  0  0  0  0  0  0  0  0  0  0
   17.5470  -55.5220   32.8230 C   0  0  2  0  0  0  0  0  0  0  0  0
   18.3580  -54.9950   33.9140 N   0  0  0  0  0  0  0  0  0  0  0  0
   19.2970  -54.1140   33.2670 C   0  0  0  0  0  0  0  0  0  0  0  0
   19.8490  -53.1480   33.8190 O   0  0  0  0  0  0  0  0  0  0  0  0
   19.4640  -54.5720   31.8790 C   0  0  0  0  0  0  0  0  0  0  0  0
   20.1920  -54.0740   30.9810 O   0  0  0  0  0  0  0  0  0  0  0  0
   18.2270  -55.2880   35.3120 C   0  0  0  0  0  0  0  0  0  0  0  0
   17.4220  -54.2270   36.0460 C   0  0  0  0  0  0  0  0  0  0  0  0
   16.5710  -54.9370   37.0980 C   0  0  0  0  0  0  0  0  0  0  0  0
   16.2570  -54.0620   38.2100 N   0  0  0  0  0  0  0  0  0  0  0  0
   15.5160  -54.3560   39.3040 C   0  0  0  0  0  0  0  0  0  0  0  0
   15.4640  -53.2730   40.0990 N   0  0  0  0  0  0  0  0  0  0  0  0
   16.1610  -52.2720   39.5410 C   0  0  0  0  0  0  0  0  0  0  0  0
   16.6500  -52.7880   38.3570 C   0  0  0  0  0  0  0  0  0  0  0  0
   16.8780  -56.8020   33.1630 C   0  0  0  0  0  0  0  0  0  0  0  0
   15.5520  -56.8890   32.9680 N   0  0  0  0  0  0  0  0  0  0  0  0
   14.8450  -57.9910   33.2270 C   0  0  0  0  0  0  0  0  0  0  0  0
   15.5130  -59.0880   33.7200 C   0  0  0  0  0  0  0  0  0  0  0  0
   16.8700  -59.0430   33.9350 C   0  0  0  0  0  0  0  0  0  0  0  0
   17.5500  -57.8870   33.6520 C   0  0  0  0  0  0  0  0  0  0  0  0
   17.7290  -57.7350   30.9310 O   0  0  0  0  0  0  0  0  0  0  0  0
   22.7590  -58.3540   29.4600 H   0  0  0  0  0  0  0  0  0  0  0  0
   20.7940  -58.2980   31.0270 H   0  0  0  0  0  0  0  0  0  0  0  0
   19.1290  -55.1860   28.6890 H   0  0  0  0  0  0  0  0  0  0  0  0
   21.0270  -55.2470   27.1460 H   0  0  0  0  0  0  0  0  0  0  0  0
   16.7940  -54.7900   32.4910 H   0  0  0  0  0  0  0  0  0  0  0  0
   19.2520  -55.2320   35.7680 H   0  0  0  0  0  0  0  0  0  0  0  0
   17.8080  -56.2600   35.5610 H   0  0  0  0  0  0  0  0  0  0  0  0
   18.0520  -53.5080   36.5820 H   0  0  0  0  0  0  0  0  0  0  0  0
   16.7140  -53.7290   35.3610 H   0  0  0  0  0  0  0  0  0  0  0  0
   15.6440  -55.2750   36.5820 H   0  0  0  0  0  0  0  0  0  0  0  0
   17.0900  -55.8720   37.4450 H   0  0  0  0  0  0  0  0  0  0  0  0
   15.0350  -55.2970   39.5290 H   0  0  0  0  0  0  0  0  0  0  0  0
   14.9580  -53.1990   41.0260 H   0  0  0  0  0  0  0  0  0  0  0  0
   16.3280  -51.2690   39.9040 H   0  0  0  0  0  0  0  0  0  0  0  0
   17.2680  -52.2460   37.6370 H   0  0  0  0  0  0  0  0  0  0  0  0
   13.7630  -58.0520   33.0630 H   0  0  0  0  0  0  0  0  0  0  0  0
   14.9440  -59.9990   33.9370 H   0  0  0  0  0  0  0  0  0  0  0  0
   17.4050  -59.9000   34.3220 H   0  0  0  0  0  0  0  0  0  0  0  0
   18.6270  -57.7910   33.7940 H   0  0  0  0  0  0  0  0  0  0  0  0
  1  2  1  0  0  0  0
  2  3  1  0  0  0  0
  3 31  1  0  0  0  0
  3  4  2  0  0  0  0
  4 32  1  0  0  0  0
  5  4  1  0  0  0  0
  5  8  1  0  0  0  0
  6  5  2  0  0  0  0
  7  2  2  0  0  0  0
  7  6  1  0  0  0  0
  8 30  1  0  0  0  0
  8  9  2  0  0  0  0
  9 14  1  0  0  0  0
  9 10  1  0  0  0  0
 10 35  1  6  0  0  0
 10 24  1  0  0  0  0
 10 11  1  0  0  0  0
 11 16  1  0  0  0  0
 12 13  2  0  0  0  0
 12 11  1  0  0  0  0
 14 12  1  0  0  0  0
 15 14  2  0  0  0  0
 16 37  1  0  0  0  0
 16 36  1  0  0  0  0
 16 17  1  0  0  0  0
 17 38  1  0  0  0  0
 17 18  1  0  0  0  0
 18 41  1  0  0  0  0
 18 19  1  0  0  0  0
 19 23  1  0  0  0  0
 19 20  1  0  0  0  0
 20 42  1  0  0  0  0
 20 21  1  0  0  0  0
 21 43  1  0  0  0  0
 22 44  1  0  0  0  0
 22 21  1  0  0  0  0
 23 22  2  0  0  0  0
 24 29  1  0  0  0  0
 25 24  2  0  0  0  0
 25 26  1  0  0  0  0
 26 27  2  0  0  0  0
 27 28  1  0  0  0  0
 27 47  1  0  0  0  0
 28 48  1  0  0  0  0
 29 49  1  0  0  0  0
 29 28  2  0  0  0  0
 33  6  1  0  0  0  0
 34  7  1  0  0  0  0
 39 17  1  0  0  0  0
 40 18  1  0  0  0  0
 45 23  1  0  0  0  0
 46 26  1  0  0  0  0
M  END
>  <Pose>
1

>  <Score>
-7.12

$$$$
