
 OpenBabel03232204043D

 42 45  0  0  0  0  0  0  0  0999 V2000
   22.4240  -54.9250   27.6030 B   0  0  0  0  0  0  0  0  0  0  0  0
   21.0110  -55.3890   28.7980 C   0  0  0  0  0  0  0  0  0  0  0  0
   20.0000  -56.2550   28.4070 C   0  0  0  0  0  0  0  0  0  0  0  0
   18.9660  -56.6040   29.2570 C   0  0  0  0  0  0  0  0  0  0  0  0
   18.9080  -56.0960   30.5380 C   0  0  0  0  0  0  0  0  0  0  0  0
   19.9170  -55.2370   30.9170 C   0  0  0  0  0  0  0  0  0  0  0  0
   20.9540  -54.8810   30.0790 C   0  0  0  0  0  0  0  0  0  0  0  0
   17.8280  -56.4500   31.4520 C   0  0  0  0  0  0  0  0  0  0  0  0
   17.9350  -57.3500   32.3490 N   0  0  0  0  0  0  0  0  0  0  0  0
   16.9480  -57.7220   33.2360 N   0  0  0  0  0  0  0  0  0  0  0  0
   17.2340  -57.7550   34.6220 C   0  0  0  0  0  0  0  0  0  0  0  0
   18.3000  -58.2810   35.0140 O   0  0  0  0  0  0  0  0  0  0  0  0
   16.2880  -57.1760   35.6110 C   0  0  0  0  0  0  0  0  0  0  0  0
   16.7660  -55.9030   36.1150 N   0  0  0  0  0  0  0  0  0  0  0  0
   17.7350  -55.2250   35.4280 N   0  0  0  0  0  0  0  0  0  0  0  0
   18.0240  -54.0970   36.0920 C   0  0  0  0  0  0  0  0  0  0  0  0
   17.2360  -54.0990   37.1650 N   0  0  0  0  0  0  0  0  0  0  0  0
   16.4390  -55.2330   37.1880 C   0  0  0  0  0  0  0  0  0  0  0  0
   15.4850  -55.4870   38.2480 C   0  0  0  0  0  0  0  0  0  0  0  0
   15.6990  -55.0450   39.5510 N   0  0  0  0  0  0  0  0  0  0  0  0
   14.7110  -55.3800   40.2850 O   0  0  0  0  0  0  0  0  0  0  0  0
   13.8460  -56.0100   39.5940 N   0  0  0  0  0  0  0  0  0  0  0  0
   14.2990  -56.0970   38.3060 C   0  0  0  0  0  0  0  0  0  0  0  0
   13.5310  -56.7340   37.3240 N   0  0  0  0  0  0  0  0  0  0  0  0
   18.9970  -53.0750   35.7230 C   0  0  0  0  0  0  0  0  0  0  0  0
   19.8240  -53.0880   34.6740 N   0  0  0  0  0  0  0  0  0  0  0  0
   20.5520  -51.9850   34.6810 O   0  0  0  0  0  0  0  0  0  0  0  0
   20.2340  -51.2390   35.7000 N   0  0  0  0  0  0  0  0  0  0  0  0
   19.2500  -51.8990   36.3840 C   0  0  0  0  0  0  0  0  0  0  0  0
   18.6400  -51.4010   37.5640 N   0  0  0  0  0  0  0  0  0  0  0  0
   20.0300  -56.6580   27.4180 H   0  0  0  0  0  0  0  0  0  0  0  0
   18.1720  -57.2890   28.9370 H   0  0  0  0  0  0  0  0  0  0  0  0
   19.8530  -54.8430   31.9400 H   0  0  0  0  0  0  0  0  0  0  0  0
   21.7380  -54.1900   30.4250 H   0  0  0  0  0  0  0  0  0  0  0  0
   16.8910  -55.9210   31.3630 H   0  0  0  0  0  0  0  0  0  0  0  0
   15.9820  -57.9800   32.8690 H   0  0  0  0  0  0  0  0  0  0  0  0
   15.2370  -57.2550   35.4010 H   0  0  0  0  0  0  0  0  0  0  0  0
   16.3840  -57.8920   36.5290 H   0  0  0  0  0  0  0  0  0  0  0  0
   12.5460  -56.4230   37.1630 H   0  0  0  0  0  0  0  0  0  0  0  0
   13.8760  -57.5080   36.7180 H   0  0  0  0  0  0  0  0  0  0  0  0
   17.6080  -51.1690   37.5630 H   0  0  0  0  0  0  0  0  0  0  0  0
   19.1480  -51.2440   38.4550 H   0  0  0  0  0  0  0  0  0  0  0  0
  1  2  1  0  0  0  0
  2  7  1  0  0  0  0
  3  2  2  0  0  0  0
  3  4  1  0  0  0  0
  4  5  2  0  0  0  0
  5  6  1  0  0  0  0
  5  8  1  0  0  0  0
  6 33  1  0  0  0  0
  7 34  1  0  0  0  0
  7  6  2  0  0  0  0
  8  9  2  0  0  0  0
  9 10  1  0  0  0  0
 10 11  1  0  0  0  0
 11 12  2  0  0  0  0
 11 13  1  0  0  0  0
 13 14  1  0  0  0  0
 13 38  1  0  0  0  0
 14 18  1  0  0  0  0
 15 16  2  0  0  0  0
 15 14  1  0  0  0  0
 16 17  1  0  0  0  0
 17 18  2  0  0  0  0
 18 19  1  0  0  0  0
 19 23  1  0  0  0  0
 19 20  2  0  0  0  0
 20 21  1  0  0  0  0
 22 21  1  0  0  0  0
 23 22  2  0  0  0  0
 24 23  1  0  0  0  0
 25 16  1  0  0  0  0
 25 29  1  0  0  0  0
 26 27  1  0  0  0  0
 26 25  2  0  0  0  0
 27 28  1  0  0  0  0
 28 29  2  0  0  0  0
 29 30  1  0  0  0  0
 30 42  1  0  0  0  0
 31  3  1  0  0  0  0
 32  4  1  0  0  0  0
 35  8  1  0  0  0  0
 36 10  1  0  0  0  0
 37 13  1  0  0  0  0
 39 24  1  0  0  0  0
 40 24  1  0  0  0  0
 41 30  1  0  0  0  0
M  END
>  <Pose>
1

>  <Score>
-8.91

$$$$
