
 OpenBabel03232204043D

 56 59  0  0  1  0  0  0  0  0999 V2000
   15.4900  -60.6240   32.6100 B   0  0  0  0  0  0  0  0  0  0  0  0
   16.6420  -59.1310   32.9460 C   0  0  0  0  0  0  0  0  0  0  0  0
   16.4070  -57.8950   32.3850 C   0  0  0  0  0  0  0  0  0  0  0  0
   17.2420  -56.8440   32.6380 C   0  0  0  0  0  0  0  0  0  0  0  0
   18.3670  -56.9620   33.4690 C   0  0  0  0  0  0  0  0  0  0  0  0
   18.5910  -58.1760   34.0170 C   0  0  0  0  0  0  0  0  0  0  0  0
   17.7410  -59.2530   33.7610 C   0  0  0  0  0  0  0  0  0  0  0  0
   19.1510  -55.8050   33.6680 C   0  0  1  0  0  0  0  0  0  0  0  0
   19.5960  -54.8840   32.7140 N   0  0  0  0  0  0  0  0  0  0  0  0
   20.5590  -54.0500   33.4630 C   0  0  0  0  0  0  0  0  0  0  0  0
   21.5780  -53.4650   33.0030 O   0  0  0  0  0  0  0  0  0  0  0  0
   20.0570  -54.0640   34.8400 C   0  0  0  0  0  0  0  0  0  0  0  0
   20.5390  -53.4790   35.8580 O   0  0  0  0  0  0  0  0  0  0  0  0
   18.8450  -54.9060   34.8150 C   0  0  0  0  0  0  0  0  0  0  0  0
   17.7850  -54.8110   35.5850 C   0  0  0  0  0  0  0  0  0  0  0  0
   16.6910  -55.6450   35.3810 O   0  0  0  0  0  0  0  0  0  0  0  0
   17.6820  -53.8620   36.6820 C   0  0  0  0  0  0  0  0  0  0  0  0
   17.8260  -52.5140   36.5920 C   0  0  0  0  0  0  0  0  0  0  0  0
   17.6590  -51.7130   37.7130 C   0  0  0  0  0  0  0  0  0  0  0  0
   17.3450  -52.2730   38.9300 C   0  0  0  0  0  0  0  0  0  0  0  0
   17.1910  -53.6330   39.0640 C   0  0  0  0  0  0  0  0  0  0  0  0
   17.3640  -54.4130   37.9290 C   0  0  0  0  0  0  0  0  0  0  0  0
   17.1570  -51.4440   40.1580 C   0  0  0  0  0  0  0  0  0  0  0  0
   19.3960  -54.5950   31.3010 C   0  0  0  0  0  0  0  0  0  0  0  0
   20.0200  -55.6060   30.3740 C   0  0  0  0  0  0  0  0  0  0  0  0
   21.1640  -55.1190   29.6750 N   0  0  0  0  0  4  0  0  0  0  0  0
   20.8460  -54.9160   28.2740 C   0  0  0  0  0  0  0  0  0  0  0  0
   22.0630  -54.3630   27.5800 C   0  0  0  0  0  0  0  0  0  0  0  0
   23.0070  -55.4030   27.5500 O   0  0  0  0  0  0  0  0  0  0  0  0
   23.3580  -55.6860   28.8490 C   0  0  0  0  0  0  0  0  0  0  0  0
   22.1990  -56.1730   29.6790 C   0  0  0  0  0  0  0  0  0  0  0  0
   15.5310  -57.8110   31.7390 H   0  0  0  0  0  0  0  0  0  0  0  0
   17.0130  -55.8750   32.1660 H   0  0  0  0  0  0  0  0  0  0  0  0
   19.4040  -58.4320   34.6840 H   0  0  0  0  0  0  0  0  0  0  0  0
   17.9100  -60.2370   34.1960 H   0  0  0  0  0  0  0  0  0  0  0  0
   20.1900  -56.2660   34.0480 H   0  0  0  0  0  0  0  0  0  0  0  0
   18.1070  -52.0690   35.6350 H   0  0  0  0  0  0  0  0  0  0  0  0
   17.7750  -50.6410   37.6260 H   0  0  0  0  0  0  0  0  0  0  0  0
   16.9430  -54.1010   40.0240 H   0  0  0  0  0  0  0  0  0  0  0  0
   17.2530  -55.4940   37.9840 H   0  0  0  0  0  0  0  0  0  0  0  0
   17.9490  -51.6300   40.9100 H   0  0  0  0  0  0  0  0  0  0  0  0
   17.1910  -50.3540   39.8800 H   0  0  0  0  0  0  0  0  0  0  0  0
   16.1610  -51.6180   40.6140 H   0  0  0  0  0  0  0  0  0  0  0  0
   18.2880  -54.6570   31.0910 H   0  0  0  0  0  0  0  0  0  0  0  0
   19.7700  -53.6150   31.0230 H   0  0  0  0  0  0  0  0  0  0  0  0
   20.3700  -56.5040   30.9840 H   0  0  0  0  0  0  0  0  0  0  0  0
   19.2460  -55.9970   29.6550 H   0  0  0  0  0  0  0  0  0  0  0  0
   21.5660  -54.2680   30.0920 H   0  0  0  0  0  0  0  0  0  0  0  0
   20.0030  -54.2520   28.0810 H   0  0  0  0  0  0  0  0  0  0  0  0
   20.5780  -55.8990   27.8260 H   0  0  0  0  0  0  0  0  0  0  0  0
   22.4730  -53.4930   28.1070 H   0  0  0  0  0  0  0  0  0  0  0  0
   21.8260  -54.0740   26.5390 H   0  0  0  0  0  0  0  0  0  0  0  0
   24.1190  -56.5100   28.8080 H   0  0  0  0  0  0  0  0  0  0  0  0
   23.8170  -54.8100   29.3200 H   0  0  0  0  0  0  0  0  0  0  0  0
   21.7300  -57.0600   29.2210 H   0  0  0  0  0  0  0  0  0  0  0  0
   22.5580  -56.3990   30.6870 H   0  0  0  0  0  0  0  0  0  0  0  0
  1  2  1  0  0  0  0
  2  7  1  0  0  0  0
  3  4  1  0  0  0  0
  3  2  2  0  0  0  0
  4  5  2  0  0  0  0
  5  8  1  0  0  0  0
  5  6  1  0  0  0  0
  6 34  1  0  0  0  0
  7  6  2  0  0  0  0
  7 35  1  0  0  0  0
  8 36  1  1  0  0  0
  8 14  1  0  0  0  0
  9 10  1  0  0  0  0
  9  8  1  0  0  0  0
 10 12  1  0  0  0  0
 11 10  2  0  0  0  0
 12 13  2  0  0  0  0
 14 12  1  0  0  0  0
 14 15  2  0  0  0  0
 15 17  1  0  0  0  0
 16 15  1  0  0  0  0
 17 22  1  0  0  0  0
 18 17  2  0  0  0  0
 18 19  1  0  0  0  0
 19 20  2  0  0  0  0
 20 21  1  0  0  0  0
 20 23  1  0  0  0  0
 21 39  1  0  0  0  0
 22 40  1  0  0  0  0
 22 21  2  0  0  0  0
 23 43  1  0  0  0  0
 23 41  1  0  0  0  0
 24  9  1  0  0  0  0
 25 46  1  0  0  0  0
 25 24  1  0  0  0  0
 26 31  1  0  0  0  0
 26 48  1  0  0  0  0
 26 25  1  0  0  0  0
 27 26  1  0  0  0  0
 28 51  1  0  0  0  0
 28 27  1  0  0  0  0
 29 28  1  0  0  0  0
 29 30  1  0  0  0  0
 30 54  1  0  0  0  0
 30 31  1  0  0  0  0
 31 56  1  0  0  0  0
 32  3  1  0  0  0  0
 33  4  1  0  0  0  0
 37 18  1  0  0  0  0
 38 19  1  0  0  0  0
 42 23  1  0  0  0  0
 44 24  1  0  0  0  0
 45 24  1  0  0  0  0
 47 25  1  0  0  0  0
 49 27  1  0  0  0  0
 50 27  1  0  0  0  0
 52 28  1  0  0  0  0
 53 30  1  0  0  0  0
 55 31  1  0  0  0  0
M  END
>  <Pose>
1

>  <Score>
-6.63

$$$$
