
 OpenBabel03232204043D

 53 56  0  0  1  0  0  0  0  0999 V2000
   19.6780  -56.1570   30.7480 B   0  0  0  0  0  0  0  0  0  0  0  0
   18.7820  -56.6400   32.3550 C   0  0  0  0  0  0  0  0  0  0  0  0
   18.9250  -57.8700   32.9560 C   0  0  0  0  0  0  0  0  0  0  0  0
   18.2480  -58.1890   34.1420 C   0  0  0  0  0  0  0  0  0  0  0  0
   17.4190  -57.2850   34.7420 C   0  0  0  0  0  0  0  0  0  0  0  0
   17.2950  -56.0610   34.1170 C   0  0  0  0  0  0  0  0  0  0  0  0
   17.9520  -55.7300   32.9540 C   0  0  0  0  0  0  0  0  0  0  0  0
   16.7010  -57.5600   35.9280 C   0  0  1  0  0  0  0  0  0  0  0  0
   16.2250  -56.5450   36.7960 N   0  0  0  0  0  0  0  0  0  0  0  0
   15.5200  -57.2930   37.8320 C   0  0  0  0  0  0  0  0  0  0  0  0
   15.3650  -56.9350   39.0320 O   0  0  0  0  0  0  0  0  0  0  0  0
   15.0450  -58.5160   37.1870 C   0  0  0  0  0  0  0  0  0  0  0  0
   14.3810  -59.4580   37.6930 O   0  0  0  0  0  0  0  0  0  0  0  0
   15.4990  -58.4360   35.7970 C   0  0  0  0  0  0  0  0  0  0  0  0
   14.9340  -58.9730   34.7310 C   0  0  0  0  0  0  0  0  0  0  0  0
   15.4610  -58.7440   33.4690 O   0  0  0  0  0  0  0  0  0  0  0  0
   13.7560  -59.8280   34.7860 C   0  0  0  0  0  0  0  0  0  0  0  0
   13.8740  -61.0290   34.0740 C   0  0  0  0  0  0  0  0  0  0  0  0
   12.8680  -61.9670   34.0570 C   0  0  0  0  0  0  0  0  0  0  0  0
   11.7060  -61.6990   34.7730 C   0  0  0  0  0  0  0  0  0  0  0  0
   11.5980  -60.5160   35.4700 C   0  0  0  0  0  0  0  0  0  0  0  0
   12.6130  -59.5820   35.4820 C   0  0  0  0  0  0  0  0  0  0  0  0
   10.4330  -62.8980   34.7420 Cl  0  0  0  0  0  0  0  0  0  0  0  0
   16.3660  -55.0870   36.8280 C   0  0  0  0  0  0  0  0  0  0  0  0
   17.7770  -54.5990   36.7080 C   0  0  0  0  0  0  0  0  0  0  0  0
   18.3750  -54.2930   37.9880 N   0  0  0  0  0  4  0  0  0  0  0  0
   17.4020  -54.0670   39.0210 C   0  0  0  0  0  0  0  0  0  0  0  0
   16.6300  -52.7900   38.8610 C   0  0  0  0  0  0  0  0  0  0  0  0
   17.4680  -51.6860   38.6940 O   0  0  0  0  0  0  0  0  0  0  0  0
   18.2090  -51.9310   37.5280 C   0  0  0  0  0  0  0  0  0  0  0  0
   19.1500  -53.0750   37.8390 C   0  0  0  0  0  0  0  0  0  0  0  0
   19.5750  -58.5740   32.4810 H   0  0  0  0  0  0  0  0  0  0  0  0
   18.4610  -59.1770   34.5090 H   0  0  0  0  0  0  0  0  0  0  0  0
   16.6500  -55.2670   34.5260 H   0  0  0  0  0  0  0  0  0  0  0  0
   17.8300  -54.7570   32.4930 H   0  0  0  0  0  0  0  0  0  0  0  0
   17.3920  -58.1980   36.5960 H   0  0  0  0  0  0  0  0  0  0  0  0
   14.7660  -61.2610   33.5100 H   0  0  0  0  0  0  0  0  0  0  0  0
   12.9960  -62.8840   33.4940 H   0  0  0  0  0  0  0  0  0  0  0  0
   10.6850  -60.3390   36.0140 H   0  0  0  0  0  0  0  0  0  0  0  0
   12.5190  -58.6710   36.0630 H   0  0  0  0  0  0  0  0  0  0  0  0
   16.0090  -54.7500   37.8460 H   0  0  0  0  0  0  0  0  0  0  0  0
   15.7800  -54.6110   36.0240 H   0  0  0  0  0  0  0  0  0  0  0  0
   17.7150  -53.6140   36.1730 H   0  0  0  0  0  0  0  0  0  0  0  0
   18.4550  -55.2050   36.1020 H   0  0  0  0  0  0  0  0  0  0  0  0
   19.0280  -55.0330   38.3110 H   0  0  0  0  0  0  0  0  0  0  0  0
   16.6980  -54.8920   39.1690 H   0  0  0  0  0  0  0  0  0  0  0  0
   17.9800  -53.9700   39.9820 H   0  0  0  0  0  0  0  0  0  0  0  0
   15.8720  -52.8500   38.0510 H   0  0  0  0  0  0  0  0  0  0  0  0
   16.0840  -52.6150   39.8200 H   0  0  0  0  0  0  0  0  0  0  0  0
   18.7870  -51.0370   37.2180 H   0  0  0  0  0  0  0  0  0  0  0  0
   17.4940  -52.1550   36.7350 H   0  0  0  0  0  0  0  0  0  0  0  0
   19.9290  -53.1860   37.0440 H   0  0  0  0  0  0  0  0  0  0  0  0
   19.6400  -52.8220   38.8150 H   0  0  0  0  0  0  0  0  0  0  0  0
  1  2  1  0  0  0  0
  2  7  2  0  0  0  0
  2  3  1  0  0  0  0
  3  4  2  0  0  0  0
  4 33  1  0  0  0  0
  4  5  1  0  0  0  0
  5  8  1  0  0  0  0
  6 34  1  0  0  0  0
  6  5  2  0  0  0  0
  7  6  1  0  0  0  0
  8 36  1  1  0  0  0
  8  9  1  0  0  0  0
  9 24  1  0  0  0  0
  9 10  1  0  0  0  0
 10 11  2  0  0  0  0
 12 13  2  0  0  0  0
 12 10  1  0  0  0  0
 14  8  1  0  0  0  0
 14 12  1  0  0  0  0
 15 17  1  0  0  0  0
 15 14  2  0  0  0  0
 16 15  1  0  0  0  0
 17 22  1  0  0  0  0
 18 17  2  0  0  0  0
 19 18  1  0  0  0  0
 19 20  2  0  0  0  0
 20 21  1  0  0  0  0
 21 22  2  0  0  0  0
 21 39  1  0  0  0  0
 22 40  1  0  0  0  0
 23 20  1  0  0  0  0
 24 41  1  0  0  0  0
 25 24  1  0  0  0  0
 25 26  1  0  0  0  0
 26 45  1  0  0  0  0
 26 27  1  0  0  0  0
 27 46  1  0  0  0  0
 27 47  1  0  0  0  0
 28 27  1  0  0  0  0
 28 49  1  0  0  0  0
 29 28  1  0  0  0  0
 30 31  1  0  0  0  0
 30 29  1  0  0  0  0
 31 26  1  0  0  0  0
 31 53  1  0  0  0  0
 32  3  1  0  0  0  0
 35  7  1  0  0  0  0
 37 18  1  0  0  0  0
 38 19  1  0  0  0  0
 42 24  1  0  0  0  0
 43 25  1  0  0  0  0
 44 25  1  0  0  0  0
 48 28  1  0  0  0  0
 50 30  1  0  0  0  0
 51 30  1  0  0  0  0
 52 31  1  0  0  0  0
M  END
>  <Pose>
1

>  <Score>
-6.11

$$$$
