
 OpenBabel03232204043D

 62 66  0  0  1  0  0  0  0  0999 V2000
   18.9110  -56.2670   30.5720 B   0  0  0  0  0  0  0  0  0  0  0  0
   18.0000  -56.9200   32.1150 C   0  0  0  0  0  0  0  0  0  0  0  0
   18.6360  -57.6860   33.0750 C   0  0  0  0  0  0  0  0  0  0  0  0
   17.9790  -58.1590   34.1910 C   0  0  0  0  0  0  0  0  0  0  0  0
   16.6560  -57.8750   34.3810 C   0  0  0  0  0  0  0  0  0  0  0  0
   16.0240  -57.1180   33.4360 C   0  0  0  0  0  0  0  0  0  0  0  0
   16.6620  -56.6380   32.3160 C   0  0  0  0  0  0  0  0  0  0  0  0
   15.9270  -58.3230   35.5270 C   0  0  2  0  0  0  0  0  0  0  0  0
   14.6830  -58.9640   35.4460 N   0  0  0  0  0  0  0  0  0  0  0  0
   14.3140  -59.1240   36.8420 C   0  0  0  0  0  0  0  0  0  0  0  0
   13.5470  -60.0080   37.3570 O   0  0  0  0  0  0  0  0  0  0  0  0
   14.9850  -58.0720   37.5980 C   0  0  1  0  0  0  0  0  0  0  0  0
   14.9730  -57.8050   38.8430 O   0  0  0  0  0  0  0  0  0  0  0  0
   15.7370  -57.3140   36.6010 C   0  0  0  0  0  0  0  0  0  0  0  0
   16.1690  -56.0690   36.6700 C   0  0  0  0  0  0  0  0  0  0  0  0
   16.9220  -55.5370   35.6320 O   0  0  0  0  0  0  0  0  0  0  0  0
   15.8880  -55.2010   37.8030 C   0  0  0  0  0  0  0  0  0  0  0  0
   16.4650  -54.0270   38.1070 N   0  0  0  0  0  0  0  0  0  0  0  0
   15.9000  -53.5070   39.2220 C   0  0  0  0  0  0  0  0  0  0  0  0
   14.9570  -54.3800   39.6100 N   0  0  0  0  0  0  0  0  0  0  0  0
   14.9160  -55.4210   38.7810 C   0  0  0  0  0  0  0  0  0  0  0  0
   14.0430  -56.6240   38.8070 C   0  0  0  0  0  0  0  0  0  0  0  0
   16.3070  -52.3080   39.7680 C   0  0  0  0  0  0  0  0  0  0  0  0
   17.3230  -51.5790   39.1940 C   0  0  0  0  0  0  0  0  0  0  0  0
   17.9100  -52.0950   38.0600 C   0  0  0  0  0  0  0  0  0  0  0  0
   17.4700  -53.2820   37.5610 C   0  0  0  0  0  0  0  0  0  0  0  0
   13.7850  -59.4790   34.4640 C   0  0  0  0  0  0  0  0  0  0  0  0
   13.6490  -60.8890   34.1700 C   0  0  0  0  0  0  0  0  0  0  0  0
   12.2810  -61.5130   34.3170 C   0  0  0  0  0  0  0  0  0  0  0  0
   11.7480  -61.9370   33.0260 N   0  0  0  0  0  4  0  0  0  0  0  0
   10.3230  -62.0860   33.0040 C   0  0  0  0  0  0  0  0  0  0  0  0
    9.8270  -63.4390   33.4200 C   0  0  0  0  0  0  0  0  0  0  0  0
   10.7750  -64.2080   34.0410 O   0  0  0  0  0  0  0  0  0  0  0  0
   11.9580  -64.3460   33.3620 C   0  0  0  0  0  0  0  0  0  0  0  0
   12.3520  -63.1490   32.5620 C   0  0  0  0  0  0  0  0  0  0  0  0
   19.6930  -57.9200   32.9350 H   0  0  0  0  0  0  0  0  0  0  0  0
   18.5670  -58.7700   34.9160 H   0  0  0  0  0  0  0  0  0  0  0  0
   14.9570  -56.8410   33.5260 H   0  0  0  0  0  0  0  0  0  0  0  0
   16.1480  -56.0300   31.5590 H   0  0  0  0  0  0  0  0  0  0  0  0
   16.6080  -59.0890   36.0320 H   0  0  0  0  0  0  0  0  0  0  0  0
   13.7020  -56.8300   37.7730 H   0  0  0  0  0  0  0  0  0  0  0  0
   13.1720  -56.3880   39.4320 H   0  0  0  0  0  0  0  0  0  0  0  0
   14.6320  -57.4560   39.2310 H   0  0  0  0  0  0  0  0  0  0  0  0
   15.8350  -51.9230   40.6550 H   0  0  0  0  0  0  0  0  0  0  0  0
   17.6710  -50.6480   39.5800 H   0  0  0  0  0  0  0  0  0  0  0  0
   18.7040  -51.5360   37.5970 H   0  0  0  0  0  0  0  0  0  0  0  0
   17.9440  -53.7010   36.6600 H   0  0  0  0  0  0  0  0  0  0  0  0
   13.8960  -58.9130   33.4830 H   0  0  0  0  0  0  0  0  0  0  0  0
   12.7590  -59.1200   34.8000 H   0  0  0  0  0  0  0  0  0  0  0  0
   14.2130  -61.2950   33.2870 H   0  0  0  0  0  0  0  0  0  0  0  0
   14.2430  -61.4220   34.9960 H   0  0  0  0  0  0  0  0  0  0  0  0
   11.5340  -60.7840   34.7030 H   0  0  0  0  0  0  0  0  0  0  0  0
   12.3770  -62.4210   34.9350 H   0  0  0  0  0  0  0  0  0  0  0  0
   11.9840  -61.1690   32.3490 H   0  0  0  0  0  0  0  0  0  0  0  0
    9.7610  -61.2710   33.5060 H   0  0  0  0  0  0  0  0  0  0  0  0
   10.0300  -61.9860   31.9140 H   0  0  0  0  0  0  0  0  0  0  0  0
    9.3070  -63.9960   32.5910 H   0  0  0  0  0  0  0  0  0  0  0  0
    9.0040  -63.2700   34.1730 H   0  0  0  0  0  0  0  0  0  0  0  0
   11.9830  -65.2850   32.7410 H   0  0  0  0  0  0  0  0  0  0  0  0
   12.7660  -64.5100   34.1330 H   0  0  0  0  0  0  0  0  0  0  0  0
   11.9940  -63.3130   31.5160 H   0  0  0  0  0  0  0  0  0  0  0  0
   13.4470  -62.9980   32.4860 H   0  0  0  0  0  0  0  0  0  0  0  0
  1  2  1  0  0  0  0
  2  7  2  0  0  0  0
  2  3  1  0  0  0  0
  3  4  2  0  0  0  0
  4  5  1  0  0  0  0
  4 37  1  0  0  0  0
  5  8  1  0  0  0  0
  6 38  1  0  0  0  0
  6  5  2  0  0  0  0
  7  6  1  0  0  0  0
  8 40  1  1  0  0  0
  8 14  1  0  0  0  0
  9  8  1  0  0  0  0
  9 10  1  0  0  0  0
 10 11  2  0  0  0  0
 10 12  1  0  0  0  0
 12 13  1  1  0  0  0
 13 43  1  0  0  0  0
 14 15  2  0  0  0  0
 14 12  1  0  0  0  0
 15 17  1  0  0  0  0
 16 15  1  0  0  0  0
 17 18  1  0  0  0  0
 17 21  2  0  0  0  0
 18 19  1  0  0  0  0
 19 20  2  0  0  0  0
 19 23  1  0  0  0  0
 21 22  1  0  0  0  0
 21 20  1  0  0  0  0
 22 42  1  0  0  0  0
 23 44  1  0  0  0  0
 24 45  1  0  0  0  0
 24 23  2  0  0  0  0
 25 24  1  0  0  0  0
 26 25  2  0  0  0  0
 26 18  1  0  0  0  0
 27 49  1  0  0  0  0
 27  9  1  0  0  0  0
 28 29  1  0  0  0  0
 28 27  1  0  0  0  0
 28 51  1  0  0  0  0
 29 52  1  0  0  0  0
 29 53  1  0  0  0  0
 30 29  1  0  0  0  0
 31 30  1  0  0  0  0
 31 32  1  0  0  0  0
 31 55  1  0  0  0  0
 32 33  1  0  0  0  0
 32 58  1  0  0  0  0
 34 33  1  0  0  0  0
 34 60  1  0  0  0  0
 35 30  1  0  0  0  0
 35 34  1  0  0  0  0
 36  3  1  0  0  0  0
 39  7  1  0  0  0  0
 41 22  1  0  0  0  0
 46 25  1  0  0  0  0
 47 26  1  0  0  0  0
 48 27  1  0  0  0  0
 50 28  1  0  0  0  0
 54 30  1  0  0  0  0
 56 31  1  0  0  0  0
 57 32  1  0  0  0  0
 59 34  1  0  0  0  0
 61 35  1  0  0  0  0
 62 35  1  0  0  0  0
M  END
>  <Pose>
1

>  <Score>
-6.42

$$$$
