
 OpenBabel03232204043D

 47 50  0  0  1  0  0  0  0  0999 V2000
    9.3660  -62.0250   42.9080 B   0  0  0  0  0  0  0  0  0  0  0  0
   10.3110  -60.8640   41.7070 C   0  0  0  0  0  0  0  0  0  0  0  0
   11.2540  -61.3590   40.8410 C   0  0  0  0  0  0  0  0  0  0  0  0
   11.9280  -60.5540   39.9960 C   0  0  0  0  0  0  0  0  0  0  0  0
   11.6960  -59.1420   39.9600 C   0  0  0  0  0  0  0  0  0  0  0  0
   10.7430  -58.6870   40.8450 C   0  0  0  0  0  0  0  0  0  0  0  0
   10.0570  -59.5100   41.7030 C   0  0  0  0  0  0  0  0  0  0  0  0
   12.4960  -58.4150   39.1140 N   0  0  0  0  0  0  0  0  0  0  0  0
   13.2660  -57.7120   38.3000 C   0  0  0  0  0  0  0  0  0  0  0  0
   12.9740  -57.0330   37.2370 O   0  0  0  0  0  0  0  0  0  0  0  0
   14.7840  -57.6210   38.5690 C   0  0  2  0  0  0  0  0  0  0  0  0
   14.9170  -56.7420   39.7760 C   0  0  0  0  0  0  0  0  0  0  0  0
   15.1390  -55.3220   39.4760 C   0  0  0  0  0  0  0  0  0  0  0  0
   14.6950  -54.4690   40.2920 O   0  0  0  0  0  0  0  0  0  0  0  0
   15.8290  -54.9410   38.2990 N   0  0  0  0  0  0  0  0  0  0  0  0
   16.0160  -55.8740   37.2560 C   0  0  0  0  0  0  0  0  0  0  0  0
   16.6980  -55.4880   36.1340 N   0  0  0  0  0  0  0  0  0  0  0  0
   16.9230  -56.3220   35.1160 C   0  0  0  0  0  0  0  0  0  0  0  0
   16.4540  -57.5720   35.2220 N   0  0  0  0  0  0  0  0  0  0  0  0
   15.7670  -58.0070   36.3180 C   0  0  0  0  0  0  0  0  0  0  0  0
   15.5220  -57.1650   37.3840 C   0  0  0  0  0  0  0  0  0  0  0  0
   15.2780  -59.3430   36.3770 N   0  0  0  0  0  0  0  0  0  0  0  0
   17.6440  -55.8900   33.9390 N   0  0  0  0  0  0  0  0  0  0  0  0
   17.1650  -56.3480   32.6820 C   0  0  0  0  0  0  0  0  0  0  0  0
   17.6410  -55.5420   31.5080 C   0  0  0  0  0  0  0  0  0  0  0  0
   18.3940  -54.4370   31.8920 O   0  0  0  0  0  0  0  0  0  0  0  0
   19.4120  -54.7840   32.7690 C   0  0  0  0  0  0  0  0  0  0  0  0
   18.7910  -55.0240   34.1210 C   0  0  0  0  0  0  0  0  0  0  0  0
   11.4540  -62.4380   40.8510 H   0  0  0  0  0  0  0  0  0  0  0  0
   12.6830  -60.9420   39.3080 H   0  0  0  0  0  0  0  0  0  0  0  0
   10.5190  -57.6050   40.8810 H   0  0  0  0  0  0  0  0  0  0  0  0
    9.3020  -59.1130   42.3920 H   0  0  0  0  0  0  0  0  0  0  0  0
   12.0190  -57.2630   39.6630 H   0  0  0  0  0  0  0  0  0  0  0  0
   15.1010  -58.6660   38.8840 H   0  0  0  0  0  0  0  0  0  0  0  0
   15.7700  -57.1380   40.3940 H   0  0  0  0  0  0  0  0  0  0  0  0
   13.9800  -56.8420   40.3850 H   0  0  0  0  0  0  0  0  0  0  0  0
   16.2170  -53.9610   38.1720 H   0  0  0  0  0  0  0  0  0  0  0  0
   14.7700  -59.7900   35.6080 H   0  0  0  0  0  0  0  0  0  0  0  0
   15.4400  -59.8970   37.2570 H   0  0  0  0  0  0  0  0  0  0  0  0
   17.5500  -57.4020   32.5640 H   0  0  0  0  0  0  0  0  0  0  0  0
   16.0490  -56.4430   32.7380 H   0  0  0  0  0  0  0  0  0  0  0  0
   18.2430  -56.1590   30.7960 H   0  0  0  0  0  0  0  0  0  0  0  0
   16.7650  -55.1710   30.9510 H   0  0  0  0  0  0  0  0  0  0  0  0
   20.1010  -53.8900   32.7970 H   0  0  0  0  0  0  0  0  0  0  0  0
   19.9740  -55.6620   32.3990 H   0  0  0  0  0  0  0  0  0  0  0  0
   19.5160  -55.4600   34.8440 H   0  0  0  0  0  0  0  0  0  0  0  0
   18.4950  -54.0270   34.5440 H   0  0  0  0  0  0  0  0  0  0  0  0
  2  1  1  0  0  0  0
  3 29  1  0  0  0  0
  3  2  2  0  0  0  0
  4  3  1  0  0  0  0
  5  4  2  0  0  0  0
  5  6  1  0  0  0  0
  6 31  1  0  0  0  0
  6  7  2  0  0  0  0
  7  2  1  0  0  0  0
  7 32  1  0  0  0  0
  8 33  1  0  0  0  0
  8  5  1  0  0  0  0
  9 11  1  0  0  0  0
  9  8  1  0  0  0  0
 10  9  2  0  0  0  0
 11 34  1  1  0  0  0
 11 12  1  0  0  0  0
 12 36  1  0  0  0  0
 12 35  1  0  0  0  0
 13 12  1  0  0  0  0
 13 14  2  0  0  0  0
 15 13  1  0  0  0  0
 16 21  2  0  0  0  0
 16 15  1  0  0  0  0
 17 16  1  0  0  0  0
 18 19  1  0  0  0  0
 18 17  2  0  0  0  0
 19 20  2  0  0  0  0
 20 22  1  0  0  0  0
 20 21  1  0  0  0  0
 21 11  1  0  0  0  0
 22 39  1  0  0  0  0
 23 28  1  0  0  0  0
 23 18  1  0  0  0  0
 24 41  1  0  0  0  0
 24 23  1  0  0  0  0
 25 26  1  0  0  0  0
 25 24  1  0  0  0  0
 26 27  1  0  0  0  0
 27 44  1  0  0  0  0
 27 28  1  0  0  0  0
 28 47  1  0  0  0  0
 28 46  1  0  0  0  0
 30  4  1  0  0  0  0
 37 15  1  0  0  0  0
 38 22  1  0  0  0  0
 40 24  1  0  0  0  0
 42 25  1  0  0  0  0
 43 25  1  0  0  0  0
 45 27  1  0  0  0  0
M  END
>  <Pose>
1

>  <Score>
-7.30

$$$$
