
 OpenBabel03232204043D

 47 50  0  0  1  0  0  0  0  0999 V2000
   14.0930  -61.7730   32.5630 B   0  0  0  0  0  0  0  0  0  0  0  0
   14.0630  -60.5860   34.0660 C   0  0  0  0  0  0  0  0  0  0  0  0
   12.9230  -60.4240   34.8260 C   0  0  0  0  0  0  0  0  0  0  0  0
   12.8830  -59.5690   35.9180 C   0  0  0  0  0  0  0  0  0  0  0  0
   13.9990  -58.8460   36.2830 C   0  0  0  0  0  0  0  0  0  0  0  0
   15.1360  -59.0140   35.5180 C   0  0  0  0  0  0  0  0  0  0  0  0
   15.1780  -59.8630   34.4320 C   0  0  0  0  0  0  0  0  0  0  0  0
   13.9500  -57.9670   37.4100 N   0  0  0  0  0  0  0  0  0  0  0  0
   13.1110  -57.9940   38.4310 N   0  0  0  0  0  0  0  0  0  0  0  0
   13.3660  -57.0220   39.2910 N   0  0  0  0  0  0  0  0  0  0  0  0
   14.4250  -56.3030   38.8320 C   0  0  0  0  0  0  0  0  0  0  0  0
   14.7680  -56.9260   37.6460 C   0  0  0  0  0  0  0  0  0  0  0  0
   15.8020  -56.4150   36.9680 N   0  0  0  0  0  0  0  0  0  0  0  0
   16.4680  -55.3430   37.4320 C   0  0  0  0  0  0  0  0  0  0  0  0
   16.1390  -54.7280   38.5910 N   0  0  0  0  0  0  0  0  0  0  0  0
   15.1110  -55.2080   39.3010 C   0  0  0  0  0  0  0  0  0  0  0  0
   14.8050  -54.6420   40.3730 O   0  0  0  0  0  0  0  0  0  0  0  0
   16.9190  -53.5780   39.0090 C   0  0  0  0  0  0  0  0  0  0  0  0
   18.3550  -53.7410   38.5800 C   0  0  0  0  0  0  0  0  0  0  0  0
   19.1550  -54.4340   39.2640 O   0  0  0  0  0  0  0  0  0  0  0  0
   18.8340  -53.1200   37.4020 N   0  0  0  0  0  0  0  0  0  0  0  0
   18.6120  -53.7050   36.1020 C   0  0  0  0  0  0  0  0  0  0  0  0
   19.9290  -53.6200   35.3490 C   0  0  2  0  0  0  0  0  0  0  0  0
   20.4390  -52.3490   35.2770 O   0  0  0  0  0  0  0  0  0  0  0  0
   19.7910  -51.4200   36.0540 C   0  0  1  0  0  0  0  0  0  0  0  0
   19.5650  -51.8760   37.4820 C   0  0  0  0  0  0  0  0  0  0  0  0
   20.4520  -50.0740   36.0540 C   0  0  0  0  0  0  0  0  0  0  0  0
   19.6280  -54.0640   33.9140 C   0  0  0  0  0  0  0  0  0  0  0  0
   12.0500  -60.9850   34.5470 H   0  0  0  0  0  0  0  0  0  0  0  0
   11.9870  -59.4480   36.5060 H   0  0  0  0  0  0  0  0  0  0  0  0
   16.0230  -58.4610   35.7790 H   0  0  0  0  0  0  0  0  0  0  0  0
   16.0780  -59.9940   33.8290 H   0  0  0  0  0  0  0  0  0  0  0  0
   17.3120  -54.9480   36.8530 H   0  0  0  0  0  0  0  0  0  0  0  0
   16.5440  -52.6440   38.5500 H   0  0  0  0  0  0  0  0  0  0  0  0
   16.9490  -53.5090   40.1160 H   0  0  0  0  0  0  0  0  0  0  0  0
   17.8010  -53.1910   35.5440 H   0  0  0  0  0  0  0  0  0  0  0  0
   18.3320  -54.7590   36.2560 H   0  0  0  0  0  0  0  0  0  0  0  0
   20.6240  -54.3630   35.8050 H   0  0  0  0  0  0  0  0  0  0  0  0
   18.7600  -51.2780   35.6190 H   0  0  0  0  0  0  0  0  0  0  0  0
   18.9920  -51.0810   37.9920 H   0  0  0  0  0  0  0  0  0  0  0  0
   20.5070  -52.0720   38.0200 H   0  0  0  0  0  0  0  0  0  0  0  0
   19.6810  -49.2780   36.1320 H   0  0  0  0  0  0  0  0  0  0  0  0
   21.1390  -49.9360   36.9250 H   0  0  0  0  0  0  0  0  0  0  0  0
   20.9910  -49.8900   35.0910 H   0  0  0  0  0  0  0  0  0  0  0  0
   18.8640  -54.8590   33.9910 H   0  0  0  0  0  0  0  0  0  0  0  0
   19.2190  -53.2480   33.3120 H   0  0  0  0  0  0  0  0  0  0  0  0
   20.5430  -54.5240   33.4560 H   0  0  0  0  0  0  0  0  0  0  0  0
  1  2  1  0  0  0  0
  2  7  2  0  0  0  0
  2  3  1  0  0  0  0
  3  4  2  0  0  0  0
  4  5  1  0  0  0  0
  4 30  1  0  0  0  0
  5  8  1  0  0  0  0
  6 31  1  0  0  0  0
  6  5  2  0  0  0  0
  7  6  1  0  0  0  0
  8 12  1  0  0  0  0
  8  9  1  0  0  0  0
  9 10  2  0  0  0  0
 11 10  1  0  0  0  0
 11 16  1  0  0  0  0
 12 11  2  0  0  0  0
 13 14  2  0  0  0  0
 13 12  1  0  0  0  0
 14 15  1  0  0  0  0
 15 18  1  0  0  0  0
 15 16  1  0  0  0  0
 16 17  2  0  0  0  0
 18 35  1  0  0  0  0
 19 18  1  0  0  0  0
 19 20  2  0  0  0  0
 21 26  1  0  0  0  0
 21 19  1  0  0  0  0
 22 37  1  0  0  0  0
 22 21  1  0  0  0  0
 23 38  1  1  0  0  0
 23 22  1  0  0  0  0
 24 23  1  0  0  0  0
 24 25  1  0  0  0  0
 25 39  1  6  0  0  0
 25 26  1  0  0  0  0
 26 40  1  0  0  0  0
 26 41  1  0  0  0  0
 27 25  1  0  0  0  0
 27 42  1  0  0  0  0
 27 43  1  0  0  0  0
 28 45  1  0  0  0  0
 28 23  1  0  0  0  0
 29  3  1  0  0  0  0
 32  7  1  0  0  0  0
 33 14  1  0  0  0  0
 34 18  1  0  0  0  0
 36 22  1  0  0  0  0
 44 27  1  0  0  0  0
 46 28  1  0  0  0  0
 47 28  1  0  0  0  0
M  END
>  <Pose>
1

>  <Score>
-7.34

$$$$
