
 OpenBabel03232204043D

 44 47  0  0  0  0  0  0  0  0999 V2000
   18.8410  -57.9790   29.7970 B   0  0  0  0  0  0  0  0  0  0  0  0
   17.7180  -57.9130   31.3540 C   0  0  0  0  0  0  0  0  0  0  0  0
   16.9930  -56.7820   31.6600 C   0  0  0  0  0  0  0  0  0  0  0  0
   16.1840  -56.7320   32.7800 C   0  0  0  0  0  0  0  0  0  0  0  0
   16.0690  -57.8120   33.6380 C   0  0  0  0  0  0  0  0  0  0  0  0
   16.8040  -58.9350   33.3130 C   0  0  0  0  0  0  0  0  0  0  0  0
   17.6110  -58.9930   32.2000 C   0  0  0  0  0  0  0  0  0  0  0  0
   15.2290  -57.7380   34.7870 N   0  0  0  0  0  0  0  0  0  0  0  0
   15.5760  -57.3640   36.0300 C   0  0  0  0  0  0  0  0  0  0  0  0
   16.7510  -57.0130   36.3580 O   0  0  0  0  0  0  0  0  0  0  0  0
   14.4810  -57.4170   36.8930 C   0  0  0  0  0  0  0  0  0  0  0  0
   13.4620  -57.8300   36.1450 C   0  0  0  0  0  0  0  0  0  0  0  0
   12.4190  -57.8740   36.9940 N   0  0  0  0  0  0  0  0  0  0  0  0
   12.7980  -57.5000   38.2060 N   0  0  0  0  0  0  0  0  0  0  0  0
   14.0760  -57.2140   38.1530 N   0  0  0  0  0  0  0  0  0  0  0  0
   14.9160  -56.7640   39.2330 C   0  0  0  0  0  0  0  0  0  0  0  0
   15.0390  -55.2680   39.2590 C   0  0  0  0  0  0  0  0  0  0  0  0
   14.7620  -54.7440   40.3650 O   0  0  0  0  0  0  0  0  0  0  0  0
   15.4310  -54.5260   38.1420 N   0  0  0  0  0  0  0  0  0  0  0  0
   16.7140  -54.0510   37.8470 C   0  0  0  0  0  0  0  0  0  0  0  0
   17.0990  -52.8350   38.4350 C   0  0  0  0  0  0  0  0  0  0  0  0
   18.3480  -52.3320   38.1740 C   0  0  0  0  0  0  0  0  0  0  0  0
   19.2550  -52.9680   37.3530 C   0  0  0  0  0  0  0  0  0  0  0  0
   18.8890  -54.1490   36.7780 C   0  0  0  0  0  0  0  0  0  0  0  0
   17.6350  -54.6640   37.0330 C   0  0  0  0  0  0  0  0  0  0  0  0
   16.1890  -52.0890   39.3270 C   0  0  0  0  0  0  0  0  0  0  0  0
   13.9100  -58.0290   34.8550 C   0  0  0  0  0  0  0  0  0  0  0  0
   13.2390  -58.4170   33.8730 O   0  0  0  0  0  0  0  0  0  0  0  0
   17.0530  -55.9110   31.0140 H   0  0  0  0  0  0  0  0  0  0  0  0
   15.6060  -55.8390   33.0300 H   0  0  0  0  0  0  0  0  0  0  0  0
   16.7340  -59.7890   33.9610 H   0  0  0  0  0  0  0  0  0  0  0  0
   18.1960  -59.8750   31.9330 H   0  0  0  0  0  0  0  0  0  0  0  0
   11.4640  -58.1720   36.6710 H   0  0  0  0  0  0  0  0  0  0  0  0
   12.1440  -57.4610   39.0210 H   0  0  0  0  0  0  0  0  0  0  0  0
   14.4600  -57.0300   40.2260 H   0  0  0  0  0  0  0  0  0  0  0  0
   15.9100  -57.2450   39.1080 H   0  0  0  0  0  0  0  0  0  0  0  0
   14.6360  -54.3120   37.4510 H   0  0  0  0  0  0  0  0  0  0  0  0
   18.6880  -51.3840   38.6150 H   0  0  0  0  0  0  0  0  0  0  0  0
   20.2480  -52.5560   37.1530 H   0  0  0  0  0  0  0  0  0  0  0  0
   19.5960  -54.6670   36.1220 H   0  0  0  0  0  0  0  0  0  0  0  0
   17.4010  -55.5910   36.5560 H   0  0  0  0  0  0  0  0  0  0  0  0
   16.5880  -51.0710   39.5010 H   0  0  0  0  0  0  0  0  0  0  0  0
   15.1950  -51.9450   38.8350 H   0  0  0  0  0  0  0  0  0  0  0  0
   16.0470  -52.5600   40.3130 H   0  0  0  0  0  0  0  0  0  0  0  0
  1  2  1  0  0  0  0
  2  3  2  0  0  0  0
  2  7  1  0  0  0  0
  3  4  1  0  0  0  0
  4 30  1  0  0  0  0
  4  5  2  0  0  0  0
  5  8  1  0  0  0  0
  6  5  1  0  0  0  0
  6 31  1  0  0  0  0
  7  6  2  0  0  0  0
  8 27  1  0  0  0  0
  8  9  1  0  0  0  0
  9 10  2  0  0  0  0
  9 11  1  0  0  0  0
 11 15  1  0  0  0  0
 12 11  2  0  0  0  0
 12 13  1  0  0  0  0
 13 14  1  0  0  0  0
 14 34  1  0  0  0  0
 15 14  1  0  0  0  0
 15 16  1  0  0  0  0
 16 17  1  0  0  0  0
 16 35  1  0  0  0  0
 17 18  2  0  0  0  0
 19 17  1  0  0  0  0
 20 19  1  0  0  0  0
 20 21  1  0  0  0  0
 21 26  1  0  0  0  0
 22 21  2  0  0  0  0
 22 38  1  0  0  0  0
 23 22  1  0  0  0  0
 24 25  1  0  0  0  0
 24 23  2  0  0  0  0
 25 20  2  0  0  0  0
 26 42  1  0  0  0  0
 26 44  1  0  0  0  0
 27 12  1  0  0  0  0
 28 27  2  0  0  0  0
 29  3  1  0  0  0  0
 32  7  1  0  0  0  0
 33 13  1  0  0  0  0
 36 16  1  0  0  0  0
 37 19  1  0  0  0  0
 39 23  1  0  0  0  0
 40 24  1  0  0  0  0
 41 25  1  0  0  0  0
 43 26  1  0  0  0  0
M  END
>  <Pose>
1

>  <Score>
-7.92

$$$$
