
 OpenBabel03232204043D

 38 42  0  0  1  0  0  0  0  0999 V2000
   18.8700  -56.1340   29.9990 B   0  0  0  0  0  0  0  0  0  0  0  0
   19.1310  -55.2990   31.6820 C   0  0  0  0  0  0  0  0  0  0  0  0
   20.1540  -54.3950   31.8370 C   0  0  0  0  0  0  0  0  0  0  0  0
   20.3200  -53.8020   33.0700 C   0  0  0  0  0  0  0  0  0  0  0  0
   19.5000  -54.0900   34.1380 C   0  0  0  0  0  0  0  0  0  0  0  0
   18.4660  -55.0020   33.9830 C   0  0  0  0  0  0  0  0  0  0  0  0
   18.3000  -55.6000   32.7320 C   0  0  0  0  0  0  0  0  0  0  0  0
   19.6820  -53.4640   35.4150 N   0  0  0  0  0  0  0  0  0  0  0  0
   19.5890  -54.1750   36.6400 C   0  0  0  0  0  0  0  0  0  0  0  0
   19.6850  -55.4210   36.7400 O   0  0  0  0  0  0  0  0  0  0  0  0
   19.3640  -53.2070   37.7470 C   0  0  2  0  0  0  0  0  0  0  0  0
   17.9110  -53.0400   38.0670 C   0  0  1  0  0  0  0  0  0  0  0  0
   17.8960  -51.6920   38.4900 O   0  0  0  0  0  0  0  0  0  0  0  0
   18.3810  -51.1290   37.2820 C   0  0  1  0  0  0  0  0  0  0  0  0
   19.6820  -51.8410   37.1370 C   0  0  2  0  0  0  0  0  0  0  0  0
   19.9740  -52.0970   35.7010 C   0  0  0  0  0  0  0  0  0  0  0  0
   20.3970  -51.2510   34.9080 O   0  0  0  0  0  0  0  0  0  0  0  0
   17.4090  -51.7260   36.3300 C   0  0  0  0  0  0  0  0  0  0  0  0
   17.1710  -52.9470   36.7980 C   0  0  0  0  0  0  0  0  0  0  0  0
   17.3720  -53.9620   39.0740 C   0  0  0  0  0  0  0  0  0  0  0  0
   16.7440  -55.0580   38.5470 O   0  0  0  0  0  0  0  0  0  0  0  0
   15.3980  -54.9550   38.7900 C   0  0  0  0  0  0  0  0  0  0  0  0
   15.2000  -53.6800   39.5420 C   0  0  0  0  0  0  0  0  0  0  0  0
   16.4880  -53.3310   39.9310 O   0  0  0  0  0  0  0  0  0  0  0  0
   20.8340  -54.1320   31.0210 H   0  0  0  0  0  0  0  0  0  0  0  0
   21.1300  -53.0740   33.2280 H   0  0  0  0  0  0  0  0  0  0  0  0
   17.8330  -55.2160   34.8260 H   0  0  0  0  0  0  0  0  0  0  0  0
   17.4950  -56.3110   32.6110 H   0  0  0  0  0  0  0  0  0  0  0  0
   19.9890  -53.4510   38.6060 H   0  0  0  0  0  0  0  0  0  0  0  0
   18.4140  -50.0540   37.2950 H   0  0  0  0  0  0  0  0  0  0  0  0
   20.5250  -51.3690   37.6420 H   0  0  0  0  0  0  0  0  0  0  0  0
   17.0250  -51.2070   35.4620 H   0  0  0  0  0  0  0  0  0  0  0  0
   16.5420  -53.6530   36.2650 H   0  0  0  0  0  0  0  0  0  0  0  0
   18.2300  -54.3170   39.7060 H   0  0  0  0  0  0  0  0  0  0  0  0
   14.9870  -55.8040   39.3710 H   0  0  0  0  0  0  0  0  0  0  0  0
   14.8800  -54.8600   37.8010 H   0  0  0  0  0  0  0  0  0  0  0  0
   14.5410  -53.8460   40.4440 H   0  0  0  0  0  0  0  0  0  0  0  0
   14.7750  -52.8560   38.9130 H   0  0  0  0  0  0  0  0  0  0  0  0
  1  2  1  0  0  0  0
  2  3  2  0  0  0  0
  2  7  1  0  0  0  0
  3  4  1  0  0  0  0
  4 26  1  0  0  0  0
  4  5  2  0  0  0  0
  5  8  1  0  0  0  0
  6  5  1  0  0  0  0
  6 27  1  0  0  0  0
  7  6  2  0  0  0  0
  8 16  1  0  0  0  0
  8  9  1  0  0  0  0
  9 10  2  0  0  0  0
  9 11  1  0  0  0  0
 11 12  1  0  0  0  0
 11 29  1  1  0  0  0
 12 13  1  0  0  0  0
 12 20  1  1  0  0  0
 14 30  1  6  0  0  0
 14 13  1  0  0  0  0
 15 14  1  0  0  0  0
 15 31  1  1  0  0  0
 15 11  1  0  0  0  0
 16 15  1  0  0  0  0
 17 16  2  0  0  0  0
 18 19  2  0  0  0  0
 18 14  1  0  0  0  0
 19 12  1  0  0  0  0
 20 34  1  0  0  0  0
 20 24  1  0  0  0  0
 21 22  1  0  0  0  0
 21 20  1  0  0  0  0
 22 35  1  0  0  0  0
 22 23  1  0  0  0  0
 23 24  1  0  0  0  0
 23 37  1  0  0  0  0
 25  3  1  0  0  0  0
 28  7  1  0  0  0  0
 32 18  1  0  0  0  0
 33 19  1  0  0  0  0
 36 22  1  0  0  0  0
 38 23  1  0  0  0  0
M  END
>  <Pose>
1

>  <Score>
-4.97

$$$$
