
 OpenBabel03232204043D

 45 48  0  0  1  0  0  0  0  0999 V2000
   19.9980  -51.2390   36.5530 B   0  0  0  0  0  0  0  0  0  0  0  0
   18.7050  -52.5260   37.1100 C   0  0  0  0  0  0  0  0  0  0  0  0
   17.3750  -52.2240   36.9990 C   0  0  0  0  0  0  0  0  0  0  0  0
   16.4270  -53.1570   37.4030 C   0  0  0  0  0  0  0  0  0  0  0  0
   16.7870  -54.3830   37.9150 C   0  0  0  0  0  0  0  0  0  0  0  0
   18.1320  -54.6660   38.0180 C   0  0  0  0  0  0  0  0  0  0  0  0
   19.0950  -53.7530   37.6220 C   0  0  0  0  0  0  0  0  0  0  0  0
   15.7510  -55.2730   38.3000 N   0  0  0  0  0  0  0  0  0  0  0  0
   14.9300  -54.9840   39.4470 C   0  0  0  0  0  0  0  0  0  0  0  0
   15.1390  -53.9310   40.1100 O   0  0  0  0  0  0  0  0  0  0  0  0
   13.9200  -55.9140   39.7660 N   0  0  0  0  0  0  0  0  0  0  0  0
   13.6920  -56.9770   39.1140 C   0  0  0  0  0  0  0  0  0  0  0  0
   14.4300  -57.4390   37.9120 C   0  0  1  0  0  0  0  0  0  0  0  0
   14.9310  -58.8170   38.1750 C   0  0  0  0  0  0  0  0  0  0  0  0
   15.1020  -59.6670   37.0530 N   0  0  0  0  0  4  0  0  0  0  0  0
   15.0170  -59.0470   35.7900 C   0  0  0  0  0  0  0  0  0  0  0  0
   14.1620  -57.9560   35.5920 C   0  0  0  0  0  0  0  0  0  0  0  0
   14.0930  -57.3680   34.3600 C   0  0  0  0  0  0  0  0  0  0  0  0
   14.8260  -57.7870   33.2730 C   0  0  0  0  0  0  0  0  0  0  0  0
   15.6660  -58.8610   33.4730 C   0  0  0  0  0  0  0  0  0  0  0  0
   15.7580  -59.4800   34.7130 C   0  0  0  0  0  0  0  0  0  0  0  0
   14.7250  -57.1220   31.9520 C   0  0  0  0  0  0  0  0  0  0  0  0
   13.3910  -57.5360   36.7910 C   0  0  0  0  0  0  0  0  0  0  0  0
   14.2220  -60.8460   37.1060 C   0  0  0  0  0  0  0  0  0  0  0  0
   15.4920  -56.4690   37.5710 C   0  0  0  0  0  0  0  0  0  0  0  0
   16.2550  -56.6660   36.5690 O   0  0  0  0  0  0  0  0  0  0  0  0
   12.6450  -57.8200   39.5460 O   0  0  0  0  0  0  0  0  0  0  0  0
   17.1010  -51.2580   36.5950 H   0  0  0  0  0  0  0  0  0  0  0  0
   15.3910  -52.8550   37.2880 H   0  0  0  0  0  0  0  0  0  0  0  0
   18.4520  -55.6220   38.4160 H   0  0  0  0  0  0  0  0  0  0  0  0
   20.1540  -53.9450   37.6880 H   0  0  0  0  0  0  0  0  0  0  0  0
   15.8520  -58.7290   38.7980 H   0  0  0  0  0  0  0  0  0  0  0  0
   14.1810  -59.3140   38.8600 H   0  0  0  0  0  0  0  0  0  0  0  0
   16.0810  -60.0800   37.1130 H   0  0  0  0  0  0  0  0  0  0  0  0
   13.4170  -56.5210   34.2450 H   0  0  0  0  0  0  0  0  0  0  0  0
   16.2600  -59.2240   32.6400 H   0  0  0  0  0  0  0  0  0  0  0  0
   16.4220  -60.3200   34.8440 H   0  0  0  0  0  0  0  0  0  0  0  0
   15.0370  -57.7490   31.1210 H   0  0  0  0  0  0  0  0  0  0  0  0
   13.7040  -56.7040   31.8560 H   0  0  0  0  0  0  0  0  0  0  0  0
   15.4190  -56.2340   32.0050 H   0  0  0  0  0  0  0  0  0  0  0  0
   12.8680  -56.5810   36.6430 H   0  0  0  0  0  0  0  0  0  0  0  0
   12.7180  -58.3660   37.0730 H   0  0  0  0  0  0  0  0  0  0  0  0
   13.2580  -60.6560   36.6030 H   0  0  0  0  0  0  0  0  0  0  0  0
   14.1000  -61.1490   38.1620 H   0  0  0  0  0  0  0  0  0  0  0  0
   14.7170  -61.6730   36.5570 H   0  0  0  0  0  0  0  0  0  0  0  0
  1  2  1  0  0  0  0
  2  7  1  0  0  0  0
  3  2  2  0  0  0  0
  3  4  1  0  0  0  0
  4  5  2  0  0  0  0
  5  6  1  0  0  0  0
  5  8  1  0  0  0  0
  6 30  1  0  0  0  0
  7 31  1  0  0  0  0
  7  6  2  0  0  0  0
  8  9  1  0  0  0  0
  9 11  1  0  0  0  0
  9 10  2  0  0  0  0
 12 27  2  0  0  0  0
 12 11  1  0  0  0  0
 13 25  1  6  0  0  0
 13 14  1  0  0  0  0
 13 12  1  0  0  0  0
 14 32  1  0  0  0  0
 14 33  1  0  0  0  0
 15 24  1  0  0  0  0
 15 34  1  0  0  0  0
 15 14  1  0  0  0  0
 16 15  1  0  0  0  0
 17 16  1  0  0  0  0
 17 23  1  0  0  0  0
 18 17  2  0  0  0  0
 19 20  2  0  0  0  0
 19 18  1  0  0  0  0
 20 21  1  0  0  0  0
 21 37  1  0  0  0  0
 21 16  2  0  0  0  0
 22 40  1  0  0  0  0
 22 19  1  0  0  0  0
 23 42  1  0  0  0  0
 23 13  1  0  0  0  0
 24 44  1  0  0  0  0
 25  8  1  0  0  0  0
 26 25  2  0  0  0  0
 28  3  1  0  0  0  0
 29  4  1  0  0  0  0
 35 18  1  0  0  0  0
 36 20  1  0  0  0  0
 38 22  1  0  0  0  0
 39 22  1  0  0  0  0
 41 23  1  0  0  0  0
 43 24  1  0  0  0  0
 45 24  1  0  0  0  0
M  END
>  <Pose>
1

>  <Score>
-6.26

$$$$
