
 OpenBabel03232204043D

 49 52  0  0  1  0  0  0  0  0999 V2000
   20.5610  -53.5040   33.6080 B   0  0  0  0  0  0  0  0  0  0  0  0
   19.5680  -53.1810   35.2190 C   0  0  0  0  0  0  0  0  0  0  0  0
   18.6010  -54.0780   35.6160 C   0  0  0  0  0  0  0  0  0  0  0  0
   17.8780  -53.8410   36.7890 C   0  0  0  0  0  0  0  0  0  0  0  0
   18.1180  -52.7250   37.5550 C   0  0  0  0  0  0  0  0  0  0  0  0
   19.0860  -51.8440   37.1430 C   0  0  0  0  0  0  0  0  0  0  0  0
   19.8050  -52.0620   35.9910 C   0  0  0  0  0  0  0  0  0  0  0  0
   17.4010  -52.5020   38.7100 O   0  0  0  0  0  0  0  0  0  0  0  0
   16.0200  -52.7210   38.7200 C   0  0  0  0  0  0  0  0  0  0  0  0
   15.6190  -53.8660   39.5580 C   0  0  0  0  0  0  0  0  0  0  0  0
   14.8590  -53.6910   40.5270 O   0  0  0  0  0  0  0  0  0  0  0  0
   16.0990  -55.1560   39.2550 N   0  0  0  0  0  0  0  0  0  0  0  0
   15.4810  -56.0000   38.2850 C   0  0  0  0  0  0  0  0  0  0  0  0
   16.0860  -56.2800   37.1160 N   0  0  0  0  0  0  0  0  0  0  0  0
   15.4850  -57.0700   36.2420 C   0  0  0  0  0  0  0  0  0  0  0  0
   15.8780  -57.4900   35.0320 N   0  0  0  0  0  0  0  0  0  0  0  0
   14.8790  -58.2800   34.5770 C   0  0  0  0  0  0  0  0  0  0  0  0
   13.8960  -58.3450   35.4800 N   0  0  0  0  0  0  0  0  0  0  0  0
   14.2260  -57.6050   36.5400 C   0  0  0  0  0  0  0  0  0  0  0  0
   13.5990  -57.3210   37.7390 C   0  0  0  0  0  0  0  0  0  0  0  0
   14.2530  -56.5180   38.5820 N   0  0  0  0  0  0  0  0  0  0  0  0
   12.3520  -57.8790   37.9830 O   0  0  0  0  0  0  0  0  0  0  0  0
   17.0530  -57.2310   34.2920 C   0  0  2  0  0  0  0  0  0  0  0  0
   16.8400  -56.2750   33.2900 O   0  0  0  0  0  0  0  0  0  0  0  0
   16.6570  -57.0600   32.1540 C   0  0  2  0  0  0  0  0  0  0  0  0
   17.8830  -57.9560   32.2430 C   0  0  1  0  0  0  0  0  0  0  0  0
   17.7600  -58.3790   33.7050 C   0  0  1  0  0  0  0  0  0  0  0  0
   19.0460  -58.5540   34.2630 O   0  0  0  0  0  0  0  0  0  0  0  0
   17.8590  -59.0060   31.3690 O   0  0  0  0  0  0  0  0  0  0  0  0
   16.6380  -56.2480   30.8910 C   0  0  0  0  0  0  0  0  0  0  0  0
   17.6800  -55.3680   30.7820 O   0  0  0  0  0  0  0  0  0  0  0  0
   18.4200  -54.9480   35.0110 H   0  0  0  0  0  0  0  0  0  0  0  0
   17.1400  -54.5850   37.0350 H   0  0  0  0  0  0  0  0  0  0  0  0
   19.3340  -50.9350   37.6980 H   0  0  0  0  0  0  0  0  0  0  0  0
   20.5750  -51.3810   35.6450 H   0  0  0  0  0  0  0  0  0  0  0  0
   15.7160  -52.9770   37.6670 H   0  0  0  0  0  0  0  0  0  0  0  0
   15.4400  -51.8090   38.9690 H   0  0  0  0  0  0  0  0  0  0  0  0
   16.9510  -55.5410   39.7540 H   0  0  0  0  0  0  0  0  0  0  0  0
   14.8460  -58.8050   33.6120 H   0  0  0  0  0  0  0  0  0  0  0  0
   11.5510  -57.2530   37.8440 H   0  0  0  0  0  0  0  0  0  0  0  0
   17.7860  -56.7130   34.9850 H   0  0  0  0  0  0  0  0  0  0  0  0
   15.7820  -57.7340   32.2370 H   0  0  0  0  0  0  0  0  0  0  0  0
   18.8070  -57.3470   32.1540 H   0  0  0  0  0  0  0  0  0  0  0  0
   17.2830  -59.3430   33.7330 H   0  0  0  0  0  0  0  0  0  0  0  0
   19.4550  -59.2970   33.7520 H   0  0  0  0  0  0  0  0  0  0  0  0
   18.5900  -59.6830   31.5390 H   0  0  0  0  0  0  0  0  0  0  0  0
   15.6350  -55.7850   30.8150 H   0  0  0  0  0  0  0  0  0  0  0  0
   16.6990  -56.9750   30.0420 H   0  0  0  0  0  0  0  0  0  0  0  0
   17.4090  -54.6340   30.1710 H   0  0  0  0  0  0  0  0  0  0  0  0
  1  2  1  0  0  0  0
  2  3  2  0  0  0  0
  2  7  1  0  0  0  0
  3  4  1  0  0  0  0
  4 33  1  0  0  0  0
  4  5  2  0  0  0  0
  5  8  1  0  0  0  0
  6  5  1  0  0  0  0
  6 34  1  0  0  0  0
  7  6  2  0  0  0  0
  8  9  1  0  0  0  0
  9 37  1  0  0  0  0
  9 10  1  0  0  0  0
 10 11  2  0  0  0  0
 12 10  1  0  0  0  0
 12 38  1  0  0  0  0
 13 21  1  0  0  0  0
 13 12  1  0  0  0  0
 14 13  2  0  0  0  0
 15 19  2  0  0  0  0
 15 14  1  0  0  0  0
 16 15  1  0  0  0  0
 17 16  1  0  0  0  0
 17 18  2  0  0  0  0
 18 19  1  0  0  0  0
 19 20  1  0  0  0  0
 20 22  1  0  0  0  0
 20 21  2  0  0  0  0
 23 41  1  1  0  0  0
 23 16  1  0  0  0  0
 24 23  1  0  0  0  0
 25 42  1  1  0  0  0
 25 26  1  0  0  0  0
 25 24  1  0  0  0  0
 26 43  1  6  0  0  0
 26 27  1  0  0  0  0
 27 44  1  1  0  0  0
 27 28  1  0  0  0  0
 27 23  1  0  0  0  0
 29 46  1  0  0  0  0
 29 26  1  0  0  0  0
 30 25  1  0  0  0  0
 31 30  1  0  0  0  0
 32  3  1  0  0  0  0
 35  7  1  0  0  0  0
 36  9  1  0  0  0  0
 39 17  1  0  0  0  0
 40 22  1  0  0  0  0
 45 28  1  0  0  0  0
 47 30  1  0  0  0  0
 48 30  1  0  0  0  0
 49 31  1  0  0  0  0
M  END
>  <Pose>
1

>  <Score>
-8.49

$$$$
