
 OpenBabel03232204043D

 49 52  0  0  0  0  0  0  0  0999 V2000
   13.6270  -58.5440   37.5580 B   0  0  0  0  0  0  0  0  0  0  0  0
   14.7710  -57.0180   37.6530 C   0  0  0  0  0  0  0  0  0  0  0  0
   14.5380  -56.0280   38.5800 C   0  0  0  0  0  0  0  0  0  0  0  0
   15.3520  -54.9260   38.6610 C   0  0  0  0  0  0  0  0  0  0  0  0
   16.4020  -54.8400   37.7920 C   0  0  0  0  0  0  0  0  0  0  0  0
   16.6350  -55.8440   36.8540 C   0  0  0  0  0  0  0  0  0  0  0  0
   15.8330  -56.9620   36.7520 C   0  0  0  0  0  0  0  0  0  0  0  0
   16.0730  -58.0570   35.7790 C   0  0  0  0  0  0  0  0  0  0  0  0
   16.7780  -57.5550   34.6160 N   0  0  0  0  0  0  0  0  0  0  0  0
   17.5780  -58.6530   34.0140 C   0  0  0  0  0  0  0  0  0  0  0  0
   18.4220  -57.9340   32.9670 C   0  0  0  0  0  0  0  0  0  0  0  0
   18.0150  -56.6000   32.7170 N   0  0  0  0  0  0  0  0  0  0  0  0
   16.5980  -56.4760   32.4940 C   0  0  0  0  0  0  0  0  0  0  0  0
   15.8360  -57.2340   33.5410 C   0  0  0  0  0  0  0  0  0  0  0  0
   18.6150  -55.5680   33.4730 C   0  0  0  0  0  0  0  0  0  0  0  0
   19.3970  -54.5950   32.7330 C   0  0  0  0  0  0  0  0  0  0  0  0
   20.1120  -53.7580   33.3230 O   0  0  0  0  0  0  0  0  0  0  0  0
   19.3750  -54.5680   31.3190 N   0  0  0  0  0  0  0  0  0  0  0  0
   19.9440  -55.6360   30.5060 C   0  0  0  0  0  0  0  0  0  0  0  0
   20.8240  -55.3230   29.3690 C   0  0  0  0  0  0  0  0  0  0  0  0
   19.4050  -55.7090   29.0810 C   0  0  0  0  0  0  0  0  0  0  0  0
   17.2360  -53.7350   37.8570 O   0  0  0  0  0  0  0  0  0  0  0  0
   16.9270  -52.5700   38.5780 C   0  0  0  0  0  0  0  0  0  0  0  0
   16.0840  -52.8740   39.7740 C   0  0  0  0  0  0  0  0  0  0  0  0
   15.1500  -53.9070   39.5830 O   0  0  0  0  0  0  0  0  0  0  0  0
   13.7050  -56.0770   39.2840 H   0  0  0  0  0  0  0  0  0  0  0  0
   17.4800  -55.7010   36.2270 H   0  0  0  0  0  0  0  0  0  0  0  0
   15.1540  -58.5810   35.4900 H   0  0  0  0  0  0  0  0  0  0  0  0
   16.7500  -58.7940   36.2760 H   0  0  0  0  0  0  0  0  0  0  0  0
   18.1660  -59.1860   34.7560 H   0  0  0  0  0  0  0  0  0  0  0  0
   16.8430  -59.3390   33.5450 H   0  0  0  0  0  0  0  0  0  0  0  0
   18.2740  -58.5190   32.0100 H   0  0  0  0  0  0  0  0  0  0  0  0
   19.5040  -58.0390   33.1840 H   0  0  0  0  0  0  0  0  0  0  0  0
   16.3500  -56.8180   31.4590 H   0  0  0  0  0  0  0  0  0  0  0  0
   16.3060  -55.3850   32.4880 H   0  0  0  0  0  0  0  0  0  0  0  0
   14.8980  -56.8020   33.8680 H   0  0  0  0  0  0  0  0  0  0  0  0
   15.5370  -58.2120   33.0440 H   0  0  0  0  0  0  0  0  0  0  0  0
   17.8510  -55.0350   34.0890 H   0  0  0  0  0  0  0  0  0  0  0  0
   19.2950  -56.0380   34.2400 H   0  0  0  0  0  0  0  0  0  0  0  0
   18.9420  -53.7690   30.7720 H   0  0  0  0  0  0  0  0  0  0  0  0
   20.0830  -56.5700   31.0580 H   0  0  0  0  0  0  0  0  0  0  0  0
   21.0980  -54.2780   29.0890 H   0  0  0  0  0  0  0  0  0  0  0  0
   21.5930  -56.0660   29.0790 H   0  0  0  0  0  0  0  0  0  0  0  0
   18.7180  -54.9020   28.7610 H   0  0  0  0  0  0  0  0  0  0  0  0
   19.1830  -56.7460   28.7580 H   0  0  0  0  0  0  0  0  0  0  0  0
   16.4710  -51.8410   37.8880 H   0  0  0  0  0  0  0  0  0  0  0  0
   17.9070  -52.1680   38.9620 H   0  0  0  0  0  0  0  0  0  0  0  0
   16.7550  -53.1520   40.6350 H   0  0  0  0  0  0  0  0  0  0  0  0
   15.4980  -51.9570   40.0190 H   0  0  0  0  0  0  0  0  0  0  0  0
  1  2  1  0  0  0  0
  2  3  1  0  0  0  0
  3  4  2  0  0  0  0
  3 26  1  0  0  0  0
  4 25  1  0  0  0  0
  5 22  1  0  0  0  0
  5  4  1  0  0  0  0
  6  5  2  0  0  0  0
  7  6  1  0  0  0  0
  7  2  2  0  0  0  0
  8 29  1  0  0  0  0
  8  7  1  0  0  0  0
  9  8  1  0  0  0  0
 10  9  1  0  0  0  0
 10 30  1  0  0  0  0
 11 33  1  0  0  0  0
 11 10  1  0  0  0  0
 12 11  1  0  0  0  0
 12 15  1  0  0  0  0
 13 12  1  0  0  0  0
 13 14  1  0  0  0  0
 14 36  1  0  0  0  0
 14  9  1  0  0  0  0
 15 38  1  0  0  0  0
 15 39  1  0  0  0  0
 16 17  2  0  0  0  0
 16 15  1  0  0  0  0
 18 16  1  0  0  0  0
 19 41  1  0  0  0  0
 19 18  1  0  0  0  0
 20 19  1  0  0  0  0
 21 20  1  0  0  0  0
 21 19  1  0  0  0  0
 22 23  1  0  0  0  0
 23 47  1  0  0  0  0
 23 24  1  0  0  0  0
 24 49  1  0  0  0  0
 24 48  1  0  0  0  0
 25 24  1  0  0  0  0
 27  6  1  0  0  0  0
 28  8  1  0  0  0  0
 31 10  1  0  0  0  0
 32 11  1  0  0  0  0
 34 13  1  0  0  0  0
 35 13  1  0  0  0  0
 37 14  1  0  0  0  0
 40 18  1  0  0  0  0
 42 20  1  0  0  0  0
 43 20  1  0  0  0  0
 44 21  1  0  0  0  0
 45 21  1  0  0  0  0
 46 23  1  0  0  0  0
M  END
>  <Pose>
1

>  <Score>
-6.74

$$$$
