
 OpenBabel03232204043D

 44 47  0  0  0  0  0  0  0  0999 V2000
   17.8940  -57.9610   34.5390 B   0  0  0  0  0  0  0  0  0  0  0  0
   18.6210  -56.2280   34.2580 C   0  0  0  0  0  0  0  0  0  0  0  0
   18.8690  -55.3520   35.3210 C   0  0  0  0  0  0  0  0  0  0  0  0
   19.3960  -54.0930   35.1230 C   0  0  0  0  0  0  0  0  0  0  0  0
   19.6920  -53.6760   33.8190 C   0  0  0  0  0  0  0  0  0  0  0  0
   19.4430  -54.5530   32.7740 C   0  0  0  0  0  0  0  0  0  0  0  0
   18.9170  -55.8040   32.9920 C   0  0  0  0  0  0  0  0  0  0  0  0
   20.2240  -52.3560   33.8280 N   0  0  0  0  0  0  0  0  0  0  0  0
   20.2600  -51.9350   35.1830 C   0  0  0  0  0  0  0  0  0  0  0  0
   20.6510  -50.8440   35.6810 O   0  0  0  0  0  0  0  0  0  0  0  0
   19.7380  -53.0190   36.0430 C   0  0  0  0  0  0  0  0  0  0  0  0
   19.6190  -53.0020   37.3270 N   0  0  0  0  0  0  0  0  0  0  0  0
   19.1100  -54.0880   38.0420 N   0  0  0  0  0  0  0  0  0  0  0  0
   18.2590  -53.9310   39.1630 C   0  0  0  0  0  0  0  0  0  0  0  0
   18.6800  -54.2510   40.2980 O   0  0  0  0  0  0  0  0  0  0  0  0
   16.9110  -53.4060   38.9950 C   0  0  0  0  0  0  0  0  0  0  0  0
   15.8890  -54.4330   39.0500 N   0  0  0  0  0  0  0  0  0  0  0  0
   14.9580  -54.5860   39.9760 N   0  0  0  0  0  0  0  0  0  0  0  0
   14.1990  -55.6330   39.6970 N   0  0  0  0  0  0  0  0  0  0  0  0
   14.6500  -56.1800   38.5550 C   0  0  0  0  0  0  0  0  0  0  0  0
   15.6870  -55.4170   38.1850 N   0  0  0  0  0  0  0  0  0  0  0  0
   14.0880  -57.3570   37.9000 C   0  0  0  0  0  0  0  0  0  0  0  0
   14.8630  -58.1040   37.0400 C   0  0  0  0  0  0  0  0  0  0  0  0
   14.3290  -59.2320   36.4110 C   0  0  0  0  0  0  0  0  0  0  0  0
   13.0300  -59.6300   36.6260 C   0  0  0  0  0  0  0  0  0  0  0  0
   12.2500  -58.8810   37.4900 C   0  0  0  0  0  0  0  0  0  0  0  0
   12.7880  -57.7620   38.1100 C   0  0  0  0  0  0  0  0  0  0  0  0
   20.6670  -51.5300   32.7230 C   0  0  0  0  0  0  0  0  0  0  0  0
   21.9880  -51.9430   32.2760 C   0  0  0  0  0  0  0  0  0  0  0  0
   23.0800  -52.2740   31.8940 C   0  0  0  0  0  0  0  0  0  0  0  0
   18.6270  -55.7090   36.3150 H   0  0  0  0  0  0  0  0  0  0  0  0
   19.6560  -54.2750   31.7530 H   0  0  0  0  0  0  0  0  0  0  0  0
   18.7180  -56.4980   32.1660 H   0  0  0  0  0  0  0  0  0  0  0  0
   19.3780  -55.0460   37.7380 H   0  0  0  0  0  0  0  0  0  0  0  0
   16.8230  -52.8490   38.0430 H   0  0  0  0  0  0  0  0  0  0  0  0
   16.7280  -52.6560   39.8030 H   0  0  0  0  0  0  0  0  0  0  0  0
   15.8950  -57.8090   36.8530 H   0  0  0  0  0  0  0  0  0  0  0  0
   14.9400  -59.8240   35.7300 H   0  0  0  0  0  0  0  0  0  0  0  0
   12.6330  -60.5190   36.1210 H   0  0  0  0  0  0  0  0  0  0  0  0
   11.2240  -59.1900   37.6640 H   0  0  0  0  0  0  0  0  0  0  0  0
   12.1880  -57.1650   38.7910 H   0  0  0  0  0  0  0  0  0  0  0  0
   19.9700  -51.5940   31.8510 H   0  0  0  0  0  0  0  0  0  0  0  0
   20.6370  -50.4640   33.0550 H   0  0  0  0  0  0  0  0  0  0  0  0
   24.0510  -52.5760   31.5390 H   0  0  0  0  0  0  0  0  0  0  0  0
  2  1  1  0  0  0  0
  2  3  1  0  0  0  0
  3 31  1  0  0  0  0
  4  3  2  0  0  0  0
  4 11  1  0  0  0  0
  5  8  1  0  0  0  0
  5  4  1  0  0  0  0
  6  7  1  0  0  0  0
  6  5  2  0  0  0  0
  7  2  2  0  0  0  0
  8  9  1  0  0  0  0
  9 10  2  0  0  0  0
  9 11  1  0  0  0  0
 11 12  2  0  0  0  0
 12 13  1  0  0  0  0
 13 14  1  0  0  0  0
 14 15  2  0  0  0  0
 16 17  1  0  0  0  0
 16 14  1  0  0  0  0
 16 36  1  0  0  0  0
 17 18  1  0  0  0  0
 19 18  1  0  0  0  0
 20 19  2  0  0  0  0
 21 20  1  0  0  0  0
 21 17  1  0  0  0  0
 22 27  1  0  0  0  0
 22 20  1  0  0  0  0
 23 22  2  0  0  0  0
 24 25  2  0  0  0  0
 24 23  1  0  0  0  0
 25 26  1  0  0  0  0
 26 40  1  0  0  0  0
 26 27  2  0  0  0  0
 27 41  1  0  0  0  0
 28 43  1  0  0  0  0
 28  8  1  0  0  0  0
 29 28  1  0  0  0  0
 30 29  3  0  0  0  0
 32  6  1  0  0  0  0
 33  7  1  0  0  0  0
 34 13  1  0  0  0  0
 35 16  1  0  0  0  0
 37 23  1  0  0  0  0
 38 24  1  0  0  0  0
 39 25  1  0  0  0  0
 42 28  1  0  0  0  0
 44 30  1  0  0  0  0
M  END
>  <Pose>
1

>  <Score>
-7.68

$$$$
