
 OpenBabel03232204043D

 58 59  0  0  0  0  0  0  0  0999 V2000
   15.6000  -59.4610   33.6630 B   0  0  0  0  0  0  0  0  0  0  0  0
   15.7200  -58.1410   35.0380 C   0  0  0  0  0  0  0  0  0  0  0  0
   14.7970  -58.0940   36.0930 C   0  0  0  0  0  0  0  0  0  0  0  0
   14.9860  -57.1130   37.0240 C   0  0  0  0  0  0  0  0  0  0  0  0
   16.0080  -56.1880   36.9780 C   0  0  0  0  0  0  0  0  0  0  0  0
   16.9090  -56.2330   35.9390 C   0  0  0  0  0  0  0  0  0  0  0  0
   16.7520  -57.2310   34.9650 C   0  0  0  0  0  0  0  0  0  0  0  0
   15.9590  -55.2870   38.0770 N   0  0  0  0  0  0  0  0  0  0  0  0
   14.8050  -55.6790   38.8650 C   0  0  0  0  0  0  0  0  0  0  0  0
   14.4390  -55.1300   39.9250 O   0  0  0  0  0  0  0  0  0  0  0  0
   14.2090  -56.8060   38.1840 C   0  0  0  0  0  0  0  0  0  0  0  0
   13.0920  -57.3780   38.4210 N   0  0  0  0  0  0  0  0  0  0  0  0
   12.2910  -58.1520   38.0730 N   0  0  0  0  0  0  0  0  0  0  0  0
   11.3070  -59.0810   37.6650 C   0  0  0  0  0  0  0  0  0  0  0  0
   10.9640  -59.4860   36.5770 O   0  0  0  0  0  0  0  0  0  0  0  0
   10.5690  -59.6200   38.9120 C   0  0  0  0  0  0  0  0  0  0  0  0
   11.5670  -59.5690   39.9540 O   0  0  0  0  0  0  0  0  0  0  0  0
   11.1130  -58.9940   41.1760 N   0  0  0  0  0  0  0  0  0  0  0  0
   10.2320  -59.5700   41.8960 C   0  0  0  0  0  0  0  0  0  0  0  0
    9.7760  -58.9590   43.1230 C   0  0  0  0  0  0  0  0  0  0  0  0
   10.1530  -59.3240   44.3720 C   0  0  0  0  0  0  0  0  0  0  0  0
    9.5270  -58.6410   45.4460 C   0  0  0  0  0  0  0  0  0  0  0  0
    8.6180  -57.6720   45.3590 C   0  0  0  0  0  0  0  0  0  0  0  0
    8.2780  -57.3400   44.0910 C   0  0  0  0  0  0  0  0  0  0  0  0
    8.7480  -57.8760   42.9530 C   0  0  0  0  0  0  0  0  0  0  0  0
    8.0870  -57.0780   46.5090 O   0  0  0  0  0  0  0  0  0  0  0  0
    7.8310  -55.6790   46.5520 C   0  0  0  0  0  0  0  0  0  0  0  0
   16.8340  -54.2020   38.4890 C   0  0  0  0  0  0  0  0  0  0  0  0
   18.0800  -54.2900   37.9040 N   0  0  0  0  0  0  0  0  0  0  0  0
   18.0160  -54.6100   36.5360 C   0  0  0  0  0  0  0  0  0  0  0  0
   18.9820  -53.7150   35.7540 C   0  0  0  0  0  0  0  0  0  0  0  0
   18.6260  -52.4060   36.1800 O   0  0  0  0  0  0  0  0  0  0  0  0
   19.1430  -52.1880   37.4640 C   0  0  0  0  0  0  0  0  0  0  0  0
   19.0660  -53.3910   38.3520 C   0  0  0  0  0  0  0  0  0  0  0  0
   14.0760  -58.8270   36.0840 H   0  0  0  0  0  0  0  0  0  0  0  0
   17.7440  -55.5460   35.8390 H   0  0  0  0  0  0  0  0  0  0  0  0
   17.4360  -57.2500   34.1460 H   0  0  0  0  0  0  0  0  0  0  0  0
   11.3370  -57.6630   38.9560 H   0  0  0  0  0  0  0  0  0  0  0  0
    9.9950  -58.6190   39.1540 H   0  0  0  0  0  0  0  0  0  0  0  0
    9.9300  -60.3850   38.8060 H   0  0  0  0  0  0  0  0  0  0  0  0
    9.8170  -60.5360   41.6160 H   0  0  0  0  0  0  0  0  0  0  0  0
   10.8780  -60.0800   44.5480 H   0  0  0  0  0  0  0  0  0  0  0  0
    9.8700  -58.9660   46.4470 H   0  0  0  0  0  0  0  0  0  0  0  0
    7.5060  -56.5260   44.0240 H   0  0  0  0  0  0  0  0  0  0  0  0
    8.5280  -57.6480   41.9530 H   0  0  0  0  0  0  0  0  0  0  0  0
    6.8830  -55.4410   46.0000 H   0  0  0  0  0  0  0  0  0  0  0  0
    7.6080  -55.4280   47.6380 H   0  0  0  0  0  0  0  0  0  0  0  0
    8.6800  -55.0550   46.2280 H   0  0  0  0  0  0  0  0  0  0  0  0
   16.8170  -54.2380   39.5990 H   0  0  0  0  0  0  0  0  0  0  0  0
   16.2710  -53.2510   38.2520 H   0  0  0  0  0  0  0  0  0  0  0  0
   18.2240  -55.6860   36.3280 H   0  0  0  0  0  0  0  0  0  0  0  0
   16.9960  -54.4320   36.1620 H   0  0  0  0  0  0  0  0  0  0  0  0
   18.7280  -53.8130   34.7050 H   0  0  0  0  0  0  0  0  0  0  0  0
   20.0240  -53.9270   35.9710 H   0  0  0  0  0  0  0  0  0  0  0  0
   18.6380  -51.3370   37.9370 H   0  0  0  0  0  0  0  0  0  0  0  0
   20.2200  -51.9240   37.3240 H   0  0  0  0  0  0  0  0  0  0  0  0
   20.1040  -53.9150   38.3700 H   0  0  0  0  0  0  0  0  0  0  0  0
   18.9050  -53.0930   39.3920 H   0  0  0  0  0  0  0  0  0  0  0  0
  1  2  1  0  0  0  0
  2  3  1  0  0  0  0
  3  4  2  0  0  0  0
  4 11  1  0  0  0  0
  5  4  1  0  0  0  0
  5  8  1  0  0  0  0
  6  5  2  0  0  0  0
  7  2  2  0  0  0  0
  7  6  1  0  0  0  0
  8 28  1  0  0  0  0
  8  9  1  0  0  0  0
  9 10  2  0  0  0  0
 11 12  2  0  0  0  0
 11  9  1  0  0  0  0
 13 12  1  0  0  0  0
 13 38  1  0  0  0  0
 14 13  1  0  0  0  0
 14 16  1  0  0  0  0
 15 14  2  0  0  0  0
 16 39  1  0  0  0  0
 16 17  1  0  0  0  0
 17 18  1  0  0  0  0
 18 19  2  0  0  0  0
 19 20  1  0  0  0  0
 20 21  1  0  0  0  0
 21 42  1  0  0  0  0
 21 22  2  0  0  0  0
 22 43  1  0  0  0  0
 23 22  1  0  0  0  0
 23 26  1  0  0  0  0
 24 23  2  0  0  0  0
 25 20  2  0  0  0  0
 25 24  1  0  0  0  0
 26 27  1  0  0  0  0
 27 47  1  0  0  0  0
 28 49  1  0  0  0  0
 29 34  1  0  0  0  0
 29 28  1  0  0  0  0
 31 54  1  0  0  0  0
 31 32  1  0  0  0  0
 32 33  1  0  0  0  0
 33 55  1  0  0  0  0
 33 34  1  0  0  0  0
 34 57  1  0  0  0  0
 34 58  1  0  0  0  0
 35  3  1  0  0  0  0
 36  6  1  0  0  0  0
 37  7  1  0  0  0  0
 40 16  1  0  0  0  0
 41 19  1  0  0  0  0
 44 24  1  0  0  0  0
 45 25  1  0  0  0  0
 46 27  1  0  0  0  0
 48 27  1  0  0  0  0
 50 28  1  0  0  0  0
 51 30  1  0  0  0  0
 52 30  1  0  0  0  0
 53 31  1  0  0  0  0
 56 33  1  0  0  0  0
M  END
>  <Pose>
1

>  <Score>
-7.52

$$$$
