
 OpenBabel03232204043D

 59 62  0  0  0  0  0  0  0  0999 V2000
   14.2260  -56.0220   38.8470 B   0  0  0  0  0  0  0  0  0  0  0  0
   14.4160  -57.4450   37.5680 C   0  0  0  0  0  0  0  0  0  0  0  0
   15.5200  -57.5350   36.7520 C   0  0  0  0  0  0  0  0  0  0  0  0
   15.7010  -58.5440   35.8120 C   0  0  0  0  0  0  0  0  0  0  0  0
   14.7070  -59.5190   35.6920 C   0  0  0  0  0  0  0  0  0  0  0  0
   13.6000  -59.4290   36.5110 C   0  0  0  0  0  0  0  0  0  0  0  0
   13.4390  -58.4100   37.4450 C   0  0  0  0  0  0  0  0  0  0  0  0
   15.0720  -60.4690   34.6800 N   0  0  0  0  0  0  0  0  0  0  0  0
   16.3310  -60.0540   34.1680 C   0  0  0  0  0  0  0  0  0  0  0  0
   16.9730  -60.6370   33.2660 O   0  0  0  0  0  0  0  0  0  0  0  0
   16.7520  -58.8510   34.8590 C   0  0  0  0  0  0  0  0  0  0  0  0
   17.8330  -58.1820   34.6720 N   0  0  0  0  0  0  0  0  0  0  0  0
   18.7960  -58.5400   33.7360 N   0  0  0  0  0  0  0  0  0  0  0  0
   19.2210  -57.6000   32.7730 C   0  0  0  0  0  0  0  0  0  0  0  0
   19.7140  -57.9670   31.6510 O   0  0  0  0  0  0  0  0  0  0  0  0
   19.1340  -56.1320   32.9710 C   0  0  0  0  0  0  0  0  0  0  0  0
   18.8350  -55.8370   34.3350 O   0  0  0  0  0  0  0  0  0  0  0  0
   19.1690  -54.6020   34.8630 C   0  0  0  0  0  0  0  0  0  0  0  0
   18.6840  -54.2220   36.0970 C   0  0  0  0  0  0  0  0  0  0  0  0
   19.0240  -52.9780   36.6210 C   0  0  0  0  0  0  0  0  0  0  0  0
   19.8440  -52.1200   35.9150 C   0  0  0  0  0  0  0  0  0  0  0  0
   20.3160  -52.5100   34.6960 C   0  0  0  0  0  0  0  0  0  0  0  0
   19.9770  -53.7470   34.1750 C   0  0  0  0  0  0  0  0  0  0  0  0
   17.8680  -55.0500   36.8240 O   0  0  0  0  0  0  0  0  0  0  0  0
   16.9320  -54.5200   37.7270 C   0  0  0  0  0  0  0  0  0  0  0  0
   14.2720  -61.6180   34.2930 C   0  0  0  0  0  0  0  0  0  0  0  0
   14.7820  -62.8720   34.7170 N   0  0  0  0  0  0  0  0  0  0  0  0
   13.8470  -63.7480   35.3360 C   0  0  0  0  0  0  0  0  0  0  0  0
   14.5090  -65.0390   35.8280 C   0  0  0  0  0  0  0  0  0  0  0  0
   15.9260  -64.8210   35.7840 N   0  0  0  0  0  0  0  0  0  0  0  0
   16.4300  -64.6680   34.4550 C   0  0  0  0  0  0  0  0  0  0  0  0
   15.6910  -63.5100   33.8090 C   0  0  0  0  0  0  0  0  0  0  0  0
   16.6790  -65.7230   36.6070 C   0  0  0  0  0  0  0  0  0  0  0  0
   16.2920  -56.7730   36.8490 H   0  0  0  0  0  0  0  0  0  0  0  0
   12.7940  -60.1700   36.4540 H   0  0  0  0  0  0  0  0  0  0  0  0
   12.5770  -58.3340   38.0870 H   0  0  0  0  0  0  0  0  0  0  0  0
   19.1930  -59.4890   33.7520 H   0  0  0  0  0  0  0  0  0  0  0  0
   20.0670  -55.6050   32.7160 H   0  0  0  0  0  0  0  0  0  0  0  0
   18.3390  -55.6980   32.3380 H   0  0  0  0  0  0  0  0  0  0  0  0
   18.6340  -52.6900   37.5980 H   0  0  0  0  0  0  0  0  0  0  0  0
   20.1260  -51.1400   36.3020 H   0  0  0  0  0  0  0  0  0  0  0  0
   20.9490  -51.8600   34.1390 H   0  0  0  0  0  0  0  0  0  0  0  0
   20.3790  -54.0020   33.2090 H   0  0  0  0  0  0  0  0  0  0  0  0
   17.3980  -53.8410   38.4750 H   0  0  0  0  0  0  0  0  0  0  0  0
   16.2260  -53.8710   37.1450 H   0  0  0  0  0  0  0  0  0  0  0  0
   16.3940  -55.3730   38.1930 H   0  0  0  0  0  0  0  0  0  0  0  0
   13.2040  -61.4860   34.5940 H   0  0  0  0  0  0  0  0  0  0  0  0
   14.2530  -61.6210   33.1720 H   0  0  0  0  0  0  0  0  0  0  0  0
   13.4550  -63.2570   36.2500 H   0  0  0  0  0  0  0  0  0  0  0  0
   12.9700  -63.9890   34.7000 H   0  0  0  0  0  0  0  0  0  0  0  0
   14.2120  -65.2900   36.8560 H   0  0  0  0  0  0  0  0  0  0  0  0
   14.1630  -65.8540   35.1640 H   0  0  0  0  0  0  0  0  0  0  0  0
   16.3280  -65.5660   33.8190 H   0  0  0  0  0  0  0  0  0  0  0  0
   17.5260  -64.4580   34.5440 H   0  0  0  0  0  0  0  0  0  0  0  0
   15.1040  -63.8830   32.9270 H   0  0  0  0  0  0  0  0  0  0  0  0
   16.4560  -62.7720   33.4990 H   0  0  0  0  0  0  0  0  0  0  0  0
   17.5230  -65.1870   37.1210 H   0  0  0  0  0  0  0  0  0  0  0  0
   17.0860  -66.5930   36.0590 H   0  0  0  0  0  0  0  0  0  0  0  0
   16.0030  -66.0590   37.4340 H   0  0  0  0  0  0  0  0  0  0  0  0
  2  1  1  0  0  0  0
  3 34  1  0  0  0  0
  3  2  2  0  0  0  0
  4  3  1  0  0  0  0
  5  4  2  0  0  0  0
  5  6  1  0  0  0  0
  6  7  2  0  0  0  0
  7  2  1  0  0  0  0
  7 36  1  0  0  0  0
  8  5  1  0  0  0  0
  9  8  1  0  0  0  0
  9 11  1  0  0  0  0
 10  9  2  0  0  0  0
 11  4  1  0  0  0  0
 12 11  2  0  0  0  0
 13 37  1  0  0  0  0
 13 12  1  0  0  0  0
 14 16  1  0  0  0  0
 14 13  1  0  0  0  0
 15 14  2  0  0  0  0
 16 17  1  0  0  0  0
 17 18  1  0  0  0  0
 18 19  1  0  0  0  0
 19 20  2  0  0  0  0
 19 24  1  0  0  0  0
 20 40  1  0  0  0  0
 21 41  1  0  0  0  0
 21 20  1  0  0  0  0
 22 21  2  0  0  0  0
 23 22  1  0  0  0  0
 23 18  2  0  0  0  0
 24 25  1  0  0  0  0
 25 46  1  0  0  0  0
 25 44  1  0  0  0  0
 26 47  1  0  0  0  0
 26  8  1  0  0  0  0
 26 27  1  0  0  0  0
 27 28  1  0  0  0  0
 28 29  1  0  0  0  0
 28 49  1  0  0  0  0
 29 51  1  0  0  0  0
 30 29  1  0  0  0  0
 30 33  1  0  0  0  0
 31 54  1  0  0  0  0
 31 30  1  0  0  0  0
 32 31  1  0  0  0  0
 32 27  1  0  0  0  0
 33 57  1  0  0  0  0
 33 59  1  0  0  0  0
 35  6  1  0  0  0  0
 38 16  1  0  0  0  0
 39 16  1  0  0  0  0
 42 22  1  0  0  0  0
 43 23  1  0  0  0  0
 45 25  1  0  0  0  0
 48 26  1  0  0  0  0
 50 28  1  0  0  0  0
 52 29  1  0  0  0  0
 53 31  1  0  0  0  0
 55 32  1  0  0  0  0
 56 32  1  0  0  0  0
 58 33  1  0  0  0  0
M  END
>  <Pose>
1

>  <Score>
-6.48

$$$$
