
 OpenBabel03232204043D

 39 42  0  0  1  0  0  0  0  0999 V2000
   16.5380  -58.0640   40.1050 B   0  0  0  0  0  0  0  0  0  0  0  0
   15.3440  -57.6490   38.6820 C   0  0  0  0  0  0  0  0  0  0  0  0
   15.3270  -58.4350   37.5500 C   0  0  0  0  0  0  0  0  0  0  0  0
   14.4590  -58.1520   36.4910 C   0  0  0  0  0  0  0  0  0  0  0  0
   13.6370  -57.0780   36.6190 C   0  0  0  0  0  0  0  0  0  0  0  0
   13.6560  -56.2740   37.7770 C   0  0  0  0  0  0  0  0  0  0  0  0
   14.5130  -56.5600   38.8150 C   0  0  0  0  0  0  0  0  0  0  0  0
   12.8430  -56.9640   35.4450 N   0  0  0  0  0  0  0  0  0  0  0  0
   13.1710  -57.9960   34.5470 C   0  0  0  0  0  0  0  0  0  0  0  0
   12.6760  -58.2120   33.4130 O   0  0  0  0  0  0  0  0  0  0  0  0
   14.2400  -58.8260   35.1770 C   0  0  1  0  0  0  0  0  0  0  0  0
   15.4620  -58.8120   34.3640 C   0  0  0  0  0  0  0  0  0  0  0  0
   16.0460  -59.9600   33.9370 C   0  0  0  0  0  0  0  0  0  0  0  0
   15.4870  -61.1990   34.2640 O   0  0  0  0  0  0  0  0  0  0  0  0
   14.3370  -61.2670   35.0260 C   0  0  0  0  0  0  0  0  0  0  0  0
   13.7580  -60.1830   35.4480 C   0  0  0  0  0  0  0  0  0  0  0  0
   12.5390  -60.3500   36.2520 C   0  0  0  0  0  0  0  0  0  0  0  0
   11.5920  -60.4860   36.8700 N   0  0  0  0  0  0  0  0  0  0  0  0
   13.8210  -62.5750   35.3230 N   0  0  0  0  0  0  0  0  0  0  0  0
   17.2100  -59.8990   33.1650 C   0  0  0  0  0  0  0  0  0  0  0  0
   17.7370  -60.9620   32.7780 O   0  0  0  0  0  0  0  0  0  0  0  0
   17.7470  -58.6730   32.8510 C   0  0  0  0  0  0  0  0  0  0  0  0
   17.1110  -57.5400   33.3140 C   0  0  0  0  0  0  0  0  0  0  0  0
   16.0400  -57.6580   34.0220 O   0  0  0  0  0  0  0  0  0  0  0  0
   17.6840  -56.1790   32.9800 C   0  0  0  0  0  0  0  0  0  0  0  0
   16.8660  -55.5600   32.0350 O   0  0  0  0  0  0  0  0  0  0  0  0
   11.8390  -55.8990   35.2540 C   0  0  0  0  0  0  0  0  0  0  0  0
   15.9670  -59.2990   37.4140 H   0  0  0  0  0  0  0  0  0  0  0  0
   12.9930  -55.4150   37.8710 H   0  0  0  0  0  0  0  0  0  0  0  0
   14.5260  -55.9370   39.7130 H   0  0  0  0  0  0  0  0  0  0  0  0
   13.1860  -63.0120   34.6570 H   0  0  0  0  0  0  0  0  0  0  0  0
   14.1070  -63.0220   36.1920 H   0  0  0  0  0  0  0  0  0  0  0  0
   18.6430  -58.5530   32.2600 H   0  0  0  0  0  0  0  0  0  0  0  0
   17.7650  -55.5520   33.8680 H   0  0  0  0  0  0  0  0  0  0  0  0
   18.6820  -56.3070   32.4740 H   0  0  0  0  0  0  0  0  0  0  0  0
   17.3630  -55.4950   31.1650 H   0  0  0  0  0  0  0  0  0  0  0  0
   11.5830  -55.4380   36.2260 H   0  0  0  0  0  0  0  0  0  0  0  0
   12.2770  -55.1380   34.5880 H   0  0  0  0  0  0  0  0  0  0  0  0
   10.9020  -56.3510   34.8400 H   0  0  0  0  0  0  0  0  0  0  0  0
  2  7  1  0  0  0  0
  2  1  1  0  0  0  0
  3  2  2  0  0  0  0
  4  5  2  0  0  0  0
  4  3  1  0  0  0  0
  5  6  1  0  0  0  0
  6 29  1  0  0  0  0
  6  7  2  0  0  0  0
  7 30  1  0  0  0  0
  8  5  1  0  0  0  0
  9 11  1  0  0  0  0
  9  8  1  0  0  0  0
 10  9  2  0  0  0  0
 11 12  1  6  0  0  0
 11 16  1  0  0  0  0
 11  4  1  0  0  0  0
 13 14  1  0  0  0  0
 13 12  2  0  0  0  0
 14 15  1  0  0  0  0
 15 19  1  0  0  0  0
 15 16  2  0  0  0  0
 16 17  1  0  0  0  0
 17 18  3  0  0  0  0
 19 32  1  0  0  0  0
 20 13  1  0  0  0  0
 21 20  2  0  0  0  0
 22 20  1  0  0  0  0
 22 23  2  0  0  0  0
 23 24  1  0  0  0  0
 24 12  1  0  0  0  0
 25 23  1  0  0  0  0
 25 34  1  0  0  0  0
 26 25  1  0  0  0  0
 27  8  1  0  0  0  0
 27 37  1  0  0  0  0
 28  3  1  0  0  0  0
 31 19  1  0  0  0  0
 33 22  1  0  0  0  0
 35 25  1  0  0  0  0
 36 26  1  0  0  0  0
 38 27  1  0  0  0  0
 39 27  1  0  0  0  0
M  END
>  <Pose>
1

>  <Score>
-4.20

$$$$
