
 OpenBabel03232204043D

 41 44  0  0  0  0  0  0  0  0999 V2000
   17.3130  -58.8940   33.2760 B   0  0  0  0  0  0  0  0  0  0  0  0
   18.2510  -57.2500   33.1450 C   0  0  0  0  0  0  0  0  0  0  0  0
   18.3910  -56.4090   34.2120 C   0  0  0  0  0  0  0  0  0  0  0  0
   19.0720  -55.2150   34.1030 C   0  0  0  0  0  0  0  0  0  0  0  0
   19.6410  -54.8070   32.9390 C   0  0  0  0  0  0  0  0  0  0  0  0
   19.5030  -55.6620   31.8410 C   0  0  0  0  0  0  0  0  0  0  0  0
   18.8260  -56.8510   31.9440 C   0  0  0  0  0  0  0  0  0  0  0  0
   20.2780  -53.5550   33.0770 N   0  0  0  0  0  0  0  0  0  0  0  0
   20.1200  -53.0970   34.4220 C   0  0  0  0  0  0  0  0  0  0  0  0
   20.5090  -52.0660   34.9750 O   0  0  0  0  0  0  0  0  0  0  0  0
   19.3340  -54.1700   35.1000 C   0  0  0  0  0  0  0  0  0  0  0  0
   19.0510  -54.0800   36.2540 N   0  0  0  0  0  0  0  0  0  0  0  0
   19.1730  -53.2620   37.3200 N   0  0  0  0  0  0  0  0  0  0  0  0
   18.6250  -53.6270   38.5640 C   0  0  0  0  0  0  0  0  0  0  0  0
   19.4320  -53.9080   39.5200 O   0  0  0  0  0  0  0  0  0  0  0  0
   17.2070  -53.7200   38.9220 C   0  0  0  0  0  0  0  0  0  0  0  0
   16.4360  -54.7050   38.2160 N   0  0  0  0  0  0  0  0  0  0  0  0
   15.3110  -55.3410   38.8110 C   0  0  0  0  0  0  0  0  0  0  0  0
   14.7580  -54.7000   39.7880 O   0  0  0  0  0  0  0  0  0  0  0  0
   14.7490  -56.6020   38.4350 C   0  0  0  0  0  0  0  0  0  0  0  0
   13.4070  -56.9400   38.5160 C   0  0  0  0  0  0  0  0  0  0  0  0
   12.9380  -58.1510   38.1350 C   0  0  0  0  0  0  0  0  0  0  0  0
   13.7880  -59.1210   37.6410 C   0  0  0  0  0  0  0  0  0  0  0  0
   15.1130  -58.8350   37.5480 C   0  0  0  0  0  0  0  0  0  0  0  0
   15.6170  -57.5840   37.9350 C   0  0  0  0  0  0  0  0  0  0  0  0
   13.0280  -60.2590   37.3230 O   0  0  0  0  0  0  0  0  0  0  0  0
   11.7580  -59.6760   36.9410 C   0  0  0  0  0  0  0  0  0  0  0  0
   11.6340  -58.7700   38.0950 O   0  0  0  0  0  0  0  0  0  0  0  0
   17.9670  -56.6750   35.1520 H   0  0  0  0  0  0  0  0  0  0  0  0
   19.9350  -55.3650   30.9240 H   0  0  0  0  0  0  0  0  0  0  0  0
   18.6990  -57.5440   31.1270 H   0  0  0  0  0  0  0  0  0  0  0  0
   20.7890  -53.0130   32.3400 H   0  0  0  0  0  0  0  0  0  0  0  0
   19.6790  -52.3390   37.2340 H   0  0  0  0  0  0  0  0  0  0  0  0
   17.1620  -54.0040   40.0080 H   0  0  0  0  0  0  0  0  0  0  0  0
   16.7250  -52.7230   38.8220 H   0  0  0  0  0  0  0  0  0  0  0  0
   16.6750  -55.0050   37.2580 H   0  0  0  0  0  0  0  0  0  0  0  0
   12.6960  -56.1930   38.9140 H   0  0  0  0  0  0  0  0  0  0  0  0
   15.8020  -59.6060   37.1570 H   0  0  0  0  0  0  0  0  0  0  0  0
   16.6310  -57.3520   37.8680 H   0  0  0  0  0  0  0  0  0  0  0  0
   10.9450  -60.3520   36.8570 H   0  0  0  0  0  0  0  0  0  0  0  0
   11.9030  -59.0700   36.0440 H   0  0  0  0  0  0  0  0  0  0  0  0
  2  1  1  0  0  0  0
  2  3  1  0  0  0  0
  3 29  1  0  0  0  0
  4  3  2  0  0  0  0
  4 11  1  0  0  0  0
  5  8  1  0  0  0  0
  5  4  1  0  0  0  0
  6  7  1  0  0  0  0
  6  5  2  0  0  0  0
  7  2  2  0  0  0  0
  8  9  1  0  0  0  0
  9 10  2  0  0  0  0
  9 11  1  0  0  0  0
 11 12  2  0  0  0  0
 12 13  1  0  0  0  0
 13 14  1  0  0  0  0
 14 16  1  0  0  0  0
 14 15  2  0  0  0  0
 16 34  1  0  0  0  0
 17 18  1  0  0  0  0
 17 16  1  0  0  0  0
 18 19  2  0  0  0  0
 20 21  1  0  0  0  0
 20 18  1  0  0  0  0
 21 37  1  0  0  0  0
 22 21  2  0  0  0  0
 23 22  1  0  0  0  0
 24 23  2  0  0  0  0
 24 25  1  0  0  0  0
 25 20  2  0  0  0  0
 26 23  1  0  0  0  0
 27 26  1  0  0  0  0
 27 28  1  0  0  0  0
 28 22  1  0  0  0  0
 30  6  1  0  0  0  0
 31  7  1  0  0  0  0
 32  8  1  0  0  0  0
 33 13  1  0  0  0  0
 35 16  1  0  0  0  0
 36 17  1  0  0  0  0
 38 24  1  0  0  0  0
 39 25  1  0  0  0  0
 40 27  1  0  0  0  0
 41 27  1  0  0  0  0
M  END
>  <Pose>
1

>  <Score>
-7.83

$$$$
