
 OpenBabel03232204043D

 41 44  0  0  1  0  0  0  0  0999 V2000
   16.4700  -58.4440   39.8390 B   0  0  0  0  0  0  0  0  0  0  0  0
   15.3080  -58.0660   38.3750 C   0  0  0  0  0  0  0  0  0  0  0  0
   15.5150  -58.7670   37.2130 C   0  0  0  0  0  0  0  0  0  0  0  0
   14.6880  -58.5260   36.1110 C   0  0  0  0  0  0  0  0  0  0  0  0
   13.6990  -57.6020   36.2140 C   0  0  0  0  0  0  0  0  0  0  0  0
   13.4700  -56.8720   37.3960 C   0  0  0  0  0  0  0  0  0  0  0  0
   14.2980  -57.1300   38.4620 C   0  0  0  0  0  0  0  0  0  0  0  0
   12.9810  -57.4990   34.9980 N   0  0  0  0  0  0  0  0  0  0  0  0
   13.5490  -58.3990   34.0950 C   0  0  0  0  0  0  0  0  0  0  0  0
   13.1910  -58.6070   32.8720 O   0  0  0  0  0  0  0  0  0  0  0  0
   14.6700  -59.1100   34.7790 C   0  0  2  0  0  0  0  0  0  0  0  0
   14.3670  -60.5150   34.6860 C   0  0  0  0  0  0  0  0  0  0  0  0
   15.1150  -61.3450   33.9390 C   0  0  0  0  0  0  0  0  0  0  0  0
   14.5660  -62.5980   34.0640 N   0  0  0  0  0  0  0  0  0  0  0  0
   13.5210  -62.5190   34.8600 N   0  0  0  0  0  0  0  0  0  0  0  0
   13.3350  -61.2680   35.2830 C   0  0  0  0  0  0  0  0  0  0  0  0
   12.2760  -60.7400   36.1910 C   0  0  0  0  0  0  0  0  0  0  0  0
   16.2360  -60.9240   33.2010 O   0  0  0  0  0  0  0  0  0  0  0  0
   16.5460  -59.5720   33.2780 C   0  0  0  0  0  0  0  0  0  0  0  0
   15.8590  -58.7240   33.9820 C   0  0  0  0  0  0  0  0  0  0  0  0
   16.2780  -57.2920   33.9970 C   0  0  0  0  0  0  0  0  0  0  0  0
   15.9500  -56.5810   33.0300 O   0  0  0  0  0  0  0  0  0  0  0  0
   16.9960  -56.7320   35.0170 O   0  0  0  0  0  0  0  0  0  0  0  0
   17.9030  -55.6660   34.8710 C   0  0  0  0  0  0  0  0  0  0  0  0
   17.5910  -54.6490   35.9740 C   0  0  0  0  0  0  0  0  0  0  0  0
   17.6840  -59.0620   32.5470 N   0  0  0  0  0  0  0  0  0  0  0  0
   16.3140  -59.5140   37.1280 H   0  0  0  0  0  0  0  0  0  0  0  0
   12.6860  -56.1430   37.4700 H   0  0  0  0  0  0  0  0  0  0  0  0
   14.1650  -56.5980   39.3950 H   0  0  0  0  0  0  0  0  0  0  0  0
   12.1590  -56.8670   34.7760 H   0  0  0  0  0  0  0  0  0  0  0  0
   14.9200  -63.4660   33.6010 H   0  0  0  0  0  0  0  0  0  0  0  0
   11.6820  -61.5770   36.6090 H   0  0  0  0  0  0  0  0  0  0  0  0
   11.5870  -60.1410   35.5610 H   0  0  0  0  0  0  0  0  0  0  0  0
   12.6890  -60.1860   37.0500 H   0  0  0  0  0  0  0  0  0  0  0  0
   17.8670  -55.2030   33.8790 H   0  0  0  0  0  0  0  0  0  0  0  0
   18.9300  -56.0380   35.0770 H   0  0  0  0  0  0  0  0  0  0  0  0
   17.2290  -55.1640   36.8870 H   0  0  0  0  0  0  0  0  0  0  0  0
   18.4850  -54.0590   36.2460 H   0  0  0  0  0  0  0  0  0  0  0  0
   16.8350  -53.9260   35.5850 H   0  0  0  0  0  0  0  0  0  0  0  0
   18.5920  -59.5080   32.6970 H   0  0  0  0  0  0  0  0  0  0  0  0
   17.5540  -58.2790   31.9040 H   0  0  0  0  0  0  0  0  0  0  0  0
  2  7  1  0  0  0  0
  2  1  1  0  0  0  0
  3  2  2  0  0  0  0
  4  5  2  0  0  0  0
  4  3  1  0  0  0  0
  5  6  1  0  0  0  0
  6 28  1  0  0  0  0
  6  7  2  0  0  0  0
  7 29  1  0  0  0  0
  8  5  1  0  0  0  0
  9 11  1  0  0  0  0
  9  8  1  0  0  0  0
 10  9  2  0  0  0  0
 11 20  1  6  0  0  0
 11  4  1  0  0  0  0
 12 11  1  0  0  0  0
 12 16  1  0  0  0  0
 13 14  1  0  0  0  0
 13 12  2  0  0  0  0
 14 15  1  0  0  0  0
 15 16  2  0  0  0  0
 16 17  1  0  0  0  0
 17 32  1  0  0  0  0
 17 34  1  0  0  0  0
 18 19  1  0  0  0  0
 18 13  1  0  0  0  0
 19 20  2  0  0  0  0
 20 21  1  0  0  0  0
 21 23  1  0  0  0  0
 22 21  2  0  0  0  0
 24 23  1  0  0  0  0
 24 36  1  0  0  0  0
 24 25  1  0  0  0  0
 25 38  1  0  0  0  0
 25 37  1  0  0  0  0
 26 40  1  0  0  0  0
 26 19  1  0  0  0  0
 27  3  1  0  0  0  0
 30  8  1  0  0  0  0
 31 14  1  0  0  0  0
 33 17  1  0  0  0  0
 35 24  1  0  0  0  0
 39 25  1  0  0  0  0
 41 26  1  0  0  0  0
M  END
>  <Pose>
1

>  <Score>
-5.12

$$$$
