
 OpenBabel03232204043D

 47 50  0  0  1  0  0  0  0  0999 V2000
   12.0270  -64.3790   38.4490 B   0  0  0  0  0  0  0  0  0  0  0  0
   11.9300  -62.4860   38.6560 C   0  0  0  0  0  0  0  0  0  0  0  0
   12.5640  -61.6070   37.8060 C   0  0  0  0  0  0  0  0  0  0  0  0
   12.4880  -60.2230   37.9630 C   0  0  0  0  0  0  0  0  0  0  0  0
   11.7570  -59.7060   39.0020 C   0  0  0  0  0  0  0  0  0  0  0  0
   11.1080  -60.5650   39.8750 C   0  0  0  0  0  0  0  0  0  0  0  0
   11.2000  -61.9500   39.6950 C   0  0  0  0  0  0  0  0  0  0  0  0
   11.8070  -58.2770   38.9750 N   0  0  0  0  0  0  0  0  0  0  0  0
   12.6040  -57.8820   37.8720 C   0  0  0  0  0  0  0  0  0  0  0  0
   12.8250  -56.6910   37.5790 O   0  0  0  0  0  0  0  0  0  0  0  0
   13.0740  -59.0830   37.2000 C   0  0  2  0  0  0  0  0  0  0  0  0
   12.5460  -59.0510   35.8370 N   0  0  0  0  0  0  0  0  0  0  0  0
   13.5890  -59.5740   35.0060 C   0  0  2  0  0  0  0  0  0  0  0  0
   14.8340  -59.0540   35.6260 C   0  0  2  0  0  0  0  0  0  0  0  0
   14.5630  -59.2270   37.1020 C   0  0  1  0  0  0  0  0  0  0  0  0
   15.3470  -58.1810   37.7460 C   0  0  0  0  0  0  0  0  0  0  0  0
   15.6630  -58.1400   38.9540 O   0  0  0  0  0  0  0  0  0  0  0  0
   15.6840  -57.2180   36.7550 N   0  0  0  0  0  0  0  0  0  0  0  0
   15.0290  -57.5870   35.5180 C   0  0  0  0  0  0  0  0  0  0  0  0
   14.7460  -56.7600   34.6360 O   0  0  0  0  0  0  0  0  0  0  0  0
   16.5350  -56.0860   36.9820 C   0  0  0  0  0  0  0  0  0  0  0  0
   15.8860  -54.9200   37.6500 C   0  0  0  0  0  0  0  0  0  0  0  0
   16.1300  -54.8630   39.0120 O   0  0  0  0  0  0  0  0  0  0  0  0
   15.7310  -53.6440   39.5550 C   0  0  0  0  0  0  0  0  0  0  0  0
   13.4170  -59.2650   33.5580 C   0  0  0  0  0  0  0  0  0  0  0  0
   14.2940  -60.1270   32.7570 C   0  0  0  0  0  0  0  0  0  0  0  0
   15.5280  -59.8670   32.6840 O   0  0  0  0  0  0  0  0  0  0  0  0
   13.7710  -61.2550   32.0580 N   0  0  0  0  0  0  0  0  0  0  0  0
   13.1330  -62.0490   36.9960 H   0  0  0  0  0  0  0  0  0  0  0  0
   10.5360  -60.1440   40.6890 H   0  0  0  0  0  0  0  0  0  0  0  0
   10.6870  -62.6050   40.3870 H   0  0  0  0  0  0  0  0  0  0  0  0
   11.3210  -57.6490   39.6750 H   0  0  0  0  0  0  0  0  0  0  0  0
   12.3640  -58.0630   35.5400 H   0  0  0  0  0  0  0  0  0  0  0  0
   13.6410  -60.6940   35.0840 H   0  0  0  0  0  0  0  0  0  0  0  0
   15.7460  -59.6090   35.3070 H   0  0  0  0  0  0  0  0  0  0  0  0
   14.9030  -60.2580   37.3560 H   0  0  0  0  0  0  0  0  0  0  0  0
   16.9090  -55.7190   35.9990 H   0  0  0  0  0  0  0  0  0  0  0  0
   17.4030  -56.3780   37.6330 H   0  0  0  0  0  0  0  0  0  0  0  0
   14.7910  -54.8630   37.4540 H   0  0  0  0  0  0  0  0  0  0  0  0
   16.3180  -54.0010   37.2060 H   0  0  0  0  0  0  0  0  0  0  0  0
   15.9710  -53.7030   40.6540 H   0  0  0  0  0  0  0  0  0  0  0  0
   16.2940  -52.7890   39.1700 H   0  0  0  0  0  0  0  0  0  0  0  0
   14.6260  -53.5110   39.5130 H   0  0  0  0  0  0  0  0  0  0  0  0
   12.3810  -59.2930   33.1900 H   0  0  0  0  0  0  0  0  0  0  0  0
   13.7660  -58.2110   33.4010 H   0  0  0  0  0  0  0  0  0  0  0  0
   14.3040  -62.1480   32.0310 H   0  0  0  0  0  0  0  0  0  0  0  0
   12.8530  -61.1780   31.5750 H   0  0  0  0  0  0  0  0  0  0  0  0
  1  2  1  0  0  0  0
  2  7  1  0  0  0  0
  3  4  1  0  0  0  0
  3  2  2  0  0  0  0
  4  5  2  0  0  0  0
  5  6  1  0  0  0  0
  6 30  1  0  0  0  0
  7  6  2  0  0  0  0
  7 31  1  0  0  0  0
  8  5  1  0  0  0  0
  8 32  1  0  0  0  0
  9  8  1  0  0  0  0
 10  9  2  0  0  0  0
 11  9  1  1  0  0  0
 11  4  1  0  0  0  0
 12 11  1  0  0  0  0
 13 34  1  1  0  0  0
 13 14  1  0  0  0  0
 13 12  1  0  0  0  0
 14 35  1  6  0  0  0
 14 15  1  0  0  0  0
 15 11  1  0  0  0  0
 15 36  1  1  0  0  0
 15 16  1  0  0  0  0
 16 17  2  0  0  0  0
 18 21  1  0  0  0  0
 18 16  1  0  0  0  0
 19 14  1  0  0  0  0
 19 18  1  0  0  0  0
 20 19  2  0  0  0  0
 21 38  1  0  0  0  0
 21 22  1  0  0  0  0
 22 23  1  0  0  0  0
 23 24  1  0  0  0  0
 24 41  1  0  0  0  0
 25 13  1  0  0  0  0
 26 25  1  0  0  0  0
 27 26  2  0  0  0  0
 28 26  1  0  0  0  0
 29  3  1  0  0  0  0
 33 12  1  0  0  0  0
 37 21  1  0  0  0  0
 39 22  1  0  0  0  0
 40 22  1  0  0  0  0
 42 24  1  0  0  0  0
 43 24  1  0  0  0  0
 44 25  1  0  0  0  0
 45 25  1  0  0  0  0
 46 28  1  0  0  0  0
 47 28  1  0  0  0  0
M  END
>  <Pose>
1

>  <Score>
-6.18

$$$$
