
 OpenBabel03232204043D

 39 42  0  0  1  0  0  0  0  0999 V2000
   19.3780  -54.1600   33.7530 B   0  0  0  0  0  0  0  0  0  0  0  0
   18.1660  -54.7360   35.1060 C   0  0  0  0  0  0  0  0  0  0  0  0
   17.7980  -56.0500   35.1290 C   0  0  0  0  0  0  0  0  0  0  0  0
   16.9180  -56.4960   36.1000 C   0  0  0  0  0  0  0  0  0  0  0  0
   16.4120  -55.6140   37.0460 C   0  0  0  0  0  0  0  0  0  0  0  0
   16.7750  -54.2820   37.0360 C   0  0  0  0  0  0  0  0  0  0  0  0
   17.6510  -53.8840   36.0520 C   0  0  0  0  0  0  0  0  0  0  0  0
   15.5110  -55.9540   38.0810 N   0  0  0  0  0  0  0  0  0  0  0  0
   15.4170  -55.2070   39.1870 N   0  0  0  0  0  0  0  0  0  0  0  0
   14.5110  -55.7810   39.9320 N   0  0  0  0  0  0  0  0  0  0  0  0
   14.0360  -56.8600   39.3320 N   0  0  0  0  0  0  0  0  0  0  0  0
   14.6780  -56.9790   38.1340 C   0  0  0  0  0  0  0  0  0  0  0  0
   14.3780  -58.1060   37.1850 C   0  0  2  0  0  0  0  0  0  0  0  0
   15.6100  -58.6350   36.6050 N   0  0  0  0  0  0  0  0  0  0  0  0
   16.6570  -57.9330   35.9460 C   0  0  0  0  0  0  0  0  0  0  0  0
   17.4160  -58.5840   35.1750 O   0  0  0  0  0  0  0  0  0  0  0  0
   13.6060  -57.4970   36.0460 C   0  0  0  0  0  0  0  0  0  0  0  0
   12.8470  -58.5620   35.3240 C   0  0  0  0  0  0  0  0  0  0  0  0
   11.9420  -59.0860   36.2090 O   0  0  0  0  0  0  0  0  0  0  0  0
   12.4760  -59.7680   37.2680 C   0  0  0  0  0  0  0  0  0  0  0  0
   13.6600  -59.1840   37.9120 C   0  0  0  0  0  0  0  0  0  0  0  0
   12.0380  -57.9240   34.1870 C   0  0  0  0  0  0  0  0  0  0  0  0
   13.7290  -59.5980   34.6820 C   0  0  0  0  0  0  0  0  0  0  0  0
   18.1570  -56.7860   34.4190 H   0  0  0  0  0  0  0  0  0  0  0  0
   16.3600  -53.6260   37.7880 H   0  0  0  0  0  0  0  0  0  0  0  0
   17.9420  -52.8480   36.0320 H   0  0  0  0  0  0  0  0  0  0  0  0
   15.7630  -59.6870   36.6740 H   0  0  0  0  0  0  0  0  0  0  0  0
   14.3370  -57.0360   35.3440 H   0  0  0  0  0  0  0  0  0  0  0  0
   12.8720  -56.7460   36.4070 H   0  0  0  0  0  0  0  0  0  0  0  0
   12.6790  -60.8190   36.9030 H   0  0  0  0  0  0  0  0  0  0  0  0
   11.6350  -59.9140   38.0110 H   0  0  0  0  0  0  0  0  0  0  0  0
   13.3740  -58.8300   38.9480 H   0  0  0  0  0  0  0  0  0  0  0  0
   14.3930  -60.0170   38.1280 H   0  0  0  0  0  0  0  0  0  0  0  0
   11.6750  -56.9210   34.4620 H   0  0  0  0  0  0  0  0  0  0  0  0
   11.2780  -58.6050   33.8010 H   0  0  0  0  0  0  0  0  0  0  0  0
   12.7850  -57.7700   33.3560 H   0  0  0  0  0  0  0  0  0  0  0  0
   13.1690  -60.0270   33.7990 H   0  0  0  0  0  0  0  0  0  0  0  0
   13.9330  -60.4690   35.3340 H   0  0  0  0  0  0  0  0  0  0  0  0
   14.6410  -59.1560   34.2590 H   0  0  0  0  0  0  0  0  0  0  0  0
  1  2  1  0  0  0  0
  2  3  2  0  0  0  0
  2  7  1  0  0  0  0
  3  4  1  0  0  0  0
  4  5  2  0  0  0  0
  5  8  1  0  0  0  0
  6  5  1  0  0  0  0
  6 25  1  0  0  0  0
  7  6  2  0  0  0  0
  8 12  1  0  0  0  0
  8  9  1  0  0  0  0
  9 10  2  0  0  0  0
 11 10  1  0  0  0  0
 12 11  2  0  0  0  0
 13 21  1  0  0  0  0
 13 12  1  1  0  0  0
 14 27  1  0  0  0  0
 14 13  1  0  0  0  0
 15  4  1  0  0  0  0
 15 14  1  0  0  0  0
 16 15  2  0  0  0  0
 17 29  1  0  0  0  0
 17 13  1  0  0  0  0
 18 17  1  0  0  0  0
 18 19  1  0  0  0  0
 19 20  1  0  0  0  0
 20 21  1  0  0  0  0
 20 31  1  0  0  0  0
 21 33  1  0  0  0  0
 21 32  1  0  0  0  0
 22 34  1  0  0  0  0
 22 18  1  0  0  0  0
 23 18  1  0  0  0  0
 23 38  1  0  0  0  0
 24  3  1  0  0  0  0
 26  7  1  0  0  0  0
 28 17  1  0  0  0  0
 30 20  1  0  0  0  0
 35 22  1  0  0  0  0
 36 22  1  0  0  0  0
 37 23  1  0  0  0  0
 39 23  1  0  0  0  0
M  END
>  <Pose>
1

>  <Score>
-5.65

$$$$
