
 OpenBabel03232204043D

 41 44  0  0  0  0  0  0  0  0999 V2000
   12.8530  -60.7410   34.3180 B   0  0  0  0  0  0  0  0  0  0  0  0
   12.9040  -59.5960   35.8360 C   0  0  0  0  0  0  0  0  0  0  0  0
   13.8620  -58.6110   35.9620 C   0  0  0  0  0  0  0  0  0  0  0  0
   13.9130  -57.7730   37.0570 C   0  0  0  0  0  0  0  0  0  0  0  0
   12.9650  -57.9400   38.0490 C   0  0  0  0  0  0  0  0  0  0  0  0
   13.2470  -57.0080   38.9770 N   0  0  0  0  0  0  0  0  0  0  0  0
   14.3230  -56.2660   38.6110 C   0  0  0  0  0  0  0  0  0  0  0  0
   14.7600  -56.7380   37.3920 C   0  0  0  0  0  0  0  0  0  0  0  0
   15.8300  -56.1500   36.8230 N   0  0  0  0  0  0  0  0  0  0  0  0
   16.4770  -55.1240   37.4080 C   0  0  0  0  0  0  0  0  0  0  0  0
   16.0740  -54.6440   38.5920 N   0  0  0  0  0  0  0  0  0  0  0  0
   15.0100  -55.2160   39.1760 C   0  0  0  0  0  0  0  0  0  0  0  0
   14.6180  -54.7800   40.2870 O   0  0  0  0  0  0  0  0  0  0  0  0
   16.7780  -53.5230   39.2390 C   0  0  0  0  0  0  0  0  0  0  0  0
   18.2430  -53.6920   39.1150 C   0  0  0  0  0  0  0  0  0  0  0  0
   18.8670  -53.0740   38.0030 N   0  0  0  0  0  0  0  0  0  0  0  0
   18.1250  -52.0280   37.3880 C   0  0  0  0  0  0  0  0  0  0  0  0
   17.3380  -52.4760   36.1890 C   0  0  0  0  0  0  0  0  0  0  0  0
   18.0390  -53.4700   35.4050 N   0  0  0  0  0  0  0  0  0  0  0  0
   19.4560  -53.4910   35.7260 C   0  0  0  0  0  0  0  0  0  0  0  0
   19.5640  -53.9710   37.1530 C   0  0  0  0  0  0  0  0  0  0  0  0
   12.0110  -58.9310   37.9110 C   0  0  0  0  0  0  0  0  0  0  0  0
   11.9530  -59.7750   36.8200 C   0  0  0  0  0  0  0  0  0  0  0  0
   14.6090  -58.4710   35.1900 H   0  0  0  0  0  0  0  0  0  0  0  0
   12.7280  -56.8550   39.8610 H   0  0  0  0  0  0  0  0  0  0  0  0
   17.3400  -54.6600   36.9330 H   0  0  0  0  0  0  0  0  0  0  0  0
   16.4510  -53.5650   40.3020 H   0  0  0  0  0  0  0  0  0  0  0  0
   16.3590  -52.6190   38.8070 H   0  0  0  0  0  0  0  0  0  0  0  0
   18.7420  -53.3540   40.0450 H   0  0  0  0  0  0  0  0  0  0  0  0
   18.4590  -54.7980   39.0460 H   0  0  0  0  0  0  0  0  0  0  0  0
   17.4520  -51.5290   38.1120 H   0  0  0  0  0  0  0  0  0  0  0  0
   18.8410  -51.2590   37.0300 H   0  0  0  0  0  0  0  0  0  0  0  0
   17.0710  -51.6370   35.5170 H   0  0  0  0  0  0  0  0  0  0  0  0
   16.3890  -52.9360   36.5260 H   0  0  0  0  0  0  0  0  0  0  0  0
   17.6200  -54.4230   35.5050 H   0  0  0  0  0  0  0  0  0  0  0  0
   19.8340  -52.4610   35.6580 H   0  0  0  0  0  0  0  0  0  0  0  0
   19.9230  -54.1900   35.0030 H   0  0  0  0  0  0  0  0  0  0  0  0
   20.6470  -53.9340   37.4570 H   0  0  0  0  0  0  0  0  0  0  0  0
   19.2180  -55.0220   37.2200 H   0  0  0  0  0  0  0  0  0  0  0  0
   11.2650  -59.0620   38.6940 H   0  0  0  0  0  0  0  0  0  0  0  0
   11.1960  -60.5560   36.7130 H   0  0  0  0  0  0  0  0  0  0  0  0
  1  2  1  0  0  0  0
  2  3  2  0  0  0  0
  2 23  1  0  0  0  0
  3  4  1  0  0  0  0
  4  8  1  0  0  0  0
  4  5  2  0  0  0  0
  5  6  1  0  0  0  0
  6 25  1  0  0  0  0
  7  6  1  0  0  0  0
  7 12  1  0  0  0  0
  8  7  2  0  0  0  0
  9  8  1  0  0  0  0
  9 10  2  0  0  0  0
 10 11  1  0  0  0  0
 11 12  1  0  0  0  0
 11 14  1  0  0  0  0
 12 13  2  0  0  0  0
 14 27  1  0  0  0  0
 15 14  1  0  0  0  0
 15 29  1  0  0  0  0
 16 15  1  0  0  0  0
 17 16  1  0  0  0  0
 17 31  1  0  0  0  0
 18 34  1  0  0  0  0
 18 17  1  0  0  0  0
 19 35  1  0  0  0  0
 19 20  1  0  0  0  0
 19 18  1  0  0  0  0
 20 21  1  0  0  0  0
 21 39  1  0  0  0  0
 21 38  1  0  0  0  0
 21 16  1  0  0  0  0
 22  5  1  0  0  0  0
 22 40  1  0  0  0  0
 23 22  2  0  0  0  0
 24  3  1  0  0  0  0
 26 10  1  0  0  0  0
 28 14  1  0  0  0  0
 30 15  1  0  0  0  0
 32 17  1  0  0  0  0
 33 18  1  0  0  0  0
 36 20  1  0  0  0  0
 37 20  1  0  0  0  0
 41 23  1  0  0  0  0
M  END
>  <Pose>
1

>  <Score>
-6.44

$$$$
