
 OpenBabel03232204043D

 43 46  0  0  1  0  0  0  0  0999 V2000
   14.1270  -60.9080   34.3130 B   0  0  0  0  0  0  0  0  0  0  0  0
   14.2610  -59.4560   35.5550 C   0  0  0  0  0  0  0  0  0  0  0  0
   13.3120  -59.2840   36.5610 C   0  0  0  0  0  0  0  0  0  0  0  0
   13.4770  -58.2170   37.4130 C   0  0  0  0  0  0  0  0  0  0  0  0
   12.7660  -57.7680   38.4620 N   0  0  0  0  0  0  0  0  0  0  0  0
   13.3460  -56.6810   38.9630 N   0  0  0  0  0  0  0  0  0  0  0  0
   14.4530  -56.3660   38.2760 C   0  0  0  0  0  0  0  0  0  0  0  0
   14.5330  -57.3580   37.2790 C   0  0  0  0  0  0  0  0  0  0  0  0
   15.4690  -57.5170   36.2970 C   0  0  0  0  0  0  0  0  0  0  0  0
   15.3260  -58.5750   35.4340 C   0  0  0  0  0  0  0  0  0  0  0  0
   15.3640  -55.3070   38.4480 N   0  0  0  0  0  0  0  0  0  0  0  0
   16.3150  -54.9220   37.3820 C   0  0  0  0  0  0  0  0  0  0  0  0
   17.5800  -54.5920   38.1570 C   0  0  2  0  0  0  0  0  0  0  0  0
   17.0410  -54.0250   39.4530 C   0  0  0  0  0  0  0  0  0  0  0  0
   15.6180  -54.4420   39.5530 C   0  0  0  0  0  0  0  0  0  0  0  0
   14.7960  -54.1120   40.4180 O   0  0  0  0  0  0  0  0  0  0  0  0
   18.3100  -53.6230   37.3230 C   0  0  0  0  0  0  0  0  0  0  0  0
   17.9360  -52.4300   37.2370 O   0  0  0  0  0  0  0  0  0  0  0  0
   19.4560  -54.0780   36.6170 N   0  0  0  0  0  0  0  0  0  0  0  0
   19.7280  -53.6580   35.2600 C   0  0  0  0  0  0  0  0  0  0  0  0
   19.9320  -54.8250   34.3180 C   0  0  0  0  0  0  0  0  0  0  0  0
   19.0160  -54.7350   33.1640 C   0  0  0  0  0  0  0  0  0  0  0  0
   17.7520  -55.1870   33.1760 N   0  0  0  0  0  0  0  0  0  0  0  0
   17.1730  -54.9620   31.9960 C   0  0  0  0  0  0  0  0  0  0  0  0
   18.0900  -54.3480   31.1990 N   0  0  0  0  0  0  0  0  0  0  0  0
   19.2060  -54.2150   31.9210 C   0  0  0  0  0  0  0  0  0  0  0  0
   12.5090  -59.9980   36.6030 H   0  0  0  0  0  0  0  0  0  0  0  0
   12.9620  -56.1690   39.7810 H   0  0  0  0  0  0  0  0  0  0  0  0
   16.2950  -56.8100   36.2300 H   0  0  0  0  0  0  0  0  0  0  0  0
   16.0490  -58.7300   34.6480 H   0  0  0  0  0  0  0  0  0  0  0  0
   16.4610  -55.7580   36.7070 H   0  0  0  0  0  0  0  0  0  0  0  0
   15.8840  -54.0640   36.8550 H   0  0  0  0  0  0  0  0  0  0  0  0
   18.2050  -55.4760   38.3150 H   0  0  0  0  0  0  0  0  0  0  0  0
   17.5610  -54.5980   40.2800 H   0  0  0  0  0  0  0  0  0  0  0  0
   17.2280  -52.9700   39.6160 H   0  0  0  0  0  0  0  0  0  0  0  0
   20.1030  -54.7300   37.1010 H   0  0  0  0  0  0  0  0  0  0  0  0
   18.8750  -53.0740   34.8870 H   0  0  0  0  0  0  0  0  0  0  0  0
   20.6260  -53.0030   35.2190 H   0  0  0  0  0  0  0  0  0  0  0  0
   20.9690  -54.7510   33.9360 H   0  0  0  0  0  0  0  0  0  0  0  0
   19.8900  -55.8080   34.8420 H   0  0  0  0  0  0  0  0  0  0  0  0
   16.1640  -55.2190   31.7260 H   0  0  0  0  0  0  0  0  0  0  0  0
   17.8770  -54.0680   30.2150 H   0  0  0  0  0  0  0  0  0  0  0  0
   20.1050  -53.7580   31.5460 H   0  0  0  0  0  0  0  0  0  0  0  0
  1  2  1  0  0  0  0
  2  3  2  0  0  0  0
  3 27  1  0  0  0  0
  3  4  1  0  0  0  0
  4  5  2  0  0  0  0
  5  6  1  0  0  0  0
  6 28  1  0  0  0  0
  7 11  1  0  0  0  0
  7  6  1  0  0  0  0
  8  4  1  0  0  0  0
  8  7  2  0  0  0  0
  9  8  1  0  0  0  0
 10  2  1  0  0  0  0
 10  9  2  0  0  0  0
 11 15  1  0  0  0  0
 12 13  1  0  0  0  0
 12 11  1  0  0  0  0
 13 33  1  1  0  0  0
 13 14  1  0  0  0  0
 14 15  1  0  0  0  0
 14 35  1  0  0  0  0
 14 34  1  0  0  0  0
 15 16  2  0  0  0  0
 17 13  1  0  0  0  0
 18 17  2  0  0  0  0
 19 36  1  0  0  0  0
 19 17  1  0  0  0  0
 20 19  1  0  0  0  0
 21 40  1  0  0  0  0
 21 20  1  0  0  0  0
 22 23  1  0  0  0  0
 22 21  1  0  0  0  0
 24 23  2  0  0  0  0
 25 26  1  0  0  0  0
 25 24  1  0  0  0  0
 26 22  2  0  0  0  0
 29  9  1  0  0  0  0
 30 10  1  0  0  0  0
 31 12  1  0  0  0  0
 32 12  1  0  0  0  0
 37 20  1  0  0  0  0
 38 20  1  0  0  0  0
 39 21  1  0  0  0  0
 41 24  1  0  0  0  0
 42 25  1  0  0  0  0
 43 26  1  0  0  0  0
M  END
>  <Pose>
1

>  <Score>
-8.08

$$$$
