
 OpenBabel03232204043D

 58 61  0  0  0  0  0  0  0  0999 V2000
   14.4970  -56.0840   39.1120 B   0  0  0  0  0  0  0  0  0  0  0  0
   13.5470  -57.5710   38.3450 C   0  0  0  0  0  0  0  0  0  0  0  0
   12.5870  -58.3360   38.9490 C   0  0  0  0  0  0  0  0  0  0  0  0
   12.1970  -59.2540   38.0590 N   0  0  0  0  0  0  0  0  0  0  0  0
   12.8680  -59.0840   36.9500 N   0  0  0  0  0  0  0  0  0  0  0  0
   13.7440  -58.0410   37.0430 C   0  0  0  0  0  0  0  0  0  0  0  0
   14.6580  -57.5330   36.0530 C   0  0  0  0  0  0  0  0  0  0  0  0
   14.5140  -56.2930   35.7500 O   0  0  0  0  0  0  0  0  0  0  0  0
   15.6480  -58.2310   35.4140 N   0  0  0  0  0  0  0  0  0  0  0  0
   15.4530  -59.2580   34.4380 C   0  0  0  0  0  0  0  0  0  0  0  0
   15.8480  -58.7290   33.0980 C   0  0  0  0  0  0  0  0  0  0  0  0
   16.8500  -57.6790   33.2130 N   0  0  0  0  0  0  0  0  0  0  0  0
   17.6970  -57.5220   34.3480 C   0  0  0  0  0  0  0  0  0  0  0  0
   17.0780  -57.9610   35.6720 C   0  0  0  0  0  0  0  0  0  0  0  0
   16.8620  -56.7750   32.0970 C   0  0  0  0  0  0  0  0  0  0  0  0
   15.7840  -56.0710   31.9040 O   0  0  0  0  0  0  0  0  0  0  0  0
   17.9540  -56.5960   31.2050 C   0  0  0  0  0  0  0  0  0  0  0  0
   18.8220  -55.5140   31.2760 N   0  0  0  0  0  0  0  0  0  0  0  0
   19.6780  -55.5750   30.3090 N   0  0  0  0  0  0  0  0  0  0  0  0
   19.4700  -56.6440   29.5450 C   0  0  0  0  0  0  0  0  0  0  0  0
   18.3620  -57.2950   30.1240 C   0  0  0  0  0  0  0  0  0  0  0  0
   20.2010  -57.1050   28.3790 C   0  0  0  0  0  0  0  0  0  0  0  0
   19.7450  -56.7340   27.2380 O   0  0  0  0  0  0  0  0  0  0  0  0
   21.3340  -57.9030   28.4010 N   0  0  0  0  0  0  0  0  0  0  0  0
   22.6370  -57.2570   28.2130 C   0  0  0  0  0  0  0  0  0  0  0  0
   23.3110  -58.0090   27.0850 C   0  0  0  0  0  0  0  0  0  0  0  0
   23.5540  -59.2990   27.5920 O   0  0  0  0  0  0  0  0  0  0  0  0
   22.3790  -59.9900   27.6930 C   0  0  0  0  0  0  0  0  0  0  0  0
   21.3290  -59.3230   28.5730 C   0  0  0  0  0  0  0  0  0  0  0  0
   18.7870  -54.4740   32.2770 C   0  0  0  0  0  0  0  0  0  0  0  0
   11.1800  -60.2490   38.3750 C   0  0  0  0  0  0  0  0  0  0  0  0
    9.7870  -59.6770   38.4010 C   0  0  0  0  0  0  0  0  0  0  0  0
   12.2270  -58.2050   39.9690 H   0  0  0  0  0  0  0  0  0  0  0  0
   16.1820  -60.0970   34.6640 H   0  0  0  0  0  0  0  0  0  0  0  0
   14.4300  -59.6590   34.3570 H   0  0  0  0  0  0  0  0  0  0  0  0
   14.9720  -58.2690   32.5610 H   0  0  0  0  0  0  0  0  0  0  0  0
   16.2470  -59.5900   32.5080 H   0  0  0  0  0  0  0  0  0  0  0  0
   17.7710  -56.3930   34.4980 H   0  0  0  0  0  0  0  0  0  0  0  0
   18.7080  -57.9100   34.2720 H   0  0  0  0  0  0  0  0  0  0  0  0
   17.1910  -57.2510   36.4820 H   0  0  0  0  0  0  0  0  0  0  0  0
   17.5280  -58.9270   35.9360 H   0  0  0  0  0  0  0  0  0  0  0  0
   17.9450  -58.1830   29.6980 H   0  0  0  0  0  0  0  0  0  0  0  0
   23.1800  -57.3990   29.1720 H   0  0  0  0  0  0  0  0  0  0  0  0
   22.5510  -56.1970   27.9650 H   0  0  0  0  0  0  0  0  0  0  0  0
   22.6130  -58.0900   26.2400 H   0  0  0  0  0  0  0  0  0  0  0  0
   24.2770  -57.5250   26.8210 H   0  0  0  0  0  0  0  0  0  0  0  0
   21.9370  -60.1090   26.6800 H   0  0  0  0  0  0  0  0  0  0  0  0
   22.5820  -61.0110   28.0590 H   0  0  0  0  0  0  0  0  0  0  0  0
   20.3560  -59.7310   28.2430 H   0  0  0  0  0  0  0  0  0  0  0  0
   21.5340  -59.5800   29.6200 H   0  0  0  0  0  0  0  0  0  0  0  0
   17.9830  -53.7560   32.1060 H   0  0  0  0  0  0  0  0  0  0  0  0
   18.7290  -54.9180   33.2980 H   0  0  0  0  0  0  0  0  0  0  0  0
   19.7430  -53.9180   32.2530 H   0  0  0  0  0  0  0  0  0  0  0  0
   11.2100  -61.0960   37.6520 H   0  0  0  0  0  0  0  0  0  0  0  0
   11.3820  -60.6970   39.3760 H   0  0  0  0  0  0  0  0  0  0  0  0
    9.6630  -58.9180   37.5970 H   0  0  0  0  0  0  0  0  0  0  0  0
    9.0780  -60.5010   38.1750 H   0  0  0  0  0  0  0  0  0  0  0  0
    9.5570  -59.2940   39.4110 H   0  0  0  0  0  0  0  0  0  0  0  0
  2  3  2  0  0  0  0
  2  1  1  0  0  0  0
  3 33  1  0  0  0  0
  4 31  1  0  0  0  0
  4  3  1  0  0  0  0
  5  6  2  0  0  0  0
  5  4  1  0  0  0  0
  6  2  1  0  0  0  0
  7  6  1  0  0  0  0
  8  7  2  0  0  0  0
  9 14  1  0  0  0  0
  9  7  1  0  0  0  0
 10 34  1  0  0  0  0
 10  9  1  0  0  0  0
 11 12  1  0  0  0  0
 11 10  1  0  0  0  0
 12 13  1  0  0  0  0
 13 38  1  0  0  0  0
 13 14  1  0  0  0  0
 14 41  1  0  0  0  0
 14 40  1  0  0  0  0
 15 12  1  0  0  0  0
 16 15  2  0  0  0  0
 17 18  1  0  0  0  0
 17 15  1  0  0  0  0
 18 30  1  0  0  0  0
 19 18  1  0  0  0  0
 20 21  1  0  0  0  0
 20 19  2  0  0  0  0
 21 17  2  0  0  0  0
 22 24  1  0  0  0  0
 22 20  1  0  0  0  0
 23 22  2  0  0  0  0
 24 29  1  0  0  0  0
 25 24  1  0  0  0  0
 25 43  1  0  0  0  0
 26 27  1  0  0  0  0
 26 25  1  0  0  0  0
 27 28  1  0  0  0  0
 28 48  1  0  0  0  0
 28 29  1  0  0  0  0
 29 50  1  0  0  0  0
 30 52  1  0  0  0  0
 31 32  1  0  0  0  0
 31 55  1  0  0  0  0
 32 58  1  0  0  0  0
 35 10  1  0  0  0  0
 36 11  1  0  0  0  0
 37 11  1  0  0  0  0
 39 13  1  0  0  0  0
 42 21  1  0  0  0  0
 44 25  1  0  0  0  0
 45 26  1  0  0  0  0
 46 26  1  0  0  0  0
 47 28  1  0  0  0  0
 49 29  1  0  0  0  0
 51 30  1  0  0  0  0
 53 30  1  0  0  0  0
 54 31  1  0  0  0  0
 56 32  1  0  0  0  0
 57 32  1  0  0  0  0
M  END
>  <Pose>
1

>  <Score>
-6.06

$$$$
