
 OpenBabel03232204043D

 47 50  0  0  0  0  0  0  0  0999 V2000
   20.0610  -53.6990   33.8180 B   0  0  0  0  0  0  0  0  0  0  0  0
   18.8980  -54.9340   32.9410 C   0  0  0  0  0  0  0  0  0  0  0  0
   18.5310  -56.1900   33.3650 C   0  0  0  0  0  0  0  0  0  0  0  0
   17.7050  -56.7060   32.4600 N   0  0  0  0  0  0  0  0  0  0  0  0
   17.5550  -55.8030   31.4940 N   0  0  0  0  0  0  0  0  0  0  0  0
   18.2680  -54.6940   31.7410 C   0  0  0  0  0  0  0  0  0  0  0  0
   17.0590  -58.0320   32.4900 C   0  0  0  0  0  0  0  0  0  0  0  0
   15.8470  -57.8980   33.3420 C   0  0  0  0  0  0  0  0  0  0  0  0
   14.8070  -58.5400   32.9840 O   0  0  0  0  0  0  0  0  0  0  0  0
   15.8560  -57.1090   34.4720 N   0  0  0  0  0  0  0  0  0  0  0  0
   16.6630  -57.2290   35.6730 C   0  0  0  0  0  0  0  0  0  0  0  0
   16.1850  -56.3870   36.7890 C   0  0  0  0  0  0  0  0  0  0  0  0
   15.2140  -56.8040   37.6640 C   0  0  0  0  0  0  0  0  0  0  0  0
   14.8140  -56.0110   38.7240 C   0  0  0  0  0  0  0  0  0  0  0  0
   15.3820  -54.7750   38.9370 C   0  0  0  0  0  0  0  0  0  0  0  0
   16.3810  -54.3340   38.0480 C   0  0  0  0  0  0  0  0  0  0  0  0
   16.7750  -55.1200   36.9970 C   0  0  0  0  0  0  0  0  0  0  0  0
   17.8090  -54.6460   36.0730 C   0  0  0  0  0  0  0  0  0  0  0  0
   18.7180  -53.5850   36.5490 C   0  0  0  0  0  0  0  0  0  0  0  0
   18.0900  -52.6300   37.4530 N   0  0  0  0  0  0  0  0  0  0  0  0
   17.0330  -53.0550   38.3040 C   0  0  0  0  0  0  0  0  0  0  0  0
   16.6820  -52.3110   39.2690 O   0  0  0  0  0  0  0  0  0  0  0  0
   18.6070  -51.2810   37.4400 C   0  0  0  0  0  0  0  0  0  0  0  0
   15.0070  -53.9540   39.9860 O   0  0  0  0  0  0  0  0  0  0  0  0
   13.7640  -53.2840   39.9820 C   0  0  0  0  0  0  0  0  0  0  0  0
   13.8340  -56.7170   39.3940 O   0  0  0  0  0  0  0  0  0  0  0  0
   13.4730  -57.8670   38.6730 C   0  0  0  0  0  0  0  0  0  0  0  0
   14.4800  -58.0120   37.6740 O   0  0  0  0  0  0  0  0  0  0  0  0
   18.8860  -56.6430   34.2930 H   0  0  0  0  0  0  0  0  0  0  0  0
   18.3660  -53.7870   31.1690 H   0  0  0  0  0  0  0  0  0  0  0  0
   17.7890  -58.7420   32.9520 H   0  0  0  0  0  0  0  0  0  0  0  0
   16.8050  -58.3900   31.4940 H   0  0  0  0  0  0  0  0  0  0  0  0
   15.1790  -56.2830   34.5090 H   0  0  0  0  0  0  0  0  0  0  0  0
   17.6480  -56.7650   35.3270 H   0  0  0  0  0  0  0  0  0  0  0  0
   16.8900  -58.2580   35.9580 H   0  0  0  0  0  0  0  0  0  0  0  0
   17.4180  -54.4000   35.0620 H   0  0  0  0  0  0  0  0  0  0  0  0
   18.4760  -55.5460   35.8740 H   0  0  0  0  0  0  0  0  0  0  0  0
   19.5800  -54.0360   37.1250 H   0  0  0  0  0  0  0  0  0  0  0  0
   19.1680  -53.0660   35.6590 H   0  0  0  0  0  0  0  0  0  0  0  0
   19.7080  -51.3210   37.2580 H   0  0  0  0  0  0  0  0  0  0  0  0
   18.1400  -50.7530   36.5890 H   0  0  0  0  0  0  0  0  0  0  0  0
   18.3660  -50.7130   38.3590 H   0  0  0  0  0  0  0  0  0  0  0  0
   13.5260  -53.0520   38.9060 H   0  0  0  0  0  0  0  0  0  0  0  0
   13.8000  -52.3230   40.5330 H   0  0  0  0  0  0  0  0  0  0  0  0
   12.9450  -53.9150   40.4200 H   0  0  0  0  0  0  0  0  0  0  0  0
   12.5000  -57.7630   38.1420 H   0  0  0  0  0  0  0  0  0  0  0  0
   13.5350  -58.7810   39.3040 H   0  0  0  0  0  0  0  0  0  0  0  0
  2  3  2  0  0  0  0
  2  1  1  0  0  0  0
  3 29  1  0  0  0  0
  4  7  1  0  0  0  0
  4  3  1  0  0  0  0
  5  6  2  0  0  0  0
  5  4  1  0  0  0  0
  6  2  1  0  0  0  0
  7 31  1  0  0  0  0
  7  8  1  0  0  0  0
  8 10  1  0  0  0  0
  9  8  2  0  0  0  0
 10 33  1  0  0  0  0
 10 11  1  0  0  0  0
 11 35  1  0  0  0  0
 11 12  1  0  0  0  0
 12 17  2  0  0  0  0
 12 13  1  0  0  0  0
 13 28  1  0  0  0  0
 13 14  2  0  0  0  0
 14 15  1  0  0  0  0
 14 26  1  0  0  0  0
 15 24  1  0  0  0  0
 16 21  1  0  0  0  0
 16 15  2  0  0  0  0
 17 16  1  0  0  0  0
 18 19  1  0  0  0  0
 18 17  1  0  0  0  0
 19 38  1  0  0  0  0
 19 20  1  0  0  0  0
 20 21  1  0  0  0  0
 21 22  2  0  0  0  0
 23 20  1  0  0  0  0
 23 42  1  0  0  0  0
 25 24  1  0  0  0  0
 25 45  1  0  0  0  0
 25 44  1  0  0  0  0
 27 47  1  0  0  0  0
 27 26  1  0  0  0  0
 28 27  1  0  0  0  0
 30  6  1  0  0  0  0
 32  7  1  0  0  0  0
 34 11  1  0  0  0  0
 36 18  1  0  0  0  0
 37 18  1  0  0  0  0
 39 19  1  0  0  0  0
 40 23  1  0  0  0  0
 41 23  1  0  0  0  0
 43 25  1  0  0  0  0
 46 27  1  0  0  0  0
M  END
>  <Pose>
1

>  <Score>
-6.98

$$$$
