
 OpenBabel03232204043D

 33 37  0  0  0  0  0  0  0  0999 V2000
    9.6100  -59.2880   43.9850 B   0  0  0  0  0  0  0  0  0  0  0  0
   10.4350  -59.7330   42.3420 C   0  0  0  0  0  0  0  0  0  0  0  0
   10.2920  -59.0680   41.1410 C   0  0  0  0  0  0  0  0  0  0  0  0
   11.0410  -59.6980   40.2210 N   0  0  0  0  0  0  0  0  0  0  0  0
   11.6390  -60.7230   40.8000 N   0  0  0  0  0  0  0  0  0  0  0  0
   11.2950  -60.7830   42.1070 C   0  0  0  0  0  0  0  0  0  0  0  0
   11.1770  -59.3250   38.8280 C   0  0  0  0  0  0  0  0  0  0  0  0
   12.4940  -58.7440   38.5550 N   0  0  0  0  0  0  0  0  0  0  0  0
   12.8310  -57.4830   38.7640 N   0  0  0  0  0  0  0  0  0  0  0  0
   14.1090  -57.2590   38.4140 C   0  0  0  0  0  0  0  0  0  0  0  0
   14.5820  -58.4720   37.9590 C   0  0  0  0  0  0  0  0  0  0  0  0
   13.5520  -59.4020   38.0520 C   0  0  0  0  0  0  0  0  0  0  0  0
   14.8600  -56.0070   38.4900 C   0  0  0  0  0  0  0  0  0  0  0  0
   14.7120  -55.0460   39.4150 N   0  0  0  0  0  0  0  0  0  0  0  0
   15.5610  -54.0460   39.1790 N   0  0  0  0  0  0  0  0  0  0  0  0
   16.2780  -54.3740   38.0660 C   0  0  0  0  0  0  0  0  0  0  0  0
   15.8290  -55.5790   37.6640 N   0  0  0  0  0  0  0  0  0  0  0  0
   17.2310  -53.4850   37.6150 C   0  0  0  0  0  0  0  0  0  0  0  0
   17.4860  -52.2810   38.2470 C   0  0  0  0  0  0  0  0  0  0  0  0
   18.4610  -51.6340   37.5860 N   0  0  0  0  0  0  0  0  0  0  0  0
   18.8140  -52.4000   36.5660 N   0  0  0  0  0  0  0  0  0  0  0  0
   18.0890  -53.5370   36.5490 C   0  0  0  0  0  0  0  0  0  0  0  0
   16.7570  -52.0020   39.3390 N   0  0  0  0  0  0  0  0  0  0  0  0
   15.8280  -52.8690   39.7740 C   0  0  0  0  0  0  0  0  0  0  0  0
    9.6810  -58.2010   41.0070 H   0  0  0  0  0  0  0  0  0  0  0  0
   11.6130  -61.4970   42.8380 H   0  0  0  0  0  0  0  0  0  0  0  0
   10.4040  -58.5870   38.5140 H   0  0  0  0  0  0  0  0  0  0  0  0
   11.0180  -60.2190   38.1580 H   0  0  0  0  0  0  0  0  0  0  0  0
   15.5830  -58.6410   37.5970 H   0  0  0  0  0  0  0  0  0  0  0  0
   13.5720  -60.4490   37.7830 H   0  0  0  0  0  0  0  0  0  0  0  0
   18.8780  -50.7050   37.8090 H   0  0  0  0  0  0  0  0  0  0  0  0
   18.1430  -54.3660   35.8380 H   0  0  0  0  0  0  0  0  0  0  0  0
   15.2620  -52.6080   40.6560 H   0  0  0  0  0  0  0  0  0  0  0  0
  2  1  1  0  0  0  0
  3  2  2  0  0  0  0
  4  5  1  0  0  0  0
  4  3  1  0  0  0  0
  5  6  2  0  0  0  0
  6  2  1  0  0  0  0
  6 26  1  0  0  0  0
  7  4  1  0  0  0  0
  8  9  1  0  0  0  0
  8  7  1  0  0  0  0
 10 13  1  0  0  0  0
 10  9  2  0  0  0  0
 11 12  2  0  0  0  0
 11 10  1  0  0  0  0
 12  8  1  0  0  0  0
 13 14  2  0  0  0  0
 15 14  1  0  0  0  0
 15 24  1  0  0  0  0
 16 15  1  0  0  0  0
 17 16  2  0  0  0  0
 17 13  1  0  0  0  0
 18 16  1  0  0  0  0
 18 19  2  0  0  0  0
 19 23  1  0  0  0  0
 20 31  1  0  0  0  0
 20 19  1  0  0  0  0
 21 20  1  0  0  0  0
 22 21  2  0  0  0  0
 22 18  1  0  0  0  0
 23 24  2  0  0  0  0
 24 33  1  0  0  0  0
 25  3  1  0  0  0  0
 27  7  1  0  0  0  0
 28  7  1  0  0  0  0
 29 11  1  0  0  0  0
 30 12  1  0  0  0  0
 32 22  1  0  0  0  0
M  END
>  <Pose>
1

>  <Score>
-7.91

$$$$
