
 OpenBabel03232204043D

 42 45  0  0  0  0  0  0  0  0999 V2000
   19.1200  -51.6760   37.0700 B   0  0  0  0  0  0  0  0  0  0  0  0
   17.9680  -53.0130   37.8390 C   0  0  0  0  0  0  0  0  0  0  0  0
   17.2230  -53.9600   37.1710 C   0  0  0  0  0  0  0  0  0  0  0  0
   16.5500  -54.7090   38.0620 N   0  0  0  0  0  0  0  0  0  0  0  0
   16.8640  -54.2470   39.2540 N   0  0  0  0  0  0  0  0  0  0  0  0
   17.7140  -53.2250   39.1760 C   0  0  0  0  0  0  0  0  0  0  0  0
   15.6670  -55.7950   37.8210 C   0  0  0  0  0  0  0  0  0  0  0  0
   16.0930  -56.9070   37.1370 C   0  0  0  0  0  0  0  0  0  0  0  0
   15.2620  -57.9670   36.8900 C   0  0  0  0  0  0  0  0  0  0  0  0
   13.9180  -57.9990   37.3150 C   0  0  0  0  0  0  0  0  0  0  0  0
   13.5040  -56.8780   37.9970 C   0  0  0  0  0  0  0  0  0  0  0  0
   14.3660  -55.7980   38.2450 C   0  0  0  0  0  0  0  0  0  0  0  0
   13.0960  -59.1380   36.9770 C   0  0  0  0  0  0  0  0  0  0  0  0
   12.9270  -59.9800   37.9470 O   0  0  0  0  0  0  0  0  0  0  0  0
   12.4700  -59.4620   35.7860 N   0  0  0  0  0  0  0  0  0  0  0  0
   12.1180  -58.6590   34.6460 C   0  0  0  0  0  0  0  0  0  0  0  0
   13.1730  -58.9040   33.5850 C   0  0  0  0  0  0  0  0  0  0  0  0
   13.5980  -60.3590   33.5890 C   0  0  0  0  0  0  0  0  0  0  0  0
   13.7890  -60.7530   32.2100 N   0  0  0  0  0  0  0  0  0  0  0  0
   15.1070  -60.3870   31.8310 C   0  0  0  0  0  0  0  0  0  0  0  0
   15.5690  -60.2250   30.6550 O   0  0  0  0  0  0  0  0  0  0  0  0
   15.8550  -60.2280   33.0470 N   0  0  0  0  0  0  0  0  0  0  0  0
   14.9570  -60.5040   34.1430 C   0  0  0  0  0  0  0  0  0  0  0  0
   15.3280  -60.8000   35.3000 O   0  0  0  0  0  0  0  0  0  0  0  0
   12.5890  -61.2730   34.2070 C   0  0  0  0  0  0  0  0  0  0  0  0
   12.1160  -60.9000   35.5720 C   0  0  0  0  0  0  0  0  0  0  0  0
   17.1860  -54.0780   36.0960 H   0  0  0  0  0  0  0  0  0  0  0  0
   18.1630  -52.6260   39.9800 H   0  0  0  0  0  0  0  0  0  0  0  0
   17.1360  -56.8900   36.8040 H   0  0  0  0  0  0  0  0  0  0  0  0
   15.6350  -58.8200   36.3530 H   0  0  0  0  0  0  0  0  0  0  0  0
   12.4840  -56.8110   38.3320 H   0  0  0  0  0  0  0  0  0  0  0  0
   13.9990  -54.9350   38.7860 H   0  0  0  0  0  0  0  0  0  0  0  0
   11.1830  -59.1630   34.1710 H   0  0  0  0  0  0  0  0  0  0  0  0
   11.8170  -57.6450   34.8060 H   0  0  0  0  0  0  0  0  0  0  0  0
   12.8100  -58.6080   32.6010 H   0  0  0  0  0  0  0  0  0  0  0  0
   14.0550  -58.2950   33.8410 H   0  0  0  0  0  0  0  0  0  0  0  0
   13.1130  -61.2190   31.5750 H   0  0  0  0  0  0  0  0  0  0  0  0
   16.8560  -59.9640   33.1740 H   0  0  0  0  0  0  0  0  0  0  0  0
   13.1000  -62.2760   34.3060 H   0  0  0  0  0  0  0  0  0  0  0  0
   11.7380  -61.4700   33.5140 H   0  0  0  0  0  0  0  0  0  0  0  0
   11.0070  -60.9100   35.5940 H   0  0  0  0  0  0  0  0  0  0  0  0
   12.4880  -61.5180   36.3900 H   0  0  0  0  0  0  0  0  0  0  0  0
  1  2  1  0  0  0  0
  2  6  1  0  0  0  0
  3  2  2  0  0  0  0
  3  4  1  0  0  0  0
  4  5  1  0  0  0  0
  6  5  2  0  0  0  0
  6 28  1  0  0  0  0
  7  4  1  0  0  0  0
  7 12  1  0  0  0  0
  8  7  2  0  0  0  0
  9  8  1  0  0  0  0
  9 10  2  0  0  0  0
 10 11  1  0  0  0  0
 11 12  2  0  0  0  0
 11 31  1  0  0  0  0
 12 32  1  0  0  0  0
 13 10  1  0  0  0  0
 13 14  2  0  0  0  0
 15 13  1  0  0  0  0
 16 34  1  0  0  0  0
 16 15  1  0  0  0  0
 17 18  1  0  0  0  0
 17 36  1  0  0  0  0
 17 16  1  0  0  0  0
 18 23  1  0  0  0  0
 18 25  1  0  0  0  0
 19 18  1  0  0  0  0
 20 19  1  0  0  0  0
 20 22  1  0  0  0  0
 21 20  2  0  0  0  0
 22 38  1  0  0  0  0
 22 23  1  0  0  0  0
 23 24  2  0  0  0  0
 25 39  1  0  0  0  0
 25 26  1  0  0  0  0
 26 41  1  0  0  0  0
 26 15  1  0  0  0  0
 26 42  1  0  0  0  0
 27  3  1  0  0  0  0
 29  8  1  0  0  0  0
 30  9  1  0  0  0  0
 33 16  1  0  0  0  0
 35 17  1  0  0  0  0
 37 19  1  0  0  0  0
 40 25  1  0  0  0  0
M  END
>  <Pose>
1

>  <Score>
-6.20

$$$$
