
 OpenBabel03232204043D

 40 43  0  0  1  0  0  0  0  0999 V2000
   10.6700  -59.9320   42.4790 B   0  0  0  0  0  0  0  0  0  0  0  0
   10.6380  -59.8240   40.5790 C   0  0  0  0  0  0  0  0  0  0  0  0
    9.4940  -60.1810   39.9060 C   0  0  0  0  0  0  0  0  0  0  0  0
    9.4530  -60.1080   38.5510 N   0  0  0  0  0  0  0  0  0  0  0  0
   10.5140  -59.6960   37.8490 C   0  0  0  0  0  0  0  0  0  0  0  0
   11.7200  -59.3140   38.4520 C   0  0  0  0  0  0  0  0  0  0  0  0
   11.7210  -59.3990   39.8260 C   0  0  0  0  0  0  0  0  0  0  0  0
   12.8290  -58.8610   37.6460 C   0  0  0  0  0  0  0  0  0  0  0  0
   13.0050  -59.5030   36.5460 O   0  0  0  0  0  0  0  0  0  0  0  0
   13.7220  -57.8100   37.9310 N   0  0  0  0  0  0  0  0  0  0  0  0
   15.0250  -57.6080   38.4820 C   0  0  0  0  0  0  0  0  0  0  0  0
   15.1140  -56.3330   37.6230 C   0  0  0  0  0  0  0  0  0  0  0  0
   13.6410  -56.3430   37.7820 C   0  0  0  0  0  0  0  0  0  0  0  0
   15.8470  -55.2910   38.2870 N   0  0  0  0  0  0  0  0  0  0  0  0
   15.4570  -54.5180   39.4370 C   0  0  0  0  0  0  0  0  0  0  0  0
   14.6460  -54.8910   40.3020 O   0  0  0  0  0  0  0  0  0  0  0  0
   16.2290  -53.2310   39.3360 C   0  0  1  0  0  0  0  0  0  0  0  0
   17.5520  -53.7550   38.8310 C   0  0  2  0  0  0  0  0  0  0  0  0
   18.3530  -52.6690   38.1670 C   0  0  0  0  0  0  0  0  0  0  0  0
   17.5800  -52.1050   37.0290 C   0  0  0  0  0  0  0  0  0  0  0  0
   16.2760  -51.9860   37.1710 C   0  0  0  0  0  0  0  0  0  0  0  0
   15.5050  -52.3630   38.3650 C   0  0  0  0  0  0  0  0  0  0  0  0
   17.1370  -54.8270   37.9060 C   0  0  0  0  0  0  0  0  0  0  0  0
   17.8480  -55.2250   36.9510 O   0  0  0  0  0  0  0  0  0  0  0  0
    8.6390  -60.5140   40.4810 H   0  0  0  0  0  0  0  0  0  0  0  0
   10.4360  -59.6550   36.7760 H   0  0  0  0  0  0  0  0  0  0  0  0
   12.5880  -59.1220   40.3710 H   0  0  0  0  0  0  0  0  0  0  0  0
   15.8520  -58.2640   38.1360 H   0  0  0  0  0  0  0  0  0  0  0  0
   15.0470  -57.3960   39.5810 H   0  0  0  0  0  0  0  0  0  0  0  0
   15.4210  -56.5730   36.6000 H   0  0  0  0  0  0  0  0  0  0  0  0
   13.2420  -55.9370   38.7330 H   0  0  0  0  0  0  0  0  0  0  0  0
   13.0290  -56.0420   36.9140 H   0  0  0  0  0  0  0  0  0  0  0  0
   16.3330  -52.7570   40.3320 H   0  0  0  0  0  0  0  0  0  0  0  0
   18.1300  -54.1320   39.6990 H   0  0  0  0  0  0  0  0  0  0  0  0
   19.3250  -53.0790   37.8670 H   0  0  0  0  0  0  0  0  0  0  0  0
   18.4880  -51.8610   38.9220 H   0  0  0  0  0  0  0  0  0  0  0  0
   18.1240  -51.8140   36.1260 H   0  0  0  0  0  0  0  0  0  0  0  0
   15.7140  -51.5690   36.3270 H   0  0  0  0  0  0  0  0  0  0  0  0
   14.5450  -52.8310   38.0000 H   0  0  0  0  0  0  0  0  0  0  0  0
   15.1800  -51.4210   38.8570 H   0  0  0  0  0  0  0  0  0  0  0  0
  2  1  1  0  0  0  0
  3 25  1  0  0  0  0
  3  2  1  0  0  0  0
  4  3  2  0  0  0  0
  5  6  2  0  0  0  0
  5  4  1  0  0  0  0
  6  7  1  0  0  0  0
  7 27  1  0  0  0  0
  7  2  2  0  0  0  0
  8 10  1  0  0  0  0
  8  6  1  0  0  0  0
  9  8  2  0  0  0  0
 10 11  1  0  0  0  0
 11 29  1  0  0  0  0
 12 13  1  0  0  0  0
 12 14  1  0  0  0  0
 12 11  1  0  0  0  0
 13 10  1  0  0  0  0
 13 31  1  0  0  0  0
 14 15  1  0  0  0  0
 15 16  2  0  0  0  0
 17 15  1  0  0  0  0
 17 33  1  1  0  0  0
 18 17  1  0  0  0  0
 18 34  1  1  0  0  0
 19 18  1  0  0  0  0
 19 36  1  0  0  0  0
 20 21  2  0  0  0  0
 20 19  1  0  0  0  0
 21 22  1  0  0  0  0
 22 40  1  0  0  0  0
 22 17  1  0  0  0  0
 23 14  1  0  0  0  0
 23 18  1  0  0  0  0
 24 23  2  0  0  0  0
 26  5  1  0  0  0  0
 28 11  1  0  0  0  0
 30 12  1  0  0  0  0
 32 13  1  0  0  0  0
 35 19  1  0  0  0  0
 37 20  1  0  0  0  0
 38 21  1  0  0  0  0
 39 22  1  0  0  0  0
M  END
>  <Pose>
1

>  <Score>
-5.18

$$$$
