
 OpenBabel03232204043D

 48 43  0  0  1  0  0  0  0  0999 V2000
   19.3430  -53.8240   36.2270 B   0  0  0  0  0  0  0  0  0  0  0  0
   17.9890  -53.6530   37.5320 C   0  0  0  0  0  0  0  0  0  0  0  0
   18.0340  -52.6040   38.4370 C   0  0  0  0  0  0  0  0  0  0  0  0
   17.0490  -52.5250   39.3440 N   0  0  0  0  0  0  0  0  0  0  0  0
   16.0310  -53.3960   39.4230 C   0  0  0  0  0  0  0  0  0  0  0  0
   15.9940  -54.4320   38.5240 C   0  0  0  0  0  0  0  0  0  0  0  0
   16.9730  -54.5850   37.5560 C   0  0  1  0  0  0  0  0  0  0  0  0
   14.9070  -55.3960   38.5780 C   0  0  0  0  0  0  0  0  0  0  0  0
   13.9710  -55.2630   39.4170 O   0  0  0  0  0  0  0  0  0  0  0  0
   14.8640  -56.4830   37.7230 O   0  0  0  0  0  0  0  0  0  0  0  0
   17.4000  -52.4160   37.1780 N   0  0  0  0  0  0  0  0  0  0  0  0
   17.5580  -52.3790   38.6230 C   0  0  0  0  0  0  0  0  0  0  0  0
   17.6410  -53.7650   39.2210 C   0  0  0  0  0  0  0  0  0  0  0  0
   16.2510  -54.2660   39.5710 C   0  0  0  0  0  0  0  0  0  0  0  0
   15.4960  -54.6710   38.3260 C   0  0  0  0  0  0  0  0  0  0  0  0
   16.4330  -54.7680   37.1950 C   0  0  0  0  0  0  0  0  0  0  0  0
   17.2510  -53.7750   36.7120 C   0  0  1  0  0  0  0  0  0  0  0  0
   18.0470  -54.0290   35.6710 N   0  0  0  0  0  0  0  0  0  0  0  0
   18.0780  -55.2230   35.0730 C   0  0  0  0  0  0  0  0  0  0  0  0
   17.2690  -56.2290   35.5380 C   0  0  0  0  0  0  0  0  0  0  0  0
   16.4360  -55.9950   36.6120 C   0  0  0  0  0  0  0  0  0  0  0  0
   15.5970  -57.0620   37.0820 N   0  0  0  0  0  0  0  0  0  0  0  0
   17.2610  -57.4920   34.9530 C   0  0  0  0  0  0  0  0  0  0  0  0
   18.0950  -57.7100   33.8840 C   0  0  0  0  0  0  0  0  0  0  0  0
   18.9040  -56.7030   33.4190 C   0  0  0  0  0  0  0  0  0  0  0  0
   18.9040  -55.4410   34.0130 C   0  0  0  0  0  0  0  0  0  0  0  0
   18.6230  -51.8850   36.5860 C   0  0  0  0  0  0  0  0  0  0  0  0
   18.8450  -51.8990   38.3800 H   0  0  0  0  0  0  0  0  0  0  0  0
   15.2790  -53.2680   40.1790 H   0  0  0  0  0  0  0  0  0  0  0  0
   16.9710  -55.3780   36.8440 H   0  0  0  0  0  0  0  0  0  0  0  0
   16.5780  -51.8390   36.8860 H   0  0  0  0  0  0  0  0  0  0  0  0
   16.7480  -51.8330   39.1280 H   0  0  0  0  0  0  0  0  0  0  0  0
   18.5060  -51.8570   38.9110 H   0  0  0  0  0  0  0  0  0  0  0  0
   18.1970  -53.6980   40.1800 H   0  0  0  0  0  0  0  0  0  0  0  0
   18.1350  -54.4160   38.4800 H   0  0  0  0  0  0  0  0  0  0  0  0
   16.3470  -55.0980   40.2710 H   0  0  0  0  0  0  0  0  0  0  0  0
   15.7090  -53.4350   40.0510 H   0  0  0  0  0  0  0  0  0  0  0  0
   14.9750  -55.6320   38.5170 H   0  0  0  0  0  0  0  0  0  0  0  0
   14.6700  -53.9360   38.1010 H   0  0  0  0  0  0  0  0  0  0  0  0
   16.0230  -57.8890   37.5310 H   0  0  0  0  0  0  0  0  0  0  0  0
   14.5580  -57.0180   36.9760 H   0  0  0  0  0  0  0  0  0  0  0  0
   16.6150  -58.2620   35.3410 H   0  0  0  0  0  0  0  0  0  0  0  0
   18.1230  -58.6800   33.3960 H   0  0  0  0  0  0  0  0  0  0  0  0
   19.5580  -56.8670   32.5840 H   0  0  0  0  0  0  0  0  0  0  0  0
   19.5310  -54.6340   33.6650 H   0  0  0  0  0  0  0  0  0  0  0  0
   18.9200  -51.0050   37.1810 H   0  0  0  0  0  0  0  0  0  0  0  0
   18.4860  -51.6820   35.5130 H   0  0  0  0  0  0  0  0  0  0  0  0
   19.4230  -52.6560   36.7210 H   0  0  0  0  0  0  0  0  0  0  0  0
  2  7  1  0  0  0  0
  3 12  1  0  0  0  0
  3 33  1  0  0  0  0
  5 14  1  0  0  0  0
  5 37  1  0  0  0  0
  6 14  1  0  0  0  0
  7 16  1  1  0  0  0
  8  9  2  0  0  0  0
 12  4  1  0  0  0  0
 13  4  1  0  0  0  0
 13 34  1  0  0  0  0
 14 36  1  0  0  0  0
 15  6  1  0  0  0  0
 15  8  1  0  0  0  0
 17 18  1  6  0  0  0
 17 11  1  0  0  0  0
 17  2  1  0  0  0  0
 17  7  1  0  0  0  0
 18  1  1  0  0  0  0
 19 20  1  0  0  0  0
 19 18  1  0  0  0  0
 20 21  1  0  0  0  0
 21 30  1  0  0  0  0
 21 22  1  0  0  0  0
 22 40  1  0  0  0  0
 22 10  1  0  0  0  0
 23 42  1  0  0  0  0
 23 20  2  0  0  0  0
 24 23  1  0  0  0  0
 25 24  2  0  0  0  0
 25 26  1  0  0  0  0
 26 19  2  0  0  0  0
 27 48  1  0  0  0  0
 27 11  1  0  0  0  0
 27 46  1  0  0  0  0
 31 11  1  0  0  0  0
 32  4  1  0  0  0  0
 35 13  1  0  0  0  0
 41 10  1  0  0  0  0
 43 24  1  0  0  0  0
 44 25  1  0  0  0  0
 45 26  1  0  0  0  0
 47 27  1  0  0  0  0
M  END
>  <Pose>
1

>  <Score>
-6.95

$$$$
