
 OpenBabel03232204043D

 56 59  0  0  1  0  0  0  0  0999 V2000
   13.4090  -57.9030   34.3700 B   0  0  0  0  0  0  0  0  0  0  0  0
   14.9050  -58.8650   33.7060 C   0  0  0  0  0  0  0  0  0  0  0  0
   16.0810  -58.1700   33.3940 C   0  0  0  0  0  0  0  0  0  0  0  0
   17.1880  -58.8070   32.9230 C   0  0  0  0  0  0  0  0  0  0  0  0
   17.1380  -60.1790   32.7490 C   0  0  0  0  0  0  0  0  0  0  0  0
   15.9750  -60.8760   33.0560 C   0  0  0  0  0  0  0  0  0  0  0  0
   14.8590  -60.2300   33.5330 C   0  0  0  0  0  0  0  0  0  0  0  0
   15.8810  -62.3540   32.8820 C   0  0  0  0  0  0  0  0  0  0  0  0
   18.4400  -58.0530   32.6390 C   0  0  1  0  0  0  0  0  0  0  0  0
   18.2830  -56.6420   32.2000 C   0  0  0  0  0  0  0  0  0  0  0  0
   16.8380  -56.1420   32.4360 C   0  0  0  0  0  0  0  0  0  0  0  0
   16.2210  -56.7960   33.5320 O   0  0  0  0  0  0  0  0  0  0  0  0
   18.4550  -56.4640   30.7040 C   0  0  0  0  0  0  0  0  0  0  0  0
   19.7800  -56.7690   30.2080 N   0  0  0  0  0  4  0  0  0  0  0  0
   20.6430  -55.5990   30.3710 C   0  0  0  0  0  0  0  0  0  0  0  0
   21.7430  -55.7080   29.3810 C   0  0  0  0  0  0  0  0  0  0  0  0
   21.3400  -56.8510   28.5120 C   0  0  0  0  0  0  0  0  0  0  0  0
   19.8270  -56.9040   28.7620 C   0  0  0  0  0  0  0  0  0  0  0  0
   19.1090  -55.7030   32.9960 C   0  0  0  0  0  0  0  0  0  0  0  0
   18.7770  -54.5010   33.5630 N   0  0  0  0  0  4  0  0  0  0  0  0
   18.0620  -54.7190   34.8410 C   0  0  0  0  0  0  0  0  0  0  0  0
   18.4530  -53.6100   35.7380 C   0  0  0  0  0  0  0  0  0  0  0  0
   19.7630  -53.1160   35.2570 C   0  0  0  0  0  0  0  0  0  0  0  0
   19.7780  -53.5430   33.7910 C   0  0  0  0  0  0  0  0  0  0  0  0
   19.1610  -58.1920   33.8580 O   0  0  0  0  0  0  0  0  0  0  0  0
   17.9670  -60.7450   32.3820 H   0  0  0  0  0  0  0  0  0  0  0  0
   13.9410  -60.7360   33.7810 H   0  0  0  0  0  0  0  0  0  0  0  0
   16.6020  -62.7240   32.1310 H   0  0  0  0  0  0  0  0  0  0  0  0
   16.0480  -62.8240   33.8880 H   0  0  0  0  0  0  0  0  0  0  0  0
   14.8270  -62.6410   32.6100 H   0  0  0  0  0  0  0  0  0  0  0  0
   19.0480  -58.6690   31.9140 H   0  0  0  0  0  0  0  0  0  0  0  0
   16.2470  -56.1370   31.5210 H   0  0  0  0  0  0  0  0  0  0  0  0
   16.9120  -55.0620   32.7380 H   0  0  0  0  0  0  0  0  0  0  0  0
   17.7840  -57.2300   30.1930 H   0  0  0  0  0  0  0  0  0  0  0  0
   18.1430  -55.5290   30.2790 H   0  0  0  0  0  0  0  0  0  0  0  0
   20.2160  -57.6170   30.5980 H   0  0  0  0  0  0  0  0  0  0  0  0
   21.0320  -55.4810   31.3760 H   0  0  0  0  0  0  0  0  0  0  0  0
   19.9910  -54.7150   30.1540 H   0  0  0  0  0  0  0  0  0  0  0  0
   22.7240  -55.8210   29.8650 H   0  0  0  0  0  0  0  0  0  0  0  0
   21.8130  -54.7610   28.7710 H   0  0  0  0  0  0  0  0  0  0  0  0
   21.7880  -57.7930   28.9270 H   0  0  0  0  0  0  0  0  0  0  0  0
   21.5560  -56.7210   27.4440 H   0  0  0  0  0  0  0  0  0  0  0  0
   19.3730  -56.0180   28.2650 H   0  0  0  0  0  0  0  0  0  0  0  0
   19.4210  -57.8300   28.3690 H   0  0  0  0  0  0  0  0  0  0  0  0
   19.6210  -56.3160   33.8610 H   0  0  0  0  0  0  0  0  0  0  0  0
   20.0990  -55.4970   32.4090 H   0  0  0  0  0  0  0  0  0  0  0  0
   17.9500  -54.0080   33.0030 H   0  0  0  0  0  0  0  0  0  0  0  0
   16.9500  -54.6510   34.7080 H   0  0  0  0  0  0  0  0  0  0  0  0
   18.2360  -55.7060   35.2660 H   0  0  0  0  0  0  0  0  0  0  0  0
   17.7210  -52.7700   35.7200 H   0  0  0  0  0  0  0  0  0  0  0  0
   18.5750  -53.9500   36.8010 H   0  0  0  0  0  0  0  0  0  0  0  0
   19.8530  -52.0170   35.2870 H   0  0  0  0  0  0  0  0  0  0  0  0
   20.6360  -53.5360   35.8100 H   0  0  0  0  0  0  0  0  0  0  0  0
   20.8110  -53.8110   33.5950 H   0  0  0  0  0  0  0  0  0  0  0  0
   19.6070  -52.6050   33.1550 H   0  0  0  0  0  0  0  0  0  0  0  0
   19.5670  -59.0730   33.9300 H   0  0  0  0  0  0  0  0  0  0  0  0
  2  1  1  0  0  0  0
  3 12  1  0  0  0  0
  3  2  2  0  0  0  0
  4  3  1  0  0  0  0
  5  4  2  0  0  0  0
  5  6  1  0  0  0  0
  6  7  2  0  0  0  0
  7  2  1  0  0  0  0
  7 27  1  0  0  0  0
  8  6  1  0  0  0  0
  8 29  1  0  0  0  0
  9 31  1  6  0  0  0
  9  4  1  0  0  0  0
  9 25  1  0  0  0  0
 10 11  1  0  0  0  0
 10  9  1  0  0  0  0
 10 19  1  0  0  0  0
 11 33  1  0  0  0  0
 11 12  1  0  0  0  0
 13 10  1  0  0  0  0
 14 15  1  0  0  0  0
 14 36  1  0  0  0  0
 14 13  1  0  0  0  0
 15 37  1  0  0  0  0
 16 39  1  0  0  0  0
 16 15  1  0  0  0  0
 17 18  1  0  0  0  0
 17 41  1  0  0  0  0
 17 16  1  0  0  0  0
 18 14  1  0  0  0  0
 19 20  1  0  0  0  0
 19 45  1  0  0  0  0
 20 24  1  0  0  0  0
 20 21  1  0  0  0  0
 21 49  1  0  0  0  0
 21 22  1  0  0  0  0
 22 51  1  0  0  0  0
 23 52  1  0  0  0  0
 23 22  1  0  0  0  0
 23 53  1  0  0  0  0
 24 23  1  0  0  0  0
 25 56  1  0  0  0  0
 26  5  1  0  0  0  0
 28  8  1  0  0  0  0
 30  8  1  0  0  0  0
 32 11  1  0  0  0  0
 34 13  1  0  0  0  0
 35 13  1  0  0  0  0
 38 15  1  0  0  0  0
 40 16  1  0  0  0  0
 42 17  1  0  0  0  0
 43 18  1  0  0  0  0
 44 18  1  0  0  0  0
 46 19  1  0  0  0  0
 47 20  1  0  0  0  0
 48 21  1  0  0  0  0
 50 22  1  0  0  0  0
 54 24  1  0  0  0  0
 55 24  1  0  0  0  0
M  END
>  <Pose>
1

>  <Score>
-5.23

$$$$
