
 OpenBabel03232204043D

 43 46  0  0  0  0  0  0  0  0999 V2000
   13.8950  -57.9630   34.3140 B   0  0  0  0  0  0  0  0  0  0  0  0
   12.8080  -59.4480   34.8030 C   0  0  0  0  0  0  0  0  0  0  0  0
   12.4700  -59.7250   36.0990 N   0  0  0  0  0  0  0  0  0  0  0  0
   11.7080  -60.8340   36.0240 C   0  0  0  0  0  0  0  0  0  0  0  0
   11.5690  -61.2500   34.7100 C   0  0  0  0  0  0  0  0  0  0  0  0
   12.2710  -60.3580   33.9780 N   0  0  0  0  0  0  0  0  0  0  0  0
   10.8580  -62.3250   34.3280 N   0  0  0  0  0  0  0  0  0  0  0  0
   10.2510  -63.0230   35.3060 C   0  0  0  0  0  0  0  0  0  0  0  0
    9.5650  -64.0530   34.9950 O   0  0  0  0  0  0  0  0  0  0  0  0
   10.3590  -62.6530   36.5960 N   0  0  0  0  0  0  0  0  0  0  0  0
   11.0780  -61.5640   36.9850 C   0  0  0  0  0  0  0  0  0  0  0  0
   11.1670  -61.2330   38.1860 O   0  0  0  0  0  0  0  0  0  0  0  0
   10.7190  -62.7540   32.9530 C   0  0  0  0  0  0  0  0  0  0  0  0
   12.8690  -58.9340   37.2450 C   0  0  0  0  0  0  0  0  0  0  0  0
   13.8930  -57.8830   36.9320 C   0  0  0  0  0  0  0  0  0  0  0  0
   14.8180  -57.5520   38.0680 C   0  0  0  0  0  0  0  0  0  0  0  0
   15.5970  -56.3640   37.7470 N   0  0  0  0  0  0  0  0  0  0  0  0
   15.6370  -55.1830   38.4060 C   0  0  0  0  0  0  0  0  0  0  0  0
   16.5020  -54.3160   37.7780 C   0  0  0  0  0  0  0  0  0  0  0  0
   16.9880  -54.9930   36.7210 N   0  0  0  0  0  0  0  0  0  0  0  0
   16.4370  -56.2260   36.7090 C   0  0  0  0  0  0  0  0  0  0  0  0
   16.7640  -57.6110   35.4360 B   0  0  0  0  0  0  0  0  0  0  0  0
   16.7460  -53.0650   38.2090 N   0  0  0  0  0  0  0  0  0  0  0  0
   16.0870  -52.6700   39.3250 C   0  0  0  0  0  0  0  0  0  0  0  0
   16.3150  -51.4900   39.7350 O   0  0  0  0  0  0  0  0  0  0  0  0
   15.2310  -53.4880   39.9720 N   0  0  0  0  0  0  0  0  0  0  0  0
   14.9940  -54.7410   39.5320 C   0  0  0  0  0  0  0  0  0  0  0  0
   14.2040  -55.5270   40.1090 O   0  0  0  0  0  0  0  0  0  0  0  0
   17.6730  -52.1780   37.5090 C   0  0  0  0  0  0  0  0  0  0  0  0
    9.8960  -63.1820   37.3650 H   0  0  0  0  0  0  0  0  0  0  0  0
   11.4800  -62.2780   32.2990 H   0  0  0  0  0  0  0  0  0  0  0  0
   10.9550  -63.8550   32.9110 H   0  0  0  0  0  0  0  0  0  0  0  0
    9.7190  -62.5300   32.5320 H   0  0  0  0  0  0  0  0  0  0  0  0
   13.1840  -59.6010   38.0770 H   0  0  0  0  0  0  0  0  0  0  0  0
   11.9470  -58.3720   37.5760 H   0  0  0  0  0  0  0  0  0  0  0  0
   13.4300  -56.9670   36.5030 H   0  0  0  0  0  0  0  0  0  0  0  0
   14.5510  -58.2840   36.1020 H   0  0  0  0  0  0  0  0  0  0  0  0
   14.1930  -57.2540   38.9610 H   0  0  0  0  0  0  0  0  0  0  0  0
   15.4750  -58.3820   38.3250 H   0  0  0  0  0  0  0  0  0  0  0  0
   14.7540  -53.1310   40.8240 H   0  0  0  0  0  0  0  0  0  0  0  0
   18.7120  -52.5640   37.5620 H   0  0  0  0  0  0  0  0  0  0  0  0
   17.4080  -52.0780   36.4380 H   0  0  0  0  0  0  0  0  0  0  0  0
   17.6510  -51.2120   38.0360 H   0  0  0  0  0  0  0  0  0  0  0  0
  1  2  1  0  0  0  0
  2  3  1  0  0  0  0
  3 14  1  0  0  0  0
  4  3  1  0  0  0  0
  4 11  1  0  0  0  0
  5  4  2  0  0  0  0
  6  5  1  0  0  0  0
  6  2  2  0  0  0  0
  7  5  1  0  0  0  0
  7  8  1  0  0  0  0
  8 10  1  0  0  0  0
  9  8  2  0  0  0  0
 10 11  1  0  0  0  0
 10 30  1  0  0  0  0
 11 12  2  0  0  0  0
 13  7  1  0  0  0  0
 14 35  1  0  0  0  0
 14 34  1  0  0  0  0
 15 14  1  0  0  0  0
 15 16  1  0  0  0  0
 16 39  1  0  0  0  0
 16 38  1  0  0  0  0
 17 16  1  0  0  0  0
 17 18  1  0  0  0  0
 18 27  1  0  0  0  0
 19 23  1  0  0  0  0
 19 18  2  0  0  0  0
 20 19  1  0  0  0  0
 21 20  2  0  0  0  0
 21 17  1  0  0  0  0
 22 21  1  0  0  0  0
 23 24  1  0  0  0  0
 24 25  2  0  0  0  0
 24 26  1  0  0  0  0
 26 40  1  0  0  0  0
 27 26  1  0  0  0  0
 27 28  2  0  0  0  0
 29 41  1  0  0  0  0
 29 43  1  0  0  0  0
 29 23  1  0  0  0  0
 31 13  1  0  0  0  0
 32 13  1  0  0  0  0
 33 13  1  0  0  0  0
 36 15  1  0  0  0  0
 37 15  1  0  0  0  0
 42 29  1  0  0  0  0
M  END
>  <Pose>
1

>  <Score>
-7.79

$$$$
