
 OpenBabel03162216103D

 43 46  0  0  0  0  0  0  0  0999 V2000
   14.1560  -59.5940   33.4180 B   0  0  0  0  0  0  0  0  0  0  0  0
   13.0020  -60.0660   34.8570 C   0  0  0  0  0  0  0  0  0  0  0  0
   12.8100  -59.2630   35.9480 N   0  0  0  0  0  0  0  0  0  0  0  0
   11.9390  -59.9410   36.7220 C   0  0  0  0  0  0  0  0  0  0  0  0
   11.5890  -61.1450   36.1340 C   0  0  0  0  0  0  0  0  0  0  0  0
   12.2730  -61.1860   34.9710 N   0  0  0  0  0  0  0  0  0  0  0  0
   10.7310  -62.0290   36.6730 N   0  0  0  0  0  0  0  0  0  0  0  0
   10.1920  -61.6960   37.8600 C   0  0  0  0  0  0  0  0  0  0  0  0
    9.3730  -62.5020   38.4150 O   0  0  0  0  0  0  0  0  0  0  0  0
   10.5040  -60.5350   38.4660 N   0  0  0  0  0  0  0  0  0  0  0  0
   11.3720  -59.6380   37.9220 C   0  0  0  0  0  0  0  0  0  0  0  0
   11.6490  -58.5640   38.4960 O   0  0  0  0  0  0  0  0  0  0  0  0
   10.3720  -63.2860   36.0530 C   0  0  0  0  0  0  0  0  0  0  0  0
   13.4320  -57.9690   36.1430 C   0  0  0  0  0  0  0  0  0  0  0  0
   13.5600  -57.5670   37.5830 C   0  0  0  0  0  0  0  0  0  0  0  0
   14.9570  -57.6360   38.1300 C   0  0  0  0  0  0  0  0  0  0  0  0
   15.6860  -56.4220   37.7910 N   0  0  0  0  0  0  0  0  0  0  0  0
   15.6670  -55.2260   38.4230 C   0  0  0  0  0  0  0  0  0  0  0  0
   16.5000  -54.3360   37.7860 C   0  0  0  0  0  0  0  0  0  0  0  0
   17.0280  -55.0140   36.7500 N   0  0  0  0  0  0  0  0  0  0  0  0
   16.5330  -56.2700   36.7600 C   0  0  0  0  0  0  0  0  0  0  0  0
   16.9370  -57.6680   35.5230 B   0  0  0  0  0  0  0  0  0  0  0  0
   16.6830  -53.0660   38.1900 N   0  0  0  0  0  0  0  0  0  0  0  0
   15.9930  -52.6750   39.2890 C   0  0  0  0  0  0  0  0  0  0  0  0
   16.1640  -51.4780   39.6740 O   0  0  0  0  0  0  0  0  0  0  0  0
   15.1660  -53.5160   39.9440 N   0  0  0  0  0  0  0  0  0  0  0  0
   14.9900  -54.7880   39.5310 C   0  0  0  0  0  0  0  0  0  0  0  0
   14.2280  -55.5950   40.1170 O   0  0  0  0  0  0  0  0  0  0  0  0
   17.5790  -52.1550   37.4800 C   0  0  0  0  0  0  0  0  0  0  0  0
   10.0950  -60.2620   39.3850 H   0  0  0  0  0  0  0  0  0  0  0  0
   11.0840  -63.5600   35.2460 H   0  0  0  0  0  0  0  0  0  0  0  0
   10.4910  -64.0970   36.8270 H   0  0  0  0  0  0  0  0  0  0  0  0
    9.3520  -63.2750   35.6200 H   0  0  0  0  0  0  0  0  0  0  0  0
   12.9100  -57.2010   35.5310 H   0  0  0  0  0  0  0  0  0  0  0  0
   14.4880  -58.0670   35.7570 H   0  0  0  0  0  0  0  0  0  0  0  0
   12.8410  -58.1150   38.2320 H   0  0  0  0  0  0  0  0  0  0  0  0
   13.2480  -56.4830   37.6640 H   0  0  0  0  0  0  0  0  0  0  0  0
   14.8990  -57.6300   39.2590 H   0  0  0  0  0  0  0  0  0  0  0  0
   15.4970  -58.5160   37.7830 H   0  0  0  0  0  0  0  0  0  0  0  0
   14.6630  -53.1610   40.7820 H   0  0  0  0  0  0  0  0  0  0  0  0
   18.6340  -52.4930   37.5550 H   0  0  0  0  0  0  0  0  0  0  0  0
   17.3230  -52.0910   36.4050 H   0  0  0  0  0  0  0  0  0  0  0  0
   17.5080  -51.1790   37.9840 H   0  0  0  0  0  0  0  0  0  0  0  0
  1  2  1  0  0  0  0
  2  6  2  0  0  0  0
  2  3  1  0  0  0  0
  3 14  1  0  0  0  0
  3  4  1  0  0  0  0
  4 11  1  0  0  0  0
  5  7  1  0  0  0  0
  5  4  2  0  0  0  0
  6  5  1  0  0  0  0
  7  8  1  0  0  0  0
  8  9  2  0  0  0  0
  8 10  1  0  0  0  0
 10 30  1  0  0  0  0
 11 10  1  0  0  0  0
 11 12  2  0  0  0  0
 13  7  1  0  0  0  0
 13 32  1  0  0  0  0
 14 15  1  0  0  0  0
 15 37  1  0  0  0  0
 15 16  1  0  0  0  0
 15 36  1  0  0  0  0
 16 38  1  0  0  0  0
 17 16  1  0  0  0  0
 17 18  1  0  0  0  0
 18 27  1  0  0  0  0
 19 23  1  0  0  0  0
 19 18  2  0  0  0  0
 20 21  2  0  0  0  0
 20 19  1  0  0  0  0
 21 17  1  0  0  0  0
 22 21  1  0  0  0  0
 23 24  1  0  0  0  0
 24 25  2  0  0  0  0
 24 26  1  0  0  0  0
 26 40  1  0  0  0  0
 27 26  1  0  0  0  0
 27 28  2  0  0  0  0
 29 41  1  0  0  0  0
 29 43  1  0  0  0  0
 29 23  1  0  0  0  0
 31 13  1  0  0  0  0
 33 13  1  0  0  0  0
 34 14  1  0  0  0  0
 35 14  1  0  0  0  0
 39 16  1  0  0  0  0
 42 29  1  0  0  0  0
M  END
>  <Pose>
1

>  <Score>
-8.06

$$$$
