
 OpenBabel03232204043D

 37 40  0  0  1  0  0  0  0  0999 V2000
   18.4600  -55.9790   34.5570 B   0  0  0  0  0  0  0  0  0  0  0  0
   16.9090  -56.7370   35.3590 C   0  0  0  0  0  0  0  0  0  0  0  0
   16.6210  -56.8110   36.6770 N   0  0  0  0  0  0  0  0  0  0  0  0
   15.4520  -57.3720   36.8830 N   0  0  0  0  0  0  0  0  0  0  0  0
   14.9610  -57.6730   35.6670 C   0  0  0  0  0  0  0  0  0  0  0  0
   13.8100  -58.2370   35.2880 N   0  0  0  0  0  0  0  0  0  0  0  0
   13.5160  -58.4300   33.9900 C   0  0  0  0  0  0  0  0  0  0  0  0
   14.3800  -58.0590   33.0280 N   0  0  0  0  0  0  0  0  0  0  0  0
   15.5790  -57.4770   33.3390 C   0  0  0  0  0  0  0  0  0  0  0  0
   15.8580  -57.2870   34.6640 C   0  0  0  0  0  0  0  0  0  0  0  0
   16.4870  -57.1550   32.2740 N   0  0  0  0  0  0  0  0  0  0  0  0
   17.0620  -58.1630   31.4400 C   0  0  1  0  0  0  0  0  0  0  0  0
   18.4100  -57.8120   30.9380 C   0  0  0  0  0  0  0  0  0  0  0  0
   18.8440  -56.5320   31.1480 O   0  0  0  0  0  0  0  0  0  0  0  0
   17.8290  -55.5870   31.0370 C   0  0  0  0  0  0  0  0  0  0  0  0
   16.7700  -55.7670   32.0760 C   0  0  0  0  0  0  0  0  0  0  0  0
   16.9940  -59.5000   32.0710 C   0  0  0  0  0  0  0  0  0  0  0  0
   16.1230  -60.4650   31.7720 N   0  0  0  0  0  0  0  0  0  0  0  0
   16.4180  -61.5160   32.5890 C   0  0  0  0  0  0  0  0  0  0  0  0
   17.4610  -61.1300   33.3460 N   0  0  0  0  0  0  0  0  0  0  0  0
   17.7880  -59.9150   33.0160 O   0  0  0  0  0  0  0  0  0  0  0  0
   15.7360  -62.8290   32.6430 C   0  0  0  0  0  0  0  0  0  0  0  0
   14.8320  -57.6090   38.1740 C   0  0  0  0  0  0  0  0  0  0  0  0
   12.5520  -58.8980   33.7600 H   0  0  0  0  0  0  0  0  0  0  0  0
   16.3920  -58.1720   30.4970 H   0  0  0  0  0  0  0  0  0  0  0  0
   18.5580  -58.1140   29.8550 H   0  0  0  0  0  0  0  0  0  0  0  0
   19.1450  -58.4880   31.4720 H   0  0  0  0  0  0  0  0  0  0  0  0
   18.3010  -54.5930   31.1980 H   0  0  0  0  0  0  0  0  0  0  0  0
   17.4100  -55.5520   30.0010 H   0  0  0  0  0  0  0  0  0  0  0  0
   17.0080  -55.2350   33.0280 H   0  0  0  0  0  0  0  0  0  0  0  0
   15.7920  -55.3010   31.7400 H   0  0  0  0  0  0  0  0  0  0  0  0
   14.6510  -62.6750   32.3770 H   0  0  0  0  0  0  0  0  0  0  0  0
   15.7570  -63.2720   33.6550 H   0  0  0  0  0  0  0  0  0  0  0  0
   16.1580  -63.5540   31.9040 H   0  0  0  0  0  0  0  0  0  0  0  0
   15.6020  -57.5440   38.9670 H   0  0  0  0  0  0  0  0  0  0  0  0
   14.3940  -58.6380   38.1830 H   0  0  0  0  0  0  0  0  0  0  0  0
   14.0650  -56.8310   38.4160 H   0  0  0  0  0  0  0  0  0  0  0  0
  1  2  1  0  0  0  0
  2  3  2  0  0  0  0
  3  4  1  0  0  0  0
  4 23  1  0  0  0  0
  5  4  1  0  0  0  0
  6  5  1  0  0  0  0
  7  6  2  0  0  0  0
  8  9  2  0  0  0  0
  8  7  1  0  0  0  0
  9 10  1  0  0  0  0
 10  2  1  0  0  0  0
 10  5  2  0  0  0  0
 11  9  1  0  0  0  0
 12 25  1  6  0  0  0
 12 17  1  0  0  0  0
 12 11  1  0  0  0  0
 13 14  1  0  0  0  0
 13 12  1  0  0  0  0
 13 27  1  0  0  0  0
 15 14  1  0  0  0  0
 15 28  1  0  0  0  0
 15 16  1  0  0  0  0
 16 11  1  0  0  0  0
 16 30  1  0  0  0  0
 17 21  1  0  0  0  0
 18 17  2  0  0  0  0
 18 19  1  0  0  0  0
 19 22  1  0  0  0  0
 19 20  2  0  0  0  0
 21 20  1  0  0  0  0
 22 33  1  0  0  0  0
 23 36  1  0  0  0  0
 23 37  1  0  0  0  0
 23 35  1  0  0  0  0
 24  7  1  0  0  0  0
 26 13  1  0  0  0  0
 29 15  1  0  0  0  0
 31 16  1  0  0  0  0
 32 22  1  0  0  0  0
 34 22  1  0  0  0  0
M  END
>  <Pose>
1

>  <Score>
-5.15

$$$$
