
 OpenBabel03232204043D

 49 52  0  0  0  0  0  0  0  0999 V2000
   22.1910  -54.5520   27.7470 B   0  0  0  0  0  0  0  0  0  0  0  0
   21.0950  -55.6640   28.8700 C   0  0  0  0  0  0  0  0  0  0  0  0
   19.8120  -55.6080   29.0720 O   0  0  0  0  0  0  0  0  0  0  0  0
   19.4000  -56.5150   29.8940 C   0  0  0  0  0  0  0  0  0  0  0  0
   20.5100  -57.2690   30.2950 C   0  0  0  0  0  0  0  0  0  0  0  0
   21.5780  -56.7060   29.6290 C   0  0  0  0  0  0  0  0  0  0  0  0
   18.0450  -56.7320   30.3330 C   0  0  0  0  0  0  0  0  0  0  0  0
   17.2990  -57.4970   29.6530 O   0  0  0  0  0  0  0  0  0  0  0  0
   17.4910  -56.1300   31.4960 N   0  0  0  0  0  0  0  0  0  0  0  0
   17.9130  -56.4780   32.8170 C   0  0  0  0  0  0  0  0  0  0  0  0
   16.8960  -56.1640   33.8710 C   0  0  0  0  0  0  0  0  0  0  0  0
   15.5980  -56.8160   33.6350 C   0  0  0  0  0  0  0  0  0  0  0  0
   14.9710  -56.4730   32.5780 O   0  0  0  0  0  0  0  0  0  0  0  0
   15.0420  -57.7810   34.5180 N   0  0  0  0  0  0  0  0  0  0  0  0
   15.8080  -58.9430   34.8730 C   0  0  0  0  0  0  0  0  0  0  0  0
   15.5560  -59.4390   36.2640 C   0  0  0  0  0  0  0  0  0  0  0  0
   14.2140  -59.0460   36.8080 C   0  0  0  0  0  0  0  0  0  0  0  0
   13.7430  -60.0150   37.7500 N   0  0  0  0  0  0  0  0  0  0  0  0
   12.4530  -59.7410   38.2840 C   0  0  0  0  0  0  0  0  0  0  0  0
   12.2130  -58.3220   38.6820 C   0  0  0  0  0  0  0  0  0  0  0  0
   13.3840  -57.4410   38.4400 C   0  0  0  0  0  0  0  0  0  0  0  0
   13.7330  -56.2660   38.9650 N   0  0  0  0  0  0  0  0  0  0  0  0
   14.8890  -55.8630   38.4200 C   0  0  0  0  0  0  0  0  0  0  0  0
   15.2940  -56.7830   37.5340 N   0  0  0  0  0  0  0  0  0  0  0  0
   14.3740  -57.7550   37.5410 C   0  0  0  0  0  0  0  0  0  0  0  0
   13.2380  -58.8020   35.6680 C   0  0  0  0  0  0  0  0  0  0  0  0
   13.6960  -57.5140   35.0150 C   0  0  0  0  0  0  0  0  0  0  0  0
   20.5250  -58.0950   30.9690 H   0  0  0  0  0  0  0  0  0  0  0  0
   22.6320  -57.0140   29.6770 H   0  0  0  0  0  0  0  0  0  0  0  0
   16.7530  -55.4120   31.3660 H   0  0  0  0  0  0  0  0  0  0  0  0
   18.2430  -57.5310   32.8930 H   0  0  0  0  0  0  0  0  0  0  0  0
   18.8430  -55.8710   33.0260 H   0  0  0  0  0  0  0  0  0  0  0  0
   17.2940  -56.5760   34.8400 H   0  0  0  0  0  0  0  0  0  0  0  0
   16.8280  -55.0680   34.0150 H   0  0  0  0  0  0  0  0  0  0  0  0
   16.8800  -58.7120   34.7070 H   0  0  0  0  0  0  0  0  0  0  0  0
   15.5400  -59.7520   34.1620 H   0  0  0  0  0  0  0  0  0  0  0  0
   16.3320  -59.0060   36.9280 H   0  0  0  0  0  0  0  0  0  0  0  0
   15.6630  -60.5430   36.3510 H   0  0  0  0  0  0  0  0  0  0  0  0
   13.7190  -60.9440   37.2740 H   0  0  0  0  0  0  0  0  0  0  0  0
   12.3440  -60.3630   39.2200 H   0  0  0  0  0  0  0  0  0  0  0  0
   11.6360  -60.1040   37.6150 H   0  0  0  0  0  0  0  0  0  0  0  0
   11.3430  -57.9150   38.1000 H   0  0  0  0  0  0  0  0  0  0  0  0
   11.9270  -58.2040   39.7490 H   0  0  0  0  0  0  0  0  0  0  0  0
   15.4580  -54.9530   38.6190 H   0  0  0  0  0  0  0  0  0  0  0  0
   16.1810  -56.7500   36.9350 H   0  0  0  0  0  0  0  0  0  0  0  0
   12.1950  -58.7510   36.0170 H   0  0  0  0  0  0  0  0  0  0  0  0
   13.3520  -59.5970   34.8760 H   0  0  0  0  0  0  0  0  0  0  0  0
   13.7630  -56.6730   35.7200 H   0  0  0  0  0  0  0  0  0  0  0  0
   12.9950  -57.3260   34.1780 H   0  0  0  0  0  0  0  0  0  0  0  0
  1  2  1  0  0  0  0
  2  3  1  0  0  0  0
  2  6  2  0  0  0  0
  3  4  1  0  0  0  0
  4  5  2  0  0  0  0
  4  7  1  0  0  0  0
  5 28  1  0  0  0  0
  6 29  1  0  0  0  0
  6  5  1  0  0  0  0
  7  9  1  0  0  0  0
  8  7  2  0  0  0  0
  9 10  1  0  0  0  0
 10 31  1  0  0  0  0
 10 32  1  0  0  0  0
 10 11  1  0  0  0  0
 11 34  1  0  0  0  0
 11 33  1  0  0  0  0
 12 11  1  0  0  0  0
 12 14  1  0  0  0  0
 13 12  2  0  0  0  0
 14 15  1  0  0  0  0
 14 27  1  0  0  0  0
 15 16  1  0  0  0  0
 16 38  1  0  0  0  0
 16 17  1  0  0  0  0
 16 37  1  0  0  0  0
 17 25  1  0  0  0  0
 17 18  1  0  0  0  0
 18 19  1  0  0  0  0
 19 20  1  0  0  0  0
 19 40  1  0  0  0  0
 20 43  1  0  0  0  0
 21 20  1  0  0  0  0
 21 22  1  0  0  0  0
 23 44  1  0  0  0  0
 23 22  2  0  0  0  0
 24 25  1  0  0  0  0
 24 23  1  0  0  0  0
 25 21  2  0  0  0  0
 26 46  1  0  0  0  0
 26 17  1  0  0  0  0
 27 26  1  0  0  0  0
 27 48  1  0  0  0  0
 30  9  1  0  0  0  0
 35 15  1  0  0  0  0
 36 15  1  0  0  0  0
 39 18  1  0  0  0  0
 41 19  1  0  0  0  0
 42 20  1  0  0  0  0
 45 24  1  0  0  0  0
 47 26  1  0  0  0  0
 49 27  1  0  0  0  0
M  END
>  <Pose>
1

>  <Score>
-6.49

$$$$
