
 OpenBabel03232204043D

 49 52  0  0  1  0  0  0  0  0999 V2000
   15.1890  -58.3290   36.9850 B   0  0  0  0  0  0  0  0  0  0  0  0
   15.3500  -56.7170   38.0250 C   0  0  0  0  0  0  0  0  0  0  0  0
   16.2940  -55.8200   37.9000 O   0  0  0  0  0  0  0  0  0  0  0  0
   16.1140  -54.8270   38.7720 C   0  0  0  0  0  0  0  0  0  0  0  0
   14.9770  -55.1310   39.4870 C   0  0  0  0  0  0  0  0  0  0  0  0
   14.4790  -56.3250   39.0290 C   0  0  0  0  0  0  0  0  0  0  0  0
   16.9810  -53.6670   38.9020 C   0  0  0  0  0  0  0  0  0  0  0  0
   16.4870  -52.5540   39.1770 O   0  0  0  0  0  0  0  0  0  0  0  0
   18.3700  -53.7840   38.7220 N   0  0  0  0  0  0  0  0  0  0  0  0
   19.1060  -53.0650   37.7020 C   0  0  1  0  0  0  0  0  0  0  0  0
   20.2660  -52.3860   38.3350 C   0  0  0  0  0  0  0  0  0  0  0  0
   19.4280  -53.9150   36.5430 C   0  0  0  0  0  0  0  0  0  0  0  0
   20.2620  -54.8620   36.7590 O   0  0  0  0  0  0  0  0  0  0  0  0
   18.9210  -53.7990   35.2430 N   0  0  0  0  0  0  0  0  0  0  0  0
   19.6290  -53.1120   34.1820 C   0  0  0  0  0  0  0  0  0  0  0  0
   19.9230  -54.1090   33.1040 C   0  0  0  0  0  0  0  0  0  0  0  0
   18.6990  -54.8530   32.6730 C   0  0  1  0  0  0  0  0  0  0  0  0
   18.5320  -54.6730   31.2420 N   0  0  0  0  0  0  0  0  0  0  0  0
   19.6510  -55.3160   30.5780 C   0  0  0  0  0  0  0  0  0  0  0  0
   19.3050  -56.8080   30.5100 C   0  0  0  0  0  0  0  0  0  0  0  0
   19.0790  -57.2310   31.9130 C   0  0  0  0  0  0  0  0  0  0  0  0
   19.0990  -58.4670   32.4500 N   0  0  0  0  0  0  0  0  0  0  0  0
   18.8360  -58.3370   33.7590 C   0  0  0  0  0  0  0  0  0  0  0  0
   18.6570  -57.0300   34.0230 N   0  0  0  0  0  0  0  0  0  0  0  0
   18.8010  -56.3130   32.8960 C   0  0  0  0  0  0  0  0  0  0  0  0
   17.4720  -54.2820   33.3830 C   0  0  0  0  0  0  0  0  0  0  0  0
   17.6360  -54.3590   34.8660 C   0  0  0  0  0  0  0  0  0  0  0  0
   14.5740  -54.5150   40.2670 H   0  0  0  0  0  0  0  0  0  0  0  0
   13.5930  -56.8620   39.3680 H   0  0  0  0  0  0  0  0  0  0  0  0
   18.9080  -54.4190   39.3480 H   0  0  0  0  0  0  0  0  0  0  0  0
   18.4170  -52.2540   37.3230 H   0  0  0  0  0  0  0  0  0  0  0  0
   20.2580  -52.6040   39.4240 H   0  0  0  0  0  0  0  0  0  0  0  0
   20.2570  -51.2780   38.2740 H   0  0  0  0  0  0  0  0  0  0  0  0
   21.2450  -52.7860   37.9810 H   0  0  0  0  0  0  0  0  0  0  0  0
   20.5040  -52.5610   34.5330 H   0  0  0  0  0  0  0  0  0  0  0  0
   18.9520  -52.3170   33.7470 H   0  0  0  0  0  0  0  0  0  0  0  0
   20.3300  -53.5210   32.2310 H   0  0  0  0  0  0  0  0  0  0  0  0
   20.7430  -54.7790   33.4320 H   0  0  0  0  0  0  0  0  0  0  0  0
   18.5860  -53.6500   30.9770 H   0  0  0  0  0  0  0  0  0  0  0  0
   19.8770  -54.8970   29.5940 H   0  0  0  0  0  0  0  0  0  0  0  0
   20.5770  -55.2710   31.2150 H   0  0  0  0  0  0  0  0  0  0  0  0
   18.3180  -56.8880   29.9900 H   0  0  0  0  0  0  0  0  0  0  0  0
   20.0910  -57.3800   30.0070 H   0  0  0  0  0  0  0  0  0  0  0  0
   19.2790  -59.3910   31.9830 H   0  0  0  0  0  0  0  0  0  0  0  0
   18.7740  -59.1200   34.4910 H   0  0  0  0  0  0  0  0  0  0  0  0
   16.6100  -54.9100   33.0580 H   0  0  0  0  0  0  0  0  0  0  0  0
   17.3220  -53.2670   32.9990 H   0  0  0  0  0  0  0  0  0  0  0  0
   16.8710  -53.6580   35.3120 H   0  0  0  0  0  0  0  0  0  0  0  0
   17.4690  -55.3570   35.2840 H   0  0  0  0  0  0  0  0  0  0  0  0
  1  2  1  0  0  0  0
  2  6  2  0  0  0  0
  3  2  1  0  0  0  0
  3  4  1  0  0  0  0
  4  7  1  0  0  0  0
  4  5  2  0  0  0  0
  5 28  1  0  0  0  0
  6 29  1  0  0  0  0
  6  5  1  0  0  0  0
  7  8  2  0  0  0  0
  9  7  1  0  0  0  0
  9 30  1  0  0  0  0
 10 31  1  6  0  0  0
 10 11  1  0  0  0  0
 10  9  1  0  0  0  0
 11 32  1  0  0  0  0
 12 13  2  0  0  0  0
 12 10  1  0  0  0  0
 14 12  1  0  0  0  0
 15 35  1  0  0  0  0
 15 14  1  0  0  0  0
 16 38  1  0  0  0  0
 16 15  1  0  0  0  0
 17 25  1  1  0  0  0
 17 16  1  0  0  0  0
 17 26  1  0  0  0  0
 18 17  1  0  0  0  0
 19 41  1  0  0  0  0
 19 18  1  0  0  0  0
 20 19  1  0  0  0  0
 20 21  1  0  0  0  0
 21 22  1  0  0  0  0
 21 25  2  0  0  0  0
 22 23  1  0  0  0  0
 23 24  2  0  0  0  0
 23 45  1  0  0  0  0
 25 24  1  0  0  0  0
 26 27  1  0  0  0  0
 27 14  1  0  0  0  0
 27 49  1  0  0  0  0
 27 48  1  0  0  0  0
 33 11  1  0  0  0  0
 34 11  1  0  0  0  0
 36 15  1  0  0  0  0
 37 16  1  0  0  0  0
 39 18  1  0  0  0  0
 40 19  1  0  0  0  0
 42 20  1  0  0  0  0
 43 20  1  0  0  0  0
 44 22  1  0  0  0  0
 46 26  1  0  0  0  0
 47 26  1  0  0  0  0
M  END
>  <Pose>
1

>  <Score>
-6.84

$$$$
