
 OpenBabel03232204043D

 53 56  0  0  0  0  0  0  0  0999 V2000
    9.5630  -63.0100   32.7830 B   0  0  0  0  0  0  0  0  0  0  0  0
   11.1100  -62.1110   33.4540 C   0  0  0  0  0  0  0  0  0  0  0  0
   11.1790  -60.8470   33.7880 O   0  0  0  0  0  0  0  0  0  0  0  0
   12.3700  -60.5110   34.2170 C   0  0  0  0  0  0  0  0  0  0  0  0
   13.1380  -61.6490   34.1570 C   0  0  0  0  0  0  0  0  0  0  0  0
   12.3520  -62.6650   33.6770 C   0  0  0  0  0  0  0  0  0  0  0  0
   12.8000  -59.1690   34.6740 C   0  0  0  0  0  0  0  0  0  0  0  0
   12.7410  -58.2060   33.8950 O   0  0  0  0  0  0  0  0  0  0  0  0
   13.2760  -59.0070   36.0020 N   0  0  0  0  0  0  0  0  0  0  0  0
   12.3770  -58.5660   37.0650 C   0  0  0  0  0  0  0  0  0  0  0  0
   13.1520  -58.4100   38.3720 C   0  0  0  0  0  0  0  0  0  0  0  0
   14.3240  -57.6070   38.0820 N   0  0  0  0  0  0  0  0  0  0  0  0
   15.2410  -58.0660   37.0750 C   0  0  0  0  0  0  0  0  0  0  0  0
   14.6540  -59.2620   36.3710 C   0  0  0  0  0  0  0  0  0  0  0  0
   14.5800  -56.3800   38.7770 C   0  0  0  0  0  0  0  0  0  0  0  0
   13.7720  -55.9420   39.7530 N   0  0  0  0  0  0  0  0  0  0  0  0
   14.0350  -54.7920   40.3830 C   0  0  0  0  0  0  0  0  0  0  0  0
   15.1060  -54.0390   40.0660 N   0  0  0  0  0  0  0  0  0  0  0  0
   15.9570  -54.4210   39.0970 C   0  0  0  0  0  0  0  0  0  0  0  0
   15.6690  -55.6090   38.4600 C   0  0  0  0  0  0  0  0  0  0  0  0
   17.0970  -53.6640   38.7280 N   0  0  0  0  0  0  0  0  0  0  0  0
   16.9740  -52.5660   37.7910 C   0  0  0  0  0  0  0  0  0  0  0  0
   18.2690  -51.7820   37.8470 C   0  0  0  0  0  0  0  0  0  0  0  0
   19.3480  -52.6410   37.4420 N   0  0  0  0  0  0  0  0  0  0  0  0
   19.3630  -53.9270   38.0650 C   0  0  0  0  0  0  0  0  0  0  0  0
   18.4220  -53.9330   39.2510 C   0  0  0  0  0  0  0  0  0  0  0  0
   19.4430  -52.6700   36.0050 C   0  0  0  0  0  0  0  0  0  0  0  0
   13.1340  -54.3170   41.4630 C   0  0  0  0  0  0  0  0  0  0  0  0
   14.1750  -61.7410   34.4340 H   0  0  0  0  0  0  0  0  0  0  0  0
   12.6330  -63.7170   33.4970 H   0  0  0  0  0  0  0  0  0  0  0  0
   11.5430  -59.2740   37.1970 H   0  0  0  0  0  0  0  0  0  0  0  0
   11.9430  -57.5840   36.7790 H   0  0  0  0  0  0  0  0  0  0  0  0
   12.5330  -57.9170   39.1230 H   0  0  0  0  0  0  0  0  0  0  0  0
   13.4620  -59.4320   38.6810 H   0  0  0  0  0  0  0  0  0  0  0  0
   15.4730  -57.2420   36.3560 H   0  0  0  0  0  0  0  0  0  0  0  0
   16.1860  -58.4100   37.5810 H   0  0  0  0  0  0  0  0  0  0  0  0
   15.2690  -59.5670   35.5160 H   0  0  0  0  0  0  0  0  0  0  0  0
   14.6390  -60.1020   37.1090 H   0  0  0  0  0  0  0  0  0  0  0  0
   16.3240  -55.9590   37.6750 H   0  0  0  0  0  0  0  0  0  0  0  0
   16.8150  -52.9580   36.7780 H   0  0  0  0  0  0  0  0  0  0  0  0
   16.1060  -51.9530   38.1110 H   0  0  0  0  0  0  0  0  0  0  0  0
   18.1700  -50.9530   37.1230 H   0  0  0  0  0  0  0  0  0  0  0  0
   18.4100  -51.3680   38.8590 H   0  0  0  0  0  0  0  0  0  0  0  0
   20.3820  -54.1850   38.4180 H   0  0  0  0  0  0  0  0  0  0  0  0
   19.0420  -54.7180   37.3690 H   0  0  0  0  0  0  0  0  0  0  0  0
   18.6930  -53.0850   39.9260 H   0  0  0  0  0  0  0  0  0  0  0  0
   18.4340  -54.9030   39.7850 H   0  0  0  0  0  0  0  0  0  0  0  0
   18.8140  -51.9130   35.5300 H   0  0  0  0  0  0  0  0  0  0  0  0
   20.5100  -52.4670   35.7270 H   0  0  0  0  0  0  0  0  0  0  0  0
   19.1700  -53.6810   35.6340 H   0  0  0  0  0  0  0  0  0  0  0  0
   13.7480  -53.8260   42.2460 H   0  0  0  0  0  0  0  0  0  0  0  0
   12.4010  -53.5920   41.0520 H   0  0  0  0  0  0  0  0  0  0  0  0
   12.6420  -55.1790   41.9450 H   0  0  0  0  0  0  0  0  0  0  0  0
  1  2  1  0  0  0  0
  2  6  2  0  0  0  0
  2  3  1  0  0  0  0
  3  4  1  0  0  0  0
  4  7  1  0  0  0  0
  5  4  2  0  0  0  0
  5 29  1  0  0  0  0
  6  5  1  0  0  0  0
  7  9  1  0  0  0  0
  8  7  2  0  0  0  0
  9 14  1  0  0  0  0
  9 10  1  0  0  0  0
 10 31  1  0  0  0  0
 10 11  1  0  0  0  0
 11 34  1  0  0  0  0
 11 33  1  0  0  0  0
 12 11  1  0  0  0  0
 12 15  1  0  0  0  0
 13 36  1  0  0  0  0
 13 12  1  0  0  0  0
 14 13  1  0  0  0  0
 14 38  1  0  0  0  0
 15 16  1  0  0  0  0
 16 17  2  0  0  0  0
 17 28  1  0  0  0  0
 18 17  1  0  0  0  0
 19 18  2  0  0  0  0
 20 15  2  0  0  0  0
 20 19  1  0  0  0  0
 21 19  1  0  0  0  0
 21 26  1  0  0  0  0
 22 23  1  0  0  0  0
 22 41  1  0  0  0  0
 22 21  1  0  0  0  0
 23 43  1  0  0  0  0
 24 23  1  0  0  0  0
 24 25  1  0  0  0  0
 25 44  1  0  0  0  0
 25 26  1  0  0  0  0
 26 47  1  0  0  0  0
 26 46  1  0  0  0  0
 27 24  1  0  0  0  0
 28 53  1  0  0  0  0
 28 51  1  0  0  0  0
 30  6  1  0  0  0  0
 32 10  1  0  0  0  0
 35 13  1  0  0  0  0
 37 14  1  0  0  0  0
 39 20  1  0  0  0  0
 40 22  1  0  0  0  0
 42 23  1  0  0  0  0
 45 25  1  0  0  0  0
 48 27  1  0  0  0  0
 49 27  1  0  0  0  0
 50 27  1  0  0  0  0
 52 28  1  0  0  0  0
M  END
>  <Pose>
1

>  <Score>
-6.97

$$$$
