
 OpenBabel03232204043D

 39 42  0  0  0  0  0  0  0  0999 V2000
   18.2620  -52.6320   37.1950 B   0  0  0  0  0  0  0  0  0  0  0  0
   17.1200  -54.1430   37.3900 C   0  0  0  0  0  0  0  0  0  0  0  0
   16.0900  -54.1280   38.2770 C   0  0  0  0  0  0  0  0  0  0  0  0
   15.2900  -55.1780   38.4170 N   0  0  0  0  0  0  0  0  0  0  0  0
   14.2360  -55.3920   39.2060 N   0  0  0  0  0  0  0  0  0  0  0  0
   13.7750  -56.6300   38.9600 C   0  0  0  0  0  0  0  0  0  0  0  0
   14.5530  -57.2210   37.9920 C   0  0  0  0  0  0  0  0  0  0  0  0
   15.5130  -56.2690   37.6640 C   0  0  0  0  0  0  0  0  0  0  0  0
   16.5260  -56.3000   36.7840 N   0  0  0  0  0  0  0  0  0  0  0  0
   17.3420  -55.2560   36.6260 C   0  0  0  0  0  0  0  0  0  0  0  0
   14.4400  -58.5350   37.4100 C   0  0  0  0  0  0  0  0  0  0  0  0
   14.6140  -59.5340   38.1650 O   0  0  0  0  0  0  0  0  0  0  0  0
   14.1430  -58.7040   36.0330 N   0  0  0  0  0  0  0  0  0  0  0  0
   13.9520  -57.4880   35.2280 C   0  0  0  0  0  0  0  0  0  0  0  0
   14.3130  -57.9260   33.8080 C   0  0  0  0  0  0  0  0  0  0  0  0
   15.4280  -58.8150   33.9440 N   0  0  0  0  0  0  0  0  0  0  0  0
   15.0040  -60.2100   34.2610 C   0  0  0  0  0  0  0  0  0  0  0  0
   14.0290  -60.0220   35.4260 C   0  0  0  0  0  0  0  0  0  0  0  0
   16.7800  -58.5240   33.8640 C   0  0  0  0  0  0  0  0  0  0  0  0
   17.6040  -59.5300   33.9140 O   0  0  0  0  0  0  0  0  0  0  0  0
   17.4500  -57.2410   33.7300 C   0  0  0  0  0  0  0  0  0  0  0  0
   18.5700  -56.8980   34.3810 O   0  0  0  0  0  0  0  0  0  0  0  0
   18.9540  -55.7030   34.0850 C   0  0  0  0  0  0  0  0  0  0  0  0
   18.0790  -55.1530   33.1820 C   0  0  0  0  0  0  0  0  0  0  0  0
   17.1330  -56.1420   32.9700 C   0  0  0  0  0  0  0  0  0  0  0  0
   15.9110  -53.2390   38.8880 H   0  0  0  0  0  0  0  0  0  0  0  0
   12.9200  -57.0660   39.4640 H   0  0  0  0  0  0  0  0  0  0  0  0
   18.1660  -55.2490   35.9260 H   0  0  0  0  0  0  0  0  0  0  0  0
   14.6890  -56.7390   35.5270 H   0  0  0  0  0  0  0  0  0  0  0  0
   12.9060  -57.1790   35.2730 H   0  0  0  0  0  0  0  0  0  0  0  0
   14.3720  -57.1380   33.0810 H   0  0  0  0  0  0  0  0  0  0  0  0
   13.4010  -58.5390   33.4540 H   0  0  0  0  0  0  0  0  0  0  0  0
   15.8650  -60.8300   34.5250 H   0  0  0  0  0  0  0  0  0  0  0  0
   14.4790  -60.5500   33.3450 H   0  0  0  0  0  0  0  0  0  0  0  0
   12.9880  -60.1950   35.1080 H   0  0  0  0  0  0  0  0  0  0  0  0
   14.3110  -60.7610   36.1970 H   0  0  0  0  0  0  0  0  0  0  0  0
   19.8380  -55.1740   34.4750 H   0  0  0  0  0  0  0  0  0  0  0  0
   18.1050  -54.1610   32.7240 H   0  0  0  0  0  0  0  0  0  0  0  0
   16.2920  -56.0000   32.3060 H   0  0  0  0  0  0  0  0  0  0  0  0
  1  2  1  0  0  0  0
  2  3  2  0  0  0  0
  3  4  1  0  0  0  0
  3 26  1  0  0  0  0
  4  5  1  0  0  0  0
  6  5  2  0  0  0  0
  6 27  1  0  0  0  0
  7  6  1  0  0  0  0
  8  7  2  0  0  0  0
  8  4  1  0  0  0  0
  9  8  1  0  0  0  0
 10  9  2  0  0  0  0
 10  2  1  0  0  0  0
 11  7  1  0  0  0  0
 11 12  2  0  0  0  0
 13 11  1  0  0  0  0
 14 30  1  0  0  0  0
 14 29  1  0  0  0  0
 14 13  1  0  0  0  0
 15 16  1  0  0  0  0
 15 14  1  0  0  0  0
 16 17  1  0  0  0  0
 17 33  1  0  0  0  0
 17 18  1  0  0  0  0
 18 13  1  0  0  0  0
 18 36  1  0  0  0  0
 19 20  2  0  0  0  0
 19 16  1  0  0  0  0
 21 19  1  0  0  0  0
 21 22  1  0  0  0  0
 23 22  1  0  0  0  0
 23 37  1  0  0  0  0
 24 23  2  0  0  0  0
 25 24  1  0  0  0  0
 25 21  2  0  0  0  0
 28 10  1  0  0  0  0
 31 15  1  0  0  0  0
 32 15  1  0  0  0  0
 34 17  1  0  0  0  0
 35 18  1  0  0  0  0
 38 24  1  0  0  0  0
 39 25  1  0  0  0  0
M  END
>  <Pose>
1

>  <Score>
-6.97

$$$$
