
 OpenBabel03232204043D

 45 48  0  0  0  0  0  0  0  0999 V2000
   11.7850  -61.4670   35.6530 B   0  0  0  0  0  0  0  0  0  0  0  0
   12.3350  -59.9860   36.7260 C   0  0  0  0  0  0  0  0  0  0  0  0
   13.5380  -59.3720   36.4520 C   0  0  0  0  0  0  0  0  0  0  0  0
   13.9290  -58.3300   37.2050 N   0  0  0  0  0  0  0  0  0  0  0  0
   13.1740  -57.8680   38.2230 C   0  0  0  0  0  0  0  0  0  0  0  0
   13.5870  -56.8160   38.9700 N   0  0  0  0  0  0  0  0  0  0  0  0
   14.7530  -56.1870   38.7380 C   0  0  0  0  0  0  0  0  0  0  0  0
   15.5350  -56.6440   37.7040 C   0  0  0  0  0  0  0  0  0  0  0  0
   15.1090  -57.7310   36.9330 C   0  0  0  0  0  0  0  0  0  0  0  0
   15.8080  -58.1510   35.9960 O   0  0  0  0  0  0  0  0  0  0  0  0
   15.1940  -55.0350   39.5640 C   0  0  0  0  0  0  0  0  0  0  0  0
   15.2810  -53.8910   38.7350 O   0  0  0  0  0  0  0  0  0  0  0  0
   16.3140  -52.9880   38.8140 C   0  0  0  0  0  0  0  0  0  0  0  0
   16.7130  -52.6370   39.9540 O   0  0  0  0  0  0  0  0  0  0  0  0
   16.9990  -52.3890   37.6390 C   0  0  0  0  0  0  0  0  0  0  0  0
   17.9590  -53.2760   37.0510 N   0  0  0  0  0  0  0  0  0  0  0  0
   19.1500  -53.7670   37.6660 C   0  0  0  0  0  0  0  0  0  0  0  0
   19.5310  -53.4830   38.8380 O   0  0  0  0  0  0  0  0  0  0  0  0
   19.8090  -54.6160   36.7340 N   0  0  0  0  0  0  0  0  0  0  0  0
   19.1240  -54.5390   35.4680 C   0  0  0  0  0  0  0  0  0  0  0  0
   19.9100  -53.7970   34.4200 C   0  0  0  0  0  0  0  0  0  0  0  0
   19.2860  -54.2510   33.1380 C   0  0  0  0  0  0  0  0  0  0  0  0
   18.4700  -55.4770   33.4290 C   0  0  0  0  0  0  0  0  0  0  0  0
   18.8830  -55.8660   34.8320 C   0  0  0  0  0  0  0  0  0  0  0  0
   17.8790  -53.8210   35.7320 C   0  0  0  0  0  0  0  0  0  0  0  0
   16.8880  -53.6750   34.9800 O   0  0  0  0  0  0  0  0  0  0  0  0
   11.9680  -58.4790   38.5030 C   0  0  0  0  0  0  0  0  0  0  0  0
   11.5230  -59.5500   37.7620 C   0  0  0  0  0  0  0  0  0  0  0  0
   14.1780  -59.7080   35.6450 H   0  0  0  0  0  0  0  0  0  0  0  0
   16.4790  -56.1560   37.4950 H   0  0  0  0  0  0  0  0  0  0  0  0
   14.4440  -54.8440   40.3540 H   0  0  0  0  0  0  0  0  0  0  0  0
   16.1810  -55.2630   40.0270 H   0  0  0  0  0  0  0  0  0  0  0  0
   16.2460  -52.0340   36.9000 H   0  0  0  0  0  0  0  0  0  0  0  0
   17.5060  -51.4630   38.0210 H   0  0  0  0  0  0  0  0  0  0  0  0
   20.6440  -55.1830   36.9620 H   0  0  0  0  0  0  0  0  0  0  0  0
   19.6980  -52.7000   34.5700 H   0  0  0  0  0  0  0  0  0  0  0  0
   20.9870  -53.9680   34.4670 H   0  0  0  0  0  0  0  0  0  0  0  0
   20.1080  -54.5520   32.4310 H   0  0  0  0  0  0  0  0  0  0  0  0
   18.6860  -53.4310   32.6800 H   0  0  0  0  0  0  0  0  0  0  0  0
   18.6860  -56.2990   32.7110 H   0  0  0  0  0  0  0  0  0  0  0  0
   17.3670  -55.2950   33.3700 H   0  0  0  0  0  0  0  0  0  0  0  0
   18.1070  -56.4790   35.3310 H   0  0  0  0  0  0  0  0  0  0  0  0
   19.8350  -56.4440   34.7570 H   0  0  0  0  0  0  0  0  0  0  0  0
   11.3870  -58.0880   39.3230 H   0  0  0  0  0  0  0  0  0  0  0  0
   10.5830  -60.0410   37.9650 H   0  0  0  0  0  0  0  0  0  0  0  0
  1  2  1  0  0  0  0
  2 28  2  0  0  0  0
  3  2  1  0  0  0  0
  3  4  1  0  0  0  0
  4  5  1  0  0  0  0
  5 27  2  0  0  0  0
  5  6  1  0  0  0  0
  7  6  2  0  0  0  0
  7 11  1  0  0  0  0
  8  7  1  0  0  0  0
  9  4  1  0  0  0  0
  9  8  1  0  0  0  0
 10  9  2  0  0  0  0
 11 32  1  0  0  0  0
 11 31  1  0  0  0  0
 12 13  1  0  0  0  0
 12 11  1  0  0  0  0
 13 14  2  0  0  0  0
 15 34  1  0  0  0  0
 15 13  1  0  0  0  0
 16 15  1  0  0  0  0
 16 17  1  0  0  0  0
 17 18  2  0  0  0  0
 19 35  1  0  0  0  0
 19 17  1  0  0  0  0
 20 25  1  0  0  0  0
 20 19  1  0  0  0  0
 21 37  1  0  0  0  0
 21 36  1  0  0  0  0
 21 20  1  0  0  0  0
 22 23  1  0  0  0  0
 22 21  1  0  0  0  0
 23 24  1  0  0  0  0
 24 42  1  0  0  0  0
 24 20  1  0  0  0  0
 25 16  1  0  0  0  0
 26 25  2  0  0  0  0
 27 44  1  0  0  0  0
 28 45  1  0  0  0  0
 28 27  1  0  0  0  0
 29  3  1  0  0  0  0
 30  8  1  0  0  0  0
 33 15  1  0  0  0  0
 38 22  1  0  0  0  0
 39 22  1  0  0  0  0
 40 23  1  0  0  0  0
 41 23  1  0  0  0  0
 43 24  1  0  0  0  0
M  END
>  <Pose>
1

>  <Score>
-6.45

$$$$
