
 OpenBabel03232204043D

 47 50  0  0  0  0  0  0  0  0999 V2000
   12.0130  -59.4360   38.9700 B   0  0  0  0  0  0  0  0  0  0  0  0
   13.3320  -58.2650   38.2670 C   0  0  0  0  0  0  0  0  0  0  0  0
   13.7560  -57.1520   38.9050 C   0  0  0  0  0  0  0  0  0  0  0  0
   14.7440  -56.3710   38.4570 N   0  0  0  0  0  0  0  0  0  0  0  0
   15.3480  -56.7070   37.3180 C   0  0  0  0  0  0  0  0  0  0  0  0
   16.3530  -55.9220   36.8370 N   0  0  0  0  0  0  0  0  0  0  0  0
   16.7700  -54.8230   37.4500 C   0  0  0  0  0  0  0  0  0  0  0  0
   16.1620  -54.4550   38.6290 C   0  0  0  0  0  0  0  0  0  0  0  0
   16.5460  -53.3170   39.3100 C   0  0  0  0  0  0  0  0  0  0  0  0
   17.5640  -52.4820   38.8490 C   0  0  0  0  0  0  0  0  0  0  0  0
   18.1660  -52.8600   37.6680 C   0  0  0  0  0  0  0  0  0  0  0  0
   17.7840  -54.0000   36.9820 C   0  0  0  0  0  0  0  0  0  0  0  0
   15.1400  -55.2690   39.1030 C   0  0  0  0  0  0  0  0  0  0  0  0
   14.5780  -54.9460   40.1730 O   0  0  0  0  0  0  0  0  0  0  0  0
   14.9420  -57.8170   36.6590 N   0  0  0  0  0  0  0  0  0  0  0  0
   13.9720  -58.6370   37.0370 C   0  0  0  0  0  0  0  0  0  0  0  0
   13.4430  -59.7020   36.3790 N   0  0  0  0  0  0  0  0  0  0  0  0
   12.9220  -60.7520   35.7310 C   0  0  0  0  0  0  0  0  0  0  0  0
   13.1960  -60.9260   34.3680 C   0  0  0  0  0  0  0  0  0  0  0  0
   12.5040  -61.8310   33.6320 C   0  0  0  0  0  0  0  0  0  0  0  0
   11.5230  -62.5980   34.2120 C   0  0  0  0  0  0  0  0  0  0  0  0
   11.2110  -62.4800   35.5480 C   0  0  0  0  0  0  0  0  0  0  0  0
   11.9240  -61.5540   36.2730 C   0  0  0  0  0  0  0  0  0  0  0  0
   14.3290  -60.2580   33.7160 C   0  0  0  0  0  0  0  0  0  0  0  0
   14.0860  -59.2300   33.0350 O   0  0  0  0  0  0  0  0  0  0  0  0
   15.6310  -60.6620   33.7780 O   0  0  0  0  0  0  0  0  0  0  0  0
   16.7170  -59.7550   33.7750 C   0  0  0  0  0  0  0  0  0  0  0  0
   17.2990  -59.6300   32.3640 C   0  0  0  0  0  0  0  0  0  0  0  0
   18.2460  -58.4540   32.3350 C   0  0  0  0  0  0  0  0  0  0  0  0
   13.2760  -56.8570   39.8370 H   0  0  0  0  0  0  0  0  0  0  0  0
   16.0350  -53.0880   40.2210 H   0  0  0  0  0  0  0  0  0  0  0  0
   17.8510  -51.5910   39.4000 H   0  0  0  0  0  0  0  0  0  0  0  0
   18.9640  -52.2310   37.2780 H   0  0  0  0  0  0  0  0  0  0  0  0
   18.2450  -54.3050   36.0560 H   0  0  0  0  0  0  0  0  0  0  0  0
   15.5070  -57.9750   35.7620 H   0  0  0  0  0  0  0  0  0  0  0  0
   14.6720  -60.2800   36.2280 H   0  0  0  0  0  0  0  0  0  0  0  0
   12.6900  -61.9940   32.5570 H   0  0  0  0  0  0  0  0  0  0  0  0
   10.9860  -63.3040   33.5950 H   0  0  0  0  0  0  0  0  0  0  0  0
   10.4320  -63.1110   35.9440 H   0  0  0  0  0  0  0  0  0  0  0  0
   11.6570  -61.4760   37.3190 H   0  0  0  0  0  0  0  0  0  0  0  0
   16.4480  -58.7280   34.0790 H   0  0  0  0  0  0  0  0  0  0  0  0
   17.5430  -60.0990   34.4340 H   0  0  0  0  0  0  0  0  0  0  0  0
   17.8630  -60.5410   32.0850 H   0  0  0  0  0  0  0  0  0  0  0  0
   16.4860  -59.4270   31.6270 H   0  0  0  0  0  0  0  0  0  0  0  0
   17.7360  -57.5660   31.9220 H   0  0  0  0  0  0  0  0  0  0  0  0
   18.6040  -58.2030   33.3680 H   0  0  0  0  0  0  0  0  0  0  0  0
   19.1150  -58.6670   31.6770 H   0  0  0  0  0  0  0  0  0  0  0  0
  2  3  1  0  0  0  0
  2  1  1  0  0  0  0
  3 30  1  0  0  0  0
  4  3  1  0  0  0  0
  4 13  1  0  0  0  0
  5  4  1  0  0  0  0
  6  5  2  0  0  0  0
  6  7  1  0  0  0  0
  7  8  1  0  0  0  0
  8 13  1  0  0  0  0
  8  9  2  0  0  0  0
  9 31  1  0  0  0  0
 10  9  1  0  0  0  0
 10 32  1  0  0  0  0
 11 10  2  0  0  0  0
 12  7  2  0  0  0  0
 12 11  1  0  0  0  0
 13 14  2  0  0  0  0
 15 16  1  0  0  0  0
 15  5  1  0  0  0  0
 16  2  2  0  0  0  0
 17 16  1  0  0  0  0
 18 23  1  0  0  0  0
 18 17  1  0  0  0  0
 19 18  2  0  0  0  0
 20 21  2  0  0  0  0
 20 19  1  0  0  0  0
 21 22  1  0  0  0  0
 22 39  1  0  0  0  0
 22 23  2  0  0  0  0
 23 40  1  0  0  0  0
 24 26  1  0  0  0  0
 24 19  1  0  0  0  0
 25 24  2  0  0  0  0
 27 26  1  0  0  0  0
 27 41  1  0  0  0  0
 27 42  1  0  0  0  0
 28 27  1  0  0  0  0
 29 28  1  0  0  0  0
 29 46  1  0  0  0  0
 33 11  1  0  0  0  0
 34 12  1  0  0  0  0
 35 15  1  0  0  0  0
 36 17  1  0  0  0  0
 37 20  1  0  0  0  0
 38 21  1  0  0  0  0
 43 28  1  0  0  0  0
 44 28  1  0  0  0  0
 45 29  1  0  0  0  0
 47 29  1  0  0  0  0
M  END
>  <Pose>
1

>  <Score>
-7.28

$$$$
