
 OpenBabel03232204043D

 47 50  0  0  1  0  0  0  0  0999 V2000
   10.9120  -62.9850   35.1330 B   0  0  0  0  0  0  0  0  0  0  0  0
   11.9950  -61.4370   35.4750 C   0  0  0  0  0  0  0  0  0  0  0  0
   13.2220  -61.3260   34.8610 C   0  0  0  0  0  0  0  0  0  0  0  0
   13.9980  -60.1950   35.1110 C   0  0  0  0  0  0  0  0  0  0  0  0
   13.5850  -59.1810   35.9500 C   0  0  0  0  0  0  0  0  0  0  0  0
   12.3490  -59.3160   36.5530 C   0  0  0  0  0  0  0  0  0  0  0  0
   11.5680  -60.4310   36.3140 C   0  0  0  0  0  0  0  0  0  0  0  0
   14.4640  -58.0090   36.1810 C   0  0  2  0  0  0  0  0  0  0  0  0
   15.2600  -57.6570   35.0250 N   0  0  0  0  0  0  0  0  0  0  0  0
   15.1620  -57.7610   33.5840 C   0  0  0  0  0  0  0  0  0  0  0  0
   15.7950  -56.5780   32.8800 C   0  0  0  0  0  0  0  0  0  0  0  0
   17.2250  -56.4950   33.2980 C   0  0  0  0  0  0  0  0  0  0  0  0
   17.3660  -56.5240   34.7690 C   0  0  0  0  0  0  0  0  0  0  0  0
   16.4420  -57.0690   35.5650 C   0  0  0  0  0  0  0  0  0  0  0  0
   16.4700  -57.1820   36.9710 N   0  0  0  0  0  4  0  0  0  0  0  0
   15.5150  -58.2820   37.2180 C   0  0  0  0  0  0  0  0  0  0  0  0
   16.1350  -56.0500   37.7060 C   0  0  0  0  0  0  0  0  0  0  0  0
   16.7280  -54.8250   37.5300 C   0  0  0  0  0  0  0  0  0  0  0  0
   16.3560  -53.7340   38.3190 C   0  0  0  0  0  0  0  0  0  0  0  0
   15.3910  -53.8610   39.2850 C   0  0  0  0  0  0  0  0  0  0  0  0
   14.7880  -55.0860   39.4670 C   0  0  0  0  0  0  0  0  0  0  0  0
   15.1580  -56.1540   38.6890 C   0  0  0  0  0  0  0  0  0  0  0  0
   17.7060  -54.6070   36.5810 O   0  0  0  0  0  0  0  0  0  0  0  0
   18.7740  -53.7540   36.8270 C   0  0  0  0  0  0  0  0  0  0  0  0
   13.6760  -56.9550   36.6330 O   0  0  0  0  0  0  0  0  0  0  0  0
   13.6200  -62.0890   34.1740 H   0  0  0  0  0  0  0  0  0  0  0  0
   14.9830  -60.0760   34.6370 H   0  0  0  0  0  0  0  0  0  0  0  0
   12.0230  -58.5080   37.2220 H   0  0  0  0  0  0  0  0  0  0  0  0
   10.6000  -60.5270   36.7910 H   0  0  0  0  0  0  0  0  0  0  0  0
   15.7730  -58.6570   33.2720 H   0  0  0  0  0  0  0  0  0  0  0  0
   14.1100  -57.9090   33.2610 H   0  0  0  0  0  0  0  0  0  0  0  0
   15.2080  -55.6540   32.9940 H   0  0  0  0  0  0  0  0  0  0  0  0
   15.7810  -56.8280   31.7860 H   0  0  0  0  0  0  0  0  0  0  0  0
   17.7610  -55.6410   32.8350 H   0  0  0  0  0  0  0  0  0  0  0  0
   17.7130  -57.4450   32.9330 H   0  0  0  0  0  0  0  0  0  0  0  0
   18.2710  -56.0710   35.1790 H   0  0  0  0  0  0  0  0  0  0  0  0
   17.3950  -57.6120   37.3020 H   0  0  0  0  0  0  0  0  0  0  0  0
   15.9890  -59.2400   37.0140 H   0  0  0  0  0  0  0  0  0  0  0  0
   15.1320  -58.1870   38.2500 H   0  0  0  0  0  0  0  0  0  0  0  0
   16.7970  -52.7530   38.2180 H   0  0  0  0  0  0  0  0  0  0  0  0
   15.0620  -53.0280   39.9270 H   0  0  0  0  0  0  0  0  0  0  0  0
   14.0250  -55.1690   40.2290 H   0  0  0  0  0  0  0  0  0  0  0  0
   14.6900  -57.1010   38.8360 H   0  0  0  0  0  0  0  0  0  0  0  0
   18.5080  -52.7710   37.2860 H   0  0  0  0  0  0  0  0  0  0  0  0
   19.3280  -53.4650   35.8750 H   0  0  0  0  0  0  0  0  0  0  0  0
   19.5310  -54.2510   37.4850 H   0  0  0  0  0  0  0  0  0  0  0  0
   12.9490  -56.8420   35.9730 H   0  0  0  0  0  0  0  0  0  0  0  0
  1  2  1  0  0  0  0
  2  7  1  0  0  0  0
  3  4  1  0  0  0  0
  3  2  2  0  0  0  0
  4  5  2  0  0  0  0
  5  8  1  0  0  0  0
  5  6  1  0  0  0  0
  6 28  1  0  0  0  0
  7  6  2  0  0  0  0
  7 29  1  0  0  0  0
  8 25  1  1  0  0  0
  8 16  1  0  0  0  0
  9 14  1  0  0  0  0
  9  8  1  0  0  0  0
 10  9  1  0  0  0  0
 11 32  1  0  0  0  0
 11 12  1  0  0  0  0
 11 10  1  0  0  0  0
 12 13  1  0  0  0  0
 13 36  1  0  0  0  0
 13 14  2  0  0  0  0
 14 15  1  0  0  0  0
 15 16  1  0  0  0  0
 15 37  1  0  0  0  0
 15 17  1  0  0  0  0
 16 39  1  0  0  0  0
 17 22  1  0  0  0  0
 18 17  2  0  0  0  0
 18 19  1  0  0  0  0
 19 20  2  0  0  0  0
 20 21  1  0  0  0  0
 20 41  1  0  0  0  0
 21 42  1  0  0  0  0
 22 43  1  0  0  0  0
 22 21  2  0  0  0  0
 23 24  1  0  0  0  0
 23 18  1  0  0  0  0
 24 44  1  0  0  0  0
 24 46  1  0  0  0  0
 26  3  1  0  0  0  0
 27  4  1  0  0  0  0
 30 10  1  0  0  0  0
 31 10  1  0  0  0  0
 33 11  1  0  0  0  0
 34 12  1  0  0  0  0
 35 12  1  0  0  0  0
 38 16  1  0  0  0  0
 40 19  1  0  0  0  0
 45 24  1  0  0  0  0
 47 25  1  0  0  0  0
M  END
>  <Pose>
1

>  <Score>
-5.11

$$$$
