
 OpenBabel03232204043D

 56 59  0  0  1  0  0  0  0  0999 V2000
   11.0810  -62.8050   37.8360 B   0  0  0  0  0  0  0  0  0  0  0  0
   11.6890  -61.0050   37.8090 C   0  0  0  0  0  0  0  0  0  0  0  0
   11.6980  -60.2520   38.9790 C   0  0  0  0  0  0  0  0  0  0  0  0
   12.1350  -58.9540   38.9590 C   0  0  0  0  0  0  0  0  0  0  0  0
   12.5670  -58.3860   37.7810 C   0  0  0  0  0  0  0  0  0  0  0  0
   12.5510  -59.1460   36.6310 C   0  0  0  0  0  0  0  0  0  0  0  0
   12.1190  -60.4520   36.6160 C   0  0  0  0  0  0  0  0  0  0  0  0
   13.0210  -57.0270   37.7550 N   0  0  0  0  0  0  0  0  0  0  0  0
   14.0700  -56.5350   38.6260 C   0  0  0  0  0  0  0  0  0  0  0  0
   15.2420  -55.9910   37.8660 C   0  0  0  0  0  0  0  0  0  0  0  0
   15.8450  -54.7950   37.9570 N   0  0  0  0  0  0  0  0  0  0  0  0
   16.8570  -54.7710   37.0700 C   0  0  1  0  0  0  0  0  0  0  0  0
   16.8820  -55.9790   36.4160 N   0  0  0  0  0  0  0  0  0  0  0  0
   15.8900  -56.6890   36.9260 N   0  0  0  0  0  0  0  0  0  0  0  0
   17.7290  -56.4040   35.3740 C   0  0  0  0  0  0  0  0  0  0  0  0
   17.6680  -55.7130   34.1130 C   0  0  1  0  0  0  0  0  0  0  0  0
   16.6230  -54.8880   34.0330 O   0  0  0  0  0  0  0  0  0  0  0  0
   18.4760  -55.7100   32.9260 C   0  0  0  0  0  0  0  0  0  0  0  0
   18.5970  -56.8770   32.1390 C   0  0  0  0  0  0  0  0  0  0  0  0
   19.3580  -56.9310   31.0020 C   0  0  0  0  0  0  0  0  0  0  0  0
   20.0530  -55.8310   30.5660 C   0  0  0  0  0  0  0  0  0  0  0  0
   19.9630  -54.6800   31.3000 C   0  0  0  0  0  0  0  0  0  0  0  0
   19.1770  -54.6380   32.4670 C   0  0  0  0  0  0  0  0  0  0  0  0
   20.8260  -55.8880   29.4090 O   0  0  0  0  0  0  0  0  0  0  0  0
   22.2200  -56.0750   29.4390 C   0  0  0  0  0  0  0  0  0  0  0  0
   17.8460  -53.7470   36.7190 C   0  0  0  0  0  0  0  0  0  0  0  0
   18.2810  -52.8660   37.8600 C   0  0  0  0  0  0  0  0  0  0  0  0
   17.1700  -52.0720   38.4630 C   0  0  0  0  0  0  0  0  0  0  0  0
   16.4940  -52.9570   39.4850 C   0  0  0  0  0  0  0  0  0  0  0  0
   15.4000  -53.7930   38.8690 C   0  0  0  0  0  0  0  0  0  0  0  0
   11.3450  -60.7430   39.8900 H   0  0  0  0  0  0  0  0  0  0  0  0
   12.1410  -58.3830   39.8620 H   0  0  0  0  0  0  0  0  0  0  0  0
   12.8870  -58.7070   35.7130 H   0  0  0  0  0  0  0  0  0  0  0  0
   12.0970  -61.0710   35.7280 H   0  0  0  0  0  0  0  0  0  0  0  0
   12.5530  -56.3960   37.0680 H   0  0  0  0  0  0  0  0  0  0  0  0
   13.6760  -55.7600   39.3390 H   0  0  0  0  0  0  0  0  0  0  0  0
   14.4020  -57.3730   39.2750 H   0  0  0  0  0  0  0  0  0  0  0  0
   17.6540  -57.5420   35.2260 H   0  0  0  0  0  0  0  0  0  0  0  0
   18.8390  -56.3440   35.6990 H   0  0  0  0  0  0  0  0  0  0  0  0
   18.0520  -57.7470   32.4780 H   0  0  0  0  0  0  0  0  0  0  0  0
   19.4070  -57.8620   30.4410 H   0  0  0  0  0  0  0  0  0  0  0  0
   20.5070  -53.8010   30.9680 H   0  0  0  0  0  0  0  0  0  0  0  0
   19.1800  -53.7100   32.9570 H   0  0  0  0  0  0  0  0  0  0  0  0
   22.6730  -55.3420   30.1470 H   0  0  0  0  0  0  0  0  0  0  0  0
   22.6200  -55.8440   28.4310 H   0  0  0  0  0  0  0  0  0  0  0  0
   22.4990  -57.1110   29.7120 H   0  0  0  0  0  0  0  0  0  0  0  0
   17.4710  -53.0830   35.9140 H   0  0  0  0  0  0  0  0  0  0  0  0
   18.7640  -54.2540   36.3570 H   0  0  0  0  0  0  0  0  0  0  0  0
   19.0170  -52.1450   37.4370 H   0  0  0  0  0  0  0  0  0  0  0  0
   18.8210  -53.4270   38.6480 H   0  0  0  0  0  0  0  0  0  0  0  0
   17.6030  -51.1970   39.0130 H   0  0  0  0  0  0  0  0  0  0  0  0
   16.4220  -51.7530   37.7330 H   0  0  0  0  0  0  0  0  0  0  0  0
   16.0070  -52.2880   40.2240 H   0  0  0  0  0  0  0  0  0  0  0  0
   17.2230  -53.5780   40.0580 H   0  0  0  0  0  0  0  0  0  0  0  0
   14.7290  -53.0890   38.3340 H   0  0  0  0  0  0  0  0  0  0  0  0
   14.8910  -54.2940   39.7190 H   0  0  0  0  0  0  0  0  0  0  0  0
  2  1  1  0  0  0  0
  2  3  1  0  0  0  0
  3 31  1  0  0  0  0
  4  3  2  0  0  0  0
  4 32  1  0  0  0  0
  5  4  1  0  0  0  0
  6  5  2  0  0  0  0
  7  6  1  0  0  0  0
  7  2  2  0  0  0  0
  8  5  1  0  0  0  0
  8  9  1  0  0  0  0
  9 37  1  0  0  0  0
  9 36  1  0  0  0  0
 10 11  1  0  0  0  0
 10  9  1  0  0  0  0
 11 30  1  0  0  0  0
 12 13  1  6  0  0  0
 12 11  1  0  0  0  0
 13 14  1  0  0  0  0
 14 10  2  0  0  0  0
 15 39  1  0  0  0  0
 15 13  1  0  0  0  0
 16 17  1  1  0  0  0
 16 15  1  0  0  0  0
 18 16  1  0  0  0  0
 19 40  1  0  0  0  0
 19 18  2  0  0  0  0
 20 19  1  0  0  0  0
 21 20  2  0  0  0  0
 21 22  1  0  0  0  0
 22 23  2  0  0  0  0
 23 18  1  0  0  0  0
 23 43  1  0  0  0  0
 24 25  1  0  0  0  0
 24 21  1  0  0  0  0
 25 46  1  0  0  0  0
 25 44  1  0  0  0  0
 26 12  1  0  0  0  0
 26 27  1  0  0  0  0
 27 28  1  0  0  0  0
 27 50  1  0  0  0  0
 28 51  1  0  0  0  0
 28 29  1  0  0  0  0
 29 54  1  0  0  0  0
 29 53  1  0  0  0  0
 30 29  1  0  0  0  0
 30 56  1  0  0  0  0
 33  6  1  0  0  0  0
 34  7  1  0  0  0  0
 35  8  1  0  0  0  0
 38 15  1  0  0  0  0
 41 20  1  0  0  0  0
 42 22  1  0  0  0  0
 45 25  1  0  0  0  0
 47 26  1  0  0  0  0
 48 26  1  0  0  0  0
 49 27  1  0  0  0  0
 52 28  1  0  0  0  0
 55 30  1  0  0  0  0
M  END
>  <Pose>
1

>  <Score>
-7.07

$$$$
