
 OpenBabel03232204043D

 50 53  0  0  0  0  0  0  0  0999 V2000
   20.2030  -51.4250   36.3320 F   0  0  0  0  0  0  0  0  0  0  0  0
   19.1040  -52.0790   36.7990 C   0  0  0  0  0  0  0  0  0  0  0  0
   18.7410  -53.3220   36.3240 C   0  0  0  0  0  0  0  0  0  0  0  0
   17.6220  -53.9660   36.8110 C   0  0  0  0  0  0  0  0  0  0  0  0
   16.8190  -53.4030   37.7880 C   0  0  0  0  0  0  0  0  0  0  0  0
   17.1890  -52.1600   38.2570 C   0  0  0  0  0  0  0  0  0  0  0  0
   18.3140  -51.5080   37.7690 C   0  0  0  0  0  0  0  0  0  0  0  0
   15.6370  -54.0790   38.3050 C   0  0  0  0  0  0  0  0  0  0  0  0
   15.7480  -55.0540   39.1340 N   0  0  0  0  0  0  0  0  0  0  0  0
   14.6670  -55.7430   39.6670 N   0  0  0  0  0  0  0  0  0  0  0  0
   14.0750  -56.8150   38.9620 C   0  0  0  0  0  0  0  0  0  0  0  0
   13.1460  -57.5860   39.5690 N   0  0  0  0  0  4  0  0  0  0  0  0
   12.5390  -58.6300   38.9500 C   0  0  0  0  0  0  0  0  0  0  0  0
   12.9050  -58.8680   37.6890 N   0  0  0  0  0  0  0  0  0  0  0  0
   13.8210  -58.1440   37.0230 C   0  0  0  0  0  0  0  0  0  0  0  0
   14.3870  -57.1230   37.6910 N   0  0  0  0  0  0  0  0  0  0  0  0
   14.1600  -58.4570   35.6780 N   0  0  0  0  0  0  0  0  0  0  0  0
   15.5280  -58.8220   35.3670 C   0  0  0  0  0  0  0  0  0  0  0  0
   15.6580  -59.0680   33.8800 C   0  0  0  0  0  0  0  0  0  0  0  0
   14.7040  -59.8950   33.3590 O   0  0  0  0  0  0  0  0  0  0  0  0
   13.4230  -59.7180   33.8070 C   0  0  0  0  0  0  0  0  0  0  0  0
   13.2240  -58.4340   34.5930 C   0  0  0  0  0  0  0  0  0  0  0  0
   11.5670  -59.4090   39.6370 N   0  0  0  0  0  0  0  0  0  0  0  0
   10.6390  -58.8770   40.6070 C   0  0  0  0  0  0  0  0  0  0  0  0
   10.8580  -59.7490   41.8420 C   0  0  0  0  0  0  0  0  0  0  0  0
   10.4300  -60.9980   41.5790 O   0  0  0  0  0  0  0  0  0  0  0  0
   10.7700  -61.6010   40.4330 C   0  0  0  0  0  0  0  0  0  0  0  0
   11.4630  -60.8270   39.3830 C   0  0  0  0  0  0  0  0  0  0  0  0
   19.8310  -54.1230   34.9760 B   0  0  0  0  0  0  0  0  0  0  0  0
   17.3260  -54.9540   36.4400 H   0  0  0  0  0  0  0  0  0  0  0  0
   16.5580  -51.7090   39.0290 H   0  0  0  0  0  0  0  0  0  0  0  0
   18.5900  -50.5250   38.1530 H   0  0  0  0  0  0  0  0  0  0  0  0
   14.6690  -53.7490   37.9830 H   0  0  0  0  0  0  0  0  0  0  0  0
   14.2860  -55.4720   40.5890 H   0  0  0  0  0  0  0  0  0  0  0  0
   16.2280  -57.9680   35.5950 H   0  0  0  0  0  0  0  0  0  0  0  0
   15.7640  -59.7290   35.9310 H   0  0  0  0  0  0  0  0  0  0  0  0
   16.6500  -59.5870   33.7470 H   0  0  0  0  0  0  0  0  0  0  0  0
   15.7540  -58.1160   33.3320 H   0  0  0  0  0  0  0  0  0  0  0  0
   13.1840  -60.5480   34.5190 H   0  0  0  0  0  0  0  0  0  0  0  0
   12.7330  -59.7640   32.9320 H   0  0  0  0  0  0  0  0  0  0  0  0
   13.5120  -57.6080   33.9080 H   0  0  0  0  0  0  0  0  0  0  0  0
   12.1880  -58.3800   34.9310 H   0  0  0  0  0  0  0  0  0  0  0  0
    9.6200  -59.1220   40.2450 H   0  0  0  0  0  0  0  0  0  0  0  0
   10.7860  -57.8110   40.8260 H   0  0  0  0  0  0  0  0  0  0  0  0
   11.9330  -59.6930   42.0910 H   0  0  0  0  0  0  0  0  0  0  0  0
   10.2560  -59.3370   42.7010 H   0  0  0  0  0  0  0  0  0  0  0  0
    9.8350  -62.0490   39.9790 H   0  0  0  0  0  0  0  0  0  0  0  0
   11.3860  -62.5180   40.6830 H   0  0  0  0  0  0  0  0  0  0  0  0
   10.9400  -60.9090   38.3830 H   0  0  0  0  0  0  0  0  0  0  0  0
   12.4840  -61.2650   39.1690 H   0  0  0  0  0  0  0  0  0  0  0  0
  1  2  1  0  0  0  0
  2  7  1  0  0  0  0
  3  2  2  0  0  0  0
  3  4  1  0  0  0  0
  4  5  2  0  0  0  0
  5  6  1  0  0  0  0
  5  8  1  0  0  0  0
  6 31  1  0  0  0  0
  7 32  1  0  0  0  0
  7  6  2  0  0  0  0
  8  9  2  0  0  0  0
  9 10  1  0  0  0  0
 10 34  1  0  0  0  0
 11 12  2  0  0  0  0
 11 10  1  0  0  0  0
 13 12  2  0  0  0  0
 13 23  1  0  0  0  0
 14 13  1  0  0  0  0
 15 14  2  0  0  0  0
 15 16  1  0  0  0  0
 16 11  1  0  0  0  0
 17 15  1  0  0  0  0
 18 35  1  0  0  0  0
 18 17  1  0  0  0  0
 18 36  1  0  0  0  0
 19 18  1  0  0  0  0
 20 21  1  0  0  0  0
 20 19  1  0  0  0  0
 21 39  1  0  0  0  0
 21 22  1  0  0  0  0
 22 42  1  0  0  0  0
 22 17  1  0  0  0  0
 23 24  1  0  0  0  0
 24 44  1  0  0  0  0
 24 25  1  0  0  0  0
 25 45  1  0  0  0  0
 25 46  1  0  0  0  0
 26 25  1  0  0  0  0
 27 48  1  0  0  0  0
 27 26  1  0  0  0  0
 28 23  1  0  0  0  0
 28 27  1  0  0  0  0
 29  3  1  0  0  0  0
 30  4  1  0  0  0  0
 33  8  1  0  0  0  0
 37 19  1  0  0  0  0
 38 19  1  0  0  0  0
 40 21  1  0  0  0  0
 41 22  1  0  0  0  0
 43 24  1  0  0  0  0
 47 27  1  0  0  0  0
 49 28  1  0  0  0  0
 50 28  1  0  0  0  0
M  END
>  <Pose>
1

>  <Score>
-7.19

$$$$
