
 OpenBabel03232204043D

 41 44  0  0  0  0  0  0  0  0999 V2000
   12.8190  -60.5750   36.7800 F   0  0  0  0  0  0  0  0  0  0  0  0
   13.4050  -59.3970   37.1490 C   0  0  0  0  0  0  0  0  0  0  0  0
   14.7600  -59.2540   37.0610 C   0  0  0  0  0  0  0  0  0  0  0  0
   15.3680  -58.0530   37.4350 C   0  0  0  0  0  0  0  0  0  0  0  0
   14.6360  -56.9850   37.9000 C   0  0  0  0  0  0  0  0  0  0  0  0
   13.2640  -57.1620   37.9770 C   0  0  0  0  0  0  0  0  0  0  0  0
   12.6540  -58.3410   37.6120 C   0  0  0  0  0  0  0  0  0  0  0  0
   15.2020  -55.7340   38.2880 N   0  0  0  0  0  0  0  0  0  0  0  0
   16.0570  -54.9530   37.6070 C   0  0  0  0  0  0  0  0  0  0  0  0
   16.4720  -55.2740   36.4610 O   0  0  0  0  0  0  0  0  0  0  0  0
   16.3950  -53.8110   38.3100 C   0  0  0  0  0  0  0  0  0  0  0  0
   15.7220  -53.9050   39.4540 C   0  0  0  0  0  0  0  0  0  0  0  0
   16.0230  -52.8170   40.1700 N   0  0  0  0  0  0  0  0  0  0  0  0
   16.8640  -52.0770   39.4720 N   0  0  0  0  0  0  0  0  0  0  0  0
   17.1200  -52.6650   38.3070 N   0  0  0  0  0  0  0  0  0  0  0  0
   17.9670  -52.2270   37.2360 C   0  0  0  0  0  0  0  0  0  0  0  0
   19.2780  -52.8790   37.1580 C   0  0  0  0  0  0  0  0  0  0  0  0
   19.7450  -53.3530   38.2050 O   0  0  0  0  0  0  0  0  0  0  0  0
   19.9640  -52.9580   35.9420 N   0  0  0  0  0  0  0  0  0  0  0  0
   19.6780  -53.7470   34.8040 C   0  0  0  0  0  0  0  0  0  0  0  0
   19.9690  -53.3240   33.5300 C   0  0  0  0  0  0  0  0  0  0  0  0
   19.7000  -54.0750   32.3820 C   0  0  0  0  0  0  0  0  0  0  0  0
   19.1110  -55.2990   32.5760 C   0  0  0  0  0  0  0  0  0  0  0  0
   18.8100  -55.7460   33.8380 C   0  0  0  0  0  0  0  0  0  0  0  0
   19.0850  -54.9900   34.9470 C   0  0  0  0  0  0  0  0  0  0  0  0
   18.7130  -56.3900   31.0370 B   0  0  0  0  0  0  0  0  0  0  0  0
   14.9900  -55.0720   39.4540 C   0  0  0  0  0  0  0  0  0  0  0  0
   14.2220  -55.5290   40.3490 O   0  0  0  0  0  0  0  0  0  0  0  0
   15.3380  -60.0900   36.6960 H   0  0  0  0  0  0  0  0  0  0  0  0
   16.4290  -57.9590   37.3590 H   0  0  0  0  0  0  0  0  0  0  0  0
   12.6830  -56.3070   38.3500 H   0  0  0  0  0  0  0  0  0  0  0  0
   11.5840  -58.4610   37.6780 H   0  0  0  0  0  0  0  0  0  0  0  0
   15.6300  -52.6210   41.1310 H   0  0  0  0  0  0  0  0  0  0  0  0
   17.2730  -51.1790   39.7660 H   0  0  0  0  0  0  0  0  0  0  0  0
   18.1570  -51.1230   37.3910 H   0  0  0  0  0  0  0  0  0  0  0  0
   17.4280  -52.2560   36.2450 H   0  0  0  0  0  0  0  0  0  0  0  0
   20.8460  -52.3400   35.8190 H   0  0  0  0  0  0  0  0  0  0  0  0
   20.4350  -52.3680   33.3060 H   0  0  0  0  0  0  0  0  0  0  0  0
   19.9390  -53.7170   31.3890 H   0  0  0  0  0  0  0  0  0  0  0  0
   18.3430  -56.7220   33.9770 H   0  0  0  0  0  0  0  0  0  0  0  0
   18.8320  -55.3740   35.9580 H   0  0  0  0  0  0  0  0  0  0  0  0
  1  2  1  0  0  0  0
  2  7  1  0  0  0  0
  3  2  2  0  0  0  0
  3  4  1  0  0  0  0
  4  5  2  0  0  0  0
  5  6  1  0  0  0  0
  5  8  1  0  0  0  0
  6 31  1  0  0  0  0
  7 32  1  0  0  0  0
  7  6  2  0  0  0  0
  8 27  1  0  0  0  0
  9  8  1  0  0  0  0
  9 11  1  0  0  0  0
 10  9  2  0  0  0  0
 11 12  2  0  0  0  0
 12 27  1  0  0  0  0
 12 13  1  0  0  0  0
 13 33  1  0  0  0  0
 14 34  1  0  0  0  0
 14 13  1  0  0  0  0
 15 11  1  0  0  0  0
 15 14  1  0  0  0  0
 16 35  1  0  0  0  0
 16 15  1  0  0  0  0
 17 16  1  0  0  0  0
 17 18  2  0  0  0  0
 19 17  1  0  0  0  0
 20 25  1  0  0  0  0
 20 19  1  0  0  0  0
 21 20  2  0  0  0  0
 22 23  2  0  0  0  0
 22 21  1  0  0  0  0
 23 24  1  0  0  0  0
 24 40  1  0  0  0  0
 24 25  2  0  0  0  0
 25 41  1  0  0  0  0
 26 23  1  0  0  0  0
 27 28  2  0  0  0  0
 29  3  1  0  0  0  0
 30  4  1  0  0  0  0
 36 16  1  0  0  0  0
 37 19  1  0  0  0  0
 38 21  1  0  0  0  0
 39 22  1  0  0  0  0
M  END
>  <Pose>
1

>  <Score>
-8.49

$$$$
