
 OpenBabel03232204043D

 38 41  0  0  1  0  0  0  0  0999 V2000
   12.1000  -59.1910   38.5590 I   0  0  0  0  0  0  0  0  0  0  0  0
   12.7070  -59.6060   36.5790 C   0  0  0  0  0  0  0  0  0  0  0  0
   14.0680  -59.4670   36.2260 C   0  0  0  0  0  0  0  0  0  0  0  0
   14.4790  -59.7280   34.9500 C   0  0  0  0  0  0  0  0  0  0  0  0
   13.5120  -60.1330   34.0260 C   0  0  0  0  0  0  0  0  0  0  0  0
   12.1900  -60.2750   34.3390 C   0  0  0  0  0  0  0  0  0  0  0  0
   11.7840  -60.0040   35.6440 C   0  0  0  0  0  0  0  0  0  0  0  0
   14.9870  -59.0630   37.2150 N   0  0  0  0  0  0  0  0  0  0  0  0
   15.2690  -57.7560   37.6600 C   0  0  1  0  0  0  0  0  0  0  0  0
   14.7700  -57.1690   38.7420 N   0  0  0  0  0  0  0  0  0  0  0  0
   15.0460  -55.9220   39.1570 C   0  0  0  0  0  0  0  0  0  0  0  0
   14.7080  -55.1060   40.1630 N   0  0  0  0  0  0  0  0  0  0  0  0
   15.3170  -53.9620   40.0450 O   0  0  0  0  0  0  0  0  0  0  0  0
   16.0660  -53.9760   38.9800 N   0  0  0  0  0  0  0  0  0  0  0  0
   15.9380  -55.1710   38.3840 C   0  0  0  0  0  0  0  0  0  0  0  0
   16.4670  -55.7040   37.2980 N   0  0  0  0  0  0  0  0  0  0  0  0
   16.1610  -56.9500   36.9250 C   0  0  0  0  0  0  0  0  0  0  0  0
   16.8400  -57.1880   35.8150 N   0  0  0  0  0  0  0  0  0  0  0  0
   17.5640  -56.1020   35.4930 N   0  0  0  0  0  0  0  0  0  0  0  0
   17.3470  -55.1520   36.4140 C   0  0  0  0  0  0  0  0  0  0  0  0
   17.9060  -53.7770   36.5020 C   0  0  0  0  0  0  0  0  0  0  0  0
   19.3000  -53.6800   36.0070 C   0  0  0  0  0  0  0  0  0  0  0  0
   20.2910  -54.0180   36.6870 O   0  0  0  0  0  0  0  0  0  0  0  0
   19.5160  -53.1960   34.7460 O   0  0  0  0  0  0  0  0  0  0  0  0
   20.3320  -53.7780   33.7950 C   0  0  0  0  0  0  0  0  0  0  0  0
   19.6660  -54.2690   32.5670 C   0  0  0  0  0  0  0  0  0  0  0  0
   15.4910  -59.6480   34.6010 H   0  0  0  0  0  0  0  0  0  0  0  0
   13.8270  -60.3450   33.0010 H   0  0  0  0  0  0  0  0  0  0  0  0
   11.4660  -60.5870   33.6050 H   0  0  0  0  0  0  0  0  0  0  0  0
   10.7360  -60.1190   35.8810 H   0  0  0  0  0  0  0  0  0  0  0  0
   15.5340  -59.8730   37.6770 H   0  0  0  0  0  0  0  0  0  0  0  0
   17.7860  -53.3380   37.5090 H   0  0  0  0  0  0  0  0  0  0  0  0
   17.3080  -53.1020   35.8150 H   0  0  0  0  0  0  0  0  0  0  0  0
   21.1280  -53.0200   33.5480 H   0  0  0  0  0  0  0  0  0  0  0  0
   20.9160  -54.6290   34.2500 H   0  0  0  0  0  0  0  0  0  0  0  0
   20.0800  -53.6870   31.6910 H   0  0  0  0  0  0  0  0  0  0  0  0
   18.5740  -54.0480   32.5530 H   0  0  0  0  0  0  0  0  0  0  0  0
   19.8810  -55.3340   32.4150 H   0  0  0  0  0  0  0  0  0  0  0  0
  2  1  1  0  0  0  0
  3  2  1  0  0  0  0
  3  8  1  0  0  0  0
  4  3  2  0  0  0  0
  5  6  2  0  0  0  0
  5  4  1  0  0  0  0
  6  7  1  0  0  0  0
  7 30  1  0  0  0  0
  7  2  2  0  0  0  0
  8 31  1  0  0  0  0
  9  8  1  1  0  0  0
  9 10  1  0  0  0  0
 10 11  2  0  0  0  0
 11 12  1  0  0  0  0
 13 12  1  0  0  0  0
 14 13  1  0  0  0  0
 15 14  2  0  0  0  0
 15 11  1  0  0  0  0
 16 15  1  0  0  0  0
 17 16  1  0  0  0  0
 17  9  1  0  0  0  0
 18 17  2  0  0  0  0
 19 18  1  0  0  0  0
 19 20  2  0  0  0  0
 20 21  1  0  0  0  0
 20 16  1  0  0  0  0
 21 32  1  0  0  0  0
 22 21  1  0  0  0  0
 22 23  2  0  0  0  0
 24 22  1  0  0  0  0
 25 35  1  0  0  0  0
 25 24  1  0  0  0  0
 26 25  1  0  0  0  0
 27  4  1  0  0  0  0
 28  5  1  0  0  0  0
 29  6  1  0  0  0  0
 33 21  1  0  0  0  0
 34 25  1  0  0  0  0
 36 26  1  0  0  0  0
 37 26  1  0  0  0  0
 38 26  1  0  0  0  0
M  END
>  <Pose>
1

>  <Score>
-7.93

$$$$
