
 OpenBabel03232204043D

 34 37  0  0  0  0  0  0  0  0999 V2000
   18.7320  -56.6570   38.0430 I   0  0  0  0  0  0  0  0  0  0  0  0
   18.3160  -54.5820   38.0110 C   0  0  0  0  0  0  0  0  0  0  0  0
   16.9900  -54.2010   38.0390 C   0  0  0  0  0  0  0  0  0  0  0  0
   16.7400  -52.8450   38.0170 C   0  0  0  0  0  0  0  0  0  0  0  0
   17.7710  -51.9220   37.9720 C   0  0  0  0  0  0  0  0  0  0  0  0
   19.0920  -52.3140   37.9440 C   0  0  0  0  0  0  0  0  0  0  0  0
   19.3510  -53.6690   37.9660 C   0  0  0  0  0  0  0  0  0  0  0  0
   15.9370  -55.1650   38.0860 N   0  0  0  0  0  0  0  0  0  0  0  0
   15.6310  -56.1230   37.1940 C   0  0  0  0  0  0  0  0  0  0  0  0
   16.2550  -56.3400   36.1120 O   0  0  0  0  0  0  0  0  0  0  0  0
   14.5350  -56.8580   37.5990 C   0  0  0  0  0  0  0  0  0  0  0  0
   14.1690  -56.3370   38.7590 C   0  0  0  0  0  0  0  0  0  0  0  0
   13.0960  -57.0680   39.1440 N   0  0  0  0  0  0  0  0  0  0  0  0
   12.8230  -57.9980   38.2470 N   0  0  0  0  0  0  0  0  0  0  0  0
   13.7000  -57.8870   37.2840 N   0  0  0  0  0  0  0  0  0  0  0  0
   13.8140  -58.6650   36.1000 C   0  0  0  0  0  0  0  0  0  0  0  0
   12.7110  -59.0680   35.3800 C   0  0  0  0  0  0  0  0  0  0  0  0
   12.8550  -59.8270   34.2300 C   0  0  0  0  0  0  0  0  0  0  0  0
   14.0950  -60.2080   33.7590 C   0  0  0  0  0  0  0  0  0  0  0  0
   15.2000  -59.8040   34.4780 C   0  0  0  0  0  0  0  0  0  0  0  0
   15.0660  -59.0530   35.6200 C   0  0  0  0  0  0  0  0  0  0  0  0
   15.0260  -55.2940   39.0690 C   0  0  0  0  0  0  0  0  0  0  0  0
   14.9440  -54.5830   40.1230 O   0  0  0  0  0  0  0  0  0  0  0  0
   15.7030  -52.5390   38.0380 H   0  0  0  0  0  0  0  0  0  0  0  0
   17.5520  -50.8640   37.9550 H   0  0  0  0  0  0  0  0  0  0  0  0
   19.8750  -51.5670   37.9090 H   0  0  0  0  0  0  0  0  0  0  0  0
   20.3990  -53.9740   37.9440 H   0  0  0  0  0  0  0  0  0  0  0  0
   12.5480  -56.9340   40.0190 H   0  0  0  0  0  0  0  0  0  0  0  0
   12.0510  -58.6940   38.2950 H   0  0  0  0  0  0  0  0  0  0  0  0
   11.7250  -58.7830   35.7270 H   0  0  0  0  0  0  0  0  0  0  0  0
   11.9670  -60.1240   33.6920 H   0  0  0  0  0  0  0  0  0  0  0  0
   14.1710  -60.8030   32.8520 H   0  0  0  0  0  0  0  0  0  0  0  0
   16.1750  -60.1060   34.1040 H   0  0  0  0  0  0  0  0  0  0  0  0
   15.9100  -58.7280   36.1960 H   0  0  0  0  0  0  0  0  0  0  0  0
  2  3  1  0  0  0  0
  2  1  1  0  0  0  0
  3  8  1  0  0  0  0
  4 24  1  0  0  0  0
  4  3  2  0  0  0  0
  5  4  1  0  0  0  0
  6  7  1  0  0  0  0
  6  5  2  0  0  0  0
  7  2  2  0  0  0  0
  8 22  1  0  0  0  0
  9 11  1  0  0  0  0
  9  8  1  0  0  0  0
 10  9  2  0  0  0  0
 11 12  2  0  0  0  0
 12 22  1  0  0  0  0
 12 13  1  0  0  0  0
 13 28  1  0  0  0  0
 14 29  1  0  0  0  0
 14 13  1  0  0  0  0
 15 11  1  0  0  0  0
 15 14  1  0  0  0  0
 16 15  1  0  0  0  0
 17 30  1  0  0  0  0
 17 16  2  0  0  0  0
 18 17  1  0  0  0  0
 19 18  2  0  0  0  0
 19 20  1  0  0  0  0
 20 21  2  0  0  0  0
 21 16  1  0  0  0  0
 21 34  1  0  0  0  0
 22 23  2  0  0  0  0
 25  5  1  0  0  0  0
 26  6  1  0  0  0  0
 27  7  1  0  0  0  0
 31 18  1  0  0  0  0
 32 19  1  0  0  0  0
 33 20  1  0  0  0  0
M  END
>  <Pose>
1

>  <Score>
-6.00

$$$$
