
 OpenBabel03232204043D

 50 53  0  0  0  0  0  0  0  0999 V2000
   11.2110  -59.3990   39.7450 I   0  0  0  0  0  0  0  0  0  0  0  0
   11.9970  -59.2220   37.8140 C   0  0  0  0  0  0  0  0  0  0  0  0
   12.9840  -58.3410   37.4980 C   0  0  0  0  0  0  0  0  0  0  0  0
   13.4670  -58.2720   36.1830 C   0  0  0  0  0  0  0  0  0  0  0  0
   12.9940  -59.0570   35.1730 C   0  0  0  0  0  0  0  0  0  0  0  0
   11.9770  -59.9570   35.5270 C   0  0  0  0  0  0  0  0  0  0  0  0
   11.5010  -60.0280   36.8140 C   0  0  0  0  0  0  0  0  0  0  0  0
   13.4160  -59.0660   33.8000 C   0  0  0  0  0  0  0  0  0  0  0  0
   14.1230  -58.2160   33.1950 N   0  0  0  0  0  0  0  0  0  0  0  0
   14.6290  -57.0970   33.7680 N   0  0  0  0  0  0  0  0  0  0  0  0
   15.9730  -56.6770   33.4360 C   0  0  0  0  0  0  0  0  0  0  0  0
   16.6790  -55.9250   34.2970 N   0  0  0  0  0  4  0  0  0  0  0  0
   17.9240  -55.5240   34.0100 C   0  0  0  0  0  0  0  0  0  0  0  0
   18.4260  -55.9110   32.8260 N   0  0  0  0  0  0  0  0  0  0  0  0
   17.7500  -56.6650   31.9360 C   0  0  0  0  0  0  0  0  0  0  0  0
   16.5010  -57.0460   32.2620 N   0  0  0  0  0  0  0  0  0  0  0  0
   18.3560  -57.0310   30.7050 N   0  0  0  0  0  0  0  0  0  0  0  0
   18.5540  -58.4280   30.3930 C   0  0  0  0  0  0  0  0  0  0  0  0
   19.8760  -58.4870   29.6150 C   0  0  0  0  0  0  0  0  0  0  0  0
   19.6830  -57.8340   28.4260 O   0  0  0  0  0  0  0  0  0  0  0  0
   19.3660  -56.5070   28.5050 C   0  0  0  0  0  0  0  0  0  0  0  0
   18.7690  -56.0330   29.7800 C   0  0  0  0  0  0  0  0  0  0  0  0
   18.6940  -54.7260   34.9100 N   0  0  0  0  0  0  0  0  0  0  0  0
   18.2570  -54.3910   36.2320 C   0  0  0  0  0  0  0  0  0  0  0  0
   19.2570  -53.3850   36.8070 C   0  0  0  0  0  0  0  0  0  0  0  0
   19.5030  -52.3480   35.9230 O   0  0  0  0  0  0  0  0  0  0  0  0
   20.1270  -52.7500   34.7680 C   0  0  0  0  0  0  0  0  0  0  0  0
   19.9860  -54.2220   34.4750 C   0  0  0  0  0  0  0  0  0  0  0  0
   13.3780  -57.7050   38.2750 H   0  0  0  0  0  0  0  0  0  0  0  0
   14.2310  -57.5590   36.0400 H   0  0  0  0  0  0  0  0  0  0  0  0
   11.5510  -60.6110   34.7850 H   0  0  0  0  0  0  0  0  0  0  0  0
   10.7120  -60.7520   37.0040 H   0  0  0  0  0  0  0  0  0  0  0  0
   13.0960  -59.9220   33.1470 H   0  0  0  0  0  0  0  0  0  0  0  0
   14.0700  -56.5500   34.4590 H   0  0  0  0  0  0  0  0  0  0  0  0
   17.7310  -58.7880   29.7620 H   0  0  0  0  0  0  0  0  0  0  0  0
   18.6920  -59.0430   31.3070 H   0  0  0  0  0  0  0  0  0  0  0  0
   20.6570  -58.0680   30.2510 H   0  0  0  0  0  0  0  0  0  0  0  0
   20.0600  -59.5500   29.4030 H   0  0  0  0  0  0  0  0  0  0  0  0
   20.2310  -55.8590   28.1700 H   0  0  0  0  0  0  0  0  0  0  0  0
   18.5940  -56.3190   27.7000 H   0  0  0  0  0  0  0  0  0  0  0  0
   17.8880  -55.3450   29.6190 H   0  0  0  0  0  0  0  0  0  0  0  0
   19.5320  -55.3500   30.2620 H   0  0  0  0  0  0  0  0  0  0  0  0
   17.2310  -54.0150   36.2980 H   0  0  0  0  0  0  0  0  0  0  0  0
   18.3500  -55.3150   36.8560 H   0  0  0  0  0  0  0  0  0  0  0  0
   20.1850  -53.9550   37.0750 H   0  0  0  0  0  0  0  0  0  0  0  0
   18.8570  -52.9430   37.7410 H   0  0  0  0  0  0  0  0  0  0  0  0
   21.2310  -52.5360   34.7760 H   0  0  0  0  0  0  0  0  0  0  0  0
   19.6510  -52.1940   33.9160 H   0  0  0  0  0  0  0  0  0  0  0  0
   20.8010  -54.7680   34.9990 H   0  0  0  0  0  0  0  0  0  0  0  0
   20.1050  -54.3340   33.3650 H   0  0  0  0  0  0  0  0  0  0  0  0
  2  1  1  0  0  0  0
  3  2  1  0  0  0  0
  3 29  1  0  0  0  0
  4  3  2  0  0  0  0
  5  6  2  0  0  0  0
  5  4  1  0  0  0  0
  6  7  1  0  0  0  0
  7 32  1  0  0  0  0
  7  2  2  0  0  0  0
  8  5  1  0  0  0  0
  9 10  1  0  0  0  0
  9  8  2  0  0  0  0
 10 34  1  0  0  0  0
 11 10  1  0  0  0  0
 11 12  2  0  0  0  0
 13 12  2  0  0  0  0
 13 23  1  0  0  0  0
 14 13  1  0  0  0  0
 15 16  1  0  0  0  0
 15 14  2  0  0  0  0
 16 11  1  0  0  0  0
 17 15  1  0  0  0  0
 18 17  1  0  0  0  0
 18 36  1  0  0  0  0
 19 37  1  0  0  0  0
 19 18  1  0  0  0  0
 20 21  1  0  0  0  0
 20 19  1  0  0  0  0
 21 22  1  0  0  0  0
 22 42  1  0  0  0  0
 22 17  1  0  0  0  0
 23 24  1  0  0  0  0
 24 43  1  0  0  0  0
 24 25  1  0  0  0  0
 24 44  1  0  0  0  0
 25 45  1  0  0  0  0
 25 46  1  0  0  0  0
 26 25  1  0  0  0  0
 27 47  1  0  0  0  0
 27 26  1  0  0  0  0
 28 27  1  0  0  0  0
 28 23  1  0  0  0  0
 28 49  1  0  0  0  0
 30  4  1  0  0  0  0
 31  6  1  0  0  0  0
 33  8  1  0  0  0  0
 35 18  1  0  0  0  0
 38 19  1  0  0  0  0
 39 21  1  0  0  0  0
 40 21  1  0  0  0  0
 41 22  1  0  0  0  0
 48 27  1  0  0  0  0
 50 28  1  0  0  0  0
M  END
>  <Pose>
1

>  <Score>
-6.64

$$$$
