
 OpenBabel03232204043D

 44 47  0  0  1  0  0  0  0  0999 V2000
   20.2780  -53.6690   33.4560 I   0  0  0  0  0  0  0  0  0  0  0  0
   18.7850  -55.1500   33.6640 C   0  0  0  0  0  0  0  0  0  0  0  0
   18.2230  -55.4580   34.8850 C   0  0  0  0  0  0  0  0  0  0  0  0
   17.2500  -56.4310   34.9920 C   0  0  0  0  0  0  0  0  0  0  0  0
   16.8030  -57.1320   33.8910 C   0  0  0  0  0  0  0  0  0  0  0  0
   17.3770  -56.8110   32.6840 C   0  0  0  0  0  0  0  0  0  0  0  0
   18.3510  -55.8410   32.5530 C   0  0  0  0  0  0  0  0  0  0  0  0
   15.7850  -58.1370   34.0540 N   0  0  0  0  0  0  0  0  0  0  0  0
   14.4100  -57.9530   34.3480 C   0  0  0  0  0  0  0  0  0  0  0  0
   13.7870  -56.8810   34.1320 O   0  0  0  0  0  0  0  0  0  0  0  0
   13.8510  -59.2050   34.9310 C   0  0  1  0  0  0  0  0  0  0  0  0
   14.7310  -60.2590   34.2820 C   0  0  0  0  0  0  0  0  0  0  0  0
   15.9790  -59.5450   33.9470 C   0  0  0  0  0  0  0  0  0  0  0  0
   17.0790  -60.0730   33.6080 O   0  0  0  0  0  0  0  0  0  0  0  0
   13.9810  -59.1390   36.3280 N   0  0  0  0  0  0  0  0  0  0  0  0
   15.2340  -59.1370   36.9400 C   0  0  0  0  0  0  0  0  0  0  0  0
   15.0690  -58.4230   38.3070 C   0  0  0  0  0  0  0  0  0  0  0  0
   14.3640  -57.1710   38.0760 N   0  0  0  0  0  0  0  0  0  0  0  0
   13.0430  -57.2740   37.5060 C   0  0  0  0  0  0  0  0  0  0  0  0
   12.8550  -58.7210   37.0600 C   0  0  0  0  0  0  0  0  0  0  0  0
   14.9540  -55.9300   38.3910 C   0  0  0  0  0  0  0  0  0  0  0  0
   15.9100  -55.3910   37.5850 N   0  0  0  0  0  0  0  0  0  0  0  0
   16.4960  -54.2200   37.8240 C   0  0  0  0  0  0  0  0  0  0  0  0
   16.1430  -53.4790   38.9440 C   0  0  0  0  0  0  0  0  0  0  0  0
   15.1710  -54.0320   39.7590 C   0  0  0  0  0  0  0  0  0  0  0  0
   14.6060  -55.2140   39.4800 N   0  0  0  0  0  0  0  0  0  0  0  0
   18.5580  -54.9220   35.7510 H   0  0  0  0  0  0  0  0  0  0  0  0
   16.8020  -56.6790   35.9590 H   0  0  0  0  0  0  0  0  0  0  0  0
   17.0430  -57.3480   31.8070 H   0  0  0  0  0  0  0  0  0  0  0  0
   18.7960  -55.5990   31.5860 H   0  0  0  0  0  0  0  0  0  0  0  0
   12.8250  -59.3860   34.5670 H   0  0  0  0  0  0  0  0  0  0  0  0
   14.9760  -61.0950   34.9610 H   0  0  0  0  0  0  0  0  0  0  0  0
   14.2780  -60.6140   33.3330 H   0  0  0  0  0  0  0  0  0  0  0  0
   15.7330  -60.0900   37.1230 H   0  0  0  0  0  0  0  0  0  0  0  0
   15.9050  -58.4180   36.3820 H   0  0  0  0  0  0  0  0  0  0  0  0
   16.0520  -58.1870   38.7550 H   0  0  0  0  0  0  0  0  0  0  0  0
   14.5350  -59.0820   39.0260 H   0  0  0  0  0  0  0  0  0  0  0  0
   12.2470  -57.1030   38.2680 H   0  0  0  0  0  0  0  0  0  0  0  0
   12.8800  -56.6060   36.6440 H   0  0  0  0  0  0  0  0  0  0  0  0
   11.9120  -58.8270   36.4740 H   0  0  0  0  0  0  0  0  0  0  0  0
   12.6700  -59.3310   37.9880 H   0  0  0  0  0  0  0  0  0  0  0  0
   17.2520  -53.8150   37.1680 H   0  0  0  0  0  0  0  0  0  0  0  0
   16.6170  -52.5280   39.1420 H   0  0  0  0  0  0  0  0  0  0  0  0
   14.8950  -53.4510   40.6370 H   0  0  0  0  0  0  0  0  0  0  0  0
  1  2  1  0  0  0  0
  2  3  1  0  0  0  0
  3  4  2  0  0  0  0
  3 27  1  0  0  0  0
  4 28  1  0  0  0  0
  5  8  1  0  0  0  0
  5  4  1  0  0  0  0
  6  5  2  0  0  0  0
  7  6  1  0  0  0  0
  7  2  2  0  0  0  0
  8  9  1  0  0  0  0
  9 11  1  0  0  0  0
 10  9  2  0  0  0  0
 11 31  1  6  0  0  0
 11 15  1  0  0  0  0
 12 11  1  0  0  0  0
 12 32  1  0  0  0  0
 13  8  1  0  0  0  0
 13 12  1  0  0  0  0
 14 13  2  0  0  0  0
 15 16  1  0  0  0  0
 15 20  1  0  0  0  0
 16 34  1  0  0  0  0
 16 17  1  0  0  0  0
 17 36  1  0  0  0  0
 17 37  1  0  0  0  0
 18 17  1  0  0  0  0
 18 21  1  0  0  0  0
 19 18  1  0  0  0  0
 19 38  1  0  0  0  0
 20 19  1  0  0  0  0
 20 41  1  0  0  0  0
 21 26  1  0  0  0  0
 22 23  1  0  0  0  0
 22 21  2  0  0  0  0
 23 24  2  0  0  0  0
 24 43  1  0  0  0  0
 24 25  1  0  0  0  0
 25 44  1  0  0  0  0
 26 25  2  0  0  0  0
 29  6  1  0  0  0  0
 30  7  1  0  0  0  0
 33 12  1  0  0  0  0
 35 16  1  0  0  0  0
 39 19  1  0  0  0  0
 40 20  1  0  0  0  0
 42 23  1  0  0  0  0
M  END
>  <Pose>
1

>  <Score>
-7.00

$$$$
