
 OpenBabel03232204043D

 40 43  0  0  0  0  0  0  0  0999 V2000
   11.5760  -61.0080   36.4460 I   0  0  0  0  0  0  0  0  0  0  0  0
   10.9500  -59.8820   38.0840 C   0  0  0  0  0  0  0  0  0  0  0  0
    9.6710  -59.9480   38.6370 C   0  0  0  0  0  0  0  0  0  0  0  0
    9.6060  -59.0870   39.6540 N   0  0  0  0  0  0  0  0  0  0  0  0
   10.7700  -58.5050   39.7480 N   0  0  0  0  0  0  0  0  0  0  0  0
   11.6460  -58.9650   38.7930 C   0  0  0  0  0  0  0  0  0  0  0  0
   13.0370  -58.4850   38.6980 C   0  0  0  0  0  0  0  0  0  0  0  0
   13.9190  -59.3960   38.5260 O   0  0  0  0  0  0  0  0  0  0  0  0
   13.4250  -57.1550   38.7810 N   0  0  0  0  0  0  0  0  0  0  0  0
   14.5970  -56.5710   38.2470 C   0  0  0  0  0  0  0  0  0  0  0  0
   15.0560  -55.3940   38.8480 C   0  0  0  0  0  0  0  0  0  0  0  0
   14.5800  -54.6760   39.8790 N   0  0  0  0  0  0  0  0  0  0  0  0
   15.3610  -53.6530   40.0640 O   0  0  0  0  0  0  0  0  0  0  0  0
   16.3300  -53.6650   39.2020 N   0  0  0  0  0  0  0  0  0  0  0  0
   16.1810  -54.7450   38.4120 C   0  0  0  0  0  0  0  0  0  0  0  0
   16.8970  -55.2520   37.3490 C   0  0  0  0  0  0  0  0  0  0  0  0
   16.4380  -56.4070   36.7680 C   0  0  0  0  0  0  0  0  0  0  0  0
   15.2890  -57.0780   37.2050 C   0  0  0  0  0  0  0  0  0  0  0  0
   18.0580  -54.5660   36.9120 N   0  0  0  0  0  0  0  0  0  0  0  0
   18.2950  -54.3390   35.5010 C   0  0  0  0  0  0  0  0  0  0  0  0
   19.5350  -53.5300   35.3410 C   0  0  0  0  0  0  0  0  0  0  0  0
   19.5890  -52.4080   36.1450 O   0  0  0  0  0  0  0  0  0  0  0  0
   19.4620  -52.6440   37.4770 C   0  0  0  0  0  0  0  0  0  0  0  0
   19.0620  -54.0560   37.8250 C   0  0  0  0  0  0  0  0  0  0  0  0
    8.4200  -58.8660   40.4920 C   0  0  0  0  0  0  0  0  0  0  0  0
    8.8470  -60.5820   38.3170 H   0  0  0  0  0  0  0  0  0  0  0  0
   12.7410  -56.5180   39.3000 H   0  0  0  0  0  0  0  0  0  0  0  0
   17.0010  -56.8020   35.9360 H   0  0  0  0  0  0  0  0  0  0  0  0
   15.0260  -57.9810   36.6670 H   0  0  0  0  0  0  0  0  0  0  0  0
   17.4040  -53.8030   35.1150 H   0  0  0  0  0  0  0  0  0  0  0  0
   18.4530  -55.3070   34.9610 H   0  0  0  0  0  0  0  0  0  0  0  0
   19.6420  -53.2690   34.2690 H   0  0  0  0  0  0  0  0  0  0  0  0
   20.4030  -54.1820   35.6280 H   0  0  0  0  0  0  0  0  0  0  0  0
   20.4380  -52.4490   37.9700 H   0  0  0  0  0  0  0  0  0  0  0  0
   18.7360  -51.9250   37.9440 H   0  0  0  0  0  0  0  0  0  0  0  0
   18.5960  -54.0260   38.8320 H   0  0  0  0  0  0  0  0  0  0  0  0
   19.9300  -54.7380   37.8840 H   0  0  0  0  0  0  0  0  0  0  0  0
    7.8530  -59.8030   40.5100 H   0  0  0  0  0  0  0  0  0  0  0  0
    8.7990  -58.6690   41.5210 H   0  0  0  0  0  0  0  0  0  0  0  0
    7.8400  -58.0260   40.0760 H   0  0  0  0  0  0  0  0  0  0  0  0
  1  2  1  0  0  0  0
  2  3  2  0  0  0  0
  2  6  1  0  0  0  0
  3  4  1  0  0  0  0
  4  5  1  0  0  0  0
  4 25  1  0  0  0  0
  6  5  2  0  0  0  0
  7  9  1  0  0  0  0
  7  6  1  0  0  0  0
  8  7  2  0  0  0  0
  9 27  1  0  0  0  0
 10  9  1  0  0  0  0
 10 11  1  0  0  0  0
 11 12  2  0  0  0  0
 12 13  1  0  0  0  0
 14 13  1  0  0  0  0
 15 11  1  0  0  0  0
 15 14  2  0  0  0  0
 16 15  1  0  0  0  0
 17 18  1  0  0  0  0
 17 16  2  0  0  0  0
 18 10  2  0  0  0  0
 19 16  1  0  0  0  0
 19 24  1  0  0  0  0
 20 19  1  0  0  0  0
 21 20  1  0  0  0  0
 21 33  1  0  0  0  0
 21 22  1  0  0  0  0
 22 23  1  0  0  0  0
 23 24  1  0  0  0  0
 23 35  1  0  0  0  0
 23 34  1  0  0  0  0
 24 37  1  0  0  0  0
 24 36  1  0  0  0  0
 25 38  1  0  0  0  0
 25 39  1  0  0  0  0
 26  3  1  0  0  0  0
 28 17  1  0  0  0  0
 29 18  1  0  0  0  0
 30 20  1  0  0  0  0
 31 20  1  0  0  0  0
 32 21  1  0  0  0  0
 40 25  1  0  0  0  0
M  END
>  <Pose>
1

>  <Score>
-7.53

$$$$
