
 OpenBabel03232204043D

 35 38  0  0  1  0  0  0  0  0999 V2000
   19.1770  -53.2090   35.6900 B   0  0  0  0  0  0  0  0  0  0  0  0
   18.5770  -54.7470   34.7480 C   0  0  0  0  0  0  0  0  0  0  0  0
   17.5810  -55.5950   35.2240 C   0  0  0  0  0  0  0  0  0  0  0  0
   17.1800  -56.7050   34.4980 C   0  0  0  0  0  0  0  0  0  0  0  0
   17.7690  -56.9870   33.2820 C   0  0  0  0  0  0  0  0  0  0  0  0
   18.7480  -56.1590   32.8080 C   0  0  0  0  0  0  0  0  0  0  0  0
   19.1400  -55.0610   33.5320 C   0  0  0  0  0  0  0  0  0  0  0  0
   20.1530  -54.2560   32.9770 O   0  0  0  0  0  0  0  0  0  0  0  0
   19.5250  -56.6070   31.1100 B   0  0  0  0  0  0  0  0  0  0  0  0
   16.1970  -57.5610   34.9470 C   0  0  0  0  0  0  0  0  0  0  0  0
   15.6120  -57.2720   36.1620 C   0  0  0  0  0  0  0  0  0  0  0  0
   16.1000  -56.0770   36.8620 C   0  0  0  0  0  0  0  0  0  0  0  0
   15.4990  -55.7990   38.0900 C   0  0  1  0  0  0  0  0  0  0  0  0
   14.5110  -56.6160   38.5900 C   0  0  0  0  0  0  0  0  0  0  0  0
   13.9990  -56.3250   39.7000 O   0  0  0  0  0  0  0  0  0  0  0  0
   14.0720  -57.7420   37.9020 C   0  0  0  0  0  0  0  0  0  0  0  0
   14.6150  -58.0730   36.6950 C   0  0  0  0  0  0  0  0  0  0  0  0
   12.6940  -58.8220   38.6690 B   0  0  0  0  0  0  0  0  0  0  0  0
   16.0890  -54.2500   39.0630 B   0  0  0  0  0  0  0  0  0  0  0  0
   17.0420  -55.3020   36.3790 O   0  0  0  0  0  0  0  0  0  0  0  0
   15.7800  -58.7370   34.1820 C   0  0  0  0  0  0  0  0  0  0  0  0
   14.5070  -58.8170   33.6490 C   0  0  0  0  0  0  0  0  0  0  0  0
   14.0890  -59.9160   32.9300 C   0  0  0  0  0  0  0  0  0  0  0  0
   14.9740  -60.9580   32.7450 C   0  0  0  0  0  0  0  0  0  0  0  0
   16.2370  -60.9210   33.2520 C   0  0  0  0  0  0  0  0  0  0  0  0
   16.6370  -59.8150   33.9680 C   0  0  0  0  0  0  0  0  0  0  0  0
   17.9720  -59.7700   34.5140 C   0  0  0  0  0  0  0  0  0  0  0  0
   18.2870  -60.3720   35.5770 O   0  0  0  0  0  0  0  0  0  0  0  0
   18.9720  -59.0440   33.8710 O   0  0  0  0  0  0  0  0  0  0  0  0
   17.2980  -62.2910   32.9670 Cl  0  0  0  0  0  0  0  0  0  0  0  0
   13.3920  -57.4680   33.8980 Cl  0  0  0  0  0  0  0  0  0  0  0  0
   17.4370  -57.8740   32.7220 H   0  0  0  0  0  0  0  0  0  0  0  0
   14.3110  -58.9320   36.1200 H   0  0  0  0  0  0  0  0  0  0  0  0
   13.0730  -59.9500   32.5200 H   0  0  0  0  0  0  0  0  0  0  0  0
   14.6530  -61.8260   32.1800 H   0  0  0  0  0  0  0  0  0  0  0  0
  2  3  2  0  0  0  0
  2  1  1  0  0  0  0
  3 20  1  0  0  0  0
  4 10  2  0  0  0  0
  4  3  1  0  0  0  0
  5  4  1  0  0  0  0
  6  5  1  0  0  0  0
  6  7  2  0  0  0  0
  7  2  1  0  0  0  0
  8  7  1  0  0  0  0
  9  6  1  0  0  0  0
 10 11  1  0  0  0  0
 11 17  1  0  0  0  0
 11 12  2  0  0  0  0
 12 13  1  0  0  0  0
 13 14  1  0  0  0  0
 13 19  1  1  0  0  0
 14 15  2  0  0  0  0
 16 14  1  0  0  0  0
 16 18  1  0  0  0  0
 17 16  2  0  0  0  0
 20 12  1  0  0  0  0
 21 10  1  0  0  0  0
 22 31  1  0  0  0  0
 22 21  2  0  0  0  0
 23 22  1  0  0  0  0
 24 23  2  0  0  0  0
 24 25  1  0  0  0  0
 25 26  2  0  0  0  0
 26 21  1  0  0  0  0
 26 27  1  0  0  0  0
 27 28  1  0  0  0  0
 29 27  2  0  0  0  0
 30 25  1  0  0  0  0
 32  5  1  0  0  0  0
 33 17  1  0  0  0  0
 34 23  1  0  0  0  0
 35 24  1  0  0  0  0
M  END
>  <Pose>
1

>  <Score>
-6.82

$$$$
