
 OpenBabel03232204043D

 35 39  0  0  0  0  0  0  0  0999 V2000
   16.7150  -53.8370   39.1180 I   0  0  0  0  0  0  0  0  0  0  0  0
   15.8130  -55.4420   38.0700 C   0  0  0  0  0  0  0  0  0  0  0  0
   16.3330  -55.7210   36.7950 C   0  0  0  0  0  0  0  0  0  0  0  0
   15.7720  -56.7470   36.1020 C   0  0  0  0  0  0  0  0  0  0  0  0
   14.7140  -57.4700   36.6810 C   0  0  0  0  0  0  0  0  0  0  0  0
   14.2080  -57.1960   37.9250 C   0  0  0  0  0  0  0  0  0  0  0  0
   14.7780  -56.1570   38.6270 C   0  0  0  0  0  0  0  0  0  0  0  0
   14.2900  -55.8530   39.8890 O   0  0  0  0  0  0  0  0  0  0  0  0
   12.6110  -58.3290   38.7380 I   0  0  0  0  0  0  0  0  0  0  0  0
   16.2450  -57.1160   34.7620 C   0  0  0  0  0  0  0  0  0  0  0  0
   15.1870  -57.1590   33.8250 O   0  0  0  0  0  0  0  0  0  0  0  0
   15.0290  -58.4020   33.2710 C   0  0  0  0  0  0  0  0  0  0  0  0
   14.1910  -58.7850   32.4120 O   0  0  0  0  0  0  0  0  0  0  0  0
   16.0400  -59.2670   33.8640 C   0  0  0  0  0  0  0  0  0  0  0  0
   16.7580  -58.5210   34.7420 C   0  0  0  0  0  0  0  0  0  0  0  0
   17.7990  -59.1410   35.4430 C   0  0  0  0  0  0  0  0  0  0  0  0
   18.0760  -60.4730   35.2380 C   0  0  0  0  0  0  0  0  0  0  0  0
   17.3460  -61.2330   34.3480 C   0  0  0  0  0  0  0  0  0  0  0  0
   16.3230  -60.6350   33.6540 C   0  0  0  0  0  0  0  0  0  0  0  0
   17.3550  -56.2740   34.2840 C   0  0  0  0  0  0  0  0  0  0  0  0
   17.8720  -55.2660   35.0230 C   0  0  0  0  0  0  0  0  0  0  0  0
   18.9200  -54.5100   34.5070 C   0  0  0  0  0  0  0  0  0  0  0  0
   19.4290  -54.7780   33.2680 C   0  0  0  0  0  0  0  0  0  0  0  0
   18.9290  -55.7960   32.4890 C   0  0  0  0  0  0  0  0  0  0  0  0
   17.8980  -56.5240   33.0180 C   0  0  0  0  0  0  0  0  0  0  0  0
   19.7210  -56.2060   30.5720 I   0  0  0  0  0  0  0  0  0  0  0  0
   20.4760  -54.0090   32.7770 O   0  0  0  0  0  0  0  0  0  0  0  0
   19.7260  -52.9280   35.6760 I   0  0  0  0  0  0  0  0  0  0  0  0
   17.3860  -54.9470   36.3020 O   0  0  0  0  0  0  0  0  0  0  0  0
   14.2750  -58.2960   36.1020 H   0  0  0  0  0  0  0  0  0  0  0  0
   18.3430  -58.5140   36.1260 H   0  0  0  0  0  0  0  0  0  0  0  0
   18.8820  -60.9090   35.7950 H   0  0  0  0  0  0  0  0  0  0  0  0
   17.5520  -62.2960   34.1730 H   0  0  0  0  0  0  0  0  0  0  0  0
   15.7150  -61.1860   32.9410 H   0  0  0  0  0  0  0  0  0  0  0  0
   17.4860  -57.3290   32.4270 H   0  0  0  0  0  0  0  0  0  0  0  0
  2  7  1  0  0  0  0
  2  1  1  0  0  0  0
  3  2  2  0  0  0  0
  4  5  2  0  0  0  0
  4  3  1  0  0  0  0
  5  6  1  0  0  0  0
  6  7  2  0  0  0  0
  6  9  1  0  0  0  0
  7  8  1  0  0  0  0
 10  4  1  0  0  0  0
 11 10  1  0  0  0  0
 12 11  1  0  0  0  0
 12 14  1  0  0  0  0
 13 12  2  0  0  0  0
 14 15  1  0  0  0  0
 15 10  1  0  0  0  0
 15 16  2  0  0  0  0
 16 31  1  0  0  0  0
 17 16  1  0  0  0  0
 17 32  1  0  0  0  0
 18 17  2  0  0  0  0
 19 14  2  0  0  0  0
 19 18  1  0  0  0  0
 20 10  1  0  0  0  0
 20 21  1  0  0  0  0
 21 29  1  0  0  0  0
 22 21  2  0  0  0  0
 22 28  1  0  0  0  0
 23 22  1  0  0  0  0
 24 25  1  0  0  0  0
 24 23  2  0  0  0  0
 25 20  2  0  0  0  0
 26 24  1  0  0  0  0
 27 23  1  0  0  0  0
 29  3  1  0  0  0  0
 30  5  1  0  0  0  0
 33 18  1  0  0  0  0
 34 19  1  0  0  0  0
 35 25  1  0  0  0  0
M  END
>  <Pose>
1

>  <Score>
-6.11

$$$$
