
 OpenBabel03232204043D

 34 37  0  0  1  0  0  0  0  0999 V2000
   19.9530  -53.8670   34.7400 P   0  0  1  0  0  0  0  0  0  0  0  0
   20.9560  -54.7200   35.4840 O   0  0  0  0  0  0  0  0  0  0  0  0
   18.4950  -54.7180   34.4860 O   0  0  0  0  0  0  0  0  0  0  0  0
   17.5440  -54.1160   35.3050 C   0  0  2  0  0  0  0  0  0  0  0  0
   18.2650  -53.7980   36.6210 C   0  0  2  0  0  0  0  0  0  0  0  0
   17.2570  -53.9700   37.5380 O   0  0  0  0  0  0  0  0  0  0  0  0
   16.8170  -55.2550   37.2260 C   0  0  2  0  0  0  0  0  0  0  0  0
   16.4700  -55.0870   35.7470 C   0  0  2  0  0  0  0  0  0  0  0  0
   16.4920  -56.2740   35.0600 O   0  0  0  0  0  0  0  0  0  0  0  0
   15.6660  -55.6400   38.0050 N   0  0  0  0  0  0  0  0  0  0  0  0
   15.0010  -56.7860   37.8200 C   0  0  0  0  0  0  0  0  0  0  0  0
   15.1870  -57.8130   36.9460 N   0  0  0  0  0  0  0  0  0  0  0  0
   14.4090  -58.8910   36.9100 C   0  0  0  0  0  0  0  0  0  0  0  0
   13.3860  -58.9720   37.7800 N   0  0  0  0  0  0  0  0  0  0  0  0
   13.1450  -57.9910   38.6740 C   0  0  0  0  0  0  0  0  0  0  0  0
   13.9500  -56.8720   38.7130 C   0  0  0  0  0  0  0  0  0  0  0  0
   13.9960  -55.7490   39.4440 N   0  0  0  0  0  0  0  0  0  0  0  0
   15.0400  -55.0030   39.0100 C   0  0  0  0  0  0  0  0  0  0  0  0
   15.5700  -53.2970   39.7020 B   0  0  0  0  0  0  0  0  0  0  0  0
   12.0880  -58.0710   39.5770 O   0  0  0  0  0  0  0  0  0  0  0  0
   14.6440  -59.9400   35.9750 N   0  0  0  0  0  0  0  0  0  0  0  0
   18.8140  -52.4250   36.5270 C   0  0  0  0  0  0  0  0  0  0  0  0
   19.7020  -52.3780   35.4470 O   0  0  0  0  0  0  0  0  0  0  0  0
   20.6140  -53.6120   33.1820 O   0  0  0  0  0  0  0  0  0  0  0  0
   17.1280  -53.2010   34.8480 H   0  0  0  0  0  0  0  0  0  0  0  0
   19.0490  -54.5490   36.8260 H   0  0  0  0  0  0  0  0  0  0  0  0
   17.6380  -56.0060   37.2590 H   0  0  0  0  0  0  0  0  0  0  0  0
   15.4590  -54.5890   35.6950 H   0  0  0  0  0  0  0  0  0  0  0  0
   15.5550  -56.6390   34.9750 H   0  0  0  0  0  0  0  0  0  0  0  0
   11.2520  -57.5160   39.3400 H   0  0  0  0  0  0  0  0  0  0  0  0
   14.7600  -59.6580   34.9780 H   0  0  0  0  0  0  0  0  0  0  0  0
   14.6990  -60.9490   36.2620 H   0  0  0  0  0  0  0  0  0  0  0  0
   17.9850  -51.7190   36.2630 H   0  0  0  0  0  0  0  0  0  0  0  0
   19.2930  -52.1210   37.4760 H   0  0  0  0  0  0  0  0  0  0  0  0
  1 24  2  6  0  0  0
  1 23  1  0  0  0  0
  1  2  1  0  0  0  0
  3  1  1  0  0  0  0
  3  4  1  0  0  0  0
  4 25  1  6  0  0  0
  4  8  1  0  0  0  0
  4  5  1  0  0  0  0
  5 26  1  1  0  0  0
  5  6  1  0  0  0  0
  7 27  1  1  0  0  0
  7  6  1  0  0  0  0
  7 10  1  0  0  0  0
  8 28  1  6  0  0  0
  8  7  1  0  0  0  0
  9  8  1  0  0  0  0
 10 18  1  0  0  0  0
 11 10  1  0  0  0  0
 11 16  2  0  0  0  0
 12 11  1  0  0  0  0
 13 12  2  0  0  0  0
 13 14  1  0  0  0  0
 14 15  2  0  0  0  0
 15 16  1  0  0  0  0
 15 20  1  0  0  0  0
 16 17  1  0  0  0  0
 18 17  2  0  0  0  0
 18 19  1  0  0  0  0
 21 32  1  0  0  0  0
 21 13  1  0  0  0  0
 22  5  1  0  0  0  0
 22 34  1  0  0  0  0
 23 22  1  0  0  0  0
 29  9  1  0  0  0  0
 30 20  1  0  0  0  0
 31 21  1  0  0  0  0
 33 22  1  0  0  0  0
M  END
>  <Pose>
1

>  <Score>
-7.30

$$$$
