
 OpenBabel03232204043D

 33 36  0  0  1  0  0  0  0  0999 V2000
   12.4560  -60.2240   35.8270 P   0  0  2  0  0  0  0  0  0  0  0  0
   11.2940  -60.4450   34.8580 O   0  0  0  0  0  0  0  0  0  0  0  0
   12.2320  -58.7260   36.5510 O   0  0  0  0  0  0  0  0  0  0  0  0
   13.3830  -57.9820   36.5540 C   0  0  2  0  0  0  0  0  0  0  0  0
   14.5450  -58.9720   36.7130 C   0  0  2  0  0  0  0  0  0  0  0  0
   15.5490  -58.2870   37.3300 O   0  0  0  0  0  0  0  0  0  0  0  0
   15.0300  -57.2510   38.0570 C   0  0  2  0  0  0  0  0  0  0  0  0
   13.5700  -57.1390   37.7870 C   0  0  2  0  0  0  0  0  0  0  0  0
   12.7750  -57.6060   38.8150 O   0  0  0  0  0  0  0  0  0  0  0  0
   15.7650  -56.0450   37.6980 N   0  0  0  0  0  0  0  0  0  0  0  0
   15.7460  -54.8740   38.3770 C   0  0  0  0  0  0  0  0  0  0  0  0
   15.0930  -54.5150   39.4960 N   0  0  0  0  0  0  0  0  0  0  0  0
   15.2450  -53.2700   39.9760 C   0  0  0  0  0  0  0  0  0  0  0  0
   16.0450  -52.3980   39.3360 N   0  0  0  0  0  0  0  0  0  0  0  0
   16.7270  -52.6870   38.2170 C   0  0  0  0  0  0  0  0  0  0  0  0
   16.5660  -53.9790   37.7230 C   0  0  0  0  0  0  0  0  0  0  0  0
   17.0780  -54.5950   36.6610 N   0  0  0  0  0  0  0  0  0  0  0  0
   16.5850  -55.8460   36.6540 C   0  0  0  0  0  0  0  0  0  0  0  0
   16.9600  -57.2260   35.3600 B   0  0  0  0  0  0  0  0  0  0  0  0
   17.5750  -51.7760   37.5330 N   0  0  0  0  0  0  0  0  0  0  0  0
   14.8580  -59.4680   35.3380 C   0  0  0  0  0  0  0  0  0  0  0  0
   13.8690  -60.3380   34.9470 O   0  0  0  0  0  0  0  0  0  0  0  0
   12.3260  -61.4670   36.9950 O   0  0  0  0  0  0  0  0  0  0  0  0
   13.5310  -57.3620   35.6650 H   0  0  0  0  0  0  0  0  0  0  0  0
   14.2440  -59.8260   37.3580 H   0  0  0  0  0  0  0  0  0  0  0  0
   15.1460  -57.4620   39.1590 H   0  0  0  0  0  0  0  0  0  0  0  0
   13.2920  -56.0810   37.5980 H   0  0  0  0  0  0  0  0  0  0  0  0
   12.1080  -56.9690   39.1180 H   0  0  0  0  0  0  0  0  0  0  0  0
   14.7180  -52.9520   40.8930 H   0  0  0  0  0  0  0  0  0  0  0  0
   18.2940  -51.2420   38.1060 H   0  0  0  0  0  0  0  0  0  0  0  0
   17.5440  -51.5980   36.5250 H   0  0  0  0  0  0  0  0  0  0  0  0
   14.7990  -58.5800   34.6420 H   0  0  0  0  0  0  0  0  0  0  0  0
   15.8800  -59.8590   35.2230 H   0  0  0  0  0  0  0  0  0  0  0  0
  1  2  2  6  0  0  0
  1  3  1  0  0  0  0
  1 23  1  0  0  0  0
  3  4  1  0  0  0  0
  4 24  1  6  0  0  0
  4  5  1  0  0  0  0
  4  8  1  0  0  0  0
  5  6  1  0  0  0  0
  5 25  1  1  0  0  0
  6  7  1  0  0  0  0
  7 26  1  1  0  0  0
  8 27  1  6  0  0  0
  8  7  1  0  0  0  0
  8  9  1  0  0  0  0
  9 28  1  0  0  0  0
 10  7  1  0  0  0  0
 10 11  1  0  0  0  0
 11 12  1  0  0  0  0
 12 13  2  0  0  0  0
 13 29  1  0  0  0  0
 14 13  1  0  0  0  0
 15 14  2  0  0  0  0
 16 15  1  0  0  0  0
 16 11  2  0  0  0  0
 17 16  1  0  0  0  0
 18 17  2  0  0  0  0
 18 10  1  0  0  0  0
 19 18  1  0  0  0  0
 20 30  1  0  0  0  0
 20 15  1  0  0  0  0
 21  5  1  0  0  0  0
 22 21  1  0  0  0  0
 22  1  1  0  0  0  0
 31 20  1  0  0  0  0
 32 21  1  0  0  0  0
 33 21  1  0  0  0  0
M  END
>  <Pose>
1

>  <Score>
-6.91

$$$$
