
 OpenBabel03232204043D

 60 64  0  0  0  0  0  0  0  0999 V2000
   15.3320  -57.6020   37.6460 S   0  0  0  0  0  0  0  0  0  0  0  0
   15.9140  -58.9290   37.9480 O   0  0  0  0  0  0  0  0  0  0  0  0
   15.3250  -56.8620   38.9890 O   0  0  0  0  0  0  0  0  0  0  0  0
   13.6780  -57.6590   37.1780 N   0  0  0  0  0  0  0  0  0  0  0  0
   12.7660  -57.3110   38.2130 C   0  0  0  0  0  0  0  0  0  0  0  0
   12.3450  -58.4790   39.0940 C   0  0  0  0  0  0  0  0  0  0  0  0
   11.8910  -59.5430   38.2620 N   0  0  0  0  0  0  0  0  0  0  0  0
   12.9600  -60.0160   37.3240 C   0  0  0  0  0  0  0  0  0  0  0  0
   13.3240  -58.8460   36.4760 C   0  0  0  0  0  0  0  0  0  0  0  0
   10.6740  -60.1880   38.1760 C   0  0  0  0  0  0  0  0  0  0  0  0
   10.6830  -61.2960   37.4610 O   0  0  0  0  0  0  0  0  0  0  0  0
    9.3900  -59.8700   38.7290 C   0  0  0  0  0  0  0  0  0  0  0  0
    9.3040  -59.1740   39.9620 N   0  0  0  0  0  0  0  0  0  0  0  0
   10.1400  -59.2400   40.9960 N   0  0  0  0  0  0  0  0  0  0  0  0
    9.7570  -58.4090   41.9740 C   0  0  0  0  0  0  0  0  0  0  0  0
    8.6160  -57.7930   41.5200 C   0  0  0  0  0  0  0  0  0  0  0  0
    8.3390  -58.2690   40.2740 C   0  0  0  0  0  0  0  0  0  0  0  0
    7.5830  -56.4810   42.4760 B   0  0  0  0  0  0  0  0  0  0  0  0
   16.2810  -56.6110   36.5820 C   0  0  0  0  0  0  0  0  0  0  0  0
   16.9260  -55.4470   37.0240 C   0  0  0  0  0  0  0  0  0  0  0  0
   17.6760  -54.6630   36.1710 C   0  0  0  0  0  0  0  0  0  0  0  0
   17.8220  -54.9960   34.8400 C   0  0  0  0  0  0  0  0  0  0  0  0
   17.1940  -56.1290   34.4010 C   0  0  0  0  0  0  0  0  0  0  0  0
   16.4420  -56.9100   35.2720 C   0  0  0  0  0  0  0  0  0  0  0  0
   15.8180  -58.0910   34.6520 C   0  0  0  0  0  0  0  0  0  0  0  0
   16.8250  -58.8660   33.8320 C   0  0  0  0  0  0  0  0  0  0  0  0
   17.6320  -57.9980   33.0610 N   0  0  0  0  0  0  0  0  0  0  0  0
   17.2580  -56.6200   33.0060 C   0  0  0  0  0  0  0  0  0  0  0  0
   19.0280  -58.2570   33.0500 C   0  0  0  0  0  0  0  0  0  0  0  0
   18.5860  -54.1990   33.9630 O   0  0  0  0  0  0  0  0  0  0  0  0
   19.9290  -53.8600   34.3390 C   0  0  0  0  0  0  0  0  0  0  0  0
   18.1700  -53.6070   36.9070 O   0  0  0  0  0  0  0  0  0  0  0  0
   17.6190  -53.6530   38.1930 C   0  0  0  0  0  0  0  0  0  0  0  0
   16.9410  -54.8950   38.3010 O   0  0  0  0  0  0  0  0  0  0  0  0
   13.2270  -56.5530   38.8760 H   0  0  0  0  0  0  0  0  0  0  0  0
   11.8380  -56.8950   37.7720 H   0  0  0  0  0  0  0  0  0  0  0  0
   11.6680  -58.0790   39.8330 H   0  0  0  0  0  0  0  0  0  0  0  0
   13.2260  -58.8760   39.6610 H   0  0  0  0  0  0  0  0  0  0  0  0
   12.5600  -60.8130   36.6720 H   0  0  0  0  0  0  0  0  0  0  0  0
   13.8190  -60.3940   37.8770 H   0  0  0  0  0  0  0  0  0  0  0  0
   14.1180  -59.1410   35.7650 H   0  0  0  0  0  0  0  0  0  0  0  0
   12.4310  -58.6060   35.8380 H   0  0  0  0  0  0  0  0  0  0  0  0
    8.7480  -60.8200   38.8610 H   0  0  0  0  0  0  0  0  0  0  0  0
    8.7700  -59.3210   37.9280 H   0  0  0  0  0  0  0  0  0  0  0  0
   10.2590  -58.2600   42.9360 H   0  0  0  0  0  0  0  0  0  0  0  0
    7.5090  -57.9760   39.6640 H   0  0  0  0  0  0  0  0  0  0  0  0
   15.1870  -58.7010   35.2850 H   0  0  0  0  0  0  0  0  0  0  0  0
   15.1090  -57.6600   33.8730 H   0  0  0  0  0  0  0  0  0  0  0  0
   17.4940  -59.3740   34.5840 H   0  0  0  0  0  0  0  0  0  0  0  0
   16.3380  -59.6790   33.2520 H   0  0  0  0  0  0  0  0  0  0  0  0
   18.0100  -56.0710   32.4130 H   0  0  0  0  0  0  0  0  0  0  0  0
   16.2650  -56.4520   32.5360 H   0  0  0  0  0  0  0  0  0  0  0  0
   19.4810  -58.2930   32.0380 H   0  0  0  0  0  0  0  0  0  0  0  0
   19.2140  -59.2050   33.6140 H   0  0  0  0  0  0  0  0  0  0  0  0
   19.5580  -57.4670   33.6310 H   0  0  0  0  0  0  0  0  0  0  0  0
   20.1590  -54.2420   35.3550 H   0  0  0  0  0  0  0  0  0  0  0  0
   20.0520  -52.7610   34.3640 H   0  0  0  0  0  0  0  0  0  0  0  0
   20.6540  -54.2280   33.5700 H   0  0  0  0  0  0  0  0  0  0  0  0
   16.9530  -52.8110   38.4290 H   0  0  0  0  0  0  0  0  0  0  0  0
   18.4840  -53.7170   38.9090 H   0  0  0  0  0  0  0  0  0  0  0  0
  1  2  2  0  0  0  0
  1  3  2  0  0  0  0
  4  1  1  0  0  0  0
  4  5  1  0  0  0  0
  5 35  1  0  0  0  0
  5  6  1  0  0  0  0
  6 38  1  0  0  0  0
  6 37  1  0  0  0  0
  7  6  1  0  0  0  0
  8 40  1  0  0  0  0
  8  7  1  0  0  0  0
  9  4  1  0  0  0  0
  9  8  1  0  0  0  0
 10  7  1  0  0  0  0
 10 12  1  0  0  0  0
 11 10  2  0  0  0  0
 12 43  1  0  0  0  0
 12 13  1  0  0  0  0
 13 17  1  0  0  0  0
 13 14  1  0  0  0  0
 14 15  2  0  0  0  0
 15 45  1  0  0  0  0
 16 15  1  0  0  0  0
 16 18  1  0  0  0  0
 17 16  2  0  0  0  0
 19 20  1  0  0  0  0
 19  1  1  0  0  0  0
 20 34  1  0  0  0  0
 21 32  1  0  0  0  0
 21 20  2  0  0  0  0
 22 21  1  0  0  0  0
 23 22  2  0  0  0  0
 23 24  1  0  0  0  0
 24 19  2  0  0  0  0
 25 24  1  0  0  0  0
 25 47  1  0  0  0  0
 26 49  1  0  0  0  0
 26 25  1  0  0  0  0
 27 26  1  0  0  0  0
 28 27  1  0  0  0  0
 28 23  1  0  0  0  0
 29 27  1  0  0  0  0
 29 54  1  0  0  0  0
 29 55  1  0  0  0  0
 30 31  1  0  0  0  0
 30 22  1  0  0  0  0
 31 57  1  0  0  0  0
 31 56  1  0  0  0  0
 32 33  1  0  0  0  0
 33 34  1  0  0  0  0
 33 59  1  0  0  0  0
 33 60  1  0  0  0  0
 36  5  1  0  0  0  0
 39  8  1  0  0  0  0
 41  9  1  0  0  0  0
 42  9  1  0  0  0  0
 44 12  1  0  0  0  0
 46 17  1  0  0  0  0
 48 25  1  0  0  0  0
 50 26  1  0  0  0  0
 51 28  1  0  0  0  0
 52 28  1  0  0  0  0
 53 29  1  0  0  0  0
 58 31  1  0  0  0  0
M  END
>  <Pose>
1

>  <Score>
-7.11

$$$$
