
 OpenBabel03232204043D

 53 56  0  0  0  0  0  0  0  0999 V2000
   14.8620  -56.0670   38.8710 S   0  0  0  0  0  0  0  0  0  0  0  0
   15.5040  -56.9580   39.9200 O   0  0  0  0  0  0  0  0  0  0  0  0
   13.5890  -55.5530   39.4950 O   0  0  0  0  0  0  0  0  0  0  0  0
   14.4750  -57.0630   37.5400 N   0  0  0  0  0  0  0  0  0  0  0  0
   15.6410  -57.5270   36.8180 C   0  0  0  0  0  0  0  0  0  0  0  0
   15.5010  -58.9780   36.4310 C   0  0  0  0  0  0  0  0  0  0  0  0
   14.2010  -59.1150   35.7410 N   0  0  0  0  0  0  0  0  0  0  0  0
   13.0640  -58.6720   36.4860 C   0  0  0  0  0  0  0  0  0  0  0  0
   13.5860  -58.1300   37.8380 C   0  0  0  0  0  0  0  0  0  0  0  0
   14.1330  -59.6420   34.4440 C   0  0  0  0  0  0  0  0  0  0  0  0
   13.2080  -60.5660   34.2770 O   0  0  0  0  0  0  0  0  0  0  0  0
   14.8790  -59.3770   33.2400 C   0  0  0  0  0  0  0  0  0  0  0  0
   15.8620  -60.3050   32.7780 N   0  0  0  0  0  0  0  0  0  0  0  0
   17.2650  -60.3610   33.1430 C   0  0  0  0  0  0  0  0  0  0  0  0
   17.7870  -59.5600   33.9670 O   0  0  0  0  0  0  0  0  0  0  0  0
   17.8580  -61.4300   32.4230 N   0  0  0  0  0  0  0  0  0  0  0  0
   16.9950  -61.7390   31.3340 C   0  0  0  0  0  0  0  0  0  0  0  0
   17.3680  -61.0320   30.0530 C   0  0  0  0  0  0  0  0  0  0  0  0
   16.5250  -61.7820   29.0390 C   0  0  0  0  0  0  0  0  0  0  0  0
   16.3440  -63.1740   29.5940 C   0  0  0  0  0  0  0  0  0  0  0  0
   17.0750  -63.1970   30.9160 C   0  0  0  0  0  0  0  0  0  0  0  0
   15.6680  -61.3730   31.8270 C   0  0  0  0  0  0  0  0  0  0  0  0
   14.5540  -61.8650   31.5110 O   0  0  0  0  0  0  0  0  0  0  0  0
   15.9120  -54.7350   38.4520 C   0  0  0  0  0  0  0  0  0  0  0  0
   16.7840  -54.7940   37.3830 C   0  0  0  0  0  0  0  0  0  0  0  0
   17.6150  -53.7290   37.0570 C   0  0  0  0  0  0  0  0  0  0  0  0
   17.5950  -52.5740   37.7950 C   0  0  0  0  0  0  0  0  0  0  0  0
   16.7290  -52.5010   38.8660 C   0  0  0  0  0  0  0  0  0  0  0  0
   15.9020  -53.5680   39.1850 C   0  0  0  0  0  0  0  0  0  0  0  0
   18.7440  -51.0930   37.3510 B   0  0  0  0  0  0  0  0  0  0  0  0
   15.6450  -56.9500   35.8480 H   0  0  0  0  0  0  0  0  0  0  0  0
   16.5720  -57.3470   37.3860 H   0  0  0  0  0  0  0  0  0  0  0  0
   15.5820  -59.5990   37.3190 H   0  0  0  0  0  0  0  0  0  0  0  0
   16.3270  -59.2270   35.7300 H   0  0  0  0  0  0  0  0  0  0  0  0
   12.3000  -59.4320   36.6820 H   0  0  0  0  0  0  0  0  0  0  0  0
   12.6150  -57.7850   35.9470 H   0  0  0  0  0  0  0  0  0  0  0  0
   13.9890  -58.9880   38.3700 H   0  0  0  0  0  0  0  0  0  0  0  0
   12.7220  -57.7460   38.4280 H   0  0  0  0  0  0  0  0  0  0  0  0
   15.4180  -58.3630   33.3380 H   0  0  0  0  0  0  0  0  0  0  0  0
   14.1860  -59.1780   32.3530 H   0  0  0  0  0  0  0  0  0  0  0  0
   18.7780  -61.8640   32.7080 H   0  0  0  0  0  0  0  0  0  0  0  0
   18.4280  -61.2660   29.8390 H   0  0  0  0  0  0  0  0  0  0  0  0
   17.1550  -59.9610   30.0740 H   0  0  0  0  0  0  0  0  0  0  0  0
   17.0120  -61.8410   28.0470 H   0  0  0  0  0  0  0  0  0  0  0  0
   15.5600  -61.2330   28.9760 H   0  0  0  0  0  0  0  0  0  0  0  0
   16.7160  -63.9500   28.8960 H   0  0  0  0  0  0  0  0  0  0  0  0
   15.2610  -63.3070   29.8160 H   0  0  0  0  0  0  0  0  0  0  0  0
   18.1700  -63.4070   30.7760 H   0  0  0  0  0  0  0  0  0  0  0  0
   16.6190  -63.8690   31.6510 H   0  0  0  0  0  0  0  0  0  0  0  0
   16.8020  -55.6990   36.8010 H   0  0  0  0  0  0  0  0  0  0  0  0
   18.3040  -53.7630   36.2230 H   0  0  0  0  0  0  0  0  0  0  0  0
   16.7310  -51.5730   39.4350 H   0  0  0  0  0  0  0  0  0  0  0  0
   15.2270  -53.4650   40.0480 H   0  0  0  0  0  0  0  0  0  0  0  0
  1  3  2  0  0  0  0
  1  2  2  0  0  0  0
  4  9  1  0  0  0  0
  4  1  1  0  0  0  0
  5 32  1  0  0  0  0
  5  4  1  0  0  0  0
  6  5  1  0  0  0  0
  6 33  1  0  0  0  0
  7  6  1  0  0  0  0
  7  8  1  0  0  0  0
  8 35  1  0  0  0  0
  8  9  1  0  0  0  0
  9 37  1  0  0  0  0
  9 38  1  0  0  0  0
 10  7  1  0  0  0  0
 11 10  2  0  0  0  0
 12 39  1  0  0  0  0
 12 10  1  0  0  0  0
 13 14  1  0  0  0  0
 13 12  1  0  0  0  0
 14 15  2  0  0  0  0
 16 41  1  0  0  0  0
 16 14  1  0  0  0  0
 17 22  1  0  0  0  0
 17 16  1  0  0  0  0
 18 43  1  0  0  0  0
 18 17  1  0  0  0  0
 19 20  1  0  0  0  0
 19 18  1  0  0  0  0
 20 47  1  0  0  0  0
 20 21  1  0  0  0  0
 21 17  1  0  0  0  0
 21 49  1  0  0  0  0
 22 13  1  0  0  0  0
 23 22  2  0  0  0  0
 24  1  1  0  0  0  0
 24 29  1  0  0  0  0
 25 24  2  0  0  0  0
 26 25  1  0  0  0  0
 26 27  2  0  0  0  0
 27 28  1  0  0  0  0
 28 29  2  0  0  0  0
 28 52  1  0  0  0  0
 29 53  1  0  0  0  0
 30 27  1  0  0  0  0
 31  5  1  0  0  0  0
 34  6  1  0  0  0  0
 36  8  1  0  0  0  0
 40 12  1  0  0  0  0
 42 18  1  0  0  0  0
 44 19  1  0  0  0  0
 45 19  1  0  0  0  0
 46 20  1  0  0  0  0
 48 21  1  0  0  0  0
 50 25  1  0  0  0  0
 51 26  1  0  0  0  0
M  END
>  <Pose>
1

>  <Score>
-7.51

$$$$
