
 OpenBabel03232204043D

 47 50  0  0  0  0  0  0  0  0999 V2000
   16.5620  -59.3830   33.1780 S   0  0  0  0  0  0  0  0  0  0  0  0
   16.6330  -59.8220   31.7680 O   0  0  0  0  0  0  0  0  0  0  0  0
   17.6680  -60.1170   33.9270 O   0  0  0  0  0  0  0  0  0  0  0  0
   16.8010  -57.7250   33.4100 N   0  0  0  0  0  0  0  0  0  0  0  0
   18.0160  -57.1800   32.9920 C   0  0  0  0  0  0  0  0  0  0  0  0
   18.4650  -55.9350   33.6710 C   0  0  0  0  0  0  0  0  0  0  0  0
   17.9640  -55.7630   34.9980 N   0  0  0  0  0  0  0  0  0  0  0  0
   17.1010  -56.7780   35.5600 C   0  0  0  0  0  0  0  0  0  0  0  0
   16.0940  -57.1160   34.4610 C   0  0  0  0  0  0  0  0  0  0  0  0
   18.2800  -54.6310   35.7880 C   0  0  0  0  0  0  0  0  0  0  0  0
   19.3020  -53.9190   35.5250 O   0  0  0  0  0  0  0  0  0  0  0  0
   17.4820  -54.2090   36.9310 C   0  0  0  0  0  0  0  0  0  0  0  0
   17.6980  -53.0080   37.5820 C   0  0  0  0  0  0  0  0  0  0  0  0
   16.9510  -52.5990   38.6620 C   0  0  0  0  0  0  0  0  0  0  0  0
   15.9390  -53.4360   39.1070 C   0  0  0  0  0  0  0  0  0  0  0  0
   15.6780  -54.6410   38.4980 C   0  0  0  0  0  0  0  0  0  0  0  0
   16.4560  -55.0050   37.4210 C   0  0  0  0  0  0  0  0  0  0  0  0
   19.1090  -51.9070   36.9140 B   0  0  0  0  0  0  0  0  0  0  0  0
   15.0600  -59.8940   33.9380 C   0  0  0  0  0  0  0  0  0  0  0  0
   14.8990  -59.8630   35.3080 C   0  0  0  0  0  0  0  0  0  0  0  0
   13.7340  -60.2560   35.9350 C   0  0  0  0  0  0  0  0  0  0  0  0
   12.6620  -60.7070   35.1920 C   0  0  0  0  0  0  0  0  0  0  0  0
   12.8190  -60.7390   33.8150 C   0  0  0  0  0  0  0  0  0  0  0  0
   13.9870  -60.3440   33.1960 C   0  0  0  0  0  0  0  0  0  0  0  0
   11.4720  -61.1110   35.7950 O   0  0  0  0  0  0  0  0  0  0  0  0
   11.3250  -61.3420   37.1830 C   0  0  0  0  0  0  0  0  0  0  0  0
   12.3590  -60.6360   37.9810 C   0  0  0  0  0  0  0  0  0  0  0  0
   12.1090  -60.4330   39.1960 O   0  0  0  0  0  0  0  0  0  0  0  0
   13.5650  -60.2270   37.3460 N   0  0  0  0  0  0  0  0  0  0  0  0
   17.9600  -56.9720   31.8840 H   0  0  0  0  0  0  0  0  0  0  0  0
   18.8170  -57.9710   33.0850 H   0  0  0  0  0  0  0  0  0  0  0  0
   18.2670  -55.0490   33.0190 H   0  0  0  0  0  0  0  0  0  0  0  0
   19.5920  -55.9640   33.7540 H   0  0  0  0  0  0  0  0  0  0  0  0
   16.5880  -56.4280   36.4770 H   0  0  0  0  0  0  0  0  0  0  0  0
   17.6720  -57.6850   35.7910 H   0  0  0  0  0  0  0  0  0  0  0  0
   15.3520  -57.7780   34.9190 H   0  0  0  0  0  0  0  0  0  0  0  0
   15.6510  -56.1520   34.1040 H   0  0  0  0  0  0  0  0  0  0  0  0
   17.1340  -51.6410   39.1700 H   0  0  0  0  0  0  0  0  0  0  0  0
   15.3530  -53.0980   39.9650 H   0  0  0  0  0  0  0  0  0  0  0  0
   14.8730  -55.2800   38.8720 H   0  0  0  0  0  0  0  0  0  0  0  0
   16.2570  -55.9500   36.9390 H   0  0  0  0  0  0  0  0  0  0  0  0
   15.7290  -59.5140   35.9020 H   0  0  0  0  0  0  0  0  0  0  0  0
   11.9780  -61.0930   33.2280 H   0  0  0  0  0  0  0  0  0  0  0  0
   14.1070  -60.3700   32.1270 H   0  0  0  0  0  0  0  0  0  0  0  0
   11.4170  -62.4390   37.4120 H   0  0  0  0  0  0  0  0  0  0  0  0
   10.2970  -61.0540   37.4790 H   0  0  0  0  0  0  0  0  0  0  0  0
   14.3650  -59.8890   37.9210 H   0  0  0  0  0  0  0  0  0  0  0  0
  1  4  1  0  0  0  0
  1  3  2  0  0  0  0
  1 19  1  0  0  0  0
  2  1  2  0  0  0  0
  4  9  1  0  0  0  0
  5 31  1  0  0  0  0
  5  4  1  0  0  0  0
  5  6  1  0  0  0  0
  6 33  1  0  0  0  0
  6  7  1  0  0  0  0
  7  8  1  0  0  0  0
  7 10  1  0  0  0  0
  8 35  1  0  0  0  0
  8 34  1  0  0  0  0
  9 36  1  0  0  0  0
  9  8  1  0  0  0  0
 10 12  1  0  0  0  0
 11 10  2  0  0  0  0
 12 17  2  0  0  0  0
 12 13  1  0  0  0  0
 13 14  2  0  0  0  0
 14 15  1  0  0  0  0
 14 38  1  0  0  0  0
 15 39  1  0  0  0  0
 16 40  1  0  0  0  0
 16 15  2  0  0  0  0
 17 16  1  0  0  0  0
 18 13  1  0  0  0  0
 19 20  1  0  0  0  0
 20 42  1  0  0  0  0
 20 21  2  0  0  0  0
 21 29  1  0  0  0  0
 22 25  1  0  0  0  0
 22 21  1  0  0  0  0
 23 22  2  0  0  0  0
 24 23  1  0  0  0  0
 24 19  2  0  0  0  0
 25 26  1  0  0  0  0
 26 45  1  0  0  0  0
 26 46  1  0  0  0  0
 26 27  1  0  0  0  0
 27 28  2  0  0  0  0
 29 47  1  0  0  0  0
 29 27  1  0  0  0  0
 30  5  1  0  0  0  0
 32  6  1  0  0  0  0
 37  9  1  0  0  0  0
 41 17  1  0  0  0  0
 43 23  1  0  0  0  0
 44 24  1  0  0  0  0
M  END
>  <Pose>
1

>  <Score>
-6.07

$$$$
