
 OpenBabel03232204043D

 49 52  0  0  1  0  0  0  0  0999 V2000
   13.3630  -58.8560   34.7750 S   0  0  0  0  0  0  0  0  0  0  0  0
   12.1910  -59.7090   34.4390 O   0  0  0  0  0  0  0  0  0  0  0  0
   12.9920  -57.4140   34.5260 O   0  0  0  0  0  0  0  0  0  0  0  0
   13.7760  -59.0290   36.4060 N   0  0  0  0  0  0  0  0  0  0  0  0
   12.7930  -58.6510   37.3480 C   0  0  0  0  0  0  0  0  0  0  0  0
   12.9660  -57.3520   38.0210 C   0  0  0  0  0  0  0  0  0  0  0  0
   14.3360  -57.0880   38.3420 N   0  0  0  0  0  0  0  0  0  0  0  0
   15.3300  -58.0830   38.0570 C   0  0  0  0  0  0  0  0  0  0  0  0
   15.1290  -58.7730   36.7430 C   0  0  0  0  0  0  0  0  0  0  0  0
   14.7170  -55.8660   38.9310 C   0  0  0  0  0  0  0  0  0  0  0  0
   14.1210  -55.4790   39.9620 O   0  0  0  0  0  0  0  0  0  0  0  0
   15.7740  -55.0100   38.4100 C   0  0  1  0  0  0  0  0  0  0  0  0
   16.1200  -53.8540   39.0850 C   0  0  0  0  0  0  0  0  0  0  0  0
   17.0940  -53.0650   38.6060 N   0  0  0  0  0  0  0  0  0  0  0  0
   17.7690  -53.3530   37.4720 C   0  0  1  0  0  0  0  0  0  0  0  0
   17.4580  -54.4700   36.7910 N   0  0  0  0  0  0  0  0  0  0  0  0
   18.1360  -54.7650   35.6460 C   0  0  0  0  0  0  0  0  0  0  0  0
   19.1360  -53.9480   35.1610 C   0  0  0  0  0  0  0  0  0  0  0  0
   19.4740  -52.7920   35.8450 C   0  0  0  0  0  0  0  0  0  0  0  0
   18.7740  -52.5170   36.9990 C   0  0  0  0  0  0  0  0  0  0  0  0
   19.8960  -54.2350   33.9190 C   0  0  0  0  0  0  0  0  0  0  0  0
   16.4750  -55.2870   37.2530 C   0  0  0  0  0  0  0  0  0  0  0  0
   16.1890  -56.3170   36.6240 O   0  0  0  0  0  0  0  0  0  0  0  0
   14.7300  -59.2470   33.7650 C   0  0  0  0  0  0  0  0  0  0  0  0
   15.8900  -58.5060   33.8500 C   0  0  0  0  0  0  0  0  0  0  0  0
   16.9410  -58.8740   33.0160 C   0  0  0  0  0  0  0  0  0  0  0  0
   16.8470  -59.9250   32.1420 C   0  0  0  0  0  0  0  0  0  0  0  0
   15.6750  -60.6640   32.0650 C   0  0  0  0  0  0  0  0  0  0  0  0
   14.6060  -60.3110   32.8950 C   0  0  0  0  0  0  0  0  0  0  0  0
   18.5670  -57.8900   33.0840 B   0  0  0  0  0  0  0  0  0  0  0  0
   11.7950  -58.6690   36.8390 H   0  0  0  0  0  0  0  0  0  0  0  0
   12.7310  -59.4500   38.1310 H   0  0  0  0  0  0  0  0  0  0  0  0
   12.5650  -56.5570   37.3240 H   0  0  0  0  0  0  0  0  0  0  0  0
   12.3920  -57.2680   38.9860 H   0  0  0  0  0  0  0  0  0  0  0  0
   16.3430  -57.6370   38.1200 H   0  0  0  0  0  0  0  0  0  0  0  0
   15.2920  -58.8230   38.9110 H   0  0  0  0  0  0  0  0  0  0  0  0
   15.6890  -59.7300   36.7600 H   0  0  0  0  0  0  0  0  0  0  0  0
   15.5860  -58.1490   35.9490 H   0  0  0  0  0  0  0  0  0  0  0  0
   15.5820  -53.6060   40.0070 H   0  0  0  0  0  0  0  0  0  0  0  0
   17.8800  -55.6640   35.1040 H   0  0  0  0  0  0  0  0  0  0  0  0
   20.2480  -52.1140   35.5150 H   0  0  0  0  0  0  0  0  0  0  0  0
   19.0250  -51.6190   37.5450 H   0  0  0  0  0  0  0  0  0  0  0  0
   20.7900  -54.8740   34.1490 H   0  0  0  0  0  0  0  0  0  0  0  0
   20.2520  -53.2900   33.4410 H   0  0  0  0  0  0  0  0  0  0  0  0
   19.2920  -54.8340   33.2020 H   0  0  0  0  0  0  0  0  0  0  0  0
   15.9670  -57.6800   34.5350 H   0  0  0  0  0  0  0  0  0  0  0  0
   17.6910  -60.1730   31.5130 H   0  0  0  0  0  0  0  0  0  0  0  0
   15.6140  -61.4880   31.3740 H   0  0  0  0  0  0  0  0  0  0  0  0
   13.6910  -60.8730   32.8500 H   0  0  0  0  0  0  0  0  0  0  0  0
  1  4  1  0  0  0  0
  2  1  2  0  0  0  0
  3  1  2  0  0  0  0
  4  9  1  0  0  0  0
  4  5  1  0  0  0  0
  5  6  1  0  0  0  0
  5 32  1  0  0  0  0
  6  7  1  0  0  0  0
  6 34  1  0  0  0  0
  7 10  1  0  0  0  0
  8 35  1  0  0  0  0
  8  7  1  0  0  0  0
  8 36  1  0  0  0  0
  9 37  1  0  0  0  0
  9  8  1  0  0  0  0
 10 11  2  0  0  0  0
 12 10  1  1  0  0  0
 12 13  1  0  0  0  0
 13 39  1  0  0  0  0
 14 13  2  0  0  0  0
 15 20  1  6  0  0  0
 15 14  1  0  0  0  0
 16 22  1  0  0  0  0
 16 15  1  0  0  0  0
 17 16  1  0  0  0  0
 18 17  2  0  0  0  0
 18 19  1  0  0  0  0
 19 20  2  0  0  0  0
 20 42  1  0  0  0  0
 21 43  1  0  0  0  0
 21 18  1  0  0  0  0
 22 12  1  0  0  0  0
 23 22  2  0  0  0  0
 24 25  1  0  0  0  0
 24  1  1  0  0  0  0
 25 46  1  0  0  0  0
 26 30  1  0  0  0  0
 26 25  2  0  0  0  0
 27 26  1  0  0  0  0
 28 27  2  0  0  0  0
 28 29  1  0  0  0  0
 29 24  2  0  0  0  0
 31  5  1  0  0  0  0
 33  6  1  0  0  0  0
 38  9  1  0  0  0  0
 40 17  1  0  0  0  0
 41 19  1  0  0  0  0
 44 21  1  0  0  0  0
 45 21  1  0  0  0  0
 47 27  1  0  0  0  0
 48 28  1  0  0  0  0
 49 29  1  0  0  0  0
M  END
>  <Pose>
1

>  <Score>
-7.05

$$$$
