
 OpenBabel03232204043D

 54 58  0  0  1  0  0  0  0  0999 V2000
   16.7670  -60.1300   32.3970 S   0  0  0  0  0  0  0  0  0  0  0  0
   15.9660  -60.9140   31.3650 O   0  0  0  0  0  0  0  0  0  0  0  0
   17.7250  -61.1700   32.9800 O   0  0  0  0  0  0  0  0  0  0  0  0
   17.6900  -58.9920   31.5770 N   0  0  0  0  0  0  0  0  0  0  0  0
   16.9730  -58.0100   30.8070 C   0  0  0  0  0  0  0  0  0  0  0  0
   17.5070  -56.6160   31.0440 C   0  0  0  0  0  0  0  0  0  0  0  0
   17.5010  -56.3110   32.4970 N   0  0  0  0  0  0  0  0  0  0  0  0
   18.4320  -57.2270   33.1400 C   0  0  0  0  0  0  0  0  0  0  0  0
   18.8020  -58.4130   32.2660 C   0  0  0  0  0  0  0  0  0  0  0  0
   18.0220  -54.9630   32.5670 C   0  0  0  0  0  0  0  0  0  0  0  0
   19.0600  -54.6770   33.5660 C   0  0  0  0  0  0  0  0  0  0  0  0
   18.6970  -54.1290   34.8280 N   0  0  0  0  0  0  0  0  0  0  0  0
   19.1670  -52.9710   35.5090 C   0  0  0  0  0  0  0  0  0  0  0  0
   20.2800  -52.4490   35.3500 O   0  0  0  0  0  0  0  0  0  0  0  0
   18.1100  -52.4980   36.4340 C   0  0  1  0  0  0  0  0  0  0  0  0
   17.4120  -53.8370   36.7680 C   0  0  2  0  0  0  0  0  0  0  0  0
   17.9700  -54.2620   38.0740 C   0  0  1  0  0  0  0  0  0  0  0  0
   19.3210  -53.5270   38.1040 C   0  0  0  0  0  0  0  0  0  0  0  0
   18.6960  -52.1630   37.7590 C   0  0  2  0  0  0  0  0  0  0  0  0
   17.5650  -52.1680   38.7460 C   0  0  0  0  0  0  0  0  0  0  0  0
   17.2830  -53.4140   39.1240 C   0  0  0  0  0  0  0  0  0  0  0  0
   17.6580  -54.7230   35.6390 C   0  0  0  0  0  0  0  0  0  0  0  0
   17.0540  -55.8060   35.4360 O   0  0  0  0  0  0  0  0  0  0  0  0
   15.7780  -59.5690   33.6840 C   0  0  0  0  0  0  0  0  0  0  0  0
   15.6470  -58.2250   33.9370 C   0  0  0  0  0  0  0  0  0  0  0  0
   14.8340  -57.8100   34.9760 C   0  0  0  0  0  0  0  0  0  0  0  0
   14.1410  -58.6980   35.7780 C   0  0  0  0  0  0  0  0  0  0  0  0
   14.2740  -60.0470   35.5200 C   0  0  0  0  0  0  0  0  0  0  0  0
   15.0920  -60.4630   34.4750 C   0  0  0  0  0  0  0  0  0  0  0  0
   13.0210  -58.1280   37.2110 B   0  0  0  0  0  0  0  0  0  0  0  0
   17.1620  -58.2330   29.7300 H   0  0  0  0  0  0  0  0  0  0  0  0
   15.9000  -58.0780   30.9790 H   0  0  0  0  0  0  0  0  0  0  0  0
   16.8170  -55.8910   30.5780 H   0  0  0  0  0  0  0  0  0  0  0  0
   18.5200  -56.4500   30.6330 H   0  0  0  0  0  0  0  0  0  0  0  0
   17.9320  -57.6720   34.0160 H   0  0  0  0  0  0  0  0  0  0  0  0
   19.3240  -56.6450   33.4320 H   0  0  0  0  0  0  0  0  0  0  0  0
   19.3410  -59.1800   32.8190 H   0  0  0  0  0  0  0  0  0  0  0  0
   19.4960  -58.0250   31.4860 H   0  0  0  0  0  0  0  0  0  0  0  0
   17.1620  -54.2530   32.7910 H   0  0  0  0  0  0  0  0  0  0  0  0
   18.3140  -54.6330   31.5190 H   0  0  0  0  0  0  0  0  0  0  0  0
   19.5780  -55.6710   33.7760 H   0  0  0  0  0  0  0  0  0  0  0  0
   19.8600  -54.0680   33.0580 H   0  0  0  0  0  0  0  0  0  0  0  0
   17.4320  -51.7690   36.0010 H   0  0  0  0  0  0  0  0  0  0  0  0
   16.3120  -53.6420   36.9220 H   0  0  0  0  0  0  0  0  0  0  0  0
   18.0320  -55.3000   38.2950 H   0  0  0  0  0  0  0  0  0  0  0  0
   19.7670  -53.5130   39.1050 H   0  0  0  0  0  0  0  0  0  0  0  0
   19.9890  -53.8190   37.3000 H   0  0  0  0  0  0  0  0  0  0  0  0
   19.3600  -51.3360   37.8320 H   0  0  0  0  0  0  0  0  0  0  0  0
   17.0210  -51.3110   39.1280 H   0  0  0  0  0  0  0  0  0  0  0  0
   16.7090  -53.7390   39.9720 H   0  0  0  0  0  0  0  0  0  0  0  0
   16.1740  -57.4700   33.3310 H   0  0  0  0  0  0  0  0  0  0  0  0
   14.7320  -56.7430   35.1750 H   0  0  0  0  0  0  0  0  0  0  0  0
   13.7290  -60.7290   36.1530 H   0  0  0  0  0  0  0  0  0  0  0  0
   15.1370  -61.5350   34.3420 H   0  0  0  0  0  0  0  0  0  0  0  0
  1  3  2  0  0  0  0
  1 24  1  0  0  0  0
  2  1  2  0  0  0  0
  4  9  1  0  0  0  0
  4  1  1  0  0  0  0
  5 32  1  0  0  0  0
  5  6  1  0  0  0  0
  5  4  1  0  0  0  0
  6  7  1  0  0  0  0
  7 10  1  0  0  0  0
  7  8  1  0  0  0  0
  8 36  1  0  0  0  0
  8 35  1  0  0  0  0
  9 37  1  0  0  0  0
  9  8  1  0  0  0  0
 10 39  1  0  0  0  0
 10 11  1  0  0  0  0
 11 41  1  0  0  0  0
 11 12  1  0  0  0  0
 12 13  1  0  0  0  0
 12 22  1  0  0  0  0
 13 15  1  0  0  0  0
 14 13  2  0  0  0  0
 15 43  1  6  0  0  0
 15 16  1  0  0  0  0
 15 19  1  0  0  0  0
 16 44  1  1  0  0  0
 16 17  1  0  0  0  0
 17 18  1  0  0  0  0
 17 45  1  1  0  0  0
 17 21  1  0  0  0  0
 18 46  1  0  0  0  0
 19 48  1  1  0  0  0
 19 18  1  0  0  0  0
 19 20  1  0  0  0  0
 20 21  1  0  0  0  0
 20 49  1  0  0  0  0
 21 50  1  0  0  0  0
 22 16  1  0  0  0  0
 23 22  2  0  0  0  0
 24 25  2  0  0  0  0
 24 29  1  0  0  0  0
 25 26  1  0  0  0  0
 26 52  1  0  0  0  0
 26 27  2  0  0  0  0
 27 30  1  0  0  0  0
 28 27  1  0  0  0  0
 28 53  1  0  0  0  0
 29 28  2  0  0  0  0
 31  5  1  0  0  0  0
 33  6  1  0  0  0  0
 34  6  1  0  0  0  0
 38  9  1  0  0  0  0
 40 10  1  0  0  0  0
 42 11  1  0  0  0  0
 47 18  1  0  0  0  0
 51 25  1  0  0  0  0
 54 29  1  0  0  0  0
M  END
>  <Pose>
1

>  <Score>
-6.87

$$$$
