
 OpenBabel03232204043D

 45 48  0  0  0  0  0  0  0  0999 V2000
   14.1500  -58.2450   33.9370 S   0  0  0  0  0  0  0  0  0  0  0  0
   12.6840  -58.0970   33.7100 O   0  0  0  0  0  0  0  0  0  0  0  0
   14.8800  -57.5240   32.8490 O   0  0  0  0  0  0  0  0  0  0  0  0
   14.6300  -57.6940   35.4290 N   0  0  0  0  0  0  0  0  0  0  0  0
   16.0050  -57.5740   35.7010 C   0  0  0  0  0  0  0  0  0  0  0  0
   16.2970  -57.0170   37.0660 C   0  0  0  0  0  0  0  0  0  0  0  0
   15.2210  -56.2980   37.6490 N   0  0  0  0  0  0  0  0  0  0  0  0
   14.0520  -57.0980   37.7330 C   0  0  0  0  0  0  0  0  0  0  0  0
   13.7480  -57.8900   36.5150 C   0  0  0  0  0  0  0  0  0  0  0  0
   15.0990  -54.9930   37.1160 C   0  0  0  0  0  0  0  0  0  0  0  0
   15.9370  -53.9850   37.6700 N   0  0  0  0  0  0  0  0  0  0  0  0
   16.9480  -53.4960   36.9810 N   0  0  0  0  0  0  0  0  0  0  0  0
   17.7880  -52.5510   37.4300 C   0  0  0  0  0  0  0  0  0  0  0  0
   17.5610  -52.0730   38.7000 C   0  0  0  0  0  0  0  0  0  0  0  0
   16.5200  -52.5450   39.4720 C   0  0  0  0  0  0  0  0  0  0  0  0
   15.7100  -53.5230   38.9100 C   0  0  0  0  0  0  0  0  0  0  0  0
   14.7440  -53.9580   39.6300 O   0  0  0  0  0  0  0  0  0  0  0  0
   18.8790  -52.0390   36.6560 N   0  0  0  0  0  0  0  0  0  0  0  0
   19.4640  -52.5770   35.5820 C   0  0  0  0  0  0  0  0  0  0  0  0
   20.4490  -51.7560   35.1730 N   0  0  0  0  0  0  0  0  0  0  0  0
   20.5000  -50.6860   35.9870 C   0  0  0  0  0  0  0  0  0  0  0  0
   19.5010  -50.8790   36.9180 C   0  0  0  0  0  0  0  0  0  0  0  0
   14.5290  -59.9750   33.8060 C   0  0  0  0  0  0  0  0  0  0  0  0
   15.9360  -60.7250   33.2010 S   0  0  0  0  0  0  0  0  0  0  0  0
   15.4950  -62.3550   33.4300 C   0  0  0  0  0  0  0  0  0  0  0  0
   14.2400  -62.2680   33.9810 C   0  0  0  0  0  0  0  0  0  0  0  0
   13.7480  -61.0340   34.1720 C   0  0  0  0  0  0  0  0  0  0  0  0
   16.4870  -63.9430   33.0260 B   0  0  0  0  0  0  0  0  0  0  0  0
   16.4970  -58.5600   35.5630 H   0  0  0  0  0  0  0  0  0  0  0  0
   16.4770  -56.8940   34.9510 H   0  0  0  0  0  0  0  0  0  0  0  0
   17.1950  -56.3700   37.0400 H   0  0  0  0  0  0  0  0  0  0  0  0
   16.5510  -57.8680   37.7390 H   0  0  0  0  0  0  0  0  0  0  0  0
   13.1580  -56.5240   38.1180 H   0  0  0  0  0  0  0  0  0  0  0  0
   14.2380  -57.8370   38.5710 H   0  0  0  0  0  0  0  0  0  0  0  0
   12.7060  -57.6350   36.1850 H   0  0  0  0  0  0  0  0  0  0  0  0
   13.7020  -58.9920   36.7250 H   0  0  0  0  0  0  0  0  0  0  0  0
   15.3680  -55.0640   36.0200 H   0  0  0  0  0  0  0  0  0  0  0  0
   14.0280  -54.6420   37.0920 H   0  0  0  0  0  0  0  0  0  0  0  0
   18.2150  -51.3100   39.1010 H   0  0  0  0  0  0  0  0  0  0  0  0
   16.3310  -52.1780   40.4680 H   0  0  0  0  0  0  0  0  0  0  0  0
   19.1800  -53.5250   35.1240 H   0  0  0  0  0  0  0  0  0  0  0  0
   21.1980  -49.8390   35.9110 H   0  0  0  0  0  0  0  0  0  0  0  0
   19.2810  -50.1920   37.7150 H   0  0  0  0  0  0  0  0  0  0  0  0
   13.6950  -63.2090   34.2420 H   0  0  0  0  0  0  0  0  0  0  0  0
   12.7360  -60.8840   34.6160 H   0  0  0  0  0  0  0  0  0  0  0  0
  1  4  1  0  0  0  0
  2  1  2  0  0  0  0
  3  1  2  0  0  0  0
  4  5  1  0  0  0  0
  4  9  1  0  0  0  0
  5  6  1  0  0  0  0
  6  7  1  0  0  0  0
  6 32  1  0  0  0  0
  7  8  1  0  0  0  0
  8 33  1  0  0  0  0
  8 34  1  0  0  0  0
  9 36  1  0  0  0  0
  9  8  1  0  0  0  0
 10  7  1  0  0  0  0
 10 11  1  0  0  0  0
 11 16  1  0  0  0  0
 12 13  2  0  0  0  0
 12 11  1  0  0  0  0
 13 14  1  0  0  0  0
 14 39  1  0  0  0  0
 14 15  2  0  0  0  0
 15 40  1  0  0  0  0
 16 15  1  0  0  0  0
 16 17  2  0  0  0  0
 18 22  1  0  0  0  0
 18 13  1  0  0  0  0
 19 18  1  0  0  0  0
 20 19  2  0  0  0  0
 20 21  1  0  0  0  0
 21 22  2  0  0  0  0
 22 43  1  0  0  0  0
 23  1  1  0  0  0  0
 23 27  2  0  0  0  0
 24 25  1  0  0  0  0
 24 23  1  0  0  0  0
 25 26  2  0  0  0  0
 26 27  1  0  0  0  0
 26 44  1  0  0  0  0
 27 45  1  0  0  0  0
 28 25  1  0  0  0  0
 29  5  1  0  0  0  0
 30  5  1  0  0  0  0
 31  6  1  0  0  0  0
 35  9  1  0  0  0  0
 37 10  1  0  0  0  0
 38 10  1  0  0  0  0
 41 19  1  0  0  0  0
 42 21  1  0  0  0  0
M  END
>  <Pose>
1

>  <Score>
-7.52

$$$$
