
 OpenBabel03232204043D

 44 47  0  0  0  0  0  0  0  0999 V2000
   17.7150  -58.7770   32.7840 S   0  0  0  0  0  0  0  0  0  0  0  0
   17.9420  -59.8770   33.7430 O   0  0  0  0  0  0  0  0  0  0  0  0
   19.0850  -58.1760   32.4880 O   0  0  0  0  0  0  0  0  0  0  0  0
   16.7140  -57.5240   33.3510 N   0  0  0  0  0  0  0  0  0  0  0  0
   16.5490  -56.4030   32.5070 C   0  0  0  0  0  0  0  0  0  0  0  0
   17.1740  -55.1230   32.9510 C   0  0  0  0  0  0  0  0  0  0  0  0
   17.8810  -55.2050   34.2040 N   0  0  0  0  0  0  0  0  0  0  0  0
   17.3910  -56.0670   35.2310 C   0  0  0  0  0  0  0  0  0  0  0  0
   16.7390  -57.3160   34.7490 C   0  0  0  0  0  0  0  0  0  0  0  0
   19.0540  -54.3910   34.3540 C   0  0  0  0  0  0  0  0  0  0  0  0
   19.3770  -53.6680   35.4390 N   0  0  0  0  0  0  0  0  0  0  0  0
   20.5310  -53.0650   35.1310 N   0  0  0  0  0  0  0  0  0  0  0  0
   20.8980  -53.4020   33.9150 N   0  0  0  0  0  0  0  0  0  0  0  0
   20.0090  -54.2240   33.3990 N   0  0  0  0  0  0  0  0  0  0  0  0
   18.6470  -53.5790   36.6550 C   0  0  0  0  0  0  0  0  0  0  0  0
   17.3650  -53.0790   36.6850 C   0  0  0  0  0  0  0  0  0  0  0  0
   16.6750  -53.0060   37.8940 C   0  0  0  0  0  0  0  0  0  0  0  0
   17.2500  -53.4250   39.0740 C   0  0  0  0  0  0  0  0  0  0  0  0
   18.5550  -53.9330   39.0430 C   0  0  0  0  0  0  0  0  0  0  0  0
   19.2310  -54.0000   37.8230 C   0  0  0  0  0  0  0  0  0  0  0  0
   17.0960  -59.3940   31.2780 C   0  0  0  0  0  0  0  0  0  0  0  0
   17.4140  -58.8480   30.0590 C   0  0  0  0  0  0  0  0  0  0  0  0
   16.9130  -59.3550   28.8600 C   0  0  0  0  0  0  0  0  0  0  0  0
   16.0570  -60.4590   28.9180 C   0  0  0  0  0  0  0  0  0  0  0  0
   15.7310  -61.0150   30.1350 C   0  0  0  0  0  0  0  0  0  0  0  0
   16.2430  -60.4890   31.2880 C   0  0  0  0  0  0  0  0  0  0  0  0
   15.3350  -61.2080   27.3120 B   0  0  0  0  0  0  0  0  0  0  0  0
   16.8740  -56.7090   31.4790 H   0  0  0  0  0  0  0  0  0  0  0  0
   15.4320  -56.2380   32.4110 H   0  0  0  0  0  0  0  0  0  0  0  0
   17.8500  -54.7900   32.1160 H   0  0  0  0  0  0  0  0  0  0  0  0
   16.3930  -54.3230   32.9850 H   0  0  0  0  0  0  0  0  0  0  0  0
   18.2290  -56.3670   35.9260 H   0  0  0  0  0  0  0  0  0  0  0  0
   16.6850  -55.4440   35.8540 H   0  0  0  0  0  0  0  0  0  0  0  0
   15.6720  -57.3070   35.1170 H   0  0  0  0  0  0  0  0  0  0  0  0
   17.1740  -58.2270   35.2520 H   0  0  0  0  0  0  0  0  0  0  0  0
   16.8460  -52.7280   35.7860 H   0  0  0  0  0  0  0  0  0  0  0  0
   15.6540  -52.6150   37.9530 H   0  0  0  0  0  0  0  0  0  0  0  0
   16.7440  -53.3820   40.0230 H   0  0  0  0  0  0  0  0  0  0  0  0
   18.9990  -54.2600   39.9670 H   0  0  0  0  0  0  0  0  0  0  0  0
   20.2410  -54.4060   37.8760 H   0  0  0  0  0  0  0  0  0  0  0  0
   18.0850  -57.9800   30.0010 H   0  0  0  0  0  0  0  0  0  0  0  0
   17.1460  -58.9450   27.8990 H   0  0  0  0  0  0  0  0  0  0  0  0
   15.0560  -61.8780   30.1220 H   0  0  0  0  0  0  0  0  0  0  0  0
   15.9580  -60.9610   32.2440 H   0  0  0  0  0  0  0  0  0  0  0  0
  1  4  1  0  0  0  0
  1  2  2  0  0  0  0
  3  1  2  0  0  0  0
  4  9  1  0  0  0  0
  5  6  1  0  0  0  0
  5  4  1  0  0  0  0
  6 31  1  0  0  0  0
  6  7  1  0  0  0  0
  7 10  1  0  0  0  0
  7  8  1  0  0  0  0
  8 33  1  0  0  0  0
  8 32  1  0  0  0  0
  9 34  1  0  0  0  0
  9  8  1  0  0  0  0
  9 35  1  0  0  0  0
 10 11  1  0  0  0  0
 11 15  1  0  0  0  0
 12 11  1  0  0  0  0
 13 12  2  0  0  0  0
 14 13  1  0  0  0  0
 14 10  2  0  0  0  0
 15 16  2  0  0  0  0
 15 20  1  0  0  0  0
 16 17  1  0  0  0  0
 17 37  1  0  0  0  0
 17 18  2  0  0  0  0
 18 38  1  0  0  0  0
 19 18  1  0  0  0  0
 19 39  1  0  0  0  0
 20 40  1  0  0  0  0
 20 19  2  0  0  0  0
 21 26  1  0  0  0  0
 21  1  1  0  0  0  0
 22 21  2  0  0  0  0
 23 24  2  0  0  0  0
 23 22  1  0  0  0  0
 24 25  1  0  0  0  0
 25 26  2  0  0  0  0
 26 44  1  0  0  0  0
 27 24  1  0  0  0  0
 28  5  1  0  0  0  0
 29  5  1  0  0  0  0
 30  6  1  0  0  0  0
 36 16  1  0  0  0  0
 41 22  1  0  0  0  0
 42 23  1  0  0  0  0
 43 25  1  0  0  0  0
M  END
>  <Pose>
1

>  <Score>
-6.75

$$$$
