
 OpenBabel03232204043D

 51 54  0  0  0  0  0  0  0  0999 V2000
   18.9390  -56.2280   30.9940 S   0  0  0  0  0  0  0  0  0  0  0  0
   19.0760  -57.7070   31.1180 O   0  0  0  0  0  0  0  0  0  0  0  0
   17.5070  -55.9430   30.5900 O   0  0  0  0  0  0  0  0  0  0  0  0
   19.9510  -55.6000   29.7700 N   0  0  0  0  0  0  0  0  0  0  0  0
   19.7410  -56.2190   28.4870 C   0  0  0  0  0  0  0  0  0  0  0  0
   20.9920  -55.9260   27.6530 C   0  0  0  0  0  0  0  0  0  0  0  0
   22.0480  -56.7030   28.0770 O   0  0  0  0  0  0  0  0  0  0  0  0
   21.8450  -57.0530   29.4230 C   0  0  0  0  0  0  0  0  0  0  0  0
   21.3420  -55.8020   30.1280 C   0  0  0  0  0  0  0  0  0  0  0  0
   19.1820  -55.4270   32.5390 C   0  0  0  0  0  0  0  0  0  0  0  0
   19.4020  -54.0840   32.6480 C   0  0  0  0  0  0  0  0  0  0  0  0
   19.5910  -53.4760   33.8860 C   0  0  0  0  0  0  0  0  0  0  0  0
   19.5650  -54.1970   35.0420 C   0  0  0  0  0  0  0  0  0  0  0  0
   19.3440  -55.5590   34.9400 C   0  0  0  0  0  0  0  0  0  0  0  0
   19.1560  -56.1620   33.7090 C   0  0  0  0  0  0  0  0  0  0  0  0
   19.7540  -53.6270   36.3980 C   0  0  0  0  0  0  0  0  0  0  0  0
   19.2890  -54.4930   37.4090 O   0  0  0  0  0  0  0  0  0  0  0  0
   18.3590  -54.1620   38.3650 C   0  0  0  0  0  0  0  0  0  0  0  0
   18.7090  -54.0980   39.5590 O   0  0  0  0  0  0  0  0  0  0  0  0
   16.9720  -53.8870   38.0000 C   0  0  0  0  0  0  0  0  0  0  0  0
   16.1520  -55.0610   37.9230 N   0  0  0  0  0  0  0  0  0  0  0  0
   15.0520  -55.3050   38.8090 C   0  0  0  0  0  0  0  0  0  0  0  0
   14.6720  -54.5440   39.7430 O   0  0  0  0  0  0  0  0  0  0  0  0
   14.4340  -56.5790   38.4610 C   0  0  0  0  0  0  0  0  0  0  0  0
   15.1140  -57.1210   37.4010 C   0  0  0  0  0  0  0  0  0  0  0  0
   14.7300  -58.3370   36.8690 C   0  0  0  0  0  0  0  0  0  0  0  0
   13.6570  -59.0340   37.3910 C   0  0  0  0  0  0  0  0  0  0  0  0
   12.9650  -58.5020   38.4580 C   0  0  0  0  0  0  0  0  0  0  0  0
   13.3690  -57.2860   38.9700 C   0  0  0  0  0  0  0  0  0  0  0  0
   11.4790  -59.4270   39.2130 B   0  0  0  0  0  0  0  0  0  0  0  0
   16.1920  -56.1790   37.0530 C   0  0  0  0  0  0  0  0  0  0  0  0
   17.0320  -56.3170   36.1360 O   0  0  0  0  0  0  0  0  0  0  0  0
   18.8950  -55.6890   28.0020 H   0  0  0  0  0  0  0  0  0  0  0  0
   19.5090  -57.2820   28.5270 H   0  0  0  0  0  0  0  0  0  0  0  0
   21.1950  -54.8320   27.7560 H   0  0  0  0  0  0  0  0  0  0  0  0
   20.8190  -56.1060   26.5780 H   0  0  0  0  0  0  0  0  0  0  0  0
   21.1720  -57.9050   29.5310 H   0  0  0  0  0  0  0  0  0  0  0  0
   22.8360  -57.3640   29.8060 H   0  0  0  0  0  0  0  0  0  0  0  0
   21.3890  -55.8850   31.2240 H   0  0  0  0  0  0  0  0  0  0  0  0
   21.9940  -54.9720   29.7750 H   0  0  0  0  0  0  0  0  0  0  0  0
   19.4250  -53.4950   31.7340 H   0  0  0  0  0  0  0  0  0  0  0  0
   19.7640  -52.4130   33.9290 H   0  0  0  0  0  0  0  0  0  0  0  0
   19.3200  -56.1500   35.8440 H   0  0  0  0  0  0  0  0  0  0  0  0
   18.9830  -57.2370   33.6600 H   0  0  0  0  0  0  0  0  0  0  0  0
   20.8280  -53.4270   36.5950 H   0  0  0  0  0  0  0  0  0  0  0  0
   19.2010  -52.6520   36.4370 H   0  0  0  0  0  0  0  0  0  0  0  0
   16.4910  -53.1660   38.7240 H   0  0  0  0  0  0  0  0  0  0  0  0
   16.8850  -53.3670   37.0010 H   0  0  0  0  0  0  0  0  0  0  0  0
   15.2880  -58.7400   36.0290 H   0  0  0  0  0  0  0  0  0  0  0  0
   13.3610  -60.0040   36.9600 H   0  0  0  0  0  0  0  0  0  0  0  0
   12.8440  -56.8380   39.8130 H   0  0  0  0  0  0  0  0  0  0  0  0
  1  2  2  0  0  0  0
  1 10  1  0  0  0  0
  3  1  2  0  0  0  0
  4  9  1  0  0  0  0
  4  1  1  0  0  0  0
  5 34  1  0  0  0  0
  5  4  1  0  0  0  0
  6 35  1  0  0  0  0
  6  7  1  0  0  0  0
  6  5  1  0  0  0  0
  7  8  1  0  0  0  0
  8 37  1  0  0  0  0
  8 38  1  0  0  0  0
  8  9  1  0  0  0  0
  9 39  1  0  0  0  0
 10 11  2  0  0  0  0
 10 15  1  0  0  0  0
 11 12  1  0  0  0  0
 12 42  1  0  0  0  0
 12 13  2  0  0  0  0
 13 16  1  0  0  0  0
 14 13  1  0  0  0  0
 14 43  1  0  0  0  0
 15 14  2  0  0  0  0
 16 46  1  0  0  0  0
 16 45  1  0  0  0  0
 16 17  1  0  0  0  0
 17 18  1  0  0  0  0
 18 19  2  0  0  0  0
 20 18  1  0  0  0  0
 20 47  1  0  0  0  0
 21 20  1  0  0  0  0
 21 22  1  0  0  0  0
 22 23  2  0  0  0  0
 24 22  1  0  0  0  0
 24 29  1  0  0  0  0
 25 24  2  0  0  0  0
 26 27  2  0  0  0  0
 26 25  1  0  0  0  0
 27 28  1  0  0  0  0
 28 29  2  0  0  0  0
 28 30  1  0  0  0  0
 29 51  1  0  0  0  0
 31 25  1  0  0  0  0
 31 21  1  0  0  0  0
 32 31  2  0  0  0  0
 33  5  1  0  0  0  0
 36  6  1  0  0  0  0
 40  9  1  0  0  0  0
 41 11  1  0  0  0  0
 44 15  1  0  0  0  0
 48 20  1  0  0  0  0
 49 26  1  0  0  0  0
 50 27  1  0  0  0  0
M  END
>  <Pose>
1

>  <Score>
-7.23

$$$$
