
 OpenBabel03232204043D

 46 49  0  0  0  0  0  0  0  0999 V2000
   19.7570  -53.9950   34.9740 S   0  0  0  0  0  0  0  0  0  0  0  0
   20.6500  -52.9510   34.3160 O   0  0  0  0  0  0  0  0  0  0  0  0
   20.7120  -55.0020   35.5830 O   0  0  0  0  0  0  0  0  0  0  0  0
   18.8040  -54.6980   33.7880 N   0  0  0  0  0  0  0  0  0  0  0  0
   17.6370  -55.3720   34.1770 C   0  0  0  0  0  0  0  0  0  0  0  0
   16.4820  -55.0080   33.2920 C   0  0  0  0  0  0  0  0  0  0  0  0
   16.8430  -55.3040   31.9890 O   0  0  0  0  0  0  0  0  0  0  0  0
   17.8650  -54.4870   31.5200 C   0  0  0  0  0  0  0  0  0  0  0  0
   19.0070  -54.3440   32.4500 C   0  0  0  0  0  0  0  0  0  0  0  0
   18.8600  -53.2010   36.2480 C   0  0  0  0  0  0  0  0  0  0  0  0
   18.6390  -51.8850   36.4080 N   0  0  0  0  0  0  0  0  0  0  0  0
   17.8960  -51.6980   37.5280 C   0  0  0  0  0  0  0  0  0  0  0  0
   17.6380  -52.8900   38.0920 N   0  0  0  0  0  0  0  0  0  0  0  0
   18.2140  -53.8080   37.3300 C   0  0  0  0  0  0  0  0  0  0  0  0
   16.8700  -53.0810   39.3060 C   0  0  0  0  0  0  0  0  0  0  0  0
   15.9030  -54.1960   39.1710 C   0  0  0  0  0  0  0  0  0  0  0  0
   14.5670  -54.1040   39.4040 N   0  0  0  0  0  0  0  0  0  0  0  0
   14.0390  -55.2700   39.1860 O   0  0  0  0  0  0  0  0  0  0  0  0
   14.9420  -56.1430   38.8190 C   0  0  0  0  0  0  0  0  0  0  0  0
   16.1170  -55.4630   38.8100 N   0  0  0  0  0  0  0  0  0  0  0  0
   14.7540  -57.5850   38.4760 C   0  0  0  0  0  0  0  0  0  0  0  0
   15.2120  -57.7560   37.0690 C   0  0  0  0  0  0  0  0  0  0  0  0
   14.2560  -57.8080   36.0670 C   0  0  0  0  0  0  0  0  0  0  0  0
   14.5850  -57.9620   34.7460 C   0  0  0  0  0  0  0  0  0  0  0  0
   15.9100  -58.0670   34.4180 C   0  0  0  0  0  0  0  0  0  0  0  0
   16.8860  -58.0230   35.3640 C   0  0  0  0  0  0  0  0  0  0  0  0
   16.5220  -57.8650   36.6990 C   0  0  0  0  0  0  0  0  0  0  0  0
   16.4080  -58.2840   32.5890 B   0  0  0  0  0  0  0  0  0  0  0  0
   17.4340  -55.1780   35.2520 H   0  0  0  0  0  0  0  0  0  0  0  0
   17.8010  -56.4810   34.0420 H   0  0  0  0  0  0  0  0  0  0  0  0
   15.5750  -55.6100   33.5160 H   0  0  0  0  0  0  0  0  0  0  0  0
   16.3080  -53.9210   33.3730 H   0  0  0  0  0  0  0  0  0  0  0  0
   18.1840  -54.9200   30.5380 H   0  0  0  0  0  0  0  0  0  0  0  0
   17.4540  -53.4820   31.2710 H   0  0  0  0  0  0  0  0  0  0  0  0
   19.4070  -53.2870   32.4060 H   0  0  0  0  0  0  0  0  0  0  0  0
   19.8620  -54.9600   32.0420 H   0  0  0  0  0  0  0  0  0  0  0  0
   17.5720  -50.7270   37.8950 H   0  0  0  0  0  0  0  0  0  0  0  0
   18.2130  -54.8780   37.4800 H   0  0  0  0  0  0  0  0  0  0  0  0
   16.3130  -52.1610   39.5730 H   0  0  0  0  0  0  0  0  0  0  0  0
   17.5620  -53.2780   40.1520 H   0  0  0  0  0  0  0  0  0  0  0  0
   13.6730  -57.8000   38.5570 H   0  0  0  0  0  0  0  0  0  0  0  0
   15.3380  -58.2280   39.1680 H   0  0  0  0  0  0  0  0  0  0  0  0
   13.2080  -57.7210   36.3550 H   0  0  0  0  0  0  0  0  0  0  0  0
   13.8320  -58.0040   33.9540 H   0  0  0  0  0  0  0  0  0  0  0  0
   17.9420  -58.1050   35.1110 H   0  0  0  0  0  0  0  0  0  0  0  0
   17.2890  -57.8270   37.4610 H   0  0  0  0  0  0  0  0  0  0  0  0
  1  3  2  0  0  0  0
  1 10  1  0  0  0  0
  2  1  2  0  0  0  0
  4  5  1  0  0  0  0
  4  1  1  0  0  0  0
  5 29  1  0  0  0  0
  6 32  1  0  0  0  0
  6 31  1  0  0  0  0
  6  5  1  0  0  0  0
  7  6  1  0  0  0  0
  8  7  1  0  0  0  0
  8  9  1  0  0  0  0
  9  4  1  0  0  0  0
 10 11  1  0  0  0  0
 10 14  2  0  0  0  0
 11 12  2  0  0  0  0
 12 37  1  0  0  0  0
 12 13  1  0  0  0  0
 13 15  1  0  0  0  0
 14 38  1  0  0  0  0
 14 13  1  0  0  0  0
 15 39  1  0  0  0  0
 15 40  1  0  0  0  0
 16 15  1  0  0  0  0
 16 17  2  0  0  0  0
 18 17  1  0  0  0  0
 19 18  1  0  0  0  0
 20 19  2  0  0  0  0
 20 16  1  0  0  0  0
 21 41  1  0  0  0  0
 21 19  1  0  0  0  0
 21 42  1  0  0  0  0
 22 21  1  0  0  0  0
 23 43  1  0  0  0  0
 23 22  2  0  0  0  0
 24 23  1  0  0  0  0
 25 24  2  0  0  0  0
 25 26  1  0  0  0  0
 26 27  2  0  0  0  0
 27 22  1  0  0  0  0
 27 46  1  0  0  0  0
 28 25  1  0  0  0  0
 30  5  1  0  0  0  0
 33  8  1  0  0  0  0
 34  8  1  0  0  0  0
 35  9  1  0  0  0  0
 36  9  1  0  0  0  0
 44 24  1  0  0  0  0
 45 26  1  0  0  0  0
M  END
>  <Pose>
1

>  <Score>
-7.31

$$$$
