
 OpenBabel03232204043D

 43 46  0  0  0  0  0  0  0  0999 V2000
   19.2710  -54.0140   35.4680 S   0  0  0  0  0  0  0  0  0  0  0  0
   20.1820  -52.9670   34.8840 O   0  0  0  0  0  0  0  0  0  0  0  0
   20.1320  -55.1270   35.9710 O   0  0  0  0  0  0  0  0  0  0  0  0
   18.2050  -54.5500   34.2430 N   0  0  0  0  0  0  0  0  0  0  0  0
   17.0010  -55.1230   34.7190 C   0  0  0  0  0  0  0  0  0  0  0  0
   16.4490  -56.2700   33.9400 C   0  0  0  0  0  0  0  0  0  0  0  0
   16.7350  -56.0240   32.5770 O   0  0  0  0  0  0  0  0  0  0  0  0
   18.1070  -56.2680   32.4620 C   0  0  0  0  0  0  0  0  0  0  0  0
   18.8470  -55.1720   33.1430 C   0  0  0  0  0  0  0  0  0  0  0  0
   18.3840  -53.2530   36.7950 C   0  0  0  0  0  0  0  0  0  0  0  0
   18.6890  -52.1060   37.4270 N   0  0  0  0  0  0  0  0  0  0  0  0
   17.7620  -51.8810   38.3760 C   0  0  0  0  0  0  0  0  0  0  0  0
   16.8480  -52.8630   38.3790 N   0  0  0  0  0  0  0  0  0  0  0  0
   17.2290  -53.7070   37.4070 C   0  0  0  0  0  0  0  0  0  0  0  0
   15.6990  -52.9760   39.2530 C   0  0  0  0  0  0  0  0  0  0  0  0
   15.1020  -54.3310   39.2380 C   0  0  0  0  0  0  0  0  0  0  0  0
   14.9480  -55.1120   40.3240 N   0  0  0  0  0  0  0  0  0  0  0  0
   14.3950  -56.2290   39.9560 O   0  0  0  0  0  0  0  0  0  0  0  0
   14.1700  -56.2360   38.6710 C   0  0  0  0  0  0  0  0  0  0  0  0
   14.6100  -55.0510   38.2180 N   0  0  0  0  0  0  0  0  0  0  0  0
   13.5580  -57.3360   37.9240 C   0  0  0  0  0  0  0  0  0  0  0  0
   13.7930  -57.5250   36.5780 C   0  0  0  0  0  0  0  0  0  0  0  0
   13.2040  -58.5770   35.8800 C   0  0  0  0  0  0  0  0  0  0  0  0
   12.3640  -59.4660   36.5130 C   0  0  0  0  0  0  0  0  0  0  0  0
   12.1260  -59.2790   37.8580 C   0  0  0  0  0  0  0  0  0  0  0  0
   12.7180  -58.2230   38.5550 C   0  0  0  0  0  0  0  0  0  0  0  0
   13.5440  -58.8210   34.0150 B   0  0  0  0  0  0  0  0  0  0  0  0
   17.0910  -55.3910   35.8040 H   0  0  0  0  0  0  0  0  0  0  0  0
   16.2130  -54.3110   34.6850 H   0  0  0  0  0  0  0  0  0  0  0  0
   15.3360  -56.2700   34.0010 H   0  0  0  0  0  0  0  0  0  0  0  0
   16.8340  -57.2580   34.2250 H   0  0  0  0  0  0  0  0  0  0  0  0
   18.2790  -57.2680   32.9060 H   0  0  0  0  0  0  0  0  0  0  0  0
   18.4350  -56.3260   31.4100 H   0  0  0  0  0  0  0  0  0  0  0  0
   19.0500  -54.3780   32.3720 H   0  0  0  0  0  0  0  0  0  0  0  0
   19.8690  -55.5090   33.4610 H   0  0  0  0  0  0  0  0  0  0  0  0
   17.7360  -51.0340   39.0520 H   0  0  0  0  0  0  0  0  0  0  0  0
   16.7120  -54.6150   37.1400 H   0  0  0  0  0  0  0  0  0  0  0  0
   14.9450  -52.2460   38.9180 H   0  0  0  0  0  0  0  0  0  0  0  0
   15.9390  -52.7410   40.3100 H   0  0  0  0  0  0  0  0  0  0  0  0
   14.4520  -56.8310   36.0770 H   0  0  0  0  0  0  0  0  0  0  0  0
   11.9080  -60.2850   35.9550 H   0  0  0  0  0  0  0  0  0  0  0  0
   11.4730  -59.9540   38.3910 H   0  0  0  0  0  0  0  0  0  0  0  0
   12.5450  -58.0580   39.6110 H   0  0  0  0  0  0  0  0  0  0  0  0
  1  3  2  0  0  0  0
  1 10  1  0  0  0  0
  2  1  2  0  0  0  0
  4  5  1  0  0  0  0
  4  1  1  0  0  0  0
  5 28  1  0  0  0  0
  6 30  1  0  0  0  0
  6 31  1  0  0  0  0
  6  5  1  0  0  0  0
  7  6  1  0  0  0  0
  8  7  1  0  0  0  0
  8 32  1  0  0  0  0
  8  9  1  0  0  0  0
  9 35  1  0  0  0  0
  9  4  1  0  0  0  0
 10 14  2  0  0  0  0
 10 11  1  0  0  0  0
 11 12  2  0  0  0  0
 12 13  1  0  0  0  0
 12 36  1  0  0  0  0
 13 15  1  0  0  0  0
 14 13  1  0  0  0  0
 15 39  1  0  0  0  0
 16 15  1  0  0  0  0
 16 17  2  0  0  0  0
 18 17  1  0  0  0  0
 19 18  1  0  0  0  0
 20 19  2  0  0  0  0
 20 16  1  0  0  0  0
 21 26  1  0  0  0  0
 21 19  1  0  0  0  0
 22 21  2  0  0  0  0
 23 24  2  0  0  0  0
 23 22  1  0  0  0  0
 24 25  1  0  0  0  0
 25 42  1  0  0  0  0
 25 26  2  0  0  0  0
 26 43  1  0  0  0  0
 27 23  1  0  0  0  0
 29  5  1  0  0  0  0
 33  8  1  0  0  0  0
 34  9  1  0  0  0  0
 37 14  1  0  0  0  0
 38 15  1  0  0  0  0
 40 22  1  0  0  0  0
 41 24  1  0  0  0  0
M  END
>  <Pose>
1

>  <Score>
-8.03

$$$$
