
 OpenBabel03232204043D

 47 50  0  0  1  0  0  0  0  0999 V2000
   17.2040  -57.3000   35.1330 S   0  0  0  0  0  0  0  0  0  0  0  0
   16.3650  -57.6570   33.5280 C   0  0  0  0  0  0  0  0  0  0  0  0
   15.2590  -58.6160   33.7500 C   0  0  0  0  0  0  0  0  0  0  0  0
   15.2450  -59.9060   33.2780 C   0  0  0  0  0  0  0  0  0  0  0  0
   14.1600  -60.7040   33.3860 C   0  0  0  0  0  0  0  0  0  0  0  0
   12.9900  -60.2620   33.9940 C   0  0  0  0  0  0  0  0  0  0  0  0
   12.9680  -58.9490   34.4850 C   0  0  0  0  0  0  0  0  0  0  0  0
   14.0840  -58.1430   34.3640 C   0  0  0  0  0  0  0  0  0  0  0  0
   16.9030  -60.5520   32.5780 B   0  0  0  0  0  0  0  0  0  0  0  0
   18.0720  -55.7270   35.0490 C   0  0  0  0  0  0  0  0  0  0  0  0
   18.1290  -54.8100   36.0140 N   0  0  0  0  0  0  0  0  0  0  0  0
   18.9570  -53.8270   35.5710 C   0  0  0  0  0  0  0  0  0  0  0  0
   19.4880  -52.6910   36.0490 N   0  0  0  0  0  0  0  0  0  0  0  0
   20.3640  -51.9060   35.4120 C   0  0  0  0  0  0  0  0  0  0  0  0
   20.7590  -52.2840   34.1360 N   0  0  0  0  0  0  0  0  0  0  0  0
   20.2940  -53.3780   33.5880 C   0  0  0  0  0  0  0  0  0  0  0  0
   19.3970  -54.1790   34.2660 C   0  0  0  0  0  0  0  0  0  0  0  0
   18.8270  -55.3490   34.0070 N   0  0  0  0  0  0  0  0  0  0  0  0
   20.6440  -53.7920   32.3270 O   0  0  0  0  0  0  0  0  0  0  0  0
   20.9590  -50.7200   35.9610 N   0  0  0  0  0  0  0  0  0  0  0  0
   17.4650  -54.7420   37.2760 C   0  0  2  0  0  0  0  0  0  0  0  0
   16.2360  -55.4370   37.3160 O   0  0  0  0  0  0  0  0  0  0  0  0
   15.7880  -55.0190   38.5910 C   0  0  1  0  0  0  0  0  0  0  0  0
   15.7790  -53.4930   38.3160 C   0  0  2  0  0  0  0  0  0  0  0  0
   17.2330  -53.3770   37.8390 C   0  0  1  0  0  0  0  0  0  0  0  0
   18.0210  -53.1560   38.9970 O   0  0  0  0  0  0  0  0  0  0  0  0
   15.5240  -52.7580   39.4430 O   0  0  0  0  0  0  0  0  0  0  0  0
   14.4400  -55.5410   38.9150 C   0  0  0  0  0  0  0  0  0  0  0  0
   14.2120  -55.4970   40.2960 O   0  0  0  0  0  0  0  0  0  0  0  0
   17.0790  -57.9980   32.8280 H   0  0  0  0  0  0  0  0  0  0  0  0
   15.9150  -56.6290   33.2400 H   0  0  0  0  0  0  0  0  0  0  0  0
   14.1990  -61.7060   33.0000 H   0  0  0  0  0  0  0  0  0  0  0  0
   12.1420  -60.9150   34.1020 H   0  0  0  0  0  0  0  0  0  0  0  0
   12.0720  -58.5460   34.9610 H   0  0  0  0  0  0  0  0  0  0  0  0
   14.0430  -57.1430   34.7030 H   0  0  0  0  0  0  0  0  0  0  0  0
   21.3690  -53.3530   31.7710 H   0  0  0  0  0  0  0  0  0  0  0  0
   21.7950  -50.2440   35.6290 H   0  0  0  0  0  0  0  0  0  0  0  0
   20.4920  -50.3090   36.8420 H   0  0  0  0  0  0  0  0  0  0  0  0
   18.0850  -55.2990   38.0340 H   0  0  0  0  0  0  0  0  0  0  0  0
   16.5480  -55.2080   39.3510 H   0  0  0  0  0  0  0  0  0  0  0  0
   15.0740  -53.2560   37.5000 H   0  0  0  0  0  0  0  0  0  0  0  0
   17.4000  -52.5370   37.2080 H   0  0  0  0  0  0  0  0  0  0  0  0
   17.5800  -52.4010   39.4460 H   0  0  0  0  0  0  0  0  0  0  0  0
   14.8680  -53.2250   40.0130 H   0  0  0  0  0  0  0  0  0  0  0  0
   14.4750  -56.6560   38.6990 H   0  0  0  0  0  0  0  0  0  0  0  0
   13.6460  -55.1320   38.3080 H   0  0  0  0  0  0  0  0  0  0  0  0
   13.3000  -55.8920   40.4560 H   0  0  0  0  0  0  0  0  0  0  0  0
  2  3  1  0  0  0  0
  2  1  1  0  0  0  0
  3  8  1  0  0  0  0
  4  5  1  0  0  0  0
  4  3  2  0  0  0  0
  5  6  2  0  0  0  0
  6 33  1  0  0  0  0
  6  7  1  0  0  0  0
  7 34  1  0  0  0  0
  8  7  2  0  0  0  0
  8 35  1  0  0  0  0
  9  4  1  0  0  0  0
 10  1  1  0  0  0  0
 10 11  1  0  0  0  0
 11 21  1  0  0  0  0
 12 11  1  0  0  0  0
 12 13  1  0  0  0  0
 14 20  1  0  0  0  0
 14 13  2  0  0  0  0
 15 14  1  0  0  0  0
 16 15  2  0  0  0  0
 16 17  1  0  0  0  0
 17 12  2  0  0  0  0
 18 17  1  0  0  0  0
 18 10  2  0  0  0  0
 19 16  1  0  0  0  0
 20 38  1  0  0  0  0
 21 22  1  0  0  0  0
 21 25  1  0  0  0  0
 21 39  1  1  0  0  0
 22 23  1  0  0  0  0
 23 28  1  0  0  0  0
 23 40  1  1  0  0  0
 24 41  1  6  0  0  0
 24 23  1  0  0  0  0
 24 27  1  0  0  0  0
 25 42  1  6  0  0  0
 25 24  1  0  0  0  0
 25 26  1  0  0  0  0
 26 43  1  0  0  0  0
 27 44  1  0  0  0  0
 28 29  1  0  0  0  0
 29 47  1  0  0  0  0
 30  2  1  0  0  0  0
 31  2  1  0  0  0  0
 32  5  1  0  0  0  0
 36 19  1  0  0  0  0
 37 20  1  0  0  0  0
 45 28  1  0  0  0  0
 46 28  1  0  0  0  0
M  END
>  <Pose>
1

>  <Score>
-8.22

$$$$
