
 OpenBabel03232204043D

 52 56  0  0  1  0  0  0  0  0999 V2000
   17.3860  -55.3040   31.6220 S   0  0  0  0  0  0  0  0  0  0  0  0
   17.5790  -56.8430   32.5090 C   0  0  0  0  0  0  0  0  0  0  0  0
   17.3070  -57.9810   31.9820 N   0  0  0  0  0  0  0  0  0  0  0  0
   17.4350  -59.2390   32.6220 C   0  0  0  0  0  0  0  0  0  0  0  0
   17.7220  -60.2890   32.0410 O   0  0  0  0  0  0  0  0  0  0  0  0
   17.1830  -59.1930   34.1450 C   0  0  1  0  0  0  0  0  0  0  0  0
   18.1720  -58.1440   34.5390 C   0  0  0  0  0  0  0  0  0  0  0  0
   19.0730  -58.2680   35.3710 O   0  0  0  0  0  0  0  0  0  0  0  0
   18.0450  -56.8950   33.8770 N   0  0  0  0  0  0  0  0  0  0  0  0
   18.3790  -55.7200   34.5580 C   0  0  0  0  0  0  0  0  0  0  0  0
   17.4850  -55.2620   35.5340 C   0  0  0  0  0  0  0  0  0  0  0  0
   17.7460  -54.1120   36.2470 C   0  0  0  0  0  0  0  0  0  0  0  0
   18.9140  -53.4010   35.9890 C   0  0  0  0  0  0  0  0  0  0  0  0
   19.8020  -53.8680   35.0110 C   0  0  0  0  0  0  0  0  0  0  0  0
   19.5250  -55.0170   34.3100 C   0  0  0  0  0  0  0  0  0  0  0  0
   19.3080  -51.8210   36.9440 B   0  0  0  0  0  0  0  0  0  0  0  0
   15.7840  -58.8110   34.2790 C   0  0  1  0  0  0  0  0  0  0  0  0
   14.8620  -59.9060   34.0050 N   0  0  0  0  0  4  0  0  0  0  0  0
   13.5720  -59.3800   33.5950 C   0  0  0  0  0  0  0  0  0  0  0  0
   13.3950  -57.9070   33.8550 C   0  0  0  0  0  0  0  0  0  0  0  0
   13.9610  -57.6040   35.2180 C   0  0  0  0  0  0  0  0  0  0  0  0
   15.2580  -58.1230   35.4450 C   0  0  0  0  0  0  0  0  0  0  0  0
   15.8550  -57.9250   36.6590 C   0  0  0  0  0  0  0  0  0  0  0  0
   15.1470  -57.2100   37.6220 C   0  0  0  0  0  0  0  0  0  0  0  0
   13.8890  -56.7140   37.3770 C   0  0  0  0  0  0  0  0  0  0  0  0
   13.2710  -56.9070   36.1560 C   0  0  0  0  0  0  0  0  0  0  0  0
   13.4510  -56.0580   38.5090 O   0  0  0  0  0  0  0  0  0  0  0  0
   14.3090  -56.3800   39.5760 C   0  0  0  0  0  0  0  0  0  0  0  0
   15.4740  -56.8560   38.9030 O   0  0  0  0  0  0  0  0  0  0  0  0
   17.1220  -58.4180   36.9380 O   0  0  0  0  0  0  0  0  0  0  0  0
   17.2490  -59.7590   37.4000 C   0  0  0  0  0  0  0  0  0  0  0  0
   14.6600  -60.8020   35.0910 C   0  0  0  0  0  0  0  0  0  0  0  0
   17.5260  -60.1580   34.4840 H   0  0  0  0  0  0  0  0  0  0  0  0
   16.5660  -55.7990   35.7530 H   0  0  0  0  0  0  0  0  0  0  0  0
   17.0440  -53.7780   36.9930 H   0  0  0  0  0  0  0  0  0  0  0  0
   20.7180  -53.3490   34.7790 H   0  0  0  0  0  0  0  0  0  0  0  0
   20.2000  -55.3730   33.5650 H   0  0  0  0  0  0  0  0  0  0  0  0
   15.5740  -58.1130   33.3920 H   0  0  0  0  0  0  0  0  0  0  0  0
   15.2560  -60.4320   33.1970 H   0  0  0  0  0  0  0  0  0  0  0  0
   12.7470  -59.9160   34.1080 H   0  0  0  0  0  0  0  0  0  0  0  0
   13.3940  -59.5350   32.4960 H   0  0  0  0  0  0  0  0  0  0  0  0
   13.7900  -57.2480   33.0760 H   0  0  0  0  0  0  0  0  0  0  0  0
   12.2890  -57.7250   33.9390 H   0  0  0  0  0  0  0  0  0  0  0  0
   12.2730  -56.5210   35.9450 H   0  0  0  0  0  0  0  0  0  0  0  0
   14.5480  -55.4890   40.1930 H   0  0  0  0  0  0  0  0  0  0  0  0
   13.8420  -57.1940   40.1680 H   0  0  0  0  0  0  0  0  0  0  0  0
   17.3150  -59.7210   38.5190 H   0  0  0  0  0  0  0  0  0  0  0  0
   18.1100  -60.2830   36.9840 H   0  0  0  0  0  0  0  0  0  0  0  0
   16.3340  -60.3180   37.1640 H   0  0  0  0  0  0  0  0  0  0  0  0
   13.7930  -61.4480   34.8350 H   0  0  0  0  0  0  0  0  0  0  0  0
   15.5050  -61.4850   35.2910 H   0  0  0  0  0  0  0  0  0  0  0  0
   14.3430  -60.2560   36.0240 H   0  0  0  0  0  0  0  0  0  0  0  0
  1  2  2  0  0  0  0
  2  9  1  0  0  0  0
  3  2  1  0  0  0  0
  3  4  1  0  0  0  0
  4  6  1  0  0  0  0
  5  4  2  0  0  0  0
  6 17  1  0  0  0  0
  6 33  1  1  0  0  0
  6  7  1  0  0  0  0
  7  8  2  0  0  0  0
  9  7  1  0  0  0  0
  9 10  1  0  0  0  0
 10 11  1  0  0  0  0
 11 34  1  0  0  0  0
 11 12  2  0  0  0  0
 12 35  1  0  0  0  0
 13 12  1  0  0  0  0
 13 16  1  0  0  0  0
 14 13  2  0  0  0  0
 15 10  2  0  0  0  0
 15 14  1  0  0  0  0
 17 38  1  6  0  0  0
 17 22  1  0  0  0  0
 18 17  1  0  0  0  0
 18 32  1  0  0  0  0
 19 20  1  0  0  0  0
 19 18  1  0  0  0  0
 19 40  1  0  0  0  0
 20 43  1  0  0  0  0
 20 21  1  0  0  0  0
 21 22  2  0  0  0  0
 21 26  1  0  0  0  0
 22 23  1  0  0  0  0
 23 30  1  0  0  0  0
 23 24  2  0  0  0  0
 24 29  1  0  0  0  0
 25 24  1  0  0  0  0
 25 27  1  0  0  0  0
 26 25  2  0  0  0  0
 27 28  1  0  0  0  0
 28 46  1  0  0  0  0
 28 45  1  0  0  0  0
 29 28  1  0  0  0  0
 30 31  1  0  0  0  0
 31 47  1  0  0  0  0
 32 51  1  0  0  0  0
 32 52  1  0  0  0  0
 36 14  1  0  0  0  0
 37 15  1  0  0  0  0
 39 18  1  0  0  0  0
 41 19  1  0  0  0  0
 42 20  1  0  0  0  0
 44 26  1  0  0  0  0
 48 31  1  0  0  0  0
 49 31  1  0  0  0  0
 50 32  1  0  0  0  0
M  END
>  <Pose>
1

>  <Score>
-5.32

$$$$
