
 OpenBabel03232204043D

 34 37  0  0  1  0  0  0  0  0999 V2000
   11.8810  -61.0060   34.4220 S   0  0  0  0  0  0  0  0  0  0  0  0
   13.4750  -60.6370   33.9630 C   0  0  0  0  0  0  0  0  0  0  0  0
   13.9970  -60.0350   35.0780 C   0  0  0  0  0  0  0  0  0  0  0  0
   13.1730  -59.9100   36.1430 C   0  0  0  0  0  0  0  0  0  0  0  0
   11.9030  -60.3960   36.0100 C   0  0  0  0  0  0  0  0  0  0  0  0
   13.6340  -59.2670   37.4380 C   0  0  1  0  0  0  0  0  0  0  0  0
   12.8380  -58.0010   37.7830 C   0  0  1  0  0  0  0  0  0  0  0  0
   12.6930  -59.2540   38.5600 C   0  0  0  0  0  0  0  0  0  0  0  0
   13.6940  -56.8900   38.3300 C   0  0  0  0  0  0  0  0  0  0  0  0
   14.9180  -56.5160   37.9140 N   0  0  0  0  0  0  0  0  0  0  0  0
   15.3620  -55.4820   38.6480 C   0  0  0  0  0  0  0  0  0  0  0  0
   14.3760  -55.2300   39.5250 N   0  0  0  0  0  0  0  0  0  0  0  0
   13.3950  -56.0790   39.3170 O   0  0  0  0  0  0  0  0  0  0  0  0
   16.6330  -54.7660   38.5390 C   0  0  0  0  0  0  0  0  0  0  0  0
   17.5300  -54.8880   37.5450 N   0  0  0  0  0  0  0  0  0  0  0  0
   18.5750  -54.0850   37.7690 N   0  0  0  0  0  0  0  0  0  0  0  0
   18.3560  -53.4270   38.9300 C   0  0  0  0  0  0  0  0  0  0  0  0
   17.1580  -53.8630   39.3840 N   0  0  0  0  0  0  0  0  0  0  0  0
   19.7460  -53.9370   36.9210 C   0  0  0  0  0  0  0  0  0  0  0  0
   19.5640  -52.7420   36.0700 C   0  0  0  0  0  0  0  0  0  0  0  0
   19.3690  -52.9010   34.8450 O   0  0  0  0  0  0  0  0  0  0  0  0
   19.6100  -51.4500   36.6450 N   0  0  0  0  0  0  0  0  0  0  0  0
   14.3750  -60.9670   32.2870 B   0  0  0  0  0  0  0  0  0  0  0  0
   15.0620  -59.6790   35.0570 H   0  0  0  0  0  0  0  0  0  0  0  0
   11.1070  -60.3730   36.7830 H   0  0  0  0  0  0  0  0  0  0  0  0
   14.6990  -59.2840   37.6770 H   0  0  0  0  0  0  0  0  0  0  0  0
   12.0460  -57.6830   37.1070 H   0  0  0  0  0  0  0  0  0  0  0  0
   13.1030  -59.2050   39.6020 H   0  0  0  0  0  0  0  0  0  0  0  0
   11.7080  -59.7620   38.4630 H   0  0  0  0  0  0  0  0  0  0  0  0
   19.0290  -52.7080   39.3730 H   0  0  0  0  0  0  0  0  0  0  0  0
   19.8850  -54.8700   36.3420 H   0  0  0  0  0  0  0  0  0  0  0  0
   20.6600  -53.7570   37.5330 H   0  0  0  0  0  0  0  0  0  0  0  0
   20.1100  -51.2650   37.5580 H   0  0  0  0  0  0  0  0  0  0  0  0
   19.1630  -50.6030   36.2160 H   0  0  0  0  0  0  0  0  0  0  0  0
  1  5  1  0  0  0  0
  2  1  1  0  0  0  0
  2  3  2  0  0  0  0
  3  4  1  0  0  0  0
  4  6  1  0  0  0  0
  5  4  2  0  0  0  0
  5 25  1  0  0  0  0
  6 26  1  1  0  0  0
  6  7  1  0  0  0  0
  6  8  1  0  0  0  0
  7 27  1  6  0  0  0
  7  9  1  0  0  0  0
  7  8  1  0  0  0  0
  8 28  1  0  0  0  0
  9 13  1  0  0  0  0
 10  9  2  0  0  0  0
 10 11  1  0  0  0  0
 11 12  2  0  0  0  0
 13 12  1  0  0  0  0
 14 11  1  0  0  0  0
 14 18  1  0  0  0  0
 15 16  1  0  0  0  0
 15 14  2  0  0  0  0
 16 17  1  0  0  0  0
 17 30  1  0  0  0  0
 17 18  2  0  0  0  0
 19 32  1  0  0  0  0
 19 16  1  0  0  0  0
 20 22  1  0  0  0  0
 20 19  1  0  0  0  0
 21 20  2  0  0  0  0
 22 33  1  0  0  0  0
 23  2  1  0  0  0  0
 24  3  1  0  0  0  0
 29  8  1  0  0  0  0
 31 19  1  0  0  0  0
 34 22  1  0  0  0  0
M  END
>  <Pose>
1

>  <Score>
-6.80

$$$$
