
 OpenBabel03232204043D

 39 42  0  0  1  0  0  0  0  0999 V2000
   16.0530  -53.0530   35.8940 S   0  0  0  0  0  0  0  0  0  0  0  0
   17.2230  -54.0710   35.1540 C   0  0  0  0  0  0  0  0  0  0  0  0
   18.1720  -54.1920   36.1330 C   0  0  0  0  0  0  0  0  0  0  0  0
   17.9550  -53.5470   37.2900 C   0  0  0  0  0  0  0  0  0  0  0  0
   16.8000  -52.8200   37.4010 C   0  0  0  0  0  0  0  0  0  0  0  0
   16.5760  -52.1080   38.7020 C   0  0  0  0  0  0  0  0  0  0  0  0
   16.6790  -53.0930   39.7760 N   0  0  0  0  0  4  0  0  0  0  0  0
   17.8990  -53.8400   39.7440 C   0  0  0  0  0  0  0  0  0  0  0  0
   18.7860  -53.4690   38.5610 C   0  0  0  0  0  0  0  0  0  0  0  0
   15.5810  -54.0340   39.5540 C   0  0  0  0  0  0  0  0  0  0  0  0
   19.3360  -55.0400   35.7550 C   0  0  0  0  0  0  0  0  0  0  0  0
   20.2860  -55.2340   36.5700 O   0  0  0  0  0  0  0  0  0  0  0  0
   19.3620  -55.6280   34.4640 N   0  0  0  0  0  0  0  0  0  0  0  0
   18.2050  -55.8570   33.6500 C   0  0  2  0  0  0  0  0  0  0  0  0
   17.3320  -54.7130   33.8600 N   0  0  0  0  0  0  0  0  0  0  0  0
   17.4840  -57.1010   34.0130 C   0  0  0  0  0  0  0  0  0  0  0  0
   17.4600  -58.2000   33.1780 C   0  0  0  0  0  0  0  0  0  0  0  0
   16.7970  -59.3630   33.4990 C   0  0  0  0  0  0  0  0  0  0  0  0
   16.1210  -59.4580   34.6980 C   0  0  0  0  0  0  0  0  0  0  0  0
   16.1310  -58.3760   35.5460 C   0  0  0  0  0  0  0  0  0  0  0  0
   16.7990  -57.2130   35.2170 C   0  0  0  0  0  0  0  0  0  0  0  0
   15.1770  -58.5530   37.2040 B   0  0  0  0  0  0  0  0  0  0  0  0
   15.4510  -60.6280   35.0280 O   0  0  0  0  0  0  0  0  0  0  0  0
   16.7720  -60.8660   32.3440 B   0  0  0  0  0  0  0  0  0  0  0  0
   17.2630  -51.2650   38.8400 H   0  0  0  0  0  0  0  0  0  0  0  0
   15.5260  -51.7410   38.7390 H   0  0  0  0  0  0  0  0  0  0  0  0
   16.4840  -52.6450   40.6940 H   0  0  0  0  0  0  0  0  0  0  0  0
   17.7200  -54.9490   39.6300 H   0  0  0  0  0  0  0  0  0  0  0  0
   18.5050  -53.7400   40.6580 H   0  0  0  0  0  0  0  0  0  0  0  0
   19.6570  -54.1170   38.5190 H   0  0  0  0  0  0  0  0  0  0  0  0
   19.0290  -52.3930   38.6770 H   0  0  0  0  0  0  0  0  0  0  0  0
   14.7460  -53.5630   38.9880 H   0  0  0  0  0  0  0  0  0  0  0  0
   15.9490  -54.8620   38.8800 H   0  0  0  0  0  0  0  0  0  0  0  0
   15.2560  -54.5200   40.4790 H   0  0  0  0  0  0  0  0  0  0  0  0
   20.3130  -55.9120   34.0910 H   0  0  0  0  0  0  0  0  0  0  0  0
   18.4980  -55.9110   32.5910 H   0  0  0  0  0  0  0  0  0  0  0  0
   16.7520  -54.3090   33.0970 H   0  0  0  0  0  0  0  0  0  0  0  0
   17.9840  -58.1380   32.2380 H   0  0  0  0  0  0  0  0  0  0  0  0
   16.7980  -56.3760   35.8880 H   0  0  0  0  0  0  0  0  0  0  0  0
  1  5  1  0  0  0  0
  2  1  1  0  0  0  0
  2  3  2  0  0  0  0
  3  4  1  0  0  0  0
  4  5  2  0  0  0  0
  4  9  1  0  0  0  0
  5  6  1  0  0  0  0
  6 26  1  0  0  0  0
  6 25  1  0  0  0  0
  6  7  1  0  0  0  0
  7 27  1  0  0  0  0
  8  7  1  0  0  0  0
  8 29  1  0  0  0  0
  9 31  1  0  0  0  0
  9  8  1  0  0  0  0
 10  7  1  0  0  0  0
 10 34  1  0  0  0  0
 11  3  1  0  0  0  0
 11 12  2  0  0  0  0
 13 11  1  0  0  0  0
 14 36  1  6  0  0  0
 14 15  1  0  0  0  0
 14 16  1  0  0  0  0
 14 13  1  0  0  0  0
 15  2  1  0  0  0  0
 16 21  1  0  0  0  0
 17 18  1  0  0  0  0
 17 16  2  0  0  0  0
 18 19  2  0  0  0  0
 19 23  1  0  0  0  0
 19 20  1  0  0  0  0
 20 22  1  0  0  0  0
 21 20  2  0  0  0  0
 21 39  1  0  0  0  0
 24 18  1  0  0  0  0
 28  8  1  0  0  0  0
 30  9  1  0  0  0  0
 32 10  1  0  0  0  0
 33 10  1  0  0  0  0
 35 13  1  0  0  0  0
 37 15  1  0  0  0  0
 38 17  1  0  0  0  0
M  END
>  <Pose>
1

>  <Score>
-5.21

$$$$
