
 OpenBabel03232204043D

 46 49  0  0  1  0  0  0  0  0999 V2000
   20.1590  -54.4650   34.8970 S   0  0  0  0  0  0  0  0  0  0  0  0
   19.0170  -54.6070   33.6370 C   0  0  0  0  0  0  0  0  0  0  0  0
   17.8220  -54.4850   34.2890 C   0  0  0  0  0  0  0  0  0  0  0  0
   17.8690  -54.3010   35.6330 C   0  0  0  0  0  0  0  0  0  0  0  0
   19.1130  -54.2560   36.2130 C   0  0  0  0  0  0  0  0  0  0  0  0
   19.2980  -54.0610   37.6810 C   0  0  0  0  0  0  0  0  0  0  0  0
   18.2930  -53.2620   38.2940 N   0  0  0  0  0  4  0  0  0  0  0  0
   17.1140  -53.0290   37.5330 C   0  0  0  0  0  0  0  0  0  0  0  0
   16.7000  -54.1330   36.6110 C   0  0  0  0  0  0  0  0  0  0  0  0
   17.9840  -53.7470   39.6340 C   0  0  0  0  0  0  0  0  0  0  0  0
   16.6340  -54.5680   33.3850 C   0  0  0  0  0  0  0  0  0  0  0  0
   15.4620  -54.4690   33.8760 O   0  0  0  0  0  0  0  0  0  0  0  0
   16.8200  -54.7570   31.9960 N   0  0  0  0  0  0  0  0  0  0  0  0
   17.9940  -55.4350   31.4920 C   0  0  1  0  0  0  0  0  0  0  0  0
   19.1100  -54.8100   32.2010 N   0  0  0  0  0  0  0  0  0  0  0  0
   17.8820  -56.8640   31.8850 C   0  0  0  0  0  0  0  0  0  0  0  0
   18.2060  -57.8660   30.9960 C   0  0  0  0  0  0  0  0  0  0  0  0
   18.1090  -59.1970   31.3410 C   0  0  0  0  0  0  0  0  0  0  0  0
   17.6730  -59.5430   32.6140 C   0  0  0  0  0  0  0  0  0  0  0  0
   17.3420  -58.5610   33.5230 C   0  0  0  0  0  0  0  0  0  0  0  0
   17.4480  -57.2570   33.1530 C   0  0  0  0  0  0  0  0  0  0  0  0
   16.9140  -58.9570   34.7770 O   0  0  0  0  0  0  0  0  0  0  0  0
   16.3030  -58.1440   35.7280 C   0  0  0  0  0  0  0  0  0  0  0  0
   15.1290  -58.8400   36.3820 C   0  0  0  0  0  0  0  0  0  0  0  0
   17.5670  -60.8810   32.9850 O   0  0  0  0  0  0  0  0  0  0  0  0
   18.5540  -60.5930   30.1230 B   0  0  0  0  0  0  0  0  0  0  0  0
   19.2590  -55.0820   38.1360 H   0  0  0  0  0  0  0  0  0  0  0  0
   20.3250  -53.6870   37.8550 H   0  0  0  0  0  0  0  0  0  0  0  0
   18.7330  -52.3040   38.4620 H   0  0  0  0  0  0  0  0  0  0  0  0
   17.1720  -52.0840   36.9540 H   0  0  0  0  0  0  0  0  0  0  0  0
   16.2680  -52.8790   38.2600 H   0  0  0  0  0  0  0  0  0  0  0  0
   16.5110  -55.0820   37.1380 H   0  0  0  0  0  0  0  0  0  0  0  0
   15.8190  -53.7710   36.0570 H   0  0  0  0  0  0  0  0  0  0  0  0
   17.8390  -52.9210   40.3540 H   0  0  0  0  0  0  0  0  0  0  0  0
   18.8390  -54.3810   39.9810 H   0  0  0  0  0  0  0  0  0  0  0  0
   17.0570  -54.3530   39.6460 H   0  0  0  0  0  0  0  0  0  0  0  0
   16.1040  -54.4040   31.3220 H   0  0  0  0  0  0  0  0  0  0  0  0
   18.1190  -55.3030   30.4130 H   0  0  0  0  0  0  0  0  0  0  0  0
   19.9850  -54.4910   31.7530 H   0  0  0  0  0  0  0  0  0  0  0  0
   18.5440  -57.6250   30.0090 H   0  0  0  0  0  0  0  0  0  0  0  0
   17.1980  -56.4750   33.8340 H   0  0  0  0  0  0  0  0  0  0  0  0
   17.0680  -57.8520   36.4790 H   0  0  0  0  0  0  0  0  0  0  0  0
   15.9280  -57.2070   35.2670 H   0  0  0  0  0  0  0  0  0  0  0  0
   15.0530  -59.8560   35.9440 H   0  0  0  0  0  0  0  0  0  0  0  0
   15.2320  -58.8450   37.4900 H   0  0  0  0  0  0  0  0  0  0  0  0
   14.1650  -58.3350   36.0990 H   0  0  0  0  0  0  0  0  0  0  0  0
  1  5  1  0  0  0  0
  2  3  2  0  0  0  0
  2  1  1  0  0  0  0
  3  4  1  0  0  0  0
  4  5  2  0  0  0  0
  4  9  1  0  0  0  0
  5  6  1  0  0  0  0
  6 28  1  0  0  0  0
  6 27  1  0  0  0  0
  6  7  1  0  0  0  0
  7 29  1  0  0  0  0
  7 10  1  0  0  0  0
  8 31  1  0  0  0  0
  8  7  1  0  0  0  0
  9 32  1  0  0  0  0
  9  8  1  0  0  0  0
 10 36  1  0  0  0  0
 10 35  1  0  0  0  0
 10 34  1  0  0  0  0
 11 12  2  0  0  0  0
 11  3  1  0  0  0  0
 13 11  1  0  0  0  0
 14 38  1  6  0  0  0
 14 16  1  0  0  0  0
 14 13  1  0  0  0  0
 14 15  1  0  0  0  0
 15  2  1  0  0  0  0
 16 21  1  0  0  0  0
 17 18  1  0  0  0  0
 17 16  2  0  0  0  0
 18 19  2  0  0  0  0
 19 25  1  0  0  0  0
 19 20  1  0  0  0  0
 20 22  1  0  0  0  0
 21 20  2  0  0  0  0
 21 41  1  0  0  0  0
 22 23  1  0  0  0  0
 23 24  1  0  0  0  0
 23 42  1  0  0  0  0
 24 45  1  0  0  0  0
 26 18  1  0  0  0  0
 30  8  1  0  0  0  0
 33  9  1  0  0  0  0
 37 13  1  0  0  0  0
 39 15  1  0  0  0  0
 40 17  1  0  0  0  0
 43 23  1  0  0  0  0
 44 24  1  0  0  0  0
 46 24  1  0  0  0  0
M  END
>  <Pose>
1

>  <Score>
-5.41

$$$$
