
 OpenBabel03232204043D

 40 43  0  0  1  0  0  0  0  0999 V2000
   16.9230  -58.5350   34.0080 S   0  0  0  0  0  0  0  0  0  0  0  0
   17.7740  -57.5730   32.7300 C   0  0  2  0  0  0  0  0  0  0  0  0
   18.5240  -56.6110   33.6100 C   0  0  0  0  0  0  0  0  0  0  0  0
   17.7950  -56.2840   34.7980 N   0  0  0  0  0  0  0  0  0  0  0  0
   16.8650  -57.1780   35.1720 C   0  0  2  0  0  0  0  0  0  0  0  0
   16.2470  -56.7370   36.2740 N   0  0  0  0  0  0  0  0  0  0  0  0
   16.7820  -55.5450   36.6200 C   0  0  0  0  0  0  0  0  0  0  0  0
   17.7600  -55.2460   35.7010 C   0  0  0  0  0  0  0  0  0  0  0  0
   18.5590  -54.0440   35.7240 C   0  0  0  0  0  0  0  0  0  0  0  0
   18.3210  -53.1180   36.7550 C   0  0  0  0  0  0  0  0  0  0  0  0
   19.0710  -51.9740   36.8600 C   0  0  0  0  0  0  0  0  0  0  0  0
   20.0820  -51.6610   35.9870 C   0  0  0  0  0  0  0  0  0  0  0  0
   20.3350  -52.5510   34.9690 C   0  0  0  0  0  0  0  0  0  0  0  0
   19.5710  -53.7200   34.8610 C   0  0  0  0  0  0  0  0  0  0  0  0
   20.8080  -50.4610   36.1630 N   0  0  0  0  0  0  0  0  0  0  0  0
   21.9380  -50.4720   36.6660 O   0  0  0  0  0  0  0  0  0  0  0  0
   20.2530  -49.2810   35.7710 O   0  0  0  0  0  0  0  0  0  0  0  0
   15.2010  -57.3940   36.9810 C   0  0  0  0  0  0  0  0  0  0  0  0
   15.1310  -58.7640   37.0730 C   0  0  0  0  0  0  0  0  0  0  0  0
   14.1290  -59.4250   37.7510 C   0  0  0  0  0  0  0  0  0  0  0  0
   13.1380  -58.6980   38.3730 C   0  0  0  0  0  0  0  0  0  0  0  0
   13.1750  -57.3170   38.3020 C   0  0  0  0  0  0  0  0  0  0  0  0
   14.1900  -56.6800   37.6170 C   0  0  0  0  0  0  0  0  0  0  0  0
   11.7310  -59.5800   39.3240 B   0  0  0  0  0  0  0  0  0  0  0  0
   16.7980  -56.7760   31.9000 C   0  0  0  0  0  0  0  0  0  0  0  0
   18.4550  -58.1860   32.1220 H   0  0  0  0  0  0  0  0  0  0  0  0
   19.4950  -57.0960   33.8640 H   0  0  0  0  0  0  0  0  0  0  0  0
   18.7150  -55.6770   33.0140 H   0  0  0  0  0  0  0  0  0  0  0  0
   16.4740  -54.9390   37.4920 H   0  0  0  0  0  0  0  0  0  0  0  0
   17.5290  -53.3130   37.4730 H   0  0  0  0  0  0  0  0  0  0  0  0
   18.8460  -51.2890   37.6780 H   0  0  0  0  0  0  0  0  0  0  0  0
   21.1220  -52.3510   34.2530 H   0  0  0  0  0  0  0  0  0  0  0  0
   19.8400  -54.3740   34.0660 H   0  0  0  0  0  0  0  0  0  0  0  0
   15.9210  -59.3450   36.5770 H   0  0  0  0  0  0  0  0  0  0  0  0
   14.1530  -60.5040   37.7730 H   0  0  0  0  0  0  0  0  0  0  0  0
   12.3970  -56.7270   38.7910 H   0  0  0  0  0  0  0  0  0  0  0  0
   14.2610  -55.5990   37.5330 H   0  0  0  0  0  0  0  0  0  0  0  0
   16.2430  -57.3970   31.1920 H   0  0  0  0  0  0  0  0  0  0  0  0
   16.0940  -56.2920   32.6150 H   0  0  0  0  0  0  0  0  0  0  0  0
   17.3610  -56.0010   31.3480 H   0  0  0  0  0  0  0  0  0  0  0  0
  2 26  1  6  0  0  0
  2  3  1  0  0  0  0
  2  1  1  0  0  0  0
  3 27  1  0  0  0  0
  3  4  1  0  0  0  0
  4  5  1  0  0  0  0
  4  8  1  0  0  0  0
  5  1  1  1  0  0  0
  5  6  1  0  0  0  0
  6  7  1  0  0  0  0
  6 18  1  0  0  0  0
  7 29  1  0  0  0  0
  8  9  1  0  0  0  0
  8  7  2  0  0  0  0
  9 10  1  0  0  0  0
 10 11  2  0  0  0  0
 10 30  1  0  0  0  0
 11 31  1  0  0  0  0
 12 15  1  0  0  0  0
 12 11  1  0  0  0  0
 13 12  2  0  0  0  0
 14 13  1  0  0  0  0
 14  9  2  0  0  0  0
 15 16  2  0  0  0  0
 17 15  2  0  0  0  0
 18 19  2  0  0  0  0
 18 23  1  0  0  0  0
 19 20  1  0  0  0  0
 20 35  1  0  0  0  0
 20 21  2  0  0  0  0
 21 24  1  0  0  0  0
 22 21  1  0  0  0  0
 22 36  1  0  0  0  0
 23 22  2  0  0  0  0
 25 39  1  0  0  0  0
 25  2  1  0  0  0  0
 28  3  1  0  0  0  0
 32 13  1  0  0  0  0
 33 14  1  0  0  0  0
 34 19  1  0  0  0  0
 37 23  1  0  0  0  0
 38 25  1  0  0  0  0
 40 25  1  0  0  0  0
M  END
>  <Pose>
1

>  <Score>
-7.20

$$$$
