
 OpenBabel03232204043D

 42 45  0  0  1  0  0  0  0  0999 V2000
   19.8610  -54.1090   35.1760 S   0  0  0  0  0  0  0  0  0  0  0  0
   20.0980  -52.3380   35.4950 C   0  0  0  0  0  0  0  0  0  0  0  0
   19.1820  -51.9630   36.6460 C   0  0  0  0  0  0  0  0  0  0  0  0
   19.2670  -53.0050   37.7420 C   0  0  0  0  0  0  0  0  0  0  0  0
   18.3340  -54.0610   37.3880 N   0  0  0  0  0  0  0  0  0  0  0  0
   18.5100  -54.6560   36.2050 C   0  0  2  0  0  0  0  0  0  0  0  0
   17.5380  -55.6210   36.0470 N   0  0  0  0  0  0  0  0  0  0  0  0
   16.7640  -55.6270   37.1200 C   0  0  0  0  0  0  0  0  0  0  0  0
   17.2800  -54.6380   37.9530 C   0  0  0  0  0  0  0  0  0  0  0  0
   15.6070  -56.4420   37.4570 C   0  0  0  0  0  0  0  0  0  0  0  0
   15.5420  -57.7650   36.9960 C   0  0  0  0  0  0  0  0  0  0  0  0
   14.4800  -58.5780   37.2800 C   0  0  0  0  0  0  0  0  0  0  0  0
   13.4050  -58.1660   38.0340 C   0  0  0  0  0  0  0  0  0  0  0  0
   13.4590  -56.8740   38.4890 C   0  0  0  0  0  0  0  0  0  0  0  0
   14.5370  -56.0220   38.2090 C   0  0  0  0  0  0  0  0  0  0  0  0
   12.3450  -59.0210   38.3020 O   0  0  0  0  0  0  0  0  0  0  0  0
   11.6340  -59.6320   37.2410 C   0  0  0  0  0  0  0  0  0  0  0  0
   17.4650  -56.4310   34.8760 C   0  0  0  0  0  0  0  0  0  0  0  0
   16.9780  -55.9180   33.6870 C   0  0  0  0  0  0  0  0  0  0  0  0
   16.9230  -56.6670   32.5290 C   0  0  0  0  0  0  0  0  0  0  0  0
   17.3720  -57.9720   32.5780 C   0  0  0  0  0  0  0  0  0  0  0  0
   17.8540  -58.4750   33.7670 C   0  0  0  0  0  0  0  0  0  0  0  0
   17.9190  -57.7460   34.9340 C   0  0  0  0  0  0  0  0  0  0  0  0
   17.3330  -59.0920   31.0180 B   0  0  0  0  0  0  0  0  0  0  0  0
   21.1420  -52.1410   35.8010 H   0  0  0  0  0  0  0  0  0  0  0  0
   19.8210  -51.8070   34.5670 H   0  0  0  0  0  0  0  0  0  0  0  0
   19.4180  -50.9480   37.0260 H   0  0  0  0  0  0  0  0  0  0  0  0
   18.1460  -51.9210   36.2400 H   0  0  0  0  0  0  0  0  0  0  0  0
   20.2930  -53.4680   37.6620 H   0  0  0  0  0  0  0  0  0  0  0  0
   19.0790  -52.5910   38.7360 H   0  0  0  0  0  0  0  0  0  0  0  0
   16.9230  -54.3330   38.9330 H   0  0  0  0  0  0  0  0  0  0  0  0
   16.3620  -58.1340   36.4000 H   0  0  0  0  0  0  0  0  0  0  0  0
   14.4380  -59.6170   36.9130 H   0  0  0  0  0  0  0  0  0  0  0  0
   12.6500  -56.4850   39.0840 H   0  0  0  0  0  0  0  0  0  0  0  0
   14.5230  -55.0250   38.5920 H   0  0  0  0  0  0  0  0  0  0  0  0
   10.8610  -60.3160   37.5870 H   0  0  0  0  0  0  0  0  0  0  0  0
   12.3770  -60.1500   36.5650 H   0  0  0  0  0  0  0  0  0  0  0  0
   11.1740  -58.8470   36.6220 H   0  0  0  0  0  0  0  0  0  0  0  0
   16.6160  -54.8960   33.6070 H   0  0  0  0  0  0  0  0  0  0  0  0
   16.5470  -56.2850   31.5920 H   0  0  0  0  0  0  0  0  0  0  0  0
   18.2190  -59.5100   33.8360 H   0  0  0  0  0  0  0  0  0  0  0  0
   18.3020  -58.1560   35.8600 H   0  0  0  0  0  0  0  0  0  0  0  0
  1  2  1  0  0  0  0
  2 25  1  0  0  0  0
  2  3  1  0  0  0  0
  3 27  1  0  0  0  0
  3  4  1  0  0  0  0
  4 30  1  0  0  0  0
  5  4  1  0  0  0  0
  5  9  1  0  0  0  0
  6  1  1  1  0  0  0
  6  5  1  0  0  0  0
  7  6  1  0  0  0  0
  7  8  1  0  0  0  0
  8 10  1  0  0  0  0
  8  9  2  0  0  0  0
  9 31  1  0  0  0  0
 10 15  1  0  0  0  0
 11 12  1  0  0  0  0
 11 10  2  0  0  0  0
 12 13  2  0  0  0  0
 13 16  1  0  0  0  0
 13 14  1  0  0  0  0
 14 34  1  0  0  0  0
 15 14  2  0  0  0  0
 15 35  1  0  0  0  0
 17 36  1  0  0  0  0
 17 16  1  0  0  0  0
 18 23  1  0  0  0  0
 18  7  1  0  0  0  0
 19 18  2  0  0  0  0
 20 21  2  0  0  0  0
 20 19  1  0  0  0  0
 21 22  1  0  0  0  0
 22 41  1  0  0  0  0
 22 23  2  0  0  0  0
 23 42  1  0  0  0  0
 24 21  1  0  0  0  0
 26  2  1  0  0  0  0
 28  3  1  0  0  0  0
 29  4  1  0  0  0  0
 32 11  1  0  0  0  0
 33 12  1  0  0  0  0
 37 17  1  0  0  0  0
 38 17  1  0  0  0  0
 39 19  1  0  0  0  0
 40 20  1  0  0  0  0
M  END
>  <Pose>
1

>  <Score>
-5.90

$$$$
