
 OpenBabel03232204043D

 43 46  0  0  1  0  0  0  0  0999 V2000
   17.0930  -60.1870   31.7590 S   0  0  0  0  0  0  0  0  0  0  0  0
   15.2610  -60.3310   31.7820 C   0  0  0  0  0  0  0  0  0  0  0  0
   14.6520  -59.8800   33.0420 C   0  0  0  0  0  0  0  0  0  0  0  0
   15.5110  -59.6110   34.2100 C   0  0  0  0  0  0  0  0  0  0  0  0
   16.6470  -58.8040   34.0320 N   0  0  1  0  0  0  0  0  0  0  0  0
   17.3890  -57.9220   34.8820 C   0  0  2  0  0  0  0  0  0  0  0  0
   17.8290  -56.8750   33.8830 C   0  0  0  0  0  0  0  0  0  0  0  0
   18.0350  -57.6720   32.6930 N   0  0  0  0  0  0  0  0  0  0  0  0
   17.3740  -58.7280   32.7790 C   0  0  1  0  0  0  0  0  0  0  0  0
   18.8830  -57.3070   31.5980 C   0  0  0  0  0  0  0  0  0  0  0  0
   19.1320  -55.9610   31.3740 C   0  0  0  0  0  0  0  0  0  0  0  0
   19.9290  -55.5300   30.3150 C   0  0  0  0  0  0  0  0  0  0  0  0
   20.4980  -56.4390   29.4510 C   0  0  0  0  0  0  0  0  0  0  0  0
   20.2610  -57.7760   29.6610 C   0  0  0  0  0  0  0  0  0  0  0  0
   19.4540  -58.1790   30.7320 C   0  0  0  0  0  0  0  0  0  0  0  0
   21.5840  -55.8370   27.9820 B   0  0  0  0  0  0  0  0  0  0  0  0
   18.5500  -58.5690   35.3130 O   0  0  0  0  0  0  0  0  0  0  0  0
   16.6480  -57.3270   36.0100 C   0  0  0  0  0  0  0  0  0  0  0  0
   16.9530  -56.0120   36.3490 C   0  0  0  0  0  0  0  0  0  0  0  0
   16.3130  -55.3680   37.3850 C   0  0  0  0  0  0  0  0  0  0  0  0
   15.3360  -55.9950   38.1380 C   0  0  0  0  0  0  0  0  0  0  0  0
   15.0270  -57.3000   37.8040 C   0  0  0  0  0  0  0  0  0  0  0  0
   15.6790  -57.9510   36.7520 C   0  0  0  0  0  0  0  0  0  0  0  0
   14.6910  -55.3110   39.1960 N   0  0  0  0  0  0  0  0  0  0  0  0
   14.9090  -54.1270   39.4770 O   0  0  0  0  0  0  0  0  0  0  0  0
   13.7680  -55.9820   39.9560 O   0  0  0  0  0  0  0  0  0  0  0  0
   14.8810  -59.7260   30.9070 H   0  0  0  0  0  0  0  0  0  0  0  0
   15.0370  -61.3660   31.5260 H   0  0  0  0  0  0  0  0  0  0  0  0
   14.0020  -58.9990   32.8440 H   0  0  0  0  0  0  0  0  0  0  0  0
   13.9150  -60.6870   33.3590 H   0  0  0  0  0  0  0  0  0  0  0  0
   15.8680  -60.6020   34.6310 H   0  0  0  0  0  0  0  0  0  0  0  0
   14.8610  -59.2220   35.0240 H   0  0  0  0  0  0  0  0  0  0  0  0
   16.9200  -56.2130   33.7540 H   0  0  0  0  0  0  0  0  0  0  0  0
   18.7060  -56.3150   34.2270 H   0  0  0  0  0  0  0  0  0  0  0  0
   18.6960  -55.2170   32.0260 H   0  0  0  0  0  0  0  0  0  0  0  0
   20.1040  -54.4640   30.1630 H   0  0  0  0  0  0  0  0  0  0  0  0
   20.6840  -58.4970   28.9930 H   0  0  0  0  0  0  0  0  0  0  0  0
   19.2750  -59.2450   30.8670 H   0  0  0  0  0  0  0  0  0  0  0  0
   18.7730  -59.2720   34.6820 H   0  0  0  0  0  0  0  0  0  0  0  0
   17.7220  -55.4940   35.7730 H   0  0  0  0  0  0  0  0  0  0  0  0
   16.5310  -54.3370   37.6770 H   0  0  0  0  0  0  0  0  0  0  0  0
   14.2620  -57.8160   38.3840 H   0  0  0  0  0  0  0  0  0  0  0  0
   15.4200  -58.9790   36.5120 H   0  0  0  0  0  0  0  0  0  0  0  0
  1  2  1  0  0  0  0
  2  3  1  0  0  0  0
  3 30  1  0  0  0  0
  3  4  1  0  0  0  0
  4 31  1  0  0  0  0
  4 32  1  0  0  0  0
  5  4  1  1  0  0  0
  5  6  1  0  0  0  0
  6 17  1  1  0  0  0
  6 18  1  0  0  0  0
  7 34  1  0  0  0  0
  7  6  1  0  0  0  0
  8  9  1  0  0  0  0
  8  7  1  0  0  0  0
  9  1  1  1  0  0  0
  9  5  1  0  0  0  0
 10  8  1  0  0  0  0
 11 10  1  0  0  0  0
 11 35  1  0  0  0  0
 12 11  2  0  0  0  0
 13 14  2  0  0  0  0
 13 12  1  0  0  0  0
 14 15  1  0  0  0  0
 15 38  1  0  0  0  0
 15 10  2  0  0  0  0
 16 13  1  0  0  0  0
 18 19  2  0  0  0  0
 18 23  1  0  0  0  0
 19 20  1  0  0  0  0
 20 41  1  0  0  0  0
 20 21  2  0  0  0  0
 21 24  1  0  0  0  0
 22 21  1  0  0  0  0
 22 42  1  0  0  0  0
 23 22  2  0  0  0  0
 24 25  2  0  0  0  0
 24 26  2  0  0  0  0
 27  2  1  0  0  0  0
 28  2  1  0  0  0  0
 29  3  1  0  0  0  0
 33  7  1  0  0  0  0
 36 12  1  0  0  0  0
 37 14  1  0  0  0  0
 39 17  1  0  0  0  0
 40 19  1  0  0  0  0
 43 23  1  0  0  0  0
M  END
>  <Pose>
1

>  <Score>
-6.26

$$$$
