
 OpenBabel03232204043D

 45 48  0  0  1  0  0  0  0  0999 V2000
   13.2260  -58.3060   34.9080 S   0  0  0  0  0  0  0  0  0  0  0  0
   12.4150  -59.8720   34.3830 C   0  0  0  0  0  0  0  0  0  0  0  0
   13.4040  -60.5350   33.4350 C   0  0  0  0  0  0  0  0  0  0  0  0
   14.6220  -61.0280   34.1500 C   0  0  0  0  0  0  0  0  0  0  0  0
   15.4230  -60.0050   34.7490 N   0  0  2  0  0  0  0  0  0  0  0  0
   16.8590  -59.7410   34.8840 C   0  0  1  0  0  0  0  0  0  0  0  0
   16.8230  -59.2680   36.3490 C   0  0  0  0  0  0  0  0  0  0  0  0
   15.6400  -58.4260   36.3500 N   0  0  0  0  0  0  0  0  0  0  0  0
   14.8580  -58.8640   35.4490 C   0  0  1  0  0  0  0  0  0  0  0  0
   15.4790  -57.3120   37.2560 C   0  0  0  0  0  0  0  0  0  0  0  0
   16.1970  -56.1380   37.0440 C   0  0  0  0  0  0  0  0  0  0  0  0
   16.0670  -55.0600   37.8910 C   0  0  0  0  0  0  0  0  0  0  0  0
   15.2300  -55.0740   38.9860 C   0  0  0  0  0  0  0  0  0  0  0  0
   14.5180  -56.2290   39.2040 C   0  0  0  0  0  0  0  0  0  0  0  0
   14.6530  -57.3270   38.3380 C   0  0  0  0  0  0  0  0  0  0  0  0
   15.1230  -53.9650   39.8180 O   0  0  0  0  0  0  0  0  0  0  0  0
   15.9110  -52.8120   39.7410 C   0  0  0  0  0  0  0  0  0  0  0  0
   17.5640  -60.9150   34.7550 O   0  0  0  0  0  0  0  0  0  0  0  0
   17.3220  -58.6440   34.0160 C   0  0  0  0  0  0  0  0  0  0  0  0
   16.6190  -58.1030   32.9620 C   0  0  0  0  0  0  0  0  0  0  0  0
   17.1420  -57.0630   32.2110 C   0  0  0  0  0  0  0  0  0  0  0  0
   18.3730  -56.5530   32.5060 C   0  0  0  0  0  0  0  0  0  0  0  0
   19.0900  -57.0830   33.5570 C   0  0  0  0  0  0  0  0  0  0  0  0
   18.5610  -58.1130   34.2920 C   0  0  0  0  0  0  0  0  0  0  0  0
   19.1560  -55.1120   31.5030 B   0  0  0  0  0  0  0  0  0  0  0  0
   11.4880  -59.6200   33.8780 H   0  0  0  0  0  0  0  0  0  0  0  0
   12.2740  -60.4870   35.3030 H   0  0  0  0  0  0  0  0  0  0  0  0
   13.6760  -59.7870   32.6570 H   0  0  0  0  0  0  0  0  0  0  0  0
   12.9430  -61.3830   32.9010 H   0  0  0  0  0  0  0  0  0  0  0  0
   14.2810  -61.7470   34.9260 H   0  0  0  0  0  0  0  0  0  0  0  0
   15.2480  -61.5610   33.3930 H   0  0  0  0  0  0  0  0  0  0  0  0
   16.5640  -60.1860   36.9270 H   0  0  0  0  0  0  0  0  0  0  0  0
   17.7500  -58.8070   36.6400 H   0  0  0  0  0  0  0  0  0  0  0  0
   16.8660  -56.0680   36.2070 H   0  0  0  0  0  0  0  0  0  0  0  0
   16.6260  -54.1310   37.7360 H   0  0  0  0  0  0  0  0  0  0  0  0
   13.8490  -56.3140   40.0400 H   0  0  0  0  0  0  0  0  0  0  0  0
   14.0780  -58.2210   38.5500 H   0  0  0  0  0  0  0  0  0  0  0  0
   16.1650  -52.4390   40.7740 H   0  0  0  0  0  0  0  0  0  0  0  0
   16.8660  -52.9230   39.2190 H   0  0  0  0  0  0  0  0  0  0  0  0
   15.2830  -51.9870   39.3020 H   0  0  0  0  0  0  0  0  0  0  0  0
   17.2850  -61.4490   33.9740 H   0  0  0  0  0  0  0  0  0  0  0  0
   15.6590  -58.5170   32.7480 H   0  0  0  0  0  0  0  0  0  0  0  0
   16.5740  -56.6460   31.3880 H   0  0  0  0  0  0  0  0  0  0  0  0
   20.0700  -56.6830   33.7990 H   0  0  0  0  0  0  0  0  0  0  0  0
   19.1620  -58.5020   35.1180 H   0  0  0  0  0  0  0  0  0  0  0  0
  2  1  1  0  0  0  0
  2 27  1  0  0  0  0
  3  4  1  0  0  0  0
  3  2  1  0  0  0  0
  4 30  1  0  0  0  0
  5  4  1  1  0  0  0
  5  6  1  0  0  0  0
  5  9  1  0  0  0  0
  6 18  1  6  0  0  0
  6  7  1  0  0  0  0
  7  8  1  0  0  0  0
  7 33  1  0  0  0  0
  7 32  1  0  0  0  0
  8 10  1  0  0  0  0
  9  1  1  6  0  0  0
  9  8  1  0  0  0  0
 10 15  1  0  0  0  0
 11 10  2  0  0  0  0
 11 12  1  0  0  0  0
 12 13  2  0  0  0  0
 13 14  1  0  0  0  0
 13 16  1  0  0  0  0
 14 36  1  0  0  0  0
 15 37  1  0  0  0  0
 15 14  2  0  0  0  0
 17 16  1  0  0  0  0
 17 38  1  0  0  0  0
 19 24  1  0  0  0  0
 19  6  1  0  0  0  0
 20 19  2  0  0  0  0
 21 22  2  0  0  0  0
 21 20  1  0  0  0  0
 22 23  1  0  0  0  0
 23 44  1  0  0  0  0
 23 24  2  0  0  0  0
 24 45  1  0  0  0  0
 25 22  1  0  0  0  0
 26  2  1  0  0  0  0
 28  3  1  0  0  0  0
 29  3  1  0  0  0  0
 31  4  1  0  0  0  0
 34 11  1  0  0  0  0
 35 12  1  0  0  0  0
 39 17  1  0  0  0  0
 40 17  1  0  0  0  0
 41 18  1  0  0  0  0
 42 20  1  0  0  0  0
 43 21  1  0  0  0  0
M  END
>  <Pose>
1

>  <Score>
-4.32

$$$$
