
 OpenBabel03232204043D

 41 44  0  0  1  0  0  0  0  0999 V2000
   18.3480  -55.0320   31.5580 S   0  0  0  0  0  0  0  0  0  0  0  0
   18.8000  -55.9140   30.0380 C   0  0  0  0  0  0  0  0  0  0  0  0
   19.2360  -57.3170   30.4730 C   0  0  0  0  0  0  0  0  0  0  0  0
   18.0070  -58.0300   31.0590 C   0  0  0  0  0  0  0  0  0  0  0  0
   17.8850  -57.6250   32.4650 N   0  0  1  0  0  0  0  0  0  0  0  0
   17.5900  -58.3240   33.6490 C   0  0  2  0  0  0  0  0  0  0  0  0
   17.9800  -57.3680   34.7710 C   0  0  0  0  0  0  0  0  0  0  0  0
   18.2250  -56.1250   34.1070 N   0  0  0  0  0  0  0  0  0  0  0  0
   18.1360  -56.2800   32.8490 C   0  0  1  0  0  0  0  0  0  0  0  0
   18.5660  -54.9280   34.8250 C   0  0  0  0  0  0  0  0  0  0  0  0
   17.8590  -54.6010   35.9370 C   0  0  0  0  0  0  0  0  0  0  0  0
   18.2290  -53.4530   36.6300 C   0  0  0  0  0  0  0  0  0  0  0  0
   19.2740  -52.6470   36.2370 C   0  0  0  0  0  0  0  0  0  0  0  0
   19.9610  -53.0190   35.1000 C   0  0  0  0  0  0  0  0  0  0  0  0
   19.6220  -54.1460   34.3910 C   0  0  0  0  0  0  0  0  0  0  0  0
   18.4660  -59.4250   33.7710 O   0  0  0  0  0  0  0  0  0  0  0  0
   16.2240  -58.7900   33.8790 C   0  0  0  0  0  0  0  0  0  0  0  0
   15.9950  -60.1510   33.6780 C   0  0  0  0  0  0  0  0  0  0  0  0
   14.7710  -60.7600   33.8830 C   0  0  0  0  0  0  0  0  0  0  0  0
   13.7030  -60.0170   34.3050 C   0  0  0  0  0  0  0  0  0  0  0  0
   13.9100  -58.6640   34.5100 C   0  0  0  0  0  0  0  0  0  0  0  0
   15.1490  -58.0640   34.3010 C   0  0  0  0  0  0  0  0  0  0  0  0
   11.9720  -60.8070   34.6220 B   0  0  0  0  0  0  0  0  0  0  0  0
   17.9070  -55.9770   29.3950 H   0  0  0  0  0  0  0  0  0  0  0  0
   19.6620  -55.4190   29.5410 H   0  0  0  0  0  0  0  0  0  0  0  0
   19.6040  -57.8710   29.6130 H   0  0  0  0  0  0  0  0  0  0  0  0
   20.0160  -57.2010   31.2460 H   0  0  0  0  0  0  0  0  0  0  0  0
   17.1200  -57.8180   30.4720 H   0  0  0  0  0  0  0  0  0  0  0  0
   18.2330  -59.1050   30.9780 H   0  0  0  0  0  0  0  0  0  0  0  0
   18.8970  -57.7270   35.2740 H   0  0  0  0  0  0  0  0  0  0  0  0
   17.1250  -57.2210   35.4760 H   0  0  0  0  0  0  0  0  0  0  0  0
   17.0060  -55.1890   36.3220 H   0  0  0  0  0  0  0  0  0  0  0  0
   17.6600  -53.2010   37.5060 H   0  0  0  0  0  0  0  0  0  0  0  0
   19.5570  -51.7460   36.8020 H   0  0  0  0  0  0  0  0  0  0  0  0
   20.7930  -52.4020   34.7610 H   0  0  0  0  0  0  0  0  0  0  0  0
   20.1570  -54.4610   33.4830 H   0  0  0  0  0  0  0  0  0  0  0  0
   19.1820  -59.2830   33.0990 H   0  0  0  0  0  0  0  0  0  0  0  0
   16.8510  -60.7320   33.3380 H   0  0  0  0  0  0  0  0  0  0  0  0
   14.6420  -61.8360   33.7080 H   0  0  0  0  0  0  0  0  0  0  0  0
   13.0610  -58.0840   34.8490 H   0  0  0  0  0  0  0  0  0  0  0  0
   15.2790  -56.9960   34.4630 H   0  0  0  0  0  0  0  0  0  0  0  0
  2  3  1  0  0  0  0
  2  1  1  0  0  0  0
  3  4  1  0  0  0  0
  3 27  1  0  0  0  0
  5  4  1  1  0  0  0
  5  9  1  0  0  0  0
  5  6  1  0  0  0  0
  6 16  1  1  0  0  0
  6 17  1  0  0  0  0
  6  7  1  0  0  0  0
  7 30  1  0  0  0  0
  7 31  1  0  0  0  0
  8  7  1  0  0  0  0
  8 10  1  0  0  0  0
  9  1  1  6  0  0  0
  9  8  1  0  0  0  0
 10 11  1  0  0  0  0
 11 32  1  0  0  0  0
 11 12  2  0  0  0  0
 12 33  1  0  0  0  0
 13 12  1  0  0  0  0
 13 34  1  0  0  0  0
 14 13  2  0  0  0  0
 15 10  2  0  0  0  0
 15 14  1  0  0  0  0
 17 22  1  0  0  0  0
 18 17  2  0  0  0  0
 18 19  1  0  0  0  0
 19 20  2  0  0  0  0
 20 21  1  0  0  0  0
 20 23  1  0  0  0  0
 21 40  1  0  0  0  0
 22 41  1  0  0  0  0
 22 21  2  0  0  0  0
 24  2  1  0  0  0  0
 25  2  1  0  0  0  0
 26  3  1  0  0  0  0
 28  4  1  0  0  0  0
 29  4  1  0  0  0  0
 35 14  1  0  0  0  0
 36 15  1  0  0  0  0
 37 16  1  0  0  0  0
 38 18  1  0  0  0  0
 39 19  1  0  0  0  0
M  END
>  <Pose>
1

>  <Score>
-5.49

$$$$
