
 OpenBabel03232204043D

 25 28  0  0  0  0  0  0  0  0999 V2000
   17.2210  -52.6350   38.1790 S   0  0  0  0  0  0  0  0  0  0  0  0
   16.0400  -53.5870   38.9840 C   0  0  0  0  0  0  0  0  0  0  0  0
   16.0630  -54.7010   38.2530 N   0  0  0  0  0  0  0  0  0  0  0  0
   15.1290  -55.5130   38.8530 C   0  0  0  0  0  0  0  0  0  0  0  0
   14.5920  -54.8790   39.8940 N   0  0  0  0  0  0  0  0  0  0  0  0
   15.1320  -53.6830   40.0070 N   0  0  0  0  0  0  0  0  0  0  0  0
   14.7630  -56.8790   38.4260 C   0  0  0  0  0  0  0  0  0  0  0  0
   15.6800  -57.7120   37.8990 N   0  0  0  0  0  0  0  0  0  0  0  0
   15.3320  -58.9600   37.5120 C   0  0  0  0  0  0  0  0  0  0  0  0
   14.0420  -59.3930   37.6520 C   0  0  0  0  0  0  0  0  0  0  0  0
   13.1460  -58.5570   38.1770 N   0  0  0  0  0  0  0  0  0  0  0  0
   13.4660  -57.3050   38.5720 C   0  0  0  0  0  0  0  0  0  0  0  0
   16.8560  -54.7740   37.2610 N   0  0  0  0  0  0  0  0  0  0  0  0
   17.6500  -53.7680   36.9510 C   0  0  0  0  0  0  0  0  0  0  0  0
   18.6300  -53.6340   35.8680 C   0  0  0  0  0  0  0  0  0  0  0  0
   19.4360  -52.5900   35.6420 N   0  0  0  0  0  0  0  0  0  0  0  0
   20.1890  -52.8400   34.5590 N   0  0  0  0  0  0  0  0  0  0  0  0
   19.8660  -54.0570   34.0780 C   0  0  0  0  0  0  0  0  0  0  0  0
   18.8690  -54.5630   34.9160 C   0  0  0  0  0  0  0  0  0  0  0  0
   18.0600  -56.2510   34.6850 B   0  0  0  0  0  0  0  0  0  0  0  0
   16.0880  -59.5860   37.0990 H   0  0  0  0  0  0  0  0  0  0  0  0
   13.7700  -60.3760   37.3480 H   0  0  0  0  0  0  0  0  0  0  0  0
   12.7240  -56.6280   39.0000 H   0  0  0  0  0  0  0  0  0  0  0  0
   20.9030  -52.1840   34.1670 H   0  0  0  0  0  0  0  0  0  0  0  0
   20.3250  -54.5010   33.2090 H   0  0  0  0  0  0  0  0  0  0  0  0
  1  2  1  0  0  0  0
  2  6  2  0  0  0  0
  3  4  1  0  0  0  0
  3  2  1  0  0  0  0
  4  5  2  0  0  0  0
  5  6  1  0  0  0  0
  7 12  1  0  0  0  0
  7  4  1  0  0  0  0
  8  7  2  0  0  0  0
  9 10  2  0  0  0  0
  9  8  1  0  0  0  0
 10 11  1  0  0  0  0
 11 12  2  0  0  0  0
 12 23  1  0  0  0  0
 13  3  1  0  0  0  0
 14 13  2  0  0  0  0
 14  1  1  0  0  0  0
 15 14  1  0  0  0  0
 16 15  2  0  0  0  0
 17 16  1  0  0  0  0
 18 17  1  0  0  0  0
 18 19  2  0  0  0  0
 19 15  1  0  0  0  0
 20 19  1  0  0  0  0
 21  9  1  0  0  0  0
 22 10  1  0  0  0  0
 24 17  1  0  0  0  0
 25 18  1  0  0  0  0
M  END
>  <Pose>
1

>  <Score>
-7.82

$$$$
