
 OpenBabel03232204043D

 45 49  0  0  1  0  0  0  0  0999 V2000
   16.5830  -59.5730   29.4000 S   0  0  0  0  0  0  0  0  0  0  0  0
   16.7680  -59.6700   31.1730 C   0  0  0  0  0  0  0  0  0  0  0  0
   17.7240  -59.2740   31.9490 N   0  0  0  0  0  0  0  0  0  0  0  0
   17.6170  -59.4780   33.3770 C   0  0  0  0  0  0  0  0  0  0  0  0
   18.5590  -59.6380   34.1510 O   0  0  0  0  0  0  0  0  0  0  0  0
   16.2010  -59.4920   33.9510 C   0  0  2  0  0  0  0  0  0  0  0  0
   15.5370  -60.5190   33.0870 C   0  0  0  0  0  0  0  0  0  0  0  0
   14.9370  -61.5310   33.5500 O   0  0  0  0  0  0  0  0  0  0  0  0
   15.6050  -60.3160   31.6450 N   0  0  0  0  0  0  0  0  0  0  0  0
   14.6900  -60.6830   30.6960 N   0  0  0  0  0  0  0  0  0  0  0  0
   14.9920  -60.3840   29.3500 C   0  0  0  0  0  0  0  0  0  0  0  0
   14.2740  -60.6330   28.2590 C   0  0  0  0  0  0  0  0  0  0  0  0
   15.6090  -58.1230   33.7740 C   0  0  1  0  0  0  0  0  0  0  0  0
   14.5080  -57.7340   34.6770 C   0  0  2  0  0  0  0  0  0  0  0  0
   14.1650  -58.6380   35.7640 C   0  0  0  0  0  0  0  0  0  0  0  0
   14.5560  -58.3850   36.9540 O   0  0  0  0  0  0  0  0  0  0  0  0
   13.3780  -59.8360   35.5380 N   0  0  0  0  0  0  0  0  0  0  0  0
   13.3410  -60.9670   36.2870 N   0  0  0  0  0  0  0  0  0  0  0  0
   12.4760  -62.0050   35.8580 C   0  0  0  0  0  0  0  0  0  0  0  0
   12.2490  -63.1840   36.3950 C   0  0  0  0  0  0  0  0  0  0  0  0
   11.7140  -61.3730   34.3660 S   0  0  0  0  0  0  0  0  0  0  0  0
   12.5510  -59.7980   34.3970 C   0  0  0  0  0  0  0  0  0  0  0  0
   12.4750  -58.7950   33.5960 N   0  0  0  0  0  0  0  0  0  0  0  0
   13.2580  -57.6110   33.8240 C   0  0  0  0  0  0  0  0  0  0  0  0
   12.9830  -56.4910   33.3700 O   0  0  0  0  0  0  0  0  0  0  0  0
   16.6650  -57.0700   33.7710 C   0  0  0  0  0  0  0  0  0  0  0  0
   16.9230  -56.3210   32.6460 C   0  0  0  0  0  0  0  0  0  0  0  0
   17.8960  -55.3490   32.6380 C   0  0  0  0  0  0  0  0  0  0  0  0
   18.6330  -55.1160   33.7770 C   0  0  0  0  0  0  0  0  0  0  0  0
   18.4040  -55.8550   34.9410 C   0  0  0  0  0  0  0  0  0  0  0  0
   17.4190  -56.8200   34.9080 C   0  0  0  0  0  0  0  0  0  0  0  0
   19.9930  -53.7720   33.7980 B   0  0  0  0  0  0  0  0  0  0  0  0
   16.2720  -59.8260   34.9800 H   0  0  0  0  0  0  0  0  0  0  0  0
   13.7640  -61.1930   30.9200 H   0  0  0  0  0  0  0  0  0  0  0  0
   14.6710  -60.3270   27.3040 H   0  0  0  0  0  0  0  0  0  0  0  0
   13.3320  -61.1200   28.2930 H   0  0  0  0  0  0  0  0  0  0  0  0
   15.1690  -58.1120   32.7240 H   0  0  0  0  0  0  0  0  0  0  0  0
   14.6530  -56.7200   35.1410 H   0  0  0  0  0  0  0  0  0  0  0  0
   13.9150  -61.1360   37.1850 H   0  0  0  0  0  0  0  0  0  0  0  0
   11.5540  -63.8460   35.9250 H   0  0  0  0  0  0  0  0  0  0  0  0
   12.7440  -63.4960   37.2920 H   0  0  0  0  0  0  0  0  0  0  0  0
   16.3750  -56.4600   31.7230 H   0  0  0  0  0  0  0  0  0  0  0  0
   18.1020  -54.7590   31.7620 H   0  0  0  0  0  0  0  0  0  0  0  0
   18.9820  -55.6750   35.8430 H   0  0  0  0  0  0  0  0  0  0  0  0
   17.1840  -57.4360   35.7790 H   0  0  0  0  0  0  0  0  0  0  0  0
  1  2  1  0  0  0  0
  2  9  1  0  0  0  0
  2  3  2  0  0  0  0
  3  4  1  0  0  0  0
  4  6  1  0  0  0  0
  4  5  2  0  0  0  0
  6 33  1  1  0  0  0
  7  8  2  0  0  0  0
  7  6  1  0  0  0  0
  9  7  1  0  0  0  0
 10 34  1  0  0  0  0
 10  9  1  0  0  0  0
 11  1  1  0  0  0  0
 11 10  1  0  0  0  0
 12 36  1  0  0  0  0
 12 11  2  0  0  0  0
 13 37  1  6  0  0  0
 13  6  1  0  0  0  0
 13 14  1  0  0  0  0
 14 38  1  1  0  0  0
 14 15  1  0  0  0  0
 15 16  2  0  0  0  0
 17 15  1  0  0  0  0
 17 18  1  0  0  0  0
 18 39  1  0  0  0  0
 19 18  1  0  0  0  0
 19 20  2  0  0  0  0
 20 41  1  0  0  0  0
 21 22  1  0  0  0  0
 21 19  1  0  0  0  0
 22 17  1  0  0  0  0
 23 24  1  0  0  0  0
 23 22  2  0  0  0  0
 24 14  1  0  0  0  0
 25 24  2  0  0  0  0
 26 13  1  0  0  0  0
 26 31  1  0  0  0  0
 27 26  2  0  0  0  0
 28 27  1  0  0  0  0
 28 29  2  0  0  0  0
 29 32  1  0  0  0  0
 29 30  1  0  0  0  0
 30 44  1  0  0  0  0
 31 30  2  0  0  0  0
 31 45  1  0  0  0  0
 35 12  1  0  0  0  0
 40 20  1  0  0  0  0
 42 27  1  0  0  0  0
 43 28  1  0  0  0  0
M  END
>  <Pose>
1

>  <Score>
-6.19

$$$$
