
 OpenBabel03232204043D

 40 43  0  0  1  0  0  0  0  0999 V2000
   15.8380  -58.2660   36.0690 S   0  0  0  0  0  0  0  0  0  0  0  0
   14.6860  -57.8080   37.3570 C   0  0  1  0  0  0  0  0  0  0  0  0
   13.6690  -58.2480   38.0250 N   0  0  0  0  0  0  0  0  0  0  0  0
   13.2110  -57.2960   38.9650 C   0  0  0  0  0  0  0  0  0  0  0  0
   14.1270  -56.1280   38.7980 C   0  0  0  0  0  0  0  0  0  0  0  0
   15.0840  -56.5130   37.7330 N   0  0  0  0  0  0  0  0  0  0  0  0
   16.1850  -55.9790   37.0540 C   0  0  0  0  0  0  0  0  0  0  0  0
   16.7440  -56.7270   36.1300 C   0  0  0  0  0  0  0  0  0  0  0  0
   16.7700  -54.6240   37.3200 C   0  0  0  0  0  0  0  0  0  0  0  0
   17.8470  -54.1520   36.6030 C   0  0  0  0  0  0  0  0  0  0  0  0
   18.4250  -52.9180   36.8090 C   0  0  0  0  0  0  0  0  0  0  0  0
   17.9280  -52.0780   37.7790 C   0  0  0  0  0  0  0  0  0  0  0  0
   16.8600  -52.5240   38.5050 C   0  0  0  0  0  0  0  0  0  0  0  0
   16.2760  -53.7860   38.2870 C   0  0  0  0  0  0  0  0  0  0  0  0
   13.1190  -59.5940   37.7880 C   0  0  0  0  0  0  0  0  0  0  0  0
   11.6860  -59.5410   38.1400 C   0  0  0  0  0  0  0  0  0  0  0  0
   10.8030  -59.4850   37.2610 O   0  0  0  0  0  0  0  0  0  0  0  0
   11.2770  -59.5540   39.5370 C   0  0  0  0  0  0  0  0  0  0  0  0
   10.2630  -58.7120   39.9970 C   0  0  0  0  0  0  0  0  0  0  0  0
    9.8600  -58.6970   41.3190 C   0  0  0  0  0  0  0  0  0  0  0  0
   10.4950  -59.5480   42.1850 C   0  0  0  0  0  0  0  0  0  0  0  0
   11.5040  -60.4020   41.7790 C   0  0  0  0  0  0  0  0  0  0  0  0
   11.8920  -60.3980   40.4380 C   0  0  0  0  0  0  0  0  0  0  0  0
    9.9280  -59.5210   44.0170 B   0  0  0  0  0  0  0  0  0  0  0  0
   13.2040  -57.6920   40.0190 H   0  0  0  0  0  0  0  0  0  0  0  0
   12.1330  -57.0520   38.7700 H   0  0  0  0  0  0  0  0  0  0  0  0
   14.6620  -56.0000   39.7630 H   0  0  0  0  0  0  0  0  0  0  0  0
   13.5000  -55.2740   38.4960 H   0  0  0  0  0  0  0  0  0  0  0  0
   17.6120  -56.4990   35.4830 H   0  0  0  0  0  0  0  0  0  0  0  0
   18.2940  -54.7610   35.8200 H   0  0  0  0  0  0  0  0  0  0  0  0
   19.2680  -52.5990   36.2170 H   0  0  0  0  0  0  0  0  0  0  0  0
   18.3820  -51.1150   37.9390 H   0  0  0  0  0  0  0  0  0  0  0  0
   16.4210  -51.9050   39.2870 H   0  0  0  0  0  0  0  0  0  0  0  0
   15.4390  -54.0830   38.8840 H   0  0  0  0  0  0  0  0  0  0  0  0
   13.2100  -59.7230   36.6710 H   0  0  0  0  0  0  0  0  0  0  0  0
   13.6900  -60.3580   38.3110 H   0  0  0  0  0  0  0  0  0  0  0  0
    9.7840  -58.0580   39.2970 H   0  0  0  0  0  0  0  0  0  0  0  0
    9.0870  -58.0530   41.6680 H   0  0  0  0  0  0  0  0  0  0  0  0
   12.0030  -61.0680   42.4550 H   0  0  0  0  0  0  0  0  0  0  0  0
   12.6830  -61.0760   40.1510 H   0  0  0  0  0  0  0  0  0  0  0  0
  1  8  1  0  0  0  0
  2  1  1  1  0  0  0
  2  6  1  0  0  0  0
  2  3  1  0  0  0  0
  3  4  1  0  0  0  0
  4 25  1  0  0  0  0
  5  4  1  0  0  0  0
  5 27  1  0  0  0  0
  6  5  1  0  0  0  0
  7  9  1  0  0  0  0
  7  6  1  0  0  0  0
  8  7  2  0  0  0  0
  9 14  1  0  0  0  0
 10 11  1  0  0  0  0
 10  9  2  0  0  0  0
 11 12  2  0  0  0  0
 12 32  1  0  0  0  0
 12 13  1  0  0  0  0
 13 33  1  0  0  0  0
 14 13  2  0  0  0  0
 14 34  1  0  0  0  0
 15  3  1  0  0  0  0
 15 16  1  0  0  0  0
 15 36  1  0  0  0  0
 16 18  1  0  0  0  0
 17 16  2  0  0  0  0
 18 19  2  0  0  0  0
 18 23  1  0  0  0  0
 19 20  1  0  0  0  0
 20 38  1  0  0  0  0
 20 21  2  0  0  0  0
 21 24  1  0  0  0  0
 22 21  1  0  0  0  0
 22 39  1  0  0  0  0
 23 22  2  0  0  0  0
 26  4  1  0  0  0  0
 28  5  1  0  0  0  0
 29  8  1  0  0  0  0
 30 10  1  0  0  0  0
 31 11  1  0  0  0  0
 35 15  1  0  0  0  0
 37 19  1  0  0  0  0
 40 23  1  0  0  0  0
M  END
>  <Pose>
1

>  <Score>
-5.65

$$$$
