
 OpenBabel03232204043D

 43 46  0  0  1  0  0  0  0  0999 V2000
   19.7970  -51.5930   36.2510 Cl  0  0  0  0  0  0  0  0  0  0  0  0
   19.0270  -53.1230   35.7830 C   0  0  0  0  0  0  0  0  0  0  0  0
   18.0670  -53.6520   36.6610 C   0  0  0  0  0  0  0  0  0  0  0  0
   17.4750  -54.8260   36.2970 C   0  0  0  0  0  0  0  0  0  0  0  0
   17.8220  -55.4480   35.1100 C   0  0  0  0  0  0  0  0  0  0  0  0
   18.7670  -54.9280   34.2430 C   0  0  0  0  0  0  0  0  0  0  0  0
   19.3820  -53.7320   34.5980 C   0  0  0  0  0  0  0  0  0  0  0  0
   17.8700  -52.9540   37.9800 C   0  0  2  0  0  0  0  0  0  0  0  0
   19.0250  -53.3520   38.7770 N   0  0  0  0  0  0  0  0  0  0  0  0
   18.8360  -54.1330   39.9070 C   0  0  0  0  0  0  0  0  0  0  0  0
   17.6180  -55.0290   39.9950 C   0  0  0  0  0  0  0  0  0  0  0  0
   16.5270  -54.5690   39.2520 N   0  0  0  0  0  0  0  0  0  0  0  0
   16.6120  -53.2760   38.6440 C   0  0  0  0  0  0  0  0  0  0  0  0
   15.3120  -55.2660   39.0260 C   0  0  0  0  0  0  0  0  0  0  0  0
   14.3800  -54.9140   39.8810 O   0  0  0  0  0  0  0  0  0  0  0  0
   14.9090  -56.2390   38.0760 C   0  0  0  0  0  0  0  0  0  0  0  0
   13.5700  -56.6950   38.1450 C   0  0  0  0  0  0  0  0  0  0  0  0
   13.0690  -57.5060   37.2130 N   0  0  0  0  0  0  0  0  0  0  0  0
   13.7990  -57.9250   36.1780 C   0  0  0  0  0  0  0  0  0  0  0  0
   15.1000  -57.5170   36.0570 C   0  0  0  0  0  0  0  0  0  0  0  0
   15.6620  -56.6700   37.0100 C   0  0  0  0  0  0  0  0  0  0  0  0
   15.8820  -57.9320   34.9330 N   0  0  0  0  0  0  0  0  0  0  0  0
   15.2730  -58.7730   33.9530 C   0  0  0  0  0  0  0  0  0  0  0  0
   15.6480  -58.8570   32.7650 O   0  0  0  0  0  0  0  0  0  0  0  0
   14.1080  -59.6000   34.3950 C   0  0  0  0  0  0  0  0  0  0  0  0
   13.2570  -58.7800   35.2110 O   0  0  0  0  0  0  0  0  0  0  0  0
   16.7320  -55.3090   36.9580 H   0  0  0  0  0  0  0  0  0  0  0  0
   17.3290  -56.4020   34.8460 H   0  0  0  0  0  0  0  0  0  0  0  0
   19.0030  -55.4580   33.3090 H   0  0  0  0  0  0  0  0  0  0  0  0
   20.1200  -53.2780   33.9600 H   0  0  0  0  0  0  0  0  0  0  0  0
   18.0010  -51.8590   37.7830 H   0  0  0  0  0  0  0  0  0  0  0  0
   19.7910  -53.6910   38.1600 H   0  0  0  0  0  0  0  0  0  0  0  0
   19.7380  -54.8320   39.9980 H   0  0  0  0  0  0  0  0  0  0  0  0
   18.8890  -53.5010   40.8480 H   0  0  0  0  0  0  0  0  0  0  0  0
   17.2260  -54.8610   41.1270 H   0  0  0  0  0  0  0  0  0  0  0  0
   17.8900  -56.0810   40.0140 H   0  0  0  0  0  0  0  0  0  0  0  0
   15.7150  -53.1230   37.9730 H   0  0  0  0  0  0  0  0  0  0  0  0
   16.4190  -52.4740   39.4570 H   0  0  0  0  0  0  0  0  0  0  0  0
   12.9600  -56.3660   38.9830 H   0  0  0  0  0  0  0  0  0  0  0  0
   16.6470  -56.3760   36.8290 H   0  0  0  0  0  0  0  0  0  0  0  0
   16.8620  -57.6350   34.8130 H   0  0  0  0  0  0  0  0  0  0  0  0
   14.4020  -60.4630   34.9970 H   0  0  0  0  0  0  0  0  0  0  0  0
   13.4910  -59.9430   33.5460 H   0  0  0  0  0  0  0  0  0  0  0  0
  2  1  1  0  0  0  0
  2  3  1  0  0  0  0
  3  8  1  0  0  0  0
  4  3  2  0  0  0  0
  4 27  1  0  0  0  0
  5  4  1  0  0  0  0
  6  7  1  0  0  0  0
  6  5  2  0  0  0  0
  7  2  2  0  0  0  0
  8 31  1  6  0  0  0
  8 13  1  0  0  0  0
  8  9  1  0  0  0  0
  9 10  1  0  0  0  0
 10 11  1  0  0  0  0
 10 33  1  0  0  0  0
 10 34  1  0  0  0  0
 11 36  1  0  0  0  0
 11 35  1  0  0  0  0
 12 11  1  0  0  0  0
 13 12  1  0  0  0  0
 13 38  1  0  0  0  0
 14 12  1  0  0  0  0
 14 15  2  0  0  0  0
 16 17  2  0  0  0  0
 16 14  1  0  0  0  0
 17 39  1  0  0  0  0
 18 17  1  0  0  0  0
 19 18  2  0  0  0  0
 20 19  1  0  0  0  0
 20 21  2  0  0  0  0
 21 16  1  0  0  0  0
 22 20  1  0  0  0  0
 23 25  1  0  0  0  0
 23 22  1  0  0  0  0
 24 23  2  0  0  0  0
 25 42  1  0  0  0  0
 25 26  1  0  0  0  0
 26 19  1  0  0  0  0
 28  5  1  0  0  0  0
 29  6  1  0  0  0  0
 30  7  1  0  0  0  0
 32  9  1  0  0  0  0
 37 13  1  0  0  0  0
 40 21  1  0  0  0  0
 41 22  1  0  0  0  0
 43 25  1  0  0  0  0
M  END
>  <Pose>
1

>  <Score>
-6.33

$$$$
