
 OpenBabel03232204043D

 53 56  0  0  0  0  0  0  0  0999 V2000
   10.5740  -59.6880   42.9260 B   0  0  0  0  0  0  0  0  0  0  0  0
    9.9210  -59.7050   41.1390 C   0  0  0  0  0  0  0  0  0  0  0  0
   10.7550  -59.9770   40.0820 C   0  0  0  0  0  0  0  0  0  0  0  0
   10.2670  -59.9890   38.7760 C   0  0  0  0  0  0  0  0  0  0  0  0
    8.9400  -59.7200   38.6110 C   0  0  0  0  0  0  0  0  0  0  0  0
    8.0890  -59.4440   39.6810 C   0  0  0  0  0  0  0  0  0  0  0  0
    8.5770  -59.4350   40.9520 C   0  0  0  0  0  0  0  0  0  0  0  0
   11.1630  -60.2620   37.6690 C   0  0  0  0  0  0  0  0  0  0  0  0
   11.1230  -61.3730   36.9770 C   0  0  0  0  0  0  0  0  0  0  0  0
   12.1320  -59.2560   37.3040 N   0  0  0  0  0  0  0  0  0  0  0  0
   13.4840  -59.5650   37.4510 N   0  0  0  0  0  0  0  0  0  0  0  0
   14.5070  -58.7100   36.9780 C   0  0  0  0  0  0  0  0  0  0  0  0
   15.1920  -59.0690   35.9940 O   0  0  0  0  0  0  0  0  0  0  0  0
   14.7960  -57.4250   37.5890 C   0  0  0  0  0  0  0  0  0  0  0  0
   14.1020  -56.9030   38.6080 N   0  0  0  0  0  0  0  0  0  0  0  0
   14.6430  -55.7420   38.8730 N   0  0  0  0  0  0  0  0  0  0  0  0
   15.6640  -55.5060   38.0530 N   0  0  0  0  0  0  0  0  0  0  0  0
   15.8110  -56.5270   37.2230 C   0  0  0  0  0  0  0  0  0  0  0  0
   16.7640  -56.8170   36.1760 C   0  0  0  0  0  0  0  0  0  0  0  0
   16.5660  -56.1270   34.9160 N   0  0  0  0  0  0  0  0  0  0  0  0
   17.8320  -55.6130   34.4030 C   0  0  0  0  0  0  0  0  0  0  0  0
   18.9250  -56.6590   34.4480 C   0  0  0  0  0  0  0  0  0  0  0  0
   18.4970  -57.8870   33.6650 C   0  0  0  0  0  0  0  0  0  0  0  0
   17.1380  -57.6910   33.0570 C   0  0  0  0  0  0  0  0  0  0  0  0
   16.1010  -57.0780   33.9110 C   0  0  0  0  0  0  0  0  0  0  0  0
   16.4640  -54.3400   38.1130 C   0  0  0  0  0  0  0  0  0  0  0  0
   17.4950  -54.1030   37.2550 N   0  0  0  0  0  0  0  0  0  0  0  0
   18.0190  -52.9640   37.5790 O   0  0  0  0  0  0  0  0  0  0  0  0
   17.4150  -52.4360   38.5820 N   0  0  0  0  0  0  0  0  0  0  0  0
   16.4300  -53.2660   38.9520 C   0  0  0  0  0  0  0  0  0  0  0  0
   15.5170  -53.0910   40.0030 N   0  0  0  0  0  0  0  0  0  0  0  0
   11.8040  -60.1860   40.2660 H   0  0  0  0  0  0  0  0  0  0  0  0
    8.5130  -59.7170   37.6080 H   0  0  0  0  0  0  0  0  0  0  0  0
    7.0330  -59.2320   39.5060 H   0  0  0  0  0  0  0  0  0  0  0  0
    7.9270  -59.2240   41.7680 H   0  0  0  0  0  0  0  0  0  0  0  0
   10.4350  -62.1690   37.1660 H   0  0  0  0  0  0  0  0  0  0  0  0
   11.8130  -61.5480   36.1480 H   0  0  0  0  0  0  0  0  0  0  0  0
   11.7570  -58.3600   36.9500 H   0  0  0  0  0  0  0  0  0  0  0  0
   13.6920  -60.4790   37.9360 H   0  0  0  0  0  0  0  0  0  0  0  0
   17.8310  -56.6020   36.4630 H   0  0  0  0  0  0  0  0  0  0  0  0
   16.7570  -57.9090   35.9320 H   0  0  0  0  0  0  0  0  0  0  0  0
   18.1360  -54.7420   35.0040 H   0  0  0  0  0  0  0  0  0  0  0  0
   17.6550  -55.2920   33.3700 H   0  0  0  0  0  0  0  0  0  0  0  0
   19.1620  -56.9860   35.4730 H   0  0  0  0  0  0  0  0  0  0  0  0
   19.8160  -56.2000   33.9910 H   0  0  0  0  0  0  0  0  0  0  0  0
   19.2070  -57.9840   32.8120 H   0  0  0  0  0  0  0  0  0  0  0  0
   18.6200  -58.8190   34.2460 H   0  0  0  0  0  0  0  0  0  0  0  0
   17.2890  -56.9900   32.1810 H   0  0  0  0  0  0  0  0  0  0  0  0
   16.8450  -58.6450   32.5970 H   0  0  0  0  0  0  0  0  0  0  0  0
   15.5980  -57.9100   34.4780 H   0  0  0  0  0  0  0  0  0  0  0  0
   15.2960  -56.5790   33.3260 H   0  0  0  0  0  0  0  0  0  0  0  0
   15.7520  -52.8110   40.9800 H   0  0  0  0  0  0  0  0  0  0  0  0
   14.5040  -53.2510   39.8150 H   0  0  0  0  0  0  0  0  0  0  0  0
  2  1  1  0  0  0  0
  3 32  1  0  0  0  0
  3  2  2  0  0  0  0
  4  3  1  0  0  0  0
  5  4  2  0  0  0  0
  5  6  1  0  0  0  0
  6  7  2  0  0  0  0
  7  2  1  0  0  0  0
  7 35  1  0  0  0  0
  8  4  1  0  0  0  0
  9 36  1  0  0  0  0
  9  8  2  0  0  0  0
 10 11  1  0  0  0  0
 10  8  1  0  0  0  0
 11 39  1  0  0  0  0
 12 11  1  0  0  0  0
 12 14  1  0  0  0  0
 13 12  2  0  0  0  0
 14 15  1  0  0  0  0
 15 16  2  0  0  0  0
 17 26  1  0  0  0  0
 17 16  1  0  0  0  0
 18 14  2  0  0  0  0
 18 17  1  0  0  0  0
 19 40  1  0  0  0  0
 19 18  1  0  0  0  0
 20 19  1  0  0  0  0
 21 22  1  0  0  0  0
 21 20  1  0  0  0  0
 21 42  1  0  0  0  0
 22 44  1  0  0  0  0
 23 47  1  0  0  0  0
 23 22  1  0  0  0  0
 24 23  1  0  0  0  0
 24 25  1  0  0  0  0
 25 50  1  0  0  0  0
 25 20  1  0  0  0  0
 26 30  1  0  0  0  0
 27 28  1  0  0  0  0
 27 26  2  0  0  0  0
 28 29  1  0  0  0  0
 29 30  2  0  0  0  0
 30 31  1  0  0  0  0
 31 52  1  0  0  0  0
 33  5  1  0  0  0  0
 34  6  1  0  0  0  0
 37  9  1  0  0  0  0
 38 10  1  0  0  0  0
 41 19  1  0  0  0  0
 43 21  1  0  0  0  0
 45 22  1  0  0  0  0
 46 23  1  0  0  0  0
 48 24  1  0  0  0  0
 49 24  1  0  0  0  0
 51 25  1  0  0  0  0
 53 31  1  0  0  0  0
M  END
>  <Pose>
1

>  <Score>
-8.25

$$$$
