
 OpenBabel03232204043D

 48 51  0  0  1  0  0  0  0  0999 V2000
    8.2450  -57.4150   41.3170 B   0  0  0  0  0  0  0  0  0  0  0  0
    9.6110  -58.7360   41.0960 C   0  0  0  0  0  0  0  0  0  0  0  0
   10.0200  -59.1000   39.8430 C   0  0  0  0  0  0  0  0  0  0  0  0
   11.0120  -60.0580   39.6730 C   0  0  0  0  0  0  0  0  0  0  0  0
   11.5560  -60.6210   40.7850 C   0  0  0  0  0  0  0  0  0  0  0  0
   11.1340  -60.2460   42.0510 C   0  0  0  0  0  0  0  0  0  0  0  0
   10.1550  -59.2970   42.2160 C   0  0  0  0  0  0  0  0  0  0  0  0
   11.4400  -60.4450   38.3390 C   0  0  0  0  0  0  0  0  0  0  0  0
   10.5620  -60.9260   37.5320 O   0  0  0  0  0  0  0  0  0  0  0  0
   12.7750  -60.3080   37.9090 N   0  0  0  0  0  0  0  0  0  0  0  0
   13.1930  -59.0040   37.4280 C   0  0  2  0  0  0  0  0  0  0  0  0
   14.6610  -58.9970   37.0470 C   0  0  0  0  0  0  0  0  0  0  0  0
   15.0230  -57.5990   37.1790 N   0  0  0  0  0  0  0  0  0  0  0  0
   13.9520  -56.8420   37.7960 C   0  0  1  0  0  0  0  0  0  0  0  0
   13.1500  -57.9470   38.4950 C   0  0  0  0  0  0  0  0  0  0  0  0
   14.5360  -55.9060   38.7550 C   0  0  0  0  0  0  0  0  0  0  0  0
   14.1520  -55.8600   39.9330 O   0  0  0  0  0  0  0  0  0  0  0  0
   15.5630  -55.0420   38.2970 N   0  0  0  0  0  0  0  0  0  0  0  0
   16.3920  -55.4480   37.1840 C   0  0  1  0  0  0  0  0  0  0  0  0
   16.2050  -56.8700   36.8190 C   0  0  0  0  0  0  0  0  0  0  0  0
   17.1040  -57.4710   36.1740 O   0  0  0  0  0  0  0  0  0  0  0  0
   16.2480  -54.5300   35.9890 C   0  0  0  0  0  0  0  0  0  0  0  0
   17.5120  -54.3190   35.2640 C   0  0  0  0  0  0  0  0  0  0  0  0
   18.5100  -53.5470   35.8320 C   0  0  0  0  0  0  0  0  0  0  0  0
   19.6940  -53.3440   35.1610 C   0  0  0  0  0  0  0  0  0  0  0  0
   19.9470  -53.8860   33.9150 C   0  0  0  0  0  0  0  0  0  0  0  0
   18.9550  -54.6560   33.3460 C   0  0  0  0  0  0  0  0  0  0  0  0
   17.7600  -54.8700   34.0050 C   0  0  0  0  0  0  0  0  0  0  0  0
    9.6010  -58.6660   38.9320 H   0  0  0  0  0  0  0  0  0  0  0  0
   12.3350  -61.3800   40.6840 H   0  0  0  0  0  0  0  0  0  0  0  0
   11.5650  -60.6900   42.9330 H   0  0  0  0  0  0  0  0  0  0  0  0
    9.8020  -58.9830   43.1990 H   0  0  0  0  0  0  0  0  0  0  0  0
   13.4110  -61.1160   37.9500 H   0  0  0  0  0  0  0  0  0  0  0  0
   12.6300  -58.6710   36.5580 H   0  0  0  0  0  0  0  0  0  0  0  0
   15.2820  -59.6000   37.7450 H   0  0  0  0  0  0  0  0  0  0  0  0
   14.8190  -59.3610   36.0090 H   0  0  0  0  0  0  0  0  0  0  0  0
   13.3110  -56.3200   37.0550 H   0  0  0  0  0  0  0  0  0  0  0  0
   12.1480  -57.5260   38.6650 H   0  0  0  0  0  0  0  0  0  0  0  0
   13.6960  -58.2150   39.4070 H   0  0  0  0  0  0  0  0  0  0  0  0
   15.7530  -54.1120   38.7350 H   0  0  0  0  0  0  0  0  0  0  0  0
   17.4550  -55.2960   37.5400 H   0  0  0  0  0  0  0  0  0  0  0  0
   15.4700  -54.9490   35.3230 H   0  0  0  0  0  0  0  0  0  0  0  0
   15.9100  -53.5540   36.3700 H   0  0  0  0  0  0  0  0  0  0  0  0
   18.4090  -53.0780   36.8040 H   0  0  0  0  0  0  0  0  0  0  0  0
   20.4770  -52.7420   35.5990 H   0  0  0  0  0  0  0  0  0  0  0  0
   20.9010  -53.7010   33.4140 H   0  0  0  0  0  0  0  0  0  0  0  0
   19.1550  -55.0830   32.3620 H   0  0  0  0  0  0  0  0  0  0  0  0
   17.0010  -55.4790   33.5290 H   0  0  0  0  0  0  0  0  0  0  0  0
  2  1  1  0  0  0  0
  2  7  1  0  0  0  0
  3  2  2  0  0  0  0
  4  3  1  0  0  0  0
  4  5  2  0  0  0  0
  5  6  1  0  0  0  0
  6  7  2  0  0  0  0
  6 31  1  0  0  0  0
  7 32  1  0  0  0  0
  8  4  1  0  0  0  0
  9  8  2  0  0  0  0
 10 33  1  0  0  0  0
 10  8  1  0  0  0  0
 11 34  1  6  0  0  0
 11 10  1  0  0  0  0
 11 15  1  0  0  0  0
 12 13  1  0  0  0  0
 12 11  1  0  0  0  0
 12 35  1  0  0  0  0
 13 14  1  0  0  0  0
 14 37  1  6  0  0  0
 14 15  1  0  0  0  0
 14 16  1  0  0  0  0
 15 38  1  0  0  0  0
 15 39  1  0  0  0  0
 16 17  2  0  0  0  0
 18 40  1  0  0  0  0
 18 16  1  0  0  0  0
 19 41  1  1  0  0  0
 19 18  1  0  0  0  0
 20 13  1  0  0  0  0
 20 19  1  0  0  0  0
 21 20  2  0  0  0  0
 22 43  1  0  0  0  0
 22 19  1  0  0  0  0
 23 24  1  0  0  0  0
 23 22  1  0  0  0  0
 24 44  1  0  0  0  0
 25 45  1  0  0  0  0
 25 24  2  0  0  0  0
 26 25  1  0  0  0  0
 27 26  2  0  0  0  0
 27 28  1  0  0  0  0
 28 23  2  0  0  0  0
 29  3  1  0  0  0  0
 30  5  1  0  0  0  0
 36 12  1  0  0  0  0
 42 22  1  0  0  0  0
 46 26  1  0  0  0  0
 47 27  1  0  0  0  0
 48 28  1  0  0  0  0
M  END
>  <Pose>
1

>  <Score>
-7.04

$$$$
