
 OpenBabel03232204043D

 61 62  0  0  1  0  0  0  0  0999 V2000
   17.3030  -52.8300   38.1160 B   0  0  0  0  0  0  0  0  0  0  0  0
   16.1780  -54.3640   38.2780 C   0  0  0  0  0  0  0  0  0  0  0  0
   16.2800  -55.4670   37.4860 C   0  0  0  0  0  0  0  0  0  0  0  0
   15.4850  -56.5970   37.5710 C   0  0  0  0  0  0  0  0  0  0  0  0
   14.4960  -56.6070   38.5510 C   0  0  0  0  0  0  0  0  0  0  0  0
   14.3650  -55.5040   39.3740 C   0  0  0  0  0  0  0  0  0  0  0  0
   15.1760  -54.3880   39.2620 C   0  0  0  0  0  0  0  0  0  0  0  0
   15.7200  -57.6870   36.6200 C   0  0  1  0  0  0  0  0  0  0  0  0
   14.5290  -58.4110   36.3730 N   0  0  0  0  0  0  0  0  0  0  0  0
   14.1320  -58.2310   35.0230 C   0  0  0  0  0  0  0  0  0  0  0  0
   13.0550  -58.6740   34.5160 O   0  0  0  0  0  0  0  0  0  0  0  0
   15.1570  -57.4740   34.3390 C   0  0  0  0  0  0  0  0  0  0  0  0
   15.0530  -57.1690   33.1200 O   0  0  0  0  0  0  0  0  0  0  0  0
   16.2000  -57.1880   35.3050 C   0  0  0  0  0  0  0  0  0  0  0  0
   17.3170  -56.5530   35.0310 C   0  0  0  0  0  0  0  0  0  0  0  0
   18.2010  -56.2820   36.0490 O   0  0  0  0  0  0  0  0  0  0  0  0
   17.6350  -56.1450   33.6850 C   0  0  0  0  0  0  0  0  0  0  0  0
   18.4670  -56.8760   32.8180 C   0  0  0  0  0  0  0  0  0  0  0  0
   18.5270  -56.2490   31.6370 N   0  0  0  0  0  0  0  0  0  0  0  0
   17.7750  -55.1690   31.7330 N   0  0  0  0  0  0  0  0  0  0  0  0
   17.2180  -55.0700   32.9500 C   0  0  0  0  0  0  0  0  0  0  0  0
   19.2460  -56.6580   30.4820 C   0  0  0  0  0  0  0  0  0  0  0  0
   19.1930  -57.9920   30.1000 C   0  0  0  0  0  0  0  0  0  0  0  0
   19.8580  -58.4570   28.9820 C   0  0  0  0  0  0  0  0  0  0  0  0
   20.6150  -57.5960   28.1870 C   0  0  0  0  0  0  0  0  0  0  0  0
   20.6680  -56.2670   28.5680 C   0  0  0  0  0  0  0  0  0  0  0  0
   19.9990  -55.8300   29.6820 C   0  0  0  0  0  0  0  0  0  0  0  0
   19.1500  -58.1470   33.1990 C   0  0  0  0  0  0  0  0  0  0  0  0
   13.7850  -59.2650   37.3400 C   0  0  0  0  0  0  0  0  0  0  0  0
   12.8640  -58.4060   38.1680 C   0  0  0  0  0  0  0  0  0  0  0  0
   11.6120  -59.1080   38.5900 C   0  0  0  0  0  0  0  0  0  0  0  0
   11.0920  -58.7560   39.8700 N   0  0  0  0  0  4  0  0  0  0  0  0
    9.6840  -58.8970   40.0440 C   0  0  0  0  0  0  0  0  0  0  0  0
   11.7510  -59.5490   40.9200 C   0  0  0  0  0  0  0  0  0  0  0  0
   17.0740  -55.4230   36.7160 H   0  0  0  0  0  0  0  0  0  0  0  0
   13.8560  -57.4650   38.6460 H   0  0  0  0  0  0  0  0  0  0  0  0
   13.5870  -55.5170   40.1430 H   0  0  0  0  0  0  0  0  0  0  0  0
   15.0740  -53.5210   39.9050 H   0  0  0  0  0  0  0  0  0  0  0  0
   16.4720  -58.3900   37.0620 H   0  0  0  0  0  0  0  0  0  0  0  0
   16.5410  -54.2860   33.2920 H   0  0  0  0  0  0  0  0  0  0  0  0
   18.5870  -58.6530   30.7430 H   0  0  0  0  0  0  0  0  0  0  0  0
   19.7930  -59.5030   28.7090 H   0  0  0  0  0  0  0  0  0  0  0  0
   21.1330  -57.9910   27.3100 H   0  0  0  0  0  0  0  0  0  0  0  0
   21.2650  -55.6060   27.9370 H   0  0  0  0  0  0  0  0  0  0  0  0
   20.0650  -54.7830   29.9400 H   0  0  0  0  0  0  0  0  0  0  0  0
   18.4850  -58.7720   33.8420 H   0  0  0  0  0  0  0  0  0  0  0  0
   20.1360  -57.9630   33.6620 H   0  0  0  0  0  0  0  0  0  0  0  0
   19.3350  -58.7620   32.2840 H   0  0  0  0  0  0  0  0  0  0  0  0
   13.2750  -60.0860   36.8050 H   0  0  0  0  0  0  0  0  0  0  0  0
   14.5490  -59.6790   38.0600 H   0  0  0  0  0  0  0  0  0  0  0  0
   13.4380  -58.2390   39.1310 H   0  0  0  0  0  0  0  0  0  0  0  0
   12.7280  -57.4020   37.7610 H   0  0  0  0  0  0  0  0  0  0  0  0
   11.7640  -60.2330   38.5940 H   0  0  0  0  0  0  0  0  0  0  0  0
   10.8100  -58.9450   37.8110 H   0  0  0  0  0  0  0  0  0  0  0  0
   11.3590  -57.7510   40.0980 H   0  0  0  0  0  0  0  0  0  0  0  0
    9.4280  -59.5460   40.9250 H   0  0  0  0  0  0  0  0  0  0  0  0
    9.1030  -59.1880   39.1470 H   0  0  0  0  0  0  0  0  0  0  0  0
    9.2650  -57.8880   40.3290 H   0  0  0  0  0  0  0  0  0  0  0  0
   12.2660  -58.9050   41.6520 H   0  0  0  0  0  0  0  0  0  0  0  0
   12.5040  -60.1940   40.4130 H   0  0  0  0  0  0  0  0  0  0  0  0
   11.0170  -60.2380   41.3960 H   0  0  0  0  0  0  0  0  0  0  0  0
  1  2  1  0  0  0  0
  2  7  1  0  0  0  0
  3  4  1  0  0  0  0
  3  2  2  0  0  0  0
  4  5  2  0  0  0  0
  5 36  1  0  0  0  0
  5  6  1  0  0  0  0
  6 37  1  0  0  0  0
  7  6  2  0  0  0  0
  7 38  1  0  0  0  0
  8 39  1  1  0  0  0
  8  4  1  0  0  0  0
  9  8  1  0  0  0  0
  9 29  1  0  0  0  0
 10  9  1  0  0  0  0
 11 10  2  0  0  0  0
 12 10  1  0  0  0  0
 12 14  1  0  0  0  0
 13 12  2  0  0  0  0
 14  8  1  0  0  0  0
 15 14  2  0  0  0  0
 15 16  1  0  0  0  0
 17 15  1  0  0  0  0
 18 28  1  0  0  0  0
 18 17  2  0  0  0  0
 19 20  1  0  0  0  0
 19 18  1  0  0  0  0
 20 21  2  0  0  0  0
 21 40  1  0  0  0  0
 21 17  1  0  0  0  0
 22 19  1  0  0  0  0
 23 22  1  0  0  0  0
 23 41  1  0  0  0  0
 24 23  2  0  0  0  0
 25 26  2  0  0  0  0
 25 24  1  0  0  0  0
 26 27  1  0  0  0  0
 27 45  1  0  0  0  0
 27 22  2  0  0  0  0
 28 47  1  0  0  0  0
 28 46  1  0  0  0  0
 29 50  1  0  0  0  0
 30 51  1  0  0  0  0
 31 53  1  0  0  0  0
 31 32  1  0  0  0  0
 32 33  1  0  0  0  0
 32 55  1  0  0  0  0
 32 34  1  0  0  0  0
 33 58  1  0  0  0  0
 33 56  1  0  0  0  0
 34 61  1  0  0  0  0
 34 59  1  0  0  0  0
 35  3  1  0  0  0  0
 42 24  1  0  0  0  0
 43 25  1  0  0  0  0
 44 26  1  0  0  0  0
 48 28  1  0  0  0  0
 49 29  1  0  0  0  0
 52 30  1  0  0  0  0
 54 31  1  0  0  0  0
 57 33  1  0  0  0  0
 60 34  1  0  0  0  0
M  END
>  <Pose>
1

>  <Score>
-6.61

$$$$
