
 OpenBabel03232204043D

 31 34  0  0  1  0  0  0  0  0999 V2000
   18.0810  -53.7110   39.3080 B   0  0  0  0  0  0  0  0  0  0  0  0
   18.1560  -54.0230   37.4200 C   0  0  0  0  0  0  0  0  0  0  0  0
   17.3630  -55.0340   36.9280 C   0  0  0  0  0  0  0  0  0  0  0  0
   17.4250  -55.2560   35.5520 C   0  0  0  0  0  0  0  0  0  0  0  0
   18.2430  -54.4930   34.7510 C   0  0  0  0  0  0  0  0  0  0  0  0
   19.0410  -53.4760   35.2470 C   0  0  0  0  0  0  0  0  0  0  0  0
   18.9850  -53.2510   36.6090 C   0  0  0  0  0  0  0  0  0  0  0  0
   19.8750  -52.7030   34.3930 N   0  0  0  0  0  0  0  0  0  0  0  0
   20.1800  -53.1740   33.2840 O   0  0  0  0  0  0  0  0  0  0  0  0
   20.3680  -51.4670   34.7110 O   0  0  0  0  0  0  0  0  0  0  0  0
   16.5230  -55.8010   37.7770 N   0  0  0  0  0  0  0  0  0  0  0  0
   16.6640  -57.1190   38.2730 C   0  0  0  0  0  0  0  0  0  0  0  0
   17.7200  -57.7820   38.3350 O   0  0  0  0  0  0  0  0  0  0  0  0
   15.3590  -57.6420   38.7300 C   0  0  2  0  0  0  0  0  0  0  0  0
   14.7830  -58.4400   37.5790 C   0  0  2  0  0  0  0  0  0  0  0  0
   14.3970  -57.3790   36.7180 O   0  0  0  0  0  0  0  0  0  0  0  0
   13.4870  -56.7690   37.6230 C   0  0  2  0  0  0  0  0  0  0  0  0
   14.4280  -56.4330   38.7490 C   0  0  2  0  0  0  0  0  0  0  0  0
   15.2900  -55.3130   38.3110 C   0  0  0  0  0  0  0  0  0  0  0  0
   14.9830  -54.0800   38.3930 O   0  0  0  0  0  0  0  0  0  0  0  0
   12.6290  -57.9320   37.9340 C   0  0  0  0  0  0  0  0  0  0  0  0
   13.4490  -58.9800   37.9370 C   0  0  0  0  0  0  0  0  0  0  0  0
   16.8110  -56.0490   35.1330 H   0  0  0  0  0  0  0  0  0  0  0  0
   18.2950  -54.6630   33.6710 H   0  0  0  0  0  0  0  0  0  0  0  0
   19.5770  -52.4800   37.0540 H   0  0  0  0  0  0  0  0  0  0  0  0
   15.3900  -58.1760   39.6740 H   0  0  0  0  0  0  0  0  0  0  0  0
   15.4720  -59.1350   37.1230 H   0  0  0  0  0  0  0  0  0  0  0  0
   12.9740  -55.9200   37.1830 H   0  0  0  0  0  0  0  0  0  0  0  0
   13.9640  -56.2800   39.7180 H   0  0  0  0  0  0  0  0  0  0  0  0
   11.5650  -57.9130   38.1180 H   0  0  0  0  0  0  0  0  0  0  0  0
   13.2120  -60.0230   38.1530 H   0  0  0  0  0  0  0  0  0  0  0  0
  2  1  1  0  0  0  0
  3  2  1  0  0  0  0
  3 11  1  0  0  0  0
  4  3  2  0  0  0  0
  5  6  2  0  0  0  0
  5  4  1  0  0  0  0
  6  7  1  0  0  0  0
  7 25  1  0  0  0  0
  7  2  2  0  0  0  0
  8 10  2  0  0  0  0
  8  6  1  0  0  0  0
  9  8  2  0  0  0  0
 11 12  1  0  0  0  0
 11 19  1  0  0  0  0
 12 13  2  0  0  0  0
 12 14  1  0  0  0  0
 14 18  1  0  0  0  0
 14 26  1  1  0  0  0
 15 27  1  6  0  0  0
 15 22  1  0  0  0  0
 15 14  1  0  0  0  0
 16 15  1  0  0  0  0
 16 17  1  0  0  0  0
 17 28  1  6  0  0  0
 17 21  1  0  0  0  0
 17 18  1  0  0  0  0
 18 29  1  1  0  0  0
 19 20  2  0  0  0  0
 19 18  1  0  0  0  0
 21 22  2  0  0  0  0
 21 30  1  0  0  0  0
 22 31  1  0  0  0  0
 23  4  1  0  0  0  0
 24  5  1  0  0  0  0
M  END
>  <Pose>
1

>  <Score>
-5.03

$$$$
