
 OpenBabel03232204043D

 47 50  0  0  0  0  0  0  0  0999 V2000
   12.2610  -63.6410   37.9950 B   0  0  0  0  0  0  0  0  0  0  0  0
   12.3070  -62.4210   36.5550 C   0  0  0  0  0  0  0  0  0  0  0  0
   11.9270  -61.1150   36.7530 C   0  0  0  0  0  0  0  0  0  0  0  0
   11.9710  -60.2040   35.7800 C   0  0  0  0  0  0  0  0  0  0  0  0
   12.4300  -60.5640   34.4750 C   0  0  0  0  0  0  0  0  0  0  0  0
   12.8370  -61.8370   34.2570 C   0  0  0  0  0  0  0  0  0  0  0  0
   12.7800  -62.7790   35.2890 C   0  0  0  0  0  0  0  0  0  0  0  0
   11.7630  -60.6640   38.2250 C   0  0  0  0  0  0  0  0  0  0  0  0
   12.0400  -59.4550   38.3140 N   0  0  0  0  0  0  0  0  0  0  0  0
   12.2160  -58.3120   38.8890 N   0  0  0  0  0  0  0  0  0  0  0  0
   13.6870  -57.9590   38.5710 C   0  0  0  0  0  0  0  0  0  0  0  0
   14.3440  -58.9320   38.2190 O   0  0  0  0  0  0  0  0  0  0  0  0
   14.1800  -56.6490   38.7000 C   0  0  0  0  0  0  0  0  0  0  0  0
   13.8350  -55.6720   39.4820 N   0  0  0  0  0  0  0  0  0  0  0  0
   14.7370  -54.7530   39.4500 N   0  0  0  0  0  0  0  0  0  0  0  0
   15.7870  -55.0790   38.6020 N   0  0  0  0  0  0  0  0  0  0  0  0
   15.4700  -56.2570   38.1120 C   0  0  0  0  0  0  0  0  0  0  0  0
   15.9650  -57.1440   37.0630 C   0  0  0  0  0  0  0  0  0  0  0  0
   16.1650  -56.9410   35.7560 N   0  0  0  0  0  0  0  0  0  0  0  0
   17.2180  -55.9550   35.5560 C   0  0  0  0  0  0  0  0  0  0  0  0
   18.1370  -56.5030   34.5060 C   0  0  0  0  0  0  0  0  0  0  0  0
   17.5870  -57.8820   34.1550 C   0  0  0  0  0  0  0  0  0  0  0  0
   16.1260  -57.7400   34.6490 C   0  0  0  0  0  0  0  0  0  0  0  0
   16.8510  -54.1810   38.5330 C   0  0  0  0  0  0  0  0  0  0  0  0
   18.1520  -54.6110   38.2740 N   0  0  0  0  0  0  0  0  0  0  0  0
   18.9340  -53.6110   38.3790 O   0  0  0  0  0  0  0  0  0  0  0  0
   18.3030  -52.5470   38.6770 N   0  0  0  0  0  0  0  0  0  0  0  0
   16.9850  -52.8780   38.7820 C   0  0  0  0  0  0  0  0  0  0  0  0
   16.0140  -51.8840   39.1300 N   0  0  0  0  0  0  0  0  0  0  0  0
   11.6030  -59.2090   35.9510 H   0  0  0  0  0  0  0  0  0  0  0  0
   12.4310  -59.8750   33.6870 H   0  0  0  0  0  0  0  0  0  0  0  0
   13.2460  -62.1710   33.2680 H   0  0  0  0  0  0  0  0  0  0  0  0
   13.1690  -63.7780   35.0860 H   0  0  0  0  0  0  0  0  0  0  0  0
   11.5030  -61.3010   38.9470 H   0  0  0  0  0  0  0  0  0  0  0  0
   11.7390  -57.6320   39.4740 H   0  0  0  0  0  0  0  0  0  0  0  0
   16.5040  -58.0820   37.4450 H   0  0  0  0  0  0  0  0  0  0  0  0
   14.8840  -57.8680   36.9140 H   0  0  0  0  0  0  0  0  0  0  0  0
   17.6890  -55.6940   36.5030 H   0  0  0  0  0  0  0  0  0  0  0  0
   16.7880  -54.9660   35.1910 H   0  0  0  0  0  0  0  0  0  0  0  0
   18.2190  -55.8430   33.6290 H   0  0  0  0  0  0  0  0  0  0  0  0
   19.1860  -56.5720   34.9230 H   0  0  0  0  0  0  0  0  0  0  0  0
   17.6350  -58.0330   33.0900 H   0  0  0  0  0  0  0  0  0  0  0  0
   18.0210  -58.6270   34.8140 H   0  0  0  0  0  0  0  0  0  0  0  0
   15.6420  -57.1580   33.7880 H   0  0  0  0  0  0  0  0  0  0  0  0
   15.6680  -58.7360   34.7220 H   0  0  0  0  0  0  0  0  0  0  0  0
   15.5450  -51.9860   40.0410 H   0  0  0  0  0  0  0  0  0  0  0  0
   15.7590  -51.1500   38.4730 H   0  0  0  0  0  0  0  0  0  0  0  0
  2  3  1  0  0  0  0
  2  1  1  0  0  0  0
  3  8  1  0  0  0  0
  4 30  1  0  0  0  0
  4  3  2  0  0  0  0
  5  4  1  0  0  0  0
  6  5  2  0  0  0  0
  6  7  1  0  0  0  0
  7  2  2  0  0  0  0
  8  9  1  0  0  0  0
  8 34  1  0  0  0  0
  9 10  1  0  0  0  0
 10 35  1  0  0  0  0
 11 13  1  0  0  0  0
 11 10  1  0  0  0  0
 12 11  2  0  0  0  0
 13 14  1  0  0  0  0
 15 14  2  0  0  0  0
 16 15  1  0  0  0  0
 17 16  1  0  0  0  0
 17 13  2  0  0  0  0
 18 36  1  0  0  0  0
 18 17  1  0  0  0  0
 19 18  1  0  0  0  0
 20 19  1  0  0  0  0
 20 38  1  0  0  0  0
 21 41  1  0  0  0  0
 21 20  1  0  0  0  0
 22 21  1  0  0  0  0
 22 23  1  0  0  0  0
 22 43  1  0  0  0  0
 23 45  1  0  0  0  0
 23 19  1  0  0  0  0
 24 16  1  0  0  0  0
 24 28  1  0  0  0  0
 25 26  1  0  0  0  0
 25 24  2  0  0  0  0
 26 27  1  0  0  0  0
 27 28  2  0  0  0  0
 28 29  1  0  0  0  0
 29 46  1  0  0  0  0
 31  5  1  0  0  0  0
 32  6  1  0  0  0  0
 33  7  1  0  0  0  0
 37 18  1  0  0  0  0
 39 20  1  0  0  0  0
 40 21  1  0  0  0  0
 42 22  1  0  0  0  0
 44 23  1  0  0  0  0
 47 29  1  0  0  0  0
M  END
>  <Pose>
1

>  <Score>
-8.31

$$$$
