
 OpenBabel03232204043D

 50 53  0  0  1  0  0  0  0  0999 V2000
   20.5570  -50.3220   36.3400 Cl  0  0  0  0  0  0  0  0  0  0  0  0
   19.5790  -51.7840   36.3180 C   0  0  0  0  0  0  0  0  0  0  0  0
   19.7670  -52.7600   35.3640 C   0  0  0  0  0  0  0  0  0  0  0  0
   18.9940  -53.9070   35.3510 C   0  0  0  0  0  0  0  0  0  0  0  0
   18.0030  -54.1340   36.2850 C   0  0  0  0  0  0  0  0  0  0  0  0
   17.8140  -53.1600   37.2420 C   0  0  0  0  0  0  0  0  0  0  0  0
   18.5940  -51.9970   37.2590 C   0  0  0  0  0  0  0  0  0  0  0  0
   17.2020  -55.3570   36.2490 C   0  0  0  0  0  0  0  0  0  0  0  0
   17.0080  -56.2380   35.2400 N   0  0  0  0  0  0  0  0  0  0  0  0
   16.1880  -57.2170   35.6750 C   0  0  1  0  0  0  0  0  0  0  0  0
   15.8370  -56.9970   36.9600 N   0  0  0  0  0  0  0  0  0  0  0  0
   16.4660  -55.8500   37.3040 C   0  0  0  0  0  0  0  0  0  0  0  0
   14.9760  -57.7950   37.8080 C   0  0  0  0  0  0  0  0  0  0  0  0
   13.8750  -56.9500   38.3530 C   0  0  0  0  0  0  0  0  0  0  0  0
   14.1650  -55.8310   38.7800 O   0  0  0  0  0  0  0  0  0  0  0  0
   12.5830  -57.4780   38.3480 N   0  0  0  0  0  0  0  0  0  0  0  0
   12.2650  -58.8430   38.5720 C   0  0  0  0  0  0  0  0  0  0  0  0
   12.5370  -59.7740   37.5610 C   0  0  0  0  0  0  0  0  0  0  0  0
   12.2290  -61.0850   37.7340 C   0  0  0  0  0  0  0  0  0  0  0  0
   11.6430  -61.5380   38.9050 C   0  0  0  0  0  0  0  0  0  0  0  0
   11.3810  -60.6220   39.8850 C   0  0  0  0  0  0  0  0  0  0  0  0
   11.6870  -59.2640   39.7360 C   0  0  0  0  0  0  0  0  0  0  0  0
   11.3160  -62.9760   39.0720 C   0  0  0  0  0  0  0  0  0  0  0  0
   10.0040  -63.2540   38.3320 C   0  0  0  0  0  0  0  0  0  0  0  0
   15.9560  -58.1980   34.5840 C   0  0  0  0  0  0  0  0  0  0  0  0
   16.8060  -57.7590   33.4420 C   0  0  0  0  0  0  0  0  0  0  0  0
   17.3930  -56.4640   33.8650 C   0  0  0  0  0  0  0  0  0  0  0  0
   20.5400  -52.5890   34.6290 H   0  0  0  0  0  0  0  0  0  0  0  0
   19.1610  -54.6620   34.5880 H   0  0  0  0  0  0  0  0  0  0  0  0
   17.0520  -53.2890   37.9970 H   0  0  0  0  0  0  0  0  0  0  0  0
   18.4470  -51.2360   38.0030 H   0  0  0  0  0  0  0  0  0  0  0  0
   16.3920  -55.3810   38.2980 H   0  0  0  0  0  0  0  0  0  0  0  0
   15.5660  -58.2710   38.6170 H   0  0  0  0  0  0  0  0  0  0  0  0
   14.5900  -58.6250   37.1740 H   0  0  0  0  0  0  0  0  0  0  0  0
   11.7290  -56.8500   38.1720 H   0  0  0  0  0  0  0  0  0  0  0  0
   13.0040  -59.4280   36.6260 H   0  0  0  0  0  0  0  0  0  0  0  0
   12.4430  -61.8190   36.9380 H   0  0  0  0  0  0  0  0  0  0  0  0
   10.9200  -60.9210   40.8290 H   0  0  0  0  0  0  0  0  0  0  0  0
   11.4310  -58.5900   40.5710 H   0  0  0  0  0  0  0  0  0  0  0  0
   11.2220  -63.2160   40.1450 H   0  0  0  0  0  0  0  0  0  0  0  0
   12.1040  -63.6040   38.6220 H   0  0  0  0  0  0  0  0  0  0  0  0
   10.1760  -63.2120   37.2500 H   0  0  0  0  0  0  0  0  0  0  0  0
    9.2390  -62.5610   38.7040 H   0  0  0  0  0  0  0  0  0  0  0  0
    9.6630  -64.2870   38.5810 H   0  0  0  0  0  0  0  0  0  0  0  0
   14.8770  -58.2630   34.3300 H   0  0  0  0  0  0  0  0  0  0  0  0
   16.3090  -59.2150   34.9140 H   0  0  0  0  0  0  0  0  0  0  0  0
   17.6000  -58.5310   33.2140 H   0  0  0  0  0  0  0  0  0  0  0  0
   16.1770  -57.6550   32.5050 H   0  0  0  0  0  0  0  0  0  0  0  0
   17.0420  -55.6330   33.2060 H   0  0  0  0  0  0  0  0  0  0  0  0
   18.5140  -56.5790   33.8220 H   0  0  0  0  0  0  0  0  0  0  0  0
  2  1  1  0  0  0  0
  2  7  1  0  0  0  0
  3  2  2  0  0  0  0
  4  3  1  0  0  0  0
  4  5  2  0  0  0  0
  5  6  1  0  0  0  0
  6  7  2  0  0  0  0
  6 30  1  0  0  0  0
  7 31  1  0  0  0  0
  8  5  1  0  0  0  0
  8 12  2  0  0  0  0
  9 10  1  0  0  0  0
  9  8  1  0  0  0  0
 10 25  1  6  0  0  0
 10 11  1  0  0  0  0
 11 12  1  0  0  0  0
 11 13  1  0  0  0  0
 12 32  1  0  0  0  0
 13 14  1  0  0  0  0
 13 33  1  0  0  0  0
 14 15  2  0  0  0  0
 16 14  1  0  0  0  0
 16 17  1  0  0  0  0
 17 22  1  0  0  0  0
 18 19  1  0  0  0  0
 18 17  2  0  0  0  0
 19 20  2  0  0  0  0
 20 23  1  0  0  0  0
 20 21  1  0  0  0  0
 21 38  1  0  0  0  0
 22 21  2  0  0  0  0
 22 39  1  0  0  0  0
 23 40  1  0  0  0  0
 24 44  1  0  0  0  0
 24 43  1  0  0  0  0
 24 23  1  0  0  0  0
 25 46  1  0  0  0  0
 26 27  1  0  0  0  0
 26 25  1  0  0  0  0
 27  9  1  0  0  0  0
 28  3  1  0  0  0  0
 29  4  1  0  0  0  0
 34 13  1  0  0  0  0
 35 16  1  0  0  0  0
 36 18  1  0  0  0  0
 37 19  1  0  0  0  0
 41 23  1  0  0  0  0
 42 24  1  0  0  0  0
 45 25  1  0  0  0  0
 47 26  1  0  0  0  0
 48 26  1  0  0  0  0
 49 27  1  0  0  0  0
 50 27  1  0  0  0  0
M  END
>  <Pose>
1

>  <Score>
-6.90

$$$$
