
 OpenBabel03232204043D

 56 59  0  0  1  0  0  0  0  0999 V2000
   12.6480  -58.9610   37.3930 B   0  0  0  0  0  0  0  0  0  0  0  0
   12.7280  -60.0490   35.8360 C   0  0  0  0  0  0  0  0  0  0  0  0
   13.7360  -59.8240   34.9240 C   0  0  0  0  0  0  0  0  0  0  0  0
   13.7550  -60.6370   33.8110 C   0  0  0  0  0  0  0  0  0  0  0  0
   12.8220  -61.6310   33.6020 C   0  0  0  0  0  0  0  0  0  0  0  0
   11.8130  -61.8560   34.5140 C   0  0  0  0  0  0  0  0  0  0  0  0
   11.7760  -61.0530   35.6350 C   0  0  0  0  0  0  0  0  0  0  0  0
   10.8710  -62.8630   34.2970 O   0  0  0  0  0  0  0  0  0  0  0  0
   10.1540  -63.4780   35.3250 C   0  0  0  0  0  0  0  0  0  0  0  0
   12.8480  -62.4470   32.4750 O   0  0  0  0  0  0  0  0  0  0  0  0
   13.9670  -62.6520   31.6730 C   0  0  0  0  0  0  0  0  0  0  0  0
   14.7260  -58.7750   35.1410 C   0  0  0  0  0  0  0  0  0  0  0  0
   15.8710  -58.9510   35.6580 N   0  0  0  0  0  0  0  0  0  0  0  0
   16.8070  -57.9170   35.8560 N   0  0  0  0  0  0  0  0  0  0  0  0
   16.4480  -56.8670   36.7440 C   0  0  0  0  0  0  0  0  0  0  0  0
   17.0190  -55.6360   36.8040 N   0  0  0  0  0  0  0  0  0  0  0  0
   16.4020  -54.9180   37.7790 C   0  0  0  0  0  0  0  0  0  0  0  0
   16.5520  -53.6790   38.2600 N   0  0  0  0  0  0  0  0  0  0  0  0
   15.7880  -53.2020   39.2600 C   0  0  0  0  0  0  0  0  0  0  0  0
   14.8380  -53.9990   39.7940 N   0  0  0  0  0  0  0  0  0  0  0  0
   14.6330  -55.2400   39.3660 C   0  0  0  0  0  0  0  0  0  0  0  0
   15.4210  -55.7250   38.3410 C   0  0  0  0  0  0  0  0  0  0  0  0
   15.4860  -56.8740   37.6920 N   0  0  0  0  0  0  0  0  0  0  0  0
   13.6580  -56.0900   39.8990 O   0  0  0  0  0  0  0  0  0  0  0  0
   15.9630  -51.8690   39.7640 N   0  0  0  0  0  0  0  0  0  0  0  0
   18.0910  -55.1760   35.9770 C   0  0  2  0  0  0  0  0  0  0  0  0
   19.0220  -54.3910   36.6430 O   0  0  0  0  0  0  0  0  0  0  0  0
   19.6780  -53.6220   35.7250 C   0  0  1  0  0  0  0  0  0  0  0  0
   18.9670  -53.6760   34.4170 C   0  0  2  0  0  0  0  0  0  0  0  0
   17.6390  -54.3310   34.8040 C   0  0  1  0  0  0  0  0  0  0  0  0
   17.1540  -55.1120   33.7560 O   0  0  0  0  0  0  0  0  0  0  0  0
   19.5970  -54.5970   33.5550 O   0  0  0  0  0  0  0  0  0  0  0  0
   19.6520  -52.1710   36.2100 C   0  0  0  0  0  0  0  0  0  0  0  0
   20.6410  -51.4310   35.5540 O   0  0  0  0  0  0  0  0  0  0  0  0
   14.5540  -60.4610   33.0840 H   0  0  0  0  0  0  0  0  0  0  0  0
   10.9940  -61.2090   36.3670 H   0  0  0  0  0  0  0  0  0  0  0  0
    9.2020  -63.9370   34.9780 H   0  0  0  0  0  0  0  0  0  0  0  0
    9.8400  -62.7260   36.1040 H   0  0  0  0  0  0  0  0  0  0  0  0
   10.7110  -64.2670   35.8570 H   0  0  0  0  0  0  0  0  0  0  0  0
   13.8240  -63.6150   31.1340 H   0  0  0  0  0  0  0  0  0  0  0  0
   14.9320  -62.5750   32.1830 H   0  0  0  0  0  0  0  0  0  0  0  0
   13.9770  -61.8670   30.8630 H   0  0  0  0  0  0  0  0  0  0  0  0
   14.4770  -57.7640   34.8420 H   0  0  0  0  0  0  0  0  0  0  0  0
   17.7280  -57.8950   35.3900 H   0  0  0  0  0  0  0  0  0  0  0  0
   12.7000  -55.8870   39.6400 H   0  0  0  0  0  0  0  0  0  0  0  0
   16.6600  -51.2040   39.4130 H   0  0  0  0  0  0  0  0  0  0  0  0
   15.3290  -51.5820   40.5390 H   0  0  0  0  0  0  0  0  0  0  0  0
   18.6520  -56.0300   35.5410 H   0  0  0  0  0  0  0  0  0  0  0  0
   20.7270  -53.9870   35.6580 H   0  0  0  0  0  0  0  0  0  0  0  0
   18.8130  -52.6980   33.9390 H   0  0  0  0  0  0  0  0  0  0  0  0
   16.8950  -53.5770   35.0930 H   0  0  0  0  0  0  0  0  0  0  0  0
   16.4240  -54.6320   33.2850 H   0  0  0  0  0  0  0  0  0  0  0  0
   19.6850  -54.2370   32.6470 H   0  0  0  0  0  0  0  0  0  0  0  0
   19.8620  -52.2000   37.2930 H   0  0  0  0  0  0  0  0  0  0  0  0
   18.6430  -51.7810   36.0150 H   0  0  0  0  0  0  0  0  0  0  0  0
   20.7710  -50.5450   35.9800 H   0  0  0  0  0  0  0  0  0  0  0  0
  2  1  1  0  0  0  0
  3 12  1  0  0  0  0
  3  2  2  0  0  0  0
  4  3  1  0  0  0  0
  5  4  2  0  0  0  0
  5  6  1  0  0  0  0
  6  7  2  0  0  0  0
  7  2  1  0  0  0  0
  7 36  1  0  0  0  0
  8  6  1  0  0  0  0
  8  9  1  0  0  0  0
  9 39  1  0  0  0  0
  9 38  1  0  0  0  0
 10  5  1  0  0  0  0
 11 41  1  0  0  0  0
 11 10  1  0  0  0  0
 12 13  2  0  0  0  0
 13 14  1  0  0  0  0
 14 15  1  0  0  0  0
 15 16  1  0  0  0  0
 15 23  2  0  0  0  0
 16 17  1  0  0  0  0
 17 18  1  0  0  0  0
 17 22  2  0  0  0  0
 18 19  2  0  0  0  0
 19 25  1  0  0  0  0
 19 20  1  0  0  0  0
 21 20  2  0  0  0  0
 21 24  1  0  0  0  0
 22 21  1  0  0  0  0
 23 22  1  0  0  0  0
 25 47  1  0  0  0  0
 26 48  1  6  0  0  0
 26 27  1  0  0  0  0
 26 16  1  0  0  0  0
 28 49  1  6  0  0  0
 28 33  1  0  0  0  0
 28 27  1  0  0  0  0
 29 50  1  6  0  0  0
 29 30  1  0  0  0  0
 29 28  1  0  0  0  0
 30 51  1  1  0  0  0
 30 26  1  0  0  0  0
 31 30  1  0  0  0  0
 32 29  1  0  0  0  0
 33 54  1  0  0  0  0
 34 56  1  0  0  0  0
 34 33  1  0  0  0  0
 35  4  1  0  0  0  0
 37  9  1  0  0  0  0
 40 11  1  0  0  0  0
 42 11  1  0  0  0  0
 43 12  1  0  0  0  0
 44 14  1  0  0  0  0
 45 24  1  0  0  0  0
 46 25  1  0  0  0  0
 52 31  1  0  0  0  0
 53 32  1  0  0  0  0
 55 33  1  0  0  0  0
M  END
>  <Pose>
1

>  <Score>
-8.93

$$$$
