
 OpenBabel03232204043D

 33 36  0  0  1  0  0  0  0  0999 V2000
   18.2980  -53.6680   36.3620 B   0  0  0  0  0  0  0  0  0  0  0  0
   17.0080  -54.8150   37.1770 C   0  0  0  0  0  0  0  0  0  0  0  0
   16.6120  -55.9900   36.5890 C   0  0  0  0  0  0  0  0  0  0  0  0
   15.6760  -56.7880   37.2020 C   0  0  0  0  0  0  0  0  0  0  0  0
   15.1090  -56.4370   38.4200 C   0  0  0  0  0  0  0  0  0  0  0  0
   15.4910  -55.2650   39.0270 C   0  0  0  0  0  0  0  0  0  0  0  0
   16.4450  -54.4590   38.3950 C   0  0  0  0  0  0  0  0  0  0  0  0
   17.1680  -56.4510   35.2900 C   0  0  1  0  0  0  0  0  0  0  0  0
   16.5600  -57.5580   34.6950 C   0  0  1  0  0  0  0  0  0  0  0  0
   15.2630  -57.8770   34.0400 C   0  0  0  0  0  0  0  0  0  0  0  0
   15.7700  -57.6400   32.6640 N   0  0  0  0  0  0  0  0  0  0  0  0
   16.5460  -56.6030   32.7020 C   0  0  1  0  0  0  0  0  0  0  0  0
   16.5660  -56.1360   34.0520 C   0  0  2  0  0  0  0  0  0  0  0  0
   15.3510  -55.2910   34.2510 C   0  0  0  0  0  0  0  0  0  0  0  0
   14.3840  -54.6210   34.3820 N   0  0  0  0  0  0  0  0  0  0  0  0
   17.2530  -56.0390   31.5750 N   0  0  0  0  0  0  0  0  0  0  0  0
   15.0170  -59.2440   34.2060 O   0  0  0  0  0  0  0  0  0  0  0  0
   13.7320  -59.3680   34.6970 C   0  0  0  0  0  0  0  0  0  0  0  0
   13.0740  -58.0890   34.2070 C   0  0  0  0  0  0  0  0  0  0  0  0
   14.1620  -57.1970   34.3760 O   0  0  0  0  0  0  0  0  0  0  0  0
   17.5660  -58.5170   34.1130 C   0  0  0  0  0  0  0  0  0  0  0  0
   18.3640  -59.2700   33.6760 N   0  0  0  0  0  0  0  0  0  0  0  0
   15.3210  -57.7390   36.7770 H   0  0  0  0  0  0  0  0  0  0  0  0
   14.3770  -57.0490   38.9130 H   0  0  0  0  0  0  0  0  0  0  0  0
   15.0700  -54.9830   39.9590 H   0  0  0  0  0  0  0  0  0  0  0  0
   16.7790  -53.5240   38.8390 H   0  0  0  0  0  0  0  0  0  0  0  0
   18.2900  -56.3500   35.3260 H   0  0  0  0  0  0  0  0  0  0  0  0
   18.2610  -56.2340   31.4210 H   0  0  0  0  0  0  0  0  0  0  0  0
   16.7650  -55.4260   30.8960 H   0  0  0  0  0  0  0  0  0  0  0  0
   13.7740  -59.3570   35.8070 H   0  0  0  0  0  0  0  0  0  0  0  0
   13.2170  -60.2750   34.3150 H   0  0  0  0  0  0  0  0  0  0  0  0
   12.8170  -58.1800   33.1290 H   0  0  0  0  0  0  0  0  0  0  0  0
   12.2070  -57.7900   34.8110 H   0  0  0  0  0  0  0  0  0  0  0  0
  1  2  1  0  0  0  0
  2  7  1  0  0  0  0
  3  2  2  0  0  0  0
  3  4  1  0  0  0  0
  4  5  2  0  0  0  0
  5 24  1  0  0  0  0
  5  6  1  0  0  0  0
  6 25  1  0  0  0  0
  7 26  1  0  0  0  0
  7  6  2  0  0  0  0
  8 27  1  6  0  0  0
  8  3  1  0  0  0  0
  9 21  1  6  0  0  0
  9  8  1  0  0  0  0
 10 17  1  0  0  0  0
 10 20  1  0  0  0  0
 10  9  1  0  0  0  0
 11 12  1  0  0  0  0
 11 10  1  0  0  0  0
 12 16  1  1  0  0  0
 12 13  1  0  0  0  0
 13 14  1  1  0  0  0
 13  9  1  0  0  0  0
 13  8  1  0  0  0  0
 14 15  3  0  0  0  0
 17 18  1  0  0  0  0
 18 30  1  0  0  0  0
 19 20  1  0  0  0  0
 19 18  1  0  0  0  0
 19 33  1  0  0  0  0
 22 21  3  0  0  0  0
 23  4  1  0  0  0  0
 28 16  1  0  0  0  0
 29 16  1  0  0  0  0
 31 18  1  0  0  0  0
 32 19  1  0  0  0  0
M  END
>  <Pose>
1

>  <Score>
-4.77

$$$$
