
 OpenBabel03232204043D

 57 60  0  0  1  0  0  0  0  0999 V2000
   11.0340  -59.7750   37.7490 B   0  0  0  0  0  0  0  0  0  0  0  0
   12.4620  -59.3590   36.5580 C   0  0  0  0  0  0  0  0  0  0  0  0
   13.5980  -58.7040   37.0120 C   0  0  0  0  0  0  0  0  0  0  0  0
   14.6380  -58.3950   36.1710 C   0  0  0  0  0  0  0  0  0  0  0  0
   14.5600  -58.7410   34.8430 C   0  0  0  0  0  0  0  0  0  0  0  0
   13.4230  -59.4000   34.3680 C   0  0  0  0  0  0  0  0  0  0  0  0
   12.3900  -59.7030   35.2200 C   0  0  0  0  0  0  0  0  0  0  0  0
   15.6230  -58.4820   33.8970 C   0  0  1  0  0  0  0  0  0  0  0  0
   15.3460  -57.6030   32.9760 O   0  0  0  0  0  0  0  0  0  0  0  0
   16.9550  -59.0310   33.7940 C   0  0  1  0  0  0  0  0  0  0  0  0
   17.1790  -59.6760   32.5260 N   0  0  0  0  0  0  0  0  0  0  0  0
   16.9680  -58.5510   31.5860 C   0  0  2  0  0  0  0  0  0  0  0  0
   17.3290  -59.0210   30.3050 N   0  0  0  0  0  0  0  0  0  0  0  0
   17.6220  -60.4170   30.4190 C   0  0  0  0  0  0  0  0  0  0  0  0
   17.5240  -60.7860   31.7620 C   0  0  0  0  0  0  0  0  0  0  0  0
   17.7640  -62.0990   32.1070 C   0  0  0  0  0  0  0  0  0  0  0  0
   17.6700  -62.4070   33.3230 O   0  0  0  0  0  0  0  0  0  0  0  0
   18.0840  -62.9860   31.1580 N   0  0  0  0  0  0  0  0  0  0  0  0
   18.1700  -62.6080   29.8930 C   0  0  0  0  0  0  0  0  0  0  0  0
   18.4730  -63.4750   29.0290 O   0  0  0  0  0  0  0  0  0  0  0  0
   17.9430  -61.3210   29.4880 N   0  0  0  0  0  0  0  0  0  0  0  0
   18.0660  -61.0390   28.0760 C   0  0  0  0  0  0  0  0  0  0  0  0
   18.3320  -64.3710   31.5690 C   0  0  0  0  0  0  0  0  0  0  0  0
   17.3780  -58.2870   29.0660 C   0  0  0  0  0  0  0  0  0  0  0  0
   17.6590  -57.4130   32.2100 C   0  0  1  0  0  0  0  0  0  0  0  0
   17.9660  -57.8840   33.6380 C   0  0  1  0  0  0  0  0  0  0  0  0
   17.7780  -56.8170   34.6160 C   0  0  0  0  0  0  0  0  0  0  0  0
   17.5280  -57.1050   35.8330 O   0  0  0  0  0  0  0  0  0  0  0  0
   17.8610  -55.4940   34.2730 O   0  0  0  0  0  0  0  0  0  0  0  0
   18.8470  -54.6100   34.8120 C   0  0  0  0  0  0  0  0  0  0  0  0
   18.8490  -56.8710   31.5680 C   0  0  0  0  0  0  0  0  0  0  0  0
   19.8810  -57.5830   31.4560 O   0  0  0  0  0  0  0  0  0  0  0  0
   18.8860  -55.5870   31.0700 O   0  0  0  0  0  0  0  0  0  0  0  0
   19.5090  -54.5390   31.7800 C   0  0  0  0  0  0  0  0  0  0  0  0
   13.6840  -58.4230   38.0510 H   0  0  0  0  0  0  0  0  0  0  0  0
   15.4780  -57.8780   36.5550 H   0  0  0  0  0  0  0  0  0  0  0  0
   13.3260  -59.6930   33.3060 H   0  0  0  0  0  0  0  0  0  0  0  0
   11.5030  -60.2220   34.8260 H   0  0  0  0  0  0  0  0  0  0  0  0
   17.2490  -59.6820   34.6510 H   0  0  0  0  0  0  0  0  0  0  0  0
   15.8710  -58.3170   31.5430 H   0  0  0  0  0  0  0  0  0  0  0  0
   18.7090  -60.1700   27.8400 H   0  0  0  0  0  0  0  0  0  0  0  0
   18.6230  -61.9010   27.5790 H   0  0  0  0  0  0  0  0  0  0  0  0
   17.0910  -61.0470   27.5400 H   0  0  0  0  0  0  0  0  0  0  0  0
   19.1630  -64.4200   32.3040 H   0  0  0  0  0  0  0  0  0  0  0  0
   18.5150  -65.0040   30.6790 H   0  0  0  0  0  0  0  0  0  0  0  0
   17.4200  -64.7470   32.0830 H   0  0  0  0  0  0  0  0  0  0  0  0
   16.7890  -57.3240   29.1690 H   0  0  0  0  0  0  0  0  0  0  0  0
   18.3610  -58.0150   28.7010 H   0  0  0  0  0  0  0  0  0  0  0  0
   16.7840  -58.8210   28.2580 H   0  0  0  0  0  0  0  0  0  0  0  0
   16.9170  -56.5640   32.3880 H   0  0  0  0  0  0  0  0  0  0  0  0
   18.9930  -58.3320   33.6500 H   0  0  0  0  0  0  0  0  0  0  0  0
   19.8170  -54.7480   34.2720 H   0  0  0  0  0  0  0  0  0  0  0  0
   18.4580  -53.5800   34.6910 H   0  0  0  0  0  0  0  0  0  0  0  0
   18.9350  -54.8960   35.8910 H   0  0  0  0  0  0  0  0  0  0  0  0
   19.5430  -53.6500   31.1000 H   0  0  0  0  0  0  0  0  0  0  0  0
   18.8130  -54.2560   32.6080 H   0  0  0  0  0  0  0  0  0  0  0  0
   20.5150  -54.8180   32.1550 H   0  0  0  0  0  0  0  0  0  0  0  0
  2  3  1  0  0  0  0
  2  1  1  0  0  0  0
  3 35  1  0  0  0  0
  4 36  1  0  0  0  0
  4  3  2  0  0  0  0
  5  4  1  0  0  0  0
  6  5  2  0  0  0  0
  6  7  1  0  0  0  0
  7  2  2  0  0  0  0
  8  9  1  1  0  0  0
  8  5  1  0  0  0  0
 10  8  1  0  0  0  0
 10 39  1  1  0  0  0
 11 10  1  0  0  0  0
 12 40  1  6  0  0  0
 12 25  1  0  0  0  0
 12 11  1  0  0  0  0
 13 14  1  0  0  0  0
 13 12  1  0  0  0  0
 14 15  2  0  0  0  0
 15 16  1  0  0  0  0
 15 11  1  0  0  0  0
 16 17  2  0  0  0  0
 18 23  1  0  0  0  0
 18 16  1  0  0  0  0
 19 18  1  0  0  0  0
 20 19  2  0  0  0  0
 21 19  1  0  0  0  0
 21 14  1  0  0  0  0
 22 21  1  0  0  0  0
 23 46  1  0  0  0  0
 23 44  1  0  0  0  0
 24 47  1  0  0  0  0
 24 13  1  0  0  0  0
 25 50  1  1  0  0  0
 25 26  1  0  0  0  0
 26 51  1  1  0  0  0
 26 10  1  0  0  0  0
 26 27  1  0  0  0  0
 27 28  2  0  0  0  0
 29 27  1  0  0  0  0
 29 30  1  0  0  0  0
 30 54  1  0  0  0  0
 31 25  1  0  0  0  0
 32 31  2  0  0  0  0
 33 31  1  0  0  0  0
 33 34  1  0  0  0  0
 34 57  1  0  0  0  0
 34 56  1  0  0  0  0
 37  6  1  0  0  0  0
 38  7  1  0  0  0  0
 41 22  1  0  0  0  0
 42 22  1  0  0  0  0
 43 22  1  0  0  0  0
 45 23  1  0  0  0  0
 48 24  1  0  0  0  0
 49 24  1  0  0  0  0
 52 30  1  0  0  0  0
 53 30  1  0  0  0  0
 55 34  1  0  0  0  0
M  END
>  <Pose>
1

>  <Score>
-4.56

$$$$
