
 OpenBabel03232204043D

 45 48  0  0  0  0  0  0  0  0999 V2000
   14.5560  -61.6100   27.8940 B   0  0  0  0  0  0  0  0  0  0  0  0
   15.6280  -60.6980   29.2060 C   0  0  0  0  0  0  0  0  0  0  0  0
   15.3850  -60.8700   30.5570 C   0  0  0  0  0  0  0  0  0  0  0  0
   16.1310  -60.2340   31.4930 N   0  0  0  0  0  0  0  0  0  0  0  0
   17.1290  -59.4190   31.1350 C   0  0  0  0  0  0  0  0  0  0  0  0
   17.8650  -58.7910   32.0670 N   0  0  0  0  0  0  0  0  0  0  0  0
   17.6440  -58.9450   33.3830 C   0  0  0  0  0  0  0  0  0  0  0  0
   16.6200  -59.7810   33.7530 C   0  0  0  0  0  0  0  0  0  0  0  0
   15.8410  -60.4450   32.7940 C   0  0  0  0  0  0  0  0  0  0  0  0
   14.9120  -61.2030   33.1660 O   0  0  0  0  0  0  0  0  0  0  0  0
   18.4880  -58.2270   34.3590 C   0  0  0  0  0  0  0  0  0  0  0  0
   17.7070  -57.9970   35.5000 O   0  0  0  0  0  0  0  0  0  0  0  0
   16.8940  -56.8310   35.5210 C   0  0  0  0  0  0  0  0  0  0  0  0
   17.0130  -56.1870   34.4870 O   0  0  0  0  0  0  0  0  0  0  0  0
   16.0790  -56.5710   36.6920 C   0  0  0  0  0  0  0  0  0  0  0  0
   16.4010  -55.5580   37.5500 N   0  0  0  0  0  0  0  0  0  0  0  0
   15.6740  -55.3000   38.6230 N   0  0  0  0  0  0  0  0  0  0  0  0
   14.5830  -56.0250   38.9210 C   0  0  0  0  0  0  0  0  0  0  0  0
   13.8890  -55.7670   39.9610 O   0  0  0  0  0  0  0  0  0  0  0  0
   14.1910  -57.0630   38.1090 C   0  0  0  0  0  0  0  0  0  0  0  0
   14.9760  -57.3140   36.9810 C   0  0  0  0  0  0  0  0  0  0  0  0
   14.5470  -58.3580   36.1990 C   0  0  0  0  0  0  0  0  0  0  0  0
   13.4160  -59.1020   36.5160 C   0  0  0  0  0  0  0  0  0  0  0  0
   12.6660  -58.8280   37.6360 C   0  0  0  0  0  0  0  0  0  0  0  0
   13.0750  -57.7890   38.4330 C   0  0  0  0  0  0  0  0  0  0  0  0
   16.0270  -54.2230   39.5260 C   0  0  0  0  0  0  0  0  0  0  0  0
   16.0000  -52.8760   38.8530 C   0  0  0  0  0  0  0  0  0  0  0  0
   15.6490  -51.8550   39.7160 O   0  0  0  0  0  0  0  0  0  0  0  0
   17.3850  -59.2360   29.8030 C   0  0  0  0  0  0  0  0  0  0  0  0
   16.6480  -59.8640   28.8200 C   0  0  0  0  0  0  0  0  0  0  0  0
   14.5650  -61.5390   30.8270 H   0  0  0  0  0  0  0  0  0  0  0  0
   16.3950  -59.9440   34.7970 H   0  0  0  0  0  0  0  0  0  0  0  0
   19.4390  -58.7540   34.5740 H   0  0  0  0  0  0  0  0  0  0  0  0
   18.8110  -57.2660   33.8710 H   0  0  0  0  0  0  0  0  0  0  0  0
   15.0700  -58.6300   35.3240 H   0  0  0  0  0  0  0  0  0  0  0  0
   13.1190  -59.9170   35.8670 H   0  0  0  0  0  0  0  0  0  0  0  0
   11.7760  -59.4100   37.8880 H   0  0  0  0  0  0  0  0  0  0  0  0
   12.5050  -57.5560   39.3090 H   0  0  0  0  0  0  0  0  0  0  0  0
   17.0520  -54.3810   39.9120 H   0  0  0  0  0  0  0  0  0  0  0  0
   15.3420  -54.2120   40.3860 H   0  0  0  0  0  0  0  0  0  0  0  0
   15.3400  -52.8740   37.9650 H   0  0  0  0  0  0  0  0  0  0  0  0
   17.0290  -52.6720   38.4970 H   0  0  0  0  0  0  0  0  0  0  0  0
   15.1410  -52.2560   40.4600 H   0  0  0  0  0  0  0  0  0  0  0  0
   18.2010  -58.5690   29.4900 H   0  0  0  0  0  0  0  0  0  0  0  0
   16.8550  -59.7170   27.7720 H   0  0  0  0  0  0  0  0  0  0  0  0
  1  2  1  0  0  0  0
  2  3  1  0  0  0  0
  3 31  1  0  0  0  0
  3  4  1  0  0  0  0
  4  9  1  0  0  0  0
  5  4  1  0  0  0  0
  5  6  1  0  0  0  0
  6  7  2  0  0  0  0
  7  8  1  0  0  0  0
  7 11  1  0  0  0  0
  8 32  1  0  0  0  0
  9 10  2  0  0  0  0
  9  8  1  0  0  0  0
 11 33  1  0  0  0  0
 11 12  1  0  0  0  0
 12 13  1  0  0  0  0
 13 15  1  0  0  0  0
 14 13  2  0  0  0  0
 15 21  1  0  0  0  0
 15 16  2  0  0  0  0
 16 17  1  0  0  0  0
 17 18  1  0  0  0  0
 17 26  1  0  0  0  0
 18 19  2  0  0  0  0
 20 25  1  0  0  0  0
 20 18  1  0  0  0  0
 21 20  2  0  0  0  0
 22 23  2  0  0  0  0
 22 21  1  0  0  0  0
 23 24  1  0  0  0  0
 24 37  1  0  0  0  0
 24 25  2  0  0  0  0
 25 38  1  0  0  0  0
 26 39  1  0  0  0  0
 26 40  1  0  0  0  0
 27 26  1  0  0  0  0
 27 28  1  0  0  0  0
 28 43  1  0  0  0  0
 29  5  2  0  0  0  0
 30  2  2  0  0  0  0
 30 29  1  0  0  0  0
 34 11  1  0  0  0  0
 35 22  1  0  0  0  0
 36 23  1  0  0  0  0
 41 27  1  0  0  0  0
 42 27  1  0  0  0  0
 44 29  1  0  0  0  0
 45 30  1  0  0  0  0
M  END
>  <Pose>
1

>  <Score>
-6.86

$$$$
