
 OpenBabel03232204043D

 55 58  0  0  1  0  0  0  0  0999 V2000
   11.0820  -62.8180   33.1630 Cl  0  0  0  0  0  0  0  0  0  0  0  0
   11.5960  -61.7450   34.4750 C   0  0  0  0  0  0  0  0  0  0  0  0
   12.3660  -60.6450   34.1790 C   0  0  0  0  0  0  0  0  0  0  0  0
   12.7890  -59.7810   35.1770 C   0  0  0  0  0  0  0  0  0  0  0  0
   13.5280  -58.6620   35.1800 N   0  0  0  0  0  0  0  0  0  0  0  0
   13.6440  -58.1960   36.4730 C   0  0  0  0  0  0  0  0  0  0  0  0
   12.9620  -59.0580   37.2190 N   0  0  0  0  0  0  0  0  0  0  0  0
   12.4130  -60.0580   36.4710 C   0  0  0  0  0  0  0  0  0  0  0  0
   11.6410  -61.1590   36.7770 C   0  0  0  0  0  0  0  0  0  0  0  0
   11.2280  -62.0090   35.7800 C   0  0  0  0  0  0  0  0  0  0  0  0
   12.7320  -58.9980   38.6520 C   0  0  0  0  0  0  0  0  0  0  0  0
   14.3450  -56.9420   36.8510 C   0  0  0  0  0  0  0  0  0  0  0  0
   14.9840  -56.9030   38.1730 C   0  0  0  0  0  0  0  0  0  0  0  0
   15.0470  -55.6150   38.8710 C   0  0  0  0  0  0  0  0  0  0  0  0
   14.5010  -55.4240   39.9820 O   0  0  0  0  0  0  0  0  0  0  0  0
   15.7640  -54.5250   38.2510 N   0  0  0  0  0  0  0  0  0  0  0  0
   16.4690  -54.7670   37.0220 C   0  0  0  0  0  0  0  0  0  0  0  0
   17.9490  -54.6460   37.3230 C   0  0  2  0  0  0  0  0  0  0  0  0
   18.2600  -53.6580   38.3890 C   0  0  1  0  0  0  0  0  0  0  0  0
   17.2060  -52.6480   38.6580 C   0  0  0  0  0  0  0  0  0  0  0  0
   15.8220  -53.1940   38.7870 C   0  0  0  0  0  0  0  0  0  0  0  0
   18.6000  -54.2640   39.6100 O   0  0  0  0  0  0  0  0  0  0  0  0
   19.5210  -52.9000   37.9530 C   0  0  0  0  0  0  0  0  0  0  0  0
   18.6330  -54.3910   36.0790 N   0  0  0  0  0  0  0  0  0  0  0  0
   19.1310  -53.1660   35.8170 C   0  0  0  0  0  0  0  0  0  0  0  0
   19.7900  -52.8790   34.6420 C   0  0  0  0  0  0  0  0  0  0  0  0
   19.9400  -53.8820   33.7130 C   0  0  0  0  0  0  0  0  0  0  0  0
   20.5410  -53.6790   32.6060 O   0  0  0  0  0  0  0  0  0  0  0  0
   19.4340  -55.0910   34.0010 N   0  0  0  0  0  0  0  0  0  0  0  0
   18.7990  -55.3440   35.1460 C   0  0  0  0  0  0  0  0  0  0  0  0
   18.3400  -56.5010   35.3690 O   0  0  0  0  0  0  0  0  0  0  0  0
   12.6810  -60.3970   33.1700 H   0  0  0  0  0  0  0  0  0  0  0  0
   11.3740  -61.3320   37.7990 H   0  0  0  0  0  0  0  0  0  0  0  0
   10.6200  -62.8820   35.9840 H   0  0  0  0  0  0  0  0  0  0  0  0
   13.0680  -58.0580   39.1020 H   0  0  0  0  0  0  0  0  0  0  0  0
   11.6720  -59.1830   38.9180 H   0  0  0  0  0  0  0  0  0  0  0  0
   13.3030  -59.8550   39.0960 H   0  0  0  0  0  0  0  0  0  0  0  0
   13.6280  -56.0950   36.6910 H   0  0  0  0  0  0  0  0  0  0  0  0
   15.1050  -56.7890   36.0220 H   0  0  0  0  0  0  0  0  0  0  0  0
   14.6230  -57.7240   38.8560 H   0  0  0  0  0  0  0  0  0  0  0  0
   16.0770  -57.1940   38.0050 H   0  0  0  0  0  0  0  0  0  0  0  0
   16.1600  -54.0770   36.2090 H   0  0  0  0  0  0  0  0  0  0  0  0
   16.2430  -55.7870   36.6470 H   0  0  0  0  0  0  0  0  0  0  0  0
   18.2790  -55.6560   37.6840 H   0  0  0  0  0  0  0  0  0  0  0  0
   17.4550  -52.1600   39.6450 H   0  0  0  0  0  0  0  0  0  0  0  0
   17.2800  -51.8040   37.9190 H   0  0  0  0  0  0  0  0  0  0  0  0
   15.1600  -52.5530   38.1330 H   0  0  0  0  0  0  0  0  0  0  0  0
   15.4030  -53.1120   39.8060 H   0  0  0  0  0  0  0  0  0  0  0  0
   19.1710  -55.0680   39.4050 H   0  0  0  0  0  0  0  0  0  0  0  0
   19.9440  -52.4570   38.8860 H   0  0  0  0  0  0  0  0  0  0  0  0
   20.2920  -53.6190   37.5920 H   0  0  0  0  0  0  0  0  0  0  0  0
   19.2970  -52.0950   37.2500 H   0  0  0  0  0  0  0  0  0  0  0  0
   19.0120  -52.3660   36.5560 H   0  0  0  0  0  0  0  0  0  0  0  0
   20.1880  -51.8970   34.4340 H   0  0  0  0  0  0  0  0  0  0  0  0
   19.5270  -55.8950   33.3100 H   0  0  0  0  0  0  0  0  0  0  0  0
  1  2  1  0  0  0  0
  2 10  1  0  0  0  0
  3  2  2  0  0  0  0
  3  4  1  0  0  0  0
  4  5  1  0  0  0  0
  4  8  2  0  0  0  0
  5  6  2  0  0  0  0
  6 12  1  0  0  0  0
  6  7  1  0  0  0  0
  7 11  1  0  0  0  0
  8  9  1  0  0  0  0
  8  7  1  0  0  0  0
  9 33  1  0  0  0  0
 10 34  1  0  0  0  0
 10  9  2  0  0  0  0
 11 36  1  0  0  0  0
 11 37  1  0  0  0  0
 11 35  1  0  0  0  0
 12 13  1  0  0  0  0
 13 40  1  0  0  0  0
 13 14  1  0  0  0  0
 14 15  2  0  0  0  0
 16 21  1  0  0  0  0
 16 14  1  0  0  0  0
 17 18  1  0  0  0  0
 17 16  1  0  0  0  0
 18 44  1  1  0  0  0
 18 19  1  0  0  0  0
 19 20  1  0  0  0  0
 19 22  1  1  0  0  0
 20 21  1  0  0  0  0
 20 45  1  0  0  0  0
 21 48  1  0  0  0  0
 23 19  1  0  0  0  0
 23 50  1  0  0  0  0
 24 18  1  0  0  0  0
 25 24  1  0  0  0  0
 25 53  1  0  0  0  0
 26 25  2  0  0  0  0
 27 29  1  0  0  0  0
 27 26  1  0  0  0  0
 28 27  2  0  0  0  0
 29 30  1  0  0  0  0
 30 31  2  0  0  0  0
 30 24  1  0  0  0  0
 32  3  1  0  0  0  0
 38 12  1  0  0  0  0
 39 12  1  0  0  0  0
 41 13  1  0  0  0  0
 42 17  1  0  0  0  0
 43 17  1  0  0  0  0
 46 20  1  0  0  0  0
 47 21  1  0  0  0  0
 49 22  1  0  0  0  0
 51 23  1  0  0  0  0
 52 23  1  0  0  0  0
 54 26  1  0  0  0  0
 55 29  1  0  0  0  0
M  END
>  <Pose>
1

>  <Score>
-6.57

$$$$
