
 OpenBabel03232204043D

 49 52  0  0  0  0  0  0  0  0999 V2000
   13.7500  -57.9850   34.5580 B   0  0  0  0  0  0  0  0  0  0  0  0
   13.6380  -57.7410   36.4330 C   0  0  0  0  0  0  0  0  0  0  0  0
   14.3330  -56.6990   37.0200 C   0  0  0  0  0  0  0  0  0  0  0  0
   14.2940  -56.4680   38.3830 C   0  0  0  0  0  0  0  0  0  0  0  0
   13.5260  -57.3200   39.1630 C   0  0  0  0  0  0  0  0  0  0  0  0
   12.8380  -58.3540   38.5720 C   0  0  0  0  0  0  0  0  0  0  0  0
   12.8660  -58.5990   37.2170 C   0  0  0  0  0  0  0  0  0  0  0  0
   15.0140  -55.3810   39.0300 C   0  0  0  0  0  0  0  0  0  0  0  0
   14.5810  -54.9090   40.1120 O   0  0  0  0  0  0  0  0  0  0  0  0
   16.1960  -54.8150   38.4990 N   0  0  0  0  0  0  0  0  0  0  0  0
   16.9890  -53.8590   39.2420 C   0  0  0  0  0  0  0  0  0  0  0  0
   18.4450  -54.0950   39.0590 C   0  0  0  0  0  0  0  0  0  0  0  0
   19.1600  -54.0690   40.0910 O   0  0  0  0  0  0  0  0  0  0  0  0
   19.0450  -54.3400   37.8140 N   0  0  0  0  0  0  0  0  0  0  0  0
   19.4360  -53.2780   36.9200 C   0  0  0  0  0  0  0  0  0  0  0  0
   18.5860  -53.4160   35.6760 C   0  0  0  0  0  0  0  0  0  0  0  0
   18.6540  -54.8360   35.1680 C   0  0  0  0  0  0  0  0  0  0  0  0
   17.3220  -55.4000   35.2370 N   0  0  0  0  0  0  0  0  0  0  0  0
   17.1910  -56.6980   34.6750 C   0  0  0  0  0  0  0  0  0  0  0  0
   17.9390  -56.9720   33.4220 C   0  0  0  0  0  0  0  0  0  0  0  0
   18.6550  -55.8060   32.8620 C   0  0  0  0  0  0  0  0  0  0  0  0
   19.0820  -55.5040   31.5980 N   0  0  0  0  0  0  0  0  0  0  0  0
   19.6800  -54.3090   31.6710 C   0  0  0  0  0  0  0  0  0  0  0  0
   19.6330  -53.8680   32.9390 N   0  0  0  0  0  0  0  0  0  0  0  0
   18.9970  -54.7810   33.7150 C   0  0  0  0  0  0  0  0  0  0  0  0
   19.6330  -55.7050   35.8890 C   0  0  0  0  0  0  0  0  0  0  0  0
   19.2920  -55.6920   37.3830 C   0  0  0  0  0  0  0  0  0  0  0  0
   14.9100  -56.0690   36.3900 H   0  0  0  0  0  0  0  0  0  0  0  0
   13.4400  -57.2090   40.2410 H   0  0  0  0  0  0  0  0  0  0  0  0
   12.2310  -59.0310   39.1660 H   0  0  0  0  0  0  0  0  0  0  0  0
   12.3460  -59.3890   36.7270 H   0  0  0  0  0  0  0  0  0  0  0  0
   16.5020  -55.0960   37.5470 H   0  0  0  0  0  0  0  0  0  0  0  0
   16.7930  -53.9440   40.3310 H   0  0  0  0  0  0  0  0  0  0  0  0
   16.6750  -52.8530   38.9020 H   0  0  0  0  0  0  0  0  0  0  0  0
   20.5130  -53.3840   36.6310 H   0  0  0  0  0  0  0  0  0  0  0  0
   19.3510  -52.2760   37.3760 H   0  0  0  0  0  0  0  0  0  0  0  0
   18.8850  -52.6880   34.8910 H   0  0  0  0  0  0  0  0  0  0  0  0
   17.5410  -53.1540   35.9980 H   0  0  0  0  0  0  0  0  0  0  0  0
   17.0400  -55.4530   36.2510 H   0  0  0  0  0  0  0  0  0  0  0  0
   16.0950  -56.8390   34.4410 H   0  0  0  0  0  0  0  0  0  0  0  0
   17.3970  -57.5150   35.4200 H   0  0  0  0  0  0  0  0  0  0  0  0
   17.2730  -57.3730   32.6000 H   0  0  0  0  0  0  0  0  0  0  0  0
   18.6910  -57.8030   33.5580 H   0  0  0  0  0  0  0  0  0  0  0  0
   18.9420  -56.1320   30.7530 H   0  0  0  0  0  0  0  0  0  0  0  0
   20.1280  -53.7820   30.8450 H   0  0  0  0  0  0  0  0  0  0  0  0
   20.6750  -55.4470   35.6980 H   0  0  0  0  0  0  0  0  0  0  0  0
   19.4750  -56.7450   35.5560 H   0  0  0  0  0  0  0  0  0  0  0  0
   20.1340  -56.1050   37.9760 H   0  0  0  0  0  0  0  0  0  0  0  0
   18.4350  -56.3570   37.5140 H   0  0  0  0  0  0  0  0  0  0  0  0
  1  2  1  0  0  0  0
  2  3  2  0  0  0  0
  2  7  1  0  0  0  0
  3  4  1  0  0  0  0
  4  8  1  0  0  0  0
  4  5  2  0  0  0  0
  5 29  1  0  0  0  0
  6  5  1  0  0  0  0
  6 30  1  0  0  0  0
  7  6  2  0  0  0  0
  8  9  2  0  0  0  0
 10  8  1  0  0  0  0
 10 11  1  0  0  0  0
 11 33  1  0  0  0  0
 12 11  1  0  0  0  0
 12 13  2  0  0  0  0
 14 12  1  0  0  0  0
 15 36  1  0  0  0  0
 15 14  1  0  0  0  0
 16 38  1  0  0  0  0
 16 15  1  0  0  0  0
 17 18  1  0  0  0  0
 17 16  1  0  0  0  0
 17 26  1  0  0  0  0
 18 39  1  0  0  0  0
 19 18  1  0  0  0  0
 19 41  1  0  0  0  0
 20 43  1  0  0  0  0
 20 19  1  0  0  0  0
 21 20  1  0  0  0  0
 21 25  2  0  0  0  0
 22 23  1  0  0  0  0
 22 21  1  0  0  0  0
 23 24  2  0  0  0  0
 24 25  1  0  0  0  0
 25 17  1  0  0  0  0
 26 27  1  0  0  0  0
 27 49  1  0  0  0  0
 27 14  1  0  0  0  0
 27 48  1  0  0  0  0
 28  3  1  0  0  0  0
 31  7  1  0  0  0  0
 32 10  1  0  0  0  0
 34 11  1  0  0  0  0
 35 15  1  0  0  0  0
 37 16  1  0  0  0  0
 40 19  1  0  0  0  0
 42 20  1  0  0  0  0
 44 22  1  0  0  0  0
 45 23  1  0  0  0  0
 46 26  1  0  0  0  0
 47 26  1  0  0  0  0
M  END
>  <Pose>
1

>  <Score>
-6.61

$$$$
