
 OpenBabel03232204043D

 51 54  0  0  1  0  0  0  0  0999 V2000
   11.3930  -58.0940   34.9960 B   0  0  0  0  0  0  0  0  0  0  0  0
   13.2810  -58.1260   35.2660 C   0  0  0  0  0  0  0  0  0  0  0  0
   14.1560  -57.7730   34.2560 C   0  0  0  0  0  0  0  0  0  0  0  0
   15.5270  -57.7800   34.4030 C   0  0  0  0  0  0  0  0  0  0  0  0
   16.0030  -58.1720   35.6570 C   0  0  0  0  0  0  0  0  0  0  0  0
   15.1340  -58.5220   36.6610 C   0  0  0  0  0  0  0  0  0  0  0  0
   13.7640  -58.5100   36.5000 C   0  0  0  0  0  0  0  0  0  0  0  0
   12.8670  -58.9010   37.6240 C   0  0  0  0  0  0  0  0  0  0  0  0
   17.3870  -58.1650   35.7680 O   0  0  0  0  0  0  0  0  0  0  0  0
   18.2750  -58.0080   34.6770 C   0  0  0  0  0  0  0  0  0  0  0  0
   17.7710  -56.8780   33.7200 C   0  0  2  0  0  0  0  0  0  0  0  0
   16.4480  -57.4260   33.3320 C   0  0  0  0  0  0  0  0  0  0  0  0
   16.0260  -57.6250   32.1790 O   0  0  0  0  0  0  0  0  0  0  0  0
   18.6390  -56.5840   32.7160 N   0  0  0  0  0  0  0  0  0  0  0  0
   18.6780  -55.3580   32.0400 C   0  0  0  0  0  0  0  0  0  0  0  0
   17.9850  -55.4820   30.7000 C   0  0  0  0  0  0  0  0  0  0  0  0
   18.7920  -56.3610   29.9390 O   0  0  0  0  0  0  0  0  0  0  0  0
   18.5620  -57.6230   30.5140 C   0  0  0  0  0  0  0  0  0  0  0  0
   19.1560  -57.6110   31.9240 C   0  0  0  0  0  0  0  0  0  0  0  0
   17.5880  -55.7220   34.6370 C   0  0  0  0  0  0  0  0  0  0  0  0
   18.6460  -55.3970   35.5420 N   0  0  0  0  0  0  0  0  0  0  0  0
   19.8460  -54.8650   35.0160 C   0  0  0  0  0  0  0  0  0  0  0  0
   19.6600  -53.3900   34.6320 C   0  0  0  0  0  0  0  0  0  0  0  0
   19.4430  -52.7140   35.8370 O   0  0  0  0  0  0  0  0  0  0  0  0
   18.1780  -53.1020   36.2960 C   0  0  0  0  0  0  0  0  0  0  0  0
   18.1060  -54.5630   36.6170 C   0  0  0  0  0  0  0  0  0  0  0  0
   13.7790  -57.4630   33.2670 H   0  0  0  0  0  0  0  0  0  0  0  0
   15.5380  -58.8210   37.6200 H   0  0  0  0  0  0  0  0  0  0  0  0
   11.9500  -59.4060   37.2630 H   0  0  0  0  0  0  0  0  0  0  0  0
   13.4710  -59.5490   38.2990 H   0  0  0  0  0  0  0  0  0  0  0  0
   12.5950  -58.0050   38.2180 H   0  0  0  0  0  0  0  0  0  0  0  0
   19.2570  -57.7450   35.1010 H   0  0  0  0  0  0  0  0  0  0  0  0
   18.3600  -58.9600   34.1040 H   0  0  0  0  0  0  0  0  0  0  0  0
   18.3110  -54.4750   32.5540 H   0  0  0  0  0  0  0  0  0  0  0  0
   19.7530  -55.1360   31.7920 H   0  0  0  0  0  0  0  0  0  0  0  0
   16.9680  -55.8510   30.7920 H   0  0  0  0  0  0  0  0  0  0  0  0
   18.0650  -54.4990   30.1940 H   0  0  0  0  0  0  0  0  0  0  0  0
   19.1450  -58.3650   29.9420 H   0  0  0  0  0  0  0  0  0  0  0  0
   17.4870  -57.7870   30.4890 H   0  0  0  0  0  0  0  0  0  0  0  0
   20.2520  -57.3500   31.7240 H   0  0  0  0  0  0  0  0  0  0  0  0
   19.1970  -58.6280   32.2930 H   0  0  0  0  0  0  0  0  0  0  0  0
   16.6620  -55.8220   35.2750 H   0  0  0  0  0  0  0  0  0  0  0  0
   17.3980  -54.7590   34.0690 H   0  0  0  0  0  0  0  0  0  0  0  0
   20.2250  -55.3570   34.1410 H   0  0  0  0  0  0  0  0  0  0  0  0
   20.6030  -54.8350   35.8410 H   0  0  0  0  0  0  0  0  0  0  0  0
   20.6380  -53.0850   34.1760 H   0  0  0  0  0  0  0  0  0  0  0  0
   18.8410  -53.2470   33.9110 H   0  0  0  0  0  0  0  0  0  0  0  0
   18.0370  -52.5430   37.2620 H   0  0  0  0  0  0  0  0  0  0  0  0
   17.3760  -52.7620   35.6150 H   0  0  0  0  0  0  0  0  0  0  0  0
   18.5930  -54.7800   37.5780 H   0  0  0  0  0  0  0  0  0  0  0  0
   17.0390  -54.8480   36.7210 H   0  0  0  0  0  0  0  0  0  0  0  0
  1  2  1  0  0  0  0
  2  7  1  0  0  0  0
  3  4  1  0  0  0  0
  3  2  2  0  0  0  0
  4  5  2  0  0  0  0
  5  9  1  0  0  0  0
  5  6  1  0  0  0  0
  6 28  1  0  0  0  0
  7  6  2  0  0  0  0
  7  8  1  0  0  0  0
  8 31  1  0  0  0  0
  8 30  1  0  0  0  0
 10 32  1  0  0  0  0
 10  9  1  0  0  0  0
 11 20  1  1  0  0  0
 11 10  1  0  0  0  0
 12 11  1  0  0  0  0
 12  4  1  0  0  0  0
 13 12  2  0  0  0  0
 14 11  1  0  0  0  0
 15 34  1  0  0  0  0
 15 14  1  0  0  0  0
 16 36  1  0  0  0  0
 16 15  1  0  0  0  0
 17 18  1  0  0  0  0
 17 16  1  0  0  0  0
 18 19  1  0  0  0  0
 19 41  1  0  0  0  0
 19 14  1  0  0  0  0
 20 42  1  0  0  0  0
 20 21  1  0  0  0  0
 21 26  1  0  0  0  0
 22 21  1  0  0  0  0
 22 45  1  0  0  0  0
 23 22  1  0  0  0  0
 23 24  1  0  0  0  0
 24 25  1  0  0  0  0
 25 26  1  0  0  0  0
 25 48  1  0  0  0  0
 26 51  1  0  0  0  0
 26 50  1  0  0  0  0
 27  3  1  0  0  0  0
 29  8  1  0  0  0  0
 33 10  1  0  0  0  0
 35 15  1  0  0  0  0
 37 16  1  0  0  0  0
 38 18  1  0  0  0  0
 39 18  1  0  0  0  0
 40 19  1  0  0  0  0
 43 20  1  0  0  0  0
 44 22  1  0  0  0  0
 46 23  1  0  0  0  0
 47 23  1  0  0  0  0
 49 25  1  0  0  0  0
M  END
>  <Pose>
1

>  <Score>
-4.09

$$$$
