
 OpenBabel03232204043D

 66 69  0  0  1  0  0  0  0  0999 V2000
   11.7210  -62.0320   33.9640 B   0  0  0  0  0  0  0  0  0  0  0  0
   11.9800  -62.5770   35.7830 C   0  0  0  0  0  0  0  0  0  0  0  0
   11.7660  -61.6800   36.8030 C   0  0  0  0  0  0  0  0  0  0  0  0
   11.9450  -62.0390   38.1490 C   0  0  0  0  0  0  0  0  0  0  0  0
   12.3450  -63.3340   38.3920 C   0  0  0  0  0  0  0  0  0  0  0  0
   12.5680  -64.2530   37.3880 C   0  0  0  0  0  0  0  0  0  0  0  0
   12.3850  -63.8780   36.0770 C   0  0  0  0  0  0  0  0  0  0  0  0
   12.5990  -64.7930   34.9260 C   0  0  0  0  0  0  0  0  0  0  0  0
   13.1220  -66.0410   37.7540 B   0  0  0  0  0  0  0  0  0  0  0  0
   11.7110  -61.0610   39.1920 C   0  0  0  0  0  0  0  0  0  0  0  0
   11.7640  -61.3950   40.3810 O   0  0  0  0  0  0  0  0  0  0  0  0
   11.4080  -59.6670   38.8240 C   0  0  1  0  0  0  0  0  0  0  0  0
   10.6300  -59.7060   37.5260 C   0  0  0  0  0  0  0  0  0  0  0  0
   11.3610  -60.3800   36.5180 O   0  0  0  0  0  0  0  0  0  0  0  0
   10.6720  -58.9090   39.8870 C   0  0  0  0  0  0  0  0  0  0  0  0
    9.2690  -59.0670   39.9020 N   0  0  0  0  0  4  0  0  0  0  0  0
    8.9280  -60.3780   40.3690 C   0  0  0  0  0  0  0  0  0  0  0  0
    9.1650  -60.6180   41.8170 C   0  0  2  0  0  0  0  0  0  0  0  0
    9.5110  -59.4370   42.6390 C   0  0  0  0  0  0  0  0  0  0  0  0
    9.0970  -58.1180   42.1160 C   0  0  0  0  0  0  0  0  0  0  0  0
    8.5440  -58.1350   40.7220 C   0  0  0  0  0  0  0  0  0  0  0  0
   10.3180  -61.6210   41.9370 C   0  0  0  0  0  0  0  0  0  0  0  0
   12.7450  -59.0090   38.5500 C   0  0  0  0  0  0  0  0  0  0  0  0
   12.6920  -57.8320   37.7510 N   0  0  0  0  0  4  0  0  0  0  0  0
   13.3200  -58.0720   36.4530 C   0  0  0  0  0  0  0  0  0  0  0  0
   14.7140  -57.5210   36.3770 C   0  0  1  0  0  0  0  0  0  0  0  0
   15.4420  -57.8050   37.6710 C   0  0  0  0  0  0  0  0  0  0  0  0
   14.7840  -57.0030   38.7510 C   0  0  0  0  0  0  0  0  0  0  0  0
   13.3700  -56.6920   38.3270 C   0  0  0  0  0  0  0  0  0  0  0  0
   15.4500  -58.3120   35.2870 C   0  0  0  0  0  0  0  0  0  0  0  0
   12.4980  -63.6660   39.4150 H   0  0  0  0  0  0  0  0  0  0  0  0
   11.6220  -64.9210   34.4080 H   0  0  0  0  0  0  0  0  0  0  0  0
   13.0720  -65.7340   35.2080 H   0  0  0  0  0  0  0  0  0  0  0  0
   13.2390  -64.2210   34.1950 H   0  0  0  0  0  0  0  0  0  0  0  0
    9.6800  -60.2470   37.6450 H   0  0  0  0  0  0  0  0  0  0  0  0
   10.3450  -58.6690   37.1930 H   0  0  0  0  0  0  0  0  0  0  0  0
   11.0710  -59.2710   40.8570 H   0  0  0  0  0  0  0  0  0  0  0  0
   10.9770  -57.8450   39.8180 H   0  0  0  0  0  0  0  0  0  0  0  0
    8.8860  -58.9760   38.9270 H   0  0  0  0  0  0  0  0  0  0  0  0
    7.8380  -60.5310   40.1110 H   0  0  0  0  0  0  0  0  0  0  0  0
    9.4650  -61.1140   39.7340 H   0  0  0  0  0  0  0  0  0  0  0  0
    8.2790  -61.1510   42.2310 H   0  0  0  0  0  0  0  0  0  0  0  0
    9.0350  -59.5750   43.6540 H   0  0  0  0  0  0  0  0  0  0  0  0
   10.6160  -59.4060   42.8780 H   0  0  0  0  0  0  0  0  0  0  0  0
    9.9390  -57.3660   42.1700 H   0  0  0  0  0  0  0  0  0  0  0  0
    8.2950  -57.6450   42.7600 H   0  0  0  0  0  0  0  0  0  0  0  0
    8.4380  -57.1290   40.3360 H   0  0  0  0  0  0  0  0  0  0  0  0
    7.4950  -58.5490   40.8080 H   0  0  0  0  0  0  0  0  0  0  0  0
   10.1780  -62.2740   42.8340 H   0  0  0  0  0  0  0  0  0  0  0  0
   10.4160  -62.1860   41.0010 H   0  0  0  0  0  0  0  0  0  0  0  0
   11.2480  -61.0390   42.0790 H   0  0  0  0  0  0  0  0  0  0  0  0
   13.3580  -59.7880   38.0130 H   0  0  0  0  0  0  0  0  0  0  0  0
   13.2940  -58.8620   39.5230 H   0  0  0  0  0  0  0  0  0  0  0  0
   11.7220  -57.5690   37.5580 H   0  0  0  0  0  0  0  0  0  0  0  0
   12.7280  -57.6480   35.6260 H   0  0  0  0  0  0  0  0  0  0  0  0
   13.4030  -59.1740   36.2550 H   0  0  0  0  0  0  0  0  0  0  0  0
   14.7650  -56.4680   36.0720 H   0  0  0  0  0  0  0  0  0  0  0  0
   16.4980  -57.5010   37.5240 H   0  0  0  0  0  0  0  0  0  0  0  0
   15.4190  -58.8850   37.8450 H   0  0  0  0  0  0  0  0  0  0  0  0
   14.8250  -57.4370   39.7470 H   0  0  0  0  0  0  0  0  0  0  0  0
   15.3120  -56.0080   38.8160 H   0  0  0  0  0  0  0  0  0  0  0  0
   13.3910  -55.9080   37.5140 H   0  0  0  0  0  0  0  0  0  0  0  0
   12.8640  -56.2270   39.1740 H   0  0  0  0  0  0  0  0  0  0  0  0
   14.7230  -58.6570   34.5150 H   0  0  0  0  0  0  0  0  0  0  0  0
   16.0220  -59.1580   35.7230 H   0  0  0  0  0  0  0  0  0  0  0  0
   16.1930  -57.6720   34.7680 H   0  0  0  0  0  0  0  0  0  0  0  0
  1  2  1  0  0  0  0
  2  7  2  0  0  0  0
  2  3  1  0  0  0  0
  3  4  2  0  0  0  0
  4  5  1  0  0  0  0
  4 10  1  0  0  0  0
  5 31  1  0  0  0  0
  6  9  1  0  0  0  0
  6  5  2  0  0  0  0
  7  6  1  0  0  0  0
  8 33  1  0  0  0  0
  8  7  1  0  0  0  0
 10 11  2  0  0  0  0
 12 23  1  6  0  0  0
 12 10  1  0  0  0  0
 12 15  1  0  0  0  0
 13 35  1  0  0  0  0
 13 12  1  0  0  0  0
 14  3  1  0  0  0  0
 14 13  1  0  0  0  0
 15 16  1  0  0  0  0
 15 37  1  0  0  0  0
 16 17  1  0  0  0  0
 16 21  1  0  0  0  0
 17 18  1  0  0  0  0
 18 22  1  0  0  0  0
 18 42  1  1  0  0  0
 18 19  1  0  0  0  0
 19 44  1  0  0  0  0
 19 43  1  0  0  0  0
 20 45  1  0  0  0  0
 20 19  1  0  0  0  0
 20 46  1  0  0  0  0
 21 48  1  0  0  0  0
 21 20  1  0  0  0  0
 22 51  1  0  0  0  0
 22 49  1  0  0  0  0
 23 53  1  0  0  0  0
 24 29  1  0  0  0  0
 24 23  1  0  0  0  0
 25 24  1  0  0  0  0
 26 57  1  6  0  0  0
 26 25  1  0  0  0  0
 26 27  1  0  0  0  0
 27 59  1  0  0  0  0
 27 28  1  0  0  0  0
 28 61  1  0  0  0  0
 28 60  1  0  0  0  0
 29 28  1  0  0  0  0
 29 63  1  0  0  0  0
 30 65  1  0  0  0  0
 30 26  1  0  0  0  0
 32  8  1  0  0  0  0
 34  8  1  0  0  0  0
 36 13  1  0  0  0  0
 38 15  1  0  0  0  0
 39 16  1  0  0  0  0
 40 17  1  0  0  0  0
 41 17  1  0  0  0  0
 47 21  1  0  0  0  0
 50 22  1  0  0  0  0
 52 23  1  0  0  0  0
 54 24  1  0  0  0  0
 55 25  1  0  0  0  0
 56 25  1  0  0  0  0
 58 27  1  0  0  0  0
 62 29  1  0  0  0  0
 64 30  1  0  0  0  0
 66 30  1  0  0  0  0
M  END
>  <Pose>
1

>  <Score>
-4.61

$$$$
