
 OpenBabel03232204043D

 55 58  0  0  1  0  0  0  0  0999 V2000
   12.1100  -64.3710   38.0720 Cl  0  0  0  0  0  0  0  0  0  0  0  0
   12.2080  -62.9890   36.9850 C   0  0  0  0  0  0  0  0  0  0  0  0
   12.5640  -61.7420   37.4260 C   0  0  0  0  0  0  0  0  0  0  0  0
   12.6240  -60.6950   36.5340 C   0  0  0  0  0  0  0  0  0  0  0  0
   12.3210  -60.9430   35.2210 C   0  0  0  0  0  0  0  0  0  0  0  0
   11.9580  -62.2170   34.7740 C   0  0  0  0  0  0  0  0  0  0  0  0
   11.9020  -63.2470   35.6670 C   0  0  0  0  0  0  0  0  0  0  0  0
   12.4370  -59.7790   34.4100 N   0  0  0  0  0  0  0  0  0  0  0  0
   12.8360  -58.7460   35.2670 C   0  0  0  0  0  0  0  0  0  0  0  0
   13.0440  -57.5620   34.8420 O   0  0  0  0  0  0  0  0  0  0  0  0
   12.9560  -59.2550   36.6410 C   0  0  2  0  0  0  0  0  0  0  0  0
   14.3080  -59.0390   37.0730 N   0  0  0  0  0  0  0  0  0  0  0  0
   14.3140  -58.0460   38.1020 C   0  0  2  0  0  0  0  0  0  0  0  0
   12.9660  -57.4000   38.1060 C   0  0  0  0  0  0  0  0  0  0  0  0
   12.0910  -58.4850   37.5410 C   0  0  2  0  0  0  0  0  0  0  0  0
   11.3790  -59.2550   38.5930 C   0  0  0  0  0  0  0  0  0  0  0  0
   12.0790  -59.6430   39.5590 O   0  0  0  0  0  0  0  0  0  0  0  0
   10.0120  -59.5550   38.5480 N   0  0  0  0  0  0  0  0  0  0  0  0
    9.0420  -59.3720   39.5340 C   0  0  0  0  0  0  0  0  0  0  0  0
    8.0580  -60.3350   39.7040 C   0  0  0  0  0  0  0  0  0  0  0  0
    7.0690  -60.2200   40.6600 C   0  0  0  0  0  0  0  0  0  0  0  0
    7.0120  -59.1330   41.4950 C   0  0  0  0  0  0  0  0  0  0  0  0
    7.9660  -58.1680   41.3510 C   0  0  0  0  0  0  0  0  0  0  0  0
    8.9590  -58.2970   40.3830 C   0  0  0  0  0  0  0  0  0  0  0  0
    7.9450  -57.0560   42.1740 O   0  0  0  0  0  0  0  0  0  0  0  0
    7.9020  -55.7330   41.6710 C   0  0  0  0  0  0  0  0  0  0  0  0
    8.0480  -61.4610   38.9000 O   0  0  0  0  0  0  0  0  0  0  0  0
    7.4760  -62.6800   39.2650 C   0  0  0  0  0  0  0  0  0  0  0  0
   15.4310  -57.0350   37.9060 C   0  0  0  0  0  0  0  0  0  0  0  0
   15.1030  -55.7290   38.4940 C   0  0  0  0  0  0  0  0  0  0  0  0
   14.5570  -55.6620   39.6070 O   0  0  0  0  0  0  0  0  0  0  0  0
   15.4100  -54.5490   37.7920 N   0  0  0  0  0  0  0  0  0  0  0  0
   12.7910  -61.5910   38.4510 H   0  0  0  0  0  0  0  0  0  0  0  0
   11.7200  -62.3960   33.7210 H   0  0  0  0  0  0  0  0  0  0  0  0
   11.6180  -64.2380   35.3140 H   0  0  0  0  0  0  0  0  0  0  0  0
   12.2600  -59.7030   33.3730 H   0  0  0  0  0  0  0  0  0  0  0  0
   14.7660  -59.9350   37.3430 H   0  0  0  0  0  0  0  0  0  0  0  0
   14.4770  -58.5060   39.1090 H   0  0  0  0  0  0  0  0  0  0  0  0
   12.9110  -56.5320   37.3990 H   0  0  0  0  0  0  0  0  0  0  0  0
   12.6340  -57.0890   39.1210 H   0  0  0  0  0  0  0  0  0  0  0  0
   11.2890  -57.9960   36.8990 H   0  0  0  0  0  0  0  0  0  0  0  0
    9.6850  -59.9720   37.6230 H   0  0  0  0  0  0  0  0  0  0  0  0
    6.3050  -60.9960   40.7730 H   0  0  0  0  0  0  0  0  0  0  0  0
    6.2410  -59.0420   42.2410 H   0  0  0  0  0  0  0  0  0  0  0  0
    9.6590  -57.5040   40.3380 H   0  0  0  0  0  0  0  0  0  0  0  0
    7.1090  -55.6010   40.9110 H   0  0  0  0  0  0  0  0  0  0  0  0
    8.9030  -55.5270   41.2390 H   0  0  0  0  0  0  0  0  0  0  0  0
    7.7280  -54.9950   42.4700 H   0  0  0  0  0  0  0  0  0  0  0  0
    6.3620  -62.5270   39.2670 H   0  0  0  0  0  0  0  0  0  0  0  0
    7.7140  -63.4350   38.4880 H   0  0  0  0  0  0  0  0  0  0  0  0
    7.7390  -63.0220   40.2770 H   0  0  0  0  0  0  0  0  0  0  0  0
   15.6830  -56.9540   36.8260 H   0  0  0  0  0  0  0  0  0  0  0  0
   16.3560  -57.3970   38.4030 H   0  0  0  0  0  0  0  0  0  0  0  0
   14.9640  -53.6600   38.1030 H   0  0  0  0  0  0  0  0  0  0  0  0
   16.0600  -54.5000   36.9700 H   0  0  0  0  0  0  0  0  0  0  0  0
  2  3  1  0  0  0  0
  2  1  1  0  0  0  0
  3 33  1  0  0  0  0
  4 11  1  0  0  0  0
  4  3  2  0  0  0  0
  5  4  1  0  0  0  0
  6  5  2  0  0  0  0
  6  7  1  0  0  0  0
  7  2  2  0  0  0  0
  8  5  1  0  0  0  0
  8  9  1  0  0  0  0
 10  9  2  0  0  0  0
 11  9  1  6  0  0  0
 11 12  1  0  0  0  0
 11 15  1  0  0  0  0
 12 37  1  0  0  0  0
 12 13  1  0  0  0  0
 13 14  1  0  0  0  0
 13 38  1  1  0  0  0
 14 40  1  0  0  0  0
 15 41  1  6  0  0  0
 15 14  1  0  0  0  0
 15 16  1  0  0  0  0
 16 17  2  0  0  0  0
 18 16  1  0  0  0  0
 18 19  1  0  0  0  0
 19 20  2  0  0  0  0
 19 24  1  0  0  0  0
 20 21  1  0  0  0  0
 21 43  1  0  0  0  0
 21 22  2  0  0  0  0
 22 44  1  0  0  0  0
 23 22  1  0  0  0  0
 23 25  1  0  0  0  0
 24 23  2  0  0  0  0
 26 25  1  0  0  0  0
 26 48  1  0  0  0  0
 27 28  1  0  0  0  0
 27 20  1  0  0  0  0
 28 49  1  0  0  0  0
 28 51  1  0  0  0  0
 29 13  1  0  0  0  0
 29 53  1  0  0  0  0
 29 30  1  0  0  0  0
 30 31  2  0  0  0  0
 32 54  1  0  0  0  0
 32 30  1  0  0  0  0
 34  6  1  0  0  0  0
 35  7  1  0  0  0  0
 36  8  1  0  0  0  0
 39 14  1  0  0  0  0
 42 18  1  0  0  0  0
 45 24  1  0  0  0  0
 46 26  1  0  0  0  0
 47 26  1  0  0  0  0
 50 28  1  0  0  0  0
 52 29  1  0  0  0  0
 55 32  1  0  0  0  0
M  END
>  <Pose>
1

>  <Score>
-7.11

$$$$
