
 OpenBabel03232204043D

 41 44  0  0  0  0  0  0  0  0999 V2000
   16.3680  -56.6650   32.4010 B   0  0  0  0  0  0  0  0  0  0  0  0
   17.9800  -55.7450   31.9530 C   0  0  0  0  0  0  0  0  0  0  0  0
   18.5190  -55.9310   30.7000 C   0  0  0  0  0  0  0  0  0  0  0  0
   19.6610  -55.2940   30.3530 N   0  0  0  0  0  0  0  0  0  0  0  0
   20.2450  -54.4840   31.2560 C   0  0  0  0  0  0  0  0  0  0  0  0
   19.7640  -54.2560   32.5140 C   0  0  0  0  0  0  0  0  0  0  0  0
   18.5990  -54.9030   32.8770 C   0  0  0  0  0  0  0  0  0  0  0  0
   20.4770  -53.3600   33.4120 C   0  0  0  0  0  0  0  0  0  0  0  0
   21.7450  -53.2890   33.2950 O   0  0  0  0  0  0  0  0  0  0  0  0
   19.8170  -52.5780   34.3970 N   0  0  0  0  0  0  0  0  0  0  0  0
   19.1910  -53.2690   35.5140 C   0  0  0  0  0  0  0  0  0  0  0  0
   19.2930  -52.4450   36.7780 C   0  0  0  0  0  0  0  0  0  0  0  0
   18.0880  -52.7490   37.5580 N   0  0  0  0  0  0  0  0  0  0  0  0
   17.4310  -51.9590   38.3910 N   0  0  0  0  0  0  0  0  0  0  0  0
   16.3880  -52.5930   38.9080 N   0  0  0  0  0  0  0  0  0  0  0  0
   16.3380  -53.8400   38.4140 C   0  0  0  0  0  0  0  0  0  0  0  0
   17.4140  -53.9300   37.5630 C   0  0  0  0  0  0  0  0  0  0  0  0
   15.3610  -54.8730   38.7090 C   0  0  0  0  0  0  0  0  0  0  0  0
   14.9700  -55.8770   37.9040 N   0  0  0  0  0  0  0  0  0  0  0  0
   14.0510  -56.6230   38.5370 C   0  0  0  0  0  0  0  0  0  0  0  0
   13.8900  -56.0550   39.7430 N   0  0  0  0  0  0  0  0  0  0  0  0
   14.6770  -55.0260   39.8120 O   0  0  0  0  0  0  0  0  0  0  0  0
   13.3580  -57.8210   38.0150 C   0  0  0  0  0  0  0  0  0  0  0  0
   12.1660  -58.2190   38.5730 C   0  0  0  0  0  0  0  0  0  0  0  0
   11.5260  -59.3080   38.1060 N   0  0  0  0  0  0  0  0  0  0  0  0
   11.9990  -60.0580   37.0890 C   0  0  0  0  0  0  0  0  0  0  0  0
   13.1960  -59.6490   36.5350 C   0  0  0  0  0  0  0  0  0  0  0  0
   13.8800  -58.5470   36.9800 C   0  0  0  0  0  0  0  0  0  0  0  0
   18.0470  -56.5910   29.9570 H   0  0  0  0  0  0  0  0  0  0  0  0
   21.1650  -53.9930   30.9250 H   0  0  0  0  0  0  0  0  0  0  0  0
   18.1670  -54.7650   33.8570 H   0  0  0  0  0  0  0  0  0  0  0  0
   19.7850  -51.5420   34.3150 H   0  0  0  0  0  0  0  0  0  0  0  0
   18.0980  -53.3480   35.2740 H   0  0  0  0  0  0  0  0  0  0  0  0
   19.6290  -54.2780   35.6250 H   0  0  0  0  0  0  0  0  0  0  0  0
   20.1990  -52.7640   37.3190 H   0  0  0  0  0  0  0  0  0  0  0  0
   19.2750  -51.3630   36.5830 H   0  0  0  0  0  0  0  0  0  0  0  0
   17.6920  -54.7920   36.9840 H   0  0  0  0  0  0  0  0  0  0  0  0
   11.7510  -57.6290   39.4060 H   0  0  0  0  0  0  0  0  0  0  0  0
   11.4670  -60.9360   36.7240 H   0  0  0  0  0  0  0  0  0  0  0  0
   13.6060  -60.2310   35.7130 H   0  0  0  0  0  0  0  0  0  0  0  0
   14.8250  -58.2210   36.5460 H   0  0  0  0  0  0  0  0  0  0  0  0
  2  1  1  0  0  0  0
  2  7  1  0  0  0  0
  3  2  2  0  0  0  0
  4  3  1  0  0  0  0
  4  5  2  0  0  0  0
  5  6  1  0  0  0  0
  6  7  2  0  0  0  0
  6  8  1  0  0  0  0
  7 31  1  0  0  0  0
  8 10  1  0  0  0  0
  9  8  2  0  0  0  0
 10 11  1  0  0  0  0
 11 34  1  0  0  0  0
 11 12  1  0  0  0  0
 12 35  1  0  0  0  0
 12 13  1  0  0  0  0
 13 17  1  0  0  0  0
 13 14  1  0  0  0  0
 14 15  2  0  0  0  0
 16 18  1  0  0  0  0
 16 15  1  0  0  0  0
 17 16  2  0  0  0  0
 18 22  1  0  0  0  0
 19 20  1  0  0  0  0
 19 18  2  0  0  0  0
 20 21  2  0  0  0  0
 21 22  1  0  0  0  0
 23 20  1  0  0  0  0
 23 24  1  0  0  0  0
 24 38  1  0  0  0  0
 25 24  2  0  0  0  0
 26 25  1  0  0  0  0
 27 28  1  0  0  0  0
 27 26  2  0  0  0  0
 28 23  2  0  0  0  0
 29  3  1  0  0  0  0
 30  5  1  0  0  0  0
 32 10  1  0  0  0  0
 33 11  1  0  0  0  0
 36 12  1  0  0  0  0
 37 17  1  0  0  0  0
 39 26  1  0  0  0  0
 40 27  1  0  0  0  0
 41 28  1  0  0  0  0
M  END
>  <Pose>
1

>  <Score>
-8.92

$$$$
