
 OpenBabel03232204043D

 54 57  0  0  0  0  0  0  0  0999 V2000
   12.5500  -60.1380   37.8850 Cl  0  0  0  0  0  0  0  0  0  0  0  0
   13.0180  -59.3260   36.3880 C   0  0  0  0  0  0  0  0  0  0  0  0
   13.9250  -58.2900   36.4350 C   0  0  0  0  0  0  0  0  0  0  0  0
   14.2700  -57.6790   35.2600 C   0  0  0  0  0  0  0  0  0  0  0  0
   13.7470  -58.0610   34.0340 C   0  0  0  0  0  0  0  0  0  0  0  0
   12.8290  -59.1170   34.0290 C   0  0  0  0  0  0  0  0  0  0  0  0
   12.4680  -59.7450   35.1950 C   0  0  0  0  0  0  0  0  0  0  0  0
   14.4950  -57.8530   37.6460 N   0  0  0  0  0  0  0  0  0  0  0  0
   13.6780  -57.3830   38.7340 C   0  0  0  0  0  0  0  0  0  0  0  0
   14.1660  -56.0850   39.3280 C   0  0  0  0  0  0  0  0  0  0  0  0
   15.5130  -55.8630   38.8760 N   0  0  0  0  0  0  0  0  0  0  0  0
   16.4130  -56.9880   38.8870 C   0  0  0  0  0  0  0  0  0  0  0  0
   15.9620  -57.9030   37.7400 C   0  0  0  0  0  0  0  0  0  0  0  0
   15.9920  -54.6120   38.4310 C   0  0  0  0  0  0  0  0  0  0  0  0
   15.6700  -53.5380   39.0190 O   0  0  0  0  0  0  0  0  0  0  0  0
   16.8730  -54.4830   37.2810 C   0  0  0  0  0  0  0  0  0  0  0  0
   16.8420  -55.4060   36.2720 C   0  0  0  0  0  0  0  0  0  0  0  0
   17.6380  -55.3560   35.1600 N   0  0  0  0  0  0  0  0  0  0  0  0
   18.4920  -54.3420   35.0660 C   0  0  0  0  0  0  0  0  0  0  0  0
   18.5960  -53.3690   36.0260 C   0  0  0  0  0  0  0  0  0  0  0  0
   17.7450  -53.4380   37.1990 C   0  0  0  0  0  0  0  0  0  0  0  0
   18.0650  -52.3690   37.9530 N   0  0  0  0  0  0  0  0  0  0  0  0
   19.0150  -51.6670   37.3610 N   0  0  0  0  0  0  0  0  0  0  0  0
   19.3650  -52.2320   36.1980 C   0  0  0  0  0  0  0  0  0  0  0  0
   20.2330  -51.8600   35.3510 O   0  0  0  0  0  0  0  0  0  0  0  0
   17.4960  -56.3710   34.1270 C   0  0  0  0  0  0  0  0  0  0  0  0
   17.2970  -55.8800   32.7630 C   0  0  0  0  0  0  0  0  0  0  0  0
   17.0100  -56.7360   31.6100 C   0  0  0  0  0  0  0  0  0  0  0  0
   17.9230  -56.9760   30.6550 O   0  0  0  0  0  0  0  0  0  0  0  0
   18.6970  -56.0330   30.1140 C   0  0  0  0  0  0  0  0  0  0  0  0
   14.9750  -56.8700   35.2820 H   0  0  0  0  0  0  0  0  0  0  0  0
   14.0360  -57.5640   33.1340 H   0  0  0  0  0  0  0  0  0  0  0  0
   12.4360  -59.3950   33.0620 H   0  0  0  0  0  0  0  0  0  0  0  0
   11.7680  -60.5470   35.1640 H   0  0  0  0  0  0  0  0  0  0  0  0
   13.5610  -58.1370   39.5400 H   0  0  0  0  0  0  0  0  0  0  0  0
   12.6580  -57.1910   38.3400 H   0  0  0  0  0  0  0  0  0  0  0  0
   13.4920  -55.2370   39.1000 H   0  0  0  0  0  0  0  0  0  0  0  0
   14.2020  -56.1740   40.4490 H   0  0  0  0  0  0  0  0  0  0  0  0
   16.2770  -57.6190   39.8130 H   0  0  0  0  0  0  0  0  0  0  0  0
   17.4660  -56.6990   38.7720 H   0  0  0  0  0  0  0  0  0  0  0  0
   16.3200  -58.9310   37.8730 H   0  0  0  0  0  0  0  0  0  0  0  0
   16.3500  -57.4550   36.8020 H   0  0  0  0  0  0  0  0  0  0  0  0
   16.1550  -56.2680   36.2920 H   0  0  0  0  0  0  0  0  0  0  0  0
   19.1400  -54.2150   34.2050 H   0  0  0  0  0  0  0  0  0  0  0  0
   19.4750  -50.7780   37.7060 H   0  0  0  0  0  0  0  0  0  0  0  0
   16.8320  -57.2090   34.4400 H   0  0  0  0  0  0  0  0  0  0  0  0
   18.5250  -56.8840   34.1280 H   0  0  0  0  0  0  0  0  0  0  0  0
   16.5570  -55.0010   32.7860 H   0  0  0  0  0  0  0  0  0  0  0  0
   18.2580  -55.3040   32.4920 H   0  0  0  0  0  0  0  0  0  0  0  0
   16.4800  -57.7030   31.9250 H   0  0  0  0  0  0  0  0  0  0  0  0
   16.1280  -56.2210   31.0640 H   0  0  0  0  0  0  0  0  0  0  0  0
   19.3590  -55.5400   30.8740 H   0  0  0  0  0  0  0  0  0  0  0  0
   18.2280  -55.2350   29.5320 H   0  0  0  0  0  0  0  0  0  0  0  0
   19.4770  -56.5510   29.4450 H   0  0  0  0  0  0  0  0  0  0  0  0
  2  3  1  0  0  0  0
  2  1  1  0  0  0  0
  3  8  1  0  0  0  0
  4 31  1  0  0  0  0
  4  3  2  0  0  0  0
  5  4  1  0  0  0  0
  6  5  2  0  0  0  0
  6  7  1  0  0  0  0
  7  2  2  0  0  0  0
  8 13  1  0  0  0  0
  8  9  1  0  0  0  0
  9 10  1  0  0  0  0
  9 35  1  0  0  0  0
 10 38  1  0  0  0  0
 11 12  1  0  0  0  0
 11 10  1  0  0  0  0
 12 39  1  0  0  0  0
 13 41  1  0  0  0  0
 13 12  1  0  0  0  0
 14 11  1  0  0  0  0
 14 15  2  0  0  0  0
 16 14  1  0  0  0  0
 17 43  1  0  0  0  0
 17 16  1  0  0  0  0
 18 17  1  0  0  0  0
 19 18  1  0  0  0  0
 19 20  2  0  0  0  0
 20 24  1  0  0  0  0
 20 21  1  0  0  0  0
 21 16  2  0  0  0  0
 21 22  1  0  0  0  0
 23 45  1  0  0  0  0
 23 22  1  0  0  0  0
 24 23  1  0  0  0  0
 25 24  2  0  0  0  0
 26 47  1  0  0  0  0
 26 46  1  0  0  0  0
 26 18  1  0  0  0  0
 27 48  1  0  0  0  0
 27 26  1  0  0  0  0
 28 50  1  0  0  0  0
 28 27  1  0  0  0  0
 29 28  1  0  0  0  0
 30 29  1  0  0  0  0
 30 52  1  0  0  0  0
 32  5  1  0  0  0  0
 33  6  1  0  0  0  0
 34  7  1  0  0  0  0
 36  9  1  0  0  0  0
 37 10  1  0  0  0  0
 40 12  1  0  0  0  0
 42 13  1  0  0  0  0
 44 19  1  0  0  0  0
 49 27  1  0  0  0  0
 51 28  1  0  0  0  0
 53 30  1  0  0  0  0
 54 30  1  0  0  0  0
M  END
>  <Pose>
1

>  <Score>
-6.20

$$$$
