
 OpenBabel03232204043D

 48 51  0  0  1  0  0  0  0  0999 V2000
   16.4960  -52.8720   37.9860 Cl  0  0  0  0  0  0  0  0  0  0  0  0
   15.9460  -54.5030   38.3390 C   0  0  0  0  0  0  0  0  0  0  0  0
   16.3330  -55.5710   37.5340 C   0  0  0  0  0  0  0  0  0  0  0  0
   15.9060  -56.8570   37.7580 C   0  0  0  0  0  0  0  0  0  0  0  0
   15.0540  -57.0380   38.8540 C   0  0  0  0  0  0  0  0  0  0  0  0
   14.6550  -55.9850   39.6700 C   0  0  0  0  0  0  0  0  0  0  0  0
   15.1010  -54.7170   39.4100 C   0  0  0  0  0  0  0  0  0  0  0  0
   16.3830  -57.9670   37.0120 N   0  0  0  0  0  4  0  0  0  0  0  0
   17.5650  -57.7230   36.2240 C   0  0  0  0  0  0  0  0  0  0  0  0
   17.3920  -58.1790   34.8360 C   0  0  2  0  0  0  0  0  0  0  0  0
   16.0740  -58.7450   34.8300 N   0  0  0  0  0  0  0  0  0  0  0  0
   15.4340  -59.7120   33.9700 C   0  0  0  0  0  0  0  0  0  0  0  0
   14.2200  -59.2170   33.2520 C   0  0  0  0  0  0  0  0  0  0  0  0
   13.7110  -57.8930   33.7050 C   0  0  0  0  0  0  0  0  0  0  0  0
   12.9980  -58.0940   35.0610 C   0  0  0  0  0  0  0  0  0  0  0  0
   14.1020  -57.9010   36.0850 C   0  0  0  0  0  0  0  0  0  0  0  0
   15.3810  -58.1820   35.9780 C   0  0  0  0  0  0  0  0  0  0  0  0
   18.2900  -59.2520   34.5760 O   0  0  0  0  0  0  0  0  0  0  0  0
   17.6360  -57.2190   33.7860 C   0  0  0  0  0  0  0  0  0  0  0  0
   18.4880  -56.1240   33.9300 C   0  0  0  0  0  0  0  0  0  0  0  0
   18.7380  -55.2180   32.9080 C   0  0  0  0  0  0  0  0  0  0  0  0
   18.1090  -55.4100   31.6780 C   0  0  0  0  0  0  0  0  0  0  0  0
   17.2670  -56.4680   31.4960 C   0  0  0  0  0  0  0  0  0  0  0  0
   17.0400  -57.3630   32.5530 C   0  0  0  0  0  0  0  0  0  0  0  0
   19.6130  -54.1300   33.1250 N   0  0  0  0  0  0  0  0  0  0  0  0
   19.3700  -53.3050   34.0600 O   0  0  0  0  0  0  0  0  0  0  0  0
   20.7130  -53.9030   32.3840 O   0  0  0  0  0  0  0  0  0  0  0  0
   16.9770  -55.2920   36.6840 H   0  0  0  0  0  0  0  0  0  0  0  0
   14.7040  -58.0340   39.0640 H   0  0  0  0  0  0  0  0  0  0  0  0
   13.9790  -56.1510   40.5280 H   0  0  0  0  0  0  0  0  0  0  0  0
   14.8040  -53.8910   40.0220 H   0  0  0  0  0  0  0  0  0  0  0  0
   16.3720  -58.7950   37.5980 H   0  0  0  0  0  0  0  0  0  0  0  0
   17.9600  -56.7580   36.4680 H   0  0  0  0  0  0  0  0  0  0  0  0
   18.3290  -58.4460   36.6950 H   0  0  0  0  0  0  0  0  0  0  0  0
   16.1080  -60.2150   33.2540 H   0  0  0  0  0  0  0  0  0  0  0  0
   15.0270  -60.6020   34.5790 H   0  0  0  0  0  0  0  0  0  0  0  0
   13.3880  -59.9580   33.2680 H   0  0  0  0  0  0  0  0  0  0  0  0
   14.4440  -59.0900   32.1370 H   0  0  0  0  0  0  0  0  0  0  0  0
   14.4700  -57.0910   33.8110 H   0  0  0  0  0  0  0  0  0  0  0  0
   12.8990  -57.4900   33.0360 H   0  0  0  0  0  0  0  0  0  0  0  0
   12.5830  -59.0930   35.1090 H   0  0  0  0  0  0  0  0  0  0  0  0
   12.2670  -57.2750   35.2230 H   0  0  0  0  0  0  0  0  0  0  0  0
   13.7400  -57.4700   37.0020 H   0  0  0  0  0  0  0  0  0  0  0  0
   18.3750  -59.2900   33.5670 H   0  0  0  0  0  0  0  0  0  0  0  0
   18.9560  -55.9970   34.8640 H   0  0  0  0  0  0  0  0  0  0  0  0
   18.3350  -54.6790   30.9080 H   0  0  0  0  0  0  0  0  0  0  0  0
   16.7710  -56.6120   30.5160 H   0  0  0  0  0  0  0  0  0  0  0  0
   16.3540  -58.1630   32.2910 H   0  0  0  0  0  0  0  0  0  0  0  0
  1  2  1  0  0  0  0
  2  7  1  0  0  0  0
  3  4  1  0  0  0  0
  3  2  2  0  0  0  0
  4  5  2  0  0  0  0
  5 29  1  0  0  0  0
  5  6  1  0  0  0  0
  6 30  1  0  0  0  0
  7  6  2  0  0  0  0
  7 31  1  0  0  0  0
  8 32  1  0  0  0  0
  8  4  1  0  0  0  0
  9 33  1  0  0  0  0
  9 34  1  0  0  0  0
  9  8  1  0  0  0  0
 10 18  1  6  0  0  0
 10  9  1  0  0  0  0
 11 10  1  0  0  0  0
 11 17  1  0  0  0  0
 12 36  1  0  0  0  0
 12 11  1  0  0  0  0
 13 37  1  0  0  0  0
 13 14  1  0  0  0  0
 13 12  1  0  0  0  0
 14 39  1  0  0  0  0
 14 15  1  0  0  0  0
 15 41  1  0  0  0  0
 15 42  1  0  0  0  0
 15 16  1  0  0  0  0
 16 43  1  0  0  0  0
 17 16  2  0  0  0  0
 17  8  1  0  0  0  0
 19 20  1  0  0  0  0
 19 10  1  0  0  0  0
 20 45  1  0  0  0  0
 21 25  1  0  0  0  0
 21 20  2  0  0  0  0
 22 21  1  0  0  0  0
 23 22  2  0  0  0  0
 23 24  1  0  0  0  0
 24 19  2  0  0  0  0
 25 26  2  0  0  0  0
 27 25  2  0  0  0  0
 28  3  1  0  0  0  0
 35 12  1  0  0  0  0
 38 13  1  0  0  0  0
 40 14  1  0  0  0  0
 44 18  1  0  0  0  0
 46 22  1  0  0  0  0
 47 23  1  0  0  0  0
 48 24  1  0  0  0  0
M  END
>  <Pose>
1

>  <Score>
-5.81

$$$$
