
 OpenBabel03232204043D

 54 58  0  0  0  0  0  0  0  0999 V2000
   15.2490  -54.0530   40.1920 F   0  0  0  0  0  0  0  0  0  0  0  0
   15.3100  -54.9840   39.2230 C   0  0  0  0  0  0  0  0  0  0  0  0
   14.3700  -56.0030   39.3540 C   0  0  0  0  0  0  0  0  0  0  0  0
   14.3110  -57.0210   38.4290 C   0  0  0  0  0  0  0  0  0  0  0  0
   15.2010  -56.9970   37.3820 C   0  0  0  0  0  0  0  0  0  0  0  0
   16.1310  -55.9690   37.2680 C   0  0  0  0  0  0  0  0  0  0  0  0
   16.2020  -54.9520   38.1810 C   0  0  0  0  0  0  0  0  0  0  0  0
   17.1550  -53.9440   38.0370 N   0  0  0  0  0  4  0  0  0  0  0  0
   16.8070  -52.8800   37.1300 C   0  0  0  0  0  0  0  0  0  0  0  0
   17.8830  -51.7700   37.1860 C   0  0  0  0  0  0  0  0  0  0  0  0
   19.0710  -52.3720   36.7230 N   0  0  0  0  0  0  0  0  0  0  0  0
   19.5620  -53.3960   37.7260 C   0  0  0  0  0  0  0  0  0  0  0  0
   18.4640  -54.4150   37.7210 C   0  0  0  0  0  0  0  0  0  0  0  0
   19.7930  -52.2540   35.5840 C   0  0  0  0  0  0  0  0  0  0  0  0
   20.5940  -51.2170   35.5330 O   0  0  0  0  0  0  0  0  0  0  0  0
   19.8420  -53.0690   34.4030 C   0  0  0  0  0  0  0  0  0  0  0  0
   19.3190  -54.3190   34.3120 C   0  0  0  0  0  0  0  0  0  0  0  0
   19.3410  -55.0500   33.1310 C   0  0  0  0  0  0  0  0  0  0  0  0
   19.9120  -54.4980   32.0130 C   0  0  0  0  0  0  0  0  0  0  0  0
   20.4550  -53.2450   32.0510 C   0  0  0  0  0  0  0  0  0  0  0  0
   20.4170  -52.5520   33.2230 C   0  0  0  0  0  0  0  0  0  0  0  0
   18.6460  -56.6710   33.0600 Cl  0  0  0  0  0  0  0  0  0  0  0  0
   15.1230  -58.0040   36.4890 N   0  0  0  0  0  0  0  0  0  0  0  0
   14.2250  -58.9990   36.5940 C   0  0  0  0  0  0  0  0  0  0  0  0
   13.3200  -59.0530   37.6310 C   0  0  0  0  0  0  0  0  0  0  0  0
   13.3640  -58.0460   38.5660 C   0  0  0  0  0  0  0  0  0  0  0  0
   12.5680  -58.0330   39.5350 O   0  0  0  0  0  0  0  0  0  0  0  0
   12.3420  -60.1530   37.7330 C   0  0  0  0  0  0  0  0  0  0  0  0
   11.3530  -60.2360   36.9870 O   0  0  0  0  0  0  0  0  0  0  0  0
   12.5490  -61.1150   38.6950 O   0  0  0  0  0  0  0  0  0  0  0  0
   16.0810  -57.9610   35.3780 C   0  0  0  0  0  0  0  0  0  0  0  0
   15.6810  -57.4750   34.0530 C   0  0  0  0  0  0  0  0  0  0  0  0
   15.7180  -58.9300   34.2040 C   0  0  0  0  0  0  0  0  0  0  0  0
   13.6610  -56.0450   40.1670 H   0  0  0  0  0  0  0  0  0  0  0  0
   16.7910  -56.0430   36.4020 H   0  0  0  0  0  0  0  0  0  0  0  0
   17.2380  -53.4770   38.9930 H   0  0  0  0  0  0  0  0  0  0  0  0
   16.8600  -53.2620   36.1000 H   0  0  0  0  0  0  0  0  0  0  0  0
   15.8880  -52.3310   37.3960 H   0  0  0  0  0  0  0  0  0  0  0  0
   17.4890  -50.8890   36.7230 H   0  0  0  0  0  0  0  0  0  0  0  0
   17.9840  -51.4740   38.2940 H   0  0  0  0  0  0  0  0  0  0  0  0
   19.5440  -52.8580   38.6870 H   0  0  0  0  0  0  0  0  0  0  0  0
   20.5340  -53.7790   37.4410 H   0  0  0  0  0  0  0  0  0  0  0  0
   18.7390  -55.1690   38.5160 H   0  0  0  0  0  0  0  0  0  0  0  0
   18.5370  -54.9740   36.7730 H   0  0  0  0  0  0  0  0  0  0  0  0
   18.8890  -54.8400   35.1500 H   0  0  0  0  0  0  0  0  0  0  0  0
   19.9200  -55.0840   31.1030 H   0  0  0  0  0  0  0  0  0  0  0  0
   20.8900  -52.8690   31.1340 H   0  0  0  0  0  0  0  0  0  0  0  0
   20.8510  -51.5470   33.2500 H   0  0  0  0  0  0  0  0  0  0  0  0
   14.2030  -59.7840   35.8530 H   0  0  0  0  0  0  0  0  0  0  0  0
   17.1500  -57.9850   35.6530 H   0  0  0  0  0  0  0  0  0  0  0  0
   14.7110  -56.9690   33.8700 H   0  0  0  0  0  0  0  0  0  0  0  0
   16.5020  -56.9970   33.4410 H   0  0  0  0  0  0  0  0  0  0  0  0
   14.7680  -59.4890   34.3180 H   0  0  0  0  0  0  0  0  0  0  0  0
   16.5440  -59.5630   33.8290 H   0  0  0  0  0  0  0  0  0  0  0  0
  2  3  1  0  0  0  0
  2  1  1  0  0  0  0
  3 34  1  0  0  0  0
  4 26  1  0  0  0  0
  4  3  2  0  0  0  0
  5  4  1  0  0  0  0
  6  5  2  0  0  0  0
  6  7  1  0  0  0  0
  7  2  2  0  0  0  0
  8  7  1  0  0  0  0
  8 36  1  0  0  0  0
  9 10  1  0  0  0  0
  9 38  1  0  0  0  0
  9  8  1  0  0  0  0
 10 40  1  0  0  0  0
 11 10  1  0  0  0  0
 11 12  1  0  0  0  0
 12 41  1  0  0  0  0
 13 12  1  0  0  0  0
 13  8  1  0  0  0  0
 13 43  1  0  0  0  0
 14 11  1  0  0  0  0
 15 14  2  0  0  0  0
 16 14  1  0  0  0  0
 17 16  1  0  0  0  0
 17 45  1  0  0  0  0
 18 17  2  0  0  0  0
 19 20  2  0  0  0  0
 19 18  1  0  0  0  0
 20 21  1  0  0  0  0
 21 48  1  0  0  0  0
 21 16  2  0  0  0  0
 22 18  1  0  0  0  0
 23 24  1  0  0  0  0
 23  5  1  0  0  0  0
 24 25  2  0  0  0  0
 25 28  1  0  0  0  0
 25 26  1  0  0  0  0
 26 27  2  0  0  0  0
 28 30  1  0  0  0  0
 29 28  2  0  0  0  0
 31 50  1  0  0  0  0
 31 23  1  0  0  0  0
 32 33  1  0  0  0  0
 32 31  1  0  0  0  0
 33 53  1  0  0  0  0
 33 31  1  0  0  0  0
 35  6  1  0  0  0  0
 37  9  1  0  0  0  0
 39 10  1  0  0  0  0
 42 12  1  0  0  0  0
 44 13  1  0  0  0  0
 46 19  1  0  0  0  0
 47 20  1  0  0  0  0
 49 24  1  0  0  0  0
 51 32  1  0  0  0  0
 52 32  1  0  0  0  0
 54 33  1  0  0  0  0
M  END
>  <Pose>
1

>  <Score>
-6.31

$$$$
