
 OpenBabel03232204043D

 51 54  0  0  0  0  0  0  0  0999 V2000
   18.8500  -53.2640   37.2350 Cl  0  0  0  0  0  0  0  0  0  0  0  0
   17.4000  -54.1840   37.5990 C   0  0  0  0  0  0  0  0  0  0  0  0
   16.5320  -53.7380   38.5820 C   0  0  0  0  0  0  0  0  0  0  0  0
   15.3980  -54.4650   38.8600 C   0  0  0  0  0  0  0  0  0  0  0  0
   15.0990  -55.6280   38.1850 C   0  0  0  0  0  0  0  0  0  0  0  0
   15.9720  -56.0500   37.2170 C   0  0  0  0  0  0  0  0  0  0  0  0
   17.1330  -55.3370   36.9100 C   0  0  0  0  0  0  0  0  0  0  0  0
   13.8690  -56.3800   38.5280 C   0  0  0  0  0  0  0  0  0  0  0  0
   13.4680  -56.2500   39.7040 O   0  0  0  0  0  0  0  0  0  0  0  0
   13.2020  -57.1760   37.6090 N   0  0  0  0  0  0  0  0  0  0  0  0
   12.3810  -58.3140   37.7780 C   0  0  0  0  0  0  0  0  0  0  0  0
   12.5020  -59.4220   36.8170 C   0  0  0  0  0  0  0  0  0  0  0  0
   13.7310  -60.0680   36.5690 N   0  0  0  0  0  0  0  0  0  0  0  0
   14.1050  -60.2650   35.1910 C   0  0  0  0  0  0  0  0  0  0  0  0
   14.8490  -61.2140   34.8970 O   0  0  0  0  0  0  0  0  0  0  0  0
   13.6220  -59.3620   34.1200 C   0  0  0  0  0  0  0  0  0  0  0  0
   14.3900  -59.6820   32.8570 C   0  0  0  0  0  0  0  0  0  0  0  0
   15.8040  -59.1830   33.0550 C   0  0  0  0  0  0  0  0  0  0  0  0
   15.7130  -57.7260   33.0340 N   0  0  0  0  0  0  0  0  0  0  0  0
   14.5740  -57.0760   33.5900 C   0  0  0  0  0  0  0  0  0  0  0  0
   13.7190  -57.9210   34.4620 C   0  0  0  0  0  0  0  0  0  0  0  0
   16.7850  -57.0130   32.4500 C   0  0  0  0  0  0  0  0  0  0  0  0
   17.4880  -56.0750   33.1140 N   0  0  0  0  0  0  0  0  0  0  0  0
   18.4900  -55.3990   32.5830 N   0  0  0  0  0  0  0  0  0  0  0  0
   19.2840  -54.4550   33.0760 N   0  0  0  0  0  0  0  0  0  0  0  0
   20.1500  -54.0680   32.1770 N   0  0  0  0  0  0  0  0  0  0  0  0
   19.9310  -54.7620   31.0800 N   0  0  0  0  0  0  0  0  0  0  0  0
   18.8970  -55.5940   31.3230 C   0  0  0  0  0  0  0  0  0  0  0  0
   18.2140  -56.5460   30.5880 C   0  0  0  0  0  0  0  0  0  0  0  0
   17.1660  -57.2530   31.1410 C   0  0  0  0  0  0  0  0  0  0  0  0
   16.7660  -52.8170   39.1190 H   0  0  0  0  0  0  0  0  0  0  0  0
   14.7010  -54.1320   39.6290 H   0  0  0  0  0  0  0  0  0  0  0  0
   15.8160  -56.9400   36.6530 H   0  0  0  0  0  0  0  0  0  0  0  0
   17.8220  -55.6670   36.1490 H   0  0  0  0  0  0  0  0  0  0  0  0
   13.3580  -56.8230   36.5660 H   0  0  0  0  0  0  0  0  0  0  0  0
   12.5200  -58.7160   38.8310 H   0  0  0  0  0  0  0  0  0  0  0  0
   11.3070  -57.9360   37.7500 H   0  0  0  0  0  0  0  0  0  0  0  0
   11.9850  -59.1300   35.8340 H   0  0  0  0  0  0  0  0  0  0  0  0
   11.7880  -60.2530   37.1650 H   0  0  0  0  0  0  0  0  0  0  0  0
   14.4150  -60.3910   37.2480 H   0  0  0  0  0  0  0  0  0  0  0  0
   12.5560  -59.6090   33.8750 H   0  0  0  0  0  0  0  0  0  0  0  0
   13.9330  -59.0790   32.0400 H   0  0  0  0  0  0  0  0  0  0  0  0
   14.3530  -60.7580   32.6070 H   0  0  0  0  0  0  0  0  0  0  0  0
   16.4710  -59.5210   32.2270 H   0  0  0  0  0  0  0  0  0  0  0  0
   16.2410  -59.4430   34.0290 H   0  0  0  0  0  0  0  0  0  0  0  0
   13.9310  -56.7030   32.7420 H   0  0  0  0  0  0  0  0  0  0  0  0
   14.8630  -56.1660   34.1750 H   0  0  0  0  0  0  0  0  0  0  0  0
   12.6730  -57.5060   34.5600 H   0  0  0  0  0  0  0  0  0  0  0  0
   14.1080  -57.8680   35.5240 H   0  0  0  0  0  0  0  0  0  0  0  0
   18.5360  -56.7110   29.5610 H   0  0  0  0  0  0  0  0  0  0  0  0
   16.6380  -58.0020   30.5510 H   0  0  0  0  0  0  0  0  0  0  0  0
  1  2  1  0  0  0  0
  2  3  1  0  0  0  0
  3  4  2  0  0  0  0
  3 31  1  0  0  0  0
  4 32  1  0  0  0  0
  5  8  1  0  0  0  0
  5  4  1  0  0  0  0
  6  5  2  0  0  0  0
  7  6  1  0  0  0  0
  7  2  2  0  0  0  0
  8  9  2  0  0  0  0
 10 11  1  0  0  0  0
 10  8  1  0  0  0  0
 11 36  1  0  0  0  0
 12 39  1  0  0  0  0
 12 11  1  0  0  0  0
 13 12  1  0  0  0  0
 13 40  1  0  0  0  0
 14 13  1  0  0  0  0
 15 14  2  0  0  0  0
 16 21  1  0  0  0  0
 16 14  1  0  0  0  0
 17 18  1  0  0  0  0
 17 16  1  0  0  0  0
 18 45  1  0  0  0  0
 19 18  1  0  0  0  0
 19 20  1  0  0  0  0
 20 47  1  0  0  0  0
 20 21  1  0  0  0  0
 21 48  1  0  0  0  0
 21 49  1  0  0  0  0
 22 19  1  0  0  0  0
 22 23  2  0  0  0  0
 24 25  1  0  0  0  0
 24 23  1  0  0  0  0
 26 25  2  0  0  0  0
 27 28  2  0  0  0  0
 27 26  1  0  0  0  0
 28 24  1  0  0  0  0
 29 30  2  0  0  0  0
 29 28  1  0  0  0  0
 30 22  1  0  0  0  0
 33  6  1  0  0  0  0
 34  7  1  0  0  0  0
 35 10  1  0  0  0  0
 37 11  1  0  0  0  0
 38 12  1  0  0  0  0
 41 16  1  0  0  0  0
 42 17  1  0  0  0  0
 43 17  1  0  0  0  0
 44 18  1  0  0  0  0
 46 20  1  0  0  0  0
 50 29  1  0  0  0  0
 51 30  1  0  0  0  0
M  END
>  <Pose>
1

>  <Score>
-8.07

$$$$
