
 OpenBabel03232204043D

 53 56  0  0  1  0  0  0  0  0999 V2000
   22.4670  -57.0890   26.2520 B   0  0  0  0  0  0  0  0  0  0  0  0
   21.3330  -56.9710   27.8000 C   0  0  0  0  0  0  0  0  0  0  0  0
   21.4540  -57.8520   28.8500 C   0  0  0  0  0  0  0  0  0  0  0  0
   20.6760  -57.8150   29.9730 C   0  0  0  0  0  0  0  0  0  0  0  0
   19.7050  -56.8350   30.0670 C   0  0  0  0  0  0  0  0  0  0  0  0
   19.5640  -55.9400   29.0310 C   0  0  0  0  0  0  0  0  0  0  0  0
   20.3670  -55.9900   27.8880 C   0  0  0  0  0  0  0  0  0  0  0  0
   18.8530  -56.7070   31.2430 C   0  0  0  0  0  0  0  0  0  0  0  0
   18.9480  -55.6660   32.0450 C   0  0  0  0  0  0  0  0  0  0  0  0
   18.1800  -55.3460   33.2920 C   0  0  2  0  0  0  0  0  0  0  0  0
   19.1960  -54.8400   34.1420 N   0  0  0  0  0  0  0  0  0  0  0  0
   19.9660  -53.9580   33.2690 C   0  0  0  0  0  0  0  0  0  0  0  0
   20.6340  -52.9440   33.5980 O   0  0  0  0  0  0  0  0  0  0  0  0
   19.8080  -54.4890   31.9200 C   0  0  0  0  0  0  0  0  0  0  0  0
   20.2870  -54.0750   30.8120 O   0  0  0  0  0  0  0  0  0  0  0  0
   19.5100  -54.9860   35.5510 C   0  0  0  0  0  0  0  0  0  0  0  0
   19.0650  -53.9110   36.4640 C   0  0  0  0  0  0  0  0  0  0  0  0
   18.4160  -54.3950   37.6880 N   0  0  0  0  0  4  0  0  0  0  0  0
   17.0900  -54.8280   37.4060 C   0  0  0  0  0  0  0  0  0  0  0  0
   15.9860  -54.0560   38.0390 C   0  0  0  0  0  0  0  0  0  0  0  0
   16.3000  -53.4320   39.2320 O   0  0  0  0  0  0  0  0  0  0  0  0
   17.3380  -52.5280   38.9080 C   0  0  0  0  0  0  0  0  0  0  0  0
   18.5470  -53.3630   38.6740 C   0  0  0  0  0  0  0  0  0  0  0  0
   17.2590  -56.3560   33.6950 C   0  0  0  0  0  0  0  0  0  0  0  0
   17.6230  -57.2420   34.6800 C   0  0  0  0  0  0  0  0  0  0  0  0
   16.7840  -58.2310   35.1330 C   0  0  0  0  0  0  0  0  0  0  0  0
   15.5110  -58.3730   34.6000 C   0  0  0  0  0  0  0  0  0  0  0  0
   15.1640  -57.4740   33.6110 C   0  0  0  0  0  0  0  0  0  0  0  0
   16.0110  -56.4850   33.1630 C   0  0  0  0  0  0  0  0  0  0  0  0
   14.4350  -59.6260   35.1670 Cl  0  0  0  0  0  0  0  0  0  0  0  0
   17.9450  -57.7270   31.4670 O   0  0  0  0  0  0  0  0  0  0  0  0
   22.2150  -58.6120   28.7600 H   0  0  0  0  0  0  0  0  0  0  0  0
   20.7570  -58.4980   30.8050 H   0  0  0  0  0  0  0  0  0  0  0  0
   18.8280  -55.1330   29.0560 H   0  0  0  0  0  0  0  0  0  0  0  0
   20.2220  -55.2610   27.0870 H   0  0  0  0  0  0  0  0  0  0  0  0
   17.5870  -54.4220   32.9800 H   0  0  0  0  0  0  0  0  0  0  0  0
   19.0290  -55.9390   35.9500 H   0  0  0  0  0  0  0  0  0  0  0  0
   20.6060  -55.2390   35.6830 H   0  0  0  0  0  0  0  0  0  0  0  0
   18.3960  -53.1510   36.0680 H   0  0  0  0  0  0  0  0  0  0  0  0
   20.0340  -53.4330   36.8430 H   0  0  0  0  0  0  0  0  0  0  0  0
   19.0170  -55.2200   37.9960 H   0  0  0  0  0  0  0  0  0  0  0  0
   16.9340  -54.8920   36.2880 H   0  0  0  0  0  0  0  0  0  0  0  0
   16.9850  -55.8900   37.7810 H   0  0  0  0  0  0  0  0  0  0  0  0
   15.6850  -53.2280   37.3330 H   0  0  0  0  0  0  0  0  0  0  0  0
   15.0700  -54.6480   38.2170 H   0  0  0  0  0  0  0  0  0  0  0  0
   17.0730  -51.8850   38.0570 H   0  0  0  0  0  0  0  0  0  0  0  0
   17.4940  -51.8730   39.7770 H   0  0  0  0  0  0  0  0  0  0  0  0
   19.4080  -52.6780   38.4570 H   0  0  0  0  0  0  0  0  0  0  0  0
   18.8060  -53.8430   39.6590 H   0  0  0  0  0  0  0  0  0  0  0  0
   18.6300  -57.1870   35.1520 H   0  0  0  0  0  0  0  0  0  0  0  0
   17.0750  -58.9240   35.9080 H   0  0  0  0  0  0  0  0  0  0  0  0
   14.1580  -57.6030   33.2050 H   0  0  0  0  0  0  0  0  0  0  0  0
   15.6110  -55.8340   32.3920 H   0  0  0  0  0  0  0  0  0  0  0  0
  1  2  1  0  0  0  0
  2  7  2  0  0  0  0
  2  3  1  0  0  0  0
  3  4  2  0  0  0  0
  4  5  1  0  0  0  0
  4 33  1  0  0  0  0
  5  8  1  0  0  0  0
  6 34  1  0  0  0  0
  6  5  2  0  0  0  0
  7  6  1  0  0  0  0
  8 31  1  0  0  0  0
  8  9  2  0  0  0  0
  9 10  1  0  0  0  0
 10 36  1  6  0  0  0
 10 24  1  0  0  0  0
 10 11  1  0  0  0  0
 11 16  1  0  0  0  0
 12 13  2  0  0  0  0
 12 11  1  0  0  0  0
 14  9  1  0  0  0  0
 14 12  1  0  0  0  0
 15 14  2  0  0  0  0
 16 38  1  0  0  0  0
 16 37  1  0  0  0  0
 16 17  1  0  0  0  0
 17 40  1  0  0  0  0
 17 18  1  0  0  0  0
 18 41  1  0  0  0  0
 18 23  1  0  0  0  0
 19 18  1  0  0  0  0
 19 43  1  0  0  0  0
 19 20  1  0  0  0  0
 20 45  1  0  0  0  0
 20 21  1  0  0  0  0
 22 21  1  0  0  0  0
 22 47  1  0  0  0  0
 23 22  1  0  0  0  0
 23 49  1  0  0  0  0
 24 25  1  0  0  0  0
 25 26  2  0  0  0  0
 25 50  1  0  0  0  0
 26 51  1  0  0  0  0
 27 26  1  0  0  0  0
 27 30  1  0  0  0  0
 28 27  2  0  0  0  0
 29 28  1  0  0  0  0
 29 24  2  0  0  0  0
 32  3  1  0  0  0  0
 35  7  1  0  0  0  0
 39 17  1  0  0  0  0
 42 19  1  0  0  0  0
 44 20  1  0  0  0  0
 46 22  1  0  0  0  0
 48 23  1  0  0  0  0
 52 28  1  0  0  0  0
 53 29  1  0  0  0  0
M  END
>  <Pose>
1

>  <Score>
-5.99

$$$$
