
 OpenBabel03232204043D

 49 52  0  0  0  0  0  0  0  0999 V2000
   20.1700  -55.5230   28.7650 B   0  0  0  0  0  0  0  0  0  0  0  0
   19.0670  -56.3690   30.0820 C   0  0  0  0  0  0  0  0  0  0  0  0
   18.7460  -55.7330   31.2650 C   0  0  0  0  0  0  0  0  0  0  0  0
   17.9430  -56.3530   32.2180 C   0  0  0  0  0  0  0  0  0  0  0  0
   17.4410  -57.6220   32.0200 C   0  0  0  0  0  0  0  0  0  0  0  0
   17.7650  -58.2510   30.8390 C   0  0  0  0  0  0  0  0  0  0  0  0
   18.5600  -57.6390   29.8920 C   0  0  0  0  0  0  0  0  0  0  0  0
   16.6180  -58.2860   32.9720 N   0  0  0  0  0  0  0  0  0  0  0  0
   15.5100  -57.8610   33.6020 C   0  0  0  0  0  0  0  0  0  0  0  0
   15.0200  -56.7190   33.4100 O   0  0  0  0  0  0  0  0  0  0  0  0
   15.0170  -58.8340   34.4560 C   0  0  0  0  0  0  0  0  0  0  0  0
   15.8400  -59.8680   34.3420 C   0  0  0  0  0  0  0  0  0  0  0  0
   15.3620  -60.8090   35.1690 N   0  0  0  0  0  0  0  0  0  0  0  0
   14.2750  -60.3620   35.7730 N   0  0  0  0  0  0  0  0  0  0  0  0
   14.0460  -59.1490   35.3480 N   0  0  0  0  0  0  0  0  0  0  0  0
   12.9680  -58.2680   35.7320 C   0  0  0  0  0  0  0  0  0  0  0  0
   13.2240  -57.7530   37.1290 C   0  0  0  0  0  0  0  0  0  0  0  0
   12.2690  -57.2980   37.7960 O   0  0  0  0  0  0  0  0  0  0  0  0
   14.5200  -57.7870   37.6650 N   0  0  0  0  0  0  0  0  0  0  0  0
   15.4250  -56.7080   37.7050 C   0  0  0  0  0  0  0  0  0  0  0  0
   15.5520  -55.8010   38.7270 C   0  0  0  0  0  0  0  0  0  0  0  0
   16.4490  -54.7530   38.6980 C   0  0  0  0  0  0  0  0  0  0  0  0
   17.2530  -54.6190   37.5850 C   0  0  0  0  0  0  0  0  0  0  0  0
   17.1570  -55.5140   36.5330 C   0  0  0  0  0  0  0  0  0  0  0  0
   16.2590  -56.5450   36.5820 C   0  0  0  0  0  0  0  0  0  0  0  0
   18.1660  -53.5680   37.5360 O   0  0  0  0  0  0  0  0  0  0  0  0
   19.0340  -53.4600   36.4250 C   0  0  0  0  0  0  0  0  0  0  0  0
   16.5560  -53.8470   39.7510 O   0  0  0  0  0  0  0  0  0  0  0  0
   16.1140  -52.5040   39.5160 C   0  0  0  0  0  0  0  0  0  0  0  0
   16.8250  -59.5390   33.4340 C   0  0  0  0  0  0  0  0  0  0  0  0
   17.7860  -60.3000   33.0800 O   0  0  0  0  0  0  0  0  0  0  0  0
   19.1470  -54.7310   31.4140 H   0  0  0  0  0  0  0  0  0  0  0  0
   17.6990  -55.8490   33.1370 H   0  0  0  0  0  0  0  0  0  0  0  0
   17.3640  -59.2520   30.6890 H   0  0  0  0  0  0  0  0  0  0  0  0
   18.8000  -58.1640   28.9630 H   0  0  0  0  0  0  0  0  0  0  0  0
   15.7580  -61.7560   35.3370 H   0  0  0  0  0  0  0  0  0  0  0  0
   13.6740  -60.8770   36.4830 H   0  0  0  0  0  0  0  0  0  0  0  0
   11.9780  -58.7800   35.7480 H   0  0  0  0  0  0  0  0  0  0  0  0
   12.9220  -57.3810   35.0820 H   0  0  0  0  0  0  0  0  0  0  0  0
   14.8410  -58.7190   38.0840 H   0  0  0  0  0  0  0  0  0  0  0  0
   14.9400  -55.8890   39.6140 H   0  0  0  0  0  0  0  0  0  0  0  0
   17.8080  -55.3780   35.6670 H   0  0  0  0  0  0  0  0  0  0  0  0
   16.1930  -57.2510   35.7360 H   0  0  0  0  0  0  0  0  0  0  0  0
   18.3830  -53.4660   35.5190 H   0  0  0  0  0  0  0  0  0  0  0  0
   19.6980  -54.3330   36.3920 H   0  0  0  0  0  0  0  0  0  0  0  0
   19.5840  -52.4930   36.4890 H   0  0  0  0  0  0  0  0  0  0  0  0
   15.0050  -52.4940   39.3310 H   0  0  0  0  0  0  0  0  0  0  0  0
   16.3500  -51.8580   40.3860 H   0  0  0  0  0  0  0  0  0  0  0  0
   16.6150  -52.0830   38.6200 H   0  0  0  0  0  0  0  0  0  0  0  0
  1  2  1  0  0  0  0
  2  3  1  0  0  0  0
  3 32  1  0  0  0  0
  3  4  2  0  0  0  0
  4 33  1  0  0  0  0
  5  4  1  0  0  0  0
  5  8  1  0  0  0  0
  6  5  2  0  0  0  0
  7  2  2  0  0  0  0
  7  6  1  0  0  0  0
  8 30  1  0  0  0  0
  8  9  1  0  0  0  0
  9 11  1  0  0  0  0
 10  9  2  0  0  0  0
 11 15  1  0  0  0  0
 12 11  2  0  0  0  0
 12 13  1  0  0  0  0
 13 36  1  0  0  0  0
 13 14  1  0  0  0  0
 14 37  1  0  0  0  0
 15 16  1  0  0  0  0
 15 14  1  0  0  0  0
 16 38  1  0  0  0  0
 16 17  1  0  0  0  0
 17 19  1  0  0  0  0
 17 18  2  0  0  0  0
 19 20  1  0  0  0  0
 19 40  1  0  0  0  0
 20 21  1  0  0  0  0
 21 41  1  0  0  0  0
 22 21  2  0  0  0  0
 22 28  1  0  0  0  0
 23 22  1  0  0  0  0
 24 25  1  0  0  0  0
 24 23  2  0  0  0  0
 25 20  2  0  0  0  0
 26 23  1  0  0  0  0
 27 46  1  0  0  0  0
 27 26  1  0  0  0  0
 29 28  1  0  0  0  0
 29 48  1  0  0  0  0
 30 12  1  0  0  0  0
 31 30  2  0  0  0  0
 34  6  1  0  0  0  0
 35  7  1  0  0  0  0
 39 16  1  0  0  0  0
 42 24  1  0  0  0  0
 43 25  1  0  0  0  0
 44 27  1  0  0  0  0
 45 27  1  0  0  0  0
 47 29  1  0  0  0  0
 49 29  1  0  0  0  0
M  END
>  <Pose>
1

>  <Score>
-7.30

$$$$
