
 OpenBabel03232204043D

 52 55  0  0  0  0  0  0  0  0999 V2000
   10.3940  -60.2660   43.0690 Cl  0  0  0  0  0  0  0  0  0  0  0  0
   10.8580  -60.1120   41.3860 C   0  0  0  0  0  0  0  0  0  0  0  0
   11.2720  -61.2470   40.7040 C   0  0  0  0  0  0  0  0  0  0  0  0
   11.6520  -61.1960   39.3710 C   0  0  0  0  0  0  0  0  0  0  0  0
   11.6230  -59.9940   38.7010 C   0  0  0  0  0  0  0  0  0  0  0  0
   11.2030  -58.8700   39.4110 C   0  0  0  0  0  0  0  0  0  0  0  0
   10.8240  -58.9020   40.7250 C   0  0  0  0  0  0  0  0  0  0  0  0
   12.0110  -59.8740   37.2980 C   0  0  0  0  0  0  0  0  0  0  0  0
   11.1380  -59.4690   36.4890 O   0  0  0  0  0  0  0  0  0  0  0  0
   13.2920  -60.1900   36.8450 N   0  0  0  0  0  0  0  0  0  0  0  0
   13.9300  -59.5500   35.7110 C   0  0  0  0  0  0  0  0  0  0  0  0
   13.9910  -58.0720   35.9370 C   0  0  0  0  0  0  0  0  0  0  0  0
   15.2440  -57.6450   36.5990 C   0  0  0  0  0  0  0  0  0  0  0  0
   15.3820  -57.8930   37.8220 O   0  0  0  0  0  0  0  0  0  0  0  0
   16.2640  -56.9740   35.8860 N   0  0  0  0  0  0  0  0  0  0  0  0
   16.8040  -57.4630   34.6330 C   0  0  0  0  0  0  0  0  0  0  0  0
   18.2720  -57.0650   34.5760 C   0  0  0  0  0  0  0  0  0  0  0  0
   18.4080  -55.5430   34.5510 C   0  0  0  0  0  0  0  0  0  0  0  0
   19.6050  -55.2230   35.2750 N   0  0  0  0  0  0  0  0  0  0  0  0
   20.1110  -53.9110   34.9350 C   0  0  0  0  0  0  0  0  0  0  0  0
   20.6790  -53.9610   33.5190 C   0  0  0  0  0  0  0  0  0  0  0  0
   19.5460  -54.3450   32.6290 C   0  0  0  0  0  0  0  0  0  0  0  0
   19.3050  -54.0990   31.3060 N   0  0  0  0  0  0  0  0  0  0  0  0
   18.1310  -54.6720   30.9880 C   0  0  0  0  0  0  0  0  0  0  0  0
   17.6460  -55.2650   32.0930 N   0  0  0  0  0  0  0  0  0  0  0  0
   18.5030  -55.0830   33.1410 C   0  0  0  0  0  0  0  0  0  0  0  0
   17.2260  -54.8880   35.2340 C   0  0  0  0  0  0  0  0  0  0  0  0
   16.8180  -55.7370   36.4010 C   0  0  0  0  0  0  0  0  0  0  0  0
   11.2930  -62.1880   41.2360 H   0  0  0  0  0  0  0  0  0  0  0  0
   11.9760  -62.1210   38.8620 H   0  0  0  0  0  0  0  0  0  0  0  0
   11.1840  -57.9320   38.8740 H   0  0  0  0  0  0  0  0  0  0  0  0
   10.5000  -58.0390   41.2790 H   0  0  0  0  0  0  0  0  0  0  0  0
   13.8660  -60.9270   37.3190 H   0  0  0  0  0  0  0  0  0  0  0  0
   13.2640  -59.7220   34.8360 H   0  0  0  0  0  0  0  0  0  0  0  0
   14.9060  -60.0040   35.4900 H   0  0  0  0  0  0  0  0  0  0  0  0
   13.8990  -57.5440   34.9410 H   0  0  0  0  0  0  0  0  0  0  0  0
   13.1160  -57.7550   36.5070 H   0  0  0  0  0  0  0  0  0  0  0  0
   16.8070  -58.5850   34.6730 H   0  0  0  0  0  0  0  0  0  0  0  0
   16.2530  -57.1150   33.7620 H   0  0  0  0  0  0  0  0  0  0  0  0
   18.8400  -57.5030   35.3960 H   0  0  0  0  0  0  0  0  0  0  0  0
   18.6750  -57.4340   33.6120 H   0  0  0  0  0  0  0  0  0  0  0  0
   19.4670  -55.3000   36.3020 H   0  0  0  0  0  0  0  0  0  0  0  0
   19.2440  -53.2220   34.8840 H   0  0  0  0  0  0  0  0  0  0  0  0
   20.8270  -53.5220   35.6560 H   0  0  0  0  0  0  0  0  0  0  0  0
   21.0690  -52.9560   33.2880 H   0  0  0  0  0  0  0  0  0  0  0  0
   21.4760  -54.7290   33.4380 H   0  0  0  0  0  0  0  0  0  0  0  0
   19.9730  -53.5520   30.7180 H   0  0  0  0  0  0  0  0  0  0  0  0
   17.7050  -54.6250   29.9940 H   0  0  0  0  0  0  0  0  0  0  0  0
   17.4530  -53.8820   35.6020 H   0  0  0  0  0  0  0  0  0  0  0  0
   16.3580  -54.8260   34.5350 H   0  0  0  0  0  0  0  0  0  0  0  0
   16.0730  -55.1590   36.9850 H   0  0  0  0  0  0  0  0  0  0  0  0
   17.6920  -55.9490   37.0670 H   0  0  0  0  0  0  0  0  0  0  0  0
  2  1  1  0  0  0  0
  3 29  1  0  0  0  0
  3  2  2  0  0  0  0
  4  3  1  0  0  0  0
  5  4  2  0  0  0  0
  5  6  1  0  0  0  0
  6  7  2  0  0  0  0
  7 32  1  0  0  0  0
  7  2  1  0  0  0  0
  8  5  1  0  0  0  0
  9  8  2  0  0  0  0
 10  8  1  0  0  0  0
 10 33  1  0  0  0  0
 11 12  1  0  0  0  0
 11 10  1  0  0  0  0
 12 37  1  0  0  0  0
 12 13  1  0  0  0  0
 13 14  2  0  0  0  0
 15 28  1  0  0  0  0
 15 13  1  0  0  0  0
 16 38  1  0  0  0  0
 16 15  1  0  0  0  0
 17 16  1  0  0  0  0
 17 40  1  0  0  0  0
 18 17  1  0  0  0  0
 18 27  1  0  0  0  0
 18 19  1  0  0  0  0
 19 42  1  0  0  0  0
 20 19  1  0  0  0  0
 20 44  1  0  0  0  0
 21 20  1  0  0  0  0
 22 26  2  0  0  0  0
 22 21  1  0  0  0  0
 23 22  1  0  0  0  0
 24 23  1  0  0  0  0
 24 25  2  0  0  0  0
 25 26  1  0  0  0  0
 26 18  1  0  0  0  0
 27 49  1  0  0  0  0
 27 28  1  0  0  0  0
 28 51  1  0  0  0  0
 28 52  1  0  0  0  0
 30  4  1  0  0  0  0
 31  6  1  0  0  0  0
 34 11  1  0  0  0  0
 35 11  1  0  0  0  0
 36 12  1  0  0  0  0
 39 16  1  0  0  0  0
 41 17  1  0  0  0  0
 43 20  1  0  0  0  0
 45 21  1  0  0  0  0
 46 21  1  0  0  0  0
 47 23  1  0  0  0  0
 48 24  1  0  0  0  0
 50 27  1  0  0  0  0
M  END
>  <Pose>
1

>  <Score>
-7.61

$$$$
