
 OpenBabel03232204043D

 41 44  0  0  1  0  0  0  0  0999 V2000
   16.2680  -52.6090   38.9870 Cl  0  0  0  0  0  0  0  0  0  0  0  0
   17.5040  -52.9650   37.7980 C   0  0  0  0  0  0  0  0  0  0  0  0
   17.4310  -54.1300   37.0750 C   0  0  0  0  0  0  0  0  0  0  0  0
   16.5770  -55.1670   37.0410 N   0  0  0  0  0  0  0  0  0  0  0  0
   16.9540  -56.0880   36.1340 C   0  0  0  0  0  0  0  0  0  0  0  0
   18.1130  -55.5980   35.5710 C   0  0  0  0  0  0  0  0  0  0  0  0
   18.4230  -54.3840   36.1430 C   0  0  0  0  0  0  0  0  0  0  0  0
   19.4410  -53.4670   35.9720 C   0  0  0  0  0  0  0  0  0  0  0  0
   19.5360  -52.2950   36.6810 C   0  0  0  0  0  0  0  0  0  0  0  0
   18.5380  -52.0450   37.6170 C   0  0  0  0  0  0  0  0  0  0  0  0
   18.7280  -56.4500   34.5230 C   0  0  0  0  0  0  0  0  0  0  0  0
   17.6510  -56.7410   33.6050 N   0  0  0  0  0  0  0  0  0  0  0  0
   16.6270  -57.5570   34.1300 C   0  0  0  0  0  0  0  0  0  0  0  0
   16.4860  -57.3950   35.6270 C   0  0  0  0  0  0  0  0  0  0  0  0
   18.0420  -56.9160   32.2710 C   0  0  0  0  0  0  0  0  0  0  0  0
   18.2210  -55.6240   31.5330 C   0  0  1  0  0  0  0  0  0  0  0  0
   19.3290  -54.7830   32.0670 C   0  0  0  0  0  0  0  0  0  0  0  0
   20.2630  -54.4820   31.0380 N   0  0  0  0  0  0  0  0  0  0  0  0
   19.8660  -55.1380   29.8350 C   0  0  0  0  0  0  0  0  0  0  0  0
   18.6370  -55.9330   30.1200 C   0  0  0  0  0  0  0  0  0  0  0  0
   17.0140  -54.9190   31.4530 O   0  0  0  0  0  0  0  0  0  0  0  0
   15.7060  -55.2880   37.6310 H   0  0  0  0  0  0  0  0  0  0  0  0
   20.1990  -53.6880   35.2400 H   0  0  0  0  0  0  0  0  0  0  0  0
   20.3390  -51.5790   36.5420 H   0  0  0  0  0  0  0  0  0  0  0  0
   18.5950  -51.1270   38.1850 H   0  0  0  0  0  0  0  0  0  0  0  0
   19.0760  -57.3810   35.0550 H   0  0  0  0  0  0  0  0  0  0  0  0
   19.5260  -55.9590   33.9680 H   0  0  0  0  0  0  0  0  0  0  0  0
   15.6230  -57.2770   33.7030 H   0  0  0  0  0  0  0  0  0  0  0  0
   16.7930  -58.6520   33.9540 H   0  0  0  0  0  0  0  0  0  0  0  0
   15.4230  -57.5240   35.9220 H   0  0  0  0  0  0  0  0  0  0  0  0
   17.0340  -58.2110   36.1640 H   0  0  0  0  0  0  0  0  0  0  0  0
   17.3910  -57.5730   31.6600 H   0  0  0  0  0  0  0  0  0  0  0  0
   19.0500  -57.4270   32.2600 H   0  0  0  0  0  0  0  0  0  0  0  0
   18.9880  -53.8790   32.6230 H   0  0  0  0  0  0  0  0  0  0  0  0
   19.8770  -55.4000   32.8380 H   0  0  0  0  0  0  0  0  0  0  0  0
   20.4290  -53.4560   30.9010 H   0  0  0  0  0  0  0  0  0  0  0  0
   19.7430  -54.4130   29.0060 H   0  0  0  0  0  0  0  0  0  0  0  0
   20.6530  -55.8600   29.4910 H   0  0  0  0  0  0  0  0  0  0  0  0
   17.8610  -55.5990   29.3770 H   0  0  0  0  0  0  0  0  0  0  0  0
   18.7820  -57.0290   29.9750 H   0  0  0  0  0  0  0  0  0  0  0  0
   17.0240  -54.4650   30.5690 H   0  0  0  0  0  0  0  0  0  0  0  0
  2  1  1  0  0  0  0
  3  2  2  0  0  0  0
  4  3  1  0  0  0  0
  4 22  1  0  0  0  0
  5  4  1  0  0  0  0
  6  5  2  0  0  0  0
  6  7  1  0  0  0  0
  7  3  1  0  0  0  0
  8  7  2  0  0  0  0
  8  9  1  0  0  0  0
  9 10  2  0  0  0  0
 10  2  1  0  0  0  0
 10 25  1  0  0  0  0
 11 26  1  0  0  0  0
 11  6  1  0  0  0  0
 12 13  1  0  0  0  0
 12 11  1  0  0  0  0
 13 14  1  0  0  0  0
 14 30  1  0  0  0  0
 14  5  1  0  0  0  0
 14 31  1  0  0  0  0
 15 12  1  0  0  0  0
 16 21  1  1  0  0  0
 16 17  1  0  0  0  0
 16 15  1  0  0  0  0
 17 34  1  0  0  0  0
 17 35  1  0  0  0  0
 18 17  1  0  0  0  0
 19 20  1  0  0  0  0
 19 18  1  0  0  0  0
 20 16  1  0  0  0  0
 23  8  1  0  0  0  0
 24  9  1  0  0  0  0
 27 11  1  0  0  0  0
 28 13  1  0  0  0  0
 29 13  1  0  0  0  0
 32 15  1  0  0  0  0
 33 15  1  0  0  0  0
 36 18  1  0  0  0  0
 37 19  1  0  0  0  0
 38 19  1  0  0  0  0
 39 20  1  0  0  0  0
 40 20  1  0  0  0  0
 41 21  1  0  0  0  0
M  END
>  <Pose>
1

>  <Score>
-5.98

$$$$
