
 OpenBabel03232204043D

 46 49  0  0  1  0  0  0  0  0999 V2000
   13.3910  -58.2670   33.8850 Cl  0  0  0  0  0  0  0  0  0  0  0  0
   13.2450  -58.3160   35.6210 C   0  0  0  0  0  0  0  0  0  0  0  0
   12.5490  -59.3550   36.1950 C   0  0  0  0  0  0  0  0  0  0  0  0
   12.4420  -59.3800   37.5640 C   0  0  0  0  0  0  0  0  0  0  0  0
   13.0370  -58.3620   38.3240 C   0  0  0  0  0  0  0  0  0  0  0  0
   13.7340  -57.3180   37.7960 C   0  0  0  0  0  0  0  0  0  0  0  0
   13.8100  -57.3460   36.3810 C   0  0  0  0  0  0  0  0  0  0  0  0
   14.3620  -56.2470   38.5210 C   0  0  1  0  0  0  0  0  0  0  0  0
   13.5150  -55.4760   39.1760 O   0  0  0  0  0  0  0  0  0  0  0  0
   15.7460  -55.8620   38.6630 C   0  0  0  0  0  0  0  0  0  0  0  0
   16.5650  -55.5940   37.5290 N   0  0  0  0  0  0  0  0  0  0  0  0
   17.3520  -54.4880   37.3440 C   0  0  1  0  0  0  0  0  0  0  0  0
   17.9040  -54.6180   36.1360 N   0  0  0  0  0  0  0  0  0  0  0  0
   17.5210  -55.7500   35.5220 C   0  0  0  0  0  0  0  0  0  0  0  0
   16.6660  -56.3700   36.4160 C   0  0  0  0  0  0  0  0  0  0  0  0
   17.8940  -56.2630   34.2040 C   0  0  0  0  0  0  0  0  0  0  0  0
   18.3760  -57.5250   33.9640 C   0  0  0  0  0  0  0  0  0  0  0  0
   18.7100  -57.9460   32.6690 C   0  0  0  0  0  0  0  0  0  0  0  0
   18.5740  -57.1180   31.5770 C   0  0  0  0  0  0  0  0  0  0  0  0
   18.0910  -55.8480   31.8080 C   0  0  0  0  0  0  0  0  0  0  0  0
   17.7610  -55.4370   33.0820 C   0  0  0  0  0  0  0  0  0  0  0  0
   18.9010  -57.5220   30.2900 O   0  0  0  0  0  0  0  0  0  0  0  0
   20.2260  -57.3820   29.8090 C   0  0  0  0  0  0  0  0  0  0  0  0
   18.7680  -53.4780   35.8480 C   0  0  0  0  0  0  0  0  0  0  0  0
   18.7670  -52.6540   37.1020 C   0  0  0  0  0  0  0  0  0  0  0  0
   17.7660  -53.2410   38.0320 C   0  0  0  0  0  0  0  0  0  0  0  0
   11.8100  -60.6210   35.2430 Cl  0  0  0  0  0  0  0  0  0  0  0  0
   11.9030  -60.1840   38.0160 H   0  0  0  0  0  0  0  0  0  0  0  0
   12.8980  -58.4770   39.3670 H   0  0  0  0  0  0  0  0  0  0  0  0
   14.3440  -56.5550   35.8810 H   0  0  0  0  0  0  0  0  0  0  0  0
   15.8400  -54.9480   39.3710 H   0  0  0  0  0  0  0  0  0  0  0  0
   16.3030  -56.6390   39.3220 H   0  0  0  0  0  0  0  0  0  0  0  0
   16.1500  -57.3170   36.2770 H   0  0  0  0  0  0  0  0  0  0  0  0
   18.4990  -58.1990   34.7840 H   0  0  0  0  0  0  0  0  0  0  0  0
   19.0900  -58.9430   32.4920 H   0  0  0  0  0  0  0  0  0  0  0  0
   17.9760  -55.1790   30.9550 H   0  0  0  0  0  0  0  0  0  0  0  0
   17.3790  -54.4310   33.2600 H   0  0  0  0  0  0  0  0  0  0  0  0
   20.8450  -58.1430   30.3510 H   0  0  0  0  0  0  0  0  0  0  0  0
   20.2460  -57.5980   28.7220 H   0  0  0  0  0  0  0  0  0  0  0  0
   20.6300  -56.3730   30.0430 H   0  0  0  0  0  0  0  0  0  0  0  0
   19.8290  -53.7810   35.6720 H   0  0  0  0  0  0  0  0  0  0  0  0
   18.3880  -52.9200   34.9700 H   0  0  0  0  0  0  0  0  0  0  0  0
   19.7630  -52.6350   37.6100 H   0  0  0  0  0  0  0  0  0  0  0  0
   18.5170  -51.5960   36.8040 H   0  0  0  0  0  0  0  0  0  0  0  0
   18.1570  -53.4650   39.0430 H   0  0  0  0  0  0  0  0  0  0  0  0
   16.9030  -52.5390   38.1680 H   0  0  0  0  0  0  0  0  0  0  0  0
  1  2  1  0  0  0  0
  2  3  2  0  0  0  0
  2  7  1  0  0  0  0
  3  4  1  0  0  0  0
  4 28  1  0  0  0  0
  4  5  2  0  0  0  0
  5 29  1  0  0  0  0
  6  5  1  0  0  0  0
  6  8  1  0  0  0  0
  7  6  2  0  0  0  0
  8 10  1  0  0  0  0
  8  9  1  1  0  0  0
 10 32  1  0  0  0  0
 10 31  1  0  0  0  0
 11 10  1  0  0  0  0
 12 13  1  6  0  0  0
 12 11  1  0  0  0  0
 12 26  1  0  0  0  0
 14 13  1  0  0  0  0
 14 15  2  0  0  0  0
 15 11  1  0  0  0  0
 16 14  1  0  0  0  0
 17 16  1  0  0  0  0
 17 34  1  0  0  0  0
 18 17  2  0  0  0  0
 19 20  2  0  0  0  0
 19 18  1  0  0  0  0
 20 21  1  0  0  0  0
 21 37  1  0  0  0  0
 21 16  2  0  0  0  0
 22 19  1  0  0  0  0
 23 40  1  0  0  0  0
 23 22  1  0  0  0  0
 23 38  1  0  0  0  0
 24 13  1  0  0  0  0
 24 25  1  0  0  0  0
 25 43  1  0  0  0  0
 25 26  1  0  0  0  0
 26 46  1  0  0  0  0
 26 45  1  0  0  0  0
 27  3  1  0  0  0  0
 30  7  1  0  0  0  0
 33 15  1  0  0  0  0
 35 18  1  0  0  0  0
 36 20  1  0  0  0  0
 39 23  1  0  0  0  0
 41 24  1  0  0  0  0
 42 24  1  0  0  0  0
 44 25  1  0  0  0  0
M  END
>  <Pose>
1

>  <Score>
-6.48

$$$$
