
 OpenBabel03232204043D

 44 47  0  0  1  0  0  0  0  0999 V2000
   19.8310  -54.8320   31.1070 Cl  0  0  0  0  0  0  0  0  0  0  0  0
   19.1220  -55.7990   32.3610 C   0  0  0  0  0  0  0  0  0  0  0  0
   19.0180  -57.1570   32.2220 C   0  0  0  0  0  0  0  0  0  0  0  0
   18.4460  -57.8720   33.2480 C   0  0  0  0  0  0  0  0  0  0  0  0
   17.9970  -57.2370   34.3750 C   0  0  0  0  0  0  0  0  0  0  0  0
   18.0890  -55.8530   34.5510 C   0  0  0  0  0  0  0  0  0  0  0  0
   18.6540  -55.1650   33.5280 C   0  0  0  0  0  0  0  0  0  0  0  0
   17.5730  -55.2270   35.7700 C   0  0  0  0  0  0  0  0  0  0  0  0
   17.9050  -54.0710   36.3670 N   0  0  0  0  0  0  0  0  0  0  0  0
   17.1560  -53.9070   37.4770 C   0  0  2  0  0  0  0  0  0  0  0  0
   16.3400  -54.9700   37.5890 N   0  0  0  0  0  0  0  0  0  0  0  0
   16.5650  -55.8190   36.5470 C   0  0  0  0  0  0  0  0  0  0  0  0
   15.3650  -55.1700   38.5960 C   0  0  0  0  0  0  0  0  0  0  0  0
   14.4060  -56.2370   38.5690 C   0  0  2  0  0  0  0  0  0  0  0  0
   13.6700  -56.2620   39.6620 O   0  0  0  0  0  0  0  0  0  0  0  0
   14.1050  -57.2620   37.5980 C   0  0  0  0  0  0  0  0  0  0  0  0
   14.0630  -57.0750   36.2430 C   0  0  0  0  0  0  0  0  0  0  0  0
   13.7650  -58.1190   35.3620 C   0  0  0  0  0  0  0  0  0  0  0  0
   13.5040  -59.3620   35.8400 C   0  0  0  0  0  0  0  0  0  0  0  0
   13.5400  -59.5790   37.2000 C   0  0  0  0  0  0  0  0  0  0  0  0
   13.8310  -58.5660   38.0720 C   0  0  0  0  0  0  0  0  0  0  0  0
   13.7380  -57.8570   33.9570 N   0  0  0  0  0  0  0  0  0  0  0  0
   12.7720  -58.2500   33.2810 O   0  0  0  0  0  0  0  0  0  0  0  0
   14.7410  -57.1880   33.3320 O   0  0  0  0  0  0  0  0  0  0  0  0
   17.5050  -52.6280   38.1400 C   0  0  0  0  0  0  0  0  0  0  0  0
   18.9490  -52.5140   37.7240 C   0  0  0  0  0  0  0  0  0  0  0  0
   18.8100  -52.9210   36.2470 C   0  0  0  0  0  0  0  0  0  0  0  0
   19.5890  -57.9790   30.7870 Cl  0  0  0  0  0  0  0  0  0  0  0  0
   18.3440  -58.9600   33.1760 H   0  0  0  0  0  0  0  0  0  0  0  0
   17.5570  -57.8240   35.1580 H   0  0  0  0  0  0  0  0  0  0  0  0
   18.7520  -54.1020   33.5750 H   0  0  0  0  0  0  0  0  0  0  0  0
   16.0660  -56.7420   36.3730 H   0  0  0  0  0  0  0  0  0  0  0  0
   14.7600  -54.2020   38.7360 H   0  0  0  0  0  0  0  0  0  0  0  0
   15.9160  -55.2650   39.6000 H   0  0  0  0  0  0  0  0  0  0  0  0
   14.2600  -56.1080   35.8090 H   0  0  0  0  0  0  0  0  0  0  0  0
   13.2720  -60.1680   35.1270 H   0  0  0  0  0  0  0  0  0  0  0  0
   13.3290  -60.5880   37.5850 H   0  0  0  0  0  0  0  0  0  0  0  0
   13.8460  -58.7870   39.1400 H   0  0  0  0  0  0  0  0  0  0  0  0
   16.8940  -51.8170   37.6820 H   0  0  0  0  0  0  0  0  0  0  0  0
   17.3960  -52.6640   39.2400 H   0  0  0  0  0  0  0  0  0  0  0  0
   19.4990  -53.3420   38.2020 H   0  0  0  0  0  0  0  0  0  0  0  0
   19.3840  -51.5350   37.8440 H   0  0  0  0  0  0  0  0  0  0  0  0
   18.2770  -52.1240   35.7410 H   0  0  0  0  0  0  0  0  0  0  0  0
   19.8050  -53.1880   35.8510 H   0  0  0  0  0  0  0  0  0  0  0  0
  1  2  1  0  0  0  0
  2  7  1  0  0  0  0
  3  2  2  0  0  0  0
  3  4  1  0  0  0  0
  4  5  2  0  0  0  0
  5  6  1  0  0  0  0
  5 30  1  0  0  0  0
  6  8  1  0  0  0  0
  7 31  1  0  0  0  0
  7  6  2  0  0  0  0
  8  9  1  0  0  0  0
  8 12  2  0  0  0  0
 10  9  1  6  0  0  0
 10 11  1  0  0  0  0
 10 25  1  0  0  0  0
 11 13  1  0  0  0  0
 12 11  1  0  0  0  0
 13 33  1  0  0  0  0
 13 34  1  0  0  0  0
 14 13  1  0  0  0  0
 14 15  1  1  0  0  0
 16 21  1  0  0  0  0
 16 14  1  0  0  0  0
 17 16  2  0  0  0  0
 18 19  2  0  0  0  0
 18 17  1  0  0  0  0
 19 20  1  0  0  0  0
 20 37  1  0  0  0  0
 20 21  2  0  0  0  0
 21 38  1  0  0  0  0
 22 18  1  0  0  0  0
 23 22  2  0  0  0  0
 24 22  2  0  0  0  0
 25 40  1  0  0  0  0
 26 42  1  0  0  0  0
 26 25  1  0  0  0  0
 26 41  1  0  0  0  0
 27  9  1  0  0  0  0
 27 26  1  0  0  0  0
 28  3  1  0  0  0  0
 29  4  1  0  0  0  0
 32 12  1  0  0  0  0
 35 17  1  0  0  0  0
 36 19  1  0  0  0  0
 39 25  1  0  0  0  0
 43 27  1  0  0  0  0
 44 27  1  0  0  0  0
M  END
>  <Pose>
1

>  <Score>
-7.02

$$$$
