
 OpenBabel03232204043D

 39 42  0  0  1  0  0  0  0  0999 V2000
   16.2020  -56.4710   33.5410 B   0  0  0  0  0  0  0  0  0  0  0  0
   15.4950  -58.2480   33.5530 C   0  0  0  0  0  0  0  0  0  0  0  0
   14.1460  -58.4650   33.8500 C   0  0  0  0  0  0  0  0  0  0  0  0
   13.6220  -59.7450   33.8590 C   0  0  0  0  0  0  0  0  0  0  0  0
   14.4740  -60.7910   33.5660 C   0  0  0  0  0  0  0  0  0  0  0  0
   15.8120  -60.5660   33.2720 C   0  0  0  0  0  0  0  0  0  0  0  0
   16.3310  -59.2920   33.2640 C   0  0  0  0  0  0  0  0  0  0  0  0
   16.9550  -62.0630   32.8680 B   0  0  0  0  0  0  0  0  0  0  0  0
   12.1720  -60.0100   34.1830 C   0  0  1  0  0  0  0  0  0  0  0  0
   11.7900  -61.2490   33.6190 N   0  0  0  0  0  4  0  0  0  0  0  0
   11.0840  -62.1610   34.4710 C   0  0  2  0  0  0  0  0  0  0  0  0
   11.9080  -62.3890   35.7490 C   0  0  0  0  0  0  0  0  0  0  0  0
   11.9250  -61.0650   36.3990 C   0  0  0  0  0  0  0  0  0  0  0  0
   11.8240  -60.6920   37.7300 C   0  0  0  0  0  0  0  0  0  0  0  0
   11.8910  -59.3170   37.7560 C   0  0  0  0  0  0  0  0  0  0  0  0
   12.0260  -58.8510   36.5050 N   0  0  0  0  0  0  0  0  0  0  0  0
   12.0480  -59.9310   35.6570 C   0  0  0  0  0  0  0  0  0  0  0  0
   11.8090  -58.6910   38.9860 C   0  0  0  0  0  0  0  0  0  0  0  0
   11.6690  -59.4590   40.1150 C   0  0  0  0  0  0  0  0  0  0  0  0
   11.6020  -60.8340   40.0860 C   0  0  0  0  0  0  0  0  0  0  0  0
   11.6820  -61.4780   38.8530 C   0  0  0  0  0  0  0  0  0  0  0  0
   10.8540  -63.4350   33.7600 C   0  0  0  0  0  0  0  0  0  0  0  0
    9.6860  -63.8980   33.7010 O   0  0  0  0  0  0  0  0  0  0  0  0
   11.9240  -64.0930   33.1750 O   0  0  0  0  0  0  0  0  0  0  0  0
   13.4000  -57.3490   34.1230 O   0  0  0  0  0  0  0  0  0  0  0  0
   14.1180  -61.8230   33.5600 H   0  0  0  0  0  0  0  0  0  0  0  0
   17.3790  -59.1060   33.0330 H   0  0  0  0  0  0  0  0  0  0  0  0
   11.6180  -59.1380   33.7320 H   0  0  0  0  0  0  0  0  0  0  0  0
   11.1460  -61.0390   32.7900 H   0  0  0  0  0  0  0  0  0  0  0  0
   12.5820  -61.7930   33.1940 H   0  0  0  0  0  0  0  0  0  0  0  0
   10.1220  -61.6830   34.7630 H   0  0  0  0  0  0  0  0  0  0  0  0
   11.4090  -63.1640   36.3660 H   0  0  0  0  0  0  0  0  0  0  0  0
   12.8990  -62.7210   35.3880 H   0  0  0  0  0  0  0  0  0  0  0  0
   12.1070  -57.8550   36.1730 H   0  0  0  0  0  0  0  0  0  0  0  0
   11.8620  -57.6040   39.0130 H   0  0  0  0  0  0  0  0  0  0  0  0
   11.6050  -58.9530   41.0860 H   0  0  0  0  0  0  0  0  0  0  0  0
   11.4890  -61.4450   40.9940 H   0  0  0  0  0  0  0  0  0  0  0  0
   11.6360  -62.5540   38.7610 H   0  0  0  0  0  0  0  0  0  0  0  0
   12.7430  -57.2410   34.8470 H   0  0  0  0  0  0  0  0  0  0  0  0
  1  2  1  0  0  0  0
  2  3  1  0  0  0  0
  3  4  2  0  0  0  0
  3 25  1  0  0  0  0
  4  9  1  0  0  0  0
  5  4  1  0  0  0  0
  6  5  2  0  0  0  0
  7  6  1  0  0  0  0
  7  2  2  0  0  0  0
  8  6  1  0  0  0  0
  9 28  1  6  0  0  0
  9 17  1  0  0  0  0
 10  9  1  0  0  0  0
 10 11  1  0  0  0  0
 11 31  1  1  0  0  0
 11 12  1  0  0  0  0
 12 32  1  0  0  0  0
 12 13  1  0  0  0  0
 13 14  1  0  0  0  0
 14 15  2  0  0  0  0
 14 21  1  0  0  0  0
 15 18  1  0  0  0  0
 16 15  1  0  0  0  0
 17 13  2  0  0  0  0
 17 16  1  0  0  0  0
 18 35  1  0  0  0  0
 18 19  2  0  0  0  0
 19 36  1  0  0  0  0
 20 19  1  0  0  0  0
 20 37  1  0  0  0  0
 21 20  2  0  0  0  0
 22 11  1  0  0  0  0
 23 22  1  0  0  0  0
 24 22  2  0  0  0  0
 25 39  1  0  0  0  0
 26  5  1  0  0  0  0
 27  7  1  0  0  0  0
 29 10  1  0  0  0  0
 30 10  1  0  0  0  0
 33 12  1  0  0  0  0
 34 16  1  0  0  0  0
 38 21  1  0  0  0  0
M  END
>  <Pose>
1

>  <Score>
-5.42

$$$$
