
 OpenBabel03232204043D

 46 49  0  0  1  0  0  0  0  0999 V2000
   11.8060  -58.9070   38.9540 B   0  0  0  0  0  0  0  0  0  0  0  0
   13.3500  -57.9440   38.3190 C   0  0  0  0  0  0  0  0  0  0  0  0
   13.7650  -56.7870   38.9350 C   0  0  0  0  0  0  0  0  0  0  0  0
   14.8340  -56.0950   38.5170 N   0  0  0  0  0  0  0  0  0  0  0  0
   15.5650  -56.5160   37.4530 C   0  0  0  0  0  0  0  0  0  0  0  0
   16.6380  -55.8640   37.0000 N   0  0  0  0  0  0  0  0  0  0  0  0
   17.0760  -54.7270   37.5750 C   0  0  0  0  0  0  0  0  0  0  0  0
   16.3580  -54.2670   38.6600 C   0  0  0  0  0  0  0  0  0  0  0  0
   15.2500  -54.9510   39.1190 C   0  0  0  0  0  0  0  0  0  0  0  0
   14.5670  -54.5660   40.1080 O   0  0  0  0  0  0  0  0  0  0  0  0
   18.2630  -53.9810   37.0940 C   0  0  0  0  0  0  0  0  0  0  0  0
   18.1520  -53.5880   35.7550 O   0  0  0  0  0  0  0  0  0  0  0  0
   19.1760  -53.5820   34.8350 C   0  0  0  0  0  0  0  0  0  0  0  0
   19.5780  -52.4430   34.4650 O   0  0  0  0  0  0  0  0  0  0  0  0
   19.7840  -54.8300   34.2990 C   0  0  0  0  0  0  0  0  0  0  0  0
   19.2010  -55.1990   33.0080 N   0  0  0  0  0  0  0  0  0  0  0  0
   19.7580  -54.9800   31.7150 C   0  0  0  0  0  0  0  0  0  0  0  0
   20.9270  -54.5940   31.4640 O   0  0  0  0  0  0  0  0  0  0  0  0
   18.7120  -55.2910   30.7130 C   0  0  2  0  0  0  0  0  0  0  0  0
   17.9490  -56.3730   31.4400 C   0  0  1  0  0  0  0  0  0  0  0  0
   18.6670  -57.7080   31.4320 C   0  0  0  0  0  0  0  0  0  0  0  0
   19.8890  -57.7160   30.5520 C   0  0  0  0  0  0  0  0  0  0  0  0
   19.5960  -57.1020   29.2120 C   0  0  0  0  0  0  0  0  0  0  0  0
   19.2210  -55.6720   29.3830 C   0  0  0  0  0  0  0  0  0  0  0  0
   17.9520  -55.8410   32.8220 C   0  0  0  0  0  0  0  0  0  0  0  0
   17.0280  -55.9290   33.6910 O   0  0  0  0  0  0  0  0  0  0  0  0
   15.1750  -57.6860   36.8040 C   0  0  0  0  0  0  0  0  0  0  0  0
   14.0730  -58.3890   37.2420 C   0  0  0  0  0  0  0  0  0  0  0  0
   13.2010  -56.4340   39.7800 H   0  0  0  0  0  0  0  0  0  0  0  0
   16.6340  -53.3560   39.1930 H   0  0  0  0  0  0  0  0  0  0  0  0
   18.3490  -53.0720   37.7210 H   0  0  0  0  0  0  0  0  0  0  0  0
   19.1400  -54.6660   37.2170 H   0  0  0  0  0  0  0  0  0  0  0  0
   20.8730  -54.7490   34.1620 H   0  0  0  0  0  0  0  0  0  0  0  0
   19.5970  -55.6310   35.0380 H   0  0  0  0  0  0  0  0  0  0  0  0
   18.0400  -54.4160   30.6480 H   0  0  0  0  0  0  0  0  0  0  0  0
   16.9130  -56.4760   31.0410 H   0  0  0  0  0  0  0  0  0  0  0  0
   17.9850  -58.5260   31.0770 H   0  0  0  0  0  0  0  0  0  0  0  0
   18.9800  -58.0210   32.4400 H   0  0  0  0  0  0  0  0  0  0  0  0
   20.1340  -58.7960   30.3450 H   0  0  0  0  0  0  0  0  0  0  0  0
   20.7860  -57.3010   31.0260 H   0  0  0  0  0  0  0  0  0  0  0  0
   18.7920  -57.7140   28.7390 H   0  0  0  0  0  0  0  0  0  0  0  0
   20.5040  -57.2430   28.5760 H   0  0  0  0  0  0  0  0  0  0  0  0
   18.4160  -55.4430   28.6240 H   0  0  0  0  0  0  0  0  0  0  0  0
   20.0570  -54.9880   29.1120 H   0  0  0  0  0  0  0  0  0  0  0  0
   15.7460  -58.0260   35.9640 H   0  0  0  0  0  0  0  0  0  0  0  0
   13.7610  -59.2950   36.7500 H   0  0  0  0  0  0  0  0  0  0  0  0
  2  3  1  0  0  0  0
  2  1  1  0  0  0  0
  3 29  1  0  0  0  0
  4  3  1  0  0  0  0
  4  9  1  0  0  0  0
  5  4  1  0  0  0  0
  6  5  1  0  0  0  0
  6  7  2  0  0  0  0
  7  8  1  0  0  0  0
  8  9  1  0  0  0  0
  8 30  1  0  0  0  0
  9 10  2  0  0  0  0
 11 32  1  0  0  0  0
 11  7  1  0  0  0  0
 11 31  1  0  0  0  0
 12 11  1  0  0  0  0
 13 12  1  0  0  0  0
 14 13  2  0  0  0  0
 15 13  1  0  0  0  0
 15 34  1  0  0  0  0
 16 15  1  0  0  0  0
 17 16  1  0  0  0  0
 18 17  2  0  0  0  0
 19 35  1  6  0  0  0
 19 20  1  0  0  0  0
 19 17  1  0  0  0  0
 20 36  1  6  0  0  0
 20 25  1  0  0  0  0
 21 20  1  0  0  0  0
 21 38  1  0  0  0  0
 22 40  1  0  0  0  0
 22 21  1  0  0  0  0
 23 24  1  0  0  0  0
 23 22  1  0  0  0  0
 24 19  1  0  0  0  0
 25 16  1  0  0  0  0
 25 26  2  0  0  0  0
 27 28  1  0  0  0  0
 27  5  2  0  0  0  0
 28  2  2  0  0  0  0
 33 15  1  0  0  0  0
 37 21  1  0  0  0  0
 39 22  1  0  0  0  0
 41 23  1  0  0  0  0
 42 23  1  0  0  0  0
 43 24  1  0  0  0  0
 44 24  1  0  0  0  0
 45 27  1  0  0  0  0
 46 28  1  0  0  0  0
M  END
>  <Pose>
1

>  <Score>
-7.06

$$$$
