
 OpenBabel03232204043D

 41 44  0  0  0  0  0  0  0  0999 V2000
   12.5350  -60.5290   35.0950 Cl  0  0  0  0  0  0  0  0  0  0  0  0
   12.8420  -59.3760   36.3800 C   0  0  0  0  0  0  0  0  0  0  0  0
   13.7940  -58.3930   36.2320 C   0  0  0  0  0  0  0  0  0  0  0  0
   14.0060  -57.5140   37.2510 N   0  0  0  0  0  0  0  0  0  0  0  0
   13.2870  -57.6220   38.3740 C   0  0  0  0  0  0  0  0  0  0  0  0
   13.6690  -56.6560   39.2250 N   0  0  0  0  0  0  0  0  0  0  0  0
   14.6290  -55.9260   38.6590 C   0  0  0  0  0  0  0  0  0  0  0  0
   14.8460  -56.4800   37.3870 C   0  0  0  0  0  0  0  0  0  0  0  0
   15.3410  -54.7810   39.2010 C   0  0  0  0  0  0  0  0  0  0  0  0
   14.6260  -53.8120   39.6520 O   0  0  0  0  0  0  0  0  0  0  0  0
   16.7110  -54.6260   39.2810 N   0  0  0  0  0  0  0  0  0  0  0  0
   17.6510  -55.7200   39.2150 C   0  0  0  0  0  0  0  0  0  0  0  0
   18.4500  -55.6690   37.9300 C   0  0  0  0  0  0  0  0  0  0  0  0
   18.7430  -54.2370   37.5820 C   0  0  0  0  0  0  0  0  0  0  0  0
   18.2500  -53.1540   38.2560 C   0  0  0  0  0  0  0  0  0  0  0  0
   18.7580  -52.0680   37.6170 N   0  0  0  0  0  0  0  0  0  0  0  0
   19.5190  -52.4310   36.6100 N   0  0  0  0  0  0  0  0  0  0  0  0
   19.5510  -53.7670   36.5350 C   0  0  0  0  0  0  0  0  0  0  0  0
   20.1750  -54.4960   35.6990 O   0  0  0  0  0  0  0  0  0  0  0  0
   20.2490  -51.5630   35.6750 C   0  0  0  0  0  0  0  0  0  0  0  0
   20.7270  -50.3080   36.3690 C   0  0  0  0  0  0  0  0  0  0  0  0
   20.5520  -49.1740   35.5860 O   0  0  0  0  0  0  0  0  0  0  0  0
   17.3480  -53.2960   39.4360 C   0  0  0  0  0  0  0  0  0  0  0  0
   12.3080  -58.6150   38.5520 C   0  0  0  0  0  0  0  0  0  0  0  0
   12.0920  -59.4950   37.5370 C   0  0  0  0  0  0  0  0  0  0  0  0
   14.3790  -58.2990   35.3310 H   0  0  0  0  0  0  0  0  0  0  0  0
   15.5720  -56.1180   36.6580 H   0  0  0  0  0  0  0  0  0  0  0  0
   17.2560  -56.7100   39.3710 H   0  0  0  0  0  0  0  0  0  0  0  0
   18.3580  -55.5320   40.0900 H   0  0  0  0  0  0  0  0  0  0  0  0
   17.9580  -56.1670   37.0960 H   0  0  0  0  0  0  0  0  0  0  0  0
   19.4050  -56.2280   38.1320 H   0  0  0  0  0  0  0  0  0  0  0  0
   18.5400  -51.0900   37.9280 H   0  0  0  0  0  0  0  0  0  0  0  0
   19.5100  -51.2440   34.9100 H   0  0  0  0  0  0  0  0  0  0  0  0
   21.0630  -52.0810   35.1730 H   0  0  0  0  0  0  0  0  0  0  0  0
   20.0850  -50.1810   37.2650 H   0  0  0  0  0  0  0  0  0  0  0  0
   21.7830  -50.3840   36.6510 H   0  0  0  0  0  0  0  0  0  0  0  0
   21.4010  -48.9000   35.1250 H   0  0  0  0  0  0  0  0  0  0  0  0
   17.8970  -53.2690   40.3920 H   0  0  0  0  0  0  0  0  0  0  0  0
   16.5260  -52.5550   39.3760 H   0  0  0  0  0  0  0  0  0  0  0  0
   11.7480  -58.6600   39.4880 H   0  0  0  0  0  0  0  0  0  0  0  0
   11.3360  -60.2740   37.6590 H   0  0  0  0  0  0  0  0  0  0  0  0
  1  2  1  0  0  0  0
  2 25  1  0  0  0  0
  3  2  2  0  0  0  0
  3  4  1  0  0  0  0
  4  8  1  0  0  0  0
  4  5  1  0  0  0  0
  5 24  1  0  0  0  0
  5  6  2  0  0  0  0
  7  9  1  0  0  0  0
  7  6  1  0  0  0  0
  8  7  2  0  0  0  0
  9 11  1  0  0  0  0
  9 10  2  0  0  0  0
 11 23  1  0  0  0  0
 12 11  1  0  0  0  0
 12 28  1  0  0  0  0
 12 29  1  0  0  0  0
 13 31  1  0  0  0  0
 13 12  1  0  0  0  0
 14 13  1  0  0  0  0
 14 15  2  0  0  0  0
 15 23  1  0  0  0  0
 16 32  1  0  0  0  0
 16 15  1  0  0  0  0
 17 16  1  0  0  0  0
 18 17  1  0  0  0  0
 18 14  1  0  0  0  0
 19 18  2  0  0  0  0
 20 21  1  0  0  0  0
 20 17  1  0  0  0  0
 21 36  1  0  0  0  0
 21 35  1  0  0  0  0
 22 21  1  0  0  0  0
 23 38  1  0  0  0  0
 24 40  1  0  0  0  0
 25 41  1  0  0  0  0
 25 24  2  0  0  0  0
 26  3  1  0  0  0  0
 27  8  1  0  0  0  0
 30 13  1  0  0  0  0
 33 20  1  0  0  0  0
 34 20  1  0  0  0  0
 37 22  1  0  0  0  0
 39 23  1  0  0  0  0
M  END
>  <Pose>
1

>  <Score>
-6.62

$$$$
