
 OpenBabel03232204043D

 49 52  0  0  0  0  0  0  0  0999 V2000
   11.0930  -59.7250   37.2040 B   0  0  0  0  0  0  0  0  0  0  0  0
   12.8250  -58.9980   37.3800 C   0  0  0  0  0  0  0  0  0  0  0  0
   12.9940  -57.7840   38.0270 C   0  0  0  0  0  0  0  0  0  0  0  0
   14.2380  -57.2270   38.1670 C   0  0  0  0  0  0  0  0  0  0  0  0
   15.3620  -57.8270   37.6840 C   0  0  0  0  0  0  0  0  0  0  0  0
   15.2010  -59.0520   37.0310 C   0  0  0  0  0  0  0  0  0  0  0  0
   13.9480  -59.6180   36.8890 C   0  0  0  0  0  0  0  0  0  0  0  0
   14.4390  -55.9270   38.8980 C   0  0  0  0  0  0  0  0  0  0  0  0
   14.1970  -56.0110   40.1540 O   0  0  0  0  0  0  0  0  0  0  0  0
   14.8310  -54.8720   38.2020 N   0  0  0  0  0  0  0  0  0  0  0  0
   15.2420  -53.7680   37.4730 C   0  0  0  0  0  0  0  0  0  0  0  0
   16.2640  -52.9550   38.2260 C   0  0  0  0  0  0  0  0  0  0  0  0
   15.7850  -52.2560   39.1860 O   0  0  0  0  0  0  0  0  0  0  0  0
   17.6330  -52.9440   37.9260 N   0  0  0  0  0  0  0  0  0  0  0  0
   18.5390  -53.9460   38.3890 C   0  0  0  0  0  0  0  0  0  0  0  0
   19.6120  -54.2670   37.3880 C   0  0  0  0  0  0  0  0  0  0  0  0
   19.2740  -53.9070   35.9580 C   0  0  0  0  0  0  0  0  0  0  0  0
   20.5460  -54.0330   35.2600 N   0  0  0  0  0  0  0  0  0  0  0  0
   20.4930  -53.9570   33.8500 C   0  0  0  0  0  0  0  0  0  0  0  0
   19.1790  -54.1650   33.1900 C   0  0  0  0  0  0  0  0  0  0  0  0
   18.2800  -55.0350   34.0100 C   0  0  0  0  0  0  0  0  0  0  0  0
   17.3880  -55.9640   33.6670 N   0  0  0  0  0  0  0  0  0  0  0  0
   16.8730  -56.4240   34.8260 C   0  0  0  0  0  0  0  0  0  0  0  0
   17.4390  -55.7880   35.8760 N   0  0  0  0  0  0  0  0  0  0  0  0
   18.3400  -54.8960   35.3730 C   0  0  0  0  0  0  0  0  0  0  0  0
   18.7190  -52.5160   35.7920 C   0  0  0  0  0  0  0  0  0  0  0  0
   18.2250  -51.9050   37.0910 C   0  0  0  0  0  0  0  0  0  0  0  0
   12.1460  -57.2750   38.4220 H   0  0  0  0  0  0  0  0  0  0  0  0
   16.3220  -57.3690   37.8090 H   0  0  0  0  0  0  0  0  0  0  0  0
   16.0630  -59.5580   36.6350 H   0  0  0  0  0  0  0  0  0  0  0  0
   13.8240  -60.5660   36.3860 H   0  0  0  0  0  0  0  0  0  0  0  0
   13.5780  -54.7700   37.6260 H   0  0  0  0  0  0  0  0  0  0  0  0
   14.3590  -53.0740   37.2480 H   0  0  0  0  0  0  0  0  0  0  0  0
   15.6060  -54.0320   36.4500 H   0  0  0  0  0  0  0  0  0  0  0  0
   19.0680  -53.4870   39.2800 H   0  0  0  0  0  0  0  0  0  0  0  0
   18.0440  -54.8400   38.8110 H   0  0  0  0  0  0  0  0  0  0  0  0
   20.5460  -53.7650   37.6630 H   0  0  0  0  0  0  0  0  0  0  0  0
   19.7370  -55.3710   37.4070 H   0  0  0  0  0  0  0  0  0  0  0  0
   21.1390  -53.2570   35.6730 H   0  0  0  0  0  0  0  0  0  0  0  0
   21.1910  -54.7530   33.4480 H   0  0  0  0  0  0  0  0  0  0  0  0
   20.9620  -52.9830   33.5180 H   0  0  0  0  0  0  0  0  0  0  0  0
   18.6990  -53.1790   32.9890 H   0  0  0  0  0  0  0  0  0  0  0  0
   19.3420  -54.6070   32.1670 H   0  0  0  0  0  0  0  0  0  0  0  0
   16.1210  -57.1890   34.8640 H   0  0  0  0  0  0  0  0  0  0  0  0
   17.2190  -55.9550   36.8720 H   0  0  0  0  0  0  0  0  0  0  0  0
   17.8120  -52.5660   35.1180 H   0  0  0  0  0  0  0  0  0  0  0  0
   19.4330  -51.8020   35.3510 H   0  0  0  0  0  0  0  0  0  0  0  0
   19.0400  -51.3680   37.6290 H   0  0  0  0  0  0  0  0  0  0  0  0
   17.4260  -51.1870   36.8280 H   0  0  0  0  0  0  0  0  0  0  0  0
  1  2  1  0  0  0  0
  2  3  1  0  0  0  0
  3  4  2  0  0  0  0
  3 28  1  0  0  0  0
  4  8  1  0  0  0  0
  5 29  1  0  0  0  0
  5  4  1  0  0  0  0
  6  5  2  0  0  0  0
  7  6  1  0  0  0  0
  7  2  2  0  0  0  0
  8  9  2  0  0  0  0
 10  8  1  0  0  0  0
 11 10  1  0  0  0  0
 11 12  1  0  0  0  0
 12 13  2  0  0  0  0
 14 12  1  0  0  0  0
 14 15  1  0  0  0  0
 15 36  1  0  0  0  0
 15 35  1  0  0  0  0
 16 38  1  0  0  0  0
 16 37  1  0  0  0  0
 16 15  1  0  0  0  0
 17 16  1  0  0  0  0
 18 39  1  0  0  0  0
 18 17  1  0  0  0  0
 19 18  1  0  0  0  0
 20 19  1  0  0  0  0
 20 21  1  0  0  0  0
 21 25  2  0  0  0  0
 22 21  1  0  0  0  0
 22 23  2  0  0  0  0
 23 44  1  0  0  0  0
 23 24  1  0  0  0  0
 24 45  1  0  0  0  0
 25 24  1  0  0  0  0
 25 17  1  0  0  0  0
 26 17  1  0  0  0  0
 26 27  1  0  0  0  0
 27 48  1  0  0  0  0
 27 14  1  0  0  0  0
 30  6  1  0  0  0  0
 31  7  1  0  0  0  0
 32 10  1  0  0  0  0
 33 11  1  0  0  0  0
 34 11  1  0  0  0  0
 40 19  1  0  0  0  0
 41 19  1  0  0  0  0
 42 20  1  0  0  0  0
 43 20  1  0  0  0  0
 46 26  1  0  0  0  0
 47 26  1  0  0  0  0
 49 27  1  0  0  0  0
M  END
>  <Pose>
1

>  <Score>
-6.63

$$$$
