
 OpenBabel03232204043D

 45 48  0  0  1  0  0  0  0  0999 V2000
   20.0360  -55.2750   30.5670 Cl  0  0  0  0  0  0  0  0  0  0  0  0
   19.3110  -55.3530   32.1760 C   0  0  0  0  0  0  0  0  0  0  0  0
   19.4180  -54.2770   33.0240 C   0  0  0  0  0  0  0  0  0  0  0  0
   18.8590  -54.3010   34.3020 C   0  0  0  0  0  0  0  0  0  0  0  0
   18.1970  -55.4580   34.6620 C   0  0  0  0  0  0  0  0  0  0  0  0
   18.0940  -56.5350   33.8010 C   0  0  0  0  0  0  0  0  0  0  0  0
   18.6490  -56.5060   32.5390 C   0  0  0  0  0  0  0  0  0  0  0  0
   18.9840  -53.1340   35.2060 C   0  0  0  0  0  0  0  0  0  0  0  0
   19.6290  -53.4960   36.5160 C   0  0  0  0  0  0  0  0  0  0  0  0
   18.6840  -53.7430   37.5800 N   0  0  0  0  0  0  0  0  0  0  0  0
   17.2560  -53.5800   37.6380 C   0  0  2  0  0  0  0  0  0  0  0  0
   17.0420  -53.3190   39.1160 C   0  0  2  0  0  0  0  0  0  0  0  0
   17.9060  -54.2950   39.6830 O   0  0  0  0  0  0  0  0  0  0  0  0
   19.0520  -54.2380   38.8630 C   0  0  0  0  0  0  0  0  0  0  0  0
   20.2080  -54.5860   39.2600 O   0  0  0  0  0  0  0  0  0  0  0  0
   15.5970  -53.6460   39.2180 C   0  0  0  0  0  0  0  0  0  0  0  0
   15.5620  -54.9760   38.5670 N   0  0  0  0  0  0  0  0  0  0  0  0
   16.5430  -54.9400   37.5270 C   0  0  0  0  0  0  0  0  0  0  0  0
   14.6790  -55.9650   39.0100 C   0  0  0  0  0  0  0  0  0  0  0  0
   14.0950  -55.8380   40.1630 O   0  0  0  0  0  0  0  0  0  0  0  0
   14.3210  -57.1780   38.3000 C   0  0  0  0  0  0  0  0  0  0  0  0
   14.9790  -58.3690   38.3290 N   0  0  0  0  0  0  0  0  0  0  0  0
   14.3320  -59.2310   37.5490 C   0  0  0  0  0  0  0  0  0  0  0  0
   13.2710  -58.6220   37.0170 N   0  0  0  0  0  0  0  0  0  0  0  0
   13.2500  -57.3490   37.4730 C   0  0  0  0  0  0  0  0  0  0  0  0
   16.1750  -58.6280   39.0870 C   0  0  0  0  0  0  0  0  0  0  0  0
   19.9410  -53.3570   32.7460 H   0  0  0  0  0  0  0  0  0  0  0  0
   17.7570  -55.4840   35.6620 H   0  0  0  0  0  0  0  0  0  0  0  0
   17.5650  -57.4320   34.1170 H   0  0  0  0  0  0  0  0  0  0  0  0
   18.5760  -57.3390   31.8550 H   0  0  0  0  0  0  0  0  0  0  0  0
   17.9580  -52.7850   35.4410 H   0  0  0  0  0  0  0  0  0  0  0  0
   19.4910  -52.2680   34.7120 H   0  0  0  0  0  0  0  0  0  0  0  0
   20.3130  -52.6360   36.7690 H   0  0  0  0  0  0  0  0  0  0  0  0
   20.3100  -54.3640   36.4020 H   0  0  0  0  0  0  0  0  0  0  0  0
   16.8380  -52.8280   36.9820 H   0  0  0  0  0  0  0  0  0  0  0  0
   17.3090  -52.2960   39.4180 H   0  0  0  0  0  0  0  0  0  0  0  0
   15.1790  -53.6560   40.2160 H   0  0  0  0  0  0  0  0  0  0  0  0
   15.0460  -52.9840   38.5170 H   0  0  0  0  0  0  0  0  0  0  0  0
   16.1670  -55.0770   36.5080 H   0  0  0  0  0  0  0  0  0  0  0  0
   17.3320  -55.7320   37.6970 H   0  0  0  0  0  0  0  0  0  0  0  0
   14.5680  -60.2820   37.3290 H   0  0  0  0  0  0  0  0  0  0  0  0
   12.4600  -56.6440   37.1710 H   0  0  0  0  0  0  0  0  0  0  0  0
   16.0000  -58.6350   40.1820 H   0  0  0  0  0  0  0  0  0  0  0  0
   16.9750  -57.8820   38.8610 H   0  0  0  0  0  0  0  0  0  0  0  0
   16.5940  -59.6170   38.8080 H   0  0  0  0  0  0  0  0  0  0  0  0
  1  2  1  0  0  0  0
  2  7  2  0  0  0  0
  2  3  1  0  0  0  0
  3  4  2  0  0  0  0
  4  5  1  0  0  0  0
  4  8  1  0  0  0  0
  5 28  1  0  0  0  0
  6 29  1  0  0  0  0
  6  5  2  0  0  0  0
  7  6  1  0  0  0  0
  8 31  1  0  0  0  0
  8  9  1  0  0  0  0
  9 33  1  0  0  0  0
  9 10  1  0  0  0  0
 10 11  1  0  0  0  0
 10 14  1  0  0  0  0
 11 35  1  6  0  0  0
 11 12  1  0  0  0  0
 12 16  1  0  0  0  0
 12 36  1  1  0  0  0
 12 13  1  0  0  0  0
 14 15  2  0  0  0  0
 14 13  1  0  0  0  0
 16 37  1  0  0  0  0
 17 19  1  0  0  0  0
 17 16  1  0  0  0  0
 18 11  1  0  0  0  0
 18 40  1  0  0  0  0
 18 17  1  0  0  0  0
 19 20  2  0  0  0  0
 21 22  1  0  0  0  0
 21 19  1  0  0  0  0
 22 26  1  0  0  0  0
 23 22  1  0  0  0  0
 24 25  1  0  0  0  0
 24 23  2  0  0  0  0
 25 21  2  0  0  0  0
 26 43  1  0  0  0  0
 27  3  1  0  0  0  0
 30  7  1  0  0  0  0
 32  8  1  0  0  0  0
 34  9  1  0  0  0  0
 38 16  1  0  0  0  0
 39 18  1  0  0  0  0
 41 23  1  0  0  0  0
 42 25  1  0  0  0  0
 44 26  1  0  0  0  0
 45 26  1  0  0  0  0
M  END
>  <Pose>
1

>  <Score>
-6.74

$$$$
