
 OpenBabel03232204043D

 53 56  0  0  0  0  0  0  0  0999 V2000
   19.2060  -51.5510   36.8110 Cl  0  0  0  0  0  0  0  0  0  0  0  0
   17.9700  -52.6210   37.4710 C   0  0  0  0  0  0  0  0  0  0  0  0
   18.1690  -53.9890   37.3390 C   0  0  0  0  0  0  0  0  0  0  0  0
   17.2240  -54.8390   37.8400 C   0  0  0  0  0  0  0  0  0  0  0  0
   16.0860  -54.2990   38.4700 C   0  0  0  0  0  0  0  0  0  0  0  0
   15.9160  -52.9490   38.5850 C   0  0  0  0  0  0  0  0  0  0  0  0
   16.8640  -52.0740   38.0820 C   0  0  0  0  0  0  0  0  0  0  0  0
   17.3800  -56.3120   37.7840 C   0  0  0  0  0  0  0  0  0  0  0  0
   16.3320  -57.0270   37.1280 N   0  0  0  0  0  0  0  0  0  0  0  0
   15.1230  -57.2320   37.6900 C   0  0  0  0  0  0  0  0  0  0  0  0
   14.3950  -57.9950   36.8080 C   0  0  0  0  0  0  0  0  0  0  0  0
   15.1630  -58.2250   35.7610 N   0  0  0  0  0  0  0  0  0  0  0  0
   16.3710  -57.6350   35.9390 C   0  0  0  0  0  0  0  0  0  0  0  0
   17.4690  -57.7460   35.0190 N   0  0  0  0  0  0  0  0  0  0  0  0
   17.6900  -59.0520   34.3660 C   0  0  0  0  0  0  0  0  0  0  0  0
   17.6850  -58.9360   32.8760 C   0  0  0  0  0  0  0  0  0  0  0  0
   18.0120  -57.5940   32.4530 N   0  0  0  0  0  0  0  0  0  0  0  0
   18.9330  -56.8420   33.2810 C   0  0  0  0  0  0  0  0  0  0  0  0
   18.3570  -56.6930   34.6780 C   0  0  0  0  0  0  0  0  0  0  0  0
   17.4540  -57.0460   31.2670 C   0  0  0  0  0  0  0  0  0  0  0  0
   16.2860  -56.6000   31.2650 O   0  0  0  0  0  0  0  0  0  0  0  0
   18.2320  -56.9860   30.0070 C   0  0  0  0  0  0  0  0  0  0  0  0
   19.1050  -55.7360   30.0750 C   0  0  0  0  0  0  0  0  0  0  0  0
   13.1240  -58.3380   37.1610 N   0  0  0  0  0  0  0  0  0  0  0  0
   12.5880  -57.9520   38.3250 C   0  0  0  0  0  0  0  0  0  0  0  0
   11.4060  -58.2970   38.6060 O   0  0  0  0  0  0  0  0  0  0  0  0
   13.2620  -57.2100   39.2120 N   0  0  0  0  0  0  0  0  0  0  0  0
   14.5290  -56.8530   38.8890 C   0  0  0  0  0  0  0  0  0  0  0  0
   15.1640  -56.1610   39.7140 O   0  0  0  0  0  0  0  0  0  0  0  0
   12.3350  -59.1530   36.2390 C   0  0  0  0  0  0  0  0  0  0  0  0
   19.0660  -54.3390   36.8250 H   0  0  0  0  0  0  0  0  0  0  0  0
   15.3300  -54.9890   38.8700 H   0  0  0  0  0  0  0  0  0  0  0  0
   15.0560  -52.4970   39.0600 H   0  0  0  0  0  0  0  0  0  0  0  0
   16.7510  -50.9990   38.1640 H   0  0  0  0  0  0  0  0  0  0  0  0
   17.4770  -56.6940   38.8460 H   0  0  0  0  0  0  0  0  0  0  0  0
   18.3820  -56.5000   37.3480 H   0  0  0  0  0  0  0  0  0  0  0  0
   18.6520  -59.4340   34.7580 H   0  0  0  0  0  0  0  0  0  0  0  0
   16.8460  -59.7300   34.6410 H   0  0  0  0  0  0  0  0  0  0  0  0
   18.4910  -59.6080   32.4700 H   0  0  0  0  0  0  0  0  0  0  0  0
   16.7160  -59.2390   32.4250 H   0  0  0  0  0  0  0  0  0  0  0  0
   19.8730  -57.4640   33.3620 H   0  0  0  0  0  0  0  0  0  0  0  0
   19.2410  -55.8800   32.8610 H   0  0  0  0  0  0  0  0  0  0  0  0
   17.8290  -55.7250   34.7440 H   0  0  0  0  0  0  0  0  0  0  0  0
   19.2310  -56.6310   35.4000 H   0  0  0  0  0  0  0  0  0  0  0  0
   18.9080  -57.8810   29.9210 H   0  0  0  0  0  0  0  0  0  0  0  0
   17.5970  -57.0170   29.1140 H   0  0  0  0  0  0  0  0  0  0  0  0
   20.1430  -55.9600   30.3960 H   0  0  0  0  0  0  0  0  0  0  0  0
   18.7030  -54.9870   30.7880 H   0  0  0  0  0  0  0  0  0  0  0  0
   19.1190  -55.2380   29.0760 H   0  0  0  0  0  0  0  0  0  0  0  0
   12.8070  -56.9310   40.1090 H   0  0  0  0  0  0  0  0  0  0  0  0
   11.2630  -58.8590   36.2990 H   0  0  0  0  0  0  0  0  0  0  0  0
   12.4460  -60.2170   36.5960 H   0  0  0  0  0  0  0  0  0  0  0  0
   12.7410  -59.1010   35.2210 H   0  0  0  0  0  0  0  0  0  0  0  0
  1  2  1  0  0  0  0
  2  7  1  0  0  0  0
  3  2  2  0  0  0  0
  3  4  1  0  0  0  0
  4  5  2  0  0  0  0
  5  6  1  0  0  0  0
  5 32  1  0  0  0  0
  6 33  1  0  0  0  0
  7 34  1  0  0  0  0
  7  6  2  0  0  0  0
  8  4  1  0  0  0  0
  8 35  1  0  0  0  0
  9 10  1  0  0  0  0
  9  8  1  0  0  0  0
 10 28  1  0  0  0  0
 11 24  1  0  0  0  0
 11 10  2  0  0  0  0
 12 13  2  0  0  0  0
 12 11  1  0  0  0  0
 13  9  1  0  0  0  0
 14 13  1  0  0  0  0
 15 38  1  0  0  0  0
 15 37  1  0  0  0  0
 15 14  1  0  0  0  0
 16 15  1  0  0  0  0
 17 16  1  0  0  0  0
 17 18  1  0  0  0  0
 18 41  1  0  0  0  0
 18 19  1  0  0  0  0
 19 43  1  0  0  0  0
 19 14  1  0  0  0  0
 19 44  1  0  0  0  0
 20 17  1  0  0  0  0
 21 20  2  0  0  0  0
 22 23  1  0  0  0  0
 22 20  1  0  0  0  0
 23 47  1  0  0  0  0
 23 48  1  0  0  0  0
 24 25  1  0  0  0  0
 25 26  2  0  0  0  0
 25 27  1  0  0  0  0
 27 50  1  0  0  0  0
 28 27  1  0  0  0  0
 28 29  2  0  0  0  0
 30 51  1  0  0  0  0
 30 52  1  0  0  0  0
 30 24  1  0  0  0  0
 31  3  1  0  0  0  0
 36  8  1  0  0  0  0
 39 16  1  0  0  0  0
 40 16  1  0  0  0  0
 42 18  1  0  0  0  0
 45 22  1  0  0  0  0
 46 22  1  0  0  0  0
 49 23  1  0  0  0  0
 53 30  1  0  0  0  0
M  END
>  <Pose>
1

>  <Score>
-6.69

$$$$
