
 OpenBabel03232204043D

 53 56  0  0  1  0  0  0  0  0999 V2000
    9.0390  -60.6460   39.0100 Cl  0  0  0  0  0  0  0  0  0  0  0  0
   10.5060  -60.4000   38.1040 C   0  0  0  0  0  0  0  0  0  0  0  0
   10.8230  -61.1810   37.0320 C   0  0  0  0  0  0  0  0  0  0  0  0
   12.0050  -60.9440   36.3460 C   0  0  0  0  0  0  0  0  0  0  0  0
   12.8800  -59.9630   36.6850 C   0  0  0  0  0  0  0  0  0  0  0  0
   12.5530  -59.1660   37.7820 C   0  0  0  0  0  0  0  0  0  0  0  0
   11.3860  -59.3830   38.4790 C   0  0  0  0  0  0  0  0  0  0  0  0
   14.1250  -59.7230   35.9660 C   0  0  1  0  0  0  0  0  0  0  0  0
   13.8700  -59.7300   34.5140 N   0  0  0  0  0  0  0  0  0  0  0  0
   13.4890  -58.4180   34.1230 C   0  0  0  0  0  0  0  0  0  0  0  0
   12.8680  -58.0890   33.1110 O   0  0  0  0  0  0  0  0  0  0  0  0
   13.9790  -57.4930   35.1640 C   0  0  0  0  0  0  0  0  0  0  0  0
   13.8500  -56.2270   35.2100 O   0  0  0  0  0  0  0  0  0  0  0  0
   14.6480  -58.3290   36.1470 C   0  0  0  0  0  0  0  0  0  0  0  0
   15.5130  -57.8850   37.0250 C   0  0  0  0  0  0  0  0  0  0  0  0
   16.0420  -58.7940   37.9370 O   0  0  0  0  0  0  0  0  0  0  0  0
   15.9880  -56.5100   37.1390 C   0  0  0  0  0  0  0  0  0  0  0  0
   15.5360  -55.7950   38.2420 C   0  0  0  0  0  0  0  0  0  0  0  0
   15.9600  -54.5100   38.4280 C   0  0  0  0  0  0  0  0  0  0  0  0
   16.8290  -53.9060   37.5390 C   0  0  0  0  0  0  0  0  0  0  0  0
   17.2740  -54.6190   36.4470 C   0  0  0  0  0  0  0  0  0  0  0  0
   16.8390  -55.9170   36.2710 C   0  0  0  0  0  0  0  0  0  0  0  0
   17.3390  -52.2730   37.8150 Cl  0  0  0  0  0  0  0  0  0  0  0  0
   14.0270  -60.9280   33.7290 C   0  0  0  0  0  0  0  0  0  0  0  0
   14.7580  -60.7740   32.4510 C   0  0  0  0  0  0  0  0  0  0  0  0
   14.1690  -61.2660   31.2610 N   0  0  0  0  0  4  0  0  0  0  0  0
   13.8790  -62.6840   31.2890 C   0  0  0  0  0  0  0  0  0  0  0  0
   14.5090  -63.4550   30.1540 C   0  0  0  0  0  0  0  0  0  0  0  0
   14.3200  -62.9080   28.9110 O   0  0  0  0  0  0  0  0  0  0  0  0
   14.5680  -61.5490   28.8600 C   0  0  0  0  0  0  0  0  0  0  0  0
   15.1490  -61.1010   30.1670 C   0  0  0  0  0  0  0  0  0  0  0  0
   10.1380  -61.9680   36.7460 H   0  0  0  0  0  0  0  0  0  0  0  0
   12.2040  -61.5820   35.5090 H   0  0  0  0  0  0  0  0  0  0  0  0
   13.2400  -58.3820   38.0640 H   0  0  0  0  0  0  0  0  0  0  0  0
   11.0980  -58.7900   39.3300 H   0  0  0  0  0  0  0  0  0  0  0  0
   14.9160  -60.4720   36.1970 H   0  0  0  0  0  0  0  0  0  0  0  0
   14.8430  -56.2640   38.9590 H   0  0  0  0  0  0  0  0  0  0  0  0
   15.5810  -53.9860   39.3060 H   0  0  0  0  0  0  0  0  0  0  0  0
   17.9540  -54.1210   35.7690 H   0  0  0  0  0  0  0  0  0  0  0  0
   17.2190  -56.4730   35.4070 H   0  0  0  0  0  0  0  0  0  0  0  0
   12.9830  -61.2860   33.4670 H   0  0  0  0  0  0  0  0  0  0  0  0
   14.4170  -61.7730   34.3520 H   0  0  0  0  0  0  0  0  0  0  0  0
   15.0420  -59.6840   32.2980 H   0  0  0  0  0  0  0  0  0  0  0  0
   15.7900  -61.2570   32.5060 H   0  0  0  0  0  0  0  0  0  0  0  0
   13.3540  -60.7160   30.9450 H   0  0  0  0  0  0  0  0  0  0  0  0
   12.7790  -62.8110   31.2750 H   0  0  0  0  0  0  0  0  0  0  0  0
   14.2490  -63.1670   32.2170 H   0  0  0  0  0  0  0  0  0  0  0  0
   14.0180  -64.4650   30.1740 H   0  0  0  0  0  0  0  0  0  0  0  0
   15.5790  -63.6580   30.3830 H   0  0  0  0  0  0  0  0  0  0  0  0
   15.2720  -61.2740   28.0610 H   0  0  0  0  0  0  0  0  0  0  0  0
   13.6200  -60.9910   28.7040 H   0  0  0  0  0  0  0  0  0  0  0  0
   16.0440  -61.6780   30.4520 H   0  0  0  0  0  0  0  0  0  0  0  0
   15.4610  -60.0320   30.0950 H   0  0  0  0  0  0  0  0  0  0  0  0
  2  7  1  0  0  0  0
  2  1  1  0  0  0  0
  3  2  2  0  0  0  0
  4  5  2  0  0  0  0
  4  3  1  0  0  0  0
  5  6  1  0  0  0  0
  6 34  1  0  0  0  0
  6  7  2  0  0  0  0
  7 35  1  0  0  0  0
  8 14  1  0  0  0  0
  8 36  1  1  0  0  0
  8  5  1  0  0  0  0
  9  8  1  0  0  0  0
 10  9  1  0  0  0  0
 10 12  1  0  0  0  0
 11 10  2  0  0  0  0
 12 13  2  0  0  0  0
 12 14  1  0  0  0  0
 14 15  2  0  0  0  0
 15 17  1  0  0  0  0
 15 16  1  0  0  0  0
 17 18  1  0  0  0  0
 18 19  2  0  0  0  0
 18 37  1  0  0  0  0
 19 38  1  0  0  0  0
 20 23  1  0  0  0  0
 20 19  1  0  0  0  0
 21 20  2  0  0  0  0
 22 21  1  0  0  0  0
 22 17  2  0  0  0  0
 24 42  1  0  0  0  0
 24  9  1  0  0  0  0
 25 44  1  0  0  0  0
 25 24  1  0  0  0  0
 26 27  1  0  0  0  0
 26 25  1  0  0  0  0
 27 47  1  0  0  0  0
 28 48  1  0  0  0  0
 28 49  1  0  0  0  0
 28 27  1  0  0  0  0
 29 28  1  0  0  0  0
 30 29  1  0  0  0  0
 30 31  1  0  0  0  0
 31 52  1  0  0  0  0
 31 26  1  0  0  0  0
 32  3  1  0  0  0  0
 33  4  1  0  0  0  0
 39 21  1  0  0  0  0
 40 22  1  0  0  0  0
 41 24  1  0  0  0  0
 43 25  1  0  0  0  0
 45 26  1  0  0  0  0
 46 27  1  0  0  0  0
 50 30  1  0  0  0  0
 51 30  1  0  0  0  0
 53 31  1  0  0  0  0
M  END
>  <Pose>
1

>  <Score>
-6.66

$$$$
