
 OpenBabel03232204043D

 60 64  0  0  1  0  0  0  0  0999 V2000
   14.3470  -64.8050   32.2900 Cl  0  0  0  0  0  0  0  0  0  0  0  0
   14.3840  -63.2030   33.0420 C   0  0  0  0  0  0  0  0  0  0  0  0
   13.2430  -62.4380   33.0890 C   0  0  0  0  0  0  0  0  0  0  0  0
   13.2690  -61.1810   33.6780 C   0  0  0  0  0  0  0  0  0  0  0  0
   14.3950  -60.6370   34.2350 C   0  0  0  0  0  0  0  0  0  0  0  0
   15.5440  -61.4400   34.1730 C   0  0  0  0  0  0  0  0  0  0  0  0
   15.5300  -62.6880   33.5910 C   0  0  0  0  0  0  0  0  0  0  0  0
   14.0860  -59.3170   34.7610 C   0  0  1  0  0  0  0  0  0  0  0  0
   14.2980  -59.3500   36.2050 N   0  0  0  0  0  0  0  0  0  0  0  0
   15.5490  -58.6590   36.3660 C   0  0  1  0  0  0  0  0  0  0  0  0
   15.3780  -57.4800   35.4360 C   0  0  2  0  0  0  0  0  0  0  0  0
   14.8720  -58.1850   34.1960 C   0  0  1  0  0  0  0  0  0  0  0  0
   16.0690  -58.5110   33.4470 C   0  0  0  0  0  0  0  0  0  0  0  0
   16.1630  -59.3270   32.5040 O   0  0  0  0  0  0  0  0  0  0  0  0
   17.1550  -57.7470   33.9520 N   0  0  0  0  0  0  0  0  0  0  0  0
   16.6870  -56.9190   35.0180 C   0  0  0  0  0  0  0  0  0  0  0  0
   17.2180  -55.9110   35.5430 O   0  0  0  0  0  0  0  0  0  0  0  0
   18.5400  -57.7400   33.5200 C   0  0  0  0  0  0  0  0  0  0  0  0
   18.7130  -57.0760   32.2160 C   0  0  0  0  0  0  0  0  0  0  0  0
   19.0320  -55.7350   32.2120 C   0  0  0  0  0  0  0  0  0  0  0  0
   19.1930  -55.1160   30.9800 C   0  0  0  0  0  0  0  0  0  0  0  0
   19.0440  -55.8030   29.8090 C   0  0  0  0  0  0  0  0  0  0  0  0
   18.7280  -57.1400   29.8550 C   0  0  0  0  0  0  0  0  0  0  0  0
   18.5540  -57.8120   31.0450 C   0  0  0  0  0  0  0  0  0  0  0  0
   19.1770  -55.0620   33.4070 O   0  0  0  0  0  0  0  0  0  0  0  0
   19.9980  -53.9540   33.6040 C   0  0  0  0  0  0  0  0  0  0  0  0
   15.7620  -58.2270   37.8000 C   0  0  0  0  0  0  0  0  0  0  0  0
   15.3510  -56.7710   37.8810 C   0  0  0  0  0  0  0  0  0  0  0  0
   14.2160  -56.5710   38.8160 C   0  0  0  0  0  0  0  0  0  0  0  0
   14.3570  -55.8000   39.8070 O   0  0  0  0  0  0  0  0  0  0  0  0
   13.0110  -57.2710   38.5390 N   0  0  0  0  0  0  0  0  0  0  0  0
   12.6460  -59.1160   34.4740 C   0  0  0  0  0  0  0  0  0  0  0  0
   11.9310  -58.1090   34.7560 O   0  0  0  0  0  0  0  0  0  0  0  0
   12.1840  -60.2710   33.8110 N   0  0  0  0  0  0  0  0  0  0  0  0
   11.9920  -62.9870   32.4960 C   0  0  0  0  0  0  0  0  0  0  0  0
   16.4680  -61.0750   34.5920 H   0  0  0  0  0  0  0  0  0  0  0  0
   16.4380  -63.2810   33.5610 H   0  0  0  0  0  0  0  0  0  0  0  0
   14.3020  -60.3380   36.5360 H   0  0  0  0  0  0  0  0  0  0  0  0
   16.4400  -59.2080   36.0630 H   0  0  0  0  0  0  0  0  0  0  0  0
   14.6850  -56.7240   35.8220 H   0  0  0  0  0  0  0  0  0  0  0  0
   14.2600  -57.4770   33.5920 H   0  0  0  0  0  0  0  0  0  0  0  0
   19.1800  -57.2360   34.2690 H   0  0  0  0  0  0  0  0  0  0  0  0
   18.8730  -58.8080   33.5050 H   0  0  0  0  0  0  0  0  0  0  0  0
   19.4420  -54.0670   30.9680 H   0  0  0  0  0  0  0  0  0  0  0  0
   19.1820  -55.2710   28.8590 H   0  0  0  0  0  0  0  0  0  0  0  0
   18.6080  -57.6920   28.9340 H   0  0  0  0  0  0  0  0  0  0  0  0
   18.3010  -58.8800   31.0750 H   0  0  0  0  0  0  0  0  0  0  0  0
   19.9440  -53.6820   34.6820 H   0  0  0  0  0  0  0  0  0  0  0  0
   19.5590  -53.0930   33.0550 H   0  0  0  0  0  0  0  0  0  0  0  0
   21.0360  -54.1740   33.3190 H   0  0  0  0  0  0  0  0  0  0  0  0
   16.7960  -58.3890   38.1420 H   0  0  0  0  0  0  0  0  0  0  0  0
   15.0180  -58.7920   38.4120 H   0  0  0  0  0  0  0  0  0  0  0  0
   16.2100  -56.1010   38.1330 H   0  0  0  0  0  0  0  0  0  0  0  0
   15.0150  -56.4730   36.8690 H   0  0  0  0  0  0  0  0  0  0  0  0
   12.1490  -56.9700   39.0220 H   0  0  0  0  0  0  0  0  0  0  0  0
   13.0680  -58.0650   37.8520 H   0  0  0  0  0  0  0  0  0  0  0  0
   11.1940  -60.4180   33.4770 H   0  0  0  0  0  0  0  0  0  0  0  0
   11.7740  -62.5130   31.5290 H   0  0  0  0  0  0  0  0  0  0  0  0
   12.0630  -64.0670   32.3670 H   0  0  0  0  0  0  0  0  0  0  0  0
   11.1060  -62.7680   33.1560 H   0  0  0  0  0  0  0  0  0  0  0  0
  1  2  1  0  0  0  0
  2  3  2  0  0  0  0
  2  7  1  0  0  0  0
  3  4  1  0  0  0  0
  4 34  1  0  0  0  0
  4  5  2  0  0  0  0
  6  5  1  0  0  0  0
  6 36  1  0  0  0  0
  7  6  2  0  0  0  0
  8  5  1  6  0  0  0
  8  9  1  0  0  0  0
  9 10  1  0  0  0  0
  9 38  1  0  0  0  0
 10 39  1  6  0  0  0
 10 27  1  0  0  0  0
 11 40  1  1  0  0  0
 11 10  1  0  0  0  0
 12 41  1  6  0  0  0
 12  8  1  0  0  0  0
 12 11  1  0  0  0  0
 13 15  1  0  0  0  0
 13 12  1  0  0  0  0
 14 13  2  0  0  0  0
 15 16  1  0  0  0  0
 16 11  1  0  0  0  0
 16 17  2  0  0  0  0
 18 15  1  0  0  0  0
 18 42  1  0  0  0  0
 19 18  1  0  0  0  0
 20 19  1  0  0  0  0
 20 25  1  0  0  0  0
 21 20  2  0  0  0  0
 22 23  2  0  0  0  0
 22 21  1  0  0  0  0
 23 24  1  0  0  0  0
 24 47  1  0  0  0  0
 24 19  2  0  0  0  0
 25 26  1  0  0  0  0
 26 48  1  0  0  0  0
 27 28  1  0  0  0  0
 27 51  1  0  0  0  0
 27 52  1  0  0  0  0
 28 53  1  0  0  0  0
 28 29  1  0  0  0  0
 29 30  2  0  0  0  0
 31 29  1  0  0  0  0
 31 55  1  0  0  0  0
 32 33  2  0  0  0  0
 32  8  1  0  0  0  0
 34 32  1  0  0  0  0
 35  3  1  0  0  0  0
 35 60  1  0  0  0  0
 37  7  1  0  0  0  0
 43 18  1  0  0  0  0
 44 21  1  0  0  0  0
 45 22  1  0  0  0  0
 46 23  1  0  0  0  0
 49 26  1  0  0  0  0
 50 26  1  0  0  0  0
 54 28  1  0  0  0  0
 56 31  1  0  0  0  0
 57 34  1  0  0  0  0
 58 35  1  0  0  0  0
 59 35  1  0  0  0  0
M  END
>  <Pose>
1

>  <Score>
-7.13

$$$$
