
 OpenBabel03232204043D

 44 47  0  0  0  0  0  0  0  0999 V2000
   19.7590  -53.6420   35.3760 S   0  0  0  0  0  0  0  0  0  0  0  0
   20.5540  -52.5960   34.7720 O   0  0  0  0  0  0  0  0  0  0  0  0
   20.5560  -54.4720   36.3360 O   0  0  0  0  0  0  0  0  0  0  0  0
   18.3260  -53.0050   36.2810 C   0  0  0  0  0  0  0  0  0  0  0  0
   19.0920  -54.7630   34.1750 C   0  0  0  0  0  0  0  0  0  0  0  0
   18.8210  -56.0160   34.5580 N   0  0  0  0  0  0  0  0  0  0  0  0
   18.2540  -56.9330   33.7790 C   0  0  0  0  0  0  0  0  0  0  0  0
   17.9150  -56.5420   32.4740 C   0  0  0  0  0  0  0  0  0  0  0  0
   18.1910  -55.2770   32.0930 C   0  0  0  0  0  0  0  0  0  0  0  0
   18.7820  -54.3930   32.9460 N   0  0  0  0  0  0  0  0  0  0  0  0
   17.8690  -54.8910   30.8000 O   0  0  0  0  0  0  0  0  0  0  0  0
   17.1670  -57.5390   31.7050 C   0  0  0  0  0  0  0  0  0  0  0  0
   16.0930  -57.9540   32.5530 N   0  0  0  0  0  0  0  0  0  0  0  0
   16.7770  -58.9510   33.4920 C   0  0  0  0  0  0  0  0  0  0  0  0
   17.9290  -58.3230   34.1930 C   0  0  0  0  0  0  0  0  0  0  0  0
   15.5940  -56.9530   33.5640 C   0  0  0  0  0  0  0  0  0  0  0  0
   14.6020  -57.8450   34.3150 C   0  0  0  0  0  0  0  0  0  0  0  0
   14.6080  -58.0890   35.6320 C   0  0  0  0  0  0  0  0  0  0  0  0
   13.6630  -58.9240   36.2880 C   0  0  0  0  0  0  0  0  0  0  0  0
   12.7000  -59.4820   35.4420 C   0  0  0  0  0  0  0  0  0  0  0  0
   11.7650  -60.2930   36.0160 C   0  0  0  0  0  0  0  0  0  0  0  0
   11.7150  -60.5990   37.3940 C   0  0  0  0  0  0  0  0  0  0  0  0
   12.7020  -60.0090   38.2050 C   0  0  0  0  0  0  0  0  0  0  0  0
   13.6310  -59.2010   37.6130 C   0  0  0  0  0  0  0  0  0  0  0  0
   12.6790  -59.2430   34.1760 O   0  0  0  0  0  0  0  0  0  0  0  0
   13.5860  -58.4530   33.5810 C   0  0  0  0  0  0  0  0  0  0  0  0
   13.5590  -58.2330   32.3100 O   0  0  0  0  0  0  0  0  0  0  0  0
   15.7990  -57.2970   36.6070 Cl  0  0  0  0  0  0  0  0  0  0  0  0
   17.5940  -53.8820   36.3930 H   0  0  0  0  0  0  0  0  0  0  0  0
   17.8040  -52.2600   35.6130 H   0  0  0  0  0  0  0  0  0  0  0  0
   18.6020  -52.5630   37.2410 H   0  0  0  0  0  0  0  0  0  0  0  0
   17.3330  -54.0480   30.5720 H   0  0  0  0  0  0  0  0  0  0  0  0
   16.9010  -57.2480   30.6630 H   0  0  0  0  0  0  0  0  0  0  0  0
   17.8650  -58.4710   31.6160 H   0  0  0  0  0  0  0  0  0  0  0  0
   15.9460  -59.2870   34.1880 H   0  0  0  0  0  0  0  0  0  0  0  0
   17.0590  -59.7660   32.8330 H   0  0  0  0  0  0  0  0  0  0  0  0
   17.6320  -58.3170   35.2950 H   0  0  0  0  0  0  0  0  0  0  0  0
   18.8000  -58.9790   34.1300 H   0  0  0  0  0  0  0  0  0  0  0  0
   16.3640  -56.6250   34.2350 H   0  0  0  0  0  0  0  0  0  0  0  0
   15.0500  -56.2010   32.9840 H   0  0  0  0  0  0  0  0  0  0  0  0
   10.9510  -60.7450   35.4520 H   0  0  0  0  0  0  0  0  0  0  0  0
   10.9490  -61.2760   37.8210 H   0  0  0  0  0  0  0  0  0  0  0  0
   12.6340  -60.2200   39.2280 H   0  0  0  0  0  0  0  0  0  0  0  0
   14.4640  -58.7920   38.2060 H   0  0  0  0  0  0  0  0  0  0  0  0
  1  4  1  0  0  0  0
  1  3  2  0  0  0  0
  2  1  2  0  0  0  0
  4 29  1  0  0  0  0
  4 31  1  0  0  0  0
  5  6  2  0  0  0  0
  5  1  1  0  0  0  0
  7 15  1  0  0  0  0
  7  6  1  0  0  0  0
  8  7  2  0  0  0  0
  9  8  1  0  0  0  0
  9 10  2  0  0  0  0
 10  5  1  0  0  0  0
 11  9  1  0  0  0  0
 12  8  1  0  0  0  0
 12 13  1  0  0  0  0
 13 14  1  0  0  0  0
 13 16  1  0  0  0  0
 14 35  1  0  0  0  0
 14 15  1  0  0  0  0
 15 37  1  0  0  0  0
 16 39  1  0  0  0  0
 16 17  1  0  0  0  0
 17 18  2  0  0  0  0
 18 19  1  0  0  0  0
 18 28  1  0  0  0  0
 19 24  1  0  0  0  0
 20 21  1  0  0  0  0
 20 19  2  0  0  0  0
 21 22  2  0  0  0  0
 22 42  1  0  0  0  0
 22 23  1  0  0  0  0
 23 43  1  0  0  0  0
 24 23  2  0  0  0  0
 24 44  1  0  0  0  0
 25 20  1  0  0  0  0
 26 25  1  0  0  0  0
 26 17  1  0  0  0  0
 27 26  2  0  0  0  0
 30  4  1  0  0  0  0
 32 11  1  0  0  0  0
 33 12  1  0  0  0  0
 34 12  1  0  0  0  0
 36 14  1  0  0  0  0
 38 15  1  0  0  0  0
 40 16  1  0  0  0  0
 41 21  1  0  0  0  0
M  END
>  <Pose>
1

>  <Score>
-6.44

$$$$
