
 OpenBabel03232204043D

 32 35  0  0  1  0  0  0  0  0999 V2000
   17.3750  -54.9830   32.5600 Cl  0  0  0  0  0  0  0  0  0  0  0  0
   18.0230  -54.8280   34.1960 C   0  0  0  0  0  0  0  0  0  0  0  0
   17.2210  -54.5010   35.2620 C   0  0  0  0  0  0  0  0  0  0  0  0
   17.7600  -54.3830   36.5520 C   0  0  0  0  0  0  0  0  0  0  0  0
   19.0900  -54.5890   36.7900 C   0  0  0  0  0  0  0  0  0  0  0  0
   19.9170  -54.9250   35.7040 C   0  0  0  0  0  0  0  0  0  0  0  0
   19.3570  -55.0310   34.4540 C   0  0  0  0  0  0  0  0  0  0  0  0
   19.4210  -54.4210   38.1590 N   0  0  0  0  0  0  0  0  0  0  0  0
   18.2160  -54.0860   38.8250 C   0  0  0  0  0  0  0  0  0  0  0  0
   18.1380  -53.8620   40.0680 O   0  0  0  0  0  0  0  0  0  0  0  0
   17.1110  -54.0470   37.8430 C   0  0  1  0  0  0  0  0  0  0  0  0
   16.5770  -52.6300   37.8430 C   0  0  0  0  0  0  0  0  0  0  0  0
   15.8610  -52.4830   39.1540 C   0  0  0  0  0  0  0  0  0  0  0  0
   16.1010  -51.5680   39.9640 O   0  0  0  0  0  0  0  0  0  0  0  0
   14.8620  -53.4690   39.4430 N   0  0  0  0  0  0  0  0  0  0  0  0
   14.9960  -54.7770   38.9050 C   0  0  0  0  0  0  0  0  0  0  0  0
   14.2280  -55.8970   38.9910 N   0  0  0  0  0  0  0  0  0  0  0  0
   14.8060  -56.8450   38.2930 N   0  0  0  0  0  0  0  0  0  0  0  0
   15.9440  -56.4060   37.7330 C   0  0  0  0  0  0  0  0  0  0  0  0
   16.0830  -55.0670   38.1200 C   0  0  0  0  0  0  0  0  0  0  0  0
   20.7560  -54.5690   38.7480 C   0  0  0  0  0  0  0  0  0  0  0  0
   16.1840  -54.3320   35.1230 H   0  0  0  0  0  0  0  0  0  0  0  0
   20.9700  -55.0870   35.8960 H   0  0  0  0  0  0  0  0  0  0  0  0
   20.0090  -55.2920   33.6180 H   0  0  0  0  0  0  0  0  0  0  0  0
   15.9190  -52.4060   37.0010 H   0  0  0  0  0  0  0  0  0  0  0  0
   17.4580  -51.9610   37.9040 H   0  0  0  0  0  0  0  0  0  0  0  0
   14.0380  -53.2420   40.0420 H   0  0  0  0  0  0  0  0  0  0  0  0
   13.3370  -55.9360   39.5370 H   0  0  0  0  0  0  0  0  0  0  0  0
   16.6520  -56.9170   37.1070 H   0  0  0  0  0  0  0  0  0  0  0  0
   20.6820  -54.2350   39.8030 H   0  0  0  0  0  0  0  0  0  0  0  0
   21.1460  -55.5870   38.6430 H   0  0  0  0  0  0  0  0  0  0  0  0
   21.4930  -53.8940   38.2280 H   0  0  0  0  0  0  0  0  0  0  0  0
  1  2  1  0  0  0  0
  2  7  2  0  0  0  0
  2  3  1  0  0  0  0
  3  4  2  0  0  0  0
  4  5  1  0  0  0  0
  5  8  1  0  0  0  0
  6 23  1  0  0  0  0
  6  5  2  0  0  0  0
  7  6  1  0  0  0  0
  8 21  1  0  0  0  0
  8  9  1  0  0  0  0
  9 10  2  0  0  0  0
 11  4  1  6  0  0  0
 11 12  1  0  0  0  0
 11 20  1  0  0  0  0
 11  9  1  0  0  0  0
 12 26  1  0  0  0  0
 12 13  1  0  0  0  0
 13 15  1  0  0  0  0
 13 14  2  0  0  0  0
 15 27  1  0  0  0  0
 16 17  1  0  0  0  0
 16 15  1  0  0  0  0
 17 28  1  0  0  0  0
 18 17  1  0  0  0  0
 19 20  1  0  0  0  0
 19 18  2  0  0  0  0
 20 16  2  0  0  0  0
 21 30  1  0  0  0  0
 22  3  1  0  0  0  0
 24  7  1  0  0  0  0
 25 12  1  0  0  0  0
 29 19  1  0  0  0  0
 31 21  1  0  0  0  0
 32 21  1  0  0  0  0
M  END
>  <Pose>
1

>  <Score>
-5.18

$$$$
