
 OpenBabel03232204043D

 52 55  0  0  0  0  0  0  0  0999 V2000
   11.9190  -60.4130   35.5430 Cl  0  0  0  0  0  0  0  0  0  0  0  0
   12.6690  -59.1470   36.4620 C   0  0  0  0  0  0  0  0  0  0  0  0
   12.7390  -59.1310   37.8360 C   0  0  0  0  0  0  0  0  0  0  0  0
   13.3450  -58.1150   38.5490 C   0  0  0  0  0  0  0  0  0  0  0  0
   13.9160  -57.0530   37.8950 C   0  0  0  0  0  0  0  0  0  0  0  0
   13.8380  -57.0810   36.5130 C   0  0  0  0  0  0  0  0  0  0  0  0
   13.2380  -58.0850   35.7840 C   0  0  0  0  0  0  0  0  0  0  0  0
   14.5900  -55.9740   38.5210 N   0  0  0  0  0  0  0  0  0  0  0  0
   14.2100  -55.3070   39.5770 N   0  0  0  0  0  0  0  0  0  0  0  0
   15.0630  -54.3320   39.9060 C   0  0  0  0  0  0  0  0  0  0  0  0
   16.0920  -54.3720   38.9750 C   0  0  0  0  0  0  0  0  0  0  0  0
   15.7570  -55.4190   38.1220 C   0  0  0  0  0  0  0  0  0  0  0  0
   16.6110  -55.6660   37.1250 N   0  0  0  0  0  0  0  0  0  0  0  0
   17.7360  -54.9370   36.9570 C   0  0  0  0  0  0  0  0  0  0  0  0
   18.0860  -53.9220   37.7630 N   0  0  0  0  0  0  0  0  0  0  0  0
   17.2420  -53.6410   38.7890 C   0  0  0  0  0  0  0  0  0  0  0  0
   17.5290  -52.7000   39.5710 O   0  0  0  0  0  0  0  0  0  0  0  0
   19.2980  -53.1180   37.5760 C   0  0  0  0  0  0  0  0  0  0  0  0
   19.2840  -52.3840   36.2990 C   0  0  0  0  0  0  0  0  0  0  0  0
   19.3870  -51.1110   36.4140 O   0  0  0  0  0  0  0  0  0  0  0  0
   19.1750  -52.9240   35.0200 N   0  0  0  0  0  0  0  0  0  0  0  0
   17.8600  -53.1490   34.4000 C   0  0  0  0  0  0  0  0  0  0  0  0
   17.7670  -54.6740   34.2600 C   0  0  0  0  0  0  0  0  0  0  0  0
   18.9320  -55.1870   33.5870 N   0  0  0  0  0  0  0  0  0  0  0  0
   19.9090  -54.2240   33.1150 C   0  0  0  0  0  0  0  0  0  0  0  0
   20.3200  -53.2700   34.2070 C   0  0  0  0  0  0  0  0  0  0  0  0
   19.1320  -56.5740   33.4140 C   0  0  0  0  0  0  0  0  0  0  0  0
   19.1450  -57.3070   34.4710 O   0  0  0  0  0  0  0  0  0  0  0  0
   19.3140  -57.2270   32.2160 O   0  0  0  0  0  0  0  0  0  0  0  0
   18.4320  -56.9860   31.1030 C   0  0  0  0  0  0  0  0  0  0  0  0
   18.7480  -55.5850   30.6080 C   0  0  0  0  0  0  0  0  0  0  0  0
   12.2760  -60.0000   38.3340 H   0  0  0  0  0  0  0  0  0  0  0  0
   13.3750  -58.1410   39.6220 H   0  0  0  0  0  0  0  0  0  0  0  0
   14.2880  -56.2350   35.9650 H   0  0  0  0  0  0  0  0  0  0  0  0
   13.2370  -58.0030   34.7010 H   0  0  0  0  0  0  0  0  0  0  0  0
   15.0550  -53.6060   40.7000 H   0  0  0  0  0  0  0  0  0  0  0  0
   18.4230  -55.1570   36.1290 H   0  0  0  0  0  0  0  0  0  0  0  0
   20.1980  -53.8070   37.5430 H   0  0  0  0  0  0  0  0  0  0  0  0
   19.3890  -52.4610   38.4560 H   0  0  0  0  0  0  0  0  0  0  0  0
   17.7840  -52.6440   33.4280 H   0  0  0  0  0  0  0  0  0  0  0  0
   17.1010  -52.8440   35.1180 H   0  0  0  0  0  0  0  0  0  0  0  0
   16.8080  -54.9000   33.7720 H   0  0  0  0  0  0  0  0  0  0  0  0
   17.7030  -55.1050   35.3040 H   0  0  0  0  0  0  0  0  0  0  0  0
   19.4680  -53.7140   32.2490 H   0  0  0  0  0  0  0  0  0  0  0  0
   20.8260  -54.7960   32.8040 H   0  0  0  0  0  0  0  0  0  0  0  0
   20.5980  -52.3130   33.6660 H   0  0  0  0  0  0  0  0  0  0  0  0
   21.1750  -53.6120   34.8110 H   0  0  0  0  0  0  0  0  0  0  0  0
   18.6970  -57.7160   30.2730 H   0  0  0  0  0  0  0  0  0  0  0  0
   17.3860  -57.0720   31.3370 H   0  0  0  0  0  0  0  0  0  0  0  0
   18.8460  -55.5000   29.5230 H   0  0  0  0  0  0  0  0  0  0  0  0
   17.9470  -54.9150   31.0450 H   0  0  0  0  0  0  0  0  0  0  0  0
   19.6870  -55.2590   31.0700 H   0  0  0  0  0  0  0  0  0  0  0  0
  1  2  1  0  0  0  0
  2  3  1  0  0  0  0
  3 32  1  0  0  0  0
  3  4  2  0  0  0  0
  4 33  1  0  0  0  0
  5  8  1  0  0  0  0
  5  4  1  0  0  0  0
  6  5  2  0  0  0  0
  7  2  2  0  0  0  0
  7  6  1  0  0  0  0
  8  9  1  0  0  0  0
  9 10  2  0  0  0  0
 10 36  1  0  0  0  0
 11 10  1  0  0  0  0
 12  8  1  0  0  0  0
 12 11  2  0  0  0  0
 13 12  1  0  0  0  0
 14 13  2  0  0  0  0
 14 15  1  0  0  0  0
 15 16  1  0  0  0  0
 16 11  1  0  0  0  0
 16 17  2  0  0  0  0
 18 15  1  0  0  0  0
 18 39  1  0  0  0  0
 19 20  2  0  0  0  0
 19 18  1  0  0  0  0
 21 19  1  0  0  0  0
 22 21  1  0  0  0  0
 22 41  1  0  0  0  0
 23 22  1  0  0  0  0
 23 43  1  0  0  0  0
 24 23  1  0  0  0  0
 25 24  1  0  0  0  0
 25 26  1  0  0  0  0
 26 47  1  0  0  0  0
 26 21  1  0  0  0  0
 27 24  1  0  0  0  0
 27 28  2  0  0  0  0
 29 27  1  0  0  0  0
 30 49  1  0  0  0  0
 30 29  1  0  0  0  0
 31 51  1  0  0  0  0
 31 52  1  0  0  0  0
 31 30  1  0  0  0  0
 34  6  1  0  0  0  0
 35  7  1  0  0  0  0
 37 14  1  0  0  0  0
 38 18  1  0  0  0  0
 40 22  1  0  0  0  0
 42 23  1  0  0  0  0
 44 25  1  0  0  0  0
 45 25  1  0  0  0  0
 46 26  1  0  0  0  0
 48 30  1  0  0  0  0
 50 31  1  0  0  0  0
M  END
>  <Pose>
1

>  <Score>
-6.96

$$$$
