
 OpenBabel03232204043D

 54 58  0  0  1  0  0  0  0  0999 V2000
   16.6380  -59.0460   32.6590 S   0  0  0  0  0  0  0  0  0  0  0  0
   15.7230  -59.8590   31.7530 O   0  0  0  0  0  0  0  0  0  0  0  0
   17.7660  -60.0180   33.0040 O   0  0  0  0  0  0  0  0  0  0  0  0
   17.3000  -57.8040   31.7420 N   0  0  0  0  0  0  0  0  0  0  0  0
   16.5830  -56.5560   31.7300 C   0  0  0  0  0  0  0  0  0  0  0  0
   17.5090  -55.3790   31.9360 C   0  0  0  0  0  0  0  0  0  0  0  0
   18.2980  -55.5660   33.1800 N   0  0  0  0  0  0  0  0  0  0  0  0
   19.1470  -56.7320   32.9860 C   0  0  0  0  0  0  0  0  0  0  0  0
   18.7140  -57.5990   31.8170 C   0  0  0  0  0  0  0  0  0  0  0  0
   19.1180  -54.3760   33.2480 C   0  0  0  0  0  0  0  0  0  0  0  0
   20.0220  -54.2280   34.3970 C   0  0  0  0  0  0  0  0  0  0  0  0
   19.5400  -53.6550   35.6070 N   0  0  0  0  0  0  0  0  0  0  0  0
   18.7650  -54.2200   36.6590 C   0  0  0  0  0  0  0  0  0  0  0  0
   17.9910  -55.1810   36.5430 O   0  0  0  0  0  0  0  0  0  0  0  0
   19.0370  -53.4700   37.9090 C   0  0  1  0  0  0  0  0  0  0  0  0
   19.3650  -52.0740   37.3300 C   0  0  2  0  0  0  0  0  0  0  0  0
   18.1170  -51.2850   37.4620 C   0  0  1  0  0  0  0  0  0  0  0  0
   17.0420  -52.3840   37.5130 C   0  0  0  0  0  0  0  0  0  0  0  0
   17.7650  -53.1740   38.6190 C   0  0  2  0  0  0  0  0  0  0  0  0
   18.0510  -52.0430   39.5650 C   0  0  0  0  0  0  0  0  0  0  0  0
   18.0240  -50.8780   38.9180 C   0  0  0  0  0  0  0  0  0  0  0  0
   19.8540  -52.2940   35.9760 C   0  0  0  0  0  0  0  0  0  0  0  0
   20.4410  -51.4280   35.2800 O   0  0  0  0  0  0  0  0  0  0  0  0
   15.8650  -58.6180   34.1320 C   0  0  0  0  0  0  0  0  0  0  0  0
   14.4970  -58.6620   34.2480 C   0  0  0  0  0  0  0  0  0  0  0  0
   13.9110  -58.3200   35.4530 C   0  0  0  0  0  0  0  0  0  0  0  0
   14.6500  -57.9310   36.5550 C   0  0  0  0  0  0  0  0  0  0  0  0
   16.0230  -57.8890   36.4340 C   0  0  0  0  0  0  0  0  0  0  0  0
   16.6120  -58.2330   35.2220 C   0  0  0  0  0  0  0  0  0  0  0  0
   13.8430  -57.4580   38.2170 B   0  0  0  0  0  0  0  0  0  0  0  0
   16.1520  -56.4330   30.7080 H   0  0  0  0  0  0  0  0  0  0  0  0
   15.7590  -56.5650   32.4420 H   0  0  0  0  0  0  0  0  0  0  0  0
   16.8970  -54.4740   32.0980 H   0  0  0  0  0  0  0  0  0  0  0  0
   18.1910  -55.1930   31.0870 H   0  0  0  0  0  0  0  0  0  0  0  0
   19.0460  -57.3850   33.8690 H   0  0  0  0  0  0  0  0  0  0  0  0
   20.1840  -56.3740   32.8620 H   0  0  0  0  0  0  0  0  0  0  0  0
   19.2320  -58.5560   31.7990 H   0  0  0  0  0  0  0  0  0  0  0  0
   19.0080  -57.0520   30.8930 H   0  0  0  0  0  0  0  0  0  0  0  0
   18.4360  -53.4660   33.2610 H   0  0  0  0  0  0  0  0  0  0  0  0
   19.6470  -54.2430   32.2500 H   0  0  0  0  0  0  0  0  0  0  0  0
   20.3830  -55.2790   34.6510 H   0  0  0  0  0  0  0  0  0  0  0  0
   20.9530  -53.7120   34.0300 H   0  0  0  0  0  0  0  0  0  0  0  0
   19.8470  -53.8770   38.5060 H   0  0  0  0  0  0  0  0  0  0  0  0
   20.1400  -51.5850   37.9870 H   0  0  0  0  0  0  0  0  0  0  0  0
   17.9190  -50.5120   36.7580 H   0  0  0  0  0  0  0  0  0  0  0  0
   16.0760  -52.0070   37.8660 H   0  0  0  0  0  0  0  0  0  0  0  0
   17.0050  -52.9940   36.6150 H   0  0  0  0  0  0  0  0  0  0  0  0
   17.2070  -53.9800   39.0300 H   0  0  0  0  0  0  0  0  0  0  0  0
   18.2560  -52.1090   40.6280 H   0  0  0  0  0  0  0  0  0  0  0  0
   17.9520  -49.8890   39.3300 H   0  0  0  0  0  0  0  0  0  0  0  0
   13.8560  -58.9650   33.4040 H   0  0  0  0  0  0  0  0  0  0  0  0
   12.8250  -58.3560   35.5430 H   0  0  0  0  0  0  0  0  0  0  0  0
   16.5880  -57.5830   37.3010 H   0  0  0  0  0  0  0  0  0  0  0  0
   17.6910  -58.1740   35.2160 H   0  0  0  0  0  0  0  0  0  0  0  0
  1  3  2  0  0  0  0
  1 24  1  0  0  0  0
  2  1  2  0  0  0  0
  4  9  1  0  0  0  0
  4  1  1  0  0  0  0
  5  4  1  0  0  0  0
  5  6  1  0  0  0  0
  5 32  1  0  0  0  0
  6 33  1  0  0  0  0
  6  7  1  0  0  0  0
  7 10  1  0  0  0  0
  8  7  1  0  0  0  0
  8 35  1  0  0  0  0
  9  8  1  0  0  0  0
 10 39  1  0  0  0  0
 10 11  1  0  0  0  0
 11 41  1  0  0  0  0
 11 12  1  0  0  0  0
 12 22  1  0  0  0  0
 12 13  1  0  0  0  0
 13 15  1  0  0  0  0
 14 13  2  0  0  0  0
 15 43  1  1  0  0  0
 15 19  1  0  0  0  0
 16 17  1  0  0  0  0
 16 15  1  0  0  0  0
 16 44  1  1  0  0  0
 17 45  1  6  0  0  0
 17 18  1  0  0  0  0
 17 21  1  0  0  0  0
 18 46  1  0  0  0  0
 18 19  1  0  0  0  0
 19 48  1  1  0  0  0
 19 20  1  0  0  0  0
 20 49  1  0  0  0  0
 21 50  1  0  0  0  0
 21 20  1  0  0  0  0
 22 16  1  0  0  0  0
 23 22  2  0  0  0  0
 24 25  2  0  0  0  0
 24 29  1  0  0  0  0
 25 26  1  0  0  0  0
 26 52  1  0  0  0  0
 26 27  2  0  0  0  0
 27 30  1  0  0  0  0
 28 27  1  0  0  0  0
 28 53  1  0  0  0  0
 29 28  2  0  0  0  0
 31  5  1  0  0  0  0
 34  6  1  0  0  0  0
 36  8  1  0  0  0  0
 37  9  1  0  0  0  0
 38  9  1  0  0  0  0
 40 10  1  0  0  0  0
 42 11  1  0  0  0  0
 47 18  1  0  0  0  0
 51 25  1  0  0  0  0
 54 29  1  0  0  0  0
M  END
>  <Pose>
1

>  <Score>
-6.46

$$$$
