
 OpenBabel03232204043D

 37 40  0  0  0  0  0  0  0  0999 V2000
   13.7840  -59.9020   33.7370 B   0  0  0  0  0  0  0  0  0  0  0  0
   13.1600  -59.3930   35.4710 C   0  0  0  0  0  0  0  0  0  0  0  0
   12.0010  -59.9340   35.9860 C   0  0  0  0  0  0  0  0  0  0  0  0
   11.5360  -59.5820   37.2310 C   0  0  0  0  0  0  0  0  0  0  0  0
   10.4600  -59.9390   37.9730 N   0  0  0  0  0  0  0  0  0  0  0  0
   10.5230  -59.2710   39.1100 N   0  0  0  0  0  0  0  0  0  0  0  0
   11.5730  -58.5000   39.1550 N   0  0  0  0  0  0  0  0  0  0  0  0
   12.2390  -58.6710   37.9810 C   0  0  0  0  0  0  0  0  0  0  0  0
   13.4030  -58.1230   37.4700 C   0  0  0  0  0  0  0  0  0  0  0  0
   13.8670  -58.4830   36.2130 C   0  0  0  0  0  0  0  0  0  0  0  0
   14.1300  -57.1590   38.2870 C   0  0  0  0  0  0  0  0  0  0  0  0
   15.2920  -57.4350   38.6440 O   0  0  0  0  0  0  0  0  0  0  0  0
   13.5670  -55.9210   38.6890 N   0  0  0  0  0  0  0  0  0  0  0  0
   13.9410  -54.6840   38.0500 C   0  0  0  0  0  0  0  0  0  0  0  0
   15.1820  -54.1490   38.7120 C   0  0  0  0  0  0  0  0  0  0  0  0
   16.4440  -54.2450   38.2630 N   0  0  0  0  0  0  0  0  0  0  0  0
   17.3010  -53.6480   39.1190 C   0  0  0  0  0  0  0  0  0  0  0  0
   16.5500  -53.1720   40.1200 N   0  0  0  0  0  0  0  0  0  0  0  0
   15.2660  -53.4750   39.8760 N   0  0  0  0  0  0  0  0  0  0  0  0
   18.7410  -53.6810   38.7410 C   0  0  0  0  0  0  0  0  0  0  0  0
   18.7840  -53.0930   37.3230 C   0  0  0  0  0  0  0  0  0  0  0  0
   17.8640  -53.7980   36.3820 C   0  0  0  0  0  0  0  0  0  0  0  0
   17.0260  -54.8450   37.0840 C   0  0  0  0  0  0  0  0  0  0  0  0
   11.4450  -60.6510   35.4010 H   0  0  0  0  0  0  0  0  0  0  0  0
   11.9240  -57.8490   39.8870 H   0  0  0  0  0  0  0  0  0  0  0  0
   14.7850  -58.0260   35.8580 H   0  0  0  0  0  0  0  0  0  0  0  0
   12.8750  -55.9010   39.4560 H   0  0  0  0  0  0  0  0  0  0  0  0
   14.0490  -54.7800   36.9700 H   0  0  0  0  0  0  0  0  0  0  0  0
   13.1200  -53.9480   38.2700 H   0  0  0  0  0  0  0  0  0  0  0  0
   19.1270  -54.7070   38.7620 H   0  0  0  0  0  0  0  0  0  0  0  0
   19.3410  -52.9690   39.3620 H   0  0  0  0  0  0  0  0  0  0  0  0
   18.4380  -52.0470   37.4370 H   0  0  0  0  0  0  0  0  0  0  0  0
   19.8240  -53.0580   36.9460 H   0  0  0  0  0  0  0  0  0  0  0  0
   18.3990  -54.2470   35.5090 H   0  0  0  0  0  0  0  0  0  0  0  0
   17.1510  -53.0730   35.9400 H   0  0  0  0  0  0  0  0  0  0  0  0
   17.7150  -55.6480   37.4330 H   0  0  0  0  0  0  0  0  0  0  0  0
   16.2470  -55.2600   36.4350 H   0  0  0  0  0  0  0  0  0  0  0  0
  1  2  1  0  0  0  0
  2  3  2  0  0  0  0
  2 10  1  0  0  0  0
  3  4  1  0  0  0  0
  4  5  1  0  0  0  0
  4  8  2  0  0  0  0
  5  6  2  0  0  0  0
  6  7  1  0  0  0  0
  7 25  1  0  0  0  0
  8  7  1  0  0  0  0
  9  8  1  0  0  0  0
  9 11  1  0  0  0  0
 10  9  2  0  0  0  0
 11 12  2  0  0  0  0
 11 13  1  0  0  0  0
 13 27  1  0  0  0  0
 14 29  1  0  0  0  0
 14 13  1  0  0  0  0
 14 15  1  0  0  0  0
 15 19  2  0  0  0  0
 16 15  1  0  0  0  0
 16 17  1  0  0  0  0
 17 18  2  0  0  0  0
 19 18  1  0  0  0  0
 20 30  1  0  0  0  0
 20 17  1  0  0  0  0
 20 31  1  0  0  0  0
 21 32  1  0  0  0  0
 21 20  1  0  0  0  0
 22 23  1  0  0  0  0
 22 21  1  0  0  0  0
 23 36  1  0  0  0  0
 23 16  1  0  0  0  0
 24  3  1  0  0  0  0
 26 10  1  0  0  0  0
 28 14  1  0  0  0  0
 33 21  1  0  0  0  0
 34 22  1  0  0  0  0
 35 22  1  0  0  0  0
 37 23  1  0  0  0  0
M  END
>  <Pose>
1

>  <Score>
-6.97

$$$$
