
 OpenBabel03232204043D

 50 53  0  0  1  0  0  0  0  0999 V2000
   14.3850  -61.8180   27.7560 Cl  0  0  0  0  0  0  0  0  0  0  0  0
   15.4650  -61.6280   29.0990 C   0  0  0  0  0  0  0  0  0  0  0  0
   15.1890  -60.7230   30.1130 C   0  0  0  0  0  0  0  0  0  0  0  0
   16.0390  -60.5620   31.1880 C   0  0  0  0  0  0  0  0  0  0  0  0
   17.1720  -61.3240   31.2300 C   0  0  0  0  0  0  0  0  0  0  0  0
   17.4850  -62.2490   30.2290 C   0  0  0  0  0  0  0  0  0  0  0  0
   16.6150  -62.3850   29.1700 C   0  0  0  0  0  0  0  0  0  0  0  0
   17.9240  -61.0030   32.3930 N   0  0  0  0  0  0  0  0  0  0  0  0
   17.2260  -59.9920   33.1040 C   0  0  0  0  0  0  0  0  0  0  0  0
   17.6980  -59.4920   34.1760 O   0  0  0  0  0  0  0  0  0  0  0  0
   15.9920  -59.7170   32.3800 C   0  0  2  0  0  0  0  0  0  0  0  0
   14.8040  -59.9870   33.1930 N   0  0  0  0  0  0  0  0  0  0  0  0
   14.7990  -58.8380   34.0700 C   0  0  1  0  0  0  0  0  0  0  0  0
   15.1960  -57.6670   33.2300 C   0  0  2  0  0  0  0  0  0  0  0  0
   15.7600  -58.2990   31.9930 C   0  0  1  0  0  0  0  0  0  0  0  0
   16.9850  -57.5490   31.6190 C   0  0  0  0  0  0  0  0  0  0  0  0
   17.5940  -57.7870   30.5430 O   0  0  0  0  0  0  0  0  0  0  0  0
   17.2530  -56.6180   32.6540 N   0  0  0  0  0  0  0  0  0  0  0  0
   16.4030  -56.9520   33.7570 C   0  0  0  0  0  0  0  0  0  0  0  0
   16.5850  -56.7130   34.9560 O   0  0  0  0  0  0  0  0  0  0  0  0
   18.1790  -55.5510   32.6130 C   0  0  0  0  0  0  0  0  0  0  0  0
   18.9580  -55.2230   33.8250 C   0  0  0  0  0  0  0  0  0  0  0  0
   19.8440  -54.0380   33.7800 C   0  0  0  0  0  0  0  0  0  0  0  0
   20.5500  -53.7590   34.9400 O   0  0  0  0  0  0  0  0  0  0  0  0
   19.7400  -52.9100   35.7320 C   0  0  0  0  0  0  0  0  0  0  0  0
   13.4740  -58.6460   34.7620 C   0  0  1  0  0  0  0  0  0  0  0  0
   12.4730  -59.0090   33.8690 O   0  0  0  0  0  0  0  0  0  0  0  0
   13.3590  -59.4550   36.0280 C   0  0  0  0  0  0  0  0  0  0  0  0
   14.2760  -60.1130   30.0700 H   0  0  0  0  0  0  0  0  0  0  0  0
   18.3890  -62.8520   30.2720 H   0  0  0  0  0  0  0  0  0  0  0  0
   16.8850  -63.1120   28.4050 H   0  0  0  0  0  0  0  0  0  0  0  0
   18.8460  -61.4420   32.6870 H   0  0  0  0  0  0  0  0  0  0  0  0
   13.9950  -59.8900   32.5390 H   0  0  0  0  0  0  0  0  0  0  0  0
   15.5450  -58.9750   34.8760 H   0  0  0  0  0  0  0  0  0  0  0  0
   14.4010  -56.9410   33.0510 H   0  0  0  0  0  0  0  0  0  0  0  0
   15.0210  -58.2890   31.1530 H   0  0  0  0  0  0  0  0  0  0  0  0
   17.7280  -54.6030   32.1810 H   0  0  0  0  0  0  0  0  0  0  0  0
   18.9470  -55.8130   31.8130 H   0  0  0  0  0  0  0  0  0  0  0  0
   19.5060  -56.1030   34.2540 H   0  0  0  0  0  0  0  0  0  0  0  0
   18.1920  -55.0070   34.6370 H   0  0  0  0  0  0  0  0  0  0  0  0
   20.6280  -54.1120   32.9660 H   0  0  0  0  0  0  0  0  0  0  0  0
   19.2540  -53.1360   33.4810 H   0  0  0  0  0  0  0  0  0  0  0  0
   19.5750  -52.0110   35.1010 H   0  0  0  0  0  0  0  0  0  0  0  0
   20.2750  -52.5550   36.6310 H   0  0  0  0  0  0  0  0  0  0  0  0
   18.7780  -53.3720   35.9690 H   0  0  0  0  0  0  0  0  0  0  0  0
   13.3580  -57.5910   35.0050 H   0  0  0  0  0  0  0  0  0  0  0  0
   12.7470  -58.8990   32.9230 H   0  0  0  0  0  0  0  0  0  0  0  0
   14.0310  -59.0690   36.8090 H   0  0  0  0  0  0  0  0  0  0  0  0
   13.4790  -60.5430   35.8500 H   0  0  0  0  0  0  0  0  0  0  0  0
   12.3220  -59.3180   36.4060 H   0  0  0  0  0  0  0  0  0  0  0  0
  1  2  1  0  0  0  0
  2  7  2  0  0  0  0
  2  3  1  0  0  0  0
  3  4  2  0  0  0  0
  4  5  1  0  0  0  0
  5  8  1  0  0  0  0
  6 30  1  0  0  0  0
  6  5  2  0  0  0  0
  7  6  1  0  0  0  0
  8 32  1  0  0  0  0
  8  9  1  0  0  0  0
  9 10  2  0  0  0  0
 11  4  1  6  0  0  0
 11  9  1  0  0  0  0
 11 12  1  0  0  0  0
 12 13  1  0  0  0  0
 13 26  1  0  0  0  0
 13 34  1  1  0  0  0
 14 35  1  6  0  0  0
 14 19  1  0  0  0  0
 14 13  1  0  0  0  0
 15 36  1  6  0  0  0
 15 11  1  0  0  0  0
 15 14  1  0  0  0  0
 16 15  1  0  0  0  0
 16 18  1  0  0  0  0
 17 16  2  0  0  0  0
 18 19  1  0  0  0  0
 19 20  2  0  0  0  0
 21 18  1  0  0  0  0
 21 22  1  0  0  0  0
 22 39  1  0  0  0  0
 22 40  1  0  0  0  0
 23 22  1  0  0  0  0
 23 24  1  0  0  0  0
 24 25  1  0  0  0  0
 25 45  1  0  0  0  0
 25 44  1  0  0  0  0
 26 46  1  1  0  0  0
 26 28  1  0  0  0  0
 27 26  1  0  0  0  0
 28 50  1  0  0  0  0
 28 48  1  0  0  0  0
 29  3  1  0  0  0  0
 31  7  1  0  0  0  0
 33 12  1  0  0  0  0
 37 21  1  0  0  0  0
 38 21  1  0  0  0  0
 41 23  1  0  0  0  0
 42 23  1  0  0  0  0
 43 25  1  0  0  0  0
 47 27  1  0  0  0  0
 49 28  1  0  0  0  0
M  END
>  <Pose>
1

>  <Score>
-5.30

$$$$
