
 OpenBabel03232204043D

 30 33  0  0  1  0  0  0  0  0999 V2000
   14.3830  -55.3460   39.9650 F   0  0  0  0  0  0  0  0  0  0  0  0
   14.7920  -55.9070   38.7770 C   0  0  0  0  0  0  0  0  0  0  0  0
   14.0250  -56.9400   38.2250 C   0  0  0  0  0  0  0  0  0  0  0  0
   14.4120  -57.5090   37.0500 C   0  0  0  0  0  0  0  0  0  0  0  0
   15.5700  -57.0630   36.3970 C   0  0  0  0  0  0  0  0  0  0  0  0
   16.3000  -56.0520   36.9590 C   0  0  0  0  0  0  0  0  0  0  0  0
   15.9280  -55.4650   38.1440 C   0  0  0  0  0  0  0  0  0  0  0  0
   16.8760  -54.1580   38.8650 Cl  0  0  0  0  0  0  0  0  0  0  0  0
   13.4330  -58.5680   36.6900 C   0  0  2  0  0  0  0  0  0  0  0  0
   14.1100  -59.8210   36.5810 N   0  0  0  0  0  0  0  0  0  0  0  0
   14.7120  -60.2220   35.3700 C   0  0  0  0  0  0  0  0  0  0  0  0
   15.6280  -61.2230   35.3160 N   0  0  0  0  0  0  0  0  0  0  0  0
   16.2270  -61.6400   34.1970 C   0  0  0  0  0  0  0  0  0  0  0  0
   15.9090  -61.0280   32.9900 C   0  0  0  0  0  0  0  0  0  0  0  0
   14.9960  -60.0110   32.9560 C   0  0  0  0  0  0  0  0  0  0  0  0
   14.4170  -59.6330   34.1480 C   0  0  0  0  0  0  0  0  0  0  0  0
   13.4270  -58.5540   34.2200 C   0  0  0  0  0  0  0  0  0  0  0  0
   13.1250  -57.9820   33.1170 O   0  0  0  0  0  0  0  0  0  0  0  0
   12.8310  -58.1610   35.4320 N   0  0  0  0  0  0  0  0  0  0  0  0
   12.4510  -58.5460   37.7800 C   0  0  0  0  0  0  0  0  0  0  0  0
   11.4120  -59.2930   37.9040 O   0  0  0  0  0  0  0  0  0  0  0  0
   12.8200  -57.5540   38.7030 N   0  0  0  0  0  0  0  0  0  0  0  0
   15.8580  -57.5370   35.4540 H   0  0  0  0  0  0  0  0  0  0  0  0
   17.1960  -55.6990   36.4650 H   0  0  0  0  0  0  0  0  0  0  0  0
   14.1780  -60.4770   37.3980 H   0  0  0  0  0  0  0  0  0  0  0  0
   16.9550  -62.4380   34.1750 H   0  0  0  0  0  0  0  0  0  0  0  0
   16.3750  -61.3430   32.0740 H   0  0  0  0  0  0  0  0  0  0  0  0
   14.6960  -59.4860   32.0560 H   0  0  0  0  0  0  0  0  0  0  0  0
   11.9640  -57.5790   35.3760 H   0  0  0  0  0  0  0  0  0  0  0  0
   12.3450  -57.2660   39.5990 H   0  0  0  0  0  0  0  0  0  0  0  0
  2  1  1  0  0  0  0
  3 22  1  0  0  0  0
  3  2  1  0  0  0  0
  4  3  2  0  0  0  0
  5  6  2  0  0  0  0
  5  4  1  0  0  0  0
  6  7  1  0  0  0  0
  7  2  2  0  0  0  0
  7  8  1  0  0  0  0
  9  4  1  1  0  0  0
  9 20  1  0  0  0  0
 10  9  1  0  0  0  0
 10 25  1  0  0  0  0
 11 10  1  0  0  0  0
 12 11  1  0  0  0  0
 13 12  2  0  0  0  0
 14 13  1  0  0  0  0
 15 14  2  0  0  0  0
 15 16  1  0  0  0  0
 16 17  1  0  0  0  0
 16 11  2  0  0  0  0
 17 19  1  0  0  0  0
 18 17  2  0  0  0  0
 19  9  1  0  0  0  0
 20 21  2  0  0  0  0
 20 22  1  0  0  0  0
 22 30  1  0  0  0  0
 23  5  1  0  0  0  0
 24  6  1  0  0  0  0
 26 13  1  0  0  0  0
 27 14  1  0  0  0  0
 28 15  1  0  0  0  0
 29 19  1  0  0  0  0
M  END
>  <Pose>
1

>  <Score>
-6.44

$$$$
