
 OpenBabel03232204043D

 43 46  0  0  1  0  0  0  0  0999 V2000
   15.9910  -58.4210   34.9150 Cl  0  0  0  0  0  0  0  0  0  0  0  0
   14.8580  -58.2890   36.2340 C   0  0  0  0  0  0  0  0  0  0  0  0
   13.8940  -59.1810   36.4170 N   0  0  0  0  0  4  0  0  0  0  0  0
   12.9860  -59.1560   37.3990 C   0  0  0  0  0  0  0  0  0  0  0  0
   11.9520  -59.9280   37.7700 N   0  0  0  0  0  0  0  0  0  0  0  0
   11.3790  -59.4030   38.8660 C   0  0  0  0  0  0  0  0  0  0  0  0
   12.0770  -58.2930   39.1700 N   0  0  0  0  0  0  0  0  0  0  0  0
   13.0760  -58.0960   38.2970 C   0  0  1  0  0  0  0  0  0  0  0  0
   14.0720  -57.1660   38.1170 C   0  0  0  0  0  0  0  0  0  0  0  0
   14.9460  -57.2590   37.1060 N   0  0  0  0  0  0  0  0  0  0  0  0
   14.1310  -56.0820   39.0740 N   0  0  0  0  0  0  0  0  0  0  0  0
   15.3880  -55.6530   39.5590 C   0  0  0  0  0  0  0  0  0  0  0  0
   15.6960  -54.2420   39.3900 C   0  0  0  0  0  0  0  0  0  0  0  0
   14.5860  -53.4720   39.3860 O   0  0  0  0  0  0  0  0  0  0  0  0
   16.8780  -53.5720   39.2350 N   0  0  0  0  0  0  0  0  0  0  0  0
   17.0840  -52.1890   38.9750 C   0  0  0  0  0  0  0  0  0  0  0  0
   17.7430  -51.9580   37.6160 C   0  0  0  0  0  0  0  0  0  0  0  0
   18.5700  -53.1090   37.3930 N   0  0  0  0  0  0  0  0  0  0  0  0
   19.2190  -53.6970   38.5290 C   0  0  0  0  0  0  0  0  0  0  0  0
   18.1290  -54.4170   39.3300 C   0  0  0  0  0  0  0  0  0  0  0  0
   18.7660  -53.6670   36.1170 C   0  0  0  0  0  0  0  0  0  0  0  0
   19.7820  -53.2620   35.3020 N   0  0  0  0  0  0  0  0  0  0  0  0
   20.0200  -53.7430   34.0950 C   0  0  0  0  0  0  0  0  0  0  0  0
   19.2370  -54.7200   33.5460 C   0  0  0  0  0  0  0  0  0  0  0  0
   18.1830  -55.1790   34.3230 C   0  0  0  0  0  0  0  0  0  0  0  0
   17.9540  -54.6590   35.5870 C   0  0  0  0  0  0  0  0  0  0  0  0
   10.5200  -59.7720   39.4300 H   0  0  0  0  0  0  0  0  0  0  0  0
   11.9060  -57.6290   39.9720 H   0  0  0  0  0  0  0  0  0  0  0  0
   13.2630  -55.6450   39.3950 H   0  0  0  0  0  0  0  0  0  0  0  0
   15.5570  -55.9880   40.6330 H   0  0  0  0  0  0  0  0  0  0  0  0
   16.1710  -56.2130   38.9310 H   0  0  0  0  0  0  0  0  0  0  0  0
   16.1840  -51.6100   39.0330 H   0  0  0  0  0  0  0  0  0  0  0  0
   17.8410  -51.8100   39.7560 H   0  0  0  0  0  0  0  0  0  0  0  0
   18.4030  -51.0600   37.6800 H   0  0  0  0  0  0  0  0  0  0  0  0
   16.9790  -51.7740   36.8770 H   0  0  0  0  0  0  0  0  0  0  0  0
   19.6540  -52.9380   39.2120 H   0  0  0  0  0  0  0  0  0  0  0  0
   19.9540  -54.4570   38.2190 H   0  0  0  0  0  0  0  0  0  0  0  0
   18.4220  -54.4980   40.3680 H   0  0  0  0  0  0  0  0  0  0  0  0
   17.8490  -55.3740   38.8800 H   0  0  0  0  0  0  0  0  0  0  0  0
   20.8630  -53.3560   33.5060 H   0  0  0  0  0  0  0  0  0  0  0  0
   19.4360  -55.1030   32.5710 H   0  0  0  0  0  0  0  0  0  0  0  0
   17.5410  -55.9650   33.9020 H   0  0  0  0  0  0  0  0  0  0  0  0
   17.1370  -55.0420   36.1410 H   0  0  0  0  0  0  0  0  0  0  0  0
  1  2  1  0  0  0  0
  2  3  2  0  0  0  0
  2 10  1  0  0  0  0
  3  4  2  0  0  0  0
  4  5  1  0  0  0  0
  5  6  2  0  0  0  0
  6  7  1  0  0  0  0
  6 27  1  0  0  0  0
  7 28  1  0  0  0  0
  8  4  1  1  0  0  0
  8  7  1  0  0  0  0
  9  8  1  0  0  0  0
  9 11  1  0  0  0  0
 10  9  2  0  0  0  0
 11 29  1  0  0  0  0
 11 12  1  0  0  0  0
 12 30  1  0  0  0  0
 13 12  1  0  0  0  0
 14 13  2  0  0  0  0
 15 20  1  0  0  0  0
 15 13  1  0  0  0  0
 16 32  1  0  0  0  0
 16 15  1  0  0  0  0
 16 33  1  0  0  0  0
 17 34  1  0  0  0  0
 17 16  1  0  0  0  0
 18 17  1  0  0  0  0
 18 19  1  0  0  0  0
 19 36  1  0  0  0  0
 19 20  1  0  0  0  0
 20 38  1  0  0  0  0
 21 18  1  0  0  0  0
 22 21  2  0  0  0  0
 23 22  1  0  0  0  0
 24 23  2  0  0  0  0
 24 25  1  0  0  0  0
 25 26  2  0  0  0  0
 26 21  1  0  0  0  0
 26 43  1  0  0  0  0
 31 12  1  0  0  0  0
 35 17  1  0  0  0  0
 37 19  1  0  0  0  0
 39 20  1  0  0  0  0
 40 23  1  0  0  0  0
 41 24  1  0  0  0  0
 42 25  1  0  0  0  0
M  END
>  <Pose>
1

>  <Score>
-7.44

$$$$
