
 OpenBabel03232204043D

 39 42  0  0  0  0  0  0  0  0999 V2000
    7.3900  -55.2740   41.6190 B   0  0  0  0  0  0  0  0  0  0  0  0
    7.9340  -56.5600   42.8980 C   0  0  0  0  0  0  0  0  0  0  0  0
    8.7310  -57.6200   42.4660 C   0  0  0  0  0  0  0  0  0  0  0  0
    9.0890  -58.5200   43.4530 C   0  0  0  0  0  0  0  0  0  0  0  0
    8.6860  -58.3810   44.7840 C   0  0  0  0  0  0  0  0  0  0  0  0
    7.9020  -57.3150   45.1470 C   0  0  0  0  0  0  0  0  0  0  0  0
    7.5200  -56.3950   44.1970 C   0  0  0  0  0  0  0  0  0  0  0  0
    9.1150  -57.7240   41.1130 N   0  0  0  0  0  0  0  0  0  0  0  0
    9.6180  -58.8310   40.4290 C   0  0  0  0  0  0  0  0  0  0  0  0
    8.9550  -59.4140   39.5510 O   0  0  0  0  0  0  0  0  0  0  0  0
   10.9730  -59.3730   40.7140 C   0  0  0  0  0  0  0  0  0  0  0  0
   11.6330  -59.8000   39.4700 N   0  0  0  0  0  0  0  0  0  0  0  0
   11.8620  -61.0410   39.0720 N   0  0  0  0  0  0  0  0  0  0  0  0
   12.4810  -61.0320   37.8960 N   0  0  0  0  0  0  0  0  0  0  0  0
   12.6570  -59.7470   37.5250 C   0  0  0  0  0  0  0  0  0  0  0  0
   12.1220  -59.0210   38.5200 N   0  0  0  0  0  0  0  0  0  0  0  0
   13.2910  -59.2650   36.3060 C   0  0  0  0  0  0  0  0  0  0  0  0
   14.0640  -58.1300   36.3850 C   0  0  0  0  0  0  0  0  0  0  0  0
   14.6670  -57.6730   35.2250 C   0  0  0  0  0  0  0  0  0  0  0  0
   14.5140  -58.3120   34.0200 C   0  0  0  0  0  0  0  0  0  0  0  0
   13.7380  -59.4510   33.9400 C   0  0  0  0  0  0  0  0  0  0  0  0
   13.1370  -59.9060   35.1000 C   0  0  0  0  0  0  0  0  0  0  0  0
   14.2700  -57.4110   37.6000 N   0  0  0  0  0  0  0  0  0  0  0  0
   15.2270  -57.6920   38.4760 N   0  0  0  0  0  0  0  0  0  0  0  0
   15.1430  -56.8470   39.4790 N   0  0  0  0  0  0  0  0  0  0  0  0
   14.1240  -56.0240   39.2400 N   0  0  0  0  0  0  0  0  0  0  0  0
   13.5770  -56.3800   38.0590 C   0  0  0  0  0  0  0  0  0  0  0  0
    9.6950  -59.3670   43.2410 H   0  0  0  0  0  0  0  0  0  0  0  0
    8.9790  -59.0940   45.5300 H   0  0  0  0  0  0  0  0  0  0  0  0
    7.5660  -57.1640   46.1590 H   0  0  0  0  0  0  0  0  0  0  0  0
    6.9040  -55.5690   44.5180 H   0  0  0  0  0  0  0  0  0  0  0  0
    9.0080  -56.8370   40.5350 H   0  0  0  0  0  0  0  0  0  0  0  0
   10.9650  -60.1970   41.4380 H   0  0  0  0  0  0  0  0  0  0  0  0
   11.6500  -58.5820   41.1310 H   0  0  0  0  0  0  0  0  0  0  0  0
   15.2790  -56.7790   35.2740 H   0  0  0  0  0  0  0  0  0  0  0  0
   14.9840  -57.9620   33.1010 H   0  0  0  0  0  0  0  0  0  0  0  0
   13.6060  -59.9710   32.9930 H   0  0  0  0  0  0  0  0  0  0  0  0
   12.5340  -60.8010   35.0120 H   0  0  0  0  0  0  0  0  0  0  0  0
   12.7340  -55.9260   37.5590 H   0  0  0  0  0  0  0  0  0  0  0  0
  1  2  1  0  0  0  0
  2  7  1  0  0  0  0
  3  2  2  0  0  0  0
  3  4  1  0  0  0  0
  4  5  2  0  0  0  0
  5  6  1  0  0  0  0
  5 29  1  0  0  0  0
  6 30  1  0  0  0  0
  7 31  1  0  0  0  0
  7  6  2  0  0  0  0
  8  3  1  0  0  0  0
  9 11  1  0  0  0  0
  9  8  1  0  0  0  0
 10  9  2  0  0  0  0
 11 34  1  0  0  0  0
 11 33  1  0  0  0  0
 12 11  1  0  0  0  0
 13 12  1  0  0  0  0
 14 13  1  0  0  0  0
 15 14  2  0  0  0  0
 15 16  1  0  0  0  0
 16 12  1  0  0  0  0
 17 18  1  0  0  0  0
 17 15  1  0  0  0  0
 18 23  1  0  0  0  0
 19 35  1  0  0  0  0
 19 18  2  0  0  0  0
 20 19  1  0  0  0  0
 21 20  2  0  0  0  0
 21 22  1  0  0  0  0
 22 17  2  0  0  0  0
 23 27  1  0  0  0  0
 23 24  1  0  0  0  0
 24 25  2  0  0  0  0
 26 25  1  0  0  0  0
 27 26  2  0  0  0  0
 28  4  1  0  0  0  0
 32  8  1  0  0  0  0
 36 20  1  0  0  0  0
 37 21  1  0  0  0  0
 38 22  1  0  0  0  0
 39 27  1  0  0  0  0
M  END
>  <Pose>
1

>  <Score>
-6.77

$$$$
