
 OpenBabel03232204043D

 47 50  0  0  1  0  0  0  0  0999 V2000
   15.9230  -58.2910   37.8380 Cl  0  0  0  0  0  0  0  0  0  0  0  0
   15.3780  -58.0680   36.1970 C   0  0  0  0  0  0  0  0  0  0  0  0
   16.2560  -58.1170   35.1430 C   0  0  0  0  0  0  0  0  0  0  0  0
   15.8610  -57.9500   33.8270 C   0  0  0  0  0  0  0  0  0  0  0  0
   14.5400  -57.7290   33.5790 C   0  0  0  0  0  0  0  0  0  0  0  0
   13.6090  -57.6700   34.6110 C   0  0  0  0  0  0  0  0  0  0  0  0
   14.0440  -57.8410   35.9090 C   0  0  0  0  0  0  0  0  0  0  0  0
   16.8010  -57.9910   32.7600 N   0  0  0  0  0  0  0  0  0  0  0  0
   17.5610  -59.1880   32.6050 C   0  0  0  0  0  0  0  0  0  0  0  0
   17.4290  -60.1960   33.3420 O   0  0  0  0  0  0  0  0  0  0  0  0
   18.5210  -59.2460   31.5530 N   0  0  0  0  0  0  0  0  0  0  0  0
   18.6930  -58.1090   30.6920 C   0  0  0  0  0  0  0  0  0  0  0  0
   19.3850  -58.3100   29.6390 O   0  0  0  0  0  0  0  0  0  0  0  0
   18.1120  -56.7880   30.9950 C   0  0  1  0  0  0  0  0  0  0  0  0
   16.9520  -56.8560   31.9170 C   0  0  0  0  0  0  0  0  0  0  0  0
   16.1370  -55.9010   31.9210 O   0  0  0  0  0  0  0  0  0  0  0  0
   19.1650  -55.8640   31.5610 C   0  0  0  0  0  0  0  0  0  0  0  0
   20.0710  -56.2290   32.4490 C   0  0  0  0  0  0  0  0  0  0  0  0
   20.8730  -55.0130   32.7090 C   0  0  1  0  0  0  0  0  0  0  0  0
   20.7500  -54.2990   31.4510 N   0  0  0  0  0  0  0  0  0  0  0  0
   19.3660  -54.4930   31.2180 N   0  0  0  0  0  0  0  0  0  0  0  0
   20.2840  -54.2200   33.8240 C   0  0  0  0  0  0  0  0  0  0  0  0
   20.6630  -52.9550   34.1730 C   0  0  0  0  0  0  0  0  0  0  0  0
   20.0570  -52.2480   35.1920 C   0  0  0  0  0  0  0  0  0  0  0  0
   19.0210  -52.8120   35.9130 C   0  0  0  0  0  0  0  0  0  0  0  0
   18.6370  -54.1130   35.5510 C   0  0  0  0  0  0  0  0  0  0  0  0
   19.2520  -54.8030   34.5330 C   0  0  0  0  0  0  0  0  0  0  0  0
   18.3920  -52.1360   36.9310 O   0  0  0  0  0  0  0  0  0  0  0  0
   17.9390  -52.7950   38.0960 C   0  0  0  0  0  0  0  0  0  0  0  0
   20.4870  -50.9470   35.5120 O   0  0  0  0  0  0  0  0  0  0  0  0
   17.3240  -58.2970   35.3150 H   0  0  0  0  0  0  0  0  0  0  0  0
   14.1930  -57.5920   32.5540 H   0  0  0  0  0  0  0  0  0  0  0  0
   12.5900  -57.4900   34.3430 H   0  0  0  0  0  0  0  0  0  0  0  0
   13.3140  -57.7910   36.6920 H   0  0  0  0  0  0  0  0  0  0  0  0
   19.1150  -60.0980   31.3810 H   0  0  0  0  0  0  0  0  0  0  0  0
   17.7140  -56.3950   30.0310 H   0  0  0  0  0  0  0  0  0  0  0  0
   20.1750  -57.2130   32.8720 H   0  0  0  0  0  0  0  0  0  0  0  0
   21.9380  -55.2290   32.9280 H   0  0  0  0  0  0  0  0  0  0  0  0
   21.0350  -53.3160   31.4750 H   0  0  0  0  0  0  0  0  0  0  0  0
   18.6300  -53.8680   30.8900 H   0  0  0  0  0  0  0  0  0  0  0  0
   21.4540  -52.4850   33.6440 H   0  0  0  0  0  0  0  0  0  0  0  0
   17.8240  -54.5230   36.1380 H   0  0  0  0  0  0  0  0  0  0  0  0
   18.8860  -55.8130   34.3190 H   0  0  0  0  0  0  0  0  0  0  0  0
   17.3190  -53.6920   37.8240 H   0  0  0  0  0  0  0  0  0  0  0  0
   17.2300  -52.1410   38.6780 H   0  0  0  0  0  0  0  0  0  0  0  0
   18.7530  -53.1430   38.7500 H   0  0  0  0  0  0  0  0  0  0  0  0
   21.3680  -50.6270   35.1240 H   0  0  0  0  0  0  0  0  0  0  0  0
  2  1  1  0  0  0  0
  3 31  1  0  0  0  0
  3  2  2  0  0  0  0
  4  3  1  0  0  0  0
  5  4  2  0  0  0  0
  5  6  1  0  0  0  0
  6  7  2  0  0  0  0
  7  2  1  0  0  0  0
  7 34  1  0  0  0  0
  8  4  1  0  0  0  0
  9  8  1  0  0  0  0
  9 10  2  0  0  0  0
 11  9  1  0  0  0  0
 12 14  1  0  0  0  0
 12 11  1  0  0  0  0
 13 12  2  0  0  0  0
 14 36  1  6  0  0  0
 14 17  1  0  0  0  0
 14 15  1  0  0  0  0
 15 16  2  0  0  0  0
 15  8  1  0  0  0  0
 17 18  2  0  0  0  0
 18 19  1  0  0  0  0
 18 37  1  0  0  0  0
 19 38  1  1  0  0  0
 19 22  1  0  0  0  0
 20 39  1  0  0  0  0
 20 19  1  0  0  0  0
 21 20  1  0  0  0  0
 21 17  1  0  0  0  0
 22 23  2  0  0  0  0
 22 27  1  0  0  0  0
 23 24  1  0  0  0  0
 24 30  1  0  0  0  0
 24 25  2  0  0  0  0
 25 28  1  0  0  0  0
 26 25  1  0  0  0  0
 26 42  1  0  0  0  0
 27 26  2  0  0  0  0
 28 29  1  0  0  0  0
 29 45  1  0  0  0  0
 29 46  1  0  0  0  0
 32  5  1  0  0  0  0
 33  6  1  0  0  0  0
 35 11  1  0  0  0  0
 40 21  1  0  0  0  0
 41 23  1  0  0  0  0
 43 27  1  0  0  0  0
 44 29  1  0  0  0  0
 47 30  1  0  0  0  0
M  END
>  <Pose>
1

>  <Score>
-7.92

$$$$
