
 OpenBabel03232204043D

 47 51  0  0  1  0  0  0  0  0999 V2000
   20.1260  -51.4220   36.3480 I   0  0  0  0  0  0  0  0  0  0  0  0
   18.6520  -52.7760   37.0040 C   0  0  0  0  0  0  0  0  0  0  0  0
   18.3510  -52.9280   38.3420 C   0  0  0  0  0  0  0  0  0  0  0  0
   17.3760  -53.8240   38.7800 C   0  0  0  0  0  0  0  0  0  0  0  0
   16.7030  -54.5680   37.8640 C   0  0  0  0  0  0  0  0  0  0  0  0
   17.0130  -54.4080   36.5250 C   0  0  0  0  0  0  0  0  0  0  0  0
   17.9730  -53.5280   36.0730 C   0  0  0  0  0  0  0  0  0  0  0  0
   15.6780  -55.5200   38.2120 N   0  0  0  0  0  0  0  0  0  0  0  0
   14.6790  -55.3310   39.0540 N   0  0  0  0  0  0  0  0  0  0  0  0
   13.8970  -56.4250   39.1560 C   0  0  0  0  0  0  0  0  0  0  0  0
   12.8230  -56.6120   39.8860 C   0  0  0  0  0  0  0  0  0  0  0  0
   14.4440  -57.3750   38.3160 C   0  0  0  0  0  0  0  0  0  0  0  0
   13.9780  -58.6170   38.1140 C   0  0  0  0  0  0  0  0  0  0  0  0
   14.7070  -59.4240   37.1990 N   0  0  0  0  0  4  0  0  0  0  0  0
   14.2240  -59.5400   35.8330 C   0  0  1  0  0  0  0  0  0  0  0  0
   15.3950  -59.5050   34.8630 C   0  0  0  0  0  0  0  0  0  0  0  0
   14.9040  -59.6810   33.5250 N   0  0  2  0  0  0  0  0  0  0  0  0
   13.9940  -58.5750   33.2460 C   0  0  0  0  0  0  0  0  0  0  0  0
   12.8510  -58.6010   34.1140 N   0  0  1  0  0  0  0  0  0  0  0  0
   12.1700  -59.8730   34.0230 C   0  0  0  0  0  0  0  0  0  0  0  0
   13.0440  -60.9770   34.3150 N   0  0  1  0  0  0  0  0  0  0  0  0
   14.2190  -60.9510   33.4490 C   0  0  0  0  0  0  0  0  0  0  0  0
   13.5080  -60.8640   35.6790 C   0  0  0  0  0  0  0  0  0  0  0  0
   13.3010  -58.4160   35.4700 C   0  0  0  0  0  0  0  0  0  0  0  0
   15.5480  -56.7750   37.7490 C   0  0  0  0  0  0  0  0  0  0  0  0
   16.3230  -57.3150   36.9200 O   0  0  0  0  0  0  0  0  0  0  0  0
   18.9140  -52.3130   39.0370 H   0  0  0  0  0  0  0  0  0  0  0  0
   17.1510  -53.9310   39.8300 H   0  0  0  0  0  0  0  0  0  0  0  0
   16.4680  -55.0090   35.8010 H   0  0  0  0  0  0  0  0  0  0  0  0
   18.1970  -53.4230   35.0040 H   0  0  0  0  0  0  0  0  0  0  0  0
   14.4960  -54.4490   39.5880 H   0  0  0  0  0  0  0  0  0  0  0  0
   12.3030  -57.5520   39.8590 H   0  0  0  0  0  0  0  0  0  0  0  0
   12.4380  -55.8350   40.5250 H   0  0  0  0  0  0  0  0  0  0  0  0
   13.0920  -58.9720   38.6250 H   0  0  0  0  0  0  0  0  0  0  0  0
   15.5730  -59.9440   37.4430 H   0  0  0  0  0  0  0  0  0  0  0  0
   15.8860  -58.5160   35.0100 H   0  0  0  0  0  0  0  0  0  0  0  0
   16.1250  -60.2630   35.1830 H   0  0  0  0  0  0  0  0  0  0  0  0
   13.7330  -58.5120   32.1710 H   0  0  0  0  0  0  0  0  0  0  0  0
   14.5780  -57.6400   33.4840 H   0  0  0  0  0  0  0  0  0  0  0  0
   11.7810  -60.0210   32.9820 H   0  0  0  0  0  0  0  0  0  0  0  0
   11.3300  -59.8930   34.7430 H   0  0  0  0  0  0  0  0  0  0  0  0
   14.9190  -61.7260   33.8460 H   0  0  0  0  0  0  0  0  0  0  0  0
   13.9720  -61.2330   32.4040 H   0  0  0  0  0  0  0  0  0  0  0  0
   12.6100  -60.8620   36.3370 H   0  0  0  0  0  0  0  0  0  0  0  0
   14.2170  -61.6680   35.9500 H   0  0  0  0  0  0  0  0  0  0  0  0
   13.8430  -57.4590   35.6060 H   0  0  0  0  0  0  0  0  0  0  0  0
   12.4080  -58.3820   36.1410 H   0  0  0  0  0  0  0  0  0  0  0  0
  1  2  1  0  0  0  0
  2  3  1  0  0  0  0
  3  4  2  0  0  0  0
  3 27  1  0  0  0  0
  4 28  1  0  0  0  0
  5  8  1  0  0  0  0
  5  4  1  0  0  0  0
  6  5  2  0  0  0  0
  7  6  1  0  0  0  0
  7  2  2  0  0  0  0
  8  9  1  0  0  0  0
  9 10  1  0  0  0  0
  9 31  1  0  0  0  0
 10 11  1  0  0  0  0
 11 33  1  0  0  0  0
 12 10  2  0  0  0  0
 13 12  1  0  0  0  0
 13 34  1  0  0  0  0
 14 35  1  0  0  0  0
 14 13  2  0  0  0  0
 15 14  1  1  0  0  0
 16 36  1  0  0  0  0
 16 37  1  0  0  0  0
 16 15  1  0  0  0  0
 17 18  1  1  0  0  0
 17 16  1  0  0  0  0
 18 39  1  0  0  0  0
 19 18  1  6  0  0  0
 19 24  1  0  0  0  0
 20 19  1  0  0  0  0
 20 21  1  0  0  0  0
 20 41  1  0  0  0  0
 21 22  1  6  0  0  0
 21 23  1  0  0  0  0
 22 17  1  0  0  0  0
 22 42  1  0  0  0  0
 23 15  1  0  0  0  0
 23 45  1  0  0  0  0
 23 44  1  0  0  0  0
 24 46  1  0  0  0  0
 24 15  1  0  0  0  0
 24 47  1  0  0  0  0
 25  8  1  0  0  0  0
 25 12  1  0  0  0  0
 26 25  2  0  0  0  0
 29  6  1  0  0  0  0
 30  7  1  0  0  0  0
 32 11  1  0  0  0  0
 38 18  1  0  0  0  0
 40 20  1  0  0  0  0
 43 22  1  0  0  0  0
M  END
>  <Pose>
1

>  <Score>
-5.54

$$$$
