
 OpenBabel03232204043D

 39 42  0  0  0  0  0  0  0  0999 V2000
   13.9560  -59.4070   35.9140 Cl  0  0  0  0  0  0  0  0  0  0  0  0
   14.4440  -58.0100   36.8840 C   0  0  0  0  0  0  0  0  0  0  0  0
   13.6960  -57.6020   37.9610 C   0  0  0  0  0  0  0  0  0  0  0  0
   14.0790  -56.5150   38.7120 C   0  0  0  0  0  0  0  0  0  0  0  0
   15.2270  -55.7590   38.4480 C   0  0  0  0  0  0  0  0  0  0  0  0
   15.9570  -56.1910   37.3640 C   0  0  0  0  0  0  0  0  0  0  0  0
   15.5780  -57.3000   36.5860 C   0  0  0  0  0  0  0  0  0  0  0  0
   15.5720  -54.6670   39.3120 C   0  0  0  0  0  0  0  0  0  0  0  0
   14.8130  -54.5780   40.3750 O   0  0  0  0  0  0  0  0  0  0  0  0
   16.5600  -53.6970   39.2200 N   0  0  0  0  0  0  0  0  0  0  0  0
   16.4980  -52.3220   38.8550 C   0  0  0  0  0  0  0  0  0  0  0  0
   16.9850  -52.2760   37.3920 C   0  0  0  0  0  0  0  0  0  0  0  0
   18.1280  -53.2020   37.2890 N   0  0  0  0  0  0  0  0  0  0  0  0
   18.8790  -53.4740   38.4810 C   0  0  0  0  0  0  0  0  0  0  0  0
   17.9670  -54.1430   39.4920 C   0  0  0  0  0  0  0  0  0  0  0  0
   18.4470  -53.7830   36.0270 C   0  0  0  0  0  0  0  0  0  0  0  0
   17.5190  -54.4580   35.3140 N   0  0  0  0  0  0  0  0  0  0  0  0
   17.7790  -55.0120   34.1430 N   0  0  0  0  0  0  0  0  0  0  0  0
   18.9880  -54.9440   33.5690 C   0  0  0  0  0  0  0  0  0  0  0  0
   18.9800  -55.5920   32.3770 N   0  0  0  0  0  0  0  0  0  0  0  0
   17.7590  -56.0650   32.2070 N   0  0  0  0  0  0  0  0  0  0  0  0
   17.0110  -55.7240   33.2710 C   0  0  0  0  0  0  0  0  0  0  0  0
   19.9940  -54.2670   34.2380 C   0  0  0  0  0  0  0  0  0  0  0  0
   19.6970  -53.7010   35.4550 C   0  0  0  0  0  0  0  0  0  0  0  0
   12.8020  -58.1660   38.1910 H   0  0  0  0  0  0  0  0  0  0  0  0
   13.4660  -56.2240   39.5470 H   0  0  0  0  0  0  0  0  0  0  0  0
   16.8670  -55.6850   37.1070 H   0  0  0  0  0  0  0  0  0  0  0  0
   16.1800  -57.6120   35.7360 H   0  0  0  0  0  0  0  0  0  0  0  0
   15.6250  -51.7470   39.0660 H   0  0  0  0  0  0  0  0  0  0  0  0
   17.3720  -51.7840   39.3910 H   0  0  0  0  0  0  0  0  0  0  0  0
   17.2900  -51.2530   37.1040 H   0  0  0  0  0  0  0  0  0  0  0  0
   16.1340  -52.6330   36.7970 H   0  0  0  0  0  0  0  0  0  0  0  0
   19.2560  -52.5490   38.9730 H   0  0  0  0  0  0  0  0  0  0  0  0
   19.6950  -54.1950   38.2730 H   0  0  0  0  0  0  0  0  0  0  0  0
   18.2090  -53.8670   40.5340 H   0  0  0  0  0  0  0  0  0  0  0  0
   17.9990  -55.2420   39.4120 H   0  0  0  0  0  0  0  0  0  0  0  0
   15.9620  -55.9690   33.4240 H   0  0  0  0  0  0  0  0  0  0  0  0
   20.9900  -54.1870   33.8090 H   0  0  0  0  0  0  0  0  0  0  0  0
   20.4650  -53.1550   36.0240 H   0  0  0  0  0  0  0  0  0  0  0  0
  1  2  1  0  0  0  0
  2  3  1  0  0  0  0
  3 25  1  0  0  0  0
  3  4  2  0  0  0  0
  4 26  1  0  0  0  0
  5  4  1  0  0  0  0
  5  8  1  0  0  0  0
  6  5  2  0  0  0  0
  7  2  2  0  0  0  0
  7  6  1  0  0  0  0
  8  9  2  0  0  0  0
 10  8  1  0  0  0  0
 10 15  1  0  0  0  0
 11 29  1  0  0  0  0
 11 10  1  0  0  0  0
 11 30  1  0  0  0  0
 12 11  1  0  0  0  0
 13 12  1  0  0  0  0
 13 14  1  0  0  0  0
 14 33  1  0  0  0  0
 14 15  1  0  0  0  0
 15 35  1  0  0  0  0
 16 13  1  0  0  0  0
 17 16  2  0  0  0  0
 18 17  1  0  0  0  0
 19 18  1  0  0  0  0
 19 23  1  0  0  0  0
 20 19  2  0  0  0  0
 21 20  1  0  0  0  0
 21 22  2  0  0  0  0
 22 37  1  0  0  0  0
 22 18  1  0  0  0  0
 23 24  2  0  0  0  0
 24 39  1  0  0  0  0
 24 16  1  0  0  0  0
 27  6  1  0  0  0  0
 28  7  1  0  0  0  0
 31 12  1  0  0  0  0
 32 12  1  0  0  0  0
 34 14  1  0  0  0  0
 36 15  1  0  0  0  0
 38 23  1  0  0  0  0
M  END
>  <Pose>
1

>  <Score>
-6.76

$$$$
