
 OpenBabel03232204043D

 42 45  0  0  0  0  0  0  0  0999 V2000
   12.6160  -60.8630   35.7680 Cl  0  0  0  0  0  0  0  0  0  0  0  0
   13.2580  -59.4330   36.5860 C   0  0  0  0  0  0  0  0  0  0  0  0
   12.4070  -58.5930   37.2750 C   0  0  0  0  0  0  0  0  0  0  0  0
   12.8610  -57.4750   37.9240 C   0  0  0  0  0  0  0  0  0  0  0  0
   14.2080  -57.1430   37.9090 C   0  0  0  0  0  0  0  0  0  0  0  0
   15.0470  -57.9970   37.2130 C   0  0  0  0  0  0  0  0  0  0  0  0
   14.5930  -59.1240   36.5590 C   0  0  0  0  0  0  0  0  0  0  0  0
   14.7130  -55.9950   38.5680 N   0  0  0  0  0  0  0  0  0  0  0  0
   14.3070  -55.5340   39.7350 N   0  0  0  0  0  0  0  0  0  0  0  0
   15.0400  -54.4540   39.9760 N   0  0  0  0  0  0  0  0  0  0  0  0
   15.9100  -54.2170   38.9800 C   0  0  0  0  0  0  0  0  0  0  0  0
   15.6940  -55.2020   38.0920 C   0  0  0  0  0  0  0  0  0  0  0  0
   16.5900  -54.9560   37.0690 C   0  0  0  0  0  0  0  0  0  0  0  0
   16.6690  -55.6960   36.0440 O   0  0  0  0  0  0  0  0  0  0  0  0
   17.3350  -53.8640   37.3060 N   0  0  0  0  0  0  0  0  0  0  0  0
   16.9130  -53.4030   38.4960 C   0  0  0  0  0  0  0  0  0  0  0  0
   17.3820  -52.3730   39.0660 O   0  0  0  0  0  0  0  0  0  0  0  0
   18.3450  -53.3480   36.4420 C   0  0  0  0  0  0  0  0  0  0  0  0
   18.6020  -53.8950   35.2010 C   0  0  0  0  0  0  0  0  0  0  0  0
   19.5730  -53.4130   34.3470 C   0  0  0  0  0  0  0  0  0  0  0  0
   20.3260  -52.3320   34.7560 C   0  0  0  0  0  0  0  0  0  0  0  0
   20.1130  -51.7460   35.9870 C   0  0  0  0  0  0  0  0  0  0  0  0
   19.1220  -52.2680   36.8130 C   0  0  0  0  0  0  0  0  0  0  0  0
   20.8910  -50.6590   36.3640 O   0  0  0  0  0  0  0  0  0  0  0  0
   20.4810  -49.3380   36.1370 C   0  0  0  0  0  0  0  0  0  0  0  0
   19.7960  -54.0070   33.0900 O   0  0  0  0  0  0  0  0  0  0  0  0
   18.7800  -54.8000   32.5200 C   0  0  0  0  0  0  0  0  0  0  0  0
   11.3410  -58.8580   37.2850 H   0  0  0  0  0  0  0  0  0  0  0  0
   12.1880  -56.8210   38.4610 H   0  0  0  0  0  0  0  0  0  0  0  0
   16.1150  -57.7340   37.2020 H   0  0  0  0  0  0  0  0  0  0  0  0
   15.2710  -59.7570   36.0350 H   0  0  0  0  0  0  0  0  0  0  0  0
   13.5560  -55.9540   40.3320 H   0  0  0  0  0  0  0  0  0  0  0  0
   14.9540  -53.8620   40.8300 H   0  0  0  0  0  0  0  0  0  0  0  0
   17.9810  -54.7510   34.9180 H   0  0  0  0  0  0  0  0  0  0  0  0
   21.0940  -51.9500   34.0840 H   0  0  0  0  0  0  0  0  0  0  0  0
   18.9520  -51.7990   37.7950 H   0  0  0  0  0  0  0  0  0  0  0  0
   20.5940  -49.1420   35.0410 H   0  0  0  0  0  0  0  0  0  0  0  0
   19.4610  -49.1280   36.4950 H   0  0  0  0  0  0  0  0  0  0  0  0
   21.1780  -48.6720   36.7240 H   0  0  0  0  0  0  0  0  0  0  0  0
   17.7870  -54.3260   32.5650 H   0  0  0  0  0  0  0  0  0  0  0  0
   19.0150  -55.0100   31.4600 H   0  0  0  0  0  0  0  0  0  0  0  0
   18.6860  -55.7880   33.0340 H   0  0  0  0  0  0  0  0  0  0  0  0
  1  2  1  0  0  0  0
  2  3  1  0  0  0  0
  3 28  1  0  0  0  0
  3  4  2  0  0  0  0
  4 29  1  0  0  0  0
  5  4  1  0  0  0  0
  5  8  1  0  0  0  0
  6  5  2  0  0  0  0
  7  2  2  0  0  0  0
  7  6  1  0  0  0  0
  8  9  1  0  0  0  0
  9 10  1  0  0  0  0
  9 32  1  0  0  0  0
 10 33  1  0  0  0  0
 11 10  1  0  0  0  0
 12  8  1  0  0  0  0
 12 11  2  0  0  0  0
 13 15  1  0  0  0  0
 13 12  1  0  0  0  0
 14 13  2  0  0  0  0
 15 16  1  0  0  0  0
 16 11  1  0  0  0  0
 16 17  2  0  0  0  0
 18 23  1  0  0  0  0
 18 15  1  0  0  0  0
 19 18  2  0  0  0  0
 20 21  2  0  0  0  0
 20 19  1  0  0  0  0
 21 22  1  0  0  0  0
 22 24  1  0  0  0  0
 22 23  2  0  0  0  0
 23 36  1  0  0  0  0
 25 24  1  0  0  0  0
 25 38  1  0  0  0  0
 25 39  1  0  0  0  0
 26 20  1  0  0  0  0
 27 40  1  0  0  0  0
 27 42  1  0  0  0  0
 27 26  1  0  0  0  0
 30  6  1  0  0  0  0
 31  7  1  0  0  0  0
 34 19  1  0  0  0  0
 35 21  1  0  0  0  0
 37 25  1  0  0  0  0
 41 27  1  0  0  0  0
M  END
>  <Pose>
1

>  <Score>
-6.75

$$$$
