
 OpenBabel03232204043D

 38 42  0  0  1  0  0  0  0  0999 V2000
   12.9110  -60.3890   37.4780 B   0  0  0  0  0  0  0  0  0  0  0  0
   13.6230  -58.6390   37.6430 C   0  0  0  0  0  0  0  0  0  0  0  0
   14.6750  -58.2590   36.8450 C   0  0  0  0  0  0  0  0  0  0  0  0
   15.1720  -56.9810   36.9850 C   0  0  0  0  0  0  0  0  0  0  0  0
   14.6500  -56.0860   37.8930 C   0  0  0  0  0  0  0  0  0  0  0  0
   13.5870  -56.4690   38.6990 C   0  0  0  0  0  0  0  0  0  0  0  0
   13.0860  -57.7640   38.5530 C   0  0  0  0  0  0  0  0  0  0  0  0
   15.1750  -54.7590   38.0260 N   0  0  0  0  0  0  0  0  0  0  0  0
   15.5760  -53.9750   36.9140 C   0  0  0  0  0  0  0  0  0  0  0  0
   15.2120  -54.1900   35.7330 O   0  0  0  0  0  0  0  0  0  0  0  0
   16.4750  -52.8870   37.3840 C   0  0  2  0  0  0  0  0  0  0  0  0
   17.9210  -53.2610   37.2740 C   0  0  1  0  0  0  0  0  0  0  0  0
   18.4540  -52.5420   38.3670 O   0  0  0  0  0  0  0  0  0  0  0  0
   17.6800  -53.1680   39.3760 C   0  0  1  0  0  0  0  0  0  0  0  0
   16.2990  -52.8700   38.9030 C   0  0  2  0  0  0  0  0  0  0  0  0
   15.3900  -54.0050   39.2190 C   0  0  0  0  0  0  0  0  0  0  0  0
   14.9120  -54.2350   40.3330 O   0  0  0  0  0  0  0  0  0  0  0  0
   17.9870  -54.5890   39.0700 C   0  0  0  0  0  0  0  0  0  0  0  0
   18.0730  -54.6470   37.7450 C   0  0  0  0  0  0  0  0  0  0  0  0
   18.5680  -52.9280   35.9990 C   0  0  0  0  0  0  0  0  0  0  0  0
   18.0450  -53.5860   34.9200 O   0  0  0  0  0  0  0  0  0  0  0  0
   18.9690  -54.4930   34.4650 C   0  0  0  0  0  0  0  0  0  0  0  0
   20.1640  -54.3590   35.3510 C   0  0  0  0  0  0  0  0  0  0  0  0
   19.9290  -53.1710   36.0330 O   0  0  0  0  0  0  0  0  0  0  0  0
   15.1270  -58.9300   36.1090 H   0  0  0  0  0  0  0  0  0  0  0  0
   16.0140  -56.6450   36.3610 H   0  0  0  0  0  0  0  0  0  0  0  0
   13.1890  -55.7590   39.4030 H   0  0  0  0  0  0  0  0  0  0  0  0
   12.2580  -58.0620   39.1810 H   0  0  0  0  0  0  0  0  0  0  0  0
   16.2180  -51.9410   36.9110 H   0  0  0  0  0  0  0  0  0  0  0  0
   17.9330  -52.8450   40.3710 H   0  0  0  0  0  0  0  0  0  0  0  0
   15.8890  -51.9190   39.2430 H   0  0  0  0  0  0  0  0  0  0  0  0
   18.1010  -55.3540   39.8270 H   0  0  0  0  0  0  0  0  0  0  0  0
   18.2230  -55.5850   37.2210 H   0  0  0  0  0  0  0  0  0  0  0  0
   18.4450  -51.8240   35.8320 H   0  0  0  0  0  0  0  0  0  0  0  0
   19.2620  -54.3340   33.4090 H   0  0  0  0  0  0  0  0  0  0  0  0
   18.5400  -55.5180   34.6110 H   0  0  0  0  0  0  0  0  0  0  0  0
   21.1090  -54.2890   34.7380 H   0  0  0  0  0  0  0  0  0  0  0  0
   20.2590  -55.1910   36.0940 H   0  0  0  0  0  0  0  0  0  0  0  0
  1  2  1  0  0  0  0
  2  7  1  0  0  0  0
  3  4  1  0  0  0  0
  3  2  2  0  0  0  0
  4  5  2  0  0  0  0
  5  8  1  0  0  0  0
  5  6  1  0  0  0  0
  6 27  1  0  0  0  0
  7  6  2  0  0  0  0
  7 28  1  0  0  0  0
  8 16  1  0  0  0  0
  9 11  1  0  0  0  0
  9  8  1  0  0  0  0
 10  9  2  0  0  0  0
 11 29  1  6  0  0  0
 11 15  1  0  0  0  0
 12 20  1  6  0  0  0
 12 11  1  0  0  0  0
 12 19  1  0  0  0  0
 12 13  1  0  0  0  0
 13 14  1  0  0  0  0
 14 30  1  1  0  0  0
 15 16  1  0  0  0  0
 15 31  1  1  0  0  0
 15 14  1  0  0  0  0
 16 17  2  0  0  0  0
 18 14  1  0  0  0  0
 18 32  1  0  0  0  0
 19 18  2  0  0  0  0
 20 24  1  0  0  0  0
 21 20  1  0  0  0  0
 22 36  1  0  0  0  0
 22 21  1  0  0  0  0
 22 23  1  0  0  0  0
 23 24  1  0  0  0  0
 23 38  1  0  0  0  0
 25  3  1  0  0  0  0
 26  4  1  0  0  0  0
 33 19  1  0  0  0  0
 34 20  1  0  0  0  0
 35 22  1  0  0  0  0
 37 23  1  0  0  0  0
M  END
>  <Pose>
1

>  <Score>
-4.98

$$$$
