
 OpenBabel03232204043D

 47 50  0  0  1  0  0  0  0  0999 V2000
   17.2350  -59.6040   32.3970 Cl  0  0  0  0  0  0  0  0  0  0  0  0
   18.3160  -58.5470   31.5200 C   0  0  0  0  0  0  0  0  0  0  0  0
   18.3470  -57.2140   31.8700 C   0  0  0  0  0  0  0  0  0  0  0  0
   19.2020  -56.3840   31.1760 C   0  0  0  0  0  0  0  0  0  0  0  0
   20.0100  -56.8620   30.1540 C   0  0  0  0  0  0  0  0  0  0  0  0
   19.9860  -58.1950   29.7980 C   0  0  0  0  0  0  0  0  0  0  0  0
   19.1310  -59.0250   30.4920 C   0  0  0  0  0  0  0  0  0  0  0  0
   19.2450  -54.6810   31.6190 Cl  0  0  0  0  0  0  0  0  0  0  0  0
   17.5010  -56.6880   32.9450 C   0  0  0  0  0  0  0  0  0  0  0  0
   17.7090  -56.9700   34.1790 N   0  0  0  0  0  0  0  0  0  0  0  0
   16.8550  -56.4270   35.1410 N   0  0  0  0  0  0  0  0  0  0  0  0
   15.6630  -57.0800   35.5520 C   0  0  0  0  0  0  0  0  0  0  0  0
   15.1330  -57.0370   36.7850 N   0  0  0  0  0  0  0  0  0  0  0  0
   14.0180  -57.7850   36.7360 C   0  0  0  0  0  0  0  0  0  0  0  0
   13.0810  -58.1060   37.6620 N   0  0  0  0  0  0  0  0  0  0  0  0
   12.0290  -58.8930   37.3640 C   0  0  0  0  0  0  0  0  0  0  0  0
   11.8840  -59.3860   36.1160 N   0  0  0  0  0  0  0  0  0  0  0  0
   12.7720  -59.1120   35.1410 C   0  0  0  0  0  0  0  0  0  0  0  0
   13.8420  -58.3040   35.4710 C   0  0  0  0  0  0  0  0  0  0  0  0
   14.8890  -57.8450   34.7460 N   0  0  0  0  0  0  0  0  0  0  0  0
   12.5920  -59.6430   33.8430 N   0  0  0  0  0  0  0  0  0  0  0  0
   15.5890  -56.3610   37.9650 C   0  0  1  0  0  0  0  0  0  0  0  0
   16.5990  -55.4400   37.7000 O   0  0  0  0  0  0  0  0  0  0  0  0
   16.6230  -54.7100   38.8880 C   0  0  2  0  0  0  0  0  0  0  0  0
   15.1670  -54.2830   38.9940 C   0  0  1  0  0  0  0  0  0  0  0  0
   14.4670  -55.5720   38.6150 C   0  0  2  0  0  0  0  0  0  0  0  0
   14.0440  -56.1720   39.8030 O   0  0  0  0  0  0  0  0  0  0  0  0
   14.8410  -53.8740   40.2790 O   0  0  0  0  0  0  0  0  0  0  0  0
   17.5510  -53.5270   38.8240 C   0  0  0  0  0  0  0  0  0  0  0  0
   18.7530  -53.7490   39.4490 O   0  0  0  0  0  0  0  0  0  0  0  0
   20.6830  -56.2170   29.6060 H   0  0  0  0  0  0  0  0  0  0  0  0
   20.5970  -58.6130   29.0100 H   0  0  0  0  0  0  0  0  0  0  0  0
   19.0940  -60.0850   30.2270 H   0  0  0  0  0  0  0  0  0  0  0  0
   16.6730  -56.0420   32.7030 H   0  0  0  0  0  0  0  0  0  0  0  0
   17.1370  -55.5040   35.5500 H   0  0  0  0  0  0  0  0  0  0  0  0
   11.2780  -59.1540   38.0980 H   0  0  0  0  0  0  0  0  0  0  0  0
   11.9190  -59.2320   33.1730 H   0  0  0  0  0  0  0  0  0  0  0  0
   13.1490  -60.4670   33.5550 H   0  0  0  0  0  0  0  0  0  0  0  0
   15.9920  -57.0570   38.7340 H   0  0  0  0  0  0  0  0  0  0  0  0
   16.8370  -55.3950   39.7060 H   0  0  0  0  0  0  0  0  0  0  0  0
   14.9540  -53.4850   38.2320 H   0  0  0  0  0  0  0  0  0  0  0  0
   13.6240  -55.4050   37.9150 H   0  0  0  0  0  0  0  0  0  0  0  0
   13.1470  -55.8800   40.0640 H   0  0  0  0  0  0  0  0  0  0  0  0
   15.2890  -53.0000   40.4350 H   0  0  0  0  0  0  0  0  0  0  0  0
   17.0270  -52.6800   39.3170 H   0  0  0  0  0  0  0  0  0  0  0  0
   17.6420  -53.2450   37.7540 H   0  0  0  0  0  0  0  0  0  0  0  0
   18.7480  -53.4370   40.3800 H   0  0  0  0  0  0  0  0  0  0  0  0
  2  3  1  0  0  0  0
  2  1  1  0  0  0  0
  3  9  1  0  0  0  0
  4  8  1  0  0  0  0
  4  3  2  0  0  0  0
  5  4  1  0  0  0  0
  6  5  2  0  0  0  0
  6  7  1  0  0  0  0
  7  2  2  0  0  0  0
  9 10  2  0  0  0  0
 10 11  1  0  0  0  0
 11 35  1  0  0  0  0
 11 12  1  0  0  0  0
 12 13  1  0  0  0  0
 13 22  1  0  0  0  0
 14 13  1  0  0  0  0
 14 15  1  0  0  0  0
 16 15  2  0  0  0  0
 16 36  1  0  0  0  0
 17 16  1  0  0  0  0
 18 19  1  0  0  0  0
 18 17  2  0  0  0  0
 19 14  2  0  0  0  0
 20 19  1  0  0  0  0
 20 12  2  0  0  0  0
 21 18  1  0  0  0  0
 22 26  1  0  0  0  0
 22 39  1  1  0  0  0
 23 22  1  0  0  0  0
 23 24  1  0  0  0  0
 24 25  1  0  0  0  0
 24 40  1  1  0  0  0
 25 41  1  6  0  0  0
 25 28  1  0  0  0  0
 26 42  1  6  0  0  0
 26 25  1  0  0  0  0
 26 27  1  0  0  0  0
 27 43  1  0  0  0  0
 28 44  1  0  0  0  0
 29 24  1  0  0  0  0
 29 45  1  0  0  0  0
 29 30  1  0  0  0  0
 30 47  1  0  0  0  0
 31  5  1  0  0  0  0
 32  6  1  0  0  0  0
 33  7  1  0  0  0  0
 34  9  1  0  0  0  0
 37 21  1  0  0  0  0
 38 21  1  0  0  0  0
 46 29  1  0  0  0  0
M  END
>  <Pose>
1

>  <Score>
-8.29

$$$$
