
 OpenBabel03232204043D

 38 41  0  0  0  0  0  0  0  0999 V2000
   14.0540  -58.5390   33.4890 Cl  0  0  0  0  0  0  0  0  0  0  0  0
   13.3170  -58.8280   35.0590 C   0  0  0  0  0  0  0  0  0  0  0  0
   13.8140  -58.2120   36.1890 C   0  0  0  0  0  0  0  0  0  0  0  0
   13.2430  -58.4360   37.4100 C   0  0  0  0  0  0  0  0  0  0  0  0
   12.1640  -59.2890   37.4810 C   0  0  0  0  0  0  0  0  0  0  0  0
   11.6530  -59.9150   36.3650 C   0  0  0  0  0  0  0  0  0  0  0  0
   12.2370  -59.6810   35.1370 C   0  0  0  0  0  0  0  0  0  0  0  0
   13.7180  -57.8120   38.6680 C   0  0  0  0  0  0  0  0  0  0  0  0
   14.7110  -56.8300   38.3080 N   0  0  0  0  0  0  0  0  0  0  0  0
   15.7090  -57.2370   37.3470 C   0  0  0  0  0  0  0  0  0  0  0  0
   14.9850  -57.3080   35.9980 C   0  0  0  0  0  0  0  0  0  0  0  0
   14.7300  -55.5240   38.8520 C   0  0  0  0  0  0  0  0  0  0  0  0
   14.1730  -55.3040   39.9590 O   0  0  0  0  0  0  0  0  0  0  0  0
   15.3790  -54.3720   38.1830 C   0  0  0  0  0  0  0  0  0  0  0  0
   16.7620  -54.3730   38.3550 O   0  0  0  0  0  0  0  0  0  0  0  0
   17.6330  -53.5380   37.6680 C   0  0  0  0  0  0  0  0  0  0  0  0
   18.2700  -54.0070   36.5770 N   0  0  0  0  0  0  0  0  0  0  0  0
   19.1170  -53.2580   35.8760 N   0  0  0  0  0  0  0  0  0  0  0  0
   19.3930  -51.9890   36.2050 C   0  0  0  0  0  0  0  0  0  0  0  0
   20.2770  -51.4860   35.3220 N   0  0  0  0  0  0  0  0  0  0  0  0
   20.5370  -52.4400   34.4610 N   0  0  0  0  0  0  0  0  0  0  0  0
   19.8370  -53.5430   34.7760 C   0  0  0  0  0  0  0  0  0  0  0  0
   18.7540  -51.4710   37.3270 C   0  0  0  0  0  0  0  0  0  0  0  0
   17.8790  -52.2440   38.0520 C   0  0  0  0  0  0  0  0  0  0  0  0
   11.6710  -59.5030   38.4270 H   0  0  0  0  0  0  0  0  0  0  0  0
   10.7910  -60.5910   36.4470 H   0  0  0  0  0  0  0  0  0  0  0  0
   11.8800  -60.1430   34.2280 H   0  0  0  0  0  0  0  0  0  0  0  0
   14.2100  -58.5350   39.3500 H   0  0  0  0  0  0  0  0  0  0  0  0
   12.9030  -57.3190   39.2350 H   0  0  0  0  0  0  0  0  0  0  0  0
   16.5690  -56.5450   37.2900 H   0  0  0  0  0  0  0  0  0  0  0  0
   16.0940  -58.2540   37.5580 H   0  0  0  0  0  0  0  0  0  0  0  0
   15.6210  -57.7040   35.2050 H   0  0  0  0  0  0  0  0  0  0  0  0
   14.5870  -56.3160   35.7330 H   0  0  0  0  0  0  0  0  0  0  0  0
   14.9900  -53.3940   38.5280 H   0  0  0  0  0  0  0  0  0  0  0  0
   15.1350  -54.4370   37.0930 H   0  0  0  0  0  0  0  0  0  0  0  0
   19.8270  -54.5110   34.2610 H   0  0  0  0  0  0  0  0  0  0  0  0
   18.9700  -50.4640   37.5920 H   0  0  0  0  0  0  0  0  0  0  0  0
   17.3640  -51.8750   38.9280 H   0  0  0  0  0  0  0  0  0  0  0  0
  1  2  1  0  0  0  0
  2  7  2  0  0  0  0
  2  3  1  0  0  0  0
  3  4  2  0  0  0  0
  4  5  1  0  0  0  0
  4  8  1  0  0  0  0
  5 25  1  0  0  0  0
  6 26  1  0  0  0  0
  6  5  2  0  0  0  0
  7  6  1  0  0  0  0
  8 29  1  0  0  0  0
  8 28  1  0  0  0  0
  9  8  1  0  0  0  0
  9 12  1  0  0  0  0
 10 31  1  0  0  0  0
 10  9  1  0  0  0  0
 11  3  1  0  0  0  0
 11 10  1  0  0  0  0
 12 13  2  0  0  0  0
 14 15  1  0  0  0  0
 14 34  1  0  0  0  0
 14 12  1  0  0  0  0
 16 24  1  0  0  0  0
 16 15  1  0  0  0  0
 17 16  2  0  0  0  0
 18 19  1  0  0  0  0
 18 17  1  0  0  0  0
 19 23  1  0  0  0  0
 20 19  2  0  0  0  0
 21 22  2  0  0  0  0
 21 20  1  0  0  0  0
 22 18  1  0  0  0  0
 23 37  1  0  0  0  0
 23 24  2  0  0  0  0
 24 38  1  0  0  0  0
 27  7  1  0  0  0  0
 30 10  1  0  0  0  0
 32 11  1  0  0  0  0
 33 11  1  0  0  0  0
 35 14  1  0  0  0  0
 36 22  1  0  0  0  0
M  END
>  <Pose>
1

>  <Score>
-6.80

$$$$
