
 OpenBabel03232204043D

 51 54  0  0  0  0  0  0  0  0999 V2000
   22.3470  -54.7500   27.9730 B   0  0  0  0  0  0  0  0  0  0  0  0
   21.1630  -56.2250   28.2160 C   0  0  0  0  0  0  0  0  0  0  0  0
   20.9940  -56.7790   29.4500 C   0  0  0  0  0  0  0  0  0  0  0  0
   20.1210  -57.8640   29.6250 C   0  0  0  0  0  0  0  0  0  0  0  0
   19.4510  -58.3490   28.5350 C   0  0  0  0  0  0  0  0  0  0  0  0
   19.6290  -57.7740   27.2660 C   0  0  0  0  0  0  0  0  0  0  0  0
   20.4870  -56.7140   27.1200 C   0  0  0  0  0  0  0  0  0  0  0  0
   18.5800  -59.4140   28.6480 O   0  0  0  0  0  0  0  0  0  0  0  0
   19.9550  -58.4400   30.9500 C   0  0  0  0  0  0  0  0  0  0  0  0
   19.1990  -57.8250   31.8330 N   0  0  0  0  0  0  0  0  0  0  0  0
   19.0660  -58.4110   33.0920 N   0  0  0  0  0  0  0  0  0  0  0  0
   18.2440  -57.8290   34.0920 C   0  0  0  0  0  0  0  0  0  0  0  0
   17.1710  -58.4680   34.5850 N   0  0  0  0  0  4  0  0  0  0  0  0
   16.3550  -57.9520   35.5420 C   0  0  0  0  0  0  0  0  0  0  0  0
   16.7000  -56.7140   35.9840 N   0  0  0  0  0  0  0  0  0  0  0  0
   17.7600  -56.0280   35.5310 C   0  0  0  0  0  0  0  0  0  0  0  0
   18.5080  -56.5990   34.5950 N   0  0  0  0  0  0  0  0  0  0  0  0
   18.0600  -54.7420   36.0370 N   0  0  0  0  0  0  0  0  0  0  0  0
   19.4000  -54.1900   36.0560 C   0  0  0  0  0  0  0  0  0  0  0  0
   19.3330  -52.6830   35.9330 C   0  0  0  0  0  0  0  0  0  0  0  0
   18.5680  -52.0840   36.8980 O   0  0  0  0  0  0  0  0  0  0  0  0
   17.7390  -52.9640   37.5820 C   0  0  0  0  0  0  0  0  0  0  0  0
   17.0190  -53.8680   36.5860 C   0  0  0  0  0  0  0  0  0  0  0  0
   15.2360  -58.6490   36.0360 N   0  0  0  0  0  0  0  0  0  0  0  0
   15.0560  -58.8320   37.4450 C   0  0  0  0  0  0  0  0  0  0  0  0
   13.6660  -58.3230   37.7880 C   0  0  0  0  0  0  0  0  0  0  0  0
   12.7590  -59.0670   37.0180 O   0  0  0  0  0  0  0  0  0  0  0  0
   12.8870  -58.7330   35.6700 C   0  0  0  0  0  0  0  0  0  0  0  0
   14.2540  -59.1910   35.1470 C   0  0  0  0  0  0  0  0  0  0  0  0
   21.5140  -56.4130   30.3310 H   0  0  0  0  0  0  0  0  0  0  0  0
   19.0840  -58.1810   26.4260 H   0  0  0  0  0  0  0  0  0  0  0  0
   20.6470  -56.2460   26.1440 H   0  0  0  0  0  0  0  0  0  0  0  0
   18.5900  -60.0810   29.3920 H   0  0  0  0  0  0  0  0  0  0  0  0
   20.4320  -59.3600   31.2330 H   0  0  0  0  0  0  0  0  0  0  0  0
   19.5910  -59.2900   33.2700 H   0  0  0  0  0  0  0  0  0  0  0  0
   19.9750  -54.5760   35.1950 H   0  0  0  0  0  0  0  0  0  0  0  0
   19.8560  -54.4290   37.0300 H   0  0  0  0  0  0  0  0  0  0  0  0
   19.0610  -52.3870   34.8980 H   0  0  0  0  0  0  0  0  0  0  0  0
   20.3950  -52.3240   36.0780 H   0  0  0  0  0  0  0  0  0  0  0  0
   17.0410  -52.4120   38.2160 H   0  0  0  0  0  0  0  0  0  0  0  0
   18.3930  -53.6190   38.1970 H   0  0  0  0  0  0  0  0  0  0  0  0
   16.2050  -54.4260   37.0400 H   0  0  0  0  0  0  0  0  0  0  0  0
   16.7060  -53.2100   35.7440 H   0  0  0  0  0  0  0  0  0  0  0  0
   15.0630  -59.9160   37.6800 H   0  0  0  0  0  0  0  0  0  0  0  0
   15.8350  -58.2760   38.0080 H   0  0  0  0  0  0  0  0  0  0  0  0
   13.5410  -57.2520   37.5350 H   0  0  0  0  0  0  0  0  0  0  0  0
   13.4300  -58.4830   38.8590 H   0  0  0  0  0  0  0  0  0  0  0  0
   12.8850  -57.6250   35.6190 H   0  0  0  0  0  0  0  0  0  0  0  0
   12.0710  -59.1940   35.1010 H   0  0  0  0  0  0  0  0  0  0  0  0
   14.2910  -60.2940   35.0650 H   0  0  0  0  0  0  0  0  0  0  0  0
   14.3820  -58.7440   34.1350 H   0  0  0  0  0  0  0  0  0  0  0  0
  1  2  1  0  0  0  0
  2  3  1  0  0  0  0
  3  4  2  0  0  0  0
  3 30  1  0  0  0  0
  4  9  1  0  0  0  0
  5  8  1  0  0  0  0
  5  4  1  0  0  0  0
  6  5  2  0  0  0  0
  7  6  1  0  0  0  0
  7  2  2  0  0  0  0
  8 33  1  0  0  0  0
  9 34  1  0  0  0  0
  9 10  2  0  0  0  0
 10 11  1  0  0  0  0
 11 35  1  0  0  0  0
 11 12  1  0  0  0  0
 12 13  2  0  0  0  0
 12 17  1  0  0  0  0
 13 14  2  0  0  0  0
 14 15  1  0  0  0  0
 14 24  1  0  0  0  0
 16 15  2  0  0  0  0
 16 18  1  0  0  0  0
 17 16  1  0  0  0  0
 18 19  1  0  0  0  0
 18 23  1  0  0  0  0
 19 37  1  0  0  0  0
 20 19  1  0  0  0  0
 20 39  1  0  0  0  0
 20 21  1  0  0  0  0
 21 22  1  0  0  0  0
 22 41  1  0  0  0  0
 22 40  1  0  0  0  0
 23 42  1  0  0  0  0
 23 22  1  0  0  0  0
 24 25  1  0  0  0  0
 25 44  1  0  0  0  0
 25 26  1  0  0  0  0
 25 45  1  0  0  0  0
 26 47  1  0  0  0  0
 27 26  1  0  0  0  0
 28 27  1  0  0  0  0
 29 28  1  0  0  0  0
 29 24  1  0  0  0  0
 31  6  1  0  0  0  0
 32  7  1  0  0  0  0
 36 19  1  0  0  0  0
 38 20  1  0  0  0  0
 43 23  1  0  0  0  0
 46 26  1  0  0  0  0
 48 28  1  0  0  0  0
 49 28  1  0  0  0  0
 50 29  1  0  0  0  0
 51 29  1  0  0  0  0
M  END
>  <Pose>
1

>  <Score>
-6.80

$$$$
