
 OpenBabel03232204043D

 41 44  0  0  0  0  0  0  0  0999 V2000
   18.9730  -58.6520   30.5500 Cl  0  0  0  0  0  0  0  0  0  0  0  0
   17.9290  -58.3730   31.9490 C   0  0  0  0  0  0  0  0  0  0  0  0
   17.9000  -59.2660   33.0000 C   0  0  0  0  0  0  0  0  0  0  0  0
   17.0630  -58.9940   34.0670 C   0  0  0  0  0  0  0  0  0  0  0  0
   16.2620  -57.8730   34.1210 C   0  0  0  0  0  0  0  0  0  0  0  0
   16.3190  -57.0030   33.0500 C   0  0  0  0  0  0  0  0  0  0  0  0
   17.1470  -57.2360   31.9550 C   0  0  0  0  0  0  0  0  0  0  0  0
   15.4170  -57.6170   35.2220 N   0  0  0  0  0  0  0  0  0  0  0  0
   15.7700  -57.0700   36.4080 C   0  0  0  0  0  0  0  0  0  0  0  0
   16.9410  -56.7040   36.6930 O   0  0  0  0  0  0  0  0  0  0  0  0
   14.6780  -56.9700   37.2530 C   0  0  0  0  0  0  0  0  0  0  0  0
   13.6500  -57.4610   36.5790 C   0  0  0  0  0  0  0  0  0  0  0  0
   12.5870  -57.3620   37.4060 N   0  0  0  0  0  0  0  0  0  0  0  0
   12.9880  -56.8170   38.5620 N   0  0  0  0  0  0  0  0  0  0  0  0
   14.2850  -56.5700   38.4760 N   0  0  0  0  0  0  0  0  0  0  0  0
   15.1260  -55.9810   39.4960 C   0  0  0  0  0  0  0  0  0  0  0  0
   15.7620  -54.7120   39.0630 C   0  0  0  0  0  0  0  0  0  0  0  0
   16.6350  -54.6070   38.0040 C   0  0  0  0  0  0  0  0  0  0  0  0
   17.2240  -53.4240   37.6030 C   0  0  0  0  0  0  0  0  0  0  0  0
   16.9320  -52.2740   38.2950 C   0  0  0  0  0  0  0  0  0  0  0  0
   16.0650  -52.3320   39.3600 C   0  0  0  0  0  0  0  0  0  0  0  0
   15.4880  -53.5320   39.7400 C   0  0  0  0  0  0  0  0  0  0  0  0
   18.1000  -53.4290   36.5110 O   0  0  0  0  0  0  0  0  0  0  0  0
   19.2380  -52.5920   36.4730 C   0  0  0  0  0  0  0  0  0  0  0  0
   14.1000  -57.8570   35.3370 C   0  0  0  0  0  0  0  0  0  0  0  0
   13.3620  -58.3640   34.4630 O   0  0  0  0  0  0  0  0  0  0  0  0
   18.5270  -60.1420   32.9530 H   0  0  0  0  0  0  0  0  0  0  0  0
   17.0280  -59.6800   34.8950 H   0  0  0  0  0  0  0  0  0  0  0  0
   15.6820  -56.1280   33.1120 H   0  0  0  0  0  0  0  0  0  0  0  0
   17.1550  -56.5160   31.1330 H   0  0  0  0  0  0  0  0  0  0  0  0
   11.6220  -57.6630   37.1760 H   0  0  0  0  0  0  0  0  0  0  0  0
   12.4160  -56.6050   39.4070 H   0  0  0  0  0  0  0  0  0  0  0  0
   14.5390  -55.7970   40.4170 H   0  0  0  0  0  0  0  0  0  0  0  0
   15.9600  -56.7170   39.6950 H   0  0  0  0  0  0  0  0  0  0  0  0
   16.8860  -55.5190   37.4340 H   0  0  0  0  0  0  0  0  0  0  0  0
   17.3870  -51.3180   37.9970 H   0  0  0  0  0  0  0  0  0  0  0  0
   15.8380  -51.4240   39.9010 H   0  0  0  0  0  0  0  0  0  0  0  0
   14.8070  -53.5690   40.5780 H   0  0  0  0  0  0  0  0  0  0  0  0
   18.9680  -51.5300   36.2650 H   0  0  0  0  0  0  0  0  0  0  0  0
   19.9070  -52.9160   35.6590 H   0  0  0  0  0  0  0  0  0  0  0  0
   19.7510  -52.6020   37.4660 H   0  0  0  0  0  0  0  0  0  0  0  0
  1  2  1  0  0  0  0
  2  7  2  0  0  0  0
  2  3  1  0  0  0  0
  3  4  2  0  0  0  0
  4  5  1  0  0  0  0
  4 28  1  0  0  0  0
  5  8  1  0  0  0  0
  6 29  1  0  0  0  0
  6  5  2  0  0  0  0
  7  6  1  0  0  0  0
  8 25  1  0  0  0  0
  8  9  1  0  0  0  0
  9 10  2  0  0  0  0
  9 11  1  0  0  0  0
 11 15  1  0  0  0  0
 12 11  2  0  0  0  0
 12 13  1  0  0  0  0
 13 14  1  0  0  0  0
 14 32  1  0  0  0  0
 15 14  1  0  0  0  0
 15 16  1  0  0  0  0
 16 34  1  0  0  0  0
 16 33  1  0  0  0  0
 17 16  1  0  0  0  0
 17 22  1  0  0  0  0
 18 17  2  0  0  0  0
 19 18  1  0  0  0  0
 19 20  2  0  0  0  0
 20 21  1  0  0  0  0
 21 22  2  0  0  0  0
 21 37  1  0  0  0  0
 22 38  1  0  0  0  0
 23 19  1  0  0  0  0
 24 23  1  0  0  0  0
 24 41  1  0  0  0  0
 25 12  1  0  0  0  0
 26 25  2  0  0  0  0
 27  3  1  0  0  0  0
 30  7  1  0  0  0  0
 31 13  1  0  0  0  0
 35 18  1  0  0  0  0
 36 20  1  0  0  0  0
 39 24  1  0  0  0  0
 40 24  1  0  0  0  0
M  END
>  <Pose>
1

>  <Score>
-7.01

$$$$
