
 OpenBabel03232204043D

 51 54  0  0  1  0  0  0  0  0999 V2000
   18.8530  -53.2310   37.7450 Cl  0  0  0  0  0  0  0  0  0  0  0  0
   17.5070  -54.3210   37.8150 C   0  0  0  0  0  0  0  0  0  0  0  0
   16.6180  -54.2190   38.8050 N   0  0  0  0  0  4  0  0  0  0  0  0
   15.5630  -55.0320   38.9070 C   0  0  0  0  0  0  0  0  0  0  0  0
   14.5670  -55.1110   39.7810 N   0  0  0  0  0  0  0  0  0  0  0  0
   13.8020  -56.1260   39.3580 C   0  0  0  0  0  0  0  0  0  0  0  0
   14.2860  -56.6880   38.2430 N   0  0  0  0  0  0  0  0  0  0  0  0
   15.4070  -56.0200   37.9250 C   0  0  0  0  0  0  0  0  0  0  0  0
   16.3130  -56.1350   36.9040 C   0  0  0  0  0  0  0  0  0  0  0  0
   17.3620  -55.2620   36.8780 N   0  0  0  0  0  0  0  0  0  0  0  0
   16.1700  -57.1420   35.9270 N   0  0  0  0  0  0  0  0  0  0  0  0
   15.4830  -58.3560   36.3030 C   0  0  0  0  0  0  0  0  0  0  0  0
   15.4970  -59.4090   35.2270 C   0  0  0  0  0  0  0  0  0  0  0  0
   15.1690  -58.7840   33.9160 C   0  0  2  0  0  0  0  0  0  0  0  0
   16.2290  -57.8060   33.5420 C   0  0  0  0  0  0  0  0  0  0  0  0
   16.7090  -56.9080   34.6220 C   0  0  0  0  0  0  0  0  0  0  0  0
   13.8020  -58.2630   33.8620 C   0  0  0  0  0  0  0  0  0  0  0  0
   13.6240  -57.0900   33.4500 O   0  0  0  0  0  0  0  0  0  0  0  0
   12.6730  -59.0130   34.2510 N   0  0  0  0  0  0  0  0  0  0  0  0
   12.1750  -59.0710   35.6060 C   0  0  0  0  0  0  0  0  0  0  0  0
   12.6580  -60.2670   36.3760 C   0  0  0  0  0  0  0  0  0  0  0  0
   11.6890  -60.6670   37.3810 N   0  0  0  0  0  0  0  0  0  0  0  0
   11.1900  -59.5720   38.1410 C   0  0  0  0  0  0  0  0  0  0  0  0
   11.7270  -59.6210   39.5570 C   0  0  0  0  0  0  0  0  0  0  0  0
   11.2490  -60.7630   40.1480 O   0  0  0  0  0  0  0  0  0  0  0  0
   11.4900  -61.9350   39.4820 C   0  0  0  0  0  0  0  0  0  0  0  0
   12.0870  -61.8080   38.1230 C   0  0  0  0  0  0  0  0  0  0  0  0
   12.9030  -56.4550   39.8520 H   0  0  0  0  0  0  0  0  0  0  0  0
   13.8990  -57.4880   37.6900 H   0  0  0  0  0  0  0  0  0  0  0  0
   14.4810  -58.2000   36.7220 H   0  0  0  0  0  0  0  0  0  0  0  0
   16.0660  -58.8180   37.1640 H   0  0  0  0  0  0  0  0  0  0  0  0
   16.4800  -59.9030   35.1680 H   0  0  0  0  0  0  0  0  0  0  0  0
   14.7330  -60.1630   35.5020 H   0  0  0  0  0  0  0  0  0  0  0  0
   15.2120  -59.6150   33.1520 H   0  0  0  0  0  0  0  0  0  0  0  0
   17.1190  -58.4100   33.1940 H   0  0  0  0  0  0  0  0  0  0  0  0
   15.8960  -57.2610   32.6340 H   0  0  0  0  0  0  0  0  0  0  0  0
   16.4910  -55.8510   34.2970 H   0  0  0  0  0  0  0  0  0  0  0  0
   17.8340  -56.9200   34.7310 H   0  0  0  0  0  0  0  0  0  0  0  0
   12.1570  -59.5680   33.5090 H   0  0  0  0  0  0  0  0  0  0  0  0
   12.3370  -58.1360   36.1340 H   0  0  0  0  0  0  0  0  0  0  0  0
   11.0570  -59.1890   35.5140 H   0  0  0  0  0  0  0  0  0  0  0  0
   12.7220  -61.1090   35.6530 H   0  0  0  0  0  0  0  0  0  0  0  0
   13.6450  -60.1230   36.8330 H   0  0  0  0  0  0  0  0  0  0  0  0
   10.0760  -59.5320   38.1870 H   0  0  0  0  0  0  0  0  0  0  0  0
   11.5110  -58.6260   37.6590 H   0  0  0  0  0  0  0  0  0  0  0  0
   12.8330  -59.5720   39.5380 H   0  0  0  0  0  0  0  0  0  0  0  0
   11.3110  -58.7510   40.1030 H   0  0  0  0  0  0  0  0  0  0  0  0
   12.0690  -62.6590   40.1230 H   0  0  0  0  0  0  0  0  0  0  0  0
   10.4900  -62.4450   39.3510 H   0  0  0  0  0  0  0  0  0  0  0  0
   11.9120  -62.7100   37.5120 H   0  0  0  0  0  0  0  0  0  0  0  0
   13.2070  -61.7510   38.2610 H   0  0  0  0  0  0  0  0  0  0  0  0
  1  2  1  0  0  0  0
  2  3  2  0  0  0  0
  3  4  2  0  0  0  0
  4  5  1  0  0  0  0
  6  5  2  0  0  0  0
  6 28  1  0  0  0  0
  7  6  1  0  0  0  0
  8  7  1  0  0  0  0
  8  4  1  0  0  0  0
  9  8  2  0  0  0  0
 10  9  1  0  0  0  0
 10  2  1  0  0  0  0
 11 12  1  0  0  0  0
 11  9  1  0  0  0  0
 12 30  1  0  0  0  0
 12 31  1  0  0  0  0
 13 33  1  0  0  0  0
 13 12  1  0  0  0  0
 14 34  1  6  0  0  0
 14 13  1  0  0  0  0
 15 14  1  0  0  0  0
 15 16  1  0  0  0  0
 16 38  1  0  0  0  0
 16 11  1  0  0  0  0
 17 14  1  0  0  0  0
 17 19  1  0  0  0  0
 18 17  2  0  0  0  0
 19 20  1  0  0  0  0
 20 40  1  0  0  0  0
 20 21  1  0  0  0  0
 21 43  1  0  0  0  0
 21 22  1  0  0  0  0
 22 27  1  0  0  0  0
 22 23  1  0  0  0  0
 23 44  1  0  0  0  0
 23 24  1  0  0  0  0
 24 47  1  0  0  0  0
 24 25  1  0  0  0  0
 26 48  1  0  0  0  0
 26 25  1  0  0  0  0
 27 51  1  0  0  0  0
 27 26  1  0  0  0  0
 29  7  1  0  0  0  0
 32 13  1  0  0  0  0
 35 15  1  0  0  0  0
 36 15  1  0  0  0  0
 37 16  1  0  0  0  0
 39 19  1  0  0  0  0
 41 20  1  0  0  0  0
 42 21  1  0  0  0  0
 45 23  1  0  0  0  0
 46 24  1  0  0  0  0
 49 26  1  0  0  0  0
 50 27  1  0  0  0  0
M  END
>  <Pose>
1

>  <Score>
-6.43

$$$$
