
 OpenBabel03232204043D

 39 42  0  0  0  0  0  0  0  0999 V2000
   14.5350  -62.6340   29.8280 Cl  0  0  0  0  0  0  0  0  0  0  0  0
   15.2870  -61.4670   30.9030 C   0  0  0  0  0  0  0  0  0  0  0  0
   14.6440  -61.0280   32.0460 C   0  0  0  0  0  0  0  0  0  0  0  0
   15.2520  -60.1090   32.8790 C   0  0  0  0  0  0  0  0  0  0  0  0
   16.5010  -59.5950   32.6170 C   0  0  0  0  0  0  0  0  0  0  0  0
   17.1460  -60.0290   31.4770 C   0  0  0  0  0  0  0  0  0  0  0  0
   16.5470  -60.9510   30.6350 C   0  0  0  0  0  0  0  0  0  0  0  0
   17.1320  -58.6270   33.5030 C   0  0  0  0  0  0  0  0  0  0  0  0
   18.1690  -58.8730   34.3170 N   0  0  0  0  0  0  0  0  0  0  0  0
   18.4920  -57.7980   34.9720 O   0  0  0  0  0  0  0  0  0  0  0  0
   17.6890  -56.8260   34.6140 C   0  0  0  0  0  0  0  0  0  0  0  0
   16.8300  -57.3340   33.6910 N   0  0  0  0  0  0  0  0  0  0  0  0
   17.7520  -55.4510   35.1480 C   0  0  0  0  0  0  0  0  0  0  0  0
   16.9690  -55.3600   36.3810 N   0  0  0  0  0  0  0  0  0  0  0  0
   17.0340  -54.2210   37.1020 C   0  0  0  0  0  0  0  0  0  0  0  0
   16.3200  -54.0830   38.2650 C   0  0  0  0  0  0  0  0  0  0  0  0
   15.4780  -55.1920   38.7250 C   0  0  0  0  0  0  0  0  0  0  0  0
   14.9030  -54.7850   39.8770 N   0  0  0  0  0  0  0  0  0  0  0  0
   15.3030  -53.5610   40.1560 N   0  0  0  0  0  0  0  0  0  0  0  0
   16.1510  -53.0910   39.2300 C   0  0  0  0  0  0  0  0  0  0  0  0
   16.7110  -51.9690   39.1980 O   0  0  0  0  0  0  0  0  0  0  0  0
   15.4440  -56.3360   37.9550 C   0  0  0  0  0  0  0  0  0  0  0  0
   16.1990  -56.3550   36.8160 C   0  0  0  0  0  0  0  0  0  0  0  0
   14.6150  -57.4640   38.3820 C   0  0  0  0  0  0  0  0  0  0  0  0
   15.1330  -58.5270   38.7510 O   0  0  0  0  0  0  0  0  0  0  0  0
   13.2330  -57.3740   38.3830 O   0  0  0  0  0  0  0  0  0  0  0  0
   12.3800  -58.4790   38.5620 C   0  0  0  0  0  0  0  0  0  0  0  0
   13.6540  -61.4230   32.2720 H   0  0  0  0  0  0  0  0  0  0  0  0
   14.7470  -59.7680   33.7730 H   0  0  0  0  0  0  0  0  0  0  0  0
   18.1330  -59.6270   31.2660 H   0  0  0  0  0  0  0  0  0  0  0  0
   17.0460  -61.2940   29.7430 H   0  0  0  0  0  0  0  0  0  0  0  0
   18.7980  -55.2290   35.4140 H   0  0  0  0  0  0  0  0  0  0  0  0
   17.3360  -54.7100   34.4230 H   0  0  0  0  0  0  0  0  0  0  0  0
   17.6510  -53.4010   36.7680 H   0  0  0  0  0  0  0  0  0  0  0  0
   14.9990  -53.0300   40.9920 H   0  0  0  0  0  0  0  0  0  0  0  0
   16.1600  -57.2670   36.2190 H   0  0  0  0  0  0  0  0  0  0  0  0
   12.9140  -59.4380   38.6040 H   0  0  0  0  0  0  0  0  0  0  0  0
   11.7950  -58.3920   39.5230 H   0  0  0  0  0  0  0  0  0  0  0  0
   11.6120  -58.4280   37.7620 H   0  0  0  0  0  0  0  0  0  0  0  0
  1  2  1  0  0  0  0
  2  3  1  0  0  0  0
  3 28  1  0  0  0  0
  3  4  2  0  0  0  0
  4 29  1  0  0  0  0
  5  4  1  0  0  0  0
  5  8  1  0  0  0  0
  6  5  2  0  0  0  0
  7  2  2  0  0  0  0
  7  6  1  0  0  0  0
  8 12  1  0  0  0  0
  8  9  2  0  0  0  0
  9 10  1  0  0  0  0
 11 10  1  0  0  0  0
 11 13  1  0  0  0  0
 12 11  2  0  0  0  0
 13 32  1  0  0  0  0
 13 14  1  0  0  0  0
 14 23  1  0  0  0  0
 14 15  1  0  0  0  0
 15 16  1  0  0  0  0
 16 17  2  0  0  0  0
 16 20  1  0  0  0  0
 17 18  1  0  0  0  0
 18 19  1  0  0  0  0
 19 35  1  0  0  0  0
 20 19  1  0  0  0  0
 21 20  2  0  0  0  0
 22 24  1  0  0  0  0
 22 17  1  0  0  0  0
 23 22  2  0  0  0  0
 24 26  1  0  0  0  0
 24 25  2  0  0  0  0
 26 27  1  0  0  0  0
 27 37  1  0  0  0  0
 27 38  1  0  0  0  0
 30  6  1  0  0  0  0
 31  7  1  0  0  0  0
 33 13  1  0  0  0  0
 34 15  1  0  0  0  0
 36 23  1  0  0  0  0
 39 27  1  0  0  0  0
M  END
>  <Pose>
1

>  <Score>
-7.08

$$$$
