
 OpenBabel03232204043D

 54 57  0  0  1  0  0  0  0  0999 V2000
   14.1460  -60.4630   33.8360 Cl  0  0  0  0  0  0  0  0  0  0  0  0
   15.1050  -61.9140   33.6670 C   0  0  0  0  0  0  0  0  0  0  0  0
   16.3080  -61.8320   32.9750 C   0  0  0  0  0  0  0  0  0  0  0  0
   17.0540  -62.9790   32.9120 C   0  0  0  0  0  0  0  0  0  0  0  0
   16.6160  -64.1590   33.5010 C   0  0  0  0  0  0  0  0  0  0  0  0
   15.3970  -64.2450   34.2040 C   0  0  0  0  0  0  0  0  0  0  0  0
   14.6850  -63.0630   34.2540 C   0  0  0  0  0  0  0  0  0  0  0  0
   16.5970  -60.5850   32.2210 C   0  0  0  0  0  0  0  0  0  0  0  0
   17.7470  -59.9040   32.6960 N   0  0  0  0  0  0  0  0  0  0  0  0
   17.8440  -58.5640   33.0780 C   0  0  0  0  0  0  0  0  0  0  0  0
   17.8100  -57.6550   32.2900 O   0  0  0  0  0  0  0  0  0  0  0  0
   17.9800  -58.2650   34.5750 C   0  0  0  0  0  0  0  0  0  0  0  0
   17.9250  -56.8300   34.7170 N   0  0  0  0  0  0  0  0  0  0  0  0
   17.9660  -55.9570   33.6370 C   0  0  0  0  0  0  0  0  0  0  0  0
   17.5660  -54.5210   34.1810 C   0  0  0  0  0  0  0  0  0  0  0  0
   18.0360  -54.6110   35.5380 N   0  0  0  0  0  0  0  0  0  0  0  0
   17.0400  -55.3180   36.3960 C   0  0  0  0  0  0  0  0  0  0  0  0
   16.7250  -56.5380   35.5770 C   0  0  0  0  0  0  0  0  0  0  0  0
   19.1850  -54.0550   36.0160 C   0  0  0  0  0  0  0  0  0  0  0  0
   20.0030  -54.8220   36.6310 O   0  0  0  0  0  0  0  0  0  0  0  0
   19.6190  -52.6250   35.9350 C   0  0  1  0  0  0  0  0  0  0  0  0
   18.4480  -51.8730   36.3950 O   0  0  0  0  0  0  0  0  0  0  0  0
   17.7840  -52.5840   37.4370 C   0  0  0  0  0  0  0  0  0  0  0  0
   18.5630  -53.3060   38.3010 C   0  0  0  0  0  0  0  0  0  0  0  0
   18.0050  -54.0370   39.3440 C   0  0  0  0  0  0  0  0  0  0  0  0
   16.6210  -53.9910   39.4590 C   0  0  0  0  0  0  0  0  0  0  0  0
   15.8090  -53.2680   38.6120 C   0  0  0  0  0  0  0  0  0  0  0  0
   16.4020  -52.5530   37.5910 C   0  0  0  0  0  0  0  0  0  0  0  0
   19.9520  -53.3070   38.1300 O   0  0  0  0  0  0  0  0  0  0  0  0
   20.5840  -52.4570   37.1400 C   0  0  0  0  0  0  0  0  0  0  0  0
   18.0000  -63.0310   32.3960 H   0  0  0  0  0  0  0  0  0  0  0  0
   17.1640  -65.0960   33.4640 H   0  0  0  0  0  0  0  0  0  0  0  0
   15.0830  -65.1740   34.6530 H   0  0  0  0  0  0  0  0  0  0  0  0
   13.7710  -63.0960   34.8130 H   0  0  0  0  0  0  0  0  0  0  0  0
   16.8360  -60.9780   31.1650 H   0  0  0  0  0  0  0  0  0  0  0  0
   15.7070  -59.9510   32.2200 H   0  0  0  0  0  0  0  0  0  0  0  0
   18.6880  -60.4380   32.6960 H   0  0  0  0  0  0  0  0  0  0  0  0
   17.1570  -58.7180   35.1410 H   0  0  0  0  0  0  0  0  0  0  0  0
   18.9560  -58.6430   34.8980 H   0  0  0  0  0  0  0  0  0  0  0  0
   17.3580  -56.1170   32.7690 H   0  0  0  0  0  0  0  0  0  0  0  0
   19.0550  -55.7610   33.3780 H   0  0  0  0  0  0  0  0  0  0  0  0
   16.4700  -54.4630   34.1390 H   0  0  0  0  0  0  0  0  0  0  0  0
   18.0780  -53.7490   33.6200 H   0  0  0  0  0  0  0  0  0  0  0  0
   16.1420  -54.6750   36.3610 H   0  0  0  0  0  0  0  0  0  0  0  0
   17.3800  -55.4730   37.3970 H   0  0  0  0  0  0  0  0  0  0  0  0
   15.9280  -56.3290   34.8430 H   0  0  0  0  0  0  0  0  0  0  0  0
   16.5000  -57.4490   36.1150 H   0  0  0  0  0  0  0  0  0  0  0  0
   20.0080  -52.2980   35.0050 H   0  0  0  0  0  0  0  0  0  0  0  0
   18.6510  -54.6210   40.0140 H   0  0  0  0  0  0  0  0  0  0  0  0
   16.1850  -54.5750   40.2600 H   0  0  0  0  0  0  0  0  0  0  0  0
   14.7100  -53.2730   38.7360 H   0  0  0  0  0  0  0  0  0  0  0  0
   15.8170  -51.9670   36.8940 H   0  0  0  0  0  0  0  0  0  0  0  0
   21.5010  -53.0240   36.8270 H   0  0  0  0  0  0  0  0  0  0  0  0
   20.7240  -51.4430   37.4390 H   0  0  0  0  0  0  0  0  0  0  0  0
  2  1  1  0  0  0  0
  2  7  1  0  0  0  0
  3  2  2  0  0  0  0
  4  3  1  0  0  0  0
  4  5  2  0  0  0  0
  5  6  1  0  0  0  0
  6  7  2  0  0  0  0
  6 33  1  0  0  0  0
  7 34  1  0  0  0  0
  8  9  1  0  0  0  0
  8  3  1  0  0  0  0
  9 37  1  0  0  0  0
  9 10  1  0  0  0  0
 10 12  1  0  0  0  0
 11 10  2  0  0  0  0
 12 13  1  0  0  0  0
 12 39  1  0  0  0  0
 12 38  1  0  0  0  0
 13 18  1  0  0  0  0
 14 15  1  0  0  0  0
 14 13  1  0  0  0  0
 15 16  1  0  0  0  0
 16 19  1  0  0  0  0
 16 17  1  0  0  0  0
 17 45  1  0  0  0  0
 18 47  1  0  0  0  0
 18 17  1  0  0  0  0
 19 20  2  0  0  0  0
 21 48  1  6  0  0  0
 21 19  1  0  0  0  0
 21 22  1  0  0  0  0
 21 30  1  0  0  0  0
 22 23  1  0  0  0  0
 23 28  2  0  0  0  0
 23 24  1  0  0  0  0
 24 25  2  0  0  0  0
 25 26  1  0  0  0  0
 25 49  1  0  0  0  0
 26 50  1  0  0  0  0
 27 51  1  0  0  0  0
 27 26  2  0  0  0  0
 28 27  1  0  0  0  0
 29 24  1  0  0  0  0
 30 54  1  0  0  0  0
 30 29  1  0  0  0  0
 31  4  1  0  0  0  0
 32  5  1  0  0  0  0
 35  8  1  0  0  0  0
 36  8  1  0  0  0  0
 40 14  1  0  0  0  0
 41 14  1  0  0  0  0
 42 15  1  0  0  0  0
 43 15  1  0  0  0  0
 44 17  1  0  0  0  0
 46 18  1  0  0  0  0
 52 28  1  0  0  0  0
 53 30  1  0  0  0  0
M  END
>  <Pose>
1

>  <Score>
-5.16

$$$$
