
 OpenBabel03232204043D

 45 48  0  0  0  0  0  0  0  0999 V2000
   11.7690  -59.3580   36.6450 Cl  0  0  0  0  0  0  0  0  0  0  0  0
   13.4450  -58.8680   36.5210 C   0  0  0  0  0  0  0  0  0  0  0  0
   14.1010  -58.4910   37.6540 C   0  0  0  0  0  0  0  0  0  0  0  0
   15.4400  -58.0920   37.5970 C   0  0  0  0  0  0  0  0  0  0  0  0
   16.1430  -58.0600   36.4380 C   0  0  0  0  0  0  0  0  0  0  0  0
   15.4380  -58.4540   35.2900 C   0  0  0  0  0  0  0  0  0  0  0  0
   14.1210  -58.8490   35.3230 C   0  0  0  0  0  0  0  0  0  0  0  0
   17.5550  -57.7030   36.3330 C   0  0  0  0  0  0  0  0  0  0  0  0
   17.9110  -56.7360   35.3280 N   0  0  0  0  0  0  0  0  0  0  0  0
   18.4040  -57.0930   34.1030 C   0  0  0  0  0  0  0  0  0  0  0  0
   18.6500  -55.9740   33.3560 C   0  0  0  0  0  0  0  0  0  0  0  0
   18.3000  -54.9660   34.1440 N   0  0  0  0  0  0  0  0  0  0  0  0
   17.8430  -55.4050   35.3610 C   0  0  0  0  0  0  0  0  0  0  0  0
   17.4000  -54.5190   36.3690 N   0  0  0  0  0  0  0  0  0  0  0  0
   16.3720  -54.9950   37.2850 C   0  0  0  0  0  0  0  0  0  0  0  0
   16.7600  -54.3450   38.6250 C   0  0  0  0  0  0  0  0  0  0  0  0
   18.1940  -54.2110   38.7560 N   0  0  0  0  0  0  0  0  0  0  0  0
   18.7840  -53.2770   37.8210 C   0  0  0  0  0  0  0  0  0  0  0  0
   17.8260  -53.1960   36.6410 C   0  0  0  0  0  0  0  0  0  0  0  0
   19.1340  -56.0530   32.1030 N   0  0  0  0  0  0  0  0  0  0  0  0
   19.3890  -57.2700   31.5540 C   0  0  0  0  0  0  0  0  0  0  0  0
   19.8390  -57.2940   30.3870 O   0  0  0  0  0  0  0  0  0  0  0  0
   19.1630  -58.3980   32.2490 N   0  0  0  0  0  0  0  0  0  0  0  0
   18.6790  -58.3070   33.4970 C   0  0  0  0  0  0  0  0  0  0  0  0
   18.4850  -59.3850   34.1000 O   0  0  0  0  0  0  0  0  0  0  0  0
   19.3670  -54.8140   31.3810 C   0  0  0  0  0  0  0  0  0  0  0  0
   13.6170  -58.4880   38.6170 H   0  0  0  0  0  0  0  0  0  0  0  0
   15.8960  -57.7970   38.5290 H   0  0  0  0  0  0  0  0  0  0  0  0
   15.9840  -58.4380   34.3400 H   0  0  0  0  0  0  0  0  0  0  0  0
   13.5770  -59.1540   34.4390 H   0  0  0  0  0  0  0  0  0  0  0  0
   18.2270  -58.6150   36.2840 H   0  0  0  0  0  0  0  0  0  0  0  0
   17.8490  -57.2920   37.3400 H   0  0  0  0  0  0  0  0  0  0  0  0
   16.3450  -56.0850   37.3680 H   0  0  0  0  0  0  0  0  0  0  0  0
   15.3720  -54.6070   37.0400 H   0  0  0  0  0  0  0  0  0  0  0  0
   16.2030  -53.4040   38.7860 H   0  0  0  0  0  0  0  0  0  0  0  0
   16.4500  -55.0630   39.4240 H   0  0  0  0  0  0  0  0  0  0  0  0
   18.3730  -53.8530   39.7090 H   0  0  0  0  0  0  0  0  0  0  0  0
   19.8030  -53.5740   37.5010 H   0  0  0  0  0  0  0  0  0  0  0  0
   18.8790  -52.2580   38.2640 H   0  0  0  0  0  0  0  0  0  0  0  0
   16.9530  -52.5860   37.0830 H   0  0  0  0  0  0  0  0  0  0  0  0
   18.1440  -52.5640   35.8330 H   0  0  0  0  0  0  0  0  0  0  0  0
   19.3750  -59.3050   31.7820 H   0  0  0  0  0  0  0  0  0  0  0  0
   20.2150  -54.2500   31.8390 H   0  0  0  0  0  0  0  0  0  0  0  0
   18.4660  -54.1420   31.4080 H   0  0  0  0  0  0  0  0  0  0  0  0
   19.6220  -54.9740   30.3280 H   0  0  0  0  0  0  0  0  0  0  0  0
  2  1  1  0  0  0  0
  2  3  1  0  0  0  0
  3 27  1  0  0  0  0
  4  3  2  0  0  0  0
  4 28  1  0  0  0  0
  5  4  1  0  0  0  0
  6  7  1  0  0  0  0
  6  5  2  0  0  0  0
  7  2  2  0  0  0  0
  8  5  1  0  0  0  0
  8 32  1  0  0  0  0
  9 13  1  0  0  0  0
  9  8  1  0  0  0  0
 10  9  1  0  0  0  0
 11 10  2  0  0  0  0
 11 12  1  0  0  0  0
 12 13  2  0  0  0  0
 13 14  1  0  0  0  0
 14 19  1  0  0  0  0
 14 15  1  0  0  0  0
 15 33  1  0  0  0  0
 15 16  1  0  0  0  0
 16 17  1  0  0  0  0
 16 35  1  0  0  0  0
 16 36  1  0  0  0  0
 17 37  1  0  0  0  0
 18 39  1  0  0  0  0
 18 17  1  0  0  0  0
 19 40  1  0  0  0  0
 19 18  1  0  0  0  0
 20 11  1  0  0  0  0
 21 20  1  0  0  0  0
 21 23  1  0  0  0  0
 22 21  2  0  0  0  0
 23 24  1  0  0  0  0
 24 25  2  0  0  0  0
 24 10  1  0  0  0  0
 26 44  1  0  0  0  0
 26 43  1  0  0  0  0
 26 20  1  0  0  0  0
 29  6  1  0  0  0  0
 30  7  1  0  0  0  0
 31  8  1  0  0  0  0
 34 15  1  0  0  0  0
 38 18  1  0  0  0  0
 41 19  1  0  0  0  0
 42 23  1  0  0  0  0
 45 26  1  0  0  0  0
M  END
>  <Pose>
1

>  <Score>
-6.13

$$$$
