
 OpenBabel03232204043D

 34 37  0  0  1  0  0  0  0  0999 V2000
   11.4380  -60.0670   37.5020 Cl  0  0  0  0  0  0  0  0  0  0  0  0
   12.6160  -58.7600   37.5470 C   0  0  0  0  0  0  0  0  0  0  0  0
   13.3110  -58.3860   36.4230 C   0  0  0  0  0  0  0  0  0  0  0  0
   14.2300  -57.3630   36.4660 C   0  0  0  0  0  0  0  0  0  0  0  0
   14.5020  -56.6640   37.6270 C   0  0  0  0  0  0  0  0  0  0  0  0
   13.7950  -57.0530   38.7430 C   0  0  0  0  0  0  0  0  0  0  0  0
   12.8720  -58.0730   38.7220 C   0  0  0  0  0  0  0  0  0  0  0  0
   15.4640  -55.6150   37.6200 N   0  0  0  0  0  0  0  0  0  0  0  0
   16.6550  -55.5180   36.8260 C   0  0  0  0  0  0  0  0  0  0  0  0
   17.2450  -56.5560   36.3660 O   0  0  0  0  0  0  0  0  0  0  0  0
   17.0240  -54.1020   36.6660 C   0  0  1  0  0  0  0  0  0  0  0  0
   16.2950  -53.4320   37.8060 C   0  0  2  0  0  0  0  0  0  0  0  0
   17.3110  -52.8320   38.7540 C   0  0  2  0  0  0  0  0  0  0  0  0
   17.9740  -51.6900   37.9700 C   0  0  0  0  0  0  0  0  0  0  0  0
   18.6910  -52.3570   36.8320 C   0  0  0  0  0  0  0  0  0  0  0  0
   19.3790  -51.7150   36.0840 O   0  0  0  0  0  0  0  0  0  0  0  0
   18.4910  -53.8420   36.6970 C   0  0  1  0  0  0  0  0  0  0  0  0
   19.1160  -54.4530   37.9560 C   0  0  0  0  0  0  0  0  0  0  0  0
   18.3950  -53.8110   39.1100 C   0  0  0  0  0  0  0  0  0  0  0  0
   18.6980  -54.0900   40.2370 O   0  0  0  0  0  0  0  0  0  0  0  0
   15.4240  -54.4370   38.4130 C   0  0  0  0  0  0  0  0  0  0  0  0
   14.7540  -54.2840   39.4590 O   0  0  0  0  0  0  0  0  0  0  0  0
   13.1170  -58.9150   35.5080 H   0  0  0  0  0  0  0  0  0  0  0  0
   14.7900  -57.0570   35.5720 H   0  0  0  0  0  0  0  0  0  0  0  0
   13.9650  -56.5440   39.6790 H   0  0  0  0  0  0  0  0  0  0  0  0
   12.3100  -58.3810   39.6130 H   0  0  0  0  0  0  0  0  0  0  0  0
   16.6440  -53.7380   35.6720 H   0  0  0  0  0  0  0  0  0  0  0  0
   15.7090  -52.5850   37.3850 H   0  0  0  0  0  0  0  0  0  0  0  0
   16.8350  -52.4660   39.6810 H   0  0  0  0  0  0  0  0  0  0  0  0
   17.1250  -51.1270   37.4960 H   0  0  0  0  0  0  0  0  0  0  0  0
   18.6270  -51.0820   38.5910 H   0  0  0  0  0  0  0  0  0  0  0  0
   18.9640  -54.1870   35.7790 H   0  0  0  0  0  0  0  0  0  0  0  0
   20.1960  -54.1460   37.9290 H   0  0  0  0  0  0  0  0  0  0  0  0
   19.0210  -55.5430   37.9730 H   0  0  0  0  0  0  0  0  0  0  0  0
  1  2  1  0  0  0  0
  2  7  1  0  0  0  0
  3  4  1  0  0  0  0
  3  2  2  0  0  0  0
  4  5  2  0  0  0  0
  5  6  1  0  0  0  0
  6 25  1  0  0  0  0
  7  6  2  0  0  0  0
  7 26  1  0  0  0  0
  8  5  1  0  0  0  0
  8 21  1  0  0  0  0
  9  8  1  0  0  0  0
 10  9  2  0  0  0  0
 11 27  1  6  0  0  0
 11 17  1  0  0  0  0
 11  9  1  0  0  0  0
 11 12  1  0  0  0  0
 12 28  1  6  0  0  0
 12 21  1  0  0  0  0
 12 13  1  0  0  0  0
 13 19  1  0  0  0  0
 13 29  1  1  0  0  0
 14 31  1  0  0  0  0
 14 13  1  0  0  0  0
 15 14  1  0  0  0  0
 16 15  2  0  0  0  0
 17 32  1  6  0  0  0
 17 15  1  0  0  0  0
 17 18  1  0  0  0  0
 18 34  1  0  0  0  0
 18 19  1  0  0  0  0
 19 20  2  0  0  0  0
 21 22  2  0  0  0  0
 23  3  1  0  0  0  0
 24  4  1  0  0  0  0
 30 14  1  0  0  0  0
 33 18  1  0  0  0  0
M  END
>  <Pose>
1

>  <Score>
-5.96

$$$$
