
 OpenBabel03232204043D

 47 51  0  0  1  0  0  0  0  0999 V2000
   20.2380  -53.5800   34.1420 Cl  0  0  0  0  0  0  0  0  0  0  0  0
   19.0510  -54.7770   34.6280 C   0  0  0  0  0  0  0  0  0  0  0  0
   18.8790  -55.9130   33.8750 C   0  0  0  0  0  0  0  0  0  0  0  0
   17.9300  -56.8510   34.2650 C   0  0  0  0  0  0  0  0  0  0  0  0
   17.1430  -56.7060   35.3750 C   0  0  0  0  0  0  0  0  0  0  0  0
   17.3380  -55.5610   36.1080 C   0  0  0  0  0  0  0  0  0  0  0  0
   18.2860  -54.6010   35.7390 C   0  0  0  0  0  0  0  0  0  0  0  0
   16.1850  -57.6470   35.7660 N   0  0  0  0  0  0  0  0  0  0  0  0
   15.3130  -58.4540   34.9440 C   0  0  0  0  0  0  0  0  0  0  0  0
   15.2390  -58.4170   33.7130 O   0  0  0  0  0  0  0  0  0  0  0  0
   14.5160  -59.3430   35.8000 C   0  0  2  0  0  0  0  0  0  0  0  0
   13.0380  -59.3930   35.4940 C   0  0  2  0  0  0  0  0  0  0  0  0
   12.3830  -58.4060   36.3180 N   0  0  0  0  0  0  0  0  0  0  0  0
   13.4340  -57.5650   36.8560 C   0  0  2  0  0  0  0  0  0  0  0  0
   14.5250  -58.5860   37.1080 C   0  0  2  0  0  0  0  0  0  0  0  0
   15.8820  -58.0100   37.1240 C   0  0  0  0  0  0  0  0  0  0  0  0
   16.5700  -57.8940   38.1410 O   0  0  0  0  0  0  0  0  0  0  0  0
   13.0210  -56.8800   38.1330 C   0  0  0  0  0  0  0  0  0  0  0  0
   14.0710  -56.0760   38.7500 C   0  0  0  0  0  0  0  0  0  0  0  0
   14.3600  -56.2260   39.9520 O   0  0  0  0  0  0  0  0  0  0  0  0
   14.7700  -55.1170   37.9820 N   0  0  0  0  0  0  0  0  0  0  0  0
   12.6160  -60.7890   35.8610 C   0  0  0  0  0  0  0  0  0  0  0  0
   12.3210  -61.4490   34.7020 C   0  0  0  0  0  0  0  0  0  0  0  0
   11.9500  -62.8030   34.6970 C   0  0  0  0  0  0  0  0  0  0  0  0
   11.8710  -63.5030   35.8830 C   0  0  0  0  0  0  0  0  0  0  0  0
   12.1640  -62.8420   37.0450 C   0  0  0  0  0  0  0  0  0  0  0  0
   12.5290  -61.5120   37.0330 C   0  0  0  0  0  0  0  0  0  0  0  0
   12.3670  -60.5700   33.5900 N   0  0  0  0  0  0  0  0  0  0  0  0
   12.7040  -59.2850   34.0880 C   0  0  0  0  0  0  0  0  0  0  0  0
   12.6960  -58.2530   33.3840 O   0  0  0  0  0  0  0  0  0  0  0  0
   19.4810  -56.0790   32.9800 H   0  0  0  0  0  0  0  0  0  0  0  0
   17.8430  -57.7030   33.6430 H   0  0  0  0  0  0  0  0  0  0  0  0
   16.7850  -55.3410   36.9910 H   0  0  0  0  0  0  0  0  0  0  0  0
   18.4260  -53.6980   36.3340 H   0  0  0  0  0  0  0  0  0  0  0  0
   14.9670  -60.3520   35.9040 H   0  0  0  0  0  0  0  0  0  0  0  0
   11.7300  -57.8620   35.7060 H   0  0  0  0  0  0  0  0  0  0  0  0
   13.8250  -56.8620   36.0890 H   0  0  0  0  0  0  0  0  0  0  0  0
   14.3150  -59.2120   37.9900 H   0  0  0  0  0  0  0  0  0  0  0  0
   12.7440  -57.7080   38.8540 H   0  0  0  0  0  0  0  0  0  0  0  0
   12.0760  -56.3320   37.9320 H   0  0  0  0  0  0  0  0  0  0  0  0
   15.3620  -55.3440   37.1460 H   0  0  0  0  0  0  0  0  0  0  0  0
   14.7450  -54.0780   38.1990 H   0  0  0  0  0  0  0  0  0  0  0  0
   11.7190  -63.3190   33.7730 H   0  0  0  0  0  0  0  0  0  0  0  0
   11.5830  -64.5560   35.8490 H   0  0  0  0  0  0  0  0  0  0  0  0
   12.1060  -63.3670   37.9790 H   0  0  0  0  0  0  0  0  0  0  0  0
   12.7520  -61.0020   37.9650 H   0  0  0  0  0  0  0  0  0  0  0  0
   12.1820  -60.8270   32.5720 H   0  0  0  0  0  0  0  0  0  0  0  0
  1  2  1  0  0  0  0
  2  7  1  0  0  0  0
  3  4  1  0  0  0  0
  3  2  2  0  0  0  0
  4  5  2  0  0  0  0
  5  8  1  0  0  0  0
  5  6  1  0  0  0  0
  6 33  1  0  0  0  0
  7  6  2  0  0  0  0
  7 34  1  0  0  0  0
  8 16  1  0  0  0  0
  9  8  1  0  0  0  0
  9 11  1  0  0  0  0
 10  9  2  0  0  0  0
 11 35  1  1  0  0  0
 11 15  1  0  0  0  0
 12 29  1  6  0  0  0
 12 11  1  0  0  0  0
 12 22  1  0  0  0  0
 12 13  1  0  0  0  0
 13 14  1  0  0  0  0
 14 37  1  6  0  0  0
 14 15  1  0  0  0  0
 14 18  1  0  0  0  0
 15 16  1  0  0  0  0
 15 38  1  1  0  0  0
 16 17  2  0  0  0  0
 18 19  1  0  0  0  0
 18 39  1  0  0  0  0
 19 20  2  0  0  0  0
 21 42  1  0  0  0  0
 21 19  1  0  0  0  0
 22 27  1  0  0  0  0
 23 22  2  0  0  0  0
 24 23  1  0  0  0  0
 24 25  2  0  0  0  0
 25 26  1  0  0  0  0
 26 45  1  0  0  0  0
 27 26  2  0  0  0  0
 27 46  1  0  0  0  0
 28 29  1  0  0  0  0
 28 23  1  0  0  0  0
 30 29  2  0  0  0  0
 31  3  1  0  0  0  0
 32  4  1  0  0  0  0
 36 13  1  0  0  0  0
 40 18  1  0  0  0  0
 41 21  1  0  0  0  0
 43 24  1  0  0  0  0
 44 25  1  0  0  0  0
 47 28  1  0  0  0  0
M  END
>  <Pose>
1

>  <Score>
-7.38

$$$$
