
 OpenBabel03232204043D

 40 43  0  0  0  0  0  0  0  0999 V2000
   16.0340  -59.3400   33.2820 Cl  0  0  0  0  0  0  0  0  0  0  0  0
   16.2100  -58.1220   34.5300 C   0  0  0  0  0  0  0  0  0  0  0  0
   15.2220  -57.8870   35.4590 C   0  0  0  0  0  0  0  0  0  0  0  0
   15.3750  -56.9120   36.4490 C   0  0  0  0  0  0  0  0  0  0  0  0
   16.5540  -56.1830   36.4740 C   0  0  0  0  0  0  0  0  0  0  0  0
   17.5500  -56.4060   35.5530 C   0  0  0  0  0  0  0  0  0  0  0  0
   17.3870  -57.3650   34.5850 C   0  0  0  0  0  0  0  0  0  0  0  0
   16.7610  -55.1450   37.5000 C   0  0  0  0  0  0  0  0  0  0  0  0
   17.7380  -54.3400   37.7450 N   0  0  0  0  0  0  0  0  0  0  0  0
   17.4810  -53.4890   38.8740 C   0  0  0  0  0  0  0  0  0  0  0  0
   16.1170  -53.8960   39.3380 C   0  0  0  0  0  0  0  0  0  0  0  0
   15.7180  -54.9410   38.4330 N   0  0  0  0  0  0  0  0  0  0  0  0
   14.5210  -55.7060   38.3810 C   0  0  0  0  0  0  0  0  0  0  0  0
   13.5780  -55.5400   39.2060 O   0  0  0  0  0  0  0  0  0  0  0  0
   14.3170  -56.7190   37.3800 N   0  0  0  0  0  0  0  0  0  0  0  0
   13.0820  -57.4910   37.3470 C   0  0  0  0  0  0  0  0  0  0  0  0
   13.0020  -58.4210   38.4970 C   0  0  0  0  0  0  0  0  0  0  0  0
   13.8490  -59.3440   38.5730 O   0  0  0  0  0  0  0  0  0  0  0  0
   12.0180  -58.3160   39.5090 N   0  0  0  0  0  0  0  0  0  0  0  0
   11.3060  -59.4670   40.0070 C   0  0  0  0  0  0  0  0  0  0  0  0
    9.8230  -59.2720   39.8320 C   0  0  0  0  0  0  0  0  0  0  0  0
    8.9130  -60.4430   39.9470 C   0  0  0  0  0  0  0  0  0  0  0  0
    9.1970  -59.8740   38.6090 C   0  0  0  0  0  0  0  0  0  0  0  0
   14.2970  -58.4620   35.4390 H   0  0  0  0  0  0  0  0  0  0  0  0
   18.4540  -55.8370   35.5810 H   0  0  0  0  0  0  0  0  0  0  0  0
   18.1420  -57.5880   33.8250 H   0  0  0  0  0  0  0  0  0  0  0  0
   17.5360  -52.4100   38.6190 H   0  0  0  0  0  0  0  0  0  0  0  0
   18.2020  -53.7170   39.7080 H   0  0  0  0  0  0  0  0  0  0  0  0
   16.1170  -54.2440   40.4030 H   0  0  0  0  0  0  0  0  0  0  0  0
   15.4530  -53.0060   39.2270 H   0  0  0  0  0  0  0  0  0  0  0  0
   12.8680  -57.9450   36.3760 H   0  0  0  0  0  0  0  0  0  0  0  0
   12.2590  -56.7320   37.5140 H   0  0  0  0  0  0  0  0  0  0  0  0
   11.8180  -57.3700   39.8940 H   0  0  0  0  0  0  0  0  0  0  0  0
   11.5700  -59.6320   41.0890 H   0  0  0  0  0  0  0  0  0  0  0  0
   11.6430  -60.3570   39.4510 H   0  0  0  0  0  0  0  0  0  0  0  0
    9.4710  -58.2450   40.0590 H   0  0  0  0  0  0  0  0  0  0  0  0
    9.3550  -61.4210   40.2450 H   0  0  0  0  0  0  0  0  0  0  0  0
    7.9280  -60.2610   40.4360 H   0  0  0  0  0  0  0  0  0  0  0  0
    9.8780  -60.4700   37.9600 H   0  0  0  0  0  0  0  0  0  0  0  0
    8.3820  -59.3160   38.0960 H   0  0  0  0  0  0  0  0  0  0  0  0
  1  2  1  0  0  0  0
  2  7  2  0  0  0  0
  2  3  1  0  0  0  0
  3  4  2  0  0  0  0
  4  5  1  0  0  0  0
  4 15  1  0  0  0  0
  5  8  1  0  0  0  0
  6 25  1  0  0  0  0
  6  5  2  0  0  0  0
  7  6  1  0  0  0  0
  8  9  2  0  0  0  0
  8 12  1  0  0  0  0
  9 10  1  0  0  0  0
 10 11  1  0  0  0  0
 10 28  1  0  0  0  0
 11 29  1  0  0  0  0
 12 11  1  0  0  0  0
 13 12  1  0  0  0  0
 13 14  2  0  0  0  0
 15 13  1  0  0  0  0
 16 15  1  0  0  0  0
 16 32  1  0  0  0  0
 16 17  1  0  0  0  0
 17 18  2  0  0  0  0
 17 19  1  0  0  0  0
 19 33  1  0  0  0  0
 19 20  1  0  0  0  0
 20 34  1  0  0  0  0
 21 22  1  0  0  0  0
 21 20  1  0  0  0  0
 21 36  1  0  0  0  0
 22 37  1  0  0  0  0
 22 38  1  0  0  0  0
 23 21  1  0  0  0  0
 23 22  1  0  0  0  0
 24  3  1  0  0  0  0
 26  7  1  0  0  0  0
 27 10  1  0  0  0  0
 30 11  1  0  0  0  0
 31 16  1  0  0  0  0
 35 20  1  0  0  0  0
 39 23  1  0  0  0  0
 40 23  1  0  0  0  0
M  END
>  <Pose>
1

>  <Score>
-5.99

$$$$
