
 OpenBabel03232204043D

 37 40  0  0  0  0  0  0  0  0999 V2000
   15.7960  -56.7210   36.3110 F   0  0  0  0  0  0  0  0  0  0  0  0
   16.1910  -55.6730   37.0750 C   0  0  0  0  0  0  0  0  0  0  0  0
   17.2360  -54.8660   36.7160 N   0  0  0  0  0  0  0  0  0  0  0  0
   17.3350  -53.9570   37.6980 C   0  0  0  0  0  0  0  0  0  0  0  0
   16.3910  -54.1950   38.6230 N   0  0  0  0  0  0  0  0  0  0  0  0
   15.6510  -55.2640   38.2680 C   0  0  0  0  0  0  0  0  0  0  0  0
   14.5090  -55.8410   39.0260 C   0  0  0  0  0  0  0  0  0  0  0  0
   14.5490  -55.4600   40.2600 O   0  0  0  0  0  0  0  0  0  0  0  0
   13.5400  -56.6620   38.5050 N   0  0  0  0  0  0  0  0  0  0  0  0
   12.5770  -57.4780   37.9880 C   0  0  0  0  0  0  0  0  0  0  0  0
   12.8930  -58.9530   38.0070 C   0  0  0  0  0  0  0  0  0  0  0  0
   12.1330  -59.9050   38.5540 N   0  0  0  0  0  0  0  0  0  0  0  0
   12.7420  -61.0640   38.3650 N   0  0  0  0  0  0  0  0  0  0  0  0
   13.8690  -60.8790   37.7120 N   0  0  0  0  0  0  0  0  0  0  0  0
   13.9540  -59.5660   37.4940 N   0  0  0  0  0  0  0  0  0  0  0  0
   10.8890  -59.6290   39.1990 C   0  0  0  0  0  0  0  0  0  0  0  0
    9.7160  -59.8830   38.4950 C   0  0  0  0  0  0  0  0  0  0  0  0
    8.4730  -59.6200   39.0580 C   0  0  0  0  0  0  0  0  0  0  0  0
    8.3620  -59.0970   40.3310 C   0  0  0  0  0  0  0  0  0  0  0  0
    9.5290  -58.8480   41.0220 C   0  0  0  0  0  0  0  0  0  0  0  0
   10.7680  -59.1090   40.4650 C   0  0  0  0  0  0  0  0  0  0  0  0
   18.3250  -53.0120   37.5820 C   0  0  0  0  0  0  0  0  0  0  0  0
   19.2040  -52.9750   36.4970 C   0  0  0  0  0  0  0  0  0  0  0  0
   19.0710  -53.9190   35.5140 C   0  0  0  0  0  0  0  0  0  0  0  0
   18.0620  -54.8650   35.6560 C   0  0  0  0  0  0  0  0  0  0  0  0
   20.1420  -53.9310   34.1140 Cl  0  0  0  0  0  0  0  0  0  0  0  0
   12.5990  -56.0900   39.3150 H   0  0  0  0  0  0  0  0  0  0  0  0
   12.3740  -57.2700   36.8740 H   0  0  0  0  0  0  0  0  0  0  0  0
   11.5240  -57.3800   38.4100 H   0  0  0  0  0  0  0  0  0  0  0  0
    9.7870  -60.2930   37.5010 H   0  0  0  0  0  0  0  0  0  0  0  0
    7.5540  -59.8110   38.5220 H   0  0  0  0  0  0  0  0  0  0  0  0
    7.3790  -58.8840   40.7770 H   0  0  0  0  0  0  0  0  0  0  0  0
    9.4450  -58.4310   42.0370 H   0  0  0  0  0  0  0  0  0  0  0  0
   11.6590  -58.8970   41.0410 H   0  0  0  0  0  0  0  0  0  0  0  0
   18.4680  -52.2460   38.3320 H   0  0  0  0  0  0  0  0  0  0  0  0
   19.9930  -52.2170   36.4160 H   0  0  0  0  0  0  0  0  0  0  0  0
   17.9730  -55.5980   34.8710 H   0  0  0  0  0  0  0  0  0  0  0  0
  1  2  1  0  0  0  0
  2  6  2  0  0  0  0
  3  2  1  0  0  0  0
  3  4  1  0  0  0  0
  4  5  2  0  0  0  0
  6  5  1  0  0  0  0
  6  7  1  0  0  0  0
  7  8  2  0  0  0  0
  9  7  1  0  0  0  0
  9 27  1  0  0  0  0
 10 11  1  0  0  0  0
 10 29  1  0  0  0  0
 10  9  1  0  0  0  0
 11 12  1  0  0  0  0
 12 16  1  0  0  0  0
 13 12  1  0  0  0  0
 14 13  2  0  0  0  0
 15 14  1  0  0  0  0
 15 11  2  0  0  0  0
 16 21  1  0  0  0  0
 17 18  1  0  0  0  0
 17 16  2  0  0  0  0
 18 19  2  0  0  0  0
 19 32  1  0  0  0  0
 19 20  1  0  0  0  0
 20 33  1  0  0  0  0
 21 20  2  0  0  0  0
 21 34  1  0  0  0  0
 22  4  1  0  0  0  0
 22 35  1  0  0  0  0
 23 22  2  0  0  0  0
 24 25  2  0  0  0  0
 24 23  1  0  0  0  0
 25  3  1  0  0  0  0
 26 24  1  0  0  0  0
 28 10  1  0  0  0  0
 30 17  1  0  0  0  0
 31 18  1  0  0  0  0
 36 23  1  0  0  0  0
 37 25  1  0  0  0  0
M  END
>  <Pose>
1

>  <Score>
-6.97

$$$$
