
 OpenBabel03232204043D

 42 45  0  0  1  0  0  0  0  0999 V2000
   17.6020  -58.9160   30.2290 Cl  0  0  0  0  0  0  0  0  0  0  0  0
   18.2490  -57.4470   30.9590 C   0  0  0  0  0  0  0  0  0  0  0  0
   18.2930  -57.2680   32.3270 C   0  0  0  0  0  0  0  0  0  0  0  0
   18.7870  -56.1480   32.9070 N   0  0  0  0  0  0  0  0  0  0  0  0
   19.2710  -55.1290   32.1730 C   0  0  0  0  0  0  0  0  0  0  0  0
   19.7700  -53.9970   32.7360 N   0  0  0  0  0  0  0  0  0  0  0  0
   19.8160  -53.8150   34.0680 C   0  0  0  0  0  0  0  0  0  0  0  0
   19.3190  -54.8590   34.8410 C   0  0  1  0  0  0  0  0  0  0  0  0
   19.3680  -54.6590   36.3130 C   0  0  0  0  0  0  0  0  0  0  0  0
   18.8770  -53.2940   36.5330 N   0  0  0  0  0  0  0  0  0  0  0  0
   19.6300  -52.2160   35.9580 C   0  0  0  0  0  0  0  0  0  0  0  0
   20.3610  -52.5840   34.6970 C   0  0  0  0  0  0  0  0  0  0  0  0
   17.6990  -53.0650   37.2780 C   0  0  0  0  0  0  0  0  0  0  0  0
   16.5930  -53.1050   36.6400 O   0  0  0  0  0  0  0  0  0  0  0  0
   17.7080  -52.7900   38.7320 C   0  0  0  0  0  0  0  0  0  0  0  0
   18.2260  -53.9650   39.5330 C   0  0  0  0  0  0  0  0  0  0  0  0
   17.6030  -55.2030   38.9020 C   0  0  0  0  0  0  0  0  0  0  0  0
   16.2900  -54.9370   38.5170 O   0  0  0  0  0  0  0  0  0  0  0  0
   15.6870  -54.0000   39.3670 C   0  0  0  0  0  0  0  0  0  0  0  0
   16.2500  -52.6040   39.1790 C   0  0  0  0  0  0  0  0  0  0  0  0
   18.8190  -55.9950   34.2430 C   0  0  0  0  0  0  0  0  0  0  0  0
   18.3710  -56.9370   34.9730 O   0  0  0  0  0  0  0  0  0  0  0  0
   19.2360  -55.2880   30.7970 C   0  0  0  0  0  0  0  0  0  0  0  0
   18.7390  -56.4180   30.1830 C   0  0  0  0  0  0  0  0  0  0  0  0
   17.9130  -58.0670   32.9590 H   0  0  0  0  0  0  0  0  0  0  0  0
   20.4000  -54.7930   36.6520 H   0  0  0  0  0  0  0  0  0  0  0  0
   18.7270  -55.3670   36.8580 H   0  0  0  0  0  0  0  0  0  0  0  0
   18.9690  -51.3590   35.6940 H   0  0  0  0  0  0  0  0  0  0  0  0
   20.3570  -51.8830   36.7550 H   0  0  0  0  0  0  0  0  0  0  0  0
   21.4490  -52.7860   34.9200 H   0  0  0  0  0  0  0  0  0  0  0  0
   20.3260  -51.7800   33.9330 H   0  0  0  0  0  0  0  0  0  0  0  0
   18.2910  -51.8650   38.9340 H   0  0  0  0  0  0  0  0  0  0  0  0
   17.7500  -53.8920   40.5520 H   0  0  0  0  0  0  0  0  0  0  0  0
   19.3060  -54.0190   39.6290 H   0  0  0  0  0  0  0  0  0  0  0  0
   18.1690  -55.4200   37.9800 H   0  0  0  0  0  0  0  0  0  0  0  0
   17.6810  -56.0880   39.5570 H   0  0  0  0  0  0  0  0  0  0  0  0
   14.6170  -53.9550   39.0790 H   0  0  0  0  0  0  0  0  0  0  0  0
   15.7210  -54.3240   40.4230 H   0  0  0  0  0  0  0  0  0  0  0  0
   15.6850  -52.0030   38.4610 H   0  0  0  0  0  0  0  0  0  0  0  0
   16.3100  -52.1570   40.1980 H   0  0  0  0  0  0  0  0  0  0  0  0
   19.6260  -54.4650   30.1970 H   0  0  0  0  0  0  0  0  0  0  0  0
   18.7150  -56.5360   29.1050 H   0  0  0  0  0  0  0  0  0  0  0  0
  1  2  1  0  0  0  0
  2  3  1  0  0  0  0
  3  4  1  0  0  0  0
  3 25  1  0  0  0  0
  4 21  1  0  0  0  0
  5  6  1  0  0  0  0
  5  4  1  0  0  0  0
  6  7  2  0  0  0  0
  7 12  1  0  0  0  0
  8  7  1  6  0  0  0
  8  9  1  0  0  0  0
  9 10  1  0  0  0  0
  9 26  1  0  0  0  0
  9 27  1  0  0  0  0
 10 13  1  0  0  0  0
 11 10  1  0  0  0  0
 11 29  1  0  0  0  0
 12 30  1  0  0  0  0
 12 11  1  0  0  0  0
 13 15  1  0  0  0  0
 14 13  2  0  0  0  0
 15 32  1  0  0  0  0
 15 20  1  0  0  0  0
 15 16  1  0  0  0  0
 16 34  1  0  0  0  0
 16 33  1  0  0  0  0
 17 16  1  0  0  0  0
 17 36  1  0  0  0  0
 18 17  1  0  0  0  0
 18 19  1  0  0  0  0
 19 38  1  0  0  0  0
 20 19  1  0  0  0  0
 20 40  1  0  0  0  0
 21  8  1  0  0  0  0
 21 22  2  0  0  0  0
 23  5  2  0  0  0  0
 24 23  1  0  0  0  0
 24  2  2  0  0  0  0
 28 11  1  0  0  0  0
 31 12  1  0  0  0  0
 35 17  1  0  0  0  0
 37 19  1  0  0  0  0
 39 20  1  0  0  0  0
 41 23  1  0  0  0  0
 42 24  1  0  0  0  0
M  END
>  <Pose>
1

>  <Score>
-4.95

$$$$
