
 OpenBabel03232204043D

 57 60  0  0  0  0  0  0  0  0999 V2000
   13.3560  -57.9840   37.7940 Cl  0  0  0  0  0  0  0  0  0  0  0  0
   14.2510  -57.7040   36.3200 C   0  0  0  0  0  0  0  0  0  0  0  0
   15.6110  -57.4910   36.3460 C   0  0  0  0  0  0  0  0  0  0  0  0
   16.2970  -57.2720   35.1790 C   0  0  0  0  0  0  0  0  0  0  0  0
   15.6070  -57.2690   33.9610 C   0  0  0  0  0  0  0  0  0  0  0  0
   14.2390  -57.4830   33.9250 C   0  0  0  0  0  0  0  0  0  0  0  0
   13.5910  -57.6960   35.1110 C   0  0  0  0  0  0  0  0  0  0  0  0
   16.1520  -57.0640   32.7030 O   0  0  0  0  0  0  0  0  0  0  0  0
   17.4840  -57.2660   32.2960 C   0  0  0  0  0  0  0  0  0  0  0  0
   18.4350  -56.3370   32.9780 C   0  0  0  0  0  0  0  0  0  0  0  0
   18.1840  -56.1150   34.3690 N   0  0  0  0  0  0  0  0  0  0  0  0
   17.7550  -57.0590   35.3690 C   0  0  0  0  0  0  0  0  0  0  0  0
   18.3700  -54.7840   34.8780 C   0  0  0  0  0  0  0  0  0  0  0  0
   19.0240  -53.9890   34.1590 O   0  0  0  0  0  0  0  0  0  0  0  0
   17.8260  -54.3720   36.1710 C   0  0  0  0  0  0  0  0  0  0  0  0
   18.4660  -53.3030   36.8450 N   0  0  0  0  0  0  0  0  0  0  0  0
   19.0690  -53.7370   38.1090 C   0  0  0  0  0  0  0  0  0  0  0  0
   17.9900  -54.2540   38.9850 C   0  0  0  0  0  0  0  0  0  0  0  0
   16.7590  -53.4180   39.0940 C   0  0  0  0  0  0  0  0  0  0  0  0
   16.5940  -52.3270   38.1110 C   0  0  0  0  0  0  0  0  0  0  0  0
   17.6610  -52.1340   37.1010 C   0  0  0  0  0  0  0  0  0  0  0  0
   15.5360  -54.2540   39.1700 C   0  0  0  0  0  0  0  0  0  0  0  0
   14.9520  -54.3840   40.2650 O   0  0  0  0  0  0  0  0  0  0  0  0
   15.0450  -54.8940   38.0130 N   0  0  0  0  0  0  0  0  0  0  0  0
   17.8570  -58.7280   32.4830 C   0  0  0  0  0  0  0  0  0  0  0  0
   17.5700  -59.5100   31.2130 C   0  0  0  0  0  0  0  0  0  0  0  0
   18.3880  -59.1350   30.1650 O   0  0  0  0  0  0  0  0  0  0  0  0
   18.7860  -57.8090   30.2960 C   0  0  0  0  0  0  0  0  0  0  0  0
   17.6040  -56.9990   30.7930 C   0  0  0  0  0  0  0  0  0  0  0  0
   16.1550  -57.4910   37.2790 H   0  0  0  0  0  0  0  0  0  0  0  0
   13.7470  -57.4710   32.9650 H   0  0  0  0  0  0  0  0  0  0  0  0
   12.5180  -57.8680   35.1250 H   0  0  0  0  0  0  0  0  0  0  0  0
   19.4710  -56.7470   32.8590 H   0  0  0  0  0  0  0  0  0  0  0  0
   18.4220  -55.3740   32.4030 H   0  0  0  0  0  0  0  0  0  0  0  0
   18.3220  -58.0100   35.3520 H   0  0  0  0  0  0  0  0  0  0  0  0
   17.8890  -56.6450   36.3970 H   0  0  0  0  0  0  0  0  0  0  0  0
   17.9080  -55.2730   36.8490 H   0  0  0  0  0  0  0  0  0  0  0  0
   16.7180  -54.2410   36.0480 H   0  0  0  0  0  0  0  0  0  0  0  0
   19.7960  -54.5240   37.9130 H   0  0  0  0  0  0  0  0  0  0  0  0
   19.5060  -52.8270   38.5770 H   0  0  0  0  0  0  0  0  0  0  0  0
   17.6640  -55.2810   38.6510 H   0  0  0  0  0  0  0  0  0  0  0  0
   18.4700  -54.4640   39.9880 H   0  0  0  0  0  0  0  0  0  0  0  0
   16.8240  -52.9360   40.1210 H   0  0  0  0  0  0  0  0  0  0  0  0
   16.3440  -51.3510   38.6280 H   0  0  0  0  0  0  0  0  0  0  0  0
   15.6430  -52.5280   37.5270 H   0  0  0  0  0  0  0  0  0  0  0  0
   17.3610  -51.6870   36.1490 H   0  0  0  0  0  0  0  0  0  0  0  0
   18.3830  -51.3800   37.5440 H   0  0  0  0  0  0  0  0  0  0  0  0
   15.7560  -55.4630   37.4650 H   0  0  0  0  0  0  0  0  0  0  0  0
   14.0820  -54.8620   37.6580 H   0  0  0  0  0  0  0  0  0  0  0  0
   17.1950  -59.1740   33.2670 H   0  0  0  0  0  0  0  0  0  0  0  0
   18.9260  -58.8560   32.7190 H   0  0  0  0  0  0  0  0  0  0  0  0
   17.7720  -60.5820   31.4300 H   0  0  0  0  0  0  0  0  0  0  0  0
   16.5130  -59.3900   30.9170 H   0  0  0  0  0  0  0  0  0  0  0  0
   19.6220  -57.7990   31.0340 H   0  0  0  0  0  0  0  0  0  0  0  0
   19.1920  -57.4180   29.3460 H   0  0  0  0  0  0  0  0  0  0  0  0
   16.7060  -57.4120   30.2860 H   0  0  0  0  0  0  0  0  0  0  0  0
   17.7020  -55.9270   30.5800 H   0  0  0  0  0  0  0  0  0  0  0  0
  2  3  1  0  0  0  0
  2  1  1  0  0  0  0
  3 30  1  0  0  0  0
  4 12  1  0  0  0  0
  4  3  2  0  0  0  0
  5  4  1  0  0  0  0
  6  5  2  0  0  0  0
  6  7  1  0  0  0  0
  7 32  1  0  0  0  0
  7  2  2  0  0  0  0
  8  5  1  0  0  0  0
  9 25  1  0  0  0  0
  9  8  1  0  0  0  0
  9 10  1  0  0  0  0
 10 11  1  0  0  0  0
 11 13  1  0  0  0  0
 11 12  1  0  0  0  0
 12 36  1  0  0  0  0
 13 15  1  0  0  0  0
 14 13  2  0  0  0  0
 15 16  1  0  0  0  0
 15 37  1  0  0  0  0
 16 21  1  0  0  0  0
 16 17  1  0  0  0  0
 17 40  1  0  0  0  0
 17 18  1  0  0  0  0
 18 19  1  0  0  0  0
 18 42  1  0  0  0  0
 19 22  1  0  0  0  0
 19 43  1  0  0  0  0
 20 44  1  0  0  0  0
 20 19  1  0  0  0  0
 21 47  1  0  0  0  0
 21 20  1  0  0  0  0
 22 23  2  0  0  0  0
 24 22  1  0  0  0  0
 25 51  1  0  0  0  0
 25 50  1  0  0  0  0
 26 52  1  0  0  0  0
 26 25  1  0  0  0  0
 27 28  1  0  0  0  0
 27 26  1  0  0  0  0
 28 29  1  0  0  0  0
 28 54  1  0  0  0  0
 29  9  1  0  0  0  0
 31  6  1  0  0  0  0
 33 10  1  0  0  0  0
 34 10  1  0  0  0  0
 35 12  1  0  0  0  0
 38 15  1  0  0  0  0
 39 17  1  0  0  0  0
 41 18  1  0  0  0  0
 45 20  1  0  0  0  0
 46 21  1  0  0  0  0
 48 24  1  0  0  0  0
 49 24  1  0  0  0  0
 53 26  1  0  0  0  0
 55 28  1  0  0  0  0
 56 29  1  0  0  0  0
 57 29  1  0  0  0  0
M  END
>  <Pose>
1

>  <Score>
-6.47

$$$$
