
 OpenBabel03232204043D

 43 46  0  0  0  0  0  0  0  0999 V2000
   14.1150  -58.9960   34.3170 S   0  0  0  0  0  0  0  0  0  0  0  0
   13.8580  -60.4070   34.6810 O   0  0  0  0  0  0  0  0  0  0  0  0
   12.9650  -58.4620   33.4930 O   0  0  0  0  0  0  0  0  0  0  0  0
   14.2900  -58.0280   35.6950 N   0  0  0  0  0  0  0  0  0  0  0  0
   15.1490  -58.5720   36.7010 C   0  0  0  0  0  0  0  0  0  0  0  0
   15.5510  -57.5690   37.7500 C   0  0  0  0  0  0  0  0  0  0  0  0
   14.4860  -56.6440   38.0620 N   0  0  0  0  0  0  0  0  0  0  0  0
   13.1800  -56.7020   37.4610 C   0  0  0  0  0  0  0  0  0  0  0  0
   13.0970  -57.4200   36.1680 C   0  0  0  0  0  0  0  0  0  0  0  0
   14.7430  -55.6220   39.0160 C   0  0  0  0  0  0  0  0  0  0  0  0
   14.1750  -55.6270   40.1590 O   0  0  0  0  0  0  0  0  0  0  0  0
   15.6690  -54.5300   38.7160 C   0  0  0  0  0  0  0  0  0  0  0  0
   15.6770  -53.3350   39.4070 C   0  0  0  0  0  0  0  0  0  0  0  0
   16.5600  -52.3740   39.0760 N   0  0  0  0  0  0  0  0  0  0  0  0
   17.4630  -52.5060   38.0880 C   0  0  0  0  0  0  0  0  0  0  0  0
   17.4690  -53.6660   37.4060 N   0  0  0  0  0  0  0  0  0  0  0  0
   18.3670  -53.8190   36.4120 C   0  0  0  0  0  0  0  0  0  0  0  0
   19.2700  -52.8290   36.0780 C   0  0  0  0  0  0  0  0  0  0  0  0
   19.2890  -51.6270   36.7600 C   0  0  0  0  0  0  0  0  0  0  0  0
   18.3600  -51.4920   37.7760 C   0  0  0  0  0  0  0  0  0  0  0  0
   16.6020  -54.6520   37.7060 C   0  0  0  0  0  0  0  0  0  0  0  0
   16.6070  -55.7340   37.0690 O   0  0  0  0  0  0  0  0  0  0  0  0
   15.5960  -58.8830   33.3520 C   0  0  0  0  0  0  0  0  0  0  0  0
   16.5650  -57.5220   33.0090 S   0  0  0  0  0  0  0  0  0  0  0  0
   17.7550  -58.2740   32.0460 C   0  0  0  0  0  0  0  0  0  0  0  0
   17.3530  -59.5810   32.0220 C   0  0  0  0  0  0  0  0  0  0  0  0
   16.2420  -59.8980   32.6930 C   0  0  0  0  0  0  0  0  0  0  0  0
   19.1800  -57.5730   31.2510 Cl  0  0  0  0  0  0  0  0  0  0  0  0
   14.6100  -59.3940   37.2170 H   0  0  0  0  0  0  0  0  0  0  0  0
   16.0350  -59.0080   36.1970 H   0  0  0  0  0  0  0  0  0  0  0  0
   15.9190  -58.0470   38.6770 H   0  0  0  0  0  0  0  0  0  0  0  0
   16.3900  -56.9800   37.3280 H   0  0  0  0  0  0  0  0  0  0  0  0
   12.8750  -55.6290   37.2820 H   0  0  0  0  0  0  0  0  0  0  0  0
   12.4280  -57.0730   38.2040 H   0  0  0  0  0  0  0  0  0  0  0  0
   12.3280  -58.2400   36.2790 H   0  0  0  0  0  0  0  0  0  0  0  0
   12.6970  -56.7670   35.3370 H   0  0  0  0  0  0  0  0  0  0  0  0
   14.9550  -53.2150   40.2040 H   0  0  0  0  0  0  0  0  0  0  0  0
   18.3660  -54.7580   35.8650 H   0  0  0  0  0  0  0  0  0  0  0  0
   19.9940  -52.9550   35.2750 H   0  0  0  0  0  0  0  0  0  0  0  0
   19.9830  -50.8300   36.5250 H   0  0  0  0  0  0  0  0  0  0  0  0
   18.3580  -50.5590   38.3230 H   0  0  0  0  0  0  0  0  0  0  0  0
   17.9490  -60.3290   31.4570 H   0  0  0  0  0  0  0  0  0  0  0  0
   15.8150  -60.9260   32.7500 H   0  0  0  0  0  0  0  0  0  0  0  0
  1  2  2  0  0  0  0
  1  4  1  0  0  0  0
  3  1  2  0  0  0  0
  4  9  1  0  0  0  0
  4  5  1  0  0  0  0
  5 29  1  0  0  0  0
  5  6  1  0  0  0  0
  6  7  1  0  0  0  0
  6 31  1  0  0  0  0
  7 10  1  0  0  0  0
  8  7  1  0  0  0  0
  8 34  1  0  0  0  0
  9 35  1  0  0  0  0
  9  8  1  0  0  0  0
 10 11  2  0  0  0  0
 12 10  1  0  0  0  0
 12 13  2  0  0  0  0
 13 37  1  0  0  0  0
 14 13  1  0  0  0  0
 15 14  2  0  0  0  0
 16 21  1  0  0  0  0
 16 15  1  0  0  0  0
 17 16  1  0  0  0  0
 18 17  2  0  0  0  0
 18 19  1  0  0  0  0
 19 20  2  0  0  0  0
 20 15  1  0  0  0  0
 20 41  1  0  0  0  0
 21 12  1  0  0  0  0
 22 21  2  0  0  0  0
 23  1  1  0  0  0  0
 24 23  1  0  0  0  0
 25 24  1  0  0  0  0
 26 25  2  0  0  0  0
 26 27  1  0  0  0  0
 27 43  1  0  0  0  0
 27 23  2  0  0  0  0
 28 25  1  0  0  0  0
 30  5  1  0  0  0  0
 32  6  1  0  0  0  0
 33  8  1  0  0  0  0
 36  9  1  0  0  0  0
 38 17  1  0  0  0  0
 39 18  1  0  0  0  0
 40 19  1  0  0  0  0
 42 26  1  0  0  0  0
M  END
>  <Pose>
1

>  <Score>
-6.58

$$$$
