
 OpenBabel03232204043D

 41 43  0  0  0  0  0  0  0  0999 V2000
   18.7400  -56.1280   32.8460 B   0  0  0  0  0  0  0  0  0  0  0  0
   19.0950  -54.6410   34.0030 C   0  0  0  0  0  0  0  0  0  0  0  0
   18.3800  -54.4700   35.1570 C   0  0  0  0  0  0  0  0  0  0  0  0
   18.6470  -53.3860   35.9890 C   0  0  0  0  0  0  0  0  0  0  0  0
   19.6470  -52.5240   35.5880 C   0  0  0  0  0  0  0  0  0  0  0  0
   20.3540  -52.7040   34.4360 C   0  0  0  0  0  0  0  0  0  0  0  0
   20.0980  -53.7770   33.5990 C   0  0  0  0  0  0  0  0  0  0  0  0
   19.8970  -51.4340   36.4500 O   0  0  0  0  0  0  0  0  0  0  0  0
   20.5610  -50.2750   35.9810 C   0  0  0  0  0  0  0  0  0  0  0  0
   17.8400  -53.1460   37.1800 C   0  0  0  0  0  0  0  0  0  0  0  0
   16.8850  -53.8450   37.7880 N   0  0  0  0  0  0  0  0  0  0  0  0
   16.4350  -53.1640   38.8820 C   0  0  0  0  0  0  0  0  0  0  0  0
   17.1570  -52.0200   38.9080 N   0  0  0  0  0  0  0  0  0  0  0  0
   17.9930  -51.9950   37.9060 N   0  0  0  0  0  0  0  0  0  0  0  0
   15.4680  -53.8560   39.5050 N   0  0  0  0  0  0  0  0  0  0  0  0
   15.2580  -54.9900   38.8470 C   0  0  0  0  0  0  0  0  0  0  0  0
   16.1500  -54.9850   37.7610 C   0  0  0  0  0  0  0  0  0  0  0  0
   16.1530  -56.0150   36.9050 N   0  0  0  0  0  0  0  0  0  0  0  0
   15.2820  -57.0360   37.1310 C   0  0  0  0  0  0  0  0  0  0  0  0
   15.3090  -58.0000   36.3040 O   0  0  0  0  0  0  0  0  0  0  0  0
   14.4210  -57.0890   38.1430 N   0  0  0  0  0  0  0  0  0  0  0  0
   14.4130  -56.0640   38.9970 C   0  0  0  0  0  0  0  0  0  0  0  0
   13.6180  -56.0630   39.9710 O   0  0  0  0  0  0  0  0  0  0  0  0
   13.5100  -58.2340   38.3170 C   0  0  0  0  0  0  0  0  0  0  0  0
   17.0100  -56.0580   35.7570 C   0  0  0  0  0  0  0  0  0  0  0  0
   14.7540  -53.4550   40.7000 C   0  0  0  0  0  0  0  0  0  0  0  0
   17.6000  -55.1590   35.4510 H   0  0  0  0  0  0  0  0  0  0  0  0
   21.1380  -51.9830   34.1700 H   0  0  0  0  0  0  0  0  0  0  0  0
   20.6590  -53.9200   32.6860 H   0  0  0  0  0  0  0  0  0  0  0  0
   20.8490  -49.6880   36.8840 H   0  0  0  0  0  0  0  0  0  0  0  0
   21.4720  -50.5140   35.4120 H   0  0  0  0  0  0  0  0  0  0  0  0
   19.9340  -49.6360   35.3540 H   0  0  0  0  0  0  0  0  0  0  0  0
   12.6690  -58.2000   37.6230 H   0  0  0  0  0  0  0  0  0  0  0  0
   14.1300  -59.1520   38.1210 H   0  0  0  0  0  0  0  0  0  0  0  0
   13.2390  -58.2770   39.3780 H   0  0  0  0  0  0  0  0  0  0  0  0
   16.6310  -56.9380   35.1130 H   0  0  0  0  0  0  0  0  0  0  0  0
   18.0340  -56.3410   35.9650 H   0  0  0  0  0  0  0  0  0  0  0  0
   16.8240  -55.2080   35.1130 H   0  0  0  0  0  0  0  0  0  0  0  0
   13.6790  -53.7480   40.6100 H   0  0  0  0  0  0  0  0  0  0  0  0
   15.2010  -53.9950   41.5590 H   0  0  0  0  0  0  0  0  0  0  0  0
   14.7510  -52.3520   40.8370 H   0  0  0  0  0  0  0  0  0  0  0  0
  1  2  1  0  0  0  0
  2  3  1  0  0  0  0
  3 27  1  0  0  0  0
  3  4  2  0  0  0  0
  4 10  1  0  0  0  0
  5  4  1  0  0  0  0
  5  8  1  0  0  0  0
  6  5  2  0  0  0  0
  7  2  2  0  0  0  0
  7  6  1  0  0  0  0
  9  8  1  0  0  0  0
  9 30  1  0  0  0  0
 10 11  1  0  0  0  0
 10 14  2  0  0  0  0
 11 12  1  0  0  0  0
 12 13  2  0  0  0  0
 12 15  1  0  0  0  0
 14 13  1  0  0  0  0
 15 26  1  0  0  0  0
 16 22  1  0  0  0  0
 16 15  1  0  0  0  0
 17 11  1  0  0  0  0
 17 16  2  0  0  0  0
 18 19  1  0  0  0  0
 18 17  1  0  0  0  0
 19 21  1  0  0  0  0
 20 19  2  0  0  0  0
 21 24  1  0  0  0  0
 21 22  1  0  0  0  0
 22 23  2  0  0  0  0
 24 35  1  0  0  0  0
 25 37  1  0  0  0  0
 26 41  1  0  0  0  0
 26 40  1  0  0  0  0
 28  6  1  0  0  0  0
 29  7  1  0  0  0  0
 31  9  1  0  0  0  0
 32  9  1  0  0  0  0
 33 24  1  0  0  0  0
 34 24  1  0  0  0  0
 36 25  1  0  0  0  0
 38 25  1  0  0  0  0
 39 26  1  0  0  0  0
M  END
>  <Pose>
1

>  <Score>
-6.34

$$$$
