
 OpenBabel03232204043D

 40 43  0  0  0  0  0  0  0  0999 V2000
   20.0530  -50.7790   36.3700 Cl  0  0  0  0  0  0  0  0  0  0  0  0
   18.9060  -52.0710   36.6860 C   0  0  0  0  0  0  0  0  0  0  0  0
   18.0170  -52.0290   37.7430 C   0  0  0  0  0  0  0  0  0  0  0  0
   17.1340  -53.0340   37.9780 N   0  0  0  0  0  0  0  0  0  0  0  0
   17.0640  -54.1300   37.2030 C   0  0  0  0  0  0  0  0  0  0  0  0
   16.1920  -55.1310   37.4280 N   0  0  0  0  0  0  0  0  0  0  0  0
   15.3240  -55.0990   38.4550 C   0  0  0  0  0  0  0  0  0  0  0  0
   15.3890  -53.9640   39.2640 C   0  0  0  0  0  0  0  0  0  0  0  0
   16.2860  -52.9450   39.0250 C   0  0  0  0  0  0  0  0  0  0  0  0
   16.3410  -51.9120   39.7670 O   0  0  0  0  0  0  0  0  0  0  0  0
   14.3440  -56.1780   38.7430 C   0  0  0  0  0  0  0  0  0  0  0  0
   14.5380  -57.2420   37.8290 N   0  0  0  0  0  0  0  0  0  0  0  0
   14.0660  -57.0720   36.5070 C   0  0  0  0  0  0  0  0  0  0  0  0
   13.6660  -58.3650   35.8130 C   0  0  0  0  0  0  0  0  0  0  0  0
   12.7730  -59.0780   36.7640 C   0  0  0  0  0  0  0  0  0  0  0  0
   13.2300  -59.1710   38.0620 C   0  0  0  0  0  0  0  0  0  0  0  0
   12.4590  -59.8050   38.9580 N   0  0  0  0  0  0  0  0  0  0  0  0
   11.2560  -60.3390   38.5820 C   0  0  0  0  0  0  0  0  0  0  0  0
   10.8390  -60.2280   37.2980 N   0  0  0  0  0  0  0  0  0  0  0  0
   11.5700  -59.6010   36.3490 C   0  0  0  0  0  0  0  0  0  0  0  0
   10.3920  -61.0430   39.5650 C   0  0  0  0  0  0  0  0  0  0  0  0
   14.5470  -58.5600   38.3660 C   0  0  0  0  0  0  0  0  0  0  0  0
   17.9460  -54.1980   36.1330 C   0  0  0  0  0  0  0  0  0  0  0  0
   18.8510  -53.1870   35.8780 C   0  0  0  0  0  0  0  0  0  0  0  0
   18.0520  -51.1490   38.3890 H   0  0  0  0  0  0  0  0  0  0  0  0
   14.7080  -53.9050   40.0960 H   0  0  0  0  0  0  0  0  0  0  0  0
   14.5430  -56.5160   39.7860 H   0  0  0  0  0  0  0  0  0  0  0  0
   13.3360  -55.7410   38.6750 H   0  0  0  0  0  0  0  0  0  0  0  0
   14.7660  -56.5250   35.8410 H   0  0  0  0  0  0  0  0  0  0  0  0
   13.1100  -56.4730   36.5480 H   0  0  0  0  0  0  0  0  0  0  0  0
   14.6190  -58.9530   35.6930 H   0  0  0  0  0  0  0  0  0  0  0  0
   13.1730  -58.1540   34.8670 H   0  0  0  0  0  0  0  0  0  0  0  0
   11.2080  -59.5310   35.3330 H   0  0  0  0  0  0  0  0  0  0  0  0
   11.0180  -61.3280   40.4320 H   0  0  0  0  0  0  0  0  0  0  0  0
    9.6200  -60.3020   39.8950 H   0  0  0  0  0  0  0  0  0  0  0  0
    9.9290  -61.9450   39.1210 H   0  0  0  0  0  0  0  0  0  0  0  0
   15.3810  -59.1930   37.9730 H   0  0  0  0  0  0  0  0  0  0  0  0
   14.6810  -58.4860   39.4660 H   0  0  0  0  0  0  0  0  0  0  0  0
   17.8960  -55.0850   35.4980 H   0  0  0  0  0  0  0  0  0  0  0  0
   19.5420  -53.2490   35.0320 H   0  0  0  0  0  0  0  0  0  0  0  0
  1  2  1  0  0  0  0
  2  3  1  0  0  0  0
  3  4  1  0  0  0  0
  3 25  1  0  0  0  0
  4  9  1  0  0  0  0
  5  6  1  0  0  0  0
  5  4  1  0  0  0  0
  6  7  2  0  0  0  0
  7 11  1  0  0  0  0
  7  8  1  0  0  0  0
  8 26  1  0  0  0  0
  9  8  1  0  0  0  0
  9 10  2  0  0  0  0
 11 27  1  0  0  0  0
 12 22  1  0  0  0  0
 12 11  1  0  0  0  0
 13 30  1  0  0  0  0
 13 12  1  0  0  0  0
 14 13  1  0  0  0  0
 14 15  1  0  0  0  0
 15 16  2  0  0  0  0
 16 22  1  0  0  0  0
 16 17  1  0  0  0  0
 18 17  2  0  0  0  0
 18 21  1  0  0  0  0
 19 18  1  0  0  0  0
 20 15  1  0  0  0  0
 20 19  2  0  0  0  0
 21 35  1  0  0  0  0
 21 34  1  0  0  0  0
 22 38  1  0  0  0  0
 23  5  2  0  0  0  0
 24 23  1  0  0  0  0
 24  2  2  0  0  0  0
 28 11  1  0  0  0  0
 29 13  1  0  0  0  0
 31 14  1  0  0  0  0
 32 14  1  0  0  0  0
 33 20  1  0  0  0  0
 36 21  1  0  0  0  0
 37 22  1  0  0  0  0
 39 23  1  0  0  0  0
 40 24  1  0  0  0  0
M  END
>  <Pose>
1

>  <Score>
-5.93

$$$$
