
 OpenBabel03232204043D

 35 37  0  0  1  0  0  0  0  0999 V2000
   17.0980  -56.4970   33.4460 B   0  0  0  0  0  0  0  0  0  0  0  0
   17.8980  -55.2620   34.6510 C   0  0  0  0  0  0  0  0  0  0  0  0
   17.5030  -55.2380   35.9910 C   0  0  0  0  0  0  0  0  0  0  0  0
   18.0810  -54.3440   36.9010 C   0  0  0  0  0  0  0  0  0  0  0  0
   19.0510  -53.5020   36.3890 C   0  0  0  0  0  0  0  0  0  0  0  0
   19.4290  -53.5420   35.0580 C   0  0  0  0  0  0  0  0  0  0  0  0
   18.8540  -54.4200   34.1820 C   0  0  0  0  0  0  0  0  0  0  0  0
   19.5980  -52.6300   37.2870 O   0  0  0  0  0  0  0  0  0  0  0  0
   19.7050  -51.2690   36.9650 C   0  0  0  0  0  0  0  0  0  0  0  0
   17.6670  -54.4660   38.2950 C   0  0  2  0  0  0  0  0  0  0  0  0
   16.1220  -54.5860   38.1840 C   0  0  2  0  0  0  0  0  0  0  0  0
   15.8910  -53.3890   37.2420 C   0  0  0  0  0  0  0  0  0  0  0  0
   15.2060  -53.4390   36.2370 O   0  0  0  0  0  0  0  0  0  0  0  0
   16.5950  -52.2210   37.7240 N   0  0  0  0  0  0  0  0  0  0  0  0
   16.9600  -52.2880   39.1510 C   0  0  1  0  0  0  0  0  0  0  0  0
   15.7230  -52.7580   39.7910 N   0  0  0  0  0  0  0  0  0  0  0  0
   15.4240  -54.1190   39.4200 C   0  0  0  0  0  0  0  0  0  0  0  0
   14.6510  -54.8540   40.0620 O   0  0  0  0  0  0  0  0  0  0  0  0
   17.9540  -53.4730   39.2890 C   0  0  0  0  0  0  0  0  0  0  0  0
   17.4950  -51.0530   39.7300 C   0  0  0  0  0  0  0  0  0  0  0  0
   16.7430  -55.9520   36.2500 H   0  0  0  0  0  0  0  0  0  0  0  0
   20.1910  -52.8490   34.7600 H   0  0  0  0  0  0  0  0  0  0  0  0
   19.2110  -54.3800   33.1360 H   0  0  0  0  0  0  0  0  0  0  0  0
   20.1350  -51.1320   35.9620 H   0  0  0  0  0  0  0  0  0  0  0  0
   18.6220  -50.9150   36.8910 H   0  0  0  0  0  0  0  0  0  0  0  0
   20.1910  -50.6670   37.7440 H   0  0  0  0  0  0  0  0  0  0  0  0
   17.9630  -55.4960   38.6240 H   0  0  0  0  0  0  0  0  0  0  0  0
   15.7500  -55.4990   37.8100 H   0  0  0  0  0  0  0  0  0  0  0  0
   16.8430  -51.4210   37.1360 H   0  0  0  0  0  0  0  0  0  0  0  0
   15.1540  -52.1760   40.4160 H   0  0  0  0  0  0  0  0  0  0  0  0
   17.6810  -53.9200   40.2990 H   0  0  0  0  0  0  0  0  0  0  0  0
   18.9770  -53.1520   39.4660 H   0  0  0  0  0  0  0  0  0  0  0  0
   17.0710  -50.9740   40.7890 H   0  0  0  0  0  0  0  0  0  0  0  0
   18.5940  -51.0050   39.8190 H   0  0  0  0  0  0  0  0  0  0  0  0
   17.1620  -50.1680   39.1940 H   0  0  0  0  0  0  0  0  0  0  0  0
  1  2  1  0  0  0  0
  2  3  1  0  0  0  0
  3 21  1  0  0  0  0
  3  4  2  0  0  0  0
  4 10  1  0  0  0  0
  5  4  1  0  0  0  0
  5  8  1  0  0  0  0
  6  5  2  0  0  0  0
  7  2  2  0  0  0  0
  7  6  1  0  0  0  0
  9  8  1  0  0  0  0
  9 26  1  0  0  0  0
 10 27  1  1  0  0  0
 10 19  1  0  0  0  0
 11 28  1  6  0  0  0
 11 10  1  0  0  0  0
 11 17  1  0  0  0  0
 12 14  1  0  0  0  0
 12 11  1  0  0  0  0
 13 12  2  0  0  0  0
 14 15  1  0  0  0  0
 15 19  1  0  0  0  0
 15 20  1  1  0  0  0
 15 16  1  0  0  0  0
 16 30  1  0  0  0  0
 17 16  1  0  0  0  0
 17 18  2  0  0  0  0
 19 32  1  0  0  0  0
 19 31  1  0  0  0  0
 20 34  1  0  0  0  0
 20 33  1  0  0  0  0
 22  6  1  0  0  0  0
 23  7  1  0  0  0  0
 24  9  1  0  0  0  0
 25  9  1  0  0  0  0
 29 14  1  0  0  0  0
 35 20  1  0  0  0  0
M  END
>  <Pose>
1

>  <Score>
-5.20

$$$$
