
 OpenBabel03232204043D

 55 58  0  0  0  0  0  0  0  0999 V2000
   15.9590  -54.7520   38.7790 B   0  0  0  0  0  0  0  0  0  0  0  0
   15.0930  -56.2400   37.9810 C   0  0  0  0  0  0  0  0  0  0  0  0
   15.7320  -57.0480   37.0240 C   0  0  0  0  0  0  0  0  0  0  0  0
   15.0790  -58.1140   36.4610 C   0  0  0  0  0  0  0  0  0  0  0  0
   13.7870  -58.3940   36.8410 C   0  0  0  0  0  0  0  0  0  0  0  0
   13.1510  -57.5860   37.7960 C   0  0  0  0  0  0  0  0  0  0  0  0
   13.7980  -56.5300   38.3510 C   0  0  0  0  0  0  0  0  0  0  0  0
   13.1960  -59.4590   36.2540 O   0  0  0  0  0  0  0  0  0  0  0  0
   11.9170  -59.9440   36.4730 C   0  0  0  0  0  0  0  0  0  0  0  0
   15.7620  -58.9700   35.5010 C   0  0  0  0  0  0  0  0  0  0  0  0
   16.4950  -58.5930   34.5040 C   0  0  0  0  0  0  0  0  0  0  0  0
   16.7840  -57.3070   34.1420 O   0  0  0  0  0  0  0  0  0  0  0  0
   17.6120  -57.3250   33.0210 C   0  0  0  0  0  0  0  0  0  0  0  0
   17.8880  -58.5890   32.6090 C   0  0  0  0  0  0  0  0  0  0  0  0
   18.7190  -58.8260   31.5070 C   0  0  0  0  0  0  0  0  0  0  0  0
   19.2890  -57.8070   30.7910 C   0  0  0  0  0  0  0  0  0  0  0  0
   18.9680  -56.5170   31.2520 C   0  0  0  0  0  0  0  0  0  0  0  0
   18.1740  -56.2550   32.3160 C   0  0  0  0  0  0  0  0  0  0  0  0
   17.7960  -54.9040   32.7710 C   0  0  0  0  0  0  0  0  0  0  0  0
   18.5200  -54.5220   33.9600 N   0  0  0  0  0  4  0  0  0  0  0  0
   17.6260  -54.5760   35.1030 C   0  0  0  0  0  0  0  0  0  0  0  0
   17.8010  -53.4930   36.0810 C   0  0  0  0  0  0  0  0  0  0  0  0
   19.1230  -52.9690   36.2130 N   0  0  0  0  0  0  0  0  0  0  0  0
   20.0850  -53.3690   35.2900 C   0  0  0  0  0  0  0  0  0  0  0  0
   19.4400  -53.4940   33.8840 C   0  0  0  0  0  0  0  0  0  0  0  0
   19.2450  -51.6850   36.7920 C   0  0  0  0  0  0  0  0  0  0  0  0
   20.2680  -50.7970   36.1770 C   0  0  0  0  0  0  0  0  0  0  0  0
   19.5650  -55.5050   30.4710 O   0  0  0  0  0  0  0  0  0  0  0  0
   17.1790  -59.4650   33.5480 C   0  0  0  0  0  0  0  0  0  0  0  0
   17.1670  -60.7300   33.5290 O   0  0  0  0  0  0  0  0  0  0  0  0
   16.7410  -56.7590   36.7800 H   0  0  0  0  0  0  0  0  0  0  0  0
   12.1300  -57.8100   38.1030 H   0  0  0  0  0  0  0  0  0  0  0  0
   13.2600  -55.9390   39.0900 H   0  0  0  0  0  0  0  0  0  0  0  0
   11.3190  -60.0230   35.5230 H   0  0  0  0  0  0  0  0  0  0  0  0
   11.2730  -59.3610   37.1540 H   0  0  0  0  0  0  0  0  0  0  0  0
   11.9670  -60.9870   36.9370 H   0  0  0  0  0  0  0  0  0  0  0  0
   15.6700  -60.0800   35.6070 H   0  0  0  0  0  0  0  0  0  0  0  0
   18.8790  -59.8760   31.2680 H   0  0  0  0  0  0  0  0  0  0  0  0
   19.9240  -57.9580   29.9500 H   0  0  0  0  0  0  0  0  0  0  0  0
   16.7050  -54.7870   32.8490 H   0  0  0  0  0  0  0  0  0  0  0  0
   18.0730  -54.2060   31.9110 H   0  0  0  0  0  0  0  0  0  0  0  0
   19.1480  -55.4380   34.1140 H   0  0  0  0  0  0  0  0  0  0  0  0
   17.6770  -55.5850   35.5830 H   0  0  0  0  0  0  0  0  0  0  0  0
   16.5850  -54.5250   34.7070 H   0  0  0  0  0  0  0  0  0  0  0  0
   17.0310  -52.6980   35.9370 H   0  0  0  0  0  0  0  0  0  0  0  0
   17.5440  -53.9240   37.1020 H   0  0  0  0  0  0  0  0  0  0  0  0
   20.9730  -52.7520   35.2730 H   0  0  0  0  0  0  0  0  0  0  0  0
   20.4090  -54.4290   35.4880 H   0  0  0  0  0  0  0  0  0  0  0  0
   20.3450  -53.8420   33.2880 H   0  0  0  0  0  0  0  0  0  0  0  0
   19.1360  -52.5520   33.4610 H   0  0  0  0  0  0  0  0  0  0  0  0
   18.2420  -51.1750   36.6970 H   0  0  0  0  0  0  0  0  0  0  0  0
   19.4120  -51.8360   37.8950 H   0  0  0  0  0  0  0  0  0  0  0  0
   20.9610  -51.2990   35.5000 H   0  0  0  0  0  0  0  0  0  0  0  0
   19.7970  -49.9210   35.6570 H   0  0  0  0  0  0  0  0  0  0  0  0
   20.8830  -50.3840   36.9970 H   0  0  0  0  0  0  0  0  0  0  0  0
  2  7  1  0  0  0  0
  2  1  1  0  0  0  0
  3  2  2  0  0  0  0
  4  5  2  0  0  0  0
  4  3  1  0  0  0  0
  5  6  1  0  0  0  0
  6 32  1  0  0  0  0
  6  7  2  0  0  0  0
  7 33  1  0  0  0  0
  8  9  1  0  0  0  0
  8  5  1  0  0  0  0
  9 36  1  0  0  0  0
  9 35  1  0  0  0  0
 10 37  1  0  0  0  0
 10  4  1  0  0  0  0
 11 10  2  0  0  0  0
 12 11  1  0  0  0  0
 13 12  1  0  0  0  0
 14 13  1  0  0  0  0
 14 29  1  0  0  0  0
 15 14  2  0  0  0  0
 16 17  2  0  0  0  0
 16 15  1  0  0  0  0
 17 18  1  0  0  0  0
 18 19  1  0  0  0  0
 18 13  2  0  0  0  0
 19 40  1  0  0  0  0
 19 20  1  0  0  0  0
 20 42  1  0  0  0  0
 20 21  1  0  0  0  0
 21 43  1  0  0  0  0
 21 22  1  0  0  0  0
 22 23  1  0  0  0  0
 22 46  1  0  0  0  0
 23 26  1  0  0  0  0
 24 48  1  0  0  0  0
 24 23  1  0  0  0  0
 25 20  1  0  0  0  0
 25 24  1  0  0  0  0
 26 52  1  0  0  0  0
 27 26  1  0  0  0  0
 27 55  1  0  0  0  0
 28 17  1  0  0  0  0
 29 11  1  0  0  0  0
 30 29  2  0  0  0  0
 31  3  1  0  0  0  0
 34  9  1  0  0  0  0
 38 15  1  0  0  0  0
 39 16  1  0  0  0  0
 41 19  1  0  0  0  0
 44 21  1  0  0  0  0
 45 22  1  0  0  0  0
 47 24  1  0  0  0  0
 49 25  1  0  0  0  0
 50 25  1  0  0  0  0
 51 26  1  0  0  0  0
 53 27  1  0  0  0  0
 54 27  1  0  0  0  0
M  END
>  <Pose>
1

>  <Score>
-6.70

$$$$
