
 OpenBabel03232204043D

 43 46  0  0  0  0  0  0  0  0999 V2000
   19.3350  -56.0230   29.1150 B   0  0  0  0  0  0  0  0  0  0  0  0
   19.2530  -55.6000   30.9750 C   0  0  0  0  0  0  0  0  0  0  0  0
   19.7230  -54.4100   31.4340 C   0  0  0  0  0  0  0  0  0  0  0  0
   19.6720  -54.1010   32.7290 N   0  0  0  0  0  0  0  0  0  0  0  0
   19.1490  -54.9750   33.6010 C   0  0  0  0  0  0  0  0  0  0  0  0
   18.6530  -56.2070   33.1870 C   0  0  0  0  0  0  0  0  0  0  0  0
   18.7010  -56.5330   31.8510 C   0  0  0  0  0  0  0  0  0  0  0  0
   18.1010  -57.0840   34.1930 C   0  0  0  0  0  0  0  0  0  0  0  0
   18.7930  -57.9800   34.7040 O   0  0  0  0  0  0  0  0  0  0  0  0
   16.6990  -56.9370   34.6360 N   0  0  0  0  0  0  0  0  0  0  0  0
   16.4670  -57.1850   35.9910 C   0  0  0  0  0  0  0  0  0  0  0  0
   16.2040  -56.1820   37.0010 C   0  0  0  0  0  0  0  0  0  0  0  0
   15.1080  -56.5690   37.8510 C   0  0  0  0  0  0  0  0  0  0  0  0
   14.7090  -55.7530   38.8450 C   0  0  0  0  0  0  0  0  0  0  0  0
   15.3460  -54.5190   39.0730 C   0  0  0  0  0  0  0  0  0  0  0  0
   16.3950  -54.1350   38.2730 C   0  0  0  0  0  0  0  0  0  0  0  0
   16.8210  -54.9790   37.2350 C   0  0  0  0  0  0  0  0  0  0  0  0
   18.0130  -54.6240   36.4220 C   0  0  0  0  0  0  0  0  0  0  0  0
   18.9020  -53.5680   37.0690 C   0  0  0  0  0  0  0  0  0  0  0  0
   18.1300  -52.4620   37.5850 N   0  0  0  0  0  0  0  0  0  0  0  0
   17.0590  -52.8490   38.4560 C   0  0  0  0  0  0  0  0  0  0  0  0
   16.7470  -52.0340   39.3500 O   0  0  0  0  0  0  0  0  0  0  0  0
   18.4140  -51.0840   37.2480 C   0  0  0  0  0  0  0  0  0  0  0  0
   14.8880  -53.7610   40.0850 O   0  0  0  0  0  0  0  0  0  0  0  0
   13.6380  -56.3850   39.4950 O   0  0  0  0  0  0  0  0  0  0  0  0
   13.2040  -57.4940   38.7360 C   0  0  0  0  0  0  0  0  0  0  0  0
   14.2980  -57.7080   37.8660 O   0  0  0  0  0  0  0  0  0  0  0  0
   20.1650  -53.6480   30.7710 H   0  0  0  0  0  0  0  0  0  0  0  0
   19.0900  -54.7580   34.6640 H   0  0  0  0  0  0  0  0  0  0  0  0
   18.3220  -57.4770   31.4980 H   0  0  0  0  0  0  0  0  0  0  0  0
   16.0810  -56.7010   33.8470 H   0  0  0  0  0  0  0  0  0  0  0  0
   15.5980  -57.9700   36.0300 H   0  0  0  0  0  0  0  0  0  0  0  0
   17.3110  -57.9020   36.3720 H   0  0  0  0  0  0  0  0  0  0  0  0
   17.7710  -54.2430   35.4250 H   0  0  0  0  0  0  0  0  0  0  0  0
   18.7040  -55.4970   36.3350 H   0  0  0  0  0  0  0  0  0  0  0  0
   19.6030  -53.2410   36.2610 H   0  0  0  0  0  0  0  0  0  0  0  0
   19.4520  -54.0820   37.8890 H   0  0  0  0  0  0  0  0  0  0  0  0
   18.0230  -50.9250   36.2120 H   0  0  0  0  0  0  0  0  0  0  0  0
   19.5060  -50.9150   37.2230 H   0  0  0  0  0  0  0  0  0  0  0  0
   17.8630  -50.4160   37.9220 H   0  0  0  0  0  0  0  0  0  0  0  0
   15.2960  -53.0490   40.5870 H   0  0  0  0  0  0  0  0  0  0  0  0
   13.0000  -58.3800   39.3740 H   0  0  0  0  0  0  0  0  0  0  0  0
   12.2880  -57.1910   38.2050 H   0  0  0  0  0  0  0  0  0  0  0  0
  1  2  1  0  0  0  0
  2  3  2  0  0  0  0
  2  7  1  0  0  0  0
  3  4  1  0  0  0  0
  4  5  2  0  0  0  0
  5 29  1  0  0  0  0
  6  5  1  0  0  0  0
  6  8  1  0  0  0  0
  7  6  2  0  0  0  0
  8 10  1  0  0  0  0
  8  9  2  0  0  0  0
 10 11  1  0  0  0  0
 11 32  1  0  0  0  0
 11 33  1  0  0  0  0
 11 12  1  0  0  0  0
 12 17  2  0  0  0  0
 12 13  1  0  0  0  0
 13 27  1  0  0  0  0
 13 14  2  0  0  0  0
 14 15  1  0  0  0  0
 14 25  1  0  0  0  0
 15 24  1  0  0  0  0
 16 21  1  0  0  0  0
 16 15  2  0  0  0  0
 17 16  1  0  0  0  0
 18 19  1  0  0  0  0
 18 17  1  0  0  0  0
 19 20  1  0  0  0  0
 19 37  1  0  0  0  0
 20 21  1  0  0  0  0
 21 22  2  0  0  0  0
 23 20  1  0  0  0  0
 23 40  1  0  0  0  0
 24 41  1  0  0  0  0
 26 42  1  0  0  0  0
 26 25  1  0  0  0  0
 27 26  1  0  0  0  0
 28  3  1  0  0  0  0
 30  7  1  0  0  0  0
 31 10  1  0  0  0  0
 34 18  1  0  0  0  0
 35 18  1  0  0  0  0
 36 19  1  0  0  0  0
 38 23  1  0  0  0  0
 39 23  1  0  0  0  0
 43 26  1  0  0  0  0
M  END
>  <Pose>
1

>  <Score>
-7.85

$$$$
