
 OpenBabel03232204043D

 56 59  0  0  1  0  0  0  0  0999 V2000
   13.7040  -60.8100   34.0950 Cl  0  0  0  0  0  0  0  0  0  0  0  0
   15.2180  -59.9090   33.9840 C   0  0  0  0  0  0  0  0  0  0  0  0
   15.3120  -58.7200   34.6320 C   0  0  0  0  0  0  0  0  0  0  0  0
   16.5230  -58.0290   34.5230 C   0  0  0  0  0  0  0  0  0  0  0  0
   17.5670  -58.5050   33.8090 C   0  0  0  0  0  0  0  0  0  0  0  0
   18.5760  -57.5870   33.9090 N   0  0  0  0  0  0  0  0  0  0  0  0
   18.2010  -56.5490   34.6610 C   0  0  0  0  0  0  0  0  0  0  0  0
   16.8930  -56.8130   35.0630 C   0  0  0  0  0  0  0  0  0  0  0  0
   18.9060  -55.3470   35.0130 C   0  0  0  0  0  0  0  0  0  0  0  0
   20.1080  -55.5840   35.5560 O   0  0  0  0  0  0  0  0  0  0  0  0
   18.6130  -54.0040   34.9100 N   0  0  0  0  0  0  0  0  0  0  0  0
   17.1480  -53.7580   35.0260 C   0  0  0  0  0  0  0  0  0  0  0  0
   16.7980  -53.5400   36.4860 C   0  0  0  0  0  0  0  0  0  0  0  0
   18.0320  -53.1260   37.1910 C   0  0  1  0  0  0  0  0  0  0  0  0
   18.5940  -51.8690   36.6090 C   0  0  2  0  0  0  0  0  0  0  0  0
   19.9560  -52.2530   36.0050 C   0  0  0  0  0  0  0  0  0  0  0  0
   19.5830  -52.9850   34.7020 C   0  0  0  0  0  0  0  0  0  0  0  0
   18.7250  -50.8290   37.5260 O   0  0  0  0  0  0  0  0  0  0  0  0
   17.9980  -53.0410   38.6170 N   0  0  0  0  0  0  0  0  0  0  0  0
   18.3970  -54.2410   39.3080 C   0  0  0  0  0  0  0  0  0  0  0  0
   17.4690  -55.3660   39.0450 C   0  0  0  0  0  0  0  0  0  0  0  0
   16.1300  -54.9000   39.4230 N   0  0  0  0  0  0  0  0  0  0  0  0
   16.0580  -53.5630   39.9530 C   0  0  0  0  0  0  0  0  0  0  0  0
   16.7610  -52.5210   39.1350 C   0  0  0  0  0  0  0  0  0  0  0  0
   15.0040  -55.7650   39.2740 C   0  0  0  0  0  0  0  0  0  0  0  0
   14.0010  -55.5870   39.9770 O   0  0  0  0  0  0  0  0  0  0  0  0
   15.0820  -56.8680   38.2640 C   0  0  0  0  0  0  0  0  0  0  0  0
   17.4570  -59.7060   33.1610 C   0  0  0  0  0  0  0  0  0  0  0  0
   16.2700  -60.4170   33.2480 C   0  0  0  0  0  0  0  0  0  0  0  0
   14.5030  -58.3160   35.2040 H   0  0  0  0  0  0  0  0  0  0  0  0
   19.4810  -57.7520   33.4510 H   0  0  0  0  0  0  0  0  0  0  0  0
   16.3060  -56.1670   35.6840 H   0  0  0  0  0  0  0  0  0  0  0  0
   16.5830  -54.6210   34.6690 H   0  0  0  0  0  0  0  0  0  0  0  0
   16.9130  -52.9040   34.3730 H   0  0  0  0  0  0  0  0  0  0  0  0
   16.2800  -54.4080   36.9200 H   0  0  0  0  0  0  0  0  0  0  0  0
   16.0350  -52.6980   36.4470 H   0  0  0  0  0  0  0  0  0  0  0  0
   18.7610  -54.0020   37.0050 H   0  0  0  0  0  0  0  0  0  0  0  0
   18.0110  -51.4560   35.7430 H   0  0  0  0  0  0  0  0  0  0  0  0
   20.5760  -51.3950   35.7870 H   0  0  0  0  0  0  0  0  0  0  0  0
   20.3910  -52.9940   36.7150 H   0  0  0  0  0  0  0  0  0  0  0  0
   20.4820  -53.2280   34.1770 H   0  0  0  0  0  0  0  0  0  0  0  0
   19.1080  -52.1380   34.0730 H   0  0  0  0  0  0  0  0  0  0  0  0
   19.0360  -51.2640   38.3850 H   0  0  0  0  0  0  0  0  0  0  0  0
   18.3940  -53.9920   40.4030 H   0  0  0  0  0  0  0  0  0  0  0  0
   19.4560  -54.4740   39.0250 H   0  0  0  0  0  0  0  0  0  0  0  0
   17.5220  -55.7250   38.0170 H   0  0  0  0  0  0  0  0  0  0  0  0
   17.7420  -56.1860   39.7590 H   0  0  0  0  0  0  0  0  0  0  0  0
   16.4830  -53.6160   40.9900 H   0  0  0  0  0  0  0  0  0  0  0  0
   14.9730  -53.2620   40.0990 H   0  0  0  0  0  0  0  0  0  0  0  0
   17.0110  -51.6750   39.8230 H   0  0  0  0  0  0  0  0  0  0  0  0
   16.0990  -52.0790   38.3670 H   0  0  0  0  0  0  0  0  0  0  0  0
   16.0180  -56.7890   37.6910 H   0  0  0  0  0  0  0  0  0  0  0  0
   15.0330  -57.8440   38.8180 H   0  0  0  0  0  0  0  0  0  0  0  0
   14.2130  -56.7980   37.6100 H   0  0  0  0  0  0  0  0  0  0  0  0
   18.2740  -60.1190   32.5840 H   0  0  0  0  0  0  0  0  0  0  0  0
   16.1240  -61.3640   32.7610 H   0  0  0  0  0  0  0  0  0  0  0  0
  2  1  1  0  0  0  0
  2  3  1  0  0  0  0
  3 30  1  0  0  0  0
  4  3  2  0  0  0  0
  4  8  1  0  0  0  0
  5  6  1  0  0  0  0
  5  4  1  0  0  0  0
  6  7  1  0  0  0  0
  7  9  1  0  0  0  0
  7  8  2  0  0  0  0
  8 32  1  0  0  0  0
  9 10  2  0  0  0  0
 11  9  1  0  0  0  0
 11 12  1  0  0  0  0
 12 13  1  0  0  0  0
 13 35  1  0  0  0  0
 13 14  1  0  0  0  0
 14 37  1  6  0  0  0
 14 19  1  0  0  0  0
 15 38  1  6  0  0  0
 15 14  1  0  0  0  0
 15 18  1  0  0  0  0
 16 15  1  0  0  0  0
 16 40  1  0  0  0  0
 17 11  1  0  0  0  0
 17 16  1  0  0  0  0
 18 43  1  0  0  0  0
 19 24  1  0  0  0  0
 19 20  1  0  0  0  0
 20 44  1  0  0  0  0
 21 20  1  0  0  0  0
 21 22  1  0  0  0  0
 21 47  1  0  0  0  0
 22 23  1  0  0  0  0
 23 49  1  0  0  0  0
 23 48  1  0  0  0  0
 24 50  1  0  0  0  0
 24 23  1  0  0  0  0
 25 22  1  0  0  0  0
 25 26  2  0  0  0  0
 27 53  1  0  0  0  0
 27 25  1  0  0  0  0
 28 29  1  0  0  0  0
 28  5  2  0  0  0  0
 29  2  2  0  0  0  0
 31  6  1  0  0  0  0
 33 12  1  0  0  0  0
 34 12  1  0  0  0  0
 36 13  1  0  0  0  0
 39 16  1  0  0  0  0
 41 17  1  0  0  0  0
 42 17  1  0  0  0  0
 45 20  1  0  0  0  0
 46 21  1  0  0  0  0
 51 24  1  0  0  0  0
 52 27  1  0  0  0  0
 54 27  1  0  0  0  0
 55 28  1  0  0  0  0
 56 29  1  0  0  0  0
M  END
>  <Pose>
1

>  <Score>
-5.71

$$$$
