
 OpenBabel03232204043D

 54 57  0  0  0  0  0  0  0  0999 V2000
   10.5760  -62.8230   41.2950 B   0  0  0  0  0  0  0  0  0  0  0  0
   10.7650  -61.9430   39.6150 C   0  0  0  0  0  0  0  0  0  0  0  0
   11.2690  -60.6640   39.5360 C   0  0  0  0  0  0  0  0  0  0  0  0
   11.4070  -60.0300   38.3250 C   0  0  0  0  0  0  0  0  0  0  0  0
   11.0260  -60.7100   37.1890 C   0  0  0  0  0  0  0  0  0  0  0  0
   10.5130  -62.0080   37.2550 C   0  0  0  0  0  0  0  0  0  0  0  0
   10.3770  -62.6430   38.4790 C   0  0  0  0  0  0  0  0  0  0  0  0
   11.1750  -60.0450   35.9780 O   0  0  0  0  0  0  0  0  0  0  0  0
   12.3070  -60.1700   35.1490 C   0  0  0  0  0  0  0  0  0  0  0  0
   11.9390  -58.6750   38.2280 C   0  0  0  0  0  0  0  0  0  0  0  0
   12.6920  -58.1530   39.1210 N   0  0  0  0  0  0  0  0  0  0  0  0
   13.2100  -56.8590   39.0450 N   0  0  0  0  0  0  0  0  0  0  0  0
   14.3500  -56.5320   38.2590 C   0  0  0  0  0  0  0  0  0  0  0  0
   15.1380  -55.4640   38.5100 N   0  0  0  0  0  4  0  0  0  0  0  0
   16.2030  -55.1840   37.7510 C   0  0  0  0  0  0  0  0  0  0  0  0
   16.4830  -55.9940   36.7180 N   0  0  0  0  0  0  0  0  0  0  0  0
   15.7330  -57.0850   36.4060 C   0  0  0  0  0  0  0  0  0  0  0  0
   14.6660  -57.3080   37.2220 N   0  0  0  0  0  0  0  0  0  0  0  0
   16.0320  -57.9290   35.3220 N   0  0  0  0  0  0  0  0  0  0  0  0
   17.1970  -57.7230   34.5150 C   0  0  0  0  0  0  0  0  0  0  0  0
   16.7280  -57.6600   33.0630 C   0  0  0  0  0  0  0  0  0  0  0  0
   16.0370  -58.8320   32.8090 O   0  0  0  0  0  0  0  0  0  0  0  0
   14.8570  -58.9230   33.5090 C   0  0  0  0  0  0  0  0  0  0  0  0
   15.1610  -59.0220   35.0040 C   0  0  0  0  0  0  0  0  0  0  0  0
   17.0330  -54.0610   38.0160 N   0  0  0  0  0  0  0  0  0  0  0  0
   16.7710  -52.7540   37.4550 C   0  0  0  0  0  0  0  0  0  0  0  0
   18.0550  -52.0920   36.9790 C   0  0  0  0  0  0  0  0  0  0  0  0
   19.0650  -52.2360   37.9360 O   0  0  0  0  0  0  0  0  0  0  0  0
   19.3650  -53.5580   38.1650 C   0  0  0  0  0  0  0  0  0  0  0  0
   18.1890  -54.1950   38.8740 C   0  0  0  0  0  0  0  0  0  0  0  0
   11.5770  -60.1080   40.4300 H   0  0  0  0  0  0  0  0  0  0  0  0
   10.2170  -62.5310   36.3420 H   0  0  0  0  0  0  0  0  0  0  0  0
    9.9810  -63.6440   38.5060 H   0  0  0  0  0  0  0  0  0  0  0  0
   13.0250  -59.3700   35.4590 H   0  0  0  0  0  0  0  0  0  0  0  0
   12.7510  -61.1770   35.1610 H   0  0  0  0  0  0  0  0  0  0  0  0
   12.0080  -59.9300   34.1030 H   0  0  0  0  0  0  0  0  0  0  0  0
   11.6980  -58.0680   37.3680 H   0  0  0  0  0  0  0  0  0  0  0  0
   12.7080  -56.1200   39.6070 H   0  0  0  0  0  0  0  0  0  0  0  0
   17.7380  -56.7830   34.7990 H   0  0  0  0  0  0  0  0  0  0  0  0
   17.8670  -58.6090   34.6010 H   0  0  0  0  0  0  0  0  0  0  0  0
   17.6510  -57.6590   32.4490 H   0  0  0  0  0  0  0  0  0  0  0  0
   16.1470  -56.7540   32.8720 H   0  0  0  0  0  0  0  0  0  0  0  0
   14.2230  -58.0130   33.3850 H   0  0  0  0  0  0  0  0  0  0  0  0
   14.3230  -59.8270   33.1970 H   0  0  0  0  0  0  0  0  0  0  0  0
   14.2290  -59.0240   35.5980 H   0  0  0  0  0  0  0  0  0  0  0  0
   15.7240  -59.9780   35.1250 H   0  0  0  0  0  0  0  0  0  0  0  0
   16.4180  -52.1190   38.3170 H   0  0  0  0  0  0  0  0  0  0  0  0
   16.0480  -52.7730   36.6350 H   0  0  0  0  0  0  0  0  0  0  0  0
   18.3210  -52.5350   36.0100 H   0  0  0  0  0  0  0  0  0  0  0  0
   17.8560  -50.9920   36.9210 H   0  0  0  0  0  0  0  0  0  0  0  0
   19.5740  -54.0450   37.1910 H   0  0  0  0  0  0  0  0  0  0  0  0
   20.2830  -53.6090   38.7580 H   0  0  0  0  0  0  0  0  0  0  0  0
   18.0080  -53.6230   39.7880 H   0  0  0  0  0  0  0  0  0  0  0  0
   18.3800  -55.2500   39.1290 H   0  0  0  0  0  0  0  0  0  0  0  0
  2  1  1  0  0  0  0
  3  2  1  0  0  0  0
  3 31  1  0  0  0  0
  4  3  2  0  0  0  0
  5  6  2  0  0  0  0
  5  4  1  0  0  0  0
  6  7  1  0  0  0  0
  7 33  1  0  0  0  0
  7  2  2  0  0  0  0
  8  5  1  0  0  0  0
  9 35  1  0  0  0  0
  9 34  1  0  0  0  0
  9  8  1  0  0  0  0
 10  4  1  0  0  0  0
 10 11  2  0  0  0  0
 12 11  1  0  0  0  0
 12 38  1  0  0  0  0
 13 14  2  0  0  0  0
 13 12  1  0  0  0  0
 15 25  1  0  0  0  0
 15 14  2  0  0  0  0
 16 15  1  0  0  0  0
 17 16  2  0  0  0  0
 17 18  1  0  0  0  0
 18 13  1  0  0  0  0
 19 17  1  0  0  0  0
 20 40  1  0  0  0  0
 20 39  1  0  0  0  0
 20 19  1  0  0  0  0
 21 20  1  0  0  0  0
 22 21  1  0  0  0  0
 22 23  1  0  0  0  0
 23 24  1  0  0  0  0
 24 46  1  0  0  0  0
 24 19  1  0  0  0  0
 24 45  1  0  0  0  0
 25 30  1  0  0  0  0
 26 25  1  0  0  0  0
 26 47  1  0  0  0  0
 27 26  1  0  0  0  0
 27 28  1  0  0  0  0
 28 29  1  0  0  0  0
 29 52  1  0  0  0  0
 29 30  1  0  0  0  0
 30 54  1  0  0  0  0
 30 53  1  0  0  0  0
 32  6  1  0  0  0  0
 36  9  1  0  0  0  0
 37 10  1  0  0  0  0
 41 21  1  0  0  0  0
 42 21  1  0  0  0  0
 43 23  1  0  0  0  0
 44 23  1  0  0  0  0
 48 26  1  0  0  0  0
 49 27  1  0  0  0  0
 50 27  1  0  0  0  0
 51 29  1  0  0  0  0
M  END
>  <Pose>
1

>  <Score>
-6.91

$$$$
