
 OpenBabel03232204043D

 46 49  0  0  1  0  0  0  0  0999 V2000
   11.0870  -61.9540   35.9790 Cl  0  0  0  0  0  0  0  0  0  0  0  0
   12.6550  -61.6840   35.2510 C   0  0  0  0  0  0  0  0  0  0  0  0
   13.4250  -60.6080   35.7180 C   0  0  0  0  0  0  0  0  0  0  0  0
   14.6570  -60.3700   35.1680 C   0  0  0  0  0  0  0  0  0  0  0  0
   15.0810  -61.2340   34.1520 C   0  0  0  0  0  0  0  0  0  0  0  0
   14.3170  -62.2870   33.7010 C   0  0  0  0  0  0  0  0  0  0  0  0
   13.0730  -62.5310   34.2540 C   0  0  0  0  0  0  0  0  0  0  0  0
   14.8720  -63.3590   32.4220 Cl  0  0  0  0  0  0  0  0  0  0  0  0
   15.5300  -59.2660   35.5950 C   0  0  2  0  0  0  0  0  0  0  0  0
   14.9020  -58.4800   36.6710 C   0  0  0  0  0  0  0  0  0  0  0  0
   13.6770  -58.7330   37.2030 C   0  0  0  0  0  0  0  0  0  0  0  0
   13.1400  -57.9720   38.2000 N   0  0  0  0  0  0  0  0  0  0  0  0
   13.8620  -56.9490   38.6500 C   0  0  0  0  0  0  0  0  0  0  0  0
   13.4040  -56.2110   39.5780 O   0  0  0  0  0  0  0  0  0  0  0  0
   15.0820  -56.6610   38.1510 N   0  0  0  0  0  0  0  0  0  0  0  0
   15.6180  -57.4010   37.1750 C   0  0  0  0  0  0  0  0  0  0  0  0
   16.7550  -57.1340   36.7090 O   0  0  0  0  0  0  0  0  0  0  0  0
   15.8240  -55.5290   38.6880 C   0  0  0  0  0  0  0  0  0  0  0  0
   11.8320  -58.2690   38.7440 C   0  0  0  0  0  0  0  0  0  0  0  0
   12.9500  -59.7900   36.7260 O   0  0  0  0  0  0  0  0  0  0  0  0
   15.9210  -58.3980   34.4360 C   0  0  0  0  0  0  0  0  0  0  0  0
   15.0600  -57.4750   33.8950 C   0  0  0  0  0  0  0  0  0  0  0  0
   15.3770  -56.6920   32.8520 N   0  0  0  0  0  0  0  0  0  0  0  0
   16.6040  -56.8230   32.3110 C   0  0  0  0  0  0  0  0  0  0  0  0
   16.8930  -56.0810   31.3270 O   0  0  0  0  0  0  0  0  0  0  0  0
   17.4790  -57.7140   32.8080 N   0  0  0  0  0  0  0  0  0  0  0  0
   17.1820  -58.5040   33.8500 C   0  0  0  0  0  0  0  0  0  0  0  0
   17.9770  -59.3430   34.3350 O   0  0  0  0  0  0  0  0  0  0  0  0
   18.7820  -57.8180   32.1920 C   0  0  0  0  0  0  0  0  0  0  0  0
   14.4460  -55.7230   32.3060 C   0  0  0  0  0  0  0  0  0  0  0  0
   13.8030  -57.3420   34.4500 O   0  0  0  0  0  0  0  0  0  0  0  0
   16.0550  -61.0500   33.7130 H   0  0  0  0  0  0  0  0  0  0  0  0
   12.4500  -63.3460   33.9240 H   0  0  0  0  0  0  0  0  0  0  0  0
   16.4970  -59.6660   36.0160 H   0  0  0  0  0  0  0  0  0  0  0  0
   15.1910  -54.9870   39.4410 H   0  0  0  0  0  0  0  0  0  0  0  0
   16.1700  -54.8310   37.9110 H   0  0  0  0  0  0  0  0  0  0  0  0
   16.7240  -55.8480   39.2600 H   0  0  0  0  0  0  0  0  0  0  0  0
   11.3250  -59.0670   38.1460 H   0  0  0  0  0  0  0  0  0  0  0  0
   11.1530  -57.3920   38.7030 H   0  0  0  0  0  0  0  0  0  0  0  0
   11.9600  -58.6550   39.7720 H   0  0  0  0  0  0  0  0  0  0  0  0
   19.5480  -58.0000   32.9590 H   0  0  0  0  0  0  0  0  0  0  0  0
   19.0600  -56.8920   31.6450 H   0  0  0  0  0  0  0  0  0  0  0  0
   18.7900  -58.6240   31.4010 H   0  0  0  0  0  0  0  0  0  0  0  0
   14.9390  -54.7140   32.4330 H   0  0  0  0  0  0  0  0  0  0  0  0
   14.3120  -55.8340   31.2060 H   0  0  0  0  0  0  0  0  0  0  0  0
   13.5130  -55.6830   32.8690 H   0  0  0  0  0  0  0  0  0  0  0  0
  2  3  1  0  0  0  0
  2  1  1  0  0  0  0
  3 20  1  0  0  0  0
  4  9  1  0  0  0  0
  4  3  2  0  0  0  0
  5  4  1  0  0  0  0
  6  5  2  0  0  0  0
  6  7  1  0  0  0  0
  7  2  2  0  0  0  0
  8  6  1  0  0  0  0
  9 34  1  1  0  0  0
  9 10  1  0  0  0  0
 10 16  1  0  0  0  0
 10 11  2  0  0  0  0
 11 12  1  0  0  0  0
 12 13  1  0  0  0  0
 12 19  1  0  0  0  0
 13 14  2  0  0  0  0
 15 13  1  0  0  0  0
 15 18  1  0  0  0  0
 16 15  1  0  0  0  0
 17 16  2  0  0  0  0
 18 37  1  0  0  0  0
 18 35  1  0  0  0  0
 19 40  1  0  0  0  0
 20 11  1  0  0  0  0
 21  9  1  0  0  0  0
 22 21  1  0  0  0  0
 22 31  2  0  0  0  0
 23 22  1  0  0  0  0
 24 26  1  0  0  0  0
 24 23  1  0  0  0  0
 25 24  2  0  0  0  0
 26 27  1  0  0  0  0
 27 28  2  0  0  0  0
 27 21  1  0  0  0  0
 29 26  1  0  0  0  0
 29 41  1  0  0  0  0
 30 44  1  0  0  0  0
 30 23  1  0  0  0  0
 30 46  1  0  0  0  0
 32  5  1  0  0  0  0
 33  7  1  0  0  0  0
 36 18  1  0  0  0  0
 38 19  1  0  0  0  0
 39 19  1  0  0  0  0
 42 29  1  0  0  0  0
 43 29  1  0  0  0  0
 45 30  1  0  0  0  0
M  END
>  <Pose>
1

>  <Score>
-5.57

$$$$
