
 OpenBabel03232204043D

 45 49  0  0  0  0  0  0  0  0999 V2000
    9.3710  -61.4480   38.7040 Cl  0  0  0  0  0  0  0  0  0  0  0  0
   10.6720  -60.3290   38.4410 C   0  0  0  0  0  0  0  0  0  0  0  0
   10.9440  -59.3640   39.3790 C   0  0  0  0  0  0  0  0  0  0  0  0
   11.9740  -58.4740   39.1740 C   0  0  0  0  0  0  0  0  0  0  0  0
   12.7570  -58.5180   38.0440 C   0  0  0  0  0  0  0  0  0  0  0  0
   12.4600  -59.4970   37.1210 C   0  0  0  0  0  0  0  0  0  0  0  0
   11.4300  -60.3990   37.3080 C   0  0  0  0  0  0  0  0  0  0  0  0
   13.8310  -57.6300   37.7790 N   0  0  0  0  0  0  0  0  0  0  0  0
   14.7100  -57.7000   36.7940 N   0  0  0  0  0  0  0  0  0  0  0  0
   15.5790  -56.7090   36.8430 N   0  0  0  0  0  0  0  0  0  0  0  0
   15.2950  -55.9250   37.8960 C   0  0  0  0  0  0  0  0  0  0  0  0
   14.1910  -56.5210   38.4730 C   0  0  0  0  0  0  0  0  0  0  0  0
   13.6690  -55.9410   39.5770 N   0  0  0  0  0  0  0  0  0  0  0  0
   14.2350  -54.8220   40.0660 C   0  0  0  0  0  0  0  0  0  0  0  0
   15.3190  -54.2410   39.4950 N   0  0  0  0  0  0  0  0  0  0  0  0
   15.8780  -54.7770   38.3940 C   0  0  0  0  0  0  0  0  0  0  0  0
   17.0200  -54.1800   37.7800 N   0  0  0  0  0  0  0  0  0  0  0  0
   18.1910  -54.0090   38.6190 C   0  0  0  0  0  0  0  0  0  0  0  0
   19.4610  -53.9430   37.7750 C   0  0  0  0  0  0  0  0  0  0  0  0
   19.2350  -53.2660   36.5490 N   0  0  0  0  0  0  0  0  0  0  0  0
   18.2430  -53.9620   35.6730 C   0  0  0  0  0  0  0  0  0  0  0  0
   16.9240  -53.8020   36.4050 C   0  0  0  0  0  0  0  0  0  0  0  0
   19.8210  -52.0810   36.1370 C   0  0  0  0  0  0  0  0  0  0  0  0
   20.3680  -52.1380   34.9350 O   0  0  0  0  0  0  0  0  0  0  0  0
   19.9570  -50.7740   36.7610 C   0  0  0  0  0  0  0  0  0  0  0  0
   20.6030  -49.6830   35.9950 C   0  0  0  0  0  0  0  0  0  0  0  0
   19.1790  -49.5700   36.4880 C   0  0  0  0  0  0  0  0  0  0  0  0
   10.3140  -59.3360   40.2770 H   0  0  0  0  0  0  0  0  0  0  0  0
   12.1590  -57.7300   39.9310 H   0  0  0  0  0  0  0  0  0  0  0  0
   13.0650  -59.5550   36.2140 H   0  0  0  0  0  0  0  0  0  0  0  0
   11.2630  -61.1460   36.5230 H   0  0  0  0  0  0  0  0  0  0  0  0
   13.8030  -54.3590   40.9630 H   0  0  0  0  0  0  0  0  0  0  0  0
   18.0660  -53.1250   39.2680 H   0  0  0  0  0  0  0  0  0  0  0  0
   18.3050  -54.8860   39.2870 H   0  0  0  0  0  0  0  0  0  0  0  0
   19.6910  -55.0270   37.4760 H   0  0  0  0  0  0  0  0  0  0  0  0
   20.2730  -53.6600   38.4100 H   0  0  0  0  0  0  0  0  0  0  0  0
   18.2110  -53.5070   34.6860 H   0  0  0  0  0  0  0  0  0  0  0  0
   18.5030  -55.0210   35.6690 H   0  0  0  0  0  0  0  0  0  0  0  0
   16.6200  -52.7360   36.2520 H   0  0  0  0  0  0  0  0  0  0  0  0
   16.1790  -54.4250   35.8660 H   0  0  0  0  0  0  0  0  0  0  0  0
   20.3050  -50.8420   37.8640 H   0  0  0  0  0  0  0  0  0  0  0  0
   20.8470  -49.7990   34.9290 H   0  0  0  0  0  0  0  0  0  0  0  0
   21.3470  -49.0100   36.4980 H   0  0  0  0  0  0  0  0  0  0  0  0
   19.0150  -48.8580   37.3670 H   0  0  0  0  0  0  0  0  0  0  0  0
   18.4190  -49.4190   35.7360 H   0  0  0  0  0  0  0  0  0  0  0  0
  2  1  1  0  0  0  0
  2  3  1  0  0  0  0
  3 28  1  0  0  0  0
  4  3  2  0  0  0  0
  4 29  1  0  0  0  0
  5  4  1  0  0  0  0
  6  7  1  0  0  0  0
  6  5  2  0  0  0  0
  7  2  2  0  0  0  0
  8  5  1  0  0  0  0
  8 12  1  0  0  0  0
  9 10  2  0  0  0  0
  9  8  1  0  0  0  0
 10 11  1  0  0  0  0
 11 16  1  0  0  0  0
 11 12  2  0  0  0  0
 12 13  1  0  0  0  0
 13 14  2  0  0  0  0
 14 32  1  0  0  0  0
 15 14  1  0  0  0  0
 16 15  2  0  0  0  0
 17 16  1  0  0  0  0
 17 18  1  0  0  0  0
 18 33  1  0  0  0  0
 18 34  1  0  0  0  0
 19 36  1  0  0  0  0
 19 18  1  0  0  0  0
 20 19  1  0  0  0  0
 21 22  1  0  0  0  0
 21 20  1  0  0  0  0
 22 17  1  0  0  0  0
 23 20  1  0  0  0  0
 23 25  1  0  0  0  0
 24 23  2  0  0  0  0
 25 41  1  0  0  0  0
 26 27  1  0  0  0  0
 26 43  1  0  0  0  0
 26 25  1  0  0  0  0
 27 25  1  0  0  0  0
 27 44  1  0  0  0  0
 30  6  1  0  0  0  0
 31  7  1  0  0  0  0
 35 19  1  0  0  0  0
 37 21  1  0  0  0  0
 38 21  1  0  0  0  0
 39 22  1  0  0  0  0
 40 22  1  0  0  0  0
 42 26  1  0  0  0  0
 45 27  1  0  0  0  0
M  END
>  <Pose>
1

>  <Score>
-5.39

$$$$
