
 OpenBabel03232204043D

 45 48  0  0  0  0  0  0  0  0999 V2000
   15.8410  -53.2200   39.7750 Cl  0  0  0  0  0  0  0  0  0  0  0  0
   15.5640  -54.6400   38.7910 C   0  0  0  0  0  0  0  0  0  0  0  0
   14.3770  -55.3050   38.9260 C   0  0  0  0  0  0  0  0  0  0  0  0
   14.0900  -56.4210   38.1920 C   0  0  0  0  0  0  0  0  0  0  0  0
   15.0320  -56.8690   37.3040 C   0  0  0  0  0  0  0  0  0  0  0  0
   16.2510  -56.1820   37.1690 C   0  0  0  0  0  0  0  0  0  0  0  0
   16.5510  -55.0650   37.8970 C   0  0  0  0  0  0  0  0  0  0  0  0
   17.7310  -54.3140   37.8230 N   0  0  0  0  0  0  0  0  0  0  0  0
   17.9770  -53.2960   36.8980 C   0  0  0  0  0  0  0  0  0  0  0  0
   17.6510  -52.1160   37.0890 O   0  0  0  0  0  0  0  0  0  0  0  0
   18.6620  -53.5950   35.6100 C   0  0  0  0  0  0  0  0  0  0  0  0
   18.2510  -54.6060   34.9080 N   0  0  0  0  0  0  0  0  0  0  0  0
   18.8370  -54.9540   33.6920 N   0  0  0  0  0  0  0  0  0  0  0  0
   19.9120  -54.1820   33.2060 C   0  0  0  0  0  0  0  0  0  0  0  0
   20.3580  -54.4860   32.0480 O   0  0  0  0  0  0  0  0  0  0  0  0
   20.5110  -53.0740   33.9770 C   0  0  0  0  0  0  0  0  0  0  0  0
   19.7410  -52.8050   35.1410 N   0  0  0  0  0  0  0  0  0  0  0  0
   18.3550  -56.0930   32.9380 C   0  0  0  0  0  0  0  0  0  0  0  0
   17.7240  -55.9390   31.7270 C   0  0  0  0  0  0  0  0  0  0  0  0
   17.2720  -57.0550   31.0160 C   0  0  0  0  0  0  0  0  0  0  0  0
   17.4460  -58.3300   31.5140 C   0  0  0  0  0  0  0  0  0  0  0  0
   18.0780  -58.4680   32.7280 C   0  0  0  0  0  0  0  0  0  0  0  0
   18.5170  -57.3750   33.4160 C   0  0  0  0  0  0  0  0  0  0  0  0
   16.9850  -59.5540   30.7920 C   0  0  0  0  0  0  0  0  0  0  0  0
   14.8200  -57.9980   36.5180 O   0  0  0  0  0  0  0  0  0  0  0  0
   13.5110  -58.5450   36.3000 C   0  0  0  0  0  0  0  0  0  0  0  0
   12.6460  -58.2770   37.4870 C   0  0  0  0  0  0  0  0  0  0  0  0
   11.7290  -59.0880   37.7510 O   0  0  0  0  0  0  0  0  0  0  0  0
   12.8510  -57.1300   38.3060 N   0  0  0  0  0  0  0  0  0  0  0  0
   13.5940  -54.9780   39.6280 H   0  0  0  0  0  0  0  0  0  0  0  0
   16.9670  -56.5680   36.4560 H   0  0  0  0  0  0  0  0  0  0  0  0
   18.5000  -54.5410   38.5290 H   0  0  0  0  0  0  0  0  0  0  0  0
   21.5300  -53.4050   34.3340 H   0  0  0  0  0  0  0  0  0  0  0  0
   20.6660  -52.1810   33.3350 H   0  0  0  0  0  0  0  0  0  0  0  0
   19.9800  -51.9560   35.7160 H   0  0  0  0  0  0  0  0  0  0  0  0
   17.5860  -54.9400   31.3330 H   0  0  0  0  0  0  0  0  0  0  0  0
   16.7840  -56.9290   30.0760 H   0  0  0  0  0  0  0  0  0  0  0  0
   18.2130  -59.4880   33.1170 H   0  0  0  0  0  0  0  0  0  0  0  0
   19.0140  -57.5270   34.3710 H   0  0  0  0  0  0  0  0  0  0  0  0
   16.4450  -60.2490   31.4590 H   0  0  0  0  0  0  0  0  0  0  0  0
   16.3460  -59.3200   29.9350 H   0  0  0  0  0  0  0  0  0  0  0  0
   17.8850  -60.0910   30.3970 H   0  0  0  0  0  0  0  0  0  0  0  0
   13.0830  -57.9550   35.4470 H   0  0  0  0  0  0  0  0  0  0  0  0
   13.5740  -59.6120   36.0550 H   0  0  0  0  0  0  0  0  0  0  0  0
   12.1190  -56.8150   38.9720 H   0  0  0  0  0  0  0  0  0  0  0  0
  2  3  1  0  0  0  0
  2  1  1  0  0  0  0
  3 30  1  0  0  0  0
  4 29  1  0  0  0  0
  4  3  2  0  0  0  0
  5  4  1  0  0  0  0
  6  5  2  0  0  0  0
  6  7  1  0  0  0  0
  7  2  2  0  0  0  0
  8  7  1  0  0  0  0
  8 32  1  0  0  0  0
  9 10  2  0  0  0  0
  9  8  1  0  0  0  0
 11  9  1  0  0  0  0
 12 11  2  0  0  0  0
 13 12  1  0  0  0  0
 14 13  1  0  0  0  0
 14 16  1  0  0  0  0
 15 14  2  0  0  0  0
 16 33  1  0  0  0  0
 16 17  1  0  0  0  0
 17 11  1  0  0  0  0
 17 35  1  0  0  0  0
 18 23  1  0  0  0  0
 18 13  1  0  0  0  0
 19 18  2  0  0  0  0
 20 21  2  0  0  0  0
 20 19  1  0  0  0  0
 21 22  1  0  0  0  0
 22 38  1  0  0  0  0
 22 23  2  0  0  0  0
 23 39  1  0  0  0  0
 24 40  1  0  0  0  0
 24 21  1  0  0  0  0
 25  5  1  0  0  0  0
 26 25  1  0  0  0  0
 26 27  1  0  0  0  0
 27 28  2  0  0  0  0
 27 29  1  0  0  0  0
 29 45  1  0  0  0  0
 31  6  1  0  0  0  0
 34 16  1  0  0  0  0
 36 19  1  0  0  0  0
 37 20  1  0  0  0  0
 41 24  1  0  0  0  0
 42 24  1  0  0  0  0
 43 26  1  0  0  0  0
 44 26  1  0  0  0  0
M  END
>  <Pose>
1

>  <Score>
-7.69

$$$$
