
 OpenBabel03232204043D

 41 44  0  0  1  0  0  0  0  0999 V2000
   14.4410  -58.2370   34.1500 S   0  0  0  0  0  0  0  0  0  0  0  0
   12.9440  -58.3450   33.9000 O   0  0  0  0  0  0  0  0  0  0  0  0
   14.8220  -56.8790   33.5700 O   0  0  0  0  0  0  0  0  0  0  0  0
   14.8030  -58.2170   35.7880 N   0  0  0  0  0  0  0  0  0  0  0  0
   13.7340  -58.2480   36.7030 C   0  0  0  0  0  0  0  0  0  0  0  0
   14.1420  -57.9670   38.1360 C   0  0  0  0  0  0  0  0  0  0  0  0
   14.9080  -56.6860   38.1020 C   0  0  1  0  0  0  0  0  0  0  0  0
   15.8730  -56.5700   37.1230 C   0  0  0  0  0  0  0  0  0  0  0  0
   16.5920  -55.4500   37.0390 N   0  0  0  0  0  0  0  0  0  0  0  0
   16.3450  -54.4630   37.9240 C   0  0  2  0  0  0  0  0  0  0  0  0
   15.4100  -54.5510   38.8860 N   0  0  0  0  0  0  0  0  0  0  0  0
   15.3890  -53.4190   39.6160 N   0  0  0  0  0  0  0  0  0  0  0  0
   16.3070  -52.5580   39.1540 C   0  0  0  0  0  0  0  0  0  0  0  0
   16.9140  -53.1940   38.0970 C   0  0  0  0  0  0  0  0  0  0  0  0
   14.6630  -55.6710   39.0000 C   0  0  0  0  0  0  0  0  0  0  0  0
   13.7750  -55.8120   39.8790 O   0  0  0  0  0  0  0  0  0  0  0  0
   16.0490  -57.7260   36.2120 C   0  0  0  0  0  0  0  0  0  0  0  0
   15.2030  -59.4580   33.2050 C   0  0  0  0  0  0  0  0  0  0  0  0
   16.5850  -59.4720   33.0380 C   0  0  0  0  0  0  0  0  0  0  0  0
   17.1620  -60.4620   32.2720 C   0  0  0  0  0  0  0  0  0  0  0  0
   16.4290  -61.4330   31.6710 C   0  0  0  0  0  0  0  0  0  0  0  0
   15.0700  -61.4470   31.8170 C   0  0  0  0  0  0  0  0  0  0  0  0
   14.4920  -60.4560   32.5820 C   0  0  0  0  0  0  0  0  0  0  0  0
   14.0910  -62.6990   31.0450 Cl  0  0  0  0  0  0  0  0  0  0  0  0
   17.4010  -58.5260   33.6130 O   0  0  0  0  0  0  0  0  0  0  0  0
   18.6470  -58.2420   33.0180 C   0  0  0  0  0  0  0  0  0  0  0  0
   13.2390  -59.2500   36.6600 H   0  0  0  0  0  0  0  0  0  0  0  0
   12.9480  -57.5100   36.3910 H   0  0  0  0  0  0  0  0  0  0  0  0
   14.7650  -58.8150   38.4960 H   0  0  0  0  0  0  0  0  0  0  0  0
   13.2110  -57.8760   38.7220 H   0  0  0  0  0  0  0  0  0  0  0  0
   14.7390  -53.2640   40.4200 H   0  0  0  0  0  0  0  0  0  0  0  0
   16.5510  -51.5590   39.5140 H   0  0  0  0  0  0  0  0  0  0  0  0
   17.7220  -52.8250   37.4470 H   0  0  0  0  0  0  0  0  0  0  0  0
   16.5520  -58.5250   36.8330 H   0  0  0  0  0  0  0  0  0  0  0  0
   16.7200  -57.5270   35.3790 H   0  0  0  0  0  0  0  0  0  0  0  0
   18.2520  -60.5020   32.1190 H   0  0  0  0  0  0  0  0  0  0  0  0
   16.8950  -62.2190   31.0620 H   0  0  0  0  0  0  0  0  0  0  0  0
   13.3940  -60.5200   32.6620 H   0  0  0  0  0  0  0  0  0  0  0  0
   19.2530  -59.1640   32.8850 H   0  0  0  0  0  0  0  0  0  0  0  0
   18.5260  -57.7910   32.0000 H   0  0  0  0  0  0  0  0  0  0  0  0
   19.2020  -57.4730   33.6090 H   0  0  0  0  0  0  0  0  0  0  0  0
  1  4  1  0  0  0  0
  2  1  2  0  0  0  0
  3  1  2  0  0  0  0
  4 17  1  0  0  0  0
  4  5  1  0  0  0  0
  5  6  1  0  0  0  0
  6 29  1  0  0  0  0
  6 30  1  0  0  0  0
  7  8  1  6  0  0  0
  7  6  1  0  0  0  0
  7 15  1  0  0  0  0
  9  8  2  0  0  0  0
 10  9  1  6  0  0  0
 10 14  1  0  0  0  0
 10 11  1  0  0  0  0
 11 15  1  0  0  0  0
 11 12  1  0  0  0  0
 12 31  1  0  0  0  0
 13 32  1  0  0  0  0
 13 12  1  0  0  0  0
 14 13  2  0  0  0  0
 15 16  2  0  0  0  0
 17 34  1  0  0  0  0
 17  8  1  0  0  0  0
 18  1  1  0  0  0  0
 19 18  1  0  0  0  0
 19 25  1  0  0  0  0
 20 19  2  0  0  0  0
 21 22  2  0  0  0  0
 21 20  1  0  0  0  0
 22 23  1  0  0  0  0
 23 38  1  0  0  0  0
 23 18  2  0  0  0  0
 24 22  1  0  0  0  0
 26 41  1  0  0  0  0
 26 25  1  0  0  0  0
 27  5  1  0  0  0  0
 28  5  1  0  0  0  0
 33 14  1  0  0  0  0
 35 17  1  0  0  0  0
 36 20  1  0  0  0  0
 37 21  1  0  0  0  0
 39 26  1  0  0  0  0
 40 26  1  0  0  0  0
M  END
>  <Pose>
1

>  <Score>
-7.10

$$$$
