
 OpenBabel03232204043D

 41 44  0  0  1  0  0  0  0  0999 V2000
   14.9150  -57.9480   34.2910 S   0  0  0  0  0  0  0  0  0  0  0  0
   14.3610  -59.2240   33.7010 O   0  0  0  0  0  0  0  0  0  0  0  0
   13.8500  -56.9030   34.1370 O   0  0  0  0  0  0  0  0  0  0  0  0
   15.2950  -58.1970   35.8960 N   0  0  0  0  0  0  0  0  0  0  0  0
   14.3000  -58.6140   36.7790 C   0  0  0  0  0  0  0  0  0  0  0  0
   14.4250  -58.0180   38.1620 C   0  0  0  0  0  0  0  0  0  0  0  0
   15.0970  -56.6980   38.1790 C   0  0  2  0  0  0  0  0  0  0  0  0
   16.1290  -56.5130   37.2920 C   0  0  0  0  0  0  0  0  0  0  0  0
   16.7950  -55.3530   37.2380 N   0  0  0  0  0  0  0  0  0  0  0  0
   16.4390  -54.3320   38.0840 C   0  0  2  0  0  0  0  0  0  0  0  0
   15.4220  -54.5330   38.9480 N   0  0  0  0  0  0  0  0  0  0  0  0
   15.2770  -53.4050   39.6480 N   0  0  0  0  0  0  0  0  0  0  0  0
   16.1650  -52.5010   39.2550 C   0  0  0  0  0  0  0  0  0  0  0  0
   16.9410  -53.0590   38.2410 C   0  0  0  0  0  0  0  0  0  0  0  0
   14.7230  -55.6710   39.0450 C   0  0  0  0  0  0  0  0  0  0  0  0
   13.7780  -55.8550   39.8490 O   0  0  0  0  0  0  0  0  0  0  0  0
   16.4890  -57.6220   36.3940 C   0  0  0  0  0  0  0  0  0  0  0  0
   16.2700  -57.4800   33.2880 C   0  0  0  0  0  0  0  0  0  0  0  0
   17.0030  -56.3260   33.5070 C   0  0  0  0  0  0  0  0  0  0  0  0
   18.0680  -56.0050   32.6790 C   0  0  0  0  0  0  0  0  0  0  0  0
   18.4440  -56.8010   31.6210 C   0  0  0  0  0  0  0  0  0  0  0  0
   17.7150  -57.9500   31.4030 C   0  0  0  0  0  0  0  0  0  0  0  0
   16.6570  -58.2690   32.2260 C   0  0  0  0  0  0  0  0  0  0  0  0
   19.5270  -56.4570   30.7960 O   0  0  0  0  0  0  0  0  0  0  0  0
   19.2840  -55.8840   29.5250 C   0  0  0  0  0  0  0  0  0  0  0  0
   18.9850  -54.5400   32.9690 Cl  0  0  0  0  0  0  0  0  0  0  0  0
   13.2660  -58.4640   36.3710 H   0  0  0  0  0  0  0  0  0  0  0  0
   14.3970  -59.7320   36.9250 H   0  0  0  0  0  0  0  0  0  0  0  0
   13.4510  -57.9990   38.6920 H   0  0  0  0  0  0  0  0  0  0  0  0
   15.0750  -58.6880   38.8000 H   0  0  0  0  0  0  0  0  0  0  0  0
   14.5690  -53.2420   40.4000 H   0  0  0  0  0  0  0  0  0  0  0  0
   16.2960  -51.5060   39.6260 H   0  0  0  0  0  0  0  0  0  0  0  0
   17.7380  -52.5730   37.7280 H   0  0  0  0  0  0  0  0  0  0  0  0
   17.1250  -57.3200   35.5550 H   0  0  0  0  0  0  0  0  0  0  0  0
   16.9980  -58.3970   37.0390 H   0  0  0  0  0  0  0  0  0  0  0  0
   16.7000  -55.7070   34.3420 H   0  0  0  0  0  0  0  0  0  0  0  0
   18.0040  -58.5950   30.5620 H   0  0  0  0  0  0  0  0  0  0  0  0
   16.0940  -59.1820   32.0350 H   0  0  0  0  0  0  0  0  0  0  0  0
   18.5870  -55.0160   29.7050 H   0  0  0  0  0  0  0  0  0  0  0  0
   20.2160  -55.4120   29.1360 H   0  0  0  0  0  0  0  0  0  0  0  0
   18.8550  -56.6060   28.8150 H   0  0  0  0  0  0  0  0  0  0  0  0
  1  4  1  0  0  0  0
  2  1  2  0  0  0  0
  3  1  2  0  0  0  0
  4 17  1  0  0  0  0
  4  5  1  0  0  0  0
  5 28  1  0  0  0  0
  5  6  1  0  0  0  0
  6  7  1  0  0  0  0
  6 29  1  0  0  0  0
  6 30  1  0  0  0  0
  7  8  1  1  0  0  0
  7 15  1  0  0  0  0
  9  8  2  0  0  0  0
 10  9  1  6  0  0  0
 10 14  1  0  0  0  0
 10 11  1  0  0  0  0
 11 15  1  0  0  0  0
 11 12  1  0  0  0  0
 12 31  1  0  0  0  0
 13 32  1  0  0  0  0
 13 12  1  0  0  0  0
 14 13  2  0  0  0  0
 15 16  2  0  0  0  0
 17 35  1  0  0  0  0
 17  8  1  0  0  0  0
 18 19  1  0  0  0  0
 18  1  1  0  0  0  0
 19 36  1  0  0  0  0
 20 26  1  0  0  0  0
 20 19  2  0  0  0  0
 21 20  1  0  0  0  0
 22 21  2  0  0  0  0
 22 23  1  0  0  0  0
 23 18  2  0  0  0  0
 24 21  1  0  0  0  0
 25 39  1  0  0  0  0
 25 24  1  0  0  0  0
 27  5  1  0  0  0  0
 33 14  1  0  0  0  0
 34 17  1  0  0  0  0
 37 22  1  0  0  0  0
 38 23  1  0  0  0  0
 40 25  1  0  0  0  0
 41 25  1  0  0  0  0
M  END
>  <Pose>
1

>  <Score>
-7.52

$$$$
