
 OpenBabel03232204043D

 41 43  0  0  1  0  0  0  0  0999 V2000
   18.7280  -51.2820   37.3560 Cl  0  0  0  0  0  0  0  0  0  0  0  0
   17.5290  -52.4820   37.8330 C   0  0  0  0  0  0  0  0  0  0  0  0
   17.3740  -53.6220   37.0730 C   0  0  0  0  0  0  0  0  0  0  0  0
   16.4330  -54.5480   37.4620 C   0  0  0  0  0  0  0  0  0  0  0  0
   15.6250  -54.3880   38.5920 C   0  0  0  0  0  0  0  0  0  0  0  0
   15.7860  -53.2570   39.3380 C   0  0  0  0  0  0  0  0  0  0  0  0
   16.7380  -52.3040   38.9580 C   0  0  0  0  0  0  0  0  0  0  0  0
   14.6800  -55.4340   38.8920 C   0  0  0  0  0  0  0  0  0  0  0  0
   14.3460  -55.6330   40.0940 O   0  0  0  0  0  0  0  0  0  0  0  0
   14.1420  -56.2230   37.8300 N   0  0  0  0  0  0  0  0  0  0  0  0
   13.8080  -57.5880   38.1120 C   0  0  0  0  0  0  0  0  0  0  0  0
   13.3490  -58.4190   36.9810 C   0  0  2  0  0  0  0  0  0  0  0  0
   13.9590  -59.7030   36.8170 N   0  0  1  0  0  0  0  0  0  0  0  0
   12.8650  -60.5940   36.3600 C   0  0  0  0  0  0  0  0  0  0  0  0
   12.1760  -59.7900   35.2510 C   0  0  0  0  0  0  0  0  0  0  0  0
   13.0570  -58.7960   34.6690 N   0  0  1  0  0  0  0  0  0  0  0  0
   13.3950  -57.7370   35.6240 C   0  0  0  0  0  0  0  0  0  0  0  0
   14.3140  -59.4660   34.3840 C   0  0  0  0  0  0  0  0  0  0  0  0
   14.9270  -59.7870   35.7420 C   0  0  0  0  0  0  0  0  0  0  0  0
   18.1620  -53.8090   35.9460 O   0  0  0  0  0  0  0  0  0  0  0  0
   19.5560  -54.0250   36.0480 C   0  0  0  0  0  0  0  0  0  0  0  0
   16.3410  -55.4360   36.8350 H   0  0  0  0  0  0  0  0  0  0  0  0
   15.2070  -53.0670   40.2140 H   0  0  0  0  0  0  0  0  0  0  0  0
   16.8480  -51.4150   39.5640 H   0  0  0  0  0  0  0  0  0  0  0  0
   14.0150  -55.7880   36.9170 H   0  0  0  0  0  0  0  0  0  0  0  0
   14.6530  -58.0910   38.6050 H   0  0  0  0  0  0  0  0  0  0  0  0
   12.9600  -57.5560   38.8550 H   0  0  0  0  0  0  0  0  0  0  0  0
   12.2300  -58.5690   37.1560 H   0  0  0  0  0  0  0  0  0  0  0  0
   12.1980  -60.6990   37.2350 H   0  0  0  0  0  0  0  0  0  0  0  0
   13.2830  -61.5330   35.9910 H   0  0  0  0  0  0  0  0  0  0  0  0
   11.9750  -60.5320   34.4500 H   0  0  0  0  0  0  0  0  0  0  0  0
   11.2180  -59.3910   35.5990 H   0  0  0  0  0  0  0  0  0  0  0  0
   14.3810  -57.3580   35.3540 H   0  0  0  0  0  0  0  0  0  0  0  0
   12.6220  -56.9380   35.5820 H   0  0  0  0  0  0  0  0  0  0  0  0
   14.9490  -58.7330   33.8500 H   0  0  0  0  0  0  0  0  0  0  0  0
   14.0730  -60.3560   33.7920 H   0  0  0  0  0  0  0  0  0  0  0  0
   15.8680  -59.2790   35.9080 H   0  0  0  0  0  0  0  0  0  0  0  0
   15.1750  -60.8930   35.6660 H   0  0  0  0  0  0  0  0  0  0  0  0
   19.6900  -54.9750   36.6070 H   0  0  0  0  0  0  0  0  0  0  0  0
   20.0370  -53.2250   36.6710 H   0  0  0  0  0  0  0  0  0  0  0  0
   19.9850  -54.1040   35.0490 H   0  0  0  0  0  0  0  0  0  0  0  0
  1  2  1  0  0  0  0
  2  7  1  0  0  0  0
  3  4  1  0  0  0  0
  3  2  2  0  0  0  0
  4  5  2  0  0  0  0
  5  8  1  0  0  0  0
  5  6  1  0  0  0  0
  6 23  1  0  0  0  0
  7  6  2  0  0  0  0
  7 24  1  0  0  0  0
  8  9  2  0  0  0  0
 10 11  1  0  0  0  0
 10  8  1  0  0  0  0
 11 26  1  0  0  0  0
 11 27  1  0  0  0  0
 12 28  1  1  0  0  0
 12 11  1  0  0  0  0
 13 19  1  6  0  0  0
 13 12  1  0  0  0  0
 14 13  1  0  0  0  0
 14 29  1  0  0  0  0
 15 32  1  0  0  0  0
 15 14  1  0  0  0  0
 16 18  1  1  0  0  0
 16 15  1  0  0  0  0
 16 17  1  0  0  0  0
 17 12  1  0  0  0  0
 18 19  1  0  0  0  0
 19 37  1  0  0  0  0
 20 21  1  0  0  0  0
 20  3  1  0  0  0  0
 21 39  1  0  0  0  0
 21 40  1  0  0  0  0
 22  4  1  0  0  0  0
 25 10  1  0  0  0  0
 30 14  1  0  0  0  0
 31 15  1  0  0  0  0
 33 17  1  0  0  0  0
 34 17  1  0  0  0  0
 35 18  1  0  0  0  0
 36 18  1  0  0  0  0
 38 19  1  0  0  0  0
 41 21  1  0  0  0  0
M  END
>  <Pose>
1

>  <Score>
-5.36

$$$$
