
 OpenBabel03232204043D

 47 50  0  0  1  0  0  0  0  0999 V2000
   17.0500  -62.1960   32.7660 Cl  0  0  0  0  0  0  0  0  0  0  0  0
   15.8270  -61.1320   33.4140 C   0  0  0  0  0  0  0  0  0  0  0  0
   15.5590  -59.8770   32.8830 C   0  0  0  0  0  0  0  0  0  0  0  0
   14.5990  -59.0600   33.4050 C   0  0  0  0  0  0  0  0  0  0  0  0
   13.8520  -59.4610   34.4950 C   0  0  0  0  0  0  0  0  0  0  0  0
   14.1110  -60.7000   35.0250 C   0  0  0  0  0  0  0  0  0  0  0  0
   15.0860  -61.5270   34.4940 C   0  0  0  0  0  0  0  0  0  0  0  0
   12.8250  -58.5780   35.0110 C   0  0  2  0  0  0  0  0  0  0  0  0
   12.7790  -58.1250   36.3100 N   0  0  0  0  0  4  0  0  0  0  0  0
   12.3640  -59.2700   37.0930 C   0  0  0  0  0  0  0  0  0  0  0  0
   12.7120  -59.7990   38.2210 C   0  0  0  0  0  0  0  0  0  0  0  0
   12.0910  -61.0090   38.7910 C   0  0  0  0  0  0  0  0  0  0  0  0
   11.0180  -61.6310   37.9710 C   0  0  0  0  0  0  0  0  0  0  0  0
   10.3760  -60.7130   36.9870 C   0  0  0  0  0  0  0  0  0  0  0  0
   11.3300  -59.8530   36.3200 N   0  0  0  0  0  0  0  0  0  0  0  0
   11.5070  -59.4030   34.9420 C   0  0  0  0  0  0  0  0  0  0  0  0
   13.7800  -57.3830   36.9180 C   0  0  0  0  0  0  0  0  0  0  0  0
   15.0690  -57.2720   36.5230 C   0  0  0  0  0  0  0  0  0  0  0  0
   15.9610  -56.4730   37.2360 C   0  0  0  0  0  0  0  0  0  0  0  0
   15.5850  -55.7630   38.3640 C   0  0  0  0  0  0  0  0  0  0  0  0
   14.2660  -55.8960   38.7430 C   0  0  0  0  0  0  0  0  0  0  0  0
   13.3660  -56.6740   38.0640 C   0  0  0  0  0  0  0  0  0  0  0  0
   16.5040  -54.9800   39.0450 O   0  0  0  0  0  0  0  0  0  0  0  0
   16.2000  -53.6350   39.3100 C   0  0  0  0  0  0  0  0  0  0  0  0
   12.5800  -57.5330   34.0760 O   0  0  0  0  0  0  0  0  0  0  0  0
   16.1670  -59.5840   32.0180 H   0  0  0  0  0  0  0  0  0  0  0  0
   14.4560  -58.0880   32.9220 H   0  0  0  0  0  0  0  0  0  0  0  0
   13.5810  -61.1180   35.8650 H   0  0  0  0  0  0  0  0  0  0  0  0
   15.2880  -62.5180   34.9230 H   0  0  0  0  0  0  0  0  0  0  0  0
   11.8920  -57.5020   36.3790 H   0  0  0  0  0  0  0  0  0  0  0  0
   13.5120  -59.3720   38.8150 H   0  0  0  0  0  0  0  0  0  0  0  0
   11.7910  -60.8490   39.8570 H   0  0  0  0  0  0  0  0  0  0  0  0
   12.9370  -61.7570   38.8760 H   0  0  0  0  0  0  0  0  0  0  0  0
   10.2270  -61.9990   38.6860 H   0  0  0  0  0  0  0  0  0  0  0  0
   11.3890  -62.5220   37.3910 H   0  0  0  0  0  0  0  0  0  0  0  0
    9.5940  -60.0960   37.5170 H   0  0  0  0  0  0  0  0  0  0  0  0
    9.8310  -61.2810   36.2090 H   0  0  0  0  0  0  0  0  0  0  0  0
   10.6630  -58.7200   34.7190 H   0  0  0  0  0  0  0  0  0  0  0  0
   11.5940  -60.2330   34.2360 H   0  0  0  0  0  0  0  0  0  0  0  0
   15.3900  -57.8070   35.6440 H   0  0  0  0  0  0  0  0  0  0  0  0
   16.9840  -56.4270   36.8630 H   0  0  0  0  0  0  0  0  0  0  0  0
   13.9890  -55.3250   39.6360 H   0  0  0  0  0  0  0  0  0  0  0  0
   12.3260  -56.7210   38.4150 H   0  0  0  0  0  0  0  0  0  0  0  0
   16.1880  -53.0410   38.3750 H   0  0  0  0  0  0  0  0  0  0  0  0
   16.8760  -53.2030   40.0790 H   0  0  0  0  0  0  0  0  0  0  0  0
   15.1700  -53.5180   39.7570 H   0  0  0  0  0  0  0  0  0  0  0  0
   11.9510  -56.9140   34.5290 H   0  0  0  0  0  0  0  0  0  0  0  0
  1  2  1  0  0  0  0
  2  7  1  0  0  0  0
  3  4  1  0  0  0  0
  3  2  2  0  0  0  0
  4  5  2  0  0  0  0
  5  8  1  0  0  0  0
  5  6  1  0  0  0  0
  6 28  1  0  0  0  0
  7 29  1  0  0  0  0
  7  6  2  0  0  0  0
  8 25  1  6  0  0  0
  8  9  1  0  0  0  0
  9 30  1  0  0  0  0
  9 17  1  0  0  0  0
  9 10  1  0  0  0  0
 10 11  2  0  0  0  0
 11 12  1  0  0  0  0
 11 31  1  0  0  0  0
 12 33  1  0  0  0  0
 12 32  1  0  0  0  0
 13 34  1  0  0  0  0
 13 12  1  0  0  0  0
 14 36  1  0  0  0  0
 14 13  1  0  0  0  0
 15 14  1  0  0  0  0
 15 10  1  0  0  0  0
 16  8  1  0  0  0  0
 16 15  1  0  0  0  0
 17 22  1  0  0  0  0
 18 17  2  0  0  0  0
 18 19  1  0  0  0  0
 19 20  2  0  0  0  0
 20 21  1  0  0  0  0
 20 23  1  0  0  0  0
 21 42  1  0  0  0  0
 22 43  1  0  0  0  0
 22 21  2  0  0  0  0
 23 24  1  0  0  0  0
 24 46  1  0  0  0  0
 24 45  1  0  0  0  0
 25 47  1  0  0  0  0
 26  3  1  0  0  0  0
 27  4  1  0  0  0  0
 35 13  1  0  0  0  0
 37 14  1  0  0  0  0
 38 16  1  0  0  0  0
 39 16  1  0  0  0  0
 40 18  1  0  0  0  0
 41 19  1  0  0  0  0
 44 24  1  0  0  0  0
M  END
>  <Pose>
1

>  <Score>
-5.37

$$$$
