
 OpenBabel03232204043D

 51 54  0  0  0  0  0  0  0  0999 V2000
   20.3930  -53.8230   33.7130 Cl  0  0  0  0  0  0  0  0  0  0  0  0
   19.2710  -53.7040   35.0460 C   0  0  0  0  0  0  0  0  0  0  0  0
   19.3660  -52.6770   35.9450 C   0  0  0  0  0  0  0  0  0  0  0  0
   18.4450  -52.6000   36.9970 C   0  0  0  0  0  0  0  0  0  0  0  0
   17.4410  -53.5250   37.1610 C   0  0  0  0  0  0  0  0  0  0  0  0
   17.3310  -54.5840   36.2430 C   0  0  0  0  0  0  0  0  0  0  0  0
   18.2580  -54.6300   35.2160 C   0  0  0  0  0  0  0  0  0  0  0  0
   16.7010  -53.2160   38.2220 N   0  0  0  0  0  0  0  0  0  0  0  0
   17.2650  -52.0690   38.7290 C   0  0  0  0  0  0  0  0  0  0  0  0
   16.8560  -51.4460   39.7510 O   0  0  0  0  0  0  0  0  0  0  0  0
   18.2860  -51.7470   37.9740 O   0  0  0  0  0  0  0  0  0  0  0  0
   15.5860  -53.9000   38.8560 C   0  0  0  0  0  0  0  0  0  0  0  0
   15.7460  -55.3230   39.1420 C   0  0  0  0  0  0  0  0  0  0  0  0
   14.6640  -56.2640   38.9880 C   0  0  0  0  0  0  0  0  0  0  0  0
   13.5810  -55.9480   39.6130 O   0  0  0  0  0  0  0  0  0  0  0  0
   14.6110  -57.4480   38.2490 N   0  0  0  0  0  0  0  0  0  0  0  0
   13.4610  -58.3710   38.2320 C   0  0  0  0  0  0  0  0  0  0  0  0
   12.9660  -58.0980   36.7770 C   0  0  0  0  0  0  0  0  0  0  0  0
   13.9840  -58.6020   35.8660 N   0  0  0  0  0  0  0  0  0  0  0  0
   15.2800  -58.7120   36.2580 C   0  0  0  0  0  0  0  0  0  0  0  0
   15.7140  -57.9180   37.4570 C   0  0  0  0  0  0  0  0  0  0  0  0
   13.4930  -58.4900   34.5750 C   0  0  0  0  0  0  0  0  0  0  0  0
   13.0650  -59.8450   34.0080 C   0  0  0  0  0  0  0  0  0  0  0  0
   11.9150  -60.2410   34.4380 O   0  0  0  0  0  0  0  0  0  0  0  0
   13.8400  -60.5170   33.1650 N   0  0  0  0  0  0  0  0  0  0  0  0
   14.6650  -61.2330   32.2680 C   0  0  0  0  0  0  0  0  0  0  0  0
   16.0680  -61.6470   32.8530 C   0  0  0  0  0  0  0  0  0  0  0  0
   15.9770  -60.6040   31.8500 C   0  0  0  0  0  0  0  0  0  0  0  0
   20.1480  -51.9290   35.8500 H   0  0  0  0  0  0  0  0  0  0  0  0
   16.5540  -55.2840   36.3960 H   0  0  0  0  0  0  0  0  0  0  0  0
   18.1730  -55.4470   34.5170 H   0  0  0  0  0  0  0  0  0  0  0  0
   14.6940  -53.7390   38.1770 H   0  0  0  0  0  0  0  0  0  0  0  0
   15.4100  -53.2790   39.7950 H   0  0  0  0  0  0  0  0  0  0  0  0
   16.1130  -55.4630   40.2290 H   0  0  0  0  0  0  0  0  0  0  0  0
   16.5970  -55.7120   38.4750 H   0  0  0  0  0  0  0  0  0  0  0  0
   12.7120  -58.1750   38.9620 H   0  0  0  0  0  0  0  0  0  0  0  0
   13.7880  -59.4260   38.2880 H   0  0  0  0  0  0  0  0  0  0  0  0
   12.0220  -58.6110   36.6030 H   0  0  0  0  0  0  0  0  0  0  0  0
   12.8240  -57.0360   36.5790 H   0  0  0  0  0  0  0  0  0  0  0  0
   15.9940  -58.4680   35.4100 H   0  0  0  0  0  0  0  0  0  0  0  0
   15.5310  -59.8310   36.4490 H   0  0  0  0  0  0  0  0  0  0  0  0
   16.4290  -57.1450   37.1970 H   0  0  0  0  0  0  0  0  0  0  0  0
   16.3200  -58.6670   38.0910 H   0  0  0  0  0  0  0  0  0  0  0  0
   14.2840  -58.0820   33.9020 H   0  0  0  0  0  0  0  0  0  0  0  0
   12.6200  -57.7800   34.4560 H   0  0  0  0  0  0  0  0  0  0  0  0
   12.9140  -60.4200   32.1760 H   0  0  0  0  0  0  0  0  0  0  0  0
   14.2720  -62.1450   31.7630 H   0  0  0  0  0  0  0  0  0  0  0  0
   16.0980  -61.5540   33.9250 H   0  0  0  0  0  0  0  0  0  0  0  0
   16.4640  -62.6430   32.4890 H   0  0  0  0  0  0  0  0  0  0  0  0
   16.1530  -59.5190   32.0930 H   0  0  0  0  0  0  0  0  0  0  0  0
   16.3930  -60.8300   30.8280 H   0  0  0  0  0  0  0  0  0  0  0  0
  1  2  1  0  0  0  0
  2  7  2  0  0  0  0
  2  3  1  0  0  0  0
  3  4  2  0  0  0  0
  4  5  1  0  0  0  0
  4 11  1  0  0  0  0
  5  8  1  0  0  0  0
  6 30  1  0  0  0  0
  6  5  2  0  0  0  0
  7  6  1  0  0  0  0
  8  9  1  0  0  0  0
  8 12  1  0  0  0  0
  9 10  2  0  0  0  0
 11  9  1  0  0  0  0
 12 13  1  0  0  0  0
 12 33  1  0  0  0  0
 13 34  1  0  0  0  0
 14 13  1  0  0  0  0
 14 15  2  0  0  0  0
 16 14  1  0  0  0  0
 17 16  1  0  0  0  0
 17 37  1  0  0  0  0
 17 36  1  0  0  0  0
 18 17  1  0  0  0  0
 19 20  1  0  0  0  0
 19 18  1  0  0  0  0
 20 41  1  0  0  0  0
 20 21  1  0  0  0  0
 21 43  1  0  0  0  0
 21 16  1  0  0  0  0
 22 19  1  0  0  0  0
 23 24  2  0  0  0  0
 23 22  1  0  0  0  0
 25 23  1  0  0  0  0
 26 27  1  0  0  0  0
 26 25  1  0  0  0  0
 27 48  1  0  0  0  0
 28 50  1  0  0  0  0
 28 26  1  0  0  0  0
 28 27  1  0  0  0  0
 29  3  1  0  0  0  0
 31  7  1  0  0  0  0
 32 12  1  0  0  0  0
 35 13  1  0  0  0  0
 38 18  1  0  0  0  0
 39 18  1  0  0  0  0
 40 20  1  0  0  0  0
 42 21  1  0  0  0  0
 44 22  1  0  0  0  0
 45 22  1  0  0  0  0
 46 25  1  0  0  0  0
 47 26  1  0  0  0  0
 49 27  1  0  0  0  0
 51 28  1  0  0  0  0
M  END
>  <Pose>
1

>  <Score>
-7.28

$$$$
