
 OpenBabel03232204043D

 38 39  0  0  1  0  0  0  0  0999 V2000
   14.6130  -57.9940   35.9950 Cl  0  0  0  0  0  0  0  0  0  0  0  0
   15.2180  -56.7110   37.0190 C   0  0  0  0  0  0  0  0  0  0  0  0
   14.5210  -56.3430   38.1510 C   0  0  0  0  0  0  0  0  0  0  0  0
   15.0580  -55.3290   38.9130 C   0  0  0  0  0  0  0  0  0  0  0  0
   14.4990  -54.9140   39.9730 O   0  0  0  0  0  0  0  0  0  0  0  0
   16.2080  -54.7480   38.5400 N   0  0  0  0  0  0  0  0  0  0  0  0
   16.9070  -55.0670   37.4680 N   0  0  0  0  0  0  0  0  0  0  0  0
   18.1500  -54.4110   37.1010 C   0  0  1  0  0  0  0  0  0  0  0  0
   17.9290  -53.0060   36.5820 C   0  0  0  0  0  0  0  0  0  0  0  0
   17.7700  -52.0310   37.7360 C   0  0  0  0  0  0  0  0  0  0  0  0
   16.5780  -52.3870   38.5950 C   0  0  0  0  0  0  0  0  0  0  0  0
   16.7630  -53.6660   39.3680 C   0  0  2  0  0  0  0  0  0  0  0  0
   18.2210  -53.9360   39.4770 C   0  0  0  0  0  0  0  0  0  0  0  0
   18.9190  -54.2550   38.3920 C   0  0  0  0  0  0  0  0  0  0  0  0
   16.3940  -56.0700   36.6950 C   0  0  0  0  0  0  0  0  0  0  0  0
   17.0500  -56.4010   35.6500 O   0  0  0  0  0  0  0  0  0  0  0  0
   13.2970  -56.9570   38.5450 N   0  0  0  0  0  0  0  0  0  0  0  0
   13.0570  -58.3750   38.5420 C   0  0  0  0  0  0  0  0  0  0  0  0
   11.7950  -58.7380   39.3050 C   0  0  0  0  0  0  0  0  0  0  0  0
   12.9650  -58.9840   37.1820 C   0  0  0  0  0  0  0  0  0  0  0  0
   18.7350  -54.9950   36.3920 H   0  0  0  0  0  0  0  0  0  0  0  0
   17.1070  -52.9350   35.8590 H   0  0  0  0  0  0  0  0  0  0  0  0
   18.8580  -52.7100   36.0460 H   0  0  0  0  0  0  0  0  0  0  0  0
   17.5590  -51.0380   37.2950 H   0  0  0  0  0  0  0  0  0  0  0  0
   18.6930  -52.0420   38.3380 H   0  0  0  0  0  0  0  0  0  0  0  0
   15.7070  -52.4740   37.8840 H   0  0  0  0  0  0  0  0  0  0  0  0
   16.3360  -51.5230   39.2450 H   0  0  0  0  0  0  0  0  0  0  0  0
   16.2670  -53.6400   40.3580 H   0  0  0  0  0  0  0  0  0  0  0  0
   18.7290  -53.8750   40.4420 H   0  0  0  0  0  0  0  0  0  0  0  0
   19.9910  -54.4010   38.4120 H   0  0  0  0  0  0  0  0  0  0  0  0
   12.5450  -56.2690   38.8530 H   0  0  0  0  0  0  0  0  0  0  0  0
   13.8920  -58.8680   39.0780 H   0  0  0  0  0  0  0  0  0  0  0  0
   10.8990  -58.2790   38.8310 H   0  0  0  0  0  0  0  0  0  0  0  0
   11.6770  -59.8330   39.2190 H   0  0  0  0  0  0  0  0  0  0  0  0
   11.8700  -58.4860   40.3830 H   0  0  0  0  0  0  0  0  0  0  0  0
   12.6720  -60.0510   37.3280 H   0  0  0  0  0  0  0  0  0  0  0  0
   13.9320  -58.9720   36.6220 H   0  0  0  0  0  0  0  0  0  0  0  0
   12.1510  -58.5270   36.6030 H   0  0  0  0  0  0  0  0  0  0  0  0
  2  3  2  0  0  0  0
  3 17  1  0  0  0  0
  3  4  1  0  0  0  0
  4  5  2  0  0  0  0
  6  4  1  0  0  0  0
  6 12  1  0  0  0  0
  7  6  1  0  0  0  0
  8 21  1  6  0  0  0
  8  7  1  0  0  0  0
  8 14  1  0  0  0  0
  9  8  1  0  0  0  0
  9 10  1  0  0  0  0
 10 25  1  0  0  0  0
 10 11  1  0  0  0  0
 11 27  1  0  0  0  0
 11 12  1  0  0  0  0
 12 13  1  0  0  0  0
 12 28  1  1  0  0  0
 13 29  1  0  0  0  0
 14 30  1  0  0  0  0
 14 13  2  0  0  0  0
 15  2  1  0  0  0  0
 15  7  1  0  0  0  0
 16 15  2  0  0  0  0
 17 31  1  0  0  0  0
 18 17  1  0  0  0  0
 18 32  1  0  0  0  0
 18 19  1  0  0  0  0
 19 35  1  0  0  0  0
 20 36  1  0  0  0  0
 20 18  1  0  0  0  0
 22  9  1  0  0  0  0
 23  9  1  0  0  0  0
 24 10  1  0  0  0  0
 26 11  1  0  0  0  0
 33 19  1  0  0  0  0
 34 19  1  0  0  0  0
 37 20  1  0  0  0  0
 38 20  1  0  0  0  0
M  END
>  <Pose>
1

>  <Score>
-6.28

$$$$
