
 OpenBabel03232204043D

 55 57  0  0  0  0  0  0  0  0999 V2000
   16.5390  -57.8110   33.5970 S   0  0  0  0  0  0  0  0  0  0  0  0
   15.5400  -56.8750   32.9450 O   0  0  0  0  0  0  0  0  0  0  0  0
   17.7110  -57.0360   34.0830 O   0  0  0  0  0  0  0  0  0  0  0  0
   15.7240  -58.5400   35.0010 N   0  0  0  0  0  0  0  0  0  0  0  0
   16.3790  -57.9930   36.1510 C   0  0  0  0  0  0  0  0  0  0  0  0
   15.5230  -58.0120   37.4310 C   0  0  0  0  0  0  0  0  0  0  0  0
   14.3100  -57.3240   37.1180 N   0  0  0  0  0  0  0  0  0  0  0  0
   13.5780  -58.1270   36.1780 C   0  0  0  0  0  0  0  0  0  0  0  0
   14.3360  -57.9700   34.8880 C   0  0  0  0  0  0  0  0  0  0  0  0
   13.6980  -56.5500   38.0880 C   0  0  0  0  0  0  0  0  0  0  0  0
   14.5500  -55.6770   38.8970 C   0  0  0  0  0  0  0  0  0  0  0  0
   14.1970  -55.6540   40.1580 O   0  0  0  0  0  0  0  0  0  0  0  0
   15.6320  -54.9050   38.5850 N   0  0  0  0  0  0  0  0  0  0  0  0
   16.5610  -55.1690   37.4840 C   0  0  0  0  0  0  0  0  0  0  0  0
   17.5160  -54.0470   37.3810 C   0  0  0  0  0  0  0  0  0  0  0  0
   17.3120  -52.8490   38.1050 C   0  0  0  0  0  0  0  0  0  0  0  0
   18.0740  -51.7570   37.9370 C   0  0  0  0  0  0  0  0  0  0  0  0
   19.1520  -51.7650   36.9970 C   0  0  0  0  0  0  0  0  0  0  0  0
   19.3520  -52.8860   36.2970 C   0  0  0  0  0  0  0  0  0  0  0  0
   18.5700  -54.0370   36.4490 C   0  0  0  0  0  0  0  0  0  0  0  0
   15.9940  -52.8150   39.3020 Cl  0  0  0  0  0  0  0  0  0  0  0  0
   17.0260  -58.9940   32.4480 C   0  0  0  0  0  0  0  0  0  0  0  0
   17.8580  -58.5210   31.4240 C   0  0  0  0  0  0  0  0  0  0  0  0
   18.4330  -59.3480   30.4560 C   0  0  0  0  0  0  0  0  0  0  0  0
   18.1620  -60.7120   30.5150 C   0  0  0  0  0  0  0  0  0  0  0  0
   17.3340  -61.1620   31.5270 C   0  0  0  0  0  0  0  0  0  0  0  0
   16.7710  -60.3300   32.4870 C   0  0  0  0  0  0  0  0  0  0  0  0
   18.7670  -61.4720   29.5310 O   0  0  0  0  0  0  0  0  0  0  0  0
   20.1230  -61.1130   29.1510 C   0  0  0  0  0  0  0  0  0  0  0  0
   20.3230  -59.6390   29.0230 C   0  0  0  0  0  0  0  0  0  0  0  0
   19.2470  -58.8440   29.4560 O   0  0  0  0  0  0  0  0  0  0  0  0
   17.2350  -58.7170   36.3840 H   0  0  0  0  0  0  0  0  0  0  0  0
   16.8710  -57.0140   36.0630 H   0  0  0  0  0  0  0  0  0  0  0  0
   15.3180  -59.0500   37.6950 H   0  0  0  0  0  0  0  0  0  0  0  0
   16.0050  -57.5100   38.2580 H   0  0  0  0  0  0  0  0  0  0  0  0
   13.5900  -59.1760   36.4560 H   0  0  0  0  0  0  0  0  0  0  0  0
   12.5660  -57.6770   35.9930 H   0  0  0  0  0  0  0  0  0  0  0  0
   14.5270  -56.8560   34.7350 H   0  0  0  0  0  0  0  0  0  0  0  0
   13.8500  -58.4900   34.0880 H   0  0  0  0  0  0  0  0  0  0  0  0
   13.2190  -57.3420   38.8110 H   0  0  0  0  0  0  0  0  0  0  0  0
   12.7680  -56.0110   37.7600 H   0  0  0  0  0  0  0  0  0  0  0  0
   15.8960  -53.9960   39.0920 H   0  0  0  0  0  0  0  0  0  0  0  0
   17.1790  -56.0460   37.9010 H   0  0  0  0  0  0  0  0  0  0  0  0
   16.0340  -55.4150   36.5900 H   0  0  0  0  0  0  0  0  0  0  0  0
   17.8930  -50.8810   38.4980 H   0  0  0  0  0  0  0  0  0  0  0  0
   19.7440  -50.8890   36.8820 H   0  0  0  0  0  0  0  0  0  0  0  0
   20.1550  -52.9440   35.5550 H   0  0  0  0  0  0  0  0  0  0  0  0
   18.7640  -54.8850   35.8380 H   0  0  0  0  0  0  0  0  0  0  0  0
   18.0430  -57.4290   31.3880 H   0  0  0  0  0  0  0  0  0  0  0  0
   17.1390  -62.2020   31.5220 H   0  0  0  0  0  0  0  0  0  0  0  0
   16.1510  -60.7390   33.2580 H   0  0  0  0  0  0  0  0  0  0  0  0
   20.7740  -61.5750   29.9640 H   0  0  0  0  0  0  0  0  0  0  0  0
   20.3580  -61.5970   28.2030 H   0  0  0  0  0  0  0  0  0  0  0  0
   20.5350  -59.3710   27.9820 H   0  0  0  0  0  0  0  0  0  0  0  0
   21.2330  -59.3970   29.6410 H   0  0  0  0  0  0  0  0  0  0  0  0
  1  3  2  0  0  0  0
  1  4  1  0  0  0  0
  2  1  2  0  0  0  0
  4  5  1  0  0  0  0
  5 32  1  0  0  0  0
  5  6  1  0  0  0  0
  6 34  1  0  0  0  0
  6 35  1  0  0  0  0
  7  6  1  0  0  0  0
  7 10  1  0  0  0  0
  8 36  1  0  0  0  0
  8  7  1  0  0  0  0
  9  4  1  0  0  0  0
  9  8  1  0  0  0  0
 10 40  1  0  0  0  0
 10 11  1  0  0  0  0
 11 12  2  0  0  0  0
 13 11  1  0  0  0  0
 13 42  1  0  0  0  0
 14 43  1  0  0  0  0
 14 13  1  0  0  0  0
 15 14  1  0  0  0  0
 15 16  1  0  0  0  0
 17 16  2  0  0  0  0
 17 45  1  0  0  0  0
 18 17  1  0  0  0  0
 19 20  1  0  0  0  0
 19 18  2  0  0  0  0
 20 15  2  0  0  0  0
 22 27  1  0  0  0  0
 22  1  1  0  0  0  0
 23 22  2  0  0  0  0
 24 25  2  0  0  0  0
 24 23  1  0  0  0  0
 25 26  1  0  0  0  0
 26 27  2  0  0  0  0
 27 51  1  0  0  0  0
 28 25  1  0  0  0  0
 29 28  1  0  0  0  0
 29 52  1  0  0  0  0
 30 29  1  0  0  0  0
 30 31  1  0  0  0  0
 30 55  1  0  0  0  0
 31 24  1  0  0  0  0
 33  5  1  0  0  0  0
 37  8  1  0  0  0  0
 38  9  1  0  0  0  0
 39  9  1  0  0  0  0
 41 10  1  0  0  0  0
 44 14  1  0  0  0  0
 46 18  1  0  0  0  0
 47 19  1  0  0  0  0
 48 20  1  0  0  0  0
 49 23  1  0  0  0  0
 50 26  1  0  0  0  0
 53 29  1  0  0  0  0
 54 30  1  0  0  0  0
M  END
>  <Pose>
1

>  <Score>
-6.60

$$$$
