
 OpenBabel03232204043D

 44 47  0  0  1  0  0  0  0  0999 V2000
   10.9940  -59.5650   38.5820 B   0  0  0  0  0  0  0  0  0  0  0  0
   12.4190  -58.8060   37.5540 C   0  0  0  0  0  0  0  0  0  0  0  0
   13.1980  -57.7770   38.0430 C   0  0  0  0  0  0  0  0  0  0  0  0
   14.2320  -57.2210   37.3090 C   0  0  0  0  0  0  0  0  0  0  0  0
   14.4490  -57.7490   36.0550 C   0  0  0  0  0  0  0  0  0  0  0  0
   13.6930  -58.7740   35.5330 C   0  0  0  0  0  0  0  0  0  0  0  0
   12.6610  -59.3190   36.2800 C   0  0  0  0  0  0  0  0  0  0  0  0
   14.0460  -59.4610   33.7840 B   0  0  0  0  0  0  0  0  0  0  0  0
   14.8920  -56.1600   38.0560 C   0  0  0  0  0  0  0  0  0  0  0  0
   15.8790  -55.4120   37.7320 N   0  0  0  0  0  0  0  0  0  0  0  0
   16.3950  -54.4290   38.5810 N   0  0  0  0  0  0  0  0  0  0  0  0
   17.2300  -53.4370   38.0180 C   0  0  0  0  0  0  0  0  0  0  0  0
   16.8550  -52.2470   37.9690 O   0  0  0  0  0  0  0  0  0  0  0  0
   18.5830  -53.7520   37.4590 C   0  0  0  0  0  0  0  0  0  0  0  0
   18.5050  -54.2660   36.1190 N   0  0  0  0  0  0  0  0  0  0  0  0
   19.5820  -54.1820   35.1960 C   0  0  0  0  0  0  0  0  0  0  0  0
   20.7170  -54.5490   35.5740 O   0  0  0  0  0  0  0  0  0  0  0  0
   19.4340  -53.6760   33.7990 C   0  0  2  0  0  0  0  0  0  0  0  0
   18.3650  -54.2830   33.1350 O   0  0  0  0  0  0  0  0  0  0  0  0
   18.4920  -55.1930   32.0880 C   0  0  0  0  0  0  0  0  0  0  0  0
   19.6920  -55.2190   31.4290 C   0  0  0  0  0  0  0  0  0  0  0  0
   19.8470  -56.1190   30.3750 C   0  0  0  0  0  0  0  0  0  0  0  0
   18.8430  -56.9730   29.9790 C   0  0  0  0  0  0  0  0  0  0  0  0
   17.6460  -56.9180   30.6670 C   0  0  0  0  0  0  0  0  0  0  0  0
   17.4880  -56.0330   31.7070 C   0  0  0  0  0  0  0  0  0  0  0  0
   20.6960  -54.3740   31.8140 O   0  0  0  0  0  0  0  0  0  0  0  0
   20.7150  -53.7000   33.0430 C   0  0  0  0  0  0  0  0  0  0  0  0
   14.1880  -56.0830   39.3400 C   0  0  0  0  0  0  0  0  0  0  0  0
   14.4840  -55.2690   40.2560 O   0  0  0  0  0  0  0  0  0  0  0  0
   13.1810  -57.0740   39.2810 N   0  0  0  0  0  0  0  0  0  0  0  0
   15.2420  -57.3490   35.4470 H   0  0  0  0  0  0  0  0  0  0  0  0
   12.0640  -60.1140   35.8960 H   0  0  0  0  0  0  0  0  0  0  0  0
   16.1360  -54.4820   39.5890 H   0  0  0  0  0  0  0  0  0  0  0  0
   19.1270  -52.7830   37.4340 H   0  0  0  0  0  0  0  0  0  0  0  0
   19.1510  -54.4240   38.1400 H   0  0  0  0  0  0  0  0  0  0  0  0
   17.6360  -54.7310   35.7650 H   0  0  0  0  0  0  0  0  0  0  0  0
   19.1320  -52.5950   33.9310 H   0  0  0  0  0  0  0  0  0  0  0  0
   20.8040  -56.1210   29.8700 H   0  0  0  0  0  0  0  0  0  0  0  0
   19.0040  -57.6550   29.1590 H   0  0  0  0  0  0  0  0  0  0  0  0
   16.8450  -57.6060   30.3450 H   0  0  0  0  0  0  0  0  0  0  0  0
   16.5400  -56.0090   32.2280 H   0  0  0  0  0  0  0  0  0  0  0  0
   21.0830  -52.6440   32.8590 H   0  0  0  0  0  0  0  0  0  0  0  0
   21.5030  -54.1830   33.6670 H   0  0  0  0  0  0  0  0  0  0  0  0
   12.5100  -57.2670   40.0430 H   0  0  0  0  0  0  0  0  0  0  0  0
  2  3  1  0  0  0  0
  2  1  1  0  0  0  0
  3 30  1  0  0  0  0
  4  3  2  0  0  0  0
  4  9  1  0  0  0  0
  5  4  1  0  0  0  0
  6  5  2  0  0  0  0
  6  7  1  0  0  0  0
  7  2  2  0  0  0  0
  8  6  1  0  0  0  0
  9 28  1  0  0  0  0
 10  9  2  0  0  0  0
 10 11  1  0  0  0  0
 11 33  1  0  0  0  0
 12 11  1  0  0  0  0
 13 12  2  0  0  0  0
 14 12  1  0  0  0  0
 14 35  1  0  0  0  0
 15 14  1  0  0  0  0
 16 17  2  0  0  0  0
 16 15  1  0  0  0  0
 18 37  1  1  0  0  0
 18 16  1  0  0  0  0
 19 18  1  0  0  0  0
 20 19  1  0  0  0  0
 21 26  1  0  0  0  0
 21 20  2  0  0  0  0
 22 21  1  0  0  0  0
 23 22  2  0  0  0  0
 23 24  1  0  0  0  0
 24 25  2  0  0  0  0
 25 20  1  0  0  0  0
 25 41  1  0  0  0  0
 26 27  1  0  0  0  0
 27 43  1  0  0  0  0
 27 18  1  0  0  0  0
 28 29  2  0  0  0  0
 30 28  1  0  0  0  0
 30 44  1  0  0  0  0
 31  5  1  0  0  0  0
 32  7  1  0  0  0  0
 34 14  1  0  0  0  0
 36 15  1  0  0  0  0
 38 22  1  0  0  0  0
 39 23  1  0  0  0  0
 40 24  1  0  0  0  0
 42 27  1  0  0  0  0
M  END
>  <Pose>
1

>  <Score>
-8.55

$$$$
