
 OpenBabel03232204043D

 39 42  0  0  0  0  0  0  0  0999 V2000
   19.3400  -51.2730   36.9030 Cl  0  0  0  0  0  0  0  0  0  0  0  0
   18.1390  -52.4450   37.4250 C   0  0  0  0  0  0  0  0  0  0  0  0
   18.1000  -53.6550   36.7640 C   0  0  0  0  0  0  0  0  0  0  0  0
   17.1510  -54.5610   37.1890 C   0  0  0  0  0  0  0  0  0  0  0  0
   16.2630  -54.3300   38.2070 C   0  0  0  0  0  0  0  0  0  0  0  0
   16.3440  -53.0870   38.8460 C   0  0  0  0  0  0  0  0  0  0  0  0
   17.2660  -52.1460   38.4680 C   0  0  0  0  0  0  0  0  0  0  0  0
   15.2690  -55.3010   38.6400 C   0  0  0  0  0  0  0  0  0  0  0  0
   14.2310  -55.1440   39.4670 N   0  0  0  0  0  0  0  0  0  0  0  0
   13.5800  -56.3130   39.5770 N   0  0  0  0  0  0  0  0  0  0  0  0
   14.2030  -57.2040   38.8250 N   0  0  0  0  0  0  0  0  0  0  0  0
   15.2360  -56.5850   38.2500 N   0  0  0  0  0  0  0  0  0  0  0  0
   19.0240  -53.9720   35.6600 C   0  0  0  0  0  0  0  0  0  0  0  0
   19.4330  -53.0140   34.9650 O   0  0  0  0  0  0  0  0  0  0  0  0
   19.4540  -55.2660   35.3630 N   0  0  0  0  0  0  0  0  0  0  0  0
   19.0650  -56.1630   34.3530 C   0  0  0  0  0  0  0  0  0  0  0  0
   18.1600  -57.2840   34.6390 C   0  0  0  0  0  0  0  0  0  0  0  0
   16.7780  -57.2340   34.1690 C   0  0  0  0  0  0  0  0  0  0  0  0
   15.7010  -57.7920   34.7330 N   0  0  0  0  0  0  0  0  0  0  0  0
   14.6400  -57.4690   34.0100 C   0  0  0  0  0  0  0  0  0  0  0  0
   15.0570  -56.7070   32.9910 N   0  0  0  0  0  0  0  0  0  0  0  0
   16.3510  -56.5670   33.0910 N   0  0  0  0  0  0  0  0  0  0  0  0
   13.3680  -57.8930   34.3320 C   0  0  0  0  0  0  0  0  0  0  0  0
   13.2280  -58.6840   35.4580 C   0  0  0  0  0  0  0  0  0  0  0  0
   14.3310  -59.0120   36.1980 C   0  0  0  0  0  0  0  0  0  0  0  0
   15.5650  -58.5610   35.8300 C   0  0  0  0  0  0  0  0  0  0  0  0
   17.1180  -55.5100   36.6740 H   0  0  0  0  0  0  0  0  0  0  0  0
   15.6300  -52.9180   39.6550 H   0  0  0  0  0  0  0  0  0  0  0  0
   17.3100  -51.1920   38.9750 H   0  0  0  0  0  0  0  0  0  0  0  0
   12.7280  -56.5070   40.1520 H   0  0  0  0  0  0  0  0  0  0  0  0
   20.2190  -55.6290   36.0370 H   0  0  0  0  0  0  0  0  0  0  0  0
   18.6030  -55.5650   33.4900 H   0  0  0  0  0  0  0  0  0  0  0  0
   19.9810  -56.5870   33.8270 H   0  0  0  0  0  0  0  0  0  0  0  0
   18.1910  -57.5240   35.7550 H   0  0  0  0  0  0  0  0  0  0  0  0
   18.6030  -58.2440   34.2130 H   0  0  0  0  0  0  0  0  0  0  0  0
   12.5370  -57.6130   33.7260 H   0  0  0  0  0  0  0  0  0  0  0  0
   12.2680  -59.0420   35.7580 H   0  0  0  0  0  0  0  0  0  0  0  0
   14.2560  -59.6260   37.0800 H   0  0  0  0  0  0  0  0  0  0  0  0
   16.4620  -58.8030   36.3950 H   0  0  0  0  0  0  0  0  0  0  0  0
  1  2  1  0  0  0  0
  2  7  1  0  0  0  0
  3  4  1  0  0  0  0
  3  2  2  0  0  0  0
  4  5  2  0  0  0  0
  5  8  1  0  0  0  0
  5  6  1  0  0  0  0
  6 28  1  0  0  0  0
  7  6  2  0  0  0  0
  7 29  1  0  0  0  0
  8  9  2  0  0  0  0
  9 10  1  0  0  0  0
 10 30  1  0  0  0  0
 11 10  1  0  0  0  0
 12  8  1  0  0  0  0
 12 11  2  0  0  0  0
 13  3  1  0  0  0  0
 14 13  2  0  0  0  0
 15 13  1  0  0  0  0
 15 31  1  0  0  0  0
 16 17  1  0  0  0  0
 16 15  1  0  0  0  0
 17 34  1  0  0  0  0
 18 17  1  0  0  0  0
 18 19  1  0  0  0  0
 19 26  1  0  0  0  0
 20 23  1  0  0  0  0
 20 19  1  0  0  0  0
 21 22  1  0  0  0  0
 21 20  2  0  0  0  0
 22 18  2  0  0  0  0
 23 24  2  0  0  0  0
 24 37  1  0  0  0  0
 24 25  1  0  0  0  0
 25 38  1  0  0  0  0
 26 25  2  0  0  0  0
 26 39  1  0  0  0  0
 27  4  1  0  0  0  0
 32 16  1  0  0  0  0
 33 16  1  0  0  0  0
 35 17  1  0  0  0  0
 36 23  1  0  0  0  0
M  END
>  <Pose>
1

>  <Score>
-7.77

$$$$
