
 OpenBabel03232204043D

 53 56  0  0  1  0  0  0  0  0999 V2000
   19.0350  -54.3770   35.1890 S   0  0  0  0  0  0  0  0  0  0  0  0
   20.4710  -54.7220   35.5920 O   0  0  0  0  0  0  0  0  0  0  0  0
   19.1850  -53.1210   34.3230 O   0  0  0  0  0  0  0  0  0  0  0  0
   18.4760  -55.6700   34.2470 N   0  0  0  0  0  0  0  0  0  0  0  0
   17.7570  -55.3370   33.0690 C   0  0  0  0  0  0  0  0  0  0  0  0
   17.3240  -56.5460   32.2730 C   0  0  1  0  0  0  0  0  0  0  0  0
   18.4990  -57.4000   31.9430 C   0  0  0  0  0  0  0  0  0  0  0  0
   19.3420  -57.6950   33.1710 C   0  0  0  0  0  0  0  0  0  0  0  0
   19.6880  -56.4100   33.8390 C   0  0  0  0  0  0  0  0  0  0  0  0
   16.1690  -57.2660   32.8460 C   0  0  0  0  0  0  0  0  0  0  0  0
   15.0260  -56.7140   32.6390 O   0  0  0  0  0  0  0  0  0  0  0  0
   16.1830  -58.4520   33.5660 N   0  0  0  0  0  0  0  0  0  0  0  0
   15.6230  -58.5440   34.8780 C   0  0  0  0  0  0  0  0  0  0  0  0
   14.9540  -59.8610   35.1590 C   0  0  0  0  0  0  0  0  0  0  0  0
   15.3880  -60.9110   34.4110 O   0  0  0  0  0  0  0  0  0  0  0  0
   15.6200  -60.6670   33.0730 C   0  0  0  0  0  0  0  0  0  0  0  0
   16.7790  -59.6560   33.0400 C   0  0  0  0  0  0  0  0  0  0  0  0
   18.1250  -53.9560   36.5780 C   0  0  0  0  0  0  0  0  0  0  0  0
   18.3230  -52.7870   37.2690 C   0  0  0  0  0  0  0  0  0  0  0  0
   17.5090  -52.4730   38.3470 C   0  0  0  0  0  0  0  0  0  0  0  0
   16.4810  -53.3260   38.7560 C   0  0  0  0  0  0  0  0  0  0  0  0
   16.2720  -54.5040   38.0730 C   0  0  0  0  0  0  0  0  0  0  0  0
   17.0900  -54.7970   37.0070 C   0  0  0  0  0  0  0  0  0  0  0  0
   15.2090  -55.4120   38.4780 C   0  0  0  0  0  0  0  0  0  0  0  0
   14.7280  -55.5650   39.7240 N   0  0  0  0  0  0  0  0  0  0  0  0
   13.7810  -56.4610   39.7280 O   0  0  0  0  0  0  0  0  0  0  0  0
   13.6170  -56.9120   38.5130 C   0  0  0  0  0  0  0  0  0  0  0  0
   14.4990  -56.2680   37.7250 N   0  0  0  0  0  0  0  0  0  0  0  0
   12.6310  -57.9550   38.0630 C   0  0  0  0  0  0  0  0  0  0  0  0
   19.6250  -51.6690   36.9200 Cl  0  0  0  0  0  0  0  0  0  0  0  0
   16.8410  -54.7230   33.2960 H   0  0  0  0  0  0  0  0  0  0  0  0
   18.3940  -54.7200   32.4130 H   0  0  0  0  0  0  0  0  0  0  0  0
   16.9700  -56.1180   31.2840 H   0  0  0  0  0  0  0  0  0  0  0  0
   19.1550  -56.8270   31.2500 H   0  0  0  0  0  0  0  0  0  0  0  0
   18.1970  -58.3470   31.4650 H   0  0  0  0  0  0  0  0  0  0  0  0
   18.7410  -58.3100   33.8630 H   0  0  0  0  0  0  0  0  0  0  0  0
   20.2620  -58.1730   32.8170 H   0  0  0  0  0  0  0  0  0  0  0  0
   20.2350  -55.7420   33.1160 H   0  0  0  0  0  0  0  0  0  0  0  0
   20.3200  -56.6180   34.7180 H   0  0  0  0  0  0  0  0  0  0  0  0
   14.8870  -57.7410   35.1000 H   0  0  0  0  0  0  0  0  0  0  0  0
   16.4670  -58.3870   35.6070 H   0  0  0  0  0  0  0  0  0  0  0  0
   13.8310  -59.7830   35.0610 H   0  0  0  0  0  0  0  0  0  0  0  0
   15.1330  -60.0980   36.2320 H   0  0  0  0  0  0  0  0  0  0  0  0
   14.7100  -60.1580   32.6600 H   0  0  0  0  0  0  0  0  0  0  0  0
   15.8660  -61.5960   32.5680 H   0  0  0  0  0  0  0  0  0  0  0  0
   17.2700  -59.5810   32.0830 H   0  0  0  0  0  0  0  0  0  0  0  0
   17.4950  -59.9970   33.8550 H   0  0  0  0  0  0  0  0  0  0  0  0
   17.6750  -51.5500   38.8790 H   0  0  0  0  0  0  0  0  0  0  0  0
   15.8510  -53.0740   39.5970 H   0  0  0  0  0  0  0  0  0  0  0  0
   16.9050  -55.7250   36.4900 H   0  0  0  0  0  0  0  0  0  0  0  0
   11.9980  -58.2240   38.9220 H   0  0  0  0  0  0  0  0  0  0  0  0
   12.0750  -57.5220   37.2120 H   0  0  0  0  0  0  0  0  0  0  0  0
   13.2400  -58.8140   37.6970 H   0  0  0  0  0  0  0  0  0  0  0  0
  1  2  2  0  0  0  0
  1 18  1  0  0  0  0
  3  1  2  0  0  0  0
  4  1  1  0  0  0  0
  5 31  1  0  0  0  0
  5  4  1  0  0  0  0
  6 33  1  6  0  0  0
  6 10  1  0  0  0  0
  6  5  1  0  0  0  0
  7  6  1  0  0  0  0
  7  8  1  0  0  0  0
  8  9  1  0  0  0  0
  8 36  1  0  0  0  0
  9  4  1  0  0  0  0
  9 39  1  0  0  0  0
 10 12  1  0  0  0  0
 11 10  2  0  0  0  0
 12 13  1  0  0  0  0
 13 40  1  0  0  0  0
 13 14  1  0  0  0  0
 13 41  1  0  0  0  0
 14 43  1  0  0  0  0
 15 14  1  0  0  0  0
 16 15  1  0  0  0  0
 17 16  1  0  0  0  0
 17 12  1  0  0  0  0
 17 47  1  0  0  0  0
 18 23  2  0  0  0  0
 18 19  1  0  0  0  0
 19 20  2  0  0  0  0
 20 21  1  0  0  0  0
 20 48  1  0  0  0  0
 21 49  1  0  0  0  0
 22 24  1  0  0  0  0
 22 21  2  0  0  0  0
 23 22  1  0  0  0  0
 24 25  2  0  0  0  0
 25 26  1  0  0  0  0
 27 26  1  0  0  0  0
 28 24  1  0  0  0  0
 28 27  2  0  0  0  0
 29 27  1  0  0  0  0
 29 51  1  0  0  0  0
 30 19  1  0  0  0  0
 32  5  1  0  0  0  0
 34  7  1  0  0  0  0
 35  7  1  0  0  0  0
 37  8  1  0  0  0  0
 38  9  1  0  0  0  0
 42 14  1  0  0  0  0
 44 16  1  0  0  0  0
 45 16  1  0  0  0  0
 46 17  1  0  0  0  0
 50 23  1  0  0  0  0
 52 29  1  0  0  0  0
 53 29  1  0  0  0  0
M  END
>  <Pose>
1

>  <Score>
-7.05

$$$$
