
 OpenBabel03232204043D

 45 48  0  0  1  0  0  0  0  0999 V2000
   20.4480  -50.7380   36.1750 Cl  0  0  0  0  0  0  0  0  0  0  0  0
   19.2070  -51.8760   36.6630 C   0  0  0  0  0  0  0  0  0  0  0  0
   18.1870  -51.4900   37.5340 C   0  0  0  0  0  0  0  0  0  0  0  0
   17.2150  -52.3670   37.9320 C   0  0  0  0  0  0  0  0  0  0  0  0
   17.1750  -53.6950   37.5020 C   0  0  0  0  0  0  0  0  0  0  0  0
   18.1910  -54.0680   36.6370 C   0  0  0  0  0  0  0  0  0  0  0  0
   19.1680  -53.1890   36.2360 C   0  0  0  0  0  0  0  0  0  0  0  0
   16.1630  -54.5830   37.9330 N   0  0  0  0  0  0  0  0  0  0  0  0
   15.4880  -54.2640   39.1580 C   0  0  0  0  0  0  0  0  0  0  0  0
   15.7980  -53.2000   39.7640 O   0  0  0  0  0  0  0  0  0  0  0  0
   14.5050  -55.1820   39.6040 N   0  0  0  0  0  0  0  0  0  0  0  0
   14.1890  -56.2510   39.0180 C   0  0  0  0  0  0  0  0  0  0  0  0
   14.7940  -56.7640   37.7410 C   0  0  1  0  0  0  0  0  0  0  0  0
   15.5100  -58.0230   38.1410 C   0  0  0  0  0  0  0  0  0  0  0  0
   15.7290  -58.9930   37.1390 N   0  0  0  0  0  4  0  0  0  0  0  0
   14.6670  -59.2020   36.2280 C   0  0  0  0  0  0  0  0  0  0  0  0
   13.7130  -58.2500   36.0650 C   0  0  0  0  0  0  0  0  0  0  0  0
   12.6840  -58.4910   35.1580 C   0  0  0  0  0  0  0  0  0  0  0  0
   12.6520  -59.6760   34.4520 C   0  0  0  0  0  0  0  0  0  0  0  0
   13.6270  -60.6480   34.6200 C   0  0  0  0  0  0  0  0  0  0  0  0
   14.6510  -60.3940   35.5300 C   0  0  0  0  0  0  0  0  0  0  0  0
   11.5530  -59.9700   33.4770 C   0  0  0  0  0  0  0  0  0  0  0  0
   13.6830  -56.9570   36.7820 C   0  0  0  0  0  0  0  0  0  0  0  0
   16.9820  -58.8660   36.4100 C   0  0  0  0  0  0  0  0  0  0  0  0
   15.7920  -55.7750   37.2640 C   0  0  0  0  0  0  0  0  0  0  0  0
   16.4050  -55.9580   36.1510 O   0  0  0  0  0  0  0  0  0  0  0  0
   13.1890  -57.0850   39.5540 O   0  0  0  0  0  0  0  0  0  0  0  0
   18.2160  -50.4460   37.8740 H   0  0  0  0  0  0  0  0  0  0  0  0
   16.4100  -52.0500   38.6210 H   0  0  0  0  0  0  0  0  0  0  0  0
   18.1510  -55.0960   36.3080 H   0  0  0  0  0  0  0  0  0  0  0  0
   19.9530  -53.5370   35.5510 H   0  0  0  0  0  0  0  0  0  0  0  0
   15.0120  -58.5020   39.0310 H   0  0  0  0  0  0  0  0  0  0  0  0
   16.5150  -57.6920   38.5290 H   0  0  0  0  0  0  0  0  0  0  0  0
   15.8270  -59.9320   37.6420 H   0  0  0  0  0  0  0  0  0  0  0  0
   11.8940  -57.7660   34.9910 H   0  0  0  0  0  0  0  0  0  0  0  0
   13.6220  -61.6000   34.0700 H   0  0  0  0  0  0  0  0  0  0  0  0
   15.4110  -61.1620   35.6560 H   0  0  0  0  0  0  0  0  0  0  0  0
   10.6720  -59.3110   33.6320 H   0  0  0  0  0  0  0  0  0  0  0  0
   11.2900  -61.0590   33.5470 H   0  0  0  0  0  0  0  0  0  0  0  0
   11.9200  -59.8000   32.4560 H   0  0  0  0  0  0  0  0  0  0  0  0
   12.6720  -56.9410   37.2920 H   0  0  0  0  0  0  0  0  0  0  0  0
   13.6390  -56.1520   36.0260 H   0  0  0  0  0  0  0  0  0  0  0  0
   17.7230  -58.2160   36.9230 H   0  0  0  0  0  0  0  0  0  0  0  0
   16.7720  -58.5660   35.3560 H   0  0  0  0  0  0  0  0  0  0  0  0
   17.4980  -59.8700   36.3110 H   0  0  0  0  0  0  0  0  0  0  0  0
  1  2  1  0  0  0  0
  2  3  1  0  0  0  0
  3 28  1  0  0  0  0
  3  4  2  0  0  0  0
  4 29  1  0  0  0  0
  5  4  1  0  0  0  0
  5  8  1  0  0  0  0
  6  5  2  0  0  0  0
  7  6  1  0  0  0  0
  7  2  2  0  0  0  0
  8  9  1  0  0  0  0
  9 11  1  0  0  0  0
  9 10  2  0  0  0  0
 12 27  2  0  0  0  0
 12 11  1  0  0  0  0
 13 25  1  6  0  0  0
 13 14  1  0  0  0  0
 13 12  1  0  0  0  0
 14 33  1  0  0  0  0
 14 32  1  0  0  0  0
 15 34  1  0  0  0  0
 15 14  1  0  0  0  0
 16 15  1  0  0  0  0
 17 16  1  0  0  0  0
 17 23  1  0  0  0  0
 18 17  2  0  0  0  0
 19 20  2  0  0  0  0
 19 18  1  0  0  0  0
 20 21  1  0  0  0  0
 21 37  1  0  0  0  0
 21 16  2  0  0  0  0
 22 39  1  0  0  0  0
 22 38  1  0  0  0  0
 22 19  1  0  0  0  0
 23 41  1  0  0  0  0
 23 13  1  0  0  0  0
 24 43  1  0  0  0  0
 24 15  1  0  0  0  0
 25  8  1  0  0  0  0
 26 25  2  0  0  0  0
 30  6  1  0  0  0  0
 31  7  1  0  0  0  0
 35 18  1  0  0  0  0
 36 20  1  0  0  0  0
 40 22  1  0  0  0  0
 42 23  1  0  0  0  0
 44 24  1  0  0  0  0
 45 24  1  0  0  0  0
M  END
>  <Pose>
1

>  <Score>
-5.75

$$$$
