
 OpenBabel03232204043D

 51 54  0  0  1  0  0  0  0  0999 V2000
   18.8280  -55.2960   30.8090 Cl  0  0  0  0  0  0  0  0  0  0  0  0
   17.7140  -56.1580   31.8790 C   0  0  0  0  0  0  0  0  0  0  0  0
   17.2800  -55.5910   33.0510 C   0  0  0  0  0  0  0  0  0  0  0  0
   16.4110  -56.2780   33.8730 C   0  0  0  0  0  0  0  0  0  0  0  0
   15.9550  -57.5320   33.5580 C   0  0  0  0  0  0  0  0  0  0  0  0
   16.3880  -58.0970   32.3910 C   0  0  0  0  0  0  0  0  0  0  0  0
   17.2700  -57.4150   31.5430 C   0  0  0  0  0  0  0  0  0  0  0  0
   15.0630  -58.2150   34.4280 N   0  0  0  0  0  0  0  0  0  0  0  0
   13.6780  -58.2790   34.1180 C   0  0  0  0  0  0  0  0  0  0  0  0
   13.2950  -57.7020   33.0410 O   0  0  0  0  0  0  0  0  0  0  0  0
   12.7840  -58.9460   34.9620 N   0  0  0  0  0  0  0  0  0  0  0  0
   13.2370  -59.5730   36.1440 C   0  0  0  0  0  0  0  0  0  0  0  0
   12.5310  -60.4200   36.7250 O   0  0  0  0  0  0  0  0  0  0  0  0
   14.5620  -59.2230   36.7030 C   0  0  1  0  0  0  0  0  0  0  0  0
   15.5030  -58.8500   35.6190 C   0  0  0  0  0  0  0  0  0  0  0  0
   16.7110  -59.1040   35.7640 O   0  0  0  0  0  0  0  0  0  0  0  0
   14.4430  -58.0490   37.6350 C   0  0  0  0  0  0  0  0  0  0  0  0
   15.2920  -57.6670   38.5690 C   0  0  0  0  0  0  0  0  0  0  0  0
   14.7810  -56.4530   39.2550 C   0  0  2  0  0  0  0  0  0  0  0  0
   13.3820  -56.4730   38.9310 N   0  0  0  0  0  0  0  0  0  0  0  0
   13.3650  -57.1210   37.6860 N   0  0  0  0  0  0  0  0  0  0  0  0
   15.5080  -55.2920   38.7540 C   0  0  0  0  0  0  0  0  0  0  0  0
   16.2850  -55.4410   37.6250 C   0  0  0  0  0  0  0  0  0  0  0  0
   17.0080  -54.4030   37.0720 C   0  0  0  0  0  0  0  0  0  0  0  0
   16.9370  -53.1520   37.6990 C   0  0  0  0  0  0  0  0  0  0  0  0
   16.1750  -52.9550   38.8300 C   0  0  0  0  0  0  0  0  0  0  0  0
   15.4790  -54.0390   39.3260 C   0  0  0  0  0  0  0  0  0  0  0  0
   16.1410  -51.7190   39.4020 O   0  0  0  0  0  0  0  0  0  0  0  0
   15.0130  -50.9140   39.5870 C   0  0  0  0  0  0  0  0  0  0  0  0
   17.6390  -52.0860   37.1850 O   0  0  0  0  0  0  0  0  0  0  0  0
   17.7930  -54.5420   35.9340 O   0  0  0  0  0  0  0  0  0  0  0  0
   19.1920  -54.4480   36.1100 C   0  0  0  0  0  0  0  0  0  0  0  0
   17.6390  -54.6060   33.2970 H   0  0  0  0  0  0  0  0  0  0  0  0
   16.0840  -55.8090   34.7900 H   0  0  0  0  0  0  0  0  0  0  0  0
   16.0410  -59.0800   32.1270 H   0  0  0  0  0  0  0  0  0  0  0  0
   17.6060  -57.8660   30.6260 H   0  0  0  0  0  0  0  0  0  0  0  0
   11.7610  -58.9630   34.6810 H   0  0  0  0  0  0  0  0  0  0  0  0
   14.9210  -60.0930   37.2890 H   0  0  0  0  0  0  0  0  0  0  0  0
   16.2290  -58.1980   38.7750 H   0  0  0  0  0  0  0  0  0  0  0  0
   14.9390  -56.5920   40.3500 H   0  0  0  0  0  0  0  0  0  0  0  0
   12.9200  -55.5660   38.9370 H   0  0  0  0  0  0  0  0  0  0  0  0
   12.6680  -56.9410   36.9360 H   0  0  0  0  0  0  0  0  0  0  0  0
   16.3640  -56.3950   37.1120 H   0  0  0  0  0  0  0  0  0  0  0  0
   14.8740  -53.9260   40.2070 H   0  0  0  0  0  0  0  0  0  0  0  0
   14.3310  -50.9110   38.7080 H   0  0  0  0  0  0  0  0  0  0  0  0
   15.2250  -49.8760   39.8290 H   0  0  0  0  0  0  0  0  0  0  0  0
   14.4170  -51.3420   40.4240 H   0  0  0  0  0  0  0  0  0  0  0  0
   17.1930  -51.1830   37.1010 H   0  0  0  0  0  0  0  0  0  0  0  0
   19.7120  -54.4280   35.1380 H   0  0  0  0  0  0  0  0  0  0  0  0
   19.5880  -55.2170   36.7880 H   0  0  0  0  0  0  0  0  0  0  0  0
   19.4050  -53.4580   36.5900 H   0  0  0  0  0  0  0  0  0  0  0  0
  1  2  1  0  0  0  0
  2  3  1  0  0  0  0
  3 33  1  0  0  0  0
  3  4  2  0  0  0  0
  4 34  1  0  0  0  0
  5  4  1  0  0  0  0
  5  8  1  0  0  0  0
  6  5  2  0  0  0  0
  7  2  2  0  0  0  0
  7  6  1  0  0  0  0
  8 15  1  0  0  0  0
  9  8  1  0  0  0  0
  9 11  1  0  0  0  0
 10  9  2  0  0  0  0
 11 12  1  0  0  0  0
 12 14  1  0  0  0  0
 12 13  2  0  0  0  0
 14 38  1  1  0  0  0
 14 17  1  0  0  0  0
 15 16  2  0  0  0  0
 15 14  1  0  0  0  0
 17 21  1  0  0  0  0
 17 18  2  0  0  0  0
 18 39  1  0  0  0  0
 18 19  1  0  0  0  0
 19 40  1  1  0  0  0
 20 41  1  0  0  0  0
 20 19  1  0  0  0  0
 21 20  1  0  0  0  0
 22 19  1  0  0  0  0
 22 27  1  0  0  0  0
 23 22  2  0  0  0  0
 24 23  1  0  0  0  0
 24 25  2  0  0  0  0
 25 26  1  0  0  0  0
 26 27  2  0  0  0  0
 26 28  1  0  0  0  0
 27 44  1  0  0  0  0
 28 29  1  0  0  0  0
 29 46  1  0  0  0  0
 29 47  1  0  0  0  0
 30 25  1  0  0  0  0
 31 32  1  0  0  0  0
 31 24  1  0  0  0  0
 32 51  1  0  0  0  0
 32 50  1  0  0  0  0
 35  6  1  0  0  0  0
 36  7  1  0  0  0  0
 37 11  1  0  0  0  0
 42 21  1  0  0  0  0
 43 23  1  0  0  0  0
 45 29  1  0  0  0  0
 48 30  1  0  0  0  0
 49 32  1  0  0  0  0
M  END
>  <Pose>
1

>  <Score>
-7.45

$$$$
