
 OpenBabel03232204043D

 47 50  0  0  1  0  0  0  0  0999 V2000
   19.4820  -56.9370   30.7760 Cl  0  0  0  0  0  0  0  0  0  0  0  0
   18.1660  -57.2770   31.8840 C   0  0  0  0  0  0  0  0  0  0  0  0
   17.9860  -58.5460   32.4130 C   0  0  0  0  0  0  0  0  0  0  0  0
   16.9540  -58.7790   33.2710 C   0  0  0  0  0  0  0  0  0  0  0  0
   16.0610  -57.7830   33.6450 C   0  0  0  0  0  0  0  0  0  0  0  0
   16.2430  -56.5240   33.1180 C   0  0  0  0  0  0  0  0  0  0  0  0
   17.2930  -56.2600   32.2360 C   0  0  0  0  0  0  0  0  0  0  0  0
   14.9850  -58.0310   34.5410 N   0  0  0  0  0  0  0  0  0  0  0  0
   13.6220  -57.8940   34.1650 C   0  0  0  0  0  0  0  0  0  0  0  0
   13.3620  -57.5320   32.9800 O   0  0  0  0  0  0  0  0  0  0  0  0
   12.5730  -58.1510   35.0760 N   0  0  0  0  0  0  0  0  0  0  0  0
   12.8560  -58.5560   36.4010 C   0  0  0  0  0  0  0  0  0  0  0  0
   11.9300  -58.9650   37.1860 O   0  0  0  0  0  0  0  0  0  0  0  0
   14.2160  -58.5270   36.9370 C   0  0  1  0  0  0  0  0  0  0  0  0
   15.2310  -58.4390   35.8790 C   0  0  0  0  0  0  0  0  0  0  0  0
   16.4430  -58.7470   36.1490 O   0  0  0  0  0  0  0  0  0  0  0  0
   14.3530  -57.4320   37.9430 C   0  0  0  0  0  0  0  0  0  0  0  0
   15.2930  -57.2660   38.8350 C   0  0  0  0  0  0  0  0  0  0  0  0
   14.9700  -56.0290   39.5870 C   0  0  2  0  0  0  0  0  0  0  0  0
   13.5670  -55.8080   39.3090 N   0  0  0  0  0  0  0  0  0  0  0  0
   13.4040  -56.3760   38.0410 N   0  0  0  0  0  0  0  0  0  0  0  0
   15.7810  -54.8840   39.0870 C   0  0  0  0  0  0  0  0  0  0  0  0
   15.6170  -53.6040   39.5640 C   0  0  0  0  0  0  0  0  0  0  0  0
   16.3640  -52.5340   39.1060 C   0  0  0  0  0  0  0  0  0  0  0  0
   17.3190  -52.7280   38.1340 C   0  0  0  0  0  0  0  0  0  0  0  0
   17.4980  -53.9990   37.6460 C   0  0  0  0  0  0  0  0  0  0  0  0
   16.7480  -55.0570   38.1080 C   0  0  0  0  0  0  0  0  0  0  0  0
   18.0760  -51.6740   37.6620 O   0  0  0  0  0  0  0  0  0  0  0  0
   19.2080  -51.9320   36.8650 C   0  0  0  0  0  0  0  0  0  0  0  0
   16.1540  -51.2700   39.6230 O   0  0  0  0  0  0  0  0  0  0  0  0
   18.6590  -59.3290   32.1410 H   0  0  0  0  0  0  0  0  0  0  0  0
   16.8180  -59.7850   33.6850 H   0  0  0  0  0  0  0  0  0  0  0  0
   15.5420  -55.7540   33.4160 H   0  0  0  0  0  0  0  0  0  0  0  0
   17.3970  -55.2500   31.8470 H   0  0  0  0  0  0  0  0  0  0  0  0
   11.5690  -58.0430   34.7770 H   0  0  0  0  0  0  0  0  0  0  0  0
   14.3660  -59.5090   37.4740 H   0  0  0  0  0  0  0  0  0  0  0  0
   16.1360  -57.9420   38.9630 H   0  0  0  0  0  0  0  0  0  0  0  0
   15.1500  -56.1770   40.6790 H   0  0  0  0  0  0  0  0  0  0  0  0
   12.9570  -56.2750   40.0220 H   0  0  0  0  0  0  0  0  0  0  0  0
   12.6970  -56.0410   37.3360 H   0  0  0  0  0  0  0  0  0  0  0  0
   14.8520  -53.4740   40.3350 H   0  0  0  0  0  0  0  0  0  0  0  0
   18.2570  -54.1630   36.8700 H   0  0  0  0  0  0  0  0  0  0  0  0
   16.8840  -56.0760   37.7240 H   0  0  0  0  0  0  0  0  0  0  0  0
   18.9540  -52.4220   35.9060 H   0  0  0  0  0  0  0  0  0  0  0  0
   19.7470  -50.9790   36.7000 H   0  0  0  0  0  0  0  0  0  0  0  0
   19.8880  -52.5790   37.4580 H   0  0  0  0  0  0  0  0  0  0  0  0
   15.7520  -51.1400   40.5300 H   0  0  0  0  0  0  0  0  0  0  0  0
  1  2  1  0  0  0  0
  2  7  2  0  0  0  0
  2  3  1  0  0  0  0
  3  4  2  0  0  0  0
  4  5  1  0  0  0  0
  4 32  1  0  0  0  0
  5  8  1  0  0  0  0
  6 33  1  0  0  0  0
  6  5  2  0  0  0  0
  7  6  1  0  0  0  0
  8 15  1  0  0  0  0
  9  8  1  0  0  0  0
  9 11  1  0  0  0  0
 10  9  2  0  0  0  0
 11 12  1  0  0  0  0
 12 14  1  0  0  0  0
 12 13  2  0  0  0  0
 14 36  1  1  0  0  0
 14 17  1  0  0  0  0
 15 16  2  0  0  0  0
 15 14  1  0  0  0  0
 17 21  1  0  0  0  0
 17 18  2  0  0  0  0
 18 37  1  0  0  0  0
 18 19  1  0  0  0  0
 19 38  1  1  0  0  0
 20 19  1  0  0  0  0
 20 39  1  0  0  0  0
 21 20  1  0  0  0  0
 22 23  1  0  0  0  0
 22 19  1  0  0  0  0
 23 41  1  0  0  0  0
 24 23  2  0  0  0  0
 24 30  1  0  0  0  0
 25 24  1  0  0  0  0
 26 27  1  0  0  0  0
 26 25  2  0  0  0  0
 27 22  2  0  0  0  0
 28 25  1  0  0  0  0
 29 46  1  0  0  0  0
 29 28  1  0  0  0  0
 30 47  1  0  0  0  0
 31  3  1  0  0  0  0
 34  7  1  0  0  0  0
 35 11  1  0  0  0  0
 40 21  1  0  0  0  0
 42 26  1  0  0  0  0
 43 27  1  0  0  0  0
 44 29  1  0  0  0  0
 45 29  1  0  0  0  0
M  END
>  <Pose>
1

>  <Score>
-8.32

$$$$
