
 OpenBabel03232204043D

 43 46  0  0  1  0  0  0  0  0999 V2000
   14.0690  -61.1310   32.3290 Cl  0  0  0  0  0  0  0  0  0  0  0  0
   14.1450  -60.1140   33.7380 C   0  0  0  0  0  0  0  0  0  0  0  0
   13.2390  -59.0680   33.8420 C   0  0  0  0  0  0  0  0  0  0  0  0
   13.2800  -58.2470   34.9540 C   0  0  0  0  0  0  0  0  0  0  0  0
   14.1880  -58.4160   35.9800 C   0  0  0  0  0  0  0  0  0  0  0  0
   15.0810  -59.4630   35.8590 C   0  0  0  0  0  0  0  0  0  0  0  0
   15.0700  -60.3050   34.7620 C   0  0  0  0  0  0  0  0  0  0  0  0
   14.2030  -57.5410   37.1310 N   0  0  0  0  0  0  0  0  0  0  0  0
   13.1680  -57.7330   38.1090 C   0  0  0  0  0  0  0  0  0  0  0  0
   12.2830  -58.6320   37.9680 O   0  0  0  0  0  0  0  0  0  0  0  0
   13.1870  -56.8700   39.2360 N   0  0  0  0  0  0  0  0  0  0  0  0
   14.2070  -55.8550   39.3710 C   0  0  0  0  0  0  0  0  0  0  0  0
   14.4510  -55.4590   40.5180 O   0  0  0  0  0  0  0  0  0  0  0  0
   14.8800  -55.3610   38.1850 C   0  0  2  0  0  0  0  0  0  0  0  0
   15.1830  -56.5310   37.3080 C   0  0  0  0  0  0  0  0  0  0  0  0
   16.2730  -56.6860   36.7010 O   0  0  0  0  0  0  0  0  0  0  0  0
   16.0120  -54.4810   38.3650 C   0  0  0  0  0  0  0  0  0  0  0  0
   17.2630  -54.6520   38.0050 C   0  0  0  0  0  0  0  0  0  0  0  0
   18.0990  -53.4880   38.3880 C   0  0  2  0  0  0  0  0  0  0  0  0
   17.1150  -52.5050   38.7780 N   0  0  0  0  0  0  0  0  0  0  0  0
   15.9320  -53.1990   39.0230 N   0  0  0  0  0  0  0  0  0  0  0  0
   18.8670  -52.9340   37.2670 C   0  0  0  0  0  0  0  0  0  0  0  0
   19.2450  -51.6020   37.3290 C   0  0  0  0  0  0  0  0  0  0  0  0
   19.9670  -51.0520   36.2950 C   0  0  0  0  0  0  0  0  0  0  0  0
   20.3280  -51.7910   35.1930 C   0  0  0  0  0  0  0  0  0  0  0  0
   19.9610  -53.1140   35.1170 C   0  0  0  0  0  0  0  0  0  0  0  0
   19.2280  -53.6680   36.1670 C   0  0  0  0  0  0  0  0  0  0  0  0
   20.3560  -49.7070   36.3460 O   0  0  0  0  0  0  0  0  0  0  0  0
   12.5030  -58.9050   33.0420 H   0  0  0  0  0  0  0  0  0  0  0  0
   12.5820  -57.4390   35.0350 H   0  0  0  0  0  0  0  0  0  0  0  0
   15.8080  -59.6460   36.6220 H   0  0  0  0  0  0  0  0  0  0  0  0
   15.7560  -61.1350   34.6360 H   0  0  0  0  0  0  0  0  0  0  0  0
   12.4510  -56.9930   39.9530 H   0  0  0  0  0  0  0  0  0  0  0  0
   14.0890  -54.7500   37.6180 H   0  0  0  0  0  0  0  0  0  0  0  0
   17.7240  -55.4990   37.4930 H   0  0  0  0  0  0  0  0  0  0  0  0
   18.7640  -53.7640   39.2460 H   0  0  0  0  0  0  0  0  0  0  0  0
   17.0070  -51.7390   38.0790 H   0  0  0  0  0  0  0  0  0  0  0  0
   15.1560  -52.8040   39.5940 H   0  0  0  0  0  0  0  0  0  0  0  0
   18.9660  -51.0080   38.1960 H   0  0  0  0  0  0  0  0  0  0  0  0
   20.9010  -51.3540   34.3740 H   0  0  0  0  0  0  0  0  0  0  0  0
   20.2140  -53.7550   34.2720 H   0  0  0  0  0  0  0  0  0  0  0  0
   18.9330  -54.7080   36.1190 H   0  0  0  0  0  0  0  0  0  0  0  0
   21.1980  -49.4230   35.8760 H   0  0  0  0  0  0  0  0  0  0  0  0
  1  2  1  0  0  0  0
  2  3  2  0  0  0  0
  2  7  1  0  0  0  0
  3  4  1  0  0  0  0
  4 30  1  0  0  0  0
  4  5  2  0  0  0  0
  5  8  1  0  0  0  0
  6  5  1  0  0  0  0
  6 31  1  0  0  0  0
  7  6  2  0  0  0  0
  8 15  1  0  0  0  0
  8  9  1  0  0  0  0
  9 11  1  0  0  0  0
 10  9  2  0  0  0  0
 11 12  1  0  0  0  0
 11 33  1  0  0  0  0
 12 13  2  0  0  0  0
 14 34  1  6  0  0  0
 14 17  1  0  0  0  0
 14 12  1  0  0  0  0
 15 14  1  0  0  0  0
 16 15  2  0  0  0  0
 17 21  1  0  0  0  0
 18 17  2  0  0  0  0
 18 19  1  0  0  0  0
 19 20  1  0  0  0  0
 19 36  1  1  0  0  0
 20 21  1  0  0  0  0
 21 38  1  0  0  0  0
 22 23  1  0  0  0  0
 22 19  1  0  0  0  0
 23 39  1  0  0  0  0
 24 28  1  0  0  0  0
 24 23  2  0  0  0  0
 25 24  1  0  0  0  0
 26 25  2  0  0  0  0
 26 27  1  0  0  0  0
 27 22  2  0  0  0  0
 29  3  1  0  0  0  0
 32  7  1  0  0  0  0
 35 18  1  0  0  0  0
 37 20  1  0  0  0  0
 40 25  1  0  0  0  0
 41 26  1  0  0  0  0
 42 27  1  0  0  0  0
 43 28  1  0  0  0  0
M  END
>  <Pose>
1

>  <Score>
-8.00

$$$$
