
 OpenBabel03232204043D

 53 54  0  0  1  0  0  0  0  0999 V2000
   19.3620  -52.5410   37.0100 Cl  0  0  0  0  0  0  0  0  0  0  0  0
   18.0810  -53.7230   37.3080 C   0  0  0  0  0  0  0  0  0  0  0  0
   17.8500  -54.7090   36.3750 C   0  0  0  0  0  0  0  0  0  0  0  0
   16.8440  -55.6420   36.6030 C   0  0  0  0  0  0  0  0  0  0  0  0
   16.0820  -55.5940   37.7410 C   0  0  0  0  0  0  0  0  0  0  0  0
   16.3370  -54.5950   38.6550 C   0  0  0  0  0  0  0  0  0  0  0  0
   17.3290  -53.6510   38.4600 C   0  0  0  0  0  0  0  0  0  0  0  0
   15.0160  -56.5720   37.9950 N   0  0  0  0  0  0  0  0  0  0  0  0
   14.9710  -57.7700   37.2350 C   0  0  2  0  0  0  0  0  0  0  0  0
   13.8100  -58.6090   37.4920 C   0  0  0  0  0  0  0  0  0  0  0  0
   12.8900  -58.3200   38.4530 C   0  0  0  0  0  0  0  0  0  0  0  0
   11.8030  -59.1900   38.6610 C   0  0  0  0  0  0  0  0  0  0  0  0
   11.6170  -60.3370   37.9320 C   0  0  0  0  0  0  0  0  0  0  0  0
   12.5630  -60.6140   36.9580 C   0  0  0  0  0  0  0  0  0  0  0  0
   13.6130  -59.7800   36.7520 C   0  0  0  0  0  0  0  0  0  0  0  0
   12.9720  -57.1330   39.2580 N   0  0  0  0  0  0  0  0  0  0  0  0
   14.0680  -56.2820   38.9870 C   0  0  0  0  0  0  0  0  0  0  0  0
   14.2140  -55.2090   39.6590 O   0  0  0  0  0  0  0  0  0  0  0  0
   16.1260  -58.5100   37.6730 O   0  0  0  0  0  0  0  0  0  0  0  0
   15.1910  -57.5300   35.7860 C   0  0  0  0  0  0  0  0  0  0  0  0
   14.2300  -57.3500   35.0360 O   0  0  0  0  0  0  0  0  0  0  0  0
   16.5170  -57.5160   35.3130 N   0  0  0  0  0  0  0  0  0  0  0  0
   17.0280  -58.5150   34.3740 C   0  0  0  0  0  0  0  0  0  0  0  0
   18.3290  -58.1290   33.7830 C   0  0  0  0  0  0  0  0  0  0  0  0
   18.3750  -56.9390   33.0270 N   0  0  0  0  0  0  0  0  0  0  0  0
   18.8380  -55.7620   33.6400 C   0  0  0  0  0  0  0  0  0  0  0  0
   19.0510  -54.7000   32.5580 C   0  0  0  0  0  0  0  0  0  0  0  0
   18.0920  -54.8430   31.5390 O   0  0  0  0  0  0  0  0  0  0  0  0
   18.3350  -55.9800   30.7720 C   0  0  0  0  0  0  0  0  0  0  0  0
   18.8300  -57.0700   31.6840 C   0  0  0  0  0  0  0  0  0  0  0  0
   18.4600  -54.7270   35.4910 H   0  0  0  0  0  0  0  0  0  0  0  0
   16.6840  -56.3990   35.8650 H   0  0  0  0  0  0  0  0  0  0  0  0
   15.7530  -54.5370   39.5540 H   0  0  0  0  0  0  0  0  0  0  0  0
   17.5460  -52.8660   39.1570 H   0  0  0  0  0  0  0  0  0  0  0  0
   11.1010  -58.9230   39.4300 H   0  0  0  0  0  0  0  0  0  0  0  0
   10.7940  -61.0140   38.0750 H   0  0  0  0  0  0  0  0  0  0  0  0
   12.4320  -61.5330   36.3580 H   0  0  0  0  0  0  0  0  0  0  0  0
   14.3380  -60.0050   35.9970 H   0  0  0  0  0  0  0  0  0  0  0  0
   12.2550  -56.9480   39.9810 H   0  0  0  0  0  0  0  0  0  0  0  0
   15.9500  -59.4820   37.5770 H   0  0  0  0  0  0  0  0  0  0  0  0
   17.2170  -56.7820   35.6110 H   0  0  0  0  0  0  0  0  0  0  0  0
   17.0070  -59.4720   34.9010 H   0  0  0  0  0  0  0  0  0  0  0  0
   16.2750  -58.5710   33.5600 H   0  0  0  0  0  0  0  0  0  0  0  0
   18.6550  -58.9710   33.1110 H   0  0  0  0  0  0  0  0  0  0  0  0
   19.1080  -58.0800   34.5720 H   0  0  0  0  0  0  0  0  0  0  0  0
   18.2210  -55.3760   34.4710 H   0  0  0  0  0  0  0  0  0  0  0  0
   19.8450  -55.9520   34.0740 H   0  0  0  0  0  0  0  0  0  0  0  0
   19.0150  -53.6850   32.9590 H   0  0  0  0  0  0  0  0  0  0  0  0
   20.0380  -54.8290   32.0540 H   0  0  0  0  0  0  0  0  0  0  0  0
   19.0480  -55.7970   29.9440 H   0  0  0  0  0  0  0  0  0  0  0  0
   17.3910  -56.3130   30.3110 H   0  0  0  0  0  0  0  0  0  0  0  0
   18.6080  -58.0830   31.2890 H   0  0  0  0  0  0  0  0  0  0  0  0
   19.9530  -56.9810   31.6930 H   0  0  0  0  0  0  0  0  0  0  0  0
  1  2  1  0  0  0  0
  2  7  1  0  0  0  0
  3  4  1  0  0  0  0
  3  2  2  0  0  0  0
  4  5  2  0  0  0  0
  5  8  1  0  0  0  0
  5  6  1  0  0  0  0
  6 33  1  0  0  0  0
  7  6  2  0  0  0  0
  7 34  1  0  0  0  0
  8 17  1  0  0  0  0
  9 20  1  6  0  0  0
  9 10  1  0  0  0  0
  9 19  1  0  0  0  0
  9  8  1  0  0  0  0
 10 11  1  0  0  0  0
 11 12  2  0  0  0  0
 11 16  1  0  0  0  0
 12 35  1  0  0  0  0
 13 36  1  0  0  0  0
 13 12  1  0  0  0  0
 14 13  2  0  0  0  0
 15 14  1  0  0  0  0
 15 10  2  0  0  0  0
 16 39  1  0  0  0  0
 17 16  1  0  0  0  0
 17 18  2  0  0  0  0
 21 20  2  0  0  0  0
 22 41  1  0  0  0  0
 23 42  1  0  0  0  0
 24 23  1  0  0  0  0
 24 45  1  0  0  0  0
 25 26  1  0  0  0  0
 25 24  1  0  0  0  0
 26 47  1  0  0  0  0
 26 46  1  0  0  0  0
 27 48  1  0  0  0  0
 27 26  1  0  0  0  0
 28 27  1  0  0  0  0
 29 28  1  0  0  0  0
 29 30  1  0  0  0  0
 30 53  1  0  0  0  0
 30 25  1  0  0  0  0
 31  3  1  0  0  0  0
 32  4  1  0  0  0  0
 37 14  1  0  0  0  0
 38 15  1  0  0  0  0
 40 19  1  0  0  0  0
 43 23  1  0  0  0  0
 44 24  1  0  0  0  0
 49 27  1  0  0  0  0
 50 29  1  0  0  0  0
 51 29  1  0  0  0  0
 52 30  1  0  0  0  0
M  END
>  <Pose>
1

>  <Score>
-6.56

$$$$
