
 OpenBabel03232204043D

 58 61  0  0  1  0  0  0  0  0999 V2000
   19.6970  -57.2460   27.5610 Cl  0  0  0  0  0  0  0  0  0  0  0  0
   19.0930  -57.5710   29.2040 C   0  0  0  0  0  0  0  0  0  0  0  0
   17.8610  -58.1530   29.3920 C   0  0  0  0  0  0  0  0  0  0  0  0
   17.3910  -58.3890   30.6920 C   0  0  0  0  0  0  0  0  0  0  0  0
   18.1380  -58.0540   31.8120 C   0  0  0  0  0  0  0  0  0  0  0  0
   19.3510  -57.4830   31.5980 C   0  0  0  0  0  0  0  0  0  0  0  0
   19.8380  -57.2350   30.3210 C   0  0  0  0  0  0  0  0  0  0  0  0
   17.5090  -58.3270   33.1240 C   0  0  1  0  0  0  0  0  0  0  0  0
   18.0040  -57.4780   34.2180 C   0  0  0  0  0  0  0  0  0  0  0  0
   17.0170  -57.0710   35.2840 C   0  0  0  0  0  0  0  0  0  0  0  0
   15.7340  -57.6890   35.2090 N   0  0  0  0  0  0  0  0  0  0  0  0
   15.1500  -57.6990   33.8530 C   0  0  0  0  0  0  0  0  0  0  0  0
   16.0240  -58.2890   32.8600 C   0  0  0  0  0  0  0  0  0  0  0  0
   14.8910  -58.0200   36.2960 C   0  0  0  0  0  0  0  0  0  0  0  0
   15.0130  -57.4670   37.3870 O   0  0  0  0  0  0  0  0  0  0  0  0
   13.8040  -59.0720   36.1280 C   0  0  1  0  0  0  0  0  0  0  0  0
   12.5340  -58.5230   36.5420 N   0  0  0  0  0  0  0  0  0  0  0  0
   11.6980  -59.0770   37.5100 C   0  0  0  0  0  0  0  0  0  0  0  0
   11.0320  -60.1610   36.9730 O   0  0  0  0  0  0  0  0  0  0  0  0
   11.3520  -58.8950   38.8410 C   0  0  0  0  0  0  0  0  0  0  0  0
   11.1670  -59.3840   40.0310 C   0  0  0  0  0  0  0  0  0  0  0  0
   10.7630  -58.4850   41.1190 N   0  0  0  0  0  0  0  0  0  0  0  0
   10.4540  -58.9250   42.3910 N   0  0  0  0  0  0  0  0  0  0  0  0
   10.5050  -60.2650   42.7400 C   0  0  0  0  0  0  0  0  0  0  0  0
   10.2390  -60.7090   43.8860 O   0  0  0  0  0  0  0  0  0  0  0  0
   10.9030  -61.2510   41.7070 C   0  0  0  0  0  0  0  0  0  0  0  0
   11.1990  -60.7710   40.4540 C   0  0  0  0  0  0  0  0  0  0  0  0
   11.4700  -61.7460   39.4880 C   0  0  0  0  0  0  0  0  0  0  0  0
   11.4490  -63.0970   39.8020 C   0  0  0  0  0  0  0  0  0  0  0  0
   11.1590  -63.5290   41.0700 C   0  0  0  0  0  0  0  0  0  0  0  0
   10.8790  -62.5850   42.0340 C   0  0  0  0  0  0  0  0  0  0  0  0
   13.9240  -60.0040   35.0450 C   0  0  0  0  0  0  0  0  0  0  0  0
   17.8430  -59.6740   33.4600 O   0  0  0  0  0  0  0  0  0  0  0  0
   17.2670  -58.4270   28.5200 H   0  0  0  0  0  0  0  0  0  0  0  0
   16.4240  -58.8610   30.7880 H   0  0  0  0  0  0  0  0  0  0  0  0
   20.0060  -57.1970   32.4120 H   0  0  0  0  0  0  0  0  0  0  0  0
   20.7910  -56.7810   30.1400 H   0  0  0  0  0  0  0  0  0  0  0  0
   18.5240  -56.5400   33.8840 H   0  0  0  0  0  0  0  0  0  0  0  0
   18.8160  -58.0590   34.7630 H   0  0  0  0  0  0  0  0  0  0  0  0
   16.7850  -55.9530   35.1000 H   0  0  0  0  0  0  0  0  0  0  0  0
   17.4390  -57.0380   36.3060 H   0  0  0  0  0  0  0  0  0  0  0  0
   15.1080  -56.5510   33.6300 H   0  0  0  0  0  0  0  0  0  0  0  0
   14.1260  -58.0490   33.8270 H   0  0  0  0  0  0  0  0  0  0  0  0
   15.6850  -59.3100   32.5950 H   0  0  0  0  0  0  0  0  0  0  0  0
   15.8330  -57.7190   31.8770 H   0  0  0  0  0  0  0  0  0  0  0  0
   14.0490  -59.7300   37.1060 H   0  0  0  0  0  0  0  0  0  0  0  0
   12.2890  -57.6580   35.9520 H   0  0  0  0  0  0  0  0  0  0  0  0
   11.0980  -57.7160   38.9790 H   0  0  0  0  0  0  0  0  0  0  0  0
   10.7170  -57.4600   40.8680 H   0  0  0  0  0  0  0  0  0  0  0  0
   10.1710  -58.2190   43.1260 H   0  0  0  0  0  0  0  0  0  0  0  0
   11.6430  -61.4440   38.5110 H   0  0  0  0  0  0  0  0  0  0  0  0
   11.6770  -63.8400   39.0180 H   0  0  0  0  0  0  0  0  0  0  0  0
   11.1510  -64.5900   41.2480 H   0  0  0  0  0  0  0  0  0  0  0  0
   10.6380  -62.8720   43.0490 H   0  0  0  0  0  0  0  0  0  0  0  0
   13.1100  -60.0020   34.2850 H   0  0  0  0  0  0  0  0  0  0  0  0
   13.9470  -61.0970   35.3900 H   0  0  0  0  0  0  0  0  0  0  0  0
   14.9220  -59.9310   34.5240 H   0  0  0  0  0  0  0  0  0  0  0  0
   18.5750  -60.0060   32.9130 H   0  0  0  0  0  0  0  0  0  0  0  0
  1  2  1  0  0  0  0
  2  3  2  0  0  0  0
  2  7  1  0  0  0  0
  3  4  1  0  0  0  0
  4 35  1  0  0  0  0
  4  5  2  0  0  0  0
  5  8  1  0  0  0  0
  6  5  1  0  0  0  0
  6 36  1  0  0  0  0
  7  6  2  0  0  0  0
  8 33  1  1  0  0  0
  8  9  1  0  0  0  0
  9 39  1  0  0  0  0
  9 10  1  0  0  0  0
 10 41  1  0  0  0  0
 11 10  1  0  0  0  0
 11 14  1  0  0  0  0
 12 11  1  0  0  0  0
 13  8  1  0  0  0  0
 13 12  1  0  0  0  0
 14 15  2  0  0  0  0
 16 14  1  0  0  0  0
 16 17  1  0  0  0  0
 16 46  1  1  0  0  0
 17 18  1  0  0  0  0
 18 20  1  0  0  0  0
 19 18  2  0  0  0  0
 20 48  1  0  0  0  0
 20 21  2  0  0  0  0
 21 27  1  0  0  0  0
 21 22  1  0  0  0  0
 22 23  1  0  0  0  0
 23 24  1  0  0  0  0
 23 50  1  0  0  0  0
 24 25  2  0  0  0  0
 26 31  1  0  0  0  0
 26 24  1  0  0  0  0
 27 26  2  0  0  0  0
 28 29  2  0  0  0  0
 28 27  1  0  0  0  0
 29 30  1  0  0  0  0
 30 53  1  0  0  0  0
 30 31  2  0  0  0  0
 31 54  1  0  0  0  0
 32 56  1  0  0  0  0
 32 16  1  0  0  0  0
 34  3  1  0  0  0  0
 37  7  1  0  0  0  0
 38  9  1  0  0  0  0
 40 10  1  0  0  0  0
 42 12  1  0  0  0  0
 43 12  1  0  0  0  0
 44 13  1  0  0  0  0
 45 13  1  0  0  0  0
 47 17  1  0  0  0  0
 49 22  1  0  0  0  0
 51 28  1  0  0  0  0
 52 29  1  0  0  0  0
 55 32  1  0  0  0  0
 57 32  1  0  0  0  0
 58 33  1  0  0  0  0
M  END
>  <Pose>
1

>  <Score>
-7.74

$$$$
