
 OpenBabel03232204043D

 58 60  0  0  0  0  0  0  0  0999 V2000
   16.9250  -55.6440   36.5530 Cl  0  0  0  0  0  0  0  0  0  0  0  0
   18.1220  -54.8790   35.5390 C   0  0  0  0  0  0  0  0  0  0  0  0
   18.9240  -53.9100   36.1020 C   0  0  0  0  0  0  0  0  0  0  0  0
   19.8680  -53.3620   35.2220 C   0  0  0  0  0  0  0  0  0  0  0  0
   19.9570  -53.7700   33.9430 N   0  0  0  0  0  0  0  0  0  0  0  0
   19.1950  -54.6950   33.3980 N   0  0  0  0  0  0  0  0  0  0  0  0
   18.2770  -55.2480   34.2000 C   0  0  0  0  0  0  0  0  0  0  0  0
   17.5090  -56.1390   33.7580 O   0  0  0  0  0  0  0  0  0  0  0  0
   19.3580  -55.0670   32.0330 C   0  0  0  0  0  0  0  0  0  0  0  0
   20.5460  -54.8590   31.3490 C   0  0  0  0  0  0  0  0  0  0  0  0
   20.7210  -55.2130   30.0270 C   0  0  0  0  0  0  0  0  0  0  0  0
   19.6630  -55.8000   29.3650 C   0  0  0  0  0  0  0  0  0  0  0  0
   18.4640  -56.0220   30.0160 C   0  0  0  0  0  0  0  0  0  0  0  0
   18.3170  -55.6510   31.3580 C   0  0  0  0  0  0  0  0  0  0  0  0
   18.7990  -53.4660   37.4320 N   0  0  0  0  0  0  0  0  0  0  0  0
   18.3590  -52.1030   37.7120 C   0  0  0  0  0  0  0  0  0  0  0  0
   17.1130  -52.0730   38.5670 C   0  0  0  0  0  0  0  0  0  0  0  0
   16.9780  -53.3630   39.2000 N   0  0  0  0  0  0  0  0  0  0  0  0
   18.1960  -53.9240   39.7550 C   0  0  0  0  0  0  0  0  0  0  0  0
   19.0630  -54.3540   38.5730 C   0  0  0  0  0  0  0  0  0  0  0  0
   15.7650  -54.0740   39.2990 C   0  0  0  0  0  0  0  0  0  0  0  0
   14.9250  -53.7250   40.1570 O   0  0  0  0  0  0  0  0  0  0  0  0
   15.4230  -55.2280   38.4340 C   0  0  0  0  0  0  0  0  0  0  0  0
   15.0990  -56.4470   39.2660 C   0  0  0  0  0  0  0  0  0  0  0  0
   13.9570  -57.2400   38.7040 C   0  0  0  0  0  0  0  0  0  0  0  0
   14.2260  -57.8160   37.4050 N   0  0  0  0  0  0  0  0  0  0  0  0
   13.3890  -57.7360   36.2660 C   0  0  0  0  0  0  0  0  0  0  0  0
   12.2590  -57.1460   36.1950 O   0  0  0  0  0  0  0  0  0  0  0  0
   13.9570  -58.4070   35.1620 N   0  0  0  0  0  0  0  0  0  0  0  0
   15.2220  -58.9720   35.5780 C   0  0  0  0  0  0  0  0  0  0  0  0
   15.3710  -58.5720   36.9950 C   0  0  0  0  0  0  0  0  0  0  0  0
   16.3420  -58.8470   37.7320 O   0  0  0  0  0  0  0  0  0  0  0  0
   13.3870  -58.5180   33.8360 C   0  0  0  0  0  0  0  0  0  0  0  0
   20.5010  -52.5950   35.6270 H   0  0  0  0  0  0  0  0  0  0  0  0
   21.3660  -54.3970   31.8840 H   0  0  0  0  0  0  0  0  0  0  0  0
   21.6720  -55.0390   29.5030 H   0  0  0  0  0  0  0  0  0  0  0  0
   19.8080  -56.0750   28.3290 H   0  0  0  0  0  0  0  0  0  0  0  0
   17.6620  -56.4830   29.4650 H   0  0  0  0  0  0  0  0  0  0  0  0
   17.3850  -55.8200   31.8800 H   0  0  0  0  0  0  0  0  0  0  0  0
   19.2260  -51.6600   38.3070 H   0  0  0  0  0  0  0  0  0  0  0  0
   18.1480  -51.4930   36.8300 H   0  0  0  0  0  0  0  0  0  0  0  0
   16.2100  -51.8430   37.9660 H   0  0  0  0  0  0  0  0  0  0  0  0
   17.2350  -51.2530   39.3310 H   0  0  0  0  0  0  0  0  0  0  0  0
   18.7340  -53.1210   40.2990 H   0  0  0  0  0  0  0  0  0  0  0  0
   18.0060  -54.7590   40.4540 H   0  0  0  0  0  0  0  0  0  0  0  0
   18.6660  -55.3430   38.3050 H   0  0  0  0  0  0  0  0  0  0  0  0
   20.0970  -54.2610   38.8450 H   0  0  0  0  0  0  0  0  0  0  0  0
   14.5500  -55.0040   37.7870 H   0  0  0  0  0  0  0  0  0  0  0  0
   16.2600  -55.4620   37.7310 H   0  0  0  0  0  0  0  0  0  0  0  0
   14.8220  -56.1500   40.2940 H   0  0  0  0  0  0  0  0  0  0  0  0
   16.0000  -57.1040   39.3560 H   0  0  0  0  0  0  0  0  0  0  0  0
   13.0420  -56.5980   38.6130 H   0  0  0  0  0  0  0  0  0  0  0  0
   13.6570  -58.0820   39.3610 H   0  0  0  0  0  0  0  0  0  0  0  0
   16.0710  -58.5660   34.9650 H   0  0  0  0  0  0  0  0  0  0  0  0
   15.2630  -60.0710   35.4560 H   0  0  0  0  0  0  0  0  0  0  0  0
   13.5890  -57.5670   33.2900 H   0  0  0  0  0  0  0  0  0  0  0  0
   12.2640  -58.5560   33.9320 H   0  0  0  0  0  0  0  0  0  0  0  0
   13.7870  -59.3950   33.3080 H   0  0  0  0  0  0  0  0  0  0  0  0
  2  3  2  0  0  0  0
  3 15  1  0  0  0  0
  4 34  1  0  0  0  0
  4  3  1  0  0  0  0
  5  4  2  0  0  0  0
  6  5  1  0  0  0  0
  6  7  1  0  0  0  0
  7  2  1  0  0  0  0
  8  7  2  0  0  0  0
  9  6  1  0  0  0  0
 10 35  1  0  0  0  0
 10  9  2  0  0  0  0
 11 10  1  0  0  0  0
 12 13  1  0  0  0  0
 12 11  2  0  0  0  0
 13 14  2  0  0  0  0
 14 39  1  0  0  0  0
 14  9  1  0  0  0  0
 15 16  1  0  0  0  0
 15 20  1  0  0  0  0
 16 40  1  0  0  0  0
 16 17  1  0  0  0  0
 17 18  1  0  0  0  0
 17 43  1  0  0  0  0
 18 21  1  0  0  0  0
 18 19  1  0  0  0  0
 19 44  1  0  0  0  0
 19 45  1  0  0  0  0
 20 47  1  0  0  0  0
 20 19  1  0  0  0  0
 21 22  2  0  0  0  0
 23 24  1  0  0  0  0
 23 21  1  0  0  0  0
 24 51  1  0  0  0  0
 24 50  1  0  0  0  0
 25 24  1  0  0  0  0
 25 53  1  0  0  0  0
 26 25  1  0  0  0  0
 27 26  1  0  0  0  0
 28 27  2  0  0  0  0
 29 30  1  0  0  0  0
 29 27  1  0  0  0  0
 30 31  1  0  0  0  0
 31 26  1  0  0  0  0
 31 32  2  0  0  0  0
 33 57  1  0  0  0  0
 33 29  1  0  0  0  0
 36 11  1  0  0  0  0
 37 12  1  0  0  0  0
 38 13  1  0  0  0  0
 41 16  1  0  0  0  0
 42 17  1  0  0  0  0
 46 20  1  0  0  0  0
 48 23  1  0  0  0  0
 49 23  1  0  0  0  0
 52 25  1  0  0  0  0
 54 30  1  0  0  0  0
 55 30  1  0  0  0  0
 56 33  1  0  0  0  0
 58 33  1  0  0  0  0
M  END
>  <Pose>
1

>  <Score>
-7.02

$$$$
