
 OpenBabel03232204043D

 39 42  0  0  0  0  0  0  0  0999 V2000
   11.2790  -59.4770   38.9730 B   0  0  0  0  0  0  0  0  0  0  0  0
   12.8080  -58.6370   38.2060 C   0  0  0  0  0  0  0  0  0  0  0  0
   13.2620  -57.4790   38.7750 C   0  0  0  0  0  0  0  0  0  0  0  0
   14.3430  -56.8680   38.2480 N   0  0  0  0  0  0  0  0  0  0  0  0
   14.9720  -57.3820   37.1800 C   0  0  0  0  0  0  0  0  0  0  0  0
   16.0660  -56.7630   36.6470 N   0  0  0  0  0  0  0  0  0  0  0  0
   16.5450  -55.6230   37.1750 C   0  0  0  0  0  0  0  0  0  0  0  0
   15.8870  -55.1140   38.2670 C   0  0  0  0  0  0  0  0  0  0  0  0
   14.7810  -55.7130   38.8290 C   0  0  0  0  0  0  0  0  0  0  0  0
   14.1700  -55.2730   39.8150 O   0  0  0  0  0  0  0  0  0  0  0  0
   17.7570  -54.9910   36.5540 C   0  0  0  0  0  0  0  0  0  0  0  0
   17.9230  -53.6080   36.9570 N   0  0  0  0  0  0  0  0  0  0  0  0
   18.7750  -52.6720   36.5150 C   0  0  0  0  0  0  0  0  0  0  0  0
   18.6020  -51.4780   37.2070 C   0  0  0  0  0  0  0  0  0  0  0  0
   17.6070  -51.7250   38.0910 N   0  0  0  0  0  0  0  0  0  0  0  0
   17.2000  -52.9890   37.9450 C   0  0  0  0  0  0  0  0  0  0  0  0
   19.3250  -50.3650   36.9650 N   0  0  0  0  0  0  0  0  0  0  0  0
   20.2530  -50.4560   35.9940 C   0  0  0  0  0  0  0  0  0  0  0  0
   20.9390  -49.4250   35.7540 O   0  0  0  0  0  0  0  0  0  0  0  0
   20.4590  -51.5830   35.2960 N   0  0  0  0  0  0  0  0  0  0  0  0
   19.7380  -52.6980   35.5360 C   0  0  0  0  0  0  0  0  0  0  0  0
   19.9130  -53.7540   34.8970 O   0  0  0  0  0  0  0  0  0  0  0  0
   21.4610  -51.6770   34.2490 C   0  0  0  0  0  0  0  0  0  0  0  0
   19.0960  -49.1510   37.7240 C   0  0  0  0  0  0  0  0  0  0  0  0
   14.5200  -58.5550   36.5970 C   0  0  0  0  0  0  0  0  0  0  0  0
   13.4220  -59.1990   37.1100 C   0  0  0  0  0  0  0  0  0  0  0  0
   12.7660  -57.0320   39.6530 H   0  0  0  0  0  0  0  0  0  0  0  0
   16.2520  -54.2040   38.7180 H   0  0  0  0  0  0  0  0  0  0  0  0
   18.6430  -55.6010   36.7920 H   0  0  0  0  0  0  0  0  0  0  0  0
   17.6030  -55.0110   35.4580 H   0  0  0  0  0  0  0  0  0  0  0  0
   16.4200  -53.5010   38.4980 H   0  0  0  0  0  0  0  0  0  0  0  0
   21.8090  -52.7190   34.1120 H   0  0  0  0  0  0  0  0  0  0  0  0
   21.0000  -51.2580   33.3250 H   0  0  0  0  0  0  0  0  0  0  0  0
   22.3360  -51.0230   34.5080 H   0  0  0  0  0  0  0  0  0  0  0  0
   18.4780  -48.4320   37.1450 H   0  0  0  0  0  0  0  0  0  0  0  0
   20.0970  -48.7250   37.9890 H   0  0  0  0  0  0  0  0  0  0  0  0
   18.6160  -49.4020   38.6980 H   0  0  0  0  0  0  0  0  0  0  0  0
   15.0540  -58.9470   35.7280 H   0  0  0  0  0  0  0  0  0  0  0  0
   13.0580  -60.1290   36.6540 H   0  0  0  0  0  0  0  0  0  0  0  0
  2  3  1  0  0  0  0
  2  1  1  0  0  0  0
  3 27  1  0  0  0  0
  4  3  1  0  0  0  0
  4  9  1  0  0  0  0
  5  4  1  0  0  0  0
  6  7  2  0  0  0  0
  6  5  1  0  0  0  0
  7  8  1  0  0  0  0
  8 28  1  0  0  0  0
  8  9  1  0  0  0  0
  9 10  2  0  0  0  0
 11 29  1  0  0  0  0
 11 12  1  0  0  0  0
 11  7  1  0  0  0  0
 12 16  1  0  0  0  0
 13 12  1  0  0  0  0
 13 14  2  0  0  0  0
 14 15  1  0  0  0  0
 16 15  2  0  0  0  0
 16 31  1  0  0  0  0
 17 14  1  0  0  0  0
 17 24  1  0  0  0  0
 18 17  1  0  0  0  0
 19 18  2  0  0  0  0
 20 21  1  0  0  0  0
 20 18  1  0  0  0  0
 21 13  1  0  0  0  0
 22 21  2  0  0  0  0
 23 34  1  0  0  0  0
 23 20  1  0  0  0  0
 24 36  1  0  0  0  0
 24 37  1  0  0  0  0
 25 26  1  0  0  0  0
 25  5  2  0  0  0  0
 26  2  2  0  0  0  0
 30 11  1  0  0  0  0
 32 23  1  0  0  0  0
 33 23  1  0  0  0  0
 35 24  1  0  0  0  0
 38 25  1  0  0  0  0
 39 26  1  0  0  0  0
M  END
>  <Pose>
1

>  <Score>
-6.36

$$$$
