
 OpenBabel03232204043D

 53 56  0  0  1  0  0  0  0  0999 V2000
   16.9530  -56.0650   36.2260 Cl  0  0  0  0  0  0  0  0  0  0  0  0
   16.7240  -54.6280   37.2180 C   0  0  0  0  0  0  0  0  0  0  0  0
   15.9730  -54.7570   38.3620 C   0  0  0  0  0  0  0  0  0  0  0  0
   15.8790  -53.6590   39.1850 C   0  0  0  0  0  0  0  0  0  0  0  0
   15.0380  -54.0370   40.1730 N   0  0  0  0  0  0  0  0  0  0  0  0
   14.6340  -55.2610   39.9620 N   0  0  0  0  0  0  0  0  0  0  0  0
   15.1920  -55.7960   38.8160 C   0  0  0  0  0  0  0  0  0  0  0  0
   15.0740  -57.1590   38.3620 C   0  0  0  0  0  0  0  0  0  0  0  0
   14.3830  -57.3790   37.0830 N   0  0  0  0  0  0  0  0  0  0  0  0
   12.9840  -57.7240   37.4280 C   0  0  0  0  0  0  0  0  0  0  0  0
   13.0110  -59.1830   37.4500 C   0  0  2  0  0  0  0  0  0  0  0  0
   13.6500  -59.4750   36.1010 C   0  0  2  0  0  0  0  0  0  0  0  0
   14.8220  -58.4140   36.2490 C   0  0  0  0  0  0  0  0  0  0  0  0
   12.8230  -58.9310   34.9720 C   0  0  0  0  0  0  0  0  0  0  0  0
   12.1530  -60.0040   34.3270 O   0  0  0  0  0  0  0  0  0  0  0  0
   11.6690  -59.8650   37.5510 C   0  0  0  0  0  0  0  0  0  0  0  0
   11.4430  -60.2180   38.9170 N   0  0  0  0  0  0  0  0  0  0  0  0
   11.4380  -59.0740   39.8040 C   0  0  0  0  0  0  0  0  0  0  0  0
   10.1500  -58.9140   40.5780 C   0  0  0  0  0  0  0  0  0  0  0  0
    9.7710  -60.0380   41.2740 O   0  0  0  0  0  0  0  0  0  0  0  0
   10.0790  -61.2180   40.6030 C   0  0  0  0  0  0  0  0  0  0  0  0
   10.2090  -60.9360   39.1370 C   0  0  0  0  0  0  0  0  0  0  0  0
   14.7380  -53.2170   41.3600 C   0  0  0  0  0  0  0  0  0  0  0  0
   16.4830  -52.4720   38.9030 C   0  0  0  0  0  0  0  0  0  0  0  0
   17.2370  -52.3570   37.7320 C   0  0  0  0  0  0  0  0  0  0  0  0
   17.3480  -53.4560   36.8860 C   0  0  0  0  0  0  0  0  0  0  0  0
   15.8520  -57.8720   38.4610 H   0  0  0  0  0  0  0  0  0  0  0  0
   14.2470  -57.6120   39.0730 H   0  0  0  0  0  0  0  0  0  0  0  0
   12.5880  -57.1770   38.2790 H   0  0  0  0  0  0  0  0  0  0  0  0
   12.3670  -57.3490   36.5610 H   0  0  0  0  0  0  0  0  0  0  0  0
   13.6560  -59.6430   38.1840 H   0  0  0  0  0  0  0  0  0  0  0  0
   14.0490  -60.4630   36.0200 H   0  0  0  0  0  0  0  0  0  0  0  0
   15.6630  -59.0110   36.4970 H   0  0  0  0  0  0  0  0  0  0  0  0
   14.9740  -58.0470   35.1750 H   0  0  0  0  0  0  0  0  0  0  0  0
   13.5460  -58.5850   34.1330 H   0  0  0  0  0  0  0  0  0  0  0  0
   12.1690  -58.1160   35.1300 H   0  0  0  0  0  0  0  0  0  0  0  0
   11.9490  -59.6600   33.3740 H   0  0  0  0  0  0  0  0  0  0  0  0
   10.9220  -59.1130   37.2600 H   0  0  0  0  0  0  0  0  0  0  0  0
   11.5880  -60.7230   36.8710 H   0  0  0  0  0  0  0  0  0  0  0  0
   12.2910  -59.1620   40.4880 H   0  0  0  0  0  0  0  0  0  0  0  0
   11.5680  -58.1150   39.2240 H   0  0  0  0  0  0  0  0  0  0  0  0
    9.3900  -58.5180   39.9010 H   0  0  0  0  0  0  0  0  0  0  0  0
   10.3690  -58.1240   41.3440 H   0  0  0  0  0  0  0  0  0  0  0  0
   11.0280  -61.5910   41.0210 H   0  0  0  0  0  0  0  0  0  0  0  0
    9.2490  -61.9490   40.7940 H   0  0  0  0  0  0  0  0  0  0  0  0
   10.1900  -61.8750   38.5440 H   0  0  0  0  0  0  0  0  0  0  0  0
    9.3920  -60.2520   38.8350 H   0  0  0  0  0  0  0  0  0  0  0  0
   15.7440  -52.8650   41.7870 H   0  0  0  0  0  0  0  0  0  0  0  0
   14.3420  -53.8380   42.1790 H   0  0  0  0  0  0  0  0  0  0  0  0
   14.2210  -52.3330   41.0690 H   0  0  0  0  0  0  0  0  0  0  0  0
   16.3240  -51.5430   39.4970 H   0  0  0  0  0  0  0  0  0  0  0  0
   17.6860  -51.4470   37.4400 H   0  0  0  0  0  0  0  0  0  0  0  0
   17.9160  -53.4370   35.9860 H   0  0  0  0  0  0  0  0  0  0  0  0
  1  2  1  0  0  0  0
  2  3  1  0  0  0  0
  3  7  1  0  0  0  0
  3  4  2  0  0  0  0
  4  5  1  0  0  0  0
  5 23  1  0  0  0  0
  6  5  1  0  0  0  0
  7  6  2  0  0  0  0
  8 27  1  0  0  0  0
  8  7  1  0  0  0  0
  8 28  1  0  0  0  0
  9 10  1  0  0  0  0
  9  8  1  0  0  0  0
 10 11  1  0  0  0  0
 10 29  1  0  0  0  0
 11 16  1  0  0  0  0
 11 31  1  1  0  0  0
 12 32  1  6  0  0  0
 12 13  1  0  0  0  0
 12 11  1  0  0  0  0
 13 33  1  0  0  0  0
 13  9  1  0  0  0  0
 14 36  1  0  0  0  0
 14 12  1  0  0  0  0
 15 14  1  0  0  0  0
 16 17  1  0  0  0  0
 17 22  1  0  0  0  0
 17 18  1  0  0  0  0
 18 40  1  0  0  0  0
 18 19  1  0  0  0  0
 19 20  1  0  0  0  0
 19 43  1  0  0  0  0
 21 45  1  0  0  0  0
 21 44  1  0  0  0  0
 21 20  1  0  0  0  0
 22 21  1  0  0  0  0
 23 48  1  0  0  0  0
 23 49  1  0  0  0  0
 24  4  1  0  0  0  0
 24 51  1  0  0  0  0
 25 24  2  0  0  0  0
 26  2  2  0  0  0  0
 26 25  1  0  0  0  0
 30 10  1  0  0  0  0
 34 13  1  0  0  0  0
 35 14  1  0  0  0  0
 37 15  1  0  0  0  0
 38 16  1  0  0  0  0
 39 16  1  0  0  0  0
 41 18  1  0  0  0  0
 42 19  1  0  0  0  0
 46 22  1  0  0  0  0
 47 22  1  0  0  0  0
 50 23  1  0  0  0  0
 52 25  1  0  0  0  0
 53 26  1  0  0  0  0
M  END
>  <Pose>
1

>  <Score>
-6.44

$$$$
