
 OpenBabel03232204043D

 58 62  0  0  1  0  0  0  0  0999 V2000
   18.3150  -51.6700   37.6850 B   0  0  0  0  0  0  0  0  0  0  0  0
   17.2700  -53.2870   37.7380 C   0  0  0  0  0  0  0  0  0  0  0  0
   16.2110  -53.4240   38.5820 C   0  0  0  0  0  0  0  0  0  0  0  0
   15.4730  -54.5730   38.6160 C   0  0  0  0  0  0  0  0  0  0  0  0
   15.7580  -55.6510   37.8030 C   0  0  0  0  0  0  0  0  0  0  0  0
   16.8110  -55.5160   36.9630 C   0  0  0  0  0  0  0  0  0  0  0  0
   17.5860  -54.3320   36.9160 C   0  0  0  0  0  0  0  0  0  0  0  0
   14.9330  -56.8350   37.9080 C   0  0  0  0  0  0  0  0  0  0  0  0
   13.8880  -56.9540   38.8390 C   0  0  0  0  0  0  0  0  0  0  0  0
   13.3420  -58.1490   38.6480 N   0  0  0  0  0  0  0  0  0  0  0  0
   12.3270  -58.9160   39.1510 C   0  0  0  0  0  0  0  0  0  0  0  0
   12.3550  -60.0770   38.4210 C   0  0  0  0  0  0  0  0  0  0  0  0
   13.3420  -59.9690   37.5450 N   0  0  0  0  0  0  0  0  0  0  0  0
   13.9700  -58.7660   37.6760 C   0  0  1  0  0  0  0  0  0  0  0  0
   14.9700  -57.9670   37.1970 N   0  0  0  0  0  0  0  0  0  0  0  0
   15.8070  -58.3910   36.1160 C   0  0  0  0  0  0  0  0  0  0  0  0
   15.1640  -58.6260   34.8100 C   0  0  0  0  0  0  0  0  0  0  0  0
   15.8450  -58.1480   33.5790 C   0  0  0  0  0  0  0  0  0  0  0  0
   16.1120  -56.7280   33.6240 N   0  0  0  0  0  4  0  0  0  0  0  0
   17.2850  -56.3490   32.8930 C   0  0  0  0  0  0  0  0  0  0  0  0
   17.1350  -56.3620   31.3980 C   0  0  0  0  0  0  0  0  0  0  0  0
   18.5600  -56.4200   30.8270 C   0  0  0  0  0  0  0  0  0  0  0  0
   19.2870  -55.1880   31.2440 C   0  0  0  0  0  0  0  0  0  0  0  0
   19.2510  -54.9330   32.7320 C   0  0  0  0  0  0  0  0  0  0  0  0
   17.8080  -54.9630   33.2490 C   0  0  0  0  0  0  0  0  0  0  0  0
   11.4450  -61.1100   38.6610 C   0  0  0  0  0  0  0  0  0  0  0  0
   10.4970  -60.9680   39.6520 C   0  0  0  0  0  0  0  0  0  0  0  0
   10.4910  -59.7940   40.3700 C   0  0  0  0  0  0  0  0  0  0  0  0
   11.3910  -58.7610   40.1370 C   0  0  0  0  0  0  0  0  0  0  0  0
   15.9440  -52.5910   39.2500 H   0  0  0  0  0  0  0  0  0  0  0  0
   14.6210  -54.6170   39.3250 H   0  0  0  0  0  0  0  0  0  0  0  0
   17.1540  -56.2490   36.2880 H   0  0  0  0  0  0  0  0  0  0  0  0
   18.4220  -54.2330   36.2460 H   0  0  0  0  0  0  0  0  0  0  0  0
   13.5830  -56.2160   39.5760 H   0  0  0  0  0  0  0  0  0  0  0  0
   13.5700  -60.7140   36.8590 H   0  0  0  0  0  0  0  0  0  0  0  0
   16.4810  -59.1940   36.4000 H   0  0  0  0  0  0  0  0  0  0  0  0
   16.5250  -57.4960   35.9080 H   0  0  0  0  0  0  0  0  0  0  0  0
   15.1290  -59.7630   34.6990 H   0  0  0  0  0  0  0  0  0  0  0  0
   14.0570  -58.3820   34.7850 H   0  0  0  0  0  0  0  0  0  0  0  0
   15.2730  -58.3410   32.6480 H   0  0  0  0  0  0  0  0  0  0  0  0
   16.8530  -58.6490   33.5570 H   0  0  0  0  0  0  0  0  0  0  0  0
   15.3250  -56.1110   33.4380 H   0  0  0  0  0  0  0  0  0  0  0  0
   16.3560  -56.5210   34.6600 H   0  0  0  0  0  0  0  0  0  0  0  0
   18.1520  -57.0360   33.1310 H   0  0  0  0  0  0  0  0  0  0  0  0
   16.5230  -57.1760   31.0100 H   0  0  0  0  0  0  0  0  0  0  0  0
   16.7400  -55.3590   31.0690 H   0  0  0  0  0  0  0  0  0  0  0  0
   19.0620  -57.3430   31.2130 H   0  0  0  0  0  0  0  0  0  0  0  0
   18.5050  -56.4310   29.7250 H   0  0  0  0  0  0  0  0  0  0  0  0
   20.3530  -55.3050   30.9630 H   0  0  0  0  0  0  0  0  0  0  0  0
   18.8740  -54.3200   30.6980 H   0  0  0  0  0  0  0  0  0  0  0  0
   19.6600  -53.9240   32.9010 H   0  0  0  0  0  0  0  0  0  0  0  0
   19.8230  -55.7150   33.2330 H   0  0  0  0  0  0  0  0  0  0  0  0
   17.2230  -54.1790   32.7040 H   0  0  0  0  0  0  0  0  0  0  0  0
   17.8200  -54.8560   34.3320 H   0  0  0  0  0  0  0  0  0  0  0  0
   11.4590  -62.0240   38.0940 H   0  0  0  0  0  0  0  0  0  0  0  0
    9.7650  -61.7580   39.8710 H   0  0  0  0  0  0  0  0  0  0  0  0
    9.7520  -59.6830   41.1420 H   0  0  0  0  0  0  0  0  0  0  0  0
   11.3840  -57.8480   40.6970 H   0  0  0  0  0  0  0  0  0  0  0  0
  1  2  1  0  0  0  0
  2  3  1  0  0  0  0
  3  4  2  0  0  0  0
  3 30  1  0  0  0  0
  4 31  1  0  0  0  0
  5  8  1  0  0  0  0
  5  4  1  0  0  0  0
  6  5  2  0  0  0  0
  7  6  1  0  0  0  0
  7  2  2  0  0  0  0
  8  9  2  0  0  0  0
  9 34  1  0  0  0  0
 10  9  1  0  0  0  0
 10 11  1  0  0  0  0
 11 29  1  0  0  0  0
 12 26  1  0  0  0  0
 12 11  2  0  0  0  0
 13 14  1  0  0  0  0
 13 12  1  0  0  0  0
 14 15  1  6  0  0  0
 14 10  1  0  0  0  0
 15  8  1  0  0  0  0
 16 36  1  0  0  0  0
 16 15  1  0  0  0  0
 17 16  1  0  0  0  0
 18 19  1  0  0  0  0
 18 17  1  0  0  0  0
 19 43  1  0  0  0  0
 20 44  1  0  0  0  0
 20 25  1  0  0  0  0
 20 19  1  0  0  0  0
 21 20  1  0  0  0  0
 22 47  1  0  0  0  0
 22 23  1  0  0  0  0
 22 21  1  0  0  0  0
 23 24  1  0  0  0  0
 24 51  1  0  0  0  0
 24 52  1  0  0  0  0
 24 25  1  0  0  0  0
 25 54  1  0  0  0  0
 26 27  2  0  0  0  0
 27 56  1  0  0  0  0
 27 28  1  0  0  0  0
 28 57  1  0  0  0  0
 29 28  2  0  0  0  0
 29 58  1  0  0  0  0
 32  6  1  0  0  0  0
 33  7  1  0  0  0  0
 35 13  1  0  0  0  0
 37 16  1  0  0  0  0
 38 17  1  0  0  0  0
 39 17  1  0  0  0  0
 40 18  1  0  0  0  0
 41 18  1  0  0  0  0
 42 19  1  0  0  0  0
 45 21  1  0  0  0  0
 46 21  1  0  0  0  0
 48 22  1  0  0  0  0
 49 23  1  0  0  0  0
 50 23  1  0  0  0  0
 53 25  1  0  0  0  0
 55 26  1  0  0  0  0
M  END
>  <Pose>
1

>  <Score>
-7.23

$$$$
