
 OpenBabel03232204043D

 55 59  0  0  1  0  0  0  0  0999 V2000
   18.2530  -56.7410   32.4690 B   0  0  0  0  0  0  0  0  0  0  0  0
   16.9260  -57.1560   33.7600 C   0  0  0  0  0  0  0  0  0  0  0  0
   17.2130  -57.2120   35.0930 C   0  0  0  0  0  0  0  0  0  0  0  0
   16.2210  -57.5170   36.0050 C   0  0  0  0  0  0  0  0  0  0  0  0
   14.8990  -57.7810   35.6510 C   0  0  0  0  0  0  0  0  0  0  0  0
   14.6250  -57.7220   34.3190 C   0  0  0  0  0  0  0  0  0  0  0  0
   15.6370  -57.4110   33.3790 C   0  0  0  0  0  0  0  0  0  0  0  0
   13.9450  -58.1050   36.7170 C   0  0  0  0  0  0  0  0  0  0  0  0
   13.2760  -59.3410   36.7600 C   0  0  0  0  0  0  0  0  0  0  0  0
   12.4930  -59.3740   37.8370 N   0  0  0  0  0  0  0  0  0  0  0  0
   11.6160  -60.1650   38.5080 C   0  0  0  0  0  0  0  0  0  0  0  0
   11.2140  -59.4640   39.5930 C   0  0  0  0  0  0  0  0  0  0  0  0
   11.8450  -58.2810   39.5570 N   0  0  0  0  0  0  0  0  0  0  0  0
   12.6440  -58.2090   38.4700 C   0  0  1  0  0  0  0  0  0  0  0  0
   13.5360  -57.4150   37.7910 N   0  0  0  0  0  0  0  0  0  0  0  0
   13.9300  -56.1150   38.2240 C   0  0  0  0  0  0  0  0  0  0  0  0
   15.3190  -56.0140   38.8000 C   0  0  0  0  0  0  0  0  0  0  0  0
   16.2310  -55.0550   38.1740 C   0  0  0  0  0  0  0  0  0  0  0  0
   17.0960  -54.2590   38.9940 N   0  0  0  0  0  4  0  0  0  0  0  0
   18.4980  -54.4400   38.6620 C   0  0  0  0  0  0  0  0  0  0  0  0
   19.0360  -53.5660   37.6100 C   0  0  0  0  0  0  0  0  0  0  0  0
   18.1870  -52.4240   37.1900 C   0  0  0  0  0  0  0  0  0  0  0  0
   17.3950  -51.8920   38.3310 C   0  0  0  0  0  0  0  0  0  0  0  0
   16.6990  -52.9060   39.1600 C   0  0  0  0  0  0  0  0  0  0  0  0
   10.3080  -60.0080   40.4860 C   0  0  0  0  0  0  0  0  0  0  0  0
    9.7960  -61.2800   40.2880 C   0  0  0  0  0  0  0  0  0  0  0  0
   10.2090  -61.9990   39.1750 C   0  0  0  0  0  0  0  0  0  0  0  0
   11.1120  -61.4260   38.3070 C   0  0  0  0  0  0  0  0  0  0  0  0
   18.2280  -57.0120   35.4040 H   0  0  0  0  0  0  0  0  0  0  0  0
   16.5100  -57.5430   37.0530 H   0  0  0  0  0  0  0  0  0  0  0  0
   13.6590  -57.9100   33.9440 H   0  0  0  0  0  0  0  0  0  0  0  0
   15.3740  -57.3750   32.3380 H   0  0  0  0  0  0  0  0  0  0  0  0
   13.3370  -60.1670   36.0710 H   0  0  0  0  0  0  0  0  0  0  0  0
   11.7480  -57.5150   40.2730 H   0  0  0  0  0  0  0  0  0  0  0  0
   13.1820  -55.6020   38.8440 H   0  0  0  0  0  0  0  0  0  0  0  0
   13.8930  -55.4760   37.2630 H   0  0  0  0  0  0  0  0  0  0  0  0
   15.7790  -57.0430   38.6250 H   0  0  0  0  0  0  0  0  0  0  0  0
   15.2980  -55.9790   39.9190 H   0  0  0  0  0  0  0  0  0  0  0  0
   15.5940  -54.3110   37.6050 H   0  0  0  0  0  0  0  0  0  0  0  0
   16.8070  -55.5580   37.3410 H   0  0  0  0  0  0  0  0  0  0  0  0
   17.0400  -54.7030   39.9380 H   0  0  0  0  0  0  0  0  0  0  0  0
   19.1640  -54.3780   39.5500 H   0  0  0  0  0  0  0  0  0  0  0  0
   18.5760  -55.5250   38.3450 H   0  0  0  0  0  0  0  0  0  0  0  0
   19.2550  -54.1710   36.6800 H   0  0  0  0  0  0  0  0  0  0  0  0
   20.0530  -53.1530   37.8830 H   0  0  0  0  0  0  0  0  0  0  0  0
   18.8330  -51.6130   36.7950 H   0  0  0  0  0  0  0  0  0  0  0  0
   17.5360  -52.7090   36.3090 H   0  0  0  0  0  0  0  0  0  0  0  0
   16.6560  -51.1580   37.9150 H   0  0  0  0  0  0  0  0  0  0  0  0
   18.0850  -51.2600   38.9560 H   0  0  0  0  0  0  0  0  0  0  0  0
   15.5940  -52.8620   38.9350 H   0  0  0  0  0  0  0  0  0  0  0  0
   16.7620  -52.5600   40.2280 H   0  0  0  0  0  0  0  0  0  0  0  0
    9.9840  -59.4510   41.3530 H   0  0  0  0  0  0  0  0  0  0  0  0
    9.0850  -61.7310   40.9710 H   0  0  0  0  0  0  0  0  0  0  0  0
    9.7950  -62.9850   39.0460 H   0  0  0  0  0  0  0  0  0  0  0  0
   11.4240  -61.9840   37.4550 H   0  0  0  0  0  0  0  0  0  0  0  0
  1  2  1  0  0  0  0
  2  3  1  0  0  0  0
  3 29  1  0  0  0  0
  3  4  2  0  0  0  0
  4 30  1  0  0  0  0
  5  4  1  0  0  0  0
  5  8  1  0  0  0  0
  6  5  2  0  0  0  0
  7  2  2  0  0  0  0
  7  6  1  0  0  0  0
  8  9  2  0  0  0  0
  8 15  1  0  0  0  0
  9 10  1  0  0  0  0
 10 14  1  0  0  0  0
 10 11  1  0  0  0  0
 11 12  1  0  0  0  0
 12 25  2  0  0  0  0
 13 12  1  0  0  0  0
 13 34  1  0  0  0  0
 14 15  1  1  0  0  0
 14 13  1  0  0  0  0
 15 16  1  0  0  0  0
 16 17  1  0  0  0  0
 16 35  1  0  0  0  0
 17 38  1  0  0  0  0
 18 17  1  0  0  0  0
 18 19  1  0  0  0  0
 19 24  1  0  0  0  0
 19 41  1  0  0  0  0
 20 19  1  0  0  0  0
 20 42  1  0  0  0  0
 21 45  1  0  0  0  0
 21 20  1  0  0  0  0
 22 21  1  0  0  0  0
 22 23  1  0  0  0  0
 23 49  1  0  0  0  0
 23 24  1  0  0  0  0
 24 51  1  0  0  0  0
 25 52  1  0  0  0  0
 26 25  1  0  0  0  0
 26 53  1  0  0  0  0
 27 26  2  0  0  0  0
 28 11  2  0  0  0  0
 28 27  1  0  0  0  0
 31  6  1  0  0  0  0
 32  7  1  0  0  0  0
 33  9  1  0  0  0  0
 36 16  1  0  0  0  0
 37 17  1  0  0  0  0
 39 18  1  0  0  0  0
 40 18  1  0  0  0  0
 43 20  1  0  0  0  0
 44 21  1  0  0  0  0
 46 22  1  0  0  0  0
 47 22  1  0  0  0  0
 48 23  1  0  0  0  0
 50 24  1  0  0  0  0
 54 27  1  0  0  0  0
 55 28  1  0  0  0  0
M  END
>  <Pose>
1

>  <Score>
-7.12

$$$$
