
 OpenBabel03172210433D

 50 53  0  0  0  0  0  0  0  0999 V2000
   49.1500    6.5410   46.5980 B   0  0  0  0  0  0  0  0  0  0  0  0
   47.9890    6.1370   45.1220 C   0  0  0  0  0  0  0  0  0  0  0  0
   48.2630    5.0210   44.3560 C   0  0  0  0  0  0  0  0  0  0  0  0
   47.4170    4.7500   43.3020 C   0  0  0  0  0  0  0  0  0  0  0  0
   46.3380    5.5750   43.0340 C   0  0  0  0  0  0  0  0  0  0  0  0
   46.0610    6.6910   43.7970 C   0  0  0  0  0  0  0  0  0  0  0  0
   46.9130    6.9560   44.8490 C   0  0  0  0  0  0  0  0  0  0  0  0
   46.6280    8.0950   45.6250 O   0  0  0  0  0  0  0  0  0  0  0  0
   44.9200    7.5730   43.5190 C   0  0  0  0  0  0  0  0  0  0  0  0
   44.0630    7.3190   42.6030 N   0  0  0  0  0  0  0  0  0  0  0  0
   42.9610    8.2120   42.3690 N   0  0  0  0  0  0  0  0  0  0  0  0
   42.7280    9.1830   43.3500 C   0  0  0  0  0  0  0  0  0  0  0  0
   43.4300   10.2770   43.2350 O   0  0  0  0  0  0  0  0  0  0  0  0
   41.8270    9.1750   44.4780 C   0  0  0  0  0  0  0  0  0  0  0  0
   41.9220    8.2510   45.4970 N   0  0  0  0  0  0  0  0  0  0  0  0
   40.9780    8.5000   46.3460 N   0  0  0  0  0  0  0  0  0  0  0  0
   40.2550    9.5710   45.9160 N   0  0  0  0  0  0  0  0  0  0  0  0
   40.7550   10.0100   44.7620 C   0  0  0  0  0  0  0  0  0  0  0  0
   40.3070   11.1260   43.9290 C   0  0  0  0  0  0  0  0  0  0  0  0
   41.0770   12.3110   43.8690 N   0  0  0  0  0  4  0  0  0  0  0  0
   41.5960   12.7290   45.1630 C   0  0  0  0  0  0  0  0  0  0  0  0
   40.5230   12.7960   46.1760 C   0  0  0  0  0  0  0  0  0  0  0  0
   39.2820   13.1410   45.8300 O   0  0  0  0  0  0  0  0  0  0  0  0
   38.9870   13.3770   44.5260 C   0  0  0  0  0  0  0  0  0  0  0  0
   40.1140   13.4220   43.5770 C   0  0  0  0  0  0  0  0  0  0  0  0
   39.1560   10.0400   46.7010 C   0  0  0  0  0  0  0  0  0  0  0  0
   39.0560   10.3530   47.9870 N   0  0  0  0  0  0  0  0  0  0  0  0
   37.8470   10.7610   48.1960 O   0  0  0  0  0  0  0  0  0  0  0  0
   37.1360   10.7340   47.1130 N   0  0  0  0  0  0  0  0  0  0  0  0
   37.9000   10.2890   46.1250 C   0  0  0  0  0  0  0  0  0  0  0  0
   37.5800   10.0830   44.7590 N   0  0  0  0  0  0  0  0  0  0  0  0
   47.7990    3.2030   42.2440 B   0  0  0  0  0  0  0  0  0  0  0  0
   49.3600    4.2110   44.6550 O   0  0  0  0  0  0  0  0  0  0  0  0
   45.6790    5.3450   42.1960 H   0  0  0  0  0  0  0  0  0  0  0  0
   47.0740    8.2060   46.5220 H   0  0  0  0  0  0  0  0  0  0  0  0
   44.7960    8.4540   44.0980 H   0  0  0  0  0  0  0  0  0  0  0  0
   42.4300    8.0950   41.5220 H   0  0  0  0  0  0  0  0  0  0  0  0
   39.2210   11.3940   44.1600 H   0  0  0  0  0  0  0  0  0  0  0  0
   40.2630   10.7380   42.8610 H   0  0  0  0  0  0  0  0  0  0  0  0
   41.7780   12.2990   43.1430 H   0  0  0  0  0  0  0  0  0  0  0  0
   41.9750   13.7800   44.9970 H   0  0  0  0  0  0  0  0  0  0  0  0
   42.4350   12.1460   45.5320 H   0  0  0  0  0  0  0  0  0  0  0  0
   40.8760   13.5060   46.9830 H   0  0  0  0  0  0  0  0  0  0  0  0
   40.4970   11.8040   46.7160 H   0  0  0  0  0  0  0  0  0  0  0  0
   38.2370   12.6350   44.1850 H   0  0  0  0  0  0  0  0  0  0  0  0
   38.4550   14.3700   44.4720 H   0  0  0  0  0  0  0  0  0  0  0  0
   40.7060   14.3460   43.6170 H   0  0  0  0  0  0  0  0  0  0  0  0
   39.7910   13.2430   42.5420 H   0  0  0  0  0  0  0  0  0  0  0  0
   37.6950    9.1360   44.3430 H   0  0  0  0  0  0  0  0  0  0  0  0
   37.2230   10.8620   44.1330 H   0  0  0  0  0  0  0  0  0  0  0  0
  2  1  1  0  0  0  0
  3 33  1  0  0  0  0
  3  2  2  0  0  0  0
  4  3  1  0  0  0  0
  5  4  2  0  0  0  0
  5  6  1  0  0  0  0
  6  7  2  0  0  0  0
  7  2  1  0  0  0  0
  7  8  1  0  0  0  0
  8 35  1  0  0  0  0
  9  6  1  0  0  0  0
  9 36  1  0  0  0  0
 10  9  2  0  0  0  0
 11 10  1  0  0  0  0
 11 12  1  0  0  0  0
 12 14  1  0  0  0  0
 13 12  2  0  0  0  0
 14 18  2  0  0  0  0
 14 15  1  0  0  0  0
 15 16  2  0  0  0  0
 17 16  1  0  0  0  0
 17 26  1  0  0  0  0
 18 17  1  0  0  0  0
 19 38  1  0  0  0  0
 19 18  1  0  0  0  0
 20 19  1  0  0  0  0
 20 21  1  0  0  0  0
 21 42  1  0  0  0  0
 21 22  1  0  0  0  0
 22 44  1  0  0  0  0
 22 43  1  0  0  0  0
 23 22  1  0  0  0  0
 24 23  1  0  0  0  0
 25 47  1  0  0  0  0
 25 20  1  0  0  0  0
 25 24  1  0  0  0  0
 26 27  2  0  0  0  0
 27 28  1  0  0  0  0
 29 28  1  0  0  0  0
 30 26  1  0  0  0  0
 30 29  2  0  0  0  0
 31 30  1  0  0  0  0
 32  4  1  0  0  0  0
 34  5  1  0  0  0  0
 37 11  1  0  0  0  0
 39 19  1  0  0  0  0
 40 20  1  0  0  0  0
 41 21  1  0  0  0  0
 45 24  1  0  0  0  0
 46 24  1  0  0  0  0
 48 25  1  0  0  0  0
 49 31  1  0  0  0  0
 50 31  1  0  0  0  0
M  END
>  <Pose>
1

>  <Score>
-7.50

$$$$
