
 OpenBabel03172210433D

 50 53  0  0  0  0  0  0  0  0999 V2000
   51.1440    4.4850   47.3350 B   0  0  0  0  0  0  0  0  0  0  0  0
   49.9410    4.5600   45.8730 C   0  0  0  0  0  0  0  0  0  0  0  0
   49.9300    3.5600   44.9460 C   0  0  0  0  0  0  0  0  0  0  0  0
   49.0350    3.6430   43.8830 C   0  0  0  0  0  0  0  0  0  0  0  0
   48.1790    4.7360   43.7880 C   0  0  0  0  0  0  0  0  0  0  0  0
   48.1840    5.7450   44.7140 C   0  0  0  0  0  0  0  0  0  0  0  0
   49.0750    5.6490   45.7610 C   0  0  0  0  0  0  0  0  0  0  0  0
   49.0710    6.6750   46.6920 O   0  0  0  0  0  0  0  0  0  0  0  0
   47.2810    6.8800   44.5980 C   0  0  0  0  0  0  0  0  0  0  0  0
   46.0330    6.7690   44.3100 N   0  0  0  0  0  0  0  0  0  0  0  0
   45.2280    7.9550   44.2210 N   0  0  0  0  0  0  0  0  0  0  0  0
   43.8860    7.7870   43.9090 C   0  0  0  0  0  0  0  0  0  0  0  0
   43.6040    7.5790   42.6690 O   0  0  0  0  0  0  0  0  0  0  0  0
   42.7330    7.8130   44.7890 C   0  0  0  0  0  0  0  0  0  0  0  0
   41.9280    6.7370   45.0710 N   0  0  0  0  0  0  0  0  0  0  0  0
   40.9900    7.1040   45.9000 N   0  0  0  0  0  0  0  0  0  0  0  0
   41.0960    8.3840   46.2130 N   0  0  0  0  0  0  0  0  0  0  0  0
   42.1650    8.8450   45.5430 C   0  0  0  0  0  0  0  0  0  0  0  0
   42.6740   10.2200   45.5360 C   0  0  0  0  0  0  0  0  0  0  0  0
   42.4850   10.9400   46.7980 N   0  0  0  0  0  0  0  0  0  0  0  0
   42.4580   12.3880   46.5110 C   0  0  0  0  0  0  0  0  0  0  0  0
   43.5870   12.7450   45.6090 C   0  0  0  0  0  0  0  0  0  0  0  0
   44.7690   12.3050   46.1530 O   0  0  0  0  0  0  0  0  0  0  0  0
   44.6650   11.8480   47.4400 C   0  0  0  0  0  0  0  0  0  0  0  0
   43.6870   10.7180   47.6360 C   0  0  0  0  0  0  0  0  0  0  0  0
   40.1970    9.0670   47.0680 C   0  0  0  0  0  0  0  0  0  0  0  0
   40.1660    9.1160   48.4170 N   0  0  0  0  0  0  0  0  0  0  0  0
   39.1750    9.8730   48.8100 O   0  0  0  0  0  0  0  0  0  0  0  0
   38.5250   10.3450   47.7770 N   0  0  0  0  0  0  0  0  0  0  0  0
   39.1320    9.8660   46.6790 C   0  0  0  0  0  0  0  0  0  0  0  0
   38.7240   10.1510   45.3580 N   0  0  0  0  0  0  0  0  0  0  0  0
   48.9940    2.2690   42.5780 B   0  0  0  0  0  0  0  0  0  0  0  0
   50.7740    2.4610   45.0220 O   0  0  0  0  0  0  0  0  0  0  0  0
   47.4910    4.8000   42.9700 H   0  0  0  0  0  0  0  0  0  0  0  0
   48.9560    7.6350   46.3920 H   0  0  0  0  0  0  0  0  0  0  0  0
   47.6640    7.8850   44.7580 H   0  0  0  0  0  0  0  0  0  0  0  0
   45.7310    8.8570   44.3980 H   0  0  0  0  0  0  0  0  0  0  0  0
   42.1980   10.8270   44.7620 H   0  0  0  0  0  0  0  0  0  0  0  0
   43.7610   10.2090   45.3810 H   0  0  0  0  0  0  0  0  0  0  0  0
   41.4760   12.6920   46.1170 H   0  0  0  0  0  0  0  0  0  0  0  0
   42.5980   12.8900   47.4860 H   0  0  0  0  0  0  0  0  0  0  0  0
   43.4830   12.3410   44.5880 H   0  0  0  0  0  0  0  0  0  0  0  0
   43.6590   13.8710   45.5710 H   0  0  0  0  0  0  0  0  0  0  0  0
   45.6800   11.4210   47.7000 H   0  0  0  0  0  0  0  0  0  0  0  0
   44.5000   12.6860   48.1490 H   0  0  0  0  0  0  0  0  0  0  0  0
   43.3610   10.7620   48.6830 H   0  0  0  0  0  0  0  0  0  0  0  0
   44.1780    9.7750   47.4170 H   0  0  0  0  0  0  0  0  0  0  0  0
   38.4760   11.1260   45.1100 H   0  0  0  0  0  0  0  0  0  0  0  0
   38.6630    9.4230   44.6230 H   0  0  0  0  0  0  0  0  0  0  0  0
   50.4600    1.5910   45.4190 H   0  0  0  0  0  0  0  0  0  0  0  0
  2  1  1  0  0  0  0
  3 33  1  0  0  0  0
  3  2  2  0  0  0  0
  4  3  1  0  0  0  0
  5  4  2  0  0  0  0
  5  6  1  0  0  0  0
  6  7  2  0  0  0  0
  7  2  1  0  0  0  0
  7  8  1  0  0  0  0
  9  6  1  0  0  0  0
  9 36  1  0  0  0  0
 10  9  2  0  0  0  0
 11 10  1  0  0  0  0
 11 37  1  0  0  0  0
 12 11  1  0  0  0  0
 12 14  1  0  0  0  0
 13 12  2  0  0  0  0
 14 15  1  0  0  0  0
 14 18  2  0  0  0  0
 15 16  2  0  0  0  0
 16 17  1  0  0  0  0
 17 26  1  0  0  0  0
 18 17  1  0  0  0  0
 19 18  1  0  0  0  0
 19 20  1  0  0  0  0
 20 25  1  0  0  0  0
 21 20  1  0  0  0  0
 21 41  1  0  0  0  0
 22 23  1  0  0  0  0
 22 21  1  0  0  0  0
 23 24  1  0  0  0  0
 24 25  1  0  0  0  0
 24 44  1  0  0  0  0
 24 45  1  0  0  0  0
 25 46  1  0  0  0  0
 26 27  2  0  0  0  0
 27 28  1  0  0  0  0
 29 28  1  0  0  0  0
 30 26  1  0  0  0  0
 30 29  2  0  0  0  0
 31 30  1  0  0  0  0
 32  4  1  0  0  0  0
 33 50  1  0  0  0  0
 34  5  1  0  0  0  0
 35  8  1  0  0  0  0
 38 19  1  0  0  0  0
 39 19  1  0  0  0  0
 40 21  1  0  0  0  0
 42 22  1  0  0  0  0
 43 22  1  0  0  0  0
 47 25  1  0  0  0  0
 48 31  1  0  0  0  0
 49 31  1  0  0  0  0
M  END
>  <Pose>
1

>  <Score>
-7.76

$$$$
