
 OpenBabel03162215123D

 50 53  0  0  0  0  0  0  0  0999 V2000
   49.8470    3.6650   45.0310 B   0  0  0  0  0  0  0  0  0  0  0  0
   48.5640    4.1240   43.7160 C   0  0  0  0  0  0  0  0  0  0  0  0
   48.4770    3.3990   42.5640 C   0  0  0  0  0  0  0  0  0  0  0  0
   47.5240    3.7610   41.6150 C   0  0  0  0  0  0  0  0  0  0  0  0
   46.6890    4.8470   41.8600 C   0  0  0  0  0  0  0  0  0  0  0  0
   46.7690    5.5800   43.0130 C   0  0  0  0  0  0  0  0  0  0  0  0
   47.7160    5.2100   43.9420 C   0  0  0  0  0  0  0  0  0  0  0  0
   47.7880    5.9590   45.1060 O   0  0  0  0  0  0  0  0  0  0  0  0
   45.8860    6.7120   43.2500 C   0  0  0  0  0  0  0  0  0  0  0  0
   45.6570    7.2040   44.4150 N   0  0  0  0  0  0  0  0  0  0  0  0
   44.7670    8.3250   44.5390 N   0  0  0  0  0  0  0  0  0  0  0  0
   43.4090    8.0500   44.6200 C   0  0  0  0  0  0  0  0  0  0  0  0
   43.0820    6.9060   45.1150 O   0  0  0  0  0  0  0  0  0  0  0  0
   42.2850    8.8740   44.2200 C   0  0  0  0  0  0  0  0  0  0  0  0
   41.7210    8.8910   42.9690 N   0  0  0  0  0  0  0  0  0  0  0  0
   40.7290    9.7380   42.9520 N   0  0  0  0  0  0  0  0  0  0  0  0
   40.5700   10.3180   44.1290 N   0  0  0  0  0  0  0  0  0  0  0  0
   41.5160    9.8020   44.9310 C   0  0  0  0  0  0  0  0  0  0  0  0
   41.7720   10.1540   46.3310 C   0  0  0  0  0  0  0  0  0  0  0  0
   41.3460    9.1370   47.2960 N   0  0  0  0  0  0  0  0  0  0  0  0
   40.5000    9.7860   48.3170 C   0  0  0  0  0  0  0  0  0  0  0  0
   41.1510   11.0380   48.7900 C   0  0  0  0  0  0  0  0  0  0  0  0
   42.4280   10.7630   49.2150 O   0  0  0  0  0  0  0  0  0  0  0  0
   42.7210    9.4280   49.2990 C   0  0  0  0  0  0  0  0  0  0  0  0
   42.5500    8.6570   48.0170 C   0  0  0  0  0  0  0  0  0  0  0  0
   39.5920   11.3070   44.4000 C   0  0  0  0  0  0  0  0  0  0  0  0
   39.6150   12.6310   44.1370 N   0  0  0  0  0  0  0  0  0  0  0  0
   38.5010   13.1820   44.5420 O   0  0  0  0  0  0  0  0  0  0  0  0
   37.7140   12.2820   45.0730 N   0  0  0  0  0  0  0  0  0  0  0  0
   38.3590   11.1060   45.0010 C   0  0  0  0  0  0  0  0  0  0  0  0
   37.8350    9.8830   45.4730 N   0  0  0  0  0  0  0  0  0  0  0  0
   47.3780    2.7730   40.0040 B   0  0  0  0  0  0  0  0  0  0  0  0
   49.3000    2.3140   42.3010 O   0  0  0  0  0  0  0  0  0  0  0  0
   45.9560    5.1250   41.1300 H   0  0  0  0  0  0  0  0  0  0  0  0
   47.7180    5.5060   46.0090 H   0  0  0  0  0  0  0  0  0  0  0  0
   45.3820    7.1810   42.4090 H   0  0  0  0  0  0  0  0  0  0  0  0
   45.2270    9.2660   44.5560 H   0  0  0  0  0  0  0  0  0  0  0  0
   41.2670   11.0790   46.6180 H   0  0  0  0  0  0  0  0  0  0  0  0
   42.8530   10.2570   46.4930 H   0  0  0  0  0  0  0  0  0  0  0  0
   39.4790    9.9450   47.9380 H   0  0  0  0  0  0  0  0  0  0  0  0
   40.4390    9.0690   49.1570 H   0  0  0  0  0  0  0  0  0  0  0  0
   41.1840   11.8350   48.0280 H   0  0  0  0  0  0  0  0  0  0  0  0
   40.5890   11.4010   49.7000 H   0  0  0  0  0  0  0  0  0  0  0  0
   43.8250    9.3690   49.5460 H   0  0  0  0  0  0  0  0  0  0  0  0
   42.1950    8.9580   50.1570 H   0  0  0  0  0  0  0  0  0  0  0  0
   42.3590    7.6140   48.2990 H   0  0  0  0  0  0  0  0  0  0  0  0
   43.4520    8.7440   47.4210 H   0  0  0  0  0  0  0  0  0  0  0  0
   38.1080    9.0040   44.9960 H   0  0  0  0  0  0  0  0  0  0  0  0
   37.1860    9.8270   46.2780 H   0  0  0  0  0  0  0  0  0  0  0  0
   49.1760    1.4390   42.7830 H   0  0  0  0  0  0  0  0  0  0  0  0
  2  7  1  0  0  0  0
  2  1  1  0  0  0  0
  3  2  2  0  0  0  0
  4  5  2  0  0  0  0
  4  3  1  0  0  0  0
  5  6  1  0  0  0  0
  6  9  1  0  0  0  0
  6  7  2  0  0  0  0
  7  8  1  0  0  0  0
  8 35  1  0  0  0  0
  9 10  2  0  0  0  0
 10 11  1  0  0  0  0
 11 37  1  0  0  0  0
 11 12  1  0  0  0  0
 12 13  2  0  0  0  0
 14 12  1  0  0  0  0
 14 18  2  0  0  0  0
 15 14  1  0  0  0  0
 16 15  2  0  0  0  0
 16 17  1  0  0  0  0
 17 26  1  0  0  0  0
 17 18  1  0  0  0  0
 18 19  1  0  0  0  0
 19 39  1  0  0  0  0
 19 38  1  0  0  0  0
 19 20  1  0  0  0  0
 20 25  1  0  0  0  0
 20 21  1  0  0  0  0
 21 22  1  0  0  0  0
 21 41  1  0  0  0  0
 22 23  1  0  0  0  0
 22 43  1  0  0  0  0
 23 24  1  0  0  0  0
 24 44  1  0  0  0  0
 24 45  1  0  0  0  0
 25 46  1  0  0  0  0
 25 24  1  0  0  0  0
 26 30  1  0  0  0  0
 27 26  2  0  0  0  0
 27 28  1  0  0  0  0
 28 29  1  0  0  0  0
 30 29  2  0  0  0  0
 30 31  1  0  0  0  0
 31 49  1  0  0  0  0
 32  4  1  0  0  0  0
 33  3  1  0  0  0  0
 33 50  1  0  0  0  0
 34  5  1  0  0  0  0
 36  9  1  0  0  0  0
 40 21  1  0  0  0  0
 42 22  1  0  0  0  0
 47 25  1  0  0  0  0
 48 31  1  0  0  0  0
M  END
>  <Pose>
1

>  <Score>
-7.84

$$$$
