
 OpenBabel03172210433D

 43 46  0  0  0  0  0  0  0  0999 V2000
   45.7780   12.9440   47.8990 B   0  0  0  0  0  0  0  0  0  0  0  0
   43.9480   12.8060   47.4180 C   0  0  0  0  0  0  0  0  0  0  0  0
   43.3960   11.5540   47.2510 C   0  0  0  0  0  0  0  0  0  0  0  0
   42.0850   11.4390   46.9060 C   0  0  0  0  0  0  0  0  0  0  0  0
   41.2780   12.5660   46.7160 C   0  0  0  0  0  0  0  0  0  0  0  0
   41.8530   13.8010   46.8900 C   0  0  0  0  0  0  0  0  0  0  0  0
   43.1740   13.9390   47.2380 C   0  0  0  0  0  0  0  0  0  0  0  0
   40.7950   15.3760   46.6430 B   0  0  0  0  0  0  0  0  0  0  0  0
   41.4940   10.1270   46.7270 C   0  0  0  0  0  0  0  0  0  0  0  0
   41.7640    9.4600   45.6700 N   0  0  0  0  0  0  0  0  0  0  0  0
   41.2550    8.2010   45.4000 N   0  0  0  0  0  0  0  0  0  0  0  0
   42.0380    7.0280   45.2700 C   0  0  0  0  0  0  0  0  0  0  0  0
   42.3500    6.4380   46.3310 O   0  0  0  0  0  0  0  0  0  0  0  0
   42.4750    6.5030   43.9990 C   0  0  0  0  0  0  0  0  0  0  0  0
   43.7260    6.9910   43.5080 N   0  0  0  0  0  0  0  0  0  0  0  0
   44.9110    6.3270   43.4540 C   0  0  0  0  0  0  0  0  0  0  0  0
   45.8770    7.1350   42.9200 C   0  0  0  0  0  0  0  0  0  0  0  0
   45.2590    8.2960   42.6510 N   0  0  0  0  0  0  0  0  0  0  0  0
   43.9400    8.2110   43.0110 C   0  0  0  0  0  0  0  0  0  0  0  0
   42.9850    9.3010   42.8550 C   0  0  0  0  0  0  0  0  0  0  0  0
   41.7680    9.1990   42.3040 N   0  0  0  0  0  0  0  0  0  0  0  0
   41.1860   10.3840   42.3320 O   0  0  0  0  0  0  0  0  0  0  0  0
   41.9730   11.2570   42.8780 N   0  0  0  0  0  0  0  0  0  0  0  0
   43.1150   10.6220   43.2220 C   0  0  0  0  0  0  0  0  0  0  0  0
   44.2450   11.2020   43.8470 N   0  0  0  0  0  4  0  0  0  0  0  0
   47.1560    6.6370   42.7820 C   0  0  0  0  0  0  0  0  0  0  0  0
   47.4870    5.3490   43.1680 C   0  0  0  0  0  0  0  0  0  0  0  0
   46.4890    4.5550   43.7050 C   0  0  0  0  0  0  0  0  0  0  0  0
   45.2080    5.0510   43.8450 C   0  0  0  0  0  0  0  0  0  0  0  0
   44.1800   10.4290   47.4340 O   0  0  0  0  0  0  0  0  0  0  0  0
   40.2380   12.4920   46.4440 H   0  0  0  0  0  0  0  0  0  0  0  0
   43.6550   14.8920   47.3820 H   0  0  0  0  0  0  0  0  0  0  0  0
   40.8270    9.6750   47.4510 H   0  0  0  0  0  0  0  0  0  0  0  0
   40.2240    8.1050   45.2830 H   0  0  0  0  0  0  0  0  0  0  0  0
   42.5860    5.3730   44.0220 H   0  0  0  0  0  0  0  0  0  0  0  0
   41.6800    6.6600   43.2440 H   0  0  0  0  0  0  0  0  0  0  0  0
   44.1860   12.2280   43.9060 H   0  0  0  0  0  0  0  0  0  0  0  0
   45.0680   10.9860   43.2210 H   0  0  0  0  0  0  0  0  0  0  0  0
   44.4560   10.7730   44.7850 H   0  0  0  0  0  0  0  0  0  0  0  0
   47.9180    7.2870   42.3550 H   0  0  0  0  0  0  0  0  0  0  0  0
   48.5140    4.9840   43.0450 H   0  0  0  0  0  0  0  0  0  0  0  0
   46.7450    3.5460   44.0080 H   0  0  0  0  0  0  0  0  0  0  0  0
   44.4080    4.4460   44.2640 H   0  0  0  0  0  0  0  0  0  0  0  0
  2  1  1  0  0  0  0
  3  2  1  0  0  0  0
  3 30  1  0  0  0  0
  4  3  2  0  0  0  0
  5  6  2  0  0  0  0
  5  4  1  0  0  0  0
  6  7  1  0  0  0  0
  7 32  1  0  0  0  0
  7  2  2  0  0  0  0
  8  6  1  0  0  0  0
  9  4  1  0  0  0  0
  9 33  1  0  0  0  0
 10  9  2  0  0  0  0
 11 10  1  0  0  0  0
 12 11  1  0  0  0  0
 12 13  2  0  0  0  0
 14 35  1  0  0  0  0
 14 12  1  0  0  0  0
 15 14  1  0  0  0  0
 16 15  1  0  0  0  0
 16 29  1  0  0  0  0
 17 16  2  0  0  0  0
 18 17  1  0  0  0  0
 18 19  2  0  0  0  0
 19 15  1  0  0  0  0
 20 19  1  0  0  0  0
 20 24  1  0  0  0  0
 21 22  1  0  0  0  0
 21 20  2  0  0  0  0
 22 23  1  0  0  0  0
 23 24  2  0  0  0  0
 24 25  1  0  0  0  0
 25 37  1  0  0  0  0
 25 39  1  0  0  0  0
 26 17  1  0  0  0  0
 26 27  2  0  0  0  0
 27 28  1  0  0  0  0
 28 29  2  0  0  0  0
 28 42  1  0  0  0  0
 29 43  1  0  0  0  0
 31  5  1  0  0  0  0
 34 11  1  0  0  0  0
 36 14  1  0  0  0  0
 38 25  1  0  0  0  0
 40 26  1  0  0  0  0
 41 27  1  0  0  0  0
M  END
>  <Pose>
1

>  <Score>
-7.24

$$$$
