
 OpenBabel03172210433D

 50 53  0  0  0  0  0  0  0  0999 V2000
   41.6030   11.0040   42.7180 B   0  0  0  0  0  0  0  0  0  0  0  0
   42.3750    9.6500   43.8020 C   0  0  0  0  0  0  0  0  0  0  0  0
   41.6620    9.1090   44.8490 C   0  0  0  0  0  0  0  0  0  0  0  0
   42.2660    8.1160   45.6570 C   0  0  0  0  0  0  0  0  0  0  0  0
   43.5430    7.7440   45.3500 C   0  0  0  0  0  0  0  0  0  0  0  0
   44.3050    8.2690   44.2960 C   0  0  0  0  0  0  0  0  0  0  0  0
   43.6650    9.2290   43.5450 C   0  0  0  0  0  0  0  0  0  0  0  0
   45.6360    7.8150   44.0830 C   0  0  0  0  0  0  0  0  0  0  0  0
   46.1360    6.7590   43.9130 N   0  0  0  0  0  0  0  0  0  0  0  0
   46.5730    5.6180   43.7440 N   0  0  0  0  0  0  0  0  0  0  0  0
   47.0540    4.3630   43.5600 C   0  0  0  0  0  0  0  0  0  0  0  0
   46.5820    3.2290   43.5190 O   0  0  0  0  0  0  0  0  0  0  0  0
   48.5840    4.3810   43.3540 C   0  0  0  0  0  0  0  0  0  0  0  0
   49.2360    3.4210   44.1460 N   0  0  0  0  0  0  0  0  0  0  0  0
   49.7770    2.2910   43.5510 C   0  0  0  0  0  0  0  0  0  0  0  0
   50.3080    1.5430   44.5340 C   0  0  0  0  0  0  0  0  0  0  0  0
   50.0950    2.1880   45.6700 N   0  0  0  0  0  0  0  0  0  0  0  0
   49.4200    3.3780   45.4380 C   0  0  0  0  0  0  0  0  0  0  0  0
   49.1080    4.1770   46.6090 C   0  0  0  0  0  0  0  0  0  0  0  0
   49.2760    5.5600   46.6320 N   0  0  0  0  0  0  0  0  0  0  0  0
   48.9130    6.0350   47.7540 O   0  0  0  0  0  0  0  0  0  0  0  0
   48.5060    5.1050   48.5210 N   0  0  0  0  0  0  0  0  0  0  0  0
   48.6120    3.9160   47.8340 C   0  0  0  0  0  0  0  0  0  0  0  0
   48.2150    2.6880   48.4040 N   0  0  0  0  0  4  0  0  0  0  0  0
   50.9350    0.3290   44.2980 C   0  0  0  0  0  0  0  0  0  0  0  0
   50.9930   -0.0840   42.9880 C   0  0  0  0  0  0  0  0  0  0  0  0
   50.4670    0.6460   41.9400 C   0  0  0  0  0  0  0  0  0  0  0  0
   49.8460    1.8580   42.2360 C   0  0  0  0  0  0  0  0  0  0  0  0
   41.5290    7.5930   46.7030 O   0  0  0  0  0  0  0  0  0  0  0  0
   41.4500    8.1960   47.9490 C   0  0  0  0  0  0  0  0  0  0  0  0
   40.1900    8.9630   48.2360 C   0  0  0  0  0  0  0  0  0  0  0  0
   40.3870    9.4800   45.1640 O   0  0  0  0  0  0  0  0  0  0  0  0
   44.0380    6.9990   45.9470 H   0  0  0  0  0  0  0  0  0  0  0  0
   44.2030    9.6760   42.6840 H   0  0  0  0  0  0  0  0  0  0  0  0
   46.4770    8.5960   44.0470 H   0  0  0  0  0  0  0  0  0  0  0  0
   46.6680    5.4030   45.1300 H   0  0  0  0  0  0  0  0  0  0  0  0
   48.9060    5.4100   43.7370 H   0  0  0  0  0  0  0  0  0  0  0  0
   48.7540    4.3440   42.2940 H   0  0  0  0  0  0  0  0  0  0  0  0
   47.4820    2.2300   47.7430 H   0  0  0  0  0  0  0  0  0  0  0  0
   47.6820    2.8550   49.2660 H   0  0  0  0  0  0  0  0  0  0  0  0
   48.9700    2.0070   48.3990 H   0  0  0  0  0  0  0  0  0  0  0  0
   51.3440   -0.2180   45.1400 H   0  0  0  0  0  0  0  0  0  0  0  0
   51.4860   -1.0470   42.7550 H   0  0  0  0  0  0  0  0  0  0  0  0
   50.5350    0.2750   40.9300 H   0  0  0  0  0  0  0  0  0  0  0  0
   49.4230    2.4680   41.4600 H   0  0  0  0  0  0  0  0  0  0  0  0
   41.6020    7.4100   48.7670 H   0  0  0  0  0  0  0  0  0  0  0  0
   42.3130    8.9070   48.1280 H   0  0  0  0  0  0  0  0  0  0  0  0
   40.4580    9.9850   48.5370 H   0  0  0  0  0  0  0  0  0  0  0  0
   39.5380    8.9600   47.3700 H   0  0  0  0  0  0  0  0  0  0  0  0
   39.6850    8.5250   49.1500 H   0  0  0  0  0  0  0  0  0  0  0  0
  1  2  1  0  0  0  0
  2  3  1  0  0  0  0
  3 32  1  0  0  0  0
  3  4  2  0  0  0  0
  4 29  1  0  0  0  0
  5  4  1  0  0  0  0
  5 33  1  0  0  0  0
  6  5  2  0  0  0  0
  7  2  2  0  0  0  0
  7  6  1  0  0  0  0
  8  6  1  0  0  0  0
  9  8  1  0  0  0  0
 10  9  1  0  0  0  0
 10 36  1  0  0  0  0
 11 10  1  0  0  0  0
 12 11  2  0  0  0  0
 13 11  1  0  0  0  0
 13 37  1  0  0  0  0
 13 14  1  0  0  0  0
 14 18  1  0  0  0  0
 15 14  1  0  0  0  0
 15 16  1  0  0  0  0
 16 17  1  0  0  0  0
 18 17  2  0  0  0  0
 18 19  1  0  0  0  0
 19 20  2  0  0  0  0
 19 23  1  0  0  0  0
 20 21  1  0  0  0  0
 21 22  1  0  0  0  0
 23 24  1  0  0  0  0
 23 22  2  0  0  0  0
 24 40  1  0  0  0  0
 25 16  2  0  0  0  0
 25 42  1  0  0  0  0
 26 25  1  0  0  0  0
 27 28  1  0  0  0  0
 27 26  2  0  0  0  0
 28 15  2  0  0  0  0
 29 30  1  0  0  0  0
 30 47  1  0  0  0  0
 30 31  1  0  0  0  0
 30 46  1  0  0  0  0
 31 48  1  0  0  0  0
 31 50  1  0  0  0  0
 34  7  1  0  0  0  0
 35  8  1  0  0  0  0
 38 13  1  0  0  0  0
 39 24  1  0  0  0  0
 41 24  1  0  0  0  0
 43 26  1  0  0  0  0
 44 27  1  0  0  0  0
 45 28  1  0  0  0  0
 49 31  1  0  0  0  0
M  END
>  <Pose>
1

>  <Score>
-7.54

$$$$
