
 OpenBabel03172210433D

 47 50  0  0  1  0  0  0  0  0999 V2000
   42.9880   11.9320   44.6780 B   0  0  0  0  0  0  0  0  0  0  0  0
   42.4760   10.1560   44.1540 C   0  0  0  0  0  0  0  0  0  0  0  0
   43.0380    9.0690   44.7220 C   0  0  0  0  0  0  0  0  0  0  0  0
   42.6960    7.7570   44.2800 C   0  0  0  0  0  0  0  0  0  0  0  0
   41.8020    7.6470   43.2720 C   0  0  0  0  0  0  0  0  0  0  0  0
   41.2470    8.7740   42.6960 C   0  0  0  0  0  0  0  0  0  0  0  0
   41.5700   10.0250   43.1240 C   0  0  0  0  0  0  0  0  0  0  0  0
   43.6690    6.7320   44.7030 C   0  0  0  0  0  0  0  0  0  0  0  0
   44.9830    6.7120   44.2040 N   0  0  2  0  0  4  0  0  0  0  0  0
   46.0520    7.1780   44.9330 C   0  0  0  0  0  0  0  0  0  0  0  0
   47.3270    6.9290   44.2630 N   0  0  2  0  0  0  0  0  0  0  0  0
   47.2750    7.5860   42.9680 C   0  0  0  0  0  0  0  0  0  0  0  0
   46.1400    7.1500   42.1800 N   0  0  2  0  0  0  0  0  0  0  0  0
   44.9010    7.3160   42.8300 C   0  0  0  0  0  0  0  0  0  0  0  0
   46.3420    5.7580   41.8370 C   0  0  0  0  0  0  0  0  0  0  0  0
   46.4430    5.0120   43.1440 C   0  0  2  0  0  0  0  0  0  0  0  0
   45.1890    5.2530   43.9000 C   0  0  0  0  0  0  0  0  0  0  0  0
   47.5820    5.5310   44.0180 C   0  0  0  0  0  0  0  0  0  0  0  0
   43.9360    9.1850   45.7220 O   0  0  0  0  0  0  0  0  0  0  0  0
   43.5810    9.2260   47.1190 C   0  0  0  0  0  0  0  0  0  0  0  0
   43.4300   10.5420   47.7330 C   0  0  0  0  0  0  0  0  0  0  0  0
   42.3720   11.0310   48.1030 O   0  0  0  0  0  0  0  0  0  0  0  0
   44.5950   11.2880   47.9440 O   0  0  0  0  0  0  0  0  0  0  0  0
   44.8870   12.4670   47.2430 C   0  0  0  0  0  0  0  0  0  0  0  0
   41.5480    6.6660   42.8750 H   0  0  0  0  0  0  0  0  0  0  0  0
   40.5290    8.6320   41.8570 H   0  0  0  0  0  0  0  0  0  0  0  0
   41.1030   10.9020   42.7040 H   0  0  0  0  0  0  0  0  0  0  0  0
   43.2430    5.7840   45.0470 H   0  0  0  0  0  0  0  0  0  0  0  0
   43.9540    7.1440   45.8610 H   0  0  0  0  0  0  0  0  0  0  0  0
   46.0490    6.8120   45.9630 H   0  0  0  0  0  0  0  0  0  0  0  0
   45.9770    8.2960   44.9920 H   0  0  0  0  0  0  0  0  0  0  0  0
   48.1750    7.2600   42.4000 H   0  0  0  0  0  0  0  0  0  0  0  0
   47.3280    8.6800   43.0640 H   0  0  0  0  0  0  0  0  0  0  0  0
   44.6210    8.3740   42.8870 H   0  0  0  0  0  0  0  0  0  0  0  0
   44.1210    6.7010   42.3060 H   0  0  0  0  0  0  0  0  0  0  0  0
   45.3940    5.3970   41.3520 H   0  0  0  0  0  0  0  0  0  0  0  0
   47.2260    5.5850   41.2300 H   0  0  0  0  0  0  0  0  0  0  0  0
   46.5260    3.9100   43.0040 H   0  0  0  0  0  0  0  0  0  0  0  0
   44.2620    4.9280   43.3790 H   0  0  0  0  0  0  0  0  0  0  0  0
   45.2090    4.7880   44.9270 H   0  0  0  0  0  0  0  0  0  0  0  0
   48.4980    5.4330   43.4330 H   0  0  0  0  0  0  0  0  0  0  0  0
   47.5500    4.9400   44.9420 H   0  0  0  0  0  0  0  0  0  0  0  0
   44.2850    8.5290   47.6740 H   0  0  0  0  0  0  0  0  0  0  0  0
   42.5680    8.7140   47.2200 H   0  0  0  0  0  0  0  0  0  0  0  0
   45.6720   13.0520   47.7680 H   0  0  0  0  0  0  0  0  0  0  0  0
   43.9500   13.0540   47.1170 H   0  0  0  0  0  0  0  0  0  0  0  0
   45.2680   12.1320   46.2380 H   0  0  0  0  0  0  0  0  0  0  0  0
  2  1  1  0  0  0  0
  2  3  1  0  0  0  0
  3 19  1  0  0  0  0
  4  8  1  0  0  0  0
  4  3  2  0  0  0  0
  5  4  1  0  0  0  0
  6  7  1  0  0  0  0
  6  5  2  0  0  0  0
  7  2  2  0  0  0  0
  8 28  1  0  0  0  0
  8 29  1  0  0  0  0
  9  8  1  1  0  0  0
  9 10  1  0  0  0  0
 10 31  1  0  0  0  0
 10 30  1  0  0  0  0
 11 12  1  6  0  0  0
 11 10  1  0  0  0  0
 12 33  1  0  0  0  0
 13 15  1  1  0  0  0
 13 14  1  0  0  0  0
 13 12  1  0  0  0  0
 14 34  1  0  0  0  0
 14  9  1  0  0  0  0
 15 16  1  0  0  0  0
 16 38  1  6  0  0  0
 16 17  1  0  0  0  0
 16 18  1  0  0  0  0
 17  9  1  0  0  0  0
 17 40  1  0  0  0  0
 18 11  1  0  0  0  0
 18 42  1  0  0  0  0
 19 20  1  0  0  0  0
 20 44  1  0  0  0  0
 20 43  1  0  0  0  0
 20 21  1  0  0  0  0
 21 23  1  0  0  0  0
 21 22  2  0  0  0  0
 24 45  1  0  0  0  0
 24 23  1  0  0  0  0
 25  5  1  0  0  0  0
 26  6  1  0  0  0  0
 27  7  1  0  0  0  0
 32 12  1  0  0  0  0
 35 14  1  0  0  0  0
 36 15  1  0  0  0  0
 37 15  1  0  0  0  0
 39 17  1  0  0  0  0
 41 18  1  0  0  0  0
 46 24  1  0  0  0  0
 47 24  1  0  0  0  0
M  END
>  <Pose>
1

>  <Score>
-4.54

$$$$
