
 OpenBabel03172210433D

 52 55  0  0  0  0  0  0  0  0999 V2000
   42.7330   10.8180   42.9590 B   0  0  0  0  0  0  0  0  0  0  0  0
   42.1170    9.8250   44.4650 C   0  0  0  0  0  0  0  0  0  0  0  0
   40.8350   10.0080   44.9490 C   0  0  0  0  0  0  0  0  0  0  0  0
   40.4110    9.2730   46.0460 C   0  0  0  0  0  0  0  0  0  0  0  0
   41.2720    8.3760   46.6380 C   0  0  0  0  0  0  0  0  0  0  0  0
   42.5500    8.2220   46.1240 C   0  0  0  0  0  0  0  0  0  0  0  0
   42.9950    8.9360   45.0380 C   0  0  0  0  0  0  0  0  0  0  0  0
   44.3360    8.7470   44.5420 C   0  0  0  0  0  0  0  0  0  0  0  0
   44.6320    8.4660   43.3160 N   0  0  0  0  0  0  0  0  0  0  0  0
   45.9880    8.2990   42.9190 N   0  0  0  0  0  0  0  0  0  0  0  0
   46.7090    7.1220   43.2090 C   0  0  0  0  0  0  0  0  0  0  0  0
   46.6960    6.1130   42.3340 N   0  0  0  0  0  4  0  0  0  0  0  0
   47.3640    4.9500   42.5590 C   0  0  0  0  0  0  0  0  0  0  0  0
   48.0590    4.8140   43.6990 N   0  0  0  0  0  0  0  0  0  0  0  0
   48.0910    5.8090   44.5980 C   0  0  0  0  0  0  0  0  0  0  0  0
   47.4080    6.9620   44.3370 N   0  0  0  0  0  0  0  0  0  0  0  0
   48.8300    5.6730   45.8120 N   0  0  0  0  0  0  0  0  0  0  0  0
   49.5830    4.4920   46.1590 C   0  0  0  0  0  0  0  0  0  0  0  0
   49.3210    4.0890   47.5950 C   0  0  0  0  0  0  0  0  0  0  0  0
   48.4110    4.9250   48.2240 O   0  0  0  0  0  0  0  0  0  0  0  0
   48.8980    6.2460   48.1750 C   0  0  0  0  0  0  0  0  0  0  0  0
   48.8240    6.7730   46.7560 C   0  0  0  0  0  0  0  0  0  0  0  0
   47.2880    3.9500   41.5670 N   0  0  0  0  0  0  0  0  0  0  0  0
   46.7860    4.2880   40.2630 C   0  0  0  0  0  0  0  0  0  0  0  0
   47.9000    3.8810   39.2850 C   0  0  0  0  0  0  0  0  0  0  0  0
   48.0340    2.5000   39.4300 O   0  0  0  0  0  0  0  0  0  0  0  0
   48.5740    2.1530   40.6630 C   0  0  0  0  0  0  0  0  0  0  0  0
   47.6950    2.5890   41.8180 C   0  0  0  0  0  0  0  0  0  0  0  0
   40.8080    7.6640   47.7330 O   0  0  0  0  0  0  0  0  0  0  0  0
   39.9750   10.9110   44.3520 O   0  0  0  0  0  0  0  0  0  0  0  0
   39.4040    9.4290   46.4110 H   0  0  0  0  0  0  0  0  0  0  0  0
   43.1740    7.5000   46.6350 H   0  0  0  0  0  0  0  0  0  0  0  0
   45.1880    8.8400   45.2150 H   0  0  0  0  0  0  0  0  0  0  0  0
   46.4770    9.0560   42.3980 H   0  0  0  0  0  0  0  0  0  0  0  0
   50.6750    4.7740   46.0970 H   0  0  0  0  0  0  0  0  0  0  0  0
   49.3870    3.6360   45.4850 H   0  0  0  0  0  0  0  0  0  0  0  0
   50.2560    4.1090   48.2110 H   0  0  0  0  0  0  0  0  0  0  0  0
   48.8820    3.0540   47.6360 H   0  0  0  0  0  0  0  0  0  0  0  0
   48.2440    6.8450   48.8490 H   0  0  0  0  0  0  0  0  0  0  0  0
   49.9590    6.2930   48.5540 H   0  0  0  0  0  0  0  0  0  0  0  0
   49.7080    7.3940   46.5400 H   0  0  0  0  0  0  0  0  0  0  0  0
   47.8780    7.3780   46.6470 H   0  0  0  0  0  0  0  0  0  0  0  0
   46.5910    5.3790   40.1890 H   0  0  0  0  0  0  0  0  0  0  0  0
   45.8690    3.6860   40.0670 H   0  0  0  0  0  0  0  0  0  0  0  0
   47.6700    4.1220   38.2510 H   0  0  0  0  0  0  0  0  0  0  0  0
   48.8190    4.4080   39.6640 H   0  0  0  0  0  0  0  0  0  0  0  0
   49.6160    2.4880   40.7930 H   0  0  0  0  0  0  0  0  0  0  0  0
   48.5730    1.0360   40.6950 H   0  0  0  0  0  0  0  0  0  0  0  0
   46.7740    1.9480   41.8020 H   0  0  0  0  0  0  0  0  0  0  0  0
   48.2560    2.4750   42.7590 H   0  0  0  0  0  0  0  0  0  0  0  0
   40.6510    6.6650   47.7370 H   0  0  0  0  0  0  0  0  0  0  0  0
   39.5080   10.6340   43.4980 H   0  0  0  0  0  0  0  0  0  0  0  0
  1  2  1  0  0  0  0
  2  3  2  0  0  0  0
  2  7  1  0  0  0  0
  3  4  1  0  0  0  0
  4 31  1  0  0  0  0
  4  5  2  0  0  0  0
  5 29  1  0  0  0  0
  6 32  1  0  0  0  0
  6  5  1  0  0  0  0
  7  6  2  0  0  0  0
  8  7  1  0  0  0  0
  8 33  1  0  0  0  0
  9  8  2  0  0  0  0
 10 11  1  0  0  0  0
 10  9  1  0  0  0  0
 11 16  1  0  0  0  0
 12 13  2  0  0  0  0
 12 11  2  0  0  0  0
 13 14  1  0  0  0  0
 14 15  2  0  0  0  0
 15 17  1  0  0  0  0
 16 15  1  0  0  0  0
 17 18  1  0  0  0  0
 17 22  1  0  0  0  0
 18 19  1  0  0  0  0
 19 38  1  0  0  0  0
 19 37  1  0  0  0  0
 19 20  1  0  0  0  0
 21 20  1  0  0  0  0
 21 40  1  0  0  0  0
 21 39  1  0  0  0  0
 22 21  1  0  0  0  0
 23 28  1  0  0  0  0
 23 13  1  0  0  0  0
 24 23  1  0  0  0  0
 25 26  1  0  0  0  0
 25 46  1  0  0  0  0
 25 24  1  0  0  0  0
 26 27  1  0  0  0  0
 27 48  1  0  0  0  0
 27 47  1  0  0  0  0
 27 28  1  0  0  0  0
 28 50  1  0  0  0  0
 29 51  1  0  0  0  0
 30  3  1  0  0  0  0
 34 10  1  0  0  0  0
 35 18  1  0  0  0  0
 36 18  1  0  0  0  0
 41 22  1  0  0  0  0
 42 22  1  0  0  0  0
 43 24  1  0  0  0  0
 44 24  1  0  0  0  0
 45 25  1  0  0  0  0
 49 28  1  0  0  0  0
 52 30  1  0  0  0  0
M  END
>  <Pose>
1

>  <Score>
-6.14

$$$$
