
 OpenBabel03172210433D

 46 49  0  0  1  0  0  0  0  0999 V2000
   43.2180   16.2790   48.2730 B   0  0  0  0  0  0  0  0  0  0  0  0
   43.1080   14.8490   47.0180 C   0  0  0  0  0  0  0  0  0  0  0  0
   44.2730   14.4270   46.3890 C   0  0  0  0  0  0  0  0  0  0  0  0
   44.1690   13.3970   45.4940 C   0  0  0  0  0  0  0  0  0  0  0  0
   42.9970   12.7500   45.1700 C   0  0  0  0  0  0  0  0  0  0  0  0
   41.8490   13.2040   45.8230 C   0  0  0  0  0  0  0  0  0  0  0  0
   41.9020   14.2400   46.7350 C   0  0  0  0  0  0  0  0  0  0  0  0
   42.9070   11.6820   44.2350 N   0  0  0  0  0  0  0  0  0  0  0  0
   43.9280   10.6760   44.0590 C   0  0  0  0  0  0  0  0  0  0  0  0
   43.1080    9.4690   43.6610 C   0  0  1  0  0  0  0  0  0  0  0  0
   42.1640   10.0790   42.6390 C   0  0  0  0  0  0  0  0  0  0  0  0
   41.8770   11.3720   43.3140 C   0  0  0  0  0  0  0  0  0  0  0  0
   40.8680   12.0740   43.0910 O   0  0  0  0  0  0  0  0  0  0  0  0
   43.9400    8.3990   43.0730 C   0  0  0  0  0  0  0  0  0  0  0  0
   43.4250    7.4490   42.4350 O   0  0  0  0  0  0  0  0  0  0  0  0
   45.3400    8.4540   43.2360 N   0  0  0  0  0  0  0  0  0  0  0  0
   46.0570    7.3650   43.8530 C   0  0  0  0  0  0  0  0  0  0  0  0
   46.3170    6.2690   42.8780 C   0  0  0  0  0  0  0  0  0  0  0  0
   47.1050    5.1780   43.0440 N   0  0  0  0  0  0  0  0  0  0  0  0
   47.0720    4.4290   41.9290 C   0  0  0  0  0  0  0  0  0  0  0  0
   46.2440    5.0890   41.0800 N   0  0  0  0  0  0  0  0  0  0  0  0
   45.7920    6.1900   41.6440 N   0  0  0  0  0  0  0  0  0  0  0  0
   47.9340    3.2110   42.0790 C   0  0  0  0  0  0  0  0  0  0  0  0
   48.7660    3.5570   43.2930 C   0  0  0  0  0  0  0  0  0  0  0  0
   47.9640    4.5890   44.0560 C   0  0  0  0  0  0  0  0  0  0  0  0
   45.5580   15.1050   46.7150 C   0  0  0  0  0  0  0  0  0  0  0  0
   45.0980   13.0750   45.0080 H   0  0  0  0  0  0  0  0  0  0  0  0
   40.8770   12.7710   45.6470 H   0  0  0  0  0  0  0  0  0  0  0  0
   41.0250   14.6030   47.2490 H   0  0  0  0  0  0  0  0  0  0  0  0
   44.5920   11.0230   43.2320 H   0  0  0  0  0  0  0  0  0  0  0  0
   44.5100   10.4910   44.9850 H   0  0  0  0  0  0  0  0  0  0  0  0
   42.5400    9.1550   44.5530 H   0  0  0  0  0  0  0  0  0  0  0  0
   41.2700    9.4230   42.6120 H   0  0  0  0  0  0  0  0  0  0  0  0
   42.6410   10.2010   41.6660 H   0  0  0  0  0  0  0  0  0  0  0  0
   45.8710    9.2820   42.9120 H   0  0  0  0  0  0  0  0  0  0  0  0
   47.0170    7.6860   44.2960 H   0  0  0  0  0  0  0  0  0  0  0  0
   45.4590    6.9400   44.7060 H   0  0  0  0  0  0  0  0  0  0  0  0
   47.2950    2.3300   42.2350 H   0  0  0  0  0  0  0  0  0  0  0  0
   48.6430    3.1090   41.2310 H   0  0  0  0  0  0  0  0  0  0  0  0
   49.7750    3.9330   43.0170 H   0  0  0  0  0  0  0  0  0  0  0  0
   48.9220    2.6270   43.8660 H   0  0  0  0  0  0  0  0  0  0  0  0
   48.5980    5.3540   44.5330 H   0  0  0  0  0  0  0  0  0  0  0  0
   47.3980    4.0610   44.8510 H   0  0  0  0  0  0  0  0  0  0  0  0
   46.3600   14.7180   46.0600 H   0  0  0  0  0  0  0  0  0  0  0  0
   45.4580   16.2060   46.6670 H   0  0  0  0  0  0  0  0  0  0  0  0
   45.8250   14.7610   47.7490 H   0  0  0  0  0  0  0  0  0  0  0  0
  2  1  1  0  0  0  0
  3 26  1  0  0  0  0
  3  2  2  0  0  0  0
  4  3  1  0  0  0  0
  5  4  2  0  0  0  0
  5  6  1  0  0  0  0
  6  7  2  0  0  0  0
  7  2  1  0  0  0  0
  7 29  1  0  0  0  0
  8  5  1  0  0  0  0
  9  8  1  0  0  0  0
  9 31  1  0  0  0  0
 10  9  1  0  0  0  0
 10 32  1  1  0  0  0
 11 12  1  0  0  0  0
 11 10  1  0  0  0  0
 12  8  1  0  0  0  0
 13 12  2  0  0  0  0
 14 16  1  0  0  0  0
 14 10  1  0  0  0  0
 15 14  2  0  0  0  0
 16 17  1  0  0  0  0
 17 36  1  0  0  0  0
 17 37  1  0  0  0  0
 18 19  1  0  0  0  0
 18 17  1  0  0  0  0
 19 25  1  0  0  0  0
 20 23  1  0  0  0  0
 20 19  1  0  0  0  0
 21 22  1  0  0  0  0
 21 20  2  0  0  0  0
 22 18  2  0  0  0  0
 23 38  1  0  0  0  0
 23 24  1  0  0  0  0
 24 41  1  0  0  0  0
 24 25  1  0  0  0  0
 25 42  1  0  0  0  0
 25 43  1  0  0  0  0
 26 46  1  0  0  0  0
 27  4  1  0  0  0  0
 28  6  1  0  0  0  0
 30  9  1  0  0  0  0
 33 11  1  0  0  0  0
 34 11  1  0  0  0  0
 35 16  1  0  0  0  0
 39 23  1  0  0  0  0
 40 24  1  0  0  0  0
 44 26  1  0  0  0  0
 45 26  1  0  0  0  0
M  END
>  <Pose>
1

>  <Score>
-6.30

$$$$
