
 OpenBabel03172210433D

 41 43  0  0  1  0  0  0  0  0999 V2000
   45.5950    6.3760   42.0510 B   0  0  0  0  0  0  0  0  0  0  0  0
   46.9540    5.5680   43.1440 C   0  0  0  0  0  0  0  0  0  0  0  0
   47.2560    6.2310   44.3420 C   0  0  0  0  0  0  0  0  0  0  0  0
   48.2330    5.6300   45.1060 C   0  0  0  0  0  0  0  0  0  0  0  0
   48.8620    4.4500   44.7000 C   0  0  0  0  0  0  0  0  0  0  0  0
   48.5490    3.8180   43.5220 C   0  0  0  0  0  0  0  0  0  0  0  0
   47.5760    4.4080   42.7510 C   0  0  0  0  0  0  0  0  0  0  0  0
   49.2320    2.5560   43.1050 C   0  0  0  0  0  0  0  0  0  0  0  0
   46.5800    7.4230   44.6910 N   0  0  0  0  0  0  0  0  0  0  0  0
   45.2570    7.5830   45.1070 C   0  0  0  0  0  0  0  0  0  0  0  0
   44.9760    7.8320   46.2880 O   0  0  0  0  0  0  0  0  0  0  0  0
   44.1750    7.4520   44.1120 C   0  0  0  0  0  0  0  0  0  0  0  0
   43.4880    8.6550   43.7730 N   0  0  1  0  0  4  0  0  0  0  0  0
   42.5120    8.9240   44.8400 C   0  0  0  0  0  0  0  0  0  0  0  0
   42.2290   10.4060   44.8210 C   0  0  0  0  0  0  0  0  0  0  0  0
   42.1860   10.7890   43.4100 N   0  0  1  0  0  0  0  0  0  0  0  0
   43.5800   10.9400   43.0050 C   0  0  0  0  0  0  0  0  0  0  0  0
   44.3770    9.8070   43.6350 C   0  0  0  0  0  0  0  0  0  0  0  0
   41.6420    9.6860   42.6340 C   0  0  0  0  0  0  0  0  0  0  0  0
   42.7060    8.5790   42.5560 C   0  0  0  0  0  0  0  0  0  0  0  0
   48.5270    6.0800   46.0480 H   0  0  0  0  0  0  0  0  0  0  0  0
   49.6340    3.9870   45.3160 H   0  0  0  0  0  0  0  0  0  0  0  0
   47.3040    3.9340   41.8120 H   0  0  0  0  0  0  0  0  0  0  0  0
   49.1650    2.4090   42.0070 H   0  0  0  0  0  0  0  0  0  0  0  0
   48.8070    1.6770   43.5940 H   0  0  0  0  0  0  0  0  0  0  0  0
   50.3110    2.7070   43.3250 H   0  0  0  0  0  0  0  0  0  0  0  0
   47.1580    8.3140   44.6280 H   0  0  0  0  0  0  0  0  0  0  0  0
   43.3790    6.7390   44.4880 H   0  0  0  0  0  0  0  0  0  0  0  0
   44.5440    7.0180   43.1480 H   0  0  0  0  0  0  0  0  0  0  0  0
   41.6260    8.3050   44.6120 H   0  0  0  0  0  0  0  0  0  0  0  0
   42.9250    8.5860   45.8130 H   0  0  0  0  0  0  0  0  0  0  0  0
   43.0510   10.9150   45.3530 H   0  0  0  0  0  0  0  0  0  0  0  0
   41.2330   10.6340   45.2960 H   0  0  0  0  0  0  0  0  0  0  0  0
   43.9780   11.8840   43.4300 H   0  0  0  0  0  0  0  0  0  0  0  0
   43.6890   10.9210   41.8930 H   0  0  0  0  0  0  0  0  0  0  0  0
   45.1610    9.5450   42.9220 H   0  0  0  0  0  0  0  0  0  0  0  0
   44.7500   10.0530   44.6400 H   0  0  0  0  0  0  0  0  0  0  0  0
   40.7220    9.3490   43.1310 H   0  0  0  0  0  0  0  0  0  0  0  0
   41.3970   10.0530   41.6140 H   0  0  0  0  0  0  0  0  0  0  0  0
   43.3360    8.8320   41.6730 H   0  0  0  0  0  0  0  0  0  0  0  0
   42.1550    7.6390   42.4490 H   0  0  0  0  0  0  0  0  0  0  0  0
  1  2  1  0  0  0  0
  2  3  1  0  0  0  0
  3  9  1  0  0  0  0
  3  4  2  0  0  0  0
  4 21  1  0  0  0  0
  5  4  1  0  0  0  0
  5 22  1  0  0  0  0
  6  5  2  0  0  0  0
  7  2  2  0  0  0  0
  7  6  1  0  0  0  0
  8 26  1  0  0  0  0
  8  6  1  0  0  0  0
  8 25  1  0  0  0  0
  9 10  1  0  0  0  0
 10 11  2  0  0  0  0
 12 28  1  0  0  0  0
 12 10  1  0  0  0  0
 13 12  1  1  0  0  0
 13 14  1  0  0  0  0
 14 31  1  0  0  0  0
 15 14  1  0  0  0  0
 15 33  1  0  0  0  0
 15 32  1  0  0  0  0
 16 19  1  6  0  0  0
 16 15  1  0  0  0  0
 17 16  1  0  0  0  0
 17 34  1  0  0  0  0
 17 18  1  0  0  0  0
 18 13  1  0  0  0  0
 18 37  1  0  0  0  0
 19 38  1  0  0  0  0
 20 19  1  0  0  0  0
 20 13  1  0  0  0  0
 23  7  1  0  0  0  0
 24  8  1  0  0  0  0
 27  9  1  0  0  0  0
 29 12  1  0  0  0  0
 30 14  1  0  0  0  0
 35 17  1  0  0  0  0
 36 18  1  0  0  0  0
 39 19  1  0  0  0  0
 40 20  1  0  0  0  0
 41 20  1  0  0  0  0
M  END
>  <Pose>
1

>  <Score>
-4.88

$$$$
