
 OpenBabel03172210433D

 33 36  0  0  1  0  0  0  0  0999 V2000
   41.6170    8.6700   42.7460 B   0  0  0  0  0  0  0  0  0  0  0  0
   42.4520   10.1030   43.6920 C   0  0  0  0  0  0  0  0  0  0  0  0
   41.8410   10.7200   44.7540 C   0  0  0  0  0  0  0  0  0  0  0  0
   42.4700   11.7540   45.4070 C   0  0  0  0  0  0  0  0  0  0  0  0
   43.7260   12.1990   45.0200 C   0  0  0  0  0  0  0  0  0  0  0  0
   44.3560   11.5950   43.9590 C   0  0  0  0  0  0  0  0  0  0  0  0
   43.7090   10.5440   43.3000 C   0  0  0  0  0  0  0  0  0  0  0  0
   40.5000   10.3070   45.2440 C   0  0  1  0  0  0  0  0  0  0  0  0
   39.9310   11.0750   46.2620 C   0  0  1  0  0  0  0  0  0  0  0  0
   39.3620   12.4410   46.4190 C   0  0  0  0  0  0  0  0  0  0  0  0
   37.9590   12.0030   46.2090 N   0  0  0  0  0  0  0  0  0  0  0  0
   37.9580   11.1130   45.2670 C   0  0  2  0  0  0  0  0  0  0  0  0
   39.3120   10.9510   44.8360 C   0  0  2  0  0  0  0  0  0  0  0  0
   39.6060   12.0470   43.8650 C   0  0  0  0  0  0  0  0  0  0  0  0
   39.8600   12.9220   43.1100 N   0  0  0  0  0  0  0  0  0  0  0  0
   36.7950   10.4230   44.7590 N   0  0  0  0  0  0  0  0  0  0  0  0
   39.5230   12.8280   47.7540 O   0  0  0  0  0  0  0  0  0  0  0  0
   40.0990   14.0840   47.7440 C   0  0  0  0  0  0  0  0  0  0  0  0
   39.6750   14.6230   46.3880 C   0  0  0  0  0  0  0  0  0  0  0  0
   39.7830   13.4320   45.6280 O   0  0  0  0  0  0  0  0  0  0  0  0
   39.2670   10.2260   47.3150 C   0  0  0  0  0  0  0  0  0  0  0  0
   38.7270    9.5640   48.1310 N   0  0  0  0  0  0  0  0  0  0  0  0
   42.0280   12.2850   46.2640 H   0  0  0  0  0  0  0  0  0  0  0  0
   44.2320   13.0040   45.5200 H   0  0  0  0  0  0  0  0  0  0  0  0
   45.3180   11.9210   43.6510 H   0  0  0  0  0  0  0  0  0  0  0  0
   44.1690   10.0350   42.4560 H   0  0  0  0  0  0  0  0  0  0  0  0
   40.4600    9.1810   45.2710 H   0  0  0  0  0  0  0  0  0  0  0  0
   36.1190    9.9670   45.4010 H   0  0  0  0  0  0  0  0  0  0  0  0
   36.6130   10.3710   43.7400 H   0  0  0  0  0  0  0  0  0  0  0  0
   41.2040   13.9670   47.7640 H   0  0  0  0  0  0  0  0  0  0  0  0
   39.7400   14.7220   48.5790 H   0  0  0  0  0  0  0  0  0  0  0  0
   38.6170   14.9600   46.4260 H   0  0  0  0  0  0  0  0  0  0  0  0
   40.3420   15.4090   46.0080 H   0  0  0  0  0  0  0  0  0  0  0  0
  1  2  1  0  0  0  0
  2  3  1  0  0  0  0
  3  8  1  0  0  0  0
  3  4  2  0  0  0  0
  4 23  1  0  0  0  0
  5  4  1  0  0  0  0
  5 24  1  0  0  0  0
  6  5  2  0  0  0  0
  7  2  2  0  0  0  0
  7  6  1  0  0  0  0
  8 27  1  1  0  0  0
  8  9  1  0  0  0  0
  9 10  1  0  0  0  0
  9 21  1  1  0  0  0
 10 17  1  0  0  0  0
 11 10  1  0  0  0  0
 12 16  1  6  0  0  0
 12 11  1  0  0  0  0
 13 14  1  6  0  0  0
 13  8  1  0  0  0  0
 13 12  1  0  0  0  0
 13  9  1  0  0  0  0
 15 14  3  0  0  0  0
 16 28  1  0  0  0  0
 18 17  1  0  0  0  0
 18 30  1  0  0  0  0
 18 31  1  0  0  0  0
 19 32  1  0  0  0  0
 19 18  1  0  0  0  0
 20 19  1  0  0  0  0
 20 10  1  0  0  0  0
 21 22  3  0  0  0  0
 25  6  1  0  0  0  0
 26  7  1  0  0  0  0
 29 16  1  0  0  0  0
 33 19  1  0  0  0  0
M  END
>  <Pose>
1

>  <Score>
-4.19

$$$$
