
 OpenBabel03172210433D

 33 36  0  0  1  0  0  0  0  0999 V2000
   41.7820    7.9910   46.5430 B   0  0  0  0  0  0  0  0  0  0  0  0
   42.6250    9.5580   45.8030 C   0  0  0  0  0  0  0  0  0  0  0  0
   43.5520    9.3550   44.8060 C   0  0  0  0  0  0  0  0  0  0  0  0
   44.1430   10.5030   44.2880 C   0  0  0  0  0  0  0  0  0  0  0  0
   43.8240   11.7680   44.7420 C   0  0  0  0  0  0  0  0  0  0  0  0
   42.8830   11.9350   45.7510 C   0  0  0  0  0  0  0  0  0  0  0  0
   42.2960   10.8110   46.2680 C   0  0  0  0  0  0  0  0  0  0  0  0
   43.9090    8.0740   44.3070 N   0  0  0  0  0  0  0  0  0  0  0  0
   44.8310    7.1330   44.8310 C   0  0  0  0  0  0  0  0  0  0  0  0
   45.4150    7.2570   45.9220 O   0  0  0  0  0  0  0  0  0  0  0  0
   45.0050    5.9860   43.9100 C   0  0  2  0  0  0  0  0  0  0  0  0
   46.3800    5.8850   43.3490 C   0  0  1  0  0  0  0  0  0  0  0  0
   46.2070    5.8110   41.9420 O   0  0  0  0  0  0  0  0  0  0  0  0
   45.3880    6.9650   41.8260 C   0  0  1  0  0  0  0  0  0  0  0  0
   44.2180    6.4460   42.6700 C   0  0  2  0  0  0  0  0  0  0  0  0
   43.3380    7.5390   43.1080 C   0  0  0  0  0  0  0  0  0  0  0  0
   42.2880    7.9510   42.5700 O   0  0  0  0  0  0  0  0  0  0  0  0
   46.2050    7.9520   42.5640 C   0  0  0  0  0  0  0  0  0  0  0  0
   46.9730    7.2570   43.4020 C   0  0  0  0  0  0  0  0  0  0  0  0
   47.2560    4.8280   43.8760 C   0  0  0  0  0  0  0  0  0  0  0  0
   46.5170    3.6300   43.9210 O   0  0  0  0  0  0  0  0  0  0  0  0
   44.8770   10.3680   43.5000 H   0  0  0  0  0  0  0  0  0  0  0  0
   44.3020   12.6620   44.3210 H   0  0  0  0  0  0  0  0  0  0  0  0
   42.6550   12.9420   46.0840 H   0  0  0  0  0  0  0  0  0  0  0  0
   41.5640   10.9120   47.0490 H   0  0  0  0  0  0  0  0  0  0  0  0
   44.6050    5.0460   44.3070 H   0  0  0  0  0  0  0  0  0  0  0  0
   45.1320    7.2210   40.8180 H   0  0  0  0  0  0  0  0  0  0  0  0
   43.7350    5.6210   42.1520 H   0  0  0  0  0  0  0  0  0  0  0  0
   46.2430    9.0450   42.5040 H   0  0  0  0  0  0  0  0  0  0  0  0
   47.8200    7.5840   43.9870 H   0  0  0  0  0  0  0  0  0  0  0  0
   47.5470    5.0170   44.9440 H   0  0  0  0  0  0  0  0  0  0  0  0
   48.1830    4.7090   43.3030 H   0  0  0  0  0  0  0  0  0  0  0  0
   46.6420    3.1980   44.8150 H   0  0  0  0  0  0  0  0  0  0  0  0
  2  7  1  0  0  0  0
  2  1  1  0  0  0  0
  3  2  2  0  0  0  0
  4  5  2  0  0  0  0
  4  3  1  0  0  0  0
  5  6  1  0  0  0  0
  6 24  1  0  0  0  0
  6  7  2  0  0  0  0
  7 25  1  0  0  0  0
  8  3  1  0  0  0  0
  8  9  1  0  0  0  0
  9 10  2  0  0  0  0
 11 26  1  1  0  0  0
 11  9  1  0  0  0  0
 12 19  1  0  0  0  0
 12 20  1  1  0  0  0
 12 11  1  0  0  0  0
 13 12  1  0  0  0  0
 14 27  1  6  0  0  0
 14 13  1  0  0  0  0
 14 18  1  0  0  0  0
 14 15  1  0  0  0  0
 15 28  1  6  0  0  0
 15 16  1  0  0  0  0
 15 11  1  0  0  0  0
 16  8  1  0  0  0  0
 17 16  2  0  0  0  0
 18 19  2  0  0  0  0
 19 30  1  0  0  0  0
 20 21  1  0  0  0  0
 20 31  1  0  0  0  0
 21 33  1  0  0  0  0
 22  4  1  0  0  0  0
 23  5  1  0  0  0  0
 29 18  1  0  0  0  0
 32 20  1  0  0  0  0
M  END
>  <Pose>
1

>  <Score>
-4.32

$$$$
