
 OpenBabel03172210433D

 36 39  0  0  1  0  0  0  0  0999 V2000
   43.7430   10.6930   43.4770 B   0  0  0  0  0  0  0  0  0  0  0  0
   43.8850    8.8290   43.7190 C   0  0  0  0  0  0  0  0  0  0  0  0
   42.9120    8.1050   44.3870 C   0  0  0  0  0  0  0  0  0  0  0  0
   43.1500    6.7400   44.4920 C   0  0  0  0  0  0  0  0  0  0  0  0
   44.2620    6.1220   43.9780 C   0  0  0  0  0  0  0  0  0  0  0  0
   45.2060    6.8510   43.3270 C   0  0  0  0  0  0  0  0  0  0  0  0
   45.0180    8.2010   43.1970 C   0  0  0  0  0  0  0  0  0  0  0  0
   41.7490    8.7100   44.9310 N   0  0  0  0  0  0  0  0  0  0  0  0
   40.8200    9.6310   44.2480 C   0  0  0  0  0  0  0  0  0  0  0  0
   40.2890   10.3960   45.3680 C   0  0  2  0  0  0  0  0  0  0  0  0
   41.0550   11.5000   45.7800 O   0  0  0  0  0  0  0  0  0  0  0  0
   40.2940   11.7760   46.9470 C   0  0  2  0  0  0  0  0  0  0  0  0
   40.5810   10.4610   47.6850 C   0  0  1  0  0  0  0  0  0  0  0  0
   40.2610    9.4780   46.6020 C   0  0  2  0  0  0  0  0  0  0  0  0
   41.2950    8.5140   46.2650 C   0  0  0  0  0  0  0  0  0  0  0  0
   41.7400    7.6280   47.0230 O   0  0  0  0  0  0  0  0  0  0  0  0
   42.0550   10.4830   47.9480 C   0  0  0  0  0  0  0  0  0  0  0  0
   42.5380   10.3860   49.0850 O   0  0  0  0  0  0  0  0  0  0  0  0
   42.9160   10.6190   46.8660 O   0  0  0  0  0  0  0  0  0  0  0  0
   43.9100   11.6500   46.9080 C   0  0  0  0  0  0  0  0  0  0  0  0
   38.9170   11.8040   46.3740 C   0  0  0  0  0  0  0  0  0  0  0  0
   38.9670   11.0070   45.2830 C   0  0  0  0  0  0  0  0  0  0  0  0
   42.4370    6.1050   44.9980 H   0  0  0  0  0  0  0  0  0  0  0  0
   44.4060    5.0540   44.0840 H   0  0  0  0  0  0  0  0  0  0  0  0
   46.0950    6.3750   42.9140 H   0  0  0  0  0  0  0  0  0  0  0  0
   45.7710    8.7760   42.6780 H   0  0  0  0  0  0  0  0  0  0  0  0
   41.4470   10.2670   43.5930 H   0  0  0  0  0  0  0  0  0  0  0  0
   40.0670    9.1020   43.6540 H   0  0  0  0  0  0  0  0  0  0  0  0
   40.6000   12.6530   47.4720 H   0  0  0  0  0  0  0  0  0  0  0  0
   39.9960   10.3610   48.5920 H   0  0  0  0  0  0  0  0  0  0  0  0
   39.2580    9.0180   46.7140 H   0  0  0  0  0  0  0  0  0  0  0  0
   44.6050   11.5620   46.0590 H   0  0  0  0  0  0  0  0  0  0  0  0
   44.4930   11.6140   47.8500 H   0  0  0  0  0  0  0  0  0  0  0  0
   43.4180   12.6510   46.8080 H   0  0  0  0  0  0  0  0  0  0  0  0
   38.0690   12.3550   46.7680 H   0  0  0  0  0  0  0  0  0  0  0  0
   38.1770   10.8950   44.5570 H   0  0  0  0  0  0  0  0  0  0  0  0
  1  2  1  0  0  0  0
  2  3  1  0  0  0  0
  3  4  2  0  0  0  0
  3  8  1  0  0  0  0
  4 23  1  0  0  0  0
  5 24  1  0  0  0  0
  5  4  1  0  0  0  0
  6  5  2  0  0  0  0
  7  6  1  0  0  0  0
  7  2  2  0  0  0  0
  8 15  1  0  0  0  0
  9  8  1  0  0  0  0
  9 10  1  0  0  0  0
 10 22  1  6  0  0  0
 10 11  1  0  0  0  0
 10 14  1  0  0  0  0
 11 12  1  0  0  0  0
 12 29  1  1  0  0  0
 12 13  1  0  0  0  0
 13 17  1  0  0  0  0
 13 30  1  1  0  0  0
 14 31  1  1  0  0  0
 14 13  1  0  0  0  0
 15 14  1  0  0  0  0
 15 16  2  0  0  0  0
 17 18  2  0  0  0  0
 19 20  1  0  0  0  0
 19 17  1  0  0  0  0
 20 33  1  0  0  0  0
 21 35  1  0  0  0  0
 21 12  1  0  0  0  0
 22 21  2  0  0  0  0
 25  6  1  0  0  0  0
 26  7  1  0  0  0  0
 27  9  1  0  0  0  0
 28  9  1  0  0  0  0
 32 20  1  0  0  0  0
 34 20  1  0  0  0  0
 36 22  1  0  0  0  0
M  END
>  <Pose>
1

>  <Score>
-3.54

$$$$
