
 OpenBabel03172210433D

 35 38  0  0  0  0  0  0  0  0999 V2000
   40.7630   10.0210   45.9150 B   0  0  0  0  0  0  0  0  0  0  0  0
   41.9430    8.8020   45.0620 C   0  0  0  0  0  0  0  0  0  0  0  0
   42.6720    9.0270   43.9230 C   0  0  0  0  0  0  0  0  0  0  0  0
   43.3610    7.9030   43.6840 N   0  0  0  0  0  0  0  0  0  0  0  0
   43.0860    7.0140   44.6180 N   0  0  0  0  0  0  0  0  0  0  0  0
   42.2030    7.5310   45.5030 C   0  0  0  0  0  0  0  0  0  0  0  0
   41.6370    6.8340   46.7140 C   0  0  0  0  0  0  0  0  0  0  0  0
   44.2610    7.7140   42.5700 C   0  0  0  0  0  0  0  0  0  0  0  0
   45.4230    6.8370   42.9470 C   0  0  0  0  0  0  0  0  0  0  0  0
   46.2530    6.9890   43.9950 N   0  0  0  0  0  0  0  0  0  0  0  0
   47.1580    6.0080   43.9900 N   0  0  0  0  0  0  0  0  0  0  0  0
   46.9250    5.2040   42.9320 C   0  0  0  0  0  0  0  0  0  0  0  0
   45.8560    5.7340   42.3100 N   0  0  0  0  0  0  0  0  0  0  0  0
   47.7430    4.1110   42.7230 C   0  0  0  0  0  0  0  0  0  0  0  0
   48.7990    3.8090   43.5590 C   0  0  0  0  0  0  0  0  0  0  0  0
   49.4290    2.6980   43.1270 N   0  0  0  0  0  0  0  0  0  0  0  0
   48.8010    2.2910   42.0410 N   0  0  0  0  0  0  0  0  0  0  0  0
   47.7600    3.1280   41.7550 C   0  0  0  0  0  0  0  0  0  0  0  0
   50.5840    2.0370   43.7110 C   0  0  0  0  0  0  0  0  0  0  0  0
   48.9970    4.6350   44.6020 N   0  0  0  0  0  0  0  0  0  0  0  0
   48.1880    5.7090   44.8020 C   0  0  0  0  0  0  0  0  0  0  0  0
   42.6660   10.3000   43.1330 C   0  0  0  0  0  0  0  0  0  0  0  0
   40.5430    6.9190   46.6550 H   0  0  0  0  0  0  0  0  0  0  0  0
   41.9770    7.2990   47.6440 H   0  0  0  0  0  0  0  0  0  0  0  0
   41.8860    5.7550   46.6450 H   0  0  0  0  0  0  0  0  0  0  0  0
   44.6410    8.7100   42.2100 H   0  0  0  0  0  0  0  0  0  0  0  0
   43.7490    7.2470   41.7130 H   0  0  0  0  0  0  0  0  0  0  0  0
   47.0740    3.0520   40.9380 H   0  0  0  0  0  0  0  0  0  0  0  0
   50.2890    1.1980   44.3840 H   0  0  0  0  0  0  0  0  0  0  0  0
   51.3210    1.7240   42.9490 H   0  0  0  0  0  0  0  0  0  0  0  0
   51.1350    2.7650   44.3720 H   0  0  0  0  0  0  0  0  0  0  0  0
   48.3500    6.3810   45.6510 H   0  0  0  0  0  0  0  0  0  0  0  0
   43.5470   10.8730   43.4400 H   0  0  0  0  0  0  0  0  0  0  0  0
   41.7480   10.8780   43.3550 H   0  0  0  0  0  0  0  0  0  0  0  0
   42.6320   10.0940   42.0330 H   0  0  0  0  0  0  0  0  0  0  0  0
  2  6  1  0  0  0  0
  2  1  1  0  0  0  0
  3  2  2  0  0  0  0
  4  3  1  0  0  0  0
  4  5  1  0  0  0  0
  5  6  2  0  0  0  0
  6  7  1  0  0  0  0
  7 24  1  0  0  0  0
  8  9  1  0  0  0  0
  8  4  1  0  0  0  0
  9 10  2  0  0  0  0
 11 10  1  0  0  0  0
 11 21  1  0  0  0  0
 12 11  1  0  0  0  0
 13 12  2  0  0  0  0
 13  9  1  0  0  0  0
 14 12  1  0  0  0  0
 14 15  2  0  0  0  0
 15 20  1  0  0  0  0
 16 15  1  0  0  0  0
 16 19  1  0  0  0  0
 17 16  1  0  0  0  0
 18 17  2  0  0  0  0
 18 14  1  0  0  0  0
 19 31  1  0  0  0  0
 19 29  1  0  0  0  0
 20 21  2  0  0  0  0
 21 32  1  0  0  0  0
 22 34  1  0  0  0  0
 22 33  1  0  0  0  0
 22  3  1  0  0  0  0
 23  7  1  0  0  0  0
 25  7  1  0  0  0  0
 26  8  1  0  0  0  0
 27  8  1  0  0  0  0
 28 18  1  0  0  0  0
 30 19  1  0  0  0  0
 35 22  1  0  0  0  0
M  END
>  <Pose>
1

>  <Score>
-5.94

$$$$
