
 OpenBabel03172210433D

 48 51  0  0  0  0  0  0  0  0999 V2000
   45.5340    9.9360   48.9850 B   0  0  0  0  0  0  0  0  0  0  0  0
   47.2950    9.2380   48.7870 C   0  0  0  0  0  0  0  0  0  0  0  0
   47.5970    8.0100   48.2740 C   0  0  0  0  0  0  0  0  0  0  0  0
   48.8800    7.5270   48.1410 C   0  0  0  0  0  0  0  0  0  0  0  0
   49.9170    8.3640   48.5630 C   0  0  0  0  0  0  0  0  0  0  0  0
   49.6750    9.6050   49.0850 C   0  0  0  0  0  0  0  0  0  0  0  0
   48.3590   10.0380   49.1950 C   0  0  0  0  0  0  0  0  0  0  0  0
   51.2140    7.9060   48.4350 O   0  0  0  0  0  0  0  0  0  0  0  0
   52.2810    8.6320   48.9880 C   0  0  0  0  0  0  0  0  0  0  0  0
   49.1780    6.2210   47.5780 C   0  0  0  0  0  0  0  0  0  0  0  0
   48.8210    5.7860   46.4010 C   0  0  0  0  0  0  0  0  0  0  0  0
   48.0880    6.5200   45.4820 O   0  0  0  0  0  0  0  0  0  0  0  0
   47.8550    5.8070   44.3210 C   0  0  0  0  0  0  0  0  0  0  0  0
   48.4200    4.5540   44.4020 C   0  0  0  0  0  0  0  0  0  0  0  0
   48.3050    3.6730   43.3470 C   0  0  0  0  0  0  0  0  0  0  0  0
   47.6200    4.0580   42.2140 C   0  0  0  0  0  0  0  0  0  0  0  0
   47.0500    5.3450   42.1570 C   0  0  0  0  0  0  0  0  0  0  0  0
   47.1510    6.2320   43.1850 C   0  0  0  0  0  0  0  0  0  0  0  0
   46.6080    7.5620   43.1750 C   0  0  0  0  0  0  0  0  0  0  0  0
   45.7090    8.0270   44.1490 N   0  0  0  0  0  4  0  0  0  0  0  0
   44.7480    8.9990   43.7020 C   0  0  0  0  0  0  0  0  0  0  0  0
   43.5430    8.4040   43.0170 C   0  0  0  0  0  0  0  0  0  0  0  0
   43.6320    7.0310   42.8290 O   0  0  0  0  0  0  0  0  0  0  0  0
   43.7810    6.4720   44.0930 C   0  0  0  0  0  0  0  0  0  0  0  0
   44.9980    6.9280   44.8280 C   0  0  0  0  0  0  0  0  0  0  0  0
   46.3830    5.5960   40.9470 O   0  0  0  0  0  0  0  0  0  0  0  0
   49.0510    4.5060   45.7250 C   0  0  0  0  0  0  0  0  0  0  0  0
   49.6820    3.5410   46.2100 O   0  0  0  0  0  0  0  0  0  0  0  0
   46.7580    7.3840   47.9540 H   0  0  0  0  0  0  0  0  0  0  0  0
   50.4510   10.2960   49.4320 H   0  0  0  0  0  0  0  0  0  0  0  0
   48.1510   11.0340   49.6130 H   0  0  0  0  0  0  0  0  0  0  0  0
   53.2420    8.3700   48.4470 H   0  0  0  0  0  0  0  0  0  0  0  0
   52.4320    8.3120   50.0510 H   0  0  0  0  0  0  0  0  0  0  0  0
   52.1820    9.7310   48.8720 H   0  0  0  0  0  0  0  0  0  0  0  0
   49.7600    5.5190   48.1960 H   0  0  0  0  0  0  0  0  0  0  0  0
   48.7580    2.6860   43.4210 H   0  0  0  0  0  0  0  0  0  0  0  0
   47.4970    3.4140   41.3590 H   0  0  0  0  0  0  0  0  0  0  0  0
   47.4330    8.3590   43.1200 H   0  0  0  0  0  0  0  0  0  0  0  0
   46.0860    7.7790   42.1650 H   0  0  0  0  0  0  0  0  0  0  0  0
   46.2450    8.4580   44.9300 H   0  0  0  0  0  0  0  0  0  0  0  0
   44.3570    9.4910   44.6430 H   0  0  0  0  0  0  0  0  0  0  0  0
   45.2120    9.7920   43.1170 H   0  0  0  0  0  0  0  0  0  0  0  0
   42.5890    8.5750   43.5940 H   0  0  0  0  0  0  0  0  0  0  0  0
   43.3760    8.9170   42.0490 H   0  0  0  0  0  0  0  0  0  0  0  0
   43.9100    5.3610   43.9260 H   0  0  0  0  0  0  0  0  0  0  0  0
   42.8270    6.6030   44.6800 H   0  0  0  0  0  0  0  0  0  0  0  0
   45.7220    6.1120   45.0300 H   0  0  0  0  0  0  0  0  0  0  0  0
   44.6730    7.2840   45.8280 H   0  0  0  0  0  0  0  0  0  0  0  0
  2  1  1  0  0  0  0
  2  7  1  0  0  0  0
  3  2  2  0  0  0  0
  4  3  1  0  0  0  0
  4  5  2  0  0  0  0
  5  6  1  0  0  0  0
  6  7  2  0  0  0  0
  6 30  1  0  0  0  0
  7 31  1  0  0  0  0
  8  5  1  0  0  0  0
  8  9  1  0  0  0  0
  9 33  1  0  0  0  0
 10  4  1  0  0  0  0
 10 35  1  0  0  0  0
 11 10  2  0  0  0  0
 12 11  1  0  0  0  0
 13 14  1  0  0  0  0
 13 12  1  0  0  0  0
 14 27  1  0  0  0  0
 15 36  1  0  0  0  0
 15 14  2  0  0  0  0
 16 15  1  0  0  0  0
 17 16  2  0  0  0  0
 17 18  1  0  0  0  0
 18 13  2  0  0  0  0
 19 18  1  0  0  0  0
 19 20  1  0  0  0  0
 20 25  1  0  0  0  0
 20 40  1  0  0  0  0
 21 20  1  0  0  0  0
 21 41  1  0  0  0  0
 22 43  1  0  0  0  0
 22 21  1  0  0  0  0
 23 22  1  0  0  0  0
 23 24  1  0  0  0  0
 24 46  1  0  0  0  0
 24 25  1  0  0  0  0
 25 47  1  0  0  0  0
 25 48  1  0  0  0  0
 26 17  1  0  0  0  0
 27 28  2  0  0  0  0
 27 11  1  0  0  0  0
 29  3  1  0  0  0  0
 32  9  1  0  0  0  0
 34  9  1  0  0  0  0
 37 16  1  0  0  0  0
 38 19  1  0  0  0  0
 39 19  1  0  0  0  0
 42 21  1  0  0  0  0
 44 22  1  0  0  0  0
 45 24  1  0  0  0  0
M  END
>  <Pose>
1

>  <Score>
-6.08

$$$$
