
 OpenBabel03172210433D

 54 57  0  0  0  0  0  0  0  0999 V2000
   38.5620   16.3100   47.9760 B   0  0  0  0  0  0  0  0  0  0  0  0
   37.6950   15.0170   46.8760 C   0  0  0  0  0  0  0  0  0  0  0  0
   38.4130   14.0250   46.2460 C   0  0  0  0  0  0  0  0  0  0  0  0
   37.7880   13.0920   45.4540 C   0  0  0  0  0  0  0  0  0  0  0  0
   36.4200   13.1770   45.3080 C   0  0  0  0  0  0  0  0  0  0  0  0
   35.6810   14.1780   45.9410 C   0  0  0  0  0  0  0  0  0  0  0  0
   36.3160   15.1160   46.7390 C   0  0  0  0  0  0  0  0  0  0  0  0
   35.8140   12.2210   44.5010 O   0  0  0  0  0  0  0  0  0  0  0  0
   35.3950   10.9580   44.9610 C   0  0  0  0  0  0  0  0  0  0  0  0
   38.5370   12.0370   44.7820 C   0  0  0  0  0  0  0  0  0  0  0  0
   39.1550   11.1080   45.4080 N   0  0  0  0  0  0  0  0  0  0  0  0
   39.8760   10.0910   44.7800 N   0  0  0  0  0  0  0  0  0  0  0  0
   41.2970   10.0280   44.8040 C   0  0  0  0  0  0  0  0  0  0  0  0
   42.0000    9.0110   44.2600 N   0  0  0  0  0  4  0  0  0  0  0  0
   43.3370    8.9810   44.3000 C   0  0  0  0  0  0  0  0  0  0  0  0
   43.9810    9.9950   44.8990 N   0  0  0  0  0  0  0  0  0  0  0  0
   43.3380   11.0490   45.4680 C   0  0  0  0  0  0  0  0  0  0  0  0
   41.9790   11.0130   45.3890 N   0  0  0  0  0  0  0  0  0  0  0  0
   44.0190   12.1090   46.0940 N   0  0  0  0  0  0  0  0  0  0  0  0
   44.6610   11.9360   47.3640 C   0  0  0  0  0  0  0  0  0  0  0  0
   44.1330   13.0360   48.2830 C   0  0  0  0  0  0  0  0  0  0  0  0
   44.3860   14.2430   47.6560 O   0  0  0  0  0  0  0  0  0  0  0  0
   43.6470   14.4200   46.5110 C   0  0  0  0  0  0  0  0  0  0  0  0
   44.0800   13.3940   45.4630 C   0  0  0  0  0  0  0  0  0  0  0  0
   44.0760    7.9120   43.7260 N   0  0  0  0  0  0  0  0  0  0  0  0
   43.6710    6.5300   43.8600 C   0  0  0  0  0  0  0  0  0  0  0  0
   44.8650    5.6310   44.1420 C   0  0  0  0  0  0  0  0  0  0  0  0
   45.9320    5.9530   43.2960 O   0  0  0  0  0  0  0  0  0  0  0  0
   46.3590    7.2460   43.4840 C   0  0  0  0  0  0  0  0  0  0  0  0
   45.2830    8.1800   42.9750 C   0  0  0  0  0  0  0  0  0  0  0  0
   39.5010   13.9430   46.3520 H   0  0  0  0  0  0  0  0  0  0  0  0
   34.5970   14.2280   45.8120 H   0  0  0  0  0  0  0  0  0  0  0  0
   35.7260   15.8780   47.2190 H   0  0  0  0  0  0  0  0  0  0  0  0
   36.2570   10.2580   44.8160 H   0  0  0  0  0  0  0  0  0  0  0  0
   35.0190   10.9690   45.9960 H   0  0  0  0  0  0  0  0  0  0  0  0
   34.5820   10.5900   44.2960 H   0  0  0  0  0  0  0  0  0  0  0  0
   38.5830   12.0200   43.7020 H   0  0  0  0  0  0  0  0  0  0  0  0
   39.3080    9.3560   44.2770 H   0  0  0  0  0  0  0  0  0  0  0  0
   44.4560   10.9230   47.7980 H   0  0  0  0  0  0  0  0  0  0  0  0
   45.7560   12.1060   47.2500 H   0  0  0  0  0  0  0  0  0  0  0  0
   44.7530   12.9820   49.2000 H   0  0  0  0  0  0  0  0  0  0  0  0
   43.0800   12.8770   48.5280 H   0  0  0  0  0  0  0  0  0  0  0  0
   42.5580   14.2420   46.6810 H   0  0  0  0  0  0  0  0  0  0  0  0
   43.8290   15.4250   46.1160 H   0  0  0  0  0  0  0  0  0  0  0  0
   43.4530   13.4640   44.5560 H   0  0  0  0  0  0  0  0  0  0  0  0
   45.1470   13.6360   45.2420 H   0  0  0  0  0  0  0  0  0  0  0  0
   43.3080    6.2200   42.8380 H   0  0  0  0  0  0  0  0  0  0  0  0
   42.9120    6.3750   44.6310 H   0  0  0  0  0  0  0  0  0  0  0  0
   45.1190    5.7360   45.2050 H   0  0  0  0  0  0  0  0  0  0  0  0
   44.5670    4.5890   43.8600 H   0  0  0  0  0  0  0  0  0  0  0  0
   46.5600    7.3960   44.5640 H   0  0  0  0  0  0  0  0  0  0  0  0
   47.3070    7.3800   42.9550 H   0  0  0  0  0  0  0  0  0  0  0  0
   45.0980    7.9280   41.9260 H   0  0  0  0  0  0  0  0  0  0  0  0
   45.5790    9.2390   43.0560 H   0  0  0  0  0  0  0  0  0  0  0  0
  2  1  1  0  0  0  0
  3 31  1  0  0  0  0
  3  2  2  0  0  0  0
  4  3  1  0  0  0  0
  5  4  2  0  0  0  0
  5  6  1  0  0  0  0
  6  7  2  0  0  0  0
  7  2  1  0  0  0  0
  7 33  1  0  0  0  0
  8  9  1  0  0  0  0
  8  5  1  0  0  0  0
  9 35  1  0  0  0  0
 10 11  2  0  0  0  0
 10  4  1  0  0  0  0
 12 13  1  0  0  0  0
 12 11  1  0  0  0  0
 13 18  1  0  0  0  0
 14 15  2  0  0  0  0
 14 13  2  0  0  0  0
 15 16  1  0  0  0  0
 16 17  2  0  0  0  0
 17 19  1  0  0  0  0
 18 17  1  0  0  0  0
 19 20  1  0  0  0  0
 20 39  1  0  0  0  0
 20 21  1  0  0  0  0
 21 42  1  0  0  0  0
 21 41  1  0  0  0  0
 22 21  1  0  0  0  0
 23 43  1  0  0  0  0
 23 22  1  0  0  0  0
 24 19  1  0  0  0  0
 24 23  1  0  0  0  0
 25 26  1  0  0  0  0
 25 15  1  0  0  0  0
 26 27  1  0  0  0  0
 26 48  1  0  0  0  0
 27 49  1  0  0  0  0
 28 29  1  0  0  0  0
 28 27  1  0  0  0  0
 29 51  1  0  0  0  0
 30 54  1  0  0  0  0
 30 29  1  0  0  0  0
 30 25  1  0  0  0  0
 32  6  1  0  0  0  0
 34  9  1  0  0  0  0
 36  9  1  0  0  0  0
 37 10  1  0  0  0  0
 38 12  1  0  0  0  0
 40 20  1  0  0  0  0
 44 23  1  0  0  0  0
 45 24  1  0  0  0  0
 46 24  1  0  0  0  0
 47 26  1  0  0  0  0
 50 27  1  0  0  0  0
 52 29  1  0  0  0  0
 53 30  1  0  0  0  0
M  END
>  <Pose>
1

>  <Score>
-4.90

$$$$
