
 OpenBabel03172210433D

 49 52  0  0  0  0  0  0  0  0999 V2000
   51.7850    1.6290   42.5580 B   0  0  0  0  0  0  0  0  0  0  0  0
   50.7050    2.7420   43.6330 C   0  0  0  0  0  0  0  0  0  0  0  0
   49.4070    3.0240   43.2370 C   0  0  0  0  0  0  0  0  0  0  0  0
   48.6000    3.8320   43.9920 C   0  0  0  0  0  0  0  0  0  0  0  0
   49.0210    4.3960   45.1590 C   0  0  0  0  0  0  0  0  0  0  0  0
   50.3290    4.1160   45.5670 C   0  0  0  0  0  0  0  0  0  0  0  0
   51.1470    3.3000   44.8070 C   0  0  0  0  0  0  0  0  0  0  0  0
   47.1770    4.1180   43.5920 C   0  0  0  0  0  0  0  0  0  0  0  0
   46.5530    3.0810   43.1690 O   0  0  0  0  0  0  0  0  0  0  0  0
   46.7300    5.3570   43.7120 N   0  0  0  0  0  0  0  0  0  0  0  0
   46.2620    6.6560   43.8380 C   0  0  0  0  0  0  0  0  0  0  0  0
   44.8890    6.8100   43.2370 C   0  0  0  0  0  0  0  0  0  0  0  0
   44.8430    6.6420   41.9670 O   0  0  0  0  0  0  0  0  0  0  0  0
   43.7370    7.1130   43.9760 N   0  0  0  0  0  0  0  0  0  0  0  0
   43.7820    7.6340   45.3040 C   0  0  0  0  0  0  0  0  0  0  0  0
   42.6840    8.6230   45.5770 C   0  0  0  0  0  0  0  0  0  0  0  0
   42.0870    9.2660   44.3440 C   0  0  0  0  0  0  0  0  0  0  0  0
   40.8880    9.9260   44.8430 N   0  0  0  0  0  0  0  0  0  0  0  0
   40.2320   10.7910   43.9400 C   0  0  0  0  0  0  0  0  0  0  0  0
   40.9910   11.2700   42.7580 C   0  0  0  0  0  0  0  0  0  0  0  0
   42.4630   11.3080   43.0240 C   0  0  0  0  0  0  0  0  0  0  0  0
   43.4150   12.1540   42.6320 N   0  0  0  0  0  0  0  0  0  0  0  0
   44.5620   11.6930   43.1760 C   0  0  0  0  0  0  0  0  0  0  0  0
   44.3230   10.5750   43.8950 N   0  0  0  0  0  0  0  0  0  0  0  0
   42.9870   10.3130   43.8090 C   0  0  0  0  0  0  0  0  0  0  0  0
   41.7330    8.2860   43.2550 C   0  0  0  0  0  0  0  0  0  0  0  0
   42.4010    6.9340   43.4190 C   0  0  0  0  0  0  0  0  0  0  0  0
   49.0300    2.6080   42.3320 H   0  0  0  0  0  0  0  0  0  0  0  0
   48.3670    5.0220   45.7310 H   0  0  0  0  0  0  0  0  0  0  0  0
   50.7000    4.5420   46.4810 H   0  0  0  0  0  0  0  0  0  0  0  0
   52.1560    3.0830   45.1240 H   0  0  0  0  0  0  0  0  0  0  0  0
   46.5720    5.1830   45.0750 H   0  0  0  0  0  0  0  0  0  0  0  0
   46.9510    7.3930   43.2980 H   0  0  0  0  0  0  0  0  0  0  0  0
   46.2890    7.0280   44.8910 H   0  0  0  0  0  0  0  0  0  0  0  0
   43.5820    6.7500   45.9830 H   0  0  0  0  0  0  0  0  0  0  0  0
   44.7820    7.9850   45.6170 H   0  0  0  0  0  0  0  0  0  0  0  0
   41.8780    8.1450   46.1460 H   0  0  0  0  0  0  0  0  0  0  0  0
   43.1430    9.4480   46.1620 H   0  0  0  0  0  0  0  0  0  0  0  0
   40.2640    9.1230   45.1420 H   0  0  0  0  0  0  0  0  0  0  0  0
   39.9230   11.7100   44.5250 H   0  0  0  0  0  0  0  0  0  0  0  0
   39.2530   10.3200   43.6270 H   0  0  0  0  0  0  0  0  0  0  0  0
   40.7650   10.6250   41.8780 H   0  0  0  0  0  0  0  0  0  0  0  0
   40.6110   12.2880   42.4590 H   0  0  0  0  0  0  0  0  0  0  0  0
   45.5080   12.1780   43.0310 H   0  0  0  0  0  0  0  0  0  0  0  0
   45.0310   10.0260   44.4110 H   0  0  0  0  0  0  0  0  0  0  0  0
   42.1090    8.6920   42.2670 H   0  0  0  0  0  0  0  0  0  0  0  0
   40.6510    8.1020   43.1580 H   0  0  0  0  0  0  0  0  0  0  0  0
   41.7900    6.2460   44.0470 H   0  0  0  0  0  0  0  0  0  0  0  0
   42.5130    6.5010   42.4070 H   0  0  0  0  0  0  0  0  0  0  0  0
  1  2  1  0  0  0  0
  2  7  1  0  0  0  0
  3  2  2  0  0  0  0
  3  4  1  0  0  0  0
  4  5  2  0  0  0  0
  5  6  1  0  0  0  0
  5 29  1  0  0  0  0
  6 30  1  0  0  0  0
  7 31  1  0  0  0  0
  7  6  2  0  0  0  0
  8 10  1  0  0  0  0
  8  4  1  0  0  0  0
  9  8  2  0  0  0  0
 10 11  1  0  0  0  0
 10 32  1  0  0  0  0
 11 34  1  0  0  0  0
 12 11  1  0  0  0  0
 12 14  1  0  0  0  0
 13 12  2  0  0  0  0
 14 15  1  0  0  0  0
 15 16  1  0  0  0  0
 15 36  1  0  0  0  0
 15 35  1  0  0  0  0
 16 37  1  0  0  0  0
 16 38  1  0  0  0  0
 17 18  1  0  0  0  0
 17 16  1  0  0  0  0
 18 39  1  0  0  0  0
 19 40  1  0  0  0  0
 19 18  1  0  0  0  0
 20 21  1  0  0  0  0
 20 19  1  0  0  0  0
 21 25  2  0  0  0  0
 22 21  1  0  0  0  0
 22 23  2  0  0  0  0
 23 24  1  0  0  0  0
 24 45  1  0  0  0  0
 25 24  1  0  0  0  0
 25 17  1  0  0  0  0
 26 27  1  0  0  0  0
 26 17  1  0  0  0  0
 27 14  1  0  0  0  0
 27 48  1  0  0  0  0
 28  3  1  0  0  0  0
 33 11  1  0  0  0  0
 41 19  1  0  0  0  0
 42 20  1  0  0  0  0
 43 20  1  0  0  0  0
 44 23  1  0  0  0  0
 46 26  1  0  0  0  0
 47 26  1  0  0  0  0
 49 27  1  0  0  0  0
M  END
>  <Pose>
1

>  <Score>
-7.16

$$$$
