
 OpenBabel03172210433D

 49 52  0  0  0  0  0  0  0  0999 V2000
   51.2270   -0.6440   43.1060 B   0  0  0  0  0  0  0  0  0  0  0  0
   50.8750    1.0780   43.8090 C   0  0  0  0  0  0  0  0  0  0  0  0
   49.8630    1.8400   43.2540 C   0  0  0  0  0  0  0  0  0  0  0  0
   49.5560    3.1050   43.7200 C   0  0  0  0  0  0  0  0  0  0  0  0
   50.3010    3.6020   44.7800 C   0  0  0  0  0  0  0  0  0  0  0  0
   51.3060    2.8400   45.3270 C   0  0  0  0  0  0  0  0  0  0  0  0
   51.6250    1.5790   44.8740 C   0  0  0  0  0  0  0  0  0  0  0  0
   48.4980    3.9300   43.1560 C   0  0  0  0  0  0  0  0  0  0  0  0
   48.3070    3.9280   41.9130 O   0  0  0  0  0  0  0  0  0  0  0  0
   47.6560    4.7490   43.9430 N   0  0  0  0  0  0  0  0  0  0  0  0
   47.4330    6.1440   43.6290 C   0  0  0  0  0  0  0  0  0  0  0  0
   46.7530    6.8540   44.7440 C   0  0  0  0  0  0  0  0  0  0  0  0
   47.4590    7.1680   45.7340 O   0  0  0  0  0  0  0  0  0  0  0  0
   45.3890    7.1850   44.7400 N   0  0  0  0  0  0  0  0  0  0  0  0
   44.4300    6.5090   43.9010 C   0  0  0  0  0  0  0  0  0  0  0  0
   43.8960    7.5390   42.9300 C   0  0  0  0  0  0  0  0  0  0  0  0
   43.4410    8.7650   43.6870 C   0  0  0  0  0  0  0  0  0  0  0  0
   44.2600    9.8810   43.2630 N   0  0  0  0  0  0  0  0  0  0  0  0
   43.8740   11.1420   43.7930 C   0  0  0  0  0  0  0  0  0  0  0  0
   42.4190   11.4170   43.8970 C   0  0  0  0  0  0  0  0  0  0  0  0
   41.5500   10.3630   43.3330 C   0  0  0  0  0  0  0  0  0  0  0  0
   40.2680   10.3800   42.8550 N   0  0  0  0  0  0  0  0  0  0  0  0
   39.9850    9.1300   42.4710 C   0  0  0  0  0  0  0  0  0  0  0  0
   41.0510    8.3460   42.6980 N   0  0  0  0  0  0  0  0  0  0  0  0
   42.0530    9.0850   43.2380 C   0  0  0  0  0  0  0  0  0  0  0  0
   43.4750    8.6200   45.1740 C   0  0  0  0  0  0  0  0  0  0  0  0
   44.8950    8.2320   45.5970 C   0  0  0  0  0  0  0  0  0  0  0  0
   49.3160    1.4250   42.4440 H   0  0  0  0  0  0  0  0  0  0  0  0
   50.1260    4.5870   45.2070 H   0  0  0  0  0  0  0  0  0  0  0  0
   51.9000    3.2120   46.1560 H   0  0  0  0  0  0  0  0  0  0  0  0
   52.3950    0.9620   45.2750 H   0  0  0  0  0  0  0  0  0  0  0  0
   47.1840    4.3340   44.7710 H   0  0  0  0  0  0  0  0  0  0  0  0
   46.7740    6.2490   42.7440 H   0  0  0  0  0  0  0  0  0  0  0  0
   48.4230    6.5780   43.3900 H   0  0  0  0  0  0  0  0  0  0  0  0
   43.5780    6.1180   44.5120 H   0  0  0  0  0  0  0  0  0  0  0  0
   44.8520    5.6290   43.3850 H   0  0  0  0  0  0  0  0  0  0  0  0
   43.0800    7.1250   42.2990 H   0  0  0  0  0  0  0  0  0  0  0  0
   44.7570    7.7840   42.2500 H   0  0  0  0  0  0  0  0  0  0  0  0
   45.2530    9.6920   43.5590 H   0  0  0  0  0  0  0  0  0  0  0  0
   44.3090   11.9270   43.1060 H   0  0  0  0  0  0  0  0  0  0  0  0
   44.3690   11.3660   44.7770 H   0  0  0  0  0  0  0  0  0  0  0  0
   42.1260   12.3870   43.3950 H   0  0  0  0  0  0  0  0  0  0  0  0
   42.1020   11.5870   44.9660 H   0  0  0  0  0  0  0  0  0  0  0  0
   39.6550   11.2470   42.8180 H   0  0  0  0  0  0  0  0  0  0  0  0
   39.0500    8.8010   42.0470 H   0  0  0  0  0  0  0  0  0  0  0  0
   42.7220    7.9360   45.5670 H   0  0  0  0  0  0  0  0  0  0  0  0
   43.2920    9.6150   45.6170 H   0  0  0  0  0  0  0  0  0  0  0  0
   44.9000    7.8660   46.6440 H   0  0  0  0  0  0  0  0  0  0  0  0
   45.4930    9.1460   45.5610 H   0  0  0  0  0  0  0  0  0  0  0  0
  1  2  1  0  0  0  0
  2  7  1  0  0  0  0
  3  4  1  0  0  0  0
  3  2  2  0  0  0  0
  4  5  2  0  0  0  0
  5 29  1  0  0  0  0
  5  6  1  0  0  0  0
  6 30  1  0  0  0  0
  7 31  1  0  0  0  0
  7  6  2  0  0  0  0
  8  4  1  0  0  0  0
  8 10  1  0  0  0  0
  9  8  2  0  0  0  0
 10 32  1  0  0  0  0
 11 10  1  0  0  0  0
 11 12  1  0  0  0  0
 12 13  2  0  0  0  0
 14 12  1  0  0  0  0
 14 27  1  0  0  0  0
 15 35  1  0  0  0  0
 15 14  1  0  0  0  0
 16 17  1  0  0  0  0
 16 15  1  0  0  0  0
 17 26  1  0  0  0  0
 18 39  1  0  0  0  0
 18 17  1  0  0  0  0
 18 19  1  0  0  0  0
 19 20  1  0  0  0  0
 19 41  1  0  0  0  0
 20 43  1  0  0  0  0
 21 20  1  0  0  0  0
 22 21  1  0  0  0  0
 23 24  2  0  0  0  0
 23 22  1  0  0  0  0
 24 25  1  0  0  0  0
 25 21  2  0  0  0  0
 25 17  1  0  0  0  0
 26 46  1  0  0  0  0
 26 27  1  0  0  0  0
 26 47  1  0  0  0  0
 27 48  1  0  0  0  0
 28  3  1  0  0  0  0
 33 11  1  0  0  0  0
 34 11  1  0  0  0  0
 36 15  1  0  0  0  0
 37 16  1  0  0  0  0
 38 16  1  0  0  0  0
 40 19  1  0  0  0  0
 42 20  1  0  0  0  0
 44 22  1  0  0  0  0
 45 23  1  0  0  0  0
 49 27  1  0  0  0  0
M  END
>  <Pose>
1

>  <Score>
-7.28

$$$$
