
 OpenBabel03172210433D

 35 38  0  0  1  0  0  0  0  0999 V2000
   49.0800    6.4640   47.1330 B   0  0  0  0  0  0  0  0  0  0  0  0
   49.9680    5.0930   46.1550 C   0  0  0  0  0  0  0  0  0  0  0  0
   49.3460    4.5610   45.0530 C   0  0  0  0  0  0  0  0  0  0  0  0
   49.9550    3.5590   44.3020 C   0  0  0  0  0  0  0  0  0  0  0  0
   51.1830    3.1220   44.6900 C   0  0  0  0  0  0  0  0  0  0  0  0
   51.8030    3.6600   45.7970 C   0  0  0  0  0  0  0  0  0  0  0  0
   51.2230    4.6480   46.5540 C   0  0  0  0  0  0  0  0  0  0  0  0
   49.2570    3.0250   43.1500 C   0  0  0  0  0  0  0  0  0  0  0  0
   49.9470    2.5550   42.2280 O   0  0  0  0  0  0  0  0  0  0  0  0
   47.8540    3.0330   43.0750 N   0  0  0  0  0  0  0  0  0  0  0  0
   47.0410    4.1840   43.0520 N   0  0  0  0  0  0  0  0  0  0  0  0
   46.9750    5.0220   41.8820 C   0  0  0  0  0  0  0  0  0  0  0  0
   47.5860    4.8710   40.7770 O   0  0  0  0  0  0  0  0  0  0  0  0
   46.0660    6.1180   42.1560 C   0  0  1  0  0  0  0  0  0  0  0  0
   45.2080    5.6770   43.3580 C   0  0  2  0  0  0  0  0  0  0  0  0
   45.0510    6.8910   44.2140 C   0  0  2  0  0  0  0  0  0  0  0  0
   45.4040    8.0230   43.2290 C   0  0  0  0  0  0  0  0  0  0  0  0
   46.7160    7.3410   42.7870 C   0  0  1  0  0  0  0  0  0  0  0  0
   47.2700    7.0080   44.1310 C   0  0  0  0  0  0  0  0  0  0  0  0
   46.3000    6.9920   45.0540 C   0  0  0  0  0  0  0  0  0  0  0  0
   46.2030    4.7470   44.0230 C   0  0  0  0  0  0  0  0  0  0  0  0
   46.2450    4.5350   45.2560 O   0  0  0  0  0  0  0  0  0  0  0  0
   48.3640    4.9290   44.7630 H   0  0  0  0  0  0  0  0  0  0  0  0
   51.6930    2.3560   44.1520 H   0  0  0  0  0  0  0  0  0  0  0  0
   52.7930    3.3160   46.1220 H   0  0  0  0  0  0  0  0  0  0  0  0
   51.6560    5.0990   47.4180 H   0  0  0  0  0  0  0  0  0  0  0  0
   47.3950    2.0690   43.0320 H   0  0  0  0  0  0  0  0  0  0  0  0
   45.4580    6.4520   41.3130 H   0  0  0  0  0  0  0  0  0  0  0  0
   44.2970    5.1640   43.0690 H   0  0  0  0  0  0  0  0  0  0  0  0
   44.1340    7.0140   44.7320 H   0  0  0  0  0  0  0  0  0  0  0  0
   45.6190    8.9590   43.7590 H   0  0  0  0  0  0  0  0  0  0  0  0
   44.6910    8.1100   42.4110 H   0  0  0  0  0  0  0  0  0  0  0  0
   47.3180    7.9420   42.1480 H   0  0  0  0  0  0  0  0  0  0  0  0
   48.3170    6.7980   44.3690 H   0  0  0  0  0  0  0  0  0  0  0  0
   46.2960    7.0330   46.1100 H   0  0  0  0  0  0  0  0  0  0  0  0
  2  7  1  0  0  0  0
  2  1  1  0  0  0  0
  3  2  2  0  0  0  0
  4  5  2  0  0  0  0
  4  3  1  0  0  0  0
  5  6  1  0  0  0  0
  6 25  1  0  0  0  0
  6  7  2  0  0  0  0
  7 26  1  0  0  0  0
  8  4  1  0  0  0  0
  9  8  2  0  0  0  0
 10  8  1  0  0  0  0
 11 10  1  0  0  0  0
 11 21  1  0  0  0  0
 12 14  1  0  0  0  0
 12 11  1  0  0  0  0
 13 12  2  0  0  0  0
 14 28  1  6  0  0  0
 14 18  1  0  0  0  0
 14 15  1  0  0  0  0
 15 29  1  6  0  0  0
 15 21  1  0  0  0  0
 15 16  1  0  0  0  0
 16 30  1  1  0  0  0
 16 20  1  0  0  0  0
 17 31  1  0  0  0  0
 17 16  1  0  0  0  0
 18 33  1  6  0  0  0
 18 17  1  0  0  0  0
 18 19  1  0  0  0  0
 19 34  1  0  0  0  0
 19 20  1  0  0  0  0
 20 35  1  0  0  0  0
 21 22  2  0  0  0  0
 23  3  1  0  0  0  0
 24  5  1  0  0  0  0
 27 10  1  0  0  0  0
 32 17  1  0  0  0  0
M  END
>  <Pose>
1

>  <Score>
-5.46

$$$$
