
 OpenBabel03172210433D

 61 64  0  0  1  0  0  0  0  0999 V2000
   44.6370   14.1770   45.4050 B   0  0  0  0  0  0  0  0  0  0  0  0
   44.0460   12.5310   44.6400 C   0  0  0  0  0  0  0  0  0  0  0  0
   44.1230   11.3290   45.2730 C   0  0  0  0  0  0  0  0  0  0  0  0
   43.7070   10.1150   44.7530 C   0  0  0  0  0  0  0  0  0  0  0  0
   43.1630   10.1250   43.4710 C   0  0  0  0  0  0  0  0  0  0  0  0
   43.0700   11.3290   42.7990 C   0  0  0  0  0  0  0  0  0  0  0  0
   43.4950   12.5260   43.3480 C   0  0  0  0  0  0  0  0  0  0  0  0
   43.8850    8.9100   45.5690 C   0  0  1  0  0  0  0  0  0  0  0  0
   42.6390    8.4150   46.0220 N   0  0  0  0  0  0  0  0  0  0  0  0
   42.3820    7.1520   45.4310 C   0  0  0  0  0  0  0  0  0  0  0  0
   41.3050    6.4910   45.5620 O   0  0  0  0  0  0  0  0  0  0  0  0
   43.5480    6.7540   44.6710 C   0  0  0  0  0  0  0  0  0  0  0  0
   43.5860    5.6650   44.0380 O   0  0  0  0  0  0  0  0  0  0  0  0
   44.5330    7.8100   44.8080 C   0  0  0  0  0  0  0  0  0  0  0  0
   45.7390    7.7760   44.2890 C   0  0  0  0  0  0  0  0  0  0  0  0
   46.5610    8.8710   44.4310 O   0  0  0  0  0  0  0  0  0  0  0  0
   46.2180    6.6140   43.5830 C   0  0  0  0  0  0  0  0  0  0  0  0
   47.2610    5.7900   44.0430 C   0  0  0  0  0  0  0  0  0  0  0  0
   47.4350    4.7810   43.1800 N   0  0  0  0  0  0  0  0  0  0  0  0
   46.5510    4.9430   42.2120 N   0  0  0  0  0  0  0  0  0  0  0  0
   45.7980    6.0330   42.4190 C   0  0  0  0  0  0  0  0  0  0  0  0
   48.3740    3.7200   43.2750 C   0  0  0  0  0  0  0  0  0  0  0  0
   48.3340    2.7050   42.3290 C   0  0  0  0  0  0  0  0  0  0  0  0
   49.2230    1.6490   42.3540 C   0  0  0  0  0  0  0  0  0  0  0  0
   50.2050    1.5610   43.3410 C   0  0  0  0  0  0  0  0  0  0  0  0
   50.2460    2.5720   44.2840 C   0  0  0  0  0  0  0  0  0  0  0  0
   49.3510    3.6100   44.2370 C   0  0  0  0  0  0  0  0  0  0  0  0
   48.0230    6.0400   45.3010 C   0  0  0  0  0  0  0  0  0  0  0  0
   41.7150    9.0710   46.9890 C   0  0  0  0  0  0  0  0  0  0  0  0
   40.3880    9.3320   46.3240 C   0  0  0  0  0  0  0  0  0  0  0  0
   40.4600   10.3480   45.2290 C   0  0  0  0  0  0  0  0  0  0  0  0
   39.2140   10.8460   44.7470 N   0  0  0  0  0  4  0  0  0  0  0  0
   38.0410   10.3530   45.3910 C   0  0  0  0  0  0  0  0  0  0  0  0
   39.1860   12.3150   44.8370 C   0  0  0  0  0  0  0  0  0  0  0  0
   44.5630   11.3570   46.2890 H   0  0  0  0  0  0  0  0  0  0  0  0
   42.8320    9.2020   43.0320 H   0  0  0  0  0  0  0  0  0  0  0  0
   42.6410   11.3310   41.7930 H   0  0  0  0  0  0  0  0  0  0  0  0
   43.4250   13.4710   42.8210 H   0  0  0  0  0  0  0  0  0  0  0  0
   44.5030    9.1740   46.4650 H   0  0  0  0  0  0  0  0  0  0  0  0
   44.9840    6.3900   41.7840 H   0  0  0  0  0  0  0  0  0  0  0  0
   47.5490    2.7970   41.5580 H   0  0  0  0  0  0  0  0  0  0  0  0
   49.1670    0.8750   41.5990 H   0  0  0  0  0  0  0  0  0  0  0  0
   50.8940    0.7130   43.3390 H   0  0  0  0  0  0  0  0  0  0  0  0
   51.0190    2.4890   45.0510 H   0  0  0  0  0  0  0  0  0  0  0  0
   49.4220    4.3800   44.9920 H   0  0  0  0  0  0  0  0  0  0  0  0
   47.3430    6.4200   46.1010 H   0  0  0  0  0  0  0  0  0  0  0  0
   48.8920    6.7010   45.1330 H   0  0  0  0  0  0  0  0  0  0  0  0
   48.4260    5.0740   45.6930 H   0  0  0  0  0  0  0  0  0  0  0  0
   41.6450    8.4680   47.9130 H   0  0  0  0  0  0  0  0  0  0  0  0
   42.1510   10.0860   47.2160 H   0  0  0  0  0  0  0  0  0  0  0  0
   40.1500    8.3580   45.7980 H   0  0  0  0  0  0  0  0  0  0  0  0
   39.5680    9.4600   47.0330 H   0  0  0  0  0  0  0  0  0  0  0  0
   41.0170    9.9320   44.3310 H   0  0  0  0  0  0  0  0  0  0  0  0
   41.0970   11.2190   45.5650 H   0  0  0  0  0  0  0  0  0  0  0  0
   39.1310   10.6480   43.7040 H   0  0  0  0  0  0  0  0  0  0  0  0
   37.3920   11.1820   45.7830 H   0  0  0  0  0  0  0  0  0  0  0  0
   38.1930    9.5640   46.1540 H   0  0  0  0  0  0  0  0  0  0  0  0
   37.3940    9.8600   44.6070 H   0  0  0  0  0  0  0  0  0  0  0  0
   39.0360   12.7790   43.8480 H   0  0  0  0  0  0  0  0  0  0  0  0
   40.1750   12.6330   45.2390 H   0  0  0  0  0  0  0  0  0  0  0  0
   38.4260   12.6380   45.5830 H   0  0  0  0  0  0  0  0  0  0  0  0
  2  3  1  0  0  0  0
  2  1  1  0  0  0  0
  3 35  1  0  0  0  0
  4  3  2  0  0  0  0
  4  8  1  0  0  0  0
  5  4  1  0  0  0  0
  6  7  1  0  0  0  0
  6  5  2  0  0  0  0
  7  2  2  0  0  0  0
  8  9  1  0  0  0  0
  8 39  1  1  0  0  0
  9 29  1  0  0  0  0
 10 11  2  0  0  0  0
 10  9  1  0  0  0  0
 12 14  1  0  0  0  0
 12 10  1  0  0  0  0
 13 12  2  0  0  0  0
 14  8  1  0  0  0  0
 15 16  1  0  0  0  0
 15 14  2  0  0  0  0
 17 18  2  0  0  0  0
 17 15  1  0  0  0  0
 18 28  1  0  0  0  0
 19 22  1  0  0  0  0
 19 18  1  0  0  0  0
 20 21  2  0  0  0  0
 20 19  1  0  0  0  0
 21 17  1  0  0  0  0
 22 27  1  0  0  0  0
 23 24  1  0  0  0  0
 23 22  2  0  0  0  0
 24 25  2  0  0  0  0
 25 26  1  0  0  0  0
 26 44  1  0  0  0  0
 27 26  2  0  0  0  0
 27 45  1  0  0  0  0
 28 48  1  0  0  0  0
 28 46  1  0  0  0  0
 29 50  1  0  0  0  0
 29 49  1  0  0  0  0
 30 29  1  0  0  0  0
 30 52  1  0  0  0  0
 31 54  1  0  0  0  0
 31 30  1  0  0  0  0
 32 34  1  0  0  0  0
 32 31  1  0  0  0  0
 32 33  1  0  0  0  0
 33 56  1  0  0  0  0
 33 57  1  0  0  0  0
 34 60  1  0  0  0  0
 34 61  1  0  0  0  0
 36  5  1  0  0  0  0
 37  6  1  0  0  0  0
 38  7  1  0  0  0  0
 40 21  1  0  0  0  0
 41 23  1  0  0  0  0
 42 24  1  0  0  0  0
 43 25  1  0  0  0  0
 47 28  1  0  0  0  0
 51 30  1  0  0  0  0
 53 31  1  0  0  0  0
 55 32  1  0  0  0  0
 58 33  1  0  0  0  0
 59 34  1  0  0  0  0
M  END
>  <Pose>
1

>  <Score>
-5.57

$$$$
