
 OpenBabel03172210433D

 63 66  0  0  1  0  0  0  0  0999 V2000
   44.7740   13.4900   45.4310 B   0  0  0  0  0  0  0  0  0  0  0  0
   44.2400   11.6710   45.6440 C   0  0  0  0  0  0  0  0  0  0  0  0
   44.1380   10.8530   44.5380 C   0  0  0  0  0  0  0  0  0  0  0  0
   43.7540    9.5230   44.6410 C   0  0  0  0  0  0  0  0  0  0  0  0
   43.4820    9.0740   45.9250 C   0  0  0  0  0  0  0  0  0  0  0  0
   43.5820    9.8840   47.0360 C   0  0  0  0  0  0  0  0  0  0  0  0
   43.9640   11.2010   46.9090 C   0  0  0  0  0  0  0  0  0  0  0  0
   43.6550    8.6470   43.4490 C   0  0  2  0  0  0  0  0  0  0  0  0
   42.3290    8.0600   43.4220 N   0  0  0  0  0  0  0  0  0  0  0  0
   42.3330    7.0240   44.3940 C   0  0  0  0  0  0  0  0  0  0  0  0
   41.3510    6.5590   45.0140 O   0  0  0  0  0  0  0  0  0  0  0  0
   43.7390    6.5880   44.5480 C   0  0  0  0  0  0  0  0  0  0  0  0
   44.1770    5.6910   45.3020 O   0  0  0  0  0  0  0  0  0  0  0  0
   44.5070    7.4190   43.6310 C   0  0  0  0  0  0  0  0  0  0  0  0
   45.6410    7.1030   43.0860 C   0  0  0  0  0  0  0  0  0  0  0  0
   46.2120    8.0100   42.1680 O   0  0  0  0  0  0  0  0  0  0  0  0
   46.3950    5.8830   43.3390 C   0  0  0  0  0  0  0  0  0  0  0  0
   46.3980    4.6530   42.7720 C   0  0  0  0  0  0  0  0  0  0  0  0
   47.3500    3.9130   43.3770 N   0  0  0  0  0  0  0  0  0  0  0  0
   47.9780    4.6130   44.3300 C   0  0  0  0  0  0  0  0  0  0  0  0
   47.3990    5.8540   44.3280 C   0  0  0  0  0  0  0  0  0  0  0  0
   47.7750    6.9840   45.2300 C   0  0  0  0  0  0  0  0  0  0  0  0
   49.0710    4.1450   45.2050 C   0  0  0  0  0  0  0  0  0  0  0  0
   50.2400    4.4540   44.9310 O   0  0  0  0  0  0  0  0  0  0  0  0
   48.8020    3.3710   46.3180 O   0  0  0  0  0  0  0  0  0  0  0  0
   49.1500    3.7410   47.6320 C   0  0  0  0  0  0  0  0  0  0  0  0
   45.4910    4.1320   41.6950 C   0  0  0  0  0  0  0  0  0  0  0  0
   41.2030    8.4450   42.5670 C   0  0  0  0  0  0  0  0  0  0  0  0
   40.8200    9.8910   42.7900 C   0  0  0  0  0  0  0  0  0  0  0  0
   39.9780   10.1000   43.9230 N   0  0  0  0  0  4  0  0  0  0  0  0
   38.6840   10.6860   43.5960 C   0  0  0  0  0  0  0  0  0  0  0  0
   37.7630   10.4270   44.7580 C   0  0  0  0  0  0  0  0  0  0  0  0
   38.5080   10.2280   45.8940 O   0  0  0  0  0  0  0  0  0  0  0  0
   39.5660   11.1070   46.0440 C   0  0  0  0  0  0  0  0  0  0  0  0
   40.5730   11.0030   44.9000 C   0  0  0  0  0  0  0  0  0  0  0  0
   44.3490   11.2300   43.5430 H   0  0  0  0  0  0  0  0  0  0  0  0
   43.1790    8.0340   46.0300 H   0  0  0  0  0  0  0  0  0  0  0  0
   43.3640    9.5170   48.0370 H   0  0  0  0  0  0  0  0  0  0  0  0
   44.0480   11.8550   47.7890 H   0  0  0  0  0  0  0  0  0  0  0  0
   43.9130    9.1740   42.5140 H   0  0  0  0  0  0  0  0  0  0  0  0
   47.5650    2.9050   43.1240 H   0  0  0  0  0  0  0  0  0  0  0  0
   47.8030    6.6490   46.2870 H   0  0  0  0  0  0  0  0  0  0  0  0
   46.9980    7.7650   45.1690 H   0  0  0  0  0  0  0  0  0  0  0  0
   48.7640    7.4000   44.9920 H   0  0  0  0  0  0  0  0  0  0  0  0
   48.9690    4.8210   47.8360 H   0  0  0  0  0  0  0  0  0  0  0  0
   50.2090    3.4570   47.8740 H   0  0  0  0  0  0  0  0  0  0  0  0
   48.5000    3.1310   48.3120 H   0  0  0  0  0  0  0  0  0  0  0  0
   46.0200    4.0410   40.7310 H   0  0  0  0  0  0  0  0  0  0  0  0
   44.6040    4.7740   41.6020 H   0  0  0  0  0  0  0  0  0  0  0  0
   45.1810    3.1030   42.0630 H   0  0  0  0  0  0  0  0  0  0  0  0
   41.4560    8.3060   41.4960 H   0  0  0  0  0  0  0  0  0  0  0  0
   40.3040    7.8440   42.8260 H   0  0  0  0  0  0  0  0  0  0  0  0
   40.3330   10.2690   41.8410 H   0  0  0  0  0  0  0  0  0  0  0  0
   41.7160   10.5240   42.9120 H   0  0  0  0  0  0  0  0  0  0  0  0
   39.8450    9.2020   44.4210 H   0  0  0  0  0  0  0  0  0  0  0  0
   38.8490   11.8020   43.5590 H   0  0  0  0  0  0  0  0  0  0  0  0
   38.2940   10.3890   42.6240 H   0  0  0  0  0  0  0  0  0  0  0  0
   37.0280   11.2330   44.9280 H   0  0  0  0  0  0  0  0  0  0  0  0
   37.1700    9.4920   44.5800 H   0  0  0  0  0  0  0  0  0  0  0  0
   40.1130   10.7700   46.9710 H   0  0  0  0  0  0  0  0  0  0  0  0
   39.2510   12.1550   46.2200 H   0  0  0  0  0  0  0  0  0  0  0  0
   41.5560   10.6760   45.2410 H   0  0  0  0  0  0  0  0  0  0  0  0
   40.6320   12.0250   44.4410 H   0  0  0  0  0  0  0  0  0  0  0  0
  1  2  1  0  0  0  0
  2  7  1  0  0  0  0
  3  4  1  0  0  0  0
  3  2  2  0  0  0  0
  4  5  2  0  0  0  0
  5 37  1  0  0  0  0
  5  6  1  0  0  0  0
  6 38  1  0  0  0  0
  7  6  2  0  0  0  0
  7 39  1  0  0  0  0
  8 40  1  6  0  0  0
  8 14  1  0  0  0  0
  8  4  1  0  0  0  0
  9  8  1  0  0  0  0
  9 10  1  0  0  0  0
 10 12  1  0  0  0  0
 10 11  2  0  0  0  0
 12 13  2  0  0  0  0
 14 12  1  0  0  0  0
 15 17  1  0  0  0  0
 15 14  2  0  0  0  0
 16 15  1  0  0  0  0
 17 21  1  0  0  0  0
 18 17  2  0  0  0  0
 18 19  1  0  0  0  0
 19 20  1  0  0  0  0
 20 23  1  0  0  0  0
 21 20  2  0  0  0  0
 21 22  1  0  0  0  0
 22 42  1  0  0  0  0
 23 25  1  0  0  0  0
 24 23  2  0  0  0  0
 25 26  1  0  0  0  0
 26 45  1  0  0  0  0
 26 46  1  0  0  0  0
 26 47  1  0  0  0  0
 27 50  1  0  0  0  0
 27 18  1  0  0  0  0
 28 29  1  0  0  0  0
 28 52  1  0  0  0  0
 28  9  1  0  0  0  0
 29 54  1  0  0  0  0
 29 30  1  0  0  0  0
 30 55  1  0  0  0  0
 30 35  1  0  0  0  0
 31 30  1  0  0  0  0
 31 32  1  0  0  0  0
 32 58  1  0  0  0  0
 32 33  1  0  0  0  0
 33 34  1  0  0  0  0
 34 61  1  0  0  0  0
 34 60  1  0  0  0  0
 35 62  1  0  0  0  0
 35 34  1  0  0  0  0
 36  3  1  0  0  0  0
 41 19  1  0  0  0  0
 43 22  1  0  0  0  0
 44 22  1  0  0  0  0
 48 27  1  0  0  0  0
 49 27  1  0  0  0  0
 51 28  1  0  0  0  0
 53 29  1  0  0  0  0
 56 31  1  0  0  0  0
 57 31  1  0  0  0  0
 59 32  1  0  0  0  0
 63 35  1  0  0  0  0
M  END
>  <Pose>
1

>  <Score>
-5.75

$$$$
