
 OpenBabel03172210433D

 63 66  0  0  1  0  0  0  0  0999 V2000
   39.2810    8.6140   49.8180 B   0  0  0  0  0  0  0  0  0  0  0  0
   39.3980    9.6480   48.2220 C   0  0  0  0  0  0  0  0  0  0  0  0
   40.6370   10.0070   47.7040 C   0  0  0  0  0  0  0  0  0  0  0  0
   40.7380   10.7520   46.5510 C   0  0  0  0  0  0  0  0  0  0  0  0
   39.5830   11.1430   45.9110 C   0  0  0  0  0  0  0  0  0  0  0  0
   38.3500   10.7880   46.4200 C   0  0  0  0  0  0  0  0  0  0  0  0
   38.2380   10.0420   47.5730 C   0  0  0  0  0  0  0  0  0  0  0  0
   42.0410   11.1440   45.9850 C   0  0  1  0  0  0  0  0  0  0  0  0
   42.9050   11.8030   46.9450 N   0  0  0  0  0  0  0  0  0  0  0  0
   43.7390   10.8670   47.5920 C   0  0  0  0  0  0  0  0  0  0  0  0
   44.3930   10.9440   48.6640 O   0  0  0  0  0  0  0  0  0  0  0  0
   43.7260    9.6570   46.7320 C   0  0  0  0  0  0  0  0  0  0  0  0
   44.3640    8.6180   46.9940 O   0  0  0  0  0  0  0  0  0  0  0  0
   42.8650    9.9460   45.6000 C   0  0  0  0  0  0  0  0  0  0  0  0
   42.8610    9.3110   44.4570 C   0  0  0  0  0  0  0  0  0  0  0  0
   42.0140    9.7570   43.4270 O   0  0  0  0  0  0  0  0  0  0  0  0
   43.6900    8.1610   44.2110 C   0  0  0  0  0  0  0  0  0  0  0  0
   44.9710    8.4060   43.6950 C   0  0  0  0  0  0  0  0  0  0  0  0
   45.8110    7.3700   43.3930 C   0  0  0  0  0  0  0  0  0  0  0  0
   45.4410    6.0450   43.5810 C   0  0  0  0  0  0  0  0  0  0  0  0
   44.1950    5.8310   44.0810 C   0  0  0  0  0  0  0  0  0  0  0  0
   43.3330    6.8640   44.3910 C   0  0  0  0  0  0  0  0  0  0  0  0
   46.3480    5.0580   43.2520 O   0  0  0  0  0  0  0  0  0  0  0  0
   46.7180    4.8290   41.9010 C   0  0  0  0  0  0  0  0  0  0  0  0
   47.1760    7.6490   42.8420 C   0  0  0  0  0  0  0  0  0  0  0  0
   42.9410   13.2470   47.2240 C   0  0  0  0  0  0  0  0  0  0  0  0
   43.6220   13.9690   46.0940 C   0  0  0  0  0  0  0  0  0  0  0  0
   45.0530   14.3100   46.3330 C   0  0  0  0  0  0  0  0  0  0  0  0
   45.5190   15.4390   45.5590 N   0  0  0  0  0  4  0  0  0  0  0  0
   45.6930   16.6210   46.3810 C   0  0  0  0  0  0  0  0  0  0  0  0
   47.1400   17.0310   46.4300 C   0  0  0  0  0  0  0  0  0  0  0  0
   47.5430   17.3370   45.1150 O   0  0  0  0  0  0  0  0  0  0  0  0
   47.4900   16.2010   44.3100 C   0  0  0  0  0  0  0  0  0  0  0  0
   46.7900   15.0420   44.9440 C   0  0  0  0  0  0  0  0  0  0  0  0
   41.5290    9.7000   48.2090 H   0  0  0  0  0  0  0  0  0  0  0  0
   39.5960   11.7310   44.9980 H   0  0  0  0  0  0  0  0  0  0  0  0
   37.4520   11.1010   45.9070 H   0  0  0  0  0  0  0  0  0  0  0  0
   37.2730    9.7660   47.9720 H   0  0  0  0  0  0  0  0  0  0  0  0
   41.9360   11.8500   45.1330 H   0  0  0  0  0  0  0  0  0  0  0  0
   45.2950    9.4450   43.5340 H   0  0  0  0  0  0  0  0  0  0  0  0
   43.8670    4.8070   44.2420 H   0  0  0  0  0  0  0  0  0  0  0  0
   42.3190    6.6480   44.7640 H   0  0  0  0  0  0  0  0  0  0  0  0
   47.6010    4.1860   41.8160 H   0  0  0  0  0  0  0  0  0  0  0  0
   46.8850    5.7840   41.3450 H   0  0  0  0  0  0  0  0  0  0  0  0
   45.8880    4.3110   41.3440 H   0  0  0  0  0  0  0  0  0  0  0  0
   47.0010    8.2480   41.9140 H   0  0  0  0  0  0  0  0  0  0  0  0
   47.6690    6.7240   42.5570 H   0  0  0  0  0  0  0  0  0  0  0  0
   47.8040    8.2210   43.5620 H   0  0  0  0  0  0  0  0  0  0  0  0
   43.4550   13.4430   48.1810 H   0  0  0  0  0  0  0  0  0  0  0  0
   41.8760   13.6060   47.2510 H   0  0  0  0  0  0  0  0  0  0  0  0
   43.5970   13.3570   45.1510 H   0  0  0  0  0  0  0  0  0  0  0  0
   43.0950   14.9360   45.8690 H   0  0  0  0  0  0  0  0  0  0  0  0
   45.6480   13.3900   46.0940 H   0  0  0  0  0  0  0  0  0  0  0  0
   45.2810   14.5320   47.3940 H   0  0  0  0  0  0  0  0  0  0  0  0
   44.8960   15.6790   44.7590 H   0  0  0  0  0  0  0  0  0  0  0  0
   45.3600   16.4390   47.4240 H   0  0  0  0  0  0  0  0  0  0  0  0
   45.1390   17.4980   45.9330 H   0  0  0  0  0  0  0  0  0  0  0  0
   47.2750   17.9440   47.0130 H   0  0  0  0  0  0  0  0  0  0  0  0
   47.7860   16.2310   46.8490 H   0  0  0  0  0  0  0  0  0  0  0  0
   46.9770   16.4280   43.3520 H   0  0  0  0  0  0  0  0  0  0  0  0
   48.5410   15.8800   44.1020 H   0  0  0  0  0  0  0  0  0  0  0  0
   46.4800   14.3620   44.0970 H   0  0  0  0  0  0  0  0  0  0  0  0
   47.4140   14.4510   45.6360 H   0  0  0  0  0  0  0  0  0  0  0  0
  2  1  1  0  0  0  0
  3 35  1  0  0  0  0
  3  2  1  0  0  0  0
  4  3  2  0  0  0  0
  5  6  2  0  0  0  0
  5  4  1  0  0  0  0
  6  7  1  0  0  0  0
  7 38  1  0  0  0  0
  7  2  2  0  0  0  0
  8 39  1  6  0  0  0
  8  4  1  0  0  0  0
  8  9  1  0  0  0  0
  9 26  1  0  0  0  0
  9 10  1  0  0  0  0
 10 11  2  0  0  0  0
 12 13  2  0  0  0  0
 12 10  1  0  0  0  0
 14  8  1  0  0  0  0
 14 12  1  0  0  0  0
 15 14  2  0  0  0  0
 16 15  1  0  0  0  0
 17 22  1  0  0  0  0
 17 15  1  0  0  0  0
 18 17  2  0  0  0  0
 19 20  2  0  0  0  0
 19 18  1  0  0  0  0
 20 21  1  0  0  0  0
 21 41  1  0  0  0  0
 21 22  2  0  0  0  0
 22 42  1  0  0  0  0
 23 20  1  0  0  0  0
 24 23  1  0  0  0  0
 25 19  1  0  0  0  0
 25 48  1  0  0  0  0
 26 50  1  0  0  0  0
 26 49  1  0  0  0  0
 27 28  1  0  0  0  0
 27 26  1  0  0  0  0
 28 54  1  0  0  0  0
 29 28  1  0  0  0  0
 29 30  1  0  0  0  0
 30 31  1  0  0  0  0
 30 56  1  0  0  0  0
 31 59  1  0  0  0  0
 31 58  1  0  0  0  0
 32 31  1  0  0  0  0
 33 34  1  0  0  0  0
 33 32  1  0  0  0  0
 34 29  1  0  0  0  0
 34 63  1  0  0  0  0
 36  5  1  0  0  0  0
 37  6  1  0  0  0  0
 40 18  1  0  0  0  0
 43 24  1  0  0  0  0
 44 24  1  0  0  0  0
 45 24  1  0  0  0  0
 46 25  1  0  0  0  0
 47 25  1  0  0  0  0
 51 27  1  0  0  0  0
 52 27  1  0  0  0  0
 53 28  1  0  0  0  0
 55 29  1  0  0  0  0
 57 30  1  0  0  0  0
 60 33  1  0  0  0  0
 61 33  1  0  0  0  0
 62 34  1  0  0  0  0
M  END
>  <Pose>
1

>  <Score>
-5.69

$$$$
