
 OpenBabel03172210433D

 53 56  0  0  1  0  0  0  0  0999 V2000
   45.2780   14.4280   45.7770 B   0  0  0  0  0  0  0  0  0  0  0  0
   43.5170   13.9160   46.3380 C   0  0  0  0  0  0  0  0  0  0  0  0
   42.8620   12.8350   45.7680 C   0  0  0  0  0  0  0  0  0  0  0  0
   41.5970   12.4430   46.1470 C   0  0  0  0  0  0  0  0  0  0  0  0
   40.9750   13.1750   47.1410 C   0  0  0  0  0  0  0  0  0  0  0  0
   41.6210   14.2660   47.7250 C   0  0  0  0  0  0  0  0  0  0  0  0
   42.8910   14.6430   47.3300 C   0  0  0  0  0  0  0  0  0  0  0  0
   40.9400   11.2700   45.4970 C   0  0  2  0  0  0  0  0  0  0  0  0
   41.1470   11.2810   44.0570 N   0  0  0  0  0  0  0  0  0  0  0  0
   40.2570   12.3280   43.6060 C   0  0  0  0  0  0  0  0  0  0  0  0
   40.3680   13.0000   42.5580 O   0  0  0  0  0  0  0  0  0  0  0  0
   39.1870   12.4850   44.5820 C   0  0  0  0  0  0  0  0  0  0  0  0
   38.2010   13.2660   44.6110 O   0  0  0  0  0  0  0  0  0  0  0  0
   39.4560   11.5030   45.6310 C   0  0  0  0  0  0  0  0  0  0  0  0
   38.6420   10.9680   46.4940 C   0  0  0  0  0  0  0  0  0  0  0  0
   39.1750   10.0610   47.4350 O   0  0  0  0  0  0  0  0  0  0  0  0
   37.2280   11.2960   46.4820 C   0  0  0  0  0  0  0  0  0  0  0  0
   36.4180   10.9520   45.5170 O   0  0  0  0  0  0  0  0  0  0  0  0
   35.2040   11.3710   45.7460 C   0  0  0  0  0  0  0  0  0  0  0  0
   35.2020   12.0340   46.9360 C   0  0  0  0  0  0  0  0  0  0  0  0
   36.5140   11.9910   47.4190 C   0  0  0  0  0  0  0  0  0  0  0  0
   42.0110   10.5000   43.2110 C   0  0  0  0  0  0  0  0  0  0  0  0
   43.3570   10.1940   43.8280 C   0  0  0  0  0  0  0  0  0  0  0  0
   43.9370    8.9980   43.1840 C   0  0  0  0  0  0  0  0  0  0  0  0
   44.9560    8.3200   43.9530 N   0  0  0  0  0  4  0  0  0  0  0  0
   44.4230    7.2380   44.7470 C   0  0  0  0  0  0  0  0  0  0  0  0
   44.5250    5.8930   44.1210 C   0  0  0  0  0  0  0  0  0  0  0  0
   45.7130    5.6270   43.4720 O   0  0  0  0  0  0  0  0  0  0  0  0
   46.0990    6.6230   42.5850 C   0  0  0  0  0  0  0  0  0  0  0  0
   46.1400    7.9800   43.2400 C   0  0  0  0  0  0  0  0  0  0  0  0
   43.3600   12.2660   44.9860 H   0  0  0  0  0  0  0  0  0  0  0  0
   39.9850   12.8780   47.4460 H   0  0  0  0  0  0  0  0  0  0  0  0
   41.1250   14.8250   48.4960 H   0  0  0  0  0  0  0  0  0  0  0  0
   43.4140   15.4840   47.7650 H   0  0  0  0  0  0  0  0  0  0  0  0
   41.1580   10.3300   45.9900 H   0  0  0  0  0  0  0  0  0  0  0  0
   34.3600   11.1970   45.0750 H   0  0  0  0  0  0  0  0  0  0  0  0
   34.3610   12.5000   47.4120 H   0  0  0  0  0  0  0  0  0  0  0  0
   36.8240   12.4450   48.3440 H   0  0  0  0  0  0  0  0  0  0  0  0
   41.5210    9.5020   43.0040 H   0  0  0  0  0  0  0  0  0  0  0  0
   42.1200   10.9480   42.1940 H   0  0  0  0  0  0  0  0  0  0  0  0
   43.2080    9.9740   44.9100 H   0  0  0  0  0  0  0  0  0  0  0  0
   43.9470   11.1270   43.6770 H   0  0  0  0  0  0  0  0  0  0  0  0
   44.4300    9.2300   42.2040 H   0  0  0  0  0  0  0  0  0  0  0  0
   43.1220    8.2840   42.9520 H   0  0  0  0  0  0  0  0  0  0  0  0
   45.2560    9.0490   44.6750 H   0  0  0  0  0  0  0  0  0  0  0  0
   44.9040    7.1990   45.7520 H   0  0  0  0  0  0  0  0  0  0  0  0
   43.3500    7.4560   44.9360 H   0  0  0  0  0  0  0  0  0  0  0  0
   44.4540    5.1320   44.9560 H   0  0  0  0  0  0  0  0  0  0  0  0
   43.6330    5.6370   43.4760 H   0  0  0  0  0  0  0  0  0  0  0  0
   47.1530    6.3850   42.2860 H   0  0  0  0  0  0  0  0  0  0  0  0
   45.5150    6.6630   41.6630 H   0  0  0  0  0  0  0  0  0  0  0  0
   47.0090    7.9280   43.9650 H   0  0  0  0  0  0  0  0  0  0  0  0
   46.4230    8.7400   42.5180 H   0  0  0  0  0  0  0  0  0  0  0  0
  1  2  1  0  0  0  0
  2  7  1  0  0  0  0
  3  4  1  0  0  0  0
  3  2  2  0  0  0  0
  4  5  2  0  0  0  0
  5 32  1  0  0  0  0
  5  6  1  0  0  0  0
  6 33  1  0  0  0  0
  7  6  2  0  0  0  0
  7 34  1  0  0  0  0
  8 14  1  0  0  0  0
  8 35  1  1  0  0  0
  8  4  1  0  0  0  0
  9  8  1  0  0  0  0
 10  9  1  0  0  0  0
 10 12  1  0  0  0  0
 11 10  2  0  0  0  0
 12 13  2  0  0  0  0
 12 14  1  0  0  0  0
 14 15  2  0  0  0  0
 15 16  1  0  0  0  0
 17 15  1  0  0  0  0
 17 21  2  0  0  0  0
 18 19  1  0  0  0  0
 18 17  1  0  0  0  0
 19 20  2  0  0  0  0
 20 37  1  0  0  0  0
 20 21  1  0  0  0  0
 21 38  1  0  0  0  0
 22 23  1  0  0  0  0
 22  9  1  0  0  0  0
 23 41  1  0  0  0  0
 24 23  1  0  0  0  0
 24 25  1  0  0  0  0
 25 45  1  0  0  0  0
 25 26  1  0  0  0  0
 26 47  1  0  0  0  0
 26 46  1  0  0  0  0
 27 26  1  0  0  0  0
 27 48  1  0  0  0  0
 28 27  1  0  0  0  0
 29 30  1  0  0  0  0
 29 28  1  0  0  0  0
 30 25  1  0  0  0  0
 30 52  1  0  0  0  0
 31  3  1  0  0  0  0
 36 19  1  0  0  0  0
 39 22  1  0  0  0  0
 40 22  1  0  0  0  0
 42 23  1  0  0  0  0
 43 24  1  0  0  0  0
 44 24  1  0  0  0  0
 49 27  1  0  0  0  0
 50 29  1  0  0  0  0
 51 29  1  0  0  0  0
 53 30  1  0  0  0  0
M  END
>  <Pose>
1

>  <Score>
-5.73

$$$$
