
 OpenBabel03172210433D

 38 41  0  0  1  0  0  0  0  0999 V2000
   39.9520   12.8860   43.7880 B   0  0  0  0  0  0  0  0  0  0  0  0
   40.7770   11.5710   44.8940 C   0  0  0  0  0  0  0  0  0  0  0  0
   40.9130   10.2670   44.4800 C   0  0  0  0  0  0  0  0  0  0  0  0
   41.5150    9.2760   45.2690 C   0  0  0  0  0  0  0  0  0  0  0  0
   41.9690    9.6750   46.4950 C   0  0  0  0  0  0  0  0  0  0  0  0
   41.8260   11.0020   46.9060 C   0  0  0  0  0  0  0  0  0  0  0  0
   41.2390   11.9420   46.1210 C   0  0  0  0  0  0  0  0  0  0  0  0
   41.6130    7.9640   44.7660 N   0  0  0  0  0  0  0  0  0  0  0  0
   42.7990    7.2210   44.6600 C   0  0  0  0  0  0  0  0  0  0  0  0
   42.8890    5.9860   44.7200 O   0  0  0  0  0  0  0  0  0  0  0  0
   44.1020    7.9470   44.4580 C   0  0  2  0  0  0  0  0  0  0  0  0
   44.6030    7.9170   43.0380 C   0  0  0  0  0  0  0  0  0  0  0  0
   45.4710    6.7690   43.3370 N   0  0  2  0  0  0  0  0  0  0  0  0
   45.3240    7.1220   44.7370 C   0  0  0  0  0  0  0  0  0  0  0  0
   46.1240    5.7940   42.5350 C   0  0  1  0  0  0  0  0  0  0  0  0
   45.8360    5.6320   41.2170 N   0  0  0  0  0  0  0  0  0  0  0  0
   46.4780    4.6890   40.4680 C   0  0  0  0  0  0  0  0  0  0  0  0
   47.4100    3.8950   41.0040 N   0  0  0  0  0  0  0  0  0  0  0  0
   47.7420    3.9990   42.2920 C   0  0  0  0  0  0  0  0  0  0  0  0
   48.6300    3.3300   43.0560 N   0  0  0  0  0  0  0  0  0  0  0  0
   48.5440    3.8470   44.2620 N   0  0  0  0  0  0  0  0  0  0  0  0
   47.6300    4.8230   44.2900 N   0  0  0  0  0  0  0  0  0  0  0  0
   47.0920    4.9530   43.0480 C   0  0  0  0  0  0  0  0  0  0  0  0
   49.5240    2.2460   42.6580 C   0  0  0  0  0  0  0  0  0  0  0  0
   40.5380    9.9970   43.4990 H   0  0  0  0  0  0  0  0  0  0  0  0
   42.4510    8.9670   47.1750 H   0  0  0  0  0  0  0  0  0  0  0  0
   42.2090   11.2660   47.9010 H   0  0  0  0  0  0  0  0  0  0  0  0
   41.1390   12.9710   46.4650 H   0  0  0  0  0  0  0  0  0  0  0  0
   40.6840    7.5080   44.4380 H   0  0  0  0  0  0  0  0  0  0  0  0
   44.0950    8.9770   44.8540 H   0  0  0  0  0  0  0  0  0  0  0  0
   43.8680    7.5900   42.2720 H   0  0  0  0  0  0  0  0  0  0  0  0
   45.2210    8.7650   42.7280 H   0  0  0  0  0  0  0  0  0  0  0  0
   45.1110    6.2650   45.4100 H   0  0  0  0  0  0  0  0  0  0  0  0
   46.2030    7.6910   45.0720 H   0  0  0  0  0  0  0  0  0  0  0  0
   46.1980    4.6180   39.4280 H   0  0  0  0  0  0  0  0  0  0  0  0
   50.4430    2.2360   43.2660 H   0  0  0  0  0  0  0  0  0  0  0  0
   49.8710    2.3930   41.5940 H   0  0  0  0  0  0  0  0  0  0  0  0
   49.0350    1.2700   42.6830 H   0  0  0  0  0  0  0  0  0  0  0  0
  1  2  1  0  0  0  0
  2  7  1  0  0  0  0
  3  2  2  0  0  0  0
  3  4  1  0  0  0  0
  4  5  2  0  0  0  0
  5  6  1  0  0  0  0
  5 26  1  0  0  0  0
  6 27  1  0  0  0  0
  7 28  1  0  0  0  0
  7  6  2  0  0  0  0
  8  4  1  0  0  0  0
  9 10  2  0  0  0  0
  9  8  1  0  0  0  0
 11  9  1  0  0  0  0
 11 14  1  0  0  0  0
 11 30  1  1  0  0  0
 12 11  1  0  0  0  0
 13 12  1  6  0  0  0
 13 14  1  0  0  0  0
 14 34  1  0  0  0  0
 14 33  1  0  0  0  0
 15 16  1  6  0  0  0
 15 23  1  0  0  0  0
 15 13  1  0  0  0  0
 17 18  1  0  0  0  0
 17 16  2  0  0  0  0
 18 19  1  0  0  0  0
 19 23  2  0  0  0  0
 19 20  1  0  0  0  0
 20 21  1  0  0  0  0
 21 22  2  0  0  0  0
 23 22  1  0  0  0  0
 24 38  1  0  0  0  0
 24 20  1  0  0  0  0
 24 36  1  0  0  0  0
 25  3  1  0  0  0  0
 29  8  1  0  0  0  0
 31 12  1  0  0  0  0
 32 12  1  0  0  0  0
 35 17  1  0  0  0  0
 37 24  1  0  0  0  0
M  END
>  <Pose>
1

>  <Score>
-6.92

$$$$
