
 OpenBabel03172210433D

 25 28  0  0  1  0  0  0  0  0999 V2000
   41.9650   10.7190   42.7070 B   0  0  0  0  0  0  0  0  0  0  0  0
   42.7910    9.1180   43.3320 C   0  0  0  0  0  0  0  0  0  0  0  0
   44.1680    8.9810   43.3840 C   0  0  0  0  0  0  0  0  0  0  0  0
   44.8300    7.8650   43.8190 C   0  0  0  0  0  0  0  0  0  0  0  0
   43.9830    6.8150   44.2310 C   0  0  0  0  0  0  0  0  0  0  0  0
   42.6140    6.9150   44.1930 C   0  0  0  0  0  0  0  0  0  0  0  0
   42.0110    8.0680   43.7440 C   0  0  0  0  0  0  0  0  0  0  0  0
   46.2280    7.6850   43.8880 N   0  0  0  0  0  0  0  0  0  0  0  0
   46.8980    6.4730   43.5980 C   0  0  1  0  0  0  0  0  0  0  0  0
   46.7490    5.7110   42.5210 N   0  0  0  0  0  0  0  0  0  0  0  0
   47.4090    4.5640   42.2850 C   0  0  0  0  0  0  0  0  0  0  0  0
   47.4360    3.6400   41.3090 N   0  0  0  0  0  0  0  0  0  0  0  0
   48.2800    2.6940   41.5790 O   0  0  0  0  0  0  0  0  0  0  0  0
   48.8150    2.9670   42.7160 N   0  0  0  0  0  0  0  0  0  0  0  0
   48.3280    4.1120   43.2210 C   0  0  0  0  0  0  0  0  0  0  0  0
   48.5150    4.8500   44.3260 N   0  0  0  0  0  0  0  0  0  0  0  0
   49.3310    4.6290   45.3530 N   0  0  0  0  0  0  0  0  0  0  0  0
   49.1650    5.6440   46.2150 N   0  0  0  0  0  0  0  0  0  0  0  0
   48.2510    6.4720   45.7050 N   0  0  0  0  0  0  0  0  0  0  0  0
   47.8380    5.9900   44.5300 C   0  0  0  0  0  0  0  0  0  0  0  0
   44.7210    9.8310   43.0510 H   0  0  0  0  0  0  0  0  0  0  0  0
   44.4220    5.9020   44.5870 H   0  0  0  0  0  0  0  0  0  0  0  0
   41.9750    6.0960   44.5140 H   0  0  0  0  0  0  0  0  0  0  0  0
   40.9380    8.1530   43.7120 H   0  0  0  0  0  0  0  0  0  0  0  0
   46.7880    8.5360   44.1820 H   0  0  0  0  0  0  0  0  0  0  0  0
  1  2  1  0  0  0  0
  2  3  2  0  0  0  0
  2  7  1  0  0  0  0
  3  4  1  0  0  0  0
  4  8  1  0  0  0  0
  4  5  2  0  0  0  0
  5 22  1  0  0  0  0
  6  5  1  0  0  0  0
  6 23  1  0  0  0  0
  7  6  2  0  0  0  0
  8 25  1  0  0  0  0
  9  8  1  6  0  0  0
  9 20  1  0  0  0  0
 10  9  1  0  0  0  0
 11 10  2  0  0  0  0
 11 15  1  0  0  0  0
 12 13  1  0  0  0  0
 12 11  1  0  0  0  0
 13 14  1  0  0  0  0
 14 15  2  0  0  0  0
 15 16  1  0  0  0  0
 16 20  1  0  0  0  0
 16 17  1  0  0  0  0
 17 18  2  0  0  0  0
 19 18  1  0  0  0  0
 20 19  2  0  0  0  0
 21  3  1  0  0  0  0
 24  7  1  0  0  0  0
M  END
>  <Pose>
1

>  <Score>
-7.32

$$$$
