
 OpenBabel03172210433D

 33 36  0  0  1  0  0  0  0  0999 V2000
   46.7260    6.8900   43.2660 B   0  0  0  0  0  0  0  0  0  0  0  0
   44.8900    7.1470   43.7210 C   0  0  0  0  0  0  0  0  0  0  0  0
   44.3150    8.3660   43.5530 C   0  0  0  0  0  0  0  0  0  0  0  0
   42.9930    8.6610   43.8500 C   0  0  0  0  0  0  0  0  0  0  0  0
   42.2370    7.6250   44.3490 C   0  0  0  0  0  0  0  0  0  0  0  0
   42.7980    6.3590   44.5350 C   0  0  0  0  0  0  0  0  0  0  0  0
   44.1190    6.1160   44.2230 C   0  0  0  0  0  0  0  0  0  0  0  0
   42.4390    9.9820   43.6500 N   0  0  0  0  0  0  0  0  0  0  0  0
   41.1390   10.2920   43.1690 C   0  0  0  0  0  0  0  0  0  0  0  0
   40.4360    9.5250   42.4130 O   0  0  0  0  0  0  0  0  0  0  0  0
   40.7440   11.6140   43.6770 C   0  0  1  0  0  0  0  0  0  0  0  0
   39.9800   11.4200   44.9500 C   0  0  1  0  0  0  0  0  0  0  0  0
   41.0340   10.9990   45.8000 O   0  0  0  0  0  0  0  0  0  0  0  0
   41.8110   12.1820   45.6810 C   0  0  1  0  0  0  0  0  0  0  0  0
   42.0300   12.2090   44.1800 C   0  0  1  0  0  0  0  0  0  0  0  0
   43.0870   11.2190   43.8910 C   0  0  0  0  0  0  0  0  0  0  0  0
   44.3250   11.4490   43.8690 O   0  0  0  0  0  0  0  0  0  0  0  0
   40.8030   13.1880   46.0830 C   0  0  0  0  0  0  0  0  0  0  0  0
   39.6320   12.6940   45.6370 C   0  0  0  0  0  0  0  0  0  0  0  0
   38.8610   10.4520   44.8800 C   0  0  0  0  0  0  0  0  0  0  0  0
   37.6630   11.1590   44.7710 O   0  0  0  0  0  0  0  0  0  0  0  0
   44.9280    9.1820   43.1560 H   0  0  0  0  0  0  0  0  0  0  0  0
   41.2040    7.7720   44.6040 H   0  0  0  0  0  0  0  0  0  0  0  0
   42.2310    5.5260   44.9230 H   0  0  0  0  0  0  0  0  0  0  0  0
   44.6000    5.1640   44.3450 H   0  0  0  0  0  0  0  0  0  0  0  0
   40.2220   12.2470   42.9370 H   0  0  0  0  0  0  0  0  0  0  0  0
   42.7110   12.1590   46.2690 H   0  0  0  0  0  0  0  0  0  0  0  0
   42.2440   13.2130   43.7880 H   0  0  0  0  0  0  0  0  0  0  0  0
   40.9350   14.1210   46.6160 H   0  0  0  0  0  0  0  0  0  0  0  0
   38.6590   13.1590   45.7700 H   0  0  0  0  0  0  0  0  0  0  0  0
   38.9100    9.7970   43.9870 H   0  0  0  0  0  0  0  0  0  0  0  0
   38.8070    9.8110   45.7640 H   0  0  0  0  0  0  0  0  0  0  0  0
   37.2360   10.9790   43.8960 H   0  0  0  0  0  0  0  0  0  0  0  0
  1  2  1  0  0  0  0
  2  7  1  0  0  0  0
  3  2  2  0  0  0  0
  3  4  1  0  0  0  0
  4  5  2  0  0  0  0
  5  6  1  0  0  0  0
  5 23  1  0  0  0  0
  6 24  1  0  0  0  0
  7 25  1  0  0  0  0
  7  6  2  0  0  0  0
  8  4  1  0  0  0  0
  8 16  1  0  0  0  0
  9  8  1  0  0  0  0
  9 11  1  0  0  0  0
 10  9  2  0  0  0  0
 11 26  1  6  0  0  0
 11 15  1  0  0  0  0
 11 12  1  0  0  0  0
 12 20  1  6  0  0  0
 12 19  1  0  0  0  0
 12 13  1  0  0  0  0
 14 13  1  0  0  0  0
 14 18  1  0  0  0  0
 14 27  1  1  0  0  0
 15 28  1  6  0  0  0
 15 14  1  0  0  0  0
 16 15  1  0  0  0  0
 17 16  2  0  0  0  0
 18 29  1  0  0  0  0
 19 30  1  0  0  0  0
 19 18  2  0  0  0  0
 20 32  1  0  0  0  0
 21 20  1  0  0  0  0
 22  3  1  0  0  0  0
 31 20  1  0  0  0  0
 33 21  1  0  0  0  0
M  END
>  <Pose>
1

>  <Score>
-4.55

$$$$
