
 OpenBabel03172210433D

 50 53  0  0  0  0  0  0  0  0999 V2000
   40.4140   10.4780   43.1850 B   0  0  0  0  0  0  0  0  0  0  0  0
   41.8960    9.3180   43.4580 C   0  0  0  0  0  0  0  0  0  0  0  0
   41.6910    7.9710   43.7170 C   0  0  0  0  0  0  0  0  0  0  0  0
   42.7500    7.1020   43.9200 C   0  0  0  0  0  0  0  0  0  0  0  0
   44.0520    7.5350   43.8760 C   0  0  0  0  0  0  0  0  0  0  0  0
   44.2440    8.8800   43.6170 C   0  0  0  0  0  0  0  0  0  0  0  0
   43.2020    9.7550   43.4130 C   0  0  0  0  0  0  0  0  0  0  0  0
   45.1720    6.6200   44.0870 C   0  0  0  0  0  0  0  0  0  0  0  0
   44.9260    5.4270   44.3270 O   0  0  0  0  0  0  0  0  0  0  0  0
   46.5840    7.1100   44.0160 C   0  0  0  0  0  0  0  0  0  0  0  0
   47.5500    6.0900   44.3100 N   0  0  0  0  0  0  0  0  0  0  0  0
   47.8610    5.0210   43.5580 C   0  0  0  0  0  0  0  0  0  0  0  0
   48.8340    4.2720   44.1910 C   0  0  0  0  0  0  0  0  0  0  0  0
   49.0860    4.9250   45.3320 N   0  0  0  0  0  0  0  0  0  0  0  0
   48.3240    6.0280   45.4310 C   0  0  0  0  0  0  0  0  0  0  0  0
   48.2760    6.9850   46.4740 N   0  0  0  0  0  0  0  0  0  0  0  0
   48.3050    8.3730   46.1430 C   0  0  0  0  0  0  0  0  0  0  0  0
   47.9020    9.3300   47.2010 C   0  0  0  0  0  0  0  0  0  0  0  0
   48.0570    8.8720   48.5500 N   0  0  0  0  0  0  0  0  0  0  0  0
   47.4100    7.5790   48.6610 C   0  0  0  0  0  0  0  0  0  0  0  0
   48.1940    6.5560   47.8360 C   0  0  0  0  0  0  0  0  0  0  0  0
   49.4200    8.8540   49.0010 C   0  0  0  0  0  0  0  0  0  0  0  0
   49.3010    3.1470   43.6180 N   0  0  0  0  0  0  0  0  0  0  0  0
   48.8300    2.7380   42.4270 C   0  0  0  0  0  0  0  0  0  0  0  0
   49.2380    1.6950   41.8570 O   0  0  0  0  0  0  0  0  0  0  0  0
   47.8710    3.4660   41.7920 N   0  0  0  0  0  0  0  0  0  0  0  0
   47.3730    4.5970   42.3240 C   0  0  0  0  0  0  0  0  0  0  0  0
   46.4770    5.2520   41.6980 O   0  0  0  0  0  0  0  0  0  0  0  0
   50.3220    2.3410   44.2550 C   0  0  0  0  0  0  0  0  0  0  0  0
   40.6600    7.6240   43.7520 H   0  0  0  0  0  0  0  0  0  0  0  0
   42.5540    6.0400   44.1230 H   0  0  0  0  0  0  0  0  0  0  0  0
   45.2700    9.2420   43.5770 H   0  0  0  0  0  0  0  0  0  0  0  0
   43.3790   10.7970   43.2140 H   0  0  0  0  0  0  0  0  0  0  0  0
   46.7600    7.6030   43.0360 H   0  0  0  0  0  0  0  0  0  0  0  0
   46.6720    7.9180   44.7670 H   0  0  0  0  0  0  0  0  0  0  0  0
   49.3640    8.5890   45.8360 H   0  0  0  0  0  0  0  0  0  0  0  0
   47.6740    8.5660   45.2420 H   0  0  0  0  0  0  0  0  0  0  0  0
   46.8530    9.6900   47.0640 H   0  0  0  0  0  0  0  0  0  0  0  0
   48.5830   10.2330   47.1200 H   0  0  0  0  0  0  0  0  0  0  0  0
   46.4220    7.6780   48.1510 H   0  0  0  0  0  0  0  0  0  0  0  0
   47.2680    7.2110   49.6700 H   0  0  0  0  0  0  0  0  0  0  0  0
   49.1990    6.3820   48.2960 H   0  0  0  0  0  0  0  0  0  0  0  0
   47.6420    5.6030   47.9700 H   0  0  0  0  0  0  0  0  0  0  0  0
   50.0950    8.6810   48.1140 H   0  0  0  0  0  0  0  0  0  0  0  0
   49.6140    8.0780   49.7660 H   0  0  0  0  0  0  0  0  0  0  0  0
   49.7440    9.8270   49.4170 H   0  0  0  0  0  0  0  0  0  0  0  0
   47.5310    3.1130   40.8680 H   0  0  0  0  0  0  0  0  0  0  0  0
   51.2860    2.8640   44.0820 H   0  0  0  0  0  0  0  0  0  0  0  0
   50.1440    2.3330   45.3490 H   0  0  0  0  0  0  0  0  0  0  0  0
   50.3480    1.3190   43.8290 H   0  0  0  0  0  0  0  0  0  0  0  0
  1  2  1  0  0  0  0
  2  3  1  0  0  0  0
  3 30  1  0  0  0  0
  3  4  2  0  0  0  0
  4 31  1  0  0  0  0
  5  4  1  0  0  0  0
  5  8  1  0  0  0  0
  6  5  2  0  0  0  0
  7  2  2  0  0  0  0
  7  6  1  0  0  0  0
  8  9  2  0  0  0  0
 10  8  1  0  0  0  0
 10 11  1  0  0  0  0
 10 35  1  0  0  0  0
 11 15  1  0  0  0  0
 12 13  2  0  0  0  0
 12 11  1  0  0  0  0
 13 14  1  0  0  0  0
 14 15  2  0  0  0  0
 15 16  1  0  0  0  0
 16 21  1  0  0  0  0
 17 16  1  0  0  0  0
 17 18  1  0  0  0  0
 18 19  1  0  0  0  0
 19 20  1  0  0  0  0
 19 22  1  0  0  0  0
 20 41  1  0  0  0  0
 21 43  1  0  0  0  0
 21 42  1  0  0  0  0
 21 20  1  0  0  0  0
 22 46  1  0  0  0  0
 22 45  1  0  0  0  0
 23 13  1  0  0  0  0
 23 29  1  0  0  0  0
 24 23  1  0  0  0  0
 25 24  2  0  0  0  0
 26 27  1  0  0  0  0
 26 24  1  0  0  0  0
 27 12  1  0  0  0  0
 28 27  2  0  0  0  0
 29 49  1  0  0  0  0
 32  6  1  0  0  0  0
 33  7  1  0  0  0  0
 34 10  1  0  0  0  0
 36 17  1  0  0  0  0
 37 17  1  0  0  0  0
 38 18  1  0  0  0  0
 39 18  1  0  0  0  0
 40 20  1  0  0  0  0
 44 22  1  0  0  0  0
 47 26  1  0  0  0  0
 48 29  1  0  0  0  0
 50 29  1  0  0  0  0
M  END
>  <Pose>
1

>  <Score>
-6.54

$$$$
