
 OpenBabel03172210433D

 58 61  0  0  1  0  0  0  0  0999 V2000
   34.1890   11.1410   44.9340 B   0  0  0  0  0  0  0  0  0  0  0  0
   36.0510   11.3500   45.2360 C   0  0  0  0  0  0  0  0  0  0  0  0
   36.8430   10.2280   45.2960 C   0  0  0  0  0  0  0  0  0  0  0  0
   38.1890   10.3650   45.5130 C   0  0  0  0  0  0  0  0  0  0  0  0
   38.7870   11.6190   45.6770 C   0  0  0  0  0  0  0  0  0  0  0  0
   37.9370   12.7040   45.6070 C   0  0  0  0  0  0  0  0  0  0  0  0
   36.5750   12.6060   45.3890 C   0  0  0  0  0  0  0  0  0  0  0  0
   40.2170   11.7370   45.9000 C   0  0  0  0  0  0  0  0  0  0  0  0
   40.6180   12.3030   46.9380 O   0  0  0  0  0  0  0  0  0  0  0  0
   41.1500   11.2020   44.9260 C   0  0  2  0  0  0  0  0  0  0  0  0
   41.5200    9.7520   45.1180 C   0  0  1  0  0  0  0  0  0  0  0  0
   42.6710    9.6140   44.2560 N   0  0  0  0  0  0  0  0  0  0  0  0
   43.3600   10.8590   44.3060 C   0  0  0  0  0  0  0  0  0  0  0  0
   44.4980   11.0990   43.7980 O   0  0  0  0  0  0  0  0  0  0  0  0
   42.5220   11.8190   45.0510 C   0  0  0  0  0  0  0  0  0  0  0  0
   42.8910   12.8580   45.6210 O   0  0  0  0  0  0  0  0  0  0  0  0
   43.1080    8.4880   43.4690 C   0  0  0  0  0  0  0  0  0  0  0  0
   44.5820    8.4840   43.1960 C   0  0  0  0  0  0  0  0  0  0  0  0
   45.3810    7.8510   44.1720 N   0  0  0  0  0  4  0  0  0  0  0  0
   46.6720    7.5210   43.5580 C   0  0  0  0  0  0  0  0  0  0  0  0
   46.5660    6.4180   42.5580 C   0  0  0  0  0  0  0  0  0  0  0  0
   45.3910    5.7080   42.6060 O   0  0  0  0  0  0  0  0  0  0  0  0
   45.0280    5.4300   43.9010 C   0  0  0  0  0  0  0  0  0  0  0  0
   44.8640    6.6620   44.7500 C   0  0  0  0  0  0  0  0  0  0  0  0
   41.7560    9.3680   46.5010 C   0  0  0  0  0  0  0  0  0  0  0  0
   40.7430    8.8290   47.3070 C   0  0  0  0  0  0  0  0  0  0  0  0
   40.9750    8.4640   48.6170 C   0  0  0  0  0  0  0  0  0  0  0  0
   42.2250    8.6140   49.1880 C   0  0  0  0  0  0  0  0  0  0  0  0
   43.2370    9.1410   48.4130 C   0  0  0  0  0  0  0  0  0  0  0  0
   42.9870    9.5040   47.0990 C   0  0  0  0  0  0  0  0  0  0  0  0
   42.4870    8.2540   50.5040 O   0  0  0  0  0  0  0  0  0  0  0  0
   39.9800    7.9320   49.4180 O   0  0  0  0  0  0  0  0  0  0  0  0
   38.8080    8.6240   49.7650 C   0  0  0  0  0  0  0  0  0  0  0  0
   36.3800    9.2670   45.1700 H   0  0  0  0  0  0  0  0  0  0  0  0
   38.8560    9.5170   45.5690 H   0  0  0  0  0  0  0  0  0  0  0  0
   38.3200   13.7090   45.7190 H   0  0  0  0  0  0  0  0  0  0  0  0
   35.9310   13.4580   45.3370 H   0  0  0  0  0  0  0  0  0  0  0  0
   40.8490   11.3660   43.8690 H   0  0  0  0  0  0  0  0  0  0  0  0
   40.6490    9.1670   44.7490 H   0  0  0  0  0  0  0  0  0  0  0  0
   42.5960    8.5850   42.4740 H   0  0  0  0  0  0  0  0  0  0  0  0
   42.8230    7.5190   43.8770 H   0  0  0  0  0  0  0  0  0  0  0  0
   44.9700    9.5360   43.0620 H   0  0  0  0  0  0  0  0  0  0  0  0
   44.7340    8.0000   42.2090 H   0  0  0  0  0  0  0  0  0  0  0  0
   45.6240    8.5170   44.9570 H   0  0  0  0  0  0  0  0  0  0  0  0
   47.1820    8.4230   43.1720 H   0  0  0  0  0  0  0  0  0  0  0  0
   47.3110    7.1420   44.4030 H   0  0  0  0  0  0  0  0  0  0  0  0
   46.6390    6.8690   41.5380 H   0  0  0  0  0  0  0  0  0  0  0  0
   47.4000    5.6670   42.6720 H   0  0  0  0  0  0  0  0  0  0  0  0
   44.0850    4.8090   43.8830 H   0  0  0  0  0  0  0  0  0  0  0  0
   45.8020    4.7260   44.3130 H   0  0  0  0  0  0  0  0  0  0  0  0
   43.8070    6.7120   45.0680 H   0  0  0  0  0  0  0  0  0  0  0  0
   45.4470    6.4700   45.6990 H   0  0  0  0  0  0  0  0  0  0  0  0
   39.7580    8.7100   46.8590 H   0  0  0  0  0  0  0  0  0  0  0  0
   44.2100    9.2550   48.8710 H   0  0  0  0  0  0  0  0  0  0  0  0
   43.7970    9.9030   46.5440 H   0  0  0  0  0  0  0  0  0  0  0  0
   39.0280    9.6550   50.1460 H   0  0  0  0  0  0  0  0  0  0  0  0
   38.3330    8.0930   50.6180 H   0  0  0  0  0  0  0  0  0  0  0  0
   38.0670    8.6890   48.9590 H   0  0  0  0  0  0  0  0  0  0  0  0
  1  2  1  0  0  0  0
  2  3  2  0  0  0  0
  2  7  1  0  0  0  0
  3  4  1  0  0  0  0
  4 35  1  0  0  0  0
  4  5  2  0  0  0  0
  5  8  1  0  0  0  0
  6  5  1  0  0  0  0
  6 36  1  0  0  0  0
  7  6  2  0  0  0  0
  8  9  2  0  0  0  0
 10 38  1  6  0  0  0
 10 15  1  0  0  0  0
 10 11  1  0  0  0  0
 10  8  1  0  0  0  0
 11 39  1  6  0  0  0
 11 25  1  0  0  0  0
 12 13  1  0  0  0  0
 12 11  1  0  0  0  0
 13 15  1  0  0  0  0
 14 13  2  0  0  0  0
 15 16  2  0  0  0  0
 17 41  1  0  0  0  0
 17 12  1  0  0  0  0
 18 17  1  0  0  0  0
 18 19  1  0  0  0  0
 19 24  1  0  0  0  0
 19 44  1  0  0  0  0
 20 19  1  0  0  0  0
 20 46  1  0  0  0  0
 21 22  1  0  0  0  0
 21 48  1  0  0  0  0
 21 20  1  0  0  0  0
 22 23  1  0  0  0  0
 23 50  1  0  0  0  0
 23 24  1  0  0  0  0
 24 51  1  0  0  0  0
 24 52  1  0  0  0  0
 25 30  2  0  0  0  0
 25 26  1  0  0  0  0
 26 27  2  0  0  0  0
 27 28  1  0  0  0  0
 27 32  1  0  0  0  0
 28 31  1  0  0  0  0
 29 54  1  0  0  0  0
 29 28  2  0  0  0  0
 30 29  1  0  0  0  0
 32 33  1  0  0  0  0
 33 56  1  0  0  0  0
 33 57  1  0  0  0  0
 34  3  1  0  0  0  0
 37  7  1  0  0  0  0
 40 17  1  0  0  0  0
 42 18  1  0  0  0  0
 43 18  1  0  0  0  0
 45 20  1  0  0  0  0
 47 21  1  0  0  0  0
 49 23  1  0  0  0  0
 53 26  1  0  0  0  0
 55 30  1  0  0  0  0
 58 33  1  0  0  0  0
M  END
>  <Pose>
1

>  <Score>
-4.61

$$$$
