
 OpenBabel03172210433D

 48 51  0  0  1  0  0  0  0  0999 V2000
   51.1350    1.1940   43.7160 B   0  0  0  0  0  0  0  0  0  0  0  0
   49.7140    2.4350   43.4900 C   0  0  0  0  0  0  0  0  0  0  0  0
   49.4250    3.4300   44.4020 C   0  0  0  0  0  0  0  0  0  0  0  0
   48.3850    4.3150   44.2070 C   0  0  0  0  0  0  0  0  0  0  0  0
   47.5760    4.2530   43.0920 C   0  0  0  0  0  0  0  0  0  0  0  0
   47.8640    3.2600   42.1830 C   0  0  0  0  0  0  0  0  0  0  0  0
   48.8970    2.3740   42.3660 C   0  0  0  0  0  0  0  0  0  0  0  0
   46.4680    5.1960   42.8850 C   0  0  0  0  0  0  0  0  0  0  0  0
   45.9890    5.2390   41.7020 O   0  0  0  0  0  0  0  0  0  0  0  0
   45.9470    6.0070   43.8970 N   0  0  0  0  0  0  0  0  0  0  0  0
   45.6790    7.4020   43.6630 C   0  0  2  0  0  0  0  0  0  0  0  0
   45.5880    8.1940   44.9450 C   0  0  0  0  0  0  0  0  0  0  0  0
   44.1780    8.1910   45.2670 N   0  0  0  0  0  0  0  0  0  0  0  0
   43.3990    7.8540   44.0870 C   0  0  1  0  0  0  0  0  0  0  0  0
   44.3410    7.5120   42.9860 C   0  0  0  0  0  0  0  0  0  0  0  0
   42.5200    6.7310   44.4850 C   0  0  0  0  0  0  0  0  0  0  0  0
   42.4540    5.7150   43.7570 O   0  0  0  0  0  0  0  0  0  0  0  0
   41.7830    6.8530   45.6870 N   0  0  0  0  0  0  0  0  0  0  0  0
   42.1030    7.7990   46.7320 C   0  0  1  0  0  0  0  0  0  0  0  0
   43.4190    8.4380   46.4440 C   0  0  0  0  0  0  0  0  0  0  0  0
   43.9230    9.2610   47.2900 O   0  0  0  0  0  0  0  0  0  0  0  0
   40.9980    8.8120   46.9120 C   0  0  0  0  0  0  0  0  0  0  0  0
   41.0070    9.8270   45.8210 C   0  0  0  0  0  0  0  0  0  0  0  0
   40.8400    9.4380   44.4910 C   0  0  0  0  0  0  0  0  0  0  0  0
   40.8560   10.4190   43.5240 C   0  0  0  0  0  0  0  0  0  0  0  0
   41.0280   11.7620   43.8130 C   0  0  0  0  0  0  0  0  0  0  0  0
   41.1870   12.0950   45.1380 C   0  0  0  0  0  0  0  0  0  0  0  0
   41.1810   11.1590   46.1480 C   0  0  0  0  0  0  0  0  0  0  0  0
   50.0700    3.4730   45.2840 H   0  0  0  0  0  0  0  0  0  0  0  0
   48.2270    5.0540   44.9550 H   0  0  0  0  0  0  0  0  0  0  0  0
   47.2600    3.1730   41.2960 H   0  0  0  0  0  0  0  0  0  0  0  0
   49.1200    1.5850   41.6370 H   0  0  0  0  0  0  0  0  0  0  0  0
   45.7460    5.6160   44.8330 H   0  0  0  0  0  0  0  0  0  0  0  0
   46.5010    7.8310   43.0770 H   0  0  0  0  0  0  0  0  0  0  0  0
   46.2110    7.6910   45.6900 H   0  0  0  0  0  0  0  0  0  0  0  0
   45.9270    9.2330   44.8500 H   0  0  0  0  0  0  0  0  0  0  0  0
   42.8030    8.7410   43.7890 H   0  0  0  0  0  0  0  0  0  0  0  0
   44.0460    6.6040   42.4450 H   0  0  0  0  0  0  0  0  0  0  0  0
   44.3950    8.3420   42.2550 H   0  0  0  0  0  0  0  0  0  0  0  0
   40.9610    6.2030   45.7950 H   0  0  0  0  0  0  0  0  0  0  0  0
   42.2470    7.2200   47.6680 H   0  0  0  0  0  0  0  0  0  0  0  0
   41.0710    9.3180   47.8910 H   0  0  0  0  0  0  0  0  0  0  0  0
   40.0430    8.2560   46.8270 H   0  0  0  0  0  0  0  0  0  0  0  0
   40.7080    8.3880   44.2800 H   0  0  0  0  0  0  0  0  0  0  0  0
   40.7260   10.1320   42.4710 H   0  0  0  0  0  0  0  0  0  0  0  0
   41.0310   12.4890   43.0120 H   0  0  0  0  0  0  0  0  0  0  0  0
   41.3230   13.1550   45.3820 H   0  0  0  0  0  0  0  0  0  0  0  0
   41.3070   11.4290   47.1840 H   0  0  0  0  0  0  0  0  0  0  0  0
  2  1  1  0  0  0  0
  2  3  1  0  0  0  0
  3 29  1  0  0  0  0
  4  3  2  0  0  0  0
  4 30  1  0  0  0  0
  5  4  1  0  0  0  0
  6  7  1  0  0  0  0
  6  5  2  0  0  0  0
  7  2  2  0  0  0  0
  8  5  1  0  0  0  0
  8 10  1  0  0  0  0
  9  8  2  0  0  0  0
 10 33  1  0  0  0  0
 11 34  1  6  0  0  0
 11 10  1  0  0  0  0
 11 12  1  0  0  0  0
 12 13  1  0  0  0  0
 12 35  1  0  0  0  0
 13 20  1  0  0  0  0
 14 37  1  6  0  0  0
 14 16  1  0  0  0  0
 14 13  1  0  0  0  0
 15 11  1  0  0  0  0
 15 14  1  0  0  0  0
 16 18  1  0  0  0  0
 17 16  2  0  0  0  0
 18 40  1  0  0  0  0
 18 19  1  0  0  0  0
 19 22  1  0  0  0  0
 19 41  1  1  0  0  0
 20 19  1  0  0  0  0
 20 21  2  0  0  0  0
 22 42  1  0  0  0  0
 23 28  1  0  0  0  0
 23 22  1  0  0  0  0
 24 23  2  0  0  0  0
 25 26  2  0  0  0  0
 25 24  1  0  0  0  0
 26 27  1  0  0  0  0
 27 47  1  0  0  0  0
 27 28  2  0  0  0  0
 28 48  1  0  0  0  0
 31  6  1  0  0  0  0
 32  7  1  0  0  0  0
 36 12  1  0  0  0  0
 38 15  1  0  0  0  0
 39 15  1  0  0  0  0
 43 22  1  0  0  0  0
 44 24  1  0  0  0  0
 45 25  1  0  0  0  0
 46 26  1  0  0  0  0
M  END
>  <Pose>
1

>  <Score>
-6.63

$$$$
