
 OpenBabel03172210433D

 42 45  0  0  1  0  0  0  0  0999 V2000
   49.9860    2.6390   44.8780 B   0  0  0  0  0  0  0  0  0  0  0  0
   48.8780    4.1030   44.3970 C   0  0  0  0  0  0  0  0  0  0  0  0
   48.9500    5.2840   45.1170 C   0  0  0  0  0  0  0  0  0  0  0  0
   48.1690    6.3760   44.8110 C   0  0  0  0  0  0  0  0  0  0  0  0
   47.2780    6.3280   43.7610 C   0  0  0  0  0  0  0  0  0  0  0  0
   47.2030    5.1690   43.0490 C   0  0  0  0  0  0  0  0  0  0  0  0
   47.9840    4.0540   43.3440 C   0  0  0  0  0  0  0  0  0  0  0  0
   46.4560    7.5160   43.4600 C   0  0  0  0  0  0  0  0  0  0  0  0
   46.7430    8.2150   42.4660 O   0  0  0  0  0  0  0  0  0  0  0  0
   45.3540    7.8750   44.2770 N   0  0  0  0  0  0  0  0  0  0  0  0
   44.1390    7.1330   44.1890 C   0  0  2  0  0  0  0  0  0  0  0  0
   43.2820    7.5240   43.0090 C   0  0  0  0  0  0  0  0  0  0  0  0
   42.5490    8.6750   43.5060 N   0  0  0  0  0  0  0  0  0  0  0  0
   42.4460    8.5840   44.9490 C   0  0  1  0  0  0  0  0  0  0  0  0
   43.3040    7.4520   45.4050 C   0  0  0  0  0  0  0  0  0  0  0  0
   42.8800    9.8980   45.4880 C   0  0  0  0  0  0  0  0  0  0  0  0
   43.6710   10.0260   46.4510 O   0  0  0  0  0  0  0  0  0  0  0  0
   42.3900   11.0900   44.9020 N   0  0  0  0  0  0  0  0  0  0  0  0
   41.9630   11.1580   43.5190 C   0  0  2  0  0  0  0  0  0  0  0  0
   40.6180   11.7950   43.6700 C   0  0  0  0  0  0  0  0  0  0  0  0
   40.9020   12.8560   44.7410 C   0  0  0  0  0  0  0  0  0  0  0  0
   42.1920   12.4080   45.4350 C   0  0  0  0  0  0  0  0  0  0  0  0
   41.9420    9.8090   42.8990 C   0  0  0  0  0  0  0  0  0  0  0  0
   41.3610    9.6380   41.7720 O   0  0  0  0  0  0  0  0  0  0  0  0
   49.6300    5.3750   45.9470 H   0  0  0  0  0  0  0  0  0  0  0  0
   48.2320    7.3070   45.3870 H   0  0  0  0  0  0  0  0  0  0  0  0
   46.5360    5.0730   42.2310 H   0  0  0  0  0  0  0  0  0  0  0  0
   47.9140    3.1410   42.7700 H   0  0  0  0  0  0  0  0  0  0  0  0
   45.3970    8.6770   44.9550 H   0  0  0  0  0  0  0  0  0  0  0  0
   44.3730    6.0510   44.1790 H   0  0  0  0  0  0  0  0  0  0  0  0
   42.6020    6.6910   42.7840 H   0  0  0  0  0  0  0  0  0  0  0  0
   43.8940    7.7310   42.1360 H   0  0  0  0  0  0  0  0  0  0  0  0
   41.3860    8.4360   45.2820 H   0  0  0  0  0  0  0  0  0  0  0  0
   43.8960    7.6400   46.3010 H   0  0  0  0  0  0  0  0  0  0  0  0
   42.6660    6.5450   45.5950 H   0  0  0  0  0  0  0  0  0  0  0  0
   42.6120   11.8250   42.9150 H   0  0  0  0  0  0  0  0  0  0  0  0
   40.3080   12.2560   42.7250 H   0  0  0  0  0  0  0  0  0  0  0  0
   39.8590   11.0560   44.0450 H   0  0  0  0  0  0  0  0  0  0  0  0
   40.0590   12.9260   45.4580 H   0  0  0  0  0  0  0  0  0  0  0  0
   41.1010   13.8370   44.2900 H   0  0  0  0  0  0  0  0  0  0  0  0
   43.0290   13.0890   45.1890 H   0  0  0  0  0  0  0  0  0  0  0  0
   42.0580   12.4220   46.5340 H   0  0  0  0  0  0  0  0  0  0  0  0
  2  1  1  0  0  0  0
  2  3  1  0  0  0  0
  3 25  1  0  0  0  0
  4  3  2  0  0  0  0
  4 26  1  0  0  0  0
  5  4  1  0  0  0  0
  6  7  1  0  0  0  0
  6  5  2  0  0  0  0
  7  2  2  0  0  0  0
  8  5  1  0  0  0  0
  8 10  1  0  0  0  0
  9  8  2  0  0  0  0
 10 29  1  0  0  0  0
 11 30  1  6  0  0  0
 11 10  1  0  0  0  0
 11 15  1  0  0  0  0
 12 13  1  0  0  0  0
 12 11  1  0  0  0  0
 13 14  1  0  0  0  0
 14 33  1  1  0  0  0
 14 15  1  0  0  0  0
 14 16  1  0  0  0  0
 15 35  1  0  0  0  0
 15 34  1  0  0  0  0
 16 17  2  0  0  0  0
 18 22  1  0  0  0  0
 18 16  1  0  0  0  0
 19 36  1  6  0  0  0
 19 20  1  0  0  0  0
 19 18  1  0  0  0  0
 20 38  1  0  0  0  0
 20 21  1  0  0  0  0
 21 22  1  0  0  0  0
 21 39  1  0  0  0  0
 22 42  1  0  0  0  0
 23 13  1  0  0  0  0
 23 19  1  0  0  0  0
 24 23  2  0  0  0  0
 27  6  1  0  0  0  0
 28  7  1  0  0  0  0
 31 12  1  0  0  0  0
 32 12  1  0  0  0  0
 37 20  1  0  0  0  0
 40 21  1  0  0  0  0
 41 22  1  0  0  0  0
M  END
>  <Pose>
1

>  <Score>
-5.73

$$$$
