
 OpenBabel03172210433D

 53 56  0  0  1  0  0  0  0  0999 V2000
   34.2400   12.4000   44.1270 B   0  0  0  0  0  0  0  0  0  0  0  0
   35.9450   11.8000   44.7670 C   0  0  0  0  0  0  0  0  0  0  0  0
   36.1980   10.4640   44.9790 C   0  0  0  0  0  0  0  0  0  0  0  0
   37.4330   10.0370   45.4430 C   0  0  0  0  0  0  0  0  0  0  0  0
   38.4520   10.9240   45.7100 C   0  0  0  0  0  0  0  0  0  0  0  0
   38.1970   12.2600   45.4960 C   0  0  0  0  0  0  0  0  0  0  0  0
   36.9540   12.6960   45.0280 C   0  0  0  0  0  0  0  0  0  0  0  0
   39.7540   10.4700   46.1670 C   0  0  0  0  0  0  0  0  0  0  0  0
   40.8180   10.3350   45.4000 C   0  0  0  0  0  0  0  0  0  0  0  0
   42.1950    9.8780   45.7440 C   0  0  1  0  0  0  0  0  0  0  0  0
   42.6210    9.1740   44.5240 N   0  0  0  0  0  0  0  0  0  0  0  0
   42.0380    9.9030   43.4620 C   0  0  0  0  0  0  0  0  0  0  0  0
   42.4430    9.8960   42.2920 O   0  0  0  0  0  0  0  0  0  0  0  0
   40.8970   10.6520   43.9760 C   0  0  0  0  0  0  0  0  0  0  0  0
   40.0990   11.4280   43.3930 O   0  0  0  0  0  0  0  0  0  0  0  0
   43.4480    8.0230   44.5540 C   0  0  0  0  0  0  0  0  0  0  0  0
   44.9100    8.1980   44.5380 C   0  0  0  0  0  0  0  0  0  0  0  0
   45.5470    8.1250   43.2590 N   0  0  0  0  0  4  0  0  0  0  0  0
   45.0230    7.1600   42.3570 C   0  0  0  0  0  0  0  0  0  0  0  0
   45.9930    6.0020   42.2620 C   0  0  0  0  0  0  0  0  0  0  0  0
   46.5450    5.6720   43.4960 O   0  0  0  0  0  0  0  0  0  0  0  0
   47.3800    6.6610   43.9840 C   0  0  0  0  0  0  0  0  0  0  0  0
   46.9830    7.9730   43.3460 C   0  0  0  0  0  0  0  0  0  0  0  0
   43.1080   10.9570   46.1300 C   0  0  0  0  0  0  0  0  0  0  0  0
   43.3860   12.0110   45.2510 C   0  0  0  0  0  0  0  0  0  0  0  0
   44.2220   13.0420   45.5490 C   0  0  0  0  0  0  0  0  0  0  0  0
   44.8520   13.0840   46.7790 C   0  0  0  0  0  0  0  0  0  0  0  0
   44.6010   12.0690   47.6580 C   0  0  0  0  0  0  0  0  0  0  0  0
   43.7410   11.0110   47.3510 C   0  0  0  0  0  0  0  0  0  0  0  0
   39.8940   10.1480   47.5320 O   0  0  0  0  0  0  0  0  0  0  0  0
   35.4110    9.7560   44.7750 H   0  0  0  0  0  0  0  0  0  0  0  0
   37.6500    8.9890   45.6170 H   0  0  0  0  0  0  0  0  0  0  0  0
   38.9190   13.0480   45.6500 H   0  0  0  0  0  0  0  0  0  0  0  0
   36.7610   13.7520   44.8630 H   0  0  0  0  0  0  0  0  0  0  0  0
   42.1290    9.1690   46.5950 H   0  0  0  0  0  0  0  0  0  0  0  0
   43.1400    7.4130   45.4480 H   0  0  0  0  0  0  0  0  0  0  0  0
   43.1200    7.3650   43.6930 H   0  0  0  0  0  0  0  0  0  0  0  0
   45.3410    7.3370   45.1370 H   0  0  0  0  0  0  0  0  0  0  0  0
   45.2820    9.0980   45.0520 H   0  0  0  0  0  0  0  0  0  0  0  0
   45.3890    9.0840   42.8200 H   0  0  0  0  0  0  0  0  0  0  0  0
   43.9950    6.8220   42.6020 H   0  0  0  0  0  0  0  0  0  0  0  0
   44.9620    7.6030   41.3200 H   0  0  0  0  0  0  0  0  0  0  0  0
   46.7620    6.2870   41.5120 H   0  0  0  0  0  0  0  0  0  0  0  0
   45.4310    5.1430   41.8330 H   0  0  0  0  0  0  0  0  0  0  0  0
   48.4340    6.4450   43.7200 H   0  0  0  0  0  0  0  0  0  0  0  0
   47.3370    6.7040   45.0910 H   0  0  0  0  0  0  0  0  0  0  0  0
   47.4500    8.8440   43.8930 H   0  0  0  0  0  0  0  0  0  0  0  0
   47.4540    7.9970   42.3450 H   0  0  0  0  0  0  0  0  0  0  0  0
   42.9030   12.0010   44.2780 H   0  0  0  0  0  0  0  0  0  0  0  0
   44.4070   13.8340   44.8400 H   0  0  0  0  0  0  0  0  0  0  0  0
   45.5170   13.9100   47.0090 H   0  0  0  0  0  0  0  0  0  0  0  0
   45.0620   12.0540   48.6260 H   0  0  0  0  0  0  0  0  0  0  0  0
   43.5870   10.2510   48.0770 H   0  0  0  0  0  0  0  0  0  0  0  0
  1  2  1  0  0  0  0
  2  3  2  0  0  0  0
  2  7  1  0  0  0  0
  3  4  1  0  0  0  0
  4 32  1  0  0  0  0
  4  5  2  0  0  0  0
  5  8  1  0  0  0  0
  6 33  1  0  0  0  0
  6  5  1  0  0  0  0
  7  6  2  0  0  0  0
  8 30  1  0  0  0  0
  9 10  1  0  0  0  0
  9  8  2  0  0  0  0
 10 24  1  0  0  0  0
 10 35  1  1  0  0  0
 11 16  1  0  0  0  0
 11 10  1  0  0  0  0
 12 14  1  0  0  0  0
 12 11  1  0  0  0  0
 13 12  2  0  0  0  0
 14  9  1  0  0  0  0
 15 14  2  0  0  0  0
 16 36  1  0  0  0  0
 17 16  1  0  0  0  0
 17 39  1  0  0  0  0
 17 38  1  0  0  0  0
 18 23  1  0  0  0  0
 18 17  1  0  0  0  0
 19 41  1  0  0  0  0
 19 18  1  0  0  0  0
 20 19  1  0  0  0  0
 20 21  1  0  0  0  0
 21 22  1  0  0  0  0
 22 46  1  0  0  0  0
 23 47  1  0  0  0  0
 23 22  1  0  0  0  0
 24 29  1  0  0  0  0
 25 26  1  0  0  0  0
 25 24  2  0  0  0  0
 26 27  2  0  0  0  0
 27 51  1  0  0  0  0
 27 28  1  0  0  0  0
 28 52  1  0  0  0  0
 29 28  2  0  0  0  0
 29 53  1  0  0  0  0
 31  3  1  0  0  0  0
 34  7  1  0  0  0  0
 37 16  1  0  0  0  0
 40 18  1  0  0  0  0
 42 19  1  0  0  0  0
 43 20  1  0  0  0  0
 44 20  1  0  0  0  0
 45 22  1  0  0  0  0
 48 23  1  0  0  0  0
 49 25  1  0  0  0  0
 50 26  1  0  0  0  0
M  END
>  <Pose>
1

>  <Score>
-5.22

$$$$
