
 OpenBabel03172210433D

 55 58  0  0  0  0  0  0  0  0999 V2000
   49.7460    2.4210   43.0870 B   0  0  0  0  0  0  0  0  0  0  0  0
   48.3830    3.7610   43.2890 C   0  0  0  0  0  0  0  0  0  0  0  0
   47.2160    3.6950   42.5540 C   0  0  0  0  0  0  0  0  0  0  0  0
   46.2330    4.6610   42.6960 C   0  0  0  0  0  0  0  0  0  0  0  0
   46.4090    5.7020   43.5720 C   0  0  0  0  0  0  0  0  0  0  0  0
   47.5680    5.7830   44.3150 C   0  0  0  0  0  0  0  0  0  0  0  0
   48.5380    4.8130   44.1630 C   0  0  0  0  0  0  0  0  0  0  0  0
   45.3400    6.7120   43.6770 C   0  0  0  0  0  0  0  0  0  0  0  0
   44.1120    6.2240   44.2110 N   0  0  0  0  0  0  0  0  0  0  0  0
   44.1420    5.8000   45.5470 C   0  0  0  0  0  0  0  0  0  0  0  0
   43.3030    6.6870   46.4620 C   0  0  0  0  0  0  0  0  0  0  0  0
   42.8330    7.7740   45.6760 N   0  0  0  0  0  0  0  0  0  0  0  0
   41.9970    7.4370   44.5490 C   0  0  0  0  0  0  0  0  0  0  0  0
   42.9160    6.6490   43.6080 C   0  0  0  0  0  0  0  0  0  0  0  0
   43.1560    9.1180   45.9330 C   0  0  0  0  0  0  0  0  0  0  0  0
   43.6270   10.0380   45.0750 N   0  0  0  0  0  0  0  0  0  0  0  0
   43.8500   11.1950   45.7410 C   0  0  0  0  0  0  0  0  0  0  0  0
   43.5110   11.0140   47.0640 C   0  0  0  0  0  0  0  0  0  0  0  0
   43.0930    9.7510   47.1530 N   0  0  0  0  0  0  0  0  0  0  0  0
   43.6500   12.0340   47.9300 N   0  0  0  0  0  0  0  0  0  0  0  0
   44.1110   13.2310   47.5450 C   0  0  0  0  0  0  0  0  0  0  0  0
   44.2310   14.1720   48.3940 O   0  0  0  0  0  0  0  0  0  0  0  0
   44.4490   13.4290   46.2590 N   0  0  0  0  0  0  0  0  0  0  0  0
   44.3220   12.4350   45.3700 C   0  0  0  0  0  0  0  0  0  0  0  0
   44.6390   12.6220   44.1700 O   0  0  0  0  0  0  0  0  0  0  0  0
   43.2830   11.8020   49.3320 C   0  0  0  0  0  0  0  0  0  0  0  0
   43.8420    9.9140   43.6580 C   0  0  0  0  0  0  0  0  0  0  0  0
   42.7790   10.6290   42.8560 C   0  0  0  0  0  0  0  0  0  0  0  0
   41.8650    9.7840   42.2570 O   0  0  0  0  0  0  0  0  0  0  0  0
   40.7030    9.8440   43.0610 C   0  0  0  0  0  0  0  0  0  0  0  0
   47.0940    2.8760   41.8720 H   0  0  0  0  0  0  0  0  0  0  0  0
   45.3460    4.5350   42.0840 H   0  0  0  0  0  0  0  0  0  0  0  0
   47.7380    6.6030   45.0290 H   0  0  0  0  0  0  0  0  0  0  0  0
   49.4490    4.8990   44.7590 H   0  0  0  0  0  0  0  0  0  0  0  0
   45.1980    7.2490   42.7230 H   0  0  0  0  0  0  0  0  0  0  0  0
   45.7170    7.4830   44.4140 H   0  0  0  0  0  0  0  0  0  0  0  0
   45.2020    5.9440   45.9310 H   0  0  0  0  0  0  0  0  0  0  0  0
   43.9300    4.7160   45.7260 H   0  0  0  0  0  0  0  0  0  0  0  0
   42.4480    6.0190   46.8020 H   0  0  0  0  0  0  0  0  0  0  0  0
   43.8310    6.9350   47.3930 H   0  0  0  0  0  0  0  0  0  0  0  0
   41.6060    8.3400   44.0730 H   0  0  0  0  0  0  0  0  0  0  0  0
   41.1470    6.7580   44.8440 H   0  0  0  0  0  0  0  0  0  0  0  0
   43.1690    7.3540   42.7840 H   0  0  0  0  0  0  0  0  0  0  0  0
   42.3380    5.8360   43.1230 H   0  0  0  0  0  0  0  0  0  0  0  0
   44.8150   14.3750   45.9470 H   0  0  0  0  0  0  0  0  0  0  0  0
   44.1440   11.2760   49.8050 H   0  0  0  0  0  0  0  0  0  0  0  0
   43.0120   12.7140   49.8570 H   0  0  0  0  0  0  0  0  0  0  0  0
   42.4410   11.0680   49.3200 H   0  0  0  0  0  0  0  0  0  0  0  0
   44.8250   10.2950   43.3160 H   0  0  0  0  0  0  0  0  0  0  0  0
   43.8330    8.8240   43.3500 H   0  0  0  0  0  0  0  0  0  0  0  0
   43.2690   11.3130   42.1170 H   0  0  0  0  0  0  0  0  0  0  0  0
   42.2080   11.2990   43.5210 H   0  0  0  0  0  0  0  0  0  0  0  0
   40.3480   10.9110   43.0610 H   0  0  0  0  0  0  0  0  0  0  0  0
   40.9090    9.6080   44.1120 H   0  0  0  0  0  0  0  0  0  0  0  0
   39.9370    9.1810   42.6180 H   0  0  0  0  0  0  0  0  0  0  0  0
  1  2  1  0  0  0  0
  2  7  1  0  0  0  0
  3  4  1  0  0  0  0
  3  2  2  0  0  0  0
  4  5  2  0  0  0  0
  5  8  1  0  0  0  0
  5  6  1  0  0  0  0
  6 33  1  0  0  0  0
  7  6  2  0  0  0  0
  7 34  1  0  0  0  0
  8  9  1  0  0  0  0
  8 36  1  0  0  0  0
  9 10  1  0  0  0  0
 10 38  1  0  0  0  0
 10 37  1  0  0  0  0
 10 11  1  0  0  0  0
 11 39  1  0  0  0  0
 11 40  1  0  0  0  0
 12 15  1  0  0  0  0
 12 11  1  0  0  0  0
 13 42  1  0  0  0  0
 13 12  1  0  0  0  0
 14  9  1  0  0  0  0
 14 13  1  0  0  0  0
 15 19  2  0  0  0  0
 16 17  1  0  0  0  0
 16 15  1  0  0  0  0
 17 18  2  0  0  0  0
 18 19  1  0  0  0  0
 18 20  1  0  0  0  0
 20 26  1  0  0  0  0
 21 20  1  0  0  0  0
 21 22  2  0  0  0  0
 23 21  1  0  0  0  0
 24 17  1  0  0  0  0
 24 23  1  0  0  0  0
 25 24  2  0  0  0  0
 26 46  1  0  0  0  0
 26 47  1  0  0  0  0
 27 16  1  0  0  0  0
 28 52  1  0  0  0  0
 28 27  1  0  0  0  0
 29 28  1  0  0  0  0
 29 30  1  0  0  0  0
 30 53  1  0  0  0  0
 30 54  1  0  0  0  0
 31  3  1  0  0  0  0
 32  4  1  0  0  0  0
 35  8  1  0  0  0  0
 41 13  1  0  0  0  0
 43 14  1  0  0  0  0
 44 14  1  0  0  0  0
 45 23  1  0  0  0  0
 48 26  1  0  0  0  0
 49 27  1  0  0  0  0
 50 27  1  0  0  0  0
 51 28  1  0  0  0  0
 55 30  1  0  0  0  0
M  END
>  <Pose>
1

>  <Score>
-4.76

$$$$
