
 OpenBabel03172210433D

 44 47  0  0  0  0  0  0  0  0999 V2000
   48.3380   10.6540   49.9270 B   0  0  0  0  0  0  0  0  0  0  0  0
   48.7160    8.9830   49.0540 C   0  0  0  0  0  0  0  0  0  0  0  0
   49.9760    8.4320   49.0900 C   0  0  0  0  0  0  0  0  0  0  0  0
   50.2490    7.2330   48.4600 C   0  0  0  0  0  0  0  0  0  0  0  0
   49.2760    6.5320   47.7690 C   0  0  0  0  0  0  0  0  0  0  0  0
   48.0160    7.0860   47.7360 C   0  0  0  0  0  0  0  0  0  0  0  0
   47.7330    8.2990   48.3700 C   0  0  0  0  0  0  0  0  0  0  0  0
   49.5990    5.2650   47.1190 C   0  0  0  0  0  0  0  0  0  0  0  0
   49.0860    4.9920   45.9130 C   0  0  0  0  0  0  0  0  0  0  0  0
   48.2480    5.8550   45.2260 O   0  0  0  0  0  0  0  0  0  0  0  0
   47.8620    5.3260   43.9990 C   0  0  0  0  0  0  0  0  0  0  0  0
   48.4430    4.1020   43.8660 C   0  0  0  0  0  0  0  0  0  0  0  0
   48.2230    3.3520   42.7290 C   0  0  0  0  0  0  0  0  0  0  0  0
   47.4100    3.8880   41.7650 C   0  0  0  0  0  0  0  0  0  0  0  0
   46.8110    5.1480   41.8990 C   0  0  0  0  0  0  0  0  0  0  0  0
   47.0160    5.9070   43.0230 C   0  0  0  0  0  0  0  0  0  0  0  0
   46.4590    7.2350   43.3060 C   0  0  0  0  0  0  0  0  0  0  0  0
   45.1440    7.5180   42.8770 N   0  0  0  0  0  4  0  0  0  0  0  0
   44.1530    6.7160   43.5640 C   0  0  0  0  0  0  0  0  0  0  0  0
   43.7580    7.4000   44.8600 C   0  0  0  0  0  0  0  0  0  0  0  0
   42.8770    8.4250   44.5510 O   0  0  0  0  0  0  0  0  0  0  0  0
   43.2680    8.9710   43.3230 C   0  0  0  0  0  0  0  0  0  0  0  0
   44.7800    8.9120   43.1860 C   0  0  0  0  0  0  0  0  0  0  0  0
   45.9950    5.6210   40.8700 O   0  0  0  0  0  0  0  0  0  0  0  0
   49.2420    3.8370   45.0710 C   0  0  0  0  0  0  0  0  0  0  0  0
   49.9340    2.8240   45.3460 O   0  0  0  0  0  0  0  0  0  0  0  0
   50.7330    8.9890   49.6330 H   0  0  0  0  0  0  0  0  0  0  0  0
   51.2500    6.8040   48.4930 H   0  0  0  0  0  0  0  0  0  0  0  0
   47.2250    6.5830   47.2150 H   0  0  0  0  0  0  0  0  0  0  0  0
   46.7470    8.7460   48.3500 H   0  0  0  0  0  0  0  0  0  0  0  0
   50.2460    4.5080   47.5590 H   0  0  0  0  0  0  0  0  0  0  0  0
   48.6790    2.3760   42.6060 H   0  0  0  0  0  0  0  0  0  0  0  0
   47.2210    3.3300   40.8670 H   0  0  0  0  0  0  0  0  0  0  0  0
   47.1930    8.0110   42.9810 H   0  0  0  0  0  0  0  0  0  0  0  0
   46.4510    7.3230   44.4380 H   0  0  0  0  0  0  0  0  0  0  0  0
   45.0440    7.4500   41.8440 H   0  0  0  0  0  0  0  0  0  0  0  0
   43.2720    6.4640   42.9470 H   0  0  0  0  0  0  0  0  0  0  0  0
   44.6220    5.7560   43.8670 H   0  0  0  0  0  0  0  0  0  0  0  0
   44.6770    7.7710   45.3520 H   0  0  0  0  0  0  0  0  0  0  0  0
   43.2840    6.6050   45.4930 H   0  0  0  0  0  0  0  0  0  0  0  0
   42.8930   10.0110   43.3090 H   0  0  0  0  0  0  0  0  0  0  0  0
   42.7790    8.4410   42.4700 H   0  0  0  0  0  0  0  0  0  0  0  0
   45.0670    9.5610   42.3310 H   0  0  0  0  0  0  0  0  0  0  0  0
   45.2370    9.2810   44.1040 H   0  0  0  0  0  0  0  0  0  0  0  0
  2  3  1  0  0  0  0
  2  1  1  0  0  0  0
  3 27  1  0  0  0  0
  4 28  1  0  0  0  0
  4  3  2  0  0  0  0
  5  4  1  0  0  0  0
  6  5  2  0  0  0  0
  6  7  1  0  0  0  0
  7  2  2  0  0  0  0
  8 31  1  0  0  0  0
  8  5  1  0  0  0  0
  9  8  2  0  0  0  0
 10  9  1  0  0  0  0
 11 10  1  0  0  0  0
 12 11  1  0  0  0  0
 12 25  1  0  0  0  0
 13 12  2  0  0  0  0
 14 15  2  0  0  0  0
 14 13  1  0  0  0  0
 15 16  1  0  0  0  0
 16 17  1  0  0  0  0
 16 11  2  0  0  0  0
 17 35  1  0  0  0  0
 18 23  1  0  0  0  0
 18 17  1  0  0  0  0
 18 19  1  0  0  0  0
 19 38  1  0  0  0  0
 19 20  1  0  0  0  0
 20 39  1  0  0  0  0
 20 40  1  0  0  0  0
 21 20  1  0  0  0  0
 22 21  1  0  0  0  0
 23 22  1  0  0  0  0
 23 44  1  0  0  0  0
 24 15  1  0  0  0  0
 25 26  2  0  0  0  0
 25  9  1  0  0  0  0
 29  6  1  0  0  0  0
 30  7  1  0  0  0  0
 32 13  1  0  0  0  0
 33 14  1  0  0  0  0
 34 17  1  0  0  0  0
 36 18  1  0  0  0  0
 37 19  1  0  0  0  0
 41 22  1  0  0  0  0
 42 22  1  0  0  0  0
 43 23  1  0  0  0  0
M  END
>  <Pose>
1

>  <Score>
-5.50

$$$$
