
 OpenBabel03172210433D

 41 44  0  0  0  0  0  0  0  0999 V2000
   37.8220   14.4280   46.4640 B   0  0  0  0  0  0  0  0  0  0  0  0
   39.2570   13.4420   45.7200 C   0  0  0  0  0  0  0  0  0  0  0  0
   39.2400   13.1140   44.3810 C   0  0  0  0  0  0  0  0  0  0  0  0
   40.2690   12.4060   43.8440 C   0  0  0  0  0  0  0  0  0  0  0  0
   41.3650   11.9880   44.6020 C   0  0  0  0  0  0  0  0  0  0  0  0
   41.3190   12.3440   45.9260 C   0  0  0  0  0  0  0  0  0  0  0  0
   40.3090   13.0560   46.5220 C   0  0  0  0  0  0  0  0  0  0  0  0
   42.3220   11.1020   43.9680 C   0  0  0  0  0  0  0  0  0  0  0  0
   42.6430    9.8160   44.0360 N   0  0  0  0  0  0  0  0  0  0  0  0
   43.6500    9.5270   43.1760 C   0  0  0  0  0  0  0  0  0  0  0  0
   43.9630   10.6840   42.5620 N   0  0  0  0  0  0  0  0  0  0  0  0
   43.1990   11.6240   43.0130 N   0  0  0  0  0  0  0  0  0  0  0  0
   43.9970    8.2360   43.2270 N   0  0  0  0  0  0  0  0  0  0  0  0
   43.1960    7.6920   44.1490 C   0  0  0  0  0  0  0  0  0  0  0  0
   42.3330    8.6590   44.6840 C   0  0  0  0  0  0  0  0  0  0  0  0
   41.4750    8.3540   45.6440 N   0  0  0  0  0  0  0  0  0  0  0  0
   41.4540    7.0580   46.0840 C   0  0  0  0  0  0  0  0  0  0  0  0
   40.6530    6.7270   46.9900 O   0  0  0  0  0  0  0  0  0  0  0  0
   42.2590    6.1100   45.5880 N   0  0  0  0  0  0  0  0  0  0  0  0
   43.1420    6.4010   44.6190 C   0  0  0  0  0  0  0  0  0  0  0  0
   43.9150    5.5370   44.1290 O   0  0  0  0  0  0  0  0  0  0  0  0
   40.6250    9.2640   46.3680 C   0  0  0  0  0  0  0  0  0  0  0  0
   45.0160    7.5670   42.4500 C   0  0  0  0  0  0  0  0  0  0  0  0
   46.4100    7.8000   42.9920 C   0  0  0  0  0  0  0  0  0  0  0  0
   47.2230    6.6850   42.8290 O   0  0  0  0  0  0  0  0  0  0  0  0
   46.9930    5.8400   43.9150 C   0  0  0  0  0  0  0  0  0  0  0  0
   38.4140   13.4140   43.7440 H   0  0  0  0  0  0  0  0  0  0  0  0
   40.2370   12.1570   42.7810 H   0  0  0  0  0  0  0  0  0  0  0  0
   42.1480   11.9960   46.5730 H   0  0  0  0  0  0  0  0  0  0  0  0
   40.3440   13.2970   47.5590 H   0  0  0  0  0  0  0  0  0  0  0  0
   42.2410    5.1250   45.9210 H   0  0  0  0  0  0  0  0  0  0  0  0
   41.1380   10.1950   46.6530 H   0  0  0  0  0  0  0  0  0  0  0  0
   39.5990    9.3500   45.9870 H   0  0  0  0  0  0  0  0  0  0  0  0
   40.4340    8.8080   47.4220 H   0  0  0  0  0  0  0  0  0  0  0  0
   44.9960    7.8740   41.4120 H   0  0  0  0  0  0  0  0  0  0  0  0
   44.7810    6.4800   42.5230 H   0  0  0  0  0  0  0  0  0  0  0  0
   46.3350    8.0090   44.0890 H   0  0  0  0  0  0  0  0  0  0  0  0
   46.8260    8.6890   42.5160 H   0  0  0  0  0  0  0  0  0  0  0  0
   45.9160    5.5360   43.9360 H   0  0  0  0  0  0  0  0  0  0  0  0
   47.2860    6.2960   44.8820 H   0  0  0  0  0  0  0  0  0  0  0  0
   47.5990    4.8980   43.8150 H   0  0  0  0  0  0  0  0  0  0  0  0
  2  1  1  0  0  0  0
  2  7  1  0  0  0  0
  3  2  2  0  0  0  0
  4  3  1  0  0  0  0
  4  5  2  0  0  0  0
  5  6  1  0  0  0  0
  6  7  2  0  0  0  0
  6 29  1  0  0  0  0
  7 30  1  0  0  0  0
  8  9  1  0  0  0  0
  8  5  1  0  0  0  0
  9 15  1  0  0  0  0
 10 13  1  0  0  0  0
 10  9  1  0  0  0  0
 11 12  1  0  0  0  0
 11 10  2  0  0  0  0
 12  8  2  0  0  0  0
 13 14  1  0  0  0  0
 14 20  1  0  0  0  0
 14 15  2  0  0  0  0
 15 16  1  0  0  0  0
 16 17  1  0  0  0  0
 16 22  1  0  0  0  0
 17 18  2  0  0  0  0
 19 31  1  0  0  0  0
 19 17  1  0  0  0  0
 20 19  1  0  0  0  0
 21 20  2  0  0  0  0
 22 32  1  0  0  0  0
 22 34  1  0  0  0  0
 23 36  1  0  0  0  0
 23 24  1  0  0  0  0
 23 13  1  0  0  0  0
 24 37  1  0  0  0  0
 25 24  1  0  0  0  0
 25 26  1  0  0  0  0
 26 39  1  0  0  0  0
 26 40  1  0  0  0  0
 27  3  1  0  0  0  0
 28  4  1  0  0  0  0
 33 22  1  0  0  0  0
 35 23  1  0  0  0  0
 38 24  1  0  0  0  0
 41 26  1  0  0  0  0
M  END
>  <Pose>
1

>  <Score>
-5.25

$$$$
