
 OpenBabel03172210433D

 58 62  0  0  1  0  0  0  0  0999 V2000
   52.6820    0.3530   42.3470 B   0  0  0  0  0  0  0  0  0  0  0  0
   51.7160    1.6910   43.3400 C   0  0  0  0  0  0  0  0  0  0  0  0
   52.3280    2.4610   44.2800 C   0  0  0  0  0  0  0  0  0  0  0  0
   51.6380    3.4090   44.9810 C   0  0  0  0  0  0  0  0  0  0  0  0
   50.2920    3.6370   44.7780 C   0  0  0  0  0  0  0  0  0  0  0  0
   49.6830    2.8710   43.8420 C   0  0  0  0  0  0  0  0  0  0  0  0
   50.3840    1.8850   43.1070 C   0  0  0  0  0  0  0  0  0  0  0  0
   49.6330    4.6520   45.5700 C   0  0  0  0  0  0  0  0  0  0  0  0
   49.9120    4.8540   46.9320 C   0  0  0  0  0  0  0  0  0  0  0  0
   49.1480    5.8630   47.3320 N   0  0  0  0  0  0  0  0  0  0  0  0
   48.8970    6.5860   48.4660 C   0  0  0  0  0  0  0  0  0  0  0  0
   47.9550    7.5140   48.1020 C   0  0  0  0  0  0  0  0  0  0  0  0
   47.6880    7.3240   46.8190 N   0  0  0  0  0  0  0  0  0  0  0  0
   48.4280    6.2910   46.3230 C   0  0  1  0  0  0  0  0  0  0  0  0
   48.7110    5.5510   45.2100 N   0  0  0  0  0  0  0  0  0  0  0  0
   48.0740    5.8180   43.9570 C   0  0  0  0  0  0  0  0  0  0  0  0
   47.0350    4.8720   43.5080 C   0  0  0  0  0  0  0  0  0  0  0  0
   45.6200    5.1260   43.8870 C   0  0  0  0  0  0  0  0  0  0  0  0
   45.4280    6.4680   44.3920 N   0  0  0  0  0  4  0  0  0  0  0  0
   44.2380    7.0940   43.8950 C   0  0  0  0  0  0  0  0  0  0  0  0
   42.9700    6.6970   44.5960 C   0  0  0  0  0  0  0  0  0  0  0  0
   41.8230    7.0620   43.6420 C   0  0  0  0  0  0  0  0  0  0  0  0
   41.8340    8.5360   43.4310 C   0  0  0  0  0  0  0  0  0  0  0  0
   43.1730    9.0790   42.9890 C   0  0  0  0  0  0  0  0  0  0  0  0
   44.2820    8.6160   43.9410 C   0  0  0  0  0  0  0  0  0  0  0  0
   47.4530    8.4410   49.0200 C   0  0  0  0  0  0  0  0  0  0  0  0
   47.9070    8.4260   50.3210 C   0  0  0  0  0  0  0  0  0  0  0  0
   48.8510    7.4840   50.6610 C   0  0  0  0  0  0  0  0  0  0  0  0
   49.3560    6.5600   49.7540 C   0  0  0  0  0  0  0  0  0  0  0  0
   53.4020    2.3170   44.4790 H   0  0  0  0  0  0  0  0  0  0  0  0
   52.1980    4.0040   45.7320 H   0  0  0  0  0  0  0  0  0  0  0  0
   48.6640    2.9220   43.5780 H   0  0  0  0  0  0  0  0  0  0  0  0
   49.8910    1.2810   42.3650 H   0  0  0  0  0  0  0  0  0  0  0  0
   50.6140    4.2950   47.5440 H   0  0  0  0  0  0  0  0  0  0  0  0
   47.0100    7.9070   46.2920 H   0  0  0  0  0  0  0  0  0  0  0  0
   48.7830    6.0630   43.1720 H   0  0  0  0  0  0  0  0  0  0  0  0
   47.4860    6.8130   44.1110 H   0  0  0  0  0  0  0  0  0  0  0  0
   47.0460    4.9410   42.3670 H   0  0  0  0  0  0  0  0  0  0  0  0
   47.3050    3.7800   43.6520 H   0  0  0  0  0  0  0  0  0  0  0  0
   45.2320    4.4310   44.6590 H   0  0  0  0  0  0  0  0  0  0  0  0
   45.0200    5.0680   42.9350 H   0  0  0  0  0  0  0  0  0  0  0  0
   45.5430    6.5970   45.3940 H   0  0  0  0  0  0  0  0  0  0  0  0
   46.2410    7.0470   43.9670 H   0  0  0  0  0  0  0  0  0  0  0  0
   44.0820    6.8590   42.8000 H   0  0  0  0  0  0  0  0  0  0  0  0
   42.9210    5.6480   44.8870 H   0  0  0  0  0  0  0  0  0  0  0  0
   42.8240    7.3750   45.4850 H   0  0  0  0  0  0  0  0  0  0  0  0
   41.9690    6.5080   42.6800 H   0  0  0  0  0  0  0  0  0  0  0  0
   40.8630    6.7890   44.1130 H   0  0  0  0  0  0  0  0  0  0  0  0
   41.1090    8.7760   42.6270 H   0  0  0  0  0  0  0  0  0  0  0  0
   41.5080    9.0390   44.3600 H   0  0  0  0  0  0  0  0  0  0  0  0
   43.1110   10.1780   43.0340 H   0  0  0  0  0  0  0  0  0  0  0  0
   43.3860    8.7040   41.9870 H   0  0  0  0  0  0  0  0  0  0  0  0
   44.0350    8.9780   44.9710 H   0  0  0  0  0  0  0  0  0  0  0  0
   45.2420    8.9540   43.5530 H   0  0  0  0  0  0  0  0  0  0  0  0
   46.7140    9.1720   48.7440 H   0  0  0  0  0  0  0  0  0  0  0  0
   47.5350    9.1380   51.0720 H   0  0  0  0  0  0  0  0  0  0  0  0
   49.2050    7.4720   51.6750 H   0  0  0  0  0  0  0  0  0  0  0  0
   50.0910    5.8280   50.0210 H   0  0  0  0  0  0  0  0  0  0  0  0
  1  2  1  0  0  0  0
  2  3  1  0  0  0  0
  3 30  1  0  0  0  0
  3  4  2  0  0  0  0
  4 31  1  0  0  0  0
  5  4  1  0  0  0  0
  5  8  1  0  0  0  0
  6  5  2  0  0  0  0
  7  2  2  0  0  0  0
  7  6  1  0  0  0  0
  8  9  2  0  0  0  0
  9 10  1  0  0  0  0
  9 34  1  0  0  0  0
 10 11  1  0  0  0  0
 11 29  1  0  0  0  0
 12 11  2  0  0  0  0
 12 26  1  0  0  0  0
 13 12  1  0  0  0  0
 14 15  1  6  0  0  0
 14 13  1  0  0  0  0
 14 10  1  0  0  0  0
 15  8  1  0  0  0  0
 16 37  1  0  0  0  0
 16 15  1  0  0  0  0
 17 39  1  0  0  0  0
 17 18  1  0  0  0  0
 17 16  1  0  0  0  0
 18 19  1  0  0  0  0
 18 40  1  0  0  0  0
 19 42  1  0  0  0  0
 20 25  1  0  0  0  0
 20 19  1  0  0  0  0
 20 21  1  0  0  0  0
 21 45  1  0  0  0  0
 21 46  1  0  0  0  0
 22 48  1  0  0  0  0
 22 21  1  0  0  0  0
 23 22  1  0  0  0  0
 23 50  1  0  0  0  0
 24 51  1  0  0  0  0
 24 23  1  0  0  0  0
 24 25  1  0  0  0  0
 25 53  1  0  0  0  0
 26 27  2  0  0  0  0
 27 28  1  0  0  0  0
 27 56  1  0  0  0  0
 28 57  1  0  0  0  0
 29 58  1  0  0  0  0
 29 28  2  0  0  0  0
 32  6  1  0  0  0  0
 33  7  1  0  0  0  0
 35 13  1  0  0  0  0
 36 16  1  0  0  0  0
 38 17  1  0  0  0  0
 41 18  1  0  0  0  0
 43 19  1  0  0  0  0
 44 20  1  0  0  0  0
 47 22  1  0  0  0  0
 49 23  1  0  0  0  0
 52 24  1  0  0  0  0
 54 25  1  0  0  0  0
 55 26  1  0  0  0  0
M  END
>  <Pose>
1

>  <Score>
-6.35

$$$$
