
 OpenBabel03172210433D

 60 63  0  0  1  0  0  0  0  0999 V2000
   35.6810   11.0170   45.3400 B   0  0  0  0  0  0  0  0  0  0  0  0
   37.5660   10.7210   45.3480 C   0  0  0  0  0  0  0  0  0  0  0  0
   38.3100   10.9890   44.2230 C   0  0  0  0  0  0  0  0  0  0  0  0
   39.6910   10.7750   44.2260 C   0  0  0  0  0  0  0  0  0  0  0  0
   40.3350   10.2970   45.3410 C   0  0  0  0  0  0  0  0  0  0  0  0
   39.5650   10.0380   46.4520 C   0  0  0  0  0  0  0  0  0  0  0  0
   38.1970   10.2440   46.4660 C   0  0  0  0  0  0  0  0  0  0  0  0
   41.7770   10.0910   45.3330 C   0  0  2  0  0  0  0  0  0  0  0  0
   42.1420    8.9380   44.5360 N   0  0  0  0  0  0  0  0  0  0  0  0
   41.8830    7.7900   45.3470 C   0  0  0  0  0  0  0  0  0  0  0  0
   41.6300    6.6270   44.9480 O   0  0  0  0  0  0  0  0  0  0  0  0
   41.9740    8.2510   46.7290 C   0  0  0  0  0  0  0  0  0  0  0  0
   41.8230    7.6070   47.7960 O   0  0  0  0  0  0  0  0  0  0  0  0
   42.2880    9.6760   46.6920 C   0  0  0  0  0  0  0  0  0  0  0  0
   42.8400   10.3900   47.6420 C   0  0  0  0  0  0  0  0  0  0  0  0
   42.9870   11.7630   47.3770 O   0  0  0  0  0  0  0  0  0  0  0  0
   43.2950    9.8280   48.9090 C   0  0  0  0  0  0  0  0  0  0  0  0
   44.3230    8.9200   49.0270 C   0  0  0  0  0  0  0  0  0  0  0  0
   44.7460    8.3660   50.2220 C   0  0  0  0  0  0  0  0  0  0  0  0
   44.1090    8.7390   51.3710 C   0  0  0  0  0  0  0  0  0  0  0  0
   43.0640    9.6560   51.3000 C   0  0  0  0  0  0  0  0  0  0  0  0
   42.6700   10.1860   50.0900 C   0  0  0  0  0  0  0  0  0  0  0  0
   45.7910    7.4730   50.1540 O   0  0  0  0  0  0  0  0  0  0  0  0
   47.0070    7.6340   49.5100 C   0  0  0  0  0  0  0  0  0  0  0  0
   42.6740    8.9250   43.1630 C   0  0  0  0  0  0  0  0  0  0  0  0
   44.1450    9.3700   43.1580 C   0  0  0  0  0  0  0  0  0  0  0  0
   45.0120    8.2010   42.7870 C   0  0  0  0  0  0  0  0  0  0  0  0
   45.7950    7.8120   43.9350 N   0  0  0  0  0  4  0  0  0  0  0  0
   47.1260    7.3960   43.6220 C   0  0  0  0  0  0  0  0  0  0  0  0
   47.1850    6.0620   42.9600 C   0  0  0  0  0  0  0  0  0  0  0  0
   46.5560    5.0990   43.7300 O   0  0  0  0  0  0  0  0  0  0  0  0
   45.2170    5.4680   43.8600 C   0  0  0  0  0  0  0  0  0  0  0  0
   45.1670    6.7390   44.6860 C   0  0  0  0  0  0  0  0  0  0  0  0
   37.7850   11.3620   43.3590 H   0  0  0  0  0  0  0  0  0  0  0  0
   40.2170   10.9980   43.3290 H   0  0  0  0  0  0  0  0  0  0  0  0
   40.0980    9.6620   47.3150 H   0  0  0  0  0  0  0  0  0  0  0  0
   37.6290   10.0340   47.3570 H   0  0  0  0  0  0  0  0  0  0  0  0
   42.2890   11.0120   44.9950 H   0  0  0  0  0  0  0  0  0  0  0  0
   44.8430    8.6300   48.1290 H   0  0  0  0  0  0  0  0  0  0  0  0
   44.4230    8.3170   52.3210 H   0  0  0  0  0  0  0  0  0  0  0  0
   42.5970    9.9110   52.2520 H   0  0  0  0  0  0  0  0  0  0  0  0
   41.8360   10.9060   50.0930 H   0  0  0  0  0  0  0  0  0  0  0  0
   47.3410    6.7050   48.9670 H   0  0  0  0  0  0  0  0  0  0  0  0
   46.9760    8.4970   48.8390 H   0  0  0  0  0  0  0  0  0  0  0  0
   47.7930    7.7990   50.2760 H   0  0  0  0  0  0  0  0  0  0  0  0
   42.1390    9.6760   42.5830 H   0  0  0  0  0  0  0  0  0  0  0  0
   42.5770    7.8900   42.8230 H   0  0  0  0  0  0  0  0  0  0  0  0
   44.3190   10.1640   42.4360 H   0  0  0  0  0  0  0  0  0  0  0  0
   44.4330    9.7360   44.1650 H   0  0  0  0  0  0  0  0  0  0  0  0
   44.3180    7.3910   42.4620 H   0  0  0  0  0  0  0  0  0  0  0  0
   45.6670    8.4740   41.9630 H   0  0  0  0  0  0  0  0  0  0  0  0
   45.8460    8.6300   44.5860 H   0  0  0  0  0  0  0  0  0  0  0  0
   47.6060    8.1690   42.9810 H   0  0  0  0  0  0  0  0  0  0  0  0
   47.7130    7.3700   44.5730 H   0  0  0  0  0  0  0  0  0  0  0  0
   46.6420    6.0970   41.9820 H   0  0  0  0  0  0  0  0  0  0  0  0
   48.2520    5.8130   42.7610 H   0  0  0  0  0  0  0  0  0  0  0  0
   44.6030    4.6900   44.3530 H   0  0  0  0  0  0  0  0  0  0  0  0
   44.7430    5.6780   42.8760 H   0  0  0  0  0  0  0  0  0  0  0  0
   45.7870    6.5510   45.5840 H   0  0  0  0  0  0  0  0  0  0  0  0
   44.1350    6.9800   44.9780 H   0  0  0  0  0  0  0  0  0  0  0  0
  1  2  1  0  0  0  0
  2  7  1  0  0  0  0
  3  4  1  0  0  0  0
  3  2  2  0  0  0  0
  4  5  2  0  0  0  0
  5  6  1  0  0  0  0
  6  7  2  0  0  0  0
  6 36  1  0  0  0  0
  7 37  1  0  0  0  0
  8 38  1  6  0  0  0
  8  5  1  0  0  0  0
  8 14  1  0  0  0  0
  9  8  1  0  0  0  0
  9 10  1  0  0  0  0
 10 12  1  0  0  0  0
 11 10  2  0  0  0  0
 12 13  2  0  0  0  0
 14 12  1  0  0  0  0
 14 15  2  0  0  0  0
 15 17  1  0  0  0  0
 16 15  1  0  0  0  0
 17 18  2  0  0  0  0
 17 22  1  0  0  0  0
 18 19  1  0  0  0  0
 19 20  2  0  0  0  0
 20 40  1  0  0  0  0
 21 20  1  0  0  0  0
 21 41  1  0  0  0  0
 22 42  1  0  0  0  0
 22 21  2  0  0  0  0
 23 19  1  0  0  0  0
 24 23  1  0  0  0  0
 24 45  1  0  0  0  0
 25  9  1  0  0  0  0
 26 25  1  0  0  0  0
 26 49  1  0  0  0  0
 27 26  1  0  0  0  0
 27 28  1  0  0  0  0
 28 52  1  0  0  0  0
 28 33  1  0  0  0  0
 29 28  1  0  0  0  0
 29 54  1  0  0  0  0
 30 29  1  0  0  0  0
 30 31  1  0  0  0  0
 31 32  1  0  0  0  0
 32 57  1  0  0  0  0
 32 33  1  0  0  0  0
 33 60  1  0  0  0  0
 33 59  1  0  0  0  0
 34  3  1  0  0  0  0
 35  4  1  0  0  0  0
 39 18  1  0  0  0  0
 43 24  1  0  0  0  0
 44 24  1  0  0  0  0
 46 25  1  0  0  0  0
 47 25  1  0  0  0  0
 48 26  1  0  0  0  0
 50 27  1  0  0  0  0
 51 27  1  0  0  0  0
 53 29  1  0  0  0  0
 55 30  1  0  0  0  0
 56 30  1  0  0  0  0
 58 32  1  0  0  0  0
M  END
>  <Pose>
1

>  <Score>
-5.07

$$$$
