
 OpenBabel03172210433D

 56 59  0  0  1  0  0  0  0  0999 V2000
   45.3290   14.3360   46.4860 B   0  0  0  0  0  0  0  0  0  0  0  0
   44.5380   12.7040   45.8690 C   0  0  0  0  0  0  0  0  0  0  0  0
   44.3430   11.6300   46.7100 C   0  0  0  0  0  0  0  0  0  0  0  0
   43.7780   10.4760   46.2490 C   0  0  0  0  0  0  0  0  0  0  0  0
   43.3710   10.3210   44.9150 C   0  0  0  0  0  0  0  0  0  0  0  0
   43.5630   11.3760   44.0960 C   0  0  0  0  0  0  0  0  0  0  0  0
   44.1410   12.5580   44.5620 C   0  0  0  0  0  0  0  0  0  0  0  0
   42.7880    9.0860   44.5540 C   0  0  1  0  0  0  0  0  0  0  0  0
   41.6010    8.8600   43.8490 N   0  0  0  0  0  0  0  0  0  0  0  0
   41.3870    7.4050   43.9920 C   0  0  0  0  0  0  0  0  0  0  0  0
   40.2820    6.7970   44.0180 O   0  0  0  0  0  0  0  0  0  0  0  0
   42.7390    6.8470   44.0930 C   0  0  0  0  0  0  0  0  0  0  0  0
   43.0800    5.6310   44.2170 O   0  0  0  0  0  0  0  0  0  0  0  0
   43.6540    8.0020   44.0130 C   0  0  0  0  0  0  0  0  0  0  0  0
   44.8770    8.0270   43.5330 C   0  0  0  0  0  0  0  0  0  0  0  0
   45.5830    9.2230   43.4660 O   0  0  0  0  0  0  0  0  0  0  0  0
   45.5690    6.8380   43.0600 C   0  0  0  0  0  0  0  0  0  0  0  0
   45.6220    6.3990   41.7740 C   0  0  0  0  0  0  0  0  0  0  0  0
   46.3570    5.2690   41.4480 C   0  0  0  0  0  0  0  0  0  0  0  0
   47.0420    4.5760   42.4200 C   0  0  0  0  0  0  0  0  0  0  0  0
   47.0130    4.9870   43.7330 C   0  0  0  0  0  0  0  0  0  0  0  0
   46.2710    6.1200   44.0350 C   0  0  0  0  0  0  0  0  0  0  0  0
   47.8440    3.3560   42.1070 C   0  0  0  0  0  0  0  0  0  0  0  0
   40.6050    9.6280   43.1170 C   0  0  0  0  0  0  0  0  0  0  0  0
   40.5930   11.0960   43.4540 C   0  0  0  0  0  0  0  0  0  0  0  0
   39.4260   11.5180   44.1580 N   0  0  0  0  0  4  0  0  0  0  0  0
   39.4140   12.9630   44.2880 C   0  0  0  0  0  0  0  0  0  0  0  0
   38.1500   13.3720   44.9960 C   0  0  0  0  0  0  0  0  0  0  0  0
   38.2800   12.9290   46.3230 O   0  0  0  0  0  0  0  0  0  0  0  0
   38.3230   11.5540   46.3030 C   0  0  0  0  0  0  0  0  0  0  0  0
   39.5080   11.0140   45.5430 C   0  0  0  0  0  0  0  0  0  0  0  0
   44.6630   11.7580   47.7460 H   0  0  0  0  0  0  0  0  0  0  0  0
   43.6430    9.6450   46.9600 H   0  0  0  0  0  0  0  0  0  0  0  0
   43.2980   11.4240   43.0470 H   0  0  0  0  0  0  0  0  0  0  0  0
   44.3030   13.4160   43.9120 H   0  0  0  0  0  0  0  0  0  0  0  0
   42.5180    8.6120   45.6210 H   0  0  0  0  0  0  0  0  0  0  0  0
   45.0540    6.9270   41.0060 H   0  0  0  0  0  0  0  0  0  0  0  0
   46.3920    4.9320   40.4200 H   0  0  0  0  0  0  0  0  0  0  0  0
   47.5500    4.4500   44.5240 H   0  0  0  0  0  0  0  0  0  0  0  0
   46.2170    6.4840   45.0590 H   0  0  0  0  0  0  0  0  0  0  0  0
   47.4060    2.4440   42.5590 H   0  0  0  0  0  0  0  0  0  0  0  0
   47.8780    3.2090   40.9920 H   0  0  0  0  0  0  0  0  0  0  0  0
   48.8960    3.4690   42.4380 H   0  0  0  0  0  0  0  0  0  0  0  0
   40.8750    9.5860   42.0210 H   0  0  0  0  0  0  0  0  0  0  0  0
   39.5990    9.2470   43.2630 H   0  0  0  0  0  0  0  0  0  0  0  0
   41.4820   11.3310   44.1280 H   0  0  0  0  0  0  0  0  0  0  0  0
   40.7400   11.7070   42.5180 H   0  0  0  0  0  0  0  0  0  0  0  0
   38.5500   11.1750   43.7390 H   0  0  0  0  0  0  0  0  0  0  0  0
   39.4810   13.5140   43.3490 H   0  0  0  0  0  0  0  0  0  0  0  0
   40.2950   13.2710   44.8940 H   0  0  0  0  0  0  0  0  0  0  0  0
   37.2600   12.9270   44.5330 H   0  0  0  0  0  0  0  0  0  0  0  0
   38.0390   14.4720   45.0030 H   0  0  0  0  0  0  0  0  0  0  0  0
   38.4170   11.2160   47.3690 H   0  0  0  0  0  0  0  0  0  0  0  0
   37.3940   11.1500   45.8880 H   0  0  0  0  0  0  0  0  0  0  0  0
   40.4530   11.4080   45.9550 H   0  0  0  0  0  0  0  0  0  0  0  0
   39.4870    9.9220   45.5910 H   0  0  0  0  0  0  0  0  0  0  0  0
  2  1  1  0  0  0  0
  2  3  1  0  0  0  0
  3 32  1  0  0  0  0
  4  3  2  0  0  0  0
  4 33  1  0  0  0  0
  5  4  1  0  0  0  0
  6  7  1  0  0  0  0
  6  5  2  0  0  0  0
  7  2  2  0  0  0  0
  8  5  1  0  0  0  0
  8 36  1  1  0  0  0
  9 10  1  0  0  0  0
  9  8  1  0  0  0  0
 10 11  2  0  0  0  0
 10 12  1  0  0  0  0
 12 13  2  0  0  0  0
 14 12  1  0  0  0  0
 14  8  1  0  0  0  0
 15 14  2  0  0  0  0
 16 15  1  0  0  0  0
 17 15  1  0  0  0  0
 17 22  1  0  0  0  0
 18 17  2  0  0  0  0
 19 18  1  0  0  0  0
 19 20  2  0  0  0  0
 20 21  1  0  0  0  0
 21 22  2  0  0  0  0
 21 39  1  0  0  0  0
 22 40  1  0  0  0  0
 23 20  1  0  0  0  0
 23 43  1  0  0  0  0
 23 41  1  0  0  0  0
 24 45  1  0  0  0  0
 24 25  1  0  0  0  0
 24  9  1  0  0  0  0
 25 46  1  0  0  0  0
 25 26  1  0  0  0  0
 26 27  1  0  0  0  0
 26 31  1  0  0  0  0
 27 50  1  0  0  0  0
 27 28  1  0  0  0  0
 28 52  1  0  0  0  0
 28 29  1  0  0  0  0
 30 29  1  0  0  0  0
 30 53  1  0  0  0  0
 31 56  1  0  0  0  0
 31 55  1  0  0  0  0
 31 30  1  0  0  0  0
 34  6  1  0  0  0  0
 35  7  1  0  0  0  0
 37 18  1  0  0  0  0
 38 19  1  0  0  0  0
 42 23  1  0  0  0  0
 44 24  1  0  0  0  0
 47 25  1  0  0  0  0
 48 26  1  0  0  0  0
 49 27  1  0  0  0  0
 51 28  1  0  0  0  0
 54 30  1  0  0  0  0
M  END
>  <Pose>
1

>  <Score>
-5.97

$$$$
