
 OpenBabel03172210433D

 53 56  0  0  1  0  0  0  0  0999 V2000
   50.2080    5.2650   49.4840 B   0  0  0  0  0  0  0  0  0  0  0  0
   49.4800    5.2980   47.7270 C   0  0  0  0  0  0  0  0  0  0  0  0
   49.2320    4.1610   46.9930 C   0  0  0  0  0  0  0  0  0  0  0  0
   48.6930    4.2250   45.6990 C   0  0  0  0  0  0  0  0  0  0  0  0
   48.3970    5.4270   45.1220 C   0  0  0  0  0  0  0  0  0  0  0  0
   48.6560    6.5500   45.8810 C   0  0  0  0  0  0  0  0  0  0  0  0
   49.1830    6.5050   47.1520 C   0  0  0  0  0  0  0  0  0  0  0  0
   47.8680    5.5510   43.8180 C   0  0  1  0  0  0  0  0  0  0  0  0
   47.7120    4.4490   42.9400 N   0  0  0  0  0  0  0  0  0  0  0  0
   47.0980    5.0460   41.7580 C   0  0  0  0  0  0  0  0  0  0  0  0
   47.2140    4.6320   40.5720 O   0  0  0  0  0  0  0  0  0  0  0  0
   46.3380    6.1960   42.2420 C   0  0  0  0  0  0  0  0  0  0  0  0
   45.6400    7.0060   41.5780 O   0  0  0  0  0  0  0  0  0  0  0  0
   46.5440    6.2290   43.6910 C   0  0  0  0  0  0  0  0  0  0  0  0
   45.7240    6.7010   44.6130 C   0  0  0  0  0  0  0  0  0  0  0  0
   46.0470    6.5960   45.9570 O   0  0  0  0  0  0  0  0  0  0  0  0
   44.4600    7.3570   44.3090 C   0  0  0  0  0  0  0  0  0  0  0  0
   44.5800    8.6910   43.8950 C   0  0  0  0  0  0  0  0  0  0  0  0
   43.4870    9.4420   43.5310 C   0  0  0  0  0  0  0  0  0  0  0  0
   42.2330    8.8450   43.5810 C   0  0  0  0  0  0  0  0  0  0  0  0
   42.1220    7.5330   43.9890 C   0  0  0  0  0  0  0  0  0  0  0  0
   43.2250    6.7890   44.3510 C   0  0  0  0  0  0  0  0  0  0  0  0
   40.8500    9.8100   43.1180 Cl  0  0  0  0  0  0  0  0  0  0  0  0
   48.0740    3.0310   43.0150 C   0  0  0  0  0  0  0  0  0  0  0  0
   49.5470    2.7650   42.9620 C   0  0  0  0  0  0  0  0  0  0  0  0
   49.9660    1.7470   43.8990 N   0  0  0  0  0  4  0  0  0  0  0  0
   50.9100    2.2310   44.8670 C   0  0  0  0  0  0  0  0  0  0  0  0
   52.2640    2.5360   44.2980 C   0  0  0  0  0  0  0  0  0  0  0  0
   52.7820    1.4650   43.5680 O   0  0  0  0  0  0  0  0  0  0  0  0
   51.8780    1.2330   42.5210 C   0  0  0  0  0  0  0  0  0  0  0  0
   50.6120    0.6870   43.1460 C   0  0  0  0  0  0  0  0  0  0  0  0
   49.4670    3.2230   47.4500 H   0  0  0  0  0  0  0  0  0  0  0  0
   48.5380    3.2630   45.2460 H   0  0  0  0  0  0  0  0  0  0  0  0
   48.4490    7.5630   45.5020 H   0  0  0  0  0  0  0  0  0  0  0  0
   49.3720    7.4100   47.7180 H   0  0  0  0  0  0  0  0  0  0  0  0
   48.5620    6.2710   43.2430 H   0  0  0  0  0  0  0  0  0  0  0  0
   45.5440    9.1780   43.8470 H   0  0  0  0  0  0  0  0  0  0  0  0
   43.6210   10.4700   43.2160 H   0  0  0  0  0  0  0  0  0  0  0  0
   41.1360    7.1010   44.0180 H   0  0  0  0  0  0  0  0  0  0  0  0
   43.1190    5.7480   44.6400 H   0  0  0  0  0  0  0  0  0  0  0  0
   47.6390    2.5370   42.0960 H   0  0  0  0  0  0  0  0  0  0  0  0
   47.6850    2.5670   43.9360 H   0  0  0  0  0  0  0  0  0  0  0  0
   50.0410    3.7080   43.3170 H   0  0  0  0  0  0  0  0  0  0  0  0
   49.9760    2.5780   41.9740 H   0  0  0  0  0  0  0  0  0  0  0  0
   49.1690    1.3180   44.4060 H   0  0  0  0  0  0  0  0  0  0  0  0
   50.5630    3.0950   45.4440 H   0  0  0  0  0  0  0  0  0  0  0  0
   51.0570    1.3960   45.6080 H   0  0  0  0  0  0  0  0  0  0  0  0
   52.2740    3.4750   43.7030 H   0  0  0  0  0  0  0  0  0  0  0  0
   52.9580    2.6800   45.1620 H   0  0  0  0  0  0  0  0  0  0  0  0
   52.2840    0.5070   41.7870 H   0  0  0  0  0  0  0  0  0  0  0  0
   51.7380    2.1830   42.0030 H   0  0  0  0  0  0  0  0  0  0  0  0
   49.9270    0.2650   42.3690 H   0  0  0  0  0  0  0  0  0  0  0  0
   50.9350   -0.1260   43.8470 H   0  0  0  0  0  0  0  0  0  0  0  0
  2  1  1  0  0  0  0
  3 32  1  0  0  0  0
  3  2  2  0  0  0  0
  4  3  1  0  0  0  0
  5  4  2  0  0  0  0
  5  6  1  0  0  0  0
  6  7  2  0  0  0  0
  7 35  1  0  0  0  0
  7  2  1  0  0  0  0
  8 36  1  6  0  0  0
  8  5  1  0  0  0  0
  9 24  1  0  0  0  0
  9  8  1  0  0  0  0
 10 12  1  0  0  0  0
 10  9  1  0  0  0  0
 11 10  2  0  0  0  0
 12 14  1  0  0  0  0
 13 12  2  0  0  0  0
 14  8  1  0  0  0  0
 14 15  2  0  0  0  0
 15 16  1  0  0  0  0
 17 22  1  0  0  0  0
 17 15  1  0  0  0  0
 18 17  2  0  0  0  0
 19 20  2  0  0  0  0
 19 18  1  0  0  0  0
 20 21  1  0  0  0  0
 21 39  1  0  0  0  0
 21 22  2  0  0  0  0
 22 40  1  0  0  0  0
 23 20  1  0  0  0  0
 24 42  1  0  0  0  0
 25 24  1  0  0  0  0
 25 43  1  0  0  0  0
 25 26  1  0  0  0  0
 26 45  1  0  0  0  0
 26 27  1  0  0  0  0
 27 46  1  0  0  0  0
 27 47  1  0  0  0  0
 28 27  1  0  0  0  0
 28 49  1  0  0  0  0
 29 28  1  0  0  0  0
 30 31  1  0  0  0  0
 30 29  1  0  0  0  0
 31 53  1  0  0  0  0
 31 26  1  0  0  0  0
 33  4  1  0  0  0  0
 34  6  1  0  0  0  0
 37 18  1  0  0  0  0
 38 19  1  0  0  0  0
 41 24  1  0  0  0  0
 44 25  1  0  0  0  0
 48 28  1  0  0  0  0
 50 30  1  0  0  0  0
 51 30  1  0  0  0  0
 52 31  1  0  0  0  0
M  END
>  <Pose>
1

>  <Score>
-6.58

$$$$
