
 OpenBabel03172210433D

 54 57  0  0  1  0  0  0  0  0999 V2000
   36.4890   11.9900   45.3080 B   0  0  0  0  0  0  0  0  0  0  0  0
   38.3910   11.8270   45.2370 C   0  0  0  0  0  0  0  0  0  0  0  0
   39.0700   12.4630   44.2370 C   0  0  0  0  0  0  0  0  0  0  0  0
   40.4400   12.3540   44.1740 C   0  0  0  0  0  0  0  0  0  0  0  0
   41.2000   11.6320   45.0660 C   0  0  0  0  0  0  0  0  0  0  0  0
   40.4760   10.9950   46.0750 C   0  0  0  0  0  0  0  0  0  0  0  0
   39.1070   11.0940   46.1530 C   0  0  0  0  0  0  0  0  0  0  0  0
   42.6820   11.5370   44.9660 C   0  0  1  0  0  0  0  0  0  0  0  0
   43.3430   12.2280   46.0370 N   0  0  0  0  0  0  0  0  0  0  0  0
   43.8370   11.2490   46.9340 C   0  0  0  0  0  0  0  0  0  0  0  0
   44.2990   11.4750   48.0890 O   0  0  0  0  0  0  0  0  0  0  0  0
   43.7290    9.9280   46.3110 C   0  0  0  0  0  0  0  0  0  0  0  0
   44.0690    8.8210   46.7960 O   0  0  0  0  0  0  0  0  0  0  0  0
   43.1460   10.1330   44.9970 C   0  0  0  0  0  0  0  0  0  0  0  0
   43.1070    9.2400   44.0210 C   0  0  0  0  0  0  0  0  0  0  0  0
   42.5660    9.6580   42.7890 O   0  0  0  0  0  0  0  0  0  0  0  0
   43.5570    7.8720   44.0960 C   0  0  0  0  0  0  0  0  0  0  0  0
   44.6770    7.2550   43.7030 N   0  0  0  0  0  0  0  0  0  0  0  0
   44.6130    5.9360   43.9580 C   0  0  0  0  0  0  0  0  0  0  0  0
   43.4190    5.7050   44.5300 N   0  0  0  0  0  0  0  0  0  0  0  0
   42.7520    6.8560   44.6300 C   0  0  0  0  0  0  0  0  0  0  0  0
   41.3900    7.0110   45.2120 C   0  0  0  0  0  0  0  0  0  0  0  0
   45.6430    5.0470   43.6710 C   0  0  0  0  0  0  0  0  0  0  0  0
   46.7840    5.5400   43.1000 C   0  0  0  0  0  0  0  0  0  0  0  0
   46.8530    6.8960   42.8380 C   0  0  0  0  0  0  0  0  0  0  0  0
   45.8060    7.7350   43.1400 C   0  0  0  0  0  0  0  0  0  0  0  0
   43.4900   13.6930   46.1860 C   0  0  0  0  0  0  0  0  0  0  0  0
   44.9400   14.0420   46.4470 C   0  0  0  0  0  0  0  0  0  0  0  0
   45.3990   15.1530   45.6900 N   0  0  0  0  0  4  0  0  0  0  0  0
   45.7620   16.2130   46.6320 C   0  0  0  0  0  0  0  0  0  0  0  0
   46.5200   14.8930   44.8410 C   0  0  0  0  0  0  0  0  0  0  0  0
   38.5480   13.0640   43.4770 H   0  0  0  0  0  0  0  0  0  0  0  0
   40.9390   12.8710   43.3690 H   0  0  0  0  0  0  0  0  0  0  0  0
   40.9990   10.4070   46.8160 H   0  0  0  0  0  0  0  0  0  0  0  0
   38.5590   10.5940   46.9400 H   0  0  0  0  0  0  0  0  0  0  0  0
   42.9520   12.0490   44.0140 H   0  0  0  0  0  0  0  0  0  0  0  0
   41.4290    7.5410   46.1910 H   0  0  0  0  0  0  0  0  0  0  0  0
   40.8150    7.6340   44.4760 H   0  0  0  0  0  0  0  0  0  0  0  0
   40.9000    6.0410   45.2700 H   0  0  0  0  0  0  0  0  0  0  0  0
   45.4950    3.9940   43.9140 H   0  0  0  0  0  0  0  0  0  0  0  0
   47.5880    4.8510   42.8750 H   0  0  0  0  0  0  0  0  0  0  0  0
   47.7520    7.3180   42.3830 H   0  0  0  0  0  0  0  0  0  0  0  0
   45.8330    8.8020   42.9450 H   0  0  0  0  0  0  0  0  0  0  0  0
   42.8440   14.0580   47.0070 H   0  0  0  0  0  0  0  0  0  0  0  0
   43.1570   14.1220   45.2330 H   0  0  0  0  0  0  0  0  0  0  0  0
   45.5300   13.1190   46.2100 H   0  0  0  0  0  0  0  0  0  0  0  0
   45.0600   14.1790   47.5560 H   0  0  0  0  0  0  0  0  0  0  0  0
   44.6350   15.5610   45.0810 H   0  0  0  0  0  0  0  0  0  0  0  0
   46.6320   15.9240   47.2360 H   0  0  0  0  0  0  0  0  0  0  0  0
   45.9400   17.1780   46.0780 H   0  0  0  0  0  0  0  0  0  0  0  0
   44.9350   16.4350   47.3400 H   0  0  0  0  0  0  0  0  0  0  0  0
   47.1370   15.8240   44.7940 H   0  0  0  0  0  0  0  0  0  0  0  0
   47.1930   14.1000   45.2270 H   0  0  0  0  0  0  0  0  0  0  0  0
   46.2020   14.7070   43.7840 H   0  0  0  0  0  0  0  0  0  0  0  0
  2  1  1  0  0  0  0
  2  7  1  0  0  0  0
  3  2  2  0  0  0  0
  4  3  1  0  0  0  0
  4  5  2  0  0  0  0
  5  6  1  0  0  0  0
  6  7  2  0  0  0  0
  6 34  1  0  0  0  0
  7 35  1  0  0  0  0
  8 36  1  6  0  0  0
  8 14  1  0  0  0  0
  8  5  1  0  0  0  0
  8  9  1  0  0  0  0
  9 27  1  0  0  0  0
  9 10  1  0  0  0  0
 10 11  2  0  0  0  0
 12 13  2  0  0  0  0
 12 10  1  0  0  0  0
 14 12  1  0  0  0  0
 15 17  1  0  0  0  0
 15 14  2  0  0  0  0
 16 15  1  0  0  0  0
 17 21  2  0  0  0  0
 18 19  1  0  0  0  0
 18 17  1  0  0  0  0
 19 20  2  0  0  0  0
 20 21  1  0  0  0  0
 21 22  1  0  0  0  0
 22 39  1  0  0  0  0
 22 37  1  0  0  0  0
 23 40  1  0  0  0  0
 23 19  1  0  0  0  0
 24 23  2  0  0  0  0
 25 24  1  0  0  0  0
 25 26  2  0  0  0  0
 26 18  1  0  0  0  0
 27 28  1  0  0  0  0
 27 44  1  0  0  0  0
 28 47  1  0  0  0  0
 29 28  1  0  0  0  0
 29 30  1  0  0  0  0
 30 49  1  0  0  0  0
 30 51  1  0  0  0  0
 31 53  1  0  0  0  0
 31 29  1  0  0  0  0
 32  3  1  0  0  0  0
 33  4  1  0  0  0  0
 38 22  1  0  0  0  0
 41 24  1  0  0  0  0
 42 25  1  0  0  0  0
 43 26  1  0  0  0  0
 45 27  1  0  0  0  0
 46 28  1  0  0  0  0
 48 29  1  0  0  0  0
 50 30  1  0  0  0  0
 52 31  1  0  0  0  0
 54 31  1  0  0  0  0
M  END
>  <Pose>
1

>  <Score>
-5.61

$$$$
