
 OpenBabel03172210433D

 42 45  0  0  0  0  0  0  0  0999 V2000
   46.5850    5.2110   43.4350 B   0  0  0  0  0  0  0  0  0  0  0  0
   45.1090    6.4190   43.5830 C   0  0  0  0  0  0  0  0  0  0  0  0
   45.2040    7.7030   43.0900 C   0  0  0  0  0  0  0  0  0  0  0  0
   44.1290    8.5610   43.2050 C   0  0  0  0  0  0  0  0  0  0  0  0
   42.9350    8.1990   43.8000 C   0  0  0  0  0  0  0  0  0  0  0  0
   42.8550    6.9080   44.2890 C   0  0  0  0  0  0  0  0  0  0  0  0
   43.9220    6.0380   44.1800 C   0  0  0  0  0  0  0  0  0  0  0  0
   41.8360    9.1070   43.9070 N   0  0  0  0  0  0  0  0  0  0  0  0
   41.2200    9.6820   42.9040 N   0  0  0  0  0  0  0  0  0  0  0  0
   40.2190   10.4890   43.3080 C   0  0  0  0  0  0  0  0  0  0  0  0
   40.2070   10.4140   44.6740 C   0  0  0  0  0  0  0  0  0  0  0  0
   41.2210    9.5490   45.0240 C   0  0  0  0  0  0  0  0  0  0  0  0
   41.5850    9.1620   46.3690 N   0  0  0  0  0  0  0  0  0  0  0  0
   42.0610    9.9230   47.3430 C   0  0  0  0  0  0  0  0  0  0  0  0
   42.2820    9.1750   48.4760 C   0  0  0  0  0  0  0  0  0  0  0  0
   41.9130    7.8930   48.1430 C   0  0  0  0  0  0  0  0  0  0  0  0
   41.4840    7.9070   46.8340 C   0  0  0  0  0  0  0  0  0  0  0  0
   39.2830   11.1280   45.5470 C   0  0  0  0  0  0  0  0  0  0  0  0
   39.6550   12.2550   45.9540 O   0  0  0  0  0  0  0  0  0  0  0  0
   38.0280   10.6160   45.9390 N   0  0  0  0  0  0  0  0  0  0  0  0
   37.6580   10.6570   47.3340 C   0  0  0  0  0  0  0  0  0  0  0  0
   36.5120   11.6130   47.4800 C   0  0  0  0  0  0  0  0  0  0  0  0
   35.8020   11.8190   46.2230 N   0  0  0  0  0  0  0  0  0  0  0  0
   35.8330   10.8720   45.1620 C   0  0  0  0  0  0  0  0  0  0  0  0
   34.8560   10.7790   44.3790 O   0  0  0  0  0  0  0  0  0  0  0  0
   37.0500   10.0350   45.0470 C   0  0  0  0  0  0  0  0  0  0  0  0
   46.1420    8.0210   42.6110 H   0  0  0  0  0  0  0  0  0  0  0  0
   44.2280    9.5640   42.8110 H   0  0  0  0  0  0  0  0  0  0  0  0
   41.9160    6.6200   44.7580 H   0  0  0  0  0  0  0  0  0  0  0  0
   43.8500    5.0390   44.5630 H   0  0  0  0  0  0  0  0  0  0  0  0
   39.5770   11.0660   42.6350 H   0  0  0  0  0  0  0  0  0  0  0  0
   42.2530   10.9900   47.2700 H   0  0  0  0  0  0  0  0  0  0  0  0
   42.6720    9.5260   49.4440 H   0  0  0  0  0  0  0  0  0  0  0  0
   41.9520    7.0290   48.7940 H   0  0  0  0  0  0  0  0  0  0  0  0
   41.1220    7.0280   46.2740 H   0  0  0  0  0  0  0  0  0  0  0  0
   38.5020   10.8550   48.0060 H   0  0  0  0  0  0  0  0  0  0  0  0
   37.2610    9.6390   47.6180 H   0  0  0  0  0  0  0  0  0  0  0  0
   36.8720   12.5820   47.8770 H   0  0  0  0  0  0  0  0  0  0  0  0
   35.7430   11.2410   48.2050 H   0  0  0  0  0  0  0  0  0  0  0  0
   35.2450   12.7200   46.1170 H   0  0  0  0  0  0  0  0  0  0  0  0
   36.8280    9.0100   45.4030 H   0  0  0  0  0  0  0  0  0  0  0  0
   37.4130    9.9390   44.0120 H   0  0  0  0  0  0  0  0  0  0  0  0
  1  2  1  0  0  0  0
  2  7  1  0  0  0  0
  3  4  1  0  0  0  0
  3  2  2  0  0  0  0
  4  5  2  0  0  0  0
  5  8  1  0  0  0  0
  5  6  1  0  0  0  0
  6 29  1  0  0  0  0
  7  6  2  0  0  0  0
  7 30  1  0  0  0  0
  8 12  1  0  0  0  0
  9 10  2  0  0  0  0
  9  8  1  0  0  0  0
 10 11  1  0  0  0  0
 11 12  2  0  0  0  0
 11 18  1  0  0  0  0
 12 13  1  0  0  0  0
 13 17  1  0  0  0  0
 13 14  1  0  0  0  0
 14 15  2  0  0  0  0
 15 33  1  0  0  0  0
 16 15  1  0  0  0  0
 16 34  1  0  0  0  0
 17 16  2  0  0  0  0
 18 20  1  0  0  0  0
 18 19  2  0  0  0  0
 20 21  1  0  0  0  0
 21 22  1  0  0  0  0
 21 37  1  0  0  0  0
 21 36  1  0  0  0  0
 22 38  1  0  0  0  0
 22 39  1  0  0  0  0
 23 22  1  0  0  0  0
 24 23  1  0  0  0  0
 25 24  2  0  0  0  0
 26 24  1  0  0  0  0
 26 41  1  0  0  0  0
 26 20  1  0  0  0  0
 27  3  1  0  0  0  0
 28  4  1  0  0  0  0
 31 10  1  0  0  0  0
 32 14  1  0  0  0  0
 35 17  1  0  0  0  0
 40 23  1  0  0  0  0
 42 26  1  0  0  0  0
M  END
>  <Pose>
1

>  <Score>
-5.44

$$$$
