
 OpenBabel03172210433D

 44 47  0  0  0  0  0  0  0  0999 V2000
   41.2020   10.8150   43.1380 B   0  0  0  0  0  0  0  0  0  0  0  0
   42.6300    9.5310   43.1410 C   0  0  0  0  0  0  0  0  0  0  0  0
   42.3710    8.1790   43.0700 C   0  0  0  0  0  0  0  0  0  0  0  0
   43.3970    7.2540   43.0720 C   0  0  0  0  0  0  0  0  0  0  0  0
   44.7240    7.6430   43.1450 C   0  0  0  0  0  0  0  0  0  0  0  0
   44.9600    9.0010   43.2150 C   0  0  0  0  0  0  0  0  0  0  0  0
   43.9450    9.9300   43.2140 C   0  0  0  0  0  0  0  0  0  0  0  0
   45.7650    6.6710   43.1450 N   0  0  0  0  0  0  0  0  0  0  0  0
   46.6670    6.4400   44.1140 C   0  0  0  0  0  0  0  0  0  0  0  0
   46.7110    7.0880   45.2050 O   0  0  0  0  0  0  0  0  0  0  0  0
   47.5320    5.4060   43.7560 C   0  0  0  0  0  0  0  0  0  0  0  0
   47.1350    5.0140   42.5490 C   0  0  0  0  0  0  0  0  0  0  0  0
   47.9800    4.0190   42.2250 N   0  0  0  0  0  0  0  0  0  0  0  0
   48.8520    3.8210   43.2000 N   0  0  0  0  0  0  0  0  0  0  0  0
   48.5820    4.6760   44.1550 N   0  0  0  0  0  0  0  0  0  0  0  0
   49.2700    4.8280   45.4120 C   0  0  0  0  0  0  0  0  0  0  0  0
   49.2380    3.5650   46.2230 C   0  0  0  0  0  0  0  0  0  0  0  0
   48.8670    3.7200   47.4100 O   0  0  0  0  0  0  0  0  0  0  0  0
   49.5940    2.3220   45.6930 N   0  0  0  0  0  0  0  0  0  0  0  0
   50.7950    1.6290   45.8880 C   0  0  0  0  0  0  0  0  0  0  0  0
   51.6900    1.5800   44.8070 C   0  0  0  0  0  0  0  0  0  0  0  0
   52.8790    0.9120   44.9540 C   0  0  0  0  0  0  0  0  0  0  0  0
   53.2430    0.2790   46.1240 C   0  0  0  0  0  0  0  0  0  0  0  0
   52.3790    0.3220   47.1770 C   0  0  0  0  0  0  0  0  0  0  0  0
   51.1800    0.9900   47.0410 C   0  0  0  0  0  0  0  0  0  0  0  0
   51.3780    2.2320   43.5200 C   0  0  0  0  0  0  0  0  0  0  0  0
   46.0540    5.7830   42.1670 C   0  0  0  0  0  0  0  0  0  0  0  0
   45.4130    5.7050   41.0960 O   0  0  0  0  0  0  0  0  0  0  0  0
   41.3440    7.8290   43.0100 H   0  0  0  0  0  0  0  0  0  0  0  0
   43.2010    6.1800   43.0150 H   0  0  0  0  0  0  0  0  0  0  0  0
   45.9810    9.3340   43.2730 H   0  0  0  0  0  0  0  0  0  0  0  0
   44.1210   11.0060   43.2690 H   0  0  0  0  0  0  0  0  0  0  0  0
   47.9010    3.5130   41.3060 H   0  0  0  0  0  0  0  0  0  0  0  0
   49.6020    3.0930   43.1550 H   0  0  0  0  0  0  0  0  0  0  0  0
   50.3630    5.0320   45.2430 H   0  0  0  0  0  0  0  0  0  0  0  0
   48.7860    5.6670   45.9590 H   0  0  0  0  0  0  0  0  0  0  0  0
   48.8410    1.8740   45.0700 H   0  0  0  0  0  0  0  0  0  0  0  0
   53.6070    0.8510   44.1330 H   0  0  0  0  0  0  0  0  0  0  0  0
   54.1940   -0.2500   46.2270 H   0  0  0  0  0  0  0  0  0  0  0  0
   52.6510   -0.1760   48.1130 H   0  0  0  0  0  0  0  0  0  0  0  0
   50.5420    0.9920   47.8980 H   0  0  0  0  0  0  0  0  0  0  0  0
   52.0950    1.8930   42.7470 H   0  0  0  0  0  0  0  0  0  0  0  0
   50.3690    1.9130   43.1570 H   0  0  0  0  0  0  0  0  0  0  0  0
   51.4280    3.3310   43.5540 H   0  0  0  0  0  0  0  0  0  0  0  0
  1  2  1  0  0  0  0
  2  7  1  0  0  0  0
  3  4  1  0  0  0  0
  3  2  2  0  0  0  0
  4  5  2  0  0  0  0
  5  8  1  0  0  0  0
  5  6  1  0  0  0  0
  6 31  1  0  0  0  0
  7  6  2  0  0  0  0
  7 32  1  0  0  0  0
  8  9  1  0  0  0  0
  9 10  2  0  0  0  0
 11  9  1  0  0  0  0
 11 15  1  0  0  0  0
 12 11  2  0  0  0  0
 13 12  1  0  0  0  0
 13 14  1  0  0  0  0
 14 15  1  0  0  0  0
 15 16  1  0  0  0  0
 16 36  1  0  0  0  0
 16 17  1  0  0  0  0
 17 18  2  0  0  0  0
 19 20  1  0  0  0  0
 19 17  1  0  0  0  0
 20 25  1  0  0  0  0
 21 22  1  0  0  0  0
 21 20  2  0  0  0  0
 22 23  2  0  0  0  0
 23 39  1  0  0  0  0
 23 24  1  0  0  0  0
 24 40  1  0  0  0  0
 25 24  2  0  0  0  0
 25 41  1  0  0  0  0
 26 44  1  0  0  0  0
 26 21  1  0  0  0  0
 27 12  1  0  0  0  0
 27  8  1  0  0  0  0
 28 27  2  0  0  0  0
 29  3  1  0  0  0  0
 30  4  1  0  0  0  0
 33 13  1  0  0  0  0
 34 14  1  0  0  0  0
 35 16  1  0  0  0  0
 37 19  1  0  0  0  0
 38 22  1  0  0  0  0
 42 26  1  0  0  0  0
 43 26  1  0  0  0  0
M  END
>  <Pose>
1

>  <Score>
-7.04

$$$$
