
 OpenBabel03172210433D

 49 52  0  0  0  0  0  0  0  0999 V2000
   50.0530    1.6290   42.8520 B   0  0  0  0  0  0  0  0  0  0  0  0
   48.8110    3.0780   43.0060 C   0  0  0  0  0  0  0  0  0  0  0  0
   47.9300    3.3790   41.9860 C   0  0  0  0  0  0  0  0  0  0  0  0
   47.0280    4.4330   42.1040 C   0  0  0  0  0  0  0  0  0  0  0  0
   46.9810    5.2160   43.2380 C   0  0  0  0  0  0  0  0  0  0  0  0
   47.8630    4.9110   44.2520 C   0  0  0  0  0  0  0  0  0  0  0  0
   48.7570    3.8660   44.1380 C   0  0  0  0  0  0  0  0  0  0  0  0
   46.0740    6.3010   43.3940 N   0  0  0  0  0  0  0  0  0  0  0  0
   44.7970    6.3070   43.8110 C   0  0  0  0  0  0  0  0  0  0  0  0
   44.1920    5.2570   44.1480 O   0  0  0  0  0  0  0  0  0  0  0  0
   44.2780    7.5900   43.8130 C   0  0  0  0  0  0  0  0  0  0  0  0
   45.2570    8.3780   43.3890 C   0  0  0  0  0  0  0  0  0  0  0  0
   44.7530    9.6220   43.3910 N   0  0  0  0  0  0  0  0  0  0  0  0
   43.4990    9.5940   43.8050 N   0  0  0  0  0  0  0  0  0  0  0  0
   43.1880    8.3530   44.0710 N   0  0  0  0  0  0  0  0  0  0  0  0
   41.9250    7.8440   44.5510 C   0  0  0  0  0  0  0  0  0  0  0  0
   41.9020    7.9200   46.0590 C   0  0  0  0  0  0  0  0  0  0  0  0
   42.9700    7.7740   46.6940 O   0  0  0  0  0  0  0  0  0  0  0  0
   40.6950    8.1520   46.7340 N   0  0  0  0  0  0  0  0  0  0  0  0
   39.9050    9.3150   46.6370 C   0  0  0  0  0  0  0  0  0  0  0  0
   39.8530   10.1670   45.5630 C   0  0  0  0  0  0  0  0  0  0  0  0
   39.0700   11.3020   45.5380 C   0  0  0  0  0  0  0  0  0  0  0  0
   38.3040   11.5860   46.6490 C   0  0  0  0  0  0  0  0  0  0  0  0
   38.3270   10.7510   47.7540 C   0  0  0  0  0  0  0  0  0  0  0  0
   39.1130    9.6310   47.7580 C   0  0  0  0  0  0  0  0  0  0  0  0
   37.5060   12.7270   46.6440 O   0  0  0  0  0  0  0  0  0  0  0  0
   36.3920   12.7850   45.7750 C   0  0  0  0  0  0  0  0  0  0  0  0
   39.0380   12.1480   44.4320 O   0  0  0  0  0  0  0  0  0  0  0  0
   40.2590   12.3320   43.7030 C   0  0  0  0  0  0  0  0  0  0  0  0
   46.3620    7.5940   43.1290 C   0  0  0  0  0  0  0  0  0  0  0  0
   47.4870    8.0220   42.7040 O   0  0  0  0  0  0  0  0  0  0  0  0
   47.9730    2.7560   41.0940 H   0  0  0  0  0  0  0  0  0  0  0  0
   46.3460    4.6600   41.3040 H   0  0  0  0  0  0  0  0  0  0  0  0
   47.8190    5.5320   45.1440 H   0  0  0  0  0  0  0  0  0  0  0  0
   49.4440    3.6480   44.9600 H   0  0  0  0  0  0  0  0  0  0  0  0
   45.2420   10.4960   43.1150 H   0  0  0  0  0  0  0  0  0  0  0  0
   42.8380   10.4190   43.9140 H   0  0  0  0  0  0  0  0  0  0  0  0
   41.7570    6.7770   44.2740 H   0  0  0  0  0  0  0  0  0  0  0  0
   41.0830    8.4600   44.2000 H   0  0  0  0  0  0  0  0  0  0  0  0
   40.3440    7.3670   47.3750 H   0  0  0  0  0  0  0  0  0  0  0  0
   40.4370    9.9620   44.6760 H   0  0  0  0  0  0  0  0  0  0  0  0
   37.7090   11.0060   48.6170 H   0  0  0  0  0  0  0  0  0  0  0  0
   39.1210    8.9740   48.6460 H   0  0  0  0  0  0  0  0  0  0  0  0
   35.7840   11.8730   45.9860 H   0  0  0  0  0  0  0  0  0  0  0  0
   36.7360   12.7510   44.7340 H   0  0  0  0  0  0  0  0  0  0  0  0
   35.7980   13.6980   46.0100 H   0  0  0  0  0  0  0  0  0  0  0  0
   40.5680   11.3610   43.2260 H   0  0  0  0  0  0  0  0  0  0  0  0
   40.1330   13.1050   42.9190 H   0  0  0  0  0  0  0  0  0  0  0  0
   41.0730   12.6520   44.3860 H   0  0  0  0  0  0  0  0  0  0  0  0
  1  2  1  0  0  0  0
  2  7  1  0  0  0  0
  3  4  1  0  0  0  0
  3  2  2  0  0  0  0
  4  5  2  0  0  0  0
  5  8  1  0  0  0  0
  5  6  1  0  0  0  0
  6 34  1  0  0  0  0
  7  6  2  0  0  0  0
  7 35  1  0  0  0  0
  8  9  1  0  0  0  0
  9 11  1  0  0  0  0
  9 10  2  0  0  0  0
 11 15  1  0  0  0  0
 12 13  1  0  0  0  0
 12 11  2  0  0  0  0
 13 14  1  0  0  0  0
 14 37  1  0  0  0  0
 14 15  1  0  0  0  0
 15 16  1  0  0  0  0
 16 17  1  0  0  0  0
 17 18  2  0  0  0  0
 17 19  1  0  0  0  0
 19 40  1  0  0  0  0
 20 19  1  0  0  0  0
 20 25  1  0  0  0  0
 21 20  2  0  0  0  0
 22 21  1  0  0  0  0
 22 23  2  0  0  0  0
 23 24  1  0  0  0  0
 24 25  2  0  0  0  0
 24 42  1  0  0  0  0
 25 43  1  0  0  0  0
 26 23  1  0  0  0  0
 27 44  1  0  0  0  0
 27 46  1  0  0  0  0
 27 26  1  0  0  0  0
 28 22  1  0  0  0  0
 29 49  1  0  0  0  0
 29 28  1  0  0  0  0
 30 12  1  0  0  0  0
 30  8  1  0  0  0  0
 31 30  2  0  0  0  0
 32  3  1  0  0  0  0
 33  4  1  0  0  0  0
 36 13  1  0  0  0  0
 38 16  1  0  0  0  0
 39 16  1  0  0  0  0
 41 21  1  0  0  0  0
 45 27  1  0  0  0  0
 47 29  1  0  0  0  0
 48 29  1  0  0  0  0
M  END
>  <Pose>
1

>  <Score>
-7.96

$$$$
