
 OpenBabel03172210433D

 49 52  0  0  0  0  0  0  0  0999 V2000
   52.5010    1.7560   48.1520 B   0  0  0  0  0  0  0  0  0  0  0  0
   51.2780    2.5210   46.8740 C   0  0  0  0  0  0  0  0  0  0  0  0
   50.0880    3.0790   47.2750 C   0  0  0  0  0  0  0  0  0  0  0  0
   49.1970    3.6330   46.3420 C   0  0  0  0  0  0  0  0  0  0  0  0
   49.4980    3.6290   45.0020 C   0  0  0  0  0  0  0  0  0  0  0  0
   50.6980    3.0640   44.6250 C   0  0  0  0  0  0  0  0  0  0  0  0
   51.5760    2.5180   45.5310 C   0  0  0  0  0  0  0  0  0  0  0  0
   48.5950    4.1890   44.0460 N   0  0  0  0  0  0  0  0  0  0  0  0
   47.9240    5.3430   44.0730 C   0  0  0  0  0  0  0  0  0  0  0  0
   47.9860    6.1840   45.0320 O   0  0  0  0  0  0  0  0  0  0  0  0
   47.1430    5.5500   42.9600 C   0  0  0  0  0  0  0  0  0  0  0  0
   47.3520    4.4530   42.2060 C   0  0  0  0  0  0  0  0  0  0  0  0
   46.5930    4.6320   41.0980 N   0  0  0  0  0  0  0  0  0  0  0  0
   45.9500    5.7840   41.1690 N   0  0  0  0  0  0  0  0  0  0  0  0
   46.2850    6.3520   42.3100 N   0  0  0  0  0  0  0  0  0  0  0  0
   45.8000    7.6230   42.7620 C   0  0  0  0  0  0  0  0  0  0  0  0
   44.6090    7.5360   43.6030 C   0  0  0  0  0  0  0  0  0  0  0  0
   43.6600    6.7350   43.3590 O   0  0  0  0  0  0  0  0  0  0  0  0
   44.5220    8.3880   44.7260 N   0  0  0  0  0  0  0  0  0  0  0  0
   43.2410    8.7890   45.1860 C   0  0  0  0  0  0  0  0  0  0  0  0
   42.4810    9.5280   44.3150 C   0  0  0  0  0  0  0  0  0  0  0  0
   41.2170    9.9880   44.7040 C   0  0  0  0  0  0  0  0  0  0  0  0
   40.7420    9.7000   45.9560 C   0  0  0  0  0  0  0  0  0  0  0  0
   41.5030    8.9520   46.8520 C   0  0  0  0  0  0  0  0  0  0  0  0
   42.7490    8.5100   46.4350 C   0  0  0  0  0  0  0  0  0  0  0  0
   40.9630    8.7060   48.0960 O   0  0  0  0  0  0  0  0  0  0  0  0
   41.3950    7.7650   49.0300 C   0  0  0  0  0  0  0  0  0  0  0  0
   40.5420   10.7140   43.7510 O   0  0  0  0  0  0  0  0  0  0  0  0
   40.2180   12.0510   43.8690 C   0  0  0  0  0  0  0  0  0  0  0  0
   48.2320    3.6190   42.8550 C   0  0  0  0  0  0  0  0  0  0  0  0
   48.6740    2.5060   42.4800 O   0  0  0  0  0  0  0  0  0  0  0  0
   49.8470    3.0870   48.3250 H   0  0  0  0  0  0  0  0  0  0  0  0
   48.2660    4.0630   46.6830 H   0  0  0  0  0  0  0  0  0  0  0  0
   50.9120    3.0710   43.5550 H   0  0  0  0  0  0  0  0  0  0  0  0
   52.5190    2.0770   45.2190 H   0  0  0  0  0  0  0  0  0  0  0  0
   46.5390    3.9390   40.3150 H   0  0  0  0  0  0  0  0  0  0  0  0
   45.2980    6.1260   40.4130 H   0  0  0  0  0  0  0  0  0  0  0  0
   46.5860    8.1960   43.3220 H   0  0  0  0  0  0  0  0  0  0  0  0
   45.5450    8.3040   41.8980 H   0  0  0  0  0  0  0  0  0  0  0  0
   45.4040    8.7270   45.2200 H   0  0  0  0  0  0  0  0  0  0  0  0
   42.8670    9.7550   43.3120 H   0  0  0  0  0  0  0  0  0  0  0  0
   39.7630   10.0660   46.2330 H   0  0  0  0  0  0  0  0  0  0  0  0
   43.3430    7.9240   47.1270 H   0  0  0  0  0  0  0  0  0  0  0  0
   40.5270    7.3880   49.6180 H   0  0  0  0  0  0  0  0  0  0  0  0
   42.0710    8.2340   49.8050 H   0  0  0  0  0  0  0  0  0  0  0  0
   41.9170    6.8940   48.5940 H   0  0  0  0  0  0  0  0  0  0  0  0
   40.3390   12.5600   42.8820 H   0  0  0  0  0  0  0  0  0  0  0  0
   40.8120   12.5910   44.6030 H   0  0  0  0  0  0  0  0  0  0  0  0
   39.1130   12.1140   44.1040 H   0  0  0  0  0  0  0  0  0  0  0  0
  2  3  1  0  0  0  0
  2  1  1  0  0  0  0
  3 32  1  0  0  0  0
  4 33  1  0  0  0  0
  4  3  2  0  0  0  0
  5  4  1  0  0  0  0
  6  5  2  0  0  0  0
  6  7  1  0  0  0  0
  7  2  2  0  0  0  0
  8  9  1  0  0  0  0
  8  5  1  0  0  0  0
  9 10  2  0  0  0  0
 11  9  1  0  0  0  0
 12 30  1  0  0  0  0
 12 11  2  0  0  0  0
 13 14  1  0  0  0  0
 13 12  1  0  0  0  0
 14 15  1  0  0  0  0
 15 16  1  0  0  0  0
 15 11  1  0  0  0  0
 16 38  1  0  0  0  0
 16 17  1  0  0  0  0
 17 19  1  0  0  0  0
 18 17  2  0  0  0  0
 19 20  1  0  0  0  0
 19 40  1  0  0  0  0
 20 25  1  0  0  0  0
 21 22  1  0  0  0  0
 21 20  2  0  0  0  0
 22 23  2  0  0  0  0
 23 42  1  0  0  0  0
 23 24  1  0  0  0  0
 24 26  1  0  0  0  0
 25 24  2  0  0  0  0
 25 43  1  0  0  0  0
 26 27  1  0  0  0  0
 27 44  1  0  0  0  0
 27 45  1  0  0  0  0
 28 29  1  0  0  0  0
 28 22  1  0  0  0  0
 29 49  1  0  0  0  0
 29 48  1  0  0  0  0
 30  8  1  0  0  0  0
 31 30  2  0  0  0  0
 34  6  1  0  0  0  0
 35  7  1  0  0  0  0
 36 13  1  0  0  0  0
 37 14  1  0  0  0  0
 39 16  1  0  0  0  0
 41 21  1  0  0  0  0
 46 27  1  0  0  0  0
 47 29  1  0  0  0  0
M  END
>  <Pose>
1

>  <Score>
-7.78

$$$$
