
 OpenBabel03172210433D

 48 51  0  0  0  0  0  0  0  0999 V2000
   45.0560   16.9450   47.9700 B   0  0  0  0  0  0  0  0  0  0  0  0
   44.3190   15.5010   46.9630 C   0  0  0  0  0  0  0  0  0  0  0  0
   45.0230   14.8720   45.9570 C   0  0  0  0  0  0  0  0  0  0  0  0
   44.4730   13.8220   45.2370 C   0  0  0  0  0  0  0  0  0  0  0  0
   43.2000   13.3530   45.4870 C   0  0  0  0  0  0  0  0  0  0  0  0
   42.4910   13.9820   46.4940 C   0  0  0  0  0  0  0  0  0  0  0  0
   43.0370   15.0270   47.2110 C   0  0  0  0  0  0  0  0  0  0  0  0
   42.6020   12.2750   44.7740 N   0  0  0  0  0  0  0  0  0  0  0  0
   43.1610   11.0760   44.4480 C   0  0  0  0  0  0  0  0  0  0  0  0
   44.3330   10.7490   44.7530 O   0  0  0  0  0  0  0  0  0  0  0  0
   42.2710   10.2910   43.7490 C   0  0  0  0  0  0  0  0  0  0  0  0
   41.1610   11.0070   43.6430 C   0  0  0  0  0  0  0  0  0  0  0  0
   40.2710   10.2640   42.9610 N   0  0  0  0  0  0  0  0  0  0  0  0
   40.8460    9.1090   42.6600 N   0  0  0  0  0  0  0  0  0  0  0  0
   42.0790    9.0920   43.1300 N   0  0  0  0  0  0  0  0  0  0  0  0
   43.0550    8.0470   43.0200 C   0  0  0  0  0  0  0  0  0  0  0  0
   43.6460    7.6360   44.3490 C   0  0  0  0  0  0  0  0  0  0  0  0
   42.8200    7.3440   45.2400 O   0  0  0  0  0  0  0  0  0  0  0  0
   45.0220    7.5830   44.5580 N   0  0  0  0  0  0  0  0  0  0  0  0
   45.9550    6.5920   44.2060 C   0  0  0  0  0  0  0  0  0  0  0  0
   45.5380    5.4540   43.5150 C   0  0  0  0  0  0  0  0  0  0  0  0
   46.4080    4.4570   43.1680 C   0  0  0  0  0  0  0  0  0  0  0  0
   47.7600    4.5530   43.5030 C   0  0  0  0  0  0  0  0  0  0  0  0
   48.1390    5.6860   44.1810 C   0  0  0  0  0  0  0  0  0  0  0  0
   47.2690    6.6920   44.5310 C   0  0  0  0  0  0  0  0  0  0  0  0
   48.5990    3.5260   43.1380 O   0  0  0  0  0  0  0  0  0  0  0  0
   49.7170    3.0760   43.8310 C   0  0  0  0  0  0  0  0  0  0  0  0
   50.4740    1.9910   43.1450 C   0  0  0  0  0  0  0  0  0  0  0  0
   41.3610   12.2170   44.2690 C   0  0  0  0  0  0  0  0  0  0  0  0
   40.5210   13.1660   44.3740 O   0  0  0  0  0  0  0  0  0  0  0  0
   46.0270   15.2410   45.7590 H   0  0  0  0  0  0  0  0  0  0  0  0
   45.0260   13.3320   44.4520 H   0  0  0  0  0  0  0  0  0  0  0  0
   41.4900   13.6120   46.6870 H   0  0  0  0  0  0  0  0  0  0  0  0
   42.4640   15.5000   47.9910 H   0  0  0  0  0  0  0  0  0  0  0  0
   39.3010   10.5140   42.7030 H   0  0  0  0  0  0  0  0  0  0  0  0
   40.3760    8.3230   42.1230 H   0  0  0  0  0  0  0  0  0  0  0  0
   42.5890    7.1300   42.5710 H   0  0  0  0  0  0  0  0  0  0  0  0
   43.9370    8.3430   42.3900 H   0  0  0  0  0  0  0  0  0  0  0  0
   45.4410    8.4350   45.0730 H   0  0  0  0  0  0  0  0  0  0  0  0
   44.5010    5.3570   43.2470 H   0  0  0  0  0  0  0  0  0  0  0  0
   46.0470    3.5730   42.6250 H   0  0  0  0  0  0  0  0  0  0  0  0
   49.1720    5.8040   44.4610 H   0  0  0  0  0  0  0  0  0  0  0  0
   47.6410    7.5750   45.0690 H   0  0  0  0  0  0  0  0  0  0  0  0
   50.4270    3.9510   43.9430 H   0  0  0  0  0  0  0  0  0  0  0  0
   49.4630    2.7410   44.8600 H   0  0  0  0  0  0  0  0  0  0  0  0
   51.4920    2.2700   42.8060 H   0  0  0  0  0  0  0  0  0  0  0  0
   50.6230    1.1250   43.8300 H   0  0  0  0  0  0  0  0  0  0  0  0
   49.9440    1.5630   42.2530 H   0  0  0  0  0  0  0  0  0  0  0  0
  2  7  1  0  0  0  0
  2  1  1  0  0  0  0
  3  2  2  0  0  0  0
  4  5  2  0  0  0  0
  4  3  1  0  0  0  0
  5  6  1  0  0  0  0
  6 33  1  0  0  0  0
  6  7  2  0  0  0  0
  7 34  1  0  0  0  0
  8  5  1  0  0  0  0
  9 10  2  0  0  0  0
  9  8  1  0  0  0  0
 11  9  1  0  0  0  0
 12 11  2  0  0  0  0
 12 29  1  0  0  0  0
 13 12  1  0  0  0  0
 14 13  1  0  0  0  0
 14 15  1  0  0  0  0
 15 11  1  0  0  0  0
 16 15  1  0  0  0  0
 16 17  1  0  0  0  0
 17 19  1  0  0  0  0
 17 18  2  0  0  0  0
 19 39  1  0  0  0  0
 20 25  1  0  0  0  0
 20 19  1  0  0  0  0
 21 20  2  0  0  0  0
 22 23  2  0  0  0  0
 22 21  1  0  0  0  0
 23 24  1  0  0  0  0
 24 42  1  0  0  0  0
 24 25  2  0  0  0  0
 25 43  1  0  0  0  0
 26 23  1  0  0  0  0
 26 27  1  0  0  0  0
 27 44  1  0  0  0  0
 27 45  1  0  0  0  0
 28 47  1  0  0  0  0
 28 27  1  0  0  0  0
 29 30  2  0  0  0  0
 29  8  1  0  0  0  0
 31  3  1  0  0  0  0
 32  4  1  0  0  0  0
 35 13  1  0  0  0  0
 36 14  1  0  0  0  0
 37 16  1  0  0  0  0
 38 16  1  0  0  0  0
 40 21  1  0  0  0  0
 41 22  1  0  0  0  0
 46 28  1  0  0  0  0
 48 28  1  0  0  0  0
M  END
>  <Pose>
1

>  <Score>
-7.81

$$$$
