
 OpenBabel03172210433D

 38 42  0  0  1  0  0  0  0  0999 V2000
   47.0070    4.5820   43.6910 B   0  0  0  0  0  0  0  0  0  0  0  0
   45.7820    6.0280   43.6060 C   0  0  0  0  0  0  0  0  0  0  0  0
   46.1000    7.1430   42.8690 C   0  0  0  0  0  0  0  0  0  0  0  0
   45.1910    8.1770   42.8240 C   0  0  0  0  0  0  0  0  0  0  0  0
   43.9870    8.1260   43.4910 C   0  0  0  0  0  0  0  0  0  0  0  0
   43.6640    7.0000   44.2360 C   0  0  0  0  0  0  0  0  0  0  0  0
   44.5880    5.9530   44.2790 C   0  0  0  0  0  0  0  0  0  0  0  0
   43.0490    9.2080   43.4340 N   0  0  0  0  0  0  0  0  0  0  0  0
   43.3990   10.5460   43.7490 C   0  0  0  0  0  0  0  0  0  0  0  0
   44.5760   10.9810   43.7680 O   0  0  0  0  0  0  0  0  0  0  0  0
   42.1610   11.3160   44.0430 C   0  0  2  0  0  0  0  0  0  0  0  0
   41.8550   11.3570   45.5090 C   0  0  1  0  0  0  0  0  0  0  0  0
   40.4430   11.4070   45.4730 O   0  0  0  0  0  0  0  0  0  0  0  0
   40.2470   10.1830   44.7850 C   0  0  1  0  0  0  0  0  0  0  0  0
   41.0240   10.4270   43.5380 C   0  0  2  0  0  0  0  0  0  0  0  0
   41.6680    9.1690   43.0760 C   0  0  0  0  0  0  0  0  0  0  0  0
   41.0860    8.2560   42.4830 O   0  0  0  0  0  0  0  0  0  0  0  0
   41.0370    9.2830   45.6640 C   0  0  0  0  0  0  0  0  0  0  0  0
   42.0770   10.0110   46.0600 C   0  0  0  0  0  0  0  0  0  0  0  0
   42.4490   12.4750   46.2510 C   0  0  0  0  0  0  0  0  0  0  0  0
   42.8820   13.5030   45.4590 O   0  0  0  0  0  0  0  0  0  0  0  0
   44.2530   13.5370   45.4900 C   0  0  0  0  0  0  0  0  0  0  0  0
   44.6830   12.4290   46.3950 C   0  0  0  0  0  0  0  0  0  0  0  0
   43.5070   12.0650   47.0420 O   0  0  0  0  0  0  0  0  0  0  0  0
   47.0420    7.2340   42.3210 H   0  0  0  0  0  0  0  0  0  0  0  0
   45.4150    9.0840   42.2420 H   0  0  0  0  0  0  0  0  0  0  0  0
   42.7200    6.9730   44.7520 H   0  0  0  0  0  0  0  0  0  0  0  0
   44.3360    5.0770   44.8590 H   0  0  0  0  0  0  0  0  0  0  0  0
   42.1900   12.2930   43.5620 H   0  0  0  0  0  0  0  0  0  0  0  0
   39.2100    9.9200   44.6680 H   0  0  0  0  0  0  0  0  0  0  0  0
   40.4690   10.9130   42.7360 H   0  0  0  0  0  0  0  0  0  0  0  0
   40.7560    8.2610   45.8840 H   0  0  0  0  0  0  0  0  0  0  0  0
   42.8730    9.5910   46.6660 H   0  0  0  0  0  0  0  0  0  0  0  0
   41.6650   12.8750   46.9500 H   0  0  0  0  0  0  0  0  0  0  0  0
   44.6640   14.5000   45.8510 H   0  0  0  0  0  0  0  0  0  0  0  0
   44.6230   13.3070   44.4580 H   0  0  0  0  0  0  0  0  0  0  0  0
   45.4510   12.7950   47.1370 H   0  0  0  0  0  0  0  0  0  0  0  0
   45.0850   11.5400   45.8460 H   0  0  0  0  0  0  0  0  0  0  0  0
  2  1  1  0  0  0  0
  2  7  1  0  0  0  0
  3  2  2  0  0  0  0
  4  3  1  0  0  0  0
  4  5  2  0  0  0  0
  5  6  1  0  0  0  0
  6  7  2  0  0  0  0
  6 27  1  0  0  0  0
  7 28  1  0  0  0  0
  8  5  1  0  0  0  0
  8  9  1  0  0  0  0
  9 10  2  0  0  0  0
  9 11  1  0  0  0  0
 11 29  1  6  0  0  0
 11 12  1  0  0  0  0
 12 19  1  0  0  0  0
 12 20  1  1  0  0  0
 13 12  1  0  0  0  0
 14 30  1  6  0  0  0
 14 13  1  0  0  0  0
 14 18  1  0  0  0  0
 15 31  1  6  0  0  0
 15 11  1  0  0  0  0
 15 14  1  0  0  0  0
 16  8  1  0  0  0  0
 16 15  1  0  0  0  0
 17 16  2  0  0  0  0
 18 32  1  0  0  0  0
 18 19  2  0  0  0  0
 19 33  1  0  0  0  0
 20 34  1  0  0  0  0
 20 24  1  0  0  0  0
 21 22  1  0  0  0  0
 21 20  1  0  0  0  0
 22 35  1  0  0  0  0
 22 23  1  0  0  0  0
 23 24  1  0  0  0  0
 23 37  1  0  0  0  0
 25  3  1  0  0  0  0
 26  4  1  0  0  0  0
 36 22  1  0  0  0  0
 38 23  1  0  0  0  0
M  END
>  <Pose>
1

>  <Score>
-4.36

$$$$
