
 OpenBabel03172210433D

 50 53  0  0  0  0  0  0  0  0999 V2000
   51.5520    3.2470   48.4600 B   0  0  0  0  0  0  0  0  0  0  0  0
   50.4410    3.6200   46.9470 C   0  0  0  0  0  0  0  0  0  0  0  0
   50.9820    3.7120   45.6750 C   0  0  0  0  0  0  0  0  0  0  0  0
   50.1720    3.9810   44.5890 C   0  0  0  0  0  0  0  0  0  0  0  0
   48.8100    4.1680   44.7210 C   0  0  0  0  0  0  0  0  0  0  0  0
   48.2560    4.0800   45.9800 C   0  0  0  0  0  0  0  0  0  0  0  0
   49.0800    3.8090   47.0540 C   0  0  0  0  0  0  0  0  0  0  0  0
   48.0300    4.4400   43.5910 N   0  0  0  0  0  0  0  0  0  0  0  0
   48.1600    3.6210   42.4280 C   0  0  0  0  0  0  0  0  0  0  0  0
   48.9950    2.6620   42.4760 O   0  0  0  0  0  0  0  0  0  0  0  0
   47.3720    3.8960   41.2830 N   0  0  0  0  0  0  0  0  0  0  0  0
   46.4320    4.9630   41.2070 C   0  0  0  0  0  0  0  0  0  0  0  0
   45.7430    5.1840   40.1720 O   0  0  0  0  0  0  0  0  0  0  0  0
   46.2720    5.8280   42.3900 C   0  0  0  0  0  0  0  0  0  0  0  0
   45.4150    6.8370   42.3810 C   0  0  0  0  0  0  0  0  0  0  0  0
   45.2830    7.6540   43.5360 N   0  0  0  0  0  0  0  0  0  0  0  0
   45.0990    9.0260   43.5300 N   0  0  0  0  0  0  0  0  0  0  0  0
   43.8340    9.6720   43.4640 C   0  0  0  0  0  0  0  0  0  0  0  0
   43.5330   10.8400   44.0420 N   0  0  0  0  0  0  0  0  0  0  0  0
   42.2560   11.1570   43.7760 C   0  0  0  0  0  0  0  0  0  0  0  0
   41.7330   10.1360   42.9930 C   0  0  0  0  0  0  0  0  0  0  0  0
   42.7290    9.2660   42.8360 N   0  0  0  0  0  0  0  0  0  0  0  0
   40.4610   10.1600   42.5580 N   0  0  0  0  0  0  0  0  0  0  0  0
   39.6860   11.1930   42.8910 C   0  0  0  0  0  0  0  0  0  0  0  0
   38.4800   11.2550   42.5010 O   0  0  0  0  0  0  0  0  0  0  0  0
   40.1330   12.2270   43.6540 N   0  0  0  0  0  0  0  0  0  0  0  0
   41.4150   12.1920   44.0860 C   0  0  0  0  0  0  0  0  0  0  0  0
   41.8300   13.1380   44.7880 O   0  0  0  0  0  0  0  0  0  0  0  0
   39.2570   13.3210   43.9840 C   0  0  0  0  0  0  0  0  0  0  0  0
   39.9920    9.0700   41.7550 C   0  0  0  0  0  0  0  0  0  0  0  0
   44.3840   11.7160   44.8550 C   0  0  0  0  0  0  0  0  0  0  0  0
   47.0970    5.5180   43.5520 C   0  0  0  0  0  0  0  0  0  0  0  0
   46.9950    6.2290   44.5850 O   0  0  0  0  0  0  0  0  0  0  0  0
   52.0500    3.5610   45.5970 H   0  0  0  0  0  0  0  0  0  0  0  0
   50.6840    4.0370   43.6230 H   0  0  0  0  0  0  0  0  0  0  0  0
   47.1770    4.2180   46.1510 H   0  0  0  0  0  0  0  0  0  0  0  0
   48.6080    3.7490   48.0240 H   0  0  0  0  0  0  0  0  0  0  0  0
   47.4970    3.2720   40.4530 H   0  0  0  0  0  0  0  0  0  0  0  0
   44.8130    7.0640   41.5290 H   0  0  0  0  0  0  0  0  0  0  0  0
   45.3330    7.1420   44.4590 H   0  0  0  0  0  0  0  0  0  0  0  0
   45.9940    9.5970   43.5820 H   0  0  0  0  0  0  0  0  0  0  0  0
   38.3320   13.2360   43.3770 H   0  0  0  0  0  0  0  0  0  0  0  0
   39.7070   14.3020   43.7100 H   0  0  0  0  0  0  0  0  0  0  0  0
   39.0280   13.3050   45.0640 H   0  0  0  0  0  0  0  0  0  0  0  0
   39.4340    8.3120   42.3400 H   0  0  0  0  0  0  0  0  0  0  0  0
   39.3660    9.4850   40.9380 H   0  0  0  0  0  0  0  0  0  0  0  0
   40.8460    8.5520   41.2710 H   0  0  0  0  0  0  0  0  0  0  0  0
   44.8010   12.5100   44.1710 H   0  0  0  0  0  0  0  0  0  0  0  0
   43.8150   12.2320   45.6290 H   0  0  0  0  0  0  0  0  0  0  0  0
   45.2490   11.1390   45.2350 H   0  0  0  0  0  0  0  0  0  0  0  0
  2  7  1  0  0  0  0
  2  1  1  0  0  0  0
  3  2  2  0  0  0  0
  4  5  2  0  0  0  0
  4  3  1  0  0  0  0
  5  6  1  0  0  0  0
  6 36  1  0  0  0  0
  6  7  2  0  0  0  0
  7 37  1  0  0  0  0
  8  5  1  0  0  0  0
  9 10  2  0  0  0  0
  9  8  1  0  0  0  0
 11  9  1  0  0  0  0
 12 11  1  0  0  0  0
 12 14  1  0  0  0  0
 13 12  2  0  0  0  0
 14 32  1  0  0  0  0
 15 14  2  0  0  0  0
 15 16  1  0  0  0  0
 16 40  1  0  0  0  0
 17 16  1  0  0  0  0
 17 41  1  0  0  0  0
 18 17  1  0  0  0  0
 18 19  1  0  0  0  0
 19 31  1  0  0  0  0
 20 19  1  0  0  0  0
 20 27  1  0  0  0  0
 21 20  2  0  0  0  0
 22 21  1  0  0  0  0
 22 18  2  0  0  0  0
 23 24  1  0  0  0  0
 23 21  1  0  0  0  0
 24 26  1  0  0  0  0
 25 24  2  0  0  0  0
 26 29  1  0  0  0  0
 26 27  1  0  0  0  0
 27 28  2  0  0  0  0
 29 44  1  0  0  0  0
 30 45  1  0  0  0  0
 30 23  1  0  0  0  0
 31 50  1  0  0  0  0
 31 49  1  0  0  0  0
 32  8  1  0  0  0  0
 32 33  2  0  0  0  0
 34  3  1  0  0  0  0
 35  4  1  0  0  0  0
 38 11  1  0  0  0  0
 39 15  1  0  0  0  0
 42 29  1  0  0  0  0
 43 29  1  0  0  0  0
 46 30  1  0  0  0  0
 47 30  1  0  0  0  0
 48 31  1  0  0  0  0
M  END
>  <Pose>
1

>  <Score>
-7.15

$$$$
