
 OpenBabel03172210433D

 47 51  0  0  1  0  0  0  0  0999 V2000
   47.9110    2.9170   42.2130 B   0  0  0  0  0  0  0  0  0  0  0  0
   46.8590    4.4880   42.5640 C   0  0  0  0  0  0  0  0  0  0  0  0
   46.3730    5.2670   41.5580 C   0  0  0  0  0  0  0  0  0  0  0  0
   45.6140    6.3970   41.8530 C   0  0  0  0  0  0  0  0  0  0  0  0
   45.3340    6.7610   43.1530 C   0  0  0  0  0  0  0  0  0  0  0  0
   45.8420    5.9500   44.1450 C   0  0  0  0  0  0  0  0  0  0  0  0
   46.5940    4.8280   43.8810 C   0  0  0  0  0  0  0  0  0  0  0  0
   44.5560    7.9220   43.4180 N   0  0  0  0  0  0  0  0  0  0  0  0
   44.7450    9.1530   42.9550 N   0  0  0  0  0  0  0  0  0  0  0  0
   43.7980    9.9850   43.4280 C   0  0  0  0  0  0  0  0  0  0  0  0
   43.6890   11.2810   43.1670 C   0  0  0  0  0  0  0  0  0  0  0  0
   42.9490    9.2640   44.2420 C   0  0  1  0  0  0  0  0  0  0  0  0
   41.8760    9.6910   44.9140 C   0  0  0  0  0  0  0  0  0  0  0  0
   41.1560    8.7420   45.6920 N   0  0  0  0  0  4  0  0  0  0  0  0
   41.1220    8.7960   47.1250 C   0  0  2  0  0  0  0  0  0  0  0  0
   41.3860    7.4480   47.7160 C   0  0  0  0  0  0  0  0  0  0  0  0
   41.4400    7.5650   49.1660 N   0  0  1  0  0  0  0  0  0  0  0  0
   42.5210    8.4850   49.4960 C   0  0  0  0  0  0  0  0  0  0  0  0
   42.2620    9.8150   48.9990 N   0  0  2  0  0  0  0  0  0  0  0  0
   40.9630   10.2720   49.4830 C   0  0  0  0  0  0  0  0  0  0  0  0
   39.9010    9.3700   49.0990 N   0  0  2  0  0  0  0  0  0  0  0  0
   40.1750    8.0610   49.6460 C   0  0  0  0  0  0  0  0  0  0  0  0
   39.8000    9.2940   47.6620 C   0  0  0  0  0  0  0  0  0  0  0  0
   42.2080    9.7860   47.5610 C   0  0  0  0  0  0  0  0  0  0  0  0
   43.4610    7.9760   44.2060 C   0  0  0  0  0  0  0  0  0  0  0  0
   42.9620    7.0090   44.8260 O   0  0  0  0  0  0  0  0  0  0  0  0
   46.5800    5.0000   40.5360 H   0  0  0  0  0  0  0  0  0  0  0  0
   45.2310    7.0110   41.0510 H   0  0  0  0  0  0  0  0  0  0  0  0
   45.6320    6.2200   45.1680 H   0  0  0  0  0  0  0  0  0  0  0  0
   46.9980    4.1840   44.6580 H   0  0  0  0  0  0  0  0  0  0  0  0
   45.5150    9.4330   42.3160 H   0  0  0  0  0  0  0  0  0  0  0  0
   44.4050   11.7620   42.5150 H   0  0  0  0  0  0  0  0  0  0  0  0
   42.9130   11.8990   43.5720 H   0  0  0  0  0  0  0  0  0  0  0  0
   41.6010   10.7280   44.8430 H   0  0  0  0  0  0  0  0  0  0  0  0
   40.6480    7.9970   45.1940 H   0  0  0  0  0  0  0  0  0  0  0  0
   42.3100    7.0310   47.3010 H   0  0  0  0  0  0  0  0  0  0  0  0
   40.5370    6.7850   47.4320 H   0  0  0  0  0  0  0  0  0  0  0  0
   43.4440    8.1030   49.0420 H   0  0  0  0  0  0  0  0  0  0  0  0
   42.5990    8.5550   50.6070 H   0  0  0  0  0  0  0  0  0  0  0  0
   40.7980   11.3020   49.1510 H   0  0  0  0  0  0  0  0  0  0  0  0
   41.0380   10.2800   50.5900 H   0  0  0  0  0  0  0  0  0  0  0  0
   39.3960    7.3300   49.3100 H   0  0  0  0  0  0  0  0  0  0  0  0
   40.2190    8.0970   50.7480 H   0  0  0  0  0  0  0  0  0  0  0  0
   39.0020    8.5730   47.3940 H   0  0  0  0  0  0  0  0  0  0  0  0
   39.5320   10.2920   47.2510 H   0  0  0  0  0  0  0  0  0  0  0  0
   43.1580    9.3760   47.1610 H   0  0  0  0  0  0  0  0  0  0  0  0
   41.9450   10.7750   47.1370 H   0  0  0  0  0  0  0  0  0  0  0  0
  1  2  1  0  0  0  0
  2  7  1  0  0  0  0
  3  4  1  0  0  0  0
  3  2  2  0  0  0  0
  4  5  2  0  0  0  0
  5  8  1  0  0  0  0
  5  6  1  0  0  0  0
  6 29  1  0  0  0  0
  7  6  2  0  0  0  0
  7 30  1  0  0  0  0
  8 25  1  0  0  0  0
  9  8  1  0  0  0  0
  9 10  1  0  0  0  0
 10 12  1  0  0  0  0
 11 10  2  0  0  0  0
 11 33  1  0  0  0  0
 12 13  1  6  0  0  0
 13 14  2  0  0  0  0
 15 14  1  6  0  0  0
 15 24  1  0  0  0  0
 15 23  1  0  0  0  0
 15 16  1  0  0  0  0
 17 16  1  6  0  0  0
 17 18  1  0  0  0  0
 17 22  1  0  0  0  0
 18 39  1  0  0  0  0
 19 24  1  6  0  0  0
 19 20  1  0  0  0  0
 19 18  1  0  0  0  0
 20 41  1  0  0  0  0
 21 23  1  6  0  0  0
 21 20  1  0  0  0  0
 21 22  1  0  0  0  0
 22 43  1  0  0  0  0
 25 12  1  0  0  0  0
 25 26  2  0  0  0  0
 27  3  1  0  0  0  0
 28  4  1  0  0  0  0
 31  9  1  0  0  0  0
 32 11  1  0  0  0  0
 34 13  1  0  0  0  0
 35 14  1  0  0  0  0
 36 16  1  0  0  0  0
 37 16  1  0  0  0  0
 38 18  1  0  0  0  0
 40 20  1  0  0  0  0
 42 22  1  0  0  0  0
 44 23  1  0  0  0  0
 45 23  1  0  0  0  0
 46 24  1  0  0  0  0
 47 24  1  0  0  0  0
M  END
>  <Pose>
1

>  <Score>
-5.92

$$$$
