
 OpenBabel03172210433D

 56 59  0  0  1  0  0  0  0  0999 V2000
   40.8400    9.4090   46.5110 B   0  0  0  0  0  0  0  0  0  0  0  0
   42.0730    8.4960   45.3900 C   0  0  0  0  0  0  0  0  0  0  0  0
   42.9890    9.2260   44.6810 C   0  0  0  0  0  0  0  0  0  0  0  0
   43.8850    8.5690   43.8670 C   0  0  0  0  0  0  0  0  0  0  0  0
   43.8950    7.1940   43.7380 C   0  0  0  0  0  0  0  0  0  0  0  0
   42.9360    6.4700   44.4820 C   0  0  0  0  0  0  0  0  0  0  0  0
   42.0570    7.1210   45.2820 C   0  0  0  0  0  0  0  0  0  0  0  0
   44.7240    6.5170   42.9820 O   0  0  0  0  0  0  0  0  0  0  0  0
   45.6860    5.6580   42.7170 C   0  0  0  0  0  0  0  0  0  0  0  0
   46.5120    5.2300   43.8880 C   0  0  1  0  0  0  0  0  0  0  0  0
   46.2620    3.8670   44.1030 O   0  0  0  0  0  0  0  0  0  0  0  0
   47.9810    5.5330   43.8290 C   0  0  0  0  0  0  0  0  0  0  0  0
   48.8290    4.6650   44.6170 N   0  0  0  0  0  0  0  0  0  0  0  0
   49.3090    3.4600   44.2310 C   0  0  0  0  0  0  0  0  0  0  0  0
   50.0190    2.9210   45.2800 C   0  0  0  0  0  0  0  0  0  0  0  0
   49.9430    3.8120   46.2470 N   0  0  0  0  0  0  0  0  0  0  0  0
   49.2160    4.9130   45.8780 C   0  0  0  0  0  0  0  0  0  0  0  0
   49.0350    6.0690   46.7190 N   0  0  0  0  0  0  0  0  0  0  0  0
   50.0830    6.2120   47.7540 C   0  0  0  0  0  0  0  0  0  0  0  0
   50.1070    7.5240   48.4270 C   0  0  0  0  0  0  0  0  0  0  0  0
   48.7990    8.1060   48.6000 N   0  0  0  0  0  0  0  0  0  0  0  0
   48.2910    8.3370   47.2850 C   0  0  0  0  0  0  0  0  0  0  0  0
   47.9990    7.0260   46.5570 C   0  0  0  0  0  0  0  0  0  0  0  0
   47.9600    7.3310   49.4550 C   0  0  0  0  0  0  0  0  0  0  0  0
   50.6420    1.7070   45.2350 N   0  0  0  0  0  0  0  0  0  0  0  0
   50.5510    1.0130   44.1000 C   0  0  0  0  0  0  0  0  0  0  0  0
   51.1200   -0.1110   44.0410 O   0  0  0  0  0  0  0  0  0  0  0  0
   49.8690    1.5130   43.0620 N   0  0  0  0  0  0  0  0  0  0  0  0
   49.2400    2.7120   43.0760 C   0  0  0  0  0  0  0  0  0  0  0  0
   48.6160    3.1500   42.0990 O   0  0  0  0  0  0  0  0  0  0  0  0
   51.3660    1.2150   46.4080 C   0  0  0  0  0  0  0  0  0  0  0  0
   43.0110   10.3120   44.7650 H   0  0  0  0  0  0  0  0  0  0  0  0
   44.5740    9.1910   43.3270 H   0  0  0  0  0  0  0  0  0  0  0  0
   42.9340    5.3970   44.3880 H   0  0  0  0  0  0  0  0  0  0  0  0
   41.3260    6.5340   45.8540 H   0  0  0  0  0  0  0  0  0  0  0  0
   45.3160    4.7010   42.1730 H   0  0  0  0  0  0  0  0  0  0  0  0
   46.4670    6.0700   41.9600 H   0  0  0  0  0  0  0  0  0  0  0  0
   46.1400    5.8180   44.7890 H   0  0  0  0  0  0  0  0  0  0  0  0
   46.6820    3.5950   44.9820 H   0  0  0  0  0  0  0  0  0  0  0  0
   48.1940    6.6100   43.9430 H   0  0  0  0  0  0  0  0  0  0  0  0
   48.2480    5.3570   42.7340 H   0  0  0  0  0  0  0  0  0  0  0  0
   50.0150    5.3410   48.4460 H   0  0  0  0  0  0  0  0  0  0  0  0
   51.0730    6.0760   47.2270 H   0  0  0  0  0  0  0  0  0  0  0  0
   50.6630    7.4280   49.3680 H   0  0  0  0  0  0  0  0  0  0  0  0
   50.6700    8.2550   47.7740 H   0  0  0  0  0  0  0  0  0  0  0  0
   47.3350    8.9170   47.3480 H   0  0  0  0  0  0  0  0  0  0  0  0
   48.9980    8.9440   46.7210 H   0  0  0  0  0  0  0  0  0  0  0  0
   48.0350    7.3460   45.4680 H   0  0  0  0  0  0  0  0  0  0  0  0
   46.9950    6.7550   46.8970 H   0  0  0  0  0  0  0  0  0  0  0  0
   47.8900    7.8520   50.4520 H   0  0  0  0  0  0  0  0  0  0  0  0
   46.9360    7.1590   49.0810 H   0  0  0  0  0  0  0  0  0  0  0  0
   48.3720    6.3200   49.7060 H   0  0  0  0  0  0  0  0  0  0  0  0
   49.8200    0.9420   42.1920 H   0  0  0  0  0  0  0  0  0  0  0  0
   51.5160    0.1330   46.3700 H   0  0  0  0  0  0  0  0  0  0  0  0
   50.7120    1.4090   47.2860 H   0  0  0  0  0  0  0  0  0  0  0  0
   52.3390    1.7220   46.5100 H   0  0  0  0  0  0  0  0  0  0  0  0
  2  1  1  0  0  0  0
  3 32  1  0  0  0  0
  3  2  2  0  0  0  0
  4  3  1  0  0  0  0
  5  4  2  0  0  0  0
  5  6  1  0  0  0  0
  6  7  2  0  0  0  0
  7  2  1  0  0  0  0
  7 35  1  0  0  0  0
  8  5  1  0  0  0  0
  9  8  1  0  0  0  0
  9 10  1  0  0  0  0
 10 11  1  0  0  0  0
 10 38  1  1  0  0  0
 11 39  1  0  0  0  0
 12 10  1  0  0  0  0
 12 40  1  0  0  0  0
 12 13  1  0  0  0  0
 13 17  1  0  0  0  0
 14 13  1  0  0  0  0
 14 15  2  0  0  0  0
 15 16  1  0  0  0  0
 17 16  2  0  0  0  0
 17 18  1  0  0  0  0
 18 19  1  0  0  0  0
 19 20  1  0  0  0  0
 19 42  1  0  0  0  0
 20 21  1  0  0  0  0
 20 44  1  0  0  0  0
 21 24  1  0  0  0  0
 22 46  1  0  0  0  0
 22 21  1  0  0  0  0
 23 18  1  0  0  0  0
 23 49  1  0  0  0  0
 23 22  1  0  0  0  0
 24 52  1  0  0  0  0
 24 50  1  0  0  0  0
 25 15  1  0  0  0  0
 25 31  1  0  0  0  0
 26 25  1  0  0  0  0
 27 26  2  0  0  0  0
 28 29  1  0  0  0  0
 28 26  1  0  0  0  0
 29 14  1  0  0  0  0
 30 29  2  0  0  0  0
 31 56  1  0  0  0  0
 31 55  1  0  0  0  0
 33  4  1  0  0  0  0
 34  6  1  0  0  0  0
 36  9  1  0  0  0  0
 37  9  1  0  0  0  0
 41 12  1  0  0  0  0
 43 19  1  0  0  0  0
 45 20  1  0  0  0  0
 47 22  1  0  0  0  0
 48 23  1  0  0  0  0
 51 24  1  0  0  0  0
 53 28  1  0  0  0  0
 54 31  1  0  0  0  0
M  END
>  <Pose>
1

>  <Score>
-6.29

$$$$
