
 OpenBabel03172210433D

 39 43  0  0  1  0  0  0  0  0999 V2000
   41.7970    8.4320   43.0330 B   0  0  0  0  0  0  0  0  0  0  0  0
   43.5630    7.7640   43.3420 C   0  0  0  0  0  0  0  0  0  0  0  0
   44.2200    7.0490   42.3580 C   0  0  0  0  0  0  0  0  0  0  0  0
   45.4920    6.5550   42.5680 C   0  0  0  0  0  0  0  0  0  0  0  0
   46.1970    6.7160   43.7370 C   0  0  0  0  0  0  0  0  0  0  0  0
   45.5410    7.4230   44.7070 C   0  0  0  0  0  0  0  0  0  0  0  0
   44.2560    7.9470   44.5510 C   0  0  0  0  0  0  0  0  0  0  0  0
   43.5290    8.5690   45.6590 C   0  0  0  0  0  0  0  0  0  0  0  0
   43.2500    9.9430   45.6420 N   0  0  2  0  0  4  0  0  0  0  0  0
   41.7430    9.9230   45.6410 C   0  0  0  0  0  0  0  0  0  0  0  0
   41.1410   11.1490   45.3270 N   0  0  2  0  0  0  0  0  0  0  0  0
   41.6500   11.5620   44.0310 C   0  0  0  0  0  0  0  0  0  0  0  0
   43.0640   11.8020   44.1840 N   0  0  2  0  0  0  0  0  0  0  0  0
   43.7720   10.5890   44.4390 C   0  0  0  0  0  0  0  0  0  0  0  0
   43.3860   12.7570   45.2510 C   0  0  0  0  0  0  0  0  0  0  0  0
   42.9450   12.1610   46.5010 N   0  0  2  0  0  0  0  0  0  0  0  0
   43.5620   10.8350   46.7150 C   0  0  0  0  0  0  0  0  0  0  0  0
   41.5070   12.0720   46.4080 C   0  0  0  0  0  0  0  0  0  0  0  0
   47.4010    6.0630   43.5260 O   0  0  0  0  0  0  0  0  0  0  0  0
   47.1660    5.0080   42.5520 C   0  0  0  0  0  0  0  0  0  0  0  0
   46.3110    5.8000   41.6740 O   0  0  0  0  0  0  0  0  0  0  0  0
   43.6500    6.9180   41.4700 H   0  0  0  0  0  0  0  0  0  0  0  0
   46.0930    7.5760   45.6790 H   0  0  0  0  0  0  0  0  0  0  0  0
   44.2040    8.4300   46.5990 H   0  0  0  0  0  0  0  0  0  0  0  0
   42.6800    7.8780   45.8940 H   0  0  0  0  0  0  0  0  0  0  0  0
   41.5360    9.6580   46.7230 H   0  0  0  0  0  0  0  0  0  0  0  0
   41.3620    9.1000   45.0480 H   0  0  0  0  0  0  0  0  0  0  0  0
   41.1230   12.4030   43.5700 H   0  0  0  0  0  0  0  0  0  0  0  0
   41.5620   10.6380   43.3850 H   0  0  0  0  0  0  0  0  0  0  0  0
   43.7720    9.9930   43.5490 H   0  0  0  0  0  0  0  0  0  0  0  0
   44.8140   10.9060   44.7610 H   0  0  0  0  0  0  0  0  0  0  0  0
   44.4440   12.9740   45.1860 H   0  0  0  0  0  0  0  0  0  0  0  0
   42.7270   13.6280   45.0750 H   0  0  0  0  0  0  0  0  0  0  0  0
   43.2310   10.5050   47.7310 H   0  0  0  0  0  0  0  0  0  0  0  0
   44.6720   11.0220   46.7280 H   0  0  0  0  0  0  0  0  0  0  0  0
   41.0240   11.7280   47.3080 H   0  0  0  0  0  0  0  0  0  0  0  0
   41.1690   13.0750   46.0650 H   0  0  0  0  0  0  0  0  0  0  0  0
   46.4330    4.2430   42.9380 H   0  0  0  0  0  0  0  0  0  0  0  0
   48.0510    4.6460   42.0810 H   0  0  0  0  0  0  0  0  0  0  0  0
  1  2  1  0  0  0  0
  2  7  1  0  0  0  0
  3  4  1  0  0  0  0
  3  2  2  0  0  0  0
  4  5  2  0  0  0  0
  5  6  1  0  0  0  0
  6 23  1  0  0  0  0
  7  6  2  0  0  0  0
  7  8  1  0  0  0  0
  8 25  1  0  0  0  0
  8 24  1  0  0  0  0
  9  8  1  1  0  0  0
  9 17  1  0  0  0  0
 10  9  1  0  0  0  0
 10 26  1  0  0  0  0
 11 12  1  6  0  0  0
 11 10  1  0  0  0  0
 11 18  1  0  0  0  0
 13 12  1  1  0  0  0
 13 14  1  0  0  0  0
 13 15  1  0  0  0  0
 14 31  1  0  0  0  0
 14  9  1  0  0  0  0
 16 15  1  6  0  0  0
 16 17  1  0  0  0  0
 17 35  1  0  0  0  0
 17 34  1  0  0  0  0
 18 16  1  0  0  0  0
 18 36  1  0  0  0  0
 19  5  1  0  0  0  0
 20 38  1  0  0  0  0
 20 19  1  0  0  0  0
 21 20  1  0  0  0  0
 21  4  1  0  0  0  0
 22  3  1  0  0  0  0
 27 10  1  0  0  0  0
 28 12  1  0  0  0  0
 29 12  1  0  0  0  0
 30 14  1  0  0  0  0
 32 15  1  0  0  0  0
 33 15  1  0  0  0  0
 37 18  1  0  0  0  0
 39 20  1  0  0  0  0
M  END
>  <Pose>
1

>  <Score>
-4.26

$$$$
