
 OpenBabel03172210433D

 44 47  0  0  1  0  0  0  0  0999 V2000
   42.2890    9.4650   43.3360 B   0  0  0  0  0  0  0  0  0  0  0  0
   43.3820    7.9280   43.5160 C   0  0  0  0  0  0  0  0  0  0  0  0
   44.5280    7.7970   42.7540 C   0  0  0  0  0  0  0  0  0  0  0  0
   45.3630    6.6820   42.8520 C   0  0  0  0  0  0  0  0  0  0  0  0
   45.0070    5.6840   43.7550 C   0  0  0  0  0  0  0  0  0  0  0  0
   43.8590    5.8370   44.5050 C   0  0  0  0  0  0  0  0  0  0  0  0
   43.0210    6.9460   44.4120 C   0  0  0  0  0  0  0  0  0  0  0  0
   41.8250    7.0490   45.2220 C   0  0  0  0  0  0  0  0  0  0  0  0
   41.8360    7.5990   46.3610 N   0  0  0  0  0  0  0  0  0  0  0  0
   40.7860    7.7690   47.2420 N   0  0  0  0  0  0  0  0  0  0  0  0
   40.2610    9.0380   47.5680 C   0  0  0  0  0  0  0  0  0  0  0  0
   39.4410    9.5970   46.6630 N   0  0  0  0  0  0  0  0  0  0  0  0
   38.8400   10.8010   46.8600 C   0  0  1  0  0  0  0  0  0  0  0  0
   39.1140   11.4060   48.0160 N   0  0  0  0  0  0  0  0  0  0  0  0
   39.9170   10.9060   48.9520 C   0  0  0  0  0  0  0  0  0  0  0  0
   40.4950    9.6940   48.7040 N   0  0  0  0  0  0  0  0  0  0  0  0
   40.1810   11.5600   50.1440 O   0  0  0  0  0  0  0  0  0  0  0  0
   39.1570   11.7990   51.0720 C   0  0  0  0  0  0  0  0  0  0  0  0
   38.0090   11.3160   45.8630 N   0  0  0  0  0  0  0  0  0  0  0  0
   36.6470   10.8620   45.7120 C   0  0  0  0  0  0  0  0  0  0  0  0
   35.8430   11.8230   44.8620 C   0  0  0  0  0  0  0  0  0  0  0  0
   36.1720   13.1340   44.9800 O   0  0  0  0  0  0  0  0  0  0  0  0
   37.4790   13.4810   45.1220 C   0  0  0  0  0  0  0  0  0  0  0  0
   38.4720   12.3340   44.9550 C   0  0  0  0  0  0  0  0  0  0  0  0
   45.9750    4.7100   43.6630 O   0  0  0  0  0  0  0  0  0  0  0  0
   46.8560    4.9700   42.5870 C   0  0  0  0  0  0  0  0  0  0  0  0
   46.5390    6.2900   42.2330 O   0  0  0  0  0  0  0  0  0  0  0  0
   44.8040    8.5890   42.0430 H   0  0  0  0  0  0  0  0  0  0  0  0
   43.6240    5.0170   45.2040 H   0  0  0  0  0  0  0  0  0  0  0  0
   40.9010    6.6480   44.8520 H   0  0  0  0  0  0  0  0  0  0  0  0
   40.3640    6.9240   47.6840 H   0  0  0  0  0  0  0  0  0  0  0  0
   38.9060   12.8920   51.0140 H   0  0  0  0  0  0  0  0  0  0  0  0
   39.4960   11.6320   52.1260 H   0  0  0  0  0  0  0  0  0  0  0  0
   38.2800   11.1420   50.8980 H   0  0  0  0  0  0  0  0  0  0  0  0
   36.1270   10.6230   46.6480 H   0  0  0  0  0  0  0  0  0  0  0  0
   36.6920    9.8950   45.1200 H   0  0  0  0  0  0  0  0  0  0  0  0
   35.8360   11.5280   43.7730 H   0  0  0  0  0  0  0  0  0  0  0  0
   34.7680   11.7000   45.1900 H   0  0  0  0  0  0  0  0  0  0  0  0
   37.7690   14.3690   44.5100 H   0  0  0  0  0  0  0  0  0  0  0  0
   37.6150   13.8060   46.1970 H   0  0  0  0  0  0  0  0  0  0  0  0
   38.3380   11.9080   43.9280 H   0  0  0  0  0  0  0  0  0  0  0  0
   39.4740   12.7100   45.1370 H   0  0  0  0  0  0  0  0  0  0  0  0
   46.7540    4.2500   41.7490 H   0  0  0  0  0  0  0  0  0  0  0  0
   47.8860    4.9460   43.0170 H   0  0  0  0  0  0  0  0  0  0  0  0
  1  2  1  0  0  0  0
  2  7  1  0  0  0  0
  3  4  1  0  0  0  0
  3  2  2  0  0  0  0
  4  5  2  0  0  0  0
  5  6  1  0  0  0  0
  6 29  1  0  0  0  0
  7  6  2  0  0  0  0
  7  8  1  0  0  0  0
  8  9  2  0  0  0  0
  9 10  1  0  0  0  0
 10 11  1  0  0  0  0
 10 31  1  0  0  0  0
 11 16  1  0  0  0  0
 12 13  1  0  0  0  0
 12 11  2  0  0  0  0
 13 19  1  6  0  0  0
 13 14  1  0  0  0  0
 14 15  2  0  0  0  0
 15 17  1  0  0  0  0
 16 15  2  0  0  0  0
 17 18  1  0  0  0  0
 18 33  1  0  0  0  0
 20 19  1  0  0  0  0
 20 35  1  0  0  0  0
 21 22  1  0  0  0  0
 21 38  1  0  0  0  0
 21 20  1  0  0  0  0
 22 23  1  0  0  0  0
 23 40  1  0  0  0  0
 24 23  1  0  0  0  0
 24 42  1  0  0  0  0
 24 19  1  0  0  0  0
 25  5  1  0  0  0  0
 26 44  1  0  0  0  0
 26 25  1  0  0  0  0
 27 26  1  0  0  0  0
 27  4  1  0  0  0  0
 28  3  1  0  0  0  0
 30  8  1  0  0  0  0
 32 18  1  0  0  0  0
 34 18  1  0  0  0  0
 36 20  1  0  0  0  0
 37 21  1  0  0  0  0
 39 23  1  0  0  0  0
 41 24  1  0  0  0  0
 43 26  1  0  0  0  0
M  END
>  <Pose>
1

>  <Score>
-5.85

$$$$
