
 OpenBabel03172210433D

 44 47  0  0  0  0  0  0  0  0999 V2000
   53.0980    3.6720   47.5990 B   0  0  0  0  0  0  0  0  0  0  0  0
   52.0100    3.3810   46.0600 C   0  0  0  0  0  0  0  0  0  0  0  0
   50.7310    3.9070   45.9970 C   0  0  0  0  0  0  0  0  0  0  0  0
   49.9170    3.7120   44.8910 C   0  0  0  0  0  0  0  0  0  0  0  0
   50.4570    2.9650   43.8630 C   0  0  0  0  0  0  0  0  0  0  0  0
   51.7210    2.4300   43.8990 C   0  0  0  0  0  0  0  0  0  0  0  0
   52.5070    2.6390   45.0060 C   0  0  0  0  0  0  0  0  0  0  0  0
   49.6490    2.7660   42.7580 C   0  0  0  0  0  0  0  0  0  0  0  0
   50.0860    2.0840   41.7730 O   0  0  0  0  0  0  0  0  0  0  0  0
   48.3840    3.3140   42.7490 C   0  0  0  0  0  0  0  0  0  0  0  0
   47.9020    4.0520   43.8060 C   0  0  0  0  0  0  0  0  0  0  0  0
   48.7060    4.2090   44.8280 O   0  0  0  0  0  0  0  0  0  0  0  0
   46.5480    4.6150   43.7500 C   0  0  0  0  0  0  0  0  0  0  0  0
   45.6000    3.9240   44.2240 O   0  0  0  0  0  0  0  0  0  0  0  0
   46.2700    5.8800   43.1940 N   0  0  0  0  0  0  0  0  0  0  0  0
   46.0670    5.9860   41.7720 C   0  0  0  0  0  0  0  0  0  0  0  0
   44.7500    6.6420   41.4140 C   0  0  0  0  0  0  0  0  0  0  0  0
   44.4180    7.5680   42.4320 N   0  0  0  0  0  0  0  0  0  0  0  0
   45.5500    8.1670   43.0220 C   0  0  0  0  0  0  0  0  0  0  0  0
   46.1700    7.1060   43.9490 C   0  0  0  0  0  0  0  0  0  0  0  0
   43.3340    7.2440   43.2690 C   0  0  0  0  0  0  0  0  0  0  0  0
   42.2270    8.1960   43.2700 C   0  0  0  0  0  0  0  0  0  0  0  0
   41.4420    8.4790   42.2170 N   0  0  0  0  0  0  0  0  0  0  0  0
   40.5880    9.3580   42.6040 O   0  0  0  0  0  0  0  0  0  0  0  0
   40.7630    9.6740   43.8620 N   0  0  0  0  0  0  0  0  0  0  0  0
   41.8050    8.9510   44.3290 C   0  0  0  0  0  0  0  0  0  0  0  0
   42.3700    8.9800   45.7120 C   0  0  0  0  0  0  0  0  0  0  0  0
   50.3640    4.4810   46.8260 H   0  0  0  0  0  0  0  0  0  0  0  0
   52.0760    1.8540   43.0560 H   0  0  0  0  0  0  0  0  0  0  0  0
   53.5140    2.2200   45.0480 H   0  0  0  0  0  0  0  0  0  0  0  0
   47.7610    3.1500   41.8730 H   0  0  0  0  0  0  0  0  0  0  0  0
   46.1610    4.9840   41.2720 H   0  0  0  0  0  0  0  0  0  0  0  0
   46.8910    6.6270   41.3370 H   0  0  0  0  0  0  0  0  0  0  0  0
   43.9640    5.8550   41.2740 H   0  0  0  0  0  0  0  0  0  0  0  0
   44.8550    7.1580   40.4140 H   0  0  0  0  0  0  0  0  0  0  0  0
   46.3050    8.3660   42.2340 H   0  0  0  0  0  0  0  0  0  0  0  0
   45.3730    9.0640   43.6170 H   0  0  0  0  0  0  0  0  0  0  0  0
   47.1770    7.4290   44.2840 H   0  0  0  0  0  0  0  0  0  0  0  0
   45.5590    6.9980   44.8660 H   0  0  0  0  0  0  0  0  0  0  0  0
   43.6990    7.0980   44.3070 H   0  0  0  0  0  0  0  0  0  0  0  0
   42.9340    6.2370   42.9590 H   0  0  0  0  0  0  0  0  0  0  0  0
   42.8410    7.9920   45.9640 H   0  0  0  0  0  0  0  0  0  0  0  0
   43.1420    9.7530   45.7500 H   0  0  0  0  0  0  0  0  0  0  0  0
   41.5560    9.1180   46.4550 H   0  0  0  0  0  0  0  0  0  0  0  0
  2  1  1  0  0  0  0
  3  2  1  0  0  0  0
  3 28  1  0  0  0  0
  4  3  2  0  0  0  0
  5  6  2  0  0  0  0
  5  4  1  0  0  0  0
  6  7  1  0  0  0  0
  7 30  1  0  0  0  0
  7  2  2  0  0  0  0
  8  5  1  0  0  0  0
  9  8  2  0  0  0  0
 10  8  1  0  0  0  0
 10 11  2  0  0  0  0
 11 12  1  0  0  0  0
 12  4  1  0  0  0  0
 13 11  1  0  0  0  0
 13 14  2  0  0  0  0
 15 13  1  0  0  0  0
 15 20  1  0  0  0  0
 16 15  1  0  0  0  0
 17 16  1  0  0  0  0
 17 18  1  0  0  0  0
 18 19  1  0  0  0  0
 18 21  1  0  0  0  0
 19 37  1  0  0  0  0
 19 20  1  0  0  0  0
 20 38  1  0  0  0  0
 20 39  1  0  0  0  0
 21 22  1  0  0  0  0
 21 40  1  0  0  0  0
 22 26  1  0  0  0  0
 23 24  1  0  0  0  0
 23 22  2  0  0  0  0
 24 25  1  0  0  0  0
 25 26  2  0  0  0  0
 26 27  1  0  0  0  0
 27 43  1  0  0  0  0
 27 42  1  0  0  0  0
 27 44  1  0  0  0  0
 29  6  1  0  0  0  0
 31 10  1  0  0  0  0
 32 16  1  0  0  0  0
 33 16  1  0  0  0  0
 34 17  1  0  0  0  0
 35 17  1  0  0  0  0
 36 19  1  0  0  0  0
 41 21  1  0  0  0  0
M  END
>  <Pose>
1

>  <Score>
-5.93

$$$$
