
 OpenBabel03172210433D

 49 52  0  0  0  0  0  0  0  0999 V2000
   50.1430    1.7330   42.7850 B   0  0  0  0  0  0  0  0  0  0  0  0
   49.0280    3.1890   43.3090 C   0  0  0  0  0  0  0  0  0  0  0  0
   48.1560    3.7300   42.3860 C   0  0  0  0  0  0  0  0  0  0  0  0
   47.3260    4.7850   42.7150 C   0  0  0  0  0  0  0  0  0  0  0  0
   47.4000    5.2820   44.0020 C   0  0  0  0  0  0  0  0  0  0  0  0
   48.2760    4.7340   44.9170 C   0  0  0  0  0  0  0  0  0  0  0  0
   49.1070    3.6800   44.5960 C   0  0  0  0  0  0  0  0  0  0  0  0
   46.4430    6.3710   44.0950 C   0  0  0  0  0  0  0  0  0  0  0  0
   46.2510    7.0560   45.1510 O   0  0  0  0  0  0  0  0  0  0  0  0
   45.8020    6.5080   42.8360 N   0  0  0  0  0  0  0  0  0  0  0  0
   46.3220    5.5440   41.9540 C   0  0  0  0  0  0  0  0  0  0  0  0
   46.0100    5.3430   40.7490 O   0  0  0  0  0  0  0  0  0  0  0  0
   44.7850    7.5020   42.5710 C   0  0  0  0  0  0  0  0  0  0  0  0
   43.5150    7.2640   43.2990 C   0  0  0  0  0  0  0  0  0  0  0  0
   42.6750    8.5100   43.2820 C   0  0  0  0  0  0  0  0  0  0  0  0
   43.3410    9.7030   43.8530 C   0  0  0  0  0  0  0  0  0  0  0  0
   44.5240   10.0360   43.5830 O   0  0  0  0  0  0  0  0  0  0  0  0
   42.6380   10.5620   44.7720 N   0  0  0  0  0  0  0  0  0  0  0  0
   42.2760   11.9100   44.3980 C   0  0  0  0  0  0  0  0  0  0  0  0
   40.8860   12.2840   44.7910 C   0  0  0  0  0  0  0  0  0  0  0  0
   40.1620   11.2430   45.4800 N   0  0  0  0  0  0  0  0  0  0  0  0
   40.7700   10.2260   46.2950 C   0  0  0  0  0  0  0  0  0  0  0  0
   42.2630   10.1240   46.1030 C   0  0  0  0  0  0  0  0  0  0  0  0
   38.7370   11.2220   45.3420 C   0  0  0  0  0  0  0  0  0  0  0  0
   37.9990   12.3640   45.3900 N   0  0  0  0  0  0  0  0  0  0  0  0
   36.6730   12.3870   45.2660 C   0  0  0  0  0  0  0  0  0  0  0  0
   35.9980   11.1900   45.0790 C   0  0  0  0  0  0  0  0  0  0  0  0
   36.7030   10.0340   45.0260 N   0  0  0  0  0  0  0  0  0  0  0  0
   38.0390   10.0510   45.1550 C   0  0  0  0  0  0  0  0  0  0  0  0
   48.0690    3.3650   41.3640 H   0  0  0  0  0  0  0  0  0  0  0  0
   48.2970    5.1590   45.9140 H   0  0  0  0  0  0  0  0  0  0  0  0
   49.7800    3.2770   45.3370 H   0  0  0  0  0  0  0  0  0  0  0  0
   44.6020    7.5070   41.4860 H   0  0  0  0  0  0  0  0  0  0  0  0
   45.2150    8.4950   42.9020 H   0  0  0  0  0  0  0  0  0  0  0  0
   43.6460    6.8630   44.3200 H   0  0  0  0  0  0  0  0  0  0  0  0
   42.9040    6.4690   42.7750 H   0  0  0  0  0  0  0  0  0  0  0  0
   42.3310    8.7650   42.2520 H   0  0  0  0  0  0  0  0  0  0  0  0
   41.7470    8.3410   43.8670 H   0  0  0  0  0  0  0  0  0  0  0  0
   42.4790   12.0820   43.3230 H   0  0  0  0  0  0  0  0  0  0  0  0
   42.9980   12.5830   44.9420 H   0  0  0  0  0  0  0  0  0  0  0  0
   40.8860   13.1740   45.4840 H   0  0  0  0  0  0  0  0  0  0  0  0
   40.3000   12.6160   43.9040 H   0  0  0  0  0  0  0  0  0  0  0  0
   40.5690   10.4430   47.3470 H   0  0  0  0  0  0  0  0  0  0  0  0
   40.3390    9.2470   45.9530 H   0  0  0  0  0  0  0  0  0  0  0  0
   42.6460    9.1090   46.3290 H   0  0  0  0  0  0  0  0  0  0  0  0
   42.7420   10.8640   46.8080 H   0  0  0  0  0  0  0  0  0  0  0  0
   36.1020   13.3060   45.3070 H   0  0  0  0  0  0  0  0  0  0  0  0
   34.9350   11.1720   44.9760 H   0  0  0  0  0  0  0  0  0  0  0  0
   38.5680    9.1130   45.1080 H   0  0  0  0  0  0  0  0  0  0  0  0
  1  2  1  0  0  0  0
  2  7  1  0  0  0  0
  3  4  1  0  0  0  0
  3  2  2  0  0  0  0
  4  5  2  0  0  0  0
  5  8  1  0  0  0  0
  5  6  1  0  0  0  0
  6 31  1  0  0  0  0
  7  6  2  0  0  0  0
  7 32  1  0  0  0  0
  8  9  2  0  0  0  0
 10  8  1  0  0  0  0
 11  4  1  0  0  0  0
 11 10  1  0  0  0  0
 12 11  2  0  0  0  0
 13 10  1  0  0  0  0
 13 34  1  0  0  0  0
 13 14  1  0  0  0  0
 14 35  1  0  0  0  0
 15 14  1  0  0  0  0
 15 16  1  0  0  0  0
 15 38  1  0  0  0  0
 16 18  1  0  0  0  0
 17 16  2  0  0  0  0
 18 23  1  0  0  0  0
 19 18  1  0  0  0  0
 19 20  1  0  0  0  0
 19 40  1  0  0  0  0
 20 21  1  0  0  0  0
 20 41  1  0  0  0  0
 21 22  1  0  0  0  0
 22 43  1  0  0  0  0
 23 22  1  0  0  0  0
 23 45  1  0  0  0  0
 23 46  1  0  0  0  0
 24 25  1  0  0  0  0
 24 21  1  0  0  0  0
 26 47  1  0  0  0  0
 26 25  2  0  0  0  0
 27 26  1  0  0  0  0
 28 27  2  0  0  0  0
 28 29  1  0  0  0  0
 29 24  2  0  0  0  0
 30  3  1  0  0  0  0
 33 13  1  0  0  0  0
 36 14  1  0  0  0  0
 37 15  1  0  0  0  0
 39 19  1  0  0  0  0
 42 20  1  0  0  0  0
 44 22  1  0  0  0  0
 48 27  1  0  0  0  0
 49 29  1  0  0  0  0
M  END
>  <Pose>
1

>  <Score>
-6.79

$$$$
