
 OpenBabel03172210433D

 59 62  0  0  0  0  0  0  0  0999 V2000
   49.7820    5.8950   49.2420 B   0  0  0  0  0  0  0  0  0  0  0  0
   50.0190    5.0630   47.5250 C   0  0  0  0  0  0  0  0  0  0  0  0
   49.0100    5.0450   46.5900 C   0  0  0  0  0  0  0  0  0  0  0  0
   49.1330    4.4550   45.3370 C   0  0  0  0  0  0  0  0  0  0  0  0
   50.3500    3.8480   45.0110 C   0  0  0  0  0  0  0  0  0  0  0  0
   51.3630    3.8670   45.9480 C   0  0  0  0  0  0  0  0  0  0  0  0
   51.2160    4.4640   47.1980 C   0  0  0  0  0  0  0  0  0  0  0  0
   50.2860    3.3020   43.6860 N   0  0  0  0  0  0  0  0  0  0  0  0
   48.9840    3.5860   43.1910 C   0  0  0  0  0  0  0  0  0  0  0  0
   48.5530    3.2640   42.0620 O   0  0  0  0  0  0  0  0  0  0  0  0
   48.2390    4.3090   44.2040 C   0  0  0  0  0  0  0  0  0  0  0  0
   47.0300    4.7370   44.1240 N   0  0  0  0  0  0  0  0  0  0  0  0
   46.2310    4.5580   43.0010 N   0  0  0  0  0  0  0  0  0  0  0  0
   46.1230    5.5890   42.0450 C   0  0  0  0  0  0  0  0  0  0  0  0
   46.4810    5.4150   40.8290 O   0  0  0  0  0  0  0  0  0  0  0  0
   45.5950    6.9410   42.3580 C   0  0  0  0  0  0  0  0  0  0  0  0
   44.1860    6.8790   42.5740 O   0  0  0  0  0  0  0  0  0  0  0  0
   43.6490    7.3490   43.7610 C   0  0  0  0  0  0  0  0  0  0  0  0
   42.4700    6.8230   44.2440 C   0  0  0  0  0  0  0  0  0  0  0  0
   41.9360    7.2990   45.4370 C   0  0  0  0  0  0  0  0  0  0  0  0
   42.5790    8.2980   46.1430 C   0  0  0  0  0  0  0  0  0  0  0  0
   43.7440    8.8080   45.6530 C   0  0  0  0  0  0  0  0  0  0  0  0
   44.2740    8.3330   44.4650 C   0  0  0  0  0  0  0  0  0  0  0  0
   41.8060    5.8310   43.5670 O   0  0  0  0  0  0  0  0  0  0  0  0
   40.8110    5.0720   44.2050 C   0  0  0  0  0  0  0  0  0  0  0  0
   51.3730    2.6030   43.0220 C   0  0  0  0  0  0  0  0  0  0  0  0
   51.8380    1.4440   43.6940 N   0  0  0  0  0  0  0  0  0  0  0  0
   51.9340    0.2630   42.9050 C   0  0  0  0  0  0  0  0  0  0  0  0
   52.3680   -0.9480   43.7350 C   0  0  0  0  0  0  0  0  0  0  0  0
   52.2390   -0.5730   45.1140 N   0  0  0  0  0  0  0  0  0  0  0  0
   53.1580    0.4510   45.5050 C   0  0  0  0  0  0  0  0  0  0  0  0
   52.9290    1.6490   44.6010 C   0  0  0  0  0  0  0  0  0  0  0  0
   52.1690   -1.6860   46.0160 C   0  0  0  0  0  0  0  0  0  0  0  0
   48.0640    5.5180   46.8490 H   0  0  0  0  0  0  0  0  0  0  0  0
   52.3340    3.4060   45.7390 H   0  0  0  0  0  0  0  0  0  0  0  0
   52.0030    4.4820   47.9340 H   0  0  0  0  0  0  0  0  0  0  0  0
   45.7220    3.6710   42.8750 H   0  0  0  0  0  0  0  0  0  0  0  0
   46.0490    7.3840   43.2590 H   0  0  0  0  0  0  0  0  0  0  0  0
   45.7910    7.6390   41.5250 H   0  0  0  0  0  0  0  0  0  0  0  0
   41.0030    6.8750   45.8070 H   0  0  0  0  0  0  0  0  0  0  0  0
   42.1820    8.6900   47.0810 H   0  0  0  0  0  0  0  0  0  0  0  0
   44.2520    9.5780   46.1850 H   0  0  0  0  0  0  0  0  0  0  0  0
   45.1970    8.7730   44.1270 H   0  0  0  0  0  0  0  0  0  0  0  0
   41.1730    4.5940   45.1410 H   0  0  0  0  0  0  0  0  0  0  0  0
   40.0020    5.7770   44.5310 H   0  0  0  0  0  0  0  0  0  0  0  0
   40.4230    4.3380   43.4660 H   0  0  0  0  0  0  0  0  0  0  0  0
   51.1210    2.3880   41.9550 H   0  0  0  0  0  0  0  0  0  0  0  0
   52.2250    3.3310   42.9710 H   0  0  0  0  0  0  0  0  0  0  0  0
   50.9230    0.0080   42.5260 H   0  0  0  0  0  0  0  0  0  0  0  0
   52.5920    0.3700   42.0170 H   0  0  0  0  0  0  0  0  0  0  0  0
   51.7410   -1.8300   43.5400 H   0  0  0  0  0  0  0  0  0  0  0  0
   53.4040   -1.1930   43.4350 H   0  0  0  0  0  0  0  0  0  0  0  0
   54.2220    0.1560   45.4570 H   0  0  0  0  0  0  0  0  0  0  0  0
   52.9380    0.6950   46.5750 H   0  0  0  0  0  0  0  0  0  0  0  0
   53.8550    1.8480   43.9990 H   0  0  0  0  0  0  0  0  0  0  0  0
   52.6850    2.5060   45.2590 H   0  0  0  0  0  0  0  0  0  0  0  0
   51.4180   -1.4950   46.8310 H   0  0  0  0  0  0  0  0  0  0  0  0
   53.1390   -1.9500   46.4760 H   0  0  0  0  0  0  0  0  0  0  0  0
   51.7570   -2.5530   45.4400 H   0  0  0  0  0  0  0  0  0  0  0  0
  2  1  1  0  0  0  0
  3 34  1  0  0  0  0
  3  2  2  0  0  0  0
  4  3  1  0  0  0  0
  5  4  2  0  0  0  0
  5  6  1  0  0  0  0
  6  7  2  0  0  0  0
  7  2  1  0  0  0  0
  7 36  1  0  0  0  0
  8  5  1  0  0  0  0
  9  8  1  0  0  0  0
  9 11  1  0  0  0  0
 10  9  2  0  0  0  0
 11  4  1  0  0  0  0
 12 11  2  0  0  0  0
 13 12  1  0  0  0  0
 14 16  1  0  0  0  0
 14 13  1  0  0  0  0
 15 14  2  0  0  0  0
 16 17  1  0  0  0  0
 16 38  1  0  0  0  0
 17 18  1  0  0  0  0
 18 19  2  0  0  0  0
 18 23  1  0  0  0  0
 19 20  1  0  0  0  0
 20 40  1  0  0  0  0
 20 21  2  0  0  0  0
 21 41  1  0  0  0  0
 22 21  1  0  0  0  0
 22 42  1  0  0  0  0
 23 22  2  0  0  0  0
 24 25  1  0  0  0  0
 24 19  1  0  0  0  0
 25 45  1  0  0  0  0
 25 44  1  0  0  0  0
 26  8  1  0  0  0  0
 26 27  1  0  0  0  0
 27 32  1  0  0  0  0
 28 27  1  0  0  0  0
 28 29  1  0  0  0  0
 29 30  1  0  0  0  0
 30 31  1  0  0  0  0
 30 33  1  0  0  0  0
 31 54  1  0  0  0  0
 32 56  1  0  0  0  0
 32 31  1  0  0  0  0
 33 58  1  0  0  0  0
 33 57  1  0  0  0  0
 35  6  1  0  0  0  0
 37 13  1  0  0  0  0
 39 16  1  0  0  0  0
 43 23  1  0  0  0  0
 46 25  1  0  0  0  0
 47 26  1  0  0  0  0
 48 26  1  0  0  0  0
 49 28  1  0  0  0  0
 50 28  1  0  0  0  0
 51 29  1  0  0  0  0
 52 29  1  0  0  0  0
 53 31  1  0  0  0  0
 55 32  1  0  0  0  0
 59 33  1  0  0  0  0
M  END
>  <Pose>
1

>  <Score>
-6.27

$$$$
