
 OpenBabel03172210433D

 45 48  0  0  1  0  0  0  0  0999 V2000
   45.0120   14.2700   45.9080 B   0  0  0  0  0  0  0  0  0  0  0  0
   44.1950   12.5800   46.3360 C   0  0  0  0  0  0  0  0  0  0  0  0
   43.2750   11.9650   45.5370 C   0  0  0  0  0  0  0  0  0  0  0  0
   42.6930   10.7760   45.8930 C   0  0  0  0  0  0  0  0  0  0  0  0
   43.0730   10.2240   47.0830 C   0  0  0  0  0  0  0  0  0  0  0  0
   44.0180   10.8320   47.9200 C   0  0  0  0  0  0  0  0  0  0  0  0
   44.5950   12.0300   47.5520 C   0  0  0  0  0  0  0  0  0  0  0  0
   42.3690    9.0250   47.3430 N   0  0  0  0  0  0  0  0  0  0  0  0
   41.5040    8.8110   46.2720 C   0  0  0  0  0  0  0  0  0  0  0  0
   40.7130    7.8350   46.1970 O   0  0  0  0  0  0  0  0  0  0  0  0
   41.6800    9.9150   45.2580 C   0  0  2  0  0  0  0  0  0  0  0  0
   42.0700    9.2360   44.0320 C   0  0  0  0  0  0  0  0  0  0  0  0
   41.2410    9.2410   42.9520 C   0  0  0  0  0  0  0  0  0  0  0  0
   41.8690    8.5250   41.9770 N   0  0  0  0  0  0  0  0  0  0  0  0
   43.0210    8.0990   42.4260 N   0  0  0  0  0  0  0  0  0  0  0  0
   43.2210    8.5010   43.7020 C   0  0  0  0  0  0  0  0  0  0  0  0
   44.4340    8.2100   44.5080 C   0  0  0  0  0  0  0  0  0  0  0  0
   44.7220    6.7600   44.5490 C   0  0  0  0  0  0  0  0  0  0  0  0
   44.5860    6.0180   45.5560 O   0  0  0  0  0  0  0  0  0  0  0  0
   45.1760    6.1730   43.3890 O   0  0  0  0  0  0  0  0  0  0  0  0
   46.5000    6.1630   42.9260 C   0  0  0  0  0  0  0  0  0  0  0  0
   46.8010    4.8330   42.2750 C   0  0  0  0  0  0  0  0  0  0  0  0
   39.9900    9.8900   42.9520 O   0  0  0  0  0  0  0  0  0  0  0  0
   39.6250   10.5340   44.1180 C   0  0  0  0  0  0  0  0  0  0  0  0
   40.3770   10.5590   45.1830 C   0  0  0  0  0  0  0  0  0  0  0  0
   39.8960   11.2650   46.3750 C   0  0  0  0  0  0  0  0  0  0  0  0
   39.5400   11.8160   47.3140 N   0  0  0  0  0  0  0  0  0  0  0  0
   38.3400   11.2010   44.1210 N   0  0  0  0  0  0  0  0  0  0  0  0
   42.5250    8.1600   48.5300 C   0  0  0  0  0  0  0  0  0  0  0  0
   43.0010   12.4230   44.6170 H   0  0  0  0  0  0  0  0  0  0  0  0
   44.3290   10.4050   48.8610 H   0  0  0  0  0  0  0  0  0  0  0  0
   45.3250   12.5120   48.1870 H   0  0  0  0  0  0  0  0  0  0  0  0
   43.7360    7.5170   41.9000 H   0  0  0  0  0  0  0  0  0  0  0  0
   45.3350    8.7030   44.1050 H   0  0  0  0  0  0  0  0  0  0  0  0
   44.3230    8.6100   45.5470 H   0  0  0  0  0  0  0  0  0  0  0  0
   47.2130    6.2280   43.8090 H   0  0  0  0  0  0  0  0  0  0  0  0
   46.6950    7.0210   42.2700 H   0  0  0  0  0  0  0  0  0  0  0  0
   45.9240    4.1450   42.4620 H   0  0  0  0  0  0  0  0  0  0  0  0
   47.6710    4.3420   42.7080 H   0  0  0  0  0  0  0  0  0  0  0  0
   46.8510    4.9210   41.1630 H   0  0  0  0  0  0  0  0  0  0  0  0
   38.2170   12.2070   43.9130 H   0  0  0  0  0  0  0  0  0  0  0  0
   37.5070   10.6330   44.3440 H   0  0  0  0  0  0  0  0  0  0  0  0
   43.4650    7.5610   48.4080 H   0  0  0  0  0  0  0  0  0  0  0  0
   42.5450    8.7720   49.4530 H   0  0  0  0  0  0  0  0  0  0  0  0
   41.6910    7.4440   48.5460 H   0  0  0  0  0  0  0  0  0  0  0  0
  1  2  1  0  0  0  0
  2  7  1  0  0  0  0
  3  4  1  0  0  0  0
  3  2  2  0  0  0  0
  4  5  2  0  0  0  0
  5  8  1  0  0  0  0
  5  6  1  0  0  0  0
  6 31  1  0  0  0  0
  7  6  2  0  0  0  0
  7 32  1  0  0  0  0
  8 29  1  0  0  0  0
  9  8  1  0  0  0  0
 10  9  2  0  0  0  0
 11 12  1  6  0  0  0
 11  4  1  0  0  0  0
 11  9  1  0  0  0  0
 13 12  1  0  0  0  0
 14 15  1  0  0  0  0
 14 13  2  0  0  0  0
 15 16  1  0  0  0  0
 16 12  2  0  0  0  0
 16 17  1  0  0  0  0
 17 18  1  0  0  0  0
 17 35  1  0  0  0  0
 18 19  2  0  0  0  0
 20 18  1  0  0  0  0
 21 20  1  0  0  0  0
 21 36  1  0  0  0  0
 22 38  1  0  0  0  0
 22 39  1  0  0  0  0
 22 21  1  0  0  0  0
 23 13  1  0  0  0  0
 23 24  1  0  0  0  0
 24 28  1  0  0  0  0
 24 25  2  0  0  0  0
 25 11  1  0  0  0  0
 25 26  1  0  0  0  0
 26 27  3  0  0  0  0
 28 42  1  0  0  0  0
 29 45  1  0  0  0  0
 29 44  1  0  0  0  0
 30  3  1  0  0  0  0
 33 15  1  0  0  0  0
 34 17  1  0  0  0  0
 37 21  1  0  0  0  0
 40 22  1  0  0  0  0
 41 28  1  0  0  0  0
 43 29  1  0  0  0  0
M  END
>  <Pose>
1

>  <Score>
-4.89

$$$$
