
 OpenBabel03172210433D

 41 44  0  0  1  0  0  0  0  0999 V2000
   41.1910    7.9450   48.9320 B   0  0  0  0  0  0  0  0  0  0  0  0
   40.5630    9.2960   47.7530 C   0  0  0  0  0  0  0  0  0  0  0  0
   41.3810    9.9640   46.8740 C   0  0  0  0  0  0  0  0  0  0  0  0
   40.8430   10.9440   46.0410 C   0  0  0  0  0  0  0  0  0  0  0  0
   39.5320   11.2830   46.0460 C   0  0  0  0  0  0  0  0  0  0  0  0
   38.6990   10.6030   46.9390 C   0  0  0  0  0  0  0  0  0  0  0  0
   39.2140    9.6320   47.7690 C   0  0  0  0  0  0  0  0  0  0  0  0
   39.2390   12.3010   45.1080 N   0  0  0  0  0  0  0  0  0  0  0  0
   40.4430   12.6380   44.4600 C   0  0  0  0  0  0  0  0  0  0  0  0
   40.5830   13.5090   43.5570 O   0  0  0  0  0  0  0  0  0  0  0  0
   41.5350   11.7910   45.0170 C   0  0  1  0  0  0  0  0  0  0  0  0
   42.5600   12.6370   45.6790 C   0  0  0  0  0  0  0  0  0  0  0  0
   43.8090   12.5590   45.3960 C   0  0  0  0  0  0  0  0  0  0  0  0
   44.3340   11.6350   44.4020 N   0  0  0  0  0  0  0  0  0  0  0  0
   43.3690   10.8240   43.7650 C   0  0  0  0  0  0  0  0  0  0  0  0
   42.0950   10.8880   44.0370 C   0  0  0  0  0  0  0  0  0  0  0  0
   41.2180    9.9880   43.2970 C   0  0  0  0  0  0  0  0  0  0  0  0
   40.5240    9.2850   42.6920 N   0  0  0  0  0  0  0  0  0  0  0  0
   43.8370    9.8810   42.7620 N   0  0  0  0  0  0  0  0  0  0  0  0
   44.5560   13.5430   46.2400 C   0  0  0  0  0  0  0  0  0  0  0  0
   43.5960   14.1670   47.0100 O   0  0  0  0  0  0  0  0  0  0  0  0
   42.3540   13.6790   46.7370 C   0  0  0  0  0  0  0  0  0  0  0  0
   41.2280   13.9920   47.2280 O   0  0  0  0  0  0  0  0  0  0  0  0
   45.3360   14.4970   45.3550 C   0  0  0  0  0  0  0  0  0  0  0  0
   45.5170   12.8290   47.1720 C   0  0  0  0  0  0  0  0  0  0  0  0
   37.9350   12.9220   44.8320 C   0  0  0  0  0  0  0  0  0  0  0  0
   42.4270    9.7060   46.8590 H   0  0  0  0  0  0  0  0  0  0  0  0
   37.6490   10.8760   46.9410 H   0  0  0  0  0  0  0  0  0  0  0  0
   38.5320    9.1300   48.4470 H   0  0  0  0  0  0  0  0  0  0  0  0
   45.3510   11.6130   44.2140 H   0  0  0  0  0  0  0  0  0  0  0  0
   44.8530    9.8970   42.5390 H   0  0  0  0  0  0  0  0  0  0  0  0
   43.1920    9.2300   42.2920 H   0  0  0  0  0  0  0  0  0  0  0  0
   44.8080   15.4750   45.2300 H   0  0  0  0  0  0  0  0  0  0  0  0
   46.3470   14.6280   45.7820 H   0  0  0  0  0  0  0  0  0  0  0  0
   45.4380   14.0140   44.3710 H   0  0  0  0  0  0  0  0  0  0  0  0
   44.9790   12.5400   48.0960 H   0  0  0  0  0  0  0  0  0  0  0  0
   46.3780   13.4780   47.4170 H   0  0  0  0  0  0  0  0  0  0  0  0
   45.9270   11.9110   46.7070 H   0  0  0  0  0  0  0  0  0  0  0  0
   37.6290   12.6310   43.7910 H   0  0  0  0  0  0  0  0  0  0  0  0
   37.1640   12.4970   45.5120 H   0  0  0  0  0  0  0  0  0  0  0  0
   37.9700   14.0080   44.9270 H   0  0  0  0  0  0  0  0  0  0  0  0
  2  7  1  0  0  0  0
  2  1  1  0  0  0  0
  3  2  2  0  0  0  0
  4  5  2  0  0  0  0
  4  3  1  0  0  0  0
  5  6  1  0  0  0  0
  6 28  1  0  0  0  0
  6  7  2  0  0  0  0
  7 29  1  0  0  0  0
  8  5  1  0  0  0  0
  9 11  1  0  0  0  0
  9  8  1  0  0  0  0
 10  9  2  0  0  0  0
 11 16  1  6  0  0  0
 11 12  1  0  0  0  0
 11  4  1  0  0  0  0
 12 22  1  0  0  0  0
 13 12  2  0  0  0  0
 13 20  1  0  0  0  0
 14 13  1  0  0  0  0
 15 16  2  0  0  0  0
 15 14  1  0  0  0  0
 17 16  1  0  0  0  0
 18 17  3  0  0  0  0
 19 15  1  0  0  0  0
 20 21  1  0  0  0  0
 20 25  1  0  0  0  0
 22 21  1  0  0  0  0
 22 23  2  0  0  0  0
 24 34  1  0  0  0  0
 24 20  1  0  0  0  0
 25 37  1  0  0  0  0
 25 36  1  0  0  0  0
 26 41  1  0  0  0  0
 26  8  1  0  0  0  0
 26 40  1  0  0  0  0
 27  3  1  0  0  0  0
 30 14  1  0  0  0  0
 31 19  1  0  0  0  0
 32 19  1  0  0  0  0
 33 24  1  0  0  0  0
 35 24  1  0  0  0  0
 38 25  1  0  0  0  0
 39 26  1  0  0  0  0
M  END
>  <Pose>
1

>  <Score>
-4.77

$$$$
