
 OpenBabel03172210433D

 46 49  0  0  0  0  0  0  0  0999 V2000
   44.3420   13.4090   45.3850 B   0  0  0  0  0  0  0  0  0  0  0  0
   43.1670   12.0990   44.6330 C   0  0  0  0  0  0  0  0  0  0  0  0
   43.6720   10.9030   44.1230 C   0  0  0  0  0  0  0  0  0  0  0  0
   42.8770    9.9250   43.5660 C   0  0  0  0  0  0  0  0  0  0  0  0
   41.5250   10.1710   43.5280 C   0  0  0  0  0  0  0  0  0  0  0  0
   40.9820   11.3620   44.0320 C   0  0  0  0  0  0  0  0  0  0  0  0
   41.8130   12.3060   44.5770 C   0  0  0  0  0  0  0  0  0  0  0  0
   40.9030    9.0490   42.9190 N   0  0  0  0  0  0  0  0  0  0  0  0
   41.8720    8.0780   42.5660 C   0  0  0  0  0  0  0  0  0  0  0  0
   41.7010    6.9640   42.0140 O   0  0  0  0  0  0  0  0  0  0  0  0
   43.1790    8.6180   42.9740 C   0  0  0  0  0  0  0  0  0  0  0  0
   44.3420    8.0220   42.8230 C   0  0  0  0  0  0  0  0  0  0  0  0
   45.5790    8.5490   43.2180 N   0  0  0  0  0  0  0  0  0  0  0  0
   46.4130    7.9630   44.1530 N   0  0  0  0  0  0  0  0  0  0  0  0
   47.2770    6.8730   43.8650 C   0  0  0  0  0  0  0  0  0  0  0  0
   48.2820    7.1130   43.1770 O   0  0  0  0  0  0  0  0  0  0  0  0
   47.0330    5.4950   44.3470 C   0  0  0  0  0  0  0  0  0  0  0  0
   47.7140    4.5430   43.6010 N   0  0  0  0  0  0  0  0  0  0  0  0
   48.7490    3.7550   43.8890 C   0  0  0  0  0  0  0  0  0  0  0  0
   49.0840    3.0230   42.7580 C   0  0  0  0  0  0  0  0  0  0  0  0
   48.2250    3.3930   41.7900 N   0  0  0  0  0  0  0  0  0  0  0  0
   47.4100    4.2950   42.2880 C   0  0  0  0  0  0  0  0  0  0  0  0
   50.1270    2.1200   42.8040 C   0  0  0  0  0  0  0  0  0  0  0  0
   50.4090    1.4730   41.7620 O   0  0  0  0  0  0  0  0  0  0  0  0
   50.7740    1.9900   43.9520 N   0  0  0  0  0  0  0  0  0  0  0  0
   50.4390    2.7030   45.0420 C   0  0  0  0  0  0  0  0  0  0  0  0
   51.0770    2.5490   46.1110 O   0  0  0  0  0  0  0  0  0  0  0  0
   49.4180    3.6070   45.0500 N   0  0  0  0  0  0  0  0  0  0  0  0
   49.0620    4.3250   46.2400 C   0  0  0  0  0  0  0  0  0  0  0  0
   51.8960    1.0430   44.0550 C   0  0  0  0  0  0  0  0  0  0  0  0
   44.7350   10.7310   44.1710 H   0  0  0  0  0  0  0  0  0  0  0  0
   39.9180   11.5180   43.9850 H   0  0  0  0  0  0  0  0  0  0  0  0
   41.3700   13.2320   44.9660 H   0  0  0  0  0  0  0  0  0  0  0  0
   39.8760    8.9390   42.7490 H   0  0  0  0  0  0  0  0  0  0  0  0
   44.3510    7.0470   42.3580 H   0  0  0  0  0  0  0  0  0  0  0  0
   45.8680    9.4540   42.7540 H   0  0  0  0  0  0  0  0  0  0  0  0
   46.4180    8.3270   45.1300 H   0  0  0  0  0  0  0  0  0  0  0  0
   47.1230    5.5200   45.4250 H   0  0  0  0  0  0  0  0  0  0  0  0
   45.9100    5.3390   44.1840 H   0  0  0  0  0  0  0  0  0  0  0  0
   46.6170    4.7600   41.7220 H   0  0  0  0  0  0  0  0  0  0  0  0
   49.8540    4.0260   47.0130 H   0  0  0  0  0  0  0  0  0  0  0  0
   49.1680    5.3980   46.2320 H   0  0  0  0  0  0  0  0  0  0  0  0
   48.1580    3.9080   46.7430 H   0  0  0  0  0  0  0  0  0  0  0  0
   52.5670    1.2100   43.1880 H   0  0  0  0  0  0  0  0  0  0  0  0
   51.5360   -0.0060   43.9780 H   0  0  0  0  0  0  0  0  0  0  0  0
   52.4490    1.1780   45.0060 H   0  0  0  0  0  0  0  0  0  0  0  0
  2  1  1  0  0  0  0
  3 31  1  0  0  0  0
  3  2  2  0  0  0  0
  4  3  1  0  0  0  0
  5  4  2  0  0  0  0
  5  6  1  0  0  0  0
  6  7  2  0  0  0  0
  7  2  1  0  0  0  0
  7 33  1  0  0  0  0
  8  5  1  0  0  0  0
  9  8  1  0  0  0  0
  9 11  1  0  0  0  0
 10  9  2  0  0  0  0
 11  4  1  0  0  0  0
 12 11  2  0  0  0  0
 12 13  1  0  0  0  0
 13 14  1  0  0  0  0
 14 37  1  0  0  0  0
 15 14  1  0  0  0  0
 15 17  1  0  0  0  0
 16 15  2  0  0  0  0
 17 38  1  0  0  0  0
 18 19  1  0  0  0  0
 18 17  1  0  0  0  0
 19 28  1  0  0  0  0
 20 23  1  0  0  0  0
 20 19  2  0  0  0  0
 21 22  2  0  0  0  0
 21 20  1  0  0  0  0
 22 18  1  0  0  0  0
 23 25  1  0  0  0  0
 24 23  2  0  0  0  0
 25 30  1  0  0  0  0
 25 26  1  0  0  0  0
 26 28  1  0  0  0  0
 26 27  2  0  0  0  0
 28 29  1  0  0  0  0
 29 43  1  0  0  0  0
 29 41  1  0  0  0  0
 30 46  1  0  0  0  0
 32  6  1  0  0  0  0
 34  8  1  0  0  0  0
 35 12  1  0  0  0  0
 36 13  1  0  0  0  0
 39 17  1  0  0  0  0
 40 22  1  0  0  0  0
 42 29  1  0  0  0  0
 44 30  1  0  0  0  0
 45 30  1  0  0  0  0
M  END
>  <Pose>
1

>  <Score>
-7.91

$$$$
