
 OpenBabel03172210433D

 49 52  0  0  1  0  0  0  0  0999 V2000
   50.4390    2.2830   46.4500 B   0  0  0  0  0  0  0  0  0  0  0  0
   49.6210    2.7540   44.7780 C   0  0  0  0  0  0  0  0  0  0  0  0
   48.6310    3.7150   44.6980 C   0  0  0  0  0  0  0  0  0  0  0  0
   48.0370    4.0600   43.5010 C   0  0  0  0  0  0  0  0  0  0  0  0
   48.4840    3.3920   42.3800 C   0  0  0  0  0  0  0  0  0  0  0  0
   49.4800    2.4230   42.4570 C   0  0  0  0  0  0  0  0  0  0  0  0
   50.0500    2.1020   43.6500 C   0  0  0  0  0  0  0  0  0  0  0  0
   47.7570    3.8690   41.2370 N   0  0  0  0  0  0  0  0  0  0  0  0
   46.8330    4.8590   41.6570 C   0  0  0  0  0  0  0  0  0  0  0  0
   46.0460    5.4570   40.8870 O   0  0  0  0  0  0  0  0  0  0  0  0
   46.9840    5.0280   43.1170 C   0  0  1  0  0  0  0  0  0  0  0  0
   45.7400    4.7890   43.7980 N   0  0  0  0  0  0  0  0  0  0  0  0
   45.0140    6.0320   43.6420 C   0  0  2  0  0  0  0  0  0  0  0  0
   46.0600    7.0860   43.8850 C   0  0  2  0  0  0  0  0  0  0  0  0
   47.3400    6.4420   43.4100 C   0  0  1  0  0  0  0  0  0  0  0  0
   48.3050    6.6420   44.5000 C   0  0  0  0  0  0  0  0  0  0  0  0
   49.5320    6.3710   44.4790 O   0  0  0  0  0  0  0  0  0  0  0  0
   47.6340    7.2140   45.6460 N   0  0  0  0  0  0  0  0  0  0  0  0
   46.2640    7.3800   45.3210 C   0  0  0  0  0  0  0  0  0  0  0  0
   45.3820    7.7240   46.1440 O   0  0  0  0  0  0  0  0  0  0  0  0
   48.2340    7.5650   46.9100 C   0  0  0  0  0  0  0  0  0  0  0  0
   47.2030    8.0060   47.9200 C   0  0  0  0  0  0  0  0  0  0  0  0
   48.9950    6.3500   47.4490 C   0  0  0  0  0  0  0  0  0  0  0  0
   49.2140    8.7050   46.7440 C   0  0  0  0  0  0  0  0  0  0  0  0
   43.8600    6.0910   44.6060 C   0  0  0  0  0  0  0  0  0  0  0  0
   42.7580    6.9010   44.0630 C   0  0  0  0  0  0  0  0  0  0  0  0
   43.0270    8.0180   43.5410 O   0  0  0  0  0  0  0  0  0  0  0  0
   41.3920    6.5200   44.0790 N   0  0  0  0  0  0  0  0  0  0  0  0
   48.3450    4.1810   45.6230 H   0  0  0  0  0  0  0  0  0  0  0  0
   49.8250    1.9040   41.5700 H   0  0  0  0  0  0  0  0  0  0  0  0
   50.8310    1.3360   43.6770 H   0  0  0  0  0  0  0  0  0  0  0  0
   47.9180    3.5130   40.2710 H   0  0  0  0  0  0  0  0  0  0  0  0
   45.9290    4.6440   44.8020 H   0  0  0  0  0  0  0  0  0  0  0  0
   44.5770    6.1340   42.6190 H   0  0  0  0  0  0  0  0  0  0  0  0
   45.9000    8.0160   43.3190 H   0  0  0  0  0  0  0  0  0  0  0  0
   47.7090    6.9210   42.4760 H   0  0  0  0  0  0  0  0  0  0  0  0
   46.6790    8.8950   47.5150 H   0  0  0  0  0  0  0  0  0  0  0  0
   47.7040    8.3640   48.8530 H   0  0  0  0  0  0  0  0  0  0  0  0
   46.5210    7.1770   48.2060 H   0  0  0  0  0  0  0  0  0  0  0  0
   48.2580    5.5230   47.4860 H   0  0  0  0  0  0  0  0  0  0  0  0
   49.4050    6.5520   48.4440 H   0  0  0  0  0  0  0  0  0  0  0  0
   49.7710    6.1170   46.6820 H   0  0  0  0  0  0  0  0  0  0  0  0
   49.2570    9.2650   47.6970 H   0  0  0  0  0  0  0  0  0  0  0  0
   50.2330    8.3710   46.4990 H   0  0  0  0  0  0  0  0  0  0  0  0
   48.8490    9.3500   45.9260 H   0  0  0  0  0  0  0  0  0  0  0  0
   43.4660    5.0320   44.6560 H   0  0  0  0  0  0  0  0  0  0  0  0
   44.1450    6.3340   45.6360 H   0  0  0  0  0  0  0  0  0  0  0  0
   41.0390    5.5750   44.2900 H   0  0  0  0  0  0  0  0  0  0  0  0
   40.6860    7.2700   43.8540 H   0  0  0  0  0  0  0  0  0  0  0  0
  2  1  1  0  0  0  0
  3  2  1  0  0  0  0
  3 29  1  0  0  0  0
  4  3  2  0  0  0  0
  5  6  2  0  0  0  0
  5  4  1  0  0  0  0
  6  7  1  0  0  0  0
  7 31  1  0  0  0  0
  7  2  2  0  0  0  0
  8  9  1  0  0  0  0
  8  5  1  0  0  0  0
 10  9  2  0  0  0  0
 11  9  1  6  0  0  0
 11 15  1  0  0  0  0
 11  4  1  0  0  0  0
 11 12  1  0  0  0  0
 12 33  1  0  0  0  0
 13 34  1  6  0  0  0
 13 12  1  0  0  0  0
 13 14  1  0  0  0  0
 13 25  1  0  0  0  0
 14 35  1  6  0  0  0
 14 19  1  0  0  0  0
 15 36  1  6  0  0  0
 15 14  1  0  0  0  0
 15 16  1  0  0  0  0
 16 18  1  0  0  0  0
 17 16  2  0  0  0  0
 18 21  1  0  0  0  0
 19 18  1  0  0  0  0
 19 20  2  0  0  0  0
 21 23  1  0  0  0  0
 21 22  1  0  0  0  0
 22 39  1  0  0  0  0
 22 38  1  0  0  0  0
 23 40  1  0  0  0  0
 23 41  1  0  0  0  0
 24 21  1  0  0  0  0
 24 43  1  0  0  0  0
 25 46  1  0  0  0  0
 25 47  1  0  0  0  0
 26 28  1  0  0  0  0
 26 25  1  0  0  0  0
 27 26  2  0  0  0  0
 28 48  1  0  0  0  0
 30  6  1  0  0  0  0
 32  8  1  0  0  0  0
 37 22  1  0  0  0  0
 42 23  1  0  0  0  0
 44 24  1  0  0  0  0
 45 24  1  0  0  0  0
 49 28  1  0  0  0  0
M  END
>  <Pose>
1

>  <Score>
-5.99

$$$$
