
 OpenBabel03172210433D

 45 48  0  0  1  0  0  0  0  0999 V2000
   40.6440   12.1720   48.4280 B   0  0  0  0  0  0  0  0  0  0  0  0
   40.9240   10.4080   47.7530 C   0  0  0  0  0  0  0  0  0  0  0  0
   41.6300   10.1670   46.6020 C   0  0  0  0  0  0  0  0  0  0  0  0
   41.8560    8.8830   46.0760 C   0  0  0  0  0  0  0  0  0  0  0  0
   41.3320    7.8350   46.7720 C   0  0  0  0  0  0  0  0  0  0  0  0
   40.6030    8.0630   47.9550 C   0  0  0  0  0  0  0  0  0  0  0  0
   40.4000    9.3320   48.4430 C   0  0  0  0  0  0  0  0  0  0  0  0
   41.6420    6.6030   46.1370 N   0  0  0  0  0  0  0  0  0  0  0  0
   42.3990    6.9030   44.9880 C   0  0  0  0  0  0  0  0  0  0  0  0
   42.8770    6.0430   44.1610 O   0  0  0  0  0  0  0  0  0  0  0  0
   42.5420    8.3680   44.9090 C   0  0  2  0  0  0  0  0  0  0  0  0
   43.9950    8.5800   45.0370 N   0  0  0  0  0  0  0  0  0  0  0  0
   44.5350    8.8230   43.7360 C   0  0  2  0  0  0  0  0  0  0  0  0
   43.4150    9.4340   42.9780 C   0  0  1  0  0  0  0  0  0  0  0  0
   42.1400    8.9260   43.5940 C   0  0  2  0  0  0  0  0  0  0  0  0
   41.2670   10.0770   43.5730 C   0  0  0  0  0  0  0  0  0  0  0  0
   40.0130   10.0430   43.7490 O   0  0  0  0  0  0  0  0  0  0  0  0
   42.0400   11.2430   43.3250 N   0  0  0  0  0  0  0  0  0  0  0  0
   43.4180   10.9050   43.2550 C   0  0  0  0  0  0  0  0  0  0  0  0
   44.3610   11.7070   43.4000 O   0  0  0  0  0  0  0  0  0  0  0  0
   41.4480   12.5650   43.1740 C   0  0  0  0  0  0  0  0  0  0  0  0
   40.6900   12.9840   44.3970 C   0  0  0  0  0  0  0  0  0  0  0  0
   39.2350   13.2580   44.1280 C   0  0  0  0  0  0  0  0  0  0  0  0
   38.4550   12.6400   45.2940 C   0  0  0  0  0  0  0  0  0  0  0  0
   45.1210    7.6070   43.0570 C   0  0  0  0  0  0  0  0  0  0  0  0
   42.0280   11.0200   46.0880 H   0  0  0  0  0  0  0  0  0  0  0  0
   40.2000    7.1900   48.4820 H   0  0  0  0  0  0  0  0  0  0  0  0
   39.8410    9.5270   49.3540 H   0  0  0  0  0  0  0  0  0  0  0  0
   41.3660    5.6270   46.4530 H   0  0  0  0  0  0  0  0  0  0  0  0
   44.2000    9.3610   45.6990 H   0  0  0  0  0  0  0  0  0  0  0  0
   45.3500    9.6100   43.8510 H   0  0  0  0  0  0  0  0  0  0  0  0
   43.4590    9.2390   41.8830 H   0  0  0  0  0  0  0  0  0  0  0  0
   41.7360    8.0570   42.9900 H   0  0  0  0  0  0  0  0  0  0  0  0
   42.2360   13.3160   42.9920 H   0  0  0  0  0  0  0  0  0  0  0  0
   40.7690   12.5520   42.2870 H   0  0  0  0  0  0  0  0  0  0  0  0
   41.1400   13.9160   44.7710 H   0  0  0  0  0  0  0  0  0  0  0  0
   40.7520   12.1590   45.1380 H   0  0  0  0  0  0  0  0  0  0  0  0
   38.9030   12.8040   43.1660 H   0  0  0  0  0  0  0  0  0  0  0  0
   39.0400   14.3310   44.0880 H   0  0  0  0  0  0  0  0  0  0  0  0
   37.4110   12.4250   44.9960 H   0  0  0  0  0  0  0  0  0  0  0  0
   38.9950   11.7570   45.6730 H   0  0  0  0  0  0  0  0  0  0  0  0
   38.5040   13.4070   46.1200 H   0  0  0  0  0  0  0  0  0  0  0  0
   46.0610    7.9110   42.5050 H   0  0  0  0  0  0  0  0  0  0  0  0
   45.4510    6.9030   43.8170 H   0  0  0  0  0  0  0  0  0  0  0  0
   44.4670    7.2060   42.2650 H   0  0  0  0  0  0  0  0  0  0  0  0
  2  1  1  0  0  0  0
  2  7  1  0  0  0  0
  3  2  2  0  0  0  0
  4  3  1  0  0  0  0
  4  5  2  0  0  0  0
  5  6  1  0  0  0  0
  6  7  2  0  0  0  0
  6 27  1  0  0  0  0
  7 28  1  0  0  0  0
  8 29  1  0  0  0  0
  8  5  1  0  0  0  0
  9  8  1  0  0  0  0
 10  9  2  0  0  0  0
 11  9  1  6  0  0  0
 11 12  1  0  0  0  0
 11  4  1  0  0  0  0
 12 30  1  0  0  0  0
 13 31  1  1  0  0  0
 13 12  1  0  0  0  0
 14 32  1  6  0  0  0
 14 19  1  0  0  0  0
 14 15  1  0  0  0  0
 14 13  1  0  0  0  0
 15 33  1  6  0  0  0
 15 11  1  0  0  0  0
 16 15  1  0  0  0  0
 16 17  2  0  0  0  0
 18 16  1  0  0  0  0
 19 18  1  0  0  0  0
 19 20  2  0  0  0  0
 21 18  1  0  0  0  0
 21 22  1  0  0  0  0
 22 36  1  0  0  0  0
 22 37  1  0  0  0  0
 23 22  1  0  0  0  0
 23 24  1  0  0  0  0
 24 41  1  0  0  0  0
 24 42  1  0  0  0  0
 25 13  1  0  0  0  0
 25 44  1  0  0  0  0
 26  3  1  0  0  0  0
 34 21  1  0  0  0  0
 35 21  1  0  0  0  0
 38 23  1  0  0  0  0
 39 23  1  0  0  0  0
 40 24  1  0  0  0  0
 43 25  1  0  0  0  0
 45 25  1  0  0  0  0
M  END
>  <Pose>
1

>  <Score>
-5.20

$$$$
