
 OpenBabel03172210433D

 47 50  0  0  1  0  0  0  0  0999 V2000
   42.7740   11.9650   44.4710 B   0  0  0  0  0  0  0  0  0  0  0  0
   42.8130   10.0580   44.4540 C   0  0  0  0  0  0  0  0  0  0  0  0
   43.9830    9.3340   44.3930 C   0  0  0  0  0  0  0  0  0  0  0  0
   44.0050    7.9400   44.3820 C   0  0  0  0  0  0  0  0  0  0  0  0
   42.8190    7.2520   44.4310 C   0  0  0  0  0  0  0  0  0  0  0  0
   41.6250    7.9520   44.4920 C   0  0  0  0  0  0  0  0  0  0  0  0
   41.6320    9.3520   44.5030 C   0  0  0  0  0  0  0  0  0  0  0  0
   43.0670    5.8430   44.4140 N   0  0  0  0  0  0  0  0  0  0  0  0
   44.4680    5.6400   44.3520 C   0  0  0  0  0  0  0  0  0  0  0  0
   44.9960    4.5120   44.3350 O   0  0  0  0  0  0  0  0  0  0  0  0
   45.1120    6.9440   44.3150 C   0  0  2  0  0  0  0  0  0  0  0  0
   45.9620    7.0400   45.5020 N   0  0  0  0  0  0  0  0  0  0  0  0
   47.1430    7.7300   45.0770 C   0  0  2  0  0  0  0  0  0  0  0  0
   47.3750    7.2270   43.6990 C   0  0  2  0  0  0  0  0  0  0  0  0
   45.9800    7.2010   43.1190 C   0  0  1  0  0  0  0  0  0  0  0  0
   46.0160    6.1430   42.1200 C   0  0  0  0  0  0  0  0  0  0  0  0
   45.1910    5.9790   41.1950 O   0  0  0  0  0  0  0  0  0  0  0  0
   47.1540    5.3320   42.3850 N   0  0  0  0  0  0  0  0  0  0  0  0
   47.7740    5.8010   43.6060 C   0  0  0  0  0  0  0  0  0  0  0  0
   48.4670    5.0680   44.3300 O   0  0  0  0  0  0  0  0  0  0  0  0
   47.5830    4.2440   41.5560 C   0  0  0  0  0  0  0  0  0  0  0  0
   47.8660    2.9660   42.2730 C   0  0  0  0  0  0  0  0  0  0  0  0
   47.4930    1.8410   41.5560 O   0  0  0  0  0  0  0  0  0  0  0  0
   46.5530    1.0790   42.2470 C   0  0  0  0  0  0  0  0  0  0  0  0
   48.2940    7.5870   46.0140 C   0  0  0  0  0  0  0  0  0  0  0  0
   47.8020    7.3900   47.3820 C   0  0  0  0  0  0  0  0  0  0  0  0
   48.0140    6.2920   47.9700 O   0  0  0  0  0  0  0  0  0  0  0  0
   47.0860    8.4210   48.0580 N   0  0  0  0  0  0  0  0  0  0  0  0
   44.9020    9.9100   44.3550 H   0  0  0  0  0  0  0  0  0  0  0  0
   40.6980    7.3980   44.5310 H   0  0  0  0  0  0  0  0  0  0  0  0
   40.6880    9.8810   44.5510 H   0  0  0  0  0  0  0  0  0  0  0  0
   42.3110    5.1030   44.4440 H   0  0  0  0  0  0  0  0  0  0  0  0
   46.2470    6.0840   45.8240 H   0  0  0  0  0  0  0  0  0  0  0  0
   46.9500    8.8340   44.9820 H   0  0  0  0  0  0  0  0  0  0  0  0
   48.0550    7.8780   43.1050 H   0  0  0  0  0  0  0  0  0  0  0  0
   45.8090    8.2150   42.6890 H   0  0  0  0  0  0  0  0  0  0  0  0
   48.5300    4.5370   41.0470 H   0  0  0  0  0  0  0  0  0  0  0  0
   46.7980    4.0060   40.7880 H   0  0  0  0  0  0  0  0  0  0  0  0
   47.4230    2.9340   43.2940 H   0  0  0  0  0  0  0  0  0  0  0  0
   48.9630    2.9040   42.4200 H   0  0  0  0  0  0  0  0  0  0  0  0
   46.3210    0.1990   41.5820 H   0  0  0  0  0  0  0  0  0  0  0  0
   46.9340    0.6580   43.1810 H   0  0  0  0  0  0  0  0  0  0  0  0
   45.5830    1.6140   42.3560 H   0  0  0  0  0  0  0  0  0  0  0  0
   49.0330    6.8200   45.7380 H   0  0  0  0  0  0  0  0  0  0  0  0
   48.8500    8.5610   46.0060 H   0  0  0  0  0  0  0  0  0  0  0  0
   46.8130    9.2880   47.5520 H   0  0  0  0  0  0  0  0  0  0  0  0
   46.8380    8.3000   49.0610 H   0  0  0  0  0  0  0  0  0  0  0  0
  2  1  1  0  0  0  0
  2  7  1  0  0  0  0
  3  2  2  0  0  0  0
  4  3  1  0  0  0  0
  4  5  2  0  0  0  0
  5  6  1  0  0  0  0
  6  7  2  0  0  0  0
  6 30  1  0  0  0  0
  7 31  1  0  0  0  0
  8  5  1  0  0  0  0
  8 32  1  0  0  0  0
  9  8  1  0  0  0  0
 10  9  2  0  0  0  0
 11  9  1  6  0  0  0
 11  4  1  0  0  0  0
 11 12  1  0  0  0  0
 12 33  1  0  0  0  0
 13 34  1  6  0  0  0
 13 12  1  0  0  0  0
 13 25  1  0  0  0  0
 14 35  1  6  0  0  0
 14 13  1  0  0  0  0
 15 36  1  6  0  0  0
 15 14  1  0  0  0  0
 15 11  1  0  0  0  0
 16 18  1  0  0  0  0
 16 15  1  0  0  0  0
 17 16  2  0  0  0  0
 18 19  1  0  0  0  0
 19 14  1  0  0  0  0
 19 20  2  0  0  0  0
 21 22  1  0  0  0  0
 21 18  1  0  0  0  0
 22 40  1  0  0  0  0
 22 39  1  0  0  0  0
 23 24  1  0  0  0  0
 23 22  1  0  0  0  0
 24 43  1  0  0  0  0
 24 42  1  0  0  0  0
 25 26  1  0  0  0  0
 26 27  2  0  0  0  0
 26 28  1  0  0  0  0
 28 47  1  0  0  0  0
 29  3  1  0  0  0  0
 37 21  1  0  0  0  0
 38 21  1  0  0  0  0
 41 24  1  0  0  0  0
 44 25  1  0  0  0  0
 45 25  1  0  0  0  0
 46 28  1  0  0  0  0
M  END
>  <Pose>
1

>  <Score>
-6.33

$$$$
