
 OpenBabel03172210433D

 37 40  0  0  0  0  0  0  0  0999 V2000
   47.1550    4.1340   43.6540 B   0  0  0  0  0  0  0  0  0  0  0  0
   46.2090    5.8010   43.5430 C   0  0  0  0  0  0  0  0  0  0  0  0
   44.8510    5.8490   43.7780 C   0  0  0  0  0  0  0  0  0  0  0  0
   44.1760    7.0500   43.6980 C   0  0  0  0  0  0  0  0  0  0  0  0
   44.8020    8.2410   43.3860 C   0  0  0  0  0  0  0  0  0  0  0  0
   46.1730    8.1740   43.1510 C   0  0  0  0  0  0  0  0  0  0  0  0
   46.8550    6.9780   43.2310 C   0  0  0  0  0  0  0  0  0  0  0  0
   44.2670    9.5390   43.2640 N   0  0  0  0  0  0  0  0  0  0  0  0
   44.9190   10.5480   42.7090 N   0  0  0  0  0  0  0  0  0  0  0  0
   44.1330   11.6120   42.7600 N   0  0  0  0  0  0  0  0  0  0  0  0
   43.0060   11.2730   43.3390 N   0  0  0  0  0  0  0  0  0  0  0  0
   43.0530    9.9600   43.6740 C   0  0  0  0  0  0  0  0  0  0  0  0
   41.9180    9.3190   44.3400 C   0  0  0  0  0  0  0  0  0  0  0  0
   41.7510    7.9240   44.1180 N   0  0  0  0  0  0  0  0  0  0  0  0
   42.7440    6.9210   43.9750 C   0  0  0  0  0  0  0  0  0  0  0  0
   42.4020    5.7140   44.0940 O   0  0  0  0  0  0  0  0  0  0  0  0
   41.9780    9.5090   45.8640 C   0  0  0  0  0  0  0  0  0  0  0  0
   40.5710    9.6160   46.3940 C   0  0  0  0  0  0  0  0  0  0  0  0
   40.0970   10.9500   46.1020 N   0  0  0  0  0  0  0  0  0  0  0  0
   40.3730   11.2550   44.7230 C   0  0  0  0  0  0  0  0  0  0  0  0
   40.6470   10.0290   43.8870 C   0  0  0  0  0  0  0  0  0  0  0  0
   40.7830   11.8710   47.0070 C   0  0  0  0  0  0  0  0  0  0  0  0
   44.2810    4.9610   44.0280 H   0  0  0  0  0  0  0  0  0  0  0  0
   46.6690    9.1030   42.9070 H   0  0  0  0  0  0  0  0  0  0  0  0
   47.9170    6.9560   43.0450 H   0  0  0  0  0  0  0  0  0  0  0  0
   40.7650    7.5990   44.0520 H   0  0  0  0  0  0  0  0  0  0  0  0
   42.4250    8.5970   46.3450 H   0  0  0  0  0  0  0  0  0  0  0  0
   42.6210   10.3490   46.1130 H   0  0  0  0  0  0  0  0  0  0  0  0
   39.9430    8.8860   45.8590 H   0  0  0  0  0  0  0  0  0  0  0  0
   40.5310    9.3850   47.4600 H   0  0  0  0  0  0  0  0  0  0  0  0
   41.1770   11.9950   44.6790 H   0  0  0  0  0  0  0  0  0  0  0  0
   39.4650   11.7310   44.3020 H   0  0  0  0  0  0  0  0  0  0  0  0
   39.7730    9.3790   43.8730 H   0  0  0  0  0  0  0  0  0  0  0  0
   40.8270   10.3800   42.8480 H   0  0  0  0  0  0  0  0  0  0  0  0
   41.3890   12.5520   46.3680 H   0  0  0  0  0  0  0  0  0  0  0  0
   40.0690   12.4360   47.6420 H   0  0  0  0  0  0  0  0  0  0  0  0
   41.4560   11.3220   47.7080 H   0  0  0  0  0  0  0  0  0  0  0  0
  2  1  1  0  0  0  0
  2  3  1  0  0  0  0
  3 23  1  0  0  0  0
  4  3  2  0  0  0  0
  4 15  1  0  0  0  0
  5  4  1  0  0  0  0
  6  7  1  0  0  0  0
  6  5  2  0  0  0  0
  7  2  2  0  0  0  0
  8  5  1  0  0  0  0
  8 12  1  0  0  0  0
  9 10  2  0  0  0  0
  9  8  1  0  0  0  0
 10 11  1  0  0  0  0
 11 12  2  0  0  0  0
 12 13  1  0  0  0  0
 13 17  1  0  0  0  0
 14 13  1  0  0  0  0
 15 16  2  0  0  0  0
 15 14  1  0  0  0  0
 17 28  1  0  0  0  0
 17 27  1  0  0  0  0
 17 18  1  0  0  0  0
 18 30  1  0  0  0  0
 19 18  1  0  0  0  0
 19 22  1  0  0  0  0
 20 19  1  0  0  0  0
 21 13  1  0  0  0  0
 21 20  1  0  0  0  0
 22 36  1  0  0  0  0
 22 37  1  0  0  0  0
 24  6  1  0  0  0  0
 25  7  1  0  0  0  0
 26 14  1  0  0  0  0
 29 18  1  0  0  0  0
 31 20  1  0  0  0  0
 32 20  1  0  0  0  0
 33 21  1  0  0  0  0
 34 21  1  0  0  0  0
 35 22  1  0  0  0  0
M  END
>  <Pose>
1

>  <Score>
-5.30

$$$$
