
 OpenBabel03172210433D

 33 36  0  0  1  0  0  0  0  0999 V2000
   36.6650   10.6640   45.2310 B   0  0  0  0  0  0  0  0  0  0  0  0
   38.4830   11.1780   45.4190 C   0  0  0  0  0  0  0  0  0  0  0  0
   39.4490   10.4320   44.8040 C   0  0  0  0  0  0  0  0  0  0  0  0
   40.7880   10.8120   44.9430 C   0  0  0  0  0  0  0  0  0  0  0  0
   41.0850   11.9080   45.6840 C   0  0  0  0  0  0  0  0  0  0  0  0
   40.0860   12.6750   46.3170 C   0  0  0  0  0  0  0  0  0  0  0  0
   38.7720   12.2980   46.1790 C   0  0  0  0  0  0  0  0  0  0  0  0
   42.3930   12.3240   45.8520 O   0  0  0  0  0  0  0  0  0  0  0  0
   43.3990   11.6000   45.2480 C   0  0  0  0  0  0  0  0  0  0  0  0
   43.1880   10.5310   44.5170 C   0  0  0  0  0  0  0  0  0  0  0  0
   41.8460   10.0170   44.2840 C   0  0  1  0  0  0  0  0  0  0  0  0
   41.7180    8.5750   44.6050 C   0  0  0  0  0  0  0  0  0  0  0  0
   41.4170    7.8990   43.4550 C   0  0  0  0  0  0  0  0  0  0  0  0
   41.3000    6.5710   43.7540 N   0  0  0  0  0  0  0  0  0  0  0  0
   41.5270    6.4580   45.0500 N   0  0  0  0  0  0  0  0  0  0  0  0
   41.7860    7.6480   45.6070 C   0  0  0  0  0  0  0  0  0  0  0  0
   42.0820    7.8520   47.0580 C   0  0  0  0  0  0  0  0  0  0  0  0
   41.3260    8.7790   42.3550 N   0  0  0  0  0  0  0  0  0  0  0  0
   41.5820   10.0750   42.8300 C   0  0  0  0  0  0  0  0  0  0  0  0
   41.5950   11.1420   42.1590 O   0  0  0  0  0  0  0  0  0  0  0  0
   44.2950    9.8250   43.9170 C   0  0  0  0  0  0  0  0  0  0  0  0
   45.1850    9.2740   43.4220 N   0  0  0  0  0  0  0  0  0  0  0  0
   44.7520   12.0450   45.4320 N   0  0  0  0  0  0  0  0  0  0  0  0
   39.2610    9.5550   44.2060 H   0  0  0  0  0  0  0  0  0  0  0  0
   40.3540   13.5480   46.9050 H   0  0  0  0  0  0  0  0  0  0  0  0
   37.9540   12.8390   46.6350 H   0  0  0  0  0  0  0  0  0  0  0  0
   41.4960    5.5220   45.5350 H   0  0  0  0  0  0  0  0  0  0  0  0
   42.2030    8.9170   47.2770 H   0  0  0  0  0  0  0  0  0  0  0  0
   42.9910    7.2570   47.3210 H   0  0  0  0  0  0  0  0  0  0  0  0
   41.2630    7.4460   47.7030 H   0  0  0  0  0  0  0  0  0  0  0  0
   41.1010    8.4850   41.3470 H   0  0  0  0  0  0  0  0  0  0  0  0
   45.4400   11.4180   45.9010 H   0  0  0  0  0  0  0  0  0  0  0  0
   45.0810   12.9840   45.1120 H   0  0  0  0  0  0  0  0  0  0  0  0
  1  2  1  0  0  0  0
  2  7  1  0  0  0  0
  3  4  1  0  0  0  0
  3  2  2  0  0  0  0
  4  5  2  0  0  0  0
  5  8  1  0  0  0  0
  5  6  1  0  0  0  0
  6 25  1  0  0  0  0
  7  6  2  0  0  0  0
  7 26  1  0  0  0  0
  9 23  1  0  0  0  0
  9  8  1  0  0  0  0
 10  9  2  0  0  0  0
 11 19  1  6  0  0  0
 11 10  1  0  0  0  0
 11 12  1  0  0  0  0
 11  4  1  0  0  0  0
 12 16  2  0  0  0  0
 13 14  2  0  0  0  0
 13 12  1  0  0  0  0
 14 15  1  0  0  0  0
 15 27  1  0  0  0  0
 15 16  1  0  0  0  0
 16 17  1  0  0  0  0
 17 28  1  0  0  0  0
 17 29  1  0  0  0  0
 17 30  1  0  0  0  0
 18 19  1  0  0  0  0
 18 13  1  0  0  0  0
 20 19  2  0  0  0  0
 21 10  1  0  0  0  0
 22 21  3  0  0  0  0
 23 32  1  0  0  0  0
 24  3  1  0  0  0  0
 31 18  1  0  0  0  0
 33 23  1  0  0  0  0
M  END
>  <Pose>
1

>  <Score>
-6.34

$$$$
