
 OpenBabel03172210433D

 51 54  0  0  0  0  0  0  0  0999 V2000
   42.4300    9.0930   40.9370 B   0  0  0  0  0  0  0  0  0  0  0  0
   42.1850    8.5670   42.7540 C   0  0  0  0  0  0  0  0  0  0  0  0
   41.5650    9.4200   43.6630 C   0  0  0  0  0  0  0  0  0  0  0  0
   41.3860    9.0380   44.9860 C   0  0  0  0  0  0  0  0  0  0  0  0
   41.8240    7.8020   45.4110 C   0  0  0  0  0  0  0  0  0  0  0  0
   41.6450    7.4250   46.7030 N   0  0  0  0  0  0  0  0  0  0  0  0
   41.0460    8.2290   47.5990 C   0  0  0  0  0  0  0  0  0  0  0  0
   40.6270    9.4250   47.1680 N   0  0  0  0  0  0  0  0  0  0  0  0
   40.7710    9.8640   45.9040 C   0  0  0  0  0  0  0  0  0  0  0  0
   40.2790   11.1820   45.5370 C   0  0  0  0  0  0  0  0  0  0  0  0
   38.9180   11.4080   45.3910 C   0  0  0  0  0  0  0  0  0  0  0  0
   38.4130   12.6470   45.0570 C   0  0  0  0  0  0  0  0  0  0  0  0
   39.2510   13.7240   44.8550 C   0  0  0  0  0  0  0  0  0  0  0  0
   40.6140   13.4970   45.0020 C   0  0  0  0  0  0  0  0  0  0  0  0
   41.1090   12.2550   45.3350 C   0  0  0  0  0  0  0  0  0  0  0  0
   37.8210   10.0480   45.6430 Cl  0  0  0  0  0  0  0  0  0  0  0  0
   40.8730    7.7960   48.9540 N   0  0  0  0  0  4  0  0  0  0  0  0
   40.1510    8.7900   49.7010 C   0  0  0  0  0  0  0  0  0  0  0  0
   40.9550    9.9900   50.0670 C   0  0  0  0  0  0  0  0  0  0  0  0
   42.3740    9.7880   49.8750 N   0  0  0  0  0  0  0  0  0  0  0  0
   42.8930    8.4770   50.1970 C   0  0  0  0  0  0  0  0  0  0  0  0
   42.0920    7.3760   49.5740 C   0  0  0  0  0  0  0  0  0  0  0  0
   43.1560   10.8650   49.3930 C   0  0  0  0  0  0  0  0  0  0  0  0
   42.7130   12.0350   49.4020 O   0  0  0  0  0  0  0  0  0  0  0  0
   44.5160   10.5250   48.8840 C   0  0  0  0  0  0  0  0  0  0  0  0
   45.5860   11.2430   49.6490 C   0  0  0  0  0  0  0  0  0  0  0  0
   46.5740   11.9070   48.7850 C   0  0  0  0  0  0  0  0  0  0  0  0
   46.2510   12.8380   48.0190 O   0  0  0  0  0  0  0  0  0  0  0  0
   47.8900   11.4930   48.8220 O   0  0  0  0  0  0  0  0  0  0  0  0
   42.4400    6.9700   44.4860 C   0  0  0  0  0  0  0  0  0  0  0  0
   42.6280    7.3290   43.1690 C   0  0  0  0  0  0  0  0  0  0  0  0
   41.2210   10.3730   43.3370 H   0  0  0  0  0  0  0  0  0  0  0  0
   37.3530   12.8220   44.9420 H   0  0  0  0  0  0  0  0  0  0  0  0
   38.8630   14.7030   44.5930 H   0  0  0  0  0  0  0  0  0  0  0  0
   41.2870   14.3260   44.8470 H   0  0  0  0  0  0  0  0  0  0  0  0
   42.1740   12.1520   45.4380 H   0  0  0  0  0  0  0  0  0  0  0  0
   40.2170    6.9610   48.8800 H   0  0  0  0  0  0  0  0  0  0  0  0
   39.2590    9.0780   49.1150 H   0  0  0  0  0  0  0  0  0  0  0  0
   39.7820    8.2830   50.6300 H   0  0  0  0  0  0  0  0  0  0  0  0
   40.8220   10.2060   51.1650 H   0  0  0  0  0  0  0  0  0  0  0  0
   40.5750   10.8650   49.5040 H   0  0  0  0  0  0  0  0  0  0  0  0
   43.9690    8.3790   49.9450 H   0  0  0  0  0  0  0  0  0  0  0  0
   42.7670    8.3830   51.3160 H   0  0  0  0  0  0  0  0  0  0  0  0
   41.8170    6.6050   50.3450 H   0  0  0  0  0  0  0  0  0  0  0  0
   42.7010    6.8500   48.8020 H   0  0  0  0  0  0  0  0  0  0  0  0
   44.6710    9.4350   49.0240 H   0  0  0  0  0  0  0  0  0  0  0  0
   44.6070   10.7200   47.7960 H   0  0  0  0  0  0  0  0  0  0  0  0
   46.1350   10.4790   50.2540 H   0  0  0  0  0  0  0  0  0  0  0  0
   45.1320   11.9550   50.3680 H   0  0  0  0  0  0  0  0  0  0  0  0
   42.7820    6.0130   44.8120 H   0  0  0  0  0  0  0  0  0  0  0  0
   43.1060    6.6940   42.4330 H   0  0  0  0  0  0  0  0  0  0  0  0
  1  2  1  0  0  0  0
  2 31  2  0  0  0  0
  2  3  1  0  0  0  0
  3  4  2  0  0  0  0
  4  5  1  0  0  0  0
  4  9  1  0  0  0  0
  5  6  1  0  0  0  0
  6  7  2  0  0  0  0
  7 17  1  0  0  0  0
  8  7  1  0  0  0  0
  9  8  2  0  0  0  0
 10  9  1  0  0  0  0
 11 10  1  0  0  0  0
 11 16  1  0  0  0  0
 12 11  2  0  0  0  0
 13 14  2  0  0  0  0
 13 12  1  0  0  0  0
 14 15  1  0  0  0  0
 15 36  1  0  0  0  0
 15 10  2  0  0  0  0
 17 22  1  0  0  0  0
 17 18  1  0  0  0  0
 18 19  1  0  0  0  0
 18 39  1  0  0  0  0
 19 40  1  0  0  0  0
 20 19  1  0  0  0  0
 20 21  1  0  0  0  0
 21 43  1  0  0  0  0
 22 21  1  0  0  0  0
 22 44  1  0  0  0  0
 23 24  2  0  0  0  0
 23 20  1  0  0  0  0
 25 46  1  0  0  0  0
 25 23  1  0  0  0  0
 25 26  1  0  0  0  0
 26 48  1  0  0  0  0
 26 49  1  0  0  0  0
 27 29  1  0  0  0  0
 27 26  1  0  0  0  0
 28 27  2  0  0  0  0
 30 50  1  0  0  0  0
 30  5  2  0  0  0  0
 31 30  1  0  0  0  0
 32  3  1  0  0  0  0
 33 12  1  0  0  0  0
 34 13  1  0  0  0  0
 35 14  1  0  0  0  0
 37 17  1  0  0  0  0
 38 18  1  0  0  0  0
 41 19  1  0  0  0  0
 42 21  1  0  0  0  0
 45 22  1  0  0  0  0
 47 25  1  0  0  0  0
 51 31  1  0  0  0  0
M  END
>  <Pose>
1

>  <Score>
-4.43

$$$$
