
 OpenBabel03172210433D

 54 57  0  0  0  0  0  0  0  0999 V2000
   38.5960   11.3780   45.1840 B   0  0  0  0  0  0  0  0  0  0  0  0
   40.2030   10.5280   44.5920 C   0  0  0  0  0  0  0  0  0  0  0  0
   41.0280    9.8330   45.4580 C   0  0  0  0  0  0  0  0  0  0  0  0
   42.1910    9.2100   45.0630 C   0  0  0  0  0  0  0  0  0  0  0  0
   42.5810    9.2650   43.7370 C   0  0  0  0  0  0  0  0  0  0  0  0
   43.7260    8.6650   43.3280 N   0  0  0  0  0  0  0  0  0  0  0  0
   44.5300    7.9970   44.1720 C   0  0  0  0  0  0  0  0  0  0  0  0
   44.1520    7.9410   45.4610 N   0  0  0  0  0  0  0  0  0  0  0  0
   43.0190    8.5220   45.9200 C   0  0  0  0  0  0  0  0  0  0  0  0
   42.6590    8.4330   47.3270 C   0  0  0  0  0  0  0  0  0  0  0  0
   43.1910    9.2930   48.2750 C   0  0  0  0  0  0  0  0  0  0  0  0
   42.8720    9.2060   49.6180 C   0  0  0  0  0  0  0  0  0  0  0  0
   41.9750    8.2030   50.0050 C   0  0  0  0  0  0  0  0  0  0  0  0
   41.4270    7.3310   49.0870 C   0  0  0  0  0  0  0  0  0  0  0  0
   41.7700    7.4540   47.7790 C   0  0  0  0  0  0  0  0  0  0  0  0
   44.3150   10.5420   47.7630 Cl  0  0  0  0  0  0  0  0  0  0  0  0
   45.7250    7.3790   43.7060 N   0  0  0  0  0  4  0  0  0  0  0  0
   46.5870    7.0210   44.8100 C   0  0  0  0  0  0  0  0  0  0  0  0
   47.5730    6.0020   44.3320 C   0  0  0  0  0  0  0  0  0  0  0  0
   47.5690    5.9990   42.8830 N   0  0  0  0  0  0  0  0  0  0  0  0
   47.5730    7.2880   42.2150 C   0  0  0  0  0  0  0  0  0  0  0  0
   46.4890    8.1990   42.8020 C   0  0  0  0  0  0  0  0  0  0  0  0
   47.5610    4.7690   42.2040 C   0  0  0  0  0  0  0  0  0  0  0  0
   47.5020    4.7910   40.9500 O   0  0  0  0  0  0  0  0  0  0  0  0
   47.6160    3.4830   42.9030 C   0  0  0  0  0  0  0  0  0  0  0  0
   48.7850    2.6810   42.4060 C   0  0  0  0  0  0  0  0  0  0  0  0
   49.9060    2.5970   43.4190 C   0  0  0  0  0  0  0  0  0  0  0  0
   51.1830    2.1440   42.8330 C   0  0  0  0  0  0  0  0  0  0  0  0
   51.9160    3.0120   42.3040 O   0  0  0  0  0  0  0  0  0  0  0  0
   51.5320    0.8020   42.8800 O   0  0  0  0  0  0  0  0  0  0  0  0
   41.7650    9.9540   42.8670 C   0  0  0  0  0  0  0  0  0  0  0  0
   40.5930   10.5810   43.2720 C   0  0  0  0  0  0  0  0  0  0  0  0
   40.7140    9.8090   46.4920 H   0  0  0  0  0  0  0  0  0  0  0  0
   43.2910    9.8830   50.3580 H   0  0  0  0  0  0  0  0  0  0  0  0
   41.7270    8.1390   51.0690 H   0  0  0  0  0  0  0  0  0  0  0  0
   40.7250    6.5510   49.4020 H   0  0  0  0  0  0  0  0  0  0  0  0
   41.3490    6.7700   47.0570 H   0  0  0  0  0  0  0  0  0  0  0  0
   45.4440    6.5170   43.1930 H   0  0  0  0  0  0  0  0  0  0  0  0
   45.9340    6.6270   45.6160 H   0  0  0  0  0  0  0  0  0  0  0  0
   47.0590    7.9570   45.1770 H   0  0  0  0  0  0  0  0  0  0  0  0
   47.2700    5.0180   44.7450 H   0  0  0  0  0  0  0  0  0  0  0  0
   48.5890    6.2270   44.7200 H   0  0  0  0  0  0  0  0  0  0  0  0
   48.5450    7.7650   42.4580 H   0  0  0  0  0  0  0  0  0  0  0  0
   47.5100    7.2160   41.1280 H   0  0  0  0  0  0  0  0  0  0  0  0
   46.9170    9.0880   43.2760 H   0  0  0  0  0  0  0  0  0  0  0  0
   45.8750    8.5310   41.9550 H   0  0  0  0  0  0  0  0  0  0  0  0
   47.7730    3.6040   44.0140 H   0  0  0  0  0  0  0  0  0  0  0  0
   46.6660    2.9170   42.8210 H   0  0  0  0  0  0  0  0  0  0  0  0
   48.4890    1.6220   42.1920 H   0  0  0  0  0  0  0  0  0  0  0  0
   49.1870    3.0820   41.4650 H   0  0  0  0  0  0  0  0  0  0  0  0
   49.5990    1.8620   44.1880 H   0  0  0  0  0  0  0  0  0  0  0  0
   50.0090    3.5880   43.9310 H   0  0  0  0  0  0  0  0  0  0  0  0
   42.0680    9.9980   41.8280 H   0  0  0  0  0  0  0  0  0  0  0  0
   39.9470   11.1210   42.5990 H   0  0  0  0  0  0  0  0  0  0  0  0
  2  1  1  0  0  0  0
  2  3  1  0  0  0  0
  3 33  1  0  0  0  0
  4  3  2  0  0  0  0
  4  9  1  0  0  0  0
  5  4  1  0  0  0  0
  6  5  1  0  0  0  0
  6  7  2  0  0  0  0
  7  8  1  0  0  0  0
  8  9  2  0  0  0  0
  9 10  1  0  0  0  0
 10 15  2  0  0  0  0
 10 11  1  0  0  0  0
 11 12  2  0  0  0  0
 12 13  1  0  0  0  0
 12 34  1  0  0  0  0
 13 35  1  0  0  0  0
 14 36  1  0  0  0  0
 14 13  2  0  0  0  0
 15 14  1  0  0  0  0
 16 11  1  0  0  0  0
 17  7  1  0  0  0  0
 17 18  1  0  0  0  0
 18 40  1  0  0  0  0
 18 39  1  0  0  0  0
 19 42  1  0  0  0  0
 19 41  1  0  0  0  0
 19 18  1  0  0  0  0
 20 19  1  0  0  0  0
 21 43  1  0  0  0  0
 21 22  1  0  0  0  0
 21 20  1  0  0  0  0
 22 45  1  0  0  0  0
 22 17  1  0  0  0  0
 23 20  1  0  0  0  0
 23 25  1  0  0  0  0
 24 23  2  0  0  0  0
 25 47  1  0  0  0  0
 26 25  1  0  0  0  0
 26 27  1  0  0  0  0
 27 52  1  0  0  0  0
 27 51  1  0  0  0  0
 28 30  1  0  0  0  0
 28 27  1  0  0  0  0
 29 28  2  0  0  0  0
 31 32  1  0  0  0  0
 31  5  2  0  0  0  0
 32  2  2  0  0  0  0
 37 15  1  0  0  0  0
 38 17  1  0  0  0  0
 44 21  1  0  0  0  0
 46 22  1  0  0  0  0
 48 25  1  0  0  0  0
 49 26  1  0  0  0  0
 50 26  1  0  0  0  0
 53 31  1  0  0  0  0
 54 32  1  0  0  0  0
M  END
>  <Pose>
1

>  <Score>
-5.56

$$$$
