
 OpenBabel03172210433D

 55 58  0  0  0  0  0  0  0  0999 V2000
   43.1750    7.9940   43.0390 B   0  0  0  0  0  0  0  0  0  0  0  0
   42.3990    9.5570   43.7510 C   0  0  0  0  0  0  0  0  0  0  0  0
   42.5520    9.8930   45.0860 C   0  0  0  0  0  0  0  0  0  0  0  0
   41.9860   11.0090   45.6300 C   0  0  0  0  0  0  0  0  0  0  0  0
   42.0760   11.5240   46.8930 N   0  0  0  0  0  0  0  0  0  0  0  0
   41.3990   12.6850   46.8980 C   0  0  0  0  0  0  0  0  0  0  0  0
   40.8370   12.9020   45.6110 C   0  0  0  0  0  0  0  0  0  0  0  0
   41.2440   11.8310   44.8570 C   0  0  0  0  0  0  0  0  0  0  0  0
   41.0760   11.5150   43.5060 C   0  0  0  0  0  0  0  0  0  0  0  0
   41.6470   10.3850   42.9390 C   0  0  0  0  0  0  0  0  0  0  0  0
   41.5050   10.0450   41.5820 O   0  0  0  0  0  0  0  0  0  0  0  0
   39.8710   13.9310   45.2070 C   0  0  0  0  0  0  0  0  0  0  0  0
   40.3350   15.0190   44.7720 O   0  0  0  0  0  0  0  0  0  0  0  0
   38.5220   13.8090   45.2490 O   0  0  0  0  0  0  0  0  0  0  0  0
   37.6820   12.7430   44.9860 C   0  0  0  0  0  0  0  0  0  0  0  0
   38.1730   11.4020   45.5180 C   0  0  0  0  0  0  0  0  0  0  0  0
   41.2610   13.6790   47.9630 C   0  0  0  0  0  0  0  0  0  0  0  0
   41.6070   15.0390   47.6900 N   0  0  0  0  0  4  0  0  0  0  0  0
   42.6860   15.7690   48.0630 C   0  0  0  0  0  0  0  0  0  0  0  0
   42.2210   17.2320   48.2600 C   0  0  0  0  0  0  0  0  0  0  0  0
   41.0130   17.2530   47.3260 C   0  0  0  0  0  0  0  0  0  0  0  0
   40.4140   15.9030   47.6970 C   0  0  0  0  0  0  0  0  0  0  0  0
   42.5560   10.7000   48.0200 C   0  0  0  0  0  0  0  0  0  0  0  0
   44.0330   11.1070   48.2180 C   0  0  0  0  0  0  0  0  0  0  0  0
   44.8380   10.1460   48.7580 C   0  0  0  0  0  0  0  0  0  0  0  0
   46.1970   10.4390   48.9570 C   0  0  0  0  0  0  0  0  0  0  0  0
   46.7480   11.6410   48.6270 C   0  0  0  0  0  0  0  0  0  0  0  0
   45.8860   12.5900   48.0750 C   0  0  0  0  0  0  0  0  0  0  0  0
   44.5280   12.3120   47.8760 C   0  0  0  0  0  0  0  0  0  0  0  0
   43.1520    9.2590   45.7360 H   0  0  0  0  0  0  0  0  0  0  0  0
   40.4940   12.1820   42.8630 H   0  0  0  0  0  0  0  0  0  0  0  0
   40.8720    9.2740   41.3240 H   0  0  0  0  0  0  0  0  0  0  0  0
   36.7080   12.9430   45.5250 H   0  0  0  0  0  0  0  0  0  0  0  0
   37.4590   12.6280   43.9210 H   0  0  0  0  0  0  0  0  0  0  0  0
   37.3280   10.6800   45.5640 H   0  0  0  0  0  0  0  0  0  0  0  0
   38.9440   10.9460   44.8680 H   0  0  0  0  0  0  0  0  0  0  0  0
   38.6140   11.4970   46.5440 H   0  0  0  0  0  0  0  0  0  0  0  0
   40.2290   13.6820   48.3390 H   0  0  0  0  0  0  0  0  0  0  0  0
   41.9650   13.3700   48.8260 H   0  0  0  0  0  0  0  0  0  0  0  0
   41.6900   14.9580   46.5160 H   0  0  0  0  0  0  0  0  0  0  0  0
   43.4680   15.9100   47.1990 H   0  0  0  0  0  0  0  0  0  0  0  0
   43.2920   15.5220   48.9280 H   0  0  0  0  0  0  0  0  0  0  0  0
   43.0060   17.9300   47.9900 H   0  0  0  0  0  0  0  0  0  0  0  0
   41.8390   17.3060   49.2640 H   0  0  0  0  0  0  0  0  0  0  0  0
   41.4170   17.2600   46.3020 H   0  0  0  0  0  0  0  0  0  0  0  0
   40.3690   18.0970   47.5220 H   0  0  0  0  0  0  0  0  0  0  0  0
   40.0340   15.9650   48.7230 H   0  0  0  0  0  0  0  0  0  0  0  0
   39.6460   15.5670   46.9860 H   0  0  0  0  0  0  0  0  0  0  0  0
   42.5360    9.6510   47.9150 H   0  0  0  0  0  0  0  0  0  0  0  0
   42.0660   11.0620   48.9320 H   0  0  0  0  0  0  0  0  0  0  0  0
   44.4690    9.1680   49.0340 H   0  0  0  0  0  0  0  0  0  0  0  0
   46.8620    9.6960   49.3910 H   0  0  0  0  0  0  0  0  0  0  0  0
   47.8030   11.8560   48.7840 H   0  0  0  0  0  0  0  0  0  0  0  0
   46.2990   13.5340   47.7930 H   0  0  0  0  0  0  0  0  0  0  0  0
   43.9130   13.0680   47.4580 H   0  0  0  0  0  0  0  0  0  0  0  0
  1  2  1  0  0  0  0
  2  3  1  0  0  0  0
  3  4  2  0  0  0  0
  3 30  1  0  0  0  0
  4  5  1  0  0  0  0
  5  6  1  0  0  0  0
  5 23  1  0  0  0  0
  6 17  1  0  0  0  0
  7  6  2  0  0  0  0
  8  7  1  0  0  0  0
  8  4  1  0  0  0  0
  9  8  2  0  0  0  0
 10  9  1  0  0  0  0
 10  2  2  0  0  0  0
 11 10  1  0  0  0  0
 12 14  1  0  0  0  0
 12  7  1  0  0  0  0
 13 12  2  0  0  0  0
 15 14  1  0  0  0  0
 15 16  1  0  0  0  0
 15 33  1  0  0  0  0
 16 35  1  0  0  0  0
 16 37  1  0  0  0  0
 17 38  1  0  0  0  0
 17 39  1  0  0  0  0
 18 22  1  0  0  0  0
 18 17  1  0  0  0  0
 18 19  1  0  0  0  0
 19 20  1  0  0  0  0
 19 42  1  0  0  0  0
 20 44  1  0  0  0  0
 21 46  1  0  0  0  0
 21 22  1  0  0  0  0
 21 20  1  0  0  0  0
 22 47  1  0  0  0  0
 23 24  1  0  0  0  0
 23 50  1  0  0  0  0
 24 25  1  0  0  0  0
 25 26  2  0  0  0  0
 25 51  1  0  0  0  0
 26 52  1  0  0  0  0
 27 53  1  0  0  0  0
 27 26  1  0  0  0  0
 28 27  2  0  0  0  0
 29 28  1  0  0  0  0
 29 24  2  0  0  0  0
 31  9  1  0  0  0  0
 32 11  1  0  0  0  0
 34 15  1  0  0  0  0
 36 16  1  0  0  0  0
 40 18  1  0  0  0  0
 41 19  1  0  0  0  0
 43 20  1  0  0  0  0
 45 21  1  0  0  0  0
 48 22  1  0  0  0  0
 49 23  1  0  0  0  0
 54 28  1  0  0  0  0
 55 29  1  0  0  0  0
M  END
>  <Pose>
1

>  <Score>
-4.27

$$$$
