
 OpenBabel03172210433D

 51 54  0  0  0  0  0  0  0  0999 V2000
   38.8510   10.6820   45.5310 B   0  0  0  0  0  0  0  0  0  0  0  0
   40.6480   11.3050   45.2800 C   0  0  0  0  0  0  0  0  0  0  0  0
   41.0300   12.4870   45.8720 C   0  0  0  0  0  0  0  0  0  0  0  0
   42.3050   12.9700   45.7070 C   0  0  0  0  0  0  0  0  0  0  0  0
   42.9920   14.0490   46.1260 N   0  0  0  0  0  0  0  0  0  0  0  0
   44.2510   14.0170   45.6510 C   0  0  0  0  0  0  0  0  0  0  0  0
   44.3260   12.8880   44.9250 N   0  0  0  0  0  0  0  0  0  0  0  0
   43.1520   12.2230   44.9390 C   0  0  0  0  0  0  0  0  0  0  0  0
   42.7680   11.0180   44.3340 C   0  0  0  0  0  0  0  0  0  0  0  0
   41.4910   10.5320   44.4980 C   0  0  0  0  0  0  0  0  0  0  0  0
   41.0010    9.3270   43.9460 N   0  0  0  0  0  0  0  0  0  0  0  0
   41.6550    8.4690   43.0530 C   0  0  0  0  0  0  0  0  0  0  0  0
   41.9300    8.8580   41.8890 O   0  0  0  0  0  0  0  0  0  0  0  0
   42.0600    7.0980   43.3820 C   0  0  0  0  0  0  0  0  0  0  0  0
   43.4340    6.8300   43.5400 N   0  0  0  0  0  0  0  0  0  0  0  0
   44.3000    7.0930   42.4490 C   0  0  0  0  0  0  0  0  0  0  0  0
   45.6280    6.3450   42.5730 C   0  0  0  0  0  0  0  0  0  0  0  0
   46.1860    6.6570   43.8190 N   0  0  0  0  0  0  0  0  0  0  0  0
   45.4260    7.4160   44.7340 C   0  0  0  0  0  0  0  0  0  0  0  0
   43.9680    7.0810   44.8360 C   0  0  0  0  0  0  0  0  0  0  0  0
   47.2160    5.8350   44.2700 C   0  0  0  0  0  0  0  0  0  0  0  0
   47.1860    4.4150   43.9180 C   0  0  0  0  0  0  0  0  0  0  0  0
   46.0640    3.9930   43.4370 O   0  0  0  0  0  0  0  0  0  0  0  0
   48.2080    3.4800   44.0350 N   0  0  0  0  0  0  0  0  0  0  0  0
   49.5710    3.8260   44.4280 C   0  0  0  0  0  0  0  0  0  0  0  0
   50.3480    2.9480   45.3160 C   0  0  0  0  0  0  0  0  0  0  0  0
   50.7000    3.0060   43.8410 C   0  0  0  0  0  0  0  0  0  0  0  0
   45.2620   14.9720   45.8770 O   0  0  0  0  0  0  0  0  0  0  0  0
   40.3490   13.0680   46.4780 H   0  0  0  0  0  0  0  0  0  0  0  0
   45.1850   12.5540   44.4080 H   0  0  0  0  0  0  0  0  0  0  0  0
   43.4820   10.4900   43.7470 H   0  0  0  0  0  0  0  0  0  0  0  0
   40.0290    9.0060   44.2410 H   0  0  0  0  0  0  0  0  0  0  0  0
   41.5520    6.8650   44.3690 H   0  0  0  0  0  0  0  0  0  0  0  0
   41.6430    6.3460   42.6670 H   0  0  0  0  0  0  0  0  0  0  0  0
   44.6090    8.1850   42.5570 H   0  0  0  0  0  0  0  0  0  0  0  0
   43.8340    7.0160   41.4780 H   0  0  0  0  0  0  0  0  0  0  0  0
   46.2810    6.7800   41.7690 H   0  0  0  0  0  0  0  0  0  0  0  0
   45.4510    5.2880   42.4400 H   0  0  0  0  0  0  0  0  0  0  0  0
   45.9160    7.4670   45.7350 H   0  0  0  0  0  0  0  0  0  0  0  0
   45.4600    8.4910   44.3710 H   0  0  0  0  0  0  0  0  0  0  0  0
   43.7690    6.2640   45.5650 H   0  0  0  0  0  0  0  0  0  0  0  0
   43.4510    7.9850   45.2480 H   0  0  0  0  0  0  0  0  0  0  0  0
   48.1980    6.2960   43.8950 H   0  0  0  0  0  0  0  0  0  0  0  0
   47.3650    5.9620   45.4030 H   0  0  0  0  0  0  0  0  0  0  0  0
   48.0240    2.4730   43.8500 H   0  0  0  0  0  0  0  0  0  0  0  0
   49.8000    4.9090   44.4720 H   0  0  0  0  0  0  0  0  0  0  0  0
   51.1280    3.3850   45.9890 H   0  0  0  0  0  0  0  0  0  0  0  0
   49.9980    1.9790   45.6680 H   0  0  0  0  0  0  0  0  0  0  0  0
   50.4710    2.1150   43.2180 H   0  0  0  0  0  0  0  0  0  0  0  0
   51.6410    3.5230   43.5340 H   0  0  0  0  0  0  0  0  0  0  0  0
   45.1610   15.8480   45.3460 H   0  0  0  0  0  0  0  0  0  0  0  0
  2  1  1  0  0  0  0
  2  3  1  0  0  0  0
  3 29  1  0  0  0  0
  4  3  2  0  0  0  0
  4  5  1  0  0  0  0
  6 28  1  0  0  0  0
  6  5  2  0  0  0  0
  7  8  1  0  0  0  0
  7  6  1  0  0  0  0
  8  4  1  0  0  0  0
  9 10  1  0  0  0  0
  9  8  2  0  0  0  0
 10  2  2  0  0  0  0
 11 32  1  0  0  0  0
 11 10  1  0  0  0  0
 12 14  1  0  0  0  0
 12 11  1  0  0  0  0
 13 12  2  0  0  0  0
 14 15  1  0  0  0  0
 14 33  1  0  0  0  0
 15 20  1  0  0  0  0
 16 35  1  0  0  0  0
 16 17  1  0  0  0  0
 16 15  1  0  0  0  0
 17 18  1  0  0  0  0
 18 21  1  0  0  0  0
 18 19  1  0  0  0  0
 19 20  1  0  0  0  0
 19 39  1  0  0  0  0
 20 42  1  0  0  0  0
 20 41  1  0  0  0  0
 21 44  1  0  0  0  0
 22 24  1  0  0  0  0
 22 21  1  0  0  0  0
 23 22  2  0  0  0  0
 24 25  1  0  0  0  0
 25 46  1  0  0  0  0
 25 26  1  0  0  0  0
 26 48  1  0  0  0  0
 26 47  1  0  0  0  0
 27 25  1  0  0  0  0
 27 26  1  0  0  0  0
 30  7  1  0  0  0  0
 31  9  1  0  0  0  0
 34 14  1  0  0  0  0
 36 16  1  0  0  0  0
 37 17  1  0  0  0  0
 38 17  1  0  0  0  0
 40 19  1  0  0  0  0
 43 21  1  0  0  0  0
 45 24  1  0  0  0  0
 49 27  1  0  0  0  0
 50 27  1  0  0  0  0
 51 28  1  0  0  0  0
M  END
>  <Pose>
1

>  <Score>
-7.00

$$$$
