
 OpenBabel03172210433D

 47 50  0  0  0  0  0  0  0  0999 V2000
   49.1050    2.6120   42.6300 B   0  0  0  0  0  0  0  0  0  0  0  0
   47.6040    3.7720   42.8470 C   0  0  0  0  0  0  0  0  0  0  0  0
   47.2720    4.8690   42.0870 C   0  0  0  0  0  0  0  0  0  0  0  0
   46.1510    5.3870   42.5770 N   0  0  0  0  0  0  0  0  0  0  0  0
   45.7850    4.6400   43.6150 N   0  0  0  0  0  0  0  0  0  0  0  0
   46.6450    3.6320   43.8240 C   0  0  0  0  0  0  0  0  0  0  0  0
   45.4220    6.5730   42.0860 C   0  0  0  0  0  0  0  0  0  0  0  0
   46.0120    7.7520   42.7740 C   0  0  0  0  0  0  0  0  0  0  0  0
   47.2730    7.9050   42.6930 O   0  0  0  0  0  0  0  0  0  0  0  0
   45.2190    8.6400   43.4680 N   0  0  0  0  0  0  0  0  0  0  0  0
   43.8840    9.1200   43.1590 C   0  0  0  0  0  0  0  0  0  0  0  0
   43.0230    9.2690   44.3510 C   0  0  0  0  0  0  0  0  0  0  0  0
   42.3200    8.2210   44.8890 C   0  0  0  0  0  0  0  0  0  0  0  0
   41.5540    8.3800   46.0290 C   0  0  0  0  0  0  0  0  0  0  0  0
   41.4730    9.6000   46.6630 C   0  0  0  0  0  0  0  0  0  0  0  0
   42.1900   10.6850   46.1220 C   0  0  0  0  0  0  0  0  0  0  0  0
   42.9480   10.5260   44.9920 C   0  0  0  0  0  0  0  0  0  0  0  0
   43.6810   11.6650   44.4340 C   0  0  0  0  0  0  0  0  0  0  0  0
   43.9730   12.7990   45.3340 C   0  0  0  0  0  0  0  0  0  0  0  0
   42.9350   13.0470   46.3260 N   0  0  0  0  0  0  0  0  0  0  0  0
   42.1620   11.9640   46.8240 C   0  0  0  0  0  0  0  0  0  0  0  0
   41.4650   12.1330   47.8690 O   0  0  0  0  0  0  0  0  0  0  0  0
   42.7680   14.4130   46.7670 C   0  0  0  0  0  0  0  0  0  0  0  0
   40.7160    9.7970   47.8030 O   0  0  0  0  0  0  0  0  0  0  0  0
   40.8300    8.9350   48.9160 C   0  0  0  0  0  0  0  0  0  0  0  0
   40.9860    7.1500   46.2950 O   0  0  0  0  0  0  0  0  0  0  0  0
   41.2320    6.2540   45.2400 C   0  0  0  0  0  0  0  0  0  0  0  0
   42.2320    6.8820   44.4430 O   0  0  0  0  0  0  0  0  0  0  0  0
   47.8630    5.2180   41.2370 H   0  0  0  0  0  0  0  0  0  0  0  0
   46.6410    2.8550   44.5710 H   0  0  0  0  0  0  0  0  0  0  0  0
   44.3500    6.4420   42.3760 H   0  0  0  0  0  0  0  0  0  0  0  0
   45.4820    6.6740   41.0040 H   0  0  0  0  0  0  0  0  0  0  0  0
   45.6130    9.0630   44.3670 H   0  0  0  0  0  0  0  0  0  0  0  0
   43.4600    8.2360   42.5720 H   0  0  0  0  0  0  0  0  0  0  0  0
   43.8620    9.9780   42.4840 H   0  0  0  0  0  0  0  0  0  0  0  0
   43.2650   12.0300   43.4700 H   0  0  0  0  0  0  0  0  0  0  0  0
   44.6980   11.2540   44.1300 H   0  0  0  0  0  0  0  0  0  0  0  0
   44.9200   12.6020   45.9170 H   0  0  0  0  0  0  0  0  0  0  0  0
   44.1680   13.7150   44.7110 H   0  0  0  0  0  0  0  0  0  0  0  0
   43.7680   14.9090   46.7860 H   0  0  0  0  0  0  0  0  0  0  0  0
   42.1450   14.9320   46.0150 H   0  0  0  0  0  0  0  0  0  0  0  0
   42.2520   14.4960   47.7420 H   0  0  0  0  0  0  0  0  0  0  0  0
   41.0690    7.9130   48.5080 H   0  0  0  0  0  0  0  0  0  0  0  0
   39.8830    8.8560   49.4870 H   0  0  0  0  0  0  0  0  0  0  0  0
   41.6440    9.2600   49.6180 H   0  0  0  0  0  0  0  0  0  0  0  0
   40.3450    6.0950   44.5860 H   0  0  0  0  0  0  0  0  0  0  0  0
   41.6840    5.3060   45.6080 H   0  0  0  0  0  0  0  0  0  0  0  0
  1  2  1  0  0  0  0
  2  6  1  0  0  0  0
  3  4  1  0  0  0  0
  3  2  2  0  0  0  0
  4  5  1  0  0  0  0
  5  6  2  0  0  0  0
  6 30  1  0  0  0  0
  7 31  1  0  0  0  0
  7  4  1  0  0  0  0
  7  8  1  0  0  0  0
  8 10  1  0  0  0  0
  9  8  2  0  0  0  0
 10 33  1  0  0  0  0
 11 10  1  0  0  0  0
 11 12  1  0  0  0  0
 12 13  2  0  0  0  0
 12 17  1  0  0  0  0
 13 14  1  0  0  0  0
 14 26  1  0  0  0  0
 14 15  2  0  0  0  0
 15 24  1  0  0  0  0
 16 15  1  0  0  0  0
 16 21  1  0  0  0  0
 17 16  2  0  0  0  0
 18 17  1  0  0  0  0
 18 19  1  0  0  0  0
 19 38  1  0  0  0  0
 19 20  1  0  0  0  0
 20 23  1  0  0  0  0
 20 21  1  0  0  0  0
 21 22  2  0  0  0  0
 23 40  1  0  0  0  0
 23 42  1  0  0  0  0
 24 25  1  0  0  0  0
 25 44  1  0  0  0  0
 25 45  1  0  0  0  0
 27 47  1  0  0  0  0
 27 26  1  0  0  0  0
 28 13  1  0  0  0  0
 28 27  1  0  0  0  0
 29  3  1  0  0  0  0
 32  7  1  0  0  0  0
 34 11  1  0  0  0  0
 35 11  1  0  0  0  0
 36 18  1  0  0  0  0
 37 18  1  0  0  0  0
 39 19  1  0  0  0  0
 41 23  1  0  0  0  0
 43 25  1  0  0  0  0
 46 27  1  0  0  0  0
M  END
>  <Pose>
1

>  <Score>
-6.52

$$$$
