
 OpenBabel03172210433D

 33 37  0  0  0  0  0  0  0  0999 V2000
   38.6380   13.1150   45.5330 B   0  0  0  0  0  0  0  0  0  0  0  0
   40.0530   12.4040   44.4980 C   0  0  0  0  0  0  0  0  0  0  0  0
   41.3200   12.0860   44.9430 C   0  0  0  0  0  0  0  0  0  0  0  0
   42.0230   11.6100   43.9020 N   0  0  0  0  0  0  0  0  0  0  0  0
   41.2460   11.6200   42.8340 N   0  0  0  0  0  0  0  0  0  0  0  0
   40.0230   12.1000   43.1560 C   0  0  0  0  0  0  0  0  0  0  0  0
   43.3990   11.1590   43.9330 C   0  0  0  0  0  0  0  0  0  0  0  0
   43.5050    9.7360   43.6000 N   0  0  0  0  0  0  0  0  0  0  0  0
   44.6330    9.0550   43.5070 N   0  0  0  0  0  0  0  0  0  0  0  0
   44.3990    7.7710   43.1850 C   0  0  0  0  0  0  0  0  0  0  0  0
   43.0280    7.6650   43.0750 C   0  0  0  0  0  0  0  0  0  0  0  0
   42.4740    8.9140   43.3390 C   0  0  0  0  0  0  0  0  0  0  0  0
   45.3700    6.6970   42.9890 C   0  0  0  0  0  0  0  0  0  0  0  0
   45.6370    6.0670   41.8340 N   0  0  0  0  0  0  0  0  0  0  0  0
   46.5770    5.1410   42.0220 N   0  0  0  0  0  0  0  0  0  0  0  0
   46.9260    5.1750   43.3400 C   0  0  0  0  0  0  0  0  0  0  0  0
   46.1730    6.1360   43.9090 N   0  0  0  0  0  0  0  0  0  0  0  0
   47.8930    4.2990   43.7840 C   0  0  0  0  0  0  0  0  0  0  0  0
   48.5180    3.3910   42.9480 C   0  0  0  0  0  0  0  0  0  0  0  0
   49.4080    2.6770   43.6590 N   0  0  0  0  0  0  0  0  0  0  0  0
   49.3510    3.1150   44.9070 N   0  0  0  0  0  0  0  0  0  0  0  0
   48.4400    4.1030   45.0240 C   0  0  0  0  0  0  0  0  0  0  0  0
   48.1420    3.3940   41.6590 N   0  0  0  0  0  0  0  0  0  0  0  0
   47.1990    4.2480   41.2300 C   0  0  0  0  0  0  0  0  0  0  0  0
   41.6490   12.2120   45.9520 H   0  0  0  0  0  0  0  0  0  0  0  0
   39.1780   12.2320   42.5100 H   0  0  0  0  0  0  0  0  0  0  0  0
   43.8680   11.3140   44.9310 H   0  0  0  0  0  0  0  0  0  0  0  0
   44.0320   11.7580   43.2170 H   0  0  0  0  0  0  0  0  0  0  0  0
   42.5030    6.7590   42.8260 H   0  0  0  0  0  0  0  0  0  0  0  0
   41.4300    9.1940   43.3420 H   0  0  0  0  0  0  0  0  0  0  0  0
   50.0350    1.9170   43.3200 H   0  0  0  0  0  0  0  0  0  0  0  0
   48.1610    4.6660   45.9190 H   0  0  0  0  0  0  0  0  0  0  0  0
   46.9250    4.2190   40.1860 H   0  0  0  0  0  0  0  0  0  0  0  0
  2  3  2  0  0  0  0
  2  1  1  0  0  0  0
  3 25  1  0  0  0  0
  4  7  1  0  0  0  0
  4  3  1  0  0  0  0
  5  6  2  0  0  0  0
  5  4  1  0  0  0  0
  6  2  1  0  0  0  0
  7 27  1  0  0  0  0
  8  7  1  0  0  0  0
  9  8  1  0  0  0  0
 10  9  2  0  0  0  0
 11 10  1  0  0  0  0
 11 12  2  0  0  0  0
 12 30  1  0  0  0  0
 12  8  1  0  0  0  0
 13 10  1  0  0  0  0
 13 17  1  0  0  0  0
 14 15  1  0  0  0  0
 14 13  2  0  0  0  0
 15 16  1  0  0  0  0
 16 18  1  0  0  0  0
 16 17  2  0  0  0  0
 18 22  1  0  0  0  0
 19 20  1  0  0  0  0
 19 18  2  0  0  0  0
 20 21  1  0  0  0  0
 21 22  2  0  0  0  0
 22 32  1  0  0  0  0
 23 19  1  0  0  0  0
 24 23  2  0  0  0  0
 24 15  1  0  0  0  0
 26  6  1  0  0  0  0
 28  7  1  0  0  0  0
 29 11  1  0  0  0  0
 31 20  1  0  0  0  0
 33 24  1  0  0  0  0
M  END
>  <Pose>
1

>  <Score>
-7.39

$$$$
