
 OpenBabel03172210433D

 41 44  0  0  0  0  0  0  0  0999 V2000
   40.5540   10.2050   49.1120 B   0  0  0  0  0  0  0  0  0  0  0  0
   41.0850    8.9800   47.7440 C   0  0  0  0  0  0  0  0  0  0  0  0
   41.5180    7.7130   48.0310 C   0  0  0  0  0  0  0  0  0  0  0  0
   41.8770    6.8700   47.0560 N   0  0  0  0  0  0  0  0  0  0  0  0
   41.8460    7.1880   45.7340 C   0  0  0  0  0  0  0  0  0  0  0  0
   41.4050    8.4870   45.4510 C   0  0  0  0  0  0  0  0  0  0  0  0
   41.0290    9.3700   46.4260 C   0  0  0  0  0  0  0  0  0  0  0  0
   42.2210    6.2540   44.7410 N   0  0  0  0  0  0  0  0  0  0  0  0
   43.5120    6.3660   44.1740 C   0  0  0  0  0  0  0  0  0  0  0  0
   44.0380    7.3650   43.5290 C   0  0  0  0  0  0  0  0  0  0  0  0
   45.3950    6.9570   43.1600 C   0  0  0  0  0  0  0  0  0  0  0  0
   46.2060    7.6930   42.5170 O   0  0  0  0  0  0  0  0  0  0  0  0
   45.6770    5.6270   43.6220 N   0  0  0  0  0  0  0  0  0  0  0  0
   44.4690    5.2380   44.2750 C   0  0  0  0  0  0  0  0  0  0  0  0
   44.2570    4.1310   44.8370 O   0  0  0  0  0  0  0  0  0  0  0  0
   46.8810    4.8940   43.4670 C   0  0  0  0  0  0  0  0  0  0  0  0
   47.9340    4.9770   44.3400 C   0  0  0  0  0  0  0  0  0  0  0  0
   49.1100    4.2190   44.1630 C   0  0  0  0  0  0  0  0  0  0  0  0
   49.2330    3.3620   43.0930 C   0  0  0  0  0  0  0  0  0  0  0  0
   48.1820    3.2750   42.2160 C   0  0  0  0  0  0  0  0  0  0  0  0
   47.0250    4.0330   42.4070 C   0  0  0  0  0  0  0  0  0  0  0  0
   43.4510    8.6270   43.2070 N   0  0  0  0  0  0  0  0  0  0  0  0
   44.0730    9.7670   43.5610 C   0  0  0  0  0  0  0  0  0  0  0  0
   43.5180   11.0240   43.2670 C   0  0  0  0  0  0  0  0  0  0  0  0
   42.3090   11.1050   42.6020 C   0  0  0  0  0  0  0  0  0  0  0  0
   41.6910    9.9240   42.2500 C   0  0  0  0  0  0  0  0  0  0  0  0
   42.2660    8.7180   42.5550 C   0  0  0  0  0  0  0  0  0  0  0  0
   41.5670    7.4060   49.0620 H   0  0  0  0  0  0  0  0  0  0  0  0
   41.3750    8.7630   44.4000 H   0  0  0  0  0  0  0  0  0  0  0  0
   40.6840   10.3830   46.2080 H   0  0  0  0  0  0  0  0  0  0  0  0
   41.5800    5.5200   44.4410 H   0  0  0  0  0  0  0  0  0  0  0  0
   47.8640    5.6430   45.1860 H   0  0  0  0  0  0  0  0  0  0  0  0
   49.9190    4.3210   44.8830 H   0  0  0  0  0  0  0  0  0  0  0  0
   50.1460    2.7810   42.9670 H   0  0  0  0  0  0  0  0  0  0  0  0
   48.2710    2.6050   41.3700 H   0  0  0  0  0  0  0  0  0  0  0  0
   46.2390    3.9080   41.6800 H   0  0  0  0  0  0  0  0  0  0  0  0
   45.0210    9.6800   44.0800 H   0  0  0  0  0  0  0  0  0  0  0  0
   44.0620   11.9220   43.5710 H   0  0  0  0  0  0  0  0  0  0  0  0
   41.8640   12.0770   42.3680 H   0  0  0  0  0  0  0  0  0  0  0  0
   40.7480    9.9750   41.7350 H   0  0  0  0  0  0  0  0  0  0  0  0
   41.7800    7.7690   42.2770 H   0  0  0  0  0  0  0  0  0  0  0  0
  2  3  1  0  0  0  0
  2  1  1  0  0  0  0
  3 28  1  0  0  0  0
  4  3  2  0  0  0  0
  5  4  1  0  0  0  0
  6  5  2  0  0  0  0
  6  7  1  0  0  0  0
  7  2  2  0  0  0  0
  8  5  1  0  0  0  0
  9 14  1  0  0  0  0
  9  8  1  0  0  0  0
 10  9  2  0  0  0  0
 11 10  1  0  0  0  0
 11 13  1  0  0  0  0
 12 11  2  0  0  0  0
 13 14  1  0  0  0  0
 14 15  2  0  0  0  0
 16 13  1  0  0  0  0
 16 17  1  0  0  0  0
 17 32  1  0  0  0  0
 18 17  2  0  0  0  0
 18 33  1  0  0  0  0
 19 18  1  0  0  0  0
 20 21  1  0  0  0  0
 20 19  2  0  0  0  0
 21 16  2  0  0  0  0
 22 10  1  0  0  0  0
 22 23  1  0  0  0  0
 23 37  1  0  0  0  0
 24 23  1  0  0  0  0
 24 38  1  0  0  0  0
 25 24  2  0  0  0  0
 26 27  2  0  0  0  0
 26 25  1  0  0  0  0
 27 22  1  0  0  0  0
 29  6  1  0  0  0  0
 30  7  1  0  0  0  0
 31  8  1  0  0  0  0
 34 19  1  0  0  0  0
 35 20  1  0  0  0  0
 36 21  1  0  0  0  0
 39 25  1  0  0  0  0
 40 26  1  0  0  0  0
 41 27  1  0  0  0  0
M  END
>  <Pose>
1

>  <Score>
-5.94

$$$$
