
 OpenBabel03172210433D

 43 46  0  0  0  0  0  0  0  0999 V2000
   40.7880    9.9400   42.9940 B   0  0  0  0  0  0  0  0  0  0  0  0
   42.0280    8.5850   43.5170 C   0  0  0  0  0  0  0  0  0  0  0  0
   41.6370    7.5670   44.3280 C   0  0  0  0  0  0  0  0  0  0  0  0
   42.4910    6.6150   44.7010 N   0  0  0  0  0  0  0  0  0  0  0  0
   43.7610    6.6560   44.2710 C   0  0  0  0  0  0  0  0  0  0  0  0
   44.2150    7.6730   43.4400 C   0  0  0  0  0  0  0  0  0  0  0  0
   43.3390    8.6600   43.0500 C   0  0  0  0  0  0  0  0  0  0  0  0
   45.5960    7.6350   43.0200 C   0  0  0  0  0  0  0  0  0  0  0  0
   45.8940    7.5060   41.8210 O   0  0  0  0  0  0  0  0  0  0  0  0
   46.6890    7.7480   44.0080 N   0  0  0  0  0  0  0  0  0  0  0  0
   46.8830    6.6290   44.8220 C   0  0  0  0  0  0  0  0  0  0  0  0
   47.7940    5.5380   44.5540 C   0  0  0  0  0  0  0  0  0  0  0  0
   48.8630    5.4970   45.5190 C   0  0  0  0  0  0  0  0  0  0  0  0
   49.8180    4.5530   45.4240 C   0  0  0  0  0  0  0  0  0  0  0  0
   49.7950    3.5960   44.3930 C   0  0  0  0  0  0  0  0  0  0  0  0
   48.7820    3.6180   43.4650 C   0  0  0  0  0  0  0  0  0  0  0  0
   47.7790    4.5970   43.5560 C   0  0  0  0  0  0  0  0  0  0  0  0
   46.6260    4.5780   42.6190 C   0  0  0  0  0  0  0  0  0  0  0  0
   46.4390    3.2430   41.9060 C   0  0  0  0  0  0  0  0  0  0  0  0
   47.6880    2.7330   41.3900 N   0  0  0  0  0  0  0  0  0  0  0  0
   48.7410    2.6640   42.3610 C   0  0  0  0  0  0  0  0  0  0  0  0
   49.5890    1.7630   42.2000 O   0  0  0  0  0  0  0  0  0  0  0  0
   47.8600    2.3290   40.0110 C   0  0  0  0  0  0  0  0  0  0  0  0
   50.7850    2.6870   44.3660 O   0  0  0  0  0  0  0  0  0  0  0  0
   50.7110    4.7600   46.4870 O   0  0  0  0  0  0  0  0  0  0  0  0
   50.4450    6.0020   47.1020 C   0  0  0  0  0  0  0  0  0  0  0  0
   49.1460    6.2990   46.6290 O   0  0  0  0  0  0  0  0  0  0  0  0
   40.6090    7.4750   44.7160 H   0  0  0  0  0  0  0  0  0  0  0  0
   44.4850    5.8960   44.5540 H   0  0  0  0  0  0  0  0  0  0  0  0
   43.6580    9.4600   42.4040 H   0  0  0  0  0  0  0  0  0  0  0  0
   47.1320    8.6770   43.9700 H   0  0  0  0  0  0  0  0  0  0  0  0
   47.1270    7.0470   45.8900 H   0  0  0  0  0  0  0  0  0  0  0  0
   45.8290    6.1940   45.0870 H   0  0  0  0  0  0  0  0  0  0  0  0
   46.6840    5.3340   41.8290 H   0  0  0  0  0  0  0  0  0  0  0  0
   45.6640    4.6870   43.1760 H   0  0  0  0  0  0  0  0  0  0  0  0
   45.7080    3.4490   41.0850 H   0  0  0  0  0  0  0  0  0  0  0  0
   46.0090    2.5440   42.6570 H   0  0  0  0  0  0  0  0  0  0  0  0
   47.9540    3.2710   39.4160 H   0  0  0  0  0  0  0  0  0  0  0  0
   46.9610    1.7960   39.6550 H   0  0  0  0  0  0  0  0  0  0  0  0
   48.7970    1.7680   39.9020 H   0  0  0  0  0  0  0  0  0  0  0  0
   50.7820    1.7330   44.4920 H   0  0  0  0  0  0  0  0  0  0  0  0
   50.4790    5.9340   48.2090 H   0  0  0  0  0  0  0  0  0  0  0  0
   51.2040    6.7160   46.7430 H   0  0  0  0  0  0  0  0  0  0  0  0
  1  2  1  0  0  0  0
  2  3  1  0  0  0  0
  3  4  2  0  0  0  0
  3 28  1  0  0  0  0
  5 29  1  0  0  0  0
  5  4  1  0  0  0  0
  6  5  2  0  0  0  0
  7  6  1  0  0  0  0
  7  2  2  0  0  0  0
  8  6  1  0  0  0  0
  8 10  1  0  0  0  0
  9  8  2  0  0  0  0
 10 11  1  0  0  0  0
 11 33  1  0  0  0  0
 11 32  1  0  0  0  0
 12 11  1  0  0  0  0
 12 13  1  0  0  0  0
 13 27  1  0  0  0  0
 14 13  2  0  0  0  0
 14 25  1  0  0  0  0
 15 14  1  0  0  0  0
 16 17  1  0  0  0  0
 16 15  2  0  0  0  0
 17 12  2  0  0  0  0
 18 35  1  0  0  0  0
 18 17  1  0  0  0  0
 19 18  1  0  0  0  0
 19 37  1  0  0  0  0
 20 19  1  0  0  0  0
 20 21  1  0  0  0  0
 21 16  1  0  0  0  0
 22 21  2  0  0  0  0
 23 20  1  0  0  0  0
 24 15  1  0  0  0  0
 24 41  1  0  0  0  0
 25 26  1  0  0  0  0
 26 42  1  0  0  0  0
 27 26  1  0  0  0  0
 30  7  1  0  0  0  0
 31 10  1  0  0  0  0
 34 18  1  0  0  0  0
 36 19  1  0  0  0  0
 38 23  1  0  0  0  0
 39 23  1  0  0  0  0
 40 23  1  0  0  0  0
 43 26  1  0  0  0  0
M  END
>  <Pose>
1

>  <Score>
-6.49

$$$$
