
 OpenBabel03172210433D

 40 43  0  0  1  0  0  0  0  0999 V2000
   49.3900    4.4130   45.9340 B   0  0  0  0  0  0  0  0  0  0  0  0
   48.7020    4.0510   44.1960 C   0  0  0  0  0  0  0  0  0  0  0  0
   49.1860    2.9720   43.4950 C   0  0  0  0  0  0  0  0  0  0  0  0
   48.7050    2.6990   42.2550 N   0  0  0  0  0  0  0  0  0  0  0  0
   47.7630    3.4650   41.6950 C   0  0  0  0  0  0  0  0  0  0  0  0
   47.2140    4.5830   42.3370 C   0  0  0  0  0  0  0  0  0  0  0  0
   47.7260    4.8260   43.5910 C   0  0  0  0  0  0  0  0  0  0  0  0
   46.1880    5.3670   41.6910 C   0  0  0  0  0  0  0  0  0  0  0  0
   46.1320    5.2480   40.4120 O   0  0  0  0  0  0  0  0  0  0  0  0
   45.2580    6.2300   42.3010 N   0  0  0  0  0  0  0  0  0  0  0  0
   44.0620    6.9450   41.9810 C   0  0  0  0  0  0  0  0  0  0  0  0
   43.6890    6.8480   43.4710 C   0  0  0  0  0  0  0  0  0  0  0  0
   45.1590    6.8220   43.6510 C   0  0  0  0  0  0  0  0  0  0  0  0
   42.9850    8.0160   43.9220 N   0  0  0  0  0  0  0  0  0  0  0  0
   41.9230    8.7310   43.2620 C   0  0  0  0  0  0  0  0  0  0  0  0
   41.1480    8.2370   42.4250 O   0  0  0  0  0  0  0  0  0  0  0  0
   41.9830   10.1310   43.8050 C   0  0  1  0  0  0  0  0  0  0  0  0
   42.3020    9.8400   45.2530 C   0  0  2  0  0  0  0  0  0  0  0  0
   42.9080   11.0380   45.9300 C   0  0  0  0  0  0  0  0  0  0  0  0
   44.1550   11.4340   45.2210 C   0  0  0  0  0  0  0  0  0  0  0  0
   44.1760   11.3230   43.9090 C   0  0  0  0  0  0  0  0  0  0  0  0
   43.0700   10.8380   43.0700 C   0  0  0  0  0  0  0  0  0  0  0  0
   43.2250    8.6940   45.1500 C   0  0  0  0  0  0  0  0  0  0  0  0
   44.0700    8.4100   46.0350 O   0  0  0  0  0  0  0  0  0  0  0  0
   49.9480    2.3560   43.9550 H   0  0  0  0  0  0  0  0  0  0  0  0
   47.4130    3.2100   40.7090 H   0  0  0  0  0  0  0  0  0  0  0  0
   47.3640    5.6470   44.1580 H   0  0  0  0  0  0  0  0  0  0  0  0
   43.2590    6.4100   41.4310 H   0  0  0  0  0  0  0  0  0  0  0  0
   44.2190    7.9990   41.6370 H   0  0  0  0  0  0  0  0  0  0  0  0
   43.2270    5.8800   43.6950 H   0  0  0  0  0  0  0  0  0  0  0  0
   45.6800    7.7990   43.6210 H   0  0  0  0  0  0  0  0  0  0  0  0
   45.5690    6.1580   44.4320 H   0  0  0  0  0  0  0  0  0  0  0  0
   41.0020   10.6360   43.6990 H   0  0  0  0  0  0  0  0  0  0  0  0
   41.3550    9.5890   45.7720 H   0  0  0  0  0  0  0  0  0  0  0  0
   43.0710   10.8010   46.9890 H   0  0  0  0  0  0  0  0  0  0  0  0
   42.1770   11.8720   45.8260 H   0  0  0  0  0  0  0  0  0  0  0  0
   44.9960   11.7990   45.8160 H   0  0  0  0  0  0  0  0  0  0  0  0
   45.0990   11.6170   43.3950 H   0  0  0  0  0  0  0  0  0  0  0  0
   43.5280   10.2010   42.2600 H   0  0  0  0  0  0  0  0  0  0  0  0
   42.6600   11.7170   42.5270 H   0  0  0  0  0  0  0  0  0  0  0  0
  2  1  1  0  0  0  0
  3 25  1  0  0  0  0
  3  2  2  0  0  0  0
  4  3  1  0  0  0  0
  5  4  2  0  0  0  0
  5  6  1  0  0  0  0
  6  7  2  0  0  0  0
  7 27  1  0  0  0  0
  7  2  1  0  0  0  0
  8 10  1  0  0  0  0
  8  6  1  0  0  0  0
  9  8  2  0  0  0  0
 10 13  1  0  0  0  0
 11 10  1  0  0  0  0
 11 12  1  0  0  0  0
 12 13  1  0  0  0  0
 12 30  1  0  0  0  0
 12 14  1  0  0  0  0
 13 32  1  0  0  0  0
 14 23  1  0  0  0  0
 15 17  1  0  0  0  0
 15 14  1  0  0  0  0
 16 15  2  0  0  0  0
 17 33  1  6  0  0  0
 17 18  1  0  0  0  0
 18 34  1  1  0  0  0
 18 19  1  0  0  0  0
 19 35  1  0  0  0  0
 20 37  1  0  0  0  0
 20 19  1  0  0  0  0
 21 20  2  0  0  0  0
 22 17  1  0  0  0  0
 22 21  1  0  0  0  0
 23 18  1  0  0  0  0
 23 24  2  0  0  0  0
 26  5  1  0  0  0  0
 28 11  1  0  0  0  0
 29 11  1  0  0  0  0
 31 13  1  0  0  0  0
 36 19  1  0  0  0  0
 38 21  1  0  0  0  0
 39 22  1  0  0  0  0
 40 22  1  0  0  0  0
M  END
>  <Pose>
1

>  <Score>
-6.39

$$$$
