
 OpenBabel03172210433D

 48 39  0  0  1  0  0  0  0  0999 V2000
   41.4120   11.3860   45.1830 B   0  0  0  0  0  0  0  0  0  0  0  0
   42.4720   10.0500   44.3700 C   0  0  0  0  0  0  0  0  0  0  0  0
   43.3120   10.3830   43.3210 C   0  0  0  0  0  0  0  0  0  0  0  0
   44.0450    9.3990   42.7770 N   0  0  0  0  0  0  0  0  0  0  0  0
   44.0100    8.1230   43.1890 C   0  0  0  0  0  0  0  0  0  0  0  0
   43.1740    7.8010   44.2290 C   0  0  0  0  0  0  0  0  0  0  0  0
   42.3850    8.7580   44.8450 C   0  0  0  0  0  0  0  0  0  0  0  0
   43.1080    6.4290   44.7050 C   0  0  0  0  0  0  0  0  0  0  0  0
   43.6900    5.5020   44.0730 O   0  0  0  0  0  0  0  0  0  0  0  0
   42.4110    6.0960   45.8520 O   0  0  0  0  0  0  0  0  0  0  0  0
   44.0140   10.4550   44.5510 N   0  0  0  0  0  0  0  0  0  0  0  0
   43.7570   10.0830   43.1700 C   0  0  0  0  0  0  0  0  0  0  0  0
   42.5630    9.1640   43.0410 C   0  0  0  0  0  0  0  0  0  0  0  0
   43.0060    7.7160   43.1550 C   0  0  0  0  0  0  0  0  0  0  0  0
   43.3280    7.3640   44.5890 C   0  0  0  0  0  0  0  0  0  0  0  0
   42.8120    8.4160   45.4800 C   0  0  0  0  0  0  0  0  0  0  0  0
   43.1230    9.7530   45.4460 C   0  0  0  0  0  0  0  0  0  0  0  0
   42.5630   10.5800   46.3320 N   0  0  0  0  0  0  0  0  0  0  0  0
   41.7030   10.1520   47.2610 C   0  0  2  0  0  0  0  0  0  0  0  0
   41.3780    8.8210   47.3130 C   0  0  0  0  0  0  0  0  0  0  0  0
   41.9420    7.9430   46.4100 C   0  0  0  0  0  0  0  0  0  0  0  0
   41.5880    6.5530   46.4830 N   0  0  0  0  0  0  0  0  0  0  0  0
   40.4880    8.3200   48.2600 C   0  0  0  0  0  0  0  0  0  0  0  0
   39.9350    9.2050   49.1520 C   0  0  0  0  0  0  0  0  0  0  0  0
   40.2610   10.5380   49.0980 C   0  0  0  0  0  0  0  0  0  0  0  0
   41.1530   11.0280   48.1460 C   0  0  0  0  0  0  0  0  0  0  0  0
   43.7310   11.8800   44.6850 C   0  0  0  0  0  0  0  0  0  0  0  0
   43.3490   11.4050   42.9830 H   0  0  0  0  0  0  0  0  0  0  0  0
   44.6260    7.3900   42.7040 H   0  0  0  0  0  0  0  0  0  0  0  0
   41.7260    8.5400   45.6550 H   0  0  0  0  0  0  0  0  0  0  0  0
   45.0100   10.2610   44.8020 H   0  0  0  0  0  0  0  0  0  0  0  0
   44.6200    9.5980   42.6890 H   0  0  0  0  0  0  0  0  0  0  0  0
   43.5260   10.9850   42.5450 H   0  0  0  0  0  0  0  0  0  0  0  0
   42.1420    9.2800   42.0190 H   0  0  0  0  0  0  0  0  0  0  0  0
   41.8490    9.4370   43.8360 H   0  0  0  0  0  0  0  0  0  0  0  0
   42.2160    7.0790   42.7530 H   0  0  0  0  0  0  0  0  0  0  0  0
   43.9220    7.6000   42.5550 H   0  0  0  0  0  0  0  0  0  0  0  0
   42.8930    6.3710   44.8230 H   0  0  0  0  0  0  0  0  0  0  0  0
   44.4400    7.2310   44.7290 H   0  0  0  0  0  0  0  0  0  0  0  0
   41.1540    6.1790   47.3420 H   0  0  0  0  0  0  0  0  0  0  0  0
   41.7640    5.9080   45.6790 H   0  0  0  0  0  0  0  0  0  0  0  0
   40.2520    7.2690   48.2750 H   0  0  0  0  0  0  0  0  0  0  0  0
   39.2360    8.8600   49.9070 H   0  0  0  0  0  0  0  0  0  0  0  0
   39.8320   11.2350   49.7940 H   0  0  0  0  0  0  0  0  0  0  0  0
   41.4250   12.0720   48.0850 H   0  0  0  0  0  0  0  0  0  0  0  0
   44.1430   12.3820   43.7940 H   0  0  0  0  0  0  0  0  0  0  0  0
   44.1100   12.2700   45.6410 H   0  0  0  0  0  0  0  0  0  0  0  0
   42.6190   12.0060   44.6450 H   0  0  0  0  0  0  0  0  0  0  0  0
  1 18  1  0  0  0  0
  2 17  1  0  0  0  0
  4 13  1  0  0  0  0
  4 12  1  0  0  0  0
  6 15  1  0  0  0  0
  7 16  1  0  0  0  0
  9  8  2  0  0  0  0
 11 27  1  0  0  0  0
 11 31  1  0  0  0  0
 12  3  1  0  0  0  0
 14  6  1  0  0  0  0
 15  8  1  0  0  0  0
 16 21  1  0  0  0  0
 17 16  2  0  0  0  0
 17 18  1  0  0  0  0
 18 19  1  0  0  0  0
 19 20  1  6  0  0  0
 19 26  1  0  0  0  0
 20 23  1  0  0  0  0
 21 20  2  3  0  0  0
 22 40  1  0  0  0  0
 23 42  1  0  0  0  0
 23 24  2  0  0  0  0
 24 43  1  0  0  0  0
 25 24  1  0  0  0  0
 25 44  1  0  0  0  0
 26 25  2  0  0  0  0
 27 47  1  0  0  0  0
 30 21  1  0  0  0  0
 32  4  1  0  0  0  0
 33  3  1  0  0  0  0
 34 13  1  0  0  0  0
 35  2  1  0  0  0  0
 36 14  1  0  0  0  0
 37  5  1  0  0  0  0
 41 10  1  0  0  0  0
 45 26  1  0  0  0  0
 46 27  1  0  0  0  0
 48 27  1  0  0  0  0
M  END
>  <Pose>
1

>  <Score>
-5.84

$$$$
