
 OpenBabel03172210433D

 44 47  0  0  1  0  0  0  0  0999 V2000
   41.4270   10.7270   42.8570 B   0  0  0  0  0  0  0  0  0  0  0  0
   42.2230    9.6150   44.1960 C   0  0  0  0  0  0  0  0  0  0  0  0
   43.4730    9.0550   44.0240 C   0  0  0  0  0  0  0  0  0  0  0  0
   44.0600    8.2500   44.9860 C   0  0  0  0  0  0  0  0  0  0  0  0
   43.3300    8.0330   46.1340 C   0  0  0  0  0  0  0  0  0  0  0  0
   42.0800    8.5730   46.3410 C   0  0  0  0  0  0  0  0  0  0  0  0
   41.5070    9.3760   45.3690 C   0  0  0  0  0  0  0  0  0  0  0  0
   41.1200    8.2330   47.9580 B   0  0  0  0  0  0  0  0  0  0  0  0
   45.3730    7.7950   44.5560 C   0  0  0  0  0  0  0  0  0  0  0  0
   46.2240    7.0460   45.1510 N   0  0  0  0  0  0  0  0  0  0  0  0
   47.4560    6.7020   44.5880 N   0  0  0  0  0  0  0  0  0  0  0  0
   47.6040    5.4020   44.0570 C   0  0  0  0  0  0  0  0  0  0  0  0
   46.6580    4.8520   43.4560 O   0  0  0  0  0  0  0  0  0  0  0  0
   48.8780    4.6260   44.1820 C   0  0  0  0  0  0  0  0  0  0  0  0
   48.7260    3.2670   43.7390 N   0  0  0  0  0  0  0  0  0  0  0  0
   49.7080    2.5940   42.9630 C   0  0  0  0  0  0  0  0  0  0  0  0
   49.3320    1.9460   41.9620 O   0  0  0  0  0  0  0  0  0  0  0  0
   51.1680    2.6160   43.2810 C   0  0  2  0  0  0  0  0  0  0  0  0
   51.8920    1.7420   42.4680 O   0  0  0  0  0  0  0  0  0  0  0  0
   52.4900    0.5610   42.9020 C   0  0  0  0  0  0  0  0  0  0  0  0
   52.6980    0.4290   44.2500 C   0  0  0  0  0  0  0  0  0  0  0  0
   53.2960   -0.7430   44.7130 C   0  0  0  0  0  0  0  0  0  0  0  0
   53.6810   -1.7600   43.8700 C   0  0  0  0  0  0  0  0  0  0  0  0
   53.4550   -1.5910   42.5170 C   0  0  0  0  0  0  0  0  0  0  0  0
   52.8660   -0.4380   42.0550 C   0  0  0  0  0  0  0  0  0  0  0  0
   52.3200    1.4340   45.0970 O   0  0  0  0  0  0  0  0  0  0  0  0
   51.4380    2.4610   44.7370 C   0  0  0  0  0  0  0  0  0  0  0  0
   45.5800    8.3800   43.2270 C   0  0  0  0  0  0  0  0  0  0  0  0
   46.6190    8.2030   42.5360 O   0  0  0  0  0  0  0  0  0  0  0  0
   44.4110    9.1270   42.9550 N   0  0  0  0  0  0  0  0  0  0  0  0
   43.7440    7.4140   46.9100 H   0  0  0  0  0  0  0  0  0  0  0  0
   40.5420    9.8060   45.5090 H   0  0  0  0  0  0  0  0  0  0  0  0
   48.2040    7.4290   44.5920 H   0  0  0  0  0  0  0  0  0  0  0  0
   49.6040    5.1360   43.5120 H   0  0  0  0  0  0  0  0  0  0  0  0
   49.2890    4.6930   45.2140 H   0  0  0  0  0  0  0  0  0  0  0  0
   47.8710    2.7110   43.9750 H   0  0  0  0  0  0  0  0  0  0  0  0
   51.4970    3.6530   42.9770 H   0  0  0  0  0  0  0  0  0  0  0  0
   53.4510   -0.8240   45.7820 H   0  0  0  0  0  0  0  0  0  0  0  0
   54.1400   -2.6510   44.2700 H   0  0  0  0  0  0  0  0  0  0  0  0
   53.7660   -2.4110   41.8460 H   0  0  0  0  0  0  0  0  0  0  0  0
   52.7020   -0.3310   40.9910 H   0  0  0  0  0  0  0  0  0  0  0  0
   51.8350    3.4320   45.1680 H   0  0  0  0  0  0  0  0  0  0  0  0
   50.4790    2.2700   45.2720 H   0  0  0  0  0  0  0  0  0  0  0  0
   44.2520    9.6620   42.0850 H   0  0  0  0  0  0  0  0  0  0  0  0
  1  2  1  0  0  0  0
  2  7  1  0  0  0  0
  3  2  2  0  0  0  0
  3  4  1  0  0  0  0
  4  5  2  0  0  0  0
  5  6  1  0  0  0  0
  5 31  1  0  0  0  0
  6  8  1  0  0  0  0
  7 32  1  0  0  0  0
  7  6  2  0  0  0  0
  9  4  1  0  0  0  0
  9 10  2  0  0  0  0
 11 33  1  0  0  0  0
 11 10  1  0  0  0  0
 12 14  1  0  0  0  0
 12 11  1  0  0  0  0
 13 12  2  0  0  0  0
 14 35  1  0  0  0  0
 15 36  1  0  0  0  0
 15 14  1  0  0  0  0
 16 18  1  0  0  0  0
 16 15  1  0  0  0  0
 17 16  2  0  0  0  0
 18 37  1  6  0  0  0
 18 27  1  0  0  0  0
 19 20  1  0  0  0  0
 19 18  1  0  0  0  0
 20 21  1  0  0  0  0
 21 22  2  0  0  0  0
 21 26  1  0  0  0  0
 22 38  1  0  0  0  0
 23 39  1  0  0  0  0
 23 22  1  0  0  0  0
 24 23  2  0  0  0  0
 25 24  1  0  0  0  0
 25 20  2  0  0  0  0
 27 26  1  0  0  0  0
 27 42  1  0  0  0  0
 27 43  1  0  0  0  0
 28  9  1  0  0  0  0
 29 28  2  0  0  0  0
 30 28  1  0  0  0  0
 30  3  1  0  0  0  0
 34 14  1  0  0  0  0
 40 24  1  0  0  0  0
 41 25  1  0  0  0  0
 44 30  1  0  0  0  0
M  END
>  <Pose>
1

>  <Score>
-7.24

$$$$
