
 OpenBabel03172210433D

 35 38  0  0  0  0  0  0  0  0999 V2000
   42.9740    4.4380   44.8080 B   0  0  0  0  0  0  0  0  0  0  0  0
   44.7140    4.8980   44.1860 C   0  0  0  0  0  0  0  0  0  0  0  0
   45.7880    4.0580   44.1180 N   0  0  0  0  0  0  0  0  0  0  0  0
   46.8060    4.7180   43.6190 N   0  0  0  0  0  0  0  0  0  0  0  0
   46.4450    5.9830   43.3510 C   0  0  0  0  0  0  0  0  0  0  0  0
   47.0860    7.0430   42.8330 N   0  0  0  0  0  0  0  0  0  0  0  0
   46.4790    8.2130   42.6540 C   0  0  0  0  0  0  0  0  0  0  0  0
   45.2010    8.3520   42.9930 N   0  0  0  0  0  0  0  0  0  0  0  0
   44.4520    7.3330   43.5310 C   0  0  0  0  0  0  0  0  0  0  0  0
   45.0940    6.1330   43.7070 C   0  0  0  0  0  0  0  0  0  0  0  0
   43.1250    7.5390   43.9090 N   0  0  0  0  0  0  0  0  0  0  0  0
   42.7360    7.5620   45.3020 C   0  0  0  0  0  0  0  0  0  0  0  0
   42.4080    9.0270   45.6600 C   0  0  0  0  0  0  0  0  0  0  0  0
   41.7340    9.6710   44.5120 C   0  0  0  0  0  0  0  0  0  0  0  0
   41.1760   10.9030   44.4840 N   0  0  0  0  0  0  0  0  0  0  0  0
   40.6730   11.0980   43.2540 C   0  0  0  0  0  0  0  0  0  0  0  0
   40.8910   10.0270   42.4920 N   0  0  0  0  0  0  0  0  0  0  0  0
   41.5500    9.1400   43.2700 C   0  0  0  0  0  0  0  0  0  0  0  0
   42.0560    7.7780   42.9730 C   0  0  0  0  0  0  0  0  0  0  0  0
   41.1050   11.8730   45.5460 C   0  0  0  0  0  0  0  0  0  0  0  0
   48.1680    4.2240   43.3630 C   0  0  0  0  0  0  0  0  0  0  0  0
   47.0170    9.0360   42.2390 H   0  0  0  0  0  0  0  0  0  0  0  0
   43.5220    7.2440   45.9980 H   0  0  0  0  0  0  0  0  0  0  0  0
   41.8290    6.9430   45.5010 H   0  0  0  0  0  0  0  0  0  0  0  0
   43.3300    9.5850   45.9110 H   0  0  0  0  0  0  0  0  0  0  0  0
   41.7840    8.9820   46.5700 H   0  0  0  0  0  0  0  0  0  0  0  0
   40.1500   11.9940   42.8860 H   0  0  0  0  0  0  0  0  0  0  0  0
   42.3670    7.6550   41.9180 H   0  0  0  0  0  0  0  0  0  0  0  0
   41.2050    7.0790   43.2240 H   0  0  0  0  0  0  0  0  0  0  0  0
   41.3270   12.8980   45.1790 H   0  0  0  0  0  0  0  0  0  0  0  0
   40.0640   11.9150   45.9490 H   0  0  0  0  0  0  0  0  0  0  0  0
   41.8440   11.6440   46.3500 H   0  0  0  0  0  0  0  0  0  0  0  0
   48.4350    4.4030   42.3030 H   0  0  0  0  0  0  0  0  0  0  0  0
   48.2190    3.1540   43.6300 H   0  0  0  0  0  0  0  0  0  0  0  0
   48.8830    4.7590   44.0290 H   0  0  0  0  0  0  0  0  0  0  0  0
  2  1  1  0  0  0  0
  3  2  2  0  0  0  0
  4  3  1  0  0  0  0
  5  4  1  0  0  0  0
  5 10  2  0  0  0  0
  6  5  1  0  0  0  0
  7  6  2  0  0  0  0
  7  8  1  0  0  0  0
  8  9  2  0  0  0  0
  9 10  1  0  0  0  0
  9 11  1  0  0  0  0
 10  2  1  0  0  0  0
 11 12  1  0  0  0  0
 12 24  1  0  0  0  0
 12 13  1  0  0  0  0
 12 23  1  0  0  0  0
 13 25  1  0  0  0  0
 13 26  1  0  0  0  0
 14 13  1  0  0  0  0
 15 14  1  0  0  0  0
 15 20  1  0  0  0  0
 16 15  1  0  0  0  0
 17 16  2  0  0  0  0
 17 18  1  0  0  0  0
 18 14  2  0  0  0  0
 19 29  1  0  0  0  0
 19 18  1  0  0  0  0
 19 11  1  0  0  0  0
 20 31  1  0  0  0  0
 20 32  1  0  0  0  0
 21  4  1  0  0  0  0
 21 34  1  0  0  0  0
 21 35  1  0  0  0  0
 22  7  1  0  0  0  0
 27 16  1  0  0  0  0
 28 19  1  0  0  0  0
 30 20  1  0  0  0  0
 33 21  1  0  0  0  0
M  END
>  <Pose>
1

>  <Score>
-4.81

$$$$
