
 OpenBabel03172210433D

 53 56  0  0  1  0  0  0  0  0999 V2000
   49.3980    5.5800   46.4710 B   0  0  0  0  0  0  0  0  0  0  0  0
   49.5010    4.2840   45.0900 C   0  0  0  0  0  0  0  0  0  0  0  0
   50.3810    3.2760   44.9530 N   0  0  0  0  0  0  0  0  0  0  0  0
   50.1630    2.5870   43.8650 N   0  0  0  0  0  0  0  0  0  0  0  0
   49.1050    3.1400   43.2420 C   0  0  0  0  0  0  0  0  0  0  0  0
   48.4600    2.8550   42.0980 N   0  0  0  0  0  0  0  0  0  0  0  0
   47.4160    3.5690   41.6670 C   0  0  0  0  0  0  0  0  0  0  0  0
   46.9930    4.5990   42.3900 N   0  0  0  0  0  0  0  0  0  0  0  0
   47.5770    4.9650   43.5560 C   0  0  0  0  0  0  0  0  0  0  0  0
   48.6640    4.2210   44.0010 C   0  0  0  0  0  0  0  0  0  0  0  0
   47.0850    6.0350   44.3110 N   0  0  0  0  0  0  0  0  0  0  0  0
   46.4730    5.8340   45.5940 C   0  0  0  0  0  0  0  0  0  0  0  0
   44.9810    6.0890   45.3660 C   0  0  0  0  0  0  0  0  0  0  0  0
   44.7650    6.8760   44.1470 N   0  0  0  0  0  0  0  0  0  0  0  0
   45.7470    7.9610   44.0850 C   0  0  0  0  0  0  0  0  0  0  0  0
   47.1320    7.3960   43.8350 C   0  0  0  0  0  0  0  0  0  0  0  0
   43.4410    7.4660   44.2680 C   0  0  2  0  0  0  0  0  0  0  0  0
   42.4240    6.2910   44.2540 C   0  0  0  0  0  0  0  0  0  0  0  0
   43.1450    8.3520   43.1280 C   0  0  0  0  0  0  0  0  0  0  0  0
   43.3630    7.7960   41.9720 O   0  0  0  0  0  0  0  0  0  0  0  0
   42.6780    9.6760   43.1420 N   0  0  0  0  0  0  0  0  0  0  0  0
   43.2830   10.8300   43.7340 C   0  0  0  0  0  0  0  0  0  0  0  0
   42.3260   11.7050   44.5170 C   0  0  0  0  0  0  0  0  0  0  0  0
   40.9510   11.7780   43.9470 C   0  0  0  0  0  0  0  0  0  0  0  0
   40.4380   10.4260   43.5020 C   0  0  0  0  0  0  0  0  0  0  0  0
   41.3970    9.9390   42.4470 C   0  0  0  0  0  0  0  0  0  0  0  0
   50.8730    1.4290   43.3400 C   0  0  0  0  0  0  0  0  0  0  0  0
   46.9060    3.3040   40.7130 H   0  0  0  0  0  0  0  0  0  0  0  0
   46.7670    6.7200   46.2410 H   0  0  0  0  0  0  0  0  0  0  0  0
   46.6540    4.8760   46.0730 H   0  0  0  0  0  0  0  0  0  0  0  0
   44.5190    5.1020   45.1790 H   0  0  0  0  0  0  0  0  0  0  0  0
   44.4830    6.5260   46.2510 H   0  0  0  0  0  0  0  0  0  0  0  0
   45.4790    8.5870   43.2220 H   0  0  0  0  0  0  0  0  0  0  0  0
   45.7760    8.5380   45.0140 H   0  0  0  0  0  0  0  0  0  0  0  0
   47.4350    7.5160   42.8000 H   0  0  0  0  0  0  0  0  0  0  0  0
   47.8740    7.9330   44.4990 H   0  0  0  0  0  0  0  0  0  0  0  0
   43.3360    8.0140   45.2060 H   0  0  0  0  0  0  0  0  0  0  0  0
   42.8440    5.4450   43.6770 H   0  0  0  0  0  0  0  0  0  0  0  0
   41.4980    6.6030   43.7450 H   0  0  0  0  0  0  0  0  0  0  0  0
   42.1840    5.9890   45.2820 H   0  0  0  0  0  0  0  0  0  0  0  0
   43.6530   11.4500   42.8520 H   0  0  0  0  0  0  0  0  0  0  0  0
   44.1450   10.6490   44.3640 H   0  0  0  0  0  0  0  0  0  0  0  0
   42.7530   12.7430   44.4760 H   0  0  0  0  0  0  0  0  0  0  0  0
   42.3320   11.4310   45.5790 H   0  0  0  0  0  0  0  0  0  0  0  0
   40.9260   12.4860   43.1010 H   0  0  0  0  0  0  0  0  0  0  0  0
   40.2680   12.1590   44.7200 H   0  0  0  0  0  0  0  0  0  0  0  0
   40.4130    9.7420   44.3860 H   0  0  0  0  0  0  0  0  0  0  0  0
   39.4220   10.5660   43.1000 H   0  0  0  0  0  0  0  0  0  0  0  0
   41.0320    9.0550   41.9160 H   0  0  0  0  0  0  0  0  0  0  0  0
   41.5570   10.7600   41.7240 H   0  0  0  0  0  0  0  0  0  0  0  0
   51.4030    1.6780   42.3860 H   0  0  0  0  0  0  0  0  0  0  0  0
   50.1150    0.6670   43.0930 H   0  0  0  0  0  0  0  0  0  0  0  0
   51.6500    1.0870   44.0400 H   0  0  0  0  0  0  0  0  0  0  0  0
  2  1  1  0  0  0  0
  3  2  2  0  0  0  0
  4  3  1  0  0  0  0
  5  4  1  0  0  0  0
  5 10  2  0  0  0  0
  6  5  1  0  0  0  0
  7  6  2  0  0  0  0
  7  8  1  0  0  0  0
  8  9  2  0  0  0  0
  9 10  1  0  0  0  0
  9 11  1  0  0  0  0
 10  2  1  0  0  0  0
 11 12  1  0  0  0  0
 12 30  1  0  0  0  0
 12 29  1  0  0  0  0
 13 12  1  0  0  0  0
 13 32  1  0  0  0  0
 14 17  1  0  0  0  0
 14 13  1  0  0  0  0
 15 14  1  0  0  0  0
 15 34  1  0  0  0  0
 16 15  1  0  0  0  0
 16 11  1  0  0  0  0
 16 36  1  0  0  0  0
 17 37  1  1  0  0  0
 18 17  1  0  0  0  0
 18 40  1  0  0  0  0
 19 21  1  0  0  0  0
 19 17  1  0  0  0  0
 20 19  2  0  0  0  0
 21 22  1  0  0  0  0
 22 42  1  0  0  0  0
 22 23  1  0  0  0  0
 23 44  1  0  0  0  0
 24 23  1  0  0  0  0
 24 46  1  0  0  0  0
 25 24  1  0  0  0  0
 25 47  1  0  0  0  0
 26 21  1  0  0  0  0
 26 25  1  0  0  0  0
 27  4  1  0  0  0  0
 27 53  1  0  0  0  0
 28  7  1  0  0  0  0
 31 13  1  0  0  0  0
 33 15  1  0  0  0  0
 35 16  1  0  0  0  0
 38 18  1  0  0  0  0
 39 18  1  0  0  0  0
 41 22  1  0  0  0  0
 43 23  1  0  0  0  0
 45 24  1  0  0  0  0
 48 25  1  0  0  0  0
 49 26  1  0  0  0  0
 50 26  1  0  0  0  0
 51 27  1  0  0  0  0
 52 27  1  0  0  0  0
M  END
>  <Pose>
1

>  <Score>
-5.38

$$$$
