
 OpenBabel03172210433D

 49 52  0  0  0  0  0  0  0  0999 V2000
   47.6940    3.8150   42.6890 B   0  0  0  0  0  0  0  0  0  0  0  0
   46.5960    5.3450   43.1310 C   0  0  0  0  0  0  0  0  0  0  0  0
   45.3430    5.3670   43.4130 O   0  0  0  0  0  0  0  0  0  0  0  0
   44.9210    6.5700   43.6630 C   0  0  0  0  0  0  0  0  0  0  0  0
   46.0010    7.4130   43.5320 C   0  0  0  0  0  0  0  0  0  0  0  0
   47.0740    6.6300   43.1910 C   0  0  0  0  0  0  0  0  0  0  0  0
   43.5600    7.0040   44.0230 C   0  0  0  0  0  0  0  0  0  0  0  0
   42.9580    6.3950   44.9190 O   0  0  0  0  0  0  0  0  0  0  0  0
   42.9340    8.0950   43.3700 N   0  0  0  0  0  0  0  0  0  0  0  0
   43.6450    9.3490   43.2210 C   0  0  0  0  0  0  0  0  0  0  0  0
   42.9330   10.4930   43.9000 C   0  0  0  0  0  0  0  0  0  0  0  0
   41.4970   10.1660   43.8680 N   0  0  0  0  0  0  0  0  0  0  0  0
   41.0360    9.4870   42.7060 C   0  0  0  0  0  0  0  0  0  0  0  0
   41.5930    8.0550   42.8210 C   0  0  0  0  0  0  0  0  0  0  0  0
   40.7280   10.5610   44.9890 C   0  0  0  0  0  0  0  0  0  0  0  0
   39.4430   10.9910   44.8550 N   0  0  0  0  0  0  0  0  0  0  0  0
   38.7030   11.3700   45.9090 C   0  0  0  0  0  0  0  0  0  0  0  0
   39.2260   11.3330   47.1530 N   0  0  0  0  0  0  0  0  0  0  0  0
   40.4860   10.9210   47.3820 C   0  0  0  0  0  0  0  0  0  0  0  0
   41.2300   10.5340   46.2580 C   0  0  0  0  0  0  0  0  0  0  0  0
   41.0830   10.8720   48.7440 C   0  0  0  0  0  0  0  0  0  0  0  0
   37.3690   11.8100   45.7160 N   0  0  0  0  0  0  0  0  0  0  0  0
   37.0120   13.1940   45.5180 C   0  0  0  0  0  0  0  0  0  0  0  0
   36.1780   13.3380   44.2810 C   0  0  0  0  0  0  0  0  0  0  0  0
   35.7550   12.1150   43.7620 O   0  0  0  0  0  0  0  0  0  0  0  0
   35.2240   11.3110   44.7670 C   0  0  0  0  0  0  0  0  0  0  0  0
   36.2980   10.8370   45.7150 C   0  0  0  0  0  0  0  0  0  0  0  0
   46.0060    8.5070   43.6730 H   0  0  0  0  0  0  0  0  0  0  0  0
   48.0940    6.9800   43.0100 H   0  0  0  0  0  0  0  0  0  0  0  0
   43.8350    9.5980   42.1580 H   0  0  0  0  0  0  0  0  0  0  0  0
   44.6590    9.2820   43.7150 H   0  0  0  0  0  0  0  0  0  0  0  0
   43.2520   10.6420   44.9310 H   0  0  0  0  0  0  0  0  0  0  0  0
   43.0140   11.4390   43.2900 H   0  0  0  0  0  0  0  0  0  0  0  0
   39.9450    9.4540   42.6730 H   0  0  0  0  0  0  0  0  0  0  0  0
   41.4710    9.9490   41.7850 H   0  0  0  0  0  0  0  0  0  0  0  0
   40.8670    7.5200   43.4250 H   0  0  0  0  0  0  0  0  0  0  0  0
   41.6540    7.5670   41.8300 H   0  0  0  0  0  0  0  0  0  0  0  0
   42.2340   10.2110   46.4680 H   0  0  0  0  0  0  0  0  0  0  0  0
   41.9630   11.5430   48.8030 H   0  0  0  0  0  0  0  0  0  0  0  0
   40.3010   11.0840   49.4720 H   0  0  0  0  0  0  0  0  0  0  0  0
   41.4370    9.8260   48.8980 H   0  0  0  0  0  0  0  0  0  0  0  0
   37.9320   13.8270   45.3900 H   0  0  0  0  0  0  0  0  0  0  0  0
   36.4460   13.5800   46.4050 H   0  0  0  0  0  0  0  0  0  0  0  0
   35.2480   13.9260   44.5130 H   0  0  0  0  0  0  0  0  0  0  0  0
   36.7230   13.8890   43.4880 H   0  0  0  0  0  0  0  0  0  0  0  0
   34.7340   10.4360   44.3080 H   0  0  0  0  0  0  0  0  0  0  0  0
   34.4220   11.8760   45.3170 H   0  0  0  0  0  0  0  0  0  0  0  0
   36.6510    9.8270   45.4040 H   0  0  0  0  0  0  0  0  0  0  0  0
   35.8510   10.7800   46.7400 H   0  0  0  0  0  0  0  0  0  0  0  0
  1  2  1  0  0  0  0
  2  6  2  0  0  0  0
  2  3  1  0  0  0  0
  3  4  1  0  0  0  0
  4  7  1  0  0  0  0
  5  4  2  0  0  0  0
  5 28  1  0  0  0  0
  6  5  1  0  0  0  0
  7  8  2  0  0  0  0
  9  7  1  0  0  0  0
 10  9  1  0  0  0  0
 10 31  1  0  0  0  0
 10 11  1  0  0  0  0
 11 32  1  0  0  0  0
 12 11  1  0  0  0  0
 12 15  1  0  0  0  0
 13 14  1  0  0  0  0
 13 12  1  0  0  0  0
 14  9  1  0  0  0  0
 14 36  1  0  0  0  0
 15 20  2  0  0  0  0
 16 15  1  0  0  0  0
 16 17  2  0  0  0  0
 17 18  1  0  0  0  0
 18 19  2  0  0  0  0
 19 21  1  0  0  0  0
 20 38  1  0  0  0  0
 20 19  1  0  0  0  0
 21 39  1  0  0  0  0
 21 41  1  0  0  0  0
 21 40  1  0  0  0  0
 22 17  1  0  0  0  0
 23 22  1  0  0  0  0
 23 43  1  0  0  0  0
 24 44  1  0  0  0  0
 24 23  1  0  0  0  0
 25 24  1  0  0  0  0
 25 26  1  0  0  0  0
 26 47  1  0  0  0  0
 26 27  1  0  0  0  0
 27 22  1  0  0  0  0
 27 49  1  0  0  0  0
 29  6  1  0  0  0  0
 30 10  1  0  0  0  0
 33 11  1  0  0  0  0
 34 13  1  0  0  0  0
 35 13  1  0  0  0  0
 37 14  1  0  0  0  0
 42 23  1  0  0  0  0
 45 24  1  0  0  0  0
 46 26  1  0  0  0  0
 48 27  1  0  0  0  0
M  END
>  <Pose>
1

>  <Score>
-5.37

$$$$
