
 OpenBabel03172210433D

 43 46  0  0  0  0  0  0  0  0999 V2000
   52.4380    2.3070   45.7000 B   0  0  0  0  0  0  0  0  0  0  0  0
   50.9670    2.8070   44.6340 C   0  0  0  0  0  0  0  0  0  0  0  0
   50.1390    3.8770   44.9840 C   0  0  0  0  0  0  0  0  0  0  0  0
   49.0820    4.2020   44.1770 C   0  0  0  0  0  0  0  0  0  0  0  0
   48.8970    3.4220   43.0310 C   0  0  0  0  0  0  0  0  0  0  0  0
   49.6920    2.4400   42.7490 O   0  0  0  0  0  0  0  0  0  0  0  0
   50.6940    2.1070   43.4840 C   0  0  0  0  0  0  0  0  0  0  0  0
   51.4080    1.1350   43.1260 O   0  0  0  0  0  0  0  0  0  0  0  0
   48.1650    5.2920   44.4530 C   0  0  0  0  0  0  0  0  0  0  0  0
   48.3900    5.8430   45.6310 O   0  0  0  0  0  0  0  0  0  0  0  0
   47.1250    5.8460   43.7220 N   0  0  0  0  0  0  0  0  0  0  0  0
   45.8390    5.1100   43.6340 C   0  0  0  0  0  0  0  0  0  0  0  0
   44.7300    6.0130   44.1200 C   0  0  0  0  0  0  0  0  0  0  0  0
   44.7090    7.1940   43.3520 N   0  0  0  0  0  0  0  0  0  0  0  0
   45.7360    7.2170   42.3680 C   0  0  0  0  0  0  0  0  0  0  0  0
   47.1320    7.0730   43.0210 C   0  0  0  0  0  0  0  0  0  0  0  0
   43.4390    7.5840   42.8270 C   0  0  0  0  0  0  0  0  0  0  0  0
   42.9640    8.9190   43.2330 C   0  0  0  0  0  0  0  0  0  0  0  0
   43.7200    9.8520   43.8640 C   0  0  0  0  0  0  0  0  0  0  0  0
   43.1860   11.0690   44.2070 C   0  0  0  0  0  0  0  0  0  0  0  0
   41.8790   11.3420   43.9090 C   0  0  0  0  0  0  0  0  0  0  0  0
   41.0920   10.4110   43.2690 C   0  0  0  0  0  0  0  0  0  0  0  0
   41.6450    9.2170   42.9410 C   0  0  0  0  0  0  0  0  0  0  0  0
   41.5610   12.6170   44.3450 O   0  0  0  0  0  0  0  0  0  0  0  0
   42.5900   12.9930   45.2500 C   0  0  0  0  0  0  0  0  0  0  0  0
   43.6960   12.2090   44.8470 O   0  0  0  0  0  0  0  0  0  0  0  0
   50.3900    4.3890   45.8830 H   0  0  0  0  0  0  0  0  0  0  0  0
   48.0580    3.6320   42.3320 H   0  0  0  0  0  0  0  0  0  0  0  0
   45.9230    4.2130   44.2930 H   0  0  0  0  0  0  0  0  0  0  0  0
   45.6570    4.8030   42.6060 H   0  0  0  0  0  0  0  0  0  0  0  0
   43.7540    5.4440   44.0250 H   0  0  0  0  0  0  0  0  0  0  0  0
   44.8040    6.1780   45.2270 H   0  0  0  0  0  0  0  0  0  0  0  0
   45.6900    6.4840   41.5690 H   0  0  0  0  0  0  0  0  0  0  0  0
   45.7040    8.2430   41.9040 H   0  0  0  0  0  0  0  0  0  0  0  0
   47.2980    7.9860   43.6100 H   0  0  0  0  0  0  0  0  0  0  0  0
   47.8910    7.0650   42.1900 H   0  0  0  0  0  0  0  0  0  0  0  0
   43.5540    7.6240   41.7020 H   0  0  0  0  0  0  0  0  0  0  0  0
   42.6370    6.8480   43.0010 H   0  0  0  0  0  0  0  0  0  0  0  0
   44.7490    9.6600   44.1040 H   0  0  0  0  0  0  0  0  0  0  0  0
   40.0630   10.6360   43.0390 H   0  0  0  0  0  0  0  0  0  0  0  0
   41.0120    8.4930   42.4360 H   0  0  0  0  0  0  0  0  0  0  0  0
   42.3160   12.8520   46.2940 H   0  0  0  0  0  0  0  0  0  0  0  0
   42.8880   14.0540   45.1060 H   0  0  0  0  0  0  0  0  0  0  0  0
  2  3  2  0  0  0  0
  2  1  1  0  0  0  0
  3 27  1  0  0  0  0
  4  9  1  0  0  0  0
  4  3  1  0  0  0  0
  5  4  2  0  0  0  0
  6  5  1  0  0  0  0
  6  7  1  0  0  0  0
  7  2  1  0  0  0  0
  8  7  2  0  0  0  0
  9 10  2  0  0  0  0
 11  9  1  0  0  0  0
 12 11  1  0  0  0  0
 12 13  1  0  0  0  0
 12 29  1  0  0  0  0
 13 32  1  0  0  0  0
 14 13  1  0  0  0  0
 15 16  1  0  0  0  0
 15 14  1  0  0  0  0
 16 35  1  0  0  0  0
 16 11  1  0  0  0  0
 17 38  1  0  0  0  0
 17 18  1  0  0  0  0
 17 14  1  0  0  0  0
 18 19  1  0  0  0  0
 19 39  1  0  0  0  0
 19 20  2  0  0  0  0
 20 26  1  0  0  0  0
 21 20  1  0  0  0  0
 21 24  1  0  0  0  0
 22 21  2  0  0  0  0
 23 18  2  0  0  0  0
 23 22  1  0  0  0  0
 24 25  1  0  0  0  0
 25 42  1  0  0  0  0
 26 25  1  0  0  0  0
 28  5  1  0  0  0  0
 30 12  1  0  0  0  0
 31 13  1  0  0  0  0
 33 15  1  0  0  0  0
 34 15  1  0  0  0  0
 36 16  1  0  0  0  0
 37 17  1  0  0  0  0
 40 22  1  0  0  0  0
 41 23  1  0  0  0  0
 43 25  1  0  0  0  0
M  END
>  <Pose>
1

>  <Score>
-5.01

$$$$
