
 OpenBabel03172210433D

 63 66  0  0  1  0  0  0  0  0999 V2000
   43.6830   12.5460   45.2400 B   0  0  0  0  0  0  0  0  0  0  0  0
   42.3020   11.5170   44.4310 C   0  0  0  0  0  0  0  0  0  0  0  0
   42.5900   10.2340   44.0380 C   0  0  0  0  0  0  0  0  0  0  0  0
   41.6840    9.4260   43.4580 N   0  0  0  0  0  0  0  0  0  0  0  0
   40.4450    9.9790   43.2870 C   0  0  0  0  0  0  0  0  0  0  0  0
   39.5370    9.2820   42.7480 O   0  0  0  0  0  0  0  0  0  0  0  0
   40.1350   11.2130   43.6540 N   0  0  0  0  0  0  0  0  0  0  0  0
   41.0400   12.0190   44.2330 C   0  0  0  0  0  0  0  0  0  0  0  0
   40.7850   13.1940   44.5970 O   0  0  0  0  0  0  0  0  0  0  0  0
   41.9510    8.0880   43.0390 C   0  0  2  0  0  0  0  0  0  0  0  0
   41.8040    7.0740   44.1810 C   0  0  2  0  0  0  0  0  0  0  0  0
   43.0850    7.0040   44.9400 C   0  0  0  0  0  0  0  0  0  0  0  0
   44.1670    6.4950   44.0150 C   0  0  0  0  0  0  0  0  0  0  0  0
   43.8370    6.6370   42.6800 O   0  0  0  0  0  0  0  0  0  0  0  0
   43.2680    7.8660   42.3740 C   0  0  0  0  0  0  0  0  0  0  0  0
   45.4400    7.1570   44.3990 C   0  0  0  0  0  0  0  0  0  0  0  0
   46.5580    6.6200   43.4910 C   0  0  0  0  0  0  0  0  0  0  0  0
   46.7520    5.2440   43.8120 N   0  0  0  0  0  0  0  0  0  0  0  0
   45.7170    4.6680   44.7340 C   0  0  0  0  0  0  0  0  0  0  0  0
   44.3360    5.0150   44.2830 C   0  0  0  0  0  0  0  0  0  0  0  0
   47.7710    4.4310   43.3570 C   0  0  0  0  0  0  0  0  0  0  0  0
   47.7120    4.1170   42.0790 O   0  0  0  0  0  0  0  0  0  0  0  0
   48.8860    3.8690   44.0330 C   0  0  0  0  0  0  0  0  0  0  0  0
   49.2850    4.3780   45.2830 C   0  0  0  0  0  0  0  0  0  0  0  0
   50.3190    3.9170   46.0340 C   0  0  0  0  0  0  0  0  0  0  0  0
   51.0460    2.8320   45.5020 C   0  0  0  0  0  0  0  0  0  0  0  0
   50.6810    2.3250   44.3020 C   0  0  0  0  0  0  0  0  0  0  0  0
   49.6060    2.8260   43.5490 C   0  0  0  0  0  0  0  0  0  0  0  0
   50.6770    4.4410   47.2400 O   0  0  0  0  0  0  0  0  0  0  0  0
   50.0280    5.2680   48.1070 C   0  0  0  0  0  0  0  0  0  0  0  0
   49.9000    6.6630   47.5980 C   0  0  0  0  0  0  0  0  0  0  0  0
   48.5400    6.8810   47.1040 N   0  0  0  0  0  0  0  0  0  0  0  0
   41.5970    5.8310   43.5770 O   0  0  0  0  0  0  0  0  0  0  0  0
   40.6090    7.3780   45.0250 C   0  0  0  0  0  0  0  0  0  0  0  0
   43.5650    9.8520   44.1940 H   0  0  0  0  0  0  0  0  0  0  0  0
   39.1820   11.6070   43.5100 H   0  0  0  0  0  0  0  0  0  0  0  0
   41.1220    7.7990   42.3250 H   0  0  0  0  0  0  0  0  0  0  0  0
   43.3710    7.9460   45.4450 H   0  0  0  0  0  0  0  0  0  0  0  0
   42.9190    6.2720   45.7840 H   0  0  0  0  0  0  0  0  0  0  0  0
   44.0230    8.6330   42.5380 H   0  0  0  0  0  0  0  0  0  0  0  0
   43.1020    7.8420   41.2560 H   0  0  0  0  0  0  0  0  0  0  0  0
   45.7040    6.8950   45.4300 H   0  0  0  0  0  0  0  0  0  0  0  0
   45.4090    8.2640   44.3450 H   0  0  0  0  0  0  0  0  0  0  0  0
   47.4530    7.2530   43.7690 H   0  0  0  0  0  0  0  0  0  0  0  0
   46.2300    6.8370   42.4640 H   0  0  0  0  0  0  0  0  0  0  0  0
   45.9170    4.9500   45.7670 H   0  0  0  0  0  0  0  0  0  0  0  0
   45.8670    3.5640   44.6840 H   0  0  0  0  0  0  0  0  0  0  0  0
   44.1480    4.4060   43.3520 H   0  0  0  0  0  0  0  0  0  0  0  0
   43.6120    4.6550   45.0500 H   0  0  0  0  0  0  0  0  0  0  0  0
   48.6990    5.1850   45.6710 H   0  0  0  0  0  0  0  0  0  0  0  0
   51.8620    2.4760   46.1090 H   0  0  0  0  0  0  0  0  0  0  0  0
   51.2560    1.4840   43.9050 H   0  0  0  0  0  0  0  0  0  0  0  0
   49.4380    2.3150   42.6340 H   0  0  0  0  0  0  0  0  0  0  0  0
   50.6300    5.3420   49.0720 H   0  0  0  0  0  0  0  0  0  0  0  0
   49.0070    4.8610   48.3740 H   0  0  0  0  0  0  0  0  0  0  0  0
   50.1160    7.4740   48.2770 H   0  0  0  0  0  0  0  0  0  0  0  0
   50.5340    6.7590   46.6660 H   0  0  0  0  0  0  0  0  0  0  0  0
   48.1330    6.0270   46.6960 H   0  0  0  0  0  0  0  0  0  0  0  0
   48.4540    7.7250   46.5300 H   0  0  0  0  0  0  0  0  0  0  0  0
   40.7870    5.3710   43.9110 H   0  0  0  0  0  0  0  0  0  0  0  0
   40.5090    8.4330   45.3120 H   0  0  0  0  0  0  0  0  0  0  0  0
   39.7090    7.0050   44.4830 H   0  0  0  0  0  0  0  0  0  0  0  0
   40.6840    6.7580   45.9460 H   0  0  0  0  0  0  0  0  0  0  0  0
  2  1  1  0  0  0  0
  3 35  1  0  0  0  0
  3  2  2  0  0  0  0
  4  3  1  0  0  0  0
  5  4  1  0  0  0  0
  5  7  1  0  0  0  0
  6  5  2  0  0  0  0
  7  8  1  0  0  0  0
  8  2  1  0  0  0  0
  8  9  2  0  0  0  0
 10 37  1  6  0  0  0
 10  4  1  0  0  0  0
 10 11  1  0  0  0  0
 11 33  1  6  0  0  0
 11 12  1  0  0  0  0
 11 34  1  0  0  0  0
 12 38  1  0  0  0  0
 12 39  1  0  0  0  0
 13 20  1  0  0  0  0
 13 16  1  0  0  0  0
 13 12  1  0  0  0  0
 14 13  1  0  0  0  0
 15 40  1  0  0  0  0
 15 14  1  0  0  0  0
 15 10  1  0  0  0  0
 16 42  1  0  0  0  0
 17 44  1  0  0  0  0
 17 18  1  0  0  0  0
 17 16  1  0  0  0  0
 18 19  1  0  0  0  0
 19 46  1  0  0  0  0
 20 19  1  0  0  0  0
 20 49  1  0  0  0  0
 21 18  1  0  0  0  0
 21 23  1  0  0  0  0
 22 21  2  0  0  0  0
 23 24  1  0  0  0  0
 24 50  1  0  0  0  0
 24 25  2  0  0  0  0
 25 29  1  0  0  0  0
 26 25  1  0  0  0  0
 26 51  1  0  0  0  0
 27 26  2  0  0  0  0
 28 23  2  0  0  0  0
 28 27  1  0  0  0  0
 29 30  1  0  0  0  0
 30 55  1  0  0  0  0
 30 54  1  0  0  0  0
 31 30  1  0  0  0  0
 31 56  1  0  0  0  0
 32 31  1  0  0  0  0
 33 60  1  0  0  0  0
 34 61  1  0  0  0  0
 34 63  1  0  0  0  0
 36  7  1  0  0  0  0
 41 15  1  0  0  0  0
 43 16  1  0  0  0  0
 45 17  1  0  0  0  0
 47 19  1  0  0  0  0
 48 20  1  0  0  0  0
 52 27  1  0  0  0  0
 53 28  1  0  0  0  0
 57 31  1  0  0  0  0
 58 32  1  0  0  0  0
 59 32  1  0  0  0  0
 62 34  1  0  0  0  0
M  END
>  <Pose>
1

>  <Score>
-6.51

$$$$
