
 OpenBabel03172210433D

 63 66  0  0  1  0  0  0  0  0999 V2000
   43.0240   13.8780   47.8160 B   0  0  0  0  0  0  0  0  0  0  0  0
   41.9000   13.5640   46.2890 C   0  0  0  0  0  0  0  0  0  0  0  0
   42.1180   12.4730   45.4800 C   0  0  0  0  0  0  0  0  0  0  0  0
   41.3500   12.2430   44.4210 N   0  0  0  0  0  0  0  0  0  0  0  0
   40.3490   13.0660   44.1190 C   0  0  0  0  0  0  0  0  0  0  0  0
   39.5900   12.8780   43.1110 O   0  0  0  0  0  0  0  0  0  0  0  0
   40.1220   14.1360   44.8950 N   0  0  0  0  0  0  0  0  0  0  0  0
   40.8650   14.4220   45.9810 C   0  0  0  0  0  0  0  0  0  0  0  0
   40.6240   15.4390   46.6940 O   0  0  0  0  0  0  0  0  0  0  0  0
   41.6010   11.0800   43.5930 C   0  0  1  0  0  0  0  0  0  0  0  0
   43.0290   10.7590   43.4000 C   0  0  1  0  0  0  0  0  0  0  0  0
   43.3080    9.2710   43.1550 C   0  0  0  0  0  0  0  0  0  0  0  0
   42.7090    8.4310   44.2550 C   0  0  2  0  0  0  0  0  0  0  0  0
   41.6880    9.0940   44.9100 O   0  0  0  0  0  0  0  0  0  0  0  0
   40.8900    9.8670   44.1250 C   0  0  0  0  0  0  0  0  0  0  0  0
   43.8330    8.0560   45.2040 C   0  0  0  0  0  0  0  0  0  0  0  0
   44.3780    6.6950   44.8650 C   0  0  0  0  0  0  0  0  0  0  0  0
   44.4370    6.5650   43.4310 N   0  0  0  0  0  0  0  0  0  0  0  0
   43.1530    6.4960   42.7490 C   0  0  0  0  0  0  0  0  0  0  0  0
   42.1350    7.1820   43.6300 C   0  0  0  0  0  0  0  0  0  0  0  0
   45.6610    6.4910   42.7620 C   0  0  0  0  0  0  0  0  0  0  0  0
   45.7300    7.1610   41.6670 O   0  0  0  0  0  0  0  0  0  0  0  0
   46.8710    5.7610   43.1220 C   0  0  1  0  0  0  0  0  0  0  0  0
   47.6550    6.4660   44.1370 N   0  0  0  0  0  0  0  0  0  0  0  0
   46.6470    4.3680   43.6670 C   0  0  0  0  0  0  0  0  0  0  0  0
   47.9750    3.6590   43.5490 C   0  0  0  0  0  0  0  0  0  0  0  0
   48.2390    2.8630   42.4650 C   0  0  0  0  0  0  0  0  0  0  0  0
   49.4760    2.2280   42.3960 C   0  0  0  0  0  0  0  0  0  0  0  0
   50.4250    2.3810   43.3800 C   0  0  0  0  0  0  0  0  0  0  0  0
   50.1220    3.1910   44.4560 C   0  0  0  0  0  0  0  0  0  0  0  0
   48.9050    3.8330   44.5540 C   0  0  0  0  0  0  0  0  0  0  0  0
   51.6360    1.7260   43.2590 O   0  0  0  0  0  0  0  0  0  0  0  0
   43.4340   11.3770   42.1890 O   0  0  0  0  0  0  0  0  0  0  0  0
   43.9580   11.2800   44.4480 C   0  0  0  0  0  0  0  0  0  0  0  0
   42.9510   11.8270   45.7680 H   0  0  0  0  0  0  0  0  0  0  0  0
   39.3210   14.7940   44.6530 H   0  0  0  0  0  0  0  0  0  0  0  0
   41.1100   11.3270   42.5980 H   0  0  0  0  0  0  0  0  0  0  0  0
   42.8930    8.9470   42.1930 H   0  0  0  0  0  0  0  0  0  0  0  0
   44.3910    9.1200   43.1390 H   0  0  0  0  0  0  0  0  0  0  0  0
   39.9650   10.1400   44.6860 H   0  0  0  0  0  0  0  0  0  0  0  0
   40.5680    9.2480   43.2350 H   0  0  0  0  0  0  0  0  0  0  0  0
   44.6550    8.7860   45.1770 H   0  0  0  0  0  0  0  0  0  0  0  0
   43.4710    7.9860   46.2540 H   0  0  0  0  0  0  0  0  0  0  0  0
   45.3430    6.5100   45.3810 H   0  0  0  0  0  0  0  0  0  0  0  0
   43.6810    5.9420   45.3150 H   0  0  0  0  0  0  0  0  0  0  0  0
   43.1400    6.9680   41.7700 H   0  0  0  0  0  0  0  0  0  0  0  0
   42.8470    5.4420   42.6340 H   0  0  0  0  0  0  0  0  0  0  0  0
   41.7300    6.5000   44.4080 H   0  0  0  0  0  0  0  0  0  0  0  0
   41.2800    7.4220   42.9730 H   0  0  0  0  0  0  0  0  0  0  0  0
   47.5150    5.6650   42.2240 H   0  0  0  0  0  0  0  0  0  0  0  0
   47.3260    6.2280   45.0980 H   0  0  0  0  0  0  0  0  0  0  0  0
   47.4960    7.4980   44.0200 H   0  0  0  0  0  0  0  0  0  0  0  0
   46.3710    4.3470   44.7190 H   0  0  0  0  0  0  0  0  0  0  0  0
   45.9140    3.7950   43.1010 H   0  0  0  0  0  0  0  0  0  0  0  0
   47.4880    2.7550   41.7050 H   0  0  0  0  0  0  0  0  0  0  0  0
   49.6860    1.6020   41.5440 H   0  0  0  0  0  0  0  0  0  0  0  0
   50.8500    3.3160   45.2280 H   0  0  0  0  0  0  0  0  0  0  0  0
   48.6580    4.4700   45.3930 H   0  0  0  0  0  0  0  0  0  0  0  0
   52.5410    2.1630   43.4320 H   0  0  0  0  0  0  0  0  0  0  0  0
   44.4150   11.4110   42.1070 H   0  0  0  0  0  0  0  0  0  0  0  0
   43.7450   10.9620   45.4720 H   0  0  0  0  0  0  0  0  0  0  0  0
   44.9850   10.9490   44.1980 H   0  0  0  0  0  0  0  0  0  0  0  0
   43.9990   12.4060   44.3570 H   0  0  0  0  0  0  0  0  0  0  0  0
  2  1  1  0  0  0  0
  3 35  1  0  0  0  0
  3  2  2  0  0  0  0
  4  3  1  0  0  0  0
  5  4  1  0  0  0  0
  5  7  1  0  0  0  0
  6  5  2  0  0  0  0
  7  8  1  0  0  0  0
  8  2  1  0  0  0  0
  8  9  2  0  0  0  0
 10 37  1  6  0  0  0
 10 15  1  0  0  0  0
 10  4  1  0  0  0  0
 11 33  1  6  0  0  0
 11 10  1  0  0  0  0
 11 34  1  0  0  0  0
 12 11  1  0  0  0  0
 12 13  1  0  0  0  0
 13 14  1  1  0  0  0
 13 16  1  0  0  0  0
 15 40  1  0  0  0  0
 15 14  1  0  0  0  0
 16 43  1  0  0  0  0
 17 16  1  0  0  0  0
 17 45  1  0  0  0  0
 17 44  1  0  0  0  0
 18 17  1  0  0  0  0
 19 18  1  0  0  0  0
 19 20  1  0  0  0  0
 20 13  1  0  0  0  0
 20 48  1  0  0  0  0
 21 23  1  0  0  0  0
 21 18  1  0  0  0  0
 22 21  2  0  0  0  0
 23 50  1  6  0  0  0
 23 25  1  0  0  0  0
 23 24  1  0  0  0  0
 24 51  1  0  0  0  0
 25 53  1  0  0  0  0
 26 25  1  0  0  0  0
 26 31  1  0  0  0  0
 27 26  2  0  0  0  0
 28 27  1  0  0  0  0
 28 29  2  0  0  0  0
 29 30  1  0  0  0  0
 30 31  2  0  0  0  0
 30 57  1  0  0  0  0
 31 58  1  0  0  0  0
 32 29  1  0  0  0  0
 32 59  1  0  0  0  0
 34 61  1  0  0  0  0
 36  7  1  0  0  0  0
 38 12  1  0  0  0  0
 39 12  1  0  0  0  0
 41 15  1  0  0  0  0
 42 16  1  0  0  0  0
 46 19  1  0  0  0  0
 47 19  1  0  0  0  0
 49 20  1  0  0  0  0
 52 24  1  0  0  0  0
 54 25  1  0  0  0  0
 55 27  1  0  0  0  0
 56 28  1  0  0  0  0
 60 33  1  0  0  0  0
 62 34  1  0  0  0  0
 63 34  1  0  0  0  0
M  END
>  <Pose>
1

>  <Score>
-6.45

$$$$
