
 OpenBabel03172210433D

 37 40  0  0  1  0  0  0  0  0999 V2000
   41.8280    7.5800   45.6090 B   0  0  0  0  0  0  0  0  0  0  0  0
   43.3310    7.1620   44.4870 C   0  0  0  0  0  0  0  0  0  0  0  0
   43.9520    5.9340   44.5420 C   0  0  0  0  0  0  0  0  0  0  0  0
   45.0160    5.6240   43.7560 N   0  0  0  0  0  0  0  0  0  0  0  0
   45.7710    4.5450   43.6190 N   0  0  0  0  0  0  0  0  0  0  0  0
   46.7240    4.7200   42.6920 C   0  0  0  0  0  0  0  0  0  0  0  0
   46.5150    6.0210   42.2350 C   0  0  0  0  0  0  0  0  0  0  0  0
   45.4450    6.5760   42.9080 C   0  0  0  0  0  0  0  0  0  0  0  0
   44.8400    7.7910   42.8440 N   0  0  0  0  0  0  0  0  0  0  0  0
   43.7890    8.1200   43.6100 C   0  0  0  0  0  0  0  0  0  0  0  0
   47.7670    3.7970   42.2230 C   0  0  0  0  0  0  0  0  0  0  0  0
   47.8040    3.4790   41.0040 O   0  0  0  0  0  0  0  0  0  0  0  0
   48.7460    3.2440   43.0880 N   0  0  0  0  0  0  0  0  0  0  0  0
   48.8960    3.7450   44.4050 C   0  0  0  0  0  0  0  0  0  0  0  0
   50.2610    3.5800   44.9600 C   0  0  2  0  0  0  0  0  0  0  0  0
   51.2100    2.9220   44.1080 N   0  0  2  0  0  0  0  0  0  0  0  0
   50.6510    1.7210   43.5170 C   0  0  0  0  0  0  0  0  0  0  0  0
   49.5570    2.1760   42.5700 C   0  0  0  0  0  0  0  0  0  0  0  0
   52.3330    2.6930   44.9650 C   0  0  0  0  0  0  0  0  0  0  0  0
   51.7460    2.3460   46.3110 C   0  0  0  0  0  0  0  0  0  0  0  0
   50.2810    2.7090   46.2050 C   0  0  0  0  0  0  0  0  0  0  0  0
   43.5750    5.2000   45.2370 H   0  0  0  0  0  0  0  0  0  0  0  0
   47.1300    6.4700   41.4690 H   0  0  0  0  0  0  0  0  0  0  0  0
   43.3070    9.1010   43.5520 H   0  0  0  0  0  0  0  0  0  0  0  0
   48.1530    3.2550   45.0790 H   0  0  0  0  0  0  0  0  0  0  0  0
   48.5950    4.8380   44.4310 H   0  0  0  0  0  0  0  0  0  0  0  0
   50.6970    4.5720   45.2210 H   0  0  0  0  0  0  0  0  0  0  0  0
   51.4510    1.2500   42.9140 H   0  0  0  0  0  0  0  0  0  0  0  0
   50.3100    0.9840   44.2540 H   0  0  0  0  0  0  0  0  0  0  0  0
   48.8930    1.3260   42.3080 H   0  0  0  0  0  0  0  0  0  0  0  0
   50.0400    2.4900   41.5920 H   0  0  0  0  0  0  0  0  0  0  0  0
   52.8930    3.6680   45.0350 H   0  0  0  0  0  0  0  0  0  0  0  0
   53.0170    1.9050   44.5940 H   0  0  0  0  0  0  0  0  0  0  0  0
   51.9050    1.2680   46.5150 H   0  0  0  0  0  0  0  0  0  0  0  0
   52.2470    2.9070   47.1280 H   0  0  0  0  0  0  0  0  0  0  0  0
   49.9100    3.2620   47.0790 H   0  0  0  0  0  0  0  0  0  0  0  0
   49.6570    1.8160   46.0140 H   0  0  0  0  0  0  0  0  0  0  0  0
  2  3  2  0  0  0  0
  2  1  1  0  0  0  0
  3 22  1  0  0  0  0
  4  3  1  0  0  0  0
  5  4  1  0  0  0  0
  6  5  2  0  0  0  0
  7  6  1  0  0  0  0
  7  8  2  0  0  0  0
  8  4  1  0  0  0  0
  9  8  1  0  0  0  0
  9 10  2  0  0  0  0
 10  2  1  0  0  0  0
 11  6  1  0  0  0  0
 11 13  1  0  0  0  0
 12 11  2  0  0  0  0
 13 14  1  0  0  0  0
 14 26  1  0  0  0  0
 14 15  1  0  0  0  0
 14 25  1  0  0  0  0
 15 27  1  1  0  0  0
 15 21  1  0  0  0  0
 16 17  1  1  0  0  0
 16 15  1  0  0  0  0
 16 19  1  0  0  0  0
 17 29  1  0  0  0  0
 18 13  1  0  0  0  0
 18 17  1  0  0  0  0
 19 32  1  0  0  0  0
 19 20  1  0  0  0  0
 20 34  1  0  0  0  0
 20 35  1  0  0  0  0
 21 20  1  0  0  0  0
 21 36  1  0  0  0  0
 23  7  1  0  0  0  0
 24 10  1  0  0  0  0
 28 17  1  0  0  0  0
 30 18  1  0  0  0  0
 31 18  1  0  0  0  0
 33 19  1  0  0  0  0
 37 21  1  0  0  0  0
M  END
>  <Pose>
1

>  <Score>
-5.75

$$$$
