
 OpenBabel03172210433D

 56 59  0  0  1  0  0  0  0  0999 V2000
   37.3620   12.6030   45.5340 B   0  0  0  0  0  0  0  0  0  0  0  0
   39.0270   11.8790   44.8950 C   0  0  0  0  0  0  0  0  0  0  0  0
   39.7160   12.5250   43.8840 C   0  0  0  0  0  0  0  0  0  0  0  0
   40.9200   12.0060   43.4170 C   0  0  0  0  0  0  0  0  0  0  0  0
   41.4540   10.8520   43.9420 C   0  0  0  0  0  0  0  0  0  0  0  0
   40.7420   10.2350   44.9460 C   0  0  0  0  0  0  0  0  0  0  0  0
   39.5510   10.7240   45.4260 C   0  0  0  0  0  0  0  0  0  0  0  0
   42.7050   10.3010   43.4680 C   0  0  0  0  0  0  0  0  0  0  0  0
   43.7890   10.8290   43.8310 O   0  0  0  0  0  0  0  0  0  0  0  0
   42.7820    9.1250   42.5600 C   0  0  0  0  0  0  0  0  0  0  0  0
   43.6370    8.1030   43.0840 N   0  0  0  0  0  0  0  0  0  0  0  0
   44.9050    7.9120   42.7970 N   0  0  0  0  0  0  0  0  0  0  0  0
   45.3890    6.8600   43.4730 C   0  0  0  0  0  0  0  0  0  0  0  0
   44.3810    6.3740   44.2120 N   0  0  0  0  0  0  0  0  0  0  0  0
   43.2900    7.1570   43.9640 C   0  0  2  0  0  0  0  0  0  0  0  0
   41.9620    6.9950   44.5530 C   0  0  0  0  0  0  0  0  0  0  0  0
   41.9720    7.0680   46.0620 C   0  0  0  0  0  0  0  0  0  0  0  0
   42.5860    5.8330   46.6830 C   0  0  0  0  0  0  0  0  0  0  0  0
   44.0690    5.7500   46.4890 C   0  0  0  0  0  0  0  0  0  0  0  0
   44.4420    5.2340   45.1060 C   0  0  0  0  0  0  0  0  0  0  0  0
   46.7520    6.3140   43.4370 C   0  0  0  0  0  0  0  0  0  0  0  0
   46.8410    5.0150   44.0290 N   0  0  0  0  0  0  0  0  0  0  0  0
   47.8300    4.0590   43.6570 C   0  0  0  0  0  0  0  0  0  0  0  0
   48.9810    3.8700   44.3870 C   0  0  0  0  0  0  0  0  0  0  0  0
   49.9230    2.9430   44.0220 C   0  0  0  0  0  0  0  0  0  0  0  0
   49.7250    2.1860   42.9100 C   0  0  0  0  0  0  0  0  0  0  0  0
   48.5750    2.3730   42.1760 C   0  0  0  0  0  0  0  0  0  0  0  0
   47.6190    3.3020   42.5350 C   0  0  0  0  0  0  0  0  0  0  0  0
   50.6530    1.2500   42.5190 O   0  0  0  0  0  0  0  0  0  0  0  0
   52.0330    1.5140   42.4730 C   0  0  0  0  0  0  0  0  0  0  0  0
   39.2940   13.4250   43.4810 H   0  0  0  0  0  0  0  0  0  0  0  0
   41.4380   12.5260   42.6310 H   0  0  0  0  0  0  0  0  0  0  0  0
   41.1520    9.3110   45.3780 H   0  0  0  0  0  0  0  0  0  0  0  0
   39.0430   10.1990   46.2090 H   0  0  0  0  0  0  0  0  0  0  0  0
   41.7760    8.7550   42.2840 H   0  0  0  0  0  0  0  0  0  0  0  0
   43.2630    9.5110   41.6140 H   0  0  0  0  0  0  0  0  0  0  0  0
   41.2650    7.7740   44.1970 H   0  0  0  0  0  0  0  0  0  0  0  0
   41.4770    6.0110   44.2910 H   0  0  0  0  0  0  0  0  0  0  0  0
   42.4370    7.9710   46.4570 H   0  0  0  0  0  0  0  0  0  0  0  0
   40.9010    7.0830   46.3840 H   0  0  0  0  0  0  0  0  0  0  0  0
   42.0700    4.9190   46.3820 H   0  0  0  0  0  0  0  0  0  0  0  0
   42.4130    5.9350   47.7930 H   0  0  0  0  0  0  0  0  0  0  0  0
   44.5550    6.7140   46.6280 H   0  0  0  0  0  0  0  0  0  0  0  0
   44.4680    5.0350   47.2590 H   0  0  0  0  0  0  0  0  0  0  0  0
   43.7920    4.4050   44.7880 H   0  0  0  0  0  0  0  0  0  0  0  0
   45.4770    4.8620   45.1420 H   0  0  0  0  0  0  0  0  0  0  0  0
   47.4210    7.0240   43.9910 H   0  0  0  0  0  0  0  0  0  0  0  0
   47.1400    6.2700   42.4060 H   0  0  0  0  0  0  0  0  0  0  0  0
   46.1720    4.7330   44.7600 H   0  0  0  0  0  0  0  0  0  0  0  0
   49.0900    4.5060   45.2750 H   0  0  0  0  0  0  0  0  0  0  0  0
   50.8050    2.8300   44.6240 H   0  0  0  0  0  0  0  0  0  0  0  0
   48.3860    1.7800   41.2780 H   0  0  0  0  0  0  0  0  0  0  0  0
   46.7060    3.4340   41.9370 H   0  0  0  0  0  0  0  0  0  0  0  0
   52.5600    0.7390   41.9020 H   0  0  0  0  0  0  0  0  0  0  0  0
   52.1860    2.4970   41.9830 H   0  0  0  0  0  0  0  0  0  0  0  0
   52.4730    1.5800   43.4940 H   0  0  0  0  0  0  0  0  0  0  0  0
  2  7  1  0  0  0  0
  2  1  1  0  0  0  0
  3  2  2  0  0  0  0
  4  3  1  0  0  0  0
  4  5  2  0  0  0  0
  5  6  1  0  0  0  0
  6 33  1  0  0  0  0
  6  7  2  0  0  0  0
  7 34  1  0  0  0  0
  8  9  2  0  0  0  0
  8  5  1  0  0  0  0
 10 11  1  0  0  0  0
 10  8  1  0  0  0  0
 12 11  1  0  0  0  0
 12 13  2  0  0  0  0
 13 14  1  0  0  0  0
 14 20  1  0  0  0  0
 15 11  1  6  0  0  0
 15 14  1  0  0  0  0
 15 16  1  0  0  0  0
 16 17  1  0  0  0  0
 17 40  1  0  0  0  0
 17 39  1  0  0  0  0
 17 18  1  0  0  0  0
 18 42  1  0  0  0  0
 19 43  1  0  0  0  0
 19 18  1  0  0  0  0
 19 44  1  0  0  0  0
 20 46  1  0  0  0  0
 20 19  1  0  0  0  0
 21 13  1  0  0  0  0
 21 47  1  0  0  0  0
 21 22  1  0  0  0  0
 22 49  1  0  0  0  0
 23 22  1  0  0  0  0
 23 24  1  0  0  0  0
 24 50  1  0  0  0  0
 25 24  2  0  0  0  0
 25 51  1  0  0  0  0
 26 25  1  0  0  0  0
 27 28  1  0  0  0  0
 27 26  2  0  0  0  0
 28 23  2  0  0  0  0
 29 26  1  0  0  0  0
 30 29  1  0  0  0  0
 30 56  1  0  0  0  0
 31  3  1  0  0  0  0
 32  4  1  0  0  0  0
 35 10  1  0  0  0  0
 36 10  1  0  0  0  0
 37 16  1  0  0  0  0
 38 16  1  0  0  0  0
 41 18  1  0  0  0  0
 45 20  1  0  0  0  0
 48 21  1  0  0  0  0
 52 27  1  0  0  0  0
 53 28  1  0  0  0  0
 54 30  1  0  0  0  0
 55 30  1  0  0  0  0
M  END
>  <Pose>
1

>  <Score>
-5.47

$$$$
