
 OpenBabel03172210433D

 50 53  0  0  1  0  0  0  0  0999 V2000
   47.1360    7.3400   42.9860 B   0  0  0  0  0  0  0  0  0  0  0  0
   45.3510    7.4500   43.6690 C   0  0  0  0  0  0  0  0  0  0  0  0
   44.6800    6.2930   43.9930 C   0  0  0  0  0  0  0  0  0  0  0  0
   43.3780    6.3410   44.4920 C   0  0  0  0  0  0  0  0  0  0  0  0
   42.8010    7.6050   44.6420 C   0  0  0  0  0  0  0  0  0  0  0  0
   43.4550    8.7540   44.3240 C   0  0  0  0  0  0  0  0  0  0  0  0
   44.7460    8.6860   43.8290 C   0  0  0  0  0  0  0  0  0  0  0  0
   41.4390    7.6900   45.2050 C   0  0  1  0  0  0  0  0  0  0  0  0
   41.4350    8.5050   46.4120 N   0  0  0  0  0  0  0  0  0  0  0  0
   42.5770    8.5770   47.3160 C   0  0  0  0  0  0  0  0  0  0  0  0
   42.2540    9.2100   48.6200 C   0  0  0  0  0  0  0  0  0  0  0  0
   41.0500    8.6210   49.3080 C   0  0  0  0  0  0  0  0  0  0  0  0
   39.8820    9.5220   48.9520 C   0  0  0  0  0  0  0  0  0  0  0  0
   39.5230    9.5600   47.5650 C   0  0  0  0  0  0  0  0  0  0  0  0
   40.1880    9.1240   46.4710 C   0  0  0  0  0  0  0  0  0  0  0  0
   39.6390    9.2840   45.1830 N   0  0  0  0  0  4  0  0  0  0  0  0
   40.4870    8.4680   44.3640 C   0  0  0  0  0  0  0  0  0  0  0  0
   39.7540   10.6730   44.8730 C   0  0  0  0  0  0  0  0  0  0  0  0
   38.6740   11.5250   45.0280 C   0  0  0  0  0  0  0  0  0  0  0  0
   38.8660   12.8410   44.6260 C   0  0  0  0  0  0  0  0  0  0  0  0
   40.0460   13.3260   44.0930 C   0  0  0  0  0  0  0  0  0  0  0  0
   41.1180   12.4190   43.9540 C   0  0  0  0  0  0  0  0  0  0  0  0
   40.9190   11.1460   44.3500 C   0  0  0  0  0  0  0  0  0  0  0  0
   37.5080   11.0610   45.5540 O   0  0  0  0  0  0  0  0  0  0  0  0
   36.2640   11.3870   44.9910 C   0  0  0  0  0  0  0  0  0  0  0  0
   40.9930    6.4410   45.5520 O   0  0  0  0  0  0  0  0  0  0  0  0
   45.1350    5.3070   43.8790 H   0  0  0  0  0  0  0  0  0  0  0  0
   42.9070    5.4110   44.7480 H   0  0  0  0  0  0  0  0  0  0  0  0
   42.9860    9.7460   44.4470 H   0  0  0  0  0  0  0  0  0  0  0  0
   45.2670    9.6190   43.5700 H   0  0  0  0  0  0  0  0  0  0  0  0
   42.8990    7.5300   47.5110 H   0  0  0  0  0  0  0  0  0  0  0  0
   43.3940    9.2090   46.8700 H   0  0  0  0  0  0  0  0  0  0  0  0
   43.1190    9.0320   49.3160 H   0  0  0  0  0  0  0  0  0  0  0  0
   42.1730   10.3050   48.4600 H   0  0  0  0  0  0  0  0  0  0  0  0
   41.1610    8.7050   50.4410 H   0  0  0  0  0  0  0  0  0  0  0  0
   40.8430    7.5770   48.9970 H   0  0  0  0  0  0  0  0  0  0  0  0
   40.1660   10.5590   49.3230 H   0  0  0  0  0  0  0  0  0  0  0  0
   39.0080    9.1960   49.5800 H   0  0  0  0  0  0  0  0  0  0  0  0
   38.5640   10.0010   47.3450 H   0  0  0  0  0  0  0  0  0  0  0  0
   38.6540    8.9440   45.0870 H   0  0  0  0  0  0  0  0  0  0  0  0
   40.9970    9.0490   43.5630 H   0  0  0  0  0  0  0  0  0  0  0  0
   39.8520    7.7550   43.8130 H   0  0  0  0  0  0  0  0  0  0  0  0
   38.0010   13.4880   44.7530 H   0  0  0  0  0  0  0  0  0  0  0  0
   40.1830   14.3470   43.7870 H   0  0  0  0  0  0  0  0  0  0  0  0
   42.0300   12.7800   43.5360 H   0  0  0  0  0  0  0  0  0  0  0  0
   41.7950   10.4790   44.1990 H   0  0  0  0  0  0  0  0  0  0  0  0
   36.2110   12.4860   44.8310 H   0  0  0  0  0  0  0  0  0  0  0  0
   36.1760   10.8630   44.0290 H   0  0  0  0  0  0  0  0  0  0  0  0
   35.4550   11.0660   45.7150 H   0  0  0  0  0  0  0  0  0  0  0  0
   40.1380    6.1910   45.1450 H   0  0  0  0  0  0  0  0  0  0  0  0
  1  2  1  0  0  0  0
  2  7  2  0  0  0  0
  2  3  1  0  0  0  0
  3  4  2  0  0  0  0
  4  5  1  0  0  0  0
  4 28  1  0  0  0  0
  5  8  1  0  0  0  0
  6 29  1  0  0  0  0
  6  5  2  0  0  0  0
  7  6  1  0  0  0  0
  8 26  1  1  0  0  0
  8  9  1  0  0  0  0
  9 15  1  0  0  0  0
  9 10  1  0  0  0  0
 10 31  1  0  0  0  0
 10 11  1  0  0  0  0
 11 12  1  0  0  0  0
 11 33  1  0  0  0  0
 12 35  1  0  0  0  0
 13 12  1  0  0  0  0
 13 37  1  0  0  0  0
 13 38  1  0  0  0  0
 14 13  1  0  0  0  0
 15 14  2  0  0  0  0
 16 15  1  0  0  0  0
 17 16  1  0  0  0  0
 17  8  1  0  0  0  0
 18 19  1  0  0  0  0
 18 16  1  0  0  0  0
 19 24  1  0  0  0  0
 20 43  1  0  0  0  0
 20 19  2  0  0  0  0
 21 20  1  0  0  0  0
 22 21  2  0  0  0  0
 22 23  1  0  0  0  0
 23 18  2  0  0  0  0
 25 24  1  0  0  0  0
 25 49  1  0  0  0  0
 27  3  1  0  0  0  0
 30  7  1  0  0  0  0
 32 10  1  0  0  0  0
 34 11  1  0  0  0  0
 36 12  1  0  0  0  0
 39 14  1  0  0  0  0
 40 16  1  0  0  0  0
 41 17  1  0  0  0  0
 42 17  1  0  0  0  0
 44 21  1  0  0  0  0
 45 22  1  0  0  0  0
 46 23  1  0  0  0  0
 47 25  1  0  0  0  0
 48 25  1  0  0  0  0
 50 26  1  0  0  0  0
M  END
>  <Pose>
1

>  <Score>
-4.35

$$$$
