
 OpenBabel03172210433D

 47 50  0  0  1  0  0  0  0  0999 V2000
   47.5640    4.5690   42.7640 B   0  0  0  0  0  0  0  0  0  0  0  0
   45.9580    5.5560   43.0580 C   0  0  0  0  0  0  0  0  0  0  0  0
   44.9960    5.1300   43.9540 C   0  0  0  0  0  0  0  0  0  0  0  0
   43.8420    5.8580   44.1550 C   0  0  0  0  0  0  0  0  0  0  0  0
   43.5740    7.0360   43.4890 C   0  0  0  0  0  0  0  0  0  0  0  0
   44.5470    7.4560   42.5900 C   0  0  0  0  0  0  0  0  0  0  0  0
   45.7070    6.7320   42.3830 C   0  0  0  0  0  0  0  0  0  0  0  0
   42.3330    7.7630   43.7450 C   0  0  2  0  0  0  0  0  0  0  0  0
   42.4970    9.1750   43.9840 N   0  0  0  0  0  0  0  0  0  0  0  0
   43.4320   10.2050   43.5530 C   0  0  0  0  0  0  0  0  0  0  0  0
   42.8650   11.5690   43.4720 C   0  0  0  0  0  0  0  0  0  0  0  0
   41.3830   11.6790   43.7300 C   0  0  0  0  0  0  0  0  0  0  0  0
   40.9030   10.7440   44.7440 C   0  0  0  0  0  0  0  0  0  0  0  0
   41.4420    9.5450   44.8600 C   0  0  0  0  0  0  0  0  0  0  0  0
   41.1920    8.4470   45.7320 N   0  0  0  0  0  4  0  0  0  0  0  0
   41.6200    7.2990   44.9940 C   0  0  0  0  0  0  0  0  0  0  0  0
   41.8470    8.6660   46.9370 C   0  0  0  0  0  0  0  0  0  0  0  0
   43.1250    9.1740   46.9600 C   0  0  0  0  0  0  0  0  0  0  0  0
   43.7860    9.3940   48.1800 C   0  0  0  0  0  0  0  0  0  0  0  0
   43.1910    9.1140   49.3780 C   0  0  0  0  0  0  0  0  0  0  0  0
   41.8830    8.5940   49.3510 C   0  0  0  0  0  0  0  0  0  0  0  0
   41.2610    8.3900   48.1360 C   0  0  0  0  0  0  0  0  0  0  0  0
   43.7870    9.3070   50.6230 O   0  0  0  0  0  0  0  0  0  0  0  0
   44.9660    8.7240   51.0740 C   0  0  0  0  0  0  0  0  0  0  0  0
   41.5030    7.6300   42.6130 O   0  0  0  0  0  0  0  0  0  0  0  0
   45.2000    4.2050   44.4800 H   0  0  0  0  0  0  0  0  0  0  0  0
   43.0950    5.5000   44.8690 H   0  0  0  0  0  0  0  0  0  0  0  0
   44.3700    8.3700   42.0530 H   0  0  0  0  0  0  0  0  0  0  0  0
   46.4730    7.0580   41.6810 H   0  0  0  0  0  0  0  0  0  0  0  0
   43.8640    9.9370   42.5480 H   0  0  0  0  0  0  0  0  0  0  0  0
   44.3380   10.2190   44.2250 H   0  0  0  0  0  0  0  0  0  0  0  0
   43.1380   12.0660   42.5030 H   0  0  0  0  0  0  0  0  0  0  0  0
   43.3470   12.2280   44.2530 H   0  0  0  0  0  0  0  0  0  0  0  0
   41.0910   12.7110   44.0140 H   0  0  0  0  0  0  0  0  0  0  0  0
   40.8740   11.4790   42.7470 H   0  0  0  0  0  0  0  0  0  0  0  0
   40.1070   11.0360   45.3990 H   0  0  0  0  0  0  0  0  0  0  0  0
   40.1480    8.4180   45.8880 H   0  0  0  0  0  0  0  0  0  0  0  0
   40.7260    6.7310   44.6540 H   0  0  0  0  0  0  0  0  0  0  0  0
   42.2220    6.5850   45.5840 H   0  0  0  0  0  0  0  0  0  0  0  0
   43.6710    9.4250   46.0660 H   0  0  0  0  0  0  0  0  0  0  0  0
   44.7930    9.7970   48.1840 H   0  0  0  0  0  0  0  0  0  0  0  0
   41.4120    8.3740   50.3020 H   0  0  0  0  0  0  0  0  0  0  0  0
   40.2700    7.9950   48.1420 H   0  0  0  0  0  0  0  0  0  0  0  0
   45.4630    8.0770   50.3610 H   0  0  0  0  0  0  0  0  0  0  0  0
   44.8020    8.2470   52.0700 H   0  0  0  0  0  0  0  0  0  0  0  0
   45.7000    9.5560   51.2880 H   0  0  0  0  0  0  0  0  0  0  0  0
   40.5790    7.5800   42.9620 H   0  0  0  0  0  0  0  0  0  0  0  0
  1  2  1  0  0  0  0
  2  3  1  0  0  0  0
  3  4  2  0  0  0  0
  3 26  1  0  0  0  0
  4 27  1  0  0  0  0
  5  8  1  0  0  0  0
  5  4  1  0  0  0  0
  6  5  2  0  0  0  0
  7  6  1  0  0  0  0
  7  2  2  0  0  0  0
  8 25  1  6  0  0  0
  8  9  1  0  0  0  0
  8 16  1  0  0  0  0
  9 14  1  0  0  0  0
 10  9  1  0  0  0  0
 10 31  1  0  0  0  0
 11 10  1  0  0  0  0
 11 12  1  0  0  0  0
 11 33  1  0  0  0  0
 12 34  1  0  0  0  0
 12 13  1  0  0  0  0
 13 14  2  0  0  0  0
 13 36  1  0  0  0  0
 14 15  1  0  0  0  0
 15 37  1  0  0  0  0
 15 17  1  0  0  0  0
 16 39  1  0  0  0  0
 16 15  1  0  0  0  0
 17 18  2  0  0  0  0
 17 22  1  0  0  0  0
 18 19  1  0  0  0  0
 19 41  1  0  0  0  0
 19 20  2  0  0  0  0
 20 23  1  0  0  0  0
 21 20  1  0  0  0  0
 21 42  1  0  0  0  0
 22 43  1  0  0  0  0
 22 21  2  0  0  0  0
 23 24  1  0  0  0  0
 24 46  1  0  0  0  0
 24 45  1  0  0  0  0
 25 47  1  0  0  0  0
 28  6  1  0  0  0  0
 29  7  1  0  0  0  0
 30 10  1  0  0  0  0
 32 11  1  0  0  0  0
 35 12  1  0  0  0  0
 38 16  1  0  0  0  0
 40 18  1  0  0  0  0
 44 24  1  0  0  0  0
M  END
>  <Pose>
1

>  <Score>
-4.96

$$$$
