
 OpenBabel03172210433D

 53 56  0  0  1  0  0  0  0  0999 V2000
   45.7600    6.2300   42.7820 B   0  0  0  0  0  0  0  0  0  0  0  0
   44.2820    7.2670   43.4260 C   0  0  0  0  0  0  0  0  0  0  0  0
   43.5800    6.8940   44.5500 C   0  0  0  0  0  0  0  0  0  0  0  0
   42.5040    7.6470   44.9960 C   0  0  0  0  0  0  0  0  0  0  0  0
   42.0820    8.8020   44.3410 C   0  0  0  0  0  0  0  0  0  0  0  0
   42.8110    9.1280   43.2360 C   0  0  0  0  0  0  0  0  0  0  0  0
   43.8950    8.3920   42.7650 C   0  0  0  0  0  0  0  0  0  0  0  0
   40.9880    9.4900   44.8220 N   0  0  0  0  0  4  0  0  0  0  0  0
   40.5740   10.6680   44.1200 C   0  0  1  0  0  0  0  0  0  0  0  0
   41.6190   11.6590   44.6320 C   0  0  0  0  0  0  0  0  0  0  0  0
   41.7550   11.2890   46.0500 N   0  0  0  0  0  0  0  0  0  0  0  0
   42.3170   12.1930   46.9890 C   0  0  0  0  0  0  0  0  0  0  0  0
   42.3370   11.7030   48.4060 C   0  0  0  0  0  0  0  0  0  0  0  0
   40.9720   11.1890   48.7750 C   0  0  0  0  0  0  0  0  0  0  0  0
   41.0720    9.6620   48.6440 C   0  0  0  0  0  0  0  0  0  0  0  0
   40.9020    9.3010   47.2220 C   0  0  0  0  0  0  0  0  0  0  0  0
   41.2100    9.9730   46.1360 C   0  0  0  0  0  0  0  0  0  0  0  0
   40.4560   10.5890   42.7690 O   0  0  0  0  0  0  0  0  0  0  0  0
   39.2700   11.1870   44.6250 C   0  0  0  0  0  0  0  0  0  0  0  0
   38.2980   10.4310   45.2090 C   0  0  0  0  0  0  0  0  0  0  0  0
   37.0870   10.9860   45.6730 C   0  0  0  0  0  0  0  0  0  0  0  0
   36.8380   12.3320   45.5520 C   0  0  0  0  0  0  0  0  0  0  0  0
   37.8110   13.1050   44.9640 C   0  0  0  0  0  0  0  0  0  0  0  0
   38.9900   12.5590   44.5120 C   0  0  0  0  0  0  0  0  0  0  0  0
   35.6380   12.8960   46.0150 O   0  0  0  0  0  0  0  0  0  0  0  0
   34.4050   12.6160   45.3950 C   0  0  0  0  0  0  0  0  0  0  0  0
   34.3860   13.0050   43.9510 C   0  0  0  0  0  0  0  0  0  0  0  0
   43.9220    5.9960   45.0470 H   0  0  0  0  0  0  0  0  0  0  0  0
   42.0120    7.2810   45.8820 H   0  0  0  0  0  0  0  0  0  0  0  0
   42.5690    9.9830   42.6610 H   0  0  0  0  0  0  0  0  0  0  0  0
   44.4230    8.7360   41.8580 H   0  0  0  0  0  0  0  0  0  0  0  0
   40.1770    8.7990   44.7680 H   0  0  0  0  0  0  0  0  0  0  0  0
   42.5570   11.6590   44.1100 H   0  0  0  0  0  0  0  0  0  0  0  0
   41.2610   12.6990   44.6580 H   0  0  0  0  0  0  0  0  0  0  0  0
   43.3640   12.4160   46.6960 H   0  0  0  0  0  0  0  0  0  0  0  0
   41.6910   13.1430   46.9850 H   0  0  0  0  0  0  0  0  0  0  0  0
   43.1260   10.9300   48.4840 H   0  0  0  0  0  0  0  0  0  0  0  0
   42.5390   12.5790   49.0510 H   0  0  0  0  0  0  0  0  0  0  0  0
   40.6400   11.4620   49.7880 H   0  0  0  0  0  0  0  0  0  0  0  0
   40.1720   11.4890   48.0670 H   0  0  0  0  0  0  0  0  0  0  0  0
   42.0560    9.2890   48.9900 H   0  0  0  0  0  0  0  0  0  0  0  0
   40.2980    9.2170   49.3050 H   0  0  0  0  0  0  0  0  0  0  0  0
   40.4230    8.3510   47.0860 H   0  0  0  0  0  0  0  0  0  0  0  0
   39.5530   10.7600   42.4440 H   0  0  0  0  0  0  0  0  0  0  0  0
   38.4430    9.3740   45.3100 H   0  0  0  0  0  0  0  0  0  0  0  0
   36.3580   10.3280   46.1250 H   0  0  0  0  0  0  0  0  0  0  0  0
   37.5870   14.1800   44.8860 H   0  0  0  0  0  0  0  0  0  0  0  0
   39.7450   13.1850   44.0410 H   0  0  0  0  0  0  0  0  0  0  0  0
   33.6380   13.2590   45.9240 H   0  0  0  0  0  0  0  0  0  0  0  0
   34.0410   11.5770   45.5780 H   0  0  0  0  0  0  0  0  0  0  0  0
   35.2620   13.6430   43.6800 H   0  0  0  0  0  0  0  0  0  0  0  0
   33.4670   13.5360   43.6320 H   0  0  0  0  0  0  0  0  0  0  0  0
   34.3740   12.0510   43.3480 H   0  0  0  0  0  0  0  0  0  0  0  0
  1  2  1  0  0  0  0
  2  3  1  0  0  0  0
  3  4  2  0  0  0  0
  3 28  1  0  0  0  0
  4 29  1  0  0  0  0
  5  8  1  0  0  0  0
  5  4  1  0  0  0  0
  6  5  2  0  0  0  0
  7  6  1  0  0  0  0
  7  2  2  0  0  0  0
  8 17  1  0  0  0  0
  9 18  1  6  0  0  0
  9 19  1  0  0  0  0
  9 10  1  0  0  0  0
  9  8  1  0  0  0  0
 10 34  1  0  0  0  0
 10 11  1  0  0  0  0
 11 17  1  0  0  0  0
 11 12  1  0  0  0  0
 12 13  1  0  0  0  0
 13 37  1  0  0  0  0
 13 14  1  0  0  0  0
 13 38  1  0  0  0  0
 14 39  1  0  0  0  0
 15 14  1  0  0  0  0
 15 41  1  0  0  0  0
 15 42  1  0  0  0  0
 16 15  1  0  0  0  0
 17 16  2  0  0  0  0
 19 20  1  0  0  0  0
 20 45  1  0  0  0  0
 20 21  2  0  0  0  0
 21 46  1  0  0  0  0
 22 21  1  0  0  0  0
 22 25  1  0  0  0  0
 23 22  2  0  0  0  0
 24 19  2  0  0  0  0
 24 23  1  0  0  0  0
 26 50  1  0  0  0  0
 26 49  1  0  0  0  0
 26 25  1  0  0  0  0
 27 26  1  0  0  0  0
 30  6  1  0  0  0  0
 31  7  1  0  0  0  0
 32  8  1  0  0  0  0
 33 10  1  0  0  0  0
 35 12  1  0  0  0  0
 36 12  1  0  0  0  0
 40 14  1  0  0  0  0
 43 16  1  0  0  0  0
 44 18  1  0  0  0  0
 47 23  1  0  0  0  0
 48 24  1  0  0  0  0
 51 27  1  0  0  0  0
 52 27  1  0  0  0  0
 53 27  1  0  0  0  0
M  END
>  <Pose>
1

>  <Score>
-5.35

$$$$
