
 OpenBabel03172210433D

 66 69  0  0  1  0  0  0  0  0999 V2000
   39.0160   11.0650   49.6670 B   0  0  0  0  0  0  0  0  0  0  0  0
   38.8660   10.8110   47.7740 C   0  0  0  0  0  0  0  0  0  0  0  0
   39.9840   10.5120   47.0330 C   0  0  0  0  0  0  0  0  0  0  0  0
   39.9170   10.3180   45.6430 C   0  0  0  0  0  0  0  0  0  0  0  0
   38.6730   10.4450   45.0640 C   0  0  0  0  0  0  0  0  0  0  0  0
   37.5370   10.7450   45.7840 C   0  0  0  0  0  0  0  0  0  0  0  0
   37.6270   10.9300   47.1440 C   0  0  0  0  0  0  0  0  0  0  0  0
   36.4620   11.2560   48.0060 C   0  0  0  0  0  0  0  0  0  0  0  0
   35.8270   10.9140   44.9550 B   0  0  0  0  0  0  0  0  0  0  0  0
   41.1210   10.0070   44.9010 C   0  0  0  0  0  0  0  0  0  0  0  0
   41.0570    9.7330   43.6970 O   0  0  0  0  0  0  0  0  0  0  0  0
   42.4220   10.0180   45.5920 C   0  0  1  0  0  0  0  0  0  0  0  0
   42.1770    9.5630   47.0140 C   0  0  0  0  0  0  0  0  0  0  0  0
   41.2230   10.3910   47.6540 O   0  0  0  0  0  0  0  0  0  0  0  0
   43.4700    9.1860   44.9180 C   0  0  0  0  0  0  0  0  0  0  0  0
   43.2750    8.9360   43.5420 N   0  0  0  0  0  4  0  0  0  0  0  0
   44.4320    8.2940   42.9920 C   0  0  0  0  0  0  0  0  0  0  0  0
   44.6380    6.8850   43.4160 C   0  0  2  0  0  0  0  0  0  0  0  0
   43.5340    6.2470   44.1670 C   0  0  0  0  0  0  0  0  0  0  0  0
   42.1860    6.8270   43.9880 C   0  0  0  0  0  0  0  0  0  0  0  0
   42.1470    8.1100   43.2110 C   0  0  0  0  0  0  0  0  0  0  0  0
   45.8870    6.8470   44.3050 C   0  0  0  0  0  0  0  0  0  0  0  0
   42.8600   11.4680   45.6330 C   0  0  0  0  0  0  0  0  0  0  0  0
   44.1900   11.6900   46.0850 N   0  0  0  0  0  4  0  0  0  0  0  0
   44.2340   11.7000   47.5460 C   0  0  0  0  0  0  0  0  0  0  0  0
   44.2860   13.0880   48.1130 C   0  0  1  0  0  0  0  0  0  0  0  0
   43.3410   13.9850   47.3460 C   0  0  0  0  0  0  0  0  0  0  0  0
   43.8770   14.1300   45.9550 C   0  0  0  0  0  0  0  0  0  0  0  0
   44.7630   12.9470   45.6530 C   0  0  0  0  0  0  0  0  0  0  0  0
   43.7390   13.0090   49.5440 C   0  0  0  0  0  0  0  0  0  0  0  0
   38.5640   10.3050   43.9920 H   0  0  0  0  0  0  0  0  0  0  0  0
   36.3250   10.4160   48.7230 H   0  0  0  0  0  0  0  0  0  0  0  0
   35.5630   11.4990   47.4380 H   0  0  0  0  0  0  0  0  0  0  0  0
   36.7870   12.1280   48.6420 H   0  0  0  0  0  0  0  0  0  0  0  0
   41.7790    8.5380   47.0430 H   0  0  0  0  0  0  0  0  0  0  0  0
   43.1380    9.5280   47.6000 H   0  0  0  0  0  0  0  0  0  0  0  0
   44.4270    9.7370   45.0370 H   0  0  0  0  0  0  0  0  0  0  0  0
   43.5910    8.2510   45.5040 H   0  0  0  0  0  0  0  0  0  0  0  0
   43.1490    9.8430   43.0270 H   0  0  0  0  0  0  0  0  0  0  0  0
   44.3250    8.3620   41.8680 H   0  0  0  0  0  0  0  0  0  0  0  0
   45.3130    8.9290   43.2220 H   0  0  0  0  0  0  0  0  0  0  0  0
   44.9110    6.2860   42.5170 H   0  0  0  0  0  0  0  0  0  0  0  0
   43.4910    5.1620   43.8580 H   0  0  0  0  0  0  0  0  0  0  0  0
   43.7640    6.1880   45.2730 H   0  0  0  0  0  0  0  0  0  0  0  0
   41.6640    6.9800   44.9790 H   0  0  0  0  0  0  0  0  0  0  0  0
   41.4930    6.1160   43.4450 H   0  0  0  0  0  0  0  0  0  0  0  0
   41.1700    8.5720   43.2780 H   0  0  0  0  0  0  0  0  0  0  0  0
   42.2830    7.8200   42.1260 H   0  0  0  0  0  0  0  0  0  0  0  0
   46.4320    5.8790   44.1760 H   0  0  0  0  0  0  0  0  0  0  0  0
   46.5120    7.7260   44.1020 H   0  0  0  0  0  0  0  0  0  0  0  0
   45.5460    6.9100   45.3560 H   0  0  0  0  0  0  0  0  0  0  0  0
   42.1430   11.9780   46.3380 H   0  0  0  0  0  0  0  0  0  0  0  0
   42.6410   11.9510   44.6380 H   0  0  0  0  0  0  0  0  0  0  0  0
   44.8070   10.9320   45.7830 H   0  0  0  0  0  0  0  0  0  0  0  0
   45.0930   11.1280   47.9340 H   0  0  0  0  0  0  0  0  0  0  0  0
   43.3120   11.2190   47.9690 H   0  0  0  0  0  0  0  0  0  0  0  0
   45.3000   13.5000   48.2000 H   0  0  0  0  0  0  0  0  0  0  0  0
   43.3130   14.9580   47.8760 H   0  0  0  0  0  0  0  0  0  0  0  0
   42.3410   13.5420   47.3920 H   0  0  0  0  0  0  0  0  0  0  0  0
   43.1300   14.2880   45.1810 H   0  0  0  0  0  0  0  0  0  0  0  0
   44.5520   15.0330   45.9360 H   0  0  0  0  0  0  0  0  0  0  0  0
   45.7300   13.0530   46.2260 H   0  0  0  0  0  0  0  0  0  0  0  0
   45.0360   12.9970   44.5990 H   0  0  0  0  0  0  0  0  0  0  0  0
   43.9480   12.0020   49.9740 H   0  0  0  0  0  0  0  0  0  0  0  0
   42.6560   13.2530   49.5730 H   0  0  0  0  0  0  0  0  0  0  0  0
   44.2390   13.7510   50.2000 H   0  0  0  0  0  0  0  0  0  0  0  0
  2  1  1  0  0  0  0
  3 14  1  0  0  0  0
  3  2  2  0  0  0  0
  4  3  1  0  0  0  0
  5  4  2  0  0  0  0
  5  6  1  0  0  0  0
  6  7  2  0  0  0  0
  7  2  1  0  0  0  0
  7  8  1  0  0  0  0
  8 34  1  0  0  0  0
  8 32  1  0  0  0  0
  9  6  1  0  0  0  0
 10 12  1  0  0  0  0
 10  4  1  0  0  0  0
 11 10  2  0  0  0  0
 12 15  1  6  0  0  0
 12 23  1  0  0  0  0
 12 13  1  0  0  0  0
 13 35  1  0  0  0  0
 13 36  1  0  0  0  0
 13 14  1  0  0  0  0
 15 37  1  0  0  0  0
 15 38  1  0  0  0  0
 16 15  1  0  0  0  0
 17 41  1  0  0  0  0
 17 18  1  0  0  0  0
 17 16  1  0  0  0  0
 18 42  1  6  0  0  0
 18 19  1  0  0  0  0
 18 22  1  0  0  0  0
 19 44  1  0  0  0  0
 20 19  1  0  0  0  0
 20 45  1  0  0  0  0
 21 47  1  0  0  0  0
 21 16  1  0  0  0  0
 21 20  1  0  0  0  0
 22 51  1  0  0  0  0
 23 24  1  0  0  0  0
 23 52  1  0  0  0  0
 24 25  1  0  0  0  0
 25 55  1  0  0  0  0
 25 56  1  0  0  0  0
 25 26  1  0  0  0  0
 26 57  1  6  0  0  0
 26 30  1  0  0  0  0
 27 59  1  0  0  0  0
 27 58  1  0  0  0  0
 27 26  1  0  0  0  0
 28 27  1  0  0  0  0
 29 28  1  0  0  0  0
 29 24  1  0  0  0  0
 29 62  1  0  0  0  0
 30 65  1  0  0  0  0
 30 64  1  0  0  0  0
 30 66  1  0  0  0  0
 31  5  1  0  0  0  0
 33  8  1  0  0  0  0
 39 16  1  0  0  0  0
 40 17  1  0  0  0  0
 43 19  1  0  0  0  0
 46 20  1  0  0  0  0
 48 21  1  0  0  0  0
 49 22  1  0  0  0  0
 50 22  1  0  0  0  0
 53 23  1  0  0  0  0
 54 24  1  0  0  0  0
 60 28  1  0  0  0  0
 61 28  1  0  0  0  0
 63 29  1  0  0  0  0
M  END
>  <Pose>
1

>  <Score>
-4.39

$$$$
