
 OpenBabel03172210433D

 50 53  0  0  0  0  0  0  0  0999 V2000
   42.4760    9.5770   44.1460 F   0  0  0  0  0  0  0  0  0  0  0  0
   43.3880    8.5850   43.9540 C   0  0  0  0  0  0  0  0  0  0  0  0
   43.2030    7.3170   44.4660 C   0  0  0  0  0  0  0  0  0  0  0  0
   44.1400    6.3270   44.2600 C   0  0  0  0  0  0  0  0  0  0  0  0
   45.3000    6.5540   43.5360 C   0  0  0  0  0  0  0  0  0  0  0  0
   45.4760    7.8240   43.0280 C   0  0  0  0  0  0  0  0  0  0  0  0
   44.5350    8.8240   43.2340 C   0  0  0  0  0  0  0  0  0  0  0  0
   46.2930    5.5120   43.3150 C   0  0  0  0  0  0  0  0  0  0  0  0
   46.6970    5.2310   42.1280 N   0  0  0  0  0  0  0  0  0  0  0  0
   47.6400    4.2530   41.8440 N   0  0  0  0  0  0  0  0  0  0  0  0
   48.5600    3.8280   42.8290 C   0  0  0  0  0  0  0  0  0  0  0  0
   48.7110    4.5490   43.9620 N   0  0  0  0  0  4  0  0  0  0  0  0
   49.5760    4.1980   44.9460 C   0  0  0  0  0  0  0  0  0  0  0  0
   50.2850    3.0860   44.7460 N   0  0  0  0  0  0  0  0  0  0  0  0
   50.1880    2.3200   43.6450 C   0  0  0  0  0  0  0  0  0  0  0  0
   49.3130    2.7210   42.7060 N   0  0  0  0  0  0  0  0  0  0  0  0
   50.9770    1.1470   43.5020 N   0  0  0  0  0  0  0  0  0  0  0  0
   51.8830    1.0450   42.3730 C   0  0  0  0  0  0  0  0  0  0  0  0
   52.5790   -0.2970   42.4060 C   0  0  0  0  0  0  0  0  0  0  0  0
   53.1220   -0.6230   43.6160 O   0  0  0  0  0  0  0  0  0  0  0  0
   52.3750   -0.3310   44.7260 C   0  0  0  0  0  0  0  0  0  0  0  0
   50.9360    0.0410   44.4110 C   0  0  0  0  0  0  0  0  0  0  0  0
   49.6950    4.9950   46.1190 N   0  0  0  0  0  0  0  0  0  0  0  0
   48.6070    5.7430   46.7050 C   0  0  0  0  0  0  0  0  0  0  0  0
   49.1520    7.1660   46.8050 C   0  0  0  0  0  0  0  0  0  0  0  0
   50.1430    7.1940   47.7150 O   0  0  0  0  0  0  0  0  0  0  0  0
   51.1000    6.2570   47.7020 C   0  0  0  0  0  0  0  0  0  0  0  0
   50.9640    5.0940   46.8020 C   0  0  0  0  0  0  0  0  0  0  0  0
   41.6130    6.9760   45.4680 B   0  0  0  0  0  0  0  0  0  0  0  0
   44.0020    5.3170   44.6620 H   0  0  0  0  0  0  0  0  0  0  0  0
   46.3910    8.0100   42.4550 H   0  0  0  0  0  0  0  0  0  0  0  0
   44.6930    9.8220   42.8240 H   0  0  0  0  0  0  0  0  0  0  0  0
   46.6830    4.9810   44.1610 H   0  0  0  0  0  0  0  0  0  0  0  0
   47.6740    3.8270   40.9030 H   0  0  0  0  0  0  0  0  0  0  0  0
   51.3100    1.0650   41.4020 H   0  0  0  0  0  0  0  0  0  0  0  0
   52.6090    1.8590   42.4590 H   0  0  0  0  0  0  0  0  0  0  0  0
   53.4350   -0.2100   41.6770 H   0  0  0  0  0  0  0  0  0  0  0  0
   51.9280   -1.0870   41.9950 H   0  0  0  0  0  0  0  0  0  0  0  0
   52.8190    0.5700   45.2180 H   0  0  0  0  0  0  0  0  0  0  0  0
   52.4220   -1.2000   45.4220 H   0  0  0  0  0  0  0  0  0  0  0  0
   50.5060   -0.8320   43.8730 H   0  0  0  0  0  0  0  0  0  0  0  0
   50.4190    0.2790   45.3420 H   0  0  0  0  0  0  0  0  0  0  0  0
   48.5020    5.3890   47.7520 H   0  0  0  0  0  0  0  0  0  0  0  0
   47.6750    5.6990   46.1280 H   0  0  0  0  0  0  0  0  0  0  0  0
   49.4750    7.4600   45.7890 H   0  0  0  0  0  0  0  0  0  0  0  0
   48.3300    7.8570   47.1480 H   0  0  0  0  0  0  0  0  0  0  0  0
   51.2300    5.8710   48.7580 H   0  0  0  0  0  0  0  0  0  0  0  0
   52.0920    6.7650   47.5010 H   0  0  0  0  0  0  0  0  0  0  0  0
   51.0760    4.1150   47.3590 H   0  0  0  0  0  0  0  0  0  0  0  0
   51.8150    5.0600   46.0590 H   0  0  0  0  0  0  0  0  0  0  0  0
  2  1  1  0  0  0  0
  2  3  1  0  0  0  0
  3 29  1  0  0  0  0
  4  3  2  0  0  0  0
  4 30  1  0  0  0  0
  5  4  1  0  0  0  0
  6  7  1  0  0  0  0
  6  5  2  0  0  0  0
  7  2  2  0  0  0  0
  8  5  1  0  0  0  0
  8 33  1  0  0  0  0
  9  8  2  0  0  0  0
 10  9  1  0  0  0  0
 10 11  1  0  0  0  0
 11 12  2  0  0  0  0
 12 13  2  0  0  0  0
 13 23  1  0  0  0  0
 14 13  1  0  0  0  0
 15 14  2  0  0  0  0
 16 11  1  0  0  0  0
 16 15  1  0  0  0  0
 17 15  1  0  0  0  0
 17 22  1  0  0  0  0
 18 19  1  0  0  0  0
 18 36  1  0  0  0  0
 18 17  1  0  0  0  0
 19 20  1  0  0  0  0
 20 21  1  0  0  0  0
 21 39  1  0  0  0  0
 21 40  1  0  0  0  0
 22 21  1  0  0  0  0
 22 42  1  0  0  0  0
 23 24  1  0  0  0  0
 23 28  1  0  0  0  0
 24 25  1  0  0  0  0
 24 43  1  0  0  0  0
 25 46  1  0  0  0  0
 25 26  1  0  0  0  0
 27 26  1  0  0  0  0
 27 47  1  0  0  0  0
 28 49  1  0  0  0  0
 28 27  1  0  0  0  0
 31  6  1  0  0  0  0
 32  7  1  0  0  0  0
 34 10  1  0  0  0  0
 35 18  1  0  0  0  0
 37 19  1  0  0  0  0
 38 19  1  0  0  0  0
 41 22  1  0  0  0  0
 44 24  1  0  0  0  0
 45 25  1  0  0  0  0
 48 27  1  0  0  0  0
 50 28  1  0  0  0  0
M  END
>  <Pose>
1

>  <Score>
-6.40

$$$$
