
 OpenBabel03172210433D

 53 56  0  0  1  0  0  0  0  0999 V2000
   43.7080    9.3570   47.7970 F   0  0  0  0  0  0  0  0  0  0  0  0
   42.4880    9.2430   48.2980 C   0  0  0  0  0  0  0  0  0  0  0  0
   41.3630    9.5350   47.5540 C   0  0  0  0  0  0  0  0  0  0  0  0
   40.1690    9.3680   48.2110 C   0  0  0  0  0  0  0  0  0  0  0  0
   40.0490    8.9420   49.5240 C   0  0  0  0  0  0  0  0  0  0  0  0
   41.1850    8.6620   50.2280 C   0  0  0  0  0  0  0  0  0  0  0  0
   42.3900    8.8090   49.6230 C   0  0  0  0  0  0  0  0  0  0  0  0
   41.4200    9.9640   46.1470 C   0  0  2  0  0  0  0  0  0  0  0  0
   40.2260    9.6670   45.3720 N   0  0  0  0  0  0  0  0  0  0  0  0
   40.2490    8.2250   45.3500 C   0  0  0  0  0  0  0  0  0  0  0  0
   39.2780    7.4240   45.3120 O   0  0  0  0  0  0  0  0  0  0  0  0
   41.6680    7.7710   45.3830 C   0  0  0  0  0  0  0  0  0  0  0  0
   42.1810    6.6530   45.3800 O   0  0  0  0  0  0  0  0  0  0  0  0
   42.4040    9.0690   45.4240 C   0  0  0  0  0  0  0  0  0  0  0  0
   43.5990    9.3130   44.9460 C   0  0  0  0  0  0  0  0  0  0  0  0
   44.1450   10.6060   45.0850 O   0  0  0  0  0  0  0  0  0  0  0  0
   44.3830    8.2890   44.2720 C   0  0  0  0  0  0  0  0  0  0  0  0
   44.3060    8.1840   42.9000 C   0  0  0  0  0  0  0  0  0  0  0  0
   45.0030    7.2150   42.1970 C   0  0  0  0  0  0  0  0  0  0  0  0
   45.8040    6.3210   42.8740 C   0  0  0  0  0  0  0  0  0  0  0  0
   45.8940    6.4050   44.2300 C   0  0  0  0  0  0  0  0  0  0  0  0
   45.1820    7.3930   44.9320 C   0  0  0  0  0  0  0  0  0  0  0  0
   46.7860    4.9610   41.9220 B   0  0  0  0  0  0  0  0  0  0  0  0
   39.2370   10.4420   44.7540 C   0  0  0  0  0  0  0  0  0  0  0  0
   38.1270   11.0270   45.5530 C   0  0  0  0  0  0  0  0  0  0  0  0
   37.0960   11.6430   44.7660 N   0  0  0  0  0  4  0  0  0  0  0  0
   37.1140   13.0710   45.0080 C   0  0  0  0  0  0  0  0  0  0  0  0
   36.1180   13.7800   44.1080 C   0  0  0  0  0  0  0  0  0  0  0  0
   34.8520   13.2840   44.3560 O   0  0  0  0  0  0  0  0  0  0  0  0
   34.8230   11.9050   44.1690 C   0  0  0  0  0  0  0  0  0  0  0  0
   35.7460   11.2170   45.1850 C   0  0  0  0  0  0  0  0  0  0  0  0
   39.2630    9.5620   47.7010 H   0  0  0  0  0  0  0  0  0  0  0  0
   39.0960    8.8180   50.0160 H   0  0  0  0  0  0  0  0  0  0  0  0
   41.1130    8.3270   51.2570 H   0  0  0  0  0  0  0  0  0  0  0  0
   43.2820    8.5850   50.1970 H   0  0  0  0  0  0  0  0  0  0  0  0
   41.7810   10.9790   46.0820 H   0  0  0  0  0  0  0  0  0  0  0  0
   43.6940    8.8550   42.2990 H   0  0  0  0  0  0  0  0  0  0  0  0
   44.9620    7.1090   41.1240 H   0  0  0  0  0  0  0  0  0  0  0  0
   46.5220    5.7060   44.7660 H   0  0  0  0  0  0  0  0  0  0  0  0
   45.2510    7.4380   45.9950 H   0  0  0  0  0  0  0  0  0  0  0  0
   38.7390    9.8460   43.9360 H   0  0  0  0  0  0  0  0  0  0  0  0
   39.6460   11.3280   44.1660 H   0  0  0  0  0  0  0  0  0  0  0  0
   37.6320   10.1540   46.0680 H   0  0  0  0  0  0  0  0  0  0  0  0
   38.4750   11.6560   46.4060 H   0  0  0  0  0  0  0  0  0  0  0  0
   37.1210   11.3910   43.7570 H   0  0  0  0  0  0  0  0  0  0  0  0
   36.7200   13.2040   46.0590 H   0  0  0  0  0  0  0  0  0  0  0  0
   38.1080   13.5150   45.0070 H   0  0  0  0  0  0  0  0  0  0  0  0
   36.4570   13.6400   43.0600 H   0  0  0  0  0  0  0  0  0  0  0  0
   36.1370   14.8490   44.3850 H   0  0  0  0  0  0  0  0  0  0  0  0
   35.2680   11.7170   43.1540 H   0  0  0  0  0  0  0  0  0  0  0  0
   33.8140   11.4830   44.2120 H   0  0  0  0  0  0  0  0  0  0  0  0
   35.5540   11.5700   46.2000 H   0  0  0  0  0  0  0  0  0  0  0  0
   35.6770   10.1310   45.0290 H   0  0  0  0  0  0  0  0  0  0  0  0
  1  2  1  0  0  0  0
  2  7  1  0  0  0  0
  3  4  1  0  0  0  0
  3  2  2  0  0  0  0
  4  5  2  0  0  0  0
  5 33  1  0  0  0  0
  5  6  1  0  0  0  0
  6 34  1  0  0  0  0
  7 35  1  0  0  0  0
  7  6  2  0  0  0  0
  8 36  1  6  0  0  0
  8  3  1  0  0  0  0
  9  8  1  0  0  0  0
 10  9  1  0  0  0  0
 10 12  1  0  0  0  0
 11 10  2  0  0  0  0
 12 14  1  0  0  0  0
 13 12  2  0  0  0  0
 14  8  1  0  0  0  0
 15 16  1  0  0  0  0
 15 14  2  0  0  0  0
 17 22  1  0  0  0  0
 17 15  1  0  0  0  0
 18 17  2  0  0  0  0
 19 20  2  0  0  0  0
 19 18  1  0  0  0  0
 20 21  1  0  0  0  0
 21 39  1  0  0  0  0
 21 22  2  0  0  0  0
 22 40  1  0  0  0  0
 23 20  1  0  0  0  0
 24  9  1  0  0  0  0
 24 25  1  0  0  0  0
 25 43  1  0  0  0  0
 25 44  1  0  0  0  0
 26 27  1  0  0  0  0
 26 31  1  0  0  0  0
 26 25  1  0  0  0  0
 27 46  1  0  0  0  0
 28 29  1  0  0  0  0
 28 49  1  0  0  0  0
 28 27  1  0  0  0  0
 30 51  1  0  0  0  0
 30 29  1  0  0  0  0
 30 31  1  0  0  0  0
 31 52  1  0  0  0  0
 32  4  1  0  0  0  0
 37 18  1  0  0  0  0
 38 19  1  0  0  0  0
 41 24  1  0  0  0  0
 42 24  1  0  0  0  0
 45 26  1  0  0  0  0
 47 27  1  0  0  0  0
 48 28  1  0  0  0  0
 50 30  1  0  0  0  0
 53 31  1  0  0  0  0
M  END
>  <Pose>
1

>  <Score>
-4.67

$$$$
