
 OpenBabel03172210433D

 41 44  0  0  0  0  0  0  0  0999 V2000
   52.6290   -0.7370   42.5420 F   0  0  0  0  0  0  0  0  0  0  0  0
   51.8570    0.3270   42.9150 C   0  0  0  0  0  0  0  0  0  0  0  0
   50.9800    0.2000   43.9540 C   0  0  0  0  0  0  0  0  0  0  0  0
   50.1870    1.2820   44.3440 C   0  0  0  0  0  0  0  0  0  0  0  0
   50.2570    2.4990   43.7050 C   0  0  0  0  0  0  0  0  0  0  0  0
   51.1560    2.5950   42.6540 C   0  0  0  0  0  0  0  0  0  0  0  0
   51.9430    1.5350   42.2620 C   0  0  0  0  0  0  0  0  0  0  0  0
   49.4780    3.6390   44.0630 N   0  0  0  0  0  0  0  0  0  0  0  0
   48.4380    4.1830   43.4090 C   0  0  0  0  0  0  0  0  0  0  0  0
   48.0120    3.6950   42.3270 O   0  0  0  0  0  0  0  0  0  0  0  0
   47.9350    5.2940   44.0600 C   0  0  0  0  0  0  0  0  0  0  0  0
   48.6960    5.4270   45.1430 C   0  0  0  0  0  0  0  0  0  0  0  0
   48.2450    6.4970   45.8040 N   0  0  0  0  0  0  0  0  0  0  0  0
   47.2280    7.0050   45.1330 N   0  0  0  0  0  0  0  0  0  0  0  0
   47.0070    6.2820   44.0390 N   0  0  0  0  0  0  0  0  0  0  0  0
   46.0110    6.4570   43.0220 C   0  0  0  0  0  0  0  0  0  0  0  0
   44.8460    7.2610   43.4070 C   0  0  0  0  0  0  0  0  0  0  0  0
   43.9690    6.7080   44.0870 O   0  0  0  0  0  0  0  0  0  0  0  0
   44.7420    8.5990   43.0160 N   0  0  0  0  0  0  0  0  0  0  0  0
   43.6650    9.4990   43.1880 C   0  0  0  0  0  0  0  0  0  0  0  0
   42.3840    9.1870   42.8000 C   0  0  0  0  0  0  0  0  0  0  0  0
   41.2940   10.0500   42.9520 C   0  0  0  0  0  0  0  0  0  0  0  0
   41.5550   11.2690   43.5250 C   0  0  0  0  0  0  0  0  0  0  0  0
   42.8250   11.6060   43.9210 C   0  0  0  0  0  0  0  0  0  0  0  0
   43.8760   10.7410   43.7610 C   0  0  0  0  0  0  0  0  0  0  0  0
   40.0990   12.5090   43.7670 B   0  0  0  0  0  0  0  0  0  0  0  0
   49.6410    4.4230   45.1590 C   0  0  0  0  0  0  0  0  0  0  0  0
   50.5460    4.1960   46.0110 O   0  0  0  0  0  0  0  0  0  0  0  0
   50.9230   -0.7530   44.4590 H   0  0  0  0  0  0  0  0  0  0  0  0
   49.5070    1.1650   45.1590 H   0  0  0  0  0  0  0  0  0  0  0  0
   51.2080    3.5670   42.1460 H   0  0  0  0  0  0  0  0  0  0  0  0
   52.6380    1.6280   41.4420 H   0  0  0  0  0  0  0  0  0  0  0  0
   48.6610    6.8440   46.7120 H   0  0  0  0  0  0  0  0  0  0  0  0
   46.6780    7.8340   45.3970 H   0  0  0  0  0  0  0  0  0  0  0  0
   45.6260    5.4290   42.7520 H   0  0  0  0  0  0  0  0  0  0  0  0
   46.4660    6.8210   42.0560 H   0  0  0  0  0  0  0  0  0  0  0  0
   45.5890    9.0440   42.5060 H   0  0  0  0  0  0  0  0  0  0  0  0
   42.1080    8.2400   42.3420 H   0  0  0  0  0  0  0  0  0  0  0  0
   40.2950    9.7780   42.6370 H   0  0  0  0  0  0  0  0  0  0  0  0
   43.0180   12.5780   44.3750 H   0  0  0  0  0  0  0  0  0  0  0  0
   44.8940   11.0370   44.0900 H   0  0  0  0  0  0  0  0  0  0  0  0
  1  2  1  0  0  0  0
  2  3  1  0  0  0  0
  3  4  2  0  0  0  0
  3 29  1  0  0  0  0
  4 30  1  0  0  0  0
  5  8  1  0  0  0  0
  5  4  1  0  0  0  0
  6  5  2  0  0  0  0
  7  6  1  0  0  0  0
  7  2  2  0  0  0  0
  8 27  1  0  0  0  0
  9 11  1  0  0  0  0
  9  8  1  0  0  0  0
 10  9  2  0  0  0  0
 11 12  2  0  0  0  0
 12 27  1  0  0  0  0
 12 13  1  0  0  0  0
 13 33  1  0  0  0  0
 14 34  1  0  0  0  0
 14 13  1  0  0  0  0
 15 11  1  0  0  0  0
 15 14  1  0  0  0  0
 16 17  1  0  0  0  0
 16 15  1  0  0  0  0
 17 18  2  0  0  0  0
 19 20  1  0  0  0  0
 19 17  1  0  0  0  0
 20 25  1  0  0  0  0
 21 22  1  0  0  0  0
 21 20  2  0  0  0  0
 22 23  2  0  0  0  0
 23 26  1  0  0  0  0
 23 24  1  0  0  0  0
 24 40  1  0  0  0  0
 25 24  2  0  0  0  0
 25 41  1  0  0  0  0
 27 28  2  0  0  0  0
 31  6  1  0  0  0  0
 32  7  1  0  0  0  0
 35 16  1  0  0  0  0
 36 16  1  0  0  0  0
 37 19  1  0  0  0  0
 38 21  1  0  0  0  0
 39 22  1  0  0  0  0
M  END
>  <Pose>
1

>  <Score>
-7.71

$$$$
