
 OpenBabel03172210433D

 43 46  0  0  1  0  0  0  0  0999 V2000
   47.7910    3.0980   42.3520 I   0  0  0  0  0  0  0  0  0  0  0  0
   47.3310    4.9470   43.2570 C   0  0  0  0  0  0  0  0  0  0  0  0
   47.9000    5.2740   44.4710 C   0  0  0  0  0  0  0  0  0  0  0  0
   47.6050    6.4920   45.0820 C   0  0  0  0  0  0  0  0  0  0  0  0
   46.7460    7.3290   44.4360 C   0  0  0  0  0  0  0  0  0  0  0  0
   46.1590    7.0250   43.2140 C   0  0  0  0  0  0  0  0  0  0  0  0
   46.4610    5.8260   42.6310 C   0  0  0  0  0  0  0  0  0  0  0  0
   45.2360    8.0260   42.6120 C   0  0  2  0  0  0  0  0  0  0  0  0
   45.2890    9.1970   43.4880 N   0  0  0  0  0  0  0  0  0  0  0  0
   44.0930    9.9560   43.7920 C   0  0  0  0  0  0  0  0  0  0  0  0
   43.8390   11.5030   44.4970 S   0  0  0  0  0  0  0  0  0  0  0  0
   42.1440   11.5430   44.4510 C   0  0  0  0  0  0  0  0  0  0  0  0
   41.8120   10.3420   43.8840 C   0  0  0  0  0  0  0  0  0  0  0  0
   42.8300    9.5220   43.5450 C   0  0  0  0  0  0  0  0  0  0  0  0
   42.7340    8.1720   42.9180 C   0  0  0  0  0  0  0  0  0  0  0  0
   41.6130    7.6500   42.6350 O   0  0  0  0  0  0  0  0  0  0  0  0
   43.9150    7.4590   42.6350 N   0  0  0  0  0  0  0  0  0  0  0  0
   40.3020   10.1770   43.7510 C   0  0  0  0  0  0  0  0  0  0  0  0
   39.6490   10.4900   45.0720 C   0  0  0  0  0  0  0  0  0  0  0  0
   40.1560   11.6590   45.7090 N   0  0  0  0  0  4  0  0  0  0  0  0
   41.0040   12.4560   44.8280 C   0  0  0  0  0  0  0  0  0  0  0  0
   41.0390   11.2110   46.7980 C   0  0  0  0  0  0  0  0  0  0  0  0
   48.2070    6.7670   46.3020 O   0  0  0  0  0  0  0  0  0  0  0  0
   47.4000    7.2530   47.3590 C   0  0  0  0  0  0  0  0  0  0  0  0
   48.7680    4.3970   45.0950 O   0  0  0  0  0  0  0  0  0  0  0  0
   46.5080    8.2820   44.9030 H   0  0  0  0  0  0  0  0  0  0  0  0
   45.9980    5.5880   41.6720 H   0  0  0  0  0  0  0  0  0  0  0  0
   45.5580    8.3190   41.5950 H   0  0  0  0  0  0  0  0  0  0  0  0
   46.1770    9.5190   43.9160 H   0  0  0  0  0  0  0  0  0  0  0  0
   43.8460    6.4300   42.4210 H   0  0  0  0  0  0  0  0  0  0  0  0
   39.9550   10.8320   42.9520 H   0  0  0  0  0  0  0  0  0  0  0  0
   40.0620    9.1250   43.5160 H   0  0  0  0  0  0  0  0  0  0  0  0
   39.6400    9.6200   45.7600 H   0  0  0  0  0  0  0  0  0  0  0  0
   38.5610   10.6860   44.8400 H   0  0  0  0  0  0  0  0  0  0  0  0
   39.4090   12.2720   46.1280 H   0  0  0  0  0  0  0  0  0  0  0  0
   41.3770   13.3020   45.4200 H   0  0  0  0  0  0  0  0  0  0  0  0
   40.3940   12.7300   43.9540 H   0  0  0  0  0  0  0  0  0  0  0  0
   41.6460   10.3740   46.3950 H   0  0  0  0  0  0  0  0  0  0  0  0
   41.7160   12.0450   47.0870 H   0  0  0  0  0  0  0  0  0  0  0  0
   40.4550   10.9260   47.6860 H   0  0  0  0  0  0  0  0  0  0  0  0
   46.7600    6.4090   47.7470 H   0  0  0  0  0  0  0  0  0  0  0  0
   46.6980    8.0440   47.0330 H   0  0  0  0  0  0  0  0  0  0  0  0
   48.0090    7.6880   48.1780 H   0  0  0  0  0  0  0  0  0  0  0  0
  1  2  1  0  0  0  0
  2  3  1  0  0  0  0
  3  4  2  0  0  0  0
  3 25  1  0  0  0  0
  4 23  1  0  0  0  0
  5 26  1  0  0  0  0
  5  4  1  0  0  0  0
  6  5  2  0  0  0  0
  7  6  1  0  0  0  0
  7  2  2  0  0  0  0
  8 28  1  6  0  0  0
  8 17  1  0  0  0  0
  8  6  1  0  0  0  0
  8  9  1  0  0  0  0
  9 10  1  0  0  0  0
  9 29  1  0  0  0  0
 10 11  1  0  0  0  0
 12 11  1  0  0  0  0
 12 21  1  0  0  0  0
 13 12  2  0  0  0  0
 14 10  2  0  0  0  0
 14 13  1  0  0  0  0
 15 14  1  0  0  0  0
 16 15  2  0  0  0  0
 17 15  1  0  0  0  0
 18 13  1  0  0  0  0
 18 19  1  0  0  0  0
 19 20  1  0  0  0  0
 19 33  1  0  0  0  0
 20 35  1  0  0  0  0
 20 22  1  0  0  0  0
 21 36  1  0  0  0  0
 21 20  1  0  0  0  0
 22 39  1  0  0  0  0
 22 40  1  0  0  0  0
 23 24  1  0  0  0  0
 24 41  1  0  0  0  0
 24 43  1  0  0  0  0
 27  7  1  0  0  0  0
 30 17  1  0  0  0  0
 31 18  1  0  0  0  0
 32 18  1  0  0  0  0
 34 19  1  0  0  0  0
 37 21  1  0  0  0  0
 38 22  1  0  0  0  0
 42 24  1  0  0  0  0
M  END
>  <Pose>
1

>  <Score>
-6.22

$$$$
