
 OpenBabel03172210433D

 38 41  0  0  1  0  0  0  0  0999 V2000
   42.4030    6.6320   44.4310 I   0  0  0  0  0  0  0  0  0  0  0  0
   42.5420    8.6260   43.7520 C   0  0  0  0  0  0  0  0  0  0  0  0
   43.7900    9.2870   43.7870 C   0  0  0  0  0  0  0  0  0  0  0  0
   43.8990   10.5780   43.3550 C   0  0  0  0  0  0  0  0  0  0  0  0
   42.7430   11.2050   42.8830 C   0  0  0  0  0  0  0  0  0  0  0  0
   41.5230   10.5910   42.8390 C   0  0  0  0  0  0  0  0  0  0  0  0
   41.4260    9.2750   43.2840 C   0  0  0  0  0  0  0  0  0  0  0  0
   44.9150    8.5860   44.2670 N   0  0  0  0  0  0  0  0  0  0  0  0
   45.6150    7.5320   43.6450 C   0  0  1  0  0  0  0  0  0  0  0  0
   45.3690    7.0280   42.4420 N   0  0  0  0  0  0  0  0  0  0  0  0
   46.0440    6.0230   41.8580 C   0  0  0  0  0  0  0  0  0  0  0  0
   46.0210    5.3410   40.7070 N   0  0  0  0  0  0  0  0  0  0  0  0
   46.9580    4.4370   40.6960 O   0  0  0  0  0  0  0  0  0  0  0  0
   47.6240    4.4870   41.8150 N   0  0  0  0  0  0  0  0  0  0  0  0
   47.1000    5.4560   42.5800 C   0  0  0  0  0  0  0  0  0  0  0  0
   47.3900    5.9180   43.7830 N   0  0  0  0  0  0  0  0  0  0  0  0
   46.6890    6.9200   44.3200 C   0  0  0  0  0  0  0  0  0  0  0  0
   47.2150    7.1490   45.5130 N   0  0  0  0  0  0  0  0  0  0  0  0
   48.2350    6.2980   45.7220 N   0  0  0  0  0  0  0  0  0  0  0  0
   48.3660    5.5120   44.6430 C   0  0  0  0  0  0  0  0  0  0  0  0
   49.3370    4.4150   44.3870 C   0  0  0  0  0  0  0  0  0  0  0  0
   49.4150    3.4330   45.4950 C   0  0  0  0  0  0  0  0  0  0  0  0
   49.1820    2.2150   45.3450 O   0  0  0  0  0  0  0  0  0  0  0  0
   49.7540    3.8780   46.7430 O   0  0  0  0  0  0  0  0  0  0  0  0
   49.5320    3.1940   47.9240 C   0  0  0  0  0  0  0  0  0  0  0  0
   48.5540    3.7950   48.8590 C   0  0  0  0  0  0  0  0  0  0  0  0
   44.8080   11.1490   43.3480 H   0  0  0  0  0  0  0  0  0  0  0  0
   42.8160   12.2390   42.5350 H   0  0  0  0  0  0  0  0  0  0  0  0
   40.6480   11.1010   42.4720 H   0  0  0  0  0  0  0  0  0  0  0  0
   40.4560    8.8000   43.2450 H   0  0  0  0  0  0  0  0  0  0  0  0
   45.2680    8.9130   45.2350 H   0  0  0  0  0  0  0  0  0  0  0  0
   50.3320    4.7940   44.0910 H   0  0  0  0  0  0  0  0  0  0  0  0
   48.9740    3.8160   43.4950 H   0  0  0  0  0  0  0  0  0  0  0  0
   49.2280    2.1480   47.6370 H   0  0  0  0  0  0  0  0  0  0  0  0
   50.5050    3.0400   48.4730 H   0  0  0  0  0  0  0  0  0  0  0  0
   47.6990    3.0660   48.9820 H   0  0  0  0  0  0  0  0  0  0  0  0
   48.0760    4.7140   48.4490 H   0  0  0  0  0  0  0  0  0  0  0  0
   49.0170    3.9640   49.8390 H   0  0  0  0  0  0  0  0  0  0  0  0
  2  3  1  0  0  0  0
  2  1  1  0  0  0  0
  3  8  1  0  0  0  0
  4  3  2  0  0  0  0
  5  4  1  0  0  0  0
  6  5  2  0  0  0  0
  6  7  1  0  0  0  0
  7  2  2  0  0  0  0
  8 31  1  0  0  0  0
  9  8  1  6  0  0  0
  9 17  1  0  0  0  0
 10  9  1  0  0  0  0
 11 10  2  0  0  0  0
 11 15  1  0  0  0  0
 12 11  1  0  0  0  0
 13 12  1  0  0  0  0
 13 14  1  0  0  0  0
 14 15  2  0  0  0  0
 15 16  1  0  0  0  0
 16 17  1  0  0  0  0
 16 20  1  0  0  0  0
 17 18  2  0  0  0  0
 18 19  1  0  0  0  0
 20 19  2  0  0  0  0
 21 20  1  0  0  0  0
 21 22  1  0  0  0  0
 22 24  1  0  0  0  0
 23 22  2  0  0  0  0
 24 25  1  0  0  0  0
 25 35  1  0  0  0  0
 25 26  1  0  0  0  0
 26 36  1  0  0  0  0
 26 38  1  0  0  0  0
 27  4  1  0  0  0  0
 28  5  1  0  0  0  0
 29  6  1  0  0  0  0
 30  7  1  0  0  0  0
 32 21  1  0  0  0  0
 33 21  1  0  0  0  0
 34 25  1  0  0  0  0
 37 26  1  0  0  0  0
M  END
>  <Pose>
1

>  <Score>
-7.62

$$$$
