
 OpenBabel03172210433D

 35 38  0  0  1  0  0  0  0  0999 V2000
   45.1280   15.6930   48.6520 B   0  0  0  0  0  0  0  0  0  0  0  0
   44.8110   13.8300   48.4400 C   0  0  0  0  0  0  0  0  0  0  0  0
   43.6170   13.3090   47.9480 C   0  0  1  0  0  0  0  0  0  0  0  0
   43.4360   11.9430   47.8130 C   0  0  0  0  0  0  0  0  0  0  0  0
   44.4460   11.0720   48.1670 C   0  0  0  0  0  0  0  0  0  0  0  0
   45.6220   11.5760   48.6510 C   0  0  0  0  0  0  0  0  0  0  0  0
   45.7950   12.9300   48.7820 C   0  0  0  0  0  0  0  0  0  0  0  0
   47.0320   13.3730   49.2850 O   0  0  0  0  0  0  0  0  0  0  0  0
   46.9860   10.3100   49.1230 B   0  0  0  0  0  0  0  0  0  0  0  0
   42.2640   11.4010   47.3290 C   0  0  0  0  0  0  0  0  0  0  0  0
   41.2600   12.2780   46.9770 C   0  0  0  0  0  0  0  0  0  0  0  0
   41.5390   13.7080   47.1540 C   0  0  0  0  0  0  0  0  0  0  0  0
   40.5120   14.5820   46.7940 C   0  0  1  0  0  0  0  0  0  0  0  0
   39.3200   14.1000   46.3040 C   0  0  0  0  0  0  0  0  0  0  0  0
   38.4250   14.9260   45.9920 O   0  0  0  0  0  0  0  0  0  0  0  0
   39.0860   12.7380   46.1480 C   0  0  0  0  0  0  0  0  0  0  0  0
   40.0470   11.8270   46.4800 C   0  0  0  0  0  0  0  0  0  0  0  0
   37.4010   12.1560   45.4600 B   0  0  0  0  0  0  0  0  0  0  0  0
   40.8080   16.4690   47.0010 B   0  0  0  0  0  0  0  0  0  0  0  0
   42.6790   14.1600   47.6210 O   0  0  0  0  0  0  0  0  0  0  0  0
   42.0720    9.9560   47.1950 C   0  0  0  0  0  0  0  0  0  0  0  0
   42.0040    9.3680   45.9450 C   0  0  0  0  0  0  0  0  0  0  0  0
   41.8170    8.0100   45.7920 C   0  0  0  0  0  0  0  0  0  0  0  0
   41.6970    7.2300   46.9230 C   0  0  0  0  0  0  0  0  0  0  0  0
   41.7580    7.7680   48.1720 C   0  0  0  0  0  0  0  0  0  0  0  0
   41.9440    9.1260   48.3060 C   0  0  0  0  0  0  0  0  0  0  0  0
   42.0050    9.7050   49.6260 C   0  0  0  0  0  0  0  0  0  0  0  0
   42.8610    9.3490   50.4810 O   0  0  0  0  0  0  0  0  0  0  0  0
   41.1000   10.6950   50.0040 O   0  0  0  0  0  0  0  0  0  0  0  0
   41.5970    6.7000   49.5570 Cl  0  0  0  0  0  0  0  0  0  0  0  0
   42.1620   10.3890   44.5120 Cl  0  0  0  0  0  0  0  0  0  0  0  0
   44.2820    9.9900   48.0530 H   0  0  0  0  0  0  0  0  0  0  0  0
   39.9190   10.7630   46.3790 H   0  0  0  0  0  0  0  0  0  0  0  0
   41.7670    7.5740   44.7880 H   0  0  0  0  0  0  0  0  0  0  0  0
   41.5500    6.1610   46.8110 H   0  0  0  0  0  0  0  0  0  0  0  0
  2  1  1  0  0  0  0
  2  7  2  0  0  0  0
  3 20  1  1  0  0  0
  3  2  1  0  0  0  0
  4  3  1  0  0  0  0
  4  5  1  0  0  0  0
  5  6  2  0  0  0  0
  6  7  1  0  0  0  0
  6  9  1  0  0  0  0
  7  8  1  0  0  0  0
 10  4  2  0  0  0  0
 11 12  2  0  0  0  0
 11 10  1  0  0  0  0
 12 20  1  0  0  0  0
 13 19  1  1  0  0  0
 13 12  1  0  0  0  0
 14 13  1  0  0  0  0
 15 14  2  0  0  0  0
 16 14  1  0  0  0  0
 16 17  2  0  0  0  0
 17 11  1  0  0  0  0
 18 16  1  0  0  0  0
 21 10  1  0  0  0  0
 21 26  1  0  0  0  0
 22 21  2  0  0  0  0
 23 22  1  0  0  0  0
 23 24  2  0  0  0  0
 24 25  1  0  0  0  0
 25 26  2  0  0  0  0
 25 30  1  0  0  0  0
 26 27  1  0  0  0  0
 27 29  2  0  0  0  0
 27 28  1  0  0  0  0
 31 22  1  0  0  0  0
 32  5  1  0  0  0  0
 33 17  1  0  0  0  0
 34 23  1  0  0  0  0
 35 24  1  0  0  0  0
M  END
>  <Pose>
1

>  <Score>
-3.92

$$$$
