
 OpenBabel03172210433D

 35 39  0  0  0  0  0  0  0  0999 V2000
   41.0030   10.1910   42.6450 B   0  0  0  0  0  0  0  0  0  0  0  0
   41.9320    9.3270   44.0690 C   0  0  0  0  0  0  0  0  0  0  0  0
   41.4090    9.2970   45.3750 C   0  0  0  0  0  0  0  0  0  0  0  0
   42.0410    8.6900   46.4200 C   0  0  0  0  0  0  0  0  0  0  0  0
   43.2680    8.0750   46.1620 C   0  0  0  0  0  0  0  0  0  0  0  0
   43.7750    8.1050   44.8970 C   0  0  0  0  0  0  0  0  0  0  0  0
   43.1400    8.7160   43.8350 C   0  0  0  0  0  0  0  0  0  0  0  0
   43.7230    8.7070   42.5570 O   0  0  0  0  0  0  0  0  0  0  0  0
   45.4510    7.2660   44.5350 B   0  0  0  0  0  0  0  0  0  0  0  0
   41.4730    8.6750   47.7610 C   0  0  0  0  0  0  0  0  0  0  0  0
   41.2280    7.3070   48.0830 O   0  0  0  0  0  0  0  0  0  0  0  0
   41.9370    6.9010   49.1800 C   0  0  0  0  0  0  0  0  0  0  0  0
   41.9110    5.7540   49.6820 O   0  0  0  0  0  0  0  0  0  0  0  0
   42.6960    8.0590   49.6140 C   0  0  0  0  0  0  0  0  0  0  0  0
   42.4460    9.1350   48.7930 C   0  0  0  0  0  0  0  0  0  0  0  0
   43.0790   10.3040   49.0600 C   0  0  0  0  0  0  0  0  0  0  0  0
   43.9450   10.3910   50.1290 C   0  0  0  0  0  0  0  0  0  0  0  0
   44.1990    9.3150   50.9540 C   0  0  0  0  0  0  0  0  0  0  0  0
   43.5670    8.1270   50.6980 C   0  0  0  0  0  0  0  0  0  0  0  0
   40.1890    9.3600   47.8650 C   0  0  0  0  0  0  0  0  0  0  0  0
   39.6040    9.9500   46.7790 C   0  0  0  0  0  0  0  0  0  0  0  0
   38.3620   10.6080   46.8980 C   0  0  0  0  0  0  0  0  0  0  0  0
   37.7480   10.6460   48.1280 C   0  0  0  0  0  0  0  0  0  0  0  0
   38.3360   10.0490   49.2340 C   0  0  0  0  0  0  0  0  0  0  0  0
   39.5400    9.4140   49.1110 C   0  0  0  0  0  0  0  0  0  0  0  0
   37.4970   10.0930   50.9450 B   0  0  0  0  0  0  0  0  0  0  0  0
   36.5280   11.2960   48.2310 O   0  0  0  0  0  0  0  0  0  0  0  0
   37.5750   11.4220   45.3560 B   0  0  0  0  0  0  0  0  0  0  0  0
   40.1780    9.9420   45.5160 O   0  0  0  0  0  0  0  0  0  0  0  0
   43.7510    7.6000   47.0080 H   0  0  0  0  0  0  0  0  0  0  0  0
   42.9080   11.1670   48.4390 H   0  0  0  0  0  0  0  0  0  0  0  0
   44.4720   11.3160   50.3730 H   0  0  0  0  0  0  0  0  0  0  0  0
   44.8830    9.3740   51.8040 H   0  0  0  0  0  0  0  0  0  0  0  0
   43.7480    7.2720   51.3270 H   0  0  0  0  0  0  0  0  0  0  0  0
   40.0490    8.9310   49.9340 H   0  0  0  0  0  0  0  0  0  0  0  0
  1  2  1  0  0  0  0
  2  3  1  0  0  0  0
  3 29  1  0  0  0  0
  3  4  2  0  0  0  0
  4 10  1  0  0  0  0
  5  4  1  0  0  0  0
  5 30  1  0  0  0  0
  6  5  2  0  0  0  0
  7  2  2  0  0  0  0
  7  6  1  0  0  0  0
  8  7  1  0  0  0  0
  9  6  1  0  0  0  0
 10 20  1  0  0  0  0
 10 11  1  0  0  0  0
 10 15  1  0  0  0  0
 11 12  1  0  0  0  0
 12 14  1  0  0  0  0
 12 13  2  0  0  0  0
 14 19  1  0  0  0  0
 15 16  1  0  0  0  0
 15 14  2  0  0  0  0
 16 17  2  0  0  0  0
 17 32  1  0  0  0  0
 17 18  1  0  0  0  0
 18 33  1  0  0  0  0
 19 18  2  0  0  0  0
 19 34  1  0  0  0  0
 20 25  1  0  0  0  0
 21 22  1  0  0  0  0
 21 20  2  0  0  0  0
 22 23  2  0  0  0  0
 23 27  1  0  0  0  0
 23 24  1  0  0  0  0
 24 26  1  0  0  0  0
 25 24  2  0  0  0  0
 25 35  1  0  0  0  0
 28 22  1  0  0  0  0
 29 21  1  0  0  0  0
 31 16  1  0  0  0  0
M  END
>  <Pose>
1

>  <Score>
-4.14

$$$$
