
 OpenBabel03172210433D

 35 39  0  0  0  0  0  0  0  0999 V2000
   36.4140   15.4870   48.6780 I   0  0  0  0  0  0  0  0  0  0  0  0
   36.9020   14.0390   47.2210 C   0  0  0  0  0  0  0  0  0  0  0  0
   38.2400   13.9330   46.8550 C   0  0  0  0  0  0  0  0  0  0  0  0
   38.5850   13.0120   45.9200 C   0  0  0  0  0  0  0  0  0  0  0  0
   37.5900   12.2060   45.3610 C   0  0  0  0  0  0  0  0  0  0  0  0
   36.2620   12.3040   45.7170 C   0  0  0  0  0  0  0  0  0  0  0  0
   35.9200   13.2440   46.6680 C   0  0  0  0  0  0  0  0  0  0  0  0
   34.5890   13.3600   47.0420 O   0  0  0  0  0  0  0  0  0  0  0  0
   34.7900   11.0580   44.8370 I   0  0  0  0  0  0  0  0  0  0  0  0
   39.9490   12.8180   45.4660 C   0  0  0  0  0  0  0  0  0  0  0  0
   40.0670   13.0390   44.0530 O   0  0  0  0  0  0  0  0  0  0  0  0
   40.5580   11.9410   43.3970 C   0  0  0  0  0  0  0  0  0  0  0  0
   40.7910   11.7730   42.1660 O   0  0  0  0  0  0  0  0  0  0  0  0
   40.7840   10.9250   44.4160 C   0  0  0  0  0  0  0  0  0  0  0  0
   40.4290   11.4360   45.6280 C   0  0  0  0  0  0  0  0  0  0  0  0
   40.5490   10.6610   46.7810 C   0  0  0  0  0  0  0  0  0  0  0  0
   41.0260    9.3690   46.7240 C   0  0  0  0  0  0  0  0  0  0  0  0
   41.3890    8.8500   45.4840 C   0  0  0  0  0  0  0  0  0  0  0  0
   41.2720    9.6090   44.3480 C   0  0  0  0  0  0  0  0  0  0  0  0
   41.7240    8.9520   42.8210 Cl  0  0  0  0  0  0  0  0  0  0  0  0
   42.0000    7.2250   45.3440 Cl  0  0  0  0  0  0  0  0  0  0  0  0
   41.1640    8.4270   48.1900 Cl  0  0  0  0  0  0  0  0  0  0  0  0
   40.0800   11.3720   48.2890 Cl  0  0  0  0  0  0  0  0  0  0  0  0
   40.9000   13.7400   46.1450 C   0  0  0  0  0  0  0  0  0  0  0  0
   40.5220   14.6480   47.0730 C   0  0  0  0  0  0  0  0  0  0  0  0
   41.5150   15.4510   47.6300 C   0  0  0  0  0  0  0  0  0  0  0  0
   42.8410   15.3540   47.2750 C   0  0  0  0  0  0  0  0  0  0  0  0
   43.1900   14.4160   46.3250 C   0  0  0  0  0  0  0  0  0  0  0  0
   42.2390   13.6100   45.7550 C   0  0  0  0  0  0  0  0  0  0  0  0
   45.2120   14.2430   45.7600 I   0  0  0  0  0  0  0  0  0  0  0  0
   43.8190   16.1430   47.8230 O   0  0  0  0  0  0  0  0  0  0  0  0
   40.9410   16.8640   49.0730 I   0  0  0  0  0  0  0  0  0  0  0  0
   39.1980   14.7740   47.4550 O   0  0  0  0  0  0  0  0  0  0  0  0
   37.8270   11.4570   44.6080 H   0  0  0  0  0  0  0  0  0  0  0  0
   42.5430   12.8960   45.0240 H   0  0  0  0  0  0  0  0  0  0  0  0
  2  1  1  0  0  0  0
  3  2  1  0  0  0  0
  3 33  1  0  0  0  0
  4  3  2  0  0  0  0
  5  6  2  0  0  0  0
  5  4  1  0  0  0  0
  6  7  1  0  0  0  0
  7  8  1  0  0  0  0
  7  2  2  0  0  0  0
  9  6  1  0  0  0  0
 10 15  1  0  0  0  0
 10  4  1  0  0  0  0
 10 24  1  0  0  0  0
 11 10  1  0  0  0  0
 12 11  1  0  0  0  0
 12 14  1  0  0  0  0
 13 12  2  0  0  0  0
 14 15  1  0  0  0  0
 15 16  2  0  0  0  0
 16 23  1  0  0  0  0
 17 16  1  0  0  0  0
 17 22  1  0  0  0  0
 18 17  2  0  0  0  0
 19 14  2  0  0  0  0
 19 18  1  0  0  0  0
 20 19  1  0  0  0  0
 21 18  1  0  0  0  0
 24 25  1  0  0  0  0
 25 33  1  0  0  0  0
 25 26  2  0  0  0  0
 26 32  1  0  0  0  0
 27 26  1  0  0  0  0
 27 31  1  0  0  0  0
 28 27  2  0  0  0  0
 29 24  2  0  0  0  0
 29 28  1  0  0  0  0
 30 28  1  0  0  0  0
 34  5  1  0  0  0  0
 35 29  1  0  0  0  0
M  END
>  <Pose>
1

>  <Score>
-5.32

$$$$
