
 OpenBabel03172210433D

 35 38  0  0  1  0  0  0  0  0999 V2000
   41.3390   16.2090   46.9740 I   0  0  0  0  0  0  0  0  0  0  0  0
   42.0660   14.3210   46.3850 C   0  0  0  0  0  0  0  0  0  0  0  0
   41.2290   13.2690   46.0690 C   0  0  0  0  0  0  0  0  0  0  0  0
   41.7000   12.0320   45.6830 C   0  0  0  0  0  0  0  0  0  0  0  0
   43.0710   11.8630   45.6190 C   0  0  0  0  0  0  0  0  0  0  0  0
   43.9190   12.9140   45.9350 C   0  0  0  0  0  0  0  0  0  0  0  0
   43.4350   14.1570   46.3240 C   0  0  0  0  0  0  0  0  0  0  0  0
   44.3320   15.1780   46.6300 O   0  0  0  0  0  0  0  0  0  0  0  0
   40.8800   10.9690   45.3620 C   0  0  0  0  0  0  0  0  0  0  0  0
   39.5130   11.2130   45.4500 C   0  0  0  0  0  0  0  0  0  0  0  0
   39.0540   12.5360   45.8620 C   0  0  0  0  0  0  0  0  0  0  0  0
   37.6880   12.7160   45.9290 C   0  0  1  0  0  0  0  0  0  0  0  0
   36.7840   11.7190   45.6300 C   0  0  0  0  0  0  0  0  0  0  0  0
   35.5330   11.9040   45.6970 O   0  0  0  0  0  0  0  0  0  0  0  0
   37.2180   10.4670   45.2400 C   0  0  0  0  0  0  0  0  0  0  0  0
   38.5800   10.2550   45.1620 C   0  0  0  0  0  0  0  0  0  0  0  0
   36.9310   14.5880   46.5130 I   0  0  0  0  0  0  0  0  0  0  0  0
   39.9370   13.4640   46.1400 O   0  0  0  0  0  0  0  0  0  0  0  0
   41.3750    9.6590   44.9540 C   0  0  0  0  0  0  0  0  0  0  0  0
   41.8550    9.5070   43.6570 C   0  0  0  0  0  0  0  0  0  0  0  0
   42.3300    8.2960   43.2280 C   0  0  0  0  0  0  0  0  0  0  0  0
   42.3300    7.2220   44.0900 C   0  0  0  0  0  0  0  0  0  0  0  0
   41.8620    7.3460   45.3790 C   0  0  0  0  0  0  0  0  0  0  0  0
   41.3890    8.5730   45.7890 C   0  0  0  0  0  0  0  0  0  0  0  0
   41.8590   10.6390   42.7350 C   0  0  0  0  0  0  0  0  0  0  0  0
   40.8180   11.0880   42.2050 O   0  0  0  0  0  0  0  0  0  0  0  0
   43.0470   11.2740   42.4020 O   0  0  0  0  0  0  0  0  0  0  0  0
   43.4370   10.8920   45.3160 H   0  0  0  0  0  0  0  0  0  0  0  0
   44.9820   12.7160   45.8660 H   0  0  0  0  0  0  0  0  0  0  0  0
   36.4860    9.7040   45.0100 H   0  0  0  0  0  0  0  0  0  0  0  0
   38.9350    9.2810   44.8590 H   0  0  0  0  0  0  0  0  0  0  0  0
   42.7160    8.1430   42.2090 H   0  0  0  0  0  0  0  0  0  0  0  0
   42.7100    6.2710   43.7330 H   0  0  0  0  0  0  0  0  0  0  0  0
   41.8780    6.4690   46.0360 H   0  0  0  0  0  0  0  0  0  0  0  0
   41.0120    8.7060   46.7960 H   0  0  0  0  0  0  0  0  0  0  0  0
  2  1  1  0  0  0  0
  3 18  1  0  0  0  0
  3  2  2  0  0  0  0
  4  3  1  0  0  0  0
  5  4  1  0  0  0  0
  5  6  1  0  0  0  0
  6  7  2  0  0  0  0
  7  2  1  0  0  0  0
  7  8  1  0  0  0  0
  9 10  1  0  0  0  0
  9  4  2  0  0  0  0
 10 11  2  0  0  0  0
 11 12  1  0  0  0  0
 11 18  1  0  0  0  0
 12 17  1  1  0  0  0
 13 14  2  0  0  0  0
 13 12  1  0  0  0  0
 15 13  1  0  0  0  0
 16 15  2  0  0  0  0
 16 10  1  0  0  0  0
 19  9  1  0  0  0  0
 19 24  1  0  0  0  0
 20 19  2  0  0  0  0
 21 20  1  0  0  0  0
 21 22  2  0  0  0  0
 22 23  1  0  0  0  0
 23 24  2  0  0  0  0
 23 34  1  0  0  0  0
 24 35  1  0  0  0  0
 25 20  1  0  0  0  0
 26 25  2  0  0  0  0
 27 25  1  0  0  0  0
 28  5  1  0  0  0  0
 29  6  1  0  0  0  0
 30 15  1  0  0  0  0
 31 16  1  0  0  0  0
 32 21  1  0  0  0  0
 33 22  1  0  0  0  0
M  END
>  <Pose>
1

>  <Score>
-3.96

$$$$
