
 OpenBabel03172210433D

 34 37  0  0  1  0  0  0  0  0999 V2000
   43.3240    8.8840   45.1040 P   0  0  1  0  0  0  0  0  0  0  0  0
   43.9800    8.7790   46.4630 O   0  0  0  0  0  0  0  0  0  0  0  0
   44.4910    8.8870   43.8590 O   0  0  0  0  0  0  0  0  0  0  0  0
   44.3590    7.6690   43.1970 C   0  0  2  0  0  0  0  0  0  0  0  0
   44.1100    6.6230   44.2900 C   0  0  2  0  0  0  0  0  0  0  0  0
   44.7380    5.5200   43.7670 O   0  0  0  0  0  0  0  0  0  0  0  0
   46.0100    6.0270   43.5030 C   0  0  2  0  0  0  0  0  0  0  0  0
   45.6650    7.2020   42.5890 C   0  0  2  0  0  0  0  0  0  0  0  0
   46.6380    8.1680   42.5790 O   0  0  0  0  0  0  0  0  0  0  0  0
   46.8530    5.0630   42.8400 N   0  0  0  0  0  0  0  0  0  0  0  0
   47.8290    4.3890   43.4590 C   0  0  0  0  0  0  0  0  0  0  0  0
   48.2690    4.4070   44.7470 N   0  0  0  0  0  0  0  0  0  0  0  0
   49.2720    3.6520   45.1860 C   0  0  0  0  0  0  0  0  0  0  0  0
   49.8840    2.8290   44.3160 N   0  0  0  0  0  0  0  0  0  0  0  0
   49.4980    2.7610   43.0250 C   0  0  0  0  0  0  0  0  0  0  0  0
   48.4590    3.5430   42.5670 C   0  0  0  0  0  0  0  0  0  0  0  0
   47.8390    3.7220   41.3910 N   0  0  0  0  0  0  0  0  0  0  0  0
   46.8640    4.6460   41.5620 C   0  0  0  0  0  0  0  0  0  0  0  0
   45.6670    5.2830   40.2080 B   0  0  0  0  0  0  0  0  0  0  0  0
   50.1280    1.9110   42.1200 O   0  0  0  0  0  0  0  0  0  0  0  0
   49.6960    3.7070   46.5460 N   0  0  0  0  0  0  0  0  0  0  0  0
   42.6450    6.4920   44.4790 C   0  0  0  0  0  0  0  0  0  0  0  0
   42.1370    7.7400   44.8560 O   0  0  0  0  0  0  0  0  0  0  0  0
   42.5920   10.4300   45.0520 O   0  0  0  0  0  0  0  0  0  0  0  0
   43.5320    7.6870   42.4670 H   0  0  0  0  0  0  0  0  0  0  0  0
   44.6280    6.9050   45.2240 H   0  0  0  0  0  0  0  0  0  0  0  0
   46.4840    6.4760   44.4050 H   0  0  0  0  0  0  0  0  0  0  0  0
   45.4780    6.7810   41.5590 H   0  0  0  0  0  0  0  0  0  0  0  0
   46.2590    9.0330   42.2220 H   0  0  0  0  0  0  0  0  0  0  0  0
   49.5820    1.0890   41.8210 H   0  0  0  0  0  0  0  0  0  0  0  0
   49.1000    3.2070   47.2400 H   0  0  0  0  0  0  0  0  0  0  0  0
   50.5620    4.2210   46.8450 H   0  0  0  0  0  0  0  0  0  0  0  0
   42.1710    6.2620   43.4910 H   0  0  0  0  0  0  0  0  0  0  0  0
   42.4070    5.7030   45.2160 H   0  0  0  0  0  0  0  0  0  0  0  0
  1 24  2  6  0  0  0
  1  2  1  0  0  0  0
  3  1  1  0  0  0  0
  4 25  1  6  0  0  0
  4  3  1  0  0  0  0
  4  5  1  0  0  0  0
  5 22  1  0  0  0  0
  5 26  1  1  0  0  0
  6  5  1  0  0  0  0
  7  6  1  0  0  0  0
  7 27  1  1  0  0  0
  8 28  1  6  0  0  0
  8  4  1  0  0  0  0
  8  7  1  0  0  0  0
  9  8  1  0  0  0  0
 10 11  1  0  0  0  0
 10  7  1  0  0  0  0
 11 12  1  0  0  0  0
 12 13  2  0  0  0  0
 13 21  1  0  0  0  0
 14 13  1  0  0  0  0
 15 14  2  0  0  0  0
 16 15  1  0  0  0  0
 16 11  2  0  0  0  0
 17 18  2  0  0  0  0
 17 16  1  0  0  0  0
 18 10  1  0  0  0  0
 19 18  1  0  0  0  0
 20 15  1  0  0  0  0
 21 32  1  0  0  0  0
 21 31  1  0  0  0  0
 22 23  1  0  0  0  0
 22 34  1  0  0  0  0
 23  1  1  0  0  0  0
 29  9  1  0  0  0  0
 30 20  1  0  0  0  0
 33 22  1  0  0  0  0
M  END
>  <Pose>
1

>  <Score>
-6.11

$$$$
