
 OpenBabel03172210433D

 46 51  0  0  1  0  0  0  0  0999 V2000
   42.2270    9.2220   44.1070 P   0  0  2  0  0  0  0  0  0  0  0  0
   41.3810   10.6170   43.5120 S   0  0  0  0  0  0  0  0  0  0  0  0
   43.8170    9.2830   43.5140 O   0  0  0  0  0  0  0  0  0  0  0  0
   44.1020    8.0170   43.0100 C   0  0  2  0  0  0  0  0  0  0  0  0
   43.5580    7.0220   44.0380 C   0  0  2  0  0  0  0  0  0  0  0  0
   44.4140    5.9590   43.9580 O   0  0  0  0  0  0  0  0  0  0  0  0
   45.6970    6.4520   43.7300 C   0  0  2  0  0  0  0  0  0  0  0  0
   45.5700    7.7180   42.9550 C   0  0  2  0  0  0  0  0  0  0  0  0
   46.3040    8.7530   43.5490 O   0  0  0  0  0  0  0  0  0  0  0  0
   46.5300    5.4570   43.0610 N   0  0  0  0  0  0  0  0  0  0  0  0
   47.5170    4.6990   43.6020 C   0  0  0  0  0  0  0  0  0  0  0  0
   48.0740    3.8740   42.6490 C   0  0  0  0  0  0  0  0  0  0  0  0
   47.4020    4.1460   41.5100 N   0  0  0  0  0  0  0  0  0  0  0  0
   46.4780    5.0940   41.7670 C   0  0  0  0  0  0  0  0  0  0  0  0
   45.2410    5.8660   40.5300 B   0  0  0  0  0  0  0  0  0  0  0  0
   49.1000    3.0200   43.0020 C   0  0  0  0  0  0  0  0  0  0  0  0
   49.6130    2.2670   42.1460 O   0  0  0  0  0  0  0  0  0  0  0  0
   49.5860    2.9620   44.2630 N   0  0  0  0  0  0  0  0  0  0  0  0
   49.0280    3.7760   45.1770 C   0  0  0  0  0  0  0  0  0  0  0  0
   49.6780    3.5300   46.3290 N   0  0  0  0  0  0  0  0  0  0  0  0
   50.6270    2.5890   46.1770 C   0  0  0  0  0  0  0  0  0  0  0  0
   50.5690    2.2230   44.8480 C   0  0  0  0  0  0  0  0  0  0  0  0
   51.5350    2.0590   47.2020 C   0  0  0  0  0  0  0  0  0  0  0  0
   51.7000    0.7000   47.3480 C   0  0  0  0  0  0  0  0  0  0  0  0
   52.5520    0.1690   48.3080 C   0  0  0  0  0  0  0  0  0  0  0  0
   53.2430    1.0300   49.1290 C   0  0  0  0  0  0  0  0  0  0  0  0
   53.1050    2.4050   49.0150 C   0  0  0  0  0  0  0  0  0  0  0  0
   52.2470    2.8760   48.0450 C   0  0  0  0  0  0  0  0  0  0  0  0
   48.0140    4.6260   44.8480 N   0  0  0  0  0  0  0  0  0  0  0  0
   42.1440    6.7060   43.6140 C   0  0  0  0  0  0  0  0  0  0  0  0
   41.4040    7.8640   43.5300 O   0  0  0  0  0  0  0  0  0  0  0  0
   42.1960    9.1580   45.7950 O   0  0  0  0  0  0  0  0  0  0  0  0
   43.6300    7.8930   42.0260 H   0  0  0  0  0  0  0  0  0  0  0  0
   43.5840    7.4280   45.0560 H   0  0  0  0  0  0  0  0  0  0  0  0
   46.1370    6.6190   44.7570 H   0  0  0  0  0  0  0  0  0  0  0  0
   45.8800    7.5780   41.9190 H   0  0  0  0  0  0  0  0  0  0  0  0
   45.9900    9.6360   43.2670 H   0  0  0  0  0  0  0  0  0  0  0  0
   51.1850    1.4830   44.3410 H   0  0  0  0  0  0  0  0  0  0  0  0
   51.1580    0.0250   46.7040 H   0  0  0  0  0  0  0  0  0  0  0  0
   52.6850   -0.9010   48.4270 H   0  0  0  0  0  0  0  0  0  0  0  0
   53.9120    0.6420   49.8830 H   0  0  0  0  0  0  0  0  0  0  0  0
   53.6630    3.0650   49.6760 H   0  0  0  0  0  0  0  0  0  0  0  0
   52.1290    3.9410   47.9430 H   0  0  0  0  0  0  0  0  0  0  0  0
   47.5850    5.2560   45.5620 H   0  0  0  0  0  0  0  0  0  0  0  0
   41.6750    5.9170   44.2340 H   0  0  0  0  0  0  0  0  0  0  0  0
   42.2050    6.2690   42.5750 H   0  0  0  0  0  0  0  0  0  0  0  0
  1  2  1  6  0  0  0
  1 32  2  0  0  0  0
  3  1  1  0  0  0  0
  4 33  1  6  0  0  0
  4  3  1  0  0  0  0
  4  5  1  0  0  0  0
  5 34  1  1  0  0  0
  6  5  1  0  0  0  0
  7  6  1  0  0  0  0
  7 35  1  1  0  0  0
  8 36  1  6  0  0  0
  8  4  1  0  0  0  0
  8  9  1  0  0  0  0
  8  7  1  0  0  0  0
 10 11  1  0  0  0  0
 10  7  1  0  0  0  0
 11 29  1  0  0  0  0
 12 16  1  0  0  0  0
 12 11  2  0  0  0  0
 13 14  2  0  0  0  0
 13 12  1  0  0  0  0
 14 10  1  0  0  0  0
 15 14  1  0  0  0  0
 16 18  1  0  0  0  0
 17 16  2  0  0  0  0
 18 22  1  0  0  0  0
 18 19  1  0  0  0  0
 19 20  2  0  0  0  0
 21 20  1  0  0  0  0
 21 23  1  0  0  0  0
 22 21  2  0  0  0  0
 23 24  2  0  0  0  0
 23 28  1  0  0  0  0
 24 25  1  0  0  0  0
 25 40  1  0  0  0  0
 25 26  2  0  0  0  0
 26 41  1  0  0  0  0
 27 26  1  0  0  0  0
 27 42  1  0  0  0  0
 28 27  2  0  0  0  0
 29 19  1  0  0  0  0
 29 44  1  0  0  0  0
 30  5  1  0  0  0  0
 30 45  1  0  0  0  0
 31 30  1  0  0  0  0
 31  1  1  0  0  0  0
 37  9  1  0  0  0  0
 38 22  1  0  0  0  0
 39 24  1  0  0  0  0
 43 28  1  0  0  0  0
 46 30  1  0  0  0  0
M  END
>  <Pose>
1

>  <Score>
-8.11

$$$$
