
 OpenBabel03172210433D

 33 36  0  0  1  0  0  0  0  0999 V2000
   40.1890   12.0520   44.3460 P   0  0  2  0  0  0  0  0  0  0  0  0
   39.5580   11.4830   45.8710 S   0  0  0  0  0  0  0  0  0  0  0  0
   40.4640   10.7250   43.3080 O   0  0  0  0  0  0  0  0  0  0  0  0
   41.5650   10.0640   43.7920 C   0  0  2  0  0  0  0  0  0  0  0  0
   42.7730   11.0080   43.7260 C   0  0  2  0  0  0  0  0  0  0  0  0
   43.8090   10.0930   43.9050 O   0  0  0  0  0  0  0  0  0  0  0  0
   43.5460    9.0570   43.0400 C   0  0  2  0  0  0  0  0  0  0  0  0
   42.0510    8.9610   42.8700 C   0  0  2  0  0  0  0  0  0  0  0  0
   41.7600    9.3780   41.5640 O   0  0  0  0  0  0  0  0  0  0  0  0
   44.0110    7.7760   43.5360 N   0  0  0  0  0  0  0  0  0  0  0  0
   45.0650    7.0970   43.0170 C   0  0  0  0  0  0  0  0  0  0  0  0
   45.9110    7.3750   41.9930 N   0  0  0  0  0  0  0  0  0  0  0  0
   46.9040    6.5270   41.6590 C   0  0  0  0  0  0  0  0  0  0  0  0
   47.0650    5.3740   42.3530 N   0  0  0  0  0  0  0  0  0  0  0  0
   46.2470    5.0620   43.3740 C   0  0  0  0  0  0  0  0  0  0  0  0
   45.2250    5.9240   43.7270 C   0  0  0  0  0  0  0  0  0  0  0  0
   44.2690    5.8950   44.6740 N   0  0  0  0  0  0  0  0  0  0  0  0
   43.5400    7.0250   44.5450 C   0  0  0  0  0  0  0  0  0  0  0  0
   42.0330    7.5580   45.6090 B   0  0  0  0  0  0  0  0  0  0  0  0
   46.4310    3.8410   44.0980 N   0  0  0  0  0  0  0  0  0  0  0  0
   42.7130   12.0440   44.8040 C   0  0  0  0  0  0  0  0  0  0  0  0
   41.6300   12.8700   44.5580 O   0  0  0  0  0  0  0  0  0  0  0  0
   39.0360   13.0330   43.6420 O   0  0  0  0  0  0  0  0  0  0  0  0
   41.4700    9.7420   44.8290 H   0  0  0  0  0  0  0  0  0  0  0  0
   42.8010   11.4250   42.7110 H   0  0  0  0  0  0  0  0  0  0  0  0
   44.0790    9.2470   42.0790 H   0  0  0  0  0  0  0  0  0  0  0  0
   41.6410    7.9810   43.1140 H   0  0  0  0  0  0  0  0  0  0  0  0
   41.1350    8.7880   41.1040 H   0  0  0  0  0  0  0  0  0  0  0  0
   47.5610    6.7930   40.8260 H   0  0  0  0  0  0  0  0  0  0  0  0
   46.7870    2.9960   43.5730 H   0  0  0  0  0  0  0  0  0  0  0  0
   46.2280    3.7570   45.1130 H   0  0  0  0  0  0  0  0  0  0  0  0
   43.6210   12.6450   44.7640 H   0  0  0  0  0  0  0  0  0  0  0  0
   42.6570   11.5250   45.7800 H   0  0  0  0  0  0  0  0  0  0  0  0
  1 23  2  6  0  0  0
  1 22  1  0  0  0  0
  1  2  1  0  0  0  0
  3  4  1  0  0  0  0
  3  1  1  0  0  0  0
  4 24  1  1  0  0  0
  5 25  1  6  0  0  0
  5  4  1  0  0  0  0
  5  6  1  0  0  0  0
  5 21  1  0  0  0  0
  7 26  1  6  0  0  0
  7 10  1  0  0  0  0
  7  6  1  0  0  0  0
  8  7  1  0  0  0  0
  8 27  1  1  0  0  0
  8  4  1  0  0  0  0
  9  8  1  0  0  0  0
 10 18  1  0  0  0  0
 11 10  1  0  0  0  0
 11 16  2  0  0  0  0
 12 11  1  0  0  0  0
 13 12  2  0  0  0  0
 13 14  1  0  0  0  0
 14 15  2  0  0  0  0
 15 16  1  0  0  0  0
 15 20  1  0  0  0  0
 16 17  1  0  0  0  0
 18 17  2  0  0  0  0
 18 19  1  0  0  0  0
 20 31  1  0  0  0  0
 21 33  1  0  0  0  0
 22 21  1  0  0  0  0
 28  9  1  0  0  0  0
 29 13  1  0  0  0  0
 30 20  1  0  0  0  0
 32 21  1  0  0  0  0
M  END
>  <Pose>
1

>  <Score>
-6.71

$$$$
