
 OpenBabel03172210433D

 50 53  0  0  0  0  0  0  0  0999 V2000
   42.2600    8.6200   43.1050 S   0  0  0  0  0  0  0  0  0  0  0  0
   41.8150    7.1850   43.0240 O   0  0  0  0  0  0  0  0  0  0  0  0
   41.8670    9.2590   41.7850 O   0  0  0  0  0  0  0  0  0  0  0  0
   43.9410    8.6720   43.3110 N   0  0  0  0  0  0  0  0  0  0  0  0
   44.4330    8.2800   44.5880 C   0  0  0  0  0  0  0  0  0  0  0  0
   45.0800    6.9820   44.7210 C   0  0  0  0  0  0  0  0  0  0  0  0
   45.4830    6.2850   43.5150 N   0  0  0  0  0  0  0  0  0  0  0  0
   45.0170    6.7150   42.2320 C   0  0  0  0  0  0  0  0  0  0  0  0
   44.7050    8.2070   42.2100 C   0  0  0  0  0  0  0  0  0  0  0  0
   46.3540    5.2030   43.6450 C   0  0  0  0  0  0  0  0  0  0  0  0
   45.6820    4.0960   44.0260 O   0  0  0  0  0  0  0  0  0  0  0  0
   47.7660    5.0270   43.4650 C   0  0  0  0  0  0  0  0  0  0  0  0
   48.6570    4.7850   44.5970 C   0  0  0  0  0  0  0  0  0  0  0  0
   49.5300    3.7240   44.6070 C   0  0  0  0  0  0  0  0  0  0  0  0
   50.3800    3.5080   45.6920 C   0  0  0  0  0  0  0  0  0  0  0  0
   50.3440    4.3630   46.7540 C   0  0  0  0  0  0  0  0  0  0  0  0
   49.4610    5.4440   46.7480 C   0  0  0  0  0  0  0  0  0  0  0  0
   48.6340    5.6520   45.6900 C   0  0  0  0  0  0  0  0  0  0  0  0
   49.5930    2.5060   43.1290 B   0  0  0  0  0  0  0  0  0  0  0  0
   41.3500    9.3380   44.4180 C   0  0  0  0  0  0  0  0  0  0  0  0
   40.1910   10.0630   44.1470 C   0  0  0  0  0  0  0  0  0  0  0  0
   39.4390   10.6620   45.1350 C   0  0  0  0  0  0  0  0  0  0  0  0
   39.8100   10.5690   46.4570 C   0  0  0  0  0  0  0  0  0  0  0  0
   40.9560    9.8540   46.7320 C   0  0  0  0  0  0  0  0  0  0  0  0
   41.7190    9.2470   45.7420 C   0  0  0  0  0  0  0  0  0  0  0  0
   39.0500   11.1810   47.4740 O   0  0  0  0  0  0  0  0  0  0  0  0
   37.6490   11.4260   47.2590 C   0  0  0  0  0  0  0  0  0  0  0  0
   37.5440   12.0170   45.9000 C   0  0  0  0  0  0  0  0  0  0  0  0
   36.8510   13.0320   45.6610 O   0  0  0  0  0  0  0  0  0  0  0  0
   38.2530   11.4160   44.8310 N   0  0  0  0  0  0  0  0  0  0  0  0
   43.5490    8.3080   45.2920 H   0  0  0  0  0  0  0  0  0  0  0  0
   45.0900    9.1250   44.9530 H   0  0  0  0  0  0  0  0  0  0  0  0
   46.0090    7.0790   45.3580 H   0  0  0  0  0  0  0  0  0  0  0  0
   44.4440    6.2370   45.3000 H   0  0  0  0  0  0  0  0  0  0  0  0
   44.1310    6.1230   41.9690 H   0  0  0  0  0  0  0  0  0  0  0  0
   45.7360    6.5710   41.4030 H   0  0  0  0  0  0  0  0  0  0  0  0
   44.1880    8.4180   41.2660 H   0  0  0  0  0  0  0  0  0  0  0  0
   45.7040    8.7210   42.2670 H   0  0  0  0  0  0  0  0  0  0  0  0
   47.9340    4.1730   42.7030 H   0  0  0  0  0  0  0  0  0  0  0  0
   48.1670    5.9250   42.9000 H   0  0  0  0  0  0  0  0  0  0  0  0
   51.0390    2.6540   45.6370 H   0  0  0  0  0  0  0  0  0  0  0  0
   50.9990    4.1930   47.5810 H   0  0  0  0  0  0  0  0  0  0  0  0
   49.4720    6.1050   47.6260 H   0  0  0  0  0  0  0  0  0  0  0  0
   47.9320    6.4820   45.6500 H   0  0  0  0  0  0  0  0  0  0  0  0
   39.8880   10.1440   43.1080 H   0  0  0  0  0  0  0  0  0  0  0  0
   41.2560    9.7750   47.7880 H   0  0  0  0  0  0  0  0  0  0  0  0
   42.6180    8.6870   45.9950 H   0  0  0  0  0  0  0  0  0  0  0  0
   37.1060   10.4330   47.1900 H   0  0  0  0  0  0  0  0  0  0  0  0
   37.3160   12.0580   48.0680 H   0  0  0  0  0  0  0  0  0  0  0  0
   37.9830   11.4800   43.8390 H   0  0  0  0  0  0  0  0  0  0  0  0
  1  4  1  0  0  0  0
  1 20  1  0  0  0  0
  2  1  2  0  0  0  0
  3  1  2  0  0  0  0
  4  5  1  0  0  0  0
  5  6  1  0  0  0  0
  5 32  1  0  0  0  0
  5 31  1  0  0  0  0
  6 34  1  0  0  0  0
  6 33  1  0  0  0  0
  7 10  1  0  0  0  0
  7  6  1  0  0  0  0
  8  7  1  0  0  0  0
  9  8  1  0  0  0  0
  9 38  1  0  0  0  0
  9  4  1  0  0  0  0
 10 11  2  0  0  0  0
 12 10  1  0  0  0  0
 12 13  1  0  0  0  0
 13 14  2  0  0  0  0
 13 18  1  0  0  0  0
 14 15  1  0  0  0  0
 15 16  2  0  0  0  0
 16 42  1  0  0  0  0
 17 16  1  0  0  0  0
 17 43  1  0  0  0  0
 18 17  2  0  0  0  0
 19 14  1  0  0  0  0
 20 25  1  0  0  0  0
 21 20  2  0  0  0  0
 21 22  1  0  0  0  0
 22 23  2  0  0  0  0
 23 24  1  0  0  0  0
 23 26  1  0  0  0  0
 24 46  1  0  0  0  0
 25 47  1  0  0  0  0
 25 24  2  0  0  0  0
 27 26  1  0  0  0  0
 27 49  1  0  0  0  0
 28 27  1  0  0  0  0
 29 28  2  0  0  0  0
 30 22  1  0  0  0  0
 30 28  1  0  0  0  0
 35  8  1  0  0  0  0
 36  8  1  0  0  0  0
 37  9  1  0  0  0  0
 39 12  1  0  0  0  0
 40 12  1  0  0  0  0
 41 15  1  0  0  0  0
 44 18  1  0  0  0  0
 45 21  1  0  0  0  0
 48 27  1  0  0  0  0
 50 30  1  0  0  0  0
M  END
>  <Pose>
1

>  <Score>
-6.56

$$$$
