
 OpenBabel03172210433D

 60 64  0  0  0  0  0  0  0  0999 V2000
   42.3150    8.7590   43.7060 S   0  0  0  0  0  0  0  0  0  0  0  0
   41.4360    7.5730   43.5980 O   0  0  0  0  0  0  0  0  0  0  0  0
   42.3800    9.3300   42.2850 O   0  0  0  0  0  0  0  0  0  0  0  0
   43.9480    8.3800   44.0920 N   0  0  0  0  0  0  0  0  0  0  0  0
   44.8230    8.3570   42.9710 C   0  0  0  0  0  0  0  0  0  0  0  0
   44.8940    7.0110   42.2620 C   0  0  0  0  0  0  0  0  0  0  0  0
   45.1660    5.9980   43.2240 N   0  0  0  0  0  0  0  0  0  0  0  0
   44.1020    5.9240   44.2770 C   0  0  0  0  0  0  0  0  0  0  0  0
   44.0850    7.2530   44.9520 C   0  0  0  0  0  0  0  0  0  0  0  0
   46.2100    5.1030   43.3470 C   0  0  0  0  0  0  0  0  0  0  0  0
   45.9600    4.0630   44.1180 O   0  0  0  0  0  0  0  0  0  0  0  0
   47.5280    5.0990   42.7820 C   0  0  0  0  0  0  0  0  0  0  0  0
   48.3580    3.9600   42.9330 N   0  0  0  0  0  0  0  0  0  0  0  0
   48.4890    2.9290   42.1000 N   0  0  0  0  0  0  0  0  0  0  0  0
   49.3980    2.0580   42.5560 C   0  0  0  0  0  0  0  0  0  0  0  0
   49.8570    2.5780   43.7410 C   0  0  0  0  0  0  0  0  0  0  0  0
   49.2110    3.7550   43.9710 C   0  0  0  0  0  0  0  0  0  0  0  0
   51.1850    1.7840   44.8850 B   0  0  0  0  0  0  0  0  0  0  0  0
   41.6900   10.0460   44.6900 C   0  0  0  0  0  0  0  0  0  0  0  0
   41.3100   11.2820   44.1480 C   0  0  0  0  0  0  0  0  0  0  0  0
   40.8160   12.3010   44.9370 C   0  0  0  0  0  0  0  0  0  0  0  0
   40.6770   12.1440   46.3000 C   0  0  0  0  0  0  0  0  0  0  0  0
   41.0470   10.9410   46.8370 C   0  0  0  0  0  0  0  0  0  0  0  0
   41.5430    9.9220   46.0300 C   0  0  0  0  0  0  0  0  0  0  0  0
   41.9090    8.6920   46.7510 C   0  0  0  0  0  0  0  0  0  0  0  0
   40.7990    8.2630   47.6860 C   0  0  0  0  0  0  0  0  0  0  0  0
   40.2660    9.3690   48.3860 N   0  0  0  0  0  0  0  0  0  0  0  0
   40.9540   10.6170   48.2780 C   0  0  0  0  0  0  0  0  0  0  0  0
   38.8510    9.4530   48.4750 C   0  0  0  0  0  0  0  0  0  0  0  0
   40.1740   13.1810   47.1130 O   0  0  0  0  0  0  0  0  0  0  0  0
   40.8570   14.4420   47.1140 C   0  0  0  0  0  0  0  0  0  0  0  0
   40.5400   13.3680   44.1090 O   0  0  0  0  0  0  0  0  0  0  0  0
   40.9860   13.0680   42.8170 C   0  0  0  0  0  0  0  0  0  0  0  0
   41.3480   11.6960   42.8200 O   0  0  0  0  0  0  0  0  0  0  0  0
   44.4880    9.1020   42.2230 H   0  0  0  0  0  0  0  0  0  0  0  0
   45.8540    8.6000   43.2950 H   0  0  0  0  0  0  0  0  0  0  0  0
   45.5780    7.1350   41.4360 H   0  0  0  0  0  0  0  0  0  0  0  0
   43.9000    6.7580   41.8090 H   0  0  0  0  0  0  0  0  0  0  0  0
   44.3680    5.1540   45.0240 H   0  0  0  0  0  0  0  0  0  0  0  0
   43.1370    5.6860   43.8340 H   0  0  0  0  0  0  0  0  0  0  0  0
   43.3080    7.2550   45.7390 H   0  0  0  0  0  0  0  0  0  0  0  0
   45.0600    7.3630   45.4980 H   0  0  0  0  0  0  0  0  0  0  0  0
   48.1480    5.9920   43.1710 H   0  0  0  0  0  0  0  0  0  0  0  0
   47.4510    5.3810   41.6670 H   0  0  0  0  0  0  0  0  0  0  0  0
   49.7040    1.1230   42.0730 H   0  0  0  0  0  0  0  0  0  0  0  0
   49.3580    4.3930   44.8190 H   0  0  0  0  0  0  0  0  0  0  0  0
   42.3410    7.8910   46.1670 H   0  0  0  0  0  0  0  0  0  0  0  0
   42.7450    9.0140   47.4530 H   0  0  0  0  0  0  0  0  0  0  0  0
   39.9870    7.8590   47.0180 H   0  0  0  0  0  0  0  0  0  0  0  0
   41.1170    7.4180   48.3320 H   0  0  0  0  0  0  0  0  0  0  0  0
   40.3890   11.3840   48.8340 H   0  0  0  0  0  0  0  0  0  0  0  0
   41.9850   10.5880   48.6920 H   0  0  0  0  0  0  0  0  0  0  0  0
   38.4650    9.6250   49.5000 H   0  0  0  0  0  0  0  0  0  0  0  0
   38.4150    8.5280   48.0240 H   0  0  0  0  0  0  0  0  0  0  0  0
   38.4870   10.2870   47.8310 H   0  0  0  0  0  0  0  0  0  0  0  0
   41.7730   14.3920   46.4900 H   0  0  0  0  0  0  0  0  0  0  0  0
   41.1730   14.7040   48.1410 H   0  0  0  0  0  0  0  0  0  0  0  0
   40.1650   15.2610   46.7930 H   0  0  0  0  0  0  0  0  0  0  0  0
   41.8150   13.6990   42.4670 H   0  0  0  0  0  0  0  0  0  0  0  0
   40.0890   13.1440   42.1430 H   0  0  0  0  0  0  0  0  0  0  0  0
  1  4  1  0  0  0  0
  1 19  1  0  0  0  0
  2  1  2  0  0  0  0
  3  1  2  0  0  0  0
  4  9  1  0  0  0  0
  5 36  1  0  0  0  0
  5  4  1  0  0  0  0
  6  5  1  0  0  0  0
  6  7  1  0  0  0  0
  7 10  1  0  0  0  0
  7  8  1  0  0  0  0
  8  9  1  0  0  0  0
  8 39  1  0  0  0  0
  9 42  1  0  0  0  0
  9 41  1  0  0  0  0
 10 11  2  0  0  0  0
 12 13  1  0  0  0  0
 12 43  1  0  0  0  0
 12 10  1  0  0  0  0
 13 17  1  0  0  0  0
 14 15  2  0  0  0  0
 14 13  1  0  0  0  0
 15 16  1  0  0  0  0
 16 17  2  0  0  0  0
 16 18  1  0  0  0  0
 17 46  1  0  0  0  0
 19 24  1  0  0  0  0
 20 19  2  0  0  0  0
 20 21  1  0  0  0  0
 21 22  2  0  0  0  0
 22 23  1  0  0  0  0
 22 30  1  0  0  0  0
 23 28  1  0  0  0  0
 24 25  1  0  0  0  0
 24 23  2  0  0  0  0
 25 48  1  0  0  0  0
 25 26  1  0  0  0  0
 26 50  1  0  0  0  0
 26 27  1  0  0  0  0
 27 29  1  0  0  0  0
 28 27  1  0  0  0  0
 28 52  1  0  0  0  0
 28 51  1  0  0  0  0
 29 53  1  0  0  0  0
 30 31  1  0  0  0  0
 31 57  1  0  0  0  0
 32 21  1  0  0  0  0
 33 34  1  0  0  0  0
 33 32  1  0  0  0  0
 34 20  1  0  0  0  0
 35  5  1  0  0  0  0
 37  6  1  0  0  0  0
 38  6  1  0  0  0  0
 40  8  1  0  0  0  0
 44 12  1  0  0  0  0
 45 15  1  0  0  0  0
 47 25  1  0  0  0  0
 49 26  1  0  0  0  0
 54 29  1  0  0  0  0
 55 29  1  0  0  0  0
 56 31  1  0  0  0  0
 58 31  1  0  0  0  0
 59 33  1  0  0  0  0
 60 33  1  0  0  0  0
M  END
>  <Pose>
1

>  <Score>
-6.39

$$$$
