
 OpenBabel03172210433D

 47 50  0  0  0  0  0  0  0  0999 V2000
   46.6250    5.1250   42.9280 S   0  0  0  0  0  0  0  0  0  0  0  0
   45.4630    4.2420   43.1640 O   0  0  0  0  0  0  0  0  0  0  0  0
   46.8250    5.2020   41.4200 O   0  0  0  0  0  0  0  0  0  0  0  0
   46.4340    6.7060   43.4990 N   0  0  0  0  0  0  0  0  0  0  0  0
   46.0990    6.8740   44.8440 C   0  0  0  0  0  0  0  0  0  0  0  0
   45.3910    8.1290   45.2110 C   0  0  0  0  0  0  0  0  0  0  0  0
   44.6330    8.7200   44.1540 N   0  0  0  0  0  0  0  0  0  0  0  0
   44.6060    8.0690   42.8610 C   0  0  0  0  0  0  0  0  0  0  0  0
   46.0540    7.6840   42.5640 C   0  0  0  0  0  0  0  0  0  0  0  0
   43.9050    9.9220   44.3210 C   0  0  0  0  0  0  0  0  0  0  0  0
   44.2970   11.0020   43.7750 O   0  0  0  0  0  0  0  0  0  0  0  0
   42.6830   10.0110   45.1110 C   0  0  0  0  0  0  0  0  0  0  0  0
   41.4450   10.2260   44.5350 C   0  0  0  0  0  0  0  0  0  0  0  0
   40.2850   10.3110   45.2700 C   0  0  0  0  0  0  0  0  0  0  0  0
   40.3760   10.1730   46.6470 C   0  0  0  0  0  0  0  0  0  0  0  0
   41.5810    9.9570   47.2730 C   0  0  0  0  0  0  0  0  0  0  0  0
   42.7130    9.8800   46.4920 C   0  0  0  0  0  0  0  0  0  0  0  0
   41.3960   10.4070   42.6350 B   0  0  0  0  0  0  0  0  0  0  0  0
   48.1090    4.4240   43.5640 C   0  0  0  0  0  0  0  0  0  0  0  0
   48.7530    3.3920   42.9130 C   0  0  0  0  0  0  0  0  0  0  0  0
   49.9170    2.8210   43.3850 C   0  0  0  0  0  0  0  0  0  0  0  0
   50.4910    3.2740   44.5550 C   0  0  0  0  0  0  0  0  0  0  0  0
   49.8460    4.3120   45.2110 C   0  0  0  0  0  0  0  0  0  0  0  0
   48.6830    4.8780   44.7340 C   0  0  0  0  0  0  0  0  0  0  0  0
   51.6660    2.7180   45.0580 O   0  0  0  0  0  0  0  0  0  0  0  0
   52.2360    1.5110   44.5890 C   0  0  0  0  0  0  0  0  0  0  0  0
   51.7840    1.1750   43.2160 C   0  0  0  0  0  0  0  0  0  0  0  0
   52.4980    0.3800   42.5530 O   0  0  0  0  0  0  0  0  0  0  0  0
   50.5840    1.7560   42.7190 N   0  0  0  0  0  0  0  0  0  0  0  0
   47.0410    6.8110   45.4640 H   0  0  0  0  0  0  0  0  0  0  0  0
   45.4880    5.9840   45.1770 H   0  0  0  0  0  0  0  0  0  0  0  0
   46.1060    8.8490   45.6810 H   0  0  0  0  0  0  0  0  0  0  0  0
   44.6590    7.8940   46.0390 H   0  0  0  0  0  0  0  0  0  0  0  0
   44.1990    8.7300   42.0720 H   0  0  0  0  0  0  0  0  0  0  0  0
   44.0090    7.1510   42.9050 H   0  0  0  0  0  0  0  0  0  0  0  0
   46.0690    7.3190   41.5320 H   0  0  0  0  0  0  0  0  0  0  0  0
   46.6820    8.6010   42.7070 H   0  0  0  0  0  0  0  0  0  0  0  0
   39.3060   10.4830   44.8000 H   0  0  0  0  0  0  0  0  0  0  0  0
   39.4470   10.2430   47.2190 H   0  0  0  0  0  0  0  0  0  0  0  0
   41.6210    9.8520   48.3610 H   0  0  0  0  0  0  0  0  0  0  0  0
   43.6630    9.7110   46.9770 H   0  0  0  0  0  0  0  0  0  0  0  0
   48.3160    3.0260   41.9980 H   0  0  0  0  0  0  0  0  0  0  0  0
   50.2950    4.6710   46.1320 H   0  0  0  0  0  0  0  0  0  0  0  0
   48.1840    5.6820   45.2450 H   0  0  0  0  0  0  0  0  0  0  0  0
   51.9470    0.6530   45.2560 H   0  0  0  0  0  0  0  0  0  0  0  0
   53.3390    1.5930   44.6600 H   0  0  0  0  0  0  0  0  0  0  0  0
   50.1640    1.4020   41.8340 H   0  0  0  0  0  0  0  0  0  0  0  0
  1  2  2  0  0  0  0
  1  4  1  0  0  0  0
  1 19  1  0  0  0  0
  3  1  2  0  0  0  0
  4  5  1  0  0  0  0
  5 31  1  0  0  0  0
  5  6  1  0  0  0  0
  5 30  1  0  0  0  0
  6 32  1  0  0  0  0
  6 33  1  0  0  0  0
  7 10  1  0  0  0  0
  7  6  1  0  0  0  0
  8 35  1  0  0  0  0
  8  7  1  0  0  0  0
  9 37  1  0  0  0  0
  9  8  1  0  0  0  0
  9  4  1  0  0  0  0
 10 12  1  0  0  0  0
 11 10  2  0  0  0  0
 12 17  1  0  0  0  0
 13 12  2  0  0  0  0
 13 14  1  0  0  0  0
 14 15  2  0  0  0  0
 15 39  1  0  0  0  0
 15 16  1  0  0  0  0
 16 40  1  0  0  0  0
 17 41  1  0  0  0  0
 17 16  2  0  0  0  0
 18 13  1  0  0  0  0
 19 24  1  0  0  0  0
 20 21  1  0  0  0  0
 20 19  2  0  0  0  0
 21 22  2  0  0  0  0
 22 25  1  0  0  0  0
 22 23  1  0  0  0  0
 23 43  1  0  0  0  0
 24 23  2  0  0  0  0
 24 44  1  0  0  0  0
 26 46  1  0  0  0  0
 26 25  1  0  0  0  0
 26 45  1  0  0  0  0
 27 26  1  0  0  0  0
 28 27  2  0  0  0  0
 29 27  1  0  0  0  0
 29 21  1  0  0  0  0
 34  8  1  0  0  0  0
 36  9  1  0  0  0  0
 38 14  1  0  0  0  0
 42 20  1  0  0  0  0
 47 29  1  0  0  0  0
M  END
>  <Pose>
1

>  <Score>
-6.51

$$$$
