
 OpenBabel03172210433D

 43 46  0  0  0  0  0  0  0  0999 V2000
   45.9640    6.7950   42.6840 S   0  0  0  0  0  0  0  0  0  0  0  0
   46.3880    8.1510   42.2180 O   0  0  0  0  0  0  0  0  0  0  0  0
   45.8150    5.8960   41.4640 O   0  0  0  0  0  0  0  0  0  0  0  0
   44.4100    6.8790   43.4200 N   0  0  0  0  0  0  0  0  0  0  0  0
   43.4090    7.4420   42.5920 C   0  0  0  0  0  0  0  0  0  0  0  0
   42.8280    8.7420   43.0340 C   0  0  0  0  0  0  0  0  0  0  0  0
   42.7300    8.8840   44.4620 N   0  0  0  0  0  0  0  0  0  0  0  0
   43.1750    7.7600   45.2550 C   0  0  0  0  0  0  0  0  0  0  0  0
   44.5550    7.4340   44.7230 C   0  0  0  0  0  0  0  0  0  0  0  0
   42.2340   10.0280   45.1160 C   0  0  0  0  0  0  0  0  0  0  0  0
   41.0740   10.0250   45.5820 O   0  0  0  0  0  0  0  0  0  0  0  0
   43.0640   11.2200   45.2550 C   0  0  0  0  0  0  0  0  0  0  0  0
   44.0240   11.6030   44.4200 N   0  0  0  0  0  0  0  0  0  0  0  0
   44.5840   12.7380   44.8440 N   0  0  0  0  0  0  0  0  0  0  0  0
   43.9880   13.1310   45.9920 C   0  0  0  0  0  0  0  0  0  0  0  0
   43.0160   12.1580   46.2550 C   0  0  0  0  0  0  0  0  0  0  0  0
   44.3620   14.2590   46.6460 N   0  0  0  0  0  0  0  0  0  0  0  0
   45.3690   15.0250   46.1350 C   0  0  0  0  0  0  0  0  0  0  0  0
   45.9950   14.6520   44.9660 C   0  0  0  0  0  0  0  0  0  0  0  0
   45.5800   13.4980   44.3400 C   0  0  0  0  0  0  0  0  0  0  0  0
   47.4140   15.7340   44.2480 B   0  0  0  0  0  0  0  0  0  0  0  0
   47.1720    6.1640   43.7740 C   0  0  0  0  0  0  0  0  0  0  0  0
   47.7370    4.9090   43.7590 C   0  0  0  0  0  0  0  0  0  0  0  0
   48.6210    4.8010   44.7520 N   0  0  0  0  0  0  0  0  0  0  0  0
   48.6510    5.9440   45.4110 N   0  0  0  0  0  0  0  0  0  0  0  0
   47.7760    6.8170   44.8490 C   0  0  0  0  0  0  0  0  0  0  0  0
   49.4260    3.6560   45.0830 C   0  0  0  0  0  0  0  0  0  0  0  0
   43.8090    7.5620   41.5640 H   0  0  0  0  0  0  0  0  0  0  0  0
   42.5750    6.7080   42.5110 H   0  0  0  0  0  0  0  0  0  0  0  0
   43.4250    9.6190   42.6460 H   0  0  0  0  0  0  0  0  0  0  0  0
   41.8060    8.8900   42.6240 H   0  0  0  0  0  0  0  0  0  0  0  0
   43.2290    7.9950   46.3340 H   0  0  0  0  0  0  0  0  0  0  0  0
   42.4780    6.9210   45.0350 H   0  0  0  0  0  0  0  0  0  0  0  0
   45.0170    6.6650   45.3790 H   0  0  0  0  0  0  0  0  0  0  0  0
   45.1730    8.3440   44.7560 H   0  0  0  0  0  0  0  0  0  0  0  0
   42.3470   12.1470   47.0890 H   0  0  0  0  0  0  0  0  0  0  0  0
   45.7000   15.9320   46.6220 H   0  0  0  0  0  0  0  0  0  0  0  0
   46.0630   13.1900   43.4190 H   0  0  0  0  0  0  0  0  0  0  0  0
   47.5310    4.0890   43.0660 H   0  0  0  0  0  0  0  0  0  0  0  0
   47.5720    7.8330   45.1620 H   0  0  0  0  0  0  0  0  0  0  0  0
   49.0250    3.2060   46.0150 H   0  0  0  0  0  0  0  0  0  0  0  0
   50.4610    3.9760   45.3190 H   0  0  0  0  0  0  0  0  0  0  0  0
   49.4120    2.8980   44.2750 H   0  0  0  0  0  0  0  0  0  0  0  0
  1  4  1  0  0  0  0
  1 22  1  0  0  0  0
  2  1  2  0  0  0  0
  3  1  2  0  0  0  0
  4  9  1  0  0  0  0
  5  6  1  0  0  0  0
  5  4  1  0  0  0  0
  6  7  1  0  0  0  0
  7 10  1  0  0  0  0
  7  8  1  0  0  0  0
  8 32  1  0  0  0  0
  9 35  1  0  0  0  0
  9  8  1  0  0  0  0
  9 34  1  0  0  0  0
 10 12  1  0  0  0  0
 10 11  2  0  0  0  0
 12 16  1  0  0  0  0
 13 14  1  0  0  0  0
 13 12  2  0  0  0  0
 14 15  1  0  0  0  0
 15 16  2  0  0  0  0
 15 17  1  0  0  0  0
 16 36  1  0  0  0  0
 18 37  1  0  0  0  0
 18 17  2  0  0  0  0
 19 18  1  0  0  0  0
 20 14  1  0  0  0  0
 20 19  2  0  0  0  0
 21 19  1  0  0  0  0
 22 26  1  0  0  0  0
 23 22  2  0  0  0  0
 23 24  1  0  0  0  0
 24 27  1  0  0  0  0
 24 25  1  0  0  0  0
 26 40  1  0  0  0  0
 26 25  2  0  0  0  0
 27 42  1  0  0  0  0
 27 41  1  0  0  0  0
 28  5  1  0  0  0  0
 29  5  1  0  0  0  0
 30  6  1  0  0  0  0
 31  6  1  0  0  0  0
 33  8  1  0  0  0  0
 38 20  1  0  0  0  0
 39 23  1  0  0  0  0
 43 27  1  0  0  0  0
M  END
>  <Pose>
1

>  <Score>
-7.12

$$$$
