
 OpenBabel03172210433D

 49 52  0  0  1  0  0  0  0  0999 V2000
   42.1180    7.9520   46.3680 S   0  0  0  0  0  0  0  0  0  0  0  0
   41.6600    6.5880   46.7510 O   0  0  0  0  0  0  0  0  0  0  0  0
   43.3910    8.2570   47.1190 O   0  0  0  0  0  0  0  0  0  0  0  0
   42.4440    8.0240   44.7090 N   0  0  0  0  0  0  0  0  0  0  0  0
   42.7080    6.7950   44.0650 C   0  0  0  0  0  0  0  0  0  0  0  0
   44.1130    6.4800   43.7580 C   0  0  0  0  0  0  0  0  0  0  0  0
   44.8420    7.6330   43.3230 N   0  0  0  0  0  0  0  0  0  0  0  0
   44.1560    8.8840   43.1710 C   0  0  0  0  0  0  0  0  0  0  0  0
   43.1640    9.1590   44.2580 C   0  0  0  0  0  0  0  0  0  0  0  0
   46.2210    7.5520   43.0430 C   0  0  0  0  0  0  0  0  0  0  0  0
   46.7270    8.3690   42.2410 O   0  0  0  0  0  0  0  0  0  0  0  0
   47.1100    6.5610   43.6380 C   0  0  1  0  0  0  0  0  0  0  0  0
   47.5770    6.7410   44.9270 C   0  0  0  0  0  0  0  0  0  0  0  0
   48.3950    5.8300   45.4750 N   0  0  0  0  0  0  0  0  0  0  0  0
   48.7920    4.7200   44.8150 C   0  0  1  0  0  0  0  0  0  0  0  0
   48.3560    4.5150   43.5600 N   0  0  0  0  0  0  0  0  0  0  0  0
   48.7540    3.3970   42.8890 C   0  0  0  0  0  0  0  0  0  0  0  0
   49.5950    2.4650   43.4610 C   0  0  0  0  0  0  0  0  0  0  0  0
   50.0570    2.6560   44.7530 C   0  0  0  0  0  0  0  0  0  0  0  0
   49.6410    3.7930   45.4090 C   0  0  0  0  0  0  0  0  0  0  0  0
   50.0500    1.2370   42.7630 C   0  0  0  0  0  0  0  0  0  0  0  0
   47.5270    5.4220   42.9790 C   0  0  0  0  0  0  0  0  0  0  0  0
   47.1250    5.2310   41.8210 O   0  0  0  0  0  0  0  0  0  0  0  0
   40.9310    9.1540   46.7980 C   0  0  0  0  0  0  0  0  0  0  0  0
   40.5320   10.0970   45.8750 C   0  0  0  0  0  0  0  0  0  0  0  0
   39.5810   11.0260   46.2850 C   0  0  0  0  0  0  0  0  0  0  0  0
   39.0510   11.0200   47.5480 C   0  0  0  0  0  0  0  0  0  0  0  0
   39.4590   10.0660   48.4700 C   0  0  0  0  0  0  0  0  0  0  0  0
   40.4150    9.1230   48.0780 C   0  0  0  0  0  0  0  0  0  0  0  0
   38.9900   12.3530   45.0570 B   0  0  0  0  0  0  0  0  0  0  0  0
   42.2770    5.9720   44.6910 H   0  0  0  0  0  0  0  0  0  0  0  0
   42.1220    6.7660   43.1100 H   0  0  0  0  0  0  0  0  0  0  0  0
   44.5750    6.0550   44.6990 H   0  0  0  0  0  0  0  0  0  0  0  0
   44.2330    5.7050   42.9510 H   0  0  0  0  0  0  0  0  0  0  0  0
   44.8890    9.7110   43.0840 H   0  0  0  0  0  0  0  0  0  0  0  0
   43.6480    8.8460   42.1620 H   0  0  0  0  0  0  0  0  0  0  0  0
   42.4490    9.9250   43.8960 H   0  0  0  0  0  0  0  0  0  0  0  0
   43.7040    9.6070   45.1170 H   0  0  0  0  0  0  0  0  0  0  0  0
   47.2650    7.6360   45.4770 H   0  0  0  0  0  0  0  0  0  0  0  0
   48.4000    3.2390   41.8800 H   0  0  0  0  0  0  0  0  0  0  0  0
   50.7170    1.9620   45.2530 H   0  0  0  0  0  0  0  0  0  0  0  0
   49.9930    3.9560   46.4170 H   0  0  0  0  0  0  0  0  0  0  0  0
   49.3200    0.4010   42.9310 H   0  0  0  0  0  0  0  0  0  0  0  0
   51.0510    0.9120   43.1390 H   0  0  0  0  0  0  0  0  0  0  0  0
   50.0730    1.3810   41.6610 H   0  0  0  0  0  0  0  0  0  0  0  0
   40.9460   10.1050   44.8810 H   0  0  0  0  0  0  0  0  0  0  0  0
   38.3140   11.7620   47.8220 H   0  0  0  0  0  0  0  0  0  0  0  0
   39.0350   10.0720   49.4600 H   0  0  0  0  0  0  0  0  0  0  0  0
   40.7420    8.3760   48.7780 H   0  0  0  0  0  0  0  0  0  0  0  0
  1  2  2  0  0  0  0
  1 24  1  0  0  0  0
  1  3  2  0  0  0  0
  4  1  1  0  0  0  0
  5 31  1  0  0  0  0
  5  4  1  0  0  0  0
  6  5  1  0  0  0  0
  6 33  1  0  0  0  0
  7  6  1  0  0  0  0
  8  7  1  0  0  0  0
  8  9  1  0  0  0  0
  9  4  1  0  0  0  0
  9 38  1  0  0  0  0
 10  7  1  0  0  0  0
 11 10  2  0  0  0  0
 12 10  1  1  0  0  0
 12 13  1  0  0  0  0
 13 14  2  0  0  0  0
 13 39  1  0  0  0  0
 15 20  1  6  0  0  0
 15 14  1  0  0  0  0
 16 15  1  0  0  0  0
 17 18  2  0  0  0  0
 17 16  1  0  0  0  0
 18 19  1  0  0  0  0
 19 41  1  0  0  0  0
 19 20  2  0  0  0  0
 20 42  1  0  0  0  0
 21 43  1  0  0  0  0
 21 44  1  0  0  0  0
 21 18  1  0  0  0  0
 22 16  1  0  0  0  0
 22 12  1  0  0  0  0
 23 22  2  0  0  0  0
 24 29  1  0  0  0  0
 25 26  1  0  0  0  0
 25 24  2  0  0  0  0
 26 27  2  0  0  0  0
 27 47  1  0  0  0  0
 27 28  1  0  0  0  0
 28 48  1  0  0  0  0
 29 28  2  0  0  0  0
 29 49  1  0  0  0  0
 30 26  1  0  0  0  0
 32  5  1  0  0  0  0
 34  6  1  0  0  0  0
 35  8  1  0  0  0  0
 36  8  1  0  0  0  0
 37  9  1  0  0  0  0
 40 17  1  0  0  0  0
 45 21  1  0  0  0  0
 46 25  1  0  0  0  0
M  END
>  <Pose>
1

>  <Score>
-6.68

$$$$
