
 OpenBabel03172210433D

 37 40  0  0  0  0  0  0  0  0999 V2000
   47.2920    4.4030   42.8530 S   0  0  0  0  0  0  0  0  0  0  0  0
   46.8560    4.3100   41.3950 O   0  0  0  0  0  0  0  0  0  0  0  0
   46.1460    3.9150   43.6640 O   0  0  0  0  0  0  0  0  0  0  0  0
   47.7180    5.9850   43.1810 N   0  0  0  0  0  0  0  0  0  0  0  0
   47.7640    6.4260   44.5220 C   0  0  0  0  0  0  0  0  0  0  0  0
   46.5690    7.2120   45.0020 C   0  0  0  0  0  0  0  0  0  0  0  0
   45.6100    7.4540   43.9710 N   0  0  0  0  0  0  0  0  0  0  0  0
   45.9580    7.5540   42.5640 C   0  0  0  0  0  0  0  0  0  0  0  0
   47.3240    7.0000   42.2850 C   0  0  0  0  0  0  0  0  0  0  0  0
   44.2360    7.6070   44.3020 C   0  0  0  0  0  0  0  0  0  0  0  0
   43.5070    6.5120   44.6690 N   0  0  0  0  0  0  0  0  0  0  0  0
   42.2190    6.6340   44.9920 C   0  0  0  0  0  0  0  0  0  0  0  0
   41.5920    7.8090   44.9720 N   0  0  0  0  0  0  0  0  0  0  0  0
   42.2850    8.8890   44.6170 C   0  0  0  0  0  0  0  0  0  0  0  0
   41.9280   10.1720   44.5050 N   0  0  0  0  0  0  0  0  0  0  0  0
   43.0140   10.8870   44.0990 C   0  0  0  0  0  0  0  0  0  0  0  0
   44.0570   10.0700   43.9540 N   0  0  0  0  0  0  0  0  0  0  0  0
   43.6350    8.8370   44.2660 C   0  0  0  0  0  0  0  0  0  0  0  0
   48.6030    3.2320   43.0170 C   0  0  0  0  0  0  0  0  0  0  0  0
   49.9130    3.2210   44.1070 S   0  0  0  0  0  0  0  0  0  0  0  0
   50.6830    1.7870   43.6080 C   0  0  0  0  0  0  0  0  0  0  0  0
   49.8790    1.3480   42.5830 C   0  0  0  0  0  0  0  0  0  0  0  0
   48.8110    2.0960   42.2860 C   0  0  0  0  0  0  0  0  0  0  0  0
   52.2700    0.9700   44.2860 B   0  0  0  0  0  0  0  0  0  0  0  0
   48.0050    5.6250   45.2600 H   0  0  0  0  0  0  0  0  0  0  0  0
   48.6570    7.1180   44.5950 H   0  0  0  0  0  0  0  0  0  0  0  0
   46.9240    8.1160   45.5350 H   0  0  0  0  0  0  0  0  0  0  0  0
   46.0680    6.6110   45.8130 H   0  0  0  0  0  0  0  0  0  0  0  0
   45.2230    7.0030   41.9480 H   0  0  0  0  0  0  0  0  0  0  0  0
   45.8980    8.6250   42.2740 H   0  0  0  0  0  0  0  0  0  0  0  0
   47.3940    6.6200   41.2470 H   0  0  0  0  0  0  0  0  0  0  0  0
   48.0530    7.8540   42.3810 H   0  0  0  0  0  0  0  0  0  0  0  0
   41.6330    5.7680   45.2850 H   0  0  0  0  0  0  0  0  0  0  0  0
   42.9870   11.9520   43.9350 H   0  0  0  0  0  0  0  0  0  0  0  0
   45.0060   10.3610   43.6510 H   0  0  0  0  0  0  0  0  0  0  0  0
   50.1450    0.4010   42.0510 H   0  0  0  0  0  0  0  0  0  0  0  0
   48.1050    1.8180   41.4730 H   0  0  0  0  0  0  0  0  0  0  0  0
  1 19  1  0  0  0  0
  1  4  1  0  0  0  0
  1  3  2  0  0  0  0
  2  1  2  0  0  0  0
  4  5  1  0  0  0  0
  5 26  1  0  0  0  0
  5  6  1  0  0  0  0
  5 25  1  0  0  0  0
  6 27  1  0  0  0  0
  6 28  1  0  0  0  0
  7 10  1  0  0  0  0
  7  6  1  0  0  0  0
  8  7  1  0  0  0  0
  9 32  1  0  0  0  0
  9  8  1  0  0  0  0
  9  4  1  0  0  0  0
 10 11  1  0  0  0  0
 11 12  2  0  0  0  0
 12 33  1  0  0  0  0
 13 12  1  0  0  0  0
 14 13  2  0  0  0  0
 15 14  1  0  0  0  0
 16 15  2  0  0  0  0
 17 16  1  0  0  0  0
 17 18  1  0  0  0  0
 18 10  2  0  0  0  0
 18 14  1  0  0  0  0
 19 20  1  0  0  0  0
 21 20  1  0  0  0  0
 21 24  1  0  0  0  0
 22 21  2  0  0  0  0
 23 22  1  0  0  0  0
 23 19  2  0  0  0  0
 29  8  1  0  0  0  0
 30  8  1  0  0  0  0
 31  9  1  0  0  0  0
 34 16  1  0  0  0  0
 35 17  1  0  0  0  0
 36 22  1  0  0  0  0
 37 23  1  0  0  0  0
M  END
>  <Pose>
1

>  <Score>
-6.99

$$$$
