
 OpenBabel03172210433D

 40 43  0  0  1  0  0  0  0  0999 V2000
   42.1940    7.0270   44.4060 S   0  0  0  0  0  0  0  0  0  0  0  0
   41.5260    6.7070   45.7180 O   0  0  0  0  0  0  0  0  0  0  0  0
   41.6010    6.0640   43.3880 O   0  0  0  0  0  0  0  0  0  0  0  0
   43.8730    6.7740   44.4420 N   0  0  0  0  0  0  0  0  0  0  0  0
   44.3890    6.6910   43.1170 C   0  0  0  0  0  0  0  0  0  0  0  0
   45.8180    7.1820   43.0080 C   0  0  0  0  0  0  0  0  0  0  0  0
   46.4860    6.8290   44.2340 N   0  0  0  0  0  0  0  0  0  0  0  0
   46.0220    7.5030   45.4200 C   0  0  0  0  0  0  0  0  0  0  0  0
   44.5450    7.6520   45.3390 C   0  0  0  0  0  0  0  0  0  0  0  0
   47.5350    5.8840   44.3040 C   0  0  1  0  0  0  0  0  0  0  0  0
   48.3940    5.8490   45.3230 C   0  0  0  0  0  0  0  0  0  0  0  0
   49.4820    4.8950   45.4320 C   0  0  0  0  0  0  0  0  0  0  0  0
   50.3050    4.9070   46.4680 C   0  0  0  0  0  0  0  0  0  0  0  0
   49.6530    3.9420   44.4040 N   0  0  0  0  0  0  0  0  0  0  0  0
   48.7100    4.0090   43.3230 C   0  0  0  0  0  0  0  0  0  0  0  0
   47.7190    4.9130   43.2690 N   0  0  0  0  0  0  0  0  0  0  0  0
   47.0160    4.7220   42.1500 N   0  0  0  0  0  0  0  0  0  0  0  0
   47.5450    3.6930   41.4660 C   0  0  0  0  0  0  0  0  0  0  0  0
   48.5870    3.2630   42.1970 N   0  0  0  0  0  0  0  0  0  0  0  0
   41.7640    8.6460   43.8580 C   0  0  0  0  0  0  0  0  0  0  0  0
   40.9710    9.8450   44.7610 S   0  0  0  0  0  0  0  0  0  0  0  0
   40.9140   11.0820   43.5930 C   0  0  0  0  0  0  0  0  0  0  0  0
   41.5270   10.5160   42.5070 C   0  0  0  0  0  0  0  0  0  0  0  0
   41.9710    9.2440   42.6480 C   0  0  0  0  0  0  0  0  0  0  0  0
   40.1750   12.8610   43.7220 B   0  0  0  0  0  0  0  0  0  0  0  0
   43.7240    7.1190   42.3390 H   0  0  0  0  0  0  0  0  0  0  0  0
   44.4400    5.5900   42.8600 H   0  0  0  0  0  0  0  0  0  0  0  0
   46.3250    6.8150   42.1080 H   0  0  0  0  0  0  0  0  0  0  0  0
   45.7800    8.2900   42.9660 H   0  0  0  0  0  0  0  0  0  0  0  0
   46.3790    7.0270   46.3540 H   0  0  0  0  0  0  0  0  0  0  0  0
   46.5000    8.5280   45.4440 H   0  0  0  0  0  0  0  0  0  0  0  0
   44.1500    7.4050   46.3700 H   0  0  0  0  0  0  0  0  0  0  0  0
   44.2870    8.7180   45.2070 H   0  0  0  0  0  0  0  0  0  0  0  0
   48.2570    6.5800   46.1050 H   0  0  0  0  0  0  0  0  0  0  0  0
   50.1730    5.6430   47.2610 H   0  0  0  0  0  0  0  0  0  0  0  0
   51.1210    4.2090   46.5720 H   0  0  0  0  0  0  0  0  0  0  0  0
   50.3910    3.2260   44.3860 H   0  0  0  0  0  0  0  0  0  0  0  0
   47.2060    3.2810   40.5110 H   0  0  0  0  0  0  0  0  0  0  0  0
   41.6340   11.1210   41.5680 H   0  0  0  0  0  0  0  0  0  0  0  0
   42.4790    8.7340   41.7910 H   0  0  0  0  0  0  0  0  0  0  0  0
  1  4  1  0  0  0  0
  1  2  2  0  0  0  0
  3  1  2  0  0  0  0
  4  9  1  0  0  0  0
  5  4  1  0  0  0  0
  6  5  1  0  0  0  0
  6  7  1  0  0  0  0
  7  8  1  0  0  0  0
  8 31  1  0  0  0  0
  8 30  1  0  0  0  0
  9  8  1  0  0  0  0
  9 32  1  0  0  0  0
 10  7  1  1  0  0  0
 10 11  1  0  0  0  0
 11 12  2  0  0  0  0
 11 34  1  0  0  0  0
 12 13  1  0  0  0  0
 13 36  1  0  0  0  0
 13 35  1  0  0  0  0
 14 12  1  0  0  0  0
 15 14  1  0  0  0  0
 16 15  1  0  0  0  0
 16 10  1  0  0  0  0
 17 16  1  0  0  0  0
 18 17  2  0  0  0  0
 18 19  1  0  0  0  0
 19 15  2  0  0  0  0
 20  1  1  0  0  0  0
 20 21  1  0  0  0  0
 22 25  1  0  0  0  0
 22 21  1  0  0  0  0
 23 24  1  0  0  0  0
 23 22  2  0  0  0  0
 24 20  2  0  0  0  0
 26  5  1  0  0  0  0
 27  5  1  0  0  0  0
 28  6  1  0  0  0  0
 29  6  1  0  0  0  0
 33  9  1  0  0  0  0
 37 14  1  0  0  0  0
 38 18  1  0  0  0  0
 39 23  1  0  0  0  0
 40 24  1  0  0  0  0
M  END
>  <Pose>
1

>  <Score>
-6.45

$$$$
