
 OpenBabel03172210433D

 51 54  0  0  0  0  0  0  0  0999 V2000
   40.4850   11.6020   44.3140 S   0  0  0  0  0  0  0  0  0  0  0  0
   40.7160   12.7660   45.2160 O   0  0  0  0  0  0  0  0  0  0  0  0
   40.0500   12.1560   42.9720 O   0  0  0  0  0  0  0  0  0  0  0  0
   39.2250   10.6000   44.8860 N   0  0  0  0  0  0  0  0  0  0  0  0
   37.9610   11.2810   44.9920 C   0  0  0  0  0  0  0  0  0  0  0  0
   37.0940   10.4450   45.9380 C   0  0  0  0  0  0  0  0  0  0  0  0
   37.5130   10.6020   47.2420 O   0  0  0  0  0  0  0  0  0  0  0  0
   38.8710   10.9670   47.2440 C   0  0  0  0  0  0  0  0  0  0  0  0
   39.5590   10.0940   46.2050 C   0  0  0  0  0  0  0  0  0  0  0  0
   41.9690   10.7090   44.0200 C   0  0  0  0  0  0  0  0  0  0  0  0
   43.2020   11.2940   44.0520 C   0  0  0  0  0  0  0  0  0  0  0  0
   44.3610   10.5620   43.8150 C   0  0  0  0  0  0  0  0  0  0  0  0
   44.3140    9.2280   43.5410 C   0  0  0  0  0  0  0  0  0  0  0  0
   43.0680    8.6270   43.5060 C   0  0  0  0  0  0  0  0  0  0  0  0
   41.9160    9.3560   43.7410 C   0  0  0  0  0  0  0  0  0  0  0  0
   45.4990    8.3750   43.2800 C   0  0  0  0  0  0  0  0  0  0  0  0
   45.4940    7.2010   44.0620 O   0  0  0  0  0  0  0  0  0  0  0  0
   45.4070    5.9240   43.5660 C   0  0  0  0  0  0  0  0  0  0  0  0
   44.5410    5.1510   44.0200 O   0  0  0  0  0  0  0  0  0  0  0  0
   46.3150    5.4610   42.5200 C   0  0  0  0  0  0  0  0  0  0  0  0
   47.4630    4.7620   43.0190 N   0  0  0  0  0  0  0  0  0  0  0  0
   48.0360    3.6270   42.3580 C   0  0  0  0  0  0  0  0  0  0  0  0
   47.6190    3.1090   41.2820 O   0  0  0  0  0  0  0  0  0  0  0  0
   49.1850    3.1590   43.1240 C   0  0  0  0  0  0  0  0  0  0  0  0
   49.3340    3.9610   44.2250 C   0  0  0  0  0  0  0  0  0  0  0  0
   50.3560    3.7340   45.1260 C   0  0  0  0  0  0  0  0  0  0  0  0
   51.2490    2.6950   44.9410 C   0  0  0  0  0  0  0  0  0  0  0  0
   51.1100    1.8790   43.8380 C   0  0  0  0  0  0  0  0  0  0  0  0
   50.0810    2.1280   42.9540 C   0  0  0  0  0  0  0  0  0  0  0  0
   52.3160    0.4330   43.5400 B   0  0  0  0  0  0  0  0  0  0  0  0
   48.2620    4.9710   44.1710 C   0  0  0  0  0  0  0  0  0  0  0  0
   48.0600    5.8850   45.0000 O   0  0  0  0  0  0  0  0  0  0  0  0
   37.4820   11.2400   43.9910 H   0  0  0  0  0  0  0  0  0  0  0  0
   38.0300   12.3220   45.3030 H   0  0  0  0  0  0  0  0  0  0  0  0
   37.1700    9.3870   45.5890 H   0  0  0  0  0  0  0  0  0  0  0  0
   36.0280   10.7180   45.8650 H   0  0  0  0  0  0  0  0  0  0  0  0
   39.0110   12.0340   47.0680 H   0  0  0  0  0  0  0  0  0  0  0  0
   39.2390   10.7490   48.2650 H   0  0  0  0  0  0  0  0  0  0  0  0
   40.6540   10.1120   46.2950 H   0  0  0  0  0  0  0  0  0  0  0  0
   39.1730    9.0640   46.3710 H   0  0  0  0  0  0  0  0  0  0  0  0
   43.2560   12.3590   44.2690 H   0  0  0  0  0  0  0  0  0  0  0  0
   45.3150   11.0620   43.8460 H   0  0  0  0  0  0  0  0  0  0  0  0
   43.0070    7.5700   43.2900 H   0  0  0  0  0  0  0  0  0  0  0  0
   40.9480    8.8560   43.7080 H   0  0  0  0  0  0  0  0  0  0  0  0
   45.5360    8.0680   42.2150 H   0  0  0  0  0  0  0  0  0  0  0  0
   46.4130    8.9860   43.5040 H   0  0  0  0  0  0  0  0  0  0  0  0
   45.7850    4.7890   41.7820 H   0  0  0  0  0  0  0  0  0  0  0  0
   46.7050    6.3080   41.8830 H   0  0  0  0  0  0  0  0  0  0  0  0
   50.4480    4.3870   45.9880 H   0  0  0  0  0  0  0  0  0  0  0  0
   52.0600    2.5220   45.6660 H   0  0  0  0  0  0  0  0  0  0  0  0
   49.9430    1.5020   42.0730 H   0  0  0  0  0  0  0  0  0  0  0  0
  1  4  1  0  0  0  0
  1  2  2  0  0  0  0
  3  1  2  0  0  0  0
  4  5  1  0  0  0  0
  4  9  1  0  0  0  0
  5 34  1  0  0  0  0
  5  6  1  0  0  0  0
  6  7  1  0  0  0  0
  7  8  1  0  0  0  0
  8 38  1  0  0  0  0
  9 39  1  0  0  0  0
  9 40  1  0  0  0  0
  9  8  1  0  0  0  0
 10 11  1  0  0  0  0
 10  1  1  0  0  0  0
 11 41  1  0  0  0  0
 12 42  1  0  0  0  0
 12 11  2  0  0  0  0
 13 12  1  0  0  0  0
 14 13  2  0  0  0  0
 14 15  1  0  0  0  0
 15 10  2  0  0  0  0
 16 46  1  0  0  0  0
 16 13  1  0  0  0  0
 16 17  1  0  0  0  0
 18 19  2  0  0  0  0
 18 17  1  0  0  0  0
 20 21  1  0  0  0  0
 20 18  1  0  0  0  0
 21 31  1  0  0  0  0
 22 21  1  0  0  0  0
 22 24  1  0  0  0  0
 23 22  2  0  0  0  0
 24 25  1  0  0  0  0
 25 26  2  0  0  0  0
 26 49  1  0  0  0  0
 27 26  1  0  0  0  0
 27 50  1  0  0  0  0
 28 27  2  0  0  0  0
 29 24  2  0  0  0  0
 29 28  1  0  0  0  0
 30 28  1  0  0  0  0
 31 25  1  0  0  0  0
 31 32  2  0  0  0  0
 33  5  1  0  0  0  0
 35  6  1  0  0  0  0
 36  6  1  0  0  0  0
 37  8  1  0  0  0  0
 43 14  1  0  0  0  0
 44 15  1  0  0  0  0
 45 16  1  0  0  0  0
 47 20  1  0  0  0  0
 48 20  1  0  0  0  0
 51 29  1  0  0  0  0
M  END
>  <Pose>
1

>  <Score>
-6.51

$$$$
