
 OpenBabel03172210433D

 51 54  0  0  0  0  0  0  0  0999 V2000
   38.0450   12.8700   45.4490 S   0  0  0  0  0  0  0  0  0  0  0  0
   37.0440   11.7210   46.2010 C   0  0  0  0  0  0  0  0  0  0  0  0
   37.6590   10.5380   45.8960 C   0  0  0  0  0  0  0  0  0  0  0  0
   38.7720   10.5900   45.1610 C   0  0  0  0  0  0  0  0  0  0  0  0
   39.2180   11.8260   44.7660 C   0  0  0  0  0  0  0  0  0  0  0  0
   40.4090   12.1400   43.9690 C   0  0  0  0  0  0  0  0  0  0  0  0
   40.9170   13.2780   44.1260 O   0  0  0  0  0  0  0  0  0  0  0  0
   40.9960   11.1640   43.0190 C   0  0  0  0  0  0  0  0  0  0  0  0
   41.6330   10.0650   43.7010 N   0  0  0  0  0  0  0  0  0  0  0  0
   42.1260   10.1280   44.9610 C   0  0  0  0  0  0  0  0  0  0  0  0
   42.6610    8.9250   45.3070 C   0  0  0  0  0  0  0  0  0  0  0  0
   43.2320    8.7430   46.5540 C   0  0  0  0  0  0  0  0  0  0  0  0
   43.2510    9.7950   47.4400 C   0  0  0  0  0  0  0  0  0  0  0  0
   42.7190   11.0170   47.1150 C   0  0  0  0  0  0  0  0  0  0  0  0
   42.1580   11.1650   45.8660 C   0  0  0  0  0  0  0  0  0  0  0  0
   42.4940    8.1160   44.2560 N   0  0  0  0  0  0  0  0  0  0  0  0
   41.8620    8.8200   43.2740 C   0  0  0  0  0  0  0  0  0  0  0  0
   41.5760    8.2590   42.1590 N   0  0  0  0  0  0  0  0  0  0  0  0
   42.9390    6.7300   44.1980 C   0  0  0  0  0  0  0  0  0  0  0  0
   44.2380    6.6780   43.3800 C   0  0  0  0  0  0  0  0  0  0  0  0
   45.3360    6.1680   44.1490 N   0  0  0  0  0  4  0  0  0  0  0  0
   46.0180    5.0470   43.5340 C   0  0  0  0  0  0  0  0  0  0  0  0
   46.4180    5.3410   42.1160 C   0  0  0  0  0  0  0  0  0  0  0  0
   47.1040    6.6560   41.9560 C   0  0  0  0  0  0  0  0  0  0  0  0
   46.7540    7.7000   42.9550 C   0  0  0  0  0  0  0  0  0  0  0  0
   46.3190    7.2150   44.2920 C   0  0  0  0  0  0  0  0  0  0  0  0
   35.4580   12.0360   47.2130 B   0  0  0  0  0  0  0  0  0  0  0  0
   37.2070    9.5880   46.2730 H   0  0  0  0  0  0  0  0  0  0  0  0
   39.3360    9.6730   44.8700 H   0  0  0  0  0  0  0  0  0  0  0  0
   41.6950   11.6720   42.3030 H   0  0  0  0  0  0  0  0  0  0  0  0
   40.1830   10.7630   42.3640 H   0  0  0  0  0  0  0  0  0  0  0  0
   43.6480    7.7700   46.7910 H   0  0  0  0  0  0  0  0  0  0  0  0
   43.6890    9.6960   48.4230 H   0  0  0  0  0  0  0  0  0  0  0  0
   42.7190   11.8680   47.7910 H   0  0  0  0  0  0  0  0  0  0  0  0
   41.7320   12.1060   45.5760 H   0  0  0  0  0  0  0  0  0  0  0  0
   41.1010    8.6500   41.3470 H   0  0  0  0  0  0  0  0  0  0  0  0
   42.1940    6.0530   43.7340 H   0  0  0  0  0  0  0  0  0  0  0  0
   43.2270    6.3620   45.2130 H   0  0  0  0  0  0  0  0  0  0  0  0
   44.4640    7.7360   43.1190 H   0  0  0  0  0  0  0  0  0  0  0  0
   43.9980    6.0460   42.5030 H   0  0  0  0  0  0  0  0  0  0  0  0
   45.0040    5.8250   45.0770 H   0  0  0  0  0  0  0  0  0  0  0  0
   46.9120    4.8420   44.1470 H   0  0  0  0  0  0  0  0  0  0  0  0
   45.3460    4.1680   43.5370 H   0  0  0  0  0  0  0  0  0  0  0  0
   45.5360    5.2370   41.4200 H   0  0  0  0  0  0  0  0  0  0  0  0
   47.1190    4.5360   41.8080 H   0  0  0  0  0  0  0  0  0  0  0  0
   48.2080    6.4900   41.9630 H   0  0  0  0  0  0  0  0  0  0  0  0
   46.8340    7.0590   40.9360 H   0  0  0  0  0  0  0  0  0  0  0  0
   47.6650    8.3640   43.0640 H   0  0  0  0  0  0  0  0  0  0  0  0
   45.9810    8.3870   42.5360 H   0  0  0  0  0  0  0  0  0  0  0  0
   47.1970    6.8760   44.8850 H   0  0  0  0  0  0  0  0  0  0  0  0
   45.7950    8.0580   44.7990 H   0  0  0  0  0  0  0  0  0  0  0  0
  1  2  1  0  0  0  0
  2 27  1  0  0  0  0
  3  2  2  0  0  0  0
  3 28  1  0  0  0  0
  4  3  1  0  0  0  0
  5  4  2  0  0  0  0
  5  1  1  0  0  0  0
  6  7  2  0  0  0  0
  6  5  1  0  0  0  0
  8  9  1  0  0  0  0
  8  6  1  0  0  0  0
  9 10  1  0  0  0  0
 10 11  2  0  0  0  0
 10 15  1  0  0  0  0
 11 12  1  0  0  0  0
 12 32  1  0  0  0  0
 12 13  2  0  0  0  0
 13 33  1  0  0  0  0
 14 13  1  0  0  0  0
 14 34  1  0  0  0  0
 15 14  2  0  0  0  0
 16 11  1  0  0  0  0
 17  9  1  0  0  0  0
 17 16  1  0  0  0  0
 18 17  2  0  0  0  0
 19 16  1  0  0  0  0
 19 38  1  0  0  0  0
 20 21  1  0  0  0  0
 20 19  1  0  0  0  0
 21 26  1  0  0  0  0
 21 41  1  0  0  0  0
 22 43  1  0  0  0  0
 22 42  1  0  0  0  0
 22 21  1  0  0  0  0
 23 22  1  0  0  0  0
 24 46  1  0  0  0  0
 24 23  1  0  0  0  0
 24 25  1  0  0  0  0
 25 48  1  0  0  0  0
 25 26  1  0  0  0  0
 26 51  1  0  0  0  0
 26 50  1  0  0  0  0
 29  4  1  0  0  0  0
 30  8  1  0  0  0  0
 31  8  1  0  0  0  0
 35 15  1  0  0  0  0
 36 18  1  0  0  0  0
 37 19  1  0  0  0  0
 39 20  1  0  0  0  0
 40 20  1  0  0  0  0
 44 23  1  0  0  0  0
 45 23  1  0  0  0  0
 47 24  1  0  0  0  0
 49 25  1  0  0  0  0
M  END
>  <Pose>
1

>  <Score>
-5.62

$$$$
