
 OpenBabel03172210433D

 58 61  0  0  1  0  0  0  0  0999 V2000
   45.5060    6.0720   43.8630 S   0  0  0  0  0  0  0  0  0  0  0  0
   46.8380    5.3800   43.0570 C   0  0  0  0  0  0  0  0  0  0  0  0
   47.5600    6.4360   42.7420 N   0  0  0  0  0  0  0  0  0  0  0  0
   47.1520    7.6230   43.0730 C   0  0  0  0  0  0  0  0  0  0  0  0
   45.9610    7.7200   43.7510 C   0  0  0  0  0  0  0  0  0  0  0  0
   45.2350    8.9260   44.2080 C   0  0  0  0  0  0  0  0  0  0  0  0
   44.0150    9.1530   43.8210 C   0  0  0  0  0  0  0  0  0  0  0  0
   43.1860   10.3320   44.2250 C   0  0  1  0  0  0  0  0  0  0  0  0
   41.8560    9.7820   44.2600 N   0  0  0  0  0  0  0  0  0  0  0  0
   41.8160    8.8190   43.1980 C   0  0  0  0  0  0  0  0  0  0  0  0
   40.7930    8.4040   42.6240 O   0  0  0  0  0  0  0  0  0  0  0  0
   43.1780    8.4010   42.8950 C   0  0  0  0  0  0  0  0  0  0  0  0
   43.6220    7.5860   42.0420 O   0  0  0  0  0  0  0  0  0  0  0  0
   40.8220   10.1710   45.1700 C   0  0  0  0  0  0  0  0  0  0  0  0
   39.6650   10.8510   44.5660 C   0  0  0  0  0  0  0  0  0  0  0  0
   38.3820   10.7300   45.2100 C   0  0  0  0  0  0  0  0  0  0  0  0
   37.1370   11.1690   44.7920 N   0  0  0  0  0  4  0  0  0  0  0  0
   37.0870   12.6780   44.7600 C   0  0  0  0  0  0  0  0  0  0  0  0
   36.8730   13.1900   46.1460 C   0  0  0  0  0  0  0  0  0  0  0  0
   35.5850   12.8300   46.5260 O   0  0  0  0  0  0  0  0  0  0  0  0
   35.6290   11.4290   46.7090 C   0  0  0  0  0  0  0  0  0  0  0  0
   35.9350   10.7310   45.4130 C   0  0  0  0  0  0  0  0  0  0  0  0
   43.6720   10.9110   45.4860 C   0  0  0  0  0  0  0  0  0  0  0  0
   43.7170   10.2900   46.7040 C   0  0  0  0  0  0  0  0  0  0  0  0
   44.1770   10.8710   47.8640 C   0  0  0  0  0  0  0  0  0  0  0  0
   44.6270   12.1660   47.8150 C   0  0  0  0  0  0  0  0  0  0  0  0
   44.6070   12.8420   46.6230 C   0  0  0  0  0  0  0  0  0  0  0  0
   44.1410   12.2310   45.4820 C   0  0  0  0  0  0  0  0  0  0  0  0
   45.2680   12.9710   49.4320 B   0  0  0  0  0  0  0  0  0  0  0  0
   45.8650    9.8400   45.0700 O   0  0  0  0  0  0  0  0  0  0  0  0
   47.9400    8.8720   42.6860 C   0  0  0  0  0  0  0  0  0  0  0  0
   47.1490    3.9380   42.7590 C   0  0  0  0  0  0  0  0  0  0  0  0
   43.1980   11.0970   43.4240 H   0  0  0  0  0  0  0  0  0  0  0  0
   40.5560    9.3580   45.8220 H   0  0  0  0  0  0  0  0  0  0  0  0
   41.3370   10.9310   45.8820 H   0  0  0  0  0  0  0  0  0  0  0  0
   39.9970   11.9000   44.3230 H   0  0  0  0  0  0  0  0  0  0  0  0
   39.6050   10.4270   43.4970 H   0  0  0  0  0  0  0  0  0  0  0  0
   38.3240    9.6010   45.5410 H   0  0  0  0  0  0  0  0  0  0  0  0
   38.5220   11.1700   46.2770 H   0  0  0  0  0  0  0  0  0  0  0  0
   37.0120   10.9640   43.7710 H   0  0  0  0  0  0  0  0  0  0  0  0
   37.9500   13.0260   44.2190 H   0  0  0  0  0  0  0  0  0  0  0  0
   36.1830   12.9330   44.1800 H   0  0  0  0  0  0  0  0  0  0  0  0
   37.0160   14.2880   46.1240 H   0  0  0  0  0  0  0  0  0  0  0  0
   37.5500   12.7460   46.9010 H   0  0  0  0  0  0  0  0  0  0  0  0
   34.6110   11.1360   47.0370 H   0  0  0  0  0  0  0  0  0  0  0  0
   36.3160   11.2350   47.5280 H   0  0  0  0  0  0  0  0  0  0  0  0
   35.0270   11.0290   44.7510 H   0  0  0  0  0  0  0  0  0  0  0  0
   35.8250    9.6700   45.5040 H   0  0  0  0  0  0  0  0  0  0  0  0
   43.3700    9.2680   46.7620 H   0  0  0  0  0  0  0  0  0  0  0  0
   44.1710   10.2890   48.7840 H   0  0  0  0  0  0  0  0  0  0  0  0
   44.9740   13.8750   46.6220 H   0  0  0  0  0  0  0  0  0  0  0  0
   44.1320   12.7790   44.5550 H   0  0  0  0  0  0  0  0  0  0  0  0
   47.3180    9.7540   42.7520 H   0  0  0  0  0  0  0  0  0  0  0  0
   48.8580    8.9660   43.2950 H   0  0  0  0  0  0  0  0  0  0  0  0
   48.2840    8.7720   41.6250 H   0  0  0  0  0  0  0  0  0  0  0  0
   46.1770    3.3930   42.6380 H   0  0  0  0  0  0  0  0  0  0  0  0
   47.6470    3.8540   41.7570 H   0  0  0  0  0  0  0  0  0  0  0  0
   47.7580    3.4840   43.5450 H   0  0  0  0  0  0  0  0  0  0  0  0
  2  1  1  0  0  0  0
  3  2  2  0  0  0  0
  3  4  1  0  0  0  0
  4  5  2  0  0  0  0
  5  1  1  0  0  0  0
  5  6  1  0  0  0  0
  6 30  1  0  0  0  0
  7  6  2  0  0  0  0
  7  8  1  0  0  0  0
  8 33  1  6  0  0  0
  8  9  1  0  0  0  0
  8 23  1  0  0  0  0
  9 14  1  0  0  0  0
 10  9  1  0  0  0  0
 11 10  2  0  0  0  0
 12 10  1  0  0  0  0
 12  7  1  0  0  0  0
 13 12  2  0  0  0  0
 14 34  1  0  0  0  0
 14 35  1  0  0  0  0
 15 14  1  0  0  0  0
 15 16  1  0  0  0  0
 16 38  1  0  0  0  0
 16 39  1  0  0  0  0
 17 16  1  0  0  0  0
 17 22  1  0  0  0  0
 18 17  1  0  0  0  0
 18 19  1  0  0  0  0
 19 20  1  0  0  0  0
 19 44  1  0  0  0  0
 20 21  1  0  0  0  0
 21 45  1  0  0  0  0
 21 46  1  0  0  0  0
 22 48  1  0  0  0  0
 22 21  1  0  0  0  0
 23 24  1  0  0  0  0
 24 49  1  0  0  0  0
 24 25  2  0  0  0  0
 25 50  1  0  0  0  0
 26 25  1  0  0  0  0
 26 29  1  0  0  0  0
 27 26  2  0  0  0  0
 28 23  2  0  0  0  0
 28 27  1  0  0  0  0
 31 53  1  0  0  0  0
 31  4  1  0  0  0  0
 31 54  1  0  0  0  0
 32  2  1  0  0  0  0
 32 58  1  0  0  0  0
 36 15  1  0  0  0  0
 37 15  1  0  0  0  0
 40 17  1  0  0  0  0
 41 18  1  0  0  0  0
 42 18  1  0  0  0  0
 43 19  1  0  0  0  0
 47 22  1  0  0  0  0
 51 27  1  0  0  0  0
 52 28  1  0  0  0  0
 55 31  1  0  0  0  0
 56 32  1  0  0  0  0
 57 32  1  0  0  0  0
M  END
>  <Pose>
1

>  <Score>
-5.24

$$$$
