
 OpenBabel03172210433D

 55 58  0  0  1  0  0  0  0  0999 V2000
   46.1910    7.0930   43.4910 S   0  0  0  0  0  0  0  0  0  0  0  0
   46.0860    5.4830   42.9520 C   0  0  0  0  0  0  0  0  0  0  0  0
   45.0010    5.0510   43.5640 N   0  0  0  0  0  0  0  0  0  0  0  0
   44.3320    5.8430   44.3430 C   0  0  0  0  0  0  0  0  0  0  0  0
   44.7950    7.1280   44.5000 C   0  0  0  0  0  0  0  0  0  0  0  0
   44.2860    8.2280   45.3330 C   0  0  0  0  0  0  0  0  0  0  0  0
   43.5160    9.1170   44.7420 C   0  0  0  0  0  0  0  0  0  0  0  0
   42.8530   10.3270   45.3180 C   0  0  1  0  0  0  0  0  0  0  0  0
   41.5570   10.2060   44.7730 N   0  0  0  0  0  0  0  0  0  0  0  0
   41.8480    9.9290   43.3470 C   0  0  0  0  0  0  0  0  0  0  0  0
   41.1380   10.2400   42.3540 O   0  0  0  0  0  0  0  0  0  0  0  0
   43.1230    9.2200   43.3380 C   0  0  0  0  0  0  0  0  0  0  0  0
   43.8010    8.7650   42.3650 O   0  0  0  0  0  0  0  0  0  0  0  0
   40.1870   10.3370   45.1350 C   0  0  0  0  0  0  0  0  0  0  0  0
   39.4680   11.5910   44.8730 C   0  0  0  0  0  0  0  0  0  0  0  0
   38.0660   11.6490   44.7850 N   0  0  0  0  0  4  0  0  0  0  0  0
   37.3640   11.0300   45.8890 C   0  0  0  0  0  0  0  0  0  0  0  0
   35.8820   11.0780   45.5320 C   0  0  0  0  0  0  0  0  0  0  0  0
   35.6460   11.9910   44.5050 O   0  0  0  0  0  0  0  0  0  0  0  0
   36.2340   13.1990   44.9310 C   0  0  0  0  0  0  0  0  0  0  0  0
   37.7320   13.1010   44.9560 C   0  0  0  0  0  0  0  0  0  0  0  0
   43.1590   10.6680   46.6640 C   0  0  0  0  0  0  0  0  0  0  0  0
   44.0450   11.7200   46.9120 C   0  0  0  0  0  0  0  0  0  0  0  0
   44.4070   12.1020   48.1780 C   0  0  0  0  0  0  0  0  0  0  0  0
   43.8650   11.4130   49.2420 C   0  0  0  0  0  0  0  0  0  0  0  0
   42.9880   10.3720   49.0190 C   0  0  0  0  0  0  0  0  0  0  0  0
   42.6400   10.0060   47.7390 C   0  0  0  0  0  0  0  0  0  0  0  0
   44.3160   11.8820   51.0410 B   0  0  0  0  0  0  0  0  0  0  0  0
   44.5820    8.3530   46.6790 O   0  0  0  0  0  0  0  0  0  0  0  0
   43.1020    5.3510   45.0920 C   0  0  0  0  0  0  0  0  0  0  0  0
   46.9950    4.7360   42.0150 C   0  0  0  0  0  0  0  0  0  0  0  0
   43.3310   11.1680   44.6790 H   0  0  0  0  0  0  0  0  0  0  0  0
   40.1040   10.1490   46.2550 H   0  0  0  0  0  0  0  0  0  0  0  0
   39.5470    9.5180   44.7150 H   0  0  0  0  0  0  0  0  0  0  0  0
   39.8600   11.9930   43.8800 H   0  0  0  0  0  0  0  0  0  0  0  0
   39.8560   12.3490   45.6350 H   0  0  0  0  0  0  0  0  0  0  0  0
   37.7250   11.3950   43.8520 H   0  0  0  0  0  0  0  0  0  0  0  0
   37.6180    9.9790   46.0430 H   0  0  0  0  0  0  0  0  0  0  0  0
   37.5660   11.6400   46.8060 H   0  0  0  0  0  0  0  0  0  0  0  0
   35.3510   11.3690   46.4780 H   0  0  0  0  0  0  0  0  0  0  0  0
   35.5280   10.0930   45.1610 H   0  0  0  0  0  0  0  0  0  0  0  0
   35.9000   14.0340   44.2930 H   0  0  0  0  0  0  0  0  0  0  0  0
   35.8760   13.3200   45.9940 H   0  0  0  0  0  0  0  0  0  0  0  0
   38.2380   13.6630   44.1720 H   0  0  0  0  0  0  0  0  0  0  0  0
   38.1360   13.3520   45.9580 H   0  0  0  0  0  0  0  0  0  0  0  0
   44.4970   12.2880   46.0810 H   0  0  0  0  0  0  0  0  0  0  0  0
   45.1060   12.9320   48.3510 H   0  0  0  0  0  0  0  0  0  0  0  0
   42.5740    9.8460   49.8780 H   0  0  0  0  0  0  0  0  0  0  0  0
   41.9410    9.1470   47.6170 H   0  0  0  0  0  0  0  0  0  0  0  0
   43.3260    4.3230   45.4610 H   0  0  0  0  0  0  0  0  0  0  0  0
   42.2290    5.2690   44.4490 H   0  0  0  0  0  0  0  0  0  0  0  0
   42.8820    6.0120   45.9400 H   0  0  0  0  0  0  0  0  0  0  0  0
   47.1720    3.7000   42.3540 H   0  0  0  0  0  0  0  0  0  0  0  0
   47.9570    5.3240   41.9610 H   0  0  0  0  0  0  0  0  0  0  0  0
   46.5440    4.7960   41.0050 H   0  0  0  0  0  0  0  0  0  0  0  0
  1  5  1  0  0  0  0
  2  1  1  0  0  0  0
  2  3  2  0  0  0  0
  3  4  1  0  0  0  0
  4  5  2  0  0  0  0
  4 30  1  0  0  0  0
  5  6  1  0  0  0  0
  6 29  1  0  0  0  0
  7  8  1  0  0  0  0
  7  6  2  0  0  0  0
  8 32  1  6  0  0  0
  8 22  1  0  0  0  0
  9 14  1  0  0  0  0
  9  8  1  0  0  0  0
 10  9  1  0  0  0  0
 11 10  2  0  0  0  0
 12 10  1  0  0  0  0
 12  7  1  0  0  0  0
 13 12  2  0  0  0  0
 14 33  1  0  0  0  0
 15 14  1  0  0  0  0
 15 36  1  0  0  0  0
 16 15  1  0  0  0  0
 16 21  1  0  0  0  0
 16 17  1  0  0  0  0
 17 38  1  0  0  0  0
 17 39  1  0  0  0  0
 18 17  1  0  0  0  0
 18 40  1  0  0  0  0
 19 20  1  0  0  0  0
 19 18  1  0  0  0  0
 20 21  1  0  0  0  0
 20 43  1  0  0  0  0
 21 45  1  0  0  0  0
 22 23  2  0  0  0  0
 22 27  1  0  0  0  0
 23 24  1  0  0  0  0
 24 47  1  0  0  0  0
 24 25  2  0  0  0  0
 25 28  1  0  0  0  0
 26 25  1  0  0  0  0
 26 48  1  0  0  0  0
 27 26  2  0  0  0  0
 30 50  1  0  0  0  0
 30 52  1  0  0  0  0
 31 53  1  0  0  0  0
 31  2  1  0  0  0  0
 34 14  1  0  0  0  0
 35 15  1  0  0  0  0
 37 16  1  0  0  0  0
 41 18  1  0  0  0  0
 42 20  1  0  0  0  0
 44 21  1  0  0  0  0
 46 23  1  0  0  0  0
 49 27  1  0  0  0  0
 51 30  1  0  0  0  0
 54 31  1  0  0  0  0
 55 31  1  0  0  0  0
M  END
>  <Pose>
1

>  <Score>
-5.83

$$$$
