
 OpenBabel03172210433D

 46 49  0  0  1  0  0  0  0  0999 V2000
   42.0520    6.8800   43.7670 S   0  0  0  0  0  0  0  0  0  0  0  0
   41.6780    8.4540   43.2240 C   0  0  0  0  0  0  0  0  0  0  0  0
   42.9100    9.0250   43.0640 C   0  0  0  0  0  0  0  0  0  0  0  0
   43.9890    8.2540   43.3540 C   0  0  0  0  0  0  0  0  0  0  0  0
   43.7430    6.9740   43.7820 C   0  0  0  0  0  0  0  0  0  0  0  0
   44.8440    6.0290   44.1350 C   0  0  0  0  0  0  0  0  0  0  0  0
   46.0380    6.2190   43.3850 N   0  0  0  0  0  4  0  0  0  0  0  0
   46.1430    7.4370   42.6550 C   0  0  0  0  0  0  0  0  0  0  0  0
   45.4740    8.6270   43.2680 C   0  0  0  0  0  0  0  0  0  0  0  0
   47.2180    5.9790   44.2070 C   0  0  0  0  0  0  0  0  0  0  0  0
   42.8570   10.4370   42.5760 C   0  0  0  0  0  0  0  0  0  0  0  0
   43.9420   11.0780   42.3890 O   0  0  0  0  0  0  0  0  0  0  0  0
   41.6060   11.0480   42.3260 N   0  0  0  0  0  0  0  0  0  0  0  0
   40.4210   10.6260   43.0400 C   0  0  1  0  0  0  0  0  0  0  0  0
   40.4410    9.1660   42.9510 N   0  0  0  0  0  0  0  0  0  0  0  0
   40.5840   11.0490   44.4560 C   0  0  0  0  0  0  0  0  0  0  0  0
   40.4120   10.1480   45.4840 C   0  0  0  0  0  0  0  0  0  0  0  0
   40.5580   10.5200   46.8030 C   0  0  0  0  0  0  0  0  0  0  0  0
   40.8850   11.8350   47.1090 C   0  0  0  0  0  0  0  0  0  0  0  0
   41.0630   12.7570   46.1010 C   0  0  0  0  0  0  0  0  0  0  0  0
   40.9120   12.3590   44.8100 C   0  0  0  0  0  0  0  0  0  0  0  0
   41.3880   14.0530   46.4580 O   0  0  0  0  0  0  0  0  0  0  0  0
   40.5060   15.0140   46.9450 C   0  0  0  0  0  0  0  0  0  0  0  0
   41.1800   16.3600   47.0980 C   0  0  0  0  0  0  0  0  0  0  0  0
   41.0370   12.2340   48.4350 O   0  0  0  0  0  0  0  0  0  0  0  0
   40.3240    9.2850   48.2350 B   0  0  0  0  0  0  0  0  0  0  0  0
   45.0760    6.2130   45.2130 H   0  0  0  0  0  0  0  0  0  0  0  0
   44.4480    4.9970   44.0780 H   0  0  0  0  0  0  0  0  0  0  0  0
   46.0640    5.4350   42.6610 H   0  0  0  0  0  0  0  0  0  0  0  0
   45.7890    7.3280   41.6100 H   0  0  0  0  0  0  0  0  0  0  0  0
   47.2370    7.6870   42.5730 H   0  0  0  0  0  0  0  0  0  0  0  0
   45.8610    8.8670   44.2710 H   0  0  0  0  0  0  0  0  0  0  0  0
   45.5930    9.4600   42.5560 H   0  0  0  0  0  0  0  0  0  0  0  0
   48.0050    5.4300   43.6590 H   0  0  0  0  0  0  0  0  0  0  0  0
   46.9060    5.3700   45.0940 H   0  0  0  0  0  0  0  0  0  0  0  0
   47.6690    6.9260   44.5610 H   0  0  0  0  0  0  0  0  0  0  0  0
   41.5330   11.8140   41.6200 H   0  0  0  0  0  0  0  0  0  0  0  0
   39.5040   11.0130   42.5870 H   0  0  0  0  0  0  0  0  0  0  0  0
   39.6250    8.5820   42.7040 H   0  0  0  0  0  0  0  0  0  0  0  0
   40.1590    9.1280   45.2740 H   0  0  0  0  0  0  0  0  0  0  0  0
   41.0420   13.0510   44.0070 H   0  0  0  0  0  0  0  0  0  0  0  0
   39.6390   15.0730   46.2540 H   0  0  0  0  0  0  0  0  0  0  0  0
   40.1070   14.7190   47.9390 H   0  0  0  0  0  0  0  0  0  0  0  0
   42.2310   16.2510   46.7610 H   0  0  0  0  0  0  0  0  0  0  0  0
   40.6220   17.1520   46.5510 H   0  0  0  0  0  0  0  0  0  0  0  0
   41.2580   16.6400   48.1840 H   0  0  0  0  0  0  0  0  0  0  0  0
  1  5  1  0  0  0  0
  2  1  1  0  0  0  0
  3  2  2  0  0  0  0
  3  4  1  0  0  0  0
  4  5  2  0  0  0  0
  5  6  1  0  0  0  0
  6 27  1  0  0  0  0
  7  6  1  0  0  0  0
  7 10  1  0  0  0  0
  8  9  1  0  0  0  0
  8  7  1  0  0  0  0
  9  4  1  0  0  0  0
  9 32  1  0  0  0  0
 10 36  1  0  0  0  0
 10 35  1  0  0  0  0
 11  3  1  0  0  0  0
 12 11  2  0  0  0  0
 13 11  1  0  0  0  0
 13 14  1  0  0  0  0
 14 38  1  6  0  0  0
 14 16  1  0  0  0  0
 15 14  1  0  0  0  0
 15  2  1  0  0  0  0
 16 21  2  0  0  0  0
 16 17  1  0  0  0  0
 17 18  2  0  0  0  0
 18 19  1  0  0  0  0
 18 26  1  0  0  0  0
 19 25  1  0  0  0  0
 20 22  1  0  0  0  0
 20 19  2  0  0  0  0
 21 20  1  0  0  0  0
 22 23  1  0  0  0  0
 23 24  1  0  0  0  0
 23 43  1  0  0  0  0
 24 46  1  0  0  0  0
 28  6  1  0  0  0  0
 29  7  1  0  0  0  0
 30  8  1  0  0  0  0
 31  8  1  0  0  0  0
 33  9  1  0  0  0  0
 34 10  1  0  0  0  0
 37 13  1  0  0  0  0
 39 15  1  0  0  0  0
 40 17  1  0  0  0  0
 41 21  1  0  0  0  0
 42 23  1  0  0  0  0
 44 24  1  0  0  0  0
 45 24  1  0  0  0  0
M  END
>  <Pose>
1

>  <Score>
-6.29

$$$$
