
 OpenBabel03172210433D

 45 48  0  0  1  0  0  0  0  0999 V2000
   43.6290   11.6780   44.3740 S   0  0  0  0  0  0  0  0  0  0  0  0
   44.1440   13.2220   45.2240 C   0  0  0  0  0  0  0  0  0  0  0  0
   44.7280   12.7440   46.5550 C   0  0  0  0  0  0  0  0  0  0  0  0
   43.5860   12.1560   47.3770 C   0  0  0  0  0  0  0  0  0  0  0  0
   43.4140   10.7880   46.9530 N   0  0  1  0  0  0  0  0  0  0  0  0
   43.4190   10.4770   45.6830 C   0  0  2  0  0  0  0  0  0  0  0  0
   43.2450    9.0380   45.5910 N   0  0  0  0  0  0  0  0  0  0  0  0
   42.3310    8.7920   46.6860 C   0  0  2  0  0  0  0  0  0  0  0  0
   43.2360    9.5540   47.7240 C   0  0  0  0  0  0  0  0  0  0  0  0
   42.1560    7.4900   47.0340 O   0  0  0  0  0  0  0  0  0  0  0  0
   41.1050    9.5740   46.4920 C   0  0  0  0  0  0  0  0  0  0  0  0
   40.6100    9.9040   45.2420 C   0  0  0  0  0  0  0  0  0  0  0  0
   39.4480   10.6850   45.1370 C   0  0  0  0  0  0  0  0  0  0  0  0
   38.7840   11.1370   46.2140 C   0  0  0  0  0  0  0  0  0  0  0  0
   39.2600   10.8170   47.5030 C   0  0  0  0  0  0  0  0  0  0  0  0
   40.4080   10.0450   47.5630 C   0  0  0  0  0  0  0  0  0  0  0  0
   37.6090   11.9300   46.1510 O   0  0  0  0  0  0  0  0  0  0  0  0
   36.4360   11.4200   45.5540 C   0  0  0  0  0  0  0  0  0  0  0  0
   43.8920    8.1590   44.6990 C   0  0  0  0  0  0  0  0  0  0  0  0
   45.0770    7.5250   45.1460 C   0  0  0  0  0  0  0  0  0  0  0  0
   45.8110    6.6870   44.3230 C   0  0  0  0  0  0  0  0  0  0  0  0
   45.4180    6.4400   43.0360 C   0  0  0  0  0  0  0  0  0  0  0  0
   44.2680    7.0440   42.5720 C   0  0  0  0  0  0  0  0  0  0  0  0
   43.5260    7.8930   43.4160 C   0  0  0  0  0  0  0  0  0  0  0  0
   46.4070    5.3090   41.8580 B   0  0  0  0  0  0  0  0  0  0  0  0
   44.9460   13.6590   44.6040 H   0  0  0  0  0  0  0  0  0  0  0  0
   43.2850   13.8860   45.3840 H   0  0  0  0  0  0  0  0  0  0  0  0
   45.2720   13.5380   47.0680 H   0  0  0  0  0  0  0  0  0  0  0  0
   45.4540   11.9240   46.2810 H   0  0  0  0  0  0  0  0  0  0  0  0
   43.8680   12.1890   48.4530 H   0  0  0  0  0  0  0  0  0  0  0  0
   42.6540   12.7280   47.2950 H   0  0  0  0  0  0  0  0  0  0  0  0
   42.7680    9.6670   48.6740 H   0  0  0  0  0  0  0  0  0  0  0  0
   44.1900    8.9870   47.6930 H   0  0  0  0  0  0  0  0  0  0  0  0
   41.1770    7.3390   47.2170 H   0  0  0  0  0  0  0  0  0  0  0  0
   41.1130    9.5660   44.3630 H   0  0  0  0  0  0  0  0  0  0  0  0
   39.1000   10.9160   44.1370 H   0  0  0  0  0  0  0  0  0  0  0  0
   38.7480   11.1720   48.3670 H   0  0  0  0  0  0  0  0  0  0  0  0
   40.7380    9.8150   48.5680 H   0  0  0  0  0  0  0  0  0  0  0  0
   35.5850   12.0310   45.9000 H   0  0  0  0  0  0  0  0  0  0  0  0
   36.2070   10.3740   45.8360 H   0  0  0  0  0  0  0  0  0  0  0  0
   36.4940   11.4580   44.4280 H   0  0  0  0  0  0  0  0  0  0  0  0
   45.4160    7.6960   46.1440 H   0  0  0  0  0  0  0  0  0  0  0  0
   46.7210    6.2070   44.6810 H   0  0  0  0  0  0  0  0  0  0  0  0
   43.9470    6.8670   41.5620 H   0  0  0  0  0  0  0  0  0  0  0  0
   42.6250    8.3610   43.0200 H   0  0  0  0  0  0  0  0  0  0  0  0
  1  2  1  0  0  0  0
  2 27  1  0  0  0  0
  2  3  1  0  0  0  0
  3 28  1  0  0  0  0
  3  4  1  0  0  0  0
  4 30  1  0  0  0  0
  5  4  1  1  0  0  0
  5  9  1  0  0  0  0
  6  1  1  1  0  0  0
  6  5  1  0  0  0  0
  7  6  1  0  0  0  0
  7  8  1  0  0  0  0
  8 10  1  1  0  0  0
  8  9  1  0  0  0  0
  9 32  1  0  0  0  0
 10 34  1  0  0  0  0
 11  8  1  0  0  0  0
 11 16  1  0  0  0  0
 12 11  2  0  0  0  0
 13 12  1  0  0  0  0
 13 14  2  0  0  0  0
 14 15  1  0  0  0  0
 15 16  2  0  0  0  0
 15 37  1  0  0  0  0
 16 38  1  0  0  0  0
 17 14  1  0  0  0  0
 18 40  1  0  0  0  0
 18 39  1  0  0  0  0
 18 17  1  0  0  0  0
 19 20  1  0  0  0  0
 19  7  1  0  0  0  0
 20 42  1  0  0  0  0
 21 43  1  0  0  0  0
 21 20  2  0  0  0  0
 22 21  1  0  0  0  0
 23 22  2  0  0  0  0
 23 24  1  0  0  0  0
 24 19  2  0  0  0  0
 25 22  1  0  0  0  0
 26  2  1  0  0  0  0
 29  3  1  0  0  0  0
 31  4  1  0  0  0  0
 33  9  1  0  0  0  0
 35 12  1  0  0  0  0
 36 13  1  0  0  0  0
 41 18  1  0  0  0  0
 44 23  1  0  0  0  0
 45 24  1  0  0  0  0
M  END
>  <Pose>
1

>  <Score>
-4.62

$$$$
