
 OpenBabel03172210433D

 43 46  0  0  1  0  0  0  0  0999 V2000
   42.7030   11.3620   44.1140 S   0  0  0  0  0  0  0  0  0  0  0  0
   41.0990   11.5420   43.2300 C   0  0  0  0  0  0  0  0  0  0  0  0
   40.4590   10.1720   43.0840 C   0  0  0  0  0  0  0  0  0  0  0  0
   41.4640    9.1500   42.6210 C   0  0  0  0  0  0  0  0  0  0  0  0
   42.2360    8.6900   43.7310 N   0  0  2  0  0  0  0  0  0  0  0  0
   42.7350    7.4170   44.2180 C   0  0  1  0  0  0  0  0  0  0  0  0
   42.8160    7.6330   45.7190 C   0  0  0  0  0  0  0  0  0  0  0  0
   43.0300    9.0930   45.7910 N   0  0  0  0  0  0  0  0  0  0  0  0
   42.6990    9.6490   44.6950 C   0  0  1  0  0  0  0  0  0  0  0  0
   43.5220    9.7710   46.9440 C   0  0  0  0  0  0  0  0  0  0  0  0
   43.9450   11.0670   46.9970 C   0  0  0  0  0  0  0  0  0  0  0  0
   44.3960   11.6720   48.1620 C   0  0  0  0  0  0  0  0  0  0  0  0
   44.4280   10.9500   49.3380 C   0  0  0  0  0  0  0  0  0  0  0  0
   44.0040    9.6260   49.3210 C   0  0  0  0  0  0  0  0  0  0  0  0
   43.5570    9.0420   48.1420 C   0  0  0  0  0  0  0  0  0  0  0  0
   45.0370   11.6920   50.9920 B   0  0  0  0  0  0  0  0  0  0  0  0
   41.9070    6.3640   43.8840 O   0  0  0  0  0  0  0  0  0  0  0  0
   44.1050    7.1410   43.7250 C   0  0  0  0  0  0  0  0  0  0  0  0
   44.6010    5.8530   43.7630 C   0  0  0  0  0  0  0  0  0  0  0  0
   45.8950    5.6390   43.2880 C   0  0  0  0  0  0  0  0  0  0  0  0
   46.6470    6.6650   42.8020 C   0  0  0  0  0  0  0  0  0  0  0  0
   46.1630    7.9590   42.7560 C   0  0  0  0  0  0  0  0  0  0  0  0
   44.8640    8.1660   43.2340 C   0  0  0  0  0  0  0  0  0  0  0  0
   46.4130    4.3190   43.3240 N   0  0  0  0  0  0  0  0  0  0  0  0
   46.0050    3.4750   44.1440 O   0  0  0  0  0  0  0  0  0  0  0  0
   47.3860    3.9170   42.4530 O   0  0  0  0  0  0  0  0  0  0  0  0
   41.2430   12.0430   42.2730 H   0  0  0  0  0  0  0  0  0  0  0  0
   40.4230   12.1460   43.8590 H   0  0  0  0  0  0  0  0  0  0  0  0
   39.6630   10.2430   42.3060 H   0  0  0  0  0  0  0  0  0  0  0  0
   39.9980    9.8250   44.0130 H   0  0  0  0  0  0  0  0  0  0  0  0
   40.9570    8.3490   42.0600 H   0  0  0  0  0  0  0  0  0  0  0  0
   42.1800    9.6650   41.9110 H   0  0  0  0  0  0  0  0  0  0  0  0
   41.8950    7.3470   46.2350 H   0  0  0  0  0  0  0  0  0  0  0  0
   43.6960    7.1310   46.1800 H   0  0  0  0  0  0  0  0  0  0  0  0
   43.9450   11.6670   46.1040 H   0  0  0  0  0  0  0  0  0  0  0  0
   44.7280   12.7030   48.1910 H   0  0  0  0  0  0  0  0  0  0  0  0
   44.0330    9.0770   50.2560 H   0  0  0  0  0  0  0  0  0  0  0  0
   43.2310    8.0050   48.1560 H   0  0  0  0  0  0  0  0  0  0  0  0
   41.7780    5.6900   44.5670 H   0  0  0  0  0  0  0  0  0  0  0  0
   44.0060    5.0440   44.1490 H   0  0  0  0  0  0  0  0  0  0  0  0
   47.6500    6.4990   42.4340 H   0  0  0  0  0  0  0  0  0  0  0  0
   46.7650    8.7450   42.3680 H   0  0  0  0  0  0  0  0  0  0  0  0
   44.5060    9.1830   43.1910 H   0  0  0  0  0  0  0  0  0  0  0  0
  2 28  1  0  0  0  0
  2  1  1  0  0  0  0
  3  2  1  0  0  0  0
  3 30  1  0  0  0  0
  4  3  1  0  0  0  0
  5  4  1  1  0  0  0
  5  6  1  0  0  0  0
  5  9  1  0  0  0  0
  6 17  1  6  0  0  0
  6  7  1  0  0  0  0
  7  8  1  0  0  0  0
  7 34  1  0  0  0  0
  7 33  1  0  0  0  0
  8 10  1  0  0  0  0
  9  1  1  6  0  0  0
  9  8  1  0  0  0  0
 10 11  2  0  0  0  0
 10 15  1  0  0  0  0
 11 12  1  0  0  0  0
 12 36  1  0  0  0  0
 12 13  2  0  0  0  0
 13 16  1  0  0  0  0
 14 13  1  0  0  0  0
 14 37  1  0  0  0  0
 15 38  1  0  0  0  0
 15 14  2  0  0  0  0
 17 39  1  0  0  0  0
 18 19  1  0  0  0  0
 18  6  1  0  0  0  0
 19 40  1  0  0  0  0
 20 24  1  0  0  0  0
 20 19  2  0  0  0  0
 21 20  1  0  0  0  0
 22 21  2  0  0  0  0
 22 23  1  0  0  0  0
 23 18  2  0  0  0  0
 24 25  2  0  0  0  0
 26 24  2  0  0  0  0
 27  2  1  0  0  0  0
 29  3  1  0  0  0  0
 31  4  1  0  0  0  0
 32  4  1  0  0  0  0
 35 11  1  0  0  0  0
 41 21  1  0  0  0  0
 42 22  1  0  0  0  0
 43 23  1  0  0  0  0
M  END
>  <Pose>
1

>  <Score>
-5.69

$$$$
