
 OpenBabel03172210433D

 41 44  0  0  1  0  0  0  0  0999 V2000
   40.7500   10.3050   46.4430 S   0  0  0  0  0  0  0  0  0  0  0  0
   39.5330   10.3260   45.0970 C   0  0  0  0  0  0  0  0  0  0  0  0
   40.3040   10.7170   43.8320 C   0  0  0  0  0  0  0  0  0  0  0  0
   41.3010    9.5890   43.5210 C   0  0  0  0  0  0  0  0  0  0  0  0
   42.5020    9.8200   44.3330 N   0  0  1  0  0  0  0  0  0  0  0  0
   43.8790    9.7320   44.0650 C   0  0  2  0  0  0  0  0  0  0  0  0
   44.5490   10.4470   45.2330 C   0  0  0  0  0  0  0  0  0  0  0  0
   43.4920   10.6500   46.1750 N   0  0  0  0  0  0  0  0  0  0  0  0
   42.3870   10.2710   45.6750 C   0  0  1  0  0  0  0  0  0  0  0  0
   43.7170   11.2500   47.4610 C   0  0  0  0  0  0  0  0  0  0  0  0
   43.2500   10.6250   48.5710 C   0  0  0  0  0  0  0  0  0  0  0  0
   43.5090   11.2120   49.8060 C   0  0  0  0  0  0  0  0  0  0  0  0
   44.2120   12.3880   49.9430 C   0  0  0  0  0  0  0  0  0  0  0  0
   44.6640   12.9870   48.7850 C   0  0  0  0  0  0  0  0  0  0  0  0
   44.4270   12.4350   47.5490 C   0  0  0  0  0  0  0  0  0  0  0  0
   44.1830   10.5090   42.9250 O   0  0  0  0  0  0  0  0  0  0  0  0
   44.4920    8.4140   43.9040 C   0  0  0  0  0  0  0  0  0  0  0  0
   45.7700    8.3920   43.3470 C   0  0  0  0  0  0  0  0  0  0  0  0
   46.5030    7.2350   43.1570 C   0  0  0  0  0  0  0  0  0  0  0  0
   45.9730    6.0270   43.5200 C   0  0  0  0  0  0  0  0  0  0  0  0
   44.7060    6.0280   44.0740 C   0  0  0  0  0  0  0  0  0  0  0  0
   43.9800    7.2010   44.2620 C   0  0  0  0  0  0  0  0  0  0  0  0
   46.9480    4.3770   43.2930 B   0  0  0  0  0  0  0  0  0  0  0  0
   39.1190    9.3110   44.9900 H   0  0  0  0  0  0  0  0  0  0  0  0
   38.7560   11.0980   45.2860 H   0  0  0  0  0  0  0  0  0  0  0  0
   39.6130   10.8330   43.0020 H   0  0  0  0  0  0  0  0  0  0  0  0
   40.8450   11.6570   44.0460 H   0  0  0  0  0  0  0  0  0  0  0  0
   40.8490    8.6180   43.6880 H   0  0  0  0  0  0  0  0  0  0  0  0
   41.5250    9.6920   42.4480 H   0  0  0  0  0  0  0  0  0  0  0  0
   44.9630   11.4160   44.8990 H   0  0  0  0  0  0  0  0  0  0  0  0
   45.3140    9.7870   45.7110 H   0  0  0  0  0  0  0  0  0  0  0  0
   42.6750    9.6810   48.5540 H   0  0  0  0  0  0  0  0  0  0  0  0
   43.1300   10.7110   50.6780 H   0  0  0  0  0  0  0  0  0  0  0  0
   44.4130   12.8340   50.9290 H   0  0  0  0  0  0  0  0  0  0  0  0
   45.2240   13.9190   48.8580 H   0  0  0  0  0  0  0  0  0  0  0  0
   44.7790   12.8950   46.6150 H   0  0  0  0  0  0  0  0  0  0  0  0
   45.1530   10.3820   42.7560 H   0  0  0  0  0  0  0  0  0  0  0  0
   46.1790    9.3580   43.0570 H   0  0  0  0  0  0  0  0  0  0  0  0
   47.5050    7.2720   42.7120 H   0  0  0  0  0  0  0  0  0  0  0  0
   44.2970    5.0680   44.3640 H   0  0  0  0  0  0  0  0  0  0  0  0
   42.9820    7.1690   44.6920 H   0  0  0  0  0  0  0  0  0  0  0  0
  2 25  1  0  0  0  0
  2  1  1  0  0  0  0
  3 27  1  0  0  0  0
  3  2  1  0  0  0  0
  4 28  1  0  0  0  0
  4  3  1  0  0  0  0
  5  4  1  6  0  0  0
  5  9  1  0  0  0  0
  6 16  1  6  0  0  0
  6  5  1  0  0  0  0
  6  7  1  0  0  0  0
  7 31  1  0  0  0  0
  7  8  1  0  0  0  0
  8 10  1  0  0  0  0
  9  8  1  0  0  0  0
  9  1  1  6  0  0  0
 10 15  2  0  0  0  0
 10 11  1  0  0  0  0
 11 12  2  0  0  0  0
 12 13  1  0  0  0  0
 12 33  1  0  0  0  0
 13 34  1  0  0  0  0
 14 35  1  0  0  0  0
 14 13  2  0  0  0  0
 15 14  1  0  0  0  0
 17  6  1  0  0  0  0
 17 22  1  0  0  0  0
 18 17  2  0  0  0  0
 19 18  1  0  0  0  0
 19 20  2  0  0  0  0
 20 21  1  0  0  0  0
 21 22  2  0  0  0  0
 21 40  1  0  0  0  0
 22 41  1  0  0  0  0
 23 20  1  0  0  0  0
 24  2  1  0  0  0  0
 26  3  1  0  0  0  0
 29  4  1  0  0  0  0
 30  7  1  0  0  0  0
 32 11  1  0  0  0  0
 36 15  1  0  0  0  0
 37 16  1  0  0  0  0
 38 18  1  0  0  0  0
 39 19  1  0  0  0  0
M  END
>  <Pose>
1

>  <Score>
-4.34

$$$$
