
 OpenBabel03172210433D

 49 52  0  0  0  0  0  0  0  0999 V2000
   44.8260   13.8770   45.5850 S   0  0  0  0  0  0  0  0  0  0  0  0
   44.1020   14.8270   46.9560 C   0  0  0  0  0  0  0  0  0  0  0  0
   42.6900   14.3400   46.8840 C   0  0  0  0  0  0  0  0  0  0  0  0
   42.5250   13.2310   46.0910 N   0  0  0  0  0  0  0  0  0  0  0  0
   43.4190   12.7900   45.3560 C   0  0  0  0  0  0  0  0  0  0  0  0
   43.4600   11.3900   44.2450 S   0  0  0  0  0  0  0  0  0  0  0  0
   41.9210   10.4960   44.2050 C   0  0  0  0  0  0  0  0  0  0  0  0
   41.8650    9.2200   44.9350 C   0  0  0  0  0  0  0  0  0  0  0  0
   41.0470    8.9030   45.9460 N   0  0  0  0  0  0  0  0  0  0  0  0
   41.3830    7.6510   46.3030 N   0  0  0  0  0  0  0  0  0  0  0  0
   42.3440    7.2020   45.5780 N   0  0  0  0  0  0  0  0  0  0  0  0
   42.7290    8.1550   44.6540 C   0  0  0  0  0  0  0  0  0  0  0  0
   43.7910    7.9680   43.7010 C   0  0  0  0  0  0  0  0  0  0  0  0
   43.4390    7.6670   42.4930 O   0  0  0  0  0  0  0  0  0  0  0  0
   45.1650    8.0670   43.9030 N   0  0  0  0  0  0  0  0  0  0  0  0
   46.0340    7.0290   43.4190 N   0  0  0  0  0  0  0  0  0  0  0  0
   46.3630    6.0340   44.1430 C   0  0  0  0  0  0  0  0  0  0  0  0
   47.2390    4.9620   43.6920 C   0  0  0  0  0  0  0  0  0  0  0  0
   48.4600    4.7270   44.2830 C   0  0  0  0  0  0  0  0  0  0  0  0
   49.2990    3.7120   43.8710 C   0  0  0  0  0  0  0  0  0  0  0  0
   48.9440    2.8830   42.8390 C   0  0  0  0  0  0  0  0  0  0  0  0
   47.7050    3.0930   42.2120 C   0  0  0  0  0  0  0  0  0  0  0  0
   46.8900    4.1160   42.6470 C   0  0  0  0  0  0  0  0  0  0  0  0
   47.4130    2.2260   41.1850 O   0  0  0  0  0  0  0  0  0  0  0  0
   46.6970    1.0220   41.3050 C   0  0  0  0  0  0  0  0  0  0  0  0
   49.8020    1.8690   42.4410 O   0  0  0  0  0  0  0  0  0  0  0  0
   50.9850    3.4260   44.7240 B   0  0  0  0  0  0  0  0  0  0  0  0
   40.0280    9.6370   46.6210 C   0  0  0  0  0  0  0  0  0  0  0  0
   39.9700    9.9870   47.9220 N   0  0  0  0  0  0  0  0  0  0  0  0
   38.9210   10.6690   48.1920 O   0  0  0  0  0  0  0  0  0  0  0  0
   38.2390   10.8060   47.0980 N   0  0  0  0  0  0  0  0  0  0  0  0
   38.8850   10.1780   46.0710 C   0  0  0  0  0  0  0  0  0  0  0  0
   38.4650   10.1220   44.7230 N   0  0  0  0  0  4  0  0  0  0  0  0
   44.6010   14.6240   47.9140 H   0  0  0  0  0  0  0  0  0  0  0  0
   44.1140   15.8930   46.6560 H   0  0  0  0  0  0  0  0  0  0  0  0
   41.9760   15.1800   46.6920 H   0  0  0  0  0  0  0  0  0  0  0  0
   42.4230   14.0360   47.9500 H   0  0  0  0  0  0  0  0  0  0  0  0
   41.6530   10.3420   43.1470 H   0  0  0  0  0  0  0  0  0  0  0  0
   41.0770   11.1180   44.6490 H   0  0  0  0  0  0  0  0  0  0  0  0
   45.6960    8.8150   44.3800 H   0  0  0  0  0  0  0  0  0  0  0  0
   45.9710    5.9820   45.1410 H   0  0  0  0  0  0  0  0  0  0  0  0
   48.7560    5.3790   45.1060 H   0  0  0  0  0  0  0  0  0  0  0  0
   45.9400    4.2660   42.1540 H   0  0  0  0  0  0  0  0  0  0  0  0
   47.0930    0.2400   40.5980 H   0  0  0  0  0  0  0  0  0  0  0  0
   46.6930    0.6620   42.3410 H   0  0  0  0  0  0  0  0  0  0  0  0
   45.6500    1.2110   40.9370 H   0  0  0  0  0  0  0  0  0  0  0  0
   39.0370    9.3840   44.2350 H   0  0  0  0  0  0  0  0  0  0  0  0
   38.5300   11.0210   44.2130 H   0  0  0  0  0  0  0  0  0  0  0  0
   37.4660    9.7820   44.6920 H   0  0  0  0  0  0  0  0  0  0  0  0
  1  2  1  0  0  0  0
  2 34  1  0  0  0  0
  3  2  1  0  0  0  0
  3 37  1  0  0  0  0
  4  3  1  0  0  0  0
  5  1  1  0  0  0  0
  5  4  2  0  0  0  0
  6  5  1  0  0  0  0
  7  6  1  0  0  0  0
  7 39  1  0  0  0  0
  7  8  1  0  0  0  0
  8  9  1  0  0  0  0
  9 10  1  0  0  0  0
  9 28  1  0  0  0  0
 11 10  2  0  0  0  0
 12  8  2  0  0  0  0
 12 11  1  0  0  0  0
 13 15  1  0  0  0  0
 13 12  1  0  0  0  0
 14 13  2  0  0  0  0
 15 40  1  0  0  0  0
 16 15  1  0  0  0  0
 16 17  2  0  0  0  0
 17 41  1  0  0  0  0
 18 17  1  0  0  0  0
 18 19  1  0  0  0  0
 19 42  1  0  0  0  0
 20 19  2  0  0  0  0
 20 27  1  0  0  0  0
 21 20  1  0  0  0  0
 22 23  1  0  0  0  0
 22 21  2  0  0  0  0
 23 18  2  0  0  0  0
 24 25  1  0  0  0  0
 24 22  1  0  0  0  0
 25 45  1  0  0  0  0
 26 21  1  0  0  0  0
 28 29  2  0  0  0  0
 29 30  1  0  0  0  0
 31 30  1  0  0  0  0
 32 28  1  0  0  0  0
 32 31  2  0  0  0  0
 33 32  1  0  0  0  0
 35  2  1  0  0  0  0
 36  3  1  0  0  0  0
 38  7  1  0  0  0  0
 43 23  1  0  0  0  0
 44 25  1  0  0  0  0
 46 25  1  0  0  0  0
 47 33  1  0  0  0  0
 48 33  1  0  0  0  0
 49 33  1  0  0  0  0
M  END
>  <Pose>
1

>  <Score>
-8.53

$$$$
