
 OpenBabel03172210433D

 45 49  0  0  1  0  0  0  0  0999 V2000
   42.7960   12.4580   48.5500 S   0  0  0  0  0  0  0  0  0  0  0  0
   42.4210   10.8220   47.9410 C   0  0  0  0  0  0  0  0  0  0  0  0
   41.3410   10.1140   48.0190 N   0  0  0  0  0  0  0  0  0  0  0  0
   41.3070    8.7950   47.4270 C   0  0  0  0  0  0  0  0  0  0  0  0
   40.6220    7.8520   47.8190 O   0  0  0  0  0  0  0  0  0  0  0  0
   42.2060    8.5780   46.2120 C   0  0  2  0  0  0  0  0  0  0  0  0
   43.5330    9.0300   46.7360 C   0  0  0  0  0  0  0  0  0  0  0  0
   44.5720    8.3100   46.7040 O   0  0  0  0  0  0  0  0  0  0  0  0
   43.5990   10.3680   47.3090 N   0  0  0  0  0  0  0  0  0  0  0  0
   44.6610   11.2320   47.3190 N   0  0  0  0  0  0  0  0  0  0  0  0
   44.4800   12.4800   47.9520 C   0  0  0  0  0  0  0  0  0  0  0  0
   45.3470   13.4780   48.0920 C   0  0  0  0  0  0  0  0  0  0  0  0
   41.7030    9.4480   45.0950 C   0  0  1  0  0  0  0  0  0  0  0  0
   41.6580    8.8620   43.7410 C   0  0  2  0  0  0  0  0  0  0  0  0
   42.1520    7.5040   43.5680 C   0  0  0  0  0  0  0  0  0  0  0  0
   41.3290    6.5320   43.4680 O   0  0  0  0  0  0  0  0  0  0  0  0
   43.5730    7.2140   43.5010 N   0  0  0  0  0  0  0  0  0  0  0  0
   44.2020    6.0440   43.7820 N   0  0  0  0  0  0  0  0  0  0  0  0
   45.6110    6.0100   43.6320 C   0  0  0  0  0  0  0  0  0  0  0  0
   46.4520    5.0180   43.8290 C   0  0  0  0  0  0  0  0  0  0  0  0
   46.0500    7.6610   43.0950 S   0  0  0  0  0  0  0  0  0  0  0  0
   44.3820    8.2910   43.0860 C   0  0  0  0  0  0  0  0  0  0  0  0
   43.9290    9.4540   42.7810 N   0  0  0  0  0  0  0  0  0  0  0  0
   42.5210    9.7380   42.8500 C   0  0  0  0  0  0  0  0  0  0  0  0
   41.9590   10.6520   42.2300 O   0  0  0  0  0  0  0  0  0  0  0  0
   40.3860   10.0600   45.4320 C   0  0  0  0  0  0  0  0  0  0  0  0
   39.6120    9.5660   46.4560 C   0  0  0  0  0  0  0  0  0  0  0  0
   38.3950   10.1260   46.7720 C   0  0  0  0  0  0  0  0  0  0  0  0
   37.9370   11.2040   46.0490 C   0  0  0  0  0  0  0  0  0  0  0  0
   38.6910   11.7360   45.0010 C   0  0  0  0  0  0  0  0  0  0  0  0
   39.9060   11.1460   44.7170 C   0  0  0  0  0  0  0  0  0  0  0  0
   36.2500   12.0050   46.4620 B   0  0  0  0  0  0  0  0  0  0  0  0
   42.2060    7.5160   45.9940 H   0  0  0  0  0  0  0  0  0  0  0  0
   45.6230   11.0060   46.8800 H   0  0  0  0  0  0  0  0  0  0  0  0
   45.0250   14.3660   48.6120 H   0  0  0  0  0  0  0  0  0  0  0  0
   46.3380   13.4330   47.7140 H   0  0  0  0  0  0  0  0  0  0  0  0
   42.4340   10.3200   45.0320 H   0  0  0  0  0  0  0  0  0  0  0  0
   40.6320    8.8870   43.2810 H   0  0  0  0  0  0  0  0  0  0  0  0
   43.7130    5.1390   44.1070 H   0  0  0  0  0  0  0  0  0  0  0  0
   47.4960    5.1790   43.6630 H   0  0  0  0  0  0  0  0  0  0  0  0
   46.1160    4.0540   44.1520 H   0  0  0  0  0  0  0  0  0  0  0  0
   39.9210    8.7210   47.0580 H   0  0  0  0  0  0  0  0  0  0  0  0
   37.7850    9.7440   47.5720 H   0  0  0  0  0  0  0  0  0  0  0  0
   38.3350   12.5870   44.4280 H   0  0  0  0  0  0  0  0  0  0  0  0
   40.5500   11.5070   43.9120 H   0  0  0  0  0  0  0  0  0  0  0  0
  2  3  2  0  0  0  0
  2  1  1  0  0  0  0
  4  5  2  0  0  0  0
  4  3  1  0  0  0  0
  6 33  1  6  0  0  0
  6  7  1  0  0  0  0
  6  4  1  0  0  0  0
  7  9  1  0  0  0  0
  8  7  2  0  0  0  0
  9 10  1  0  0  0  0
  9  2  1  0  0  0  0
 10 11  1  0  0  0  0
 11 12  2  0  0  0  0
 11  1  1  0  0  0  0
 12 35  1  0  0  0  0
 13 37  1  6  0  0  0
 13 26  1  0  0  0  0
 13  6  1  0  0  0  0
 14 38  1  6  0  0  0
 14 13  1  0  0  0  0
 15 14  1  0  0  0  0
 16 15  2  0  0  0  0
 17 15  1  0  0  0  0
 17 18  1  0  0  0  0
 18 39  1  0  0  0  0
 19 18  1  0  0  0  0
 19 20  2  0  0  0  0
 20 41  1  0  0  0  0
 21 19  1  0  0  0  0
 22 21  1  0  0  0  0
 22 17  1  0  0  0  0
 23 24  1  0  0  0  0
 23 22  2  0  0  0  0
 24 14  1  0  0  0  0
 25 24  2  0  0  0  0
 26 27  1  0  0  0  0
 27 28  2  0  0  0  0
 27 42  1  0  0  0  0
 28 43  1  0  0  0  0
 29 32  1  0  0  0  0
 29 28  1  0  0  0  0
 30 29  2  0  0  0  0
 31 30  1  0  0  0  0
 31 26  2  0  0  0  0
 34 10  1  0  0  0  0
 36 12  1  0  0  0  0
 40 20  1  0  0  0  0
 44 30  1  0  0  0  0
 45 31  1  0  0  0  0
M  END
>  <Pose>
1

>  <Score>
-5.13

$$$$
