
 OpenBabel03172210433D

 51 53  0  0  0  0  0  0  0  0999 V2000
   47.1770   15.1090   44.4100 B   0  0  0  0  0  0  0  0  0  0  0  0
   45.9550   14.8990   45.8610 C   0  0  0  0  0  0  0  0  0  0  0  0
   45.7610   15.9680   46.7120 C   0  0  0  0  0  0  0  0  0  0  0  0
   44.8800   15.8080   47.7530 C   0  0  0  0  0  0  0  0  0  0  0  0
   44.2080   14.6150   47.9440 C   0  0  0  0  0  0  0  0  0  0  0  0
   44.3960   13.5600   47.1070 C   0  0  0  0  0  0  0  0  0  0  0  0
   45.2790   13.7120   46.0600 C   0  0  0  0  0  0  0  0  0  0  0  0
   43.6820   12.2910   47.3090 C   0  0  0  0  0  0  0  0  0  0  0  0
   43.7340   11.3500   46.4480 N   0  0  0  0  0  0  0  0  0  0  0  0
   43.0370   10.1110   46.6450 N   0  0  0  0  0  0  0  0  0  0  0  0
   41.8000    9.9710   45.9770 C   0  0  0  0  0  0  0  0  0  0  0  0
   40.8370    9.5820   46.7410 O   0  0  0  0  0  0  0  0  0  0  0  0
   41.5370   10.2190   44.5650 C   0  0  0  0  0  0  0  0  0  0  0  0
   42.1930    9.5000   43.5980 N   0  0  0  0  0  0  0  0  0  0  0  0
   41.7380    9.9560   42.4500 N   0  0  0  0  0  0  0  0  0  0  0  0
   40.8620   10.8910   42.6150 N   0  0  0  0  0  0  0  0  0  0  0  0
   40.6910   11.1030   43.9510 C   0  0  0  0  0  0  0  0  0  0  0  0
   39.7950   12.0530   44.6090 C   0  0  0  0  0  0  0  0  0  0  0  0
   38.3910   11.6760   44.5620 N   0  0  0  0  0  0  0  0  0  0  0  0
   38.1270   10.6000   45.5080 C   0  0  0  0  0  0  0  0  0  0  0  0
   37.7060   11.1270   46.8510 C   0  0  0  0  0  0  0  0  0  0  0  0
   38.1100   12.4250   47.1000 O   0  0  0  0  0  0  0  0  0  0  0  0
   37.6520   13.3570   46.1810 C   0  0  0  0  0  0  0  0  0  0  0  0
   37.4960   12.7820   44.7990 C   0  0  0  0  0  0  0  0  0  0  0  0
   43.1540    8.4840   43.7970 C   0  0  0  0  0  0  0  0  0  0  0  0
   44.5070    8.5490   43.7340 N   0  0  0  0  0  0  0  0  0  0  0  0
   44.9930    7.3860   43.9830 O   0  0  0  0  0  0  0  0  0  0  0  0
   44.0720    6.5070   44.2190 N   0  0  0  0  0  0  0  0  0  0  0  0
   42.8860    7.1640   44.1100 C   0  0  0  0  0  0  0  0  0  0  0  0
   41.6180    6.5600   44.2950 N   0  0  0  0  0  0  0  0  0  0  0  0
   44.6050   17.2930   48.9430 B   0  0  0  0  0  0  0  0  0  0  0  0
   46.4170   17.1800   46.5540 O   0  0  0  0  0  0  0  0  0  0  0  0
   38.6350   11.3060   49.9000 Cl  0  0  0  0  0  0  0  0  0  0  0  0
   43.5160   14.5130   48.7740 H   0  0  0  0  0  0  0  0  0  0  0  0
   45.4250   12.8740   45.3990 H   0  0  0  0  0  0  0  0  0  0  0  0
   43.1080   12.1520   48.1910 H   0  0  0  0  0  0  0  0  0  0  0  0
   43.4850    9.3980   47.2630 H   0  0  0  0  0  0  0  0  0  0  0  0
   40.0070   12.1850   45.6900 H   0  0  0  0  0  0  0  0  0  0  0  0
   39.8190   13.0630   44.1460 H   0  0  0  0  0  0  0  0  0  0  0  0
   37.3030    9.9920   45.0950 H   0  0  0  0  0  0  0  0  0  0  0  0
   39.0330    9.9660   45.5300 H   0  0  0  0  0  0  0  0  0  0  0  0
   38.1940   10.4900   47.6180 H   0  0  0  0  0  0  0  0  0  0  0  0
   36.6070   11.0060   47.0240 H   0  0  0  0  0  0  0  0  0  0  0  0
   38.4250   14.1600   46.1150 H   0  0  0  0  0  0  0  0  0  0  0  0
   36.7390   13.8290   46.5720 H   0  0  0  0  0  0  0  0  0  0  0  0
   37.4890   13.5010   43.9840 H   0  0  0  0  0  0  0  0  0  0  0  0
   36.4630   12.3180   44.7890 H   0  0  0  0  0  0  0  0  0  0  0  0
   41.5790    5.5280   44.3890 H   0  0  0  0  0  0  0  0  0  0  0  0
   40.7260    7.0870   44.3440 H   0  0  0  0  0  0  0  0  0  0  0  0
   46.4870   17.6590   45.6730 H   0  0  0  0  0  0  0  0  0  0  0  0
   38.8510   10.1620   50.6350 H   0  0  0  0  0  0  0  0  0  0  0  0
  1  2  1  0  0  0  0
  2  7  2  0  0  0  0
  2  3  1  0  0  0  0
  3  4  2  0  0  0  0
  4  5  1  0  0  0  0
  4 31  1  0  0  0  0
  5 34  1  0  0  0  0
  6  8  1  0  0  0  0
  6  5  2  0  0  0  0
  7  6  1  0  0  0  0
  8 36  1  0  0  0  0
  9 10  1  0  0  0  0
  9  8  2  0  0  0  0
 10 37  1  0  0  0  0
 11 10  1  0  0  0  0
 11 12  2  0  0  0  0
 13 11  1  0  0  0  0
 14 25  1  0  0  0  0
 14 13  1  0  0  0  0
 15 16  2  0  0  0  0
 15 14  1  0  0  0  0
 16 17  1  0  0  0  0
 17 13  2  0  0  0  0
 17 18  1  0  0  0  0
 18 38  1  0  0  0  0
 19 18  1  0  0  0  0
 19 24  1  0  0  0  0
 19 20  1  0  0  0  0
 20 41  1  0  0  0  0
 20 21  1  0  0  0  0
 21 43  1  0  0  0  0
 21 22  1  0  0  0  0
 21 42  1  0  0  0  0
 23 45  1  0  0  0  0
 23 22  1  0  0  0  0
 24 23  1  0  0  0  0
 25 29  1  0  0  0  0
 26 25  2  0  0  0  0
 26 27  1  0  0  0  0
 27 28  1  0  0  0  0
 29 28  2  0  0  0  0
 29 30  1  0  0  0  0
 30 49  1  0  0  0  0
 30 48  1  0  0  0  0
 32  3  1  0  0  0  0
 33 51  1  0  0  0  0
 35  7  1  0  0  0  0
 39 18  1  0  0  0  0
 40 20  1  0  0  0  0
 44 23  1  0  0  0  0
 46 24  1  0  0  0  0
 47 24  1  0  0  0  0
 50 32  1  0  0  0  0
M  END
>  <Pose>
1

>  <Score>
-7.19

$$$$
