
 OpenBabel03172210433D

 39 42  0  0  1  0  0  0  0  0999 V2000
   46.6720    7.6540   43.0910 B   0  0  0  0  0  0  0  0  0  0  0  0
   44.8300    7.7000   43.5650 C   0  0  0  0  0  0  0  0  0  0  0  0
   44.2390    6.5430   44.0190 C   0  0  0  0  0  0  0  0  0  0  0  0
   42.9060    6.6050   44.3550 C   0  0  0  0  0  0  0  0  0  0  0  0
   42.1940    7.8040   44.2350 C   0  0  0  0  0  0  0  0  0  0  0  0
   42.7730    8.9720   43.7820 C   0  0  0  0  0  0  0  0  0  0  0  0
   44.1140    8.8940   43.4470 C   0  0  0  0  0  0  0  0  0  0  0  0
   42.0520   10.1900   43.6600 N   0  0  0  0  0  0  0  0  0  0  0  0
   40.6640   10.2970   43.3640 C   0  0  0  0  0  0  0  0  0  0  0  0
   39.9610    9.4930   42.7140 O   0  0  0  0  0  0  0  0  0  0  0  0
   40.1250   11.5570   43.9600 C   0  0  1  0  0  0  0  0  0  0  0  0
   39.6850   11.3660   45.3730 C   0  0  1  0  0  0  0  0  0  0  0  0
   40.9060   11.3810   46.0930 O   0  0  0  0  0  0  0  0  0  0  0  0
   41.3390   12.6500   45.6330 C   0  0  1  0  0  0  0  0  0  0  0  0
   41.3730   12.4130   44.1590 C   0  0  1  0  0  0  0  0  0  0  0  0
   42.5070   11.5290   43.8020 C   0  0  0  0  0  0  0  0  0  0  0  0
   43.6880   11.9080   43.6500 O   0  0  0  0  0  0  0  0  0  0  0  0
   40.1430   13.4610   46.0120 C   0  0  0  0  0  0  0  0  0  0  0  0
   39.0890   12.6400   45.8580 C   0  0  0  0  0  0  0  0  0  0  0  0
   42.6000   13.0900   46.2470 C   0  0  0  0  0  0  0  0  0  0  0  0
   38.8670   10.1690   45.6370 C   0  0  0  0  0  0  0  0  0  0  0  0
   37.5250   10.3720   45.3220 O   0  0  0  0  0  0  0  0  0  0  0  0
   44.9960    5.2640   44.1500 C   0  0  0  0  0  0  0  0  0  0  0  0
   42.3980    5.7160   44.7170 H   0  0  0  0  0  0  0  0  0  0  0  0
   41.1480    7.8100   44.5130 H   0  0  0  0  0  0  0  0  0  0  0  0
   44.6100    9.7940   43.0880 H   0  0  0  0  0  0  0  0  0  0  0  0
   39.3920   12.0300   43.3050 H   0  0  0  0  0  0  0  0  0  0  0  0
   41.3440   13.3310   43.5410 H   0  0  0  0  0  0  0  0  0  0  0  0
   40.1730   14.4760   46.3290 H   0  0  0  0  0  0  0  0  0  0  0  0
   38.0550   12.8910   46.0570 H   0  0  0  0  0  0  0  0  0  0  0  0
   43.3490   13.5290   45.5660 H   0  0  0  0  0  0  0  0  0  0  0  0
   42.3940   13.8490   47.0340 H   0  0  0  0  0  0  0  0  0  0  0  0
   43.1000   12.2320   46.7830 H   0  0  0  0  0  0  0  0  0  0  0  0
   38.9150    9.9040   46.7060 H   0  0  0  0  0  0  0  0  0  0  0  0
   39.1950    9.3200   45.0040 H   0  0  0  0  0  0  0  0  0  0  0  0
   37.3660   10.4770   44.3430 H   0  0  0  0  0  0  0  0  0  0  0  0
   45.8380    5.3280   43.4350 H   0  0  0  0  0  0  0  0  0  0  0  0
   45.4710    5.1750   45.1590 H   0  0  0  0  0  0  0  0  0  0  0  0
   44.3650    4.3860   44.0110 H   0  0  0  0  0  0  0  0  0  0  0  0
  1  2  1  0  0  0  0
  2  3  1  0  0  0  0
  3 23  1  0  0  0  0
  3  4  2  0  0  0  0
  4 24  1  0  0  0  0
  5  4  1  0  0  0  0
  5 25  1  0  0  0  0
  6  5  2  0  0  0  0
  7  2  2  0  0  0  0
  7  6  1  0  0  0  0
  8  6  1  0  0  0  0
  8 16  1  0  0  0  0
  9  8  1  0  0  0  0
  9 11  1  0  0  0  0
 10  9  2  0  0  0  0
 11 27  1  6  0  0  0
 11 15  1  0  0  0  0
 11 12  1  0  0  0  0
 12 21  1  1  0  0  0
 12 19  1  0  0  0  0
 12 13  1  0  0  0  0
 14 18  1  0  0  0  0
 14 13  1  0  0  0  0
 14 20  1  1  0  0  0
 15 28  1  6  0  0  0
 15 14  1  0  0  0  0
 16 15  1  0  0  0  0
 17 16  2  0  0  0  0
 18 29  1  0  0  0  0
 19 18  2  0  0  0  0
 19 30  1  0  0  0  0
 20 33  1  0  0  0  0
 20 32  1  0  0  0  0
 21 34  1  0  0  0  0
 22 21  1  0  0  0  0
 23 38  1  0  0  0  0
 26  7  1  0  0  0  0
 31 20  1  0  0  0  0
 35 21  1  0  0  0  0
 36 22  1  0  0  0  0
 37 23  1  0  0  0  0
 39 23  1  0  0  0  0
M  END
>  <Pose>
1

>  <Score>
-4.73

$$$$
