
 OpenBabel03172210433D

 54 57  0  0  1  0  0  0  0  0999 V2000
   38.5040   10.1390   48.8530 B   0  0  0  0  0  0  0  0  0  0  0  0
   39.1290   10.5290   47.0760 C   0  0  0  0  0  0  0  0  0  0  0  0
   40.4770   10.8190   46.8510 C   0  0  0  0  0  0  0  0  0  0  0  0
   40.9780   11.1030   45.6060 C   0  0  0  0  0  0  0  0  0  0  0  0
   40.0500   11.0870   44.5510 C   0  0  0  0  0  0  0  0  0  0  0  0
   38.7200   10.8040   44.7590 C   0  0  0  0  0  0  0  0  0  0  0  0
   38.2440   10.5220   46.0200 C   0  0  0  0  0  0  0  0  0  0  0  0
   42.3780   11.4190   45.3110 C   0  0  1  0  0  0  0  0  0  0  0  0
   43.1390   11.8790   46.4530 N   0  0  0  0  0  0  0  0  0  0  0  0
   43.5080   10.7280   47.1910 C   0  0  0  0  0  0  0  0  0  0  0  0
   43.7510   10.6430   48.4210 O   0  0  0  0  0  0  0  0  0  0  0  0
   43.5540    9.6280   46.2280 C   0  0  0  0  0  0  0  0  0  0  0  0
   43.8310    8.4220   46.4200 O   0  0  0  0  0  0  0  0  0  0  0  0
   43.1970   10.2250   44.9310 C   0  0  0  0  0  0  0  0  0  0  0  0
   43.5280    9.7430   43.7550 C   0  0  0  0  0  0  0  0  0  0  0  0
   43.0540   10.4300   42.6300 O   0  0  0  0  0  0  0  0  0  0  0  0
   44.3690    8.5390   43.5970 C   0  0  0  0  0  0  0  0  0  0  0  0
   45.5740    8.4420   43.1210 O   0  0  0  0  0  0  0  0  0  0  0  0
   46.0040    7.2000   43.1400 C   0  0  0  0  0  0  0  0  0  0  0  0
   45.0120    6.3910   43.6720 C   0  0  0  0  0  0  0  0  0  0  0  0
   43.9790    7.2630   43.9570 C   0  0  0  0  0  0  0  0  0  0  0  0
   45.2140    5.0340   43.8020 C   0  0  0  0  0  0  0  0  0  0  0  0
   46.3880    4.4280   43.4190 C   0  0  0  0  0  0  0  0  0  0  0  0
   47.3840    5.2190   42.8890 C   0  0  0  0  0  0  0  0  0  0  0  0
   47.1850    6.5910   42.7540 C   0  0  0  0  0  0  0  0  0  0  0  0
   43.5260   13.2340   46.8400 C   0  0  0  0  0  0  0  0  0  0  0  0
   42.7100   13.6990   48.0320 C   0  0  0  0  0  0  0  0  0  0  0  0
   41.9410   14.9630   47.7530 C   0  0  0  0  0  0  0  0  0  0  0  0
   40.6180   14.6380   47.3270 N   0  0  0  0  0  4  0  0  0  0  0  0
   39.6110   15.5390   47.8480 C   0  0  0  0  0  0  0  0  0  0  0  0
   40.4340   14.5500   45.9100 C   0  0  0  0  0  0  0  0  0  0  0  0
   41.1440   10.8130   47.6960 H   0  0  0  0  0  0  0  0  0  0  0  0
   40.4180   11.3070   43.5530 H   0  0  0  0  0  0  0  0  0  0  0  0
   38.0040   10.7920   43.9420 H   0  0  0  0  0  0  0  0  0  0  0  0
   37.1860   10.2940   46.2080 H   0  0  0  0  0  0  0  0  0  0  0  0
   42.4080   12.1860   44.4990 H   0  0  0  0  0  0  0  0  0  0  0  0
   43.0430    6.9890   44.3970 H   0  0  0  0  0  0  0  0  0  0  0  0
   44.4400    4.4100   44.2170 H   0  0  0  0  0  0  0  0  0  0  0  0
   46.5920    3.3710   43.5010 H   0  0  0  0  0  0  0  0  0  0  0  0
   48.3240    4.7570   42.5780 H   0  0  0  0  0  0  0  0  0  0  0  0
   47.9970    7.1710   42.3310 H   0  0  0  0  0  0  0  0  0  0  0  0
   44.5910   13.3030   47.1370 H   0  0  0  0  0  0  0  0  0  0  0  0
   43.3660   13.9300   46.0020 H   0  0  0  0  0  0  0  0  0  0  0  0
   43.4600   13.9620   48.8140 H   0  0  0  0  0  0  0  0  0  0  0  0
   42.0690   12.9080   48.4260 H   0  0  0  0  0  0  0  0  0  0  0  0
   42.4170   15.5740   46.9540 H   0  0  0  0  0  0  0  0  0  0  0  0
   41.8650   15.5760   48.6790 H   0  0  0  0  0  0  0  0  0  0  0  0
   40.3850   13.6810   47.7290 H   0  0  0  0  0  0  0  0  0  0  0  0
   38.6330   14.9840   47.8920 H   0  0  0  0  0  0  0  0  0  0  0  0
   39.4570   16.3730   47.1400 H   0  0  0  0  0  0  0  0  0  0  0  0
   39.9110   15.8670   48.8530 H   0  0  0  0  0  0  0  0  0  0  0  0
   40.2160   15.5200   45.4250 H   0  0  0  0  0  0  0  0  0  0  0  0
   39.5500   13.9120   45.7130 H   0  0  0  0  0  0  0  0  0  0  0  0
   41.2910   14.0120   45.4070 H   0  0  0  0  0  0  0  0  0  0  0  0
  2  1  1  0  0  0  0
  3  2  1  0  0  0  0
  3 32  1  0  0  0  0
  4  3  2  0  0  0  0
  5  6  2  0  0  0  0
  5  4  1  0  0  0  0
  6  7  1  0  0  0  0
  7 35  1  0  0  0  0
  7  2  2  0  0  0  0
  8 36  1  6  0  0  0
  8  4  1  0  0  0  0
  8  9  1  0  0  0  0
  9 26  1  0  0  0  0
  9 10  1  0  0  0  0
 10 11  2  0  0  0  0
 12 13  2  0  0  0  0
 12 10  1  0  0  0  0
 14  8  1  0  0  0  0
 14 12  1  0  0  0  0
 15 14  2  0  0  0  0
 16 15  1  0  0  0  0
 17 15  1  0  0  0  0
 17 21  2  0  0  0  0
 18 19  1  0  0  0  0
 18 17  1  0  0  0  0
 19 20  1  0  0  0  0
 20 22  2  0  0  0  0
 20 21  1  0  0  0  0
 21 37  1  0  0  0  0
 22 38  1  0  0  0  0
 23 39  1  0  0  0  0
 23 22  1  0  0  0  0
 24 23  2  0  0  0  0
 25 24  1  0  0  0  0
 25 19  2  0  0  0  0
 26 42  1  0  0  0  0
 26 27  1  0  0  0  0
 27 45  1  0  0  0  0
 27 44  1  0  0  0  0
 28 27  1  0  0  0  0
 28 47  1  0  0  0  0
 29 48  1  0  0  0  0
 29 28  1  0  0  0  0
 29 30  1  0  0  0  0
 30 49  1  0  0  0  0
 30 51  1  0  0  0  0
 31 29  1  0  0  0  0
 33  5  1  0  0  0  0
 34  6  1  0  0  0  0
 40 24  1  0  0  0  0
 41 25  1  0  0  0  0
 43 26  1  0  0  0  0
 46 28  1  0  0  0  0
 50 30  1  0  0  0  0
 52 31  1  0  0  0  0
 53 31  1  0  0  0  0
 54 31  1  0  0  0  0
M  END
>  <Pose>
1

>  <Score>
-4.54

$$$$
