
 OpenBabel03172210433D

 52 55  0  0  1  0  0  0  0  0999 V2000
   48.7510    4.4060   44.9300 B   0  0  0  0  0  0  0  0  0  0  0  0
   47.4320    5.0270   43.6560 C   0  0  0  0  0  0  0  0  0  0  0  0
   46.4150    5.8510   44.0440 C   0  0  0  0  0  0  0  0  0  0  0  0
   45.4650    6.3030   43.1740 C   0  0  0  0  0  0  0  0  0  0  0  0
   45.5890    5.8710   41.8440 C   0  0  0  0  0  0  0  0  0  0  0  0
   46.5940    5.0470   41.4180 C   0  0  0  0  0  0  0  0  0  0  0  0
   47.5220    4.6260   42.3430 C   0  0  0  0  0  0  0  0  0  0  0  0
   44.3550    7.1580   43.5060 C   0  0  2  0  0  0  0  0  0  0  0  0
   44.7080    8.3900   43.7980 O   0  0  0  0  0  0  0  0  0  0  0  0
   42.9150    6.8770   43.5710 C   0  0  0  0  0  0  0  0  0  0  0  0
   42.1240    7.9760   44.0800 N   0  0  0  0  0  0  0  0  0  0  0  0
   41.8060    8.1480   45.4040 C   0  0  0  0  0  0  0  0  0  0  0  0
   41.0030    9.2500   45.4680 C   0  0  0  0  0  0  0  0  0  0  0  0
   40.5210    9.6760   46.7100 C   0  0  0  0  0  0  0  0  0  0  0  0
   40.8640    8.9770   47.8470 C   0  0  0  0  0  0  0  0  0  0  0  0
   41.6730    7.8630   47.7850 C   0  0  0  0  0  0  0  0  0  0  0  0
   42.1490    7.4470   46.5390 C   0  0  0  0  0  0  0  0  0  0  0  0
   40.8440    9.7200   44.2110 N   0  0  0  0  0  0  0  0  0  0  0  0
   41.5200    8.9540   43.3520 C   0  0  2  0  0  0  0  0  0  0  0  0
   41.5100    9.0710   42.0430 N   0  0  0  0  0  0  0  0  0  0  0  0
   40.0040   10.8700   43.9250 C   0  0  0  0  0  0  0  0  0  0  0  0
   40.1620   12.0260   44.8250 C   0  0  0  0  0  0  0  0  0  0  0  0
   39.8560   13.3270   44.3500 N   0  0  0  0  0  0  0  0  0  0  0  0
   40.2170   14.3480   45.3660 C   0  0  0  0  0  0  0  0  0  0  0  0
   39.5530   14.0940   46.6790 C   0  0  0  0  0  0  0  0  0  0  0  0
   38.1860   14.3040   46.4920 O   0  0  0  0  0  0  0  0  0  0  0  0
   37.6740   13.4900   45.5120 C   0  0  0  0  0  0  0  0  0  0  0  0
   38.4070   13.5370   44.1980 C   0  0  0  0  0  0  0  0  0  0  0  0
   46.3900    6.1440   45.0640 H   0  0  0  0  0  0  0  0  0  0  0  0
   44.8830    6.1790   41.0750 H   0  0  0  0  0  0  0  0  0  0  0  0
   46.6650    4.7250   40.3670 H   0  0  0  0  0  0  0  0  0  0  0  0
   48.3310    3.9680   42.0190 H   0  0  0  0  0  0  0  0  0  0  0  0
   42.5100    6.5840   42.5510 H   0  0  0  0  0  0  0  0  0  0  0  0
   42.7460    5.9920   44.2570 H   0  0  0  0  0  0  0  0  0  0  0  0
   39.8880   10.5560   46.7480 H   0  0  0  0  0  0  0  0  0  0  0  0
   40.4800    9.3280   48.7910 H   0  0  0  0  0  0  0  0  0  0  0  0
   41.9280    7.3330   48.6910 H   0  0  0  0  0  0  0  0  0  0  0  0
   42.7710    6.5740   46.4950 H   0  0  0  0  0  0  0  0  0  0  0  0
   41.0410    9.8280   41.5530 H   0  0  0  0  0  0  0  0  0  0  0  0
   41.9760    8.3430   41.4840 H   0  0  0  0  0  0  0  0  0  0  0  0
   40.1490   11.1560   42.8600 H   0  0  0  0  0  0  0  0  0  0  0  0
   38.9430   10.5340   43.9840 H   0  0  0  0  0  0  0  0  0  0  0  0
   41.1920   11.9860   45.3040 H   0  0  0  0  0  0  0  0  0  0  0  0
   39.4920   11.8310   45.7180 H   0  0  0  0  0  0  0  0  0  0  0  0
   41.3120   14.4670   45.4310 H   0  0  0  0  0  0  0  0  0  0  0  0
   39.8010   15.2870   44.9570 H   0  0  0  0  0  0  0  0  0  0  0  0
   39.9010   14.8810   47.3790 H   0  0  0  0  0  0  0  0  0  0  0  0
   39.7680   13.1330   47.1490 H   0  0  0  0  0  0  0  0  0  0  0  0
   36.6380   13.8840   45.2950 H   0  0  0  0  0  0  0  0  0  0  0  0
   37.5600   12.4620   45.9150 H   0  0  0  0  0  0  0  0  0  0  0  0
   37.9290   12.8480   43.5120 H   0  0  0  0  0  0  0  0  0  0  0  0
   38.3350   14.6130   43.8500 H   0  0  0  0  0  0  0  0  0  0  0  0
  2  3  1  0  0  0  0
  2  1  1  0  0  0  0
  3 29  1  0  0  0  0
  4  8  1  0  0  0  0
  4  3  2  0  0  0  0
  5  4  1  0  0  0  0
  6  5  2  0  0  0  0
  6  7  1  0  0  0  0
  7  2  2  0  0  0  0
  8 10  1  0  0  0  0
  8  9  1  1  0  0  0
 10 11  1  0  0  0  0
 10 34  1  0  0  0  0
 11 12  1  0  0  0  0
 12 13  2  0  0  0  0
 12 17  1  0  0  0  0
 13 14  1  0  0  0  0
 14 35  1  0  0  0  0
 14 15  2  0  0  0  0
 15 36  1  0  0  0  0
 16 15  1  0  0  0  0
 16 37  1  0  0  0  0
 17 16  2  0  0  0  0
 18 13  1  0  0  0  0
 19 20  1  6  0  0  0
 19 11  1  0  0  0  0
 19 18  1  0  0  0  0
 21 42  1  0  0  0  0
 21 18  1  0  0  0  0
 21 22  1  0  0  0  0
 22 43  1  0  0  0  0
 22 44  1  0  0  0  0
 23 22  1  0  0  0  0
 23 24  1  0  0  0  0
 24 45  1  0  0  0  0
 24 25  1  0  0  0  0
 25 48  1  0  0  0  0
 25 47  1  0  0  0  0
 26 25  1  0  0  0  0
 27 50  1  0  0  0  0
 27 26  1  0  0  0  0
 28 23  1  0  0  0  0
 28 27  1  0  0  0  0
 30  5  1  0  0  0  0
 31  6  1  0  0  0  0
 32  7  1  0  0  0  0
 33 10  1  0  0  0  0
 38 17  1  0  0  0  0
 39 20  1  0  0  0  0
 40 20  1  0  0  0  0
 41 21  1  0  0  0  0
 46 24  1  0  0  0  0
 49 27  1  0  0  0  0
 51 28  1  0  0  0  0
 52 28  1  0  0  0  0
M  END
>  <Pose>
1

>  <Score>
-5.65

$$$$
