
 OpenBabel03172210433D

 55 58  0  0  1  0  0  0  0  0999 V2000
   47.8990    3.2540   42.4670 B   0  0  0  0  0  0  0  0  0  0  0  0
   47.0640    4.9580   42.7290 C   0  0  0  0  0  0  0  0  0  0  0  0
   47.5610    5.7970   43.7010 C   0  0  0  0  0  0  0  0  0  0  0  0
   46.9740    7.0250   43.9040 C   0  0  0  0  0  0  0  0  0  0  0  0
   45.8870    7.4900   43.1780 C   0  0  0  0  0  0  0  0  0  0  0  0
   45.4130    6.6290   42.2140 C   0  0  0  0  0  0  0  0  0  0  0  0
   45.9990    5.3730   41.9930 C   0  0  0  0  0  0  0  0  0  0  0  0
   45.3650    8.7480   43.4600 N   0  0  0  0  0  0  0  0  0  0  0  0
   44.0500    9.2150   43.2910 C   0  0  0  0  0  0  0  0  0  0  0  0
   43.3110    8.7450   42.4040 O   0  0  0  0  0  0  0  0  0  0  0  0
   43.4620   10.2800   44.1450 C   0  0  0  0  0  0  0  0  0  0  0  0
   42.1130    9.9640   44.5070 N   0  0  0  0  0  0  0  0  0  0  0  0
   41.4970   10.4070   45.7040 C   0  0  0  0  0  0  0  0  0  0  0  0
   42.0680   11.3240   46.3540 O   0  0  0  0  0  0  0  0  0  0  0  0
   40.2210    9.7920   46.1550 C   0  0  2  0  0  0  0  0  0  0  0  0
   39.1960   10.4600   45.5970 O   0  0  0  0  0  0  0  0  0  0  0  0
   37.9990   10.4710   46.2390 C   0  0  2  0  0  0  0  0  0  0  0  0
   37.2210   11.4910   45.6730 O   0  0  0  0  0  0  0  0  0  0  0  0
   37.4870   12.6470   46.3650 C   0  0  0  0  0  0  0  0  0  0  0  0
   38.2450   12.3340   47.4760 O   0  0  0  0  0  0  0  0  0  0  0  0
   38.0800   10.9430   47.6720 C   0  0  2  0  0  0  0  0  0  0  0  0
   39.2150   10.3400   48.4050 C   0  0  1  0  0  0  0  0  0  0  0  0
   38.7680    9.4140   49.3750 O   0  0  0  0  0  0  0  0  0  0  0  0
   39.5950    8.3210   49.3120 C   0  0  0  0  0  0  0  0  0  0  0  0
   39.9910    8.2670   48.0010 O   0  0  0  0  0  0  0  0  0  0  0  0
   40.2130    9.6000   47.6250 C   0  0  1  0  0  0  0  0  0  0  0  0
   38.7480    7.1010   49.6930 C   0  0  0  0  0  0  0  0  0  0  0  0
   40.7310    8.3690   50.3000 C   0  0  0  0  0  0  0  0  0  0  0  0
   36.2090   13.3100   46.8810 C   0  0  0  0  0  0  0  0  0  0  0  0
   38.1920   13.6880   45.5110 C   0  0  0  0  0  0  0  0  0  0  0  0
   48.4250    5.4870   44.3140 H   0  0  0  0  0  0  0  0  0  0  0  0
   47.4080    7.6390   44.6810 H   0  0  0  0  0  0  0  0  0  0  0  0
   44.5850    6.8970   41.6090 H   0  0  0  0  0  0  0  0  0  0  0  0
   45.5850    4.7500   41.2300 H   0  0  0  0  0  0  0  0  0  0  0  0
   46.0530    9.4670   43.8590 H   0  0  0  0  0  0  0  0  0  0  0  0
   44.0570   10.2820   45.1050 H   0  0  0  0  0  0  0  0  0  0  0  0
   43.5860   11.2920   43.7200 H   0  0  0  0  0  0  0  0  0  0  0  0
   41.5520    9.3750   43.8560 H   0  0  0  0  0  0  0  0  0  0  0  0
   40.2340    8.7530   45.7000 H   0  0  0  0  0  0  0  0  0  0  0  0
   37.3980    9.5440   46.1450 H   0  0  0  0  0  0  0  0  0  0  0  0
   37.0940   10.7390   48.1370 H   0  0  0  0  0  0  0  0  0  0  0  0
   39.6960   11.1600   49.0170 H   0  0  0  0  0  0  0  0  0  0  0  0
   41.2330    9.8430   48.0210 H   0  0  0  0  0  0  0  0  0  0  0  0
   39.4410    6.2660   49.8520 H   0  0  0  0  0  0  0  0  0  0  0  0
   37.9700    6.9110   48.9380 H   0  0  0  0  0  0  0  0  0  0  0  0
   38.2420    7.3710   50.6420 H   0  0  0  0  0  0  0  0  0  0  0  0
   41.6430    7.8840   49.9490 H   0  0  0  0  0  0  0  0  0  0  0  0
   40.9590    9.4130   50.6000 H   0  0  0  0  0  0  0  0  0  0  0  0
   40.4550    7.8490   51.2640 H   0  0  0  0  0  0  0  0  0  0  0  0
   35.4570   13.2760   46.0840 H   0  0  0  0  0  0  0  0  0  0  0  0
   35.8860   12.8650   47.8400 H   0  0  0  0  0  0  0  0  0  0  0  0
   36.4700   14.3740   47.0680 H   0  0  0  0  0  0  0  0  0  0  0  0
   37.5610   14.5820   45.3300 H   0  0  0  0  0  0  0  0  0  0  0  0
   38.4700   13.2690   44.5140 H   0  0  0  0  0  0  0  0  0  0  0  0
   39.1210   14.0620   46.0100 H   0  0  0  0  0  0  0  0  0  0  0  0
  1  2  1  0  0  0  0
  2  3  1  0  0  0  0
  3  4  2  0  0  0  0
  3 31  1  0  0  0  0
  4 32  1  0  0  0  0
  5  8  1  0  0  0  0
  5  4  1  0  0  0  0
  6  5  2  0  0  0  0
  7  6  1  0  0  0  0
  7  2  2  0  0  0  0
  8 35  1  0  0  0  0
  9  8  1  0  0  0  0
  9 11  1  0  0  0  0
 10  9  2  0  0  0  0
 11 12  1  0  0  0  0
 11 36  1  0  0  0  0
 12 13  1  0  0  0  0
 13 15  1  0  0  0  0
 13 14  2  0  0  0  0
 15 39  1  6  0  0  0
 15 26  1  0  0  0  0
 16 15  1  0  0  0  0
 16 17  1  0  0  0  0
 17 40  1  6  0  0  0
 17 21  1  0  0  0  0
 18 17  1  0  0  0  0
 18 19  1  0  0  0  0
 19 29  1  0  0  0  0
 19 20  1  0  0  0  0
 20 21  1  0  0  0  0
 21 41  1  1  0  0  0
 21 22  1  0  0  0  0
 22 42  1  1  0  0  0
 22 23  1  0  0  0  0
 24 23  1  0  0  0  0
 24 27  1  0  0  0  0
 24 28  1  0  0  0  0
 25 24  1  0  0  0  0
 26 25  1  0  0  0  0
 26 43  1  1  0  0  0
 26 22  1  0  0  0  0
 27 44  1  0  0  0  0
 27 46  1  0  0  0  0
 28 48  1  0  0  0  0
 28 49  1  0  0  0  0
 29 52  1  0  0  0  0
 29 51  1  0  0  0  0
 30 55  1  0  0  0  0
 30 19  1  0  0  0  0
 33  6  1  0  0  0  0
 34  7  1  0  0  0  0
 37 11  1  0  0  0  0
 38 12  1  0  0  0  0
 45 27  1  0  0  0  0
 47 28  1  0  0  0  0
 50 29  1  0  0  0  0
 53 30  1  0  0  0  0
 54 30  1  0  0  0  0
M  END
>  <Pose>
1

>  <Score>
-5.61

$$$$
