
 OpenBabel03172210433D

 50 53  0  0  1  0  0  0  0  0999 V2000
   39.1750    8.8050   51.3860 Cl  0  0  0  0  0  0  0  0  0  0  0  0
   39.9220    8.6770   49.7990 C   0  0  0  0  0  0  0  0  0  0  0  0
   41.0400    7.9000   49.5910 C   0  0  0  0  0  0  0  0  0  0  0  0
   41.6240    7.8040   48.3410 C   0  0  0  0  0  0  0  0  0  0  0  0
   41.1220    8.4750   47.2430 C   0  0  0  0  0  0  0  0  0  0  0  0
   40.0020    9.2530   47.4480 C   0  0  0  0  0  0  0  0  0  0  0  0
   39.4080    9.3530   48.7120 C   0  0  0  0  0  0  0  0  0  0  0  0
   41.7580    8.3540   45.9330 C   0  0  0  0  0  0  0  0  0  0  0  0
   41.5100    9.0240   44.7830 N   0  0  0  0  0  0  0  0  0  0  0  0
   42.3530    8.5710   43.8310 C   0  0  1  0  0  0  0  0  0  0  0  0
   43.1560    7.6110   44.3360 N   0  0  0  0  0  0  0  0  0  0  0  0
   42.7820    7.4840   45.6300 C   0  0  0  0  0  0  0  0  0  0  0  0
   44.1980    6.8620   43.6630 C   0  0  0  0  0  0  0  0  0  0  0  0
   45.4250    7.6990   43.5400 C   0  0  0  0  0  0  0  0  0  0  0  0
   45.3570    8.7270   42.8630 O   0  0  0  0  0  0  0  0  0  0  0  0
   46.5790    7.2680   44.1980 N   0  0  0  0  0  0  0  0  0  0  0  0
   47.2840    6.0740   43.8960 C   0  0  0  0  0  0  0  0  0  0  0  0
   46.9250    5.3480   42.7530 C   0  0  0  0  0  0  0  0  0  0  0  0
   47.5660    4.1910   42.4450 C   0  0  0  0  0  0  0  0  0  0  0  0
   48.5850    3.6990   43.2440 C   0  0  0  0  0  0  0  0  0  0  0  0
   48.9270    4.4130   44.3570 C   0  0  0  0  0  0  0  0  0  0  0  0
   48.2850    5.6090   44.7010 C   0  0  0  0  0  0  0  0  0  0  0  0
   49.2720    2.4320   42.8870 C   0  0  0  0  0  0  0  0  0  0  0  0
   50.7490    2.5680   43.2680 C   0  0  0  0  0  0  0  0  0  0  0  0
   42.1010    9.2890   42.5560 C   0  0  0  0  0  0  0  0  0  0  0  0
   41.0580   10.3110   42.8520 C   0  0  0  0  0  0  0  0  0  0  0  0
   40.6450   10.0550   44.2540 C   0  0  0  0  0  0  0  0  0  0  0  0
   41.4390    7.3720   50.4450 H   0  0  0  0  0  0  0  0  0  0  0  0
   42.5060    7.1840   48.2020 H   0  0  0  0  0  0  0  0  0  0  0  0
   39.5680    9.7980   46.6230 H   0  0  0  0  0  0  0  0  0  0  0  0
   38.5360    9.9590   48.8740 H   0  0  0  0  0  0  0  0  0  0  0  0
   43.2420    6.7760   46.3380 H   0  0  0  0  0  0  0  0  0  0  0  0
   43.8410    6.5080   42.6750 H   0  0  0  0  0  0  0  0  0  0  0  0
   44.3760    5.9490   44.2750 H   0  0  0  0  0  0  0  0  0  0  0  0
   47.0100    7.8460   44.9940 H   0  0  0  0  0  0  0  0  0  0  0  0
   46.1180    5.7290   42.1090 H   0  0  0  0  0  0  0  0  0  0  0  0
   47.2830    3.6190   41.5450 H   0  0  0  0  0  0  0  0  0  0  0  0
   49.7230    4.0730   45.0240 H   0  0  0  0  0  0  0  0  0  0  0  0
   48.6150    6.1160   45.6230 H   0  0  0  0  0  0  0  0  0  0  0  0
   49.1590    2.2360   41.8070 H   0  0  0  0  0  0  0  0  0  0  0  0
   48.8460    1.5890   43.4600 H   0  0  0  0  0  0  0  0  0  0  0  0
   50.8510    2.5510   44.3600 H   0  0  0  0  0  0  0  0  0  0  0  0
   51.1540    3.4650   42.7820 H   0  0  0  0  0  0  0  0  0  0  0  0
   51.3070    1.6920   42.8620 H   0  0  0  0  0  0  0  0  0  0  0  0
   41.8070    8.5820   41.7510 H   0  0  0  0  0  0  0  0  0  0  0  0
   43.0370    9.8260   42.2370 H   0  0  0  0  0  0  0  0  0  0  0  0
   41.4690   11.3550   42.7140 H   0  0  0  0  0  0  0  0  0  0  0  0
   40.1920   10.2060   42.1280 H   0  0  0  0  0  0  0  0  0  0  0  0
   39.5730    9.7470   44.3040 H   0  0  0  0  0  0  0  0  0  0  0  0
   40.8290   11.0060   44.8310 H   0  0  0  0  0  0  0  0  0  0  0  0
  2  1  1  0  0  0  0
  3  2  1  0  0  0  0
  3 28  1  0  0  0  0
  4  3  2  0  0  0  0
  5  6  2  0  0  0  0
  5  4  1  0  0  0  0
  6  7  1  0  0  0  0
  7 31  1  0  0  0  0
  7  2  2  0  0  0  0
  8  5  1  0  0  0  0
  9  8  1  0  0  0  0
 10 25  1  6  0  0  0
 10 11  1  0  0  0  0
 10  9  1  0  0  0  0
 11 12  1  0  0  0  0
 12  8  2  0  0  0  0
 12 32  1  0  0  0  0
 13 34  1  0  0  0  0
 13 11  1  0  0  0  0
 14 13  1  0  0  0  0
 14 16  1  0  0  0  0
 15 14  2  0  0  0  0
 16 35  1  0  0  0  0
 17 16  1  0  0  0  0
 17 22  1  0  0  0  0
 18 17  2  0  0  0  0
 19 18  1  0  0  0  0
 19 20  2  0  0  0  0
 20 21  1  0  0  0  0
 21 22  2  0  0  0  0
 21 38  1  0  0  0  0
 22 39  1  0  0  0  0
 23 20  1  0  0  0  0
 23 24  1  0  0  0  0
 23 41  1  0  0  0  0
 24 42  1  0  0  0  0
 25 26  1  0  0  0  0
 26 27  1  0  0  0  0
 27 49  1  0  0  0  0
 27  9  1  0  0  0  0
 27 50  1  0  0  0  0
 29  4  1  0  0  0  0
 30  6  1  0  0  0  0
 33 13  1  0  0  0  0
 36 18  1  0  0  0  0
 37 19  1  0  0  0  0
 40 23  1  0  0  0  0
 43 24  1  0  0  0  0
 44 24  1  0  0  0  0
 45 25  1  0  0  0  0
 46 25  1  0  0  0  0
 47 26  1  0  0  0  0
 48 26  1  0  0  0  0
M  END
>  <Pose>
1

>  <Score>
-5.52

$$$$
