
 OpenBabel03172210433D

 57 60  0  0  1  0  0  0  0  0999 V2000
   47.5400    4.1430   42.6430 B   0  0  0  0  0  0  0  0  0  0  0  0
   46.4820    5.6610   43.0960 C   0  0  0  0  0  0  0  0  0  0  0  0
   45.2820    5.5130   43.7750 C   0  0  0  0  0  0  0  0  0  0  0  0
   44.5040    6.5940   44.1110 C   0  0  0  0  0  0  0  0  0  0  0  0
   44.9200    7.8590   43.7700 C   0  0  0  0  0  0  0  0  0  0  0  0
   46.1270    8.0270   43.0860 C   0  0  0  0  0  0  0  0  0  0  0  0
   46.8950    6.9370   42.7560 C   0  0  0  0  0  0  0  0  0  0  0  0
   44.1790    9.0520   44.1140 C   0  0  1  0  0  0  0  0  0  0  0  0
   44.0370    9.9160   43.1500 O   0  0  0  0  0  0  0  0  0  0  0  0
   43.5580    9.4580   45.3540 C   0  0  1  0  0  0  0  0  0  0  0  0
   43.9660   10.7790   45.7580 N   0  0  0  0  0  0  0  0  0  0  0  0
   43.5010   11.5910   44.6110 C   0  0  2  0  0  0  0  0  0  0  0  0
   43.6930   12.9440   44.9670 N   0  0  0  0  0  0  0  0  0  0  0  0
   44.3760   12.9700   46.2240 C   0  0  0  0  0  0  0  0  0  0  0  0
   44.5290   11.6580   46.6770 C   0  0  0  0  0  0  0  0  0  0  0  0
   45.1690   11.4420   47.8800 C   0  0  0  0  0  0  0  0  0  0  0  0
   45.2950   10.2520   48.2670 O   0  0  0  0  0  0  0  0  0  0  0  0
   45.6260   12.4850   48.5820 N   0  0  0  0  0  0  0  0  0  0  0  0
   45.4670   13.7170   48.1290 C   0  0  0  0  0  0  0  0  0  0  0  0
   45.9130   14.6720   48.8220 O   0  0  0  0  0  0  0  0  0  0  0  0
   44.8410   13.9950   46.9440 N   0  0  0  0  0  0  0  0  0  0  0  0
   44.7350   15.3850   46.5610 C   0  0  0  0  0  0  0  0  0  0  0  0
   46.3000   12.2110   49.8560 C   0  0  0  0  0  0  0  0  0  0  0  0
   43.3260   14.1230   44.2270 C   0  0  0  0  0  0  0  0  0  0  0  0
   42.1640   11.0620   44.3010 C   0  0  1  0  0  0  0  0  0  0  0  0
   42.0710    9.7560   45.1030 C   0  0  1  0  0  0  0  0  0  0  0  0
   41.3940    8.7030   44.3520 C   0  0  0  0  0  0  0  0  0  0  0  0
   40.7560    8.9910   43.2860 O   0  0  0  0  0  0  0  0  0  0  0  0
   41.4150    7.3950   44.7540 O   0  0  0  0  0  0  0  0  0  0  0  0
   41.4550    7.0020   46.1280 C   0  0  0  0  0  0  0  0  0  0  0  0
   40.9990   11.9050   44.5330 C   0  0  0  0  0  0  0  0  0  0  0  0
   40.7640   12.3480   45.6880 O   0  0  0  0  0  0  0  0  0  0  0  0
   40.1300   12.2410   43.5180 O   0  0  0  0  0  0  0  0  0  0  0  0
   39.5890   13.5400   43.4130 C   0  0  0  0  0  0  0  0  0  0  0  0
   44.9330    4.5310   44.0540 H   0  0  0  0  0  0  0  0  0  0  0  0
   43.5860    6.4340   44.6120 H   0  0  0  0  0  0  0  0  0  0  0  0
   46.4930    9.0290   42.7960 H   0  0  0  0  0  0  0  0  0  0  0  0
   47.8410    7.0910   42.2160 H   0  0  0  0  0  0  0  0  0  0  0  0
   43.6620    8.7170   46.1810 H   0  0  0  0  0  0  0  0  0  0  0  0
   44.1700   11.3940   43.7320 H   0  0  0  0  0  0  0  0  0  0  0  0
   43.7140   15.7000   46.2720 H   0  0  0  0  0  0  0  0  0  0  0  0
   44.9450   16.0330   47.4760 H   0  0  0  0  0  0  0  0  0  0  0  0
   45.5320   15.7070   45.8550 H   0  0  0  0  0  0  0  0  0  0  0  0
   45.6240   11.6680   50.5490 H   0  0  0  0  0  0  0  0  0  0  0  0
   46.6850   13.1530   50.2910 H   0  0  0  0  0  0  0  0  0  0  0  0
   47.1640   11.5420   49.6520 H   0  0  0  0  0  0  0  0  0  0  0  0
   43.1200   13.8480   43.1460 H   0  0  0  0  0  0  0  0  0  0  0  0
   42.4580   14.6670   44.5800 H   0  0  0  0  0  0  0  0  0  0  0  0
   44.2160   14.8200   44.1100 H   0  0  0  0  0  0  0  0  0  0  0  0
   42.1390   10.6870   43.2230 H   0  0  0  0  0  0  0  0  0  0  0  0
   41.5980    9.9810   46.0930 H   0  0  0  0  0  0  0  0  0  0  0  0
   40.4290    7.0580   46.5700 H   0  0  0  0  0  0  0  0  0  0  0  0
   41.8540    5.9690   46.1570 H   0  0  0  0  0  0  0  0  0  0  0  0
   42.1520    7.7300   46.6180 H   0  0  0  0  0  0  0  0  0  0  0  0
   39.0530   13.5990   42.4320 H   0  0  0  0  0  0  0  0  0  0  0  0
   38.7920   13.6190   44.1940 H   0  0  0  0  0  0  0  0  0  0  0  0
   40.3570   14.3330   43.5170 H   0  0  0  0  0  0  0  0  0  0  0  0
  1  2  1  0  0  0  0
  2  3  1  0  0  0  0
  3 35  1  0  0  0  0
  3  4  2  0  0  0  0
  4 36  1  0  0  0  0
  5  4  1  0  0  0  0
  5  8  1  0  0  0  0
  6  5  2  0  0  0  0
  7  6  1  0  0  0  0
  7  2  2  0  0  0  0
  8  9  1  6  0  0  0
  8 10  1  0  0  0  0
 10 11  1  0  0  0  0
 10 39  1  1  0  0  0
 11 15  1  0  0  0  0
 12 40  1  6  0  0  0
 12 13  1  0  0  0  0
 12 11  1  0  0  0  0
 13 14  1  0  0  0  0
 14 15  2  0  0  0  0
 14 21  1  0  0  0  0
 15 16  1  0  0  0  0
 16 17  2  0  0  0  0
 16 18  1  0  0  0  0
 18 23  1  0  0  0  0
 19 18  1  0  0  0  0
 19 20  2  0  0  0  0
 21 19  1  0  0  0  0
 22 21  1  0  0  0  0
 22 42  1  0  0  0  0
 23 45  1  0  0  0  0
 23 44  1  0  0  0  0
 24 48  1  0  0  0  0
 24 13  1  0  0  0  0
 25 50  1  6  0  0  0
 25 31  1  0  0  0  0
 25 12  1  0  0  0  0
 25 26  1  0  0  0  0
 26 10  1  0  0  0  0
 26 51  1  1  0  0  0
 27 29  1  0  0  0  0
 27 26  1  0  0  0  0
 28 27  2  0  0  0  0
 29 30  1  0  0  0  0
 30 53  1  0  0  0  0
 30 52  1  0  0  0  0
 30 54  1  0  0  0  0
 31 32  2  0  0  0  0
 33 31  1  0  0  0  0
 34 57  1  0  0  0  0
 34 33  1  0  0  0  0
 34 56  1  0  0  0  0
 37  6  1  0  0  0  0
 38  7  1  0  0  0  0
 41 22  1  0  0  0  0
 43 22  1  0  0  0  0
 46 23  1  0  0  0  0
 47 24  1  0  0  0  0
 49 24  1  0  0  0  0
 55 34  1  0  0  0  0
M  END
>  <Pose>
1

>  <Score>
-4.41

$$$$
