
 OpenBabel03172210433D

 51 54  0  0  1  0  0  0  0  0999 V2000
   44.8710   15.8300   48.2350 B   0  0  0  0  0  0  0  0  0  0  0  0
   43.5660   14.8380   47.2590 C   0  0  0  0  0  0  0  0  0  0  0  0
   43.9380   13.9080   46.3060 C   0  0  0  0  0  0  0  0  0  0  0  0
   43.0330   13.1670   45.5760 C   0  0  0  0  0  0  0  0  0  0  0  0
   41.6850   13.4060   45.8540 C   0  0  0  0  0  0  0  0  0  0  0  0
   41.3150   14.3300   46.8010 C   0  0  0  0  0  0  0  0  0  0  0  0
   42.2320   15.0640   47.5240 C   0  0  0  0  0  0  0  0  0  0  0  0
   41.7750   16.0540   48.5400 C   0  0  0  0  0  0  0  0  0  0  0  0
   40.8050   12.6410   45.1010 O   0  0  0  0  0  0  0  0  0  0  0  0
   41.1810   11.8520   43.9890 C   0  0  0  0  0  0  0  0  0  0  0  0
   42.5020   11.0710   44.2950 C   0  0  2  0  0  0  0  0  0  0  0  0
   43.4260   12.2010   44.5590 C   0  0  0  0  0  0  0  0  0  0  0  0
   44.5150   12.4270   44.0030 O   0  0  0  0  0  0  0  0  0  0  0  0
   42.8580   10.1940   43.3190 N   0  0  0  0  0  0  0  0  0  0  0  0
   41.9650    9.6400   42.3930 C   0  0  0  0  0  0  0  0  0  0  0  0
   41.6000    8.2300   42.8030 C   0  0  0  0  0  0  0  0  0  0  0  0
   42.7940    7.4800   42.6750 O   0  0  0  0  0  0  0  0  0  0  0  0
   43.5870    7.9110   43.7530 C   0  0  0  0  0  0  0  0  0  0  0  0
   43.9700    9.3700   43.5000 C   0  0  0  0  0  0  0  0  0  0  0  0
   42.1860   10.3700   45.5680 C   0  0  0  0  0  0  0  0  0  0  0  0
   41.1780    9.3570   45.5550 N   0  0  0  0  0  0  0  0  0  0  0  0
   41.5130    8.0630   46.0170 C   0  0  0  0  0  0  0  0  0  0  0  0
   41.5820    8.0400   47.5520 C   0  0  0  0  0  0  0  0  0  0  0  0
   40.2730    8.2700   47.9880 O   0  0  0  0  0  0  0  0  0  0  0  0
   39.9760    9.6050   47.6880 C   0  0  0  0  0  0  0  0  0  0  0  0
   39.9800    9.8780   46.2150 C   0  0  0  0  0  0  0  0  0  0  0  0
   45.0030   13.7190   46.0890 H   0  0  0  0  0  0  0  0  0  0  0  0
   40.2620   14.4900   46.9900 H   0  0  0  0  0  0  0  0  0  0  0  0
   42.4560   16.9250   48.6020 H   0  0  0  0  0  0  0  0  0  0  0  0
   40.7380   16.3440   48.2540 H   0  0  0  0  0  0  0  0  0  0  0  0
   41.6960   15.5660   49.5330 H   0  0  0  0  0  0  0  0  0  0  0  0
   40.3530   11.1500   43.8000 H   0  0  0  0  0  0  0  0  0  0  0  0
   41.3370   12.4930   43.0910 H   0  0  0  0  0  0  0  0  0  0  0  0
   41.0590   10.1920   42.1570 H   0  0  0  0  0  0  0  0  0  0  0  0
   42.5110    9.5270   41.4150 H   0  0  0  0  0  0  0  0  0  0  0  0
   41.2040    8.1810   43.8130 H   0  0  0  0  0  0  0  0  0  0  0  0
   40.9170    7.8260   42.0290 H   0  0  0  0  0  0  0  0  0  0  0  0
   44.5290    7.3370   43.7280 H   0  0  0  0  0  0  0  0  0  0  0  0
   42.9990    7.7590   44.6550 H   0  0  0  0  0  0  0  0  0  0  0  0
   44.5010    9.3100   42.4870 H   0  0  0  0  0  0  0  0  0  0  0  0
   44.7590    9.6480   44.1870 H   0  0  0  0  0  0  0  0  0  0  0  0
   41.8890   11.0840   46.3900 H   0  0  0  0  0  0  0  0  0  0  0  0
   43.0980    9.8540   46.0020 H   0  0  0  0  0  0  0  0  0  0  0  0
   42.4510    7.6770   45.6690 H   0  0  0  0  0  0  0  0  0  0  0  0
   40.6620    7.3770   45.7750 H   0  0  0  0  0  0  0  0  0  0  0  0
   41.9090    6.9990   47.8090 H   0  0  0  0  0  0  0  0  0  0  0  0
   42.2980    8.7740   47.9480 H   0  0  0  0  0  0  0  0  0  0  0  0
   38.9210    9.7550   48.0500 H   0  0  0  0  0  0  0  0  0  0  0  0
   40.6100   10.3040   48.2650 H   0  0  0  0  0  0  0  0  0  0  0  0
   39.0630    9.4990   45.7410 H   0  0  0  0  0  0  0  0  0  0  0  0
   39.9960   10.9760   46.0610 H   0  0  0  0  0  0  0  0  0  0  0  0
  2  7  1  0  0  0  0
  2  1  1  0  0  0  0
  3  2  2  0  0  0  0
  4  5  2  0  0  0  0
  4  3  1  0  0  0  0
  5  6  1  0  0  0  0
  6 28  1  0  0  0  0
  6  7  2  0  0  0  0
  7  8  1  0  0  0  0
  8 29  1  0  0  0  0
  8 31  1  0  0  0  0
  9  5  1  0  0  0  0
 10 11  1  0  0  0  0
 10  9  1  0  0  0  0
 11 12  1  0  0  0  0
 11 20  1  1  0  0  0
 12  4  1  0  0  0  0
 13 12  2  0  0  0  0
 14 19  1  0  0  0  0
 14 11  1  0  0  0  0
 15 16  1  0  0  0  0
 15 14  1  0  0  0  0
 16 36  1  0  0  0  0
 17 16  1  0  0  0  0
 17 18  1  0  0  0  0
 18 39  1  0  0  0  0
 19 18  1  0  0  0  0
 19 41  1  0  0  0  0
 20 43  1  0  0  0  0
 20 42  1  0  0  0  0
 21 20  1  0  0  0  0
 21 22  1  0  0  0  0
 21 26  1  0  0  0  0
 22 23  1  0  0  0  0
 23 46  1  0  0  0  0
 23 47  1  0  0  0  0
 23 24  1  0  0  0  0
 25 24  1  0  0  0  0
 25 48  1  0  0  0  0
 25 49  1  0  0  0  0
 26 25  1  0  0  0  0
 27  3  1  0  0  0  0
 30  8  1  0  0  0  0
 32 10  1  0  0  0  0
 33 10  1  0  0  0  0
 34 15  1  0  0  0  0
 35 15  1  0  0  0  0
 37 16  1  0  0  0  0
 38 18  1  0  0  0  0
 40 19  1  0  0  0  0
 44 22  1  0  0  0  0
 45 22  1  0  0  0  0
 50 26  1  0  0  0  0
 51 26  1  0  0  0  0
M  END
>  <Pose>
1

>  <Score>
-3.41

$$$$
