
 OpenBabel03172210433D

 36 39  0  0  1  0  0  0  0  0999 V2000
   35.8230   11.0100   45.2960 B   0  0  0  0  0  0  0  0  0  0  0  0
   37.7000   11.4270   45.4330 C   0  0  0  0  0  0  0  0  0  0  0  0
   38.6470   10.4380   45.4110 C   0  0  0  0  0  0  0  0  0  0  0  0
   39.9840   10.7610   45.5090 C   0  0  0  0  0  0  0  0  0  0  0  0
   40.3110   12.0840   45.6280 C   0  0  0  0  0  0  0  0  0  0  0  0
   39.3350   13.1010   45.6510 C   0  0  0  0  0  0  0  0  0  0  0  0
   38.0120   12.7620   45.5510 C   0  0  0  0  0  0  0  0  0  0  0  0
   41.7220   12.2570   45.7200 N   0  0  0  0  0  0  0  0  0  0  0  0
   42.3160   10.9910   45.6570 C   0  0  0  0  0  0  0  0  0  0  0  0
   43.5640   10.7660   45.7100 O   0  0  0  0  0  0  0  0  0  0  0  0
   41.2310    9.9570   45.5180 C   0  0  2  0  0  0  0  0  0  0  0  0
   41.4840    9.2800   44.2520 C   0  0  0  0  0  0  0  0  0  0  0  0
   41.7920    7.9550   44.2090 C   0  0  0  0  0  0  0  0  0  0  0  0
   41.9660    7.6380   42.8920 N   0  0  0  0  0  0  0  0  0  0  0  0
   41.7810    8.7020   42.1390 N   0  0  0  0  0  0  0  0  0  0  0  0
   41.4840    9.7320   42.9290 C   0  0  0  0  0  0  0  0  0  0  0  0
   41.1870   11.1520   42.5620 C   0  0  0  0  0  0  0  0  0  0  0  0
   41.8840    7.1610   45.3570 O   0  0  0  0  0  0  0  0  0  0  0  0
   41.6420    7.8110   46.5630 C   0  0  0  0  0  0  0  0  0  0  0  0
   41.3430    9.0790   46.6680 C   0  0  0  0  0  0  0  0  0  0  0  0
   41.1180    9.5990   48.0280 C   0  0  0  0  0  0  0  0  0  0  0  0
   40.9340    9.9890   49.1140 N   0  0  0  0  0  0  0  0  0  0  0  0
   41.7230    7.0360   47.7920 N   0  0  0  0  0  0  0  0  0  0  0  0
   42.4410   13.5330   45.8570 C   0  0  0  0  0  0  0  0  0  0  0  0
   38.3720    9.4000   45.3160 H   0  0  0  0  0  0  0  0  0  0  0  0
   39.5970   14.1460   45.7450 H   0  0  0  0  0  0  0  0  0  0  0  0
   37.2280   13.5350   45.5660 H   0  0  0  0  0  0  0  0  0  0  0  0
   41.8440    8.7820   41.0920 H   0  0  0  0  0  0  0  0  0  0  0  0
   41.2620   11.2030   41.4450 H   0  0  0  0  0  0  0  0  0  0  0  0
   40.1260   11.4190   42.7890 H   0  0  0  0  0  0  0  0  0  0  0  0
   41.9190   11.8560   42.9560 H   0  0  0  0  0  0  0  0  0  0  0  0
   41.0610    6.2360   47.8460 H   0  0  0  0  0  0  0  0  0  0  0  0
   42.3700    7.2480   48.5490 H   0  0  0  0  0  0  0  0  0  0  0  0
   43.0070   13.4920   46.8080 H   0  0  0  0  0  0  0  0  0  0  0  0
   43.1940   13.5260   45.0350 H   0  0  0  0  0  0  0  0  0  0  0  0
   41.7670   14.3860   45.7740 H   0  0  0  0  0  0  0  0  0  0  0  0
  1  2  1  0  0  0  0
  2  7  1  0  0  0  0
  3  2  2  0  0  0  0
  3  4  1  0  0  0  0
  4 11  1  0  0  0  0
  4  5  2  0  0  0  0
  5  6  1  0  0  0  0
  5  8  1  0  0  0  0
  6 26  1  0  0  0  0
  7 27  1  0  0  0  0
  7  6  2  0  0  0  0
  8 24  1  0  0  0  0
  9 10  2  0  0  0  0
  9  8  1  0  0  0  0
 11 12  1  6  0  0  0
 11  9  1  0  0  0  0
 11 20  1  0  0  0  0
 13 12  1  0  0  0  0
 13 18  1  0  0  0  0
 14 13  2  0  0  0  0
 15 14  1  0  0  0  0
 15 16  1  0  0  0  0
 16 12  2  0  0  0  0
 17 30  1  0  0  0  0
 17 16  1  0  0  0  0
 17 31  1  0  0  0  0
 18 19  1  0  0  0  0
 19 20  2  0  0  0  0
 19 23  1  0  0  0  0
 20 21  1  0  0  0  0
 21 22  3  0  0  0  0
 23 32  1  0  0  0  0
 23 33  1  0  0  0  0
 24 34  1  0  0  0  0
 25  3  1  0  0  0  0
 28 15  1  0  0  0  0
 29 17  1  0  0  0  0
 35 24  1  0  0  0  0
 36 24  1  0  0  0  0
M  END
>  <Pose>
1

>  <Score>
-4.96

$$$$
