
 OpenBabel03172210433D

 66 69  0  0  1  0  0  0  0  0999 V2000
   38.5810    7.9420   50.9950 B   0  0  0  0  0  0  0  0  0  0  0  0
   38.5240    9.1440   49.5040 C   0  0  0  0  0  0  0  0  0  0  0  0
   39.5280    9.1180   48.5660 C   0  0  0  0  0  0  0  0  0  0  0  0
   39.5250    9.9830   47.4580 C   0  0  0  0  0  0  0  0  0  0  0  0
   38.4630   10.8550   47.3630 C   0  0  0  0  0  0  0  0  0  0  0  0
   37.4440   10.9020   48.2900 C   0  0  0  0  0  0  0  0  0  0  0  0
   37.4690   10.0450   49.3660 C   0  0  0  0  0  0  0  0  0  0  0  0
   36.4190   10.0180   50.4170 C   0  0  0  0  0  0  0  0  0  0  0  0
   35.9850   12.1210   48.1320 B   0  0  0  0  0  0  0  0  0  0  0  0
   40.6050    9.9230   46.4950 C   0  0  0  0  0  0  0  0  0  0  0  0
   40.5590   10.6050   45.4660 O   0  0  0  0  0  0  0  0  0  0  0  0
   41.7590    9.0440   46.7540 C   0  0  1  0  0  0  0  0  0  0  0  0
   41.2410    7.8360   47.5020 C   0  0  0  0  0  0  0  0  0  0  0  0
   40.5850    8.2220   48.6960 O   0  0  0  0  0  0  0  0  0  0  0  0
   42.5050    8.6490   45.5150 C   0  0  0  0  0  0  0  0  0  0  0  0
   41.7630    7.9420   44.5430 N   0  0  0  0  0  4  0  0  0  0  0  0
   41.6650    8.7180   43.3420 C   0  0  0  0  0  0  0  0  0  0  0  0
   42.9270    8.8470   42.5660 C   0  0  2  0  0  0  0  0  0  0  0  0
   44.0620    8.0000   42.9930 C   0  0  0  0  0  0  0  0  0  0  0  0
   43.7300    6.7790   43.7590 C   0  0  0  0  0  0  0  0  0  0  0  0
   42.2900    6.6600   44.1660 C   0  0  0  0  0  0  0  0  0  0  0  0
   43.3790   10.3090   42.6580 C   0  0  0  0  0  0  0  0  0  0  0  0
   42.6720    9.8160   47.6840 C   0  0  0  0  0  0  0  0  0  0  0  0
   43.9140   10.2220   47.1200 N   0  0  0  0  0  4  0  0  0  0  0  0
   44.8100   10.7100   48.1660 C   0  0  0  0  0  0  0  0  0  0  0  0
   44.8610   12.2090   48.2290 C   0  0  1  0  0  0  0  0  0  0  0  0
   43.4670   12.7700   48.0580 C   0  0  0  0  0  0  0  0  0  0  0  0
   43.0230   12.4720   46.6600 C   0  0  0  0  0  0  0  0  0  0  0  0
   43.8050   11.2880   46.1480 C   0  0  0  0  0  0  0  0  0  0  0  0
   45.3040   12.5830   49.6500 C   0  0  0  0  0  0  0  0  0  0  0  0
   38.4090   11.5460   46.5260 H   0  0  0  0  0  0  0  0  0  0  0  0
   35.9310    9.0180   50.3840 H   0  0  0  0  0  0  0  0  0  0  0  0
   35.7180   10.8510   50.3440 H   0  0  0  0  0  0  0  0  0  0  0  0
   36.9700   10.0380   51.4000 H   0  0  0  0  0  0  0  0  0  0  0  0
   40.5080    7.2770   46.9030 H   0  0  0  0  0  0  0  0  0  0  0  0
   42.0710    7.1060   47.7170 H   0  0  0  0  0  0  0  0  0  0  0  0
   42.8640    9.5930   45.0560 H   0  0  0  0  0  0  0  0  0  0  0  0
   43.4190    8.1040   45.8280 H   0  0  0  0  0  0  0  0  0  0  0  0
   40.7830    7.7780   44.8870 H   0  0  0  0  0  0  0  0  0  0  0  0
   40.8590    8.2300   42.7170 H   0  0  0  0  0  0  0  0  0  0  0  0
   41.2420    9.7070   43.6120 H   0  0  0  0  0  0  0  0  0  0  0  0
   42.6900    8.6890   41.4890 H   0  0  0  0  0  0  0  0  0  0  0  0
   44.6250    7.6880   42.0660 H   0  0  0  0  0  0  0  0  0  0  0  0
   44.8310    8.5960   43.5700 H   0  0  0  0  0  0  0  0  0  0  0  0
   44.3820    6.6730   44.6760 H   0  0  0  0  0  0  0  0  0  0  0  0
   43.9640    5.8410   43.1720 H   0  0  0  0  0  0  0  0  0  0  0  0
   42.1550    5.8510   44.8730 H   0  0  0  0  0  0  0  0  0  0  0  0
   41.7280    6.3560   43.2320 H   0  0  0  0  0  0  0  0  0  0  0  0
   43.8940   10.6210   41.7160 H   0  0  0  0  0  0  0  0  0  0  0  0
   42.5210   10.9460   42.9140 H   0  0  0  0  0  0  0  0  0  0  0  0
   44.1090   10.3770   43.4870 H   0  0  0  0  0  0  0  0  0  0  0  0
   42.8720    9.1240   48.5510 H   0  0  0  0  0  0  0  0  0  0  0  0
   42.0960   10.6650   48.1500 H   0  0  0  0  0  0  0  0  0  0  0  0
   44.3880    9.4290   46.6800 H   0  0  0  0  0  0  0  0  0  0  0  0
   45.8360   10.3280   48.0370 H   0  0  0  0  0  0  0  0  0  0  0  0
   44.4620   10.3620   49.1750 H   0  0  0  0  0  0  0  0  0  0  0  0
   45.5970   12.6620   47.5540 H   0  0  0  0  0  0  0  0  0  0  0  0
   43.5320   13.8620   48.2420 H   0  0  0  0  0  0  0  0  0  0  0  0
   42.8270   12.3320   48.8300 H   0  0  0  0  0  0  0  0  0  0  0  0
   41.9520   12.3410   46.5280 H   0  0  0  0  0  0  0  0  0  0  0  0
   43.3200   13.3430   46.0080 H   0  0  0  0  0  0  0  0  0  0  0  0
   44.8650   11.6100   45.9290 H   0  0  0  0  0  0  0  0  0  0  0  0
   43.3790   11.0000   45.1850 H   0  0  0  0  0  0  0  0  0  0  0  0
   45.9560   11.7790   50.0650 H   0  0  0  0  0  0  0  0  0  0  0  0
   44.4290   12.7840   50.3030 H   0  0  0  0  0  0  0  0  0  0  0  0
   45.9050   13.5160   49.6430 H   0  0  0  0  0  0  0  0  0  0  0  0
  2  1  1  0  0  0  0
  3 14  1  0  0  0  0
  3  2  2  0  0  0  0
  4  3  1  0  0  0  0
  5  4  2  0  0  0  0
  5  6  1  0  0  0  0
  6  7  2  0  0  0  0
  7  2  1  0  0  0  0
  7  8  1  0  0  0  0
  8 34  1  0  0  0  0
  9  6  1  0  0  0  0
 10 12  1  0  0  0  0
 10  4  1  0  0  0  0
 11 10  2  0  0  0  0
 12 15  1  6  0  0  0
 12 13  1  0  0  0  0
 12 23  1  0  0  0  0
 13 36  1  0  0  0  0
 13 14  1  0  0  0  0
 15 38  1  0  0  0  0
 16 39  1  0  0  0  0
 16 15  1  0  0  0  0
 17 41  1  0  0  0  0
 17 16  1  0  0  0  0
 18 42  1  6  0  0  0
 18 22  1  0  0  0  0
 18 19  1  0  0  0  0
 18 17  1  0  0  0  0
 19 44  1  0  0  0  0
 19 20  1  0  0  0  0
 20 21  1  0  0  0  0
 20 45  1  0  0  0  0
 21 16  1  0  0  0  0
 21 47  1  0  0  0  0
 22 50  1  0  0  0  0
 22 51  1  0  0  0  0
 23 53  1  0  0  0  0
 23 52  1  0  0  0  0
 24 23  1  0  0  0  0
 24 25  1  0  0  0  0
 25 26  1  0  0  0  0
 25 56  1  0  0  0  0
 26 57  1  6  0  0  0
 26 30  1  0  0  0  0
 27 26  1  0  0  0  0
 27 58  1  0  0  0  0
 27 59  1  0  0  0  0
 28 27  1  0  0  0  0
 29 28  1  0  0  0  0
 29 24  1  0  0  0  0
 30 64  1  0  0  0  0
 30 65  1  0  0  0  0
 31  5  1  0  0  0  0
 32  8  1  0  0  0  0
 33  8  1  0  0  0  0
 35 13  1  0  0  0  0
 37 15  1  0  0  0  0
 40 17  1  0  0  0  0
 43 19  1  0  0  0  0
 46 20  1  0  0  0  0
 48 21  1  0  0  0  0
 49 22  1  0  0  0  0
 54 24  1  0  0  0  0
 55 25  1  0  0  0  0
 60 28  1  0  0  0  0
 61 28  1  0  0  0  0
 62 29  1  0  0  0  0
 63 29  1  0  0  0  0
 66 30  1  0  0  0  0
M  END
>  <Pose>
1

>  <Score>
-4.65

$$$$
