
 OpenBabel03172210433D

 55 58  0  0  1  0  0  0  0  0999 V2000
   42.0780   11.4150   49.1040 Cl  0  0  0  0  0  0  0  0  0  0  0  0
   42.0230    9.8700   48.2600 C   0  0  0  0  0  0  0  0  0  0  0  0
   42.5040    9.7210   46.9860 C   0  0  0  0  0  0  0  0  0  0  0  0
   42.4370    8.4910   46.3720 C   0  0  0  0  0  0  0  0  0  0  0  0
   41.8830    7.4480   47.0670 C   0  0  0  0  0  0  0  0  0  0  0  0
   41.3930    7.6030   48.3660 C   0  0  0  0  0  0  0  0  0  0  0  0
   41.4650    8.8270   48.9650 C   0  0  0  0  0  0  0  0  0  0  0  0
   41.8900    6.2360   46.3200 N   0  0  0  0  0  0  0  0  0  0  0  0
   42.4830    6.5420   45.0880 C   0  0  0  0  0  0  0  0  0  0  0  0
   42.6540    5.6570   44.1860 O   0  0  0  0  0  0  0  0  0  0  0  0
   42.8390    7.9670   45.0450 C   0  0  2  0  0  0  0  0  0  0  0  0
   44.2560    8.0600   44.8300 N   0  0  0  0  0  0  0  0  0  0  0  0
   44.4930    8.5990   43.5270 C   0  0  2  0  0  0  0  0  0  0  0  0
   43.1960    8.5590   42.7850 C   0  0  0  0  0  0  0  0  0  0  0  0
   42.1890    8.6140   43.9000 C   0  0  2  0  0  0  0  0  0  0  0  0
   41.6580    9.9820   44.1290 C   0  0  0  0  0  0  0  0  0  0  0  0
   42.2530   10.9110   43.5300 O   0  0  0  0  0  0  0  0  0  0  0  0
   40.5630   10.2640   44.9540 N   0  0  0  0  0  0  0  0  0  0  0  0
   39.9740   11.4970   45.2390 C   0  0  0  0  0  0  0  0  0  0  0  0
   38.5960   11.6270   45.1460 C   0  0  0  0  0  0  0  0  0  0  0  0
   37.9460   12.8150   45.4140 C   0  0  0  0  0  0  0  0  0  0  0  0
   38.6430   13.9360   45.7890 C   0  0  0  0  0  0  0  0  0  0  0  0
   40.0010   13.8390   45.8880 C   0  0  0  0  0  0  0  0  0  0  0  0
   40.6440   12.6340   45.6150 C   0  0  0  0  0  0  0  0  0  0  0  0
   40.7400   14.9460   46.2640 O   0  0  0  0  0  0  0  0  0  0  0  0
   42.1240   14.8780   46.5570 C   0  0  0  0  0  0  0  0  0  0  0  0
   37.8230   10.5410   44.7740 O   0  0  0  0  0  0  0  0  0  0  0  0
   36.5860   10.2310   45.3370 C   0  0  0  0  0  0  0  0  0  0  0  0
   45.5930    7.8460   42.7970 C   0  0  0  0  0  0  0  0  0  0  0  0
   46.1130    6.7240   43.5910 C   0  0  0  0  0  0  0  0  0  0  0  0
   45.7190    5.5670   43.3750 O   0  0  0  0  0  0  0  0  0  0  0  0
   47.0630    6.9640   44.6010 N   0  0  0  0  0  0  0  0  0  0  0  0
   42.9250   10.5540   46.4810 H   0  0  0  0  0  0  0  0  0  0  0  0
   40.9550    6.7580   48.9060 H   0  0  0  0  0  0  0  0  0  0  0  0
   41.0810    8.9430   49.9790 H   0  0  0  0  0  0  0  0  0  0  0  0
   41.5250    5.2960   46.6260 H   0  0  0  0  0  0  0  0  0  0  0  0
   44.7210    8.5860   45.6000 H   0  0  0  0  0  0  0  0  0  0  0  0
   44.8240    9.6650   43.5830 H   0  0  0  0  0  0  0  0  0  0  0  0
   43.0440    7.5860   42.2510 H   0  0  0  0  0  0  0  0  0  0  0  0
   43.0740    9.4080   42.0760 H   0  0  0  0  0  0  0  0  0  0  0  0
   41.3000    7.9660   43.6080 H   0  0  0  0  0  0  0  0  0  0  0  0
   40.1290    9.4060   45.4140 H   0  0  0  0  0  0  0  0  0  0  0  0
   36.8570   12.8910   45.3330 H   0  0  0  0  0  0  0  0  0  0  0  0
   38.1380   14.8640   45.9980 H   0  0  0  0  0  0  0  0  0  0  0  0
   41.6970   12.6450   45.7160 H   0  0  0  0  0  0  0  0  0  0  0  0
   42.6920   14.3490   45.7680 H   0  0  0  0  0  0  0  0  0  0  0  0
   42.2150   14.3530   47.5300 H   0  0  0  0  0  0  0  0  0  0  0  0
   42.5690   15.8790   46.6770 H   0  0  0  0  0  0  0  0  0  0  0  0
   35.8620   11.0160   44.9830 H   0  0  0  0  0  0  0  0  0  0  0  0
   36.2460    9.2520   44.9400 H   0  0  0  0  0  0  0  0  0  0  0  0
   36.5630   10.2680   46.4360 H   0  0  0  0  0  0  0  0  0  0  0  0
   46.3980    8.5500   42.4940 H   0  0  0  0  0  0  0  0  0  0  0  0
   45.1920    7.4220   41.8520 H   0  0  0  0  0  0  0  0  0  0  0  0
   47.6120    7.8500   44.5610 H   0  0  0  0  0  0  0  0  0  0  0  0
   47.2600    6.3110   45.3970 H   0  0  0  0  0  0  0  0  0  0  0  0
  2  7  1  0  0  0  0
  2  1  1  0  0  0  0
  3  2  2  0  0  0  0
  4  3  1  0  0  0  0
  4  5  2  0  0  0  0
  5  6  1  0  0  0  0
  6 34  1  0  0  0  0
  6  7  2  0  0  0  0
  7 35  1  0  0  0  0
  8 36  1  0  0  0  0
  8  5  1  0  0  0  0
  9  8  1  0  0  0  0
 10  9  2  0  0  0  0
 11  9  1  6  0  0  0
 11  4  1  0  0  0  0
 12 11  1  0  0  0  0
 12 37  1  0  0  0  0
 13 38  1  1  0  0  0
 13 12  1  0  0  0  0
 14 13  1  0  0  0  0
 14 15  1  0  0  0  0
 15 41  1  6  0  0  0
 15 16  1  0  0  0  0
 15 11  1  0  0  0  0
 16 18  1  0  0  0  0
 17 16  2  0  0  0  0
 18 19  1  0  0  0  0
 18 42  1  0  0  0  0
 19 24  1  0  0  0  0
 20 19  2  0  0  0  0
 20 21  1  0  0  0  0
 21 22  2  0  0  0  0
 22 23  1  0  0  0  0
 22 44  1  0  0  0  0
 23 25  1  0  0  0  0
 24 45  1  0  0  0  0
 24 23  2  0  0  0  0
 25 26  1  0  0  0  0
 26 48  1  0  0  0  0
 26 47  1  0  0  0  0
 27 20  1  0  0  0  0
 27 28  1  0  0  0  0
 28 51  1  0  0  0  0
 29 13  1  0  0  0  0
 29 30  1  0  0  0  0
 30 32  1  0  0  0  0
 31 30  2  0  0  0  0
 32 55  1  0  0  0  0
 33  3  1  0  0  0  0
 39 14  1  0  0  0  0
 40 14  1  0  0  0  0
 43 21  1  0  0  0  0
 46 26  1  0  0  0  0
 49 28  1  0  0  0  0
 50 28  1  0  0  0  0
 52 29  1  0  0  0  0
 53 29  1  0  0  0  0
 54 32  1  0  0  0  0
M  END
>  <Pose>
1

>  <Score>
-7.06

$$$$
