
 OpenBabel03172210433D

 45 48  0  0  0  0  0  0  0  0999 V2000
   39.2650   15.1430   47.3590 B   0  0  0  0  0  0  0  0  0  0  0  0
   39.6200   13.5150   46.4230 C   0  0  0  0  0  0  0  0  0  0  0  0
   38.6430   12.6030   46.1090 C   0  0  0  0  0  0  0  0  0  0  0  0
   39.2610   11.5730   45.4470 C   0  0  0  0  0  0  0  0  0  0  0  0
   40.5970   11.8410   45.3510 N   0  0  0  0  0  0  0  0  0  0  0  0
   40.8110   13.0340   45.9540 C   0  0  0  0  0  0  0  0  0  0  0  0
   42.1270   13.7000   46.0780 C   0  0  0  0  0  0  0  0  0  0  0  0
   41.5250   10.9570   44.7360 C   0  0  0  0  0  0  0  0  0  0  0  0
   41.5710    9.5640   45.1340 C   0  0  0  0  0  0  0  0  0  0  0  0
   41.3590    9.4170   46.4370 O   0  0  0  0  0  0  0  0  0  0  0  0
   41.7880    8.3780   44.4520 N   0  0  0  0  0  0  0  0  0  0  0  0
   42.0140    8.1930   43.0630 C   0  0  0  0  0  0  0  0  0  0  0  0
   43.4740    7.8080   42.8200 C   0  0  0  0  0  0  0  0  0  0  0  0
   43.9880    6.9950   43.9960 C   0  0  0  0  0  0  0  0  0  0  0  0
   44.9160    6.0320   43.4290 N   0  0  0  0  0  0  0  0  0  0  0  0
   46.2100    6.6690   43.4230 C   0  0  0  0  0  0  0  0  0  0  0  0
   47.2030    6.3170   42.7400 O   0  0  0  0  0  0  0  0  0  0  0  0
   46.1420    7.7770   44.3420 N   0  0  0  0  0  0  0  0  0  0  0  0
   44.8320    7.8100   44.8950 C   0  0  0  0  0  0  0  0  0  0  0  0
   44.5030    8.4210   45.9380 O   0  0  0  0  0  0  0  0  0  0  0  0
   42.9010    6.2480   44.7010 C   0  0  0  0  0  0  0  0  0  0  0  0
   41.8050    7.1150   45.2300 C   0  0  0  0  0  0  0  0  0  0  0  0
   38.5000   10.4920   45.0020 C   0  0  0  0  0  0  0  0  0  0  0  0
   37.1290   10.4530   45.2240 C   0  0  0  0  0  0  0  0  0  0  0  0
   36.5320   11.4890   45.8860 C   0  0  0  0  0  0  0  0  0  0  0  0
   37.2750   12.5590   46.3290 C   0  0  0  0  0  0  0  0  0  0  0  0
   42.0470   14.8030   45.9470 H   0  0  0  0  0  0  0  0  0  0  0  0
   42.5040   13.5250   47.1150 H   0  0  0  0  0  0  0  0  0  0  0  0
   42.8650   13.3020   45.3390 H   0  0  0  0  0  0  0  0  0  0  0  0
   42.5640   11.4160   44.8560 H   0  0  0  0  0  0  0  0  0  0  0  0
   41.3780   11.0520   43.6110 H   0  0  0  0  0  0  0  0  0  0  0  0
   41.6810    8.9420   42.3670 H   0  0  0  0  0  0  0  0  0  0  0  0
   41.4180    7.2600   42.7660 H   0  0  0  0  0  0  0  0  0  0  0  0
   43.4860    7.2280   41.8740 H   0  0  0  0  0  0  0  0  0  0  0  0
   44.0520    8.7190   42.6620 H   0  0  0  0  0  0  0  0  0  0  0  0
   44.7040    5.0700   43.0910 H   0  0  0  0  0  0  0  0  0  0  0  0
   46.9120    8.4260   44.5570 H   0  0  0  0  0  0  0  0  0  0  0  0
   42.5430    5.4510   44.0060 H   0  0  0  0  0  0  0  0  0  0  0  0
   43.3830    5.7090   45.5570 H   0  0  0  0  0  0  0  0  0  0  0  0
   41.8080    7.2930   46.3030 H   0  0  0  0  0  0  0  0  0  0  0  0
   40.8300    6.6160   44.9560 H   0  0  0  0  0  0  0  0  0  0  0  0
   39.0100    9.6900   44.4820 H   0  0  0  0  0  0  0  0  0  0  0  0
   36.5710    9.5910   44.8620 H   0  0  0  0  0  0  0  0  0  0  0  0
   35.4760   11.4580   46.0580 H   0  0  0  0  0  0  0  0  0  0  0  0
   36.8320   13.3900   46.8520 H   0  0  0  0  0  0  0  0  0  0  0  0
  2  1  1  0  0  0  0
  3 26  1  0  0  0  0
  3  2  1  0  0  0  0
  4  3  2  0  0  0  0
  5  4  1  0  0  0  0
  5  6  1  0  0  0  0
  6  7  1  0  0  0  0
  6  2  2  0  0  0  0
  7 28  1  0  0  0  0
  8 30  1  0  0  0  0
  8  9  1  0  0  0  0
  8  5  1  0  0  0  0
  9 10  2  0  0  0  0
 11  9  1  0  0  0  0
 11 22  1  0  0  0  0
 12 11  1  0  0  0  0
 13 12  1  0  0  0  0
 13 14  1  0  0  0  0
 14 21  1  0  0  0  0
 14 19  1  0  0  0  0
 15 14  1  0  0  0  0
 16 15  1  0  0  0  0
 16 18  1  0  0  0  0
 17 16  2  0  0  0  0
 18 37  1  0  0  0  0
 18 19  1  0  0  0  0
 19 20  2  0  0  0  0
 21 22  1  0  0  0  0
 21 39  1  0  0  0  0
 22 40  1  0  0  0  0
 23 24  2  0  0  0  0
 23  4  1  0  0  0  0
 24 25  1  0  0  0  0
 25 44  1  0  0  0  0
 25 26  2  0  0  0  0
 26 45  1  0  0  0  0
 27  7  1  0  0  0  0
 29  7  1  0  0  0  0
 31  8  1  0  0  0  0
 32 12  1  0  0  0  0
 33 12  1  0  0  0  0
 34 13  1  0  0  0  0
 35 13  1  0  0  0  0
 36 15  1  0  0  0  0
 38 21  1  0  0  0  0
 41 22  1  0  0  0  0
 42 23  1  0  0  0  0
 43 24  1  0  0  0  0
M  END
>  <Pose>
1

>  <Score>
-5.31

$$$$
