
 OpenBabel03172210433D

 47 50  0  0  0  0  0  0  0  0999 V2000
   41.5260   10.7630   42.5690 B   0  0  0  0  0  0  0  0  0  0  0  0
   42.5020   10.8790   44.2090 C   0  0  0  0  0  0  0  0  0  0  0  0
   42.6740    9.9200   45.1170 N   0  0  0  0  0  0  0  0  0  0  0  0
   43.4770   10.4560   46.0770 C   0  0  0  0  0  0  0  0  0  0  0  0
   43.7640   11.7510   45.7060 C   0  0  0  0  0  0  0  0  0  0  0  0
   43.1610   12.0100   44.5530 N   0  0  0  0  0  0  0  0  0  0  0  0
   44.5640   12.5070   46.5090 N   0  0  0  0  0  0  0  0  0  0  0  0
   45.0460   11.9700   47.6280 C   0  0  0  0  0  0  0  0  0  0  0  0
   45.7850   12.6960   48.3540 O   0  0  0  0  0  0  0  0  0  0  0  0
   44.7720   10.7090   47.9990 N   0  0  0  0  0  0  0  0  0  0  0  0
   43.9780    9.9030   47.2390 C   0  0  0  0  0  0  0  0  0  0  0  0
   43.7310    8.7230   47.5930 O   0  0  0  0  0  0  0  0  0  0  0  0
   44.8890   13.8730   46.1540 C   0  0  0  0  0  0  0  0  0  0  0  0
   42.1590    8.5950   45.1950 C   0  0  0  0  0  0  0  0  0  0  0  0
   42.2780    7.7240   44.0130 C   0  0  0  0  0  0  0  0  0  0  0  0
   43.3980    7.6830   43.2510 O   0  0  0  0  0  0  0  0  0  0  0  0
   44.4960    7.2610   43.9840 C   0  0  0  0  0  0  0  0  0  0  0  0
   45.7050    7.2530   43.0970 C   0  0  0  0  0  0  0  0  0  0  0  0
   46.7300    6.3900   43.5930 N   0  0  0  0  0  0  0  0  0  0  0  0
   47.2320    5.3230   42.9570 C   0  0  0  0  0  0  0  0  0  0  0  0
   48.1780    4.7670   43.7610 C   0  0  0  0  0  0  0  0  0  0  0  0
   48.2290    5.5080   44.8650 N   0  0  0  0  0  0  0  0  0  0  0  0
   47.3480    6.5200   44.7980 C   0  0  0  0  0  0  0  0  0  0  0  0
   46.9790    7.8850   46.0660 B   0  0  0  0  0  0  0  0  0  0  0  0
   48.8470    3.6730   43.3570 N   0  0  0  0  0  0  0  0  0  0  0  0
   48.5700    3.1480   42.1660 C   0  0  0  0  0  0  0  0  0  0  0  0
   49.2050    2.1230   41.8010 O   0  0  0  0  0  0  0  0  0  0  0  0
   47.6510    3.6750   41.3670 N   0  0  0  0  0  0  0  0  0  0  0  0
   46.9610    4.7610   41.7250 C   0  0  0  0  0  0  0  0  0  0  0  0
   46.0880    5.2360   40.9290 O   0  0  0  0  0  0  0  0  0  0  0  0
   49.8570    3.0680   44.1990 C   0  0  0  0  0  0  0  0  0  0  0  0
   45.1570   10.3020   48.8780 H   0  0  0  0  0  0  0  0  0  0  0  0
   45.0190   13.9620   45.0510 H   0  0  0  0  0  0  0  0  0  0  0  0
   45.8220   14.2010   46.6260 H   0  0  0  0  0  0  0  0  0  0  0  0
   44.0830   14.5700   46.4960 H   0  0  0  0  0  0  0  0  0  0  0  0
   42.7420    8.0960   46.0320 H   0  0  0  0  0  0  0  0  0  0  0  0
   41.1060    8.5810   45.6280 H   0  0  0  0  0  0  0  0  0  0  0  0
   42.0960    6.6240   44.3160 H   0  0  0  0  0  0  0  0  0  0  0  0
   41.3510    7.8680   43.3400 H   0  0  0  0  0  0  0  0  0  0  0  0
   44.2930    6.1840   44.3020 H   0  0  0  0  0  0  0  0  0  0  0  0
   44.5670    7.8300   44.8960 H   0  0  0  0  0  0  0  0  0  0  0  0
   45.3510    6.9500   42.0730 H   0  0  0  0  0  0  0  0  0  0  0  0
   46.0480    8.3140   43.0310 H   0  0  0  0  0  0  0  0  0  0  0  0
   47.4480    3.2480   40.4370 H   0  0  0  0  0  0  0  0  0  0  0  0
   50.8350    3.4940   43.9270 H   0  0  0  0  0  0  0  0  0  0  0  0
   49.6280    3.2600   45.2620 H   0  0  0  0  0  0  0  0  0  0  0  0
   49.7990    1.9630   44.0020 H   0  0  0  0  0  0  0  0  0  0  0  0
  1  2  1  0  0  0  0
  2  6  2  0  0  0  0
  2  3  1  0  0  0  0
  3 14  1  0  0  0  0
  3  4  1  0  0  0  0
  4 11  1  0  0  0  0
  5  4  2  0  0  0  0
  5  7  1  0  0  0  0
  6  5  1  0  0  0  0
  7  8  1  0  0  0  0
  8 10  1  0  0  0  0
  8  9  2  0  0  0  0
 10 32  1  0  0  0  0
 11 12  2  0  0  0  0
 11 10  1  0  0  0  0
 13 35  1  0  0  0  0
 13  7  1  0  0  0  0
 13 34  1  0  0  0  0
 14 37  1  0  0  0  0
 14 36  1  0  0  0  0
 15 38  1  0  0  0  0
 15 14  1  0  0  0  0
 16 17  1  0  0  0  0
 16 15  1  0  0  0  0
 17 40  1  0  0  0  0
 17 41  1  0  0  0  0
 18 19  1  0  0  0  0
 18 17  1  0  0  0  0
 19 23  1  0  0  0  0
 20 19  1  0  0  0  0
 20 21  2  0  0  0  0
 21 22  1  0  0  0  0
 23 22  2  0  0  0  0
 23 24  1  0  0  0  0
 25 21  1  0  0  0  0
 25 31  1  0  0  0  0
 26 25  1  0  0  0  0
 27 26  2  0  0  0  0
 28 29  1  0  0  0  0
 28 26  1  0  0  0  0
 29 20  1  0  0  0  0
 30 29  2  0  0  0  0
 31 46  1  0  0  0  0
 33 13  1  0  0  0  0
 39 15  1  0  0  0  0
 42 18  1  0  0  0  0
 43 18  1  0  0  0  0
 44 28  1  0  0  0  0
 45 31  1  0  0  0  0
 47 31  1  0  0  0  0
M  END
>  <Pose>
1

>  <Score>
-7.29

$$$$
