
 OpenBabel03172210433D

 41 44  0  0  0  0  0  0  0  0999 V2000
   34.6770   12.5430   45.6780 B   0  0  0  0  0  0  0  0  0  0  0  0
   36.5590   12.7310   45.4150 C   0  0  0  0  0  0  0  0  0  0  0  0
   37.1010   13.9970   45.4170 C   0  0  0  0  0  0  0  0  0  0  0  0
   38.4310   14.1640   45.2320 N   0  0  0  0  0  0  0  0  0  0  0  0
   39.1970   13.0720   45.0500 C   0  0  0  0  0  0  0  0  0  0  0  0
   38.7240   11.7910   45.0370 C   0  0  0  0  0  0  0  0  0  0  0  0
   37.3680   11.6100   45.2240 C   0  0  0  0  0  0  0  0  0  0  0  0
   39.6420   10.6800   44.8310 C   0  0  0  0  0  0  0  0  0  0  0  0
   40.3140   10.6610   43.7470 O   0  0  0  0  0  0  0  0  0  0  0  0
   39.8080    9.6370   45.7810 N   0  0  0  0  0  0  0  0  0  0  0  0
   41.1580    9.3270   46.2270 C   0  0  0  0  0  0  0  0  0  0  0  0
   41.2970    7.8520   46.5290 C   0  0  0  0  0  0  0  0  0  0  0  0
   41.9500    7.2570   45.3570 N   0  0  0  0  0  0  0  0  0  0  0  0
   41.3890    6.8130   44.2450 N   0  0  0  0  0  0  0  0  0  0  0  0
   42.3110    6.3460   43.4140 N   0  0  0  0  0  0  0  0  0  0  0  0
   43.5220    6.4770   43.9770 C   0  0  0  0  0  0  0  0  0  0  0  0
   43.2850    7.0530   45.2030 C   0  0  0  0  0  0  0  0  0  0  0  0
   44.8070    6.0950   43.4180 C   0  0  0  0  0  0  0  0  0  0  0  0
   45.5500    5.0230   43.7460 N   0  0  0  0  0  0  0  0  0  0  0  0
   46.6710    5.0170   43.0080 C   0  0  0  0  0  0  0  0  0  0  0  0
   46.5970    6.1050   42.2250 N   0  0  0  0  0  0  0  0  0  0  0  0
   45.4850    6.7190   42.4920 O   0  0  0  0  0  0  0  0  0  0  0  0
   47.7620    4.0200   43.0480 C   0  0  0  0  0  0  0  0  0  0  0  0
   47.9320    3.1480   41.9970 C   0  0  0  0  0  0  0  0  0  0  0  0
   48.9230    2.2360   42.0240 N   0  0  0  0  0  0  0  0  0  0  0  0
   49.7880    2.1210   43.0510 C   0  0  0  0  0  0  0  0  0  0  0  0
   49.6090    3.0000   44.1010 C   0  0  0  0  0  0  0  0  0  0  0  0
   48.6150    3.9430   44.1150 C   0  0  0  0  0  0  0  0  0  0  0  0
   36.4820   14.8940   45.5650 H   0  0  0  0  0  0  0  0  0  0  0  0
   40.2650   13.2620   44.9060 H   0  0  0  0  0  0  0  0  0  0  0  0
   36.9300   10.6230   45.2250 H   0  0  0  0  0  0  0  0  0  0  0  0
   38.9850    9.1150   46.1420 H   0  0  0  0  0  0  0  0  0  0  0  0
   41.8410    9.5390   45.3620 H   0  0  0  0  0  0  0  0  0  0  0  0
   41.4260    9.9670   47.0880 H   0  0  0  0  0  0  0  0  0  0  0  0
   41.9300    7.7470   47.4250 H   0  0  0  0  0  0  0  0  0  0  0  0
   40.3250    7.3460   46.6360 H   0  0  0  0  0  0  0  0  0  0  0  0
   44.0290    7.3080   45.9360 H   0  0  0  0  0  0  0  0  0  0  0  0
   47.2430    3.2160   41.1410 H   0  0  0  0  0  0  0  0  0  0  0  0
   50.5840    1.3760   43.0550 H   0  0  0  0  0  0  0  0  0  0  0  0
   50.2900    2.9350   44.9470 H   0  0  0  0  0  0  0  0  0  0  0  0
   48.4700    4.6400   44.9420 H   0  0  0  0  0  0  0  0  0  0  0  0
  2  3  1  0  0  0  0
  2  1  1  0  0  0  0
  3 29  1  0  0  0  0
  4  3  2  0  0  0  0
  5  4  1  0  0  0  0
  6  5  2  0  0  0  0
  6  7  1  0  0  0  0
  7 31  1  0  0  0  0
  7  2  2  0  0  0  0
  8  6  1  0  0  0  0
  8 10  1  0  0  0  0
  9  8  2  0  0  0  0
 10 32  1  0  0  0  0
 10 11  1  0  0  0  0
 11 12  1  0  0  0  0
 11 34  1  0  0  0  0
 12 36  1  0  0  0  0
 12 35  1  0  0  0  0
 13 12  1  0  0  0  0
 14 13  1  0  0  0  0
 15 16  1  0  0  0  0
 15 14  2  0  0  0  0
 16 17  2  0  0  0  0
 17 13  1  0  0  0  0
 17 37  1  0  0  0  0
 18 19  2  0  0  0  0
 18 16  1  0  0  0  0
 20 23  1  0  0  0  0
 20 19  1  0  0  0  0
 21 22  1  0  0  0  0
 21 20  2  0  0  0  0
 22 18  1  0  0  0  0
 23 28  1  0  0  0  0
 24 25  1  0  0  0  0
 24 23  2  0  0  0  0
 25 26  2  0  0  0  0
 26 39  1  0  0  0  0
 26 27  1  0  0  0  0
 27 28  2  0  0  0  0
 27 40  1  0  0  0  0
 28 41  1  0  0  0  0
 30  5  1  0  0  0  0
 33 11  1  0  0  0  0
 38 24  1  0  0  0  0
M  END
>  <Pose>
1

>  <Score>
-7.60

$$$$
