
 OpenBabel03172210433D

 48 51  0  0  1  0  0  0  0  0999 V2000
   44.9470    9.2000   49.3900 Cl  0  0  0  0  0  0  0  0  0  0  0  0
   43.2440    9.0780   48.9760 C   0  0  0  0  0  0  0  0  0  0  0  0
   42.8500    8.6330   47.7170 C   0  0  0  0  0  0  0  0  0  0  0  0
   41.5320    8.5480   47.3430 C   0  0  0  0  0  0  0  0  0  0  0  0
   40.5940    8.9320   48.3090 C   0  0  0  0  0  0  0  0  0  0  0  0
   40.9660    9.3790   49.5720 C   0  0  0  0  0  0  0  0  0  0  0  0
   42.2930    9.4530   49.9030 C   0  0  0  0  0  0  0  0  0  0  0  0
   41.1170    7.9910   46.1040 N   0  0  0  0  0  4  0  0  0  0  0  0
   41.9270    6.9050   45.6100 C   0  0  0  0  0  0  0  0  0  0  0  0
   42.3180    7.1150   44.2080 C   0  0  2  0  0  0  0  0  0  0  0  0
   41.6760    8.3530   43.8640 N   0  0  0  0  0  0  0  0  0  0  0  0
   41.2870    8.9270   42.5970 C   0  0  0  0  0  0  0  0  0  0  0  0
   41.9270   10.2390   42.2740 C   0  0  0  0  0  0  0  0  0  0  0  0
   42.6760   10.8730   43.3930 C   0  0  0  0  0  0  0  0  0  0  0  0
   41.6460   11.4610   44.3840 C   0  0  0  0  0  0  0  0  0  0  0  0
   41.3770   10.3210   45.3500 C   0  0  0  0  0  0  0  0  0  0  0  0
   41.3880    9.0290   45.1180 C   0  0  0  0  0  0  0  0  0  0  0  0
   41.7170    6.1140   43.3950 O   0  0  0  0  0  0  0  0  0  0  0  0
   43.7250    7.0630   43.8950 C   0  0  0  0  0  0  0  0  0  0  0  0
   44.4420    5.8730   43.7770 C   0  0  0  0  0  0  0  0  0  0  0  0
   45.7900    5.8270   43.4520 C   0  0  0  0  0  0  0  0  0  0  0  0
   46.4640    7.0290   43.2300 C   0  0  0  0  0  0  0  0  0  0  0  0
   45.8000    8.2170   43.3360 C   0  0  0  0  0  0  0  0  0  0  0  0
   44.4350    8.2210   43.6670 C   0  0  0  0  0  0  0  0  0  0  0  0
   46.4530    4.5830   43.3500 N   0  0  0  0  0  0  0  0  0  0  0  0
   46.1530    3.6450   44.1520 O   0  0  0  0  0  0  0  0  0  0  0  0
   47.4080    4.3230   42.4400 O   0  0  0  0  0  0  0  0  0  0  0  0
   43.6840    8.3940   47.0360 H   0  0  0  0  0  0  0  0  0  0  0  0
   39.5500    8.8720   48.0530 H   0  0  0  0  0  0  0  0  0  0  0  0
   40.2080    9.6810   50.3180 H   0  0  0  0  0  0  0  0  0  0  0  0
   42.6010    9.7980   50.8680 H   0  0  0  0  0  0  0  0  0  0  0  0
   40.1120    7.8610   46.1140 H   0  0  0  0  0  0  0  0  0  0  0  0
   42.6280    6.6140   46.3670 H   0  0  0  0  0  0  0  0  0  0  0  0
   41.1790    6.0280   45.5960 H   0  0  0  0  0  0  0  0  0  0  0  0
   41.3780    8.2480   41.7310 H   0  0  0  0  0  0  0  0  0  0  0  0
   40.1630    9.1790   42.5850 H   0  0  0  0  0  0  0  0  0  0  0  0
   41.2000   10.9710   41.8530 H   0  0  0  0  0  0  0  0  0  0  0  0
   42.6920   10.1090   41.4320 H   0  0  0  0  0  0  0  0  0  0  0  0
   43.3740   10.2120   43.9470 H   0  0  0  0  0  0  0  0  0  0  0  0
   43.2690   11.7720   43.0620 H   0  0  0  0  0  0  0  0  0  0  0  0
   40.7490   11.7470   43.8480 H   0  0  0  0  0  0  0  0  0  0  0  0
   42.1180   12.2740   44.9740 H   0  0  0  0  0  0  0  0  0  0  0  0
   41.1590   10.6690   46.3440 H   0  0  0  0  0  0  0  0  0  0  0  0
   41.5510    5.3300   44.0160 H   0  0  0  0  0  0  0  0  0  0  0  0
   43.9160    4.9760   43.9460 H   0  0  0  0  0  0  0  0  0  0  0  0
   47.5150    6.9460   42.9760 H   0  0  0  0  0  0  0  0  0  0  0  0
   46.3420    9.1650   43.1590 H   0  0  0  0  0  0  0  0  0  0  0  0
   44.0170    9.2210   43.7220 H   0  0  0  0  0  0  0  0  0  0  0  0
  2  1  1  0  0  0  0
  2  7  1  0  0  0  0
  3  2  2  0  0  0  0
  4  3  1  0  0  0  0
  4  5  2  0  0  0  0
  5  6  1  0  0  0  0
  6  7  2  0  0  0  0
  6 30  1  0  0  0  0
  7 31  1  0  0  0  0
  8 32  1  0  0  0  0
  8  4  1  0  0  0  0
  9  8  1  0  0  0  0
  9 33  1  0  0  0  0
 10 18  1  6  0  0  0
 10  9  1  0  0  0  0
 11 10  1  0  0  0  0
 11 17  1  0  0  0  0
 12 11  1  0  0  0  0
 13 12  1  0  0  0  0
 13 14  1  0  0  0  0
 14 39  1  0  0  0  0
 14 15  1  0  0  0  0
 15 42  1  0  0  0  0
 15 16  1  0  0  0  0
 16 43  1  0  0  0  0
 17 16  2  0  0  0  0
 17  8  1  0  0  0  0
 18 44  1  0  0  0  0
 19 10  1  0  0  0  0
 20 19  1  0  0  0  0
 20 45  1  0  0  0  0
 21 20  2  0  0  0  0
 22 23  2  0  0  0  0
 22 21  1  0  0  0  0
 23 24  1  0  0  0  0
 24 48  1  0  0  0  0
 24 19  2  0  0  0  0
 25 21  1  0  0  0  0
 25 26  2  0  0  0  0
 27 25  2  0  0  0  0
 28  3  1  0  0  0  0
 29  5  1  0  0  0  0
 34  9  1  0  0  0  0
 35 12  1  0  0  0  0
 36 12  1  0  0  0  0
 37 13  1  0  0  0  0
 38 13  1  0  0  0  0
 40 14  1  0  0  0  0
 41 15  1  0  0  0  0
 46 22  1  0  0  0  0
 47 23  1  0  0  0  0
M  END
>  <Pose>
1

>  <Score>
-6.27

$$$$
