
 OpenBabel03172210433D

 51 54  0  0  0  0  0  0  0  0999 V2000
   44.1520   14.2260   46.1230 Cl  0  0  0  0  0  0  0  0  0  0  0  0
   43.2880   12.9920   45.2210 C   0  0  0  0  0  0  0  0  0  0  0  0
   41.9150   12.8750   45.3580 C   0  0  0  0  0  0  0  0  0  0  0  0
   41.2460   11.9070   44.6480 C   0  0  0  0  0  0  0  0  0  0  0  0
   41.9060   11.0440   43.7990 C   0  0  0  0  0  0  0  0  0  0  0  0
   43.2640   11.1780   43.6800 C   0  0  0  0  0  0  0  0  0  0  0  0
   43.9750   12.1510   44.3870 C   0  0  0  0  0  0  0  0  0  0  0  0
   41.1410   10.0110   43.0620 C   0  0  0  0  0  0  0  0  0  0  0  0
   39.9040   10.1800   43.0270 O   0  0  0  0  0  0  0  0  0  0  0  0
   41.7520    8.9260   42.4510 N   0  0  0  0  0  0  0  0  0  0  0  0
   42.5180    7.8630   42.9790 C   0  0  0  0  0  0  0  0  0  0  0  0
   43.7500    8.1800   43.7190 C   0  0  0  0  0  0  0  0  0  0  0  0
   44.9660    8.4630   43.0640 N   0  0  0  0  0  0  0  0  0  0  0  0
   45.9780    7.4370   43.0810 C   0  0  0  0  0  0  0  0  0  0  0  0
   47.0840    7.6700   42.5680 O   0  0  0  0  0  0  0  0  0  0  0  0
   45.7290    6.1120   43.6970 C   0  0  0  0  0  0  0  0  0  0  0  0
   46.6420    5.9740   44.8950 C   0  0  0  0  0  0  0  0  0  0  0  0
   48.0480    5.7990   44.3670 C   0  0  0  0  0  0  0  0  0  0  0  0
   48.0790    4.4700   43.7640 N   0  0  0  0  0  0  0  0  0  0  0  0
   46.9290    3.9660   43.0930 C   0  0  0  0  0  0  0  0  0  0  0  0
   45.8920    4.9750   42.7580 C   0  0  0  0  0  0  0  0  0  0  0  0
   49.2790    3.7300   43.8780 C   0  0  0  0  0  0  0  0  0  0  0  0
   49.9170    3.2030   42.8150 N   0  0  0  0  0  0  0  0  0  0  0  0
   51.0360    2.5090   42.9040 N   0  0  0  0  0  0  0  0  0  0  0  0
   51.7940    1.9240   41.9830 N   0  0  0  0  0  0  0  0  0  0  0  0
   52.8220    1.3400   42.5370 N   0  0  0  0  0  0  0  0  0  0  0  0
   52.7490    1.5390   43.8360 N   0  0  0  0  0  0  0  0  0  0  0  0
   51.6370    2.2660   44.0750 C   0  0  0  0  0  0  0  0  0  0  0  0
   51.0290    2.7810   45.2060 C   0  0  0  0  0  0  0  0  0  0  0  0
   49.8590    3.5080   45.1140 C   0  0  0  0  0  0  0  0  0  0  0  0
   41.3890   13.5570   46.0290 H   0  0  0  0  0  0  0  0  0  0  0  0
   40.1650   11.7980   44.7400 H   0  0  0  0  0  0  0  0  0  0  0  0
   43.8480   10.5500   43.0480 H   0  0  0  0  0  0  0  0  0  0  0  0
   45.0440   12.2570   44.2950 H   0  0  0  0  0  0  0  0  0  0  0  0
   41.5800    8.9220   41.3520 H   0  0  0  0  0  0  0  0  0  0  0  0
   41.8500    7.2130   43.6270 H   0  0  0  0  0  0  0  0  0  0  0  0
   42.7970    7.2040   42.0930 H   0  0  0  0  0  0  0  0  0  0  0  0
   43.9020    7.4030   44.5520 H   0  0  0  0  0  0  0  0  0  0  0  0
   43.5310    9.1060   44.3640 H   0  0  0  0  0  0  0  0  0  0  0  0
   45.2160    9.3010   42.5450 H   0  0  0  0  0  0  0  0  0  0  0  0
   44.6920    6.0870   44.1240 H   0  0  0  0  0  0  0  0  0  0  0  0
   46.3560    5.0280   45.4100 H   0  0  0  0  0  0  0  0  0  0  0  0
   46.5530    6.8300   45.5870 H   0  0  0  0  0  0  0  0  0  0  0  0
   48.7980    5.8460   45.1920 H   0  0  0  0  0  0  0  0  0  0  0  0
   48.3190    6.5000   43.5650 H   0  0  0  0  0  0  0  0  0  0  0  0
   46.4470    3.1890   43.7530 H   0  0  0  0  0  0  0  0  0  0  0  0
   47.2030    3.4330   42.1470 H   0  0  0  0  0  0  0  0  0  0  0  0
   44.8800    4.5010   42.5890 H   0  0  0  0  0  0  0  0  0  0  0  0
   46.1280    5.4230   41.7460 H   0  0  0  0  0  0  0  0  0  0  0  0
   51.5100    2.5880   46.1640 H   0  0  0  0  0  0  0  0  0  0  0  0
   49.3930    3.9090   46.0140 H   0  0  0  0  0  0  0  0  0  0  0  0
  2  3  1  0  0  0  0
  2  1  1  0  0  0  0
  3 31  1  0  0  0  0
  4 32  1  0  0  0  0
  4  3  2  0  0  0  0
  5  4  1  0  0  0  0
  6  5  2  0  0  0  0
  6  7  1  0  0  0  0
  7  2  2  0  0  0  0
  8  5  1  0  0  0  0
  9  8  2  0  0  0  0
 10 11  1  0  0  0  0
 10  8  1  0  0  0  0
 11 36  1  0  0  0  0
 11 12  1  0  0  0  0
 12 39  1  0  0  0  0
 12 38  1  0  0  0  0
 13 14  1  0  0  0  0
 13 12  1  0  0  0  0
 14 16  1  0  0  0  0
 15 14  2  0  0  0  0
 16 41  1  0  0  0  0
 16 17  1  0  0  0  0
 17 42  1  0  0  0  0
 17 43  1  0  0  0  0
 18 17  1  0  0  0  0
 18 44  1  0  0  0  0
 19 22  1  0  0  0  0
 19 18  1  0  0  0  0
 20 46  1  0  0  0  0
 20 19  1  0  0  0  0
 21 20  1  0  0  0  0
 21 16  1  0  0  0  0
 22 30  1  0  0  0  0
 23 24  1  0  0  0  0
 23 22  2  0  0  0  0
 24 28  1  0  0  0  0
 25 26  2  0  0  0  0
 25 24  1  0  0  0  0
 26 27  1  0  0  0  0
 27 28  2  0  0  0  0
 28 29  1  0  0  0  0
 29 50  1  0  0  0  0
 30 29  2  0  0  0  0
 30 51  1  0  0  0  0
 33  6  1  0  0  0  0
 34  7  1  0  0  0  0
 35 10  1  0  0  0  0
 37 11  1  0  0  0  0
 40 13  1  0  0  0  0
 45 18  1  0  0  0  0
 47 20  1  0  0  0  0
 48 21  1  0  0  0  0
 49 21  1  0  0  0  0
M  END
>  <Pose>
1

>  <Score>
-7.61

$$$$
