
 OpenBabel03172210433D

 49 52  0  0  0  0  0  0  0  0999 V2000
   54.3650    2.7000   45.2450 Cl  0  0  0  0  0  0  0  0  0  0  0  0
   52.7620    2.7930   44.5290 C   0  0  0  0  0  0  0  0  0  0  0  0
   52.5230    2.1060   43.3720 C   0  0  0  0  0  0  0  0  0  0  0  0
   51.2470    2.1740   42.8020 C   0  0  0  0  0  0  0  0  0  0  0  0
   50.2800    2.9190   43.4100 C   0  0  0  0  0  0  0  0  0  0  0  0
   50.5120    3.6000   44.5560 C   0  0  0  0  0  0  0  0  0  0  0  0
   51.7940    3.5370   45.1380 C   0  0  0  0  0  0  0  0  0  0  0  0
   48.9170    2.9810   42.7870 C   0  0  0  0  0  0  0  0  0  0  0  0
   48.7690    2.2600   41.7660 O   0  0  0  0  0  0  0  0  0  0  0  0
   47.9950    3.7880   43.3650 N   0  0  0  0  0  0  0  0  0  0  0  0
   47.0630    4.6030   43.9500 C   0  0  0  0  0  0  0  0  0  0  0  0
   46.2520    5.4540   43.0810 C   0  0  0  0  0  0  0  0  0  0  0  0
   46.6840    5.5210   41.8430 O   0  0  0  0  0  0  0  0  0  0  0  0
   45.1080    6.2020   43.3230 N   0  0  0  0  0  0  0  0  0  0  0  0
   44.2600    6.0390   44.4580 C   0  0  0  0  0  0  0  0  0  0  0  0
   42.9470    6.8090   44.1860 C   0  0  0  0  0  0  0  0  0  0  0  0
   43.3070    8.2830   44.1950 C   0  0  0  0  0  0  0  0  0  0  0  0
   43.8260    8.6250   45.4550 N   0  0  0  0  0  0  0  0  0  0  0  0
   42.9750    8.9720   46.5110 C   0  0  0  0  0  0  0  0  0  0  0  0
   41.7570    9.7520   46.1860 C   0  0  0  0  0  0  0  0  0  0  0  0
   41.3970    9.7240   44.7530 C   0  0  0  0  0  0  0  0  0  0  0  0
   40.3590   10.3310   44.1460 N   0  0  0  0  0  0  0  0  0  0  0  0
   40.4110   10.0390   42.8430 C   0  0  0  0  0  0  0  0  0  0  0  0
   41.4860    9.2460   42.6310 N   0  0  0  0  0  0  0  0  0  0  0  0
   42.1080    9.0400   43.8060 C   0  0  0  0  0  0  0  0  0  0  0  0
   44.4280    8.4910   43.1620 C   0  0  0  0  0  0  0  0  0  0  0  0
   44.7020    7.2450   42.3670 C   0  0  0  0  0  0  0  0  0  0  0  0
   53.2850    1.5190   42.8900 H   0  0  0  0  0  0  0  0  0  0  0  0
   51.0140    1.6530   41.8900 H   0  0  0  0  0  0  0  0  0  0  0  0
   49.7710    4.2010   45.0710 H   0  0  0  0  0  0  0  0  0  0  0  0
   51.9930    4.0770   46.0510 H   0  0  0  0  0  0  0  0  0  0  0  0
   47.9790    3.0010   44.4930 H   0  0  0  0  0  0  0  0  0  0  0  0
   47.5760    5.3080   44.7140 H   0  0  0  0  0  0  0  0  0  0  0  0
   46.3470    4.0540   44.6700 H   0  0  0  0  0  0  0  0  0  0  0  0
   44.6840    6.4490   45.3700 H   0  0  0  0  0  0  0  0  0  0  0  0
   44.0010    4.9450   44.5370 H   0  0  0  0  0  0  0  0  0  0  0  0
   42.2440    6.5770   45.0100 H   0  0  0  0  0  0  0  0  0  0  0  0
   42.5590    6.4640   43.2320 H   0  0  0  0  0  0  0  0  0  0  0  0
   44.8060    8.4580   45.6510 H   0  0  0  0  0  0  0  0  0  0  0  0
   43.5800    9.6010   47.2350 H   0  0  0  0  0  0  0  0  0  0  0  0
   42.7340    8.0490   47.1170 H   0  0  0  0  0  0  0  0  0  0  0  0
   41.8730   10.8410   46.4650 H   0  0  0  0  0  0  0  0  0  0  0  0
   40.9130    9.4060   46.8380 H   0  0  0  0  0  0  0  0  0  0  0  0
   39.7200   10.3760   42.0790 H   0  0  0  0  0  0  0  0  0  0  0  0
   41.7730    8.8630   41.7120 H   0  0  0  0  0  0  0  0  0  0  0  0
   44.1850    9.3340   42.4760 H   0  0  0  0  0  0  0  0  0  0  0  0
   45.3890    8.7770   43.6700 H   0  0  0  0  0  0  0  0  0  0  0  0
   45.5570    7.4960   41.6850 H   0  0  0  0  0  0  0  0  0  0  0  0
   43.8600    6.9110   41.7550 H   0  0  0  0  0  0  0  0  0  0  0  0
  2  7  1  0  0  0  0
  2  1  1  0  0  0  0
  3  2  2  0  0  0  0
  4  3  1  0  0  0  0
  4  5  2  0  0  0  0
  5  6  1  0  0  0  0
  6 30  1  0  0  0  0
  6  7  2  0  0  0  0
  7 31  1  0  0  0  0
  8 10  1  0  0  0  0
  8  5  1  0  0  0  0
  9  8  2  0  0  0  0
 10 11  1  0  0  0  0
 10 32  1  0  0  0  0
 11 34  1  0  0  0  0
 11 33  1  0  0  0  0
 12 14  1  0  0  0  0
 12 11  1  0  0  0  0
 13 12  2  0  0  0  0
 14 15  1  0  0  0  0
 15 36  1  0  0  0  0
 15 35  1  0  0  0  0
 16 17  1  0  0  0  0
 16 15  1  0  0  0  0
 16 37  1  0  0  0  0
 17 18  1  0  0  0  0
 18 39  1  0  0  0  0
 18 19  1  0  0  0  0
 19 41  1  0  0  0  0
 19 40  1  0  0  0  0
 20 42  1  0  0  0  0
 20 19  1  0  0  0  0
 20 43  1  0  0  0  0
 21 20  1  0  0  0  0
 22 21  1  0  0  0  0
 23 22  2  0  0  0  0
 24 23  1  0  0  0  0
 24 25  1  0  0  0  0
 25 17  1  0  0  0  0
 25 21  2  0  0  0  0
 26 47  1  0  0  0  0
 26 17  1  0  0  0  0
 27 26  1  0  0  0  0
 27 14  1  0  0  0  0
 28  3  1  0  0  0  0
 29  4  1  0  0  0  0
 38 16  1  0  0  0  0
 44 23  1  0  0  0  0
 45 24  1  0  0  0  0
 46 26  1  0  0  0  0
 48 27  1  0  0  0  0
 49 27  1  0  0  0  0
M  END
>  <Pose>
1

>  <Score>
-7.65

$$$$
