
 OpenBabel03172210433D

 41 44  0  0  1  0  0  0  0  0999 V2000
   48.9580    1.2970   41.2740 Cl  0  0  0  0  0  0  0  0  0  0  0  0
   48.9740    2.4480   42.5940 C   0  0  0  0  0  0  0  0  0  0  0  0
   48.1730    3.5610   42.5290 C   0  0  0  0  0  0  0  0  0  0  0  0
   47.2970    4.0430   41.6300 N   0  0  0  0  0  0  0  0  0  0  0  0
   46.7540    5.2030   42.0430 C   0  0  0  0  0  0  0  0  0  0  0  0
   47.3240    5.4620   43.2710 C   0  0  0  0  0  0  0  0  0  0  0  0
   48.2080    4.4530   43.5880 C   0  0  0  0  0  0  0  0  0  0  0  0
   49.0360    4.1970   44.6620 C   0  0  0  0  0  0  0  0  0  0  0  0
   49.8460    3.0920   44.7510 C   0  0  0  0  0  0  0  0  0  0  0  0
   49.8080    2.1990   43.6850 C   0  0  0  0  0  0  0  0  0  0  0  0
   46.8740    6.7080   43.9390 C   0  0  0  0  0  0  0  0  0  0  0  0
   45.4310    6.6400   43.9130 N   0  0  0  0  0  0  0  0  0  0  0  0
   44.8550    6.7310   42.6280 C   0  0  0  0  0  0  0  0  0  0  0  0
   45.7790    6.2020   41.5550 C   0  0  0  0  0  0  0  0  0  0  0  0
   44.7890    7.2650   44.9900 C   0  0  0  0  0  0  0  0  0  0  0  0
   43.3610    7.6160   44.7040 C   0  0  1  0  0  0  0  0  0  0  0  0
   42.4840    6.4290   44.5030 C   0  0  0  0  0  0  0  0  0  0  0  0
   41.3890    6.4610   45.4090 N   0  0  0  0  0  0  0  0  0  0  0  0
   41.5190    7.5960   46.2640 C   0  0  0  0  0  0  0  0  0  0  0  0
   42.7850    8.3020   45.9130 C   0  0  0  0  0  0  0  0  0  0  0  0
   43.2690    8.5260   43.6430 O   0  0  0  0  0  0  0  0  0  0  0  0
   47.0360    3.6010   40.7040 H   0  0  0  0  0  0  0  0  0  0  0  0
   49.0430    4.9060   45.4720 H   0  0  0  0  0  0  0  0  0  0  0  0
   50.4940    2.8960   45.5980 H   0  0  0  0  0  0  0  0  0  0  0  0
   50.4390    1.3220   43.7370 H   0  0  0  0  0  0  0  0  0  0  0  0
   47.2550    7.5520   43.2960 H   0  0  0  0  0  0  0  0  0  0  0  0
   47.1930    6.7920   44.9760 H   0  0  0  0  0  0  0  0  0  0  0  0
   43.9220    6.1050   42.5540 H   0  0  0  0  0  0  0  0  0  0  0  0
   44.6010    7.7810   42.3250 H   0  0  0  0  0  0  0  0  0  0  0  0
   45.1850    5.7390   40.7380 H   0  0  0  0  0  0  0  0  0  0  0  0
   46.3350    7.0420   41.0640 H   0  0  0  0  0  0  0  0  0  0  0  0
   45.2910    8.1670   45.3930 H   0  0  0  0  0  0  0  0  0  0  0  0
   44.7670    6.5410   45.8590 H   0  0  0  0  0  0  0  0  0  0  0  0
   42.1690    6.2680   43.4450 H   0  0  0  0  0  0  0  0  0  0  0  0
   43.0950    5.5140   44.7580 H   0  0  0  0  0  0  0  0  0  0  0  0
   40.4510    6.4130   44.9450 H   0  0  0  0  0  0  0  0  0  0  0  0
   40.6210    8.2420   46.2110 H   0  0  0  0  0  0  0  0  0  0  0  0
   41.6030    7.2840   47.3390 H   0  0  0  0  0  0  0  0  0  0  0  0
   42.5030    9.3690   45.6900 H   0  0  0  0  0  0  0  0  0  0  0  0
   43.5200    8.3240   46.7510 H   0  0  0  0  0  0  0  0  0  0  0  0
   44.0750    9.1040   43.7110 H   0  0  0  0  0  0  0  0  0  0  0  0
  1  2  1  0  0  0  0
  2 10  1  0  0  0  0
  3  2  2  0  0  0  0
  3  7  1  0  0  0  0
  4  5  1  0  0  0  0
  4  3  1  0  0  0  0
  5  6  2  0  0  0  0
  6  7  1  0  0  0  0
  6 11  1  0  0  0  0
  7  8  2  0  0  0  0
  8  9  1  0  0  0  0
  8 23  1  0  0  0  0
  9 24  1  0  0  0  0
 10 25  1  0  0  0  0
 10  9  2  0  0  0  0
 11 27  1  0  0  0  0
 12 11  1  0  0  0  0
 12 15  1  0  0  0  0
 13 12  1  0  0  0  0
 14  5  1  0  0  0  0
 14 13  1  0  0  0  0
 15 32  1  0  0  0  0
 15 33  1  0  0  0  0
 16 21  1  6  0  0  0
 16 15  1  0  0  0  0
 16 20  1  0  0  0  0
 17 16  1  0  0  0  0
 17 35  1  0  0  0  0
 17 18  1  0  0  0  0
 18 19  1  0  0  0  0
 19 38  1  0  0  0  0
 20 19  1  0  0  0  0
 20 40  1  0  0  0  0
 21 41  1  0  0  0  0
 22  4  1  0  0  0  0
 26 11  1  0  0  0  0
 28 13  1  0  0  0  0
 29 13  1  0  0  0  0
 30 14  1  0  0  0  0
 31 14  1  0  0  0  0
 34 17  1  0  0  0  0
 36 18  1  0  0  0  0
 37 19  1  0  0  0  0
 39 20  1  0  0  0  0
M  END
>  <Pose>
1

>  <Score>
-5.24

$$$$
