
 OpenBabel03172210433D

 36 39  0  0  1  0  0  0  0  0999 V2000
   41.4790   14.9300   46.7070 Cl  0  0  0  0  0  0  0  0  0  0  0  0
   41.5660   13.1810   46.5510 C   0  0  0  0  0  0  0  0  0  0  0  0
   42.1260   12.5700   45.4500 C   0  0  0  0  0  0  0  0  0  0  0  0
   42.1920   11.2120   45.3310 N   0  0  0  0  0  0  0  0  0  0  0  0
   41.7120   10.3990   46.2900 C   0  0  0  0  0  0  0  0  0  0  0  0
   41.7760    9.0490   46.1740 N   0  0  0  0  0  0  0  0  0  0  0  0
   42.3260    8.4570   45.0920 C   0  0  0  0  0  0  0  0  0  0  0  0
   42.8240    9.2510   44.1000 C   0  0  2  0  0  0  0  0  0  0  0  0
   43.4460    8.6470   42.8780 C   0  0  0  0  0  0  0  0  0  0  0  0
   43.9630    7.3420   43.3240 N   0  0  0  0  0  0  0  0  0  0  0  0
   42.9480    6.4450   43.8000 C   0  0  0  0  0  0  0  0  0  0  0  0
   42.3360    6.9710   45.0870 C   0  0  0  0  0  0  0  0  0  0  0  0
   45.3350    7.1260   43.2410 C   0  0  0  0  0  0  0  0  0  0  0  0
   46.1230    8.1230   43.3970 O   0  0  0  0  0  0  0  0  0  0  0  0
   45.9870    5.8360   42.9850 C   0  0  0  0  0  0  0  0  0  0  0  0
   46.6270    5.5710   41.8430 N   0  0  0  0  0  0  0  0  0  0  0  0
   47.2180    4.3940   41.6180 C   0  0  0  0  0  0  0  0  0  0  0  0
   47.2010    3.3820   42.5560 C   0  0  0  0  0  0  0  0  0  0  0  0
   46.5530    3.6660   43.6990 N   0  0  0  0  0  0  0  0  0  0  0  0
   45.9560    4.8320   43.9470 C   0  0  0  0  0  0  0  0  0  0  0  0
   42.7420   10.6290   44.2500 C   0  0  0  0  0  0  0  0  0  0  0  0
   43.1940   11.3630   43.3490 O   0  0  0  0  0  0  0  0  0  0  0  0
   41.1470   11.0060   47.4010 C   0  0  0  0  0  0  0  0  0  0  0  0
   41.0660   12.3740   47.5490 C   0  0  0  0  0  0  0  0  0  0  0  0
   42.5300   13.1590   44.6460 H   0  0  0  0  0  0  0  0  0  0  0  0
   44.2410    9.2850   42.4710 H   0  0  0  0  0  0  0  0  0  0  0  0
   42.6030    8.5060   42.1560 H   0  0  0  0  0  0  0  0  0  0  0  0
   43.1960    5.3950   43.8380 H   0  0  0  0  0  0  0  0  0  0  0  0
   42.1000    6.5190   43.0470 H   0  0  0  0  0  0  0  0  0  0  0  0
   42.9010    6.5560   45.9310 H   0  0  0  0  0  0  0  0  0  0  0  0
   41.2950    6.5880   45.1620 H   0  0  0  0  0  0  0  0  0  0  0  0
   47.7350    4.1890   40.6840 H   0  0  0  0  0  0  0  0  0  0  0  0
   47.6800    2.4230   42.3770 H   0  0  0  0  0  0  0  0  0  0  0  0
   45.4570    5.0060   44.8680 H   0  0  0  0  0  0  0  0  0  0  0  0
   40.7550   10.3670   48.1810 H   0  0  0  0  0  0  0  0  0  0  0  0
   40.6220   12.8480   48.4210 H   0  0  0  0  0  0  0  0  0  0  0  0
  2  1  1  0  0  0  0
  2 24  2  0  0  0  0
  3  2  1  0  0  0  0
  4  3  1  0  0  0  0
  4  5  1  0  0  0  0
  5 23  2  0  0  0  0
  6  5  1  0  0  0  0
  7  6  2  0  0  0  0
  8 21  1  1  0  0  0
  8  7  1  0  0  0  0
  9 10  1  0  0  0  0
  9  8  1  0  0  0  0
 10 11  1  0  0  0  0
 11 28  1  0  0  0  0
 11 12  1  0  0  0  0
 12  7  1  0  0  0  0
 12 31  1  0  0  0  0
 12 30  1  0  0  0  0
 13 10  1  0  0  0  0
 13 14  2  0  0  0  0
 15 13  1  0  0  0  0
 15 20  1  0  0  0  0
 16 15  2  0  0  0  0
 17 16  1  0  0  0  0
 17 18  2  0  0  0  0
 18 19  1  0  0  0  0
 19 20  2  0  0  0  0
 20 34  1  0  0  0  0
 21  4  1  0  0  0  0
 22 21  2  0  0  0  0
 23 24  1  0  0  0  0
 23 35  1  0  0  0  0
 24 36  1  0  0  0  0
 25  3  1  0  0  0  0
 26  9  1  0  0  0  0
 27  9  1  0  0  0  0
 29 11  1  0  0  0  0
 32 17  1  0  0  0  0
 33 18  1  0  0  0  0
M  END
>  <Pose>
1

>  <Score>
-6.00

$$$$
