
 OpenBabel03172210433D

 39 42  0  0  1  0  0  0  0  0999 V2000
   41.7520    5.0190   50.5230 B   0  0  0  0  0  0  0  0  0  0  0  0
   41.8180    6.6680   49.5550 C   0  0  0  0  0  0  0  0  0  0  0  0
   41.4910    6.6990   48.1960 C   0  0  0  0  0  0  0  0  0  0  0  0
   41.5320    7.8850   47.4860 C   0  0  0  0  0  0  0  0  0  0  0  0
   41.9030    9.0280   48.1650 C   0  0  0  0  0  0  0  0  0  0  0  0
   42.2260    8.9890   49.5160 C   0  0  0  0  0  0  0  0  0  0  0  0
   42.1840    7.8080   50.2190 C   0  0  0  0  0  0  0  0  0  0  0  0
   42.7340   10.6150   50.4130 B   0  0  0  0  0  0  0  0  0  0  0  0
   41.1930    7.9470   46.0170 C   0  0  1  0  0  0  0  0  0  0  0  0
   40.7280    9.2440   45.7030 N   0  0  0  0  0  4  0  0  0  0  0  0
   41.2980    9.8770   44.5490 C   0  0  2  0  0  0  0  0  0  0  0  0
   42.8300    9.8770   44.6850 C   0  0  0  0  0  0  0  0  0  0  0  0
   43.1860    8.4460   44.6550 C   0  0  0  0  0  0  0  0  0  0  0  0
   44.2410    7.7740   44.0570 C   0  0  0  0  0  0  0  0  0  0  0  0
   44.0680    6.4400   44.3490 C   0  0  0  0  0  0  0  0  0  0  0  0
   42.9620    6.2820   45.0920 N   0  0  0  0  0  0  0  0  0  0  0  0
   42.4090    7.5250   45.2850 C   0  0  0  0  0  0  0  0  0  0  0  0
   45.0020    5.5460   43.8570 C   0  0  0  0  0  0  0  0  0  0  0  0
   46.0490    6.0230   43.1080 C   0  0  0  0  0  0  0  0  0  0  0  0
   46.2190    7.3580   42.8180 C   0  0  0  0  0  0  0  0  0  0  0  0
   45.2860    8.2690   43.3070 C   0  0  0  0  0  0  0  0  0  0  0  0
   40.7810   11.2550   44.4260 C   0  0  0  0  0  0  0  0  0  0  0  0
   40.7560   11.7970   43.2910 O   0  0  0  0  0  0  0  0  0  0  0  0
   40.3370   11.9210   45.5570 O   0  0  0  0  0  0  0  0  0  0  0  0
   41.1370    5.5010   47.6320 O   0  0  0  0  0  0  0  0  0  0  0  0
   41.9560    9.9930   47.6580 H   0  0  0  0  0  0  0  0  0  0  0  0
   42.4340    7.7670   51.2790 H   0  0  0  0  0  0  0  0  0  0  0  0
   40.4010    7.1570   45.8770 H   0  0  0  0  0  0  0  0  0  0  0  0
   39.6750    9.1750   45.5280 H   0  0  0  0  0  0  0  0  0  0  0  0
   40.8110    9.9360   46.4900 H   0  0  0  0  0  0  0  0  0  0  0  0
   41.0320    9.2660   43.6570 H   0  0  0  0  0  0  0  0  0  0  0  0
   43.2660   10.4470   43.8400 H   0  0  0  0  0  0  0  0  0  0  0  0
   43.0240   10.3650   45.6580 H   0  0  0  0  0  0  0  0  0  0  0  0
   42.5460    5.3980   45.4830 H   0  0  0  0  0  0  0  0  0  0  0  0
   44.8710    4.4890   44.0850 H   0  0  0  0  0  0  0  0  0  0  0  0
   46.7840    5.3070   42.7230 H   0  0  0  0  0  0  0  0  0  0  0  0
   47.0600    7.7350   42.2170 H   0  0  0  0  0  0  0  0  0  0  0  0
   45.3610    9.3300   43.1150 H   0  0  0  0  0  0  0  0  0  0  0  0
   41.2110    5.2510   46.6850 H   0  0  0  0  0  0  0  0  0  0  0  0
  2  7  1  0  0  0  0
  2  1  1  0  0  0  0
  3  2  2  0  0  0  0
  4  5  2  0  0  0  0
  4  3  1  0  0  0  0
  5  6  1  0  0  0  0
  6  7  2  0  0  0  0
  6  8  1  0  0  0  0
  7 27  1  0  0  0  0
  9 28  1  6  0  0  0
  9  4  1  0  0  0  0
 10  9  1  0  0  0  0
 10 30  1  0  0  0  0
 11 31  1  6  0  0  0
 11 12  1  0  0  0  0
 11 10  1  0  0  0  0
 12 33  1  0  0  0  0
 13 12  1  0  0  0  0
 13 17  2  0  0  0  0
 14 15  1  0  0  0  0
 14 13  1  0  0  0  0
 15 16  1  0  0  0  0
 16 17  1  0  0  0  0
 16 34  1  0  0  0  0
 17  9  1  0  0  0  0
 18 35  1  0  0  0  0
 18 15  2  0  0  0  0
 19 18  1  0  0  0  0
 20 19  2  0  0  0  0
 20 21  1  0  0  0  0
 21 14  2  0  0  0  0
 22 11  1  0  0  0  0
 22 24  1  0  0  0  0
 23 22  2  0  0  0  0
 25  3  1  0  0  0  0
 26  5  1  0  0  0  0
 29 10  1  0  0  0  0
 32 12  1  0  0  0  0
 36 19  1  0  0  0  0
 37 20  1  0  0  0  0
 38 21  1  0  0  0  0
 39 25  1  0  0  0  0
M  END
>  <Pose>
1

>  <Score>
-4.25

$$$$
