
 OpenBabel03172210433D

 46 49  0  0  1  0  0  0  0  0999 V2000
   51.4450    1.0330   43.6750 B   0  0  0  0  0  0  0  0  0  0  0  0
   50.1540    2.4450   43.9030 C   0  0  0  0  0  0  0  0  0  0  0  0
   49.2860    2.7820   42.8920 C   0  0  0  0  0  0  0  0  0  0  0  0
   48.3770    3.7590   43.0200 N   0  0  0  0  0  0  0  0  0  0  0  0
   48.2740    4.4670   44.1740 C   0  0  0  0  0  0  0  0  0  0  0  0
   47.3860    5.4470   44.3520 N   0  0  0  0  0  0  0  0  0  0  0  0
   46.5190    5.8070   43.3850 C   0  0  0  0  0  0  0  0  0  0  0  0
   46.5940    5.1100   42.1970 C   0  0  0  0  0  0  0  0  0  0  0  0
   47.5170    4.0970   42.0260 C   0  0  0  0  0  0  0  0  0  0  0  0
   47.6190    3.4340   40.9560 O   0  0  0  0  0  0  0  0  0  0  0  0
   45.5220    6.8910   43.5530 C   0  0  0  0  0  0  0  0  0  0  0  0
   44.5450    6.5880   44.5100 O   0  0  0  0  0  0  0  0  0  0  0  0
   43.7650    7.5050   45.1750 C   0  0  0  0  0  0  0  0  0  0  0  0
   44.3510    8.1860   46.0650 O   0  0  0  0  0  0  0  0  0  0  0  0
   42.3200    7.6990   44.8800 C   0  0  0  0  0  0  0  0  0  0  0  0
   41.8610    9.0250   45.2980 N   0  0  0  0  0  0  0  0  0  0  0  0
   42.3380   10.2880   44.8440 C   0  0  0  0  0  0  0  0  0  0  0  0
   43.1130   10.4860   43.8750 O   0  0  0  0  0  0  0  0  0  0  0  0
   41.7580   11.3330   45.7190 C   0  0  2  0  0  0  0  0  0  0  0  0
   40.4360   10.6910   46.0710 C   0  0  1  0  0  0  0  0  0  0  0  0
   39.4270   10.7620   44.9420 C   0  0  0  0  0  0  0  0  0  0  0  0
   39.8900   11.6100   43.7880 C   0  0  0  0  0  0  0  0  0  0  0  0
   40.4550   12.9170   44.2670 C   0  0  0  0  0  0  0  0  0  0  0  0
   41.6590   12.6700   45.1060 C   0  0  0  0  0  0  0  0  0  0  0  0
   40.8470    9.2800   46.2540 C   0  0  0  0  0  0  0  0  0  0  0  0
   40.3940    8.4420   47.0960 O   0  0  0  0  0  0  0  0  0  0  0  0
   49.1360    4.1540   45.2230 C   0  0  0  0  0  0  0  0  0  0  0  0
   50.0670    3.1470   45.0780 C   0  0  0  0  0  0  0  0  0  0  0  0
   49.3500    2.2350   41.9680 H   0  0  0  0  0  0  0  0  0  0  0  0
   45.9340    5.3270   41.3550 H   0  0  0  0  0  0  0  0  0  0  0  0
   46.0750    7.7900   43.8890 H   0  0  0  0  0  0  0  0  0  0  0  0
   45.0410    7.0380   42.5530 H   0  0  0  0  0  0  0  0  0  0  0  0
   42.0840    7.5870   43.8110 H   0  0  0  0  0  0  0  0  0  0  0  0
   41.7640    6.9190   45.4310 H   0  0  0  0  0  0  0  0  0  0  0  0
   42.3550   11.3620   46.6480 H   0  0  0  0  0  0  0  0  0  0  0  0
   40.0140   11.1220   47.0090 H   0  0  0  0  0  0  0  0  0  0  0  0
   38.4510   11.1830   45.3050 H   0  0  0  0  0  0  0  0  0  0  0  0
   39.1740    9.7660   44.5450 H   0  0  0  0  0  0  0  0  0  0  0  0
   38.9740   11.8750   43.1900 H   0  0  0  0  0  0  0  0  0  0  0  0
   40.5530   11.0880   43.0860 H   0  0  0  0  0  0  0  0  0  0  0  0
   39.6380   13.4460   44.8140 H   0  0  0  0  0  0  0  0  0  0  0  0
   40.6720   13.5370   43.3630 H   0  0  0  0  0  0  0  0  0  0  0  0
   41.6500   13.4340   45.9380 H   0  0  0  0  0  0  0  0  0  0  0  0
   42.6010   12.8790   44.5510 H   0  0  0  0  0  0  0  0  0  0  0  0
   49.0610    4.7070   46.1370 H   0  0  0  0  0  0  0  0  0  0  0  0
   50.7400    2.8940   45.8810 H   0  0  0  0  0  0  0  0  0  0  0  0
  1  2  1  0  0  0  0
  2 28  2  0  0  0  0
  3  4  1  0  0  0  0
  3  2  1  0  0  0  0
  4  5  1  0  0  0  0
  5  6  1  0  0  0  0
  5 27  2  0  0  0  0
  7 11  1  0  0  0  0
  7  6  2  0  0  0  0
  8  7  1  0  0  0  0
  9  8  1  0  0  0  0
  9  4  1  0  0  0  0
 10  9  2  0  0  0  0
 11 31  1  0  0  0  0
 11 12  1  0  0  0  0
 12 13  1  0  0  0  0
 13 14  2  0  0  0  0
 15 13  1  0  0  0  0
 15 16  1  0  0  0  0
 15 34  1  0  0  0  0
 16 25  1  0  0  0  0
 17 16  1  0  0  0  0
 17 19  1  0  0  0  0
 18 17  2  0  0  0  0
 19 20  1  0  0  0  0
 19 35  1  1  0  0  0
 20 25  1  0  0  0  0
 20 36  1  1  0  0  0
 21 37  1  0  0  0  0
 21 20  1  0  0  0  0
 22 23  1  0  0  0  0
 22 21  1  0  0  0  0
 23 41  1  0  0  0  0
 23 24  1  0  0  0  0
 24 19  1  0  0  0  0
 24 43  1  0  0  0  0
 25 26  2  0  0  0  0
 27 45  1  0  0  0  0
 28 27  1  0  0  0  0
 28 46  1  0  0  0  0
 29  3  1  0  0  0  0
 30  8  1  0  0  0  0
 32 11  1  0  0  0  0
 33 15  1  0  0  0  0
 38 21  1  0  0  0  0
 39 22  1  0  0  0  0
 40 22  1  0  0  0  0
 42 23  1  0  0  0  0
 44 24  1  0  0  0  0
M  END
>  <Pose>
1

>  <Score>
-5.68

$$$$
