
 OpenBabel03172210433D

 49 52  0  0  0  0  0  0  0  0999 V2000
   51.4580    1.6500   42.7130 B   0  0  0  0  0  0  0  0  0  0  0  0
   50.3590    2.8270   43.6970 C   0  0  0  0  0  0  0  0  0  0  0  0
   49.0650    3.0740   43.2650 C   0  0  0  0  0  0  0  0  0  0  0  0
   48.2440    3.9270   43.9540 C   0  0  0  0  0  0  0  0  0  0  0  0
   48.6470    4.5700   45.0850 C   0  0  0  0  0  0  0  0  0  0  0  0
   49.9500    4.3260   45.5280 C   0  0  0  0  0  0  0  0  0  0  0  0
   50.7820    3.4650   44.8360 C   0  0  0  0  0  0  0  0  0  0  0  0
   46.8250    4.1770   43.5160 C   0  0  0  0  0  0  0  0  0  0  0  0
   46.2050    3.1080   43.1770 O   0  0  0  0  0  0  0  0  0  0  0  0
   46.3780    5.4220   43.5270 N   0  0  0  0  0  0  0  0  0  0  0  0
   45.9100    6.7260   43.5370 C   0  0  0  0  0  0  0  0  0  0  0  0
   45.2470    7.0660   44.8480 C   0  0  0  0  0  0  0  0  0  0  0  0
   46.0580    7.2530   45.8210 O   0  0  0  0  0  0  0  0  0  0  0  0
   43.8600    7.1750   45.0210 N   0  0  0  0  0  0  0  0  0  0  0  0
   43.2560    7.4810   46.2790 C   0  0  0  0  0  0  0  0  0  0  0  0
   42.0340    8.3440   46.1420 C   0  0  0  0  0  0  0  0  0  0  0  0
   41.9570    9.1360   44.8550 C   0  0  0  0  0  0  0  0  0  0  0  0
   40.5880    9.6320   44.8360 N   0  0  0  0  0  0  0  0  0  0  0  0
   40.2850   10.5880   43.8410 C   0  0  0  0  0  0  0  0  0  0  0  0
   41.4160   11.2950   43.1880 C   0  0  0  0  0  0  0  0  0  0  0  0
   42.6080   11.3820   44.0880 C   0  0  0  0  0  0  0  0  0  0  0  0
   43.5210   12.3360   44.2660 N   0  0  0  0  0  0  0  0  0  0  0  0
   44.3650   11.8670   45.2090 C   0  0  0  0  0  0  0  0  0  0  0  0
   43.9810   10.6360   45.6100 N   0  0  0  0  0  0  0  0  0  0  0  0
   42.8600   10.3080   44.9040 C   0  0  0  0  0  0  0  0  0  0  0  0
   42.2380    8.3220   43.6180 C   0  0  0  0  0  0  0  0  0  0  0  0
   42.9340    7.0050   43.9080 C   0  0  0  0  0  0  0  0  0  0  0  0
   48.7020    2.5950   42.3860 H   0  0  0  0  0  0  0  0  0  0  0  0
   47.9820    5.2310   45.6050 H   0  0  0  0  0  0  0  0  0  0  0  0
   50.3080    4.8150   46.4160 H   0  0  0  0  0  0  0  0  0  0  0  0
   51.7880    3.2750   45.1800 H   0  0  0  0  0  0  0  0  0  0  0  0
   46.7400    5.5770   42.2010 H   0  0  0  0  0  0  0  0  0  0  0  0
   45.1320    6.8890   42.7140 H   0  0  0  0  0  0  0  0  0  0  0  0
   46.6980    7.4740   43.2750 H   0  0  0  0  0  0  0  0  0  0  0  0
   42.8950    6.4890   46.6900 H   0  0  0  0  0  0  0  0  0  0  0  0
   43.9680    7.8380   47.0450 H   0  0  0  0  0  0  0  0  0  0  0  0
   41.1290    7.7320   46.2300 H   0  0  0  0  0  0  0  0  0  0  0  0
   42.0850    9.0920   46.9620 H   0  0  0  0  0  0  0  0  0  0  0  0
   40.0020    8.7550   44.7280 H   0  0  0  0  0  0  0  0  0  0  0  0
   39.6400   11.3810   44.3270 H   0  0  0  0  0  0  0  0  0  0  0  0
   39.6090   10.1130   43.0700 H   0  0  0  0  0  0  0  0  0  0  0  0
   41.6780   10.7850   42.2320 H   0  0  0  0  0  0  0  0  0  0  0  0
   41.0790   12.3220   42.8700 H   0  0  0  0  0  0  0  0  0  0  0  0
   45.2100   12.4260   45.5600 H   0  0  0  0  0  0  0  0  0  0  0  0
   44.4570   10.0570   46.3220 H   0  0  0  0  0  0  0  0  0  0  0  0
   42.9520    8.9020   42.9580 H   0  0  0  0  0  0  0  0  0  0  0  0
   41.3390    8.0890   43.0260 H   0  0  0  0  0  0  0  0  0  0  0  0
   42.2020    6.1890   44.1120 H   0  0  0  0  0  0  0  0  0  0  0  0
   43.5280    6.7470   43.0110 H   0  0  0  0  0  0  0  0  0  0  0  0
  1  2  1  0  0  0  0
  2  7  1  0  0  0  0
  3  2  2  0  0  0  0
  3  4  1  0  0  0  0
  4  5  2  0  0  0  0
  5  6  1  0  0  0  0
  5 29  1  0  0  0  0
  6 30  1  0  0  0  0
  7 31  1  0  0  0  0
  7  6  2  0  0  0  0
  8 10  1  0  0  0  0
  8  4  1  0  0  0  0
  9  8  2  0  0  0  0
 10 11  1  0  0  0  0
 11 12  1  0  0  0  0
 12 14  1  0  0  0  0
 12 13  2  0  0  0  0
 14 15  1  0  0  0  0
 15 35  1  0  0  0  0
 15 36  1  0  0  0  0
 16 37  1  0  0  0  0
 16 15  1  0  0  0  0
 16 38  1  0  0  0  0
 17 25  1  0  0  0  0
 17 16  1  0  0  0  0
 18 17  1  0  0  0  0
 19 40  1  0  0  0  0
 19 18  1  0  0  0  0
 20 19  1  0  0  0  0
 20 21  1  0  0  0  0
 21 22  1  0  0  0  0
 21 25  2  0  0  0  0
 22 23  2  0  0  0  0
 23 44  1  0  0  0  0
 23 24  1  0  0  0  0
 24 45  1  0  0  0  0
 25 24  1  0  0  0  0
 26 27  1  0  0  0  0
 26 17  1  0  0  0  0
 27 48  1  0  0  0  0
 27 14  1  0  0  0  0
 28  3  1  0  0  0  0
 32 10  1  0  0  0  0
 33 11  1  0  0  0  0
 34 11  1  0  0  0  0
 39 18  1  0  0  0  0
 41 19  1  0  0  0  0
 42 20  1  0  0  0  0
 43 20  1  0  0  0  0
 46 26  1  0  0  0  0
 47 26  1  0  0  0  0
 49 27  1  0  0  0  0
M  END
>  <Pose>
1

>  <Score>
-6.17

$$$$
