
 OpenBabel03172210433D

 53 56  0  0  1  0  0  0  0  0999 V2000
   42.4350   10.9890   50.3080 Cl  0  0  0  0  0  0  0  0  0  0  0  0
   42.3030   10.4960   48.6430 C   0  0  0  0  0  0  0  0  0  0  0  0
   43.1430   10.9820   47.6850 C   0  0  0  0  0  0  0  0  0  0  0  0
   42.9930   10.5570   46.3730 C   0  0  0  0  0  0  0  0  0  0  0  0
   42.0420    9.6710   45.9800 C   0  0  0  0  0  0  0  0  0  0  0  0
   41.1850    9.1760   46.9620 C   0  0  0  0  0  0  0  0  0  0  0  0
   41.3140    9.5820   48.2710 C   0  0  0  0  0  0  0  0  0  0  0  0
   41.8840    9.2340   44.5980 C   0  0  1  0  0  0  0  0  0  0  0  0
   41.9240   10.4020   43.6990 N   0  0  0  0  0  0  0  0  0  0  0  0
   43.2820   10.6650   43.3720 C   0  0  0  0  0  0  0  0  0  0  0  0
   43.7610   11.7230   42.9580 O   0  0  0  0  0  0  0  0  0  0  0  0
   44.0390    9.4220   43.6190 C   0  0  0  0  0  0  0  0  0  0  0  0
   45.2860    9.2220   43.4600 O   0  0  0  0  0  0  0  0  0  0  0  0
   43.0620    8.4560   44.0910 C   0  0  0  0  0  0  0  0  0  0  0  0
   43.2450    7.1590   44.0810 C   0  0  0  0  0  0  0  0  0  0  0  0
   42.2390    6.3530   44.6070 O   0  0  0  0  0  0  0  0  0  0  0  0
   44.4170    6.4640   43.5590 C   0  0  0  0  0  0  0  0  0  0  0  0
   44.9260    5.4400   44.3510 C   0  0  0  0  0  0  0  0  0  0  0  0
   46.0070    4.7290   43.9140 C   0  0  0  0  0  0  0  0  0  0  0  0
   46.6060    5.0070   42.7010 C   0  0  0  0  0  0  0  0  0  0  0  0
   46.0980    6.0230   41.9200 C   0  0  0  0  0  0  0  0  0  0  0  0
   45.0050    6.7340   42.3710 C   0  0  0  0  0  0  0  0  0  0  0  0
   47.9770    4.0780   42.1890 Cl  0  0  0  0  0  0  0  0  0  0  0  0
   40.7180   11.0710   43.2830 C   0  0  0  0  0  0  0  0  0  0  0  0
   40.1810   12.0820   44.2230 C   0  0  0  0  0  0  0  0  0  0  0  0
   38.7870   12.1190   44.4670 N   0  0  0  0  0  4  0  0  0  0  0  0
   38.3530   13.2640   45.2390 C   0  0  0  0  0  0  0  0  0  0  0  0
   37.5880   12.8990   46.4890 C   0  0  0  0  0  0  0  0  0  0  0  0
   36.5840   11.9840   46.3030 O   0  0  0  0  0  0  0  0  0  0  0  0
   36.9640   10.8890   45.5490 C   0  0  0  0  0  0  0  0  0  0  0  0
   38.4410   10.9470   45.2990 C   0  0  0  0  0  0  0  0  0  0  0  0
   43.9070   11.6900   47.9790 H   0  0  0  0  0  0  0  0  0  0  0  0
   43.6810   10.9660   45.6610 H   0  0  0  0  0  0  0  0  0  0  0  0
   40.4240    8.4700   46.6640 H   0  0  0  0  0  0  0  0  0  0  0  0
   40.6730    9.2240   49.0570 H   0  0  0  0  0  0  0  0  0  0  0  0
   40.9390    8.6740   44.4210 H   0  0  0  0  0  0  0  0  0  0  0  0
   44.4580    5.2070   45.3210 H   0  0  0  0  0  0  0  0  0  0  0  0
   46.3730    3.9350   44.5670 H   0  0  0  0  0  0  0  0  0  0  0  0
   46.5880    6.2180   40.9750 H   0  0  0  0  0  0  0  0  0  0  0  0
   44.6050    7.5250   41.7280 H   0  0  0  0  0  0  0  0  0  0  0  0
   39.9210   10.2710   43.1760 H   0  0  0  0  0  0  0  0  0  0  0  0
   40.8080   11.4570   42.2360 H   0  0  0  0  0  0  0  0  0  0  0  0
   40.7280   12.0130   45.2170 H   0  0  0  0  0  0  0  0  0  0  0  0
   40.4640   13.1380   43.8960 H   0  0  0  0  0  0  0  0  0  0  0  0
   38.2140   11.9940   43.6170 H   0  0  0  0  0  0  0  0  0  0  0  0
   37.7340   13.9060   44.5840 H   0  0  0  0  0  0  0  0  0  0  0  0
   39.2080   13.8820   45.5850 H   0  0  0  0  0  0  0  0  0  0  0  0
   37.1290   13.8600   46.8450 H   0  0  0  0  0  0  0  0  0  0  0  0
   38.2990   12.6100   47.2960 H   0  0  0  0  0  0  0  0  0  0  0  0
   36.7390    9.9330   46.0420 H   0  0  0  0  0  0  0  0  0  0  0  0
   36.4550   10.9080   44.5620 H   0  0  0  0  0  0  0  0  0  0  0  0
   39.0240   11.0350   46.2300 H   0  0  0  0  0  0  0  0  0  0  0  0
   38.7760   10.0110   44.7930 H   0  0  0  0  0  0  0  0  0  0  0  0
  2  1  1  0  0  0  0
  3 32  1  0  0  0  0
  3  2  2  0  0  0  0
  4  3  1  0  0  0  0
  5  4  2  0  0  0  0
  5  6  1  0  0  0  0
  6  7  2  0  0  0  0
  7  2  1  0  0  0  0
  7 35  1  0  0  0  0
  8 36  1  6  0  0  0
  8  5  1  0  0  0  0
  9  8  1  0  0  0  0
 10 12  1  0  0  0  0
 10  9  1  0  0  0  0
 11 10  2  0  0  0  0
 12 14  1  0  0  0  0
 13 12  2  0  0  0  0
 14  8  1  0  0  0  0
 15 14  2  0  0  0  0
 15 16  1  0  0  0  0
 17 15  1  0  0  0  0
 17 18  1  0  0  0  0
 18 37  1  0  0  0  0
 19 18  2  0  0  0  0
 19 38  1  0  0  0  0
 20 19  1  0  0  0  0
 21 22  1  0  0  0  0
 21 20  2  0  0  0  0
 22 17  2  0  0  0  0
 23 20  1  0  0  0  0
 24  9  1  0  0  0  0
 24 25  1  0  0  0  0
 25 26  1  0  0  0  0
 25 43  1  0  0  0  0
 26 27  1  0  0  0  0
 26 31  1  0  0  0  0
 27 47  1  0  0  0  0
 27 28  1  0  0  0  0
 28 48  1  0  0  0  0
 28 49  1  0  0  0  0
 29 28  1  0  0  0  0
 30 50  1  0  0  0  0
 30 29  1  0  0  0  0
 31 30  1  0  0  0  0
 31 52  1  0  0  0  0
 33  4  1  0  0  0  0
 34  6  1  0  0  0  0
 39 21  1  0  0  0  0
 40 22  1  0  0  0  0
 41 24  1  0  0  0  0
 42 24  1  0  0  0  0
 44 25  1  0  0  0  0
 45 26  1  0  0  0  0
 46 27  1  0  0  0  0
 51 30  1  0  0  0  0
 53 31  1  0  0  0  0
M  END
>  <Pose>
1

>  <Score>
-5.90

$$$$
