
 OpenBabel03172210433D

 60 64  0  0  1  0  0  0  0  0999 V2000
   46.2070   10.3190   51.0950 Cl  0  0  0  0  0  0  0  0  0  0  0  0
   45.4610   10.7410   49.5460 C   0  0  0  0  0  0  0  0  0  0  0  0
   45.8760   11.8590   48.8640 C   0  0  0  0  0  0  0  0  0  0  0  0
   45.2930   12.1910   47.6490 C   0  0  0  0  0  0  0  0  0  0  0  0
   44.2990   11.4530   47.0670 C   0  0  0  0  0  0  0  0  0  0  0  0
   43.8950   10.3170   47.7850 C   0  0  0  0  0  0  0  0  0  0  0  0
   44.4670    9.9770   48.9920 C   0  0  0  0  0  0  0  0  0  0  0  0
   43.9090   12.0700   45.8090 C   0  0  1  0  0  0  0  0  0  0  0  0
   44.2080   11.1250   44.7360 N   0  0  0  0  0  0  0  0  0  0  0  0
   42.9150   10.6010   44.3940 C   0  0  1  0  0  0  0  0  0  0  0  0
   42.0640   11.8500   44.3800 C   0  0  2  0  0  0  0  0  0  0  0  0
   42.4820   12.4770   45.6920 C   0  0  1  0  0  0  0  0  0  0  0  0
   41.5520   11.9420   46.6660 C   0  0  0  0  0  0  0  0  0  0  0  0
   41.6780   11.9600   47.9100 O   0  0  0  0  0  0  0  0  0  0  0  0
   40.4420   11.3730   45.9850 N   0  0  0  0  0  0  0  0  0  0  0  0
   40.6260   11.5350   44.5770 C   0  0  0  0  0  0  0  0  0  0  0  0
   39.7930   11.4440   43.6440 O   0  0  0  0  0  0  0  0  0  0  0  0
   39.2720   10.7210   46.5410 C   0  0  0  0  0  0  0  0  0  0  0  0
   39.6220    9.7520   47.5940 C   0  0  0  0  0  0  0  0  0  0  0  0
   38.7160    9.5520   48.6140 C   0  0  0  0  0  0  0  0  0  0  0  0
   39.0520    8.6380   49.6030 C   0  0  0  0  0  0  0  0  0  0  0  0
   40.2350    7.9570   49.5750 C   0  0  0  0  0  0  0  0  0  0  0  0
   41.1120    8.1830   48.5410 C   0  0  0  0  0  0  0  0  0  0  0  0
   40.8370    9.0770   47.5300 C   0  0  0  0  0  0  0  0  0  0  0  0
   37.5270   10.2520   48.6220 O   0  0  0  0  0  0  0  0  0  0  0  0
   36.7540   10.4990   49.7530 C   0  0  0  0  0  0  0  0  0  0  0  0
   42.9350    9.9110   43.0480 C   0  0  0  0  0  0  0  0  0  0  0  0
   41.9110    8.7970   43.1140 C   0  0  0  0  0  0  0  0  0  0  0  0
   42.4540    7.5890   43.7840 C   0  0  0  0  0  0  0  0  0  0  0  0
   43.6900    7.5240   44.0390 O   0  0  0  0  0  0  0  0  0  0  0  0
   41.5360    6.5540   44.1080 N   0  0  0  0  0  0  0  0  0  0  0  0
   44.7800   13.2620   45.6790 C   0  0  0  0  0  0  0  0  0  0  0  0
   44.8050   14.1060   44.7350 O   0  0  0  0  0  0  0  0  0  0  0  0
   45.6070   13.3040   46.8210 N   0  0  0  0  0  0  0  0  0  0  0  0
   46.9560   12.6960   49.4570 C   0  0  0  0  0  0  0  0  0  0  0  0
   43.1160    9.6880   47.3860 H   0  0  0  0  0  0  0  0  0  0  0  0
   44.1290    9.0910   49.5200 H   0  0  0  0  0  0  0  0  0  0  0  0
   44.8900   10.4140   45.0750 H   0  0  0  0  0  0  0  0  0  0  0  0
   42.4800    9.8990   45.1060 H   0  0  0  0  0  0  0  0  0  0  0  0
   42.2530   12.4900   43.5110 H   0  0  0  0  0  0  0  0  0  0  0  0
   42.3380   13.5800   45.6370 H   0  0  0  0  0  0  0  0  0  0  0  0
   38.5700   11.4680   46.9580 H   0  0  0  0  0  0  0  0  0  0  0  0
   38.7360   10.2460   45.6820 H   0  0  0  0  0  0  0  0  0  0  0  0
   38.3480    8.4760   50.4040 H   0  0  0  0  0  0  0  0  0  0  0  0
   40.4570    7.2430   50.3790 H   0  0  0  0  0  0  0  0  0  0  0  0
   42.0510    7.6480   48.5100 H   0  0  0  0  0  0  0  0  0  0  0  0
   41.5420    9.2540   46.7060 H   0  0  0  0  0  0  0  0  0  0  0  0
   35.8320   11.0290   49.4230 H   0  0  0  0  0  0  0  0  0  0  0  0
   37.3010   11.2210   50.3980 H   0  0  0  0  0  0  0  0  0  0  0  0
   36.4910    9.5630   50.2660 H   0  0  0  0  0  0  0  0  0  0  0  0
   43.9370    9.5430   42.7770 H   0  0  0  0  0  0  0  0  0  0  0  0
   42.5390   10.6510   42.3110 H   0  0  0  0  0  0  0  0  0  0  0  0
   40.9520    9.1280   43.5840 H   0  0  0  0  0  0  0  0  0  0  0  0
   41.6630    8.5240   42.0690 H   0  0  0  0  0  0  0  0  0  0  0  0
   40.5260    6.7730   44.0850 H   0  0  0  0  0  0  0  0  0  0  0  0
   41.9410    5.6170   44.3550 H   0  0  0  0  0  0  0  0  0  0  0  0
   46.3320   14.0470   47.0110 H   0  0  0  0  0  0  0  0  0  0  0  0
   46.5460   13.6190   49.8900 H   0  0  0  0  0  0  0  0  0  0  0  0
   47.5020   12.1440   50.2220 H   0  0  0  0  0  0  0  0  0  0  0  0
   47.6900   13.0220   48.6680 H   0  0  0  0  0  0  0  0  0  0  0  0
  2  1  1  0  0  0  0
  3 35  1  0  0  0  0
  3  2  2  0  0  0  0
  4  3  1  0  0  0  0
  5  4  2  0  0  0  0
  5  6  1  0  0  0  0
  6  7  2  0  0  0  0
  7 37  1  0  0  0  0
  7  2  1  0  0  0  0
  8 32  1  6  0  0  0
  8  5  1  0  0  0  0
  9 38  1  0  0  0  0
  9  8  1  0  0  0  0
 10  9  1  0  0  0  0
 10 39  1  1  0  0  0
 11 40  1  6  0  0  0
 11 10  1  0  0  0  0
 11 16  1  0  0  0  0
 11 12  1  0  0  0  0
 12 41  1  6  0  0  0
 12  8  1  0  0  0  0
 12 13  1  0  0  0  0
 13 14  2  0  0  0  0
 15 18  1  0  0  0  0
 15 13  1  0  0  0  0
 16 15  1  0  0  0  0
 17 16  2  0  0  0  0
 18 42  1  0  0  0  0
 18 19  1  0  0  0  0
 19 20  1  0  0  0  0
 20 25  1  0  0  0  0
 20 21  2  0  0  0  0
 21 44  1  0  0  0  0
 22 21  1  0  0  0  0
 22 45  1  0  0  0  0
 23 22  2  0  0  0  0
 24 19  2  0  0  0  0
 24 23  1  0  0  0  0
 25 26  1  0  0  0  0
 26 50  1  0  0  0  0
 26 49  1  0  0  0  0
 27 28  1  0  0  0  0
 27 10  1  0  0  0  0
 28 53  1  0  0  0  0
 28 29  1  0  0  0  0
 29 30  2  0  0  0  0
 29 31  1  0  0  0  0
 31 56  1  0  0  0  0
 32 34  1  0  0  0  0
 33 32  2  0  0  0  0
 34 57  1  0  0  0  0
 34  4  1  0  0  0  0
 35 58  1  0  0  0  0
 35 59  1  0  0  0  0
 36  6  1  0  0  0  0
 43 18  1  0  0  0  0
 46 23  1  0  0  0  0
 47 24  1  0  0  0  0
 48 26  1  0  0  0  0
 51 27  1  0  0  0  0
 52 27  1  0  0  0  0
 54 28  1  0  0  0  0
 55 31  1  0  0  0  0
 60 35  1  0  0  0  0
M  END
>  <Pose>
1

>  <Score>
-6.03

$$$$
