
 OpenBabel03172210433D

 42 45  0  0  1  0  0  0  0  0999 V2000
   45.5020   12.4570   49.4440 Cl  0  0  0  0  0  0  0  0  0  0  0  0
   44.6430   12.4560   47.9200 C   0  0  0  0  0  0  0  0  0  0  0  0
   43.8840   11.3870   47.5060 C   0  0  0  0  0  0  0  0  0  0  0  0
   43.1940   11.3560   46.3010 C   0  0  0  0  0  0  0  0  0  0  0  0
   43.2970   12.4830   45.4910 C   0  0  0  0  0  0  0  0  0  0  0  0
   44.0500   13.5670   45.8810 C   0  0  0  0  0  0  0  0  0  0  0  0
   44.7180   13.5510   47.0880 C   0  0  0  0  0  0  0  0  0  0  0  0
   42.3860   10.1790   45.8950 C   0  0  1  0  0  0  0  0  0  0  0  0
   41.2570   10.5070   45.0720 N   0  0  0  0  0  0  0  0  0  0  0  0
   41.5720   10.3330   43.6940 C   0  0  0  0  0  0  0  0  0  0  0  0
   40.9340   10.7790   42.6970 O   0  0  0  0  0  0  0  0  0  0  0  0
   42.8050    9.5210   43.6180 C   0  0  0  0  0  0  0  0  0  0  0  0
   43.3750    9.1760   42.5580 O   0  0  0  0  0  0  0  0  0  0  0  0
   43.1630    9.2490   45.0040 C   0  0  0  0  0  0  0  0  0  0  0  0
   44.0540    8.3520   45.3680 C   0  0  0  0  0  0  0  0  0  0  0  0
   44.3260    8.2440   46.7470 O   0  0  0  0  0  0  0  0  0  0  0  0
   44.7630    7.4730   44.4480 C   0  0  0  0  0  0  0  0  0  0  0  0
   44.5670    6.0870   44.5260 C   0  0  0  0  0  0  0  0  0  0  0  0
   45.2010    5.2340   43.6510 C   0  0  0  0  0  0  0  0  0  0  0  0
   46.0500    5.6890   42.6630 C   0  0  0  0  0  0  0  0  0  0  0  0
   46.2560    7.0460   42.5690 C   0  0  0  0  0  0  0  0  0  0  0  0
   45.6120    7.9090   43.4570 C   0  0  0  0  0  0  0  0  0  0  0  0
   40.0010   10.9470   45.5440 C   0  0  1  0  0  0  0  0  0  0  0  0
   38.9240   10.2310   45.1250 N   0  0  0  0  0  0  0  0  0  0  0  0
   37.6850   10.5440   45.5010 C   0  0  0  0  0  0  0  0  0  0  0  0
   37.5140   11.6230   46.3380 C   0  0  0  0  0  0  0  0  0  0  0  0
   38.6210   12.3340   46.7510 C   0  0  0  0  0  0  0  0  0  0  0  0
   39.8680   12.0120   46.3650 N   0  0  0  0  0  0  0  0  0  0  0  0
   43.8440   10.5390   48.1750 H   0  0  0  0  0  0  0  0  0  0  0  0
   42.7650   12.4740   44.5440 H   0  0  0  0  0  0  0  0  0  0  0  0
   44.1300   14.4570   45.2380 H   0  0  0  0  0  0  0  0  0  0  0  0
   45.3060   14.4080   47.3850 H   0  0  0  0  0  0  0  0  0  0  0  0
   42.0720    9.6680   46.8300 H   0  0  0  0  0  0  0  0  0  0  0  0
   43.8960    5.7350   45.3060 H   0  0  0  0  0  0  0  0  0  0  0  0
   45.0200    4.1720   43.7500 H   0  0  0  0  0  0  0  0  0  0  0  0
   46.5560    5.0380   41.9650 H   0  0  0  0  0  0  0  0  0  0  0  0
   46.9280    7.4320   41.7930 H   0  0  0  0  0  0  0  0  0  0  0  0
   45.7860    8.9820   43.3350 H   0  0  0  0  0  0  0  0  0  0  0  0
   39.0460    9.3980   44.4850 H   0  0  0  0  0  0  0  0  0  0  0  0
   36.8540    9.9490   45.1430 H   0  0  0  0  0  0  0  0  0  0  0  0
   36.5120   11.8860   46.6500 H   0  0  0  0  0  0  0  0  0  0  0  0
   38.4340   13.1710   47.4090 H   0  0  0  0  0  0  0  0  0  0  0  0
  2  1  1  0  0  0  0
  3  2  1  0  0  0  0
  3 29  1  0  0  0  0
  4  3  2  0  0  0  0
  5  6  2  0  0  0  0
  5  4  1  0  0  0  0
  6  7  1  0  0  0  0
  7 32  1  0  0  0  0
  7  2  2  0  0  0  0
  8  4  1  0  0  0  0
  8 33  1  1  0  0  0
  9  8  1  0  0  0  0
 10  9  1  0  0  0  0
 11 10  2  0  0  0  0
 12 10  1  0  0  0  0
 12 14  1  0  0  0  0
 13 12  2  0  0  0  0
 14 15  2  0  0  0  0
 14  8  1  0  0  0  0
 15 16  1  0  0  0  0
 17 18  1  0  0  0  0
 17 15  1  0  0  0  0
 18 34  1  0  0  0  0
 19 35  1  0  0  0  0
 19 18  2  0  0  0  0
 20 19  1  0  0  0  0
 21 20  2  0  0  0  0
 21 22  1  0  0  0  0
 22 17  2  0  0  0  0
 23  9  1  1  0  0  0
 23 28  1  0  0  0  0
 24 25  1  0  0  0  0
 24 23  1  0  0  0  0
 25 26  2  0  0  0  0
 26 41  1  0  0  0  0
 26 27  1  0  0  0  0
 27 42  1  0  0  0  0
 28 27  2  0  0  0  0
 30  5  1  0  0  0  0
 31  6  1  0  0  0  0
 36 20  1  0  0  0  0
 37 21  1  0  0  0  0
 38 22  1  0  0  0  0
 39 24  1  0  0  0  0
 40 25  1  0  0  0  0
M  END
>  <Pose>
1

>  <Score>
-5.20

$$$$
