
 OpenBabel03172210433D

 44 47  0  0  0  0  0  0  0  0999 V2000
   45.5880    6.1120   42.9630 S   0  0  0  0  0  0  0  0  0  0  0  0
   45.8170    6.0510   41.5370 O   0  0  0  0  0  0  0  0  0  0  0  0
   45.3850    4.7520   43.5590 O   0  0  0  0  0  0  0  0  0  0  0  0
   46.9500    6.8940   43.8630 C   0  0  0  0  0  0  0  0  0  0  0  0
   44.1480    7.0610   43.3770 C   0  0  0  0  0  0  0  0  0  0  0  0
   43.8110    7.1740   44.6670 N   0  0  0  0  0  0  0  0  0  0  0  0
   42.8010    7.9130   45.1170 C   0  0  0  0  0  0  0  0  0  0  0  0
   42.0540    8.6230   44.1630 C   0  0  0  0  0  0  0  0  0  0  0  0
   42.3980    8.5050   42.8630 C   0  0  0  0  0  0  0  0  0  0  0  0
   43.4440    7.7210   42.4760 N   0  0  0  0  0  0  0  0  0  0  0  0
   41.6540    9.1950   41.9180 O   0  0  0  0  0  0  0  0  0  0  0  0
   41.0460    9.5300   44.7180 C   0  0  0  0  0  0  0  0  0  0  0  0
   41.7290   10.3030   45.7100 N   0  0  0  0  0  0  0  0  0  0  0  0
   41.7670    9.3510   46.9060 C   0  0  0  0  0  0  0  0  0  0  0  0
   42.4240    8.0650   46.5470 C   0  0  0  0  0  0  0  0  0  0  0  0
   43.2070   10.5210   45.5090 C   0  0  0  0  0  0  0  0  0  0  0  0
   43.3320   11.9090   46.1440 C   0  0  0  0  0  0  0  0  0  0  0  0
   43.9350   12.1870   47.3080 C   0  0  0  0  0  0  0  0  0  0  0  0
   44.0300   13.4940   47.8600 C   0  0  0  0  0  0  0  0  0  0  0  0
   43.4410   14.4930   47.0800 C   0  0  0  0  0  0  0  0  0  0  0  0
   43.5010   15.7690   47.5590 C   0  0  0  0  0  0  0  0  0  0  0  0
   44.1140   16.1340   48.7790 C   0  0  0  0  0  0  0  0  0  0  0  0
   44.6970   15.0930   49.5240 C   0  0  0  0  0  0  0  0  0  0  0  0
   44.6260   13.8210   49.0300 C   0  0  0  0  0  0  0  0  0  0  0  0
   42.8690   14.2370   45.9540 O   0  0  0  0  0  0  0  0  0  0  0  0
   42.7900   12.9930   45.4580 C   0  0  0  0  0  0  0  0  0  0  0  0
   42.2040   12.7500   44.3340 O   0  0  0  0  0  0  0  0  0  0  0  0
   44.6960   10.8910   48.1670 Cl  0  0  0  0  0  0  0  0  0  0  0  0
   46.5260    7.2170   44.8800 H   0  0  0  0  0  0  0  0  0  0  0  0
   47.2080    7.8530   43.3270 H   0  0  0  0  0  0  0  0  0  0  0  0
   47.8170    6.2370   43.9600 H   0  0  0  0  0  0  0  0  0  0  0  0
   41.1520    8.7450   41.1460 H   0  0  0  0  0  0  0  0  0  0  0  0
   40.4370   10.0920   43.9730 H   0  0  0  0  0  0  0  0  0  0  0  0
   40.2990    8.8600   45.3130 H   0  0  0  0  0  0  0  0  0  0  0  0
   42.3180    9.9370   47.7070 H   0  0  0  0  0  0  0  0  0  0  0  0
   40.7220    9.2440   47.1790 H   0  0  0  0  0  0  0  0  0  0  0  0
   43.3720    8.0340   47.1810 H   0  0  0  0  0  0  0  0  0  0  0  0
   41.8130    7.2300   46.8960 H   0  0  0  0  0  0  0  0  0  0  0  0
   43.8050    9.8190   46.0550 H   0  0  0  0  0  0  0  0  0  0  0  0
   43.3460   10.5970   44.4260 H   0  0  0  0  0  0  0  0  0  0  0  0
   43.1070   16.6230   47.0110 H   0  0  0  0  0  0  0  0  0  0  0  0
   44.1280   17.1810   49.1420 H   0  0  0  0  0  0  0  0  0  0  0  0
   45.1740   15.3830   50.4100 H   0  0  0  0  0  0  0  0  0  0  0  0
   45.0000   12.9750   49.6290 H   0  0  0  0  0  0  0  0  0  0  0  0
  1  5  1  0  0  0  0
  1  3  2  0  0  0  0
  1  4  1  0  0  0  0
  2  1  2  0  0  0  0
  4 31  1  0  0  0  0
  4 29  1  0  0  0  0
  5  6  2  0  0  0  0
  6  7  1  0  0  0  0
  7 15  1  0  0  0  0
  8 12  1  0  0  0  0
  8  7  2  0  0  0  0
  9  8  1  0  0  0  0
 10  9  2  0  0  0  0
 10  5  1  0  0  0  0
 11  9  1  0  0  0  0
 12 34  1  0  0  0  0
 12 13  1  0  0  0  0
 13 14  1  0  0  0  0
 14 36  1  0  0  0  0
 14 35  1  0  0  0  0
 15 38  1  0  0  0  0
 15 14  1  0  0  0  0
 15 37  1  0  0  0  0
 16 13  1  0  0  0  0
 16 39  1  0  0  0  0
 16 17  1  0  0  0  0
 17 18  2  0  0  0  0
 18 19  1  0  0  0  0
 18 28  1  0  0  0  0
 19 24  1  0  0  0  0
 20 21  1  0  0  0  0
 20 19  2  0  0  0  0
 21 22  2  0  0  0  0
 22 42  1  0  0  0  0
 22 23  1  0  0  0  0
 23 43  1  0  0  0  0
 24 23  2  0  0  0  0
 24 44  1  0  0  0  0
 25 20  1  0  0  0  0
 26 25  1  0  0  0  0
 26 17  1  0  0  0  0
 27 26  2  0  0  0  0
 30  4  1  0  0  0  0
 32 11  1  0  0  0  0
 33 12  1  0  0  0  0
 40 16  1  0  0  0  0
 41 21  1  0  0  0  0
M  END
>  <Pose>
1

>  <Score>
-5.89

$$$$
