
 OpenBabel03172210433D

 63 66  0  0  0  0  0  0  0  0999 V2000
   47.0490    4.8130   43.4340 S   0  0  0  0  0  0  0  0  0  0  0  0
   46.3250    3.5280   43.6690 O   0  0  0  0  0  0  0  0  0  0  0  0
   47.8320    4.7900   42.1460 O   0  0  0  0  0  0  0  0  0  0  0  0
   45.9480    6.1730   43.3540 C   0  0  0  0  0  0  0  0  0  0  0  0
   46.4030    7.4560   43.0790 C   0  0  0  0  0  0  0  0  0  0  0  0
   45.5180    8.4880   43.0270 N   0  0  0  0  0  0  0  0  0  0  0  0
   44.2040    8.3260   43.2320 C   0  0  0  0  0  0  0  0  0  0  0  0
   43.7570    7.0870   43.4990 N   0  0  0  0  0  0  0  0  0  0  0  0
   44.5920    6.0360   43.5610 C   0  0  0  0  0  0  0  0  0  0  0  0
   43.2780    9.4100   43.1820 N   0  0  0  0  0  0  0  0  0  0  0  0
   42.1140    9.3880   42.3310 C   0  0  0  0  0  0  0  0  0  0  0  0
   40.8160    9.6340   43.0500 C   0  0  0  0  0  0  0  0  0  0  0  0
   41.0120   10.4230   44.3340 C   0  0  0  0  0  0  0  0  0  0  0  0
   42.1870   11.3590   44.0050 C   0  0  0  0  0  0  0  0  0  0  0  0
   43.4710   10.6000   43.9920 C   0  0  0  0  0  0  0  0  0  0  0  0
   41.3350    9.6670   45.4470 N   0  0  0  0  0  0  0  0  0  0  0  0
   40.5550    8.5640   45.8560 C   0  0  0  0  0  0  0  0  0  0  0  0
   41.5100    7.5440   46.4980 C   0  0  0  0  0  0  0  0  0  0  0  0
   42.7270    8.2870   46.9760 C   0  0  0  0  0  0  0  0  0  0  0  0
   42.3870    9.6250   47.5820 C   0  0  0  0  0  0  0  0  0  0  0  0
   41.5710   10.4680   46.6170 C   0  0  0  0  0  0  0  0  0  0  0  0
   39.8340   11.3040   44.5060 C   0  0  0  0  0  0  0  0  0  0  0  0
   39.9520   12.5730   44.4260 O   0  0  0  0  0  0  0  0  0  0  0  0
   38.5440   10.8260   44.7620 N   0  0  0  0  0  0  0  0  0  0  0  0
   47.7830    7.6200   42.8650 N   0  0  0  0  0  0  0  0  0  0  0  0
   48.1910    5.1230   44.7490 C   0  0  0  0  0  0  0  0  0  0  0  0
   49.3160    4.3350   44.8870 C   0  0  0  0  0  0  0  0  0  0  0  0
   50.1790    4.6130   45.9270 C   0  0  0  0  0  0  0  0  0  0  0  0
   49.9360    5.6520   46.8190 C   0  0  0  0  0  0  0  0  0  0  0  0
   48.8020    6.4160   46.6480 C   0  0  0  0  0  0  0  0  0  0  0  0
   47.9200    6.1630   45.6170 C   0  0  0  0  0  0  0  0  0  0  0  0
   48.4780    7.7420   47.7730 Cl  0  0  0  0  0  0  0  0  0  0  0  0
   49.5210    3.3220   43.9920 O   0  0  0  0  0  0  0  0  0  0  0  0
   50.6500    2.4950   43.9450 C   0  0  0  0  0  0  0  0  0  0  0  0
   44.2270    5.0210   43.7790 H   0  0  0  0  0  0  0  0  0  0  0  0
   42.3080   10.1840   41.5490 H   0  0  0  0  0  0  0  0  0  0  0  0
   42.0590    8.4470   41.7310 H   0  0  0  0  0  0  0  0  0  0  0  0
   40.2160   10.2900   42.3810 H   0  0  0  0  0  0  0  0  0  0  0  0
   40.2110    8.7250   43.2030 H   0  0  0  0  0  0  0  0  0  0  0  0
   42.1720   12.2880   44.5720 H   0  0  0  0  0  0  0  0  0  0  0  0
   42.0250   11.6870   42.9270 H   0  0  0  0  0  0  0  0  0  0  0  0
   43.8840   10.3310   44.9720 H   0  0  0  0  0  0  0  0  0  0  0  0
   44.2610   11.1900   43.4280 H   0  0  0  0  0  0  0  0  0  0  0  0
   39.8800    8.8450   46.7210 H   0  0  0  0  0  0  0  0  0  0  0  0
   40.0000    8.0260   45.1010 H   0  0  0  0  0  0  0  0  0  0  0  0
   41.0080    6.9950   47.3280 H   0  0  0  0  0  0  0  0  0  0  0  0
   41.8120    6.8080   45.6950 H   0  0  0  0  0  0  0  0  0  0  0  0
   43.4080    8.4810   46.1040 H   0  0  0  0  0  0  0  0  0  0  0  0
   43.2800    7.7200   47.7630 H   0  0  0  0  0  0  0  0  0  0  0  0
   43.3590   10.1260   47.8250 H   0  0  0  0  0  0  0  0  0  0  0  0
   41.8880    9.4620   48.5520 H   0  0  0  0  0  0  0  0  0  0  0  0
   41.9760   11.4580   46.4680 H   0  0  0  0  0  0  0  0  0  0  0  0
   40.5660   10.5710   47.1330 H   0  0  0  0  0  0  0  0  0  0  0  0
   37.8660   10.7650   43.9540 H   0  0  0  0  0  0  0  0  0  0  0  0
   38.1680   10.5080   45.6770 H   0  0  0  0  0  0  0  0  0  0  0  0
   48.3380    7.0380   42.2030 H   0  0  0  0  0  0  0  0  0  0  0  0
   48.2920    8.3600   43.3900 H   0  0  0  0  0  0  0  0  0  0  0  0
   51.0760    4.0160   46.0720 H   0  0  0  0  0  0  0  0  0  0  0  0
   50.6360    5.8300   47.6110 H   0  0  0  0  0  0  0  0  0  0  0  0
   47.0190    6.7850   45.4950 H   0  0  0  0  0  0  0  0  0  0  0  0
   50.5780    1.7370   44.7430 H   0  0  0  0  0  0  0  0  0  0  0  0
   50.6260    1.9300   42.9760 H   0  0  0  0  0  0  0  0  0  0  0  0
   51.6080    3.0400   43.9530 H   0  0  0  0  0  0  0  0  0  0  0  0
  1  2  2  0  0  0  0
  1 26  1  0  0  0  0
  3  1  2  0  0  0  0
  4  1  1  0  0  0  0
  4  9  1  0  0  0  0
  5  4  2  0  0  0  0
  6  5  1  0  0  0  0
  6  7  2  0  0  0  0
  7  8  1  0  0  0  0
  8  9  2  0  0  0  0
  9 35  1  0  0  0  0
 10  7  1  0  0  0  0
 10 15  1  0  0  0  0
 11 12  1  0  0  0  0
 11 10  1  0  0  0  0
 12 39  1  0  0  0  0
 12 13  1  0  0  0  0
 13 22  1  0  0  0  0
 13 16  1  0  0  0  0
 14 13  1  0  0  0  0
 14 40  1  0  0  0  0
 15 14  1  0  0  0  0
 15 42  1  0  0  0  0
 16 17  1  0  0  0  0
 16 21  1  0  0  0  0
 17 18  1  0  0  0  0
 17 44  1  0  0  0  0
 18 19  1  0  0  0  0
 18 46  1  0  0  0  0
 19 20  1  0  0  0  0
 19 49  1  0  0  0  0
 20 50  1  0  0  0  0
 20 51  1  0  0  0  0
 21 53  1  0  0  0  0
 21 20  1  0  0  0  0
 22 24  1  0  0  0  0
 23 22  2  0  0  0  0
 24 55  1  0  0  0  0
 25  5  1  0  0  0  0
 25 57  1  0  0  0  0
 26 27  2  0  0  0  0
 26 31  1  0  0  0  0
 27 28  1  0  0  0  0
 28 58  1  0  0  0  0
 28 29  2  0  0  0  0
 29 59  1  0  0  0  0
 30 29  1  0  0  0  0
 30 32  1  0  0  0  0
 31 30  2  0  0  0  0
 33 27  1  0  0  0  0
 34 63  1  0  0  0  0
 34 33  1  0  0  0  0
 34 61  1  0  0  0  0
 36 11  1  0  0  0  0
 37 11  1  0  0  0  0
 38 12  1  0  0  0  0
 41 14  1  0  0  0  0
 43 15  1  0  0  0  0
 45 17  1  0  0  0  0
 47 18  1  0  0  0  0
 48 19  1  0  0  0  0
 52 21  1  0  0  0  0
 54 24  1  0  0  0  0
 56 25  1  0  0  0  0
 60 31  1  0  0  0  0
 62 34  1  0  0  0  0
M  END
>  <Pose>
1

>  <Score>
-7.06

$$$$
