
 OpenBabel03172210433D

 37 40  0  0  0  0  0  0  0  0999 V2000
   47.7440    2.2500   41.7770 B   0  0  0  0  0  0  0  0  0  0  0  0
   47.6590    3.7990   42.8940 C   0  0  0  0  0  0  0  0  0  0  0  0
   48.5710    3.9790   43.9120 C   0  0  0  0  0  0  0  0  0  0  0  0
   48.5280    5.0870   44.7270 C   0  0  0  0  0  0  0  0  0  0  0  0
   49.2710    5.5170   45.7750 N   0  0  0  0  0  0  0  0  0  0  0  0
   48.7610    6.6680   46.1760 N   0  0  0  0  0  0  0  0  0  0  0  0
   47.7310    7.0130   45.4530 N   0  0  0  0  0  0  0  0  0  0  0  0
   47.5540    6.0340   44.5260 C   0  0  0  0  0  0  0  0  0  0  0  0
   46.6350    5.8580   43.5060 C   0  0  0  0  0  0  0  0  0  0  0  0
   46.6850    4.7400   42.6870 C   0  0  0  0  0  0  0  0  0  0  0  0
   45.6120    6.8800   43.3130 C   0  0  0  0  0  0  0  0  0  0  0  0
   44.9060    6.8310   42.2870 O   0  0  0  0  0  0  0  0  0  0  0  0
   45.3910    7.9240   44.2460 N   0  0  0  0  0  0  0  0  0  0  0  0
   44.0710    8.2140   44.7490 C   0  0  0  0  0  0  0  0  0  0  0  0
   43.5540    9.4550   44.0740 C   0  0  0  0  0  0  0  0  0  0  0  0
   42.2710    9.8280   43.9380 N   0  0  0  0  0  0  0  0  0  0  0  0
   42.1840   11.0020   43.2760 C   0  0  0  0  0  0  0  0  0  0  0  0
   43.4420   11.3620   42.9970 N   0  0  0  0  0  0  0  0  0  0  0  0
   44.2740   10.4260   43.4790 N   0  0  0  0  0  0  0  0  0  0  0  0
   40.8110   11.5350   43.0550 C   0  0  0  0  0  0  0  0  0  0  0  0
   40.1790   11.5720   44.4540 C   0  0  0  0  0  0  0  0  0  0  0  0
   40.2440   10.2520   45.1500 C   0  0  0  0  0  0  0  0  0  0  0  0
   41.0220    9.2290   44.3520 C   0  0  0  0  0  0  0  0  0  0  0  0
   49.3390    3.2380   44.0750 H   0  0  0  0  0  0  0  0  0  0  0  0
   47.1040    7.8430   45.4930 H   0  0  0  0  0  0  0  0  0  0  0  0
   45.9410    4.6490   41.9020 H   0  0  0  0  0  0  0  0  0  0  0  0
   46.1890    8.4920   44.5750 H   0  0  0  0  0  0  0  0  0  0  0  0
   43.3870    7.3710   44.6570 H   0  0  0  0  0  0  0  0  0  0  0  0
   44.1910    8.4680   45.8370 H   0  0  0  0  0  0  0  0  0  0  0  0
   40.2450   10.8850   42.3770 H   0  0  0  0  0  0  0  0  0  0  0  0
   40.8360   12.6030   42.7260 H   0  0  0  0  0  0  0  0  0  0  0  0
   40.7890   12.3000   45.0230 H   0  0  0  0  0  0  0  0  0  0  0  0
   39.1480   11.9710   44.4070 H   0  0  0  0  0  0  0  0  0  0  0  0
   39.2350    9.8540   45.4170 H   0  0  0  0  0  0  0  0  0  0  0  0
   40.7750   10.3630   46.1170 H   0  0  0  0  0  0  0  0  0  0  0  0
   40.4430    9.0120   43.4260 H   0  0  0  0  0  0  0  0  0  0  0  0
   41.2030    8.3080   44.9170 H   0  0  0  0  0  0  0  0  0  0  0  0
  1  2  1  0  0  0  0
  2  3  1  0  0  0  0
  3 24  1  0  0  0  0
  3  4  2  0  0  0  0
  4  5  1  0  0  0  0
  5  6  2  0  0  0  0
  7 25  1  0  0  0  0
  7  6  1  0  0  0  0
  8  4  1  0  0  0  0
  8  7  1  0  0  0  0
  9  8  2  0  0  0  0
 10  2  2  0  0  0  0
 10  9  1  0  0  0  0
 11  9  1  0  0  0  0
 11 13  1  0  0  0  0
 12 11  2  0  0  0  0
 13 27  1  0  0  0  0
 13 14  1  0  0  0  0
 14 29  1  0  0  0  0
 15 14  1  0  0  0  0
 16 15  1  0  0  0  0
 16 23  1  0  0  0  0
 17 16  1  0  0  0  0
 18 17  2  0  0  0  0
 18 19  1  0  0  0  0
 19 15  2  0  0  0  0
 20 17  1  0  0  0  0
 20 21  1  0  0  0  0
 21 32  1  0  0  0  0
 21 22  1  0  0  0  0
 22 34  1  0  0  0  0
 22 35  1  0  0  0  0
 23 37  1  0  0  0  0
 23 22  1  0  0  0  0
 26 10  1  0  0  0  0
 28 14  1  0  0  0  0
 30 20  1  0  0  0  0
 31 20  1  0  0  0  0
 33 21  1  0  0  0  0
 36 23  1  0  0  0  0
M  END
>  <Pose>
1

>  <Score>
-6.43

$$$$
