
 OpenBabel03172210433D

 40 43  0  0  0  0  0  0  0  0999 V2000
   47.9460   18.5040   44.7260 Cl  0  0  0  0  0  0  0  0  0  0  0  0
   47.1330   16.9710   45.0400 C   0  0  0  0  0  0  0  0  0  0  0  0
   46.2040   16.8280   46.0490 C   0  0  0  0  0  0  0  0  0  0  0  0
   45.5980   15.6040   46.2490 C   0  0  0  0  0  0  0  0  0  0  0  0
   44.6680   15.1590   47.1380 N   0  0  0  0  0  0  0  0  0  0  0  0
   44.4210   13.8590   46.8960 C   0  0  0  0  0  0  0  0  0  0  0  0
   45.1710   13.4290   45.8600 N   0  0  0  0  0  0  0  0  0  0  0  0
   45.8860   14.5000   45.4720 C   0  0  0  0  0  0  0  0  0  0  0  0
   46.8110   14.6320   44.4620 C   0  0  0  0  0  0  0  0  0  0  0  0
   47.4120   15.8590   44.2690 C   0  0  0  0  0  0  0  0  0  0  0  0
   45.1710   12.0870   45.3170 C   0  0  0  0  0  0  0  0  0  0  0  0
   43.9500   11.8270   44.4620 C   0  0  0  0  0  0  0  0  0  0  0  0
   43.6760   10.3950   44.4950 N   0  0  0  0  0  0  0  0  0  0  0  0
   42.7520    9.8870   45.3430 C   0  0  0  0  0  0  0  0  0  0  0  0
   42.4700    8.5400   45.3990 C   0  0  0  0  0  0  0  0  0  0  0  0
   43.1830    7.6200   44.5220 C   0  0  0  0  0  0  0  0  0  0  0  0
   42.7070    6.3970   44.7960 N   0  0  0  0  0  0  0  0  0  0  0  0
   41.7700    6.4640   45.7540 N   0  0  0  0  0  0  0  0  0  0  0  0
   41.6150    7.7440   46.1290 C   0  0  0  0  0  0  0  0  0  0  0  0
   40.8090    8.1250   47.0080 O   0  0  0  0  0  0  0  0  0  0  0  0
   44.1210    8.1730   43.6670 C   0  0  0  0  0  0  0  0  0  0  0  0
   44.3170    9.5260   43.7000 C   0  0  0  0  0  0  0  0  0  0  0  0
   44.8550    7.2830   42.7750 C   0  0  0  0  0  0  0  0  0  0  0  0
   44.2300    6.6730   41.8710 O   0  0  0  0  0  0  0  0  0  0  0  0
   46.2060    7.0930   42.8970 O   0  0  0  0  0  0  0  0  0  0  0  0
   46.7780    5.7950   42.8900 C   0  0  0  0  0  0  0  0  0  0  0  0
   45.9730   17.6870   46.6630 H   0  0  0  0  0  0  0  0  0  0  0  0
   43.7220   13.2830   47.4660 H   0  0  0  0  0  0  0  0  0  0  0  0
   47.0350   13.7570   43.8510 H   0  0  0  0  0  0  0  0  0  0  0  0
   48.1400   15.9730   43.4780 H   0  0  0  0  0  0  0  0  0  0  0  0
   46.0720   11.8860   44.7010 H   0  0  0  0  0  0  0  0  0  0  0  0
   45.1760   11.3590   46.1470 H   0  0  0  0  0  0  0  0  0  0  0  0
   44.0990   12.1060   43.4150 H   0  0  0  0  0  0  0  0  0  0  0  0
   43.1030   12.4020   44.8690 H   0  0  0  0  0  0  0  0  0  0  0  0
   42.2160   10.5550   45.9990 H   0  0  0  0  0  0  0  0  0  0  0  0
   41.2710    5.6120   46.1140 H   0  0  0  0  0  0  0  0  0  0  0  0
   45.0620    9.9600   43.0200 H   0  0  0  0  0  0  0  0  0  0  0  0
   45.9650    5.0590   42.6830 H   0  0  0  0  0  0  0  0  0  0  0  0
   47.2500    5.5710   43.8790 H   0  0  0  0  0  0  0  0  0  0  0  0
   47.5090    5.6910   42.0560 H   0  0  0  0  0  0  0  0  0  0  0  0
  1  2  1  0  0  0  0
  2  3  1  0  0  0  0
  3  4  2  0  0  0  0
  3 27  1  0  0  0  0
  4  5  1  0  0  0  0
  6  5  2  0  0  0  0
  6 28  1  0  0  0  0
  7  6  1  0  0  0  0
  8  7  1  0  0  0  0
  8  4  1  0  0  0  0
  9  8  2  0  0  0  0
 10  9  1  0  0  0  0
 10  2  2  0  0  0  0
 11  7  1  0  0  0  0
 11 32  1  0  0  0  0
 12 13  1  0  0  0  0
 12 34  1  0  0  0  0
 12 11  1  0  0  0  0
 13 14  1  0  0  0  0
 14 15  1  0  0  0  0
 14 35  1  0  0  0  0
 15 19  1  0  0  0  0
 16 17  1  0  0  0  0
 16 15  2  0  0  0  0
 17 18  1  0  0  0  0
 18 36  1  0  0  0  0
 18 19  1  0  0  0  0
 19 20  2  0  0  0  0
 21 22  2  0  0  0  0
 21 16  1  0  0  0  0
 22 13  1  0  0  0  0
 23 25  1  0  0  0  0
 23 21  1  0  0  0  0
 24 23  2  0  0  0  0
 26 25  1  0  0  0  0
 26 39  1  0  0  0  0
 29  9  1  0  0  0  0
 30 10  1  0  0  0  0
 31 11  1  0  0  0  0
 33 12  1  0  0  0  0
 37 22  1  0  0  0  0
 38 26  1  0  0  0  0
 40 26  1  0  0  0  0
M  END
>  <Pose>
1

>  <Score>
-5.62

$$$$
