
 OpenBabel03172210433D

 55 59  0  0  1  0  0  0  0  0999 V2000
   51.3510    1.8840   46.8540 Cl  0  0  0  0  0  0  0  0  0  0  0  0
   50.4620    2.4720   45.4540 C   0  0  0  0  0  0  0  0  0  0  0  0
   49.3250    3.2330   45.5880 C   0  0  0  0  0  0  0  0  0  0  0  0
   48.6490    3.6800   44.4520 C   0  0  0  0  0  0  0  0  0  0  0  0
   47.5430    4.4200   44.2680 N   0  0  0  0  0  0  0  0  0  0  0  0
   47.2870    4.5840   42.9580 C   0  0  0  0  0  0  0  0  0  0  0  0
   48.2540    3.9320   42.3130 N   0  0  0  0  0  0  0  0  0  0  0  0
   49.1070    3.3660   43.1910 C   0  0  0  0  0  0  0  0  0  0  0  0
   50.2470    2.6020   43.0570 C   0  0  0  0  0  0  0  0  0  0  0  0
   50.9140    2.1620   44.2010 C   0  0  0  0  0  0  0  0  0  0  0  0
   46.1260    5.3580   42.4080 C   0  0  0  0  0  0  0  0  0  0  0  0
   46.2780    6.8130   42.7940 C   0  0  0  0  0  0  0  0  0  0  0  0
   45.2810    7.1830   43.8100 C   0  0  0  0  0  0  0  0  0  0  0  0
   45.3650    6.6980   44.9550 O   0  0  0  0  0  0  0  0  0  0  0  0
   44.2420    8.0740   43.4970 N   0  0  0  0  0  0  0  0  0  0  0  0
   43.9640    9.4040   43.9370 C   0  0  0  0  0  0  0  0  0  0  0  0
   42.4320    9.4270   44.1530 C   0  0  1  0  0  0  0  0  0  0  0  0
   42.0100    8.5150   43.0570 C   0  0  2  0  0  0  0  0  0  0  0  0
   43.1870    7.7500   42.5550 C   0  0  0  0  0  0  0  0  0  0  0  0
   41.4630    9.1830   41.9620 O   0  0  0  0  0  0  0  0  0  0  0  0
   42.1480    8.9420   45.4740 N   0  0  0  0  0  0  0  0  0  0  0  0
   42.3510    9.5640   46.6470 C   0  0  0  0  0  0  0  0  0  0  0  0
   41.9230    8.7150   47.6870 C   0  0  0  0  0  0  0  0  0  0  0  0
   41.4740    7.5980   47.0920 N   0  0  0  0  0  0  0  0  0  0  0  0
   41.6010    7.7170   45.7730 C   0  0  0  0  0  0  0  0  0  0  0  0
   42.0150    9.0980   49.0060 C   0  0  0  0  0  0  0  0  0  0  0  0
   41.6240    8.3160   49.9140 O   0  0  0  0  0  0  0  0  0  0  0  0
   42.5230   10.3080   49.2670 N   0  0  0  0  0  0  0  0  0  0  0  0
   42.9260   11.1060   48.2770 C   0  0  0  0  0  0  0  0  0  0  0  0
   43.4030   12.2410   48.5400 O   0  0  0  0  0  0  0  0  0  0  0  0
   42.8580   10.7750   46.9510 N   0  0  0  0  0  0  0  0  0  0  0  0
   43.3100   11.6810   45.9420 C   0  0  0  0  0  0  0  0  0  0  0  0
   42.6330   10.7450   50.6610 C   0  0  0  0  0  0  0  0  0  0  0  0
   48.9520    3.4890   46.5640 H   0  0  0  0  0  0  0  0  0  0  0  0
   46.9740    4.8050   45.0690 H   0  0  0  0  0  0  0  0  0  0  0  0
   50.6280    2.3410   42.0830 H   0  0  0  0  0  0  0  0  0  0  0  0
   51.8150    1.5580   44.1020 H   0  0  0  0  0  0  0  0  0  0  0  0
   45.2020    4.9260   42.8330 H   0  0  0  0  0  0  0  0  0  0  0  0
   46.0790    5.2620   41.3040 H   0  0  0  0  0  0  0  0  0  0  0  0
   46.2560    7.4530   41.9010 H   0  0  0  0  0  0  0  0  0  0  0  0
   47.3280    6.9060   43.2000 H   0  0  0  0  0  0  0  0  0  0  0  0
   44.1950   10.0670   43.0470 H   0  0  0  0  0  0  0  0  0  0  0  0
   44.5250    9.7930   44.7680 H   0  0  0  0  0  0  0  0  0  0  0  0
   42.2250   10.5050   43.9940 H   0  0  0  0  0  0  0  0  0  0  0  0
   41.3010    7.7400   43.4740 H   0  0  0  0  0  0  0  0  0  0  0  0
   43.0110    6.6570   42.4910 H   0  0  0  0  0  0  0  0  0  0  0  0
   43.4770    8.1150   41.5260 H   0  0  0  0  0  0  0  0  0  0  0  0
   41.0660    8.5470   41.3040 H   0  0  0  0  0  0  0  0  0  0  0  0
   41.3340    6.9960   45.0280 H   0  0  0  0  0  0  0  0  0  0  0  0
   42.5240   12.3400   45.5210 H   0  0  0  0  0  0  0  0  0  0  0  0
   43.9380   12.4590   46.5190 H   0  0  0  0  0  0  0  0  0  0  0  0
   44.0570   11.3080   45.2370 H   0  0  0  0  0  0  0  0  0  0  0  0
   41.9150   11.5710   50.8610 H   0  0  0  0  0  0  0  0  0  0  0  0
   42.4300    9.8950   51.3390 H   0  0  0  0  0  0  0  0  0  0  0  0
   43.6460   11.1600   50.8230 H   0  0  0  0  0  0  0  0  0  0  0  0
  2  3  1  0  0  0  0
  2  1  1  0  0  0  0
  3 34  1  0  0  0  0
  4  3  2  0  0  0  0
  5  4  1  0  0  0  0
  5 35  1  0  0  0  0
  6  5  1  0  0  0  0
  7  6  2  0  0  0  0
  7  8  1  0  0  0  0
  8  4  1  0  0  0  0
  9  8  2  0  0  0  0
  9 10  1  0  0  0  0
 10  2  2  0  0  0  0
 11 12  1  0  0  0  0
 11 38  1  0  0  0  0
 11  6  1  0  0  0  0
 12 41  1  0  0  0  0
 12 13  1  0  0  0  0
 13 14  2  0  0  0  0
 15 13  1  0  0  0  0
 15 16  1  0  0  0  0
 16 17  1  0  0  0  0
 16 43  1  0  0  0  0
 17 44  1  6  0  0  0
 17 21  1  0  0  0  0
 18 45  1  1  0  0  0
 18 17  1  0  0  0  0
 19 18  1  0  0  0  0
 19 15  1  0  0  0  0
 20 18  1  0  0  0  0
 21 25  1  0  0  0  0
 21 22  1  0  0  0  0
 22 31  1  0  0  0  0
 22 23  2  0  0  0  0
 23 26  1  0  0  0  0
 24 23  1  0  0  0  0
 25 24  2  0  0  0  0
 26 28  1  0  0  0  0
 26 27  2  0  0  0  0
 28 33  1  0  0  0  0
 29 30  2  0  0  0  0
 29 28  1  0  0  0  0
 31 29  1  0  0  0  0
 32 51  1  0  0  0  0
 32 31  1  0  0  0  0
 33 55  1  0  0  0  0
 33 53  1  0  0  0  0
 33 54  1  0  0  0  0
 36  9  1  0  0  0  0
 37 10  1  0  0  0  0
 39 11  1  0  0  0  0
 40 12  1  0  0  0  0
 42 16  1  0  0  0  0
 46 19  1  0  0  0  0
 47 19  1  0  0  0  0
 48 20  1  0  0  0  0
 49 25  1  0  0  0  0
 50 32  1  0  0  0  0
 52 32  1  0  0  0  0
M  END
>  <Pose>
1

>  <Score>
-7.17

$$$$
