
 OpenBabel03172210433D

 50 53  0  0  1  0  0  0  0  0999 V2000
   40.8500   14.5310   46.2620 Cl  0  0  0  0  0  0  0  0  0  0  0  0
   40.7740   13.2020   45.1520 C   0  0  0  0  0  0  0  0  0  0  0  0
   41.1990   11.9350   45.5270 C   0  0  0  0  0  0  0  0  0  0  0  0
   41.1450   10.8670   44.6550 C   0  0  0  0  0  0  0  0  0  0  0  0
   40.6580   11.0900   43.3970 C   0  0  0  0  0  0  0  0  0  0  0  0
   40.2190   12.3510   42.9810 C   0  0  0  0  0  0  0  0  0  0  0  0
   40.2860   13.3940   43.8770 C   0  0  0  0  0  0  0  0  0  0  0  0
   40.7000    9.8840   42.6450 N   0  0  0  0  0  0  0  0  0  0  0  0
   41.2420    8.8670   43.4740 C   0  0  0  0  0  0  0  0  0  0  0  0
   41.4250    7.6850   43.0360 O   0  0  0  0  0  0  0  0  0  0  0  0
   41.4980    9.4550   44.7820 C   0  0  2  0  0  0  0  0  0  0  0  0
   40.7320    8.7950   45.8420 N   0  0  0  0  0  0  0  0  0  0  0  0
   41.4820    7.5700   46.0070 C   0  0  1  0  0  0  0  0  0  0  0  0
   42.9240    7.9430   45.8940 C   0  0  2  0  0  0  0  0  0  0  0  0
   42.8860    9.3200   45.3030 C   0  0  1  0  0  0  0  0  0  0  0  0
   43.9470    9.3990   44.2690 C   0  0  0  0  0  0  0  0  0  0  0  0
   44.2230   10.4860   43.6970 O   0  0  0  0  0  0  0  0  0  0  0  0
   44.4970    8.1010   44.1150 N   0  0  0  0  0  0  0  0  0  0  0  0
   43.6390    7.1900   44.8130 C   0  0  0  0  0  0  0  0  0  0  0  0
   43.4800    5.9840   44.6010 O   0  0  0  0  0  0  0  0  0  0  0  0
   45.6750    7.7600   43.4110 C   0  0  0  0  0  0  0  0  0  0  0  0
   45.6120    6.7260   42.3570 C   0  0  0  0  0  0  0  0  0  0  0  0
   46.2140    5.4050   42.6460 C   0  0  0  0  0  0  0  0  0  0  0  0
   46.6110    4.6610   41.5450 O   0  0  0  0  0  0  0  0  0  0  0  0
   47.6730    3.8220   41.9630 C   0  0  0  0  0  0  0  0  0  0  0  0
   41.1530    6.8620   47.2970 C   0  0  1  0  0  0  0  0  0  0  0  0
   41.8850    5.6820   47.3300 O   0  0  0  0  0  0  0  0  0  0  0  0
   41.4610    7.6990   48.5120 C   0  0  0  0  0  0  0  0  0  0  0  0
   41.5900   11.7660   46.5400 H   0  0  0  0  0  0  0  0  0  0  0  0
   39.8320   12.5180   41.9780 H   0  0  0  0  0  0  0  0  0  0  0  0
   39.9380   14.3650   43.5250 H   0  0  0  0  0  0  0  0  0  0  0  0
   40.3810    9.7580   41.6400 H   0  0  0  0  0  0  0  0  0  0  0  0
   40.8850    9.3770   46.6960 H   0  0  0  0  0  0  0  0  0  0  0  0
   41.2260    6.8600   45.1970 H   0  0  0  0  0  0  0  0  0  0  0  0
   43.4930    7.8590   46.8210 H   0  0  0  0  0  0  0  0  0  0  0  0
   43.0370   10.1070   46.0830 H   0  0  0  0  0  0  0  0  0  0  0  0
   46.5460    7.5440   44.1060 H   0  0  0  0  0  0  0  0  0  0  0  0
   46.0350    8.7080   42.8940 H   0  0  0  0  0  0  0  0  0  0  0  0
   45.9460    7.0950   41.3510 H   0  0  0  0  0  0  0  0  0  0  0  0
   44.5060    6.5310   42.1790 H   0  0  0  0  0  0  0  0  0  0  0  0
   47.1350    5.4800   43.3000 H   0  0  0  0  0  0  0  0  0  0  0  0
   45.5110    4.7970   43.2680 H   0  0  0  0  0  0  0  0  0  0  0  0
   48.4590    4.5210   42.3170 H   0  0  0  0  0  0  0  0  0  0  0  0
   48.1170    3.2710   41.1150 H   0  0  0  0  0  0  0  0  0  0  0  0
   47.3710    3.1650   42.7820 H   0  0  0  0  0  0  0  0  0  0  0  0
   40.0920    6.6150   47.2970 H   0  0  0  0  0  0  0  0  0  0  0  0
   41.3540    4.9120   47.6580 H   0  0  0  0  0  0  0  0  0  0  0  0
   40.7720    8.5530   48.5910 H   0  0  0  0  0  0  0  0  0  0  0  0
   42.5280    7.9950   48.5660 H   0  0  0  0  0  0  0  0  0  0  0  0
   41.2750    7.0580   49.4010 H   0  0  0  0  0  0  0  0  0  0  0  0
  2  3  1  0  0  0  0
  2  1  1  0  0  0  0
  3 29  1  0  0  0  0
  4 11  1  0  0  0  0
  4  3  2  0  0  0  0
  5  4  1  0  0  0  0
  6  5  2  0  0  0  0
  6  7  1  0  0  0  0
  7  2  2  0  0  0  0
  8  5  1  0  0  0  0
  8  9  1  0  0  0  0
 10  9  2  0  0  0  0
 11  9  1  6  0  0  0
 11 15  1  0  0  0  0
 11 12  1  0  0  0  0
 12 13  1  0  0  0  0
 12 33  1  0  0  0  0
 13 34  1  6  0  0  0
 13 26  1  0  0  0  0
 14 13  1  0  0  0  0
 14 35  1  1  0  0  0
 15 14  1  0  0  0  0
 15 36  1  1  0  0  0
 16 15  1  0  0  0  0
 17 16  2  0  0  0  0
 18 16  1  0  0  0  0
 18 19  1  0  0  0  0
 19 14  1  0  0  0  0
 20 19  2  0  0  0  0
 21 37  1  0  0  0  0
 21 18  1  0  0  0  0
 22 23  1  0  0  0  0
 22 21  1  0  0  0  0
 23 42  1  0  0  0  0
 23 41  1  0  0  0  0
 24 25  1  0  0  0  0
 24 23  1  0  0  0  0
 25 43  1  0  0  0  0
 25 45  1  0  0  0  0
 26 46  1  1  0  0  0
 26 27  1  0  0  0  0
 26 28  1  0  0  0  0
 27 47  1  0  0  0  0
 28 49  1  0  0  0  0
 28 48  1  0  0  0  0
 28 50  1  0  0  0  0
 30  6  1  0  0  0  0
 31  7  1  0  0  0  0
 32  8  1  0  0  0  0
 38 21  1  0  0  0  0
 39 22  1  0  0  0  0
 40 22  1  0  0  0  0
 44 25  1  0  0  0  0
M  END
>  <Pose>
1

>  <Score>
-5.78

$$$$
