
 OpenBabel03172210433D

 30 33  0  0  1  0  0  0  0  0999 V2000
   45.0940    5.1390   43.8750 F   0  0  0  0  0  0  0  0  0  0  0  0
   44.7780    6.4750   43.9490 C   0  0  0  0  0  0  0  0  0  0  0  0
   43.5530    6.8440   44.5200 C   0  0  0  0  0  0  0  0  0  0  0  0
   43.2210    8.1620   44.6020 C   0  0  0  0  0  0  0  0  0  0  0  0
   44.0980    9.1430   44.1190 C   0  0  0  0  0  0  0  0  0  0  0  0
   45.2880    8.7550   43.5660 C   0  0  0  0  0  0  0  0  0  0  0  0
   45.6420    7.4310   43.4730 C   0  0  0  0  0  0  0  0  0  0  0  0
   47.1820    6.9350   42.7570 Cl  0  0  0  0  0  0  0  0  0  0  0  0
   41.8850    8.2750   45.2440 C   0  0  2  0  0  0  0  0  0  0  0  0
   40.9880    8.9410   44.3530 N   0  0  0  0  0  0  0  0  0  0  0  0
   40.8940   10.3490   44.3310 C   0  0  0  0  0  0  0  0  0  0  0  0
   40.3190   11.0170   43.2980 N   0  0  0  0  0  0  0  0  0  0  0  0
   40.2050   12.3470   43.2280 C   0  0  0  0  0  0  0  0  0  0  0  0
   40.6980   13.1250   44.2700 C   0  0  0  0  0  0  0  0  0  0  0  0
   41.2920   12.5300   45.3480 C   0  0  0  0  0  0  0  0  0  0  0  0
   41.3750   11.1550   45.3540 C   0  0  0  0  0  0  0  0  0  0  0  0
   41.9930   10.4210   46.4620 C   0  0  0  0  0  0  0  0  0  0  0  0
   42.4520   11.1230   47.4270 O   0  0  0  0  0  0  0  0  0  0  0  0
   42.0820    9.0180   46.4770 N   0  0  0  0  0  0  0  0  0  0  0  0
   41.4890    6.8890   45.5160 C   0  0  0  0  0  0  0  0  0  0  0  0
   40.3990    6.4860   46.0660 O   0  0  0  0  0  0  0  0  0  0  0  0
   42.5100    6.0310   45.0740 N   0  0  0  0  0  0  0  0  0  0  0  0
   43.8080   10.1950   44.1980 H   0  0  0  0  0  0  0  0  0  0  0  0
   45.9740    9.5020   43.1900 H   0  0  0  0  0  0  0  0  0  0  0  0
   40.3750    8.4030   43.6920 H   0  0  0  0  0  0  0  0  0  0  0  0
   39.7440   12.8610   42.3970 H   0  0  0  0  0  0  0  0  0  0  0  0
   40.6200   14.1960   44.2410 H   0  0  0  0  0  0  0  0  0  0  0  0
   41.6990   13.0670   46.1980 H   0  0  0  0  0  0  0  0  0  0  0  0
   42.2930    8.5570   47.3920 H   0  0  0  0  0  0  0  0  0  0  0  0
   42.5590    4.9790   45.1120 H   0  0  0  0  0  0  0  0  0  0  0  0
  1  2  1  0  0  0  0
  2  3  1  0  0  0  0
  3  4  2  0  0  0  0
  3 22  1  0  0  0  0
  5 23  1  0  0  0  0
  5  4  1  0  0  0  0
  6  5  2  0  0  0  0
  7  6  1  0  0  0  0
  7  2  2  0  0  0  0
  8  7  1  0  0  0  0
  9  4  1  6  0  0  0
  9 20  1  0  0  0  0
  9 19  1  0  0  0  0
 10  9  1  0  0  0  0
 11 10  1  0  0  0  0
 11 16  1  0  0  0  0
 12 11  2  0  0  0  0
 13 12  1  0  0  0  0
 13 14  2  0  0  0  0
 14 15  1  0  0  0  0
 15 16  2  0  0  0  0
 15 28  1  0  0  0  0
 16 17  1  0  0  0  0
 17 19  1  0  0  0  0
 17 18  2  0  0  0  0
 19 29  1  0  0  0  0
 20 21  2  0  0  0  0
 22 30  1  0  0  0  0
 22 20  1  0  0  0  0
 24  6  1  0  0  0  0
 25 10  1  0  0  0  0
 26 13  1  0  0  0  0
 27 14  1  0  0  0  0
M  END
>  <Pose>
1

>  <Score>
-5.02

$$$$
