
 OpenBabel03172210433D

 48 51  0  0  0  0  0  0  0  0999 V2000
   41.7830    8.5720   46.1510 S   0  0  0  0  0  0  0  0  0  0  0  0
   40.6560    7.8820   46.9060 O   0  0  0  0  0  0  0  0  0  0  0  0
   43.0560    8.1030   46.8290 O   0  0  0  0  0  0  0  0  0  0  0  0
   41.7860    8.0130   44.5680 N   0  0  0  0  0  0  0  0  0  0  0  0
   42.3390    8.8780   43.5850 C   0  0  0  0  0  0  0  0  0  0  0  0
   43.4180    8.2270   42.7550 C   0  0  0  0  0  0  0  0  0  0  0  0
   44.1750    7.2550   43.4990 N   0  0  0  0  0  0  0  0  0  0  0  0
   43.4770    6.2440   44.2560 C   0  0  0  0  0  0  0  0  0  0  0  0
   42.0350    6.6340   44.3590 C   0  0  0  0  0  0  0  0  0  0  0  0
   45.5920    7.2530   43.5170 C   0  0  0  0  0  0  0  0  0  0  0  0
   46.2060    7.6630   42.5140 O   0  0  0  0  0  0  0  0  0  0  0  0
   46.3600    6.7780   44.6900 C   0  0  0  0  0  0  0  0  0  0  0  0
   47.2250    5.6900   44.3390 N   0  0  0  0  0  0  0  0  0  0  0  0
   48.5000    5.3390   44.8580 C   0  0  0  0  0  0  0  0  0  0  0  0
   49.0920    5.9750   45.7580 O   0  0  0  0  0  0  0  0  0  0  0  0
   48.9650    4.1470   44.1680 C   0  0  0  0  0  0  0  0  0  0  0  0
   48.0170    3.7620   43.2490 C   0  0  0  0  0  0  0  0  0  0  0  0
   48.2430    2.6390   42.4650 C   0  0  0  0  0  0  0  0  0  0  0  0
   49.3900    1.9030   42.5820 C   0  0  0  0  0  0  0  0  0  0  0  0
   50.3600    2.2810   43.5100 C   0  0  0  0  0  0  0  0  0  0  0  0
   50.1130    3.4060   44.2830 C   0  0  0  0  0  0  0  0  0  0  0  0
   46.9160    4.7130   43.3370 C   0  0  0  0  0  0  0  0  0  0  0  0
   45.8880    4.6270   42.6150 O   0  0  0  0  0  0  0  0  0  0  0  0
   41.6900   10.2810   46.3430 C   0  0  0  0  0  0  0  0  0  0  0  0
   42.8250   11.0560   46.1770 C   0  0  0  0  0  0  0  0  0  0  0  0
   42.8060   12.4290   46.3190 C   0  0  0  0  0  0  0  0  0  0  0  0
   41.6020   13.0300   46.6380 C   0  0  0  0  0  0  0  0  0  0  0  0
   40.4790   12.2450   46.8010 C   0  0  0  0  0  0  0  0  0  0  0  0
   40.4830   10.8730   46.6620 C   0  0  0  0  0  0  0  0  0  0  0  0
   41.5050   14.9420   46.8510 B   0  0  0  0  0  0  0  0  0  0  0  0
   41.5060    9.1420   42.8690 H   0  0  0  0  0  0  0  0  0  0  0  0
   42.6660    9.8400   44.0310 H   0  0  0  0  0  0  0  0  0  0  0  0
   44.0840    9.0170   42.3620 H   0  0  0  0  0  0  0  0  0  0  0  0
   42.9580    7.7470   41.8520 H   0  0  0  0  0  0  0  0  0  0  0  0
   43.5040    5.2650   43.6920 H   0  0  0  0  0  0  0  0  0  0  0  0
   43.9760    6.1140   45.2290 H   0  0  0  0  0  0  0  0  0  0  0  0
   41.5020    6.0210   45.1080 H   0  0  0  0  0  0  0  0  0  0  0  0
   41.5600    6.3570   43.3710 H   0  0  0  0  0  0  0  0  0  0  0  0
   45.6060    6.4200   45.4450 H   0  0  0  0  0  0  0  0  0  0  0  0
   46.9500    7.6060   45.1450 H   0  0  0  0  0  0  0  0  0  0  0  0
   47.4890    2.3610   41.7560 H   0  0  0  0  0  0  0  0  0  0  0  0
   49.5650    1.0410   41.9810 H   0  0  0  0  0  0  0  0  0  0  0  0
   51.2710    1.7440   43.6430 H   0  0  0  0  0  0  0  0  0  0  0  0
   50.8710    3.6950   45.0010 H   0  0  0  0  0  0  0  0  0  0  0  0
   43.7970   10.6180   45.9230 H   0  0  0  0  0  0  0  0  0  0  0  0
   43.6780   13.0590   46.1940 H   0  0  0  0  0  0  0  0  0  0  0  0
   39.5130   12.7060   47.0550 H   0  0  0  0  0  0  0  0  0  0  0  0
   39.5650   10.2950   46.8030 H   0  0  0  0  0  0  0  0  0  0  0  0
  1 24  1  0  0  0  0
  1  3  2  0  0  0  0
  1  2  2  0  0  0  0
  4  1  1  0  0  0  0
  5 32  1  0  0  0  0
  5  4  1  0  0  0  0
  6  7  1  0  0  0  0
  6  5  1  0  0  0  0
  7 10  1  0  0  0  0
  7  8  1  0  0  0  0
  8  9  1  0  0  0  0
  8 36  1  0  0  0  0
  9  4  1  0  0  0  0
  9 37  1  0  0  0  0
 10 12  1  0  0  0  0
 11 10  2  0  0  0  0
 12 40  1  0  0  0  0
 12 39  1  0  0  0  0
 13 12  1  0  0  0  0
 13 14  1  0  0  0  0
 14 15  2  0  0  0  0
 16 21  1  0  0  0  0
 16 14  1  0  0  0  0
 17 22  1  0  0  0  0
 17 16  2  0  0  0  0
 18 19  2  0  0  0  0
 18 17  1  0  0  0  0
 19 20  1  0  0  0  0
 20 43  1  0  0  0  0
 20 21  2  0  0  0  0
 21 44  1  0  0  0  0
 22 13  1  0  0  0  0
 23 22  2  0  0  0  0
 24 29  1  0  0  0  0
 25 26  1  0  0  0  0
 25 24  2  0  0  0  0
 26 27  2  0  0  0  0
 27 28  1  0  0  0  0
 27 30  1  0  0  0  0
 28 47  1  0  0  0  0
 29 28  2  0  0  0  0
 29 48  1  0  0  0  0
 31  5  1  0  0  0  0
 33  6  1  0  0  0  0
 34  6  1  0  0  0  0
 35  8  1  0  0  0  0
 38  9  1  0  0  0  0
 41 18  1  0  0  0  0
 42 19  1  0  0  0  0
 45 25  1  0  0  0  0
 46 26  1  0  0  0  0
M  END
>  <Pose>
1

>  <Score>
-5.95

$$$$
