
 OpenBabel03172210433D

 51 55  0  0  1  0  0  0  0  0999 V2000
   47.2630    3.8490   42.8710 Cl  0  0  0  0  0  0  0  0  0  0  0  0
   46.3110    5.1570   42.2060 C   0  0  0  0  0  0  0  0  0  0  0  0
   45.8070    6.0980   43.1050 C   0  0  0  0  0  0  0  0  0  0  0  0
   45.0510    7.1430   42.6210 C   0  0  0  0  0  0  0  0  0  0  0  0
   44.8270    7.2070   41.2450 C   0  0  0  0  0  0  0  0  0  0  0  0
   45.3280    6.2720   40.3650 C   0  0  0  0  0  0  0  0  0  0  0  0
   46.0850    5.2270   40.8500 C   0  0  0  0  0  0  0  0  0  0  0  0
   44.6140    8.0160   43.7100 C   0  0  1  0  0  0  0  0  0  0  0  0
   45.0300    9.3940   43.5310 N   0  0  0  0  0  0  0  0  0  0  0  0
   44.1170   10.1780   44.3530 C   0  0  2  0  0  0  0  0  0  0  0  0
   42.7970    9.4590   44.3190 C   0  0  1  0  0  0  0  0  0  0  0  0
   43.1110    8.0530   43.8720 C   0  0  2  0  0  0  0  0  0  0  0  0
   42.6570    7.1660   44.9730 C   0  0  0  0  0  0  0  0  0  0  0  0
   42.9000    5.9270   44.9670 O   0  0  0  0  0  0  0  0  0  0  0  0
   41.9580    7.9310   45.9400 N   0  0  0  0  0  0  0  0  0  0  0  0
   42.3060    9.2910   45.7310 C   0  0  0  0  0  0  0  0  0  0  0  0
   42.2410   10.2540   46.5460 O   0  0  0  0  0  0  0  0  0  0  0  0
   41.0730    7.4310   46.9290 C   0  0  0  0  0  0  0  0  0  0  0  0
   41.3130    7.8450   48.3270 C   0  0  2  0  0  0  0  0  0  0  0  0
   41.9400    6.9010   49.1250 O   0  0  0  0  0  0  0  0  0  0  0  0
   42.1150    7.6230   50.3060 C   0  0  0  0  0  0  0  0  0  0  0  0
   40.7690    8.3230   50.5370 C   0  0  0  0  0  0  0  0  0  0  0  0
   40.1340    8.2360   49.1390 C   0  0  0  0  0  0  0  0  0  0  0  0
   44.0270   11.5670   43.7930 C   0  0  0  0  0  0  0  0  0  0  0  0
   44.2050   12.5150   44.9390 C   0  0  0  0  0  0  0  0  0  0  0  0
   43.8120   13.6960   44.7580 O   0  0  0  0  0  0  0  0  0  0  0  0
   44.7840   12.1230   46.1720 N   0  0  0  0  0  0  0  0  0  0  0  0
   45.1850    7.4110   44.9240 C   0  0  0  0  0  0  0  0  0  0  0  0
   45.0750    7.8330   46.1330 O   0  0  0  0  0  0  0  0  0  0  0  0
   45.8940    6.2540   44.5160 N   0  0  0  0  0  0  0  0  0  0  0  0
   44.2390    8.0080   40.8080 H   0  0  0  0  0  0  0  0  0  0  0  0
   45.1520    6.3250   39.2980 H   0  0  0  0  0  0  0  0  0  0  0  0
   46.4710    4.5020   40.1440 H   0  0  0  0  0  0  0  0  0  0  0  0
   44.9890    9.6880   42.5290 H   0  0  0  0  0  0  0  0  0  0  0  0
   44.5370   10.1780   45.3730 H   0  0  0  0  0  0  0  0  0  0  0  0
   42.0690    9.9710   43.6880 H   0  0  0  0  0  0  0  0  0  0  0  0
   42.6020    7.8270   42.9370 H   0  0  0  0  0  0  0  0  0  0  0  0
   40.0080    7.7280   46.6900 H   0  0  0  0  0  0  0  0  0  0  0  0
   41.0140    6.3020   46.9360 H   0  0  0  0  0  0  0  0  0  0  0  0
   42.0000    8.7260   48.2990 H   0  0  0  0  0  0  0  0  0  0  0  0
   42.8790    8.4090   50.2090 H   0  0  0  0  0  0  0  0  0  0  0  0
   42.3910    6.9800   51.1570 H   0  0  0  0  0  0  0  0  0  0  0  0
   40.2160    7.7630   51.2850 H   0  0  0  0  0  0  0  0  0  0  0  0
   40.9190    9.3990   50.7900 H   0  0  0  0  0  0  0  0  0  0  0  0
   39.3360    7.5000   49.2280 H   0  0  0  0  0  0  0  0  0  0  0  0
   39.7300    9.2400   48.8710 H   0  0  0  0  0  0  0  0  0  0  0  0
   43.0100   11.6790   43.3580 H   0  0  0  0  0  0  0  0  0  0  0  0
   44.7940   11.7170   43.0250 H   0  0  0  0  0  0  0  0  0  0  0  0
   44.7870   12.8100   46.9510 H   0  0  0  0  0  0  0  0  0  0  0  0
   45.2060   11.1900   46.3480 H   0  0  0  0  0  0  0  0  0  0  0  0
   46.4150    5.5950   45.1560 H   0  0  0  0  0  0  0  0  0  0  0  0
  2  1  1  0  0  0  0
  2  3  1  0  0  0  0
  3 30  1  0  0  0  0
  4  3  2  0  0  0  0
  5  4  1  0  0  0  0
  6  7  1  0  0  0  0
  6  5  2  0  0  0  0
  7  2  2  0  0  0  0
  8  4  1  6  0  0  0
  8 12  1  0  0  0  0
  8 28  1  0  0  0  0
  9  8  1  0  0  0  0
  9 10  1  0  0  0  0
 10 35  1  1  0  0  0
 11 36  1  6  0  0  0
 11 10  1  0  0  0  0
 11 16  1  0  0  0  0
 12 37  1  6  0  0  0
 12 11  1  0  0  0  0
 12 13  1  0  0  0  0
 13 15  1  0  0  0  0
 14 13  2  0  0  0  0
 15 18  1  0  0  0  0
 16 15  1  0  0  0  0
 16 17  2  0  0  0  0
 18 39  1  0  0  0  0
 18 19  1  0  0  0  0
 19 40  1  6  0  0  0
 19 20  1  0  0  0  0
 19 23  1  0  0  0  0
 20 21  1  0  0  0  0
 21 22  1  0  0  0  0
 21 42  1  0  0  0  0
 22 44  1  0  0  0  0
 22 43  1  0  0  0  0
 23 45  1  0  0  0  0
 23 22  1  0  0  0  0
 24 10  1  0  0  0  0
 24 25  1  0  0  0  0
 25 27  1  0  0  0  0
 26 25  2  0  0  0  0
 27 50  1  0  0  0  0
 27 49  1  0  0  0  0
 28 29  2  0  0  0  0
 30 28  1  0  0  0  0
 30 51  1  0  0  0  0
 31  5  1  0  0  0  0
 32  6  1  0  0  0  0
 33  7  1  0  0  0  0
 34  9  1  0  0  0  0
 38 18  1  0  0  0  0
 41 21  1  0  0  0  0
 46 23  1  0  0  0  0
 47 24  1  0  0  0  0
 48 24  1  0  0  0  0
M  END
>  <Pose>
1

>  <Score>
-5.88

$$$$
