
 OpenBabel03172210433D

 47 50  0  0  1  0  0  0  0  0999 V2000
   37.3740   12.1660   45.3540 Cl  0  0  0  0  0  0  0  0  0  0  0  0
   39.0660   11.8270   45.1090 C   0  0  0  0  0  0  0  0  0  0  0  0
   39.5350   10.5380   45.0690 C   0  0  0  0  0  0  0  0  0  0  0  0
   40.8700   10.2300   44.8710 C   0  0  0  0  0  0  0  0  0  0  0  0
   41.7480   11.2580   44.7100 C   0  0  0  0  0  0  0  0  0  0  0  0
   41.3250   12.5840   44.7420 C   0  0  0  0  0  0  0  0  0  0  0  0
   39.9850   12.8480   44.9420 C   0  0  0  0  0  0  0  0  0  0  0  0
   41.3240    8.8810   44.8510 N   0  0  0  0  0  0  0  0  0  0  0  0
   41.2910    8.1630   46.0830 C   0  0  0  0  0  0  0  0  0  0  0  0
   40.8730    8.6500   47.1610 O   0  0  0  0  0  0  0  0  0  0  0  0
   41.7570    6.8150   46.0890 N   0  0  0  0  0  0  0  0  0  0  0  0
   42.2400    6.2300   44.8700 C   0  0  0  0  0  0  0  0  0  0  0  0
   42.4140    4.9660   44.8920 O   0  0  0  0  0  0  0  0  0  0  0  0
   42.5220    7.0280   43.6630 C   0  0  1  0  0  0  0  0  0  0  0  0
   41.7930    8.3200   43.6320 C   0  0  0  0  0  0  0  0  0  0  0  0
   41.6160    8.8770   42.5210 O   0  0  0  0  0  0  0  0  0  0  0  0
   44.0070    7.2720   43.5230 C   0  0  0  0  0  0  0  0  0  0  0  0
   44.6520    7.2690   42.3710 C   0  0  0  0  0  0  0  0  0  0  0  0
   46.0640    7.5440   42.7160 C   0  0  1  0  0  0  0  0  0  0  0  0
   45.9290    8.3270   43.9310 N   0  0  0  0  0  0  0  0  0  0  0  0
   44.9240    7.5650   44.5770 N   0  0  0  0  0  0  0  0  0  0  0  0
   46.7990    6.2770   42.9850 C   0  0  0  0  0  0  0  0  0  0  0  0
   46.8940    5.2260   42.1180 C   0  0  0  0  0  0  0  0  0  0  0  0
   47.6210    4.0870   42.4000 C   0  0  0  0  0  0  0  0  0  0  0  0
   48.2940    3.9690   43.6020 C   0  0  0  0  0  0  0  0  0  0  0  0
   48.1930    5.0530   44.4900 C   0  0  0  0  0  0  0  0  0  0  0  0
   47.4630    6.1790   44.1920 C   0  0  0  0  0  0  0  0  0  0  0  0
   49.0320    2.8530   43.9160 O   0  0  0  0  0  0  0  0  0  0  0  0
   50.2940    2.6050   43.3330 C   0  0  0  0  0  0  0  0  0  0  0  0
   47.6850    3.0320   41.4730 O   0  0  0  0  0  0  0  0  0  0  0  0
   38.8500    9.6910   45.1930 H   0  0  0  0  0  0  0  0  0  0  0  0
   42.8080   11.0530   44.5520 H   0  0  0  0  0  0  0  0  0  0  0  0
   42.0680   13.3400   44.6110 H   0  0  0  0  0  0  0  0  0  0  0  0
   39.6770   13.8740   44.9660 H   0  0  0  0  0  0  0  0  0  0  0  0
   41.7620    6.2270   46.9630 H   0  0  0  0  0  0  0  0  0  0  0  0
   42.1330    6.4370   42.8010 H   0  0  0  0  0  0  0  0  0  0  0  0
   44.2100    7.1000   41.4040 H   0  0  0  0  0  0  0  0  0  0  0  0
   46.5990    8.1270   41.9390 H   0  0  0  0  0  0  0  0  0  0  0  0
   46.7860    8.4370   44.4800 H   0  0  0  0  0  0  0  0  0  0  0  0
   44.8070    7.2580   45.5430 H   0  0  0  0  0  0  0  0  0  0  0  0
   46.3930    5.2760   41.1840 H   0  0  0  0  0  0  0  0  0  0  0  0
   48.7310    4.9250   45.4210 H   0  0  0  0  0  0  0  0  0  0  0  0
   47.4400    6.9760   44.9440 H   0  0  0  0  0  0  0  0  0  0  0  0
   50.2340    2.6910   42.2140 H   0  0  0  0  0  0  0  0  0  0  0  0
   50.6140    1.5380   43.5060 H   0  0  0  0  0  0  0  0  0  0  0  0
   51.0820    3.2940   43.6750 H   0  0  0  0  0  0  0  0  0  0  0  0
   47.3410    3.2020   40.5330 H   0  0  0  0  0  0  0  0  0  0  0  0
  2  1  1  0  0  0  0
  3  2  1  0  0  0  0
  3 31  1  0  0  0  0
  4  3  2  0  0  0  0
  5  6  2  0  0  0  0
  5  4  1  0  0  0  0
  6  7  1  0  0  0  0
  7 34  1  0  0  0  0
  7  2  2  0  0  0  0
  8  4  1  0  0  0  0
  8  9  1  0  0  0  0
  9 11  1  0  0  0  0
  9 10  2  0  0  0  0
 11 35  1  0  0  0  0
 12 13  2  0  0  0  0
 12 11  1  0  0  0  0
 14 36  1  6  0  0  0
 14 12  1  0  0  0  0
 15 14  1  0  0  0  0
 15  8  1  0  0  0  0
 16 15  2  0  0  0  0
 17 14  1  0  0  0  0
 17 21  1  0  0  0  0
 18 19  1  0  0  0  0
 18 17  2  0  0  0  0
 19 38  1  6  0  0  0
 19 22  1  0  0  0  0
 19 20  1  0  0  0  0
 20 39  1  0  0  0  0
 20 21  1  0  0  0  0
 21 40  1  0  0  0  0
 22 27  1  0  0  0  0
 23 24  1  0  0  0  0
 23 22  2  0  0  0  0
 24 25  2  0  0  0  0
 25 28  1  0  0  0  0
 25 26  1  0  0  0  0
 26 42  1  0  0  0  0
 27 26  2  0  0  0  0
 27 43  1  0  0  0  0
 29 45  1  0  0  0  0
 29 46  1  0  0  0  0
 29 28  1  0  0  0  0
 30 24  1  0  0  0  0
 32  5  1  0  0  0  0
 33  6  1  0  0  0  0
 37 18  1  0  0  0  0
 41 23  1  0  0  0  0
 44 29  1  0  0  0  0
 47 30  1  0  0  0  0
M  END
>  <Pose>
1

>  <Score>
-7.06

$$$$
