
 OpenBabel03172210433D

 39 42  0  0  0  0  0  0  0  0999 V2000
   51.2640    1.0320   42.7910 Cl  0  0  0  0  0  0  0  0  0  0  0  0
   49.9320    2.1810   42.9840 C   0  0  0  0  0  0  0  0  0  0  0  0
   48.8350    2.1340   42.1590 C   0  0  0  0  0  0  0  0  0  0  0  0
   47.8020    3.0300   42.3110 C   0  0  0  0  0  0  0  0  0  0  0  0
   47.7850    4.0300   43.2900 C   0  0  0  0  0  0  0  0  0  0  0  0
   48.8970    4.0530   44.1020 C   0  0  0  0  0  0  0  0  0  0  0  0
   49.9600    3.1440   43.9570 C   0  0  0  0  0  0  0  0  0  0  0  0
   46.6440    4.8940   43.4030 C   0  0  0  0  0  0  0  0  0  0  0  0
   45.5540    4.2760   43.7860 O   0  0  0  0  0  0  0  0  0  0  0  0
   46.4940    6.2540   43.1810 N   0  0  0  0  0  0  0  0  0  0  0  0
   47.1700    7.3800   43.7350 C   0  0  0  0  0  0  0  0  0  0  0  0
   46.2100    7.9320   44.8080 C   0  0  0  0  0  0  0  0  0  0  0  0
   44.8490    7.8670   44.2430 N   0  0  0  0  0  0  0  0  0  0  0  0
   44.7150    7.8900   42.8150 C   0  0  0  0  0  0  0  0  0  0  0  0
   45.4000    6.6650   42.2390 C   0  0  0  0  0  0  0  0  0  0  0  0
   43.7300    7.7900   45.1220 C   0  0  0  0  0  0  0  0  0  0  0  0
   43.6300    8.5980   46.2010 N   0  0  0  0  0  0  0  0  0  0  0  0
   42.6090    8.5530   47.0370 N   0  0  0  0  0  0  0  0  0  0  0  0
   41.5880    7.6980   46.8800 C   0  0  0  0  0  0  0  0  0  0  0  0
   40.6810    7.8630   47.8740 N   0  0  0  0  0  0  0  0  0  0  0  0
   41.1370    8.8240   48.6550 N   0  0  0  0  0  0  0  0  0  0  0  0
   42.3110    9.2590   48.1640 C   0  0  0  0  0  0  0  0  0  0  0  0
   41.6170    6.8370   45.7970 C   0  0  0  0  0  0  0  0  0  0  0  0
   42.6920    6.9040   44.9420 C   0  0  0  0  0  0  0  0  0  0  0  0
   48.8180    1.3720   41.3930 H   0  0  0  0  0  0  0  0  0  0  0  0
   46.9600    2.9640   41.6450 H   0  0  0  0  0  0  0  0  0  0  0  0
   48.9540    4.7710   44.8960 H   0  0  0  0  0  0  0  0  0  0  0  0
   50.8230    3.1930   44.6170 H   0  0  0  0  0  0  0  0  0  0  0  0
   48.1920    7.3020   44.0310 H   0  0  0  0  0  0  0  0  0  0  0  0
   47.1290    8.2270   42.9480 H   0  0  0  0  0  0  0  0  0  0  0  0
   46.4670    8.9740   45.0760 H   0  0  0  0  0  0  0  0  0  0  0  0
   46.3150    7.2520   45.6630 H   0  0  0  0  0  0  0  0  0  0  0  0
   45.2160    8.7690   42.3500 H   0  0  0  0  0  0  0  0  0  0  0  0
   43.6480    7.8180   42.5210 H   0  0  0  0  0  0  0  0  0  0  0  0
   45.8630    6.8580   41.2550 H   0  0  0  0  0  0  0  0  0  0  0  0
   44.7060    5.8170   42.1310 H   0  0  0  0  0  0  0  0  0  0  0  0
   42.9330   10.0460   48.5870 H   0  0  0  0  0  0  0  0  0  0  0  0
   40.8100    6.1270   45.6310 H   0  0  0  0  0  0  0  0  0  0  0  0
   42.7580    6.2370   44.0690 H   0  0  0  0  0  0  0  0  0  0  0  0
  1  2  1  0  0  0  0
  2  7  1  0  0  0  0
  3  4  1  0  0  0  0
  3  2  2  0  0  0  0
  4  5  2  0  0  0  0
  5  8  1  0  0  0  0
  5  6  1  0  0  0  0
  6 27  1  0  0  0  0
  7  6  2  0  0  0  0
  7 28  1  0  0  0  0
  8  9  2  0  0  0  0
 10  8  1  0  0  0  0
 10 11  1  0  0  0  0
 11 29  1  0  0  0  0
 11 12  1  0  0  0  0
 12 31  1  0  0  0  0
 12 32  1  0  0  0  0
 13 12  1  0  0  0  0
 13 16  1  0  0  0  0
 14 13  1  0  0  0  0
 15 14  1  0  0  0  0
 15 10  1  0  0  0  0
 16 17  2  0  0  0  0
 17 18  1  0  0  0  0
 18 22  1  0  0  0  0
 19 18  1  0  0  0  0
 19 20  2  0  0  0  0
 20 21  1  0  0  0  0
 22 37  1  0  0  0  0
 22 21  2  0  0  0  0
 23 19  1  0  0  0  0
 24 16  1  0  0  0  0
 24 23  2  0  0  0  0
 25  3  1  0  0  0  0
 26  4  1  0  0  0  0
 30 11  1  0  0  0  0
 33 14  1  0  0  0  0
 34 14  1  0  0  0  0
 35 15  1  0  0  0  0
 36 15  1  0  0  0  0
 38 23  1  0  0  0  0
 39 24  1  0  0  0  0
M  END
>  <Pose>
1

>  <Score>
-5.56

$$$$
