
 OpenBabel03172210433D

 42 45  0  0  1  0  0  0  0  0999 V2000
   43.7510   12.2240   42.6320 Cl  0  0  0  0  0  0  0  0  0  0  0  0
   43.2920   10.7220   43.4340 C   0  0  0  0  0  0  0  0  0  0  0  0
   44.0370    9.5710   43.2430 C   0  0  0  0  0  0  0  0  0  0  0  0
   43.6920    8.4000   43.8590 C   0  0  1  0  0  0  0  0  0  0  0  0
   42.5810    8.4250   44.6680 C   0  0  0  0  0  0  0  0  0  0  0  0
   41.8260    9.5500   44.8740 C   0  0  0  0  0  0  0  0  0  0  0  0
   42.1870   10.7290   44.2440 C   0  0  0  0  0  0  0  0  0  0  0  0
   42.1780    7.1790   45.3490 C   0  0  0  0  0  0  0  0  0  0  0  0
   41.2120    6.8890   46.1490 N   0  0  0  0  0  0  0  0  0  0  0  0
   41.2390    5.5140   46.5550 C   0  0  0  0  0  0  0  0  0  0  0  0
   42.4270    4.9330   45.8610 C   0  0  0  0  0  0  0  0  0  0  0  0
   42.9820    6.0360   45.1120 N   0  0  0  0  0  0  0  0  0  0  0  0
   44.1330    6.0660   44.2570 C   0  0  0  0  0  0  0  0  0  0  0  0
   45.0210    5.1290   43.8930 N   0  0  0  0  0  0  0  0  0  0  0  0
   45.9190    5.6470   43.0730 N   0  0  0  0  0  0  0  0  0  0  0  0
   45.5730    6.9380   42.9280 C   0  0  0  0  0  0  0  0  0  0  0  0
   46.2020    7.7550   42.2130 O   0  0  0  0  0  0  0  0  0  0  0  0
   44.4610    7.2240   43.6570 N   0  0  0  0  0  0  0  0  0  0  0  0
   47.0550    4.9820   42.4440 C   0  0  0  0  0  0  0  0  0  0  0  0
   47.9500    4.4570   43.5020 C   0  0  0  0  0  0  0  0  0  0  0  0
   48.3160    5.2340   44.4280 O   0  0  0  0  0  0  0  0  0  0  0  0
   48.4150    3.1160   43.5190 N   0  0  0  0  0  0  0  0  0  0  0  0
   49.8300    2.8240   43.5400 C   0  0  0  0  0  0  0  0  0  0  0  0
   50.2570    2.3370   44.9280 C   0  0  0  0  0  0  0  0  0  0  0  0
   50.0460    1.6440   42.6030 C   0  0  0  0  0  0  0  0  0  0  0  0
   44.8920    9.6030   42.6040 H   0  0  0  0  0  0  0  0  0  0  0  0
   40.9490    9.5820   45.5090 H   0  0  0  0  0  0  0  0  0  0  0  0
   41.5840   11.6370   44.4080 H   0  0  0  0  0  0  0  0  0  0  0  0
   41.3960    5.4990   47.6640 H   0  0  0  0  0  0  0  0  0  0  0  0
   40.2900    4.9880   46.2990 H   0  0  0  0  0  0  0  0  0  0  0  0
   43.1660    4.4870   46.5580 H   0  0  0  0  0  0  0  0  0  0  0  0
   42.0890    4.1860   45.0960 H   0  0  0  0  0  0  0  0  0  0  0  0
   46.6500    4.1080   41.9020 H   0  0  0  0  0  0  0  0  0  0  0  0
   47.5680    5.6220   41.7110 H   0  0  0  0  0  0  0  0  0  0  0  0
   47.6990    2.3610   43.5160 H   0  0  0  0  0  0  0  0  0  0  0  0
   50.4380    3.6760   43.2020 H   0  0  0  0  0  0  0  0  0  0  0  0
   49.3760    1.7930   45.3380 H   0  0  0  0  0  0  0  0  0  0  0  0
   51.1230    1.6780   44.7760 H   0  0  0  0  0  0  0  0  0  0  0  0
   50.5130    3.2130   45.5720 H   0  0  0  0  0  0  0  0  0  0  0  0
   49.7820    0.7330   43.1770 H   0  0  0  0  0  0  0  0  0  0  0  0
   51.1020    1.5480   42.2960 H   0  0  0  0  0  0  0  0  0  0  0  0
   49.3490    1.7380   41.7590 H   0  0  0  0  0  0  0  0  0  0  0  0
  1  2  1  0  0  0  0
  2  7  1  0  0  0  0
  3  2  2  0  0  0  0
  4  3  1  6  0  0  0
  4  5  1  0  0  0  0
  5  6  1  0  0  0  0
  5  8  2  0  0  0  0
  6 27  1  0  0  0  0
  7 28  1  0  0  0  0
  7  6  2  0  0  0  0
  8  9  1  0  0  0  0
  9 10  1  0  0  0  0
 10 29  1  0  0  0  0
 11 10  1  0  0  0  0
 11 31  1  0  0  0  0
 12  8  1  0  0  0  0
 12 11  1  0  0  0  0
 13 12  1  0  0  0  0
 14 13  2  0  0  0  0
 15 14  1  0  0  0  0
 16 15  1  0  0  0  0
 16 18  1  0  0  0  0
 17 16  2  0  0  0  0
 18  4  1  0  0  0  0
 18 13  1  0  0  0  0
 19 15  1  0  0  0  0
 19 20  1  0  0  0  0
 20 22  1  0  0  0  0
 20 21  2  0  0  0  0
 22 23  1  0  0  0  0
 23 24  1  0  0  0  0
 24 37  1  0  0  0  0
 24 39  1  0  0  0  0
 25 40  1  0  0  0  0
 25 23  1  0  0  0  0
 26  3  1  0  0  0  0
 30 10  1  0  0  0  0
 32 11  1  0  0  0  0
 33 19  1  0  0  0  0
 34 19  1  0  0  0  0
 35 22  1  0  0  0  0
 36 23  1  0  0  0  0
 38 24  1  0  0  0  0
 41 25  1  0  0  0  0
 42 25  1  0  0  0  0
M  END
>  <Pose>
1

>  <Score>
-5.29

$$$$
