
 OpenBabel03172210433D

 43 46  0  0  1  0  0  0  0  0999 V2000
   51.9730   -0.5440   42.3600 Cl  0  0  0  0  0  0  0  0  0  0  0  0
   51.6620    0.7350   43.5360 C   0  0  0  0  0  0  0  0  0  0  0  0
   50.6520    1.6590   43.2550 C   0  0  0  0  0  0  0  0  0  0  0  0
   50.3510    2.6790   44.1340 C   0  0  2  0  0  0  0  0  0  0  0  0
   51.0970    2.7370   45.2950 C   0  0  0  0  0  0  0  0  0  0  0  0
   52.0850    1.8630   45.6050 C   0  0  0  0  0  0  0  0  0  0  0  0
   52.3830    0.8280   44.7060 C   0  0  0  0  0  0  0  0  0  0  0  0
   50.7560    3.8390   46.2300 C   0  0  0  0  0  0  0  0  0  0  0  0
   51.2530    4.1720   47.3830 N   0  0  0  0  0  0  0  0  0  0  0  0
   50.5770    5.3340   47.9110 C   0  0  0  0  0  0  0  0  0  0  0  0
   49.5190    5.7180   46.9070 C   0  0  0  0  0  0  0  0  0  0  0  0
   49.7230    4.7200   45.8690 N   0  0  0  0  0  0  0  0  0  0  0  0
   48.9980    4.5920   44.6480 C   0  0  0  0  0  0  0  0  0  0  0  0
   47.9850    5.3110   44.1220 N   0  0  0  0  0  0  0  0  0  0  0  0
   47.6400    4.7820   42.9490 N   0  0  0  0  0  0  0  0  0  0  0  0
   48.4530    3.7430   42.7790 C   0  0  0  0  0  0  0  0  0  0  0  0
   48.4420    2.9720   41.7790 O   0  0  0  0  0  0  0  0  0  0  0  0
   49.3160    3.5980   43.8230 N   0  0  0  0  0  0  0  0  0  0  0  0
   46.5740    5.2530   42.0600 C   0  0  0  0  0  0  0  0  0  0  0  0
   45.4690    5.7080   43.0640 C   0  0  0  0  0  0  0  0  0  0  0  0
   44.9920    4.6590   43.6250 O   0  0  0  0  0  0  0  0  0  0  0  0
   45.1680    7.0050   43.2100 N   0  0  0  0  0  0  0  0  0  0  0  0
   44.8580    8.3390   43.3590 C   0  0  0  0  0  0  0  0  0  0  0  0
   43.3880    8.5620   43.7380 C   0  0  0  0  0  0  0  0  0  0  0  0
   42.7070    9.2210   42.7430 O   0  0  0  0  0  0  0  0  0  0  0  0
   41.4130    8.8290   42.5580 C   0  0  0  0  0  0  0  0  0  0  0  0
   50.1250    1.5340   42.3260 H   0  0  0  0  0  0  0  0  0  0  0  0
   52.6520    1.9420   46.5090 H   0  0  0  0  0  0  0  0  0  0  0  0
   53.1550    0.1100   44.9100 H   0  0  0  0  0  0  0  0  0  0  0  0
   51.3310    6.1410   48.0400 H   0  0  0  0  0  0  0  0  0  0  0  0
   50.0910    5.0960   48.8940 H   0  0  0  0  0  0  0  0  0  0  0  0
   49.6870    6.7170   46.4910 H   0  0  0  0  0  0  0  0  0  0  0  0
   48.4990    5.6390   47.3670 H   0  0  0  0  0  0  0  0  0  0  0  0
   46.8780    6.1060   41.4850 H   0  0  0  0  0  0  0  0  0  0  0  0
   46.2080    4.4100   41.4920 H   0  0  0  0  0  0  0  0  0  0  0  0
   46.0740    7.3260   42.2520 H   0  0  0  0  0  0  0  0  0  0  0  0
   45.5250    8.9300   44.0230 H   0  0  0  0  0  0  0  0  0  0  0  0
   44.9760    8.9110   42.3570 H   0  0  0  0  0  0  0  0  0  0  0  0
   42.8860    7.6350   44.0570 H   0  0  0  0  0  0  0  0  0  0  0  0
   43.4320    9.2420   44.6230 H   0  0  0  0  0  0  0  0  0  0  0  0
   40.7870    9.0440   43.4800 H   0  0  0  0  0  0  0  0  0  0  0  0
   41.3210    7.7120   42.4860 H   0  0  0  0  0  0  0  0  0  0  0  0
   40.9430    9.3270   41.6940 H   0  0  0  0  0  0  0  0  0  0  0  0
  1  2  1  0  0  0  0
  2  7  1  0  0  0  0
  3  2  2  0  0  0  0
  4  3  1  1  0  0  0
  4  5  1  0  0  0  0
  5  6  1  0  0  0  0
  5  8  2  0  0  0  0
  6 28  1  0  0  0  0
  7 29  1  0  0  0  0
  7  6  2  0  0  0  0
  8  9  1  0  0  0  0
  9 10  1  0  0  0  0
 10 30  1  0  0  0  0
 10 31  1  0  0  0  0
 11 33  1  0  0  0  0
 11 10  1  0  0  0  0
 12  8  1  0  0  0  0
 12 11  1  0  0  0  0
 13 12  1  0  0  0  0
 14 13  2  0  0  0  0
 15 14  1  0  0  0  0
 16 15  1  0  0  0  0
 16 18  1  0  0  0  0
 17 16  2  0  0  0  0
 18  4  1  0  0  0  0
 18 13  1  0  0  0  0
 19 15  1  0  0  0  0
 19 20  1  0  0  0  0
 20 22  1  0  0  0  0
 20 21  2  0  0  0  0
 22 23  1  0  0  0  0
 23 24  1  0  0  0  0
 23 37  1  0  0  0  0
 24 39  1  0  0  0  0
 24 40  1  0  0  0  0
 25 24  1  0  0  0  0
 26 25  1  0  0  0  0
 26 41  1  0  0  0  0
 27  3  1  0  0  0  0
 32 11  1  0  0  0  0
 34 19  1  0  0  0  0
 35 19  1  0  0  0  0
 36 22  1  0  0  0  0
 38 23  1  0  0  0  0
 42 26  1  0  0  0  0
 43 26  1  0  0  0  0
M  END
>  <Pose>
1

>  <Score>
-6.00

$$$$
