
 OpenBabel03172210433D

 43 47  0  0  1  0  0  0  0  0999 V2000
   43.8340   12.2880   42.6160 Cl  0  0  0  0  0  0  0  0  0  0  0  0
   43.4360   10.7800   43.4090 C   0  0  0  0  0  0  0  0  0  0  0  0
   44.1240    9.6010   43.1750 C   0  0  0  0  0  0  0  0  0  0  0  0
   43.8010    8.4220   43.8060 C   0  0  1  0  0  0  0  0  0  0  0  0
   42.7520    8.4640   44.6910 C   0  0  0  0  0  0  0  0  0  0  0  0
   42.0340    9.6050   44.9620 C   0  0  0  0  0  0  0  0  0  0  0  0
   42.3870   10.7860   44.3050 C   0  0  0  0  0  0  0  0  0  0  0  0
   42.3760    7.2180   45.3860 C   0  0  0  0  0  0  0  0  0  0  0  0
   41.4580    6.9670   46.2470 N   0  0  0  0  0  0  0  0  0  0  0  0
   41.4630    5.5880   46.6580 C   0  0  0  0  0  0  0  0  0  0  0  0
   42.5850    4.9740   45.8830 C   0  0  0  0  0  0  0  0  0  0  0  0
   43.1220    6.0540   45.0980 N   0  0  0  0  0  0  0  0  0  0  0  0
   44.2160    6.0700   44.1570 C   0  0  0  0  0  0  0  0  0  0  0  0
   45.0550    5.1060   43.7290 N   0  0  0  0  0  0  0  0  0  0  0  0
   45.9000    5.6190   42.8510 N   0  0  0  0  0  0  0  0  0  0  0  0
   45.5670    6.9160   42.7470 C   0  0  0  0  0  0  0  0  0  0  0  0
   46.1760    7.7200   41.9840 O   0  0  0  0  0  0  0  0  0  0  0  0
   44.5230    7.2260   43.5460 N   0  0  0  0  0  0  0  0  0  0  0  0
   46.9810    4.9270   42.1340 C   0  0  0  0  0  0  0  0  0  0  0  0
   47.3860    3.7450   42.9400 C   0  0  0  0  0  0  0  0  0  0  0  0
   46.6760    2.7140   42.8250 O   0  0  0  0  0  0  0  0  0  0  0  0
   48.5160    3.7720   43.8000 N   0  0  0  0  0  0  0  0  0  0  0  0
   49.6840    2.9240   43.6510 C   0  0  0  0  0  0  0  0  0  0  0  0
   50.5300    3.1490   44.8750 C   0  0  0  0  0  0  0  0  0  0  0  0
   49.5180    3.6940   45.8620 C   0  0  0  0  0  0  0  0  0  0  0  0
   48.7110    4.6240   44.9500 C   0  0  0  0  0  0  0  0  0  0  0  0
   44.9280    9.6180   42.4820 H   0  0  0  0  0  0  0  0  0  0  0  0
   41.2230    9.6080   45.6550 H   0  0  0  0  0  0  0  0  0  0  0  0
   41.8110   11.6660   44.5340 H   0  0  0  0  0  0  0  0  0  0  0  0
   40.5130    5.0680   46.3700 H   0  0  0  0  0  0  0  0  0  0  0  0
   41.6360    5.4860   47.7560 H   0  0  0  0  0  0  0  0  0  0  0  0
   42.2430    4.1220   45.2540 H   0  0  0  0  0  0  0  0  0  0  0  0
   43.3860    4.6590   46.5940 H   0  0  0  0  0  0  0  0  0  0  0  0
   47.8330    5.6230   41.9970 H   0  0  0  0  0  0  0  0  0  0  0  0
   46.5640    4.6050   41.1690 H   0  0  0  0  0  0  0  0  0  0  0  0
   50.1990    3.2560   42.7290 H   0  0  0  0  0  0  0  0  0  0  0  0
   49.3370    1.8690   43.5840 H   0  0  0  0  0  0  0  0  0  0  0  0
   51.2640    3.9660   44.6880 H   0  0  0  0  0  0  0  0  0  0  0  0
   51.0200    2.2270   45.2480 H   0  0  0  0  0  0  0  0  0  0  0  0
   49.9970    4.2290   46.6840 H   0  0  0  0  0  0  0  0  0  0  0  0
   48.8590    2.8550   46.2140 H   0  0  0  0  0  0  0  0  0  0  0  0
   47.7960    4.9820   45.4160 H   0  0  0  0  0  0  0  0  0  0  0  0
   49.4060    5.4310   44.6350 H   0  0  0  0  0  0  0  0  0  0  0  0
  1  2  1  0  0  0  0
  2  7  1  0  0  0  0
  3  2  2  0  0  0  0
  4  3  1  6  0  0  0
  4  5  1  0  0  0  0
  5  6  1  0  0  0  0
  5  8  2  0  0  0  0
  6 28  1  0  0  0  0
  7 29  1  0  0  0  0
  7  6  2  0  0  0  0
  8  9  1  0  0  0  0
  9 10  1  0  0  0  0
 10 31  1  0  0  0  0
 11 33  1  0  0  0  0
 11 10  1  0  0  0  0
 12  8  1  0  0  0  0
 12 11  1  0  0  0  0
 13 12  1  0  0  0  0
 14 13  2  0  0  0  0
 15 14  1  0  0  0  0
 16 15  1  0  0  0  0
 16 18  1  0  0  0  0
 17 16  2  0  0  0  0
 18  4  1  0  0  0  0
 18 13  1  0  0  0  0
 19 15  1  0  0  0  0
 19 20  1  0  0  0  0
 20 22  1  0  0  0  0
 21 20  2  0  0  0  0
 22 26  1  0  0  0  0
 23 22  1  0  0  0  0
 23 24  1  0  0  0  0
 24 39  1  0  0  0  0
 24 25  1  0  0  0  0
 25 41  1  0  0  0  0
 25 40  1  0  0  0  0
 26 42  1  0  0  0  0
 26 25  1  0  0  0  0
 27  3  1  0  0  0  0
 30 10  1  0  0  0  0
 32 11  1  0  0  0  0
 34 19  1  0  0  0  0
 35 19  1  0  0  0  0
 36 23  1  0  0  0  0
 37 23  1  0  0  0  0
 38 24  1  0  0  0  0
 43 26  1  0  0  0  0
M  END
>  <Pose>
1

>  <Score>
-4.92

$$$$
