
 OpenBabel03162215123D

 38 42  0  0  1  0  0  0  0  0999 V2000
   47.3850    4.5440   41.8300 B   0  0  0  0  0  0  0  0  0  0  0  0
   46.1860    5.6270   42.8230 C   0  0  0  0  0  0  0  0  0  0  0  0
   46.1240    6.9760   42.5690 C   0  0  0  0  0  0  0  0  0  0  0  0
   45.2430    7.7390   43.3040 C   0  0  0  0  0  0  0  0  0  0  0  0
   44.4340    7.1930   44.2760 C   0  0  0  0  0  0  0  0  0  0  0  0
   44.4950    5.8300   44.5330 C   0  0  0  0  0  0  0  0  0  0  0  0
   45.3880    5.0610   43.7850 C   0  0  0  0  0  0  0  0  0  0  0  0
   43.5200    7.9980   45.0320 N   0  0  0  0  0  0  0  0  0  0  0  0
   42.1730    8.2090   44.6370 C   0  0  0  0  0  0  0  0  0  0  0  0
   41.5540    7.4790   43.8260 O   0  0  0  0  0  0  0  0  0  0  0  0
   41.6450    9.4120   45.3350 C   0  0  2  0  0  0  0  0  0  0  0  0
   41.7800   10.6520   44.5060 C   0  0  1  0  0  0  0  0  0  0  0  0
   41.9590   11.6190   45.5200 O   0  0  0  0  0  0  0  0  0  0  0  0
   43.1370   11.0610   46.0800 C   0  0  1  0  0  0  0  0  0  0  0  0
   42.6630    9.6960   46.4400 C   0  0  2  0  0  0  0  0  0  0  0  0
   43.7550    8.7030   46.2500 C   0  0  0  0  0  0  0  0  0  0  0  0
   44.6970    8.5360   47.0290 O   0  0  0  0  0  0  0  0  0  0  0  0
   43.9660   10.9640   44.8500 C   0  0  0  0  0  0  0  0  0  0  0  0
   43.1120   10.6440   43.8820 C   0  0  0  0  0  0  0  0  0  0  0  0
   40.6450   10.9520   43.6230 C   0  0  0  0  0  0  0  0  0  0  0  0
   40.6780   12.2080   43.0810 O   0  0  0  0  0  0  0  0  0  0  0  0
   39.6710   12.9560   43.6380 C   0  0  0  0  0  0  0  0  0  0  0  0
   38.9610   12.0600   44.5990 C   0  0  0  0  0  0  0  0  0  0  0  0
   39.4330   10.7940   44.2700 O   0  0  0  0  0  0  0  0  0  0  0  0
   46.7440    7.4590   41.8090 H   0  0  0  0  0  0  0  0  0  0  0  0
   45.1690    8.8220   43.1260 H   0  0  0  0  0  0  0  0  0  0  0  0
   43.8560    5.4180   45.2950 H   0  0  0  0  0  0  0  0  0  0  0  0
   45.4360    4.0000   43.9860 H   0  0  0  0  0  0  0  0  0  0  0  0
   40.6400    9.2300   45.7120 H   0  0  0  0  0  0  0  0  0  0  0  0
   43.5560   11.6550   46.8730 H   0  0  0  0  0  0  0  0  0  0  0  0
   42.2090    9.6100   47.4280 H   0  0  0  0  0  0  0  0  0  0  0  0
   45.0340   11.1320   44.8330 H   0  0  0  0  0  0  0  0  0  0  0  0
   43.4460   10.4360   42.8700 H   0  0  0  0  0  0  0  0  0  0  0  0
   40.6590   10.2060   42.7850 H   0  0  0  0  0  0  0  0  0  0  0  0
   38.9540   13.3550   42.8940 H   0  0  0  0  0  0  0  0  0  0  0  0
   40.1460   13.7860   44.2210 H   0  0  0  0  0  0  0  0  0  0  0  0
   37.8430   12.1210   44.4500 H   0  0  0  0  0  0  0  0  0  0  0  0
   39.2100   12.2720   45.6690 H   0  0  0  0  0  0  0  0  0  0  0  0
  1  2  1  0  0  0  0
  2  7  1  0  0  0  0
  3  2  2  0  0  0  0
  3  4  1  0  0  0  0
  4  5  2  0  0  0  0
  5  6  1  0  0  0  0
  5  8  1  0  0  0  0
  6 27  1  0  0  0  0
  7 28  1  0  0  0  0
  7  6  2  0  0  0  0
  8 16  1  0  0  0  0
  9  8  1  0  0  0  0
  9 11  1  0  0  0  0
 10  9  2  0  0  0  0
 11 29  1  1  0  0  0
 11 15  1  0  0  0  0
 12 20  1  6  0  0  0
 12 11  1  0  0  0  0
 12 13  1  0  0  0  0
 13 14  1  0  0  0  0
 14 15  1  0  0  0  0
 14 30  1  1  0  0  0
 15 31  1  1  0  0  0
 16 15  1  0  0  0  0
 16 17  2  0  0  0  0
 18 14  1  0  0  0  0
 19 12  1  0  0  0  0
 19 18  2  0  0  0  0
 20 24  1  0  0  0  0
 21 20  1  0  0  0  0
 21 22  1  0  0  0  0
 22 36  1  0  0  0  0
 22 23  1  0  0  0  0
 23 38  1  0  0  0  0
 24 23  1  0  0  0  0
 25  3  1  0  0  0  0
 26  4  1  0  0  0  0
 32 18  1  0  0  0  0
 33 19  1  0  0  0  0
 34 20  1  0  0  0  0
 35 22  1  0  0  0  0
 37 23  1  0  0  0  0
M  END
>  <Pose>
1

>  <Score>
-4.35

$$$$
