
 OpenBabel03172210433D

 38 42  0  0  1  0  0  0  0  0999 V2000
   46.8700    4.3120   43.7080 B   0  0  0  0  0  0  0  0  0  0  0  0
   45.7320    5.8250   43.5910 C   0  0  0  0  0  0  0  0  0  0  0  0
   46.1210    6.9080   42.8400 C   0  0  0  0  0  0  0  0  0  0  0  0
   45.2750    7.9930   42.7720 C   0  0  0  0  0  0  0  0  0  0  0  0
   44.0650    8.0220   43.4300 C   0  0  0  0  0  0  0  0  0  0  0  0
   43.6710    6.9280   44.1880 C   0  0  0  0  0  0  0  0  0  0  0  0
   44.5310    5.8300   44.2540 C   0  0  0  0  0  0  0  0  0  0  0  0
   43.1930    9.1560   43.3480 N   0  0  0  0  0  0  0  0  0  0  0  0
   43.5860   10.4600   43.7490 C   0  0  0  0  0  0  0  0  0  0  0  0
   44.7790   10.8270   43.8780 O   0  0  0  0  0  0  0  0  0  0  0  0
   42.3710   11.2850   43.9810 C   0  0  2  0  0  0  0  0  0  0  0  0
   41.9510   11.2830   45.4180 C   0  0  1  0  0  0  0  0  0  0  0  0
   40.5520   11.4140   45.2760 O   0  0  0  0  0  0  0  0  0  0  0  0
   40.3470   10.2310   44.5210 C   0  0  1  0  0  0  0  0  0  0  0  0
   41.2330   10.4820   43.3500 C   0  0  2  0  0  0  0  0  0  0  0  0
   41.8450    9.2090   42.8830 C   0  0  0  0  0  0  0  0  0  0  0  0
   41.2640    8.3550   42.2070 O   0  0  0  0  0  0  0  0  0  0  0  0
   41.0160    9.2530   45.4180 C   0  0  0  0  0  0  0  0  0  0  0  0
   42.0580    9.9060   45.9250 C   0  0  0  0  0  0  0  0  0  0  0  0
   42.5420   12.3360   46.2540 C   0  0  0  0  0  0  0  0  0  0  0  0
   43.9010   12.2450   46.3870 O   0  0  0  0  0  0  0  0  0  0  0  0
   44.1940   11.8870   47.6790 C   0  0  0  0  0  0  0  0  0  0  0  0
   42.8870   11.7600   48.3900 C   0  0  0  0  0  0  0  0  0  0  0  0
   41.9860   12.3630   47.5200 O   0  0  0  0  0  0  0  0  0  0  0  0
   47.0720    6.9360   42.3000 H   0  0  0  0  0  0  0  0  0  0  0  0
   45.5570    8.8760   42.1800 H   0  0  0  0  0  0  0  0  0  0  0  0
   42.7220    6.9650   44.6950 H   0  0  0  0  0  0  0  0  0  0  0  0
   44.2240    4.9790   44.8450 H   0  0  0  0  0  0  0  0  0  0  0  0
   42.4890   12.2770   43.5470 H   0  0  0  0  0  0  0  0  0  0  0  0
   39.3100   10.0310   44.3130 H   0  0  0  0  0  0  0  0  0  0  0  0
   40.7690   11.0300   42.5300 H   0  0  0  0  0  0  0  0  0  0  0  0
   40.6650    8.2410   45.5700 H   0  0  0  0  0  0  0  0  0  0  0  0
   42.7800    9.4180   46.5710 H   0  0  0  0  0  0  0  0  0  0  0  0
   42.3000   13.3240   45.7780 H   0  0  0  0  0  0  0  0  0  0  0  0
   44.8410   12.6170   48.2040 H   0  0  0  0  0  0  0  0  0  0  0  0
   44.6750   10.8750   47.6510 H   0  0  0  0  0  0  0  0  0  0  0  0
   42.9150   12.3070   49.3780 H   0  0  0  0  0  0  0  0  0  0  0  0
   42.5740   10.6980   48.5570 H   0  0  0  0  0  0  0  0  0  0  0  0
  2  1  1  0  0  0  0
  2  7  1  0  0  0  0
  3  2  2  0  0  0  0
  4  3  1  0  0  0  0
  4  5  2  0  0  0  0
  5  6  1  0  0  0  0
  6  7  2  0  0  0  0
  6 27  1  0  0  0  0
  7 28  1  0  0  0  0
  8  5  1  0  0  0  0
  8  9  1  0  0  0  0
  9 10  2  0  0  0  0
  9 11  1  0  0  0  0
 11 29  1  6  0  0  0
 11 12  1  0  0  0  0
 12 19  1  0  0  0  0
 12 20  1  1  0  0  0
 13 12  1  0  0  0  0
 14 30  1  6  0  0  0
 14 13  1  0  0  0  0
 14 18  1  0  0  0  0
 15 31  1  6  0  0  0
 15 11  1  0  0  0  0
 15 14  1  0  0  0  0
 16  8  1  0  0  0  0
 16 15  1  0  0  0  0
 17 16  2  0  0  0  0
 18 32  1  0  0  0  0
 18 19  2  0  0  0  0
 19 33  1  0  0  0  0
 20 21  1  0  0  0  0
 20 24  1  0  0  0  0
 21 22  1  0  0  0  0
 22 35  1  0  0  0  0
 22 23  1  0  0  0  0
 23 38  1  0  0  0  0
 23 37  1  0  0  0  0
 24 23  1  0  0  0  0
 25  3  1  0  0  0  0
 26  4  1  0  0  0  0
 34 20  1  0  0  0  0
 36 22  1  0  0  0  0
M  END
>  <Pose>
1

>  <Score>
-4.67

$$$$
