
 OpenBabel03162216043D

 38 42  0  0  1  0  0  0  0  0999 V2000
   47.4900    3.8310   42.7120 B   0  0  0  0  0  0  0  0  0  0  0  0
   46.5400    5.3980   43.2020 C   0  0  0  0  0  0  0  0  0  0  0  0
   45.2910    5.2840   43.7630 C   0  0  0  0  0  0  0  0  0  0  0  0
   44.6240    6.4390   44.1100 C   0  0  0  0  0  0  0  0  0  0  0  0
   45.1680    7.6880   43.9120 C   0  0  0  0  0  0  0  0  0  0  0  0
   46.4300    7.8050   43.3460 C   0  0  0  0  0  0  0  0  0  0  0  0
   47.1030    6.6320   42.9960 C   0  0  0  0  0  0  0  0  0  0  0  0
   44.4640    8.8820   44.2800 N   0  0  0  0  0  0  0  0  0  0  0  0
   43.7380    9.0030   45.4930 C   0  0  0  0  0  0  0  0  0  0  0  0
   43.9060    8.2620   46.4920 O   0  0  0  0  0  0  0  0  0  0  0  0
   42.7750   10.1300   45.3730 C   0  0  2  0  0  0  0  0  0  0  0  0
   41.4160    9.6690   44.9430 C   0  0  1  0  0  0  0  0  0  0  0  0
   40.9840   10.7970   44.2100 O   0  0  0  0  0  0  0  0  0  0  0  0
   42.0260   10.7850   43.2490 C   0  0  1  0  0  0  0  0  0  0  0  0
   43.2260   10.8920   44.1260 C   0  0  2  0  0  0  0  0  0  0  0  0
   44.3540   10.1070   43.5560 C   0  0  0  0  0  0  0  0  0  0  0  0
   45.0620   10.4740   42.6150 O   0  0  0  0  0  0  0  0  0  0  0  0
   41.9070    9.3790   42.7820 C   0  0  0  0  0  0  0  0  0  0  0  0
   41.5870    8.6800   43.8670 C   0  0  0  0  0  0  0  0  0  0  0  0
   40.4970    9.3040   46.0270 C   0  0  0  0  0  0  0  0  0  0  0  0
   39.2040    9.7010   45.8200 O   0  0  0  0  0  0  0  0  0  0  0  0
   38.9020   10.7030   46.7080 C   0  0  0  0  0  0  0  0  0  0  0  0
   40.1280   10.9200   47.5330 C   0  0  0  0  0  0  0  0  0  0  0  0
   40.9110    9.8080   47.2470 O   0  0  0  0  0  0  0  0  0  0  0  0
   44.8130    4.3170   43.9400 H   0  0  0  0  0  0  0  0  0  0  0  0
   43.6210    6.3830   44.5610 H   0  0  0  0  0  0  0  0  0  0  0  0
   46.8430    8.7870   43.1980 H   0  0  0  0  0  0  0  0  0  0  0  0
   48.0860    6.7230   42.5560 H   0  0  0  0  0  0  0  0  0  0  0  0
   42.7780   10.7400   46.2750 H   0  0  0  0  0  0  0  0  0  0  0  0
   41.9130   11.5350   42.4860 H   0  0  0  0  0  0  0  0  0  0  0  0
   43.5280   11.9100   44.3720 H   0  0  0  0  0  0  0  0  0  0  0  0
   42.0660    9.0730   41.7560 H   0  0  0  0  0  0  0  0  0  0  0  0
   41.5000    7.5990   43.8460 H   0  0  0  0  0  0  0  0  0  0  0  0
   40.5100    8.1850   46.1240 H   0  0  0  0  0  0  0  0  0  0  0  0
   38.0420   10.4670   47.3650 H   0  0  0  0  0  0  0  0  0  0  0  0
   38.7100   11.6350   46.1170 H   0  0  0  0  0  0  0  0  0  0  0  0
   39.8690   10.9550   48.6310 H   0  0  0  0  0  0  0  0  0  0  0  0
   40.6930   11.8440   47.2510 H   0  0  0  0  0  0  0  0  0  0  0  0
  1  2  1  0  0  0  0
  2  3  1  0  0  0  0
  3 25  1  0  0  0  0
  3  4  2  0  0  0  0
  4 26  1  0  0  0  0
  5  4  1  0  0  0  0
  5  8  1  0  0  0  0
  6  5  2  0  0  0  0
  7  2  2  0  0  0  0
  7  6  1  0  0  0  0
  8  9  1  0  0  0  0
  9 10  2  0  0  0  0
 11  9  1  0  0  0  0
 11 29  1  1  0  0  0
 12 11  1  0  0  0  0
 12 20  1  1  0  0  0
 13 12  1  0  0  0  0
 14 30  1  6  0  0  0
 14 15  1  0  0  0  0
 14 13  1  0  0  0  0
 15 31  1  1  0  0  0
 15 11  1  0  0  0  0
 16 15  1  0  0  0  0
 16  8  1  0  0  0  0
 17 16  2  0  0  0  0
 18 14  1  0  0  0  0
 18 19  2  0  0  0  0
 19 12  1  0  0  0  0
 20 34  1  0  0  0  0
 20 24  1  0  0  0  0
 21 20  1  0  0  0  0
 21 22  1  0  0  0  0
 22 35  1  0  0  0  0
 22 23  1  0  0  0  0
 23 37  1  0  0  0  0
 24 23  1  0  0  0  0
 27  6  1  0  0  0  0
 28  7  1  0  0  0  0
 32 18  1  0  0  0  0
 33 19  1  0  0  0  0
 36 22  1  0  0  0  0
 38 23  1  0  0  0  0
M  END
>  <Pose>
1

>  <Score>
-4.04

$$$$
