
 OpenBabel03172210433D

 58 61  0  0  0  0  0  0  0  0999 V2000
   38.0260   15.6740   47.7910 Cl  0  0  0  0  0  0  0  0  0  0  0  0
   38.5900   14.5900   46.5400 C   0  0  0  0  0  0  0  0  0  0  0  0
   39.9070   14.1420   46.4870 C   0  0  0  0  0  0  0  0  0  0  0  0
   40.3480   13.2920   45.5020 C   0  0  0  0  0  0  0  0  0  0  0  0
   39.4530   12.8750   44.5440 C   0  0  0  0  0  0  0  0  0  0  0  0
   38.1280   13.3280   44.6010 C   0  0  0  0  0  0  0  0  0  0  0  0
   37.6870   14.1800   45.5870 C   0  0  0  0  0  0  0  0  0  0  0  0
   36.3540   14.6300   45.6360 O   0  0  0  0  0  0  0  0  0  0  0  0
   35.6410   14.9690   44.4730 C   0  0  0  0  0  0  0  0  0  0  0  0
   39.8600   12.0640   43.5980 O   0  0  0  0  0  0  0  0  0  0  0  0
   41.0930   11.6250   43.5200 C   0  0  0  0  0  0  0  0  0  0  0  0
   41.4510   10.8350   42.5830 O   0  0  0  0  0  0  0  0  0  0  0  0
   42.0790   11.9840   44.4370 C   0  0  0  0  0  0  0  0  0  0  0  0
   41.6680   12.8360   45.4370 C   0  0  0  0  0  0  0  0  0  0  0  0
   42.6080   13.2810   46.4610 C   0  0  0  0  0  0  0  0  0  0  0  0
   43.4540   11.4530   44.2930 C   0  0  0  0  0  0  0  0  0  0  0  0
   43.6130   10.1580   45.0100 C   0  0  0  0  0  0  0  0  0  0  0  0
   43.7770   10.2050   46.2780 O   0  0  0  0  0  0  0  0  0  0  0  0
   43.5970    8.9110   44.4110 N   0  0  0  0  0  0  0  0  0  0  0  0
   43.5000    7.6880   45.1440 C   0  0  0  0  0  0  0  0  0  0  0  0
   44.7440    6.8530   44.8320 C   0  0  0  0  0  0  0  0  0  0  0  0
   44.8570    6.6770   43.4240 N   0  0  0  0  0  0  0  0  0  0  0  0
   43.8230    7.3300   42.5920 C   0  0  0  0  0  0  0  0  0  0  0  0
   43.6810    8.7870   42.9730 C   0  0  0  0  0  0  0  0  0  0  0  0
   45.8660    5.9450   42.7640 C   0  0  0  0  0  0  0  0  0  0  0  0
   45.8050    6.0380   41.4400 O   0  0  0  0  0  0  0  0  0  0  0  0
   46.9330    5.1280   43.2580 C   0  0  0  0  0  0  0  0  0  0  0  0
   47.5350    4.1760   42.3960 C   0  0  0  0  0  0  0  0  0  0  0  0
   48.5540    3.3720   42.8320 C   0  0  0  0  0  0  0  0  0  0  0  0
   49.0720    2.5340   42.0460 O   0  0  0  0  0  0  0  0  0  0  0  0
   49.0400    3.4310   44.0790 N   0  0  0  0  0  0  0  0  0  0  0  0
   48.4740    4.3260   44.8890 C   0  0  0  0  0  0  0  0  0  0  0  0
   48.8990    4.4210   46.0870 O   0  0  0  0  0  0  0  0  0  0  0  0
   47.4460    5.1510   44.4830 N   0  0  0  0  0  0  0  0  0  0  0  0
   50.1140    2.5720   44.5200 C   0  0  0  0  0  0  0  0  0  0  0  0
   40.6210   14.4610   47.2320 H   0  0  0  0  0  0  0  0  0  0  0  0
   37.4420   12.9900   43.8390 H   0  0  0  0  0  0  0  0  0  0  0  0
   35.8220   14.2800   43.6280 H   0  0  0  0  0  0  0  0  0  0  0  0
   34.5760   15.0740   44.7420 H   0  0  0  0  0  0  0  0  0  0  0  0
   36.0610   15.9600   44.1290 H   0  0  0  0  0  0  0  0  0  0  0  0
   42.5980   14.4120   46.4300 H   0  0  0  0  0  0  0  0  0  0  0  0
   43.6370   12.9840   46.3080 H   0  0  0  0  0  0  0  0  0  0  0  0
   42.2500   13.0410   47.4870 H   0  0  0  0  0  0  0  0  0  0  0  0
   44.2590   12.1630   44.4340 H   0  0  0  0  0  0  0  0  0  0  0  0
   43.5230   11.1590   43.1970 H   0  0  0  0  0  0  0  0  0  0  0  0
   42.6310    7.0670   44.8340 H   0  0  0  0  0  0  0  0  0  0  0  0
   43.3860    7.8340   46.2370 H   0  0  0  0  0  0  0  0  0  0  0  0
   45.6460    7.4090   45.1890 H   0  0  0  0  0  0  0  0  0  0  0  0
   44.6830    5.9100   45.4190 H   0  0  0  0  0  0  0  0  0  0  0  0
   44.0860    7.1610   41.5450 H   0  0  0  0  0  0  0  0  0  0  0  0
   42.8770    6.8280   42.8360 H   0  0  0  0  0  0  0  0  0  0  0  0
   44.5880    9.3130   42.6340 H   0  0  0  0  0  0  0  0  0  0  0  0
   42.8050    9.2630   42.5090 H   0  0  0  0  0  0  0  0  0  0  0  0
   47.1440    4.1270   41.3890 H   0  0  0  0  0  0  0  0  0  0  0  0
   47.0770    5.8160   45.1900 H   0  0  0  0  0  0  0  0  0  0  0  0
   50.1880    2.6480   45.6260 H   0  0  0  0  0  0  0  0  0  0  0  0
   51.1070    2.9440   44.1370 H   0  0  0  0  0  0  0  0  0  0  0  0
   49.9770    1.5160   44.2210 H   0  0  0  0  0  0  0  0  0  0  0  0
  2  1  1  0  0  0  0
  3  2  1  0  0  0  0
  3 36  1  0  0  0  0
  4  3  2  0  0  0  0
  5  6  2  0  0  0  0
  5  4  1  0  0  0  0
  6  7  1  0  0  0  0
  7  8  1  0  0  0  0
  7  2  2  0  0  0  0
  9 39  1  0  0  0  0
  9  8  1  0  0  0  0
 10  5  1  0  0  0  0
 11 10  1  0  0  0  0
 11 13  1  0  0  0  0
 12 11  2  0  0  0  0
 13 14  2  0  0  0  0
 14  4  1  0  0  0  0
 14 15  1  0  0  0  0
 15 43  1  0  0  0  0
 16 44  1  0  0  0  0
 16 13  1  0  0  0  0
 16 17  1  0  0  0  0
 17 18  2  0  0  0  0
 19 17  1  0  0  0  0
 19 20  1  0  0  0  0
 20 47  1  0  0  0  0
 21 20  1  0  0  0  0
 21 48  1  0  0  0  0
 21 49  1  0  0  0  0
 22 21  1  0  0  0  0
 23 51  1  0  0  0  0
 23 24  1  0  0  0  0
 23 22  1  0  0  0  0
 24 19  1  0  0  0  0
 25 27  1  0  0  0  0
 25 22  1  0  0  0  0
 26 25  2  0  0  0  0
 27 34  1  0  0  0  0
 28 29  1  0  0  0  0
 28 27  2  0  0  0  0
 29 31  1  0  0  0  0
 30 29  2  0  0  0  0
 31 35  1  0  0  0  0
 31 32  1  0  0  0  0
 32 33  2  0  0  0  0
 34 32  1  0  0  0  0
 34 55  1  0  0  0  0
 35 56  1  0  0  0  0
 37  6  1  0  0  0  0
 38  9  1  0  0  0  0
 40  9  1  0  0  0  0
 41 15  1  0  0  0  0
 42 15  1  0  0  0  0
 45 16  1  0  0  0  0
 46 20  1  0  0  0  0
 50 23  1  0  0  0  0
 52 24  1  0  0  0  0
 53 24  1  0  0  0  0
 54 28  1  0  0  0  0
 57 35  1  0  0  0  0
 58 35  1  0  0  0  0
M  END
>  <Pose>
1

>  <Score>
-7.02

$$$$
