
 OpenBabel03172210433D

 42 45  0  0  1  0  0  0  0  0999 V2000
   42.5610   10.5320   43.2760 S   0  0  0  0  0  0  0  0  0  0  0  0
   41.6150   10.0210   42.2430 O   0  0  0  0  0  0  0  0  0  0  0  0
   43.7540   11.1390   42.5840 O   0  0  0  0  0  0  0  0  0  0  0  0
   43.1330    9.2320   44.2490 N   0  0  0  0  0  0  0  0  0  0  0  0
   44.3830    8.7110   43.7920 C   0  0  0  0  0  0  0  0  0  0  0  0
   44.2480    7.2000   43.7080 C   0  0  1  0  0  0  0  0  0  0  0  0
   42.7620    7.0370   43.4620 C   0  0  0  0  0  0  0  0  0  0  0  0
   42.2010    8.1540   44.3500 C   0  0  0  0  0  0  0  0  0  0  0  0
   44.9390    6.7710   42.5470 O   0  0  0  0  0  0  0  0  0  0  0  0
   45.8140    5.6970   42.5670 C   0  0  0  0  0  0  0  0  0  0  0  0
   46.3880    5.3740   41.3720 N   0  0  0  0  0  0  0  0  0  0  0  0
   47.2420    4.3370   41.3620 C   0  0  0  0  0  0  0  0  0  0  0  0
   47.5430    3.6110   42.4970 C   0  0  0  0  0  0  0  0  0  0  0  0
   46.9320    3.9840   43.6780 C   0  0  0  0  0  0  0  0  0  0  0  0
   46.0740    5.0270   43.6890 N   0  0  0  0  0  0  0  0  0  0  0  0
   48.6580    2.2610   42.4670 Cl  0  0  0  0  0  0  0  0  0  0  0  0
   41.7800   11.7650   44.2380 C   0  0  0  0  0  0  0  0  0  0  0  0
   42.5000   12.4870   45.1680 C   0  0  0  0  0  0  0  0  0  0  0  0
   41.9300   13.4730   45.9550 C   0  0  0  0  0  0  0  0  0  0  0  0
   40.5850   13.7660   45.8200 C   0  0  0  0  0  0  0  0  0  0  0  0
   39.8760   13.0460   44.8930 C   0  0  0  0  0  0  0  0  0  0  0  0
   40.4410   12.0630   44.1090 C   0  0  0  0  0  0  0  0  0  0  0  0
   40.0550   14.7610   46.6260 O   0  0  0  0  0  0  0  0  0  0  0  0
   40.6090   15.1310   47.8760 C   0  0  0  0  0  0  0  0  0  0  0  0
   42.0990   14.9300   47.9470 C   0  0  0  0  0  0  0  0  0  0  0  0
   42.6370   14.1990   46.8850 O   0  0  0  0  0  0  0  0  0  0  0  0
   45.1470    8.9090   44.5790 H   0  0  0  0  0  0  0  0  0  0  0  0
   44.7510    9.1520   42.8660 H   0  0  0  0  0  0  0  0  0  0  0  0
   44.5910    6.7100   44.6250 H   0  0  0  0  0  0  0  0  0  0  0  0
   42.5110    7.1900   42.4160 H   0  0  0  0  0  0  0  0  0  0  0  0
   42.4150    6.0790   43.8940 H   0  0  0  0  0  0  0  0  0  0  0  0
   41.1830    8.4180   43.9790 H   0  0  0  0  0  0  0  0  0  0  0  0
   42.1470    7.7740   45.3740 H   0  0  0  0  0  0  0  0  0  0  0  0
   47.7310    4.0280   40.4500 H   0  0  0  0  0  0  0  0  0  0  0  0
   47.1530    3.4260   44.5990 H   0  0  0  0  0  0  0  0  0  0  0  0
   43.5600   12.2620   45.2810 H   0  0  0  0  0  0  0  0  0  0  0  0
   38.8120   13.2930   44.8020 H   0  0  0  0  0  0  0  0  0  0  0  0
   39.8660   11.5120   43.3910 H   0  0  0  0  0  0  0  0  0  0  0  0
   40.3280   16.1800   48.0770 H   0  0  0  0  0  0  0  0  0  0  0  0
   40.0800   14.4980   48.6450 H   0  0  0  0  0  0  0  0  0  0  0  0
   42.5620   15.9470   48.0420 H   0  0  0  0  0  0  0  0  0  0  0  0
   42.3170   14.3860   48.8900 H   0  0  0  0  0  0  0  0  0  0  0  0
  1 17  1  0  0  0  0
  1  4  1  0  0  0  0
  2  1  2  0  0  0  0
  3  1  2  0  0  0  0
  4  8  1  0  0  0  0
  5  4  1  0  0  0  0
  5 27  1  0  0  0  0
  6  5  1  0  0  0  0
  6 29  1  1  0  0  0
  7  6  1  0  0  0  0
  7 31  1  0  0  0  0
  7  8  1  0  0  0  0
  8 33  1  0  0  0  0
  9 10  1  0  0  0  0
  9  6  1  0  0  0  0
 10 15  2  0  0  0  0
 11 10  2  0  0  0  0
 12 11  1  0  0  0  0
 12 13  2  0  0  0  0
 13 14  1  0  0  0  0
 14 15  1  0  0  0  0
 14 35  1  0  0  0  0
 16 13  1  0  0  0  0
 17 18  1  0  0  0  0
 18 36  1  0  0  0  0
 18 19  2  0  0  0  0
 19 26  1  0  0  0  0
 20 19  1  0  0  0  0
 20 23  1  0  0  0  0
 21 20  2  0  0  0  0
 22 17  2  0  0  0  0
 22 21  1  0  0  0  0
 23 24  1  0  0  0  0
 24 25  1  0  0  0  0
 24 39  1  0  0  0  0
 24 40  1  0  0  0  0
 25 41  1  0  0  0  0
 25 42  1  0  0  0  0
 26 25  1  0  0  0  0
 28  5  1  0  0  0  0
 30  7  1  0  0  0  0
 32  8  1  0  0  0  0
 34 12  1  0  0  0  0
 37 21  1  0  0  0  0
 38 22  1  0  0  0  0
M  END
>  <Pose>
1

>  <Score>
-6.64

$$$$
