
 OpenBabel03172210433D

 51 54  0  0  0  0  0  0  0  0999 V2000
   49.3690    4.5330   45.6680 B   0  0  0  0  0  0  0  0  0  0  0  0
   48.1780    5.0190   44.2600 C   0  0  0  0  0  0  0  0  0  0  0  0
   47.6670    6.2810   44.1930 C   0  0  0  0  0  0  0  0  0  0  0  0
   46.7910    6.6340   43.1540 C   0  0  0  0  0  0  0  0  0  0  0  0
   46.4650    5.6890   42.2210 C   0  0  0  0  0  0  0  0  0  0  0  0
   46.9940    4.3900   42.2960 C   0  0  0  0  0  0  0  0  0  0  0  0
   47.8480    4.0680   43.3190 C   0  0  0  0  0  0  0  0  0  0  0  0
   45.6080    5.9800   41.1770 O   0  0  0  0  0  0  0  0  0  0  0  0
   46.2570    7.9860   43.1000 C   0  0  0  0  0  0  0  0  0  0  0  0
   44.9630    8.1760   43.2390 N   0  0  0  0  0  0  0  0  0  0  0  0
   44.4920    9.4870   43.1810 N   0  0  0  0  0  0  0  0  0  0  0  0
   43.5860    9.9890   44.1530 C   0  0  0  0  0  0  0  0  0  0  0  0
   42.3880   10.4890   43.8120 N   0  0  0  0  0  4  0  0  0  0  0  0
   41.4890   10.9790   44.7060 C   0  0  0  0  0  0  0  0  0  0  0  0
   41.8870   10.9320   46.0050 N   0  0  0  0  0  0  0  0  0  0  0  0
   43.0710   10.4440   46.4060 C   0  0  0  0  0  0  0  0  0  0  0  0
   43.8940    9.9840   45.4730 N   0  0  0  0  0  0  0  0  0  0  0  0
   43.4190   10.4260   47.7770 N   0  0  0  0  0  0  0  0  0  0  0  0
   44.2190    9.3790   48.3780 C   0  0  0  0  0  0  0  0  0  0  0  0
   45.0110    9.9420   49.5380 C   0  0  0  0  0  0  0  0  0  0  0  0
   44.2360   10.5440   50.4930 O   0  0  0  0  0  0  0  0  0  0  0  0
   42.9430   10.8260   50.0710 C   0  0  0  0  0  0  0  0  0  0  0  0
   42.9870   11.4840   48.6950 C   0  0  0  0  0  0  0  0  0  0  0  0
   40.2410   11.4980   44.3140 N   0  0  0  0  0  0  0  0  0  0  0  0
   39.0280   10.9740   44.8680 C   0  0  0  0  0  0  0  0  0  0  0  0
   38.2450   12.1520   45.4250 C   0  0  0  0  0  0  0  0  0  0  0  0
   38.0240   13.0340   44.3560 O   0  0  0  0  0  0  0  0  0  0  0  0
   39.2260   13.6210   43.9600 C   0  0  0  0  0  0  0  0  0  0  0  0
   40.1500   12.5570   43.3550 C   0  0  0  0  0  0  0  0  0  0  0  0
   47.9090    7.0490   44.9210 H   0  0  0  0  0  0  0  0  0  0  0  0
   46.7160    3.6670   41.5410 H   0  0  0  0  0  0  0  0  0  0  0  0
   48.2770    3.0650   43.4050 H   0  0  0  0  0  0  0  0  0  0  0  0
   45.0950    5.3000   40.6550 H   0  0  0  0  0  0  0  0  0  0  0  0
   46.8890    8.8410   42.9490 H   0  0  0  0  0  0  0  0  0  0  0  0
   44.8280   10.0850   42.4000 H   0  0  0  0  0  0  0  0  0  0  0  0
   44.9370    8.9840   47.6360 H   0  0  0  0  0  0  0  0  0  0  0  0
   43.5370    8.6110   48.7770 H   0  0  0  0  0  0  0  0  0  0  0  0
   45.8430   10.5780   49.1700 H   0  0  0  0  0  0  0  0  0  0  0  0
   45.5070    9.0500   50.0230 H   0  0  0  0  0  0  0  0  0  0  0  0
   42.4310   11.4480   50.8090 H   0  0  0  0  0  0  0  0  0  0  0  0
   42.4210    9.8530   49.9480 H   0  0  0  0  0  0  0  0  0  0  0  0
   42.0330   11.9180   48.4090 H   0  0  0  0  0  0  0  0  0  0  0  0
   43.8260   12.2130   48.7290 H   0  0  0  0  0  0  0  0  0  0  0  0
   38.4100   10.5390   44.0570 H   0  0  0  0  0  0  0  0  0  0  0  0
   39.2560   10.2350   45.6640 H   0  0  0  0  0  0  0  0  0  0  0  0
   38.8080   12.6920   46.2100 H   0  0  0  0  0  0  0  0  0  0  0  0
   37.2630   11.8320   45.8230 H   0  0  0  0  0  0  0  0  0  0  0  0
   39.7210   13.9780   44.8860 H   0  0  0  0  0  0  0  0  0  0  0  0
   39.0220   14.4220   43.2410 H   0  0  0  0  0  0  0  0  0  0  0  0
   39.7750   12.2290   42.3670 H   0  0  0  0  0  0  0  0  0  0  0  0
   41.1510   13.0290   43.2280 H   0  0  0  0  0  0  0  0  0  0  0  0
  2  1  1  0  0  0  0
  3  2  1  0  0  0  0
  3 30  1  0  0  0  0
  4  3  2  0  0  0  0
  5  6  2  0  0  0  0
  5  4  1  0  0  0  0
  6  7  1  0  0  0  0
  7 32  1  0  0  0  0
  7  2  2  0  0  0  0
  8  5  1  0  0  0  0
  9  4  1  0  0  0  0
  9 10  2  0  0  0  0
 11 10  1  0  0  0  0
 11 12  1  0  0  0  0
 12 17  1  0  0  0  0
 13 12  2  0  0  0  0
 13 14  2  0  0  0  0
 14 15  1  0  0  0  0
 15 16  2  0  0  0  0
 16 18  1  0  0  0  0
 17 16  1  0  0  0  0
 18 19  1  0  0  0  0
 18 23  1  0  0  0  0
 19 37  1  0  0  0  0
 19 20  1  0  0  0  0
 20 39  1  0  0  0  0
 20 21  1  0  0  0  0
 22 21  1  0  0  0  0
 22 40  1  0  0  0  0
 23 43  1  0  0  0  0
 23 22  1  0  0  0  0
 24 14  1  0  0  0  0
 24 25  1  0  0  0  0
 25 26  1  0  0  0  0
 25 45  1  0  0  0  0
 26 47  1  0  0  0  0
 26 46  1  0  0  0  0
 27 26  1  0  0  0  0
 28 27  1  0  0  0  0
 28 48  1  0  0  0  0
 29 28  1  0  0  0  0
 29 24  1  0  0  0  0
 31  6  1  0  0  0  0
 33  8  1  0  0  0  0
 34  9  1  0  0  0  0
 35 11  1  0  0  0  0
 36 19  1  0  0  0  0
 38 20  1  0  0  0  0
 41 22  1  0  0  0  0
 42 23  1  0  0  0  0
 44 25  1  0  0  0  0
 49 28  1  0  0  0  0
 50 29  1  0  0  0  0
 51 29  1  0  0  0  0
M  END
>  <Pose>
1

>  <Score>
-6.27

$$$$
