
 OpenBabel03172210433D

 50 53  0  0  1  0  0  0  0  0999 V2000
   45.1860   10.3040   50.3290 Cl  0  0  0  0  0  0  0  0  0  0  0  0
   44.0370    9.7570   49.1230 C   0  0  0  0  0  0  0  0  0  0  0  0
   42.9900    8.9050   49.4430 C   0  0  0  0  0  0  0  0  0  0  0  0
   42.1180    8.5170   48.4270 C   0  0  0  0  0  0  0  0  0  0  0  0
   42.2680    8.9500   47.1360 C   0  0  0  0  0  0  0  0  0  0  0  0
   43.3120    9.7990   46.8110 C   0  0  0  0  0  0  0  0  0  0  0  0
   44.1760   10.1840   47.8160 C   0  0  0  0  0  0  0  0  0  0  0  0
   41.3140    8.5300   46.1130 C   0  0  2  0  0  0  0  0  0  0  0  0
   41.6580    8.6920   44.7540 N   0  0  0  0  0  4  0  0  0  0  0  0
   41.2360    9.9430   44.2840 C   0  0  0  0  0  0  0  0  0  0  0  0
   41.1520   10.6490   43.1830 C   0  0  0  0  0  0  0  0  0  0  0  0
   40.6030   12.0100   43.1810 C   0  0  0  0  0  0  0  0  0  0  0  0
   40.4610   12.7490   44.4300 C   0  0  0  0  0  0  0  0  0  0  0  0
   40.7820   11.9710   45.6820 C   0  0  0  0  0  0  0  0  0  0  0  0
   40.6660   10.5730   45.4660 N   0  0  0  0  0  0  0  0  0  0  0  0
   40.0740    9.4390   46.1640 C   0  0  2  0  0  0  0  0  0  0  0  0
   39.6190    9.8250   47.5090 C   0  0  0  0  0  0  0  0  0  0  0  0
   42.8200    8.0800   44.2970 C   0  0  0  0  0  0  0  0  0  0  0  0
   43.6600    8.8370   43.4970 C   0  0  0  0  0  0  0  0  0  0  0  0
   44.8320    8.3480   42.9720 C   0  0  0  0  0  0  0  0  0  0  0  0
   45.2590    7.0390   43.2140 C   0  0  0  0  0  0  0  0  0  0  0  0
   44.4080    6.3110   44.0080 C   0  0  0  0  0  0  0  0  0  0  0  0
   43.2380    6.8070   44.5290 C   0  0  0  0  0  0  0  0  0  0  0  0
   46.4410    6.5590   42.6840 O   0  0  0  0  0  0  0  0  0  0  0  0
   46.7250    5.1840   42.7540 C   0  0  0  0  0  0  0  0  0  0  0  0
   40.8410    7.2560   46.3290 O   0  0  0  0  0  0  0  0  0  0  0  0
   42.8660    8.5630   50.4550 H   0  0  0  0  0  0  0  0  0  0  0  0
   41.3310    7.8560   48.7810 H   0  0  0  0  0  0  0  0  0  0  0  0
   43.3970   10.1310   45.7900 H   0  0  0  0  0  0  0  0  0  0  0  0
   44.9740   10.8460   47.5080 H   0  0  0  0  0  0  0  0  0  0  0  0
   40.8950    8.0410   44.2580 H   0  0  0  0  0  0  0  0  0  0  0  0
   41.4720   10.2160   42.2120 H   0  0  0  0  0  0  0  0  0  0  0  0
   39.6240   11.9700   42.6270 H   0  0  0  0  0  0  0  0  0  0  0  0
   41.2790   12.5940   42.4760 H   0  0  0  0  0  0  0  0  0  0  0  0
   39.4110   13.1850   44.4950 H   0  0  0  0  0  0  0  0  0  0  0  0
   41.1230   13.6490   44.4280 H   0  0  0  0  0  0  0  0  0  0  0  0
   40.0560   12.2800   46.4550 H   0  0  0  0  0  0  0  0  0  0  0  0
   41.7720   12.2610   46.0890 H   0  0  0  0  0  0  0  0  0  0  0  0
   39.2640    9.0260   45.5790 H   0  0  0  0  0  0  0  0  0  0  0  0
   39.2600    8.9470   48.0730 H   0  0  0  0  0  0  0  0  0  0  0  0
   40.2350   10.5370   48.0680 H   0  0  0  0  0  0  0  0  0  0  0  0
   38.6530   10.3920   47.3180 H   0  0  0  0  0  0  0  0  0  0  0  0
   43.4480    9.8920   43.2440 H   0  0  0  0  0  0  0  0  0  0  0  0
   45.4920    8.9450   42.3390 H   0  0  0  0  0  0  0  0  0  0  0  0
   44.7100    5.2730   44.2200 H   0  0  0  0  0  0  0  0  0  0  0  0
   42.6790    6.1310   45.1220 H   0  0  0  0  0  0  0  0  0  0  0  0
   46.2270    4.6110   41.9250 H   0  0  0  0  0  0  0  0  0  0  0  0
   46.4330    4.6940   43.6890 H   0  0  0  0  0  0  0  0  0  0  0  0
   47.8240    4.9830   42.6030 H   0  0  0  0  0  0  0  0  0  0  0  0
   40.1550    6.9280   45.7190 H   0  0  0  0  0  0  0  0  0  0  0  0
  2  3  1  0  0  0  0
  2  1  1  0  0  0  0
  3 27  1  0  0  0  0
  4 28  1  0  0  0  0
  4  3  2  0  0  0  0
  5  4  1  0  0  0  0
  6  5  2  0  0  0  0
  6  7  1  0  0  0  0
  7  2  2  0  0  0  0
  8 16  1  0  0  0  0
  8 26  1  1  0  0  0
  8  5  1  0  0  0  0
  9  8  1  0  0  0  0
 10  9  1  0  0  0  0
 10 15  1  0  0  0  0
 11 10  2  0  0  0  0
 12 11  1  0  0  0  0
 12 13  1  0  0  0  0
 13 35  1  0  0  0  0
 13 14  1  0  0  0  0
 14 38  1  0  0  0  0
 14 37  1  0  0  0  0
 15 14  1  0  0  0  0
 15 16  1  0  0  0  0
 16 39  1  6  0  0  0
 16 17  1  0  0  0  0
 17 41  1  0  0  0  0
 17 40  1  0  0  0  0
 18 23  1  0  0  0  0
 18  9  1  0  0  0  0
 19 18  2  0  0  0  0
 20 21  2  0  0  0  0
 20 19  1  0  0  0  0
 21 22  1  0  0  0  0
 22 45  1  0  0  0  0
 22 23  2  0  0  0  0
 23 46  1  0  0  0  0
 24 25  1  0  0  0  0
 24 21  1  0  0  0  0
 25 48  1  0  0  0  0
 29  6  1  0  0  0  0
 30  7  1  0  0  0  0
 31  9  1  0  0  0  0
 32 11  1  0  0  0  0
 33 12  1  0  0  0  0
 34 12  1  0  0  0  0
 36 13  1  0  0  0  0
 42 17  1  0  0  0  0
 43 19  1  0  0  0  0
 44 20  1  0  0  0  0
 47 25  1  0  0  0  0
 49 25  1  0  0  0  0
 50 26  1  0  0  0  0
M  END
>  <Pose>
1

>  <Score>
-4.92

$$$$
