
 OpenBabel03172210433D

 41 44  0  0  0  0  0  0  0  0999 V2000
   41.1310   15.8510   46.8320 Cl  0  0  0  0  0  0  0  0  0  0  0  0
   41.3330   14.1380   46.4440 C   0  0  0  0  0  0  0  0  0  0  0  0
   40.2440   13.3490   46.1380 C   0  0  0  0  0  0  0  0  0  0  0  0
   40.4650   12.0160   45.8420 C   0  0  0  0  0  0  0  0  0  0  0  0
   41.7220   11.4490   45.8410 C   0  0  0  0  0  0  0  0  0  0  0  0
   42.7860   12.2720   46.1510 C   0  0  0  0  0  0  0  0  0  0  0  0
   42.6110   13.6190   46.4550 C   0  0  0  0  0  0  0  0  0  0  0  0
   41.9200   10.0860   45.5340 N   0  0  0  0  0  0  0  0  0  0  0  0
   42.7620    9.5760   44.6050 C   0  0  0  0  0  0  0  0  0  0  0  0
   43.5030   10.2770   43.8670 O   0  0  0  0  0  0  0  0  0  0  0  0
   42.6940    8.1930   44.5800 C   0  0  0  0  0  0  0  0  0  0  0  0
   41.8030    7.8560   45.5000 C   0  0  0  0  0  0  0  0  0  0  0  0
   41.7390    6.5080   45.4730 N   0  0  0  0  0  0  0  0  0  0  0  0
   42.5870    6.0530   44.5410 N   0  0  0  0  0  0  0  0  0  0  0  0
   43.1840    7.0930   43.9810 N   0  0  0  0  0  0  0  0  0  0  0  0
   44.1770    7.0610   42.9280 C   0  0  0  0  0  0  0  0  0  0  0  0
   45.4390    6.3980   43.3400 C   0  0  0  0  0  0  0  0  0  0  0  0
   46.2660    6.8630   44.3370 C   0  0  0  0  0  0  0  0  0  0  0  0
   47.4400    6.2420   44.7180 C   0  0  0  0  0  0  0  0  0  0  0  0
   47.8190    5.0910   44.0710 C   0  0  0  0  0  0  0  0  0  0  0  0
   47.0220    4.5910   43.0680 C   0  0  0  0  0  0  0  0  0  0  0  0
   45.8500    5.2340   42.7060 C   0  0  0  0  0  0  0  0  0  0  0  0
   48.2090    6.8010   45.7460 O   0  0  0  0  0  0  0  0  0  0  0  0
   49.1480    6.0290   46.4680 C   0  0  0  0  0  0  0  0  0  0  0  0
   41.3300    9.0120   46.0850 C   0  0  0  0  0  0  0  0  0  0  0  0
   40.4720    9.0260   46.9950 O   0  0  0  0  0  0  0  0  0  0  0  0
   39.2630   13.7950   46.1410 H   0  0  0  0  0  0  0  0  0  0  0  0
   39.6260   11.3850   45.6020 H   0  0  0  0  0  0  0  0  0  0  0  0
   43.7650   11.8070   46.1440 H   0  0  0  0  0  0  0  0  0  0  0  0
   43.4870   14.2270   46.6940 H   0  0  0  0  0  0  0  0  0  0  0  0
   41.1290    5.9270   46.0780 H   0  0  0  0  0  0  0  0  0  0  0  0
   42.7760    5.0650   44.2690 H   0  0  0  0  0  0  0  0  0  0  0  0
   43.7710    6.5470   42.0360 H   0  0  0  0  0  0  0  0  0  0  0  0
   44.4310    8.1350   42.6890 H   0  0  0  0  0  0  0  0  0  0  0  0
   45.9830    7.7860   44.8700 H   0  0  0  0  0  0  0  0  0  0  0  0
   48.7480    4.5770   44.3540 H   0  0  0  0  0  0  0  0  0  0  0  0
   47.3240    3.6850   42.5620 H   0  0  0  0  0  0  0  0  0  0  0  0
   45.2290    4.8340   41.9170 H   0  0  0  0  0  0  0  0  0  0  0  0
   48.6540    5.3440   47.1950 H   0  0  0  0  0  0  0  0  0  0  0  0
   49.8020    6.6970   47.0520 H   0  0  0  0  0  0  0  0  0  0  0  0
   49.7290    5.3830   45.7650 H   0  0  0  0  0  0  0  0  0  0  0  0
  2  7  1  0  0  0  0
  2  1  1  0  0  0  0
  3 27  1  0  0  0  0
  3  2  2  0  0  0  0
  4  3  1  0  0  0  0
  5  4  2  0  0  0  0
  5  6  1  0  0  0  0
  6  7  2  0  0  0  0
  7 30  1  0  0  0  0
  8  5  1  0  0  0  0
  8 25  1  0  0  0  0
  9  8  1  0  0  0  0
 10  9  2  0  0  0  0
 11  9  1  0  0  0  0
 11 12  2  0  0  0  0
 12 25  1  0  0  0  0
 13 12  1  0  0  0  0
 13 31  1  0  0  0  0
 14 13  1  0  0  0  0
 15 14  1  0  0  0  0
 15 11  1  0  0  0  0
 16 17  1  0  0  0  0
 16 15  1  0  0  0  0
 17 18  1  0  0  0  0
 18 19  2  0  0  0  0
 18 35  1  0  0  0  0
 19 23  1  0  0  0  0
 20 36  1  0  0  0  0
 20 19  1  0  0  0  0
 21 20  2  0  0  0  0
 22 21  1  0  0  0  0
 22 17  2  0  0  0  0
 23 24  1  0  0  0  0
 24 40  1  0  0  0  0
 24 39  1  0  0  0  0
 25 26  2  0  0  0  0
 28  4  1  0  0  0  0
 29  6  1  0  0  0  0
 32 14  1  0  0  0  0
 33 16  1  0  0  0  0
 34 16  1  0  0  0  0
 37 21  1  0  0  0  0
 38 22  1  0  0  0  0
 41 24  1  0  0  0  0
M  END
>  <Pose>
1

>  <Score>
-6.05

$$$$
