
 OpenBabel03172210433D

 51 54  0  0  1  0  0  0  0  0999 V2000
   46.3680    5.7400   38.6430 Cl  0  0  0  0  0  0  0  0  0  0  0  0
   46.5130    5.5150   40.3560 C   0  0  0  0  0  0  0  0  0  0  0  0
   47.4170    4.6630   40.8420 N   0  0  0  0  0  4  0  0  0  0  0  0
   47.5710    4.4510   42.1520 C   0  0  0  0  0  0  0  0  0  0  0  0
   48.3900    3.6750   42.8490 N   0  0  0  0  0  0  0  0  0  0  0  0
   48.0810    3.8940   44.1340 C   0  0  0  0  0  0  0  0  0  0  0  0
   47.0920    4.7870   44.2660 N   0  0  0  0  0  0  0  0  0  0  0  0
   46.7390    5.1650   43.0270 C   0  0  0  0  0  0  0  0  0  0  0  0
   45.8070    6.0430   42.5400 C   0  0  0  0  0  0  0  0  0  0  0  0
   45.7180    6.1970   41.1860 N   0  0  0  0  0  0  0  0  0  0  0  0
   44.9550    6.7450   43.4170 N   0  0  0  0  0  0  0  0  0  0  0  0
   45.0210    8.1880   43.4110 C   0  0  0  0  0  0  0  0  0  0  0  0
   44.1630    8.8310   44.4680 C   0  0  0  0  0  0  0  0  0  0  0  0
   42.8230    8.1810   44.4830 C   0  0  2  0  0  0  0  0  0  0  0  0
   42.9590    6.7520   44.8830 C   0  0  0  0  0  0  0  0  0  0  0  0
   44.0750    5.9960   44.2590 C   0  0  0  0  0  0  0  0  0  0  0  0
   42.0680    8.4080   43.2500 C   0  0  0  0  0  0  0  0  0  0  0  0
   42.5700    8.0330   42.1630 O   0  0  0  0  0  0  0  0  0  0  0  0
   40.8030    9.0300   43.2230 N   0  0  0  0  0  0  0  0  0  0  0  0
   40.5670   10.3900   43.6490 C   0  0  0  0  0  0  0  0  0  0  0  0
   40.5160   10.5550   45.1410 C   0  0  0  0  0  0  0  0  0  0  0  0
   39.2850   11.2050   45.5530 N   0  0  0  0  0  0  0  0  0  0  0  0
   39.2280   11.4560   46.9540 C   0  0  0  0  0  0  0  0  0  0  0  0
   38.2180   10.5410   47.6160 C   0  0  0  0  0  0  0  0  0  0  0  0
   36.9800   10.8460   47.1090 O   0  0  0  0  0  0  0  0  0  0  0  0
   36.8610   10.8170   45.7450 C   0  0  0  0  0  0  0  0  0  0  0  0
   38.1230   10.6270   44.9790 C   0  0  0  0  0  0  0  0  0  0  0  0
   48.5680    3.4130   44.9660 H   0  0  0  0  0  0  0  0  0  0  0  0
   46.6520    5.1540   45.1420 H   0  0  0  0  0  0  0  0  0  0  0  0
   44.8790    8.6460   42.4230 H   0  0  0  0  0  0  0  0  0  0  0  0
   46.0850    8.4770   43.6910 H   0  0  0  0  0  0  0  0  0  0  0  0
   44.6290    8.7460   45.4630 H   0  0  0  0  0  0  0  0  0  0  0  0
   44.0740    9.9030   44.2050 H   0  0  0  0  0  0  0  0  0  0  0  0
   42.2360    8.6910   45.3030 H   0  0  0  0  0  0  0  0  0  0  0  0
   43.1360    6.7420   45.9990 H   0  0  0  0  0  0  0  0  0  0  0  0
   41.9720    6.2600   44.7570 H   0  0  0  0  0  0  0  0  0  0  0  0
   43.6160    5.1440   43.6800 H   0  0  0  0  0  0  0  0  0  0  0  0
   44.7250    5.4720   45.0210 H   0  0  0  0  0  0  0  0  0  0  0  0
   39.9730    8.4700   42.8690 H   0  0  0  0  0  0  0  0  0  0  0  0
   41.2510   11.0860   43.1700 H   0  0  0  0  0  0  0  0  0  0  0  0
   39.5380   10.6530   43.2700 H   0  0  0  0  0  0  0  0  0  0  0  0
   40.4880    9.5330   45.5760 H   0  0  0  0  0  0  0  0  0  0  0  0
   41.3840   11.0870   45.5520 H   0  0  0  0  0  0  0  0  0  0  0  0
   38.9690   12.5100   47.2070 H   0  0  0  0  0  0  0  0  0  0  0  0
   40.2320   11.2720   47.3900 H   0  0  0  0  0  0  0  0  0  0  0  0
   38.5070    9.4850   47.4490 H   0  0  0  0  0  0  0  0  0  0  0  0
   38.2140   10.7750   48.6990 H   0  0  0  0  0  0  0  0  0  0  0  0
   36.0650   10.0900   45.4190 H   0  0  0  0  0  0  0  0  0  0  0  0
   36.4400   11.8200   45.4360 H   0  0  0  0  0  0  0  0  0  0  0  0
   38.0290   10.9780   43.9370 H   0  0  0  0  0  0  0  0  0  0  0  0
   38.2980    9.5140   44.9050 H   0  0  0  0  0  0  0  0  0  0  0  0
  1  2  1  0  0  0  0
  2  3  2  0  0  0  0
  2 10  1  0  0  0  0
  3  4  2  0  0  0  0
  4  5  1  0  0  0  0
  4  8  1  0  0  0  0
  5  6  2  0  0  0  0
  6  7  1  0  0  0  0
  6 28  1  0  0  0  0
  7 29  1  0  0  0  0
  8  7  1  0  0  0  0
  9  8  2  0  0  0  0
  9 11  1  0  0  0  0
 10  9  1  0  0  0  0
 11 16  1  0  0  0  0
 12 11  1  0  0  0  0
 12 31  1  0  0  0  0
 12 13  1  0  0  0  0
 13 14  1  0  0  0  0
 13 32  1  0  0  0  0
 14 15  1  0  0  0  0
 14 34  1  1  0  0  0
 15 35  1  0  0  0  0
 16 15  1  0  0  0  0
 16 38  1  0  0  0  0
 17 14  1  0  0  0  0
 18 17  2  0  0  0  0
 19 17  1  0  0  0  0
 19 20  1  0  0  0  0
 20 21  1  0  0  0  0
 21 43  1  0  0  0  0
 21 22  1  0  0  0  0
 21 42  1  0  0  0  0
 22 23  1  0  0  0  0
 23 44  1  0  0  0  0
 23 45  1  0  0  0  0
 23 24  1  0  0  0  0
 24 47  1  0  0  0  0
 25 24  1  0  0  0  0
 26 25  1  0  0  0  0
 27 22  1  0  0  0  0
 27 26  1  0  0  0  0
 30 12  1  0  0  0  0
 33 13  1  0  0  0  0
 36 15  1  0  0  0  0
 37 16  1  0  0  0  0
 39 19  1  0  0  0  0
 40 20  1  0  0  0  0
 41 20  1  0  0  0  0
 46 24  1  0  0  0  0
 48 26  1  0  0  0  0
 49 26  1  0  0  0  0
 50 27  1  0  0  0  0
 51 27  1  0  0  0  0
M  END
>  <Pose>
1

>  <Score>
-7.22

$$$$
