
 OpenBabel03172210433D

 54 57  0  0  1  0  0  0  0  0999 V2000
   47.8100    2.5550   41.8830 Cl  0  0  0  0  0  0  0  0  0  0  0  0
   48.6730    3.2880   43.2140 C   0  0  0  0  0  0  0  0  0  0  0  0
   48.1530    4.4470   43.7770 C   0  0  0  0  0  0  0  0  0  0  0  0
   48.8290    4.9610   44.8520 C   0  0  0  0  0  0  0  0  0  0  0  0
   49.9810    4.3520   45.3370 C   0  0  0  0  0  0  0  0  0  0  0  0
   50.5110    3.1760   44.7690 C   0  0  0  0  0  0  0  0  0  0  0  0
   49.7890    2.6870   43.6980 C   0  0  0  0  0  0  0  0  0  0  0  0
   47.0330    5.1260   43.0730 C   0  0  0  0  0  0  0  0  0  0  0  0
   45.9160    5.3680   43.9120 N   0  0  0  0  0  0  0  0  0  0  0  0
   45.2300    6.5720   44.0870 C   0  0  0  0  0  0  0  0  0  0  0  0
   45.3230    7.2380   45.0850 O   0  0  0  0  0  0  0  0  0  0  0  0
   44.3400    7.0520   42.9360 C   0  0  0  0  0  0  0  0  0  0  0  0
   43.4170    8.0080   43.4960 N   0  0  0  0  0  0  0  0  0  0  0  0
   42.4870    8.7040   42.7340 C   0  0  0  0  0  0  0  0  0  0  0  0
   41.4760    9.3940   43.7450 C   0  0  0  0  0  0  0  0  0  0  0  0
   42.3340    9.5950   44.8820 N   0  0  0  0  0  0  0  0  0  0  0  0
   42.4390    8.3460   45.6910 C   0  0  0  0  0  0  0  0  0  0  0  0
   42.7330    7.3110   44.6420 C   0  0  0  0  0  0  0  0  0  0  0  0
   42.9080   10.7780   45.2400 C   0  0  0  0  0  0  0  0  0  0  0  0
   43.9790   10.7300   45.9380 O   0  0  0  0  0  0  0  0  0  0  0  0
   42.4270   12.1630   44.9390 C   0  0  1  0  0  0  0  0  0  0  0  0
   40.9990   12.1210   45.2640 O   0  0  0  0  0  0  0  0  0  0  0  0
   40.7750   11.2880   46.3980 C   0  0  0  0  0  0  0  0  0  0  0  0
   41.7380   11.2810   47.3730 C   0  0  0  0  0  0  0  0  0  0  0  0
   41.6120   10.4950   48.5130 C   0  0  0  0  0  0  0  0  0  0  0  0
   40.4600    9.7220   48.6060 C   0  0  0  0  0  0  0  0  0  0  0  0
   39.4700    9.7130   47.6490 C   0  0  0  0  0  0  0  0  0  0  0  0
   39.6310   10.5100   46.5330 C   0  0  0  0  0  0  0  0  0  0  0  0
   42.8730   12.0850   47.2170 O   0  0  0  0  0  0  0  0  0  0  0  0
   42.9840   13.0160   46.1120 C   0  0  0  0  0  0  0  0  0  0  0  0
   48.5190    5.8590   45.3620 H   0  0  0  0  0  0  0  0  0  0  0  0
   50.5600    4.7300   46.1750 H   0  0  0  0  0  0  0  0  0  0  0  0
   51.4050    2.7240   45.1680 H   0  0  0  0  0  0  0  0  0  0  0  0
   50.1540    1.7740   43.2710 H   0  0  0  0  0  0  0  0  0  0  0  0
   47.4900    6.1470   42.7970 H   0  0  0  0  0  0  0  0  0  0  0  0
   46.7700    4.5510   42.1810 H   0  0  0  0  0  0  0  0  0  0  0  0
   45.5870    4.5670   44.5610 H   0  0  0  0  0  0  0  0  0  0  0  0
   44.9380    7.5370   42.1550 H   0  0  0  0  0  0  0  0  0  0  0  0
   43.7990    6.1790   42.5530 H   0  0  0  0  0  0  0  0  0  0  0  0
   41.8750    8.2040   42.0090 H   0  0  0  0  0  0  0  0  0  0  0  0
   42.9920    9.6310   42.3150 H   0  0  0  0  0  0  0  0  0  0  0  0
   40.6920    8.6550   43.9580 H   0  0  0  0  0  0  0  0  0  0  0  0
   41.1120   10.3280   43.3350 H   0  0  0  0  0  0  0  0  0  0  0  0
   41.4070    8.1570   46.0400 H   0  0  0  0  0  0  0  0  0  0  0  0
   43.1260    8.4270   46.5060 H   0  0  0  0  0  0  0  0  0  0  0  0
   41.8020    6.9270   44.1900 H   0  0  0  0  0  0  0  0  0  0  0  0
   43.3720    6.4860   44.9280 H   0  0  0  0  0  0  0  0  0  0  0  0
   42.6430   12.5410   43.9730 H   0  0  0  0  0  0  0  0  0  0  0  0
   42.4050   10.4960   49.2730 H   0  0  0  0  0  0  0  0  0  0  0  0
   40.3700    9.0970   49.4860 H   0  0  0  0  0  0  0  0  0  0  0  0
   38.5760    9.0700   47.7610 H   0  0  0  0  0  0  0  0  0  0  0  0
   38.8880   10.5430   45.7470 H   0  0  0  0  0  0  0  0  0  0  0  0
   44.0850   13.0720   45.9010 H   0  0  0  0  0  0  0  0  0  0  0  0
   42.4720   13.9420   46.2490 H   0  0  0  0  0  0  0  0  0  0  0  0
  1  2  1  0  0  0  0
  2  7  2  0  0  0  0
  2  3  1  0  0  0  0
  3  4  2  0  0  0  0
  4  5  1  0  0  0  0
  4 31  1  0  0  0  0
  5 32  1  0  0  0  0
  6 33  1  0  0  0  0
  6  5  2  0  0  0  0
  7  6  1  0  0  0  0
  8  3  1  0  0  0  0
  8  9  1  0  0  0  0
  9 10  1  0  0  0  0
  9 37  1  0  0  0  0
 10 11  2  0  0  0  0
 12 13  1  0  0  0  0
 12 10  1  0  0  0  0
 13 18  1  0  0  0  0
 14 13  1  0  0  0  0
 14 15  1  0  0  0  0
 15 42  1  0  0  0  0
 15 16  1  0  0  0  0
 16 19  1  0  0  0  0
 16 17  1  0  0  0  0
 17 44  1  0  0  0  0
 17 45  1  0  0  0  0
 18 47  1  0  0  0  0
 18 17  1  0  0  0  0
 19 20  2  0  0  0  0
 21 48  1  6  0  0  0
 21 19  1  0  0  0  0
 21 22  1  0  0  0  0
 21 30  1  0  0  0  0
 22 23  1  0  0  0  0
 23 28  2  0  0  0  0
 23 24  1  0  0  0  0
 24 25  2  0  0  0  0
 25 26  1  0  0  0  0
 25 49  1  0  0  0  0
 26 50  1  0  0  0  0
 27 51  1  0  0  0  0
 27 26  2  0  0  0  0
 28 27  1  0  0  0  0
 29 24  1  0  0  0  0
 30 54  1  0  0  0  0
 30 29  1  0  0  0  0
 34  7  1  0  0  0  0
 35  8  1  0  0  0  0
 36  8  1  0  0  0  0
 38 12  1  0  0  0  0
 39 12  1  0  0  0  0
 40 14  1  0  0  0  0
 41 14  1  0  0  0  0
 43 15  1  0  0  0  0
 46 18  1  0  0  0  0
 52 28  1  0  0  0  0
 53 30  1  0  0  0  0
M  END
>  <Pose>
1

>  <Score>
-5.31

$$$$
