
 OpenBabel03172210433D

 50 53  0  0  1  0  0  0  0  0999 V2000
   44.8540   15.4680   47.0320 Cl  0  0  0  0  0  0  0  0  0  0  0  0
   43.9880   14.0200   46.5830 C   0  0  0  0  0  0  0  0  0  0  0  0
   42.6420   14.0240   46.2890 C   0  0  0  0  0  0  0  0  0  0  0  0
   42.0190   12.8410   45.9420 C   0  0  0  0  0  0  0  0  0  0  0  0
   42.6850   11.6430   45.8740 C   0  0  0  0  0  0  0  0  0  0  0  0
   44.0470   11.6580   46.1750 C   0  0  0  0  0  0  0  0  0  0  0  0
   44.6740   12.8350   46.5220 C   0  0  0  0  0  0  0  0  0  0  0  0
   42.0040   10.3750   45.5120 C   0  0  1  0  0  0  0  0  0  0  0  0
   40.9810   10.6140   44.4850 N   0  0  0  0  0  0  0  0  0  0  0  0
   41.6940   11.0200   43.3310 C   0  0  0  0  0  0  0  0  0  0  0  0
   41.2770   11.7740   42.4200 O   0  0  0  0  0  0  0  0  0  0  0  0
   43.0250   10.3870   43.4040 C   0  0  0  0  0  0  0  0  0  0  0  0
   43.9670   10.4840   42.5860 O   0  0  0  0  0  0  0  0  0  0  0  0
   43.0010    9.6250   44.6450 C   0  0  0  0  0  0  0  0  0  0  0  0
   43.6680    8.5590   44.9200 C   0  0  0  0  0  0  0  0  0  0  0  0
   43.5330    7.9230   46.1530 O   0  0  0  0  0  0  0  0  0  0  0  0
   44.5910    7.9830   43.9460 C   0  0  0  0  0  0  0  0  0  0  0  0
   45.6400    8.4520   43.3710 O   0  0  0  0  0  0  0  0  0  0  0  0
   46.1600    7.5760   42.5610 C   0  0  0  0  0  0  0  0  0  0  0  0
   45.4080    6.4300   42.5900 C   0  0  0  0  0  0  0  0  0  0  0  0
   44.3960    6.6780   43.4750 C   0  0  0  0  0  0  0  0  0  0  0  0
   39.5430   10.4660   44.6540 C   0  0  0  0  0  0  0  0  0  0  0  0
   38.9100   11.5270   45.5000 C   0  0  0  0  0  0  0  0  0  0  0  0
   38.1870   12.5370   44.8060 N   0  0  0  0  0  4  0  0  0  0  0  0
   37.0560   13.0950   45.4750 C   0  0  0  0  0  0  0  0  0  0  0  0
   37.4060   13.8410   46.7420 C   0  0  0  0  0  0  0  0  0  0  0  0
   38.3240   14.8540   46.4840 O   0  0  0  0  0  0  0  0  0  0  0  0
   39.4260   14.3930   45.7720 C   0  0  0  0  0  0  0  0  0  0  0  0
   39.0560   13.6910   44.4920 C   0  0  0  0  0  0  0  0  0  0  0  0
   42.1330   14.9730   46.3460 H   0  0  0  0  0  0  0  0  0  0  0  0
   40.9620   12.8850   45.7150 H   0  0  0  0  0  0  0  0  0  0  0  0
   44.5780   10.6970   46.1220 H   0  0  0  0  0  0  0  0  0  0  0  0
   45.7360   12.8390   46.7540 H   0  0  0  0  0  0  0  0  0  0  0  0
   41.6510    9.7860   46.3530 H   0  0  0  0  0  0  0  0  0  0  0  0
   47.0510    7.6740   41.9280 H   0  0  0  0  0  0  0  0  0  0  0  0
   45.5540    5.4930   42.0360 H   0  0  0  0  0  0  0  0  0  0  0  0
   43.6100    5.9960   43.7530 H   0  0  0  0  0  0  0  0  0  0  0  0
   39.3000    9.4530   45.0550 H   0  0  0  0  0  0  0  0  0  0  0  0
   39.1200   10.5270   43.6120 H   0  0  0  0  0  0  0  0  0  0  0  0
   38.3380   11.0640   46.3350 H   0  0  0  0  0  0  0  0  0  0  0  0
   39.7640   12.0510   46.0190 H   0  0  0  0  0  0  0  0  0  0  0  0
   37.8550   12.1380   43.9010 H   0  0  0  0  0  0  0  0  0  0  0  0
   36.6590   13.8970   44.7780 H   0  0  0  0  0  0  0  0  0  0  0  0
   36.2180   12.4280   45.6450 H   0  0  0  0  0  0  0  0  0  0  0  0
   36.4530   14.3740   47.0350 H   0  0  0  0  0  0  0  0  0  0  0  0
   37.6700   13.1950   47.5850 H   0  0  0  0  0  0  0  0  0  0  0  0
   40.0590   13.7100   46.3830 H   0  0  0  0  0  0  0  0  0  0  0  0
   40.0320   15.2850   45.5100 H   0  0  0  0  0  0  0  0  0  0  0  0
   38.4610   14.3870   43.8790 H   0  0  0  0  0  0  0  0  0  0  0  0
   40.0010   13.3700   44.0190 H   0  0  0  0  0  0  0  0  0  0  0  0
  2  1  1  0  0  0  0
  3 30  1  0  0  0  0
  3  2  2  0  0  0  0
  4  3  1  0  0  0  0
  5  4  2  0  0  0  0
  5  6  1  0  0  0  0
  6  7  2  0  0  0  0
  7  2  1  0  0  0  0
  7 33  1  0  0  0  0
  8  5  1  0  0  0  0
  8 34  1  1  0  0  0
  9 22  1  0  0  0  0
  9  8  1  0  0  0  0
 10 12  1  0  0  0  0
 10  9  1  0  0  0  0
 11 10  2  0  0  0  0
 12 14  1  0  0  0  0
 13 12  2  0  0  0  0
 14 15  2  0  0  0  0
 14  8  1  0  0  0  0
 15 16  1  0  0  0  0
 17 15  1  0  0  0  0
 18 17  1  0  0  0  0
 19 20  2  0  0  0  0
 19 18  1  0  0  0  0
 20 21  1  0  0  0  0
 21 37  1  0  0  0  0
 21 17  2  0  0  0  0
 22 38  1  0  0  0  0
 22 23  1  0  0  0  0
 23 41  1  0  0  0  0
 23 40  1  0  0  0  0
 24 25  1  0  0  0  0
 24 23  1  0  0  0  0
 25 44  1  0  0  0  0
 25 26  1  0  0  0  0
 26 45  1  0  0  0  0
 26 46  1  0  0  0  0
 27 26  1  0  0  0  0
 28 47  1  0  0  0  0
 28 27  1  0  0  0  0
 29 24  1  0  0  0  0
 29 28  1  0  0  0  0
 31  4  1  0  0  0  0
 32  6  1  0  0  0  0
 35 19  1  0  0  0  0
 36 20  1  0  0  0  0
 39 22  1  0  0  0  0
 42 24  1  0  0  0  0
 43 25  1  0  0  0  0
 48 28  1  0  0  0  0
 49 29  1  0  0  0  0
 50 29  1  0  0  0  0
M  END
>  <Pose>
1

>  <Score>
-5.39

$$$$
