
 OpenBabel03172210433D

 57 61  0  0  1  0  0  0  0  0999 V2000
   45.4210    5.8090   43.5840 Cl  0  0  0  0  0  0  0  0  0  0  0  0
   44.1400    7.0080   43.5220 C   0  0  0  0  0  0  0  0  0  0  0  0
   44.3870    8.3310   43.2130 C   0  0  0  0  0  0  0  0  0  0  0  0
   43.3800    9.2590   43.1670 C   0  0  0  0  0  0  0  0  0  0  0  0
   42.0560    8.9100   43.4300 C   0  0  0  0  0  0  0  0  0  0  0  0
   41.7970    7.5970   43.7370 C   0  0  0  0  0  0  0  0  0  0  0  0
   42.8260    6.6860   43.7770 C   0  0  0  0  0  0  0  0  0  0  0  0
   40.9760    9.9350   43.3520 C   0  0  1  0  0  0  0  0  0  0  0  0
   39.8910    9.3930   42.7140 O   0  0  0  0  0  0  0  0  0  0  0  0
   40.6570   10.5590   44.6840 C   0  0  2  0  0  0  0  0  0  0  0  0
   39.2560   10.2500   44.9400 N   0  0  0  0  0  0  0  0  0  0  0  0
   38.6760   11.4270   45.5560 C   0  0  1  0  0  0  0  0  0  0  0  0
   39.4340   12.5460   44.9010 C   0  0  2  0  0  0  0  0  0  0  0  0
   40.8280   12.0310   44.7310 C   0  0  1  0  0  0  0  0  0  0  0  0
   41.5840   12.4990   45.9250 C   0  0  0  0  0  0  0  0  0  0  0  0
   42.7030   12.0850   46.3110 O   0  0  0  0  0  0  0  0  0  0  0  0
   40.7740   13.5210   46.5460 N   0  0  0  0  0  0  0  0  0  0  0  0
   39.6240   13.7330   45.7530 C   0  0  0  0  0  0  0  0  0  0  0  0
   38.8770   14.7420   45.7540 O   0  0  0  0  0  0  0  0  0  0  0  0
   41.0900   14.1930   47.7720 C   0  0  0  0  0  0  0  0  0  0  0  0
   41.7970   15.4890   47.6400 C   0  0  0  0  0  0  0  0  0  0  0  0
   43.2190   15.5250   48.0770 C   0  0  0  0  0  0  0  0  0  0  0  0
   44.1090   15.7550   47.0360 O   0  0  0  0  0  0  0  0  0  0  0  0
   44.7870   14.5570   46.7290 C   0  0  0  0  0  0  0  0  0  0  0  0
   37.2190   11.5280   45.3000 C   0  0  0  0  0  0  0  0  0  0  0  0
   36.5980   11.4740   46.5260 C   0  0  0  0  0  0  0  0  0  0  0  0
   35.2130   11.5520   46.5800 C   0  0  0  0  0  0  0  0  0  0  0  0
   34.5010   11.6820   45.4110 C   0  0  0  0  0  0  0  0  0  0  0  0
   35.1170   11.7380   44.1720 C   0  0  0  0  0  0  0  0  0  0  0  0
   36.4930   11.6590   44.1330 C   0  0  0  0  0  0  0  0  0  0  0  0
   37.5610   11.3330   47.5870 N   0  0  0  0  0  0  0  0  0  0  0  0
   38.8460   11.2980   46.9930 C   0  0  0  0  0  0  0  0  0  0  0  0
   39.9010   11.1740   47.6350 O   0  0  0  0  0  0  0  0  0  0  0  0
   45.4170    8.6370   43.0020 H   0  0  0  0  0  0  0  0  0  0  0  0
   43.5860   10.3130   42.9210 H   0  0  0  0  0  0  0  0  0  0  0  0
   40.7970    7.2410   43.9430 H   0  0  0  0  0  0  0  0  0  0  0  0
   42.6380    5.6350   44.0200 H   0  0  0  0  0  0  0  0  0  0  0  0
   41.4300   10.7690   42.6960 H   0  0  0  0  0  0  0  0  0  0  0  0
   39.9760    8.4060   42.7480 H   0  0  0  0  0  0  0  0  0  0  0  0
   41.2440   10.0280   45.4890 H   0  0  0  0  0  0  0  0  0  0  0  0
   39.1720    9.4220   45.5390 H   0  0  0  0  0  0  0  0  0  0  0  0
   38.9590   12.8070   43.9360 H   0  0  0  0  0  0  0  0  0  0  0  0
   41.3260   12.4540   43.8440 H   0  0  0  0  0  0  0  0  0  0  0  0
   41.6760   13.5040   48.4090 H   0  0  0  0  0  0  0  0  0  0  0  0
   40.1540   14.3950   48.3700 H   0  0  0  0  0  0  0  0  0  0  0  0
   41.8070   15.7390   46.5350 H   0  0  0  0  0  0  0  0  0  0  0  0
   41.2310   16.3510   48.0830 H   0  0  0  0  0  0  0  0  0  0  0  0
   43.5590   14.6120   48.5930 H   0  0  0  0  0  0  0  0  0  0  0  0
   43.3190   16.3710   48.8010 H   0  0  0  0  0  0  0  0  0  0  0  0
   45.3520   14.1810   47.6000 H   0  0  0  0  0  0  0  0  0  0  0  0
   44.0190   13.7900   46.4870 H   0  0  0  0  0  0  0  0  0  0  0  0
   45.4260   14.6860   45.8340 H   0  0  0  0  0  0  0  0  0  0  0  0
   34.7120   11.5100   47.5580 H   0  0  0  0  0  0  0  0  0  0  0  0
   33.4170   11.7430   45.4700 H   0  0  0  0  0  0  0  0  0  0  0  0
   34.4940   11.8400   43.2940 H   0  0  0  0  0  0  0  0  0  0  0  0
   36.9930   11.7020   43.1530 H   0  0  0  0  0  0  0  0  0  0  0  0
   37.2940   11.2740   48.5960 H   0  0  0  0  0  0  0  0  0  0  0  0
  2  1  1  0  0  0  0
  2  7  1  0  0  0  0
  3  2  2  0  0  0  0
  4  3  1  0  0  0  0
  4  5  2  0  0  0  0
  5  6  1  0  0  0  0
  6  7  2  0  0  0  0
  6 36  1  0  0  0  0
  7 37  1  0  0  0  0
  8 38  1  6  0  0  0
  8  5  1  0  0  0  0
  8 10  1  0  0  0  0
  9 39  1  0  0  0  0
  9  8  1  0  0  0  0
 10 14  1  0  0  0  0
 10 11  1  0  0  0  0
 10 40  1  1  0  0  0
 11 41  1  0  0  0  0
 11 12  1  0  0  0  0
 12 25  1  6  0  0  0
 12 32  1  0  0  0  0
 13 42  1  6  0  0  0
 13 12  1  0  0  0  0
 13 18  1  0  0  0  0
 14 43  1  6  0  0  0
 14 13  1  0  0  0  0
 14 15  1  0  0  0  0
 15 16  2  0  0  0  0
 15 17  1  0  0  0  0
 17 20  1  0  0  0  0
 18 19  2  0  0  0  0
 18 17  1  0  0  0  0
 20 45  1  0  0  0  0
 20 44  1  0  0  0  0
 21 20  1  0  0  0  0
 21 22  1  0  0  0  0
 21 47  1  0  0  0  0
 22 48  1  0  0  0  0
 22 49  1  0  0  0  0
 23 22  1  0  0  0  0
 24 23  1  0  0  0  0
 24 50  1  0  0  0  0
 25 26  1  0  0  0  0
 26 27  2  0  0  0  0
 26 31  1  0  0  0  0
 27 53  1  0  0  0  0
 28 54  1  0  0  0  0
 28 27  1  0  0  0  0
 29 28  2  0  0  0  0
 30 29  1  0  0  0  0
 30 25  2  0  0  0  0
 31 57  1  0  0  0  0
 32 31  1  0  0  0  0
 32 33  2  0  0  0  0
 34  3  1  0  0  0  0
 35  4  1  0  0  0  0
 46 21  1  0  0  0  0
 51 24  1  0  0  0  0
 52 24  1  0  0  0  0
 55 29  1  0  0  0  0
 56 30  1  0  0  0  0
M  END
>  <Pose>
1

>  <Score>
-5.26

$$$$
