
 OpenBabel03172210433D

 48 51  0  0  1  0  0  0  0  0999 V2000
   48.9860    2.1150   42.7360 Cl  0  0  0  0  0  0  0  0  0  0  0  0
   48.1730    3.6570   42.8800 C   0  0  0  0  0  0  0  0  0  0  0  0
   48.2690    4.4030   44.0510 C   0  0  0  0  0  0  0  0  0  0  0  0
   47.6240    5.6160   44.1520 C   0  0  0  0  0  0  0  0  0  0  0  0
   46.8690    6.1360   43.1220 C   0  0  0  0  0  0  0  0  0  0  0  0
   46.7700    5.4040   41.9590 C   0  0  0  0  0  0  0  0  0  0  0  0
   47.4140    4.1910   41.8560 C   0  0  0  0  0  0  0  0  0  0  0  0
   46.1700    7.4290   43.1970 C   0  0  0  0  0  0  0  0  0  0  0  0
   45.0260    7.3710   44.1620 C   0  0  0  0  0  0  0  0  0  0  0  0
   45.3270    7.2320   45.3980 O   0  0  0  0  0  0  0  0  0  0  0  0
   43.6950    7.4660   43.7310 N   0  0  0  0  0  0  0  0  0  0  0  0
   43.3260    8.1900   42.5560 C   0  0  0  0  0  0  0  0  0  0  0  0
   41.9210    8.7230   42.5720 C   0  0  0  0  0  0  0  0  0  0  0  0
   41.4540    8.8920   43.9690 C   0  0  2  0  0  0  0  0  0  0  0  0
   41.7910    7.9710   44.9430 C   0  0  0  0  0  0  0  0  0  0  0  0
   41.3690    8.1110   46.2050 N   0  0  0  0  0  0  0  0  0  0  0  0
   40.5990    9.1450   46.6070 C   0  0  2  0  0  0  0  0  0  0  0  0
   40.2670   10.0500   45.6560 N   0  0  0  0  0  0  0  0  0  0  0  0
   40.6650    9.9520   44.3760 C   0  0  0  0  0  0  0  0  0  0  0  0
   40.3060   10.8980   43.4260 O   0  0  0  0  0  0  0  0  0  0  0  0
   40.1850    9.2470   47.9460 N   0  0  0  0  0  0  0  0  0  0  0  0
   41.1360    9.1600   49.0150 C   0  0  0  0  0  0  0  0  0  0  0  0
   40.4950    9.8660   50.2180 C   0  0  0  0  0  0  0  0  0  0  0  0
   39.3470    9.2280   50.6140 O   0  0  0  0  0  0  0  0  0  0  0  0
   38.4610    8.9070   49.6210 C   0  0  0  0  0  0  0  0  0  0  0  0
   38.8000    9.4400   48.2570 C   0  0  0  0  0  0  0  0  0  0  0  0
   42.6580    6.8210   44.4880 C   0  0  0  0  0  0  0  0  0  0  0  0
   48.8560    4.0040   44.8600 H   0  0  0  0  0  0  0  0  0  0  0  0
   47.6920    6.2060   45.0630 H   0  0  0  0  0  0  0  0  0  0  0  0
   46.1830    5.7650   41.1000 H   0  0  0  0  0  0  0  0  0  0  0  0
   47.3410    3.5990   40.9310 H   0  0  0  0  0  0  0  0  0  0  0  0
   45.8190    7.6820   42.1660 H   0  0  0  0  0  0  0  0  0  0  0  0
   46.9190    8.1960   43.4910 H   0  0  0  0  0  0  0  0  0  0  0  0
   44.0720    8.9640   42.2670 H   0  0  0  0  0  0  0  0  0  0  0  0
   43.3500    7.4610   41.6840 H   0  0  0  0  0  0  0  0  0  0  0  0
   41.2000    8.0350   42.0380 H   0  0  0  0  0  0  0  0  0  0  0  0
   41.8280    9.6870   42.0190 H   0  0  0  0  0  0  0  0  0  0  0  0
   39.3360   11.0310   43.1310 H   0  0  0  0  0  0  0  0  0  0  0  0
   42.0730    9.7270   48.8080 H   0  0  0  0  0  0  0  0  0  0  0  0
   41.4120    8.1120   49.2840 H   0  0  0  0  0  0  0  0  0  0  0  0
   40.2250   10.8820   49.8620 H   0  0  0  0  0  0  0  0  0  0  0  0
   41.1970    9.9570   51.0470 H   0  0  0  0  0  0  0  0  0  0  0  0
   38.3260    7.8040   49.5490 H   0  0  0  0  0  0  0  0  0  0  0  0
   37.4630    9.3440   49.8960 H   0  0  0  0  0  0  0  0  0  0  0  0
   38.4940   10.5210   48.1860 H   0  0  0  0  0  0  0  0  0  0  0  0
   38.1870    8.8620   47.5310 H   0  0  0  0  0  0  0  0  0  0  0  0
   43.0730    6.2850   45.3620 H   0  0  0  0  0  0  0  0  0  0  0  0
   42.0550    6.1140   43.8770 H   0  0  0  0  0  0  0  0  0  0  0  0
  1  2  1  0  0  0  0
  2  3  1  0  0  0  0
  3  4  2  0  0  0  0
  3 28  1  0  0  0  0
  4 29  1  0  0  0  0
  5  8  1  0  0  0  0
  5  4  1  0  0  0  0
  6  5  2  0  0  0  0
  7  6  1  0  0  0  0
  7  2  2  0  0  0  0
  8 33  1  0  0  0  0
  8  9  1  0  0  0  0
  9 10  2  0  0  0  0
 11  9  1  0  0  0  0
 11 27  1  0  0  0  0
 12 13  1  0  0  0  0
 12 11  1  0  0  0  0
 13 14  1  0  0  0  0
 14 19  1  6  0  0  0
 14 15  1  0  0  0  0
 15 16  2  0  0  0  0
 16 17  1  0  0  0  0
 17 21  1  1  0  0  0
 18 17  1  0  0  0  0
 19 18  2  0  0  0  0
 20 19  1  0  0  0  0
 21 26  1  0  0  0  0
 21 22  1  0  0  0  0
 22 40  1  0  0  0  0
 22 23  1  0  0  0  0
 23 24  1  0  0  0  0
 23 42  1  0  0  0  0
 25 44  1  0  0  0  0
 25 24  1  0  0  0  0
 26 25  1  0  0  0  0
 27 15  1  0  0  0  0
 27 47  1  0  0  0  0
 30  6  1  0  0  0  0
 31  7  1  0  0  0  0
 32  8  1  0  0  0  0
 34 12  1  0  0  0  0
 35 12  1  0  0  0  0
 36 13  1  0  0  0  0
 37 13  1  0  0  0  0
 38 20  1  0  0  0  0
 39 22  1  0  0  0  0
 41 23  1  0  0  0  0
 43 25  1  0  0  0  0
 45 26  1  0  0  0  0
 46 26  1  0  0  0  0
 48 27  1  0  0  0  0
M  END
>  <Pose>
1

>  <Score>
-5.93

$$$$
