
 OpenBabel03172210433D

 52 55  0  0  0  0  0  0  0  0999 V2000
   46.1050   13.1120   49.2340 Cl  0  0  0  0  0  0  0  0  0  0  0  0
   45.0750   12.8260   47.8650 C   0  0  0  0  0  0  0  0  0  0  0  0
   44.2370   11.7100   47.8220 C   0  0  0  0  0  0  0  0  0  0  0  0
   43.4200   11.4890   46.7290 C   0  0  0  0  0  0  0  0  0  0  0  0
   43.4130   12.3680   45.6490 C   0  0  0  0  0  0  0  0  0  0  0  0
   44.2330   13.4620   45.6870 C   0  0  0  0  0  0  0  0  0  0  0  0
   45.0550   13.6840   46.7910 C   0  0  0  0  0  0  0  0  0  0  0  0
   42.5200   12.0910   44.4930 C   0  0  0  0  0  0  0  0  0  0  0  0
   42.9650   10.9030   43.7390 C   0  0  0  0  0  0  0  0  0  0  0  0
   43.8170   11.0790   42.8290 O   0  0  0  0  0  0  0  0  0  0  0  0
   42.4950    9.6030   43.9790 N   0  0  0  0  0  0  0  0  0  0  0  0
   42.1050    8.7180   42.8670 C   0  0  0  0  0  0  0  0  0  0  0  0
   42.5460    7.3030   43.2120 C   0  0  0  0  0  0  0  0  0  0  0  0
   43.6870    7.4280   44.0960 N   0  0  0  0  0  0  0  0  0  0  0  0
   43.3830    7.8740   45.4450 C   0  0  0  0  0  0  0  0  0  0  0  0
   42.3510    9.0050   45.2990 C   0  0  0  0  0  0  0  0  0  0  0  0
   45.0090    7.1470   43.6640 C   0  0  0  0  0  0  0  0  0  0  0  0
   45.7550    8.1260   43.0340 C   0  0  0  0  0  0  0  0  0  0  0  0
   47.0190    7.8250   42.6160 N   0  0  0  0  0  0  0  0  0  0  0  0
   47.5670    6.6380   42.7850 N   0  0  0  0  0  0  0  0  0  0  0  0
   46.8870    5.6230   43.4020 C   0  0  0  0  0  0  0  0  0  0  0  0
   45.6260    5.9270   43.8160 C   0  0  0  0  0  0  0  0  0  0  0  0
   47.5330    4.3750   43.5470 N   0  0  0  0  0  0  0  0  0  0  0  0
   48.5610    4.1800   44.5530 C   0  0  0  0  0  0  0  0  0  0  0  0
   49.7520    3.4260   43.9600 C   0  0  0  0  0  0  0  0  0  0  0  0
   49.3460    2.3230   43.2350 O   0  0  0  0  0  0  0  0  0  0  0  0
   48.5840    2.7680   42.1670 C   0  0  0  0  0  0  0  0  0  0  0  0
   47.2260    3.2370   42.7200 C   0  0  0  0  0  0  0  0  0  0  0  0
   44.2450   11.0360   48.6520 H   0  0  0  0  0  0  0  0  0  0  0  0
   42.7560   10.6290   46.6620 H   0  0  0  0  0  0  0  0  0  0  0  0
   44.2640   14.1840   44.8650 H   0  0  0  0  0  0  0  0  0  0  0  0
   45.6900   14.5530   46.7910 H   0  0  0  0  0  0  0  0  0  0  0  0
   42.5980   12.9970   43.8240 H   0  0  0  0  0  0  0  0  0  0  0  0
   41.4670   11.9940   44.8270 H   0  0  0  0  0  0  0  0  0  0  0  0
   42.6180    9.1110   41.9770 H   0  0  0  0  0  0  0  0  0  0  0  0
   41.0120    8.7830   42.6880 H   0  0  0  0  0  0  0  0  0  0  0  0
   42.7580    6.6890   42.3260 H   0  0  0  0  0  0  0  0  0  0  0  0
   41.7360    6.7970   43.7830 H   0  0  0  0  0  0  0  0  0  0  0  0
   44.2430    8.2250   46.0150 H   0  0  0  0  0  0  0  0  0  0  0  0
   42.8580    7.0370   45.9490 H   0  0  0  0  0  0  0  0  0  0  0  0
   42.4080    9.7200   46.1180 H   0  0  0  0  0  0  0  0  0  0  0  0
   41.3240    8.5690   45.3200 H   0  0  0  0  0  0  0  0  0  0  0  0
   45.4040    9.1120   42.8510 H   0  0  0  0  0  0  0  0  0  0  0  0
   45.0480    5.1610   44.3040 H   0  0  0  0  0  0  0  0  0  0  0  0
   48.9510    5.1370   44.9550 H   0  0  0  0  0  0  0  0  0  0  0  0
   48.1560    3.5280   45.3480 H   0  0  0  0  0  0  0  0  0  0  0  0
   50.3890    3.1010   44.7930 H   0  0  0  0  0  0  0  0  0  0  0  0
   50.3660    4.0840   43.3220 H   0  0  0  0  0  0  0  0  0  0  0  0
   48.4550    2.0240   41.3780 H   0  0  0  0  0  0  0  0  0  0  0  0
   49.0650    3.7080   41.7760 H   0  0  0  0  0  0  0  0  0  0  0  0
   46.5320    3.4030   41.9060 H   0  0  0  0  0  0  0  0  0  0  0  0
   46.8730    2.4190   43.4070 H   0  0  0  0  0  0  0  0  0  0  0  0
  2  1  1  0  0  0  0
  3  2  1  0  0  0  0
  3 29  1  0  0  0  0
  4  3  2  0  0  0  0
  5  6  2  0  0  0  0
  5  4  1  0  0  0  0
  6  7  1  0  0  0  0
  7 32  1  0  0  0  0
  7  2  2  0  0  0  0
  8 34  1  0  0  0  0
  8  5  1  0  0  0  0
  9 11  1  0  0  0  0
  9  8  1  0  0  0  0
 10  9  2  0  0  0  0
 11 16  1  0  0  0  0
 12 13  1  0  0  0  0
 12 11  1  0  0  0  0
 13 38  1  0  0  0  0
 13 14  1  0  0  0  0
 14 15  1  0  0  0  0
 15 40  1  0  0  0  0
 15 39  1  0  0  0  0
 16 42  1  0  0  0  0
 16 15  1  0  0  0  0
 16 41  1  0  0  0  0
 17 22  1  0  0  0  0
 17 14  1  0  0  0  0
 18 17  2  0  0  0  0
 19 20  2  0  0  0  0
 19 18  1  0  0  0  0
 20 21  1  0  0  0  0
 21 23  1  0  0  0  0
 21 22  2  0  0  0  0
 22 44  1  0  0  0  0
 23 24  1  0  0  0  0
 24 45  1  0  0  0  0
 24 46  1  0  0  0  0
 25 24  1  0  0  0  0
 25 47  1  0  0  0  0
 26 25  1  0  0  0  0
 27 28  1  0  0  0  0
 27 26  1  0  0  0  0
 28 52  1  0  0  0  0
 28 23  1  0  0  0  0
 30  4  1  0  0  0  0
 31  6  1  0  0  0  0
 33  8  1  0  0  0  0
 35 12  1  0  0  0  0
 36 12  1  0  0  0  0
 37 13  1  0  0  0  0
 43 18  1  0  0  0  0
 48 25  1  0  0  0  0
 49 27  1  0  0  0  0
 50 27  1  0  0  0  0
 51 28  1  0  0  0  0
M  END
>  <Pose>
1

>  <Score>
-6.15

$$$$
