
 OpenBabel03172210433D

 42 45  0  0  0  0  0  0  0  0999 V2000
   53.0050    1.7290   46.4620 Cl  0  0  0  0  0  0  0  0  0  0  0  0
   52.2420    1.6560   44.9040 C   0  0  0  0  0  0  0  0  0  0  0  0
   51.0750    2.3340   44.5770 C   0  0  0  0  0  0  0  0  0  0  0  0
   50.5330    2.2450   43.3420 C   0  0  0  0  0  0  0  0  0  0  0  0
   51.1970    1.4490   42.4300 C   0  0  0  0  0  0  0  0  0  0  0  0
   52.3360    0.7660   42.6910 C   0  0  0  0  0  0  0  0  0  0  0  0
   52.8950    0.8460   43.9190 C   0  0  0  0  0  0  0  0  0  0  0  0
   49.3180    2.9090   42.9220 N   0  0  0  0  0  0  0  0  0  0  0  0
   48.7610    2.6280   41.7640 N   0  0  0  0  0  0  0  0  0  0  0  0
   47.7980    3.3170   41.7080 N   0  0  0  0  0  0  0  0  0  0  0  0
   47.2810    4.1520   42.4240 C   0  0  0  0  0  0  0  0  0  0  0  0
   48.5670    3.8270   43.4690 C   0  0  0  0  0  0  0  0  0  0  0  0
   46.6620    5.1490   43.2780 C   0  0  0  0  0  0  0  0  0  0  0  0
   45.5560    4.4650   43.7710 O   0  0  0  0  0  0  0  0  0  0  0  0
   46.7160    6.4090   43.7720 N   0  0  0  0  0  0  0  0  0  0  0  0
   47.0090    6.9130   45.0810 C   0  0  0  0  0  0  0  0  0  0  0  0
   46.3290    8.2860   45.2620 C   0  0  0  0  0  0  0  0  0  0  0  0
   45.1010    8.1770   44.4620 N   0  0  0  0  0  0  0  0  0  0  0  0
   45.2060    8.1700   43.0410 C   0  0  0  0  0  0  0  0  0  0  0  0
   46.5050    7.4880   42.7550 C   0  0  0  0  0  0  0  0  0  0  0  0
   43.8840    7.9660   45.1010 C   0  0  0  0  0  0  0  0  0  0  0  0
   43.1810    6.7680   44.9340 N   0  0  0  0  0  0  0  0  0  0  0  0
   42.0660    6.4610   45.4960 C   0  0  0  0  0  0  0  0  0  0  0  0
   41.4180    7.3340   46.3840 C   0  0  0  0  0  0  0  0  0  0  0  0
   42.1050    8.5300   46.5510 C   0  0  0  0  0  0  0  0  0  0  0  0
   43.2120    8.7780   45.9580 N   0  0  0  0  0  0  0  0  0  0  0  0
   50.5740    2.9020   45.3540 H   0  0  0  0  0  0  0  0  0  0  0  0
   50.7000    1.3970   41.4170 H   0  0  0  0  0  0  0  0  0  0  0  0
   52.8040    0.1630   41.9170 H   0  0  0  0  0  0  0  0  0  0  0  0
   53.7720    0.3640   44.2200 H   0  0  0  0  0  0  0  0  0  0  0  0
   48.6630    4.3140   44.3460 H   0  0  0  0  0  0  0  0  0  0  0  0
   48.0930    7.1760   45.1620 H   0  0  0  0  0  0  0  0  0  0  0  0
   46.6410    6.3120   45.9010 H   0  0  0  0  0  0  0  0  0  0  0  0
   46.0800    8.5060   46.2970 H   0  0  0  0  0  0  0  0  0  0  0  0
   47.0030    9.0650   44.8370 H   0  0  0  0  0  0  0  0  0  0  0  0
   45.2580    9.1930   42.6300 H   0  0  0  0  0  0  0  0  0  0  0  0
   44.2960    7.6540   42.5850 H   0  0  0  0  0  0  0  0  0  0  0  0
   47.4140    8.1210   42.7230 H   0  0  0  0  0  0  0  0  0  0  0  0
   46.3990    6.9850   41.7820 H   0  0  0  0  0  0  0  0  0  0  0  0
   41.5080    5.5280   45.3100 H   0  0  0  0  0  0  0  0  0  0  0  0
   40.4890    7.1310   46.8760 H   0  0  0  0  0  0  0  0  0  0  0  0
   41.6370    9.2920   47.2220 H   0  0  0  0  0  0  0  0  0  0  0  0
  2  1  1  0  0  0  0
  3  2  1  0  0  0  0
  3 27  1  0  0  0  0
  4  3  2  0  0  0  0
  5  6  2  0  0  0  0
  5  4  1  0  0  0  0
  6  7  1  0  0  0  0
  7 30  1  0  0  0  0
  7  2  2  0  0  0  0
  8  4  1  0  0  0  0
  8 12  1  0  0  0  0
  9  8  1  0  0  0  0
 10  9  2  0  0  0  0
 10 11  1  0  0  0  0
 11 13  1  0  0  0  0
 11 12  2  0  0  0  0
 12 31  1  0  0  0  0
 13 14  2  0  0  0  0
 13 15  1  0  0  0  0
 15 16  1  0  0  0  0
 16 32  1  0  0  0  0
 16 17  1  0  0  0  0
 16 33  1  0  0  0  0
 17 34  1  0  0  0  0
 18 21  1  0  0  0  0
 18 17  1  0  0  0  0
 19 18  1  0  0  0  0
 20 19  1  0  0  0  0
 20 15  1  0  0  0  0
 21 26  1  0  0  0  0
 22 21  2  0  0  0  0
 22 23  1  0  0  0  0
 23 24  2  0  0  0  0
 24 25  1  0  0  0  0
 24 41  1  0  0  0  0
 25 42  1  0  0  0  0
 26 25  2  0  0  0  0
 28  5  1  0  0  0  0
 29  6  1  0  0  0  0
 35 17  1  0  0  0  0
 36 19  1  0  0  0  0
 37 19  1  0  0  0  0
 38 20  1  0  0  0  0
 39 20  1  0  0  0  0
 40 23  1  0  0  0  0
M  END
>  <Pose>
1

>  <Score>
-6.55

$$$$
