
 OpenBabel03172210433D

 46 49  0  0  1  0  0  0  0  0999 V2000
   44.0550    6.8080   43.9590 Cl  0  0  0  0  0  0  0  0  0  0  0  0
   42.9630    8.1820   43.9650 C   0  0  0  0  0  0  0  0  0  0  0  0
   42.7710    8.9310   45.1090 C   0  0  0  0  0  0  0  0  0  0  0  0
   41.8980   10.0270   45.1150 C   0  0  0  0  0  0  0  0  0  0  0  0
   41.2560   10.3100   43.9370 C   0  0  0  0  0  0  0  0  0  0  0  0
   41.4530    9.5470   42.7790 C   0  0  0  0  0  0  0  0  0  0  0  0
   42.3140    8.4710   42.7830 C   0  0  0  0  0  0  0  0  0  0  0  0
   40.3840   11.3950   43.9170 O   0  0  0  0  0  0  0  0  0  0  0  0
   40.1390   12.1930   45.0220 C   0  0  0  0  0  0  0  0  0  0  0  0
   40.7890   11.9050   46.2110 C   0  0  0  0  0  0  0  0  0  0  0  0
   41.7300   10.7900   46.3670 C   0  0  2  0  0  0  0  0  0  0  0  0
   43.0650   11.3250   46.7920 C   0  0  0  0  0  0  0  0  0  0  0  0
   43.6280   12.4080   46.1540 C   0  0  0  0  0  0  0  0  0  0  0  0
   44.8410   12.8830   46.5480 N   0  0  0  0  0  0  0  0  0  0  0  0
   45.5100   12.2960   47.5710 C   0  0  0  0  0  0  0  0  0  0  0  0
   46.6340   12.7630   47.9080 O   0  0  0  0  0  0  0  0  0  0  0  0
   44.9870   11.2390   48.2120 N   0  0  0  0  0  0  0  0  0  0  0  0
   43.7870   10.7650   47.8270 C   0  0  0  0  0  0  0  0  0  0  0  0
   43.3170    9.7880   48.4280 O   0  0  0  0  0  0  0  0  0  0  0  0
   45.7340   10.6310   49.3080 C   0  0  0  0  0  0  0  0  0  0  0  0
   45.3820   14.0350   45.8330 C   0  0  0  0  0  0  0  0  0  0  0  0
   42.9560   13.0030   45.1220 O   0  0  0  0  0  0  0  0  0  0  0  0
   40.5130   12.7300   47.2840 C   0  0  0  0  0  0  0  0  0  0  0  0
   41.0800   12.5150   48.4020 O   0  0  0  0  0  0  0  0  0  0  0  0
   39.6680   13.7720   47.2400 N   0  0  0  0  0  0  0  0  0  0  0  0
   39.0550   14.0150   46.0560 C   0  0  0  0  0  0  0  0  0  0  0  0
   38.2660   14.9980   46.0370 O   0  0  0  0  0  0  0  0  0  0  0  0
   39.2940   13.2380   44.9840 N   0  0  0  0  0  0  0  0  0  0  0  0
   38.5990   13.5620   43.7540 C   0  0  0  0  0  0  0  0  0  0  0  0
   39.4130   14.6170   48.4070 C   0  0  0  0  0  0  0  0  0  0  0  0
   43.2920    8.6890   46.0340 H   0  0  0  0  0  0  0  0  0  0  0  0
   40.9100    9.8320   41.8820 H   0  0  0  0  0  0  0  0  0  0  0  0
   42.4530    7.8940   41.8790 H   0  0  0  0  0  0  0  0  0  0  0  0
   41.3710   10.1500   47.2030 H   0  0  0  0  0  0  0  0  0  0  0  0
   45.4070    9.6170   49.5370 H   0  0  0  0  0  0  0  0  0  0  0  0
   45.5570   11.3010   50.1930 H   0  0  0  0  0  0  0  0  0  0  0  0
   46.8200   10.7170   49.0800 H   0  0  0  0  0  0  0  0  0  0  0  0
   44.9990   14.0000   44.7890 H   0  0  0  0  0  0  0  0  0  0  0  0
   44.9760   14.9690   46.3190 H   0  0  0  0  0  0  0  0  0  0  0  0
   46.4850   14.0360   45.8720 H   0  0  0  0  0  0  0  0  0  0  0  0
   39.1690   14.3720   43.2340 H   0  0  0  0  0  0  0  0  0  0  0  0
   38.5280   12.6980   43.0750 H   0  0  0  0  0  0  0  0  0  0  0  0
   37.5600   13.9060   43.9670 H   0  0  0  0  0  0  0  0  0  0  0  0
   40.0190   15.5480   48.2190 H   0  0  0  0  0  0  0  0  0  0  0  0
   38.3560   14.8280   48.5540 H   0  0  0  0  0  0  0  0  0  0  0  0
   39.8510   14.1450   49.2890 H   0  0  0  0  0  0  0  0  0  0  0  0
  1  2  1  0  0  0  0
  2  3  1  0  0  0  0
  3  4  2  0  0  0  0
  3 31  1  0  0  0  0
  4 11  1  0  0  0  0
  5  4  1  0  0  0  0
  6  7  1  0  0  0  0
  6  5  2  0  0  0  0
  7  2  2  0  0  0  0
  8  5  1  0  0  0  0
  8  9  1  0  0  0  0
  9 10  2  0  0  0  0
 10 11  1  0  0  0  0
 10 23  1  0  0  0  0
 11 12  1  0  0  0  0
 11 34  1  1  0  0  0
 12 18  1  0  0  0  0
 13 14  1  0  0  0  0
 13 12  1  0  0  0  0
 14 15  1  0  0  0  0
 15 16  2  0  0  0  0
 15 17  1  0  0  0  0
 17 20  1  0  0  0  0
 18 17  1  0  0  0  0
 18 19  2  0  0  0  0
 20 35  1  0  0  0  0
 20 36  1  0  0  0  0
 21 40  1  0  0  0  0
 21 39  1  0  0  0  0
 21 14  1  0  0  0  0
 22 13  2  0  0  0  0
 23 24  2  0  0  0  0
 25 23  1  0  0  0  0
 25 30  1  0  0  0  0
 26 25  1  0  0  0  0
 27 26  2  0  0  0  0
 28  9  1  0  0  0  0
 28 26  1  0  0  0  0
 29 43  1  0  0  0  0
 29 28  1  0  0  0  0
 30 45  1  0  0  0  0
 30 46  1  0  0  0  0
 32  6  1  0  0  0  0
 33  7  1  0  0  0  0
 37 20  1  0  0  0  0
 38 21  1  0  0  0  0
 41 29  1  0  0  0  0
 42 29  1  0  0  0  0
 44 30  1  0  0  0  0
M  END
>  <Pose>
1

>  <Score>
-4.46

$$$$
