
 OpenBabel03172210433D

 37 40  0  0  1  0  0  0  0  0999 V2000
   42.1040    8.0990   43.4540 Cl  0  0  0  0  0  0  0  0  0  0  0  0
   43.8640    8.0370   43.3950 C   0  0  0  0  0  0  0  0  0  0  0  0
   44.5180    6.8280   43.1730 C   0  0  0  0  0  0  0  0  0  0  0  0
   45.8930    6.8320   43.1320 C   0  0  0  0  0  0  0  0  0  0  0  0
   46.6160    8.0220   43.3110 C   0  0  0  0  0  0  0  0  0  0  0  0
   45.9690    9.2010   43.5290 C   0  0  0  0  0  0  0  0  0  0  0  0
   44.5840    9.2000   43.5680 C   0  0  0  0  0  0  0  0  0  0  0  0
   46.6480    5.6470   42.9130 N   0  0  0  0  0  0  0  0  0  0  0  0
   46.6290    4.7060   41.8450 C   0  0  0  0  0  0  0  0  0  0  0  0
   46.1940    4.9460   40.7060 O   0  0  0  0  0  0  0  0  0  0  0  0
   47.1960    3.4300   42.3120 C   0  0  1  0  0  0  0  0  0  0  0  0
   47.9370    2.7010   41.4380 O   0  0  0  0  0  0  0  0  0  0  0  0
   48.9090    2.1520   42.2540 N   0  0  0  0  0  0  0  0  0  0  0  0
   49.2900    3.1390   43.2160 C   0  0  0  0  0  0  0  0  0  0  0  0
   48.2370    3.9470   43.2610 C   0  0  0  0  0  0  0  0  0  0  0  0
   47.6730    5.1660   43.8220 C   0  0  0  0  0  0  0  0  0  0  0  0
   48.0470    5.6700   44.9110 O   0  0  0  0  0  0  0  0  0  0  0  0
   50.5050    3.2190   44.0020 C   0  0  0  0  0  0  0  0  0  0  0  0
   50.5790    3.9940   45.1630 C   0  0  0  0  0  0  0  0  0  0  0  0
   51.8110    3.9030   45.6870 N   0  0  0  0  0  0  0  0  0  0  0  0
   52.5320    3.0980   44.9040 N   0  0  0  0  0  0  0  0  0  0  0  0
   51.7520    2.6790   43.8810 C   0  0  0  0  0  0  0  0  0  0  0  0
   52.1840    1.7820   42.7790 C   0  0  0  0  0  0  0  0  0  0  0  0
   52.3500    4.5360   46.8850 C   0  0  0  0  0  0  0  0  0  0  0  0
   43.9660    5.8910   43.0290 H   0  0  0  0  0  0  0  0  0  0  0  0
   47.7070    7.9800   43.2710 H   0  0  0  0  0  0  0  0  0  0  0  0
   46.5580   10.1280   43.6700 H   0  0  0  0  0  0  0  0  0  0  0  0
   44.0350   10.1260   43.7430 H   0  0  0  0  0  0  0  0  0  0  0  0
   46.4300    2.8420   42.8640 H   0  0  0  0  0  0  0  0  0  0  0  0
   49.2640    1.1870   42.1560 H   0  0  0  0  0  0  0  0  0  0  0  0
   49.7850    4.5820   45.5910 H   0  0  0  0  0  0  0  0  0  0  0  0
   52.0030    0.7410   43.0630 H   0  0  0  0  0  0  0  0  0  0  0  0
   53.2870    1.8780   42.6410 H   0  0  0  0  0  0  0  0  0  0  0  0
   51.7290    2.0610   41.8140 H   0  0  0  0  0  0  0  0  0  0  0  0
   53.2120    5.1900   46.6320 H   0  0  0  0  0  0  0  0  0  0  0  0
   51.5970    5.2490   47.3240 H   0  0  0  0  0  0  0  0  0  0  0  0
   52.6920    3.7950   47.6320 H   0  0  0  0  0  0  0  0  0  0  0  0
  2  1  1  0  0  0  0
  2  7  1  0  0  0  0
  3  2  2  0  0  0  0
  4  3  1  0  0  0  0
  4  5  2  0  0  0  0
  5  6  1  0  0  0  0
  6  7  2  0  0  0  0
  6 27  1  0  0  0  0
  7 28  1  0  0  0  0
  8  4  1  0  0  0  0
  8 16  1  0  0  0  0
  9 11  1  0  0  0  0
  9  8  1  0  0  0  0
 10  9  2  0  0  0  0
 11 29  1  1  0  0  0
 11 15  1  0  0  0  0
 12 13  1  0  0  0  0
 12 11  1  0  0  0  0
 13 14  1  0  0  0  0
 14 15  2  0  0  0  0
 14 18  1  0  0  0  0
 15 16  1  0  0  0  0
 16 17  2  0  0  0  0
 18 19  2  0  0  0  0
 19 31  1  0  0  0  0
 19 20  1  0  0  0  0
 20 24  1  0  0  0  0
 21 20  1  0  0  0  0
 22 18  1  0  0  0  0
 22 21  2  0  0  0  0
 23 32  1  0  0  0  0
 23 22  1  0  0  0  0
 24 36  1  0  0  0  0
 24 37  1  0  0  0  0
 25  3  1  0  0  0  0
 26  5  1  0  0  0  0
 30 13  1  0  0  0  0
 33 23  1  0  0  0  0
 34 23  1  0  0  0  0
 35 24  1  0  0  0  0
M  END
>  <Pose>
1

>  <Score>
-5.56

$$$$
