
 OpenBabel03172210433D

 40 43  0  0  0  0  0  0  0  0999 V2000
   39.0200   13.0710   44.7190 Cl  0  0  0  0  0  0  0  0  0  0  0  0
   40.0480   11.6840   44.3990 C   0  0  0  0  0  0  0  0  0  0  0  0
   40.2380   10.6750   45.3240 C   0  0  0  0  0  0  0  0  0  0  0  0
   41.0360    9.6070   45.0660 N   0  0  0  0  0  0  0  0  0  0  0  0
   41.6900    9.4570   43.9010 C   0  0  0  0  0  0  0  0  0  0  0  0
   42.4830    8.4020   43.6360 N   0  0  0  0  0  0  0  0  0  0  0  0
   42.6750    7.4170   44.5300 C   0  0  0  0  0  0  0  0  0  0  0  0
   41.9990    7.5620   45.7430 C   0  0  0  0  0  0  0  0  0  0  0  0
   41.1900    8.6470   46.0030 C   0  0  0  0  0  0  0  0  0  0  0  0
   40.5770    8.7760   47.1120 O   0  0  0  0  0  0  0  0  0  0  0  0
   43.5390    6.2330   44.2840 C   0  0  0  0  0  0  0  0  0  0  0  0
   44.8970    6.6090   44.4230 N   0  0  0  0  0  0  0  0  0  0  0  0
   45.4020    7.5990   43.5490 C   0  0  0  0  0  0  0  0  0  0  0  0
   46.8880    7.4770   43.2540 C   0  0  0  0  0  0  0  0  0  0  0  0
   47.1120    6.0580   42.8700 C   0  0  0  0  0  0  0  0  0  0  0  0
   46.5520    5.1140   43.7060 C   0  0  0  0  0  0  0  0  0  0  0  0
   46.7250    3.8200   43.4000 N   0  0  0  0  0  0  0  0  0  0  0  0
   47.4380    3.4590   42.2890 C   0  0  0  0  0  0  0  0  0  0  0  0
   47.9730    4.4140   41.4910 N   0  0  0  0  0  0  0  0  0  0  0  0
   47.8340    5.7340   41.7440 C   0  0  0  0  0  0  0  0  0  0  0  0
   47.6370    2.0290   41.9390 C   0  0  0  0  0  0  0  0  0  0  0  0
   45.7990    5.6090   44.8840 C   0  0  0  0  0  0  0  0  0  0  0  0
   41.5160   10.4570   42.9530 C   0  0  0  0  0  0  0  0  0  0  0  0
   40.7090   11.5510   43.1960 C   0  0  0  0  0  0  0  0  0  0  0  0
   39.7190   10.7710   46.2800 H   0  0  0  0  0  0  0  0  0  0  0  0
   42.1300    6.7910   46.4830 H   0  0  0  0  0  0  0  0  0  0  0  0
   43.2620    5.4730   45.0510 H   0  0  0  0  0  0  0  0  0  0  0  0
   43.3070    5.8530   43.2770 H   0  0  0  0  0  0  0  0  0  0  0  0
   45.2000    8.6410   43.8770 H   0  0  0  0  0  0  0  0  0  0  0  0
   44.9080    7.4670   42.5430 H   0  0  0  0  0  0  0  0  0  0  0  0
   47.4100    7.6790   44.2310 H   0  0  0  0  0  0  0  0  0  0  0  0
   47.1790    8.1660   42.4650 H   0  0  0  0  0  0  0  0  0  0  0  0
   48.2740    6.4710   41.0870 H   0  0  0  0  0  0  0  0  0  0  0  0
   47.4410    1.4230   42.8440 H   0  0  0  0  0  0  0  0  0  0  0  0
   46.8710    1.7850   41.1590 H   0  0  0  0  0  0  0  0  0  0  0  0
   48.6650    1.8420   41.5750 H   0  0  0  0  0  0  0  0  0  0  0  0
   46.4970    5.9740   45.6790 H   0  0  0  0  0  0  0  0  0  0  0  0
   45.2040    4.7810   45.3240 H   0  0  0  0  0  0  0  0  0  0  0  0
   42.0430   10.3450   42.0030 H   0  0  0  0  0  0  0  0  0  0  0  0
   40.5780   12.3340   42.4430 H   0  0  0  0  0  0  0  0  0  0  0  0
  2  1  1  0  0  0  0
  2  3  1  0  0  0  0
  3 25  1  0  0  0  0
  4  3  1  0  0  0  0
  4  9  1  0  0  0  0
  5  4  1  0  0  0  0
  6  5  1  0  0  0  0
  6  7  2  0  0  0  0
  7  8  1  0  0  0  0
  8  9  1  0  0  0  0
  8 26  1  0  0  0  0
  9 10  2  0  0  0  0
 11 12  1  0  0  0  0
 11  7  1  0  0  0  0
 11 27  1  0  0  0  0
 12 22  1  0  0  0  0
 13 29  1  0  0  0  0
 13 12  1  0  0  0  0
 14 13  1  0  0  0  0
 14 31  1  0  0  0  0
 15 14  1  0  0  0  0
 15 16  2  0  0  0  0
 16 22  1  0  0  0  0
 17 16  1  0  0  0  0
 18 17  2  0  0  0  0
 19 20  2  0  0  0  0
 19 18  1  0  0  0  0
 20 15  1  0  0  0  0
 21 18  1  0  0  0  0
 21 34  1  0  0  0  0
 22 38  1  0  0  0  0
 22 37  1  0  0  0  0
 23 24  1  0  0  0  0
 23  5  2  0  0  0  0
 24  2  2  0  0  0  0
 28 11  1  0  0  0  0
 30 13  1  0  0  0  0
 32 14  1  0  0  0  0
 33 20  1  0  0  0  0
 35 21  1  0  0  0  0
 36 21  1  0  0  0  0
 39 23  1  0  0  0  0
 40 24  1  0  0  0  0
M  END
>  <Pose>
1

>  <Score>
-4.97

$$$$
