
 OpenBabel03172210433D

 55 58  0  0  0  0  0  0  0  0999 V2000
   34.8830   14.3320   40.4550 B   0  0  0  0  0  0  0  0  0  0  0  0
   35.1630   13.7280   42.2320 C   0  0  0  0  0  0  0  0  0  0  0  0
   36.2650   14.1490   42.9970 C   0  0  0  0  0  0  0  0  0  0  0  0
   36.4440   13.6910   44.2760 C   0  0  0  0  0  0  0  0  0  0  0  0
   35.5310   12.8140   44.8150 C   0  0  0  0  0  0  0  0  0  0  0  0
   34.4320   12.3960   44.0510 C   0  0  0  0  0  0  0  0  0  0  0  0
   34.2580   12.8480   42.7820 C   0  0  0  0  0  0  0  0  0  0  0  0
   35.7580   12.4000   46.0820 O   0  0  0  0  0  0  0  0  0  0  0  0
   36.4460   11.2690   46.4920 C   0  0  0  0  0  0  0  0  0  0  0  0
   37.5650   14.1640   45.0750 C   0  0  0  0  0  0  0  0  0  0  0  0
   38.7820   13.7240   45.0480 C   0  0  0  0  0  0  0  0  0  0  0  0
   39.2710   12.7200   44.2600 O   0  0  0  0  0  0  0  0  0  0  0  0
   40.6290   12.5560   44.5240 C   0  0  0  0  0  0  0  0  0  0  0  0
   41.0750   13.4170   45.4740 C   0  0  0  0  0  0  0  0  0  0  0  0
   42.4170   13.4270   45.8710 C   0  0  0  0  0  0  0  0  0  0  0  0
   43.3430   12.5730   45.3310 C   0  0  0  0  0  0  0  0  0  0  0  0
   42.8330   11.6970   44.3570 C   0  0  0  0  0  0  0  0  0  0  0  0
   41.5430   11.6670   43.9470 C   0  0  0  0  0  0  0  0  0  0  0  0
   40.9950   10.7150   42.9630 C   0  0  0  0  0  0  0  0  0  0  0  0
   41.0940    9.3520   43.4300 N   0  0  0  0  0  4  0  0  0  0  0  0
   41.0510    9.3400   44.8810 C   0  0  0  0  0  0  0  0  0  0  0  0
   41.9560    8.3740   45.5210 C   0  0  0  0  0  0  0  0  0  0  0  0
   42.2240    7.1780   44.7890 N   0  0  0  0  0  0  0  0  0  0  0  0
   41.7830    7.1010   43.4710 C   0  0  0  0  0  0  0  0  0  0  0  0
   41.9490    8.4820   42.7830 C   0  0  0  0  0  0  0  0  0  0  0  0
   43.3840    6.4560   45.1500 C   0  0  0  0  0  0  0  0  0  0  0  0
   44.6430    6.8870   44.4840 C   0  0  0  0  0  0  0  0  0  0  0  0
   43.8210   10.8290   43.8460 O   0  0  0  0  0  0  0  0  0  0  0  0
   39.9010   14.2100   45.8560 C   0  0  0  0  0  0  0  0  0  0  0  0
   39.8710   15.1370   46.7180 O   0  0  0  0  0  0  0  0  0  0  0  0
   36.9330   14.8340   42.5000 H   0  0  0  0  0  0  0  0  0  0  0  0
   33.7050   11.7060   44.4780 H   0  0  0  0  0  0  0  0  0  0  0  0
   33.3860   12.4950   42.2350 H   0  0  0  0  0  0  0  0  0  0  0  0
   37.2820   11.5110   47.2070 H   0  0  0  0  0  0  0  0  0  0  0  0
   36.9270   10.6650   45.7040 H   0  0  0  0  0  0  0  0  0  0  0  0
   35.7360   10.5480   47.0230 H   0  0  0  0  0  0  0  0  0  0  0  0
   37.3980   15.0000   45.8000 H   0  0  0  0  0  0  0  0  0  0  0  0
   42.6670   14.1610   46.6340 H   0  0  0  0  0  0  0  0  0  0  0  0
   44.3690   12.5590   45.6130 H   0  0  0  0  0  0  0  0  0  0  0  0
   41.4100   10.8790   41.9580 H   0  0  0  0  0  0  0  0  0  0  0  0
   39.8970   11.0020   42.8440 H   0  0  0  0  0  0  0  0  0  0  0  0
   40.0710    8.9760   43.1650 H   0  0  0  0  0  0  0  0  0  0  0  0
   39.9960    9.2200   45.2330 H   0  0  0  0  0  0  0  0  0  0  0  0
   41.3300   10.3630   45.2250 H   0  0  0  0  0  0  0  0  0  0  0  0
   42.8840    8.8780   45.8840 H   0  0  0  0  0  0  0  0  0  0  0  0
   41.4510    8.0340   46.4820 H   0  0  0  0  0  0  0  0  0  0  0  0
   42.2360    6.3050   42.8940 H   0  0  0  0  0  0  0  0  0  0  0  0
   40.6670    6.9590   43.4330 H   0  0  0  0  0  0  0  0  0  0  0  0
   41.5280    8.2350   41.7540 H   0  0  0  0  0  0  0  0  0  0  0  0
   42.9750    8.7720   42.6340 H   0  0  0  0  0  0  0  0  0  0  0  0
   43.5240    6.5770   46.2640 H   0  0  0  0  0  0  0  0  0  0  0  0
   43.1590    5.3670   44.9820 H   0  0  0  0  0  0  0  0  0  0  0  0
   44.5030    7.5560   43.6320 H   0  0  0  0  0  0  0  0  0  0  0  0
   45.3610    7.3460   45.2140 H   0  0  0  0  0  0  0  0  0  0  0  0
   45.1340    5.9810   44.0860 H   0  0  0  0  0  0  0  0  0  0  0  0
  1  2  1  0  0  0  0
  2  7  2  0  0  0  0
  2  3  1  0  0  0  0
  3  4  2  0  0  0  0
  4  5  1  0  0  0  0
  4 10  1  0  0  0  0
  5  8  1  0  0  0  0
  6 32  1  0  0  0  0
  6  5  2  0  0  0  0
  7  6  1  0  0  0  0
  8  9  1  0  0  0  0
  9 36  1  0  0  0  0
  9 34  1  0  0  0  0
 10 37  1  0  0  0  0
 11 10  2  0  0  0  0
 11 29  1  0  0  0  0
 12 13  1  0  0  0  0
 12 11  1  0  0  0  0
 13 14  1  0  0  0  0
 14 29  1  0  0  0  0
 14 15  2  0  0  0  0
 15 38  1  0  0  0  0
 16 39  1  0  0  0  0
 16 15  1  0  0  0  0
 17 16  2  0  0  0  0
 18 17  1  0  0  0  0
 18 13  2  0  0  0  0
 19 20  1  0  0  0  0
 19 18  1  0  0  0  0
 20 21  1  0  0  0  0
 21 44  1  0  0  0  0
 21 43  1  0  0  0  0
 21 22  1  0  0  0  0
 22 45  1  0  0  0  0
 22 46  1  0  0  0  0
 23 26  1  0  0  0  0
 23 22  1  0  0  0  0
 24 23  1  0  0  0  0
 25 20  1  0  0  0  0
 25 24  1  0  0  0  0
 26 51  1  0  0  0  0
 27 26  1  0  0  0  0
 27 54  1  0  0  0  0
 28 17  1  0  0  0  0
 29 30  2  0  0  0  0
 31  3  1  0  0  0  0
 33  7  1  0  0  0  0
 35  9  1  0  0  0  0
 40 19  1  0  0  0  0
 41 19  1  0  0  0  0
 42 20  1  0  0  0  0
 47 24  1  0  0  0  0
 48 24  1  0  0  0  0
 49 25  1  0  0  0  0
 50 25  1  0  0  0  0
 52 26  1  0  0  0  0
 53 27  1  0  0  0  0
 55 27  1  0  0  0  0
M  END
>  <Pose>
1

>  <Score>
-5.22

$$$$
