
 OpenBabel03172210433D

 48 51  0  0  0  0  0  0  0  0999 V2000
   55.9510    3.3610   46.0880 B   0  0  0  0  0  0  0  0  0  0  0  0
   54.0970    3.1150   45.7190 C   0  0  0  0  0  0  0  0  0  0  0  0
   53.2110    2.6460   46.6840 C   0  0  0  0  0  0  0  0  0  0  0  0
   51.8690    2.4770   46.3480 C   0  0  0  0  0  0  0  0  0  0  0  0
   51.3650    2.7480   45.1140 C   0  0  0  0  0  0  0  0  0  0  0  0
   52.2980    3.2210   44.1710 C   0  0  0  0  0  0  0  0  0  0  0  0
   53.6310    3.4010   44.4570 C   0  0  0  0  0  0  0  0  0  0  0  0
   49.9940    2.5590   44.6820 C   0  0  0  0  0  0  0  0  0  0  0  0
   49.1810    3.7330   44.4760 N   0  0  0  0  0  0  0  0  0  0  0  0
   48.4060    3.9950   43.4140 C   0  0  0  0  0  0  0  0  0  0  0  0
   47.7850    5.2090   43.6030 C   0  0  0  0  0  0  0  0  0  0  0  0
   48.2040    5.6510   44.7790 N   0  0  0  0  0  0  0  0  0  0  0  0
   49.0540    4.7760   45.3340 C   0  0  0  0  0  0  0  0  0  0  0  0
   49.7140    4.9020   46.6000 N   0  0  0  0  0  0  0  0  0  0  0  0
   49.0590    4.3400   47.7600 C   0  0  0  0  0  0  0  0  0  0  0  0
   48.7010    5.4870   48.6930 C   0  0  0  0  0  0  0  0  0  0  0  0
   49.5160    6.6390   48.4960 N   0  0  0  0  0  0  0  0  0  0  0  0
   50.8510    6.3950   48.0600 C   0  0  0  0  0  0  0  0  0  0  0  0
   50.9760    5.5600   46.8110 C   0  0  0  0  0  0  0  0  0  0  0  0
   48.8880    7.8130   48.0230 C   0  0  0  0  0  0  0  0  0  0  0  0
   46.9370    5.7680   42.7030 N   0  0  0  0  0  0  0  0  0  0  0  0
   46.7120    5.0780   41.5730 C   0  0  0  0  0  0  0  0  0  0  0  0
   45.9230    5.6090   40.7510 O   0  0  0  0  0  0  0  0  0  0  0  0
   47.2900    3.8890   41.3290 N   0  0  0  0  0  0  0  0  0  0  0  0
   48.1320    3.3260   42.2150 C   0  0  0  0  0  0  0  0  0  0  0  0
   48.6830    2.2340   42.0200 O   0  0  0  0  0  0  0  0  0  0  0  0
   46.3280    7.0490   42.9910 C   0  0  0  0  0  0  0  0  0  0  0  0
   53.5630    2.4220   47.6820 H   0  0  0  0  0  0  0  0  0  0  0  0
   51.2520    2.1140   47.1250 H   0  0  0  0  0  0  0  0  0  0  0  0
   51.9920    3.4600   43.1580 H   0  0  0  0  0  0  0  0  0  0  0  0
   54.3060    3.7720   43.6770 H   0  0  0  0  0  0  0  0  0  0  0  0
   50.0060    2.0200   43.6860 H   0  0  0  0  0  0  0  0  0  0  0  0
   49.4700    1.9250   45.4390 H   0  0  0  0  0  0  0  0  0  0  0  0
   49.8200    3.6880   48.2840 H   0  0  0  0  0  0  0  0  0  0  0  0
   48.2030    3.6900   47.5320 H   0  0  0  0  0  0  0  0  0  0  0  0
   47.6470    5.7530   48.4750 H   0  0  0  0  0  0  0  0  0  0  0  0
   48.7500    5.1530   49.7460 H   0  0  0  0  0  0  0  0  0  0  0  0
   51.4160    5.8960   48.9000 H   0  0  0  0  0  0  0  0  0  0  0  0
   51.3580    7.3650   47.8890 H   0  0  0  0  0  0  0  0  0  0  0  0
   51.7630    4.7750   47.0010 H   0  0  0  0  0  0  0  0  0  0  0  0
   51.2840    6.2080   45.9680 H   0  0  0  0  0  0  0  0  0  0  0  0
   47.8850    7.6750   47.5760 H   0  0  0  0  0  0  0  0  0  0  0  0
   49.5310    8.2520   47.2220 H   0  0  0  0  0  0  0  0  0  0  0  0
   48.8030    8.6160   48.8040 H   0  0  0  0  0  0  0  0  0  0  0  0
   47.1110    3.3620   40.4470 H   0  0  0  0  0  0  0  0  0  0  0  0
   46.1120    7.6200   42.0570 H   0  0  0  0  0  0  0  0  0  0  0  0
   46.9120    7.5880   43.7330 H   0  0  0  0  0  0  0  0  0  0  0  0
   45.3260    6.8400   43.4290 H   0  0  0  0  0  0  0  0  0  0  0  0
  2  1  1  0  0  0  0
  2  3  1  0  0  0  0
  3 28  1  0  0  0  0
  4  3  2  0  0  0  0
  4 29  1  0  0  0  0
  5  4  1  0  0  0  0
  6  7  1  0  0  0  0
  6  5  2  0  0  0  0
  7  2  2  0  0  0  0
  8  5  1  0  0  0  0
  8 33  1  0  0  0  0
  9  8  1  0  0  0  0
  9 13  1  0  0  0  0
 10 11  2  0  0  0  0
 10  9  1  0  0  0  0
 11 12  1  0  0  0  0
 12 13  2  0  0  0  0
 13 14  1  0  0  0  0
 14 19  1  0  0  0  0
 14 15  1  0  0  0  0
 15 34  1  0  0  0  0
 15 16  1  0  0  0  0
 16 37  1  0  0  0  0
 17 16  1  0  0  0  0
 18 17  1  0  0  0  0
 18 38  1  0  0  0  0
 19 40  1  0  0  0  0
 19 18  1  0  0  0  0
 20 17  1  0  0  0  0
 20 44  1  0  0  0  0
 21 27  1  0  0  0  0
 21 11  1  0  0  0  0
 22 21  1  0  0  0  0
 23 22  2  0  0  0  0
 24 22  1  0  0  0  0
 24 25  1  0  0  0  0
 25 10  1  0  0  0  0
 26 25  2  0  0  0  0
 27 48  1  0  0  0  0
 27 47  1  0  0  0  0
 30  6  1  0  0  0  0
 31  7  1  0  0  0  0
 32  8  1  0  0  0  0
 35 15  1  0  0  0  0
 36 16  1  0  0  0  0
 39 18  1  0  0  0  0
 41 19  1  0  0  0  0
 42 20  1  0  0  0  0
 43 20  1  0  0  0  0
 45 24  1  0  0  0  0
 46 27  1  0  0  0  0
M  END
>  <Pose>
1

>  <Score>
-5.62

$$$$
