
 OpenBabel03172210433D

 43 46  0  0  0  0  0  0  0  0999 V2000
   40.3560   11.4150   44.5270 B   0  0  0  0  0  0  0  0  0  0  0  0
   41.3350   10.0260   43.6560 C   0  0  0  0  0  0  0  0  0  0  0  0
   41.0330    9.6610   42.3830 C   0  0  0  0  0  0  0  0  0  0  0  0
   41.7080    8.6930   41.7630 N   0  0  0  0  0  0  0  0  0  0  0  0
   42.7040    8.0630   42.4030 C   0  0  0  0  0  0  0  0  0  0  0  0
   43.0560    8.3950   43.7060 C   0  0  0  0  0  0  0  0  0  0  0  0
   42.3650    9.3940   44.3530 C   0  0  0  0  0  0  0  0  0  0  0  0
   44.1450    7.6700   44.3160 C   0  0  0  0  0  0  0  0  0  0  0  0
   43.9260    6.7130   45.0770 O   0  0  0  0  0  0  0  0  0  0  0  0
   45.5480    8.0490   44.0480 N   0  0  0  0  0  0  0  0  0  0  0  0
   46.2100    7.2740   43.0940 C   0  0  0  0  0  0  0  0  0  0  0  0
   47.0230    6.1080   43.3670 C   0  0  0  0  0  0  0  0  0  0  0  0
   46.9630    5.1610   42.2840 C   0  0  0  0  0  0  0  0  0  0  0  0
   47.6490    4.0050   42.3650 C   0  0  0  0  0  0  0  0  0  0  0  0
   48.4290    3.6990   43.4950 C   0  0  0  0  0  0  0  0  0  0  0  0
   48.5000    4.5920   44.5360 C   0  0  0  0  0  0  0  0  0  0  0  0
   47.7910    5.8020   44.4620 C   0  0  0  0  0  0  0  0  0  0  0  0
   47.9310    6.8200   45.5360 C   0  0  0  0  0  0  0  0  0  0  0  0
   49.1590    6.6140   46.4170 C   0  0  0  0  0  0  0  0  0  0  0  0
   49.2990    5.2350   46.8240 N   0  0  0  0  0  0  0  0  0  0  0  0
   49.2710    4.2970   45.7390 C   0  0  0  0  0  0  0  0  0  0  0  0
   49.9290    3.2480   45.8950 O   0  0  0  0  0  0  0  0  0  0  0  0
   49.4540    4.8380   48.2070 C   0  0  0  0  0  0  0  0  0  0  0  0
   49.0830    2.5240   43.4990 O   0  0  0  0  0  0  0  0  0  0  0  0
   47.4020    3.2940   41.1800 O   0  0  0  0  0  0  0  0  0  0  0  0
   46.3510    3.9060   40.4630 C   0  0  0  0  0  0  0  0  0  0  0  0
   46.2860    5.1860   41.0610 O   0  0  0  0  0  0  0  0  0  0  0  0
   40.2260   10.1380   41.8020 H   0  0  0  0  0  0  0  0  0  0  0  0
   43.2760    7.2700   41.9290 H   0  0  0  0  0  0  0  0  0  0  0  0
   42.6150    9.6770   45.3610 H   0  0  0  0  0  0  0  0  0  0  0  0
   45.8450    8.8300   44.6520 H   0  0  0  0  0  0  0  0  0  0  0  0
   45.3970    6.9680   42.3070 H   0  0  0  0  0  0  0  0  0  0  0  0
   46.8050    8.0010   42.3940 H   0  0  0  0  0  0  0  0  0  0  0  0
   47.0760    6.8650   46.2180 H   0  0  0  0  0  0  0  0  0  0  0  0
   48.1190    7.8300   45.0980 H   0  0  0  0  0  0  0  0  0  0  0  0
   49.0040    7.2890   47.2950 H   0  0  0  0  0  0  0  0  0  0  0  0
   50.0350    6.9390   45.8140 H   0  0  0  0  0  0  0  0  0  0  0  0
   48.4390    4.9120   48.6710 H   0  0  0  0  0  0  0  0  0  0  0  0
   50.1170    5.5460   48.7350 H   0  0  0  0  0  0  0  0  0  0  0  0
   49.7710    3.7890   48.2580 H   0  0  0  0  0  0  0  0  0  0  0  0
   48.7710    1.6190   43.5940 H   0  0  0  0  0  0  0  0  0  0  0  0
   46.5680    3.9660   39.3760 H   0  0  0  0  0  0  0  0  0  0  0  0
   45.4430    3.3060   40.6350 H   0  0  0  0  0  0  0  0  0  0  0  0
  2  7  1  0  0  0  0
  2  1  1  0  0  0  0
  3  2  2  0  0  0  0
  4  3  1  0  0  0  0
  4  5  2  0  0  0  0
  5  6  1  0  0  0  0
  6  8  1  0  0  0  0
  6  7  2  0  0  0  0
  7 30  1  0  0  0  0
  8  9  2  0  0  0  0
 10  8  1  0  0  0  0
 10 31  1  0  0  0  0
 11 12  1  0  0  0  0
 11 10  1  0  0  0  0
 12 17  1  0  0  0  0
 13 14  1  0  0  0  0
 13 12  2  0  0  0  0
 14 15  2  0  0  0  0
 15 24  1  0  0  0  0
 15 16  1  0  0  0  0
 16 21  1  0  0  0  0
 17 16  2  0  0  0  0
 17 18  1  0  0  0  0
 18 34  1  0  0  0  0
 18 19  1  0  0  0  0
 19 20  1  0  0  0  0
 19 36  1  0  0  0  0
 20 23  1  0  0  0  0
 21 22  2  0  0  0  0
 21 20  1  0  0  0  0
 23 40  1  0  0  0  0
 23 38  1  0  0  0  0
 23 39  1  0  0  0  0
 24 41  1  0  0  0  0
 25 14  1  0  0  0  0
 26 43  1  0  0  0  0
 26 27  1  0  0  0  0
 26 25  1  0  0  0  0
 27 13  1  0  0  0  0
 28  3  1  0  0  0  0
 29  5  1  0  0  0  0
 32 11  1  0  0  0  0
 33 11  1  0  0  0  0
 35 18  1  0  0  0  0
 37 19  1  0  0  0  0
 42 26  1  0  0  0  0
M  END
>  <Pose>
1

>  <Score>
-6.95

$$$$
