
 OpenBabel03172210433D

 38 41  0  0  1  0  0  0  0  0999 V2000
   36.8060   10.4350   45.7280 Cl  0  0  0  0  0  0  0  0  0  0  0  0
   38.4630   10.2080   46.2470 C   0  0  0  0  0  0  0  0  0  0  0  0
   39.5150   10.3260   45.3380 C   0  0  0  0  0  0  0  0  0  0  0  0
   40.8180   10.1560   45.7030 C   0  0  0  0  0  0  0  0  0  0  0  0
   41.0540    9.8580   47.0380 C   0  0  0  0  0  0  0  0  0  0  0  0
   40.0290    9.7390   47.9510 C   0  0  0  0  0  0  0  0  0  0  0  0
   38.7200    9.9130   47.5630 C   0  0  0  0  0  0  0  0  0  0  0  0
   41.6770   10.3450   44.5160 C   0  0  2  0  0  0  0  0  0  0  0  0
   42.4170    9.0700   44.1990 C   0  0  0  0  0  0  0  0  0  0  0  0
   43.7150    8.9960   44.1050 C   0  0  0  0  0  0  0  0  0  0  0  0
   44.5490   10.1360   44.3010 N   0  0  0  0  0  0  0  0  0  0  0  0
   43.9350   11.3760   44.6030 C   0  0  0  0  0  0  0  0  0  0  0  0
   42.6280   11.4630   44.6990 C   0  0  0  0  0  0  0  0  0  0  0  0
   42.0380   12.7570   45.0120 C   0  0  0  0  0  0  0  0  0  0  0  0
   41.5740   13.7830   45.2770 N   0  0  0  0  0  0  0  0  0  0  0  0
   44.7050   12.5640   44.8110 N   0  0  0  0  0  0  0  0  0  0  0  0
   44.0920    7.6040   43.7840 C   0  0  0  0  0  0  0  0  0  0  0  0
   42.9130    6.9050   43.7050 O   0  0  0  0  0  0  0  0  0  0  0  0
   41.8540    7.7490   43.9490 C   0  0  0  0  0  0  0  0  0  0  0  0
   40.6060    7.4630   43.9620 O   0  0  0  0  0  0  0  0  0  0  0  0
   45.0470    7.0960   44.8420 C   0  0  0  0  0  0  0  0  0  0  0  0
   44.8010    7.5050   42.4450 C   0  0  0  0  0  0  0  0  0  0  0  0
   40.7290   10.6440   43.4180 C   0  0  0  0  0  0  0  0  0  0  0  0
   41.0280   10.8800   42.1930 O   0  0  0  0  0  0  0  0  0  0  0  0
   39.4250   10.6220   43.9550 N   0  0  0  0  0  0  0  0  0  0  0  0
   42.0630    9.7140   47.3830 H   0  0  0  0  0  0  0  0  0  0  0  0
   40.2050    9.5050   49.0010 H   0  0  0  0  0  0  0  0  0  0  0  0
   37.8940    9.8250   48.2560 H   0  0  0  0  0  0  0  0  0  0  0  0
   45.5870   10.0840   44.2280 H   0  0  0  0  0  0  0  0  0  0  0  0
   44.6630   13.3420   44.1400 H   0  0  0  0  0  0  0  0  0  0  0  0
   45.2990   12.6210   45.6460 H   0  0  0  0  0  0  0  0  0  0  0  0
   45.2410    6.0140   44.7330 H   0  0  0  0  0  0  0  0  0  0  0  0
   44.7760    7.4120   45.8550 H   0  0  0  0  0  0  0  0  0  0  0  0
   46.0370    7.5940   44.6220 H   0  0  0  0  0  0  0  0  0  0  0  0
   44.1830    8.1270   41.7370 H   0  0  0  0  0  0  0  0  0  0  0  0
   44.7530    6.4430   42.1350 H   0  0  0  0  0  0  0  0  0  0  0  0
   45.8460    7.8160   42.4880 H   0  0  0  0  0  0  0  0  0  0  0  0
   38.5460   10.8060   43.3830 H   0  0  0  0  0  0  0  0  0  0  0  0
  1  2  1  0  0  0  0
  2  7  1  0  0  0  0
  3  4  1  0  0  0  0
  3  2  2  0  0  0  0
  4  5  2  0  0  0  0
  5 26  1  0  0  0  0
  5  6  1  0  0  0  0
  6 27  1  0  0  0  0
  7  6  2  0  0  0  0
  7 28  1  0  0  0  0
  8 23  1  6  0  0  0
  8 13  1  0  0  0  0
  8  4  1  0  0  0  0
  9  8  1  0  0  0  0
 10  9  2  0  0  0  0
 10 11  1  0  0  0  0
 11 12  1  0  0  0  0
 12 13  2  0  0  0  0
 12 16  1  0  0  0  0
 13 14  1  0  0  0  0
 14 15  3  0  0  0  0
 16 31  1  0  0  0  0
 17 10  1  0  0  0  0
 17 21  1  0  0  0  0
 18 17  1  0  0  0  0
 18 19  1  0  0  0  0
 19 20  2  0  0  0  0
 19  9  1  0  0  0  0
 21 33  1  0  0  0  0
 22 37  1  0  0  0  0
 22 17  1  0  0  0  0
 23 25  1  0  0  0  0
 24 23  2  0  0  0  0
 25  3  1  0  0  0  0
 29 11  1  0  0  0  0
 30 16  1  0  0  0  0
 32 21  1  0  0  0  0
 34 21  1  0  0  0  0
 35 22  1  0  0  0  0
 36 22  1  0  0  0  0
 38 25  1  0  0  0  0
M  END
>  <Pose>
1

>  <Score>
-5.25

$$$$
