
 OpenBabel03172210433D

 56 58  0  0  1  0  0  0  0  0999 V2000
   50.9340    1.2580   42.8290 Cl  0  0  0  0  0  0  0  0  0  0  0  0
   49.8710    2.5350   43.4260 C   0  0  0  0  0  0  0  0  0  0  0  0
   48.8910    2.9960   42.6080 C   0  0  0  0  0  0  0  0  0  0  0  0
   48.0670    4.0090   43.1080 C   0  0  0  0  0  0  0  0  0  0  0  0
   48.2220    4.5220   44.3490 C   0  0  0  0  0  0  0  0  0  0  0  0
   47.2650    5.4860   44.5090 N   0  0  0  0  0  0  0  0  0  0  0  0
   46.5140    5.5970   43.4110 C   0  0  0  0  0  0  0  0  0  0  0  0
   47.0100    4.6620   42.5040 C   0  0  0  0  0  0  0  0  0  0  0  0
   45.4240    6.4850   43.1090 C   0  0  0  0  0  0  0  0  0  0  0  0
   45.8020    7.5550   42.3980 O   0  0  0  0  0  0  0  0  0  0  0  0
   44.0760    6.4710   43.3940 N   0  0  0  0  0  0  0  0  0  0  0  0
   43.7970    7.0520   44.7370 C   0  0  0  0  0  0  0  0  0  0  0  0
   43.5690    8.5440   44.5910 C   0  0  0  0  0  0  0  0  0  0  0  0
   43.1800    8.8080   43.1870 C   0  0  1  0  0  0  0  0  0  0  0  0
   41.9370    8.0640   42.8200 C   0  0  0  0  0  0  0  0  0  0  0  0
   42.3520    7.0560   41.7340 C   0  0  0  0  0  0  0  0  0  0  0  0
   43.0780    5.9500   42.5240 C   0  0  0  0  0  0  0  0  0  0  0  0
   40.8980    8.8800   42.3770 O   0  0  0  0  0  0  0  0  0  0  0  0
   43.0910   10.1680   42.7560 N   0  0  2  0  0  0  0  0  0  0  0  0
   43.7770   11.1180   43.5940 C   0  0  0  0  0  0  0  0  0  0  0  0
   43.1860   11.1870   44.9510 C   0  0  0  0  0  0  0  0  0  0  0  0
   41.7630   11.4970   44.7710 N   0  0  0  0  0  0  0  0  0  0  0  0
   41.3290   11.6780   43.4110 C   0  0  0  0  0  0  0  0  0  0  0  0
   41.7500   10.5950   42.4640 C   0  0  0  0  0  0  0  0  0  0  0  0
   40.9100   11.6200   45.9100 C   0  0  0  0  0  0  0  0  0  0  0  0
   41.0830   12.5550   46.7030 O   0  0  0  0  0  0  0  0  0  0  0  0
   39.8290   10.6030   46.1030 C   0  0  0  0  0  0  0  0  0  0  0  0
   49.2150    4.0460   45.1620 C   0  0  0  0  0  0  0  0  0  0  0  0
   50.0500    3.0420   44.6970 C   0  0  0  0  0  0  0  0  0  0  0  0
   48.7440    2.6110   41.6200 H   0  0  0  0  0  0  0  0  0  0  0  0
   47.1850    6.0020   45.3940 H   0  0  0  0  0  0  0  0  0  0  0  0
   46.6170    4.4990   41.5210 H   0  0  0  0  0  0  0  0  0  0  0  0
   44.6500    6.9050   45.4040 H   0  0  0  0  0  0  0  0  0  0  0  0
   42.9400    6.5020   45.1540 H   0  0  0  0  0  0  0  0  0  0  0  0
   44.4250    9.1310   44.9570 H   0  0  0  0  0  0  0  0  0  0  0  0
   42.7110    8.7480   45.3080 H   0  0  0  0  0  0  0  0  0  0  0  0
   44.0730    8.4050   42.5750 H   0  0  0  0  0  0  0  0  0  0  0  0
   41.5130    7.4300   43.6430 H   0  0  0  0  0  0  0  0  0  0  0  0
   41.5070    6.6410   41.2010 H   0  0  0  0  0  0  0  0  0  0  0  0
   43.1000    7.5930   41.1070 H   0  0  0  0  0  0  0  0  0  0  0  0
   43.3410    5.1650   41.8480 H   0  0  0  0  0  0  0  0  0  0  0  0
   42.2230    5.5010   43.1590 H   0  0  0  0  0  0  0  0  0  0  0  0
   40.1480    8.2500   42.1240 H   0  0  0  0  0  0  0  0  0  0  0  0
   43.6830   12.1150   43.0860 H   0  0  0  0  0  0  0  0  0  0  0  0
   44.8660   10.8540   43.6060 H   0  0  0  0  0  0  0  0  0  0  0  0
   43.3560   10.2800   45.5330 H   0  0  0  0  0  0  0  0  0  0  0  0
   43.6500   12.0710   45.4630 H   0  0  0  0  0  0  0  0  0  0  0  0
   41.7280   12.6760   43.0870 H   0  0  0  0  0  0  0  0  0  0  0  0
   40.1990   11.7940   43.3770 H   0  0  0  0  0  0  0  0  0  0  0  0
   41.7510   11.0380   41.4360 H   0  0  0  0  0  0  0  0  0  0  0  0
   41.0130    9.7720   42.4190 H   0  0  0  0  0  0  0  0  0  0  0  0
   39.7940    9.9200   45.2420 H   0  0  0  0  0  0  0  0  0  0  0  0
   40.0540   10.0410   47.0500 H   0  0  0  0  0  0  0  0  0  0  0  0
   38.8810   11.1270   46.2290 H   0  0  0  0  0  0  0  0  0  0  0  0
   49.3650    4.4310   46.1630 H   0  0  0  0  0  0  0  0  0  0  0  0
   50.8470    2.6300   45.2900 H   0  0  0  0  0  0  0  0  0  0  0  0
  1  2  1  0  0  0  0
  2 29  1  0  0  0  0
  3  4  1  0  0  0  0
  3  2  2  0  0  0  0
  4  5  2  0  0  0  0
  5  6  1  0  0  0  0
  5 28  1  0  0  0  0
  6 31  1  0  0  0  0
  7  6  1  0  0  0  0
  8  4  1  0  0  0  0
  8  7  2  0  0  0  0
  9 11  1  0  0  0  0
  9  7  1  0  0  0  0
 10  9  2  0  0  0  0
 11 12  1  0  0  0  0
 12 34  1  0  0  0  0
 12 33  1  0  0  0  0
 13 12  1  0  0  0  0
 13 35  1  0  0  0  0
 13 36  1  0  0  0  0
 14 37  1  6  0  0  0
 14 13  1  0  0  0  0
 15 14  1  0  0  0  0
 15 38  1  0  0  0  0
 16 17  1  0  0  0  0
 16 15  1  0  0  0  0
 17 42  1  0  0  0  0
 17 11  1  0  0  0  0
 18 51  1  0  0  0  0
 19 24  1  1  0  0  0
 19 14  1  0  0  0  0
 19 20  1  0  0  0  0
 20 45  1  0  0  0  0
 20 21  1  0  0  0  0
 21 47  1  0  0  0  0
 21 46  1  0  0  0  0
 22 21  1  0  0  0  0
 22 25  1  0  0  0  0
 23 22  1  0  0  0  0
 24 23  1  0  0  0  0
 25 27  1  0  0  0  0
 25 26  2  0  0  0  0
 27 54  1  0  0  0  0
 27 53  1  0  0  0  0
 28 55  1  0  0  0  0
 29 28  2  0  0  0  0
 29 56  1  0  0  0  0
 30  3  1  0  0  0  0
 32  8  1  0  0  0  0
 39 16  1  0  0  0  0
 40 16  1  0  0  0  0
 41 17  1  0  0  0  0
 43 18  1  0  0  0  0
 44 20  1  0  0  0  0
 48 23  1  0  0  0  0
 49 23  1  0  0  0  0
 50 24  1  0  0  0  0
 52 27  1  0  0  0  0
M  END
>  <Pose>
1

>  <Score>
-5.47

$$$$
