
 OpenBabel03172210433D

 46 49  0  0  0  0  0  0  0  0999 V2000
   45.3780   13.6610   46.0220 Cl  0  0  0  0  0  0  0  0  0  0  0  0
   43.6210   13.6660   46.0340 C   0  0  0  0  0  0  0  0  0  0  0  0
   42.9470   13.0170   45.0030 C   0  0  0  0  0  0  0  0  0  0  0  0
   41.5590   13.0230   45.0180 C   0  0  0  0  0  0  0  0  0  0  0  0
   40.9110   13.6790   46.0670 C   0  0  0  0  0  0  0  0  0  0  0  0
   41.5870   14.3100   47.0700 C   0  0  0  0  0  0  0  0  0  0  0  0
   42.9480   14.3070   47.0580 C   0  0  0  0  0  0  0  0  0  0  0  0
   39.6490   13.5180   45.8120 O   0  0  0  0  0  0  0  0  0  0  0  0
   39.4540   12.8330   44.7140 C   0  0  0  0  0  0  0  0  0  0  0  0
   38.3140   12.5480   44.2590 O   0  0  0  0  0  0  0  0  0  0  0  0
   40.6480   12.5050   44.1890 N   0  0  0  0  0  0  0  0  0  0  0  0
   40.8170   11.7500   42.9810 C   0  0  0  0  0  0  0  0  0  0  0  0
   41.4340   10.4280   43.2760 C   0  0  0  0  0  0  0  0  0  0  0  0
   40.9570    9.2390   42.8680 N   0  0  0  0  0  0  0  0  0  0  0  0
   41.7040    8.2700   43.3150 O   0  0  0  0  0  0  0  0  0  0  0  0
   42.6740    8.8210   44.0160 C   0  0  0  0  0  0  0  0  0  0  0  0
   42.5240   10.1480   44.0020 N   0  0  0  0  0  0  0  0  0  0  0  0
   43.7270    7.9850   44.6850 C   0  0  0  0  0  0  0  0  0  0  0  0
   43.4400    7.8030   45.9190 O   0  0  0  0  0  0  0  0  0  0  0  0
   44.7880    7.5380   43.9880 N   0  0  0  0  0  0  0  0  0  0  0  0
   45.8880    7.0890   43.2830 C   0  0  0  0  0  0  0  0  0  0  0  0
   47.0500    6.6490   44.1810 C   0  0  0  0  0  0  0  0  0  0  0  0
   47.7610    5.5210   43.7250 N   0  0  0  0  0  0  0  0  0  0  0  0
   47.1180    4.9210   42.6220 C   0  0  0  0  0  0  0  0  0  0  0  0
   47.4140    3.4650   42.4880 C   0  0  0  0  0  0  0  0  0  0  0  0
   48.7430    3.2520   42.7510 O   0  0  0  0  0  0  0  0  0  0  0  0
   49.1020    3.4960   44.0630 C   0  0  0  0  0  0  0  0  0  0  0  0
   48.4470    4.7130   44.6470 C   0  0  0  0  0  0  0  0  0  0  0  0
   43.4290   12.5090   44.2000 H   0  0  0  0  0  0  0  0  0  0  0  0
   41.0330   14.8050   47.8690 H   0  0  0  0  0  0  0  0  0  0  0  0
   43.4880   14.8130   47.8600 H   0  0  0  0  0  0  0  0  0  0  0  0
   41.4280   12.3450   42.2790 H   0  0  0  0  0  0  0  0  0  0  0  0
   39.8550   11.5680   42.4530 H   0  0  0  0  0  0  0  0  0  0  0  0
   45.6210    8.2360   44.8250 H   0  0  0  0  0  0  0  0  0  0  0  0
   46.3470    7.9230   42.6700 H   0  0  0  0  0  0  0  0  0  0  0  0
   45.7240    6.2490   42.5870 H   0  0  0  0  0  0  0  0  0  0  0  0
   46.7200    6.4470   45.2230 H   0  0  0  0  0  0  0  0  0  0  0  0
   47.7340    7.5150   44.2300 H   0  0  0  0  0  0  0  0  0  0  0  0
   46.0240    5.1120   42.6370 H   0  0  0  0  0  0  0  0  0  0  0  0
   47.4790    5.3980   41.6610 H   0  0  0  0  0  0  0  0  0  0  0  0
   46.7660    2.8360   43.1290 H   0  0  0  0  0  0  0  0  0  0  0  0
   47.2610    3.1330   41.4150 H   0  0  0  0  0  0  0  0  0  0  0  0
   50.2180    3.5510   44.1050 H   0  0  0  0  0  0  0  0  0  0  0  0
   48.8050    2.6160   44.6640 H   0  0  0  0  0  0  0  0  0  0  0  0
   49.2740    5.2740   45.1790 H   0  0  0  0  0  0  0  0  0  0  0  0
   47.7400    4.4210   45.4480 H   0  0  0  0  0  0  0  0  0  0  0  0
  1  2  1  0  0  0  0
  2  7  1  0  0  0  0
  3  4  1  0  0  0  0
  3  2  2  0  0  0  0
  4  5  2  0  0  0  0
  5  6  1  0  0  0  0
  6 30  1  0  0  0  0
  7  6  2  0  0  0  0
  7 31  1  0  0  0  0
  8  5  1  0  0  0  0
  9  8  1  0  0  0  0
 10  9  2  0  0  0  0
 11  9  1  0  0  0  0
 11  4  1  0  0  0  0
 12 13  1  0  0  0  0
 12 11  1  0  0  0  0
 13 17  1  0  0  0  0
 14 13  2  0  0  0  0
 14 15  1  0  0  0  0
 15 16  1  0  0  0  0
 16 18  1  0  0  0  0
 17 16  2  0  0  0  0
 18 19  2  0  0  0  0
 20 18  1  0  0  0  0
 20 34  1  0  0  0  0
 21 20  1  0  0  0  0
 21 22  1  0  0  0  0
 22 38  1  0  0  0  0
 22 37  1  0  0  0  0
 23 22  1  0  0  0  0
 23 28  1  0  0  0  0
 24 39  1  0  0  0  0
 24 23  1  0  0  0  0
 25 24  1  0  0  0  0
 25 26  1  0  0  0  0
 25 41  1  0  0  0  0
 26 27  1  0  0  0  0
 27 43  1  0  0  0  0
 27 28  1  0  0  0  0
 27 44  1  0  0  0  0
 28 45  1  0  0  0  0
 28 46  1  0  0  0  0
 29  3  1  0  0  0  0
 32 12  1  0  0  0  0
 33 12  1  0  0  0  0
 35 21  1  0  0  0  0
 36 21  1  0  0  0  0
 40 24  1  0  0  0  0
 42 25  1  0  0  0  0
M  END
>  <Pose>
1

>  <Score>
-5.64

$$$$
