
 OpenBabel03172210433D

 54 57  0  0  0  0  0  0  0  0999 V2000
   47.2810    3.8590   43.2600 B   0  0  0  0  0  0  0  0  0  0  0  0
   46.1460    5.3870   43.1560 C   0  0  0  0  0  0  0  0  0  0  0  0
   45.2360    5.6650   44.1510 C   0  0  0  0  0  0  0  0  0  0  0  0
   44.4180    6.7660   44.0770 C   0  0  0  0  0  0  0  0  0  0  0  0
   44.5340    7.5870   42.9760 C   0  0  0  0  0  0  0  0  0  0  0  0
   45.4520    7.3160   41.9590 C   0  0  0  0  0  0  0  0  0  0  0  0
   46.2750    6.2040   42.0400 C   0  0  0  0  0  0  0  0  0  0  0  0
   43.6950    8.6940   42.9260 O   0  0  0  0  0  0  0  0  0  0  0  0
   42.3060    8.6150   42.7020 C   0  0  0  0  0  0  0  0  0  0  0  0
   43.4510    7.0720   45.1250 C   0  0  0  0  0  0  0  0  0  0  0  0
   42.5410    6.2540   45.4990 N   0  0  0  0  0  0  0  0  0  0  0  0
   41.6080    6.5300   46.5000 N   0  0  0  0  0  0  0  0  0  0  0  0
   41.3050    7.8530   46.9250 C   0  0  0  0  0  0  0  0  0  0  0  0
   40.3990    8.6390   46.3040 N   0  0  0  0  0  4  0  0  0  0  0  0
   40.1370    9.8800   46.7290 C   0  0  0  0  0  0  0  0  0  0  0  0
   40.8000   10.3420   47.8010 N   0  0  0  0  0  0  0  0  0  0  0  0
   41.7250    9.6070   48.4740 C   0  0  0  0  0  0  0  0  0  0  0  0
   41.9390    8.3540   47.9860 N   0  0  0  0  0  0  0  0  0  0  0  0
   42.4160   10.0960   49.5980 N   0  0  0  0  0  0  0  0  0  0  0  0
   42.5570   11.5020   49.8320 C   0  0  0  0  0  0  0  0  0  0  0  0
   44.0470   11.7750   50.0260 C   0  0  0  0  0  0  0  0  0  0  0  0
   44.4760   10.9610   51.0600 O   0  0  0  0  0  0  0  0  0  0  0  0
   44.4480    9.6240   50.7400 C   0  0  0  0  0  0  0  0  0  0  0  0
   42.9980    9.1820   50.5350 C   0  0  0  0  0  0  0  0  0  0  0  0
   39.1830   10.7060   46.0760 N   0  0  0  0  0  0  0  0  0  0  0  0
   39.5280   11.9930   45.5140 C   0  0  0  0  0  0  0  0  0  0  0  0
   38.4570   13.0310   45.8140 C   0  0  0  0  0  0  0  0  0  0  0  0
   37.1830   12.5010   45.5820 O   0  0  0  0  0  0  0  0  0  0  0  0
   36.9250   11.4220   46.3920 C   0  0  0  0  0  0  0  0  0  0  0  0
   37.8090   10.2750   45.9520 C   0  0  0  0  0  0  0  0  0  0  0  0
   45.1310    5.0220   45.0340 H   0  0  0  0  0  0  0  0  0  0  0  0
   45.5280    7.9800   41.0940 H   0  0  0  0  0  0  0  0  0  0  0  0
   46.9760    6.0160   41.2440 H   0  0  0  0  0  0  0  0  0  0  0  0
   42.1530    8.6860   41.5950 H   0  0  0  0  0  0  0  0  0  0  0  0
   41.8390    7.7220   43.1450 H   0  0  0  0  0  0  0  0  0  0  0  0
   41.8250    9.5180   43.1400 H   0  0  0  0  0  0  0  0  0  0  0  0
   43.4900    8.0300   45.6230 H   0  0  0  0  0  0  0  0  0  0  0  0
   41.1280    5.6960   46.9350 H   0  0  0  0  0  0  0  0  0  0  0  0
   42.1500   12.1080   48.9810 H   0  0  0  0  0  0  0  0  0  0  0  0
   42.0510   11.7700   50.7880 H   0  0  0  0  0  0  0  0  0  0  0  0
   44.1170   12.8290   50.3600 H   0  0  0  0  0  0  0  0  0  0  0  0
   44.6000   11.6350   49.0950 H   0  0  0  0  0  0  0  0  0  0  0  0
   44.9710    9.4110   49.7770 H   0  0  0  0  0  0  0  0  0  0  0  0
   44.8790    9.0470   51.5640 H   0  0  0  0  0  0  0  0  0  0  0  0
   42.9480    8.1290   50.2050 H   0  0  0  0  0  0  0  0  0  0  0  0
   42.5070    9.3230   51.5270 H   0  0  0  0  0  0  0  0  0  0  0  0
   39.4940   11.8550   44.3950 H   0  0  0  0  0  0  0  0  0  0  0  0
   40.4990   12.3670   45.8520 H   0  0  0  0  0  0  0  0  0  0  0  0
   38.5960   13.3640   46.8510 H   0  0  0  0  0  0  0  0  0  0  0  0
   38.5770   13.8540   45.0660 H   0  0  0  0  0  0  0  0  0  0  0  0
   37.1220   11.7160   47.4430 H   0  0  0  0  0  0  0  0  0  0  0  0
   35.8610   11.1760   46.3170 H   0  0  0  0  0  0  0  0  0  0  0  0
   37.6010   10.0880   44.8940 H   0  0  0  0  0  0  0  0  0  0  0  0
   37.6210    9.3580   46.5340 H   0  0  0  0  0  0  0  0  0  0  0  0
  2  1  1  0  0  0  0
  2  3  1  0  0  0  0
  3 31  1  0  0  0  0
  4  3  2  0  0  0  0
  4 10  1  0  0  0  0
  5  4  1  0  0  0  0
  6  7  1  0  0  0  0
  6  5  2  0  0  0  0
  7  2  2  0  0  0  0
  8  5  1  0  0  0  0
  9  8  1  0  0  0  0
  9 36  1  0  0  0  0
  9 35  1  0  0  0  0
 10 11  2  0  0  0  0
 10 37  1  0  0  0  0
 11 12  1  0  0  0  0
 12 13  1  0  0  0  0
 12 38  1  0  0  0  0
 13 18  1  0  0  0  0
 14 15  2  0  0  0  0
 14 13  2  0  0  0  0
 15 16  1  0  0  0  0
 16 17  2  0  0  0  0
 17 19  1  0  0  0  0
 18 17  1  0  0  0  0
 19 20  1  0  0  0  0
 19 24  1  0  0  0  0
 20 21  1  0  0  0  0
 20 40  1  0  0  0  0
 21 41  1  0  0  0  0
 21 22  1  0  0  0  0
 23 22  1  0  0  0  0
 23 44  1  0  0  0  0
 24 23  1  0  0  0  0
 24 46  1  0  0  0  0
 25 15  1  0  0  0  0
 26 27  1  0  0  0  0
 26 48  1  0  0  0  0
 26 25  1  0  0  0  0
 27 49  1  0  0  0  0
 28 27  1  0  0  0  0
 28 29  1  0  0  0  0
 29 51  1  0  0  0  0
 30 25  1  0  0  0  0
 30 29  1  0  0  0  0
 30 54  1  0  0  0  0
 32  6  1  0  0  0  0
 33  7  1  0  0  0  0
 34  9  1  0  0  0  0
 39 20  1  0  0  0  0
 42 21  1  0  0  0  0
 43 23  1  0  0  0  0
 45 24  1  0  0  0  0
 47 26  1  0  0  0  0
 50 27  1  0  0  0  0
 52 29  1  0  0  0  0
 53 30  1  0  0  0  0
M  END
>  <Pose>
1

>  <Score>
-5.57

$$$$
