
 OpenBabel03172210433D

 52 56  0  0  0  0  0  0  0  0999 V2000
   47.3790   17.1970   45.3020 Cl  0  0  0  0  0  0  0  0  0  0  0  0
   46.5050   15.6750   45.3330 C   0  0  0  0  0  0  0  0  0  0  0  0
   46.7260   14.6930   44.3770 C   0  0  0  0  0  0  0  0  0  0  0  0
   46.0280   13.5030   44.4190 C   0  0  0  0  0  0  0  0  0  0  0  0
   45.0910   13.2350   45.3940 C   0  0  0  0  0  0  0  0  0  0  0  0
   44.8790   14.2350   46.3510 C   0  0  0  0  0  0  0  0  0  0  0  0
   45.5720   15.4260   46.3180 C   0  0  0  0  0  0  0  0  0  0  0  0
   44.3500   11.9810   45.4420 C   0  0  0  0  0  0  0  0  0  0  0  0
   44.1510   11.4290   46.5470 O   0  0  0  0  0  0  0  0  0  0  0  0
   43.8640   11.4160   44.1700 C   0  0  0  0  0  0  0  0  0  0  0  0
   42.8200   10.4320   44.3350 N   0  0  0  0  0  0  0  0  0  0  0  0
   42.8720    9.1180   44.2760 N   0  0  0  0  0  0  0  0  0  0  0  0
   41.6710    8.5620   44.4900 C   0  0  0  0  0  0  0  0  0  0  0  0
   41.7470    7.2230   44.4270 N   0  0  0  0  0  0  0  0  0  0  0  0
   43.0230    6.8680   44.1670 C   0  0  0  0  0  0  0  0  0  0  0  0
   43.7230    8.0760   44.0740 C   0  0  0  0  0  0  0  0  0  0  0  0
   45.0720    7.9530   43.8160 C   0  0  0  0  0  0  0  0  0  0  0  0
   45.7480    9.0210   43.7260 O   0  0  0  0  0  0  0  0  0  0  0  0
   45.7030    6.7590   43.6560 N   0  0  0  0  0  0  0  0  0  0  0  0
   44.9600    5.6460   43.7580 C   0  0  0  0  0  0  0  0  0  0  0  0
   45.5710    4.5370   43.6050 O   0  0  0  0  0  0  0  0  0  0  0  0
   43.6450    5.6870   44.0100 N   0  0  0  0  0  0  0  0  0  0  0  0
   42.9060    4.4570   44.1090 C   0  0  0  0  0  0  0  0  0  0  0  0
   47.1220    6.7160   43.3850 C   0  0  0  0  0  0  0  0  0  0  0  0
   40.8290    9.6060   44.6960 N   0  0  0  0  0  0  0  0  0  0  0  0
   41.5170   10.7520   44.6050 C   0  0  0  0  0  0  0  0  0  0  0  0
   41.0370   12.0850   44.7520 N   0  0  0  0  0  0  0  0  0  0  0  0
   41.4170   12.9150   45.8820 C   0  0  0  0  0  0  0  0  0  0  0  0
   40.2020   13.7060   46.3010 C   0  0  0  0  0  0  0  0  0  0  0  0
   39.7040   14.4340   45.2090 O   0  0  0  0  0  0  0  0  0  0  0  0
   39.1520   13.6100   44.2530 C   0  0  0  0  0  0  0  0  0  0  0  0
   40.1550   12.6300   43.7540 C   0  0  0  0  0  0  0  0  0  0  0  0
   47.4490   14.8720   43.6030 H   0  0  0  0  0  0  0  0  0  0  0  0
   46.1980   12.7350   43.6740 H   0  0  0  0  0  0  0  0  0  0  0  0
   44.1620   14.0850   47.1390 H   0  0  0  0  0  0  0  0  0  0  0  0
   45.4130   16.2100   47.0590 H   0  0  0  0  0  0  0  0  0  0  0  0
   44.6400   11.0760   43.4990 H   0  0  0  0  0  0  0  0  0  0  0  0
   43.4010   12.3020   43.6340 H   0  0  0  0  0  0  0  0  0  0  0  0
   43.4350    3.6820   43.5030 H   0  0  0  0  0  0  0  0  0  0  0  0
   41.8680    4.6130   43.7210 H   0  0  0  0  0  0  0  0  0  0  0  0
   42.7890    4.1500   45.1630 H   0  0  0  0  0  0  0  0  0  0  0  0
   47.6890    6.9560   44.3220 H   0  0  0  0  0  0  0  0  0  0  0  0
   47.3750    7.5460   42.6770 H   0  0  0  0  0  0  0  0  0  0  0  0
   47.4450    5.7880   42.9120 H   0  0  0  0  0  0  0  0  0  0  0  0
   42.2250   13.6280   45.6090 H   0  0  0  0  0  0  0  0  0  0  0  0
   41.7350   12.3000   46.7560 H   0  0  0  0  0  0  0  0  0  0  0  0
   39.4280   13.1160   46.7920 H   0  0  0  0  0  0  0  0  0  0  0  0
   40.5490   14.4800   47.0330 H   0  0  0  0  0  0  0  0  0  0  0  0
   38.2690   13.0400   44.6480 H   0  0  0  0  0  0  0  0  0  0  0  0
   38.8520   14.2550   43.3990 H   0  0  0  0  0  0  0  0  0  0  0  0
   40.7750   13.0190   42.9160 H   0  0  0  0  0  0  0  0  0  0  0  0
   39.5840   11.7730   43.3000 H   0  0  0  0  0  0  0  0  0  0  0  0
  1  2  1  0  0  0  0
  2  7  1  0  0  0  0
  3  4  1  0  0  0  0
  3  2  2  0  0  0  0
  4  5  2  0  0  0  0
  5  8  1  0  0  0  0
  5  6  1  0  0  0  0
  6 35  1  0  0  0  0
  7  6  2  0  0  0  0
  7 36  1  0  0  0  0
  8  9  2  0  0  0  0
 10 11  1  0  0  0  0
 10  8  1  0  0  0  0
 11 26  1  0  0  0  0
 12 11  1  0  0  0  0
 12 13  1  0  0  0  0
 13 25  1  0  0  0  0
 14 13  2  0  0  0  0
 15 14  1  0  0  0  0
 16 15  2  0  0  0  0
 16 12  1  0  0  0  0
 17 16  1  0  0  0  0
 18 17  2  0  0  0  0
 19 20  1  0  0  0  0
 19 17  1  0  0  0  0
 20 22  1  0  0  0  0
 21 20  2  0  0  0  0
 22 23  1  0  0  0  0
 22 15  1  0  0  0  0
 23 41  1  0  0  0  0
 24 19  1  0  0  0  0
 24 42  1  0  0  0  0
 26 25  2  0  0  0  0
 26 27  1  0  0  0  0
 27 28  1  0  0  0  0
 28 29  1  0  0  0  0
 28 46  1  0  0  0  0
 29 47  1  0  0  0  0
 29 48  1  0  0  0  0
 30 29  1  0  0  0  0
 31 49  1  0  0  0  0
 31 30  1  0  0  0  0
 32 31  1  0  0  0  0
 32 27  1  0  0  0  0
 33  3  1  0  0  0  0
 34  4  1  0  0  0  0
 37 10  1  0  0  0  0
 38 10  1  0  0  0  0
 39 23  1  0  0  0  0
 40 23  1  0  0  0  0
 43 24  1  0  0  0  0
 44 24  1  0  0  0  0
 45 28  1  0  0  0  0
 50 31  1  0  0  0  0
 51 32  1  0  0  0  0
 52 32  1  0  0  0  0
M  END
>  <Pose>
1

>  <Score>
-5.35

$$$$
