
 OpenBabel03172210433D

 49 52  0  0  0  0  0  0  0  0999 V2000
   39.6820   13.3220   43.1890 Cl  0  0  0  0  0  0  0  0  0  0  0  0
   39.2600   12.4290   44.6540 C   0  0  0  0  0  0  0  0  0  0  0  0
   40.0030   11.3920   45.1520 C   0  0  0  0  0  0  0  0  0  0  0  0
   39.6580   10.7770   46.3050 C   0  0  0  0  0  0  0  0  0  0  0  0
   38.5570   11.1710   47.0140 C   0  0  0  0  0  0  0  0  0  0  0  0
   37.7850   12.2410   46.5010 C   0  0  0  0  0  0  0  0  0  0  0  0
   38.1190   12.8680   45.3340 C   0  0  0  0  0  0  0  0  0  0  0  0
   37.3130   13.9170   44.8360 O   0  0  0  0  0  0  0  0  0  0  0  0
   38.2090   10.6200   48.1420 O   0  0  0  0  0  0  0  0  0  0  0  0
   38.9340    9.6310   48.6520 C   0  0  0  0  0  0  0  0  0  0  0  0
   38.5850    9.1230   49.7240 O   0  0  0  0  0  0  0  0  0  0  0  0
   40.0860    9.1670   47.9840 C   0  0  0  0  0  0  0  0  0  0  0  0
   40.4730    9.7150   46.8110 C   0  0  0  0  0  0  0  0  0  0  0  0
   41.5570    9.3410   45.8890 C   0  0  0  0  0  0  0  0  0  0  0  0
   41.4340    8.2960   44.9700 N   0  0  0  0  0  4  0  0  0  0  0  0
   42.1390    7.1080   45.0020 C   0  0  0  0  0  0  0  0  0  0  0  0
   42.5760    6.6880   43.5560 C   0  0  0  0  0  0  0  0  0  0  0  0
   43.6540    7.7670   43.3400 N   0  0  0  0  0  0  0  0  0  0  0  0
   43.1020    9.0270   43.2280 C   0  0  0  0  0  0  0  0  0  0  0  0
   41.6120    8.8870   43.6120 C   0  0  0  0  0  0  0  0  0  0  0  0
   44.9620    7.2370   43.3770 C   0  0  0  0  0  0  0  0  0  0  0  0
   45.8800    7.4240   44.3510 C   0  0  0  0  0  0  0  0  0  0  0  0
   47.0730    6.6490   44.4170 C   0  0  0  0  0  0  0  0  0  0  0  0
   47.3470    5.6750   43.4940 C   0  0  0  0  0  0  0  0  0  0  0  0
   46.4120    5.4800   42.4830 C   0  0  0  0  0  0  0  0  0  0  0  0
   45.2550    6.2430   42.4250 C   0  0  0  0  0  0  0  0  0  0  0  0
   48.5250    4.9470   43.6000 O   0  0  0  0  0  0  0  0  0  0  0  0
   48.5720    3.5610   43.2270 C   0  0  0  0  0  0  0  0  0  0  0  0
   40.8520   11.1110   44.5910 H   0  0  0  0  0  0  0  0  0  0  0  0
   36.9070   12.5630   47.0470 H   0  0  0  0  0  0  0  0  0  0  0  0
   40.5980    8.3300   48.4240 H   0  0  0  0  0  0  0  0  0  0  0  0
   42.5640    9.7270   46.0800 H   0  0  0  0  0  0  0  0  0  0  0  0
   41.3180   10.2510   45.0640 H   0  0  0  0  0  0  0  0  0  0  0  0
   40.3930    8.0480   44.9490 H   0  0  0  0  0  0  0  0  0  0  0  0
   43.1470    7.0970   45.5100 H   0  0  0  0  0  0  0  0  0  0  0  0
   41.6380    6.1940   45.4040 H   0  0  0  0  0  0  0  0  0  0  0  0
   41.9030    6.7360   42.7960 H   0  0  0  0  0  0  0  0  0  0  0  0
   43.0930    5.7420   43.7330 H   0  0  0  0  0  0  0  0  0  0  0  0
   43.5980    9.7240   43.9540 H   0  0  0  0  0  0  0  0  0  0  0  0
   43.1180    9.5470   42.2350 H   0  0  0  0  0  0  0  0  0  0  0  0
   41.1170    8.2620   42.9040 H   0  0  0  0  0  0  0  0  0  0  0  0
   41.0910    9.8680   43.5830 H   0  0  0  0  0  0  0  0  0  0  0  0
   45.6840    8.2080   45.0920 H   0  0  0  0  0  0  0  0  0  0  0  0
   47.7460    6.8470   45.2220 H   0  0  0  0  0  0  0  0  0  0  0  0
   46.5860    4.7160   41.7320 H   0  0  0  0  0  0  0  0  0  0  0  0
   44.5860    6.0880   41.6160 H   0  0  0  0  0  0  0  0  0  0  0  0
   48.6830    2.9470   44.1890 H   0  0  0  0  0  0  0  0  0  0  0  0
   49.3310    3.3150   42.4900 H   0  0  0  0  0  0  0  0  0  0  0  0
   47.6060    3.1860   42.8310 H   0  0  0  0  0  0  0  0  0  0  0  0
  1  2  1  0  0  0  0
  2  3  2  0  0  0  0
  2  7  1  0  0  0  0
  3  4  1  0  0  0  0
  4 13  1  0  0  0  0
  4  5  2  0  0  0  0
  5  9  1  0  0  0  0
  6  5  1  0  0  0  0
  6 30  1  0  0  0  0
  7  6  2  0  0  0  0
  8  7  1  0  0  0  0
  9 10  1  0  0  0  0
 10 11  2  0  0  0  0
 12 31  1  0  0  0  0
 12 10  1  0  0  0  0
 13 12  2  0  0  0  0
 14 32  1  0  0  0  0
 14 13  1  0  0  0  0
 15 16  1  0  0  0  0
 15 14  1  0  0  0  0
 16 36  1  0  0  0  0
 16 35  1  0  0  0  0
 17 38  1  0  0  0  0
 17 16  1  0  0  0  0
 18 21  1  0  0  0  0
 18 17  1  0  0  0  0
 19 18  1  0  0  0  0
 19 20  1  0  0  0  0
 19 39  1  0  0  0  0
 20 15  1  0  0  0  0
 21 22  1  0  0  0  0
 22 23  2  0  0  0  0
 22 43  1  0  0  0  0
 23 44  1  0  0  0  0
 24 27  1  0  0  0  0
 24 23  1  0  0  0  0
 25 24  2  0  0  0  0
 26 25  1  0  0  0  0
 26 21  2  0  0  0  0
 28 27  1  0  0  0  0
 28 47  1  0  0  0  0
 29  3  1  0  0  0  0
 33 14  1  0  0  0  0
 34 15  1  0  0  0  0
 37 17  1  0  0  0  0
 40 19  1  0  0  0  0
 41 20  1  0  0  0  0
 42 20  1  0  0  0  0
 45 25  1  0  0  0  0
 46 26  1  0  0  0  0
 48 28  1  0  0  0  0
 49 28  1  0  0  0  0
M  END
>  <Pose>
1

>  <Score>
-5.74

$$$$
