
 OpenBabel03172210433D

 54 57  0  0  1  0  0  0  0  0999 V2000
   46.8230    4.9090   43.6090 S   0  0  0  0  0  0  0  0  0  0  0  0
   45.8010    3.8540   44.0520 O   0  0  0  0  0  0  0  0  0  0  0  0
   46.5900    5.0410   42.1230 O   0  0  0  0  0  0  0  0  0  0  0  0
   46.4960    6.3180   44.4690 N   0  0  0  0  0  0  0  0  0  0  0  0
   45.0490    6.4770   44.7220 C   0  0  0  0  0  0  0  0  0  0  0  0
   44.3940    6.6870   43.4070 C   0  0  2  0  0  0  0  0  0  0  0  0
   44.9230    7.5820   42.5530 O   0  0  0  0  0  0  0  0  0  0  0  0
   46.1790    8.0200   42.7230 C   0  0  0  0  0  0  0  0  0  0  0  0
   46.9060    7.5670   43.9420 C   0  0  0  0  0  0  0  0  0  0  0  0
   42.9740    7.0550   43.6810 C   0  0  0  0  0  0  0  0  0  0  0  0
   42.1110    6.1440   43.5610 O   0  0  0  0  0  0  0  0  0  0  0  0
   42.5340    8.3370   44.0600 N   0  0  0  0  0  0  0  0  0  0  0  0
   42.6350    9.5160   43.2220 C   0  0  0  0  0  0  0  0  0  0  0  0
   41.9420   10.6480   43.9540 C   0  0  0  0  0  0  0  0  0  0  0  0
   42.5590   10.9490   45.2320 N   0  0  0  0  0  0  0  0  0  0  0  0
   42.7380    9.7390   45.9710 C   0  0  0  0  0  0  0  0  0  0  0  0
   41.9230    8.5840   45.3750 C   0  0  0  0  0  0  0  0  0  0  0  0
   43.7500   11.6970   44.9900 C   0  0  0  0  0  0  0  0  0  0  0  0
   43.8180   12.9960   45.7460 C   0  0  0  0  0  0  0  0  0  0  0  0
   45.0300   13.8470   45.3700 C   0  0  0  0  0  0  0  0  0  0  0  0
   44.8530   13.2770   46.7420 C   0  0  0  0  0  0  0  0  0  0  0  0
   48.3790    4.2210   43.9520 C   0  0  0  0  0  0  0  0  0  0  0  0
   48.8180    3.0710   43.3340 C   0  0  0  0  0  0  0  0  0  0  0  0
   50.0300    2.4840   43.6440 C   0  0  0  0  0  0  0  0  0  0  0  0
   50.8360    3.0580   44.5950 C   0  0  0  0  0  0  0  0  0  0  0  0
   50.4110    4.2170   45.2270 C   0  0  0  0  0  0  0  0  0  0  0  0
   49.2100    4.7920   44.9170 C   0  0  0  0  0  0  0  0  0  0  0  0
   47.8710    2.3260   42.0310 Cl  0  0  0  0  0  0  0  0  0  0  0  0
   44.9330    7.3660   45.3400 H   0  0  0  0  0  0  0  0  0  0  0  0
   44.6200    5.6040   45.2130 H   0  0  0  0  0  0  0  0  0  0  0  0
   44.3180    5.7040   42.8420 H   0  0  0  0  0  0  0  0  0  0  0  0
   46.1530    9.1530   42.7420 H   0  0  0  0  0  0  0  0  0  0  0  0
   46.7880    7.7810   41.8330 H   0  0  0  0  0  0  0  0  0  0  0  0
   47.9890    7.6380   43.8740 H   0  0  0  0  0  0  0  0  0  0  0  0
   46.6540    8.3240   44.7730 H   0  0  0  0  0  0  0  0  0  0  0  0
   43.6790    9.7390   42.9890 H   0  0  0  0  0  0  0  0  0  0  0  0
   42.0650    9.3800   42.2790 H   0  0  0  0  0  0  0  0  0  0  0  0
   42.0060   11.5620   43.2950 H   0  0  0  0  0  0  0  0  0  0  0  0
   40.8790   10.4030   44.0230 H   0  0  0  0  0  0  0  0  0  0  0  0
   42.3680    9.8720   46.9940 H   0  0  0  0  0  0  0  0  0  0  0  0
   43.7960    9.4070   45.9270 H   0  0  0  0  0  0  0  0  0  0  0  0
   42.1590    7.6990   46.0010 H   0  0  0  0  0  0  0  0  0  0  0  0
   40.8620    8.8160   45.3040 H   0  0  0  0  0  0  0  0  0  0  0  0
   44.6350   11.0590   45.1540 H   0  0  0  0  0  0  0  0  0  0  0  0
   43.7610   11.9530   43.8990 H   0  0  0  0  0  0  0  0  0  0  0  0
   42.8660   13.5610   45.8140 H   0  0  0  0  0  0  0  0  0  0  0  0
   45.8010   13.4130   44.7110 H   0  0  0  0  0  0  0  0  0  0  0  0
   44.8870   14.9320   45.2240 H   0  0  0  0  0  0  0  0  0  0  0  0
   44.6370   14.0180   47.5290 H   0  0  0  0  0  0  0  0  0  0  0  0
   45.6280   12.5430   47.0340 H   0  0  0  0  0  0  0  0  0  0  0  0
   50.3770    1.5790   43.1600 H   0  0  0  0  0  0  0  0  0  0  0  0
   51.7790    2.5920   44.8280 H   0  0  0  0  0  0  0  0  0  0  0  0
   51.0780    4.6320   45.9660 H   0  0  0  0  0  0  0  0  0  0  0  0
   48.8650    5.6980   45.4020 H   0  0  0  0  0  0  0  0  0  0  0  0
  1 22  1  0  0  0  0
  1  2  2  0  0  0  0
  1  4  1  0  0  0  0
  3  1  2  0  0  0  0
  4  5  1  0  0  0  0
  5 30  1  0  0  0  0
  5 29  1  0  0  0  0
  6 31  1  6  0  0  0
  6 10  1  0  0  0  0
  6  5  1  0  0  0  0
  7  8  1  0  0  0  0
  7  6  1  0  0  0  0
  8 32  1  0  0  0  0
  8  9  1  0  0  0  0
  9  4  1  0  0  0  0
  9 35  1  0  0  0  0
 10 12  1  0  0  0  0
 11 10  2  0  0  0  0
 12 17  1  0  0  0  0
 13 14  1  0  0  0  0
 13 12  1  0  0  0  0
 14 39  1  0  0  0  0
 14 15  1  0  0  0  0
 15 16  1  0  0  0  0
 16 40  1  0  0  0  0
 17 16  1  0  0  0  0
 17 42  1  0  0  0  0
 18 44  1  0  0  0  0
 18 15  1  0  0  0  0
 18 19  1  0  0  0  0
 19 46  1  0  0  0  0
 19 21  1  0  0  0  0
 20 19  1  0  0  0  0
 20 21  1  0  0  0  0
 21 50  1  0  0  0  0
 21 49  1  0  0  0  0
 22 27  1  0  0  0  0
 23 24  1  0  0  0  0
 23 22  2  0  0  0  0
 24 25  2  0  0  0  0
 25 52  1  0  0  0  0
 25 26  1  0  0  0  0
 26 53  1  0  0  0  0
 27 26  2  0  0  0  0
 27 54  1  0  0  0  0
 28 23  1  0  0  0  0
 33  8  1  0  0  0  0
 34  9  1  0  0  0  0
 36 13  1  0  0  0  0
 37 13  1  0  0  0  0
 38 14  1  0  0  0  0
 41 16  1  0  0  0  0
 43 17  1  0  0  0  0
 45 18  1  0  0  0  0
 47 20  1  0  0  0  0
 48 20  1  0  0  0  0
 51 24  1  0  0  0  0
M  END
>  <Pose>
1

>  <Score>
-6.73

$$$$
