
 OpenBabel03172210433D

 51 55  0  0  1  0  0  0  0  0999 V2000
   38.0230   11.6800   49.1720 Cl  0  0  0  0  0  0  0  0  0  0  0  0
   38.4200   11.2050   47.5350 C   0  0  0  0  0  0  0  0  0  0  0  0
   39.7110   11.1200   47.0910 C   0  0  0  0  0  0  0  0  0  0  0  0
   39.9830   10.7370   45.7750 C   0  0  0  0  0  0  0  0  0  0  0  0
   38.9280   10.4540   44.9600 C   0  0  0  0  0  0  0  0  0  0  0  0
   37.6010   10.5400   45.4130 C   0  0  0  0  0  0  0  0  0  0  0  0
   37.3350   10.9150   46.6990 C   0  0  0  0  0  0  0  0  0  0  0  0
   39.4270   10.0910   43.6760 N   0  0  0  0  0  0  0  0  0  0  0  0
   40.8330   10.1470   43.6860 C   0  0  0  0  0  0  0  0  0  0  0  0
   41.5630    9.8790   42.6790 O   0  0  0  0  0  0  0  0  0  0  0  0
   41.2420   10.5600   45.0320 C   0  0  1  0  0  0  0  0  0  0  0  0
   41.9120   11.8410   45.0390 N   0  0  0  0  0  0  0  0  0  0  0  0
   43.2660   11.6830   45.4660 C   0  0  2  0  0  0  0  0  0  0  0  0
   43.5010   10.2250   45.5110 C   0  0  1  0  0  0  0  0  0  0  0  0
   42.1630    9.5620   45.6930 C   0  0  2  0  0  0  0  0  0  0  0  0
   42.3130    8.3160   44.9100 C   0  0  0  0  0  0  0  0  0  0  0  0
   41.6340    7.2610   44.9850 O   0  0  0  0  0  0  0  0  0  0  0  0
   43.4060    8.4540   43.9770 N   0  0  0  0  0  0  0  0  0  0  0  0
   43.9150    9.7720   44.1370 C   0  0  0  0  0  0  0  0  0  0  0  0
   44.5770   10.3960   43.2760 O   0  0  0  0  0  0  0  0  0  0  0  0
   43.8730    7.4330   43.0620 C   0  0  0  0  0  0  0  0  0  0  0  0
   44.7940    6.4350   43.7090 C   0  0  1  0  0  0  0  0  0  0  0  0
   45.1990    5.4950   42.7650 O   0  0  0  0  0  0  0  0  0  0  0  0
   46.3700    5.9550   42.2080 C   0  0  0  0  0  0  0  0  0  0  0  0
   47.0710    6.8200   43.2330 C   0  0  0  0  0  0  0  0  0  0  0  0
   46.0220    7.0230   44.3100 C   0  0  0  0  0  0  0  0  0  0  0  0
   43.5610   12.4040   46.7540 C   0  0  0  0  0  0  0  0  0  0  0  0
   44.9700   12.5270   47.0790 C   0  0  0  0  0  0  0  0  0  0  0  0
   45.6030   13.5530   46.7520 O   0  0  0  0  0  0  0  0  0  0  0  0
   45.6510   11.4970   47.7650 N   0  0  0  0  0  0  0  0  0  0  0  0
   40.5300   11.3410   47.7260 H   0  0  0  0  0  0  0  0  0  0  0  0
   36.8160   10.3050   44.7270 H   0  0  0  0  0  0  0  0  0  0  0  0
   36.3100   10.9750   47.0300 H   0  0  0  0  0  0  0  0  0  0  0  0
   38.8470    9.8150   42.8280 H   0  0  0  0  0  0  0  0  0  0  0  0
   41.4580   12.5370   45.6710 H   0  0  0  0  0  0  0  0  0  0  0  0
   43.9040   12.1140   44.6380 H   0  0  0  0  0  0  0  0  0  0  0  0
   44.2490    9.8810   46.2540 H   0  0  0  0  0  0  0  0  0  0  0  0
   41.9070    9.3690   46.7500 H   0  0  0  0  0  0  0  0  0  0  0  0
   43.0050    6.8990   42.6250 H   0  0  0  0  0  0  0  0  0  0  0  0
   44.3940    7.9250   42.1950 H   0  0  0  0  0  0  0  0  0  0  0  0
   44.2350    5.8870   44.4940 H   0  0  0  0  0  0  0  0  0  0  0  0
   47.0030    5.0670   41.9830 H   0  0  0  0  0  0  0  0  0  0  0  0
   46.2230    6.4860   41.2440 H   0  0  0  0  0  0  0  0  0  0  0  0
   47.9180    6.2630   43.6700 H   0  0  0  0  0  0  0  0  0  0  0  0
   47.3700    7.7970   42.8050 H   0  0  0  0  0  0  0  0  0  0  0  0
   45.9200    8.0700   44.6110 H   0  0  0  0  0  0  0  0  0  0  0  0
   46.3250    6.4740   45.2490 H   0  0  0  0  0  0  0  0  0  0  0  0
   43.1390   13.4430   46.6360 H   0  0  0  0  0  0  0  0  0  0  0  0
   42.9450   11.9460   47.5590 H   0  0  0  0  0  0  0  0  0  0  0  0
   46.1800   10.7790   47.2180 H   0  0  0  0  0  0  0  0  0  0  0  0
   45.6670   11.3940   48.7970 H   0  0  0  0  0  0  0  0  0  0  0  0
  2  1  1  0  0  0  0
  3  2  1  0  0  0  0
  3 31  1  0  0  0  0
  4  3  2  0  0  0  0
  5  6  2  0  0  0  0
  5  4  1  0  0  0  0
  6  7  1  0  0  0  0
  7 33  1  0  0  0  0
  7  2  2  0  0  0  0
  8  9  1  0  0  0  0
  8  5  1  0  0  0  0
 10  9  2  0  0  0  0
 11  9  1  6  0  0  0
 11 12  1  0  0  0  0
 11 15  1  0  0  0  0
 11  4  1  0  0  0  0
 12 13  1  0  0  0  0
 12 35  1  0  0  0  0
 13 36  1  6  0  0  0
 13 14  1  0  0  0  0
 13 27  1  0  0  0  0
 14 15  1  0  0  0  0
 14 37  1  1  0  0  0
 15 38  1  1  0  0  0
 16 17  2  0  0  0  0
 16 15  1  0  0  0  0
 18 19  1  0  0  0  0
 18 16  1  0  0  0  0
 19 14  1  0  0  0  0
 20 19  2  0  0  0  0
 21 22  1  0  0  0  0
 21 18  1  0  0  0  0
 22 26  1  0  0  0  0
 22 41  1  1  0  0  0
 23 22  1  0  0  0  0
 24 23  1  0  0  0  0
 24 25  1  0  0  0  0
 25 44  1  0  0  0  0
 25 26  1  0  0  0  0
 26 46  1  0  0  0  0
 26 47  1  0  0  0  0
 27 28  1  0  0  0  0
 27 49  1  0  0  0  0
 28 30  1  0  0  0  0
 29 28  2  0  0  0  0
 30 51  1  0  0  0  0
 32  6  1  0  0  0  0
 34  8  1  0  0  0  0
 39 21  1  0  0  0  0
 40 21  1  0  0  0  0
 42 24  1  0  0  0  0
 43 24  1  0  0  0  0
 45 25  1  0  0  0  0
 48 27  1  0  0  0  0
 50 30  1  0  0  0  0
M  END
>  <Pose>
1

>  <Score>
-5.89

$$$$
