
 OpenBabel03172210433D

 53 56  0  0  0  0  0  0  0  0999 V2000
   49.6200    1.8280   42.9000 Cl  0  0  0  0  0  0  0  0  0  0  0  0
   48.6310    3.2620   43.0230 C   0  0  0  0  0  0  0  0  0  0  0  0
   48.6600    4.0670   44.1390 C   0  0  0  0  0  0  0  0  0  0  0  0
   47.8960    5.1890   44.2470 C   0  0  0  0  0  0  0  0  0  0  0  0
   47.0200    5.5930   43.2160 C   0  0  0  0  0  0  0  0  0  0  0  0
   47.0050    4.7540   42.0810 C   0  0  0  0  0  0  0  0  0  0  0  0
   47.7850    3.6390   42.0060 C   0  0  0  0  0  0  0  0  0  0  0  0
   46.2690    6.6450   43.2620 O   0  0  0  0  0  0  0  0  0  0  0  0
   45.4960    7.6700   43.2880 C   0  0  0  0  0  0  0  0  0  0  0  0
   44.0580    7.6240   43.6190 C   0  0  0  0  0  0  0  0  0  0  0  0
   43.2850    7.4340   42.5860 O   0  0  0  0  0  0  0  0  0  0  0  0
   43.4140    7.7470   44.8400 N   0  0  0  0  0  0  0  0  0  0  0  0
   42.0910    7.0680   44.9970 C   0  0  0  0  0  0  0  0  0  0  0  0
   41.2200    8.0350   45.7580 C   0  0  0  0  0  0  0  0  0  0  0  0
   41.6890    9.4070   45.6820 N   0  0  0  0  0  0  0  0  0  0  0  0
   42.9900    9.6890   46.2290 C   0  0  0  0  0  0  0  0  0  0  0  0
   43.8340    8.4400   46.0300 C   0  0  0  0  0  0  0  0  0  0  0  0
   40.8820   10.4000   45.0880 C   0  0  0  0  0  0  0  0  0  0  0  0
   39.6020   10.6110   45.5020 N   0  0  0  0  0  0  0  0  0  0  0  0
   38.8070   11.5340   44.9770 C   0  0  0  0  0  0  0  0  0  0  0  0
   39.3140   12.2970   43.9750 N   0  0  0  0  0  0  0  0  0  0  0  0
   40.5450   12.1520   43.5200 C   0  0  0  0  0  0  0  0  0  0  0  0
   41.3740   11.1820   44.0740 C   0  0  0  0  0  0  0  0  0  0  0  0
   37.4730   11.7650   45.3960 N   0  0  0  0  0  0  0  0  0  0  0  0
   36.6130   10.6380   45.7380 C   0  0  0  0  0  0  0  0  0  0  0  0
   35.3480   10.8300   44.8950 C   0  0  0  0  0  0  0  0  0  0  0  0
   34.7470   12.0190   45.2140 O   0  0  0  0  0  0  0  0  0  0  0  0
   35.4940   13.1390   44.9380 C   0  0  0  0  0  0  0  0  0  0  0  0
   36.8940   13.0810   45.5080 C   0  0  0  0  0  0  0  0  0  0  0  0
   49.3390    3.7500   44.9340 H   0  0  0  0  0  0  0  0  0  0  0  0
   47.9360    5.8010   45.1120 H   0  0  0  0  0  0  0  0  0  0  0  0
   46.3360    5.0540   41.2790 H   0  0  0  0  0  0  0  0  0  0  0  0
   47.7530    3.0130   41.1210 H   0  0  0  0  0  0  0  0  0  0  0  0
   45.5020    8.2180   42.2570 H   0  0  0  0  0  0  0  0  0  0  0  0
   45.8870    8.5620   43.9270 H   0  0  0  0  0  0  0  0  0  0  0  0
   42.3170    6.1710   45.6070 H   0  0  0  0  0  0  0  0  0  0  0  0
   41.6810    6.8220   43.9930 H   0  0  0  0  0  0  0  0  0  0  0  0
   41.2870    7.7690   46.8550 H   0  0  0  0  0  0  0  0  0  0  0  0
   40.1490    7.9960   45.4280 H   0  0  0  0  0  0  0  0  0  0  0  0
   43.4760   10.5840   45.8340 H   0  0  0  0  0  0  0  0  0  0  0  0
   42.8770    9.8810   47.3370 H   0  0  0  0  0  0  0  0  0  0  0  0
   43.5310    7.7730   46.9050 H   0  0  0  0  0  0  0  0  0  0  0  0
   44.8980    8.5830   46.1600 H   0  0  0  0  0  0  0  0  0  0  0  0
   40.9330   12.7790   42.7110 H   0  0  0  0  0  0  0  0  0  0  0  0
   42.3890   11.0710   43.6960 H   0  0  0  0  0  0  0  0  0  0  0  0
   37.0850    9.6690   45.4930 H   0  0  0  0  0  0  0  0  0  0  0  0
   36.3360   10.7440   46.7860 H   0  0  0  0  0  0  0  0  0  0  0  0
   35.6540   10.7620   43.8250 H   0  0  0  0  0  0  0  0  0  0  0  0
   34.6780   10.0010   45.1240 H   0  0  0  0  0  0  0  0  0  0  0  0
   35.5700   13.3590   43.8510 H   0  0  0  0  0  0  0  0  0  0  0  0
   34.9900   14.0110   45.4040 H   0  0  0  0  0  0  0  0  0  0  0  0
   37.4970   13.8260   44.9480 H   0  0  0  0  0  0  0  0  0  0  0  0
   36.8710   13.4010   46.5630 H   0  0  0  0  0  0  0  0  0  0  0  0
  1  2  1  0  0  0  0
  2  3  1  0  0  0  0
  3  4  2  0  0  0  0
  3 30  1  0  0  0  0
  4 31  1  0  0  0  0
  5  8  1  0  0  0  0
  5  4  1  0  0  0  0
  6  5  2  0  0  0  0
  7  6  1  0  0  0  0
  7  2  2  0  0  0  0
  8  9  1  0  0  0  0
  9 10  1  0  0  0  0
  9 35  1  0  0  0  0
 10 12  1  0  0  0  0
 11 10  2  0  0  0  0
 12 13  1  0  0  0  0
 12 17  1  0  0  0  0
 13 36  1  0  0  0  0
 13 14  1  0  0  0  0
 14 38  1  0  0  0  0
 15 14  1  0  0  0  0
 15 16  1  0  0  0  0
 16 41  1  0  0  0  0
 17 43  1  0  0  0  0
 17 16  1  0  0  0  0
 17 42  1  0  0  0  0
 18 19  1  0  0  0  0
 18 15  1  0  0  0  0
 20 24  1  0  0  0  0
 20 19  2  0  0  0  0
 21 20  1  0  0  0  0
 22 21  2  0  0  0  0
 22 23  1  0  0  0  0
 23 18  2  0  0  0  0
 24 29  1  0  0  0  0
 24 25  1  0  0  0  0
 25 47  1  0  0  0  0
 26 49  1  0  0  0  0
 26 27  1  0  0  0  0
 26 25  1  0  0  0  0
 28 27  1  0  0  0  0
 28 51  1  0  0  0  0
 28 29  1  0  0  0  0
 29 53  1  0  0  0  0
 32  6  1  0  0  0  0
 33  7  1  0  0  0  0
 34  9  1  0  0  0  0
 37 13  1  0  0  0  0
 39 14  1  0  0  0  0
 40 16  1  0  0  0  0
 44 22  1  0  0  0  0
 45 23  1  0  0  0  0
 46 25  1  0  0  0  0
 48 26  1  0  0  0  0
 50 28  1  0  0  0  0
 52 29  1  0  0  0  0
M  END
>  <Pose>
1

>  <Score>
-5.80

$$$$
