
 OpenBabel03172210433D

 45 49  0  0  0  0  0  0  0  0999 V2000
   48.9570    2.2680   42.2110 Cl  0  0  0  0  0  0  0  0  0  0  0  0
   47.9070    3.6260   42.4740 C   0  0  0  0  0  0  0  0  0  0  0  0
   47.3520    4.2780   41.4020 C   0  0  0  0  0  0  0  0  0  0  0  0
   46.5190    5.3560   41.6050 C   0  0  0  0  0  0  0  0  0  0  0  0
   46.2180    5.8110   42.8680 C   0  0  0  0  0  0  0  0  0  0  0  0
   46.7910    5.1370   43.9240 C   0  0  0  0  0  0  0  0  0  0  0  0
   47.6290    4.0540   43.7400 C   0  0  0  0  0  0  0  0  0  0  0  0
   45.3680    6.9140   43.1400 N   0  0  0  0  0  0  0  0  0  0  0  0
   45.5290    8.1680   42.7560 N   0  0  0  0  0  0  0  0  0  0  0  0
   44.5480    8.9400   43.1840 N   0  0  0  0  0  0  0  0  0  0  0  0
   43.6770    8.1970   43.8880 C   0  0  0  0  0  0  0  0  0  0  0  0
   44.2110    6.9240   43.8490 C   0  0  0  0  0  0  0  0  0  0  0  0
   43.5360    5.9400   44.4860 N   0  0  0  0  0  0  0  0  0  0  0  0
   42.3890    6.2330   45.1250 C   0  0  0  0  0  0  0  0  0  0  0  0
   41.8700    7.4850   45.1590 N   0  0  0  0  0  0  0  0  0  0  0  0
   42.5000    8.5010   44.5420 C   0  0  0  0  0  0  0  0  0  0  0  0
   41.9690    9.8260   44.5680 N   0  0  0  0  0  0  0  0  0  0  0  0
   42.2830   10.6260   45.7370 C   0  0  0  0  0  0  0  0  0  0  0  0
   42.2020   12.1160   45.4150 C   0  0  0  0  0  0  0  0  0  0  0  0
   41.1550   12.3930   44.4990 N   0  0  0  0  0  0  0  0  0  0  0  0
   41.3540   11.7370   43.1700 C   0  0  0  0  0  0  0  0  0  0  0  0
   41.1800   10.2570   43.4570 C   0  0  0  0  0  0  0  0  0  0  0  0
   40.0330   13.1680   44.7350 C   0  0  0  0  0  0  0  0  0  0  0  0
   40.2980   14.4380   44.9920 O   0  0  0  0  0  0  0  0  0  0  0  0
   38.6090   12.8700   44.7550 C   0  0  0  0  0  0  0  0  0  0  0  0
   38.1520   11.6190   45.4040 C   0  0  0  0  0  0  0  0  0  0  0  0
   37.6930   12.9750   45.8860 C   0  0  0  0  0  0  0  0  0  0  0  0
   47.5980    3.9080   40.3980 H   0  0  0  0  0  0  0  0  0  0  0  0
   46.1010    5.8430   40.7400 H   0  0  0  0  0  0  0  0  0  0  0  0
   46.5690    5.4760   44.9370 H   0  0  0  0  0  0  0  0  0  0  0  0
   48.0410    3.5760   44.6370 H   0  0  0  0  0  0  0  0  0  0  0  0
   41.8490    5.4270   45.6390 H   0  0  0  0  0  0  0  0  0  0  0  0
   41.6310   10.3370   46.5790 H   0  0  0  0  0  0  0  0  0  0  0  0
   43.3260   10.4310   46.0550 H   0  0  0  0  0  0  0  0  0  0  0  0
   43.1670   12.3620   44.8440 H   0  0  0  0  0  0  0  0  0  0  0  0
   42.2830   12.6620   46.3300 H   0  0  0  0  0  0  0  0  0  0  0  0
   40.6230   12.0930   42.4490 H   0  0  0  0  0  0  0  0  0  0  0  0
   42.3910   11.9060   42.8780 H   0  0  0  0  0  0  0  0  0  0  0  0
   40.0810   10.1030   43.5990 H   0  0  0  0  0  0  0  0  0  0  0  0
   41.4600    9.7150   42.5290 H   0  0  0  0  0  0  0  0  0  0  0  0
   38.0940   13.0860   43.7400 H   0  0  0  0  0  0  0  0  0  0  0  0
   38.8430   10.9920   45.9870 H   0  0  0  0  0  0  0  0  0  0  0  0
   37.3690   10.9860   44.9100 H   0  0  0  0  0  0  0  0  0  0  0  0
   36.6100   13.2450   45.6420 H   0  0  0  0  0  0  0  0  0  0  0  0
   37.9190   13.2240   46.9130 H   0  0  0  0  0  0  0  0  0  0  0  0
  1  2  1  0  0  0  0
  2  7  1  0  0  0  0
  3  4  1  0  0  0  0
  3  2  2  0  0  0  0
  4  5  2  0  0  0  0
  5  8  1  0  0  0  0
  5  6  1  0  0  0  0
  6 30  1  0  0  0  0
  7  6  2  0  0  0  0
  7 31  1  0  0  0  0
  8 12  1  0  0  0  0
  9  8  1  0  0  0  0
  9 10  2  0  0  0  0
 10 11  1  0  0  0  0
 11 16  1  0  0  0  0
 12 11  2  0  0  0  0
 12 13  1  0  0  0  0
 13 14  2  0  0  0  0
 14 15  1  0  0  0  0
 14 32  1  0  0  0  0
 16 17  1  0  0  0  0
 16 15  2  0  0  0  0
 17 18  1  0  0  0  0
 18 34  1  0  0  0  0
 18 33  1  0  0  0  0
 19 18  1  0  0  0  0
 19 36  1  0  0  0  0
 20 23  1  0  0  0  0
 20 19  1  0  0  0  0
 21 22  1  0  0  0  0
 21 20  1  0  0  0  0
 22 39  1  0  0  0  0
 22 17  1  0  0  0  0
 23 25  1  0  0  0  0
 23 24  2  0  0  0  0
 25 26  1  0  0  0  0
 25 27  1  0  0  0  0
 26 27  1  0  0  0  0
 26 42  1  0  0  0  0
 27 45  1  0  0  0  0
 28  3  1  0  0  0  0
 29  4  1  0  0  0  0
 35 19  1  0  0  0  0
 37 21  1  0  0  0  0
 38 21  1  0  0  0  0
 40 22  1  0  0  0  0
 41 25  1  0  0  0  0
 43 26  1  0  0  0  0
 44 27  1  0  0  0  0
M  END
>  <Pose>
1

>  <Score>
-6.62

$$$$
