
 OpenBabel03172210433D

 38 40  0  0  1  0  0  0  0  0999 V2000
   38.3070   10.9560   47.0230 Cl  0  0  0  0  0  0  0  0  0  0  0  0
   39.5820   10.5710   45.8890 C   0  0  0  0  0  0  0  0  0  0  0  0
   39.7250   11.3090   44.7320 C   0  0  0  0  0  0  0  0  0  0  0  0
   40.7540   10.9520   43.8880 C   0  0  0  0  0  0  0  0  0  0  0  0
   40.9750   11.5640   42.7980 O   0  0  0  0  0  0  0  0  0  0  0  0
   41.5590    9.9280   44.2080 N   0  0  0  0  0  0  0  0  0  0  0  0
   41.4590    9.1970   45.3000 N   0  0  0  0  0  0  0  0  0  0  0  0
   42.3550    8.0950   45.6080 C   0  0  1  0  0  0  0  0  0  0  0  0
   42.1030    6.8850   44.7330 C   0  0  0  0  0  0  0  0  0  0  0  0
   42.7880    7.0500   43.3880 C   0  0  0  0  0  0  0  0  0  0  0  0
   42.2630    8.2580   42.6470 C   0  0  0  0  0  0  0  0  0  0  0  0
   42.6500    9.5640   43.2900 C   0  0  2  0  0  0  0  0  0  0  0  0
   43.8440    9.3250   44.1430 C   0  0  0  0  0  0  0  0  0  0  0  0
   43.7360    8.5850   45.2420 C   0  0  0  0  0  0  0  0  0  0  0  0
   40.4470    9.5300   46.1540 C   0  0  0  0  0  0  0  0  0  0  0  0
   40.3250    8.8390   47.2220 O   0  0  0  0  0  0  0  0  0  0  0  0
   38.8680   12.3930   44.3900 N   0  0  0  0  0  0  0  0  0  0  0  0
   39.0370   13.7450   44.8510 C   0  0  0  0  0  0  0  0  0  0  0  0
   37.9080   14.1760   45.7710 C   0  0  0  0  0  0  0  0  0  0  0  0
   40.3280   14.0020   45.5540 C   0  0  0  0  0  0  0  0  0  0  0  0
   42.3290    7.8200   46.6620 H   0  0  0  0  0  0  0  0  0  0  0  0
   41.0400    6.6360   44.6330 H   0  0  0  0  0  0  0  0  0  0  0  0
   42.5920    6.0200   45.2310 H   0  0  0  0  0  0  0  0  0  0  0  0
   42.5240    6.1640   42.7780 H   0  0  0  0  0  0  0  0  0  0  0  0
   43.8740    7.1440   43.5530 H   0  0  0  0  0  0  0  0  0  0  0  0
   41.1400    8.1400   42.6320 H   0  0  0  0  0  0  0  0  0  0  0  0
   42.5750    8.1910   41.5870 H   0  0  0  0  0  0  0  0  0  0  0  0
   42.8200   10.3690   42.5490 H   0  0  0  0  0  0  0  0  0  0  0  0
   44.8130    9.7510   43.8780 H   0  0  0  0  0  0  0  0  0  0  0  0
   44.5880    8.3340   45.8610 H   0  0  0  0  0  0  0  0  0  0  0  0
   38.0620   12.1240   43.7480 H   0  0  0  0  0  0  0  0  0  0  0  0
   38.9900   14.4180   43.9730 H   0  0  0  0  0  0  0  0  0  0  0  0
   37.8810   13.5450   46.6880 H   0  0  0  0  0  0  0  0  0  0  0  0
   38.1410   15.2050   46.0970 H   0  0  0  0  0  0  0  0  0  0  0  0
   36.9280   14.1950   45.2520 H   0  0  0  0  0  0  0  0  0  0  0  0
   40.2770   15.0460   45.9460 H   0  0  0  0  0  0  0  0  0  0  0  0
   41.2210   13.9350   44.8840 H   0  0  0  0  0  0  0  0  0  0  0  0
   40.4300   13.3560   46.4360 H   0  0  0  0  0  0  0  0  0  0  0  0
  2 15  1  0  0  0  0
  2  1  1  0  0  0  0
  3  2  2  0  0  0  0
  4  6  1  0  0  0  0
  4  3  1  0  0  0  0
  5  4  2  0  0  0  0
  6  7  1  0  0  0  0
  7  8  1  0  0  0  0
  7 15  1  0  0  0  0
  8 21  1  1  0  0  0
  9 23  1  0  0  0  0
  9  8  1  0  0  0  0
 10 25  1  0  0  0  0
 10  9  1  0  0  0  0
 11 12  1  0  0  0  0
 11 10  1  0  0  0  0
 12 28  1  6  0  0  0
 12 13  1  0  0  0  0
 12  6  1  0  0  0  0
 13 14  2  0  0  0  0
 14  8  1  0  0  0  0
 14 30  1  0  0  0  0
 15 16  2  0  0  0  0
 17  3  1  0  0  0  0
 17 18  1  0  0  0  0
 18 20  1  0  0  0  0
 18 19  1  0  0  0  0
 19 34  1  0  0  0  0
 19 33  1  0  0  0  0
 20 36  1  0  0  0  0
 20 38  1  0  0  0  0
 22  9  1  0  0  0  0
 24 10  1  0  0  0  0
 26 11  1  0  0  0  0
 27 11  1  0  0  0  0
 29 13  1  0  0  0  0
 31 17  1  0  0  0  0
 32 18  1  0  0  0  0
 35 19  1  0  0  0  0
 37 20  1  0  0  0  0
M  END
>  <Pose>
1

>  <Score>
-3.99

$$$$
