
 OpenBabel03172210433D

 56 59  0  0  1  0  0  0  0  0999 V2000
   42.5840    6.6340   44.2660 Cl  0  0  0  0  0  0  0  0  0  0  0  0
   44.2330    6.8740   43.7290 C   0  0  0  0  0  0  0  0  0  0  0  0
   44.6090    8.1720   43.3960 C   0  0  0  0  0  0  0  0  0  0  0  0
   45.9140    8.3250   42.9790 C   0  0  0  0  0  0  0  0  0  0  0  0
   46.7370    7.2650   42.9090 N   0  0  0  0  0  0  0  0  0  0  0  0
   46.4000    6.0250   43.2200 N   0  0  0  0  0  0  0  0  0  0  0  0
   45.1330    5.8310   43.6340 C   0  0  0  0  0  0  0  0  0  0  0  0
   44.7870    4.6550   43.9370 O   0  0  0  0  0  0  0  0  0  0  0  0
   47.3340    4.9420   43.1190 C   0  0  0  0  0  0  0  0  0  0  0  0
   47.2320    4.0380   42.0870 C   0  0  0  0  0  0  0  0  0  0  0  0
   48.1380    2.9770   41.9780 C   0  0  0  0  0  0  0  0  0  0  0  0
   49.1520    2.8050   42.8930 C   0  0  0  0  0  0  0  0  0  0  0  0
   49.2610    3.7070   43.9290 C   0  0  0  0  0  0  0  0  0  0  0  0
   48.3540    4.7560   44.0270 C   0  0  0  0  0  0  0  0  0  0  0  0
   43.7020    9.2610   43.4780 N   0  0  0  0  0  0  0  0  0  0  0  0
   43.9370   10.4080   44.3210 C   0  0  0  0  0  0  0  0  0  0  0  0
   42.6860   10.7620   45.0620 C   0  0  0  0  0  0  0  0  0  0  0  0
   41.7590    9.6720   44.8860 N   0  0  0  0  0  0  0  0  0  0  0  0
   41.3150    9.6620   43.5390 C   0  0  0  0  0  0  0  0  0  0  0  0
   42.5020    9.2130   42.6810 C   0  0  0  0  0  0  0  0  0  0  0  0
   40.8140    9.4810   45.9110 C   0  0  0  0  0  0  0  0  0  0  0  0
   41.3730    9.0210   47.1860 C   0  0  0  0  0  0  0  0  0  0  0  0
   42.5020    8.4260   47.1200 O   0  0  0  0  0  0  0  0  0  0  0  0
   40.7840    9.1760   48.4650 N   0  0  0  0  0  0  0  0  0  0  0  0
   39.5900    8.4950   48.8960 C   0  0  0  0  0  0  0  0  0  0  0  0
   38.7940    9.3960   49.7890 C   0  0  1  0  0  0  0  0  0  0  0  0
   38.2550   10.4130   49.0470 O   0  0  0  0  0  0  0  0  0  0  0  0
   36.8930   10.4400   49.1690 C   0  0  0  0  0  0  0  0  0  0  0  0
   36.6540    9.8460   50.5420 C   0  0  0  0  0  0  0  0  0  0  0  0
   37.6320    8.6630   50.4420 C   0  0  0  0  0  0  0  0  0  0  0  0
   46.2340    9.3310   42.7130 H   0  0  0  0  0  0  0  0  0  0  0  0
   46.4280    4.1700   41.3570 H   0  0  0  0  0  0  0  0  0  0  0  0
   48.0650    2.2660   41.1720 H   0  0  0  0  0  0  0  0  0  0  0  0
   49.8800    1.9890   42.8400 H   0  0  0  0  0  0  0  0  0  0  0  0
   50.0610    3.5680   44.6480 H   0  0  0  0  0  0  0  0  0  0  0  0
   48.4330    5.4690   44.8380 H   0  0  0  0  0  0  0  0  0  0  0  0
   44.3790   11.2640   43.7720 H   0  0  0  0  0  0  0  0  0  0  0  0
   44.7080   10.1670   45.1140 H   0  0  0  0  0  0  0  0  0  0  0  0
   42.2130   11.6500   44.5430 H   0  0  0  0  0  0  0  0  0  0  0  0
   42.8210   10.9520   46.1280 H   0  0  0  0  0  0  0  0  0  0  0  0
   40.4120    9.0700   43.3490 H   0  0  0  0  0  0  0  0  0  0  0  0
   41.0970   10.7150   43.2390 H   0  0  0  0  0  0  0  0  0  0  0  0
   42.5890    9.8260   41.7490 H   0  0  0  0  0  0  0  0  0  0  0  0
   42.2590    8.1610   42.3880 H   0  0  0  0  0  0  0  0  0  0  0  0
   39.9780    8.7910   45.6030 H   0  0  0  0  0  0  0  0  0  0  0  0
   40.3170   10.4820   46.0960 H   0  0  0  0  0  0  0  0  0  0  0  0
   41.2540    9.8180   49.1350 H   0  0  0  0  0  0  0  0  0  0  0  0
   39.8400    7.5560   49.4580 H   0  0  0  0  0  0  0  0  0  0  0  0
   39.0010    8.2180   48.0090 H   0  0  0  0  0  0  0  0  0  0  0  0
   39.4040    9.8040   50.6100 H   0  0  0  0  0  0  0  0  0  0  0  0
   36.4520    9.7370   48.4360 H   0  0  0  0  0  0  0  0  0  0  0  0
   36.4910   11.4630   49.0790 H   0  0  0  0  0  0  0  0  0  0  0  0
   35.6290    9.5310   50.7190 H   0  0  0  0  0  0  0  0  0  0  0  0
   37.0700   10.5370   51.3030 H   0  0  0  0  0  0  0  0  0  0  0  0
   37.1560    7.9580   49.7220 H   0  0  0  0  0  0  0  0  0  0  0  0
   37.8580    8.2370   51.4140 H   0  0  0  0  0  0  0  0  0  0  0  0
  2  1  1  0  0  0  0
  3 15  1  0  0  0  0
  3  2  2  0  0  0  0
  4  3  1  0  0  0  0
  5  4  2  0  0  0  0
  5  6  1  0  0  0  0
  6  7  1  0  0  0  0
  7  2  1  0  0  0  0
  7  8  2  0  0  0  0
  9  6  1  0  0  0  0
  9 14  1  0  0  0  0
 10  9  2  0  0  0  0
 11 10  1  0  0  0  0
 11 12  2  0  0  0  0
 12 13  1  0  0  0  0
 13 14  2  0  0  0  0
 13 35  1  0  0  0  0
 14 36  1  0  0  0  0
 15 16  1  0  0  0  0
 16 17  1  0  0  0  0
 16 38  1  0  0  0  0
 17 40  1  0  0  0  0
 18 17  1  0  0  0  0
 18 21  1  0  0  0  0
 19 18  1  0  0  0  0
 20 15  1  0  0  0  0
 20 19  1  0  0  0  0
 21 46  1  0  0  0  0
 21 22  1  0  0  0  0
 22 24  1  0  0  0  0
 23 22  2  0  0  0  0
 24 25  1  0  0  0  0
 24 47  1  0  0  0  0
 25 48  1  0  0  0  0
 25 26  1  0  0  0  0
 26 30  1  0  0  0  0
 26 50  1  1  0  0  0
 27 28  1  0  0  0  0
 27 26  1  0  0  0  0
 28 29  1  0  0  0  0
 29 53  1  0  0  0  0
 29 54  1  0  0  0  0
 30 29  1  0  0  0  0
 30 56  1  0  0  0  0
 31  4  1  0  0  0  0
 32 10  1  0  0  0  0
 33 11  1  0  0  0  0
 34 12  1  0  0  0  0
 37 16  1  0  0  0  0
 39 17  1  0  0  0  0
 41 19  1  0  0  0  0
 42 19  1  0  0  0  0
 43 20  1  0  0  0  0
 44 20  1  0  0  0  0
 45 21  1  0  0  0  0
 49 25  1  0  0  0  0
 51 28  1  0  0  0  0
 52 28  1  0  0  0  0
 55 30  1  0  0  0  0
M  END
>  <Pose>
1

>  <Score>
-6.70

$$$$
