
 OpenBabel03172210433D

 50 53  0  0  1  0  0  0  0  0999 V2000
   47.6450    3.2920   42.4330 S   0  0  0  0  0  0  0  0  0  0  0  0
   47.1990    1.9460   41.9550 O   0  0  0  0  0  0  0  0  0  0  0  0
   47.9140    4.1220   41.2020 O   0  0  0  0  0  0  0  0  0  0  0  0
   46.4250    4.0530   43.3340 N   0  0  0  0  0  0  0  0  0  0  0  0
   45.1200    3.9670   42.7970 C   0  0  0  0  0  0  0  0  0  0  0  0
   44.1840    5.0670   43.2230 C   0  0  0  0  0  0  0  0  0  0  0  0
   44.7990    6.3650   43.2200 N   0  0  0  0  0  0  0  0  0  0  0  0
   46.2340    6.4080   43.0880 C   0  0  0  0  0  0  0  0  0  0  0  0
   46.7880    5.2790   43.9530 C   0  0  0  0  0  0  0  0  0  0  0  0
   44.0100    7.5200   43.3470 C   0  0  0  0  0  0  0  0  0  0  0  0
   44.5760    8.6320   43.1450 O   0  0  0  0  0  0  0  0  0  0  0  0
   42.5640    7.5130   43.7020 C   0  0  2  0  0  0  0  0  0  0  0  0
   42.0490    8.8250   43.8420 N   0  0  0  0  0  0  0  0  0  0  0  0
   42.1240    9.4040   45.1440 C   0  0  2  0  0  0  0  0  0  0  0  0
   41.9760    7.9690   46.2280 S   0  0  0  0  0  0  0  0  0  0  0  0
   42.2810    6.7030   44.9330 C   0  0  0  0  0  0  0  0  0  0  0  0
   40.8220   10.1750   45.2430 C   0  0  0  0  0  0  0  0  0  0  0  0
   40.8560   10.8770   43.8790 C   0  0  0  0  0  0  0  0  0  0  0  0
   41.4290    9.8420   43.0220 C   0  0  0  0  0  0  0  0  0  0  0  0
   41.3690    9.8680   41.7560 O   0  0  0  0  0  0  0  0  0  0  0  0
   43.3030   10.2490   45.4200 C   0  0  0  0  0  0  0  0  0  0  0  0
   49.1720    3.1760   43.3040 C   0  0  0  0  0  0  0  0  0  0  0  0
   50.2070    2.4200   42.8010 C   0  0  0  0  0  0  0  0  0  0  0  0
   51.4110    2.3070   43.4560 C   0  0  0  0  0  0  0  0  0  0  0  0
   51.6390    2.9530   44.6580 C   0  0  0  0  0  0  0  0  0  0  0  0
   50.5790    3.7050   45.1380 C   0  0  0  0  0  0  0  0  0  0  0  0
   49.3720    3.8270   44.4950 C   0  0  0  0  0  0  0  0  0  0  0  0
   53.1590    2.8310   45.5190 Cl  0  0  0  0  0  0  0  0  0  0  0  0
   44.6860    2.9660   42.9950 H   0  0  0  0  0  0  0  0  0  0  0  0
   45.2040    4.0450   41.6770 H   0  0  0  0  0  0  0  0  0  0  0  0
   43.7650    4.7780   44.2120 H   0  0  0  0  0  0  0  0  0  0  0  0
   43.2910    5.0620   42.5320 H   0  0  0  0  0  0  0  0  0  0  0  0
   46.6680    7.3810   43.3810 H   0  0  0  0  0  0  0  0  0  0  0  0
   46.4680    6.1740   42.0230 H   0  0  0  0  0  0  0  0  0  0  0  0
   46.4490    5.3740   44.9860 H   0  0  0  0  0  0  0  0  0  0  0  0
   47.9070    5.3380   43.9760 H   0  0  0  0  0  0  0  0  0  0  0  0
   42.0520    6.9760   42.8760 H   0  0  0  0  0  0  0  0  0  0  0  0
   41.3700    6.0870   44.8700 H   0  0  0  0  0  0  0  0  0  0  0  0
   43.1120    6.0360   45.2390 H   0  0  0  0  0  0  0  0  0  0  0  0
   40.0110    9.4130   45.2780 H   0  0  0  0  0  0  0  0  0  0  0  0
   40.8040   10.8840   46.0690 H   0  0  0  0  0  0  0  0  0  0  0  0
   39.8030   11.1270   43.5970 H   0  0  0  0  0  0  0  0  0  0  0  0
   41.5090   11.7510   43.9660 H   0  0  0  0  0  0  0  0  0  0  0  0
   43.0120   11.0040   46.2100 H   0  0  0  0  0  0  0  0  0  0  0  0
   44.1530    9.6870   45.8940 H   0  0  0  0  0  0  0  0  0  0  0  0
   43.6320   10.8570   44.5570 H   0  0  0  0  0  0  0  0  0  0  0  0
   50.0440    1.9010   41.8490 H   0  0  0  0  0  0  0  0  0  0  0  0
   52.2230    1.7050   43.0460 H   0  0  0  0  0  0  0  0  0  0  0  0
   50.7840    4.2060   46.0900 H   0  0  0  0  0  0  0  0  0  0  0  0
   48.6000    4.4280   44.9290 H   0  0  0  0  0  0  0  0  0  0  0  0
  1 22  1  0  0  0  0
  1  4  1  0  0  0  0
  2  1  2  0  0  0  0
  3  1  2  0  0  0  0
  4  9  1  0  0  0  0
  5 29  1  0  0  0  0
  5  6  1  0  0  0  0
  5  4  1  0  0  0  0
  6 31  1  0  0  0  0
  7  6  1  0  0  0  0
  7 10  1  0  0  0  0
  8  7  1  0  0  0  0
  8 33  1  0  0  0  0
  8  9  1  0  0  0  0
  9 36  1  0  0  0  0
  9 35  1  0  0  0  0
 10 12  1  0  0  0  0
 11 10  2  0  0  0  0
 12 37  1  6  0  0  0
 12 13  1  0  0  0  0
 12 16  1  0  0  0  0
 13 14  1  0  0  0  0
 14 17  1  0  0  0  0
 14 21  1  1  0  0  0
 14 15  1  0  0  0  0
 16 39  1  0  0  0  0
 16 15  1  0  0  0  0
 17 40  1  0  0  0  0
 17 41  1  0  0  0  0
 18 43  1  0  0  0  0
 18 17  1  0  0  0  0
 19 13  1  0  0  0  0
 19 18  1  0  0  0  0
 20 19  2  0  0  0  0
 21 45  1  0  0  0  0
 21 44  1  0  0  0  0
 22 27  1  0  0  0  0
 23 22  2  0  0  0  0
 23 24  1  0  0  0  0
 24 25  2  0  0  0  0
 25 26  1  0  0  0  0
 25 28  1  0  0  0  0
 26 49  1  0  0  0  0
 27 50  1  0  0  0  0
 27 26  2  0  0  0  0
 30  5  1  0  0  0  0
 32  6  1  0  0  0  0
 34  8  1  0  0  0  0
 38 16  1  0  0  0  0
 42 18  1  0  0  0  0
 46 21  1  0  0  0  0
 47 23  1  0  0  0  0
 48 24  1  0  0  0  0
M  END
>  <Pose>
1

>  <Score>
-6.33

$$$$
