
 OpenBabel03172210433D

 44 47  0  0  1  0  0  0  0  0999 V2000
   50.3980    1.6320   42.3580 B   0  0  0  0  0  0  0  0  0  0  0  0
   49.5670    3.0030   43.4030 C   0  0  0  0  0  0  0  0  0  0  0  0
   48.5390    3.7750   42.9010 C   0  0  0  0  0  0  0  0  0  0  0  0
   47.9290    4.7680   43.6490 C   0  0  0  0  0  0  0  0  0  0  0  0
   48.4020    4.9500   44.9300 C   0  0  0  0  0  0  0  0  0  0  0  0
   49.4250    4.2010   45.4650 C   0  0  0  0  0  0  0  0  0  0  0  0
   50.0250    3.2110   44.7040 C   0  0  0  0  0  0  0  0  0  0  0  0
   50.0330    4.5050   47.2520 B   0  0  0  0  0  0  0  0  0  0  0  0
   46.8780    5.4260   42.8860 C   0  0  0  0  0  0  0  0  0  0  0  0
   46.0910    6.3800   43.2170 N   0  0  0  0  0  0  0  0  0  0  0  0
   45.1250    6.8990   42.3500 N   0  0  0  0  0  0  0  0  0  0  0  0
   44.2190    7.8550   42.8620 C   0  0  0  0  0  0  0  0  0  0  0  0
   43.1420    8.0860   42.2730 O   0  0  0  0  0  0  0  0  0  0  0  0
   44.4940    8.6280   44.1140 C   0  0  0  0  0  0  0  0  0  0  0  0
   44.7030   10.0250   43.8490 N   0  0  0  0  0  0  0  0  0  0  0  0
   43.6540   10.9010   43.4560 C   0  0  0  0  0  0  0  0  0  0  0  0
   43.7700   11.5170   42.3740 O   0  0  0  0  0  0  0  0  0  0  0  0
   42.4220   11.1280   44.2680 C   0  0  2  0  0  0  0  0  0  0  0  0
   42.7050   11.2150   45.6330 O   0  0  0  0  0  0  0  0  0  0  0  0
   42.3550   10.2570   46.5820 C   0  0  0  0  0  0  0  0  0  0  0  0
   41.3710    9.3690   46.2350 C   0  0  0  0  0  0  0  0  0  0  0  0
   41.0000    8.3990   47.1660 C   0  0  0  0  0  0  0  0  0  0  0  0
   41.5830    8.3070   48.4100 C   0  0  0  0  0  0  0  0  0  0  0  0
   42.5710    9.2190   48.7240 C   0  0  0  0  0  0  0  0  0  0  0  0
   42.9420   10.1780   47.8100 C   0  0  0  0  0  0  0  0  0  0  0  0
   40.7860    9.4530   45.0020 O   0  0  0  0  0  0  0  0  0  0  0  0
   41.3310   10.1730   43.9310 C   0  0  0  0  0  0  0  0  0  0  0  0
   46.8660    4.7640   41.5770 C   0  0  0  0  0  0  0  0  0  0  0  0
   46.0780    5.0710   40.6420 O   0  0  0  0  0  0  0  0  0  0  0  0
   47.8810    3.7830   41.6390 N   0  0  0  0  0  0  0  0  0  0  0  0
   47.9590    5.7120   45.5490 H   0  0  0  0  0  0  0  0  0  0  0  0
   50.8170    2.6180   45.0990 H   0  0  0  0  0  0  0  0  0  0  0  0
   45.1240    6.5490   41.3680 H   0  0  0  0  0  0  0  0  0  0  0  0
   43.5790    8.5200   44.7370 H   0  0  0  0  0  0  0  0  0  0  0  0
   45.3310    8.1740   44.6900 H   0  0  0  0  0  0  0  0  0  0  0  0
   45.6510   10.4590   43.9370 H   0  0  0  0  0  0  0  0  0  0  0  0
   42.0820   12.1620   43.9640 H   0  0  0  0  0  0  0  0  0  0  0  0
   40.2200    7.7090   46.8690 H   0  0  0  0  0  0  0  0  0  0  0  0
   41.2660    7.5400   49.1000 H   0  0  0  0  0  0  0  0  0  0  0  0
   43.0350    9.1400   49.7230 H   0  0  0  0  0  0  0  0  0  0  0  0
   43.7170   10.8810   48.0830 H   0  0  0  0  0  0  0  0  0  0  0  0
   40.4850   10.7130   43.4040 H   0  0  0  0  0  0  0  0  0  0  0  0
   41.7090    9.4260   43.1950 H   0  0  0  0  0  0  0  0  0  0  0  0
   48.1210    3.1450   40.8610 H   0  0  0  0  0  0  0  0  0  0  0  0
  1  2  1  0  0  0  0
  2  7  1  0  0  0  0
  3  2  2  0  0  0  0
  3  4  1  0  0  0  0
  4  5  2  0  0  0  0
  5  6  1  0  0  0  0
  5 31  1  0  0  0  0
  6  8  1  0  0  0  0
  7 32  1  0  0  0  0
  7  6  2  0  0  0  0
  9 10  2  0  0  0  0
  9  4  1  0  0  0  0
 11 12  1  0  0  0  0
 11 10  1  0  0  0  0
 12 14  1  0  0  0  0
 13 12  2  0  0  0  0
 14 35  1  0  0  0  0
 14 34  1  0  0  0  0
 15 36  1  0  0  0  0
 15 14  1  0  0  0  0
 16 15  1  0  0  0  0
 16 18  1  0  0  0  0
 17 16  2  0  0  0  0
 18 37  1  6  0  0  0
 18 19  1  0  0  0  0
 19 20  1  0  0  0  0
 20 25  1  0  0  0  0
 21 20  2  0  0  0  0
 21 22  1  0  0  0  0
 22 23  2  0  0  0  0
 23 24  1  0  0  0  0
 23 39  1  0  0  0  0
 24 40  1  0  0  0  0
 25 41  1  0  0  0  0
 25 24  2  0  0  0  0
 26 21  1  0  0  0  0
 27 18  1  0  0  0  0
 27 26  1  0  0  0  0
 28 30  1  0  0  0  0
 28  9  1  0  0  0  0
 29 28  2  0  0  0  0
 30  3  1  0  0  0  0
 33 11  1  0  0  0  0
 38 22  1  0  0  0  0
 42 27  1  0  0  0  0
 43 27  1  0  0  0  0
 44 30  1  0  0  0  0
M  END
>  <Pose>
1

>  <Score>
-7.66

$$$$
