
 OpenBabel03172210433D

 53 56  0  0  1  0  0  0  0  0999 V2000
   42.2290    7.7840   43.7830 S   0  0  0  0  0  0  0  0  0  0  0  0
   41.8930    6.3220   44.0890 O   0  0  0  0  0  0  0  0  0  0  0  0
   41.4220    8.0920   42.5160 O   0  0  0  0  0  0  0  0  0  0  0  0
   41.6410    8.6960   45.0840 N   0  0  0  0  0  0  0  0  0  0  0  0
   40.2460    8.6210   45.3380 C   0  0  0  0  0  0  0  0  0  0  0  0
   39.8110    9.4370   46.5330 C   0  0  1  0  0  0  0  0  0  0  0  0
   40.5840    9.0390   47.7430 C   0  0  0  0  0  0  0  0  0  0  0  0
   42.0790    9.0180   47.4750 C   0  0  0  0  0  0  0  0  0  0  0  0
   42.3420    8.1750   46.2760 C   0  0  0  0  0  0  0  0  0  0  0  0
   39.7480   10.8910   46.2820 C   0  0  0  0  0  0  0  0  0  0  0  0
   40.3640   11.6190   47.1450 O   0  0  0  0  0  0  0  0  0  0  0  0
   39.1100   11.5420   45.2350 N   0  0  0  0  0  0  0  0  0  0  0  0
   37.7380   11.9340   45.3160 C   0  0  0  0  0  0  0  0  0  0  0  0
   37.4410   13.2400   44.6320 C   0  0  0  0  0  0  0  0  0  0  0  0
   38.3070   13.5960   43.6460 O   0  0  0  0  0  0  0  0  0  0  0  0
   39.6470   13.3730   43.8850 C   0  0  0  0  0  0  0  0  0  0  0  0
   39.7910   11.8460   44.0000 C   0  0  0  0  0  0  0  0  0  0  0  0
   43.8920    7.9320   43.3990 C   0  0  0  0  0  0  0  0  0  0  0  0
   44.5770    9.1170   43.5130 C   0  0  0  0  0  0  0  0  0  0  0  0
   45.9380    9.1580   43.2490 C   0  0  0  0  0  0  0  0  0  0  0  0
   46.6400    8.0120   42.8650 C   0  0  0  0  0  0  0  0  0  0  0  0
   45.9650    6.8180   42.7440 C   0  0  0  0  0  0  0  0  0  0  0  0
   44.6160    6.7980   43.0100 C   0  0  0  0  0  0  0  0  0  0  0  0
   46.6710    5.6090   42.3430 C   0  0  0  0  0  0  0  0  0  0  0  0
   46.6560    5.0510   41.1210 N   0  0  0  0  0  0  0  0  0  0  0  0
   47.3980    3.9780   41.1130 O   0  0  0  0  0  0  0  0  0  0  0  0
   47.9080    3.8060   42.3040 C   0  0  0  0  0  0  0  0  0  0  0  0
   47.4640    4.8130   43.0790 N   0  0  0  0  0  0  0  0  0  0  0  0
   48.8210    2.6940   42.7410 C   0  0  0  0  0  0  0  0  0  0  0  0
   43.8100   10.6410   43.9020 Cl  0  0  0  0  0  0  0  0  0  0  0  0
   39.6400    8.9540   44.4500 H   0  0  0  0  0  0  0  0  0  0  0  0
   39.9650    7.5720   45.5340 H   0  0  0  0  0  0  0  0  0  0  0  0
   38.7460    9.1030   46.7270 H   0  0  0  0  0  0  0  0  0  0  0  0
   40.3030    7.9930   47.9990 H   0  0  0  0  0  0  0  0  0  0  0  0
   40.3710    9.6980   48.6010 H   0  0  0  0  0  0  0  0  0  0  0  0
   42.4060   10.0520   47.2670 H   0  0  0  0  0  0  0  0  0  0  0  0
   42.5520    8.5560   48.3480 H   0  0  0  0  0  0  0  0  0  0  0  0
   41.9410    7.1370   46.4480 H   0  0  0  0  0  0  0  0  0  0  0  0
   43.4290    8.1380   46.0910 H   0  0  0  0  0  0  0  0  0  0  0  0
   37.3620   12.0090   46.3580 H   0  0  0  0  0  0  0  0  0  0  0  0
   37.1340   11.1130   44.8370 H   0  0  0  0  0  0  0  0  0  0  0  0
   37.3670   14.0870   45.3760 H   0  0  0  0  0  0  0  0  0  0  0  0
   36.4230   13.1550   44.1910 H   0  0  0  0  0  0  0  0  0  0  0  0
   39.8900   13.8160   44.8870 H   0  0  0  0  0  0  0  0  0  0  0  0
   40.2380   13.7850   43.0730 H   0  0  0  0  0  0  0  0  0  0  0  0
   40.8040   11.4900   43.8990 H   0  0  0  0  0  0  0  0  0  0  0  0
   39.1130   11.4220   43.1920 H   0  0  0  0  0  0  0  0  0  0  0  0
   46.4630   10.0940   43.3450 H   0  0  0  0  0  0  0  0  0  0  0  0
   47.7010    8.0530   42.6610 H   0  0  0  0  0  0  0  0  0  0  0  0
   44.1110    5.8500   42.9080 H   0  0  0  0  0  0  0  0  0  0  0  0
   49.0670    2.0820   41.8590 H   0  0  0  0  0  0  0  0  0  0  0  0
   49.6980    3.1700   43.2160 H   0  0  0  0  0  0  0  0  0  0  0  0
   48.2590    2.1210   43.5140 H   0  0  0  0  0  0  0  0  0  0  0  0
  1  2  2  0  0  0  0
  1  4  1  0  0  0  0
  3  1  2  0  0  0  0
  4  5  1  0  0  0  0
  4  9  1  0  0  0  0
  5 32  1  0  0  0  0
  5  6  1  0  0  0  0
  6 33  1  1  0  0  0
  6  7  1  0  0  0  0
  7 34  1  0  0  0  0
  7 35  1  0  0  0  0
  8  7  1  0  0  0  0
  8 37  1  0  0  0  0
  9 38  1  0  0  0  0
  9  8  1  0  0  0  0
 10  6  1  0  0  0  0
 10 11  2  0  0  0  0
 12 13  1  0  0  0  0
 12 10  1  0  0  0  0
 13 40  1  0  0  0  0
 14 13  1  0  0  0  0
 14 42  1  0  0  0  0
 15 16  1  0  0  0  0
 15 14  1  0  0  0  0
 16 17  1  0  0  0  0
 16 44  1  0  0  0  0
 17 12  1  0  0  0  0
 18 19  1  0  0  0  0
 18  1  1  0  0  0  0
 19 30  1  0  0  0  0
 20 48  1  0  0  0  0
 20 19  2  0  0  0  0
 21 20  1  0  0  0  0
 22 21  2  0  0  0  0
 22 23  1  0  0  0  0
 23 18  2  0  0  0  0
 24 22  1  0  0  0  0
 24 28  1  0  0  0  0
 25 24  2  0  0  0  0
 26 25  1  0  0  0  0
 26 27  1  0  0  0  0
 27 29  1  0  0  0  0
 27 28  2  0  0  0  0
 29 52  1  0  0  0  0
 29 53  1  0  0  0  0
 31  5  1  0  0  0  0
 36  8  1  0  0  0  0
 39  9  1  0  0  0  0
 41 13  1  0  0  0  0
 43 14  1  0  0  0  0
 45 16  1  0  0  0  0
 46 17  1  0  0  0  0
 47 17  1  0  0  0  0
 49 21  1  0  0  0  0
 50 23  1  0  0  0  0
 51 29  1  0  0  0  0
M  END
>  <Pose>
1

>  <Score>
-6.11

$$$$
