
 OpenBabel03172210433D

 67 70  0  0  1  0  0  0  0  0999 V2000
   42.6600    8.6150   45.8170 S   0  0  0  0  0  0  0  0  0  0  0  0
   42.6040    8.2240   47.2930 O   0  0  0  0  0  0  0  0  0  0  0  0
   41.1960    8.6150   45.3950 O   0  0  0  0  0  0  0  0  0  0  0  0
   43.4500    7.4170   44.9800 N   0  0  0  0  0  0  0  0  0  0  0  0
   44.8580    7.4020   44.9290 C   0  0  0  0  0  0  0  0  0  0  0  0
   45.4150    7.4520   43.5230 C   0  0  2  0  0  0  0  0  0  0  0  0
   44.5180    6.8790   42.4940 C   0  0  0  0  0  0  0  0  0  0  0  0
   43.4080    6.0150   42.9700 C   0  0  0  0  0  0  0  0  0  0  0  0
   42.7580    6.4400   44.2610 C   0  0  0  0  0  0  0  0  0  0  0  0
   46.7490    6.8010   43.4580 C   0  0  0  0  0  0  0  0  0  0  0  0
   47.6320    7.3370   42.7450 O   0  0  0  0  0  0  0  0  0  0  0  0
   47.0080    5.5880   44.2010 N   0  0  0  0  0  0  0  0  0  0  0  0
   48.3500    5.3300   44.5780 C   0  0  0  0  0  0  0  0  0  0  0  0
   48.9570    4.0250   44.2270 C   0  0  0  0  0  0  0  0  0  0  0  0
   49.8840    3.4310   45.1160 N   0  0  0  0  0  0  0  0  0  0  0  0
   49.4640    3.1320   46.4070 C   0  0  0  0  0  0  0  0  0  0  0  0
   50.1140    3.9010   47.5210 C   0  0  0  0  0  0  0  0  0  0  0  0
   51.4720    4.0970   47.3130 O   0  0  0  0  0  0  0  0  0  0  0  0
   51.5850    4.8810   46.1650 C   0  0  0  0  0  0  0  0  0  0  0  0
   51.2040    4.0040   44.9950 C   0  0  0  0  0  0  0  0  0  0  0  0
   43.2710   10.2190   45.6470 C   0  0  0  0  0  0  0  0  0  0  0  0
   43.9510   10.8220   46.6940 C   0  0  0  0  0  0  0  0  0  0  0  0
   44.4690   12.0910   46.6050 C   0  0  0  0  0  0  0  0  0  0  0  0
   44.3040   12.8050   45.4120 C   0  0  0  0  0  0  0  0  0  0  0  0
   43.6370   12.2070   44.3930 C   0  0  0  0  0  0  0  0  0  0  0  0
   43.1160   10.9270   44.4850 C   0  0  0  0  0  0  0  0  0  0  0  0
   42.1810   10.1820   42.9700 B   0  0  0  0  0  0  0  0  0  0  0  0
   44.9330   14.1490   45.5220 C   0  0  0  0  0  0  0  0  0  0  0  0
   44.9880   14.3380   47.0240 C   0  0  0  0  0  0  0  0  0  0  0  0
   45.1990   12.9540   47.4650 N   0  0  0  0  0  0  0  0  0  0  0  0
   45.9990   12.6120   48.5530 C   0  0  0  0  0  0  0  0  0  0  0  0
   47.1930   12.1960   48.3570 O   0  0  0  0  0  0  0  0  0  0  0  0
   45.5640   12.6920   49.9460 C   0  0  0  0  0  0  0  0  0  0  0  0
   46.6360   13.3010   50.8460 C   0  0  0  0  0  0  0  0  0  0  0  0
   45.2180    6.4270   45.3700 H   0  0  0  0  0  0  0  0  0  0  0  0
   45.2640    8.1950   45.5790 H   0  0  0  0  0  0  0  0  0  0  0  0
   45.5690    8.5540   43.3180 H   0  0  0  0  0  0  0  0  0  0  0  0
   45.1330    6.2430   41.7860 H   0  0  0  0  0  0  0  0  0  0  0  0
   44.0670    7.7020   41.8850 H   0  0  0  0  0  0  0  0  0  0  0  0
   42.5920    6.0340   42.1980 H   0  0  0  0  0  0  0  0  0  0  0  0
   43.7400    4.9440   42.9820 H   0  0  0  0  0  0  0  0  0  0  0  0
   41.6870    6.6980   44.1610 H   0  0  0  0  0  0  0  0  0  0  0  0
   42.7360    5.4990   44.8990 H   0  0  0  0  0  0  0  0  0  0  0  0
   46.1880    5.0050   44.3860 H   0  0  0  0  0  0  0  0  0  0  0  0
   48.3840    5.4030   45.7030 H   0  0  0  0  0  0  0  0  0  0  0  0
   48.9640    6.1960   44.1650 H   0  0  0  0  0  0  0  0  0  0  0  0
   48.1200    3.2690   44.0070 H   0  0  0  0  0  0  0  0  0  0  0  0
   49.4130    4.1240   43.1820 H   0  0  0  0  0  0  0  0  0  0  0  0
   49.8180    2.0460   46.6060 H   0  0  0  0  0  0  0  0  0  0  0  0
   48.3750    3.0280   46.5040 H   0  0  0  0  0  0  0  0  0  0  0  0
   49.6510    4.8990   47.5910 H   0  0  0  0  0  0  0  0  0  0  0  0
   49.9840    3.4060   48.5030 H   0  0  0  0  0  0  0  0  0  0  0  0
   51.0120    5.8060   46.2450 H   0  0  0  0  0  0  0  0  0  0  0  0
   52.6530    5.1820   45.9920 H   0  0  0  0  0  0  0  0  0  0  0  0
   51.9170    3.1270   45.0280 H   0  0  0  0  0  0  0  0  0  0  0  0
   51.3780    4.4760   44.0180 H   0  0  0  0  0  0  0  0  0  0  0  0
   44.1070   10.3170   47.6360 H   0  0  0  0  0  0  0  0  0  0  0  0
   43.4910   12.7390   43.4470 H   0  0  0  0  0  0  0  0  0  0  0  0
   45.9200   14.2130   45.0590 H   0  0  0  0  0  0  0  0  0  0  0  0
   44.2610   14.9170   45.1000 H   0  0  0  0  0  0  0  0  0  0  0  0
   45.8270   14.9920   47.3310 H   0  0  0  0  0  0  0  0  0  0  0  0
   44.0610   14.7740   47.3990 H   0  0  0  0  0  0  0  0  0  0  0  0
   44.6810   13.4080   49.9490 H   0  0  0  0  0  0  0  0  0  0  0  0
   45.2380   11.7530   50.3980 H   0  0  0  0  0  0  0  0  0  0  0  0
   46.1640   14.0050   51.5470 H   0  0  0  0  0  0  0  0  0  0  0  0
   47.3870   13.7940   50.1910 H   0  0  0  0  0  0  0  0  0  0  0  0
   47.1410   12.4760   51.3860 H   0  0  0  0  0  0  0  0  0  0  0  0
  1  2  2  0  0  0  0
  3  1  2  0  0  0  0
  4  1  1  0  0  0  0
  5  4  1  0  0  0  0
  5 35  1  0  0  0  0
  5 36  1  0  0  0  0
  6 37  1  6  0  0  0
  6  5  1  0  0  0  0
  7  8  1  0  0  0  0
  7  6  1  0  0  0  0
  8 41  1  0  0  0  0
  8  9  1  0  0  0  0
  9 43  1  0  0  0  0
  9  4  1  0  0  0  0
 10  6  1  0  0  0  0
 10 12  1  0  0  0  0
 11 10  2  0  0  0  0
 12 44  1  0  0  0  0
 12 13  1  0  0  0  0
 13 45  1  0  0  0  0
 14 13  1  0  0  0  0
 14 15  1  0  0  0  0
 15 16  1  0  0  0  0
 16 50  1  0  0  0  0
 16 49  1  0  0  0  0
 16 17  1  0  0  0  0
 17 51  1  0  0  0  0
 17 52  1  0  0  0  0
 18 17  1  0  0  0  0
 19 53  1  0  0  0  0
 19 18  1  0  0  0  0
 20 55  1  0  0  0  0
 20 15  1  0  0  0  0
 20 19  1  0  0  0  0
 21  1  1  0  0  0  0
 21 22  1  0  0  0  0
 22 57  1  0  0  0  0
 23 22  2  0  0  0  0
 23 30  1  0  0  0  0
 24 28  1  0  0  0  0
 24 23  1  0  0  0  0
 25 26  1  0  0  0  0
 25 24  2  0  0  0  0
 26 21  2  0  0  0  0
 27 26  1  0  0  0  0
 28 29  1  0  0  0  0
 29 61  1  0  0  0  0
 29 62  1  0  0  0  0
 29 30  1  0  0  0  0
 30 31  1  0  0  0  0
 31 33  1  0  0  0  0
 32 31  2  0  0  0  0
 33 63  1  0  0  0  0
 33 64  1  0  0  0  0
 33 34  1  0  0  0  0
 34 67  1  0  0  0  0
 34 65  1  0  0  0  0
 38  7  1  0  0  0  0
 39  7  1  0  0  0  0
 40  8  1  0  0  0  0
 42  9  1  0  0  0  0
 46 13  1  0  0  0  0
 47 14  1  0  0  0  0
 48 14  1  0  0  0  0
 54 19  1  0  0  0  0
 56 20  1  0  0  0  0
 58 25  1  0  0  0  0
 59 28  1  0  0  0  0
 60 28  1  0  0  0  0
 66 34  1  0  0  0  0
M  END
>  <Pose>
1

>  <Score>
-6.02

$$$$
