
 OpenBabel03172210433D

 49 52  0  0  1  0  0  0  0  0999 V2000
   34.1970   12.0180   45.9920 Cl  0  0  0  0  0  0  0  0  0  0  0  0
   35.9270   11.9730   45.6560 C   0  0  0  0  0  0  0  0  0  0  0  0
   36.6410   13.1310   45.4970 C   0  0  0  0  0  0  0  0  0  0  0  0
   37.9970   13.0810   45.2340 C   0  0  0  0  0  0  0  0  0  0  0  0
   38.6850   11.8920   45.1230 C   0  0  0  0  0  0  0  0  0  0  0  0
   37.9540   10.7340   45.2870 C   0  0  0  0  0  0  0  0  0  0  0  0
   36.5780   10.7750   45.5530 C   0  0  0  0  0  0  0  0  0  0  0  0
   40.0830   11.8440   44.8570 N   0  0  0  0  0  0  0  0  0  0  0  0
   41.1680   11.5420   45.7830 C   0  0  0  0  0  0  0  0  0  0  0  0
   42.2970   10.9980   44.9520 C   0  0  2  0  0  0  0  0  0  0  0  0
   42.0260   11.3840   43.5360 C   0  0  0  0  0  0  0  0  0  0  0  0
   40.7260   12.0920   43.5870 C   0  0  0  0  0  0  0  0  0  0  0  0
   40.1680   12.8290   42.7100 O   0  0  0  0  0  0  0  0  0  0  0  0
   42.6090    9.5820   45.1790 C   0  0  0  0  0  0  0  0  0  0  0  0
   42.8030    9.2200   46.3990 O   0  0  0  0  0  0  0  0  0  0  0  0
   42.7210    8.5780   44.2120 N   0  0  0  0  0  0  0  0  0  0  0  0
   41.9970    7.3270   44.3680 C   0  0  0  0  0  0  0  0  0  0  0  0
   42.9620    6.1450   44.3440 C   0  0  0  0  0  0  0  0  0  0  0  0
   44.0330    6.4350   43.4380 N   0  0  0  0  0  0  0  0  0  0  0  0
   43.7960    7.3490   42.3620 C   0  0  0  0  0  0  0  0  0  0  0  0
   43.5350    8.7150   43.0270 C   0  0  0  0  0  0  0  0  0  0  0  0
   45.3030    5.8410   43.6020 C   0  0  0  0  0  0  0  0  0  0  0  0
   46.5090    6.4720   43.5530 N   0  0  0  0  0  0  0  0  0  0  0  0
   47.4790    5.5720   43.7620 C   0  0  0  0  0  0  0  0  0  0  0  0
   46.8930    4.3420   43.9460 C   0  0  0  0  0  0  0  0  0  0  0  0
   45.5910    4.5470   43.8430 N   0  0  0  0  0  0  0  0  0  0  0  0
   46.7100    7.9060   43.3080 C   0  0  0  0  0  0  0  0  0  0  0  0
   36.1000   14.0690   45.5830 H   0  0  0  0  0  0  0  0  0  0  0  0
   38.5080   14.0300   45.1170 H   0  0  0  0  0  0  0  0  0  0  0  0
   38.4370    9.7930   45.2100 H   0  0  0  0  0  0  0  0  0  0  0  0
   36.0140    9.8600   45.6800 H   0  0  0  0  0  0  0  0  0  0  0  0
   40.8060   10.8680   46.5570 H   0  0  0  0  0  0  0  0  0  0  0  0
   41.4300   12.5200   46.2730 H   0  0  0  0  0  0  0  0  0  0  0  0
   43.1980   11.6180   45.2560 H   0  0  0  0  0  0  0  0  0  0  0  0
   42.7520   12.1520   43.1290 H   0  0  0  0  0  0  0  0  0  0  0  0
   42.0580   10.5410   42.8330 H   0  0  0  0  0  0  0  0  0  0  0  0
   41.3160    7.2340   43.4890 H   0  0  0  0  0  0  0  0  0  0  0  0
   41.3600    7.3100   45.2620 H   0  0  0  0  0  0  0  0  0  0  0  0
   42.4050    5.2770   43.9150 H   0  0  0  0  0  0  0  0  0  0  0  0
   43.3040    5.9470   45.3820 H   0  0  0  0  0  0  0  0  0  0  0  0
   44.6870    7.4960   41.7120 H   0  0  0  0  0  0  0  0  0  0  0  0
   42.8980    7.0420   41.7890 H   0  0  0  0  0  0  0  0  0  0  0  0
   43.0830    9.3590   42.2470 H   0  0  0  0  0  0  0  0  0  0  0  0
   44.5380    9.0360   43.3480 H   0  0  0  0  0  0  0  0  0  0  0  0
   48.5420    5.7760   43.7800 H   0  0  0  0  0  0  0  0  0  0  0  0
   47.3810    3.3810   44.1400 H   0  0  0  0  0  0  0  0  0  0  0  0
   47.2900    8.0280   42.3590 H   0  0  0  0  0  0  0  0  0  0  0  0
   45.7260    8.3840   43.1880 H   0  0  0  0  0  0  0  0  0  0  0  0
   47.3160    8.3320   44.1090 H   0  0  0  0  0  0  0  0  0  0  0  0
  2  1  1  0  0  0  0
  3 28  1  0  0  0  0
  3  2  2  0  0  0  0
  4  3  1  0  0  0  0
  5  4  2  0  0  0  0
  5  6  1  0  0  0  0
  6  7  2  0  0  0  0
  7  2  1  0  0  0  0
  7 31  1  0  0  0  0
  8  5  1  0  0  0  0
  8  9  1  0  0  0  0
  9 33  1  0  0  0  0
  9 32  1  0  0  0  0
 10 14  1  0  0  0  0
 10 34  1  1  0  0  0
 10  9  1  0  0  0  0
 11 12  1  0  0  0  0
 11 10  1  0  0  0  0
 12  8  1  0  0  0  0
 13 12  2  0  0  0  0
 14 15  2  0  0  0  0
 16 17  1  0  0  0  0
 16 14  1  0  0  0  0
 17 38  1  0  0  0  0
 18 17  1  0  0  0  0
 18 40  1  0  0  0  0
 19 22  1  0  0  0  0
 19 18  1  0  0  0  0
 20 21  1  0  0  0  0
 20 19  1  0  0  0  0
 21 44  1  0  0  0  0
 21 16  1  0  0  0  0
 22 26  2  0  0  0  0
 23 22  1  0  0  0  0
 23 24  1  0  0  0  0
 24 45  1  0  0  0  0
 24 25  2  0  0  0  0
 25 46  1  0  0  0  0
 26 25  1  0  0  0  0
 27 23  1  0  0  0  0
 27 49  1  0  0  0  0
 29  4  1  0  0  0  0
 30  6  1  0  0  0  0
 35 11  1  0  0  0  0
 36 11  1  0  0  0  0
 37 17  1  0  0  0  0
 39 18  1  0  0  0  0
 41 20  1  0  0  0  0
 42 20  1  0  0  0  0
 43 21  1  0  0  0  0
 47 27  1  0  0  0  0
 48 27  1  0  0  0  0
M  END
>  <Pose>
1

>  <Score>
-5.30

$$$$
