
 OpenBabel03172210433D

 35 38  0  0  1  0  0  0  0  0999 V2000
   46.8240    4.9210   42.0280 Cl  0  0  0  0  0  0  0  0  0  0  0  0
   45.8750    6.1550   42.8550 C   0  0  0  0  0  0  0  0  0  0  0  0
   46.0960    6.4300   44.1920 C   0  0  0  0  0  0  0  0  0  0  0  0
   45.3700    7.3890   44.8560 C   0  0  0  0  0  0  0  0  0  0  0  0
   44.3780    8.1230   44.1940 C   0  0  0  0  0  0  0  0  0  0  0  0
   44.1860    7.8220   42.8660 C   0  0  0  0  0  0  0  0  0  0  0  0
   44.8970    6.8680   42.1770 C   0  0  0  0  0  0  0  0  0  0  0  0
   43.6360    9.1200   44.8830 N   0  0  0  0  0  0  0  0  0  0  0  0
   43.6600   10.5450   44.7020 C   0  0  0  0  0  0  0  0  0  0  0  0
   44.5360   11.1400   44.0260 O   0  0  0  0  0  0  0  0  0  0  0  0
   42.5270   11.1850   45.4150 C   0  0  1  0  0  0  0  0  0  0  0  0
   41.5500   11.8610   44.5090 C   0  0  1  0  0  0  0  0  0  0  0  0
   41.5560   11.1080   43.1950 C   0  0  1  0  0  0  0  0  0  0  0  0
   40.9910    9.7540   43.6200 C   0  0  1  0  0  0  0  0  0  0  0  0
   40.5910    9.9050   45.0690 C   0  0  1  0  0  0  0  0  0  0  0  0
   41.7590    9.9930   46.0000 C   0  0  1  0  0  0  0  0  0  0  0  0
   42.6970    8.8480   45.9110 C   0  0  0  0  0  0  0  0  0  0  0  0
   42.6390    7.8280   46.6410 O   0  0  0  0  0  0  0  0  0  0  0  0
   40.1840   11.3960   45.0410 C   0  0  0  0  0  0  0  0  0  0  0  0
   39.8190    9.4630   42.9250 O   0  0  0  0  0  0  0  0  0  0  0  0
   40.6310   11.7020   42.3630 O   0  0  0  0  0  0  0  0  0  0  0  0
   46.8670    5.8550   44.6990 H   0  0  0  0  0  0  0  0  0  0  0  0
   45.5210    7.6200   45.8910 H   0  0  0  0  0  0  0  0  0  0  0  0
   43.4210    8.3730   42.3140 H   0  0  0  0  0  0  0  0  0  0  0  0
   44.7300    6.6440   41.1190 H   0  0  0  0  0  0  0  0  0  0  0  0
   42.8710   11.8290   46.2500 H   0  0  0  0  0  0  0  0  0  0  0  0
   41.6260   12.9300   44.4260 H   0  0  0  0  0  0  0  0  0  0  0  0
   42.5600   11.0150   42.7660 H   0  0  0  0  0  0  0  0  0  0  0  0
   41.6990    8.9510   43.4450 H   0  0  0  0  0  0  0  0  0  0  0  0
   39.7760    9.2640   45.3920 H   0  0  0  0  0  0  0  0  0  0  0  0
   41.3970   10.1910   47.0230 H   0  0  0  0  0  0  0  0  0  0  0  0
   39.9630   11.7790   46.0290 H   0  0  0  0  0  0  0  0  0  0  0  0
   39.4070   11.5420   44.2650 H   0  0  0  0  0  0  0  0  0  0  0  0
   39.7400    8.4630   42.8840 H   0  0  0  0  0  0  0  0  0  0  0  0
   39.7170   11.3430   42.4310 H   0  0  0  0  0  0  0  0  0  0  0  0
  1  2  1  0  0  0  0
  2  3  1  0  0  0  0
  3 22  1  0  0  0  0
  3  4  2  0  0  0  0
  4 23  1  0  0  0  0
  5  4  1  0  0  0  0
  5  8  1  0  0  0  0
  6  5  2  0  0  0  0
  7  2  2  0  0  0  0
  7  6  1  0  0  0  0
  8 17  1  0  0  0  0
  9  8  1  0  0  0  0
  9 11  1  0  0  0  0
 10  9  2  0  0  0  0
 11 16  1  0  0  0  0
 11 26  1  1  0  0  0
 12 27  1  6  0  0  0
 12 19  1  0  0  0  0
 12 11  1  0  0  0  0
 13 28  1  6  0  0  0
 13 14  1  0  0  0  0
 13 12  1  0  0  0  0
 14 29  1  6  0  0  0
 14 15  1  0  0  0  0
 15 30  1  1  0  0  0
 15 16  1  0  0  0  0
 16 31  1  1  0  0  0
 17 16  1  0  0  0  0
 17 18  2  0  0  0  0
 19 15  1  0  0  0  0
 19 32  1  0  0  0  0
 20 14  1  0  0  0  0
 21 35  1  0  0  0  0
 21 13  1  0  0  0  0
 24  6  1  0  0  0  0
 25  7  1  0  0  0  0
 33 19  1  0  0  0  0
 34 20  1  0  0  0  0
M  END
>  <Pose>
1

>  <Score>
-4.86

$$$$
