
 OpenBabel03172210433D

 41 44  0  0  1  0  0  0  0  0999 V2000
   43.2650   15.1840   47.1790 Cl  0  0  0  0  0  0  0  0  0  0  0  0
   42.9620   13.6060   46.4730 C   0  0  0  0  0  0  0  0  0  0  0  0
   41.7850   12.9280   46.7140 C   0  0  0  0  0  0  0  0  0  0  0  0
   41.5500   11.6780   46.1530 C   0  0  0  0  0  0  0  0  0  0  0  0
   42.4800   11.0710   45.3380 C   0  0  0  0  0  0  0  0  0  0  0  0
   43.6540   11.7510   45.0990 C   0  0  0  0  0  0  0  0  0  0  0  0
   43.8890   12.9950   45.6560 C   0  0  0  0  0  0  0  0  0  0  0  0
   42.2490    9.7700   44.7460 N   0  0  0  0  0  0  0  0  0  0  0  0
   41.4010    9.6280   43.6210 C   0  0  0  0  0  0  0  0  0  0  0  0
   40.8410   10.6350   43.1190 O   0  0  0  0  0  0  0  0  0  0  0  0
   41.1950    8.3160   43.0670 N   0  0  0  0  0  0  0  0  0  0  0  0
   41.8270    7.1760   43.6330 C   0  0  0  0  0  0  0  0  0  0  0  0
   41.3860    6.0300   43.3680 O   0  0  0  0  0  0  0  0  0  0  0  0
   42.9870    7.3580   44.5210 C   0  0  2  0  0  0  0  0  0  0  0  0
   42.8620    8.6120   45.2840 C   0  0  0  0  0  0  0  0  0  0  0  0
   43.3200    8.6750   46.4780 O   0  0  0  0  0  0  0  0  0  0  0  0
   44.2670    7.3580   43.7360 C   0  0  0  0  0  0  0  0  0  0  0  0
   44.4990    6.8340   42.5600 C   0  0  0  0  0  0  0  0  0  0  0  0
   45.9010    7.0790   42.1890 C   0  0  1  0  0  0  0  0  0  0  0  0
   46.3310    8.0950   43.1080 N   0  0  0  0  0  0  0  0  0  0  0  0
   45.4570    7.9720   44.2000 N   0  0  0  0  0  0  0  0  0  0  0  0
   46.6440    5.8170   42.4360 C   0  0  0  0  0  0  0  0  0  0  0  0
   46.9810    4.9950   41.3880 C   0  0  0  0  0  0  0  0  0  0  0  0
   47.6610    3.8360   41.6080 N   0  0  0  0  0  0  0  0  0  0  0  0
   48.0320    3.4390   42.8350 C   0  0  0  0  0  0  0  0  0  0  0  0
   47.7110    4.2390   43.9090 C   0  0  0  0  0  0  0  0  0  0  0  0
   47.0100    5.4360   43.7000 C   0  0  0  0  0  0  0  0  0  0  0  0
   41.0460   13.3880   47.3490 H   0  0  0  0  0  0  0  0  0  0  0  0
   40.6350   11.1360   46.3300 H   0  0  0  0  0  0  0  0  0  0  0  0
   44.4030   11.2800   44.4530 H   0  0  0  0  0  0  0  0  0  0  0  0
   44.8180   13.5410   45.4740 H   0  0  0  0  0  0  0  0  0  0  0  0
   40.5790    8.1650   42.2400 H   0  0  0  0  0  0  0  0  0  0  0  0
   43.1000    6.5230   45.2480 H   0  0  0  0  0  0  0  0  0  0  0  0
   43.7550    6.3100   41.9750 H   0  0  0  0  0  0  0  0  0  0  0  0
   46.0090    7.4020   41.1250 H   0  0  0  0  0  0  0  0  0  0  0  0
   46.3020    9.0340   42.7010 H   0  0  0  0  0  0  0  0  0  0  0  0
   45.7130    8.3020   45.1590 H   0  0  0  0  0  0  0  0  0  0  0  0
   46.6890    5.2970   40.3770 H   0  0  0  0  0  0  0  0  0  0  0  0
   48.5820    2.4990   42.9920 H   0  0  0  0  0  0  0  0  0  0  0  0
   48.0050    3.9300   44.8990 H   0  0  0  0  0  0  0  0  0  0  0  0
   46.7670    6.0450   44.5340 H   0  0  0  0  0  0  0  0  0  0  0  0
  2  3  1  0  0  0  0
  2  1  1  0  0  0  0
  3 28  1  0  0  0  0
  4 29  1  0  0  0  0
  4  3  2  0  0  0  0
  5  4  1  0  0  0  0
  6  5  2  0  0  0  0
  6  7  1  0  0  0  0
  7  2  2  0  0  0  0
  8 15  1  0  0  0  0
  8  5  1  0  0  0  0
  9  8  1  0  0  0  0
 10  9  2  0  0  0  0
 11  9  1  0  0  0  0
 11 12  1  0  0  0  0
 12 14  1  0  0  0  0
 13 12  2  0  0  0  0
 14 33  1  1  0  0  0
 14 15  1  0  0  0  0
 15 16  2  0  0  0  0
 17 21  1  0  0  0  0
 17 14  1  0  0  0  0
 18 17  2  0  0  0  0
 19 35  1  6  0  0  0
 19 22  1  0  0  0  0
 19 18  1  0  0  0  0
 19 20  1  0  0  0  0
 20 21  1  0  0  0  0
 21 37  1  0  0  0  0
 22 27  1  0  0  0  0
 23 24  1  0  0  0  0
 23 22  2  0  0  0  0
 24 25  2  0  0  0  0
 25 39  1  0  0  0  0
 25 26  1  0  0  0  0
 26 40  1  0  0  0  0
 27 26  2  0  0  0  0
 27 41  1  0  0  0  0
 30  6  1  0  0  0  0
 31  7  1  0  0  0  0
 32 11  1  0  0  0  0
 34 18  1  0  0  0  0
 36 20  1  0  0  0  0
 38 23  1  0  0  0  0
M  END
>  <Pose>
1

>  <Score>
-7.90

$$$$
