
 OpenBabel03172210433D

 55 59  0  0  1  0  0  0  0  0999 V2000
   52.5390    2.0440   44.6670 B   0  0  0  0  0  0  0  0  0  0  0  0
   50.9420    2.2500   43.6470 C   0  0  0  0  0  0  0  0  0  0  0  0
   49.8190    3.0030   43.9250 C   0  0  0  0  0  0  0  0  0  0  0  0
   48.9150    2.8590   42.9220 N   0  0  0  0  0  0  0  0  0  0  0  0
   49.4430    2.0480   42.0460 N   0  0  0  0  0  0  0  0  0  0  0  0
   50.6690    1.6410   42.4200 C   0  0  0  0  0  0  0  0  0  0  0  0
   47.6100    3.4650   42.8080 C   0  0  0  0  0  0  0  0  0  0  0  0
   47.3030    4.4050   43.9520 C   0  0  2  0  0  0  0  0  0  0  0  0
   46.6240    3.7020   45.0790 C   0  0  0  0  0  0  0  0  0  0  0  0
   46.5090    5.5580   43.4380 C   0  0  0  0  0  0  0  0  0  0  0  0
   46.6700    5.8590   42.2280 O   0  0  0  0  0  0  0  0  0  0  0  0
   45.6180    6.2870   44.2600 N   0  0  0  0  0  0  0  0  0  0  0  0
   45.3720    7.6370   44.1480 N   0  0  0  0  0  0  0  0  0  0  0  0
   44.3120    8.1260   43.3690 C   0  0  0  0  0  0  0  0  0  0  0  0
   44.2150    7.7270   42.1690 O   0  0  0  0  0  0  0  0  0  0  0  0
   43.2910    9.0830   43.8540 C   0  0  1  0  0  0  0  0  0  0  0  0
   43.9390   10.3800   44.2950 C   0  0  0  0  0  0  0  0  0  0  0  0
   42.9080   11.3500   44.7990 C   0  0  1  0  0  0  0  0  0  0  0  0
   41.9850   11.6740   43.6230 C   0  0  0  0  0  0  0  0  0  0  0  0
   41.3300   10.4200   43.1400 C   0  0  1  0  0  0  0  0  0  0  0  0
   42.3680    9.4140   42.7010 C   0  0  0  0  0  0  0  0  0  0  0  0
   40.5030    9.8320   44.2600 C   0  0  0  0  0  0  0  0  0  0  0  0
   41.4350    9.5140   45.4060 C   0  0  2  0  0  0  0  0  0  0  0  0
   42.0660   10.7900   45.9020 C   0  0  0  0  0  0  0  0  0  0  0  0
   42.4640    8.5010   44.9790 C   0  0  0  0  0  0  0  0  0  0  0  0
   43.6090   12.5550   45.1950 N   0  0  2  0  0  0  0  0  0  0  0  0
   44.7570   13.0510   44.7670 N   0  0  0  0  0  0  0  0  0  0  0  0
   45.0620   14.1620   45.3670 N   0  0  0  0  0  0  0  0  0  0  0  0
   44.0990   14.4350   46.2300 C   0  0  0  0  0  0  0  0  0  0  0  0
   43.1870   13.4290   46.1240 N   0  0  0  0  0  0  0  0  0  0  0  0
   49.6760    3.6100   44.7950 H   0  0  0  0  0  0  0  0  0  0  0  0
   51.3610    0.9780   41.9210 H   0  0  0  0  0  0  0  0  0  0  0  0
   46.8540    2.6620   42.8300 H   0  0  0  0  0  0  0  0  0  0  0  0
   47.4830    4.0160   41.8520 H   0  0  0  0  0  0  0  0  0  0  0  0
   48.2590    4.8260   44.3300 H   0  0  0  0  0  0  0  0  0  0  0  0
   47.2530    2.7990   45.3200 H   0  0  0  0  0  0  0  0  0  0  0  0
   46.6670    4.3220   46.0030 H   0  0  0  0  0  0  0  0  0  0  0  0
   45.6220    3.3290   44.8410 H   0  0  0  0  0  0  0  0  0  0  0  0
   45.1100    5.7410   45.0110 H   0  0  0  0  0  0  0  0  0  0  0  0
   45.9880    8.3170   44.6570 H   0  0  0  0  0  0  0  0  0  0  0  0
   44.7350   10.1820   45.0580 H   0  0  0  0  0  0  0  0  0  0  0  0
   44.3710   10.8400   43.3680 H   0  0  0  0  0  0  0  0  0  0  0  0
   41.2350   12.4220   43.8950 H   0  0  0  0  0  0  0  0  0  0  0  0
   42.6710   12.0260   42.8120 H   0  0  0  0  0  0  0  0  0  0  0  0
   40.6930   10.6400   42.2680 H   0  0  0  0  0  0  0  0  0  0  0  0
   41.8550    8.5150   42.2980 H   0  0  0  0  0  0  0  0  0  0  0  0
   42.9880    9.8970   41.9120 H   0  0  0  0  0  0  0  0  0  0  0  0
   39.7890   10.6290   44.5870 H   0  0  0  0  0  0  0  0  0  0  0  0
   39.9870    8.9430   43.8840 H   0  0  0  0  0  0  0  0  0  0  0  0
   40.7970    9.0420   46.2090 H   0  0  0  0  0  0  0  0  0  0  0  0
   42.6470   10.5970   46.8190 H   0  0  0  0  0  0  0  0  0  0  0  0
   41.2500   11.5210   46.0890 H   0  0  0  0  0  0  0  0  0  0  0  0
   41.9670    7.6090   44.5910 H   0  0  0  0  0  0  0  0  0  0  0  0
   43.1260    8.3070   45.8430 H   0  0  0  0  0  0  0  0  0  0  0  0
   44.0630   15.2940   46.8820 H   0  0  0  0  0  0  0  0  0  0  0  0
  2  3  2  0  0  0  0
  2  1  1  0  0  0  0
  3 31  1  0  0  0  0
  4  3  1  0  0  0  0
  5  6  2  0  0  0  0
  5  4  1  0  0  0  0
  6  2  1  0  0  0  0
  7 33  1  0  0  0  0
  7  4  1  0  0  0  0
  7  8  1  0  0  0  0
  8 35  1  1  0  0  0
  8  9  1  0  0  0  0
  9 36  1  0  0  0  0
  9 37  1  0  0  0  0
 10  8  1  0  0  0  0
 10 12  1  0  0  0  0
 11 10  2  0  0  0  0
 12 39  1  0  0  0  0
 13 12  1  0  0  0  0
 13 40  1  0  0  0  0
 14 13  1  0  0  0  0
 15 14  2  0  0  0  0
 16 14  1  6  0  0  0
 16 17  1  0  0  0  0
 16 25  1  0  0  0  0
 17 18  1  0  0  0  0
 17 41  1  0  0  0  0
 18 19  1  6  0  0  0
 18 26  1  0  0  0  0
 18 24  1  0  0  0  0
 19 43  1  0  0  0  0
 20 45  1  6  0  0  0
 20 19  1  0  0  0  0
 20 22  1  0  0  0  0
 21 20  1  0  0  0  0
 21 16  1  0  0  0  0
 22 48  1  0  0  0  0
 22 23  1  0  0  0  0
 23 24  1  0  0  0  0
 23 50  1  1  0  0  0
 24 52  1  0  0  0  0
 24 51  1  0  0  0  0
 25 23  1  0  0  0  0
 25 54  1  0  0  0  0
 26 27  1  1  0  0  0
 26 30  1  0  0  0  0
 27 28  1  0  0  0  0
 28 29  2  0  0  0  0
 29 55  1  0  0  0  0
 30 29  1  0  0  0  0
 32  6  1  0  0  0  0
 34  7  1  0  0  0  0
 38  9  1  0  0  0  0
 42 17  1  0  0  0  0
 44 19  1  0  0  0  0
 46 21  1  0  0  0  0
 47 21  1  0  0  0  0
 49 22  1  0  0  0  0
 53 25  1  0  0  0  0
M  END
>  <Pose>
1

>  <Score>
-6.15

$$$$
