
 OpenBabel03172210433D

 52 55  0  0  1  0  0  0  0  0999 V2000
   43.5980    9.9180   43.3810 Cl  0  0  0  0  0  0  0  0  0  0  0  0
   44.4220    8.3820   43.4390 C   0  0  0  0  0  0  0  0  0  0  0  0
   43.9560    7.2870   44.1230 C   0  0  0  0  0  0  0  0  0  0  0  0
   44.6440    6.0990   44.1360 C   0  0  0  0  0  0  0  0  0  0  0  0
   45.8560    5.9510   43.4500 C   0  0  0  0  0  0  0  0  0  0  0  0
   46.3200    7.0380   42.7700 C   0  0  0  0  0  0  0  0  0  0  0  0
   45.6230    8.2250   42.7630 C   0  0  0  0  0  0  0  0  0  0  0  0
   46.5290    4.6720   43.4990 C   0  0  0  0  0  0  0  0  0  0  0  0
   46.0480    3.7490   44.2360 O   0  0  0  0  0  0  0  0  0  0  0  0
   47.7580    4.3560   42.7400 C   0  0  0  0  0  0  0  0  0  0  0  0
   48.7840    3.9200   43.6930 N   0  0  0  0  0  0  0  0  0  0  0  0
   49.5730    2.8600   43.7010 C   0  0  2  0  0  0  0  0  0  0  0  0
   50.3840    2.8660   44.7930 N   0  0  0  0  0  0  0  0  0  0  0  0
   50.1120    3.9480   45.4890 C   0  0  0  0  0  0  0  0  0  0  0  0
   49.0890    4.6180   44.7850 C   0  0  0  0  0  0  0  0  0  0  0  0
   50.6680    4.4380   46.7540 C   0  0  0  0  0  0  0  0  0  0  0  0
   51.6950    5.3140   46.8920 C   0  0  0  0  0  0  0  0  0  0  0  0
   52.2240    5.6860   48.1270 C   0  0  0  0  0  0  0  0  0  0  0  0
   51.7100    5.1690   49.2840 C   0  0  0  0  0  0  0  0  0  0  0  0
   50.6670    4.2800   49.1790 C   0  0  0  0  0  0  0  0  0  0  0  0
   50.1580    3.9220   47.9500 C   0  0  0  0  0  0  0  0  0  0  0  0
   52.2240    5.5260   50.5430 O   0  0  0  0  0  0  0  0  0  0  0  0
   52.5080    6.8530   50.8960 C   0  0  0  0  0  0  0  0  0  0  0  0
   51.3160    1.8180   45.1010 C   0  0  0  0  0  0  0  0  0  0  0  0
   52.5330    1.9010   44.1820 C   0  0  0  0  0  0  0  0  0  0  0  0
   51.9720    2.3630   42.8330 C   0  0  0  0  0  0  0  0  0  0  0  0
   50.9850    1.3300   42.3640 C   0  0  0  0  0  0  0  0  0  0  0  0
   49.5550    1.8320   42.6160 C   0  0  0  0  0  0  0  0  0  0  0  0
   43.0210    7.3650   44.6650 H   0  0  0  0  0  0  0  0  0  0  0  0
   44.2370    5.2470   44.6950 H   0  0  0  0  0  0  0  0  0  0  0  0
   47.2410    6.9950   42.2240 H   0  0  0  0  0  0  0  0  0  0  0  0
   46.0300    9.0700   42.2050 H   0  0  0  0  0  0  0  0  0  0  0  0
   47.4880    3.4780   42.0840 H   0  0  0  0  0  0  0  0  0  0  0  0
   48.1070    5.1780   42.1150 H   0  0  0  0  0  0  0  0  0  0  0  0
   48.6420    5.5600   45.1120 H   0  0  0  0  0  0  0  0  0  0  0  0
   52.1140    5.7840   46.0430 H   0  0  0  0  0  0  0  0  0  0  0  0
   53.0500    6.3910   48.1920 H   0  0  0  0  0  0  0  0  0  0  0  0
   50.2650    3.8750   50.0940 H   0  0  0  0  0  0  0  0  0  0  0  0
   49.3400    3.2200   47.8790 H   0  0  0  0  0  0  0  0  0  0  0  0
   51.5570    7.3750   51.1400 H   0  0  0  0  0  0  0  0  0  0  0  0
   53.2440    6.9090   51.7350 H   0  0  0  0  0  0  0  0  0  0  0  0
   52.9830    7.4370   50.0540 H   0  0  0  0  0  0  0  0  0  0  0  0
   51.5000    1.5870   46.1270 H   0  0  0  0  0  0  0  0  0  0  0  0
   50.8090    0.8440   44.7160 H   0  0  0  0  0  0  0  0  0  0  0  0
   53.2560    2.6130   44.5910 H   0  0  0  0  0  0  0  0  0  0  0  0
   53.0030    0.9330   44.0080 H   0  0  0  0  0  0  0  0  0  0  0  0
   51.4300    3.3340   42.9980 H   0  0  0  0  0  0  0  0  0  0  0  0
   52.7680    2.5870   42.1100 H   0  0  0  0  0  0  0  0  0  0  0  0
   51.1500    1.2060   41.2700 H   0  0  0  0  0  0  0  0  0  0  0  0
   51.1520    0.3240   42.7950 H   0  0  0  0  0  0  0  0  0  0  0  0
   48.9290    0.9920   43.0140 H   0  0  0  0  0  0  0  0  0  0  0  0
   49.0750    2.1900   41.6910 H   0  0  0  0  0  0  0  0  0  0  0  0
  1  2  1  0  0  0  0
  2  3  1  0  0  0  0
  3  4  2  0  0  0  0
  3 29  1  0  0  0  0
  4 30  1  0  0  0  0
  5  8  1  0  0  0  0
  5  4  1  0  0  0  0
  6  5  2  0  0  0  0
  7  6  1  0  0  0  0
  7  2  2  0  0  0  0
  8  9  2  0  0  0  0
 10  8  1  0  0  0  0
 10 11  1  0  0  0  0
 11 12  1  0  0  0  0
 11 15  1  0  0  0  0
 12 28  1  6  0  0  0
 12 13  1  0  0  0  0
 13 24  1  0  0  0  0
 13 14  1  0  0  0  0
 14 16  1  0  0  0  0
 15 35  1  0  0  0  0
 15 14  2  0  0  0  0
 16 17  2  0  0  0  0
 16 21  1  0  0  0  0
 17 18  1  0  0  0  0
 18 37  1  0  0  0  0
 18 19  2  0  0  0  0
 19 22  1  0  0  0  0
 20 19  1  0  0  0  0
 20 38  1  0  0  0  0
 21 20  2  0  0  0  0
 22 23  1  0  0  0  0
 23 40  1  0  0  0  0
 23 41  1  0  0  0  0
 24 43  1  0  0  0  0
 25 45  1  0  0  0  0
 25 24  1  0  0  0  0
 26 47  1  0  0  0  0
 26 25  1  0  0  0  0
 27 28  1  0  0  0  0
 27 50  1  0  0  0  0
 27 26  1  0  0  0  0
 28 51  1  0  0  0  0
 31  6  1  0  0  0  0
 32  7  1  0  0  0  0
 33 10  1  0  0  0  0
 34 10  1  0  0  0  0
 36 17  1  0  0  0  0
 39 21  1  0  0  0  0
 42 23  1  0  0  0  0
 44 24  1  0  0  0  0
 46 25  1  0  0  0  0
 48 26  1  0  0  0  0
 49 27  1  0  0  0  0
 52 28  1  0  0  0  0
M  END
>  <Pose>
1

>  <Score>
-5.56

$$$$
