
 OpenBabel03172210433D

 48 51  0  0  1  0  0  0  0  0999 V2000
   40.6070    9.6430   45.6810 Cl  0  0  0  0  0  0  0  0  0  0  0  0
   40.0060   11.0960   44.8880 C   0  0  0  0  0  0  0  0  0  0  0  0
   40.6650   11.5290   43.7630 C   0  0  0  0  0  0  0  0  0  0  0  0
   40.1680   12.6760   43.1640 C   0  0  0  0  0  0  0  0  0  0  0  0
   39.0980   13.3000   43.6860 N   0  0  0  0  0  0  0  0  0  0  0  0
   38.4550   12.8930   44.7680 N   0  0  0  0  0  0  0  0  0  0  0  0
   38.9120   11.7840   45.3750 C   0  0  0  0  0  0  0  0  0  0  0  0
   38.3470   11.3350   46.4130 O   0  0  0  0  0  0  0  0  0  0  0  0
   37.3160   13.6040   45.2780 C   0  0  0  0  0  0  0  0  0  0  0  0
   36.1870   13.7570   44.5000 C   0  0  0  0  0  0  0  0  0  0  0  0
   35.0710   14.4460   44.9830 C   0  0  0  0  0  0  0  0  0  0  0  0
   35.0830   14.9850   46.2450 C   0  0  0  0  0  0  0  0  0  0  0  0
   36.2000   14.8420   47.0290 C   0  0  0  0  0  0  0  0  0  0  0  0
   37.2880   14.1610   46.5400 C   0  0  0  0  0  0  0  0  0  0  0  0
   41.7820   10.8130   43.2820 N   0  0  0  0  0  0  0  0  0  0  0  0
   41.6310    9.6140   42.4660 C   0  0  0  0  0  0  0  0  0  0  0  0
   42.1460    8.4640   43.3540 C   0  0  0  0  0  0  0  0  0  0  0  0
   43.4540    8.7630   43.8460 N   0  0  0  0  0  0  0  0  0  0  0  0
   44.0870   10.0060   43.3560 C   0  0  0  0  0  0  0  0  0  0  0  0
   43.1590   11.1890   43.5460 C   0  0  0  0  0  0  0  0  0  0  0  0
   44.1590    7.9370   44.7600 C   0  0  0  0  0  0  0  0  0  0  0  0
   44.1900    8.2010   46.0000 O   0  0  0  0  0  0  0  0  0  0  0  0
   44.8940    6.7310   44.3430 C   0  0  1  0  0  0  0  0  0  0  0  0
   44.6720    6.4490   43.0300 O   0  0  0  0  0  0  0  0  0  0  0  0
   45.8150    5.8550   42.5110 C   0  0  0  0  0  0  0  0  0  0  0  0
   46.9030    6.7240   43.1260 C   0  0  0  0  0  0  0  0  0  0  0  0
   46.3870    6.8720   44.5420 C   0  0  0  0  0  0  0  0  0  0  0  0
   40.6810   13.0250   42.2760 H   0  0  0  0  0  0  0  0  0  0  0  0
   36.1070   13.3610   43.5030 H   0  0  0  0  0  0  0  0  0  0  0  0
   34.1730   14.5780   44.3900 H   0  0  0  0  0  0  0  0  0  0  0  0
   34.2330   15.5230   46.6430 H   0  0  0  0  0  0  0  0  0  0  0  0
   36.2540   15.2460   48.0200 H   0  0  0  0  0  0  0  0  0  0  0  0
   38.1590   14.0520   47.1560 H   0  0  0  0  0  0  0  0  0  0  0  0
   42.2930    9.6900   41.5880 H   0  0  0  0  0  0  0  0  0  0  0  0
   40.5950    9.3810   42.2340 H   0  0  0  0  0  0  0  0  0  0  0  0
   41.4330    8.4580   44.2090 H   0  0  0  0  0  0  0  0  0  0  0  0
   42.0610    7.5180   42.7810 H   0  0  0  0  0  0  0  0  0  0  0  0
   44.2140    9.8600   42.2660 H   0  0  0  0  0  0  0  0  0  0  0  0
   45.0530   10.1480   43.8380 H   0  0  0  0  0  0  0  0  0  0  0  0
   43.4780   11.9970   42.8480 H   0  0  0  0  0  0  0  0  0  0  0  0
   43.2960   11.5860   44.5710 H   0  0  0  0  0  0  0  0  0  0  0  0
   44.5640    5.9220   45.0360 H   0  0  0  0  0  0  0  0  0  0  0  0
   45.9200    4.7980   42.8160 H   0  0  0  0  0  0  0  0  0  0  0  0
   45.8580    5.9310   41.4180 H   0  0  0  0  0  0  0  0  0  0  0  0
   46.8900    7.7140   42.6510 H   0  0  0  0  0  0  0  0  0  0  0  0
   47.8840    6.2170   43.0940 H   0  0  0  0  0  0  0  0  0  0  0  0
   46.6740    7.8420   44.9910 H   0  0  0  0  0  0  0  0  0  0  0  0
   46.7980    6.0130   45.1100 H   0  0  0  0  0  0  0  0  0  0  0  0
  2  7  1  0  0  0  0
  2  1  1  0  0  0  0
  3  2  2  0  0  0  0
  4  5  2  0  0  0  0
  4  3  1  0  0  0  0
  5  6  1  0  0  0  0
  6  9  1  0  0  0  0
  6  7  1  0  0  0  0
  7  8  2  0  0  0  0
  9 14  1  0  0  0  0
 10 11  1  0  0  0  0
 10  9  2  0  0  0  0
 11 12  2  0  0  0  0
 12 31  1  0  0  0  0
 12 13  1  0  0  0  0
 13 32  1  0  0  0  0
 14 13  2  0  0  0  0
 14 33  1  0  0  0  0
 15 20  1  0  0  0  0
 15  3  1  0  0  0  0
 16 15  1  0  0  0  0
 16 17  1  0  0  0  0
 17 18  1  0  0  0  0
 17 36  1  0  0  0  0
 18 21  1  0  0  0  0
 19 20  1  0  0  0  0
 19 39  1  0  0  0  0
 19 18  1  0  0  0  0
 20 41  1  0  0  0  0
 21 22  2  0  0  0  0
 23 27  1  0  0  0  0
 23 21  1  0  0  0  0
 23 42  1  1  0  0  0
 24 23  1  0  0  0  0
 25 43  1  0  0  0  0
 25 24  1  0  0  0  0
 25 26  1  0  0  0  0
 26 27  1  0  0  0  0
 27 47  1  0  0  0  0
 27 48  1  0  0  0  0
 28  4  1  0  0  0  0
 29 10  1  0  0  0  0
 30 11  1  0  0  0  0
 34 16  1  0  0  0  0
 35 16  1  0  0  0  0
 37 17  1  0  0  0  0
 38 19  1  0  0  0  0
 40 20  1  0  0  0  0
 44 25  1  0  0  0  0
 45 26  1  0  0  0  0
 46 26  1  0  0  0  0
M  END
>  <Pose>
1

>  <Score>
-5.00

$$$$
