
 OpenBabel03172210433D

 53 56  0  0  0  0  0  0  0  0999 V2000
   44.5360    8.5900   50.2410 Cl  0  0  0  0  0  0  0  0  0  0  0  0
   43.2710    8.8690   49.0490 C   0  0  0  0  0  0  0  0  0  0  0  0
   43.6760    9.2340   47.7670 C   0  0  0  0  0  0  0  0  0  0  0  0
   42.6980    9.4560   46.8230 C   0  0  0  0  0  0  0  0  0  0  0  0
   41.3570    9.3150   47.1560 C   0  0  0  0  0  0  0  0  0  0  0  0
   40.9620    8.9500   48.4370 C   0  0  0  0  0  0  0  0  0  0  0  0
   41.9450    8.7290   49.3850 C   0  0  0  0  0  0  0  0  0  0  0  0
   40.3180    9.5200   46.2650 O   0  0  0  0  0  0  0  0  0  0  0  0
   40.2490   10.3540   45.1410 C   0  0  0  0  0  0  0  0  0  0  0  0
   41.2310   10.0800   44.0620 C   0  0  0  0  0  0  0  0  0  0  0  0
   42.4290    9.4020   44.4390 N   0  0  0  0  0  0  0  0  0  0  0  0
   43.3200    9.8310   45.5250 C   0  0  0  0  0  0  0  0  0  0  0  0
   42.8110    8.2330   43.7260 C   0  0  0  0  0  0  0  0  0  0  0  0
   42.1530    7.1910   43.9520 O   0  0  0  0  0  0  0  0  0  0  0  0
   43.9060    8.2230   42.7690 C   0  0  0  0  0  0  0  0  0  0  0  0
   45.1290    7.4750   43.1120 C   0  0  0  0  0  0  0  0  0  0  0  0
   45.0530    6.0290   43.3760 C   0  0  0  0  0  0  0  0  0  0  0  0
   45.9740    5.1400   42.7720 N   0  0  0  0  0  0  0  0  0  0  0  0
   46.2700    5.0730   41.3880 C   0  0  0  0  0  0  0  0  0  0  0  0
   45.7960    5.7730   40.4450 O   0  0  0  0  0  0  0  0  0  0  0  0
   47.2320    4.0470   41.2170 N   0  0  0  0  0  0  0  0  0  0  0  0
   47.8140    3.7280   42.5190 C   0  0  0  0  0  0  0  0  0  0  0  0
   46.7460    4.1640   43.4440 C   0  0  0  0  0  0  0  0  0  0  0  0
   46.5750    3.7190   44.6350 O   0  0  0  0  0  0  0  0  0  0  0  0
   38.8290   10.2420   44.5550 C   0  0  0  0  0  0  0  0  0  0  0  0
   37.8780   10.4540   45.7020 C   0  0  0  0  0  0  0  0  0  0  0  0
   38.5240   10.8150   46.8710 O   0  0  0  0  0  0  0  0  0  0  0  0
   39.2990   11.9520   46.7240 C   0  0  0  0  0  0  0  0  0  0  0  0
   40.3190   11.8150   45.6140 C   0  0  0  0  0  0  0  0  0  0  0  0
   44.7250    9.3300   47.5550 H   0  0  0  0  0  0  0  0  0  0  0  0
   39.9270    8.8540   48.6570 H   0  0  0  0  0  0  0  0  0  0  0  0
   41.6640    8.4400   50.4010 H   0  0  0  0  0  0  0  0  0  0  0  0
   41.5530   11.0800   43.6450 H   0  0  0  0  0  0  0  0  0  0  0  0
   40.7250    9.5850   43.1850 H   0  0  0  0  0  0  0  0  0  0  0  0
   44.3410    9.4730   45.4120 H   0  0  0  0  0  0  0  0  0  0  0  0
   43.3880   10.9520   45.5360 H   0  0  0  0  0  0  0  0  0  0  0  0
   44.2210    9.2490   42.4490 H   0  0  0  0  0  0  0  0  0  0  0  0
   43.5050    7.7750   41.8090 H   0  0  0  0  0  0  0  0  0  0  0  0
   45.5380    7.9500   44.0660 H   0  0  0  0  0  0  0  0  0  0  0  0
   45.9650    7.7240   42.3770 H   0  0  0  0  0  0  0  0  0  0  0  0
   45.0620    5.9200   44.5160 H   0  0  0  0  0  0  0  0  0  0  0  0
   44.0160    5.6090   43.1400 H   0  0  0  0  0  0  0  0  0  0  0  0
   47.5080    3.5740   40.3340 H   0  0  0  0  0  0  0  0  0  0  0  0
   48.7060    4.3510   42.7140 H   0  0  0  0  0  0  0  0  0  0  0  0
   48.0150    2.6420   42.6130 H   0  0  0  0  0  0  0  0  0  0  0  0
   38.6880    9.2920   44.0340 H   0  0  0  0  0  0  0  0  0  0  0  0
   38.7430   11.0890   43.8410 H   0  0  0  0  0  0  0  0  0  0  0  0
   37.0860   11.2050   45.4670 H   0  0  0  0  0  0  0  0  0  0  0  0
   37.3550    9.4930   45.8850 H   0  0  0  0  0  0  0  0  0  0  0  0
   38.6990   12.8840   46.6170 H   0  0  0  0  0  0  0  0  0  0  0  0
   39.8700   12.0770   47.6880 H   0  0  0  0  0  0  0  0  0  0  0  0
   39.9570   12.4510   44.7660 H   0  0  0  0  0  0  0  0  0  0  0  0
   41.3230   12.1060   45.9180 H   0  0  0  0  0  0  0  0  0  0  0  0
  2  7  1  0  0  0  0
  2  1  1  0  0  0  0
  3  2  2  0  0  0  0
  4  5  2  0  0  0  0
  4  3  1  0  0  0  0
  5  6  1  0  0  0  0
  6 31  1  0  0  0  0
  6  7  2  0  0  0  0
  7 32  1  0  0  0  0
  8  5  1  0  0  0  0
  9 29  1  0  0  0  0
  9  8  1  0  0  0  0
 10 11  1  0  0  0  0
 10  9  1  0  0  0  0
 11 12  1  0  0  0  0
 12 36  1  0  0  0  0
 12  4  1  0  0  0  0
 13 14  2  0  0  0  0
 13 11  1  0  0  0  0
 15 16  1  0  0  0  0
 15 13  1  0  0  0  0
 16 17  1  0  0  0  0
 16 39  1  0  0  0  0
 17 41  1  0  0  0  0
 18 17  1  0  0  0  0
 18 23  1  0  0  0  0
 19 18  1  0  0  0  0
 20 19  2  0  0  0  0
 21 19  1  0  0  0  0
 21 22  1  0  0  0  0
 22 45  1  0  0  0  0
 22 44  1  0  0  0  0
 22 23  1  0  0  0  0
 23 24  2  0  0  0  0
 25  9  1  0  0  0  0
 25 26  1  0  0  0  0
 26 49  1  0  0  0  0
 26 27  1  0  0  0  0
 28 27  1  0  0  0  0
 28 51  1  0  0  0  0
 29 53  1  0  0  0  0
 29 28  1  0  0  0  0
 30  3  1  0  0  0  0
 33 10  1  0  0  0  0
 34 10  1  0  0  0  0
 35 12  1  0  0  0  0
 37 15  1  0  0  0  0
 38 15  1  0  0  0  0
 40 16  1  0  0  0  0
 42 17  1  0  0  0  0
 43 21  1  0  0  0  0
 46 25  1  0  0  0  0
 47 25  1  0  0  0  0
 48 26  1  0  0  0  0
 50 28  1  0  0  0  0
 52 29  1  0  0  0  0
M  END
>  <Pose>
1

>  <Score>
-5.97

$$$$
