
 OpenBabel03172210433D

 55 58  0  0  1  0  0  0  0  0999 V2000
   44.6410   13.3120   47.9160 B   0  0  0  0  0  0  0  0  0  0  0  0
   44.2500   12.1000   46.4900 C   0  0  0  0  0  0  0  0  0  0  0  0
   43.9480   10.8080   46.8140 C   0  0  0  0  0  0  0  0  0  0  0  0
   43.6640    9.9150   45.8230 C   0  0  0  0  0  0  0  0  0  0  0  0
   43.6590   10.2310   44.4780 C   0  0  0  0  0  0  0  0  0  0  0  0
   43.9660   11.5410   44.1790 C   0  0  0  0  0  0  0  0  0  0  0  0
   44.2610   12.4770   45.1690 C   0  0  0  0  0  0  0  0  0  0  0  0
   43.3470    9.2000   43.5030 C   0  0  2  0  0  0  0  0  0  0  0  0
   42.0430    8.6190   43.6240 N   0  0  0  0  0  0  0  0  0  0  0  0
   42.1330    7.2760   44.0730 C   0  0  0  0  0  0  0  0  0  0  0  0
   41.2430    6.4870   44.4720 O   0  0  0  0  0  0  0  0  0  0  0  0
   43.5550    6.8630   44.0110 C   0  0  0  0  0  0  0  0  0  0  0  0
   44.0290    5.7430   44.3280 O   0  0  0  0  0  0  0  0  0  0  0  0
   44.2620    8.0260   43.5100 C   0  0  0  0  0  0  0  0  0  0  0  0
   45.5510    7.9910   43.1470 C   0  0  0  0  0  0  0  0  0  0  0  0
   46.0630    9.2230   42.7200 O   0  0  0  0  0  0  0  0  0  0  0  0
   46.3640    6.7820   43.1810 C   0  0  0  0  0  0  0  0  0  0  0  0
   47.2110    6.3580   44.0560 O   0  0  0  0  0  0  0  0  0  0  0  0
   47.7700    5.2220   43.7640 C   0  0  0  0  0  0  0  0  0  0  0  0
   47.2560    4.8010   42.5470 C   0  0  0  0  0  0  0  0  0  0  0  0
   46.3620    5.8140   42.1960 C   0  0  0  0  0  0  0  0  0  0  0  0
   47.6830    3.6150   42.0000 C   0  0  0  0  0  0  0  0  0  0  0  0
   48.6150    2.8350   42.6450 C   0  0  0  0  0  0  0  0  0  0  0  0
   49.1350    3.2490   43.8650 C   0  0  0  0  0  0  0  0  0  0  0  0
   48.7050    4.4230   44.3980 C   0  0  0  0  0  0  0  0  0  0  0  0
   49.2010    4.8610   45.6080 O   0  0  0  0  0  0  0  0  0  0  0  0
   49.4950    4.0170   46.7130 C   0  0  0  0  0  0  0  0  0  0  0  0
   40.7950    9.2740   43.3410 C   0  0  0  0  0  0  0  0  0  0  0  0
   40.9730   10.7750   43.1990 C   0  0  0  0  0  0  0  0  0  0  0  0
   39.8560   11.5270   43.6550 N   0  0  0  0  0  4  0  0  0  0  0  0
   39.3340   11.1590   44.9360 C   0  0  0  0  0  0  0  0  0  0  0  0
   40.1340   12.9560   43.6060 C   0  0  0  0  0  0  0  0  0  0  0  0
   43.9300   10.4740   47.8580 H   0  0  0  0  0  0  0  0  0  0  0  0
   43.4300    8.8870   46.1330 H   0  0  0  0  0  0  0  0  0  0  0  0
   43.9790   11.8390   43.1600 H   0  0  0  0  0  0  0  0  0  0  0  0
   44.4950   13.4860   44.9070 H   0  0  0  0  0  0  0  0  0  0  0  0
   43.3440    9.6840   42.4770 H   0  0  0  0  0  0  0  0  0  0  0  0
   45.7820    5.7950   41.2840 H   0  0  0  0  0  0  0  0  0  0  0  0
   47.2900    3.2830   41.0540 H   0  0  0  0  0  0  0  0  0  0  0  0
   48.9770    1.9030   42.2510 H   0  0  0  0  0  0  0  0  0  0  0  0
   49.8770    2.6030   44.3570 H   0  0  0  0  0  0  0  0  0  0  0  0
   50.3090    4.5140   47.3070 H   0  0  0  0  0  0  0  0  0  0  0  0
   48.5730    3.9300   47.3020 H   0  0  0  0  0  0  0  0  0  0  0  0
   49.8670    3.0300   46.4290 H   0  0  0  0  0  0  0  0  0  0  0  0
   40.0180    9.0420   44.0950 H   0  0  0  0  0  0  0  0  0  0  0  0
   40.3930    8.9090   42.3710 H   0  0  0  0  0  0  0  0  0  0  0  0
   41.2070   11.0040   42.1260 H   0  0  0  0  0  0  0  0  0  0  0  0
   41.8790   11.1290   43.7540 H   0  0  0  0  0  0  0  0  0  0  0  0
   39.0660   11.3690   42.9600 H   0  0  0  0  0  0  0  0  0  0  0  0
   38.8540   10.1590   44.8640 H   0  0  0  0  0  0  0  0  0  0  0  0
   40.0500   11.2380   45.7630 H   0  0  0  0  0  0  0  0  0  0  0  0
   38.5080   11.8820   45.1620 H   0  0  0  0  0  0  0  0  0  0  0  0
   40.6790   13.2560   44.5110 H   0  0  0  0  0  0  0  0  0  0  0  0
   40.7920   13.1880   42.7470 H   0  0  0  0  0  0  0  0  0  0  0  0
   39.1700   13.4900   43.5170 H   0  0  0  0  0  0  0  0  0  0  0  0
  2  3  1  0  0  0  0
  2  1  1  0  0  0  0
  3 33  1  0  0  0  0
  4 34  1  0  0  0  0
  4  3  2  0  0  0  0
  5  4  1  0  0  0  0
  6  5  2  0  0  0  0
  6  7  1  0  0  0  0
  7  2  2  0  0  0  0
  8 37  1  6  0  0  0
  8 14  1  0  0  0  0
  8  9  1  0  0  0  0
  8  5  1  0  0  0  0
  9 10  1  0  0  0  0
 10 11  2  0  0  0  0
 12 10  1  0  0  0  0
 12 13  2  0  0  0  0
 14 12  1  0  0  0  0
 15 17  1  0  0  0  0
 15 14  2  0  0  0  0
 16 15  1  0  0  0  0
 17 18  1  0  0  0  0
 19 18  1  0  0  0  0
 19 25  1  0  0  0  0
 20 19  2  0  0  0  0
 21 20  1  0  0  0  0
 21 17  2  0  0  0  0
 22 20  1  0  0  0  0
 22 23  2  0  0  0  0
 23 24  1  0  0  0  0
 24 41  1  0  0  0  0
 24 25  2  0  0  0  0
 25 26  1  0  0  0  0
 26 27  1  0  0  0  0
 27 43  1  0  0  0  0
 27 42  1  0  0  0  0
 28  9  1  0  0  0  0
 28 45  1  0  0  0  0
 29 28  1  0  0  0  0
 29 30  1  0  0  0  0
 29 48  1  0  0  0  0
 30 31  1  0  0  0  0
 31 52  1  0  0  0  0
 31 51  1  0  0  0  0
 32 30  1  0  0  0  0
 32 53  1  0  0  0  0
 35  6  1  0  0  0  0
 36  7  1  0  0  0  0
 38 21  1  0  0  0  0
 39 22  1  0  0  0  0
 40 23  1  0  0  0  0
 44 27  1  0  0  0  0
 46 28  1  0  0  0  0
 47 29  1  0  0  0  0
 49 30  1  0  0  0  0
 50 31  1  0  0  0  0
 54 32  1  0  0  0  0
 55 32  1  0  0  0  0
M  END
>  <Pose>
1

>  <Score>
-6.59

$$$$
