
 OpenBabel03172210433D

 58 62  0  0  1  0  0  0  0  0999 V2000
   39.6350   13.0890   43.7190 B   0  0  0  0  0  0  0  0  0  0  0  0
   40.8380   11.5850   43.7070 C   0  0  0  0  0  0  0  0  0  0  0  0
   40.4340   10.3510   43.2990 C   0  0  0  0  0  0  0  0  0  0  0  0
   41.2910    9.2880   43.2920 C   0  0  0  0  0  0  0  0  0  0  0  0
   42.6060    9.4040   43.6960 C   0  0  0  0  0  0  0  0  0  0  0  0
   43.0090   10.6300   44.1030 C   0  0  0  0  0  0  0  0  0  0  0  0
   42.1320   11.7430   44.1160 C   0  0  0  0  0  0  0  0  0  0  0  0
   43.4460    8.2260   43.6700 C   0  0  0  0  0  0  0  0  0  0  0  0
   44.2660    7.9020   42.5760 C   0  0  0  0  0  0  0  0  0  0  0  0
   44.9000    6.7810   42.8960 N   0  0  0  0  0  0  0  0  0  0  0  0
   45.8180    5.9210   42.3570 C   0  0  0  0  0  0  0  0  0  0  0  0
   46.0090    4.9530   43.3100 C   0  0  0  0  0  0  0  0  0  0  0  0
   45.2350    5.2540   44.3410 N   0  0  0  0  0  0  0  0  0  0  0  0
   44.5330    6.3980   44.0950 C   0  0  1  0  0  0  0  0  0  0  0  0
   43.6240    7.2830   44.6010 N   0  0  0  0  0  0  0  0  0  0  0  0
   43.0660    7.1120   45.9080 C   0  0  0  0  0  0  0  0  0  0  0  0
   43.0340    8.2930   46.7920 C   0  0  0  0  0  0  0  0  0  0  0  0
   41.8430    9.1810   46.7580 C   0  0  0  0  0  0  0  0  0  0  0  0
   40.8570    8.8050   47.7470 N   0  0  0  0  0  4  0  0  0  0  0  0
   39.6020    9.4760   47.5800 C   0  0  0  0  0  0  0  0  0  0  0  0
   39.1790   10.3310   48.7410 C   0  0  0  0  0  0  0  0  0  0  0  0
   37.6650   10.5410   48.5850 C   0  0  0  0  0  0  0  0  0  0  0  0
   37.4170   11.2720   47.3120 C   0  0  0  0  0  0  0  0  0  0  0  0
   38.0570   10.6280   46.1040 C   0  0  0  0  0  0  0  0  0  0  0  0
   39.5490   10.3780   46.3540 C   0  0  0  0  0  0  0  0  0  0  0  0
   46.8960    3.8920   43.1030 C   0  0  0  0  0  0  0  0  0  0  0  0
   47.5940    3.8080   41.9180 C   0  0  0  0  0  0  0  0  0  0  0  0
   47.3840    4.7910   40.9780 C   0  0  0  0  0  0  0  0  0  0  0  0
   46.5050    5.8500   41.1760 C   0  0  0  0  0  0  0  0  0  0  0  0
   39.3940   10.2080   42.9660 H   0  0  0  0  0  0  0  0  0  0  0  0
   40.8980    8.3110   42.9440 H   0  0  0  0  0  0  0  0  0  0  0  0
   43.9750   10.8760   44.4440 H   0  0  0  0  0  0  0  0  0  0  0  0
   42.4620   12.7140   44.4410 H   0  0  0  0  0  0  0  0  0  0  0  0
   44.3640    8.4560   41.6470 H   0  0  0  0  0  0  0  0  0  0  0  0
   45.2000    4.6830   45.2060 H   0  0  0  0  0  0  0  0  0  0  0  0
   43.4420    6.2250   46.4090 H   0  0  0  0  0  0  0  0  0  0  0  0
   41.9390    6.8690   45.7370 H   0  0  0  0  0  0  0  0  0  0  0  0
   43.0470    7.8660   47.8520 H   0  0  0  0  0  0  0  0  0  0  0  0
   43.9930    8.8960   46.7980 H   0  0  0  0  0  0  0  0  0  0  0  0
   41.3270    9.2000   45.7770 H   0  0  0  0  0  0  0  0  0  0  0  0
   42.2020   10.2060   47.0580 H   0  0  0  0  0  0  0  0  0  0  0  0
   40.7430    7.8090   47.9180 H   0  0  0  0  0  0  0  0  0  0  0  0
   41.2470    9.1790   48.6880 H   0  0  0  0  0  0  0  0  0  0  0  0
   38.7640    8.7350   47.4100 H   0  0  0  0  0  0  0  0  0  0  0  0
   39.4210    9.9190   49.7200 H   0  0  0  0  0  0  0  0  0  0  0  0
   39.6220   11.3600   48.6080 H   0  0  0  0  0  0  0  0  0  0  0  0
   37.1640    9.5400   48.5890 H   0  0  0  0  0  0  0  0  0  0  0  0
   37.3020   11.1680   49.4180 H   0  0  0  0  0  0  0  0  0  0  0  0
   36.3240   11.2850   47.1280 H   0  0  0  0  0  0  0  0  0  0  0  0
   37.7680   12.3150   47.4160 H   0  0  0  0  0  0  0  0  0  0  0  0
   37.9570   11.3350   45.2650 H   0  0  0  0  0  0  0  0  0  0  0  0
   37.5630    9.6720   45.9180 H   0  0  0  0  0  0  0  0  0  0  0  0
   40.0370   11.3600   46.5760 H   0  0  0  0  0  0  0  0  0  0  0  0
   39.9620    9.8420   45.5010 H   0  0  0  0  0  0  0  0  0  0  0  0
   47.0530    3.1280   43.8440 H   0  0  0  0  0  0  0  0  0  0  0  0
   48.3000    2.9890   41.7180 H   0  0  0  0  0  0  0  0  0  0  0  0
   47.9280    4.7260   40.0540 H   0  0  0  0  0  0  0  0  0  0  0  0
   46.3430    6.6140   40.4430 H   0  0  0  0  0  0  0  0  0  0  0  0
  2  1  1  0  0  0  0
  2  7  1  0  0  0  0
  3  2  2  0  0  0  0
  4  3  1  0  0  0  0
  4  5  2  0  0  0  0
  5  6  1  0  0  0  0
  6  7  2  0  0  0  0
  6 32  1  0  0  0  0
  7 33  1  0  0  0  0
  8  5  1  0  0  0  0
  8 15  1  0  0  0  0
  9 10  1  0  0  0  0
  9  8  2  0  0  0  0
 11 10  1  0  0  0  0
 11 12  1  0  0  0  0
 12 13  1  0  0  0  0
 13 35  1  0  0  0  0
 14 10  1  1  0  0  0
 14 13  1  0  0  0  0
 14 15  1  0  0  0  0
 15 16  1  0  0  0  0
 16 36  1  0  0  0  0
 16 17  1  0  0  0  0
 17 39  1  0  0  0  0
 17 38  1  0  0  0  0
 18 17  1  0  0  0  0
 18 41  1  0  0  0  0
 18 19  1  0  0  0  0
 19 42  1  0  0  0  0
 19 43  1  0  0  0  0
 20 19  1  0  0  0  0
 20 21  1  0  0  0  0
 21 45  1  0  0  0  0
 22 47  1  0  0  0  0
 22 21  1  0  0  0  0
 22 48  1  0  0  0  0
 23 50  1  0  0  0  0
 23 22  1  0  0  0  0
 24 25  1  0  0  0  0
 24 23  1  0  0  0  0
 25 53  1  0  0  0  0
 25 20  1  0  0  0  0
 26 12  2  0  0  0  0
 26 55  1  0  0  0  0
 27 26  1  0  0  0  0
 28 29  1  0  0  0  0
 28 27  2  0  0  0  0
 29 11  2  0  0  0  0
 30  3  1  0  0  0  0
 31  4  1  0  0  0  0
 34  9  1  0  0  0  0
 37 16  1  0  0  0  0
 40 18  1  0  0  0  0
 44 20  1  0  0  0  0
 46 21  1  0  0  0  0
 49 23  1  0  0  0  0
 51 24  1  0  0  0  0
 52 24  1  0  0  0  0
 54 25  1  0  0  0  0
 56 27  1  0  0  0  0
 57 28  1  0  0  0  0
 58 29  1  0  0  0  0
M  END
>  <Pose>
1

>  <Score>
-5.27

$$$$
