
 OpenBabel03172210433D

 55 59  0  0  1  0  0  0  0  0999 V2000
   47.0030    4.7720   41.9940 B   0  0  0  0  0  0  0  0  0  0  0  0
   46.1850    6.3630   42.6230 C   0  0  0  0  0  0  0  0  0  0  0  0
   46.9170    7.3930   43.1370 C   0  0  0  0  0  0  0  0  0  0  0  0
   46.2870    8.5370   43.5860 C   0  0  0  0  0  0  0  0  0  0  0  0
   44.9060    8.7250   43.5510 C   0  0  0  0  0  0  0  0  0  0  0  0
   44.1870    7.6910   43.0360 C   0  0  0  0  0  0  0  0  0  0  0  0
   44.8260    6.5150   42.5750 C   0  0  0  0  0  0  0  0  0  0  0  0
   44.3610    9.9830   44.0730 C   0  0  0  0  0  0  0  0  0  0  0  0
   45.0150   10.7080   45.0860 C   0  0  0  0  0  0  0  0  0  0  0  0
   44.3170   11.8110   45.3480 N   0  0  0  0  0  0  0  0  0  0  0  0
   44.3110   12.9220   46.1300 C   0  0  0  0  0  0  0  0  0  0  0  0
   43.2070   13.6280   45.7930 C   0  0  0  0  0  0  0  0  0  0  0  0
   42.5760   12.9410   44.8300 N   0  0  0  0  0  0  0  0  0  0  0  0
   43.2540   11.8070   44.5420 C   0  0  1  0  0  0  0  0  0  0  0  0
   43.2660   10.6860   43.7500 N   0  0  0  0  0  0  0  0  0  0  0  0
   42.2770   10.3990   42.7640 C   0  0  0  0  0  0  0  0  0  0  0  0
   41.0440    9.6920   43.2640 C   0  0  0  0  0  0  0  0  0  0  0  0
   40.3740   10.2670   44.4310 C   0  0  0  0  0  0  0  0  0  0  0  0
   39.2720   11.1640   44.2470 N   0  0  0  0  0  4  0  0  0  0  0  0
   38.1850   10.9070   45.1740 C   0  0  0  0  0  0  0  0  0  0  0  0
   38.2570   11.5970   46.4700 C   0  0  0  0  0  0  0  0  0  0  0  0
   39.2680   12.6750   46.5980 C   0  0  0  0  0  0  0  0  0  0  0  0
   39.4570   13.3940   45.3090 C   0  0  0  0  0  0  0  0  0  0  0  0
   39.6200   12.5340   44.1120 C   0  0  0  0  0  0  0  0  0  0  0  0
   42.9180   14.8260   46.4230 C   0  0  0  0  0  0  0  0  0  0  0  0
   43.7530   15.3270   47.4080 C   0  0  0  0  0  0  0  0  0  0  0  0
   44.8860   14.6020   47.7540 C   0  0  0  0  0  0  0  0  0  0  0  0
   45.1420   13.4140   47.1070 C   0  0  0  0  0  0  0  0  0  0  0  0
   47.9910    7.2820   43.1790 H   0  0  0  0  0  0  0  0  0  0  0  0
   46.9240    9.3240   43.9820 H   0  0  0  0  0  0  0  0  0  0  0  0
   43.1360    7.7270   42.9700 H   0  0  0  0  0  0  0  0  0  0  0  0
   44.2170    5.7250   42.1760 H   0  0  0  0  0  0  0  0  0  0  0  0
   45.9260   10.4690   45.6060 H   0  0  0  0  0  0  0  0  0  0  0  0
   41.6860   13.2370   44.3510 H   0  0  0  0  0  0  0  0  0  0  0  0
   42.6760    9.9440   41.8460 H   0  0  0  0  0  0  0  0  0  0  0  0
   41.9610   11.4380   42.3730 H   0  0  0  0  0  0  0  0  0  0  0  0
   41.4150    8.6640   43.5920 H   0  0  0  0  0  0  0  0  0  0  0  0
   40.3610    9.4130   42.4230 H   0  0  0  0  0  0  0  0  0  0  0  0
   41.1500   10.8650   45.0010 H   0  0  0  0  0  0  0  0  0  0  0  0
   40.1160    9.4500   45.1700 H   0  0  0  0  0  0  0  0  0  0  0  0
   38.8500   10.8740   43.3360 H   0  0  0  0  0  0  0  0  0  0  0  0
   37.1830   11.0940   44.7280 H   0  0  0  0  0  0  0  0  0  0  0  0
   38.2040    9.7850   45.3280 H   0  0  0  0  0  0  0  0  0  0  0  0
   38.4690   10.8500   47.2930 H   0  0  0  0  0  0  0  0  0  0  0  0
   37.2570   12.0270   46.7760 H   0  0  0  0  0  0  0  0  0  0  0  0
   38.9320   13.4030   47.3660 H   0  0  0  0  0  0  0  0  0  0  0  0
   40.2400   12.2700   47.0120 H   0  0  0  0  0  0  0  0  0  0  0  0
   40.3450   14.0690   45.4260 H   0  0  0  0  0  0  0  0  0  0  0  0
   38.5910   14.1020   45.1870 H   0  0  0  0  0  0  0  0  0  0  0  0
   40.7010   12.5640   43.7890 H   0  0  0  0  0  0  0  0  0  0  0  0
   39.0800   13.0410   43.2650 H   0  0  0  0  0  0  0  0  0  0  0  0
   42.0370   15.3910   46.1570 H   0  0  0  0  0  0  0  0  0  0  0  0
   43.5520   16.2620   47.9180 H   0  0  0  0  0  0  0  0  0  0  0  0
   45.5170   15.0150   48.5230 H   0  0  0  0  0  0  0  0  0  0  0  0
   46.0130   12.8640   47.3770 H   0  0  0  0  0  0  0  0  0  0  0  0
  1  2  1  0  0  0  0
  2  3  1  0  0  0  0
  3 29  1  0  0  0  0
  3  4  2  0  0  0  0
  4 30  1  0  0  0  0
  5  4  1  0  0  0  0
  5  8  1  0  0  0  0
  6  5  2  0  0  0  0
  7  2  2  0  0  0  0
  7  6  1  0  0  0  0
  8  9  2  0  0  0  0
  9 10  1  0  0  0  0
  9 33  1  0  0  0  0
 10 11  1  0  0  0  0
 11 28  1  0  0  0  0
 12 11  2  0  0  0  0
 12 25  1  0  0  0  0
 13 12  1  0  0  0  0
 14 15  1  6  0  0  0
 14 13  1  0  0  0  0
 14 10  1  0  0  0  0
 15  8  1  0  0  0  0
 16 17  1  0  0  0  0
 16 15  1  0  0  0  0
 17 37  1  0  0  0  0
 17 18  1  0  0  0  0
 18 39  1  0  0  0  0
 18 40  1  0  0  0  0
 19 18  1  0  0  0  0
 19 20  1  0  0  0  0
 20 43  1  0  0  0  0
 20 21  1  0  0  0  0
 21 22  1  0  0  0  0
 21 45  1  0  0  0  0
 21 44  1  0  0  0  0
 22 47  1  0  0  0  0
 22 46  1  0  0  0  0
 23 48  1  0  0  0  0
 23 22  1  0  0  0  0
 24 19  1  0  0  0  0
 24 23  1  0  0  0  0
 25 26  2  0  0  0  0
 26 27  1  0  0  0  0
 26 53  1  0  0  0  0
 27 54  1  0  0  0  0
 28 55  1  0  0  0  0
 28 27  2  0  0  0  0
 31  6  1  0  0  0  0
 32  7  1  0  0  0  0
 34 13  1  0  0  0  0
 35 16  1  0  0  0  0
 36 16  1  0  0  0  0
 38 17  1  0  0  0  0
 41 19  1  0  0  0  0
 42 20  1  0  0  0  0
 49 23  1  0  0  0  0
 50 24  1  0  0  0  0
 51 24  1  0  0  0  0
 52 25  1  0  0  0  0
M  END
>  <Pose>
1

>  <Score>
-5.07

$$$$
