J60_A_1305_1_007
joSeeSAR  03092211313D 1   1.00000     0.00000     0
SeeSAR 11.2.2 jonathanwahrer
 57 59  0  0  0  0            999 V2000
   16.5535    8.3076   10.7212 C   0  0  0  0  0  0  0  0  0  0  0  0
   15.2104    8.0861   11.4370 C   0  0  0  0  0  0  0  0  0  0  0  0
   15.2602    8.6974   12.7894 N   0  3  0  0  0  0  0  0  0  0  0  0
   14.1046    8.2766   13.6199 C   0  0  0  0  0  0  0  0  0  0  0  0
   12.7568    8.5129   12.9161 C   0  0  0  0  0  0  0  0  0  0  0  0
   16.5591    8.5042   13.4963 C   0  0  0  0  0  0  0  0  0  0  0  0
   16.6334    7.2800   14.4448 C   0  0  0  0  0  0  0  0  0  0  0  0
   16.2021    6.0973   13.6536 N   0  0  0  0  0  0  0  0  0  0  0  0
   16.8832    5.6189   12.6093 C   0  0  0  0  0  0  0  0  0  0  0  0
   17.9295    6.1269   12.2203 O   0  0  0  0  0  0  0  0  0  0  0  0
   16.3922    4.4126   11.9672 C   0  0  0  0  0  0  0  0  0  0  0  0
   15.0467    4.1344   11.6449 C   0  0  0  0  0  0  0  0  0  0  0  0
   13.8470    5.0307   11.9012 C   0  0  0  0  0  0  0  0  0  0  0  0
   17.1401    3.3494   11.5667 C   0  0  0  0  0  0  0  0  0  0  0  0
   18.6463    3.2119   11.7159 C   0  0  0  0  0  0  0  0  0  0  0  0
   16.3101    2.4266   11.0116 N   0  0  0  0  0  0  0  0  0  0  0  0
   15.0353    2.9059   11.0595 C   0  0  0  0  0  0  0  0  0  0  0  0
   13.8994    2.2392   10.5811 C   0  0  0  0  0  0  0  0  0  0  0  0
   13.8389    1.4240    9.5413 C   0  0  0  0  0  0  0  0  0  0  0  0
   12.6627    0.7390    9.0525 C   0  0  0  0  0  0  0  0  0  0  0  0
   11.3281    0.6799    9.4470 C   0  0  0  0  0  0  0  0  0  0  0  0
   10.4344   -0.1244    8.7475 C   0  0  0  0  0  0  0  0  0  0  0  0
    8.7262   -0.2038    9.2407 Cl  0  0  0  0  0  0  0  0  0  0  0  0
   10.8795   -0.8692    7.6596 C   0  0  0  0  0  0  0  0  0  0  0  0
   12.2178   -0.7925    7.2860 C   0  0  0  0  0  0  0  0  0  0  0  0
   13.1162    0.0121    7.9802 C   0  0  0  0  0  0  0  0  0  0  0  0
   14.4709    0.1844    7.7162 N   0  0  0  0  0  0  0  0  0  0  0  0
   14.9425    1.0613    8.6825 C   0  0  0  0  0  0  0  0  0  0  0  0
   16.0892    1.4630    8.7956 O   0  0  0  0  0  0  0  0  0  0  0  0
   16.5181    7.8953    9.8108 H   0  0  0  0  0  0  0  0  0  0  0  0
   16.7282    9.2886   10.6363 H   0  0  0  0  0  0  0  0  0  0  0  0
   17.2877    7.8830   11.2510 H   0  0  0  0  0  0  0  0  0  0  0  0
   15.0360    7.1050   11.5214 H   0  0  0  0  0  0  0  0  0  0  0  0
   14.4766    8.5106   10.9067 H   0  0  0  0  0  0  0  0  0  0  0  0
   14.1164    8.7975   14.4734 H   0  0  0  0  0  0  0  0  0  0  0  0
   14.1937    7.3016   13.8231 H   0  0  0  0  0  0  0  0  0  0  0  0
   12.0121    8.2148   13.5132 H   0  0  0  0  0  0  0  0  0  0  0  0
   12.6525    9.4867   12.7139 H   0  0  0  0  0  0  0  0  0  0  0  0
   12.7298    7.9908   12.0636 H   0  0  0  0  0  0  0  0  0  0  0  0
   16.7383    9.3246   14.0391 H   0  0  0  0  0  0  0  0  0  0  0  0
   17.2729    8.4000   12.8039 H   0  0  0  0  0  0  0  0  0  0  0  0
   16.0237    7.4123   15.2263 H   0  0  0  0  0  0  0  0  0  0  0  0
   17.5702    7.1532   14.7706 H   0  0  0  0  0  0  0  0  0  0  0  0
   15.3557    5.6348   13.9178 H   0  0  0  0  0  0  0  0  0  0  0  0
   13.0178    4.5805   11.5700 H   0  0  0  0  0  0  0  0  0  0  0  0
   13.7635    5.2031   12.8827 H   0  0  0  0  0  0  0  0  0  0  0  0
   13.9703    5.8984   11.4196 H   0  0  0  0  0  0  0  0  0  0  0  0
   18.9397    2.3335   11.3387 H   0  0  0  0  0  0  0  0  0  0  0  0
   19.0993    3.9545   11.2227 H   0  0  0  0  0  0  0  0  0  0  0  0
   18.8908    3.2571   12.6845 H   0  0  0  0  0  0  0  0  0  0  0  0
   16.5883    1.5443   10.6319 H   0  0  0  0  0  0  0  0  0  0  0  0
   13.0455    2.3963   11.0774 H   0  0  0  0  0  0  0  0  0  0  0  0
   11.0132    1.2145   10.2312 H   0  0  0  0  0  0  0  0  0  0  0  0
   10.2452   -1.4525    7.1523 H   0  0  0  0  0  0  0  0  0  0  0  0
   12.5399   -1.3257    6.5037 H   0  0  0  0  0  0  0  0  0  0  0  0
   14.9983   -0.2383    6.9793 H   0  0  0  0  0  0  0  0  0  0  0  0
   15.1611    9.6830   12.6534 H   0  0  0  0  0  0  0  0  0  0  0  0
  1  2  1  0  0  0  0
  2  3  1  0  0  0  0
  3  4  1  0  0  0  0
  3  6  1  0  0  0  0
  4  5  1  0  0  0  0
  6  7  1  0  0  0  0
  7  8  1  0  0  0  0
  8  9  1  0  0  0  0
  9 10  2  0  0  0  0
  9 11  1  0  0  0  0
 11 12  1  0  0  0  0
 11 14  2  0  0  0  0
 12 13  1  0  0  0  0
 12 17  2  0  0  0  0
 14 15  1  0  0  0  0
 14 16  1  0  0  0  0
 16 17  1  0  0  0  0
 17 18  1  0  0  0  0
 18 19  2  0  0  0  0
 19 20  1  0  0  0  0
 19 28  1  0  0  0  0
 20 21  2  0  0  0  0
 20 26  1  0  0  0  0
 21 22  1  0  0  0  0
 22 23  1  0  0  0  0
 22 24  2  0  0  0  0
 24 25  1  0  0  0  0
 25 26  2  0  0  0  0
 26 27  1  0  0  0  0
 27 28  1  0  0  0  0
 28 29  2  0  0  0  0
  1 30  1  0  0  0  0
  1 31  1  0  0  0  0
  1 32  1  0  0  0  0
  2 33  1  0  0  0  0
  2 34  1  0  0  0  0
  4 35  1  0  0  0  0
  4 36  1  0  0  0  0
  5 37  1  0  0  0  0
  5 38  1  0  0  0  0
  5 39  1  0  0  0  0
  6 40  1  0  0  0  0
  6 41  1  0  0  0  0
  7 42  1  0  0  0  0
  7 43  1  0  0  0  0
  8 44  1  0  0  0  0
 13 45  1  0  0  0  0
 13 46  1  0  0  0  0
 13 47  1  0  0  0  0
 15 48  1  0  0  0  0
 15 49  1  0  0  0  0
 15 50  1  0  0  0  0
 16 51  1  0  0  0  0
 18 52  1  0  0  0  0
 21 53  1  0  0  0  0
 24 54  1  0  0  0  0
 25 55  1  0  0  0  0
 27 56  1  0  0  0  0
  3 57  1  0  0  0  0
M  CHG  1   3   1
M  END
> <BIOSOLVEIT.HYDE_ESTIMATED_AFFINITY_LOWER_BOUNDARY [nM]>
83.782249

> <BIOSOLVEIT.HYDE_ESTIMATED_AFFINITY_UPPER_BOUNDARY [nM]>
8324.261805

> <BIOSOLVEIT.HYDE_LIGAND_EFFICIENCY range: ++, +, 0, -, -->
-

> <BIOSOLVEIT.HYDE_LIGAND_LIPOPHILIC_EFFICIENCY range: ++, +, 0, -, -->
0

> <BIOSOLVEIT.LOGP>
2.43214

> <BIOSOLVEIT.MOLECULAR WEIGHT>
415.942

> <BIOSOLVEIT.MOLECULE_CHECKSUM>
LTM0LjY5NDc7MS4xOTYzNw==

> <BIOSOLVEIT.TPSA>
78.43

> <OPTIBRIUM.BBB category>
-

> <OPTIBRIUM.PPB90 category>
high

> <OPTIBRIUM.2C9 pKi>
5.51341

> <OPTIBRIUM.logS @ pH7.4>
1.85523

> <OPTIBRIUM.BBB log([brain]:[blood])>
-0.185714

> <OPTIBRIUM.2D6 affinity category>
medium

> <OPTIBRIUM.logS>
2.48239

> <OPTIBRIUM.logD>
2.25417

> <OPTIBRIUM.hERG pIC50>
4.27856

> <OPTIBRIUM.logP>
3.42691

> <OPTIBRIUM.HIA category>
+

> <OPTIBRIUM.P-gp category>
yes

$$$$
J60_A_1305_1_010
joSeeSAR  03092211313D 1   1.00000     0.00000     0
SeeSAR 11.2.2 jonathanwahrer
 57 59  0  0  0  0            999 V2000
   16.5621    8.3040   10.7141 C   0  0  0  0  0  0  0  0  0  0  0  0
   15.2262    8.0926   11.4465 C   0  0  0  0  0  0  0  0  0  0  0  0
   15.2932    8.7137   12.7937 N   0  3  0  0  0  0  0  0  0  0  0  0
   14.1370    8.3159   13.6346 C   0  0  0  0  0  0  0  0  0  0  0  0
   13.8481    9.3296   14.7557 C   0  0  0  0  0  0  0  0  0  0  0  0
   16.5937    8.5077   13.4939 C   0  0  0  0  0  0  0  0  0  0  0  0
   16.6597    7.2847   14.4446 C   0  0  0  0  0  0  0  0  0  0  0  0
   16.2249    6.1028   13.6541 N   0  0  0  0  0  0  0  0  0  0  0  0
   16.9028    5.6238   12.6081 C   0  0  0  0  0  0  0  0  0  0  0  0
   17.9488    6.1304   12.2166 O   0  0  0  0  0  0  0  0  0  0  0  0
   16.4085    4.4184   11.9669 C   0  0  0  0  0  0  0  0  0  0  0  0
   15.0620    4.1425   11.6465 C   0  0  0  0  0  0  0  0  0  0  0  0
   13.8644    5.0413   11.9046 C   0  0  0  0  0  0  0  0  0  0  0  0
   17.1538    3.3536   11.5654 C   0  0  0  0  0  0  0  0  0  0  0  0
   18.6599    3.2131   11.7124 C   0  0  0  0  0  0  0  0  0  0  0  0
   16.3211    2.4323   11.0117 N   0  0  0  0  0  0  0  0  0  0  0  0
   15.0474    2.9139   11.0616 C   0  0  0  0  0  0  0  0  0  0  0  0
   13.9094    2.2494   10.5849 C   0  0  0  0  0  0  0  0  0  0  0  0
   13.8463    1.4330    9.5462 C   0  0  0  0  0  0  0  0  0  0  0  0
   12.6680    0.7501    9.0593 C   0  0  0  0  0  0  0  0  0  0  0  0
   11.3335    0.6948    9.4548 C   0  0  0  0  0  0  0  0  0  0  0  0
   10.4373   -0.1083    8.7571 C   0  0  0  0  0  0  0  0  0  0  0  0
    8.7292   -0.1829    9.2517 Cl  0  0  0  0  0  0  0  0  0  0  0  0
   10.8798   -0.8557    7.6699 C   0  0  0  0  0  0  0  0  0  0  0  0
   12.2180   -0.7826    7.2951 C   0  0  0  0  0  0  0  0  0  0  0  0
   13.1188    0.0207    7.9876 C   0  0  0  0  0  0  0  0  0  0  0  0
   14.4738    0.1893    7.7224 N   0  0  0  0  0  0  0  0  0  0  0  0
   14.9482    1.0665    8.6870 C   0  0  0  0  0  0  0  0  0  0  0  0
   16.0960    1.4655    8.7988 O   0  0  0  0  0  0  0  0  0  0  0  0
   16.5151    7.8851    9.8074 H   0  0  0  0  0  0  0  0  0  0  0  0
   16.7393    9.2837   10.6200 H   0  0  0  0  0  0  0  0  0  0  0  0
   17.3006    7.8807   11.2389 H   0  0  0  0  0  0  0  0  0  0  0  0
   15.0494    7.1129   11.5400 H   0  0  0  0  0  0  0  0  0  0  0  0
   14.4880    8.5159   10.9211 H   0  0  0  0  0  0  0  0  0  0  0  0
   14.3323    7.4269   14.0486 H   0  0  0  0  0  0  0  0  0  0  0  0
   13.3274    8.2420   13.0525 H   0  0  0  0  0  0  0  0  0  0  0  0
   13.0638    9.0184   15.2924 H   0  0  0  0  0  0  0  0  0  0  0  0
   14.6489    9.4070   15.3497 H   0  0  0  0  0  0  0  0  0  0  0  0
   13.6439   10.2222   14.3536 H   0  0  0  0  0  0  0  0  0  0  0  0
   16.7848    9.3273   14.0341 H   0  0  0  0  0  0  0  0  0  0  0  0
   17.3027    8.3944   12.7978 H   0  0  0  0  0  0  0  0  0  0  0  0
   16.0487    7.4212   15.2242 H   0  0  0  0  0  0  0  0  0  0  0  0
   17.5952    7.1540   14.7730 H   0  0  0  0  0  0  0  0  0  0  0  0
   15.3784    5.6416   13.9203 H   0  0  0  0  0  0  0  0  0  0  0  0
   13.0338    4.5925   11.5747 H   0  0  0  0  0  0  0  0  0  0  0  0
   13.7827    5.2139   12.8861 H   0  0  0  0  0  0  0  0  0  0  0  0
   13.9886    5.9086   11.4226 H   0  0  0  0  0  0  0  0  0  0  0  0
   18.9512    2.3341   11.3349 H   0  0  0  0  0  0  0  0  0  0  0  0
   19.1136    3.9549   11.2184 H   0  0  0  0  0  0  0  0  0  0  0  0
   18.9059    3.2581   12.6807 H   0  0  0  0  0  0  0  0  0  0  0  0
   16.5971    1.5493   10.6318 H   0  0  0  0  0  0  0  0  0  0  0  0
   13.0563    2.4093   11.0816 H   0  0  0  0  0  0  0  0  0  0  0  0
   11.0205    1.2313   10.2386 H   0  0  0  0  0  0  0  0  0  0  0  0
   10.2438   -1.4381    7.1639 H   0  0  0  0  0  0  0  0  0  0  0  0
   12.5383   -1.3176    6.5134 H   0  0  0  0  0  0  0  0  0  0  0  0
   14.9996   -0.2357    6.9856 H   0  0  0  0  0  0  0  0  0  0  0  0
   15.2071    9.6997   12.6504 H   0  0  0  0  0  0  0  0  0  0  0  0
  1  2  1  0  0  0  0
  2  3  1  0  0  0  0
  3  4  1  0  0  0  0
  3  6  1  0  0  0  0
  4  5  1  0  0  0  0
  6  7  1  0  0  0  0
  7  8  1  0  0  0  0
  8  9  1  0  0  0  0
  9 10  2  0  0  0  0
  9 11  1  0  0  0  0
 11 12  1  0  0  0  0
 11 14  2  0  0  0  0
 12 13  1  0  0  0  0
 12 17  2  0  0  0  0
 14 15  1  0  0  0  0
 14 16  1  0  0  0  0
 16 17  1  0  0  0  0
 17 18  1  0  0  0  0
 18 19  2  0  0  0  0
 19 20  1  0  0  0  0
 19 28  1  0  0  0  0
 20 21  2  0  0  0  0
 20 26  1  0  0  0  0
 21 22  1  0  0  0  0
 22 23  1  0  0  0  0
 22 24  2  0  0  0  0
 24 25  1  0  0  0  0
 25 26  2  0  0  0  0
 26 27  1  0  0  0  0
 27 28  1  0  0  0  0
 28 29  2  0  0  0  0
  1 30  1  0  0  0  0
  1 31  1  0  0  0  0
  1 32  1  0  0  0  0
  2 33  1  0  0  0  0
  2 34  1  0  0  0  0
  4 35  1  0  0  0  0
  4 36  1  0  0  0  0
  5 37  1  0  0  0  0
  5 38  1  0  0  0  0
  5 39  1  0  0  0  0
  6 40  1  0  0  0  0
  6 41  1  0  0  0  0
  7 42  1  0  0  0  0
  7 43  1  0  0  0  0
  8 44  1  0  0  0  0
 13 45  1  0  0  0  0
 13 46  1  0  0  0  0
 13 47  1  0  0  0  0
 15 48  1  0  0  0  0
 15 49  1  0  0  0  0
 15 50  1  0  0  0  0
 16 51  1  0  0  0  0
 18 52  1  0  0  0  0
 21 53  1  0  0  0  0
 24 54  1  0  0  0  0
 25 55  1  0  0  0  0
 27 56  1  0  0  0  0
  3 57  1  0  0  0  0
M  CHG  1   3   1
M  END
> <BIOSOLVEIT.HYDE_ESTIMATED_AFFINITY_LOWER_BOUNDARY [nM]>
129.505418

> <BIOSOLVEIT.HYDE_ESTIMATED_AFFINITY_UPPER_BOUNDARY [nM]>
12867.128967

> <BIOSOLVEIT.HYDE_LIGAND_EFFICIENCY range: ++, +, 0, -, -->
-

> <BIOSOLVEIT.HYDE_LIGAND_LIPOPHILIC_EFFICIENCY range: ++, +, 0, -, -->
-

> <BIOSOLVEIT.LOGP>
2.43214

> <BIOSOLVEIT.MOLECULAR WEIGHT>
415.942

> <BIOSOLVEIT.MOLECULE_CHECKSUM>
LTMzLjYxNTE7MS4xNTkxNA==

> <BIOSOLVEIT.TPSA>
78.43

> <OPTIBRIUM.BBB category>
-

> <OPTIBRIUM.PPB90 category>
high

> <OPTIBRIUM.2C9 pKi>
5.51341

> <OPTIBRIUM.logS @ pH7.4>
1.85523

> <OPTIBRIUM.BBB log([brain]:[blood])>
-0.185714

> <OPTIBRIUM.2D6 affinity category>
medium

> <OPTIBRIUM.logS>
2.48239

> <OPTIBRIUM.logD>
2.25417

> <OPTIBRIUM.hERG pIC50>
4.27856

> <OPTIBRIUM.logP>
3.42691

> <OPTIBRIUM.HIA category>
+

> <OPTIBRIUM.P-gp category>
yes

$$$$
J60_A_1305_1_008
joSeeSAR  03092211313D 1   1.00000     0.00000     0
SeeSAR 11.2.2 jonathanwahrer
 57 59  0  0  0  0            999 V2000
   12.8383   10.5274   14.7893 C   0  0  0  0  0  0  0  0  0  0  0  0
   13.9951    9.5533   14.5088 C   0  0  0  0  0  0  0  0  0  0  0  0
   15.2222   10.3204   14.1754 N   0  3  0  0  0  0  0  0  0  0  0  0
   15.7119   11.0974   15.3409 C   0  0  0  0  0  0  0  0  0  0  0  0
   16.9181   11.9865   14.9908 C   0  0  0  0  0  0  0  0  0  0  0  0
   16.3016    9.5002   13.5542 C   0  0  0  0  0  0  0  0  0  0  0  0
   16.5166    8.0935   14.1698 C   0  0  0  0  0  0  0  0  0  0  0  0
   16.1731    7.1057   13.1128 N   0  0  0  0  0  0  0  0  0  0  0  0
   16.8213    5.9506   12.9426 C   0  0  0  0  0  0  0  0  0  0  0  0
   17.7610    5.6145   13.6554 O   0  0  0  0  0  0  0  0  0  0  0  0
   16.3390    5.0403   11.9192 C   0  0  0  0  0  0  0  0  0  0  0  0
   15.0702    4.4229   11.8904 C   0  0  0  0  0  0  0  0  0  0  0  0
   13.9592    4.5816   12.9144 C   0  0  0  0  0  0  0  0  0  0  0  0
   17.0223    4.6291   10.8172 C   0  0  0  0  0  0  0  0  0  0  0  0
   18.4353    5.0412   10.4389 C   0  0  0  0  0  0  0  0  0  0  0  0
   16.2267    3.7823   10.1111 N   0  0  0  0  0  0  0  0  0  0  0  0
   15.0379    3.6576   10.7655 C   0  0  0  0  0  0  0  0  0  0  0  0
   13.9587    2.8693   10.3444 C   0  0  0  0  0  0  0  0  0  0  0  0
   14.0092    1.8261    9.5327 C   0  0  0  0  0  0  0  0  0  0  0  0
   12.8910    1.0165    9.1019 C   0  0  0  0  0  0  0  0  0  0  0  0
   11.5211    1.0236    9.3541 C   0  0  0  0  0  0  0  0  0  0  0  0
   10.7062    0.0538    8.7789 C   0  0  0  0  0  0  0  0  0  0  0  0
    8.9542    0.0563    9.0914 Cl  0  0  0  0  0  0  0  0  0  0  0  0
   11.2649   -0.9208    7.9578 C   0  0  0  0  0  0  0  0  0  0  0  0
   12.6362   -0.9057    7.7218 C   0  0  0  0  0  0  0  0  0  0  0  0
   13.4563    0.0630    8.2924 C   0  0  0  0  0  0  0  0  0  0  0  0
   14.8323    0.1977    8.1406 N   0  0  0  0  0  0  0  0  0  0  0  0
   15.1987    1.2926    8.9103 C   0  0  0  0  0  0  0  0  0  0  0  0
   16.3276    1.7361    9.0445 O   0  0  0  0  0  0  0  0  0  0  0  0
   12.0130   10.0091   15.0136 H   0  0  0  0  0  0  0  0  0  0  0  0
   13.0798   11.1189   15.5586 H   0  0  0  0  0  0  0  0  0  0  0  0
   12.6700   11.0875   13.9782 H   0  0  0  0  0  0  0  0  0  0  0  0
   13.7531    8.9618   13.7396 H   0  0  0  0  0  0  0  0  0  0  0  0
   14.1628    8.9933   15.3200 H   0  0  0  0  0  0  0  0  0  0  0  0
   15.9824   10.4589   16.0614 H   0  0  0  0  0  0  0  0  0  0  0  0
   14.9699   11.6797   15.6729 H   0  0  0  0  0  0  0  0  0  0  0  0
   17.2102   12.4879   15.8054 H   0  0  0  0  0  0  0  0  0  0  0  0
   17.6702   11.4144   14.6641 H   0  0  0  0  0  0  0  0  0  0  0  0
   16.6577   12.6352   14.2757 H   0  0  0  0  0  0  0  0  0  0  0  0
   17.1597   10.0069   13.6389 H   0  0  0  0  0  0  0  0  0  0  0  0
   16.0789    9.3813   12.5866 H   0  0  0  0  0  0  0  0  0  0  0  0
   15.9207    7.9701   14.9632 H   0  0  0  0  0  0  0  0  0  0  0  0
   17.4704    7.9817   14.4486 H   0  0  0  0  0  0  0  0  0  0  0  0
   15.4153    7.3179   12.4958 H   0  0  0  0  0  0  0  0  0  0  0  0
   13.1723    4.0284   12.6411 H   0  0  0  0  0  0  0  0  0  0  0  0
   14.2852    4.2781   13.8098 H   0  0  0  0  0  0  0  0  0  0  0  0
   13.6888    5.5430   12.9666 H   0  0  0  0  0  0  0  0  0  0  0  0
   18.6950    4.5944    9.5828 H   0  0  0  0  0  0  0  0  0  0  0  0
   18.4731    6.0337   10.3218 H   0  0  0  0  0  0  0  0  0  0  0  0
   19.0678    4.7668   11.1632 H   0  0  0  0  0  0  0  0  0  0  0  0
   16.4726    3.3274    9.2552 H   0  0  0  0  0  0  0  0  0  0  0  0
   13.0563    3.1217   10.6938 H   0  0  0  0  0  0  0  0  0  0  0  0
   11.1243    1.7241    9.9472 H   0  0  0  0  0  0  0  0  0  0  0  0
   10.6878   -1.6239    7.5423 H   0  0  0  0  0  0  0  0  0  0  0  0
   13.0401   -1.6042    7.1311 H   0  0  0  0  0  0  0  0  0  0  0  0
   15.4355   -0.3780    7.5887 H   0  0  0  0  0  0  0  0  0  0  0  0
   14.9517   10.9927   13.4863 H   0  0  0  0  0  0  0  0  0  0  0  0
  1  2  1  0  0  0  0
  2  3  1  0  0  0  0
  3  4  1  0  0  0  0
  3  6  1  0  0  0  0
  4  5  1  0  0  0  0
  6  7  1  0  0  0  0
  7  8  1  0  0  0  0
  8  9  1  0  0  0  0
  9 10  2  0  0  0  0
  9 11  1  0  0  0  0
 11 12  1  0  0  0  0
 11 14  2  0  0  0  0
 12 13  1  0  0  0  0
 12 17  2  0  0  0  0
 14 15  1  0  0  0  0
 14 16  1  0  0  0  0
 16 17  1  0  0  0  0
 17 18  1  0  0  0  0
 18 19  2  0  0  0  0
 19 20  1  0  0  0  0
 19 28  1  0  0  0  0
 20 21  2  0  0  0  0
 20 26  1  0  0  0  0
 21 22  1  0  0  0  0
 22 23  1  0  0  0  0
 22 24  2  0  0  0  0
 24 25  1  0  0  0  0
 25 26  2  0  0  0  0
 26 27  1  0  0  0  0
 27 28  1  0  0  0  0
 28 29  2  0  0  0  0
  1 30  1  0  0  0  0
  1 31  1  0  0  0  0
  1 32  1  0  0  0  0
  2 33  1  0  0  0  0
  2 34  1  0  0  0  0
  4 35  1  0  0  0  0
  4 36  1  0  0  0  0
  5 37  1  0  0  0  0
  5 38  1  0  0  0  0
  5 39  1  0  0  0  0
  6 40  1  0  0  0  0
  6 41  1  0  0  0  0
  7 42  1  0  0  0  0
  7 43  1  0  0  0  0
  8 44  1  0  0  0  0
 13 45  1  0  0  0  0
 13 46  1  0  0  0  0
 13 47  1  0  0  0  0
 15 48  1  0  0  0  0
 15 49  1  0  0  0  0
 15 50  1  0  0  0  0
 16 51  1  0  0  0  0
 18 52  1  0  0  0  0
 21 53  1  0  0  0  0
 24 54  1  0  0  0  0
 25 55  1  0  0  0  0
 27 56  1  0  0  0  0
  3 57  1  0  0  0  0
M  CHG  1   3   1
M  END
> <BIOSOLVEIT.HYDE_ESTIMATED_AFFINITY_LOWER_BOUNDARY [nM]>
180.983701

> <BIOSOLVEIT.HYDE_ESTIMATED_AFFINITY_UPPER_BOUNDARY [nM]>
17981.800735

> <BIOSOLVEIT.HYDE_LIGAND_EFFICIENCY range: ++, +, 0, -, -->
-

> <BIOSOLVEIT.HYDE_LIGAND_LIPOPHILIC_EFFICIENCY range: ++, +, 0, -, -->
-

> <BIOSOLVEIT.LOGP>
2.43214

> <BIOSOLVEIT.MOLECULAR WEIGHT>
415.942

> <BIOSOLVEIT.MOLECULE_CHECKSUM>
LTMyLjc4NTU7MS4xMzA1Mw==

> <BIOSOLVEIT.TPSA>
78.43

> <OPTIBRIUM.BBB category>
-

> <OPTIBRIUM.PPB90 category>
high

> <OPTIBRIUM.2C9 pKi>
5.51341

> <OPTIBRIUM.logS @ pH7.4>
1.85523

> <OPTIBRIUM.BBB log([brain]:[blood])>
-0.185714

> <OPTIBRIUM.2D6 affinity category>
medium

> <OPTIBRIUM.logS>
2.48239

> <OPTIBRIUM.logD>
2.25417

> <OPTIBRIUM.hERG pIC50>
4.27856

> <OPTIBRIUM.logP>
3.42691

> <OPTIBRIUM.HIA category>
+

> <OPTIBRIUM.P-gp category>
yes

$$$$
J60_A_1305_1_005
joSeeSAR  03092211313D 1   1.00000     0.00000     0
SeeSAR 11.2.2 jonathanwahrer
 57 59  0  0  0  0            999 V2000
   12.9965    8.9881   14.2274 C   0  0  0  0  0  0  0  0  0  0  0  0
   14.0084   10.0562   14.6756 C   0  0  0  0  0  0  0  0  0  0  0  0
   15.3124    9.8188   14.0058 N   0  3  0  0  0  0  0  0  0  0  0  0
   16.3560   10.7509   14.5000 C   0  0  0  0  0  0  0  0  0  0  0  0
   16.5791   10.6336   16.0180 C   0  0  0  0  0  0  0  0  0  0  0  0
   15.7653    8.3984   14.0434 C   0  0  0  0  0  0  0  0  0  0  0  0
   16.9414    8.0418   13.0982 C   0  0  0  0  0  0  0  0  0  0  0  0
   16.5558    6.7955   12.3849 N   0  0  0  0  0  0  0  0  0  0  0  0
   17.0491    5.5910   12.6833 C   0  0  0  0  0  0  0  0  0  0  0  0
   17.8681    5.4213   13.5802 O   0  0  0  0  0  0  0  0  0  0  0  0
   16.5344    4.4427   11.9585 C   0  0  0  0  0  0  0  0  0  0  0  0
   15.1729    4.1437   11.7386 C   0  0  0  0  0  0  0  0  0  0  0  0
   13.9773    4.9534   12.2107 C   0  0  0  0  0  0  0  0  0  0  0  0
   17.2718    3.4635   11.3685 C   0  0  0  0  0  0  0  0  0  0  0  0
   18.7890    3.3758   11.3542 C   0  0  0  0  0  0  0  0  0  0  0  0
   16.4198    2.5725   10.7950 N   0  0  0  0  0  0  0  0  0  0  0  0
   15.1418    2.9878   11.0209 C   0  0  0  0  0  0  0  0  0  0  0  0
   13.9852    2.3296   10.5820 C   0  0  0  0  0  0  0  0  0  0  0  0
   13.8875    1.4986    9.5575 C   0  0  0  0  0  0  0  0  0  0  0  0
   12.6902    0.8223    9.1097 C   0  0  0  0  0  0  0  0  0  0  0  0
   11.3653    0.7880    9.5384 C   0  0  0  0  0  0  0  0  0  0  0  0
   10.4434   -0.0150    8.8747 C   0  0  0  0  0  0  0  0  0  0  0  0
    8.7473   -0.0628    9.4119 Cl  0  0  0  0  0  0  0  0  0  0  0  0
   10.8508   -0.7830    7.7883 C   0  0  0  0  0  0  0  0  0  0  0  0
   12.1801   -0.7309    7.3800 C   0  0  0  0  0  0  0  0  0  0  0  0
   13.1066    0.0721    8.0383 C   0  0  0  0  0  0  0  0  0  0  0  0
   14.4563    0.2214    7.7376 N   0  0  0  0  0  0  0  0  0  0  0  0
   14.9640    1.1071    8.6773 C   0  0  0  0  0  0  0  0  0  0  0  0
   16.1185    1.4946    8.7551 O   0  0  0  0  0  0  0  0  0  0  0  0
   12.1193    9.1496   14.6795 H   0  0  0  0  0  0  0  0  0  0  0  0
   12.8751    9.0391   13.2362 H   0  0  0  0  0  0  0  0  0  0  0  0
   13.3372    8.0813   14.4754 H   0  0  0  0  0  0  0  0  0  0  0  0
   14.1293   10.0050   15.6670 H   0  0  0  0  0  0  0  0  0  0  0  0
   13.6672   10.9629   14.4277 H   0  0  0  0  0  0  0  0  0  0  0  0
   16.0762   11.6872   14.2883 H   0  0  0  0  0  0  0  0  0  0  0  0
   17.2161   10.5463   14.0327 H   0  0  0  0  0  0  0  0  0  0  0  0
   17.2884   11.2788   16.3016 H   0  0  0  0  0  0  0  0  0  0  0  0
   15.7268   10.8432   16.4973 H   0  0  0  0  0  0  0  0  0  0  0  0
   16.8668    9.7023   16.2417 H   0  0  0  0  0  0  0  0  0  0  0  0
   14.9870    7.8212   13.7965 H   0  0  0  0  0  0  0  0  0  0  0  0
   16.0501    8.1916   14.9795 H   0  0  0  0  0  0  0  0  0  0  0  0
   17.7758    7.8911   13.6283 H   0  0  0  0  0  0  0  0  0  0  0  0
   17.0923    8.7813   12.4421 H   0  0  0  0  0  0  0  0  0  0  0  0
   15.8907    6.8630   11.6411 H   0  0  0  0  0  0  0  0  0  0  0  0
   13.1336    4.5070   11.9125 H   0  0  0  0  0  0  0  0  0  0  0  0
   13.9880    5.0127   13.2090 H   0  0  0  0  0  0  0  0  0  0  0  0
   14.0231    5.8734   11.8216 H   0  0  0  0  0  0  0  0  0  0  0  0
   19.0707    2.5579   10.8525 H   0  0  0  0  0  0  0  0  0  0  0  0
   19.1655    4.1872   10.9072 H   0  0  0  0  0  0  0  0  0  0  0  0
   19.1288    3.3244   12.2932 H   0  0  0  0  0  0  0  0  0  0  0  0
   16.6863    1.7503   10.2920 H   0  0  0  0  0  0  0  0  0  0  0  0
   13.1464    2.5063   11.0970 H   0  0  0  0  0  0  0  0  0  0  0  0
   11.0776    1.3394   10.3215 H   0  0  0  0  0  0  0  0  0  0  0  0
   10.1961   -1.3656    7.3067 H   0  0  0  0  0  0  0  0  0  0  0  0
   12.4752   -1.2809    6.5987 H   0  0  0  0  0  0  0  0  0  0  0  0
   14.9591   -0.2203    6.9946 H   0  0  0  0  0  0  0  0  0  0  0  0
   15.1745   10.0416   13.0407 H   0  0  0  0  0  0  0  0  0  0  0  0
  1  2  1  0  0  0  0
  2  3  1  0  0  0  0
  3  4  1  0  0  0  0
  3  6  1  0  0  0  0
  4  5  1  0  0  0  0
  6  7  1  0  0  0  0
  7  8  1  0  0  0  0
  8  9  1  0  0  0  0
  9 10  2  0  0  0  0
  9 11  1  0  0  0  0
 11 12  1  0  0  0  0
 11 14  2  0  0  0  0
 12 13  1  0  0  0  0
 12 17  2  0  0  0  0
 14 15  1  0  0  0  0
 14 16  1  0  0  0  0
 16 17  1  0  0  0  0
 17 18  1  0  0  0  0
 18 19  2  0  0  0  0
 19 20  1  0  0  0  0
 19 28  1  0  0  0  0
 20 21  2  0  0  0  0
 20 26  1  0  0  0  0
 21 22  1  0  0  0  0
 22 23  1  0  0  0  0
 22 24  2  0  0  0  0
 24 25  1  0  0  0  0
 25 26  2  0  0  0  0
 26 27  1  0  0  0  0
 27 28  1  0  0  0  0
 28 29  2  0  0  0  0
  1 30  1  0  0  0  0
  1 31  1  0  0  0  0
  1 32  1  0  0  0  0
  2 33  1  0  0  0  0
  2 34  1  0  0  0  0
  4 35  1  0  0  0  0
  4 36  1  0  0  0  0
  5 37  1  0  0  0  0
  5 38  1  0  0  0  0
  5 39  1  0  0  0  0
  6 40  1  0  0  0  0
  6 41  1  0  0  0  0
  7 42  1  0  0  0  0
  7 43  1  0  0  0  0
  8 44  1  0  0  0  0
 13 45  1  0  0  0  0
 13 46  1  0  0  0  0
 13 47  1  0  0  0  0
 15 48  1  0  0  0  0
 15 49  1  0  0  0  0
 15 50  1  0  0  0  0
 16 51  1  0  0  0  0
 18 52  1  0  0  0  0
 21 53  1  0  0  0  0
 24 54  1  0  0  0  0
 25 55  1  0  0  0  0
 27 56  1  0  0  0  0
  3 57  1  0  0  0  0
M  CHG  1   3   1
M  END
> <BIOSOLVEIT.HYDE_ESTIMATED_AFFINITY_LOWER_BOUNDARY [nM]>
435.036401

> <BIOSOLVEIT.HYDE_ESTIMATED_AFFINITY_UPPER_BOUNDARY [nM]>
43223.438602

> <BIOSOLVEIT.HYDE_LIGAND_EFFICIENCY range: ++, +, 0, -, -->
-

> <BIOSOLVEIT.HYDE_LIGAND_LIPOPHILIC_EFFICIENCY range: ++, +, 0, -, -->
-

> <BIOSOLVEIT.LOGP>
2.43214

> <BIOSOLVEIT.MOLECULAR WEIGHT>
415.942

> <BIOSOLVEIT.MOLECULE_CHECKSUM>
LTMwLjYxMTQ7MS4wNTU1Ng==

> <BIOSOLVEIT.TPSA>
78.43

> <OPTIBRIUM.BBB category>
-

> <OPTIBRIUM.PPB90 category>
high

> <OPTIBRIUM.2C9 pKi>
5.51341

> <OPTIBRIUM.logS @ pH7.4>
1.85523

> <OPTIBRIUM.BBB log([brain]:[blood])>
-0.185714

> <OPTIBRIUM.2D6 affinity category>
medium

> <OPTIBRIUM.logS>
2.48239

> <OPTIBRIUM.logD>
2.25417

> <OPTIBRIUM.hERG pIC50>
4.27856

> <OPTIBRIUM.logP>
3.42691

> <OPTIBRIUM.HIA category>
+

> <OPTIBRIUM.P-gp category>
yes

$$$$
J60_A_1305_1_002
joSeeSAR  03092211313D 1   1.00000     0.00000     0
SeeSAR 11.2.2 jonathanwahrer
 57 59  0  0  0  0            999 V2000
   17.8101   10.4148   12.8123 C   0  0  0  0  0  0  0  0  0  0  0  0
   17.1884    9.2420   12.0352 C   0  0  0  0  0  0  0  0  0  0  0  0
   15.8352    8.9502   12.5729 N   0  3  0  0  0  0  0  0  0  0  0  0
   15.0367    8.1352   11.6243 C   0  0  0  0  0  0  0  0  0  0  0  0
   13.5293    8.1844   11.9299 C   0  0  0  0  0  0  0  0  0  0  0  0
   15.8394    8.3690   13.9463 C   0  0  0  0  0  0  0  0  0  0  0  0
   16.8778    7.2456   14.1986 C   0  0  0  0  0  0  0  0  0  0  0  0
   16.3947    6.0433   13.4695 N   0  0  0  0  0  0  0  0  0  0  0  0
   16.8869    5.6453   12.2935 C   0  0  0  0  0  0  0  0  0  0  0  0
   17.7862    6.2507   11.7201 O   0  0  0  0  0  0  0  0  0  0  0  0
   16.3778    4.4115   11.7216 C   0  0  0  0  0  0  0  0  0  0  0  0
   15.0279    4.1341   11.4174 C   0  0  0  0  0  0  0  0  0  0  0  0
   13.8413    5.0601   11.6243 C   0  0  0  0  0  0  0  0  0  0  0  0
   17.1101    3.3170   11.3809 C   0  0  0  0  0  0  0  0  0  0  0  0
   18.6146    3.1672   11.5355 C   0  0  0  0  0  0  0  0  0  0  0  0
   16.2662    2.3758   10.8804 N   0  0  0  0  0  0  0  0  0  0  0  0
   14.9983    2.8746   10.9028 C   0  0  0  0  0  0  0  0  0  0  0  0
   13.8522    2.1978   10.4645 C   0  0  0  0  0  0  0  0  0  0  0  0
   13.7667    1.3675    9.4385 C   0  0  0  0  0  0  0  0  0  0  0  0
   12.5802    0.6720    8.9913 C   0  0  0  0  0  0  0  0  0  0  0  0
   11.2568    0.6145    9.4222 C   0  0  0  0  0  0  0  0  0  0  0  0
   10.3474   -0.2025    8.7584 C   0  0  0  0  0  0  0  0  0  0  0  0
    8.6533   -0.2799    9.2983 Cl  0  0  0  0  0  0  0  0  0  0  0  0
   10.7659   -0.9614    7.6697 C   0  0  0  0  0  0  0  0  0  0  0  0
   12.0934   -0.8860    7.2593 C   0  0  0  0  0  0  0  0  0  0  0  0
   13.0073   -0.0688    7.9177 C   0  0  0  0  0  0  0  0  0  0  0  0
   14.3539    0.1037    7.6151 N   0  0  0  0  0  0  0  0  0  0  0  0
   14.8481    0.9959    8.5557 C   0  0  0  0  0  0  0  0  0  0  0  0
   15.9961    1.4026    8.6323 O   0  0  0  0  0  0  0  0  0  0  0  0
   18.7212   10.6098   12.4488 H   0  0  0  0  0  0  0  0  0  0  0  0
   17.2314   11.2243   12.7133 H   0  0  0  0  0  0  0  0  0  0  0  0
   17.8821   10.1727   13.7799 H   0  0  0  0  0  0  0  0  0  0  0  0
   17.7676    8.4329   12.1342 H   0  0  0  0  0  0  0  0  0  0  0  0
   17.1169    9.4845   11.0677 H   0  0  0  0  0  0  0  0  0  0  0  0
   15.3443    7.1853   11.6795 H   0  0  0  0  0  0  0  0  0  0  0  0
   15.1877    8.4811   10.6982 H   0  0  0  0  0  0  0  0  0  0  0  0
   13.0361    7.6221   11.2661 H   0  0  0  0  0  0  0  0  0  0  0  0
   13.3646    7.8336   12.8517 H   0  0  0  0  0  0  0  0  0  0  0  0
   13.2079    9.1295   11.8705 H   0  0  0  0  0  0  0  0  0  0  0  0
   14.9302    7.9921   14.1231 H   0  0  0  0  0  0  0  0  0  0  0  0
   16.0248    9.1094   14.5925 H   0  0  0  0  0  0  0  0  0  0  0  0
   16.9440    7.0514   15.1773 H   0  0  0  0  0  0  0  0  0  0  0  0
   17.7744    7.5214   13.8521 H   0  0  0  0  0  0  0  0  0  0  0  0
   15.6613    5.5031   13.8821 H   0  0  0  0  0  0  0  0  0  0  0  0
   13.0051    4.6034   11.3203 H   0  0  0  0  0  0  0  0  0  0  0  0
   13.7623    5.2890   12.5945 H   0  0  0  0  0  0  0  0  0  0  0  0
   13.9754    5.8973   11.0941 H   0  0  0  0  0  0  0  0  0  0  0  0
   18.8950    2.2648   11.2084 H   0  0  0  0  0  0  0  0  0  0  0  0
   19.0767    3.8743   11.0005 H   0  0  0  0  0  0  0  0  0  0  0  0
   18.8618    3.2639   12.4997 H   0  0  0  0  0  0  0  0  0  0  0  0
   16.5314    1.4696   10.5509 H   0  0  0  0  0  0  0  0  0  0  0  0
   13.0115    2.3594   10.9813 H   0  0  0  0  0  0  0  0  0  0  0  0
   10.9612    1.1594   10.2069 H   0  0  0  0  0  0  0  0  0  0  0  0
   10.1202   -1.5539    7.1880 H   0  0  0  0  0  0  0  0  0  0  0  0
   12.3964   -1.4294    6.4764 H   0  0  0  0  0  0  0  0  0  0  0  0
   14.8628   -0.3280    6.8703 H   0  0  0  0  0  0  0  0  0  0  0  0
   15.3681    9.8314   12.6448 H   0  0  0  0  0  0  0  0  0  0  0  0
  1  2  1  0  0  0  0
  2  3  1  0  0  0  0
  3  4  1  0  0  0  0
  3  6  1  0  0  0  0
  4  5  1  0  0  0  0
  6  7  1  0  0  0  0
  7  8  1  0  0  0  0
  8  9  1  0  0  0  0
  9 10  2  0  0  0  0
  9 11  1  0  0  0  0
 11 12  1  0  0  0  0
 11 14  2  0  0  0  0
 12 13  1  0  0  0  0
 12 17  2  0  0  0  0
 14 15  1  0  0  0  0
 14 16  1  0  0  0  0
 16 17  1  0  0  0  0
 17 18  1  0  0  0  0
 18 19  2  0  0  0  0
 19 20  1  0  0  0  0
 19 28  1  0  0  0  0
 20 21  2  0  0  0  0
 20 26  1  0  0  0  0
 21 22  1  0  0  0  0
 22 23  1  0  0  0  0
 22 24  2  0  0  0  0
 24 25  1  0  0  0  0
 25 26  2  0  0  0  0
 26 27  1  0  0  0  0
 27 28  1  0  0  0  0
 28 29  2  0  0  0  0
  1 30  1  0  0  0  0
  1 31  1  0  0  0  0
  1 32  1  0  0  0  0
  2 33  1  0  0  0  0
  2 34  1  0  0  0  0
  4 35  1  0  0  0  0
  4 36  1  0  0  0  0
  5 37  1  0  0  0  0
  5 38  1  0  0  0  0
  5 39  1  0  0  0  0
  6 40  1  0  0  0  0
  6 41  1  0  0  0  0
  7 42  1  0  0  0  0
  7 43  1  0  0  0  0
  8 44  1  0  0  0  0
 13 45  1  0  0  0  0
 13 46  1  0  0  0  0
 13 47  1  0  0  0  0
 15 48  1  0  0  0  0
 15 49  1  0  0  0  0
 15 50  1  0  0  0  0
 16 51  1  0  0  0  0
 18 52  1  0  0  0  0
 21 53  1  0  0  0  0
 24 54  1  0  0  0  0
 25 55  1  0  0  0  0
 27 56  1  0  0  0  0
  3 57  1  0  0  0  0
M  CHG  1   3   1
M  END
> <BIOSOLVEIT.HYDE_ESTIMATED_AFFINITY_LOWER_BOUNDARY [nM]>
626.295785

> <BIOSOLVEIT.HYDE_ESTIMATED_AFFINITY_UPPER_BOUNDARY [nM]>
62226.189183

> <BIOSOLVEIT.HYDE_LIGAND_EFFICIENCY range: ++, +, 0, -, -->
-

> <BIOSOLVEIT.HYDE_LIGAND_LIPOPHILIC_EFFICIENCY range: ++, +, 0, -, -->
-

> <BIOSOLVEIT.LOGP>
2.43214

> <BIOSOLVEIT.MOLECULAR WEIGHT>
415.942

> <BIOSOLVEIT.MOLECULE_CHECKSUM>
LTI5LjcwODsxLjAyNDQy

> <BIOSOLVEIT.TPSA>
78.43

> <OPTIBRIUM.BBB category>
-

> <OPTIBRIUM.PPB90 category>
high

> <OPTIBRIUM.2C9 pKi>
5.51341

> <OPTIBRIUM.logS @ pH7.4>
1.85523

> <OPTIBRIUM.BBB log([brain]:[blood])>
-0.185714

> <OPTIBRIUM.2D6 affinity category>
medium

> <OPTIBRIUM.logS>
2.48239

> <OPTIBRIUM.logD>
2.25417

> <OPTIBRIUM.hERG pIC50>
4.27856

> <OPTIBRIUM.logP>
3.42691

> <OPTIBRIUM.HIA category>
+

> <OPTIBRIUM.P-gp category>
yes

$$$$
J60_A_1305_1_003
joSeeSAR  03092211313D 1   1.00000     0.00000     0
SeeSAR 11.2.2 jonathanwahrer
 57 59  0  0  0  0            999 V2000
   15.0030   10.9656   15.1678 C   0  0  0  0  0  0  0  0  0  0  0  0
   16.2382   11.0351   14.2539 C   0  0  0  0  0  0  0  0  0  0  0  0
   16.2656    9.8478   13.3625 N   0  3  0  0  0  0  0  0  0  0  0  0
   17.5180    9.7917   12.5687 C   0  0  0  0  0  0  0  0  0  0  0  0
   18.0449   11.1899   12.2009 C   0  0  0  0  0  0  0  0  0  0  0  0
   15.9839    8.5590   14.0580 C   0  0  0  0  0  0  0  0  0  0  0  0
   17.1510    7.5386   14.0828 C   0  0  0  0  0  0  0  0  0  0  0  0
   16.6463    6.2941   13.4446 N   0  0  0  0  0  0  0  0  0  0  0  0
   16.7663    6.0316   12.1407 C   0  0  0  0  0  0  0  0  0  0  0  0
   17.3092    6.8086   11.3625 O   0  0  0  0  0  0  0  0  0  0  0  0
   16.2959    4.7462   11.6560 C   0  0  0  0  0  0  0  0  0  0  0  0
   14.9665    4.4289   11.3046 C   0  0  0  0  0  0  0  0  0  0  0  0
   13.7656    5.3579   11.3609 C   0  0  0  0  0  0  0  0  0  0  0  0
   17.0515    3.6327   11.4568 C   0  0  0  0  0  0  0  0  0  0  0  0
   18.5458    3.5125   11.7070 C   0  0  0  0  0  0  0  0  0  0  0  0
   16.2415    2.6418   10.9982 N   0  0  0  0  0  0  0  0  0  0  0  0
   14.9718    3.1278   10.9056 C   0  0  0  0  0  0  0  0  0  0  0  0
   13.8552    2.4028   10.4683 C   0  0  0  0  0  0  0  0  0  0  0  0
   13.8173    1.5300    9.4753 C   0  0  0  0  0  0  0  0  0  0  0  0
   12.6609    0.7848    9.0288 C   0  0  0  0  0  0  0  0  0  0  0  0
   11.3293    0.7085    9.4301 C   0  0  0  0  0  0  0  0  0  0  0  0
   10.4585   -0.1592    8.7788 C   0  0  0  0  0  0  0  0  0  0  0  0
    8.7541   -0.2612    9.2810 Cl  0  0  0  0  0  0  0  0  0  0  0  0
   10.9237   -0.9495    7.7324 C   0  0  0  0  0  0  0  0  0  0  0  0
   12.2586   -0.8544    7.3509 C   0  0  0  0  0  0  0  0  0  0  0  0
   13.1339    0.0133    7.9968 C   0  0  0  0  0  0  0  0  0  0  0  0
   14.4826    0.2103    7.7195 N   0  0  0  0  0  0  0  0  0  0  0  0
   14.9297    1.1528    8.6343 C   0  0  0  0  0  0  0  0  0  0  0  0
   16.0643    1.5936    8.7216 O   0  0  0  0  0  0  0  0  0  0  0  0
   14.9863   11.7658   15.7672 H   0  0  0  0  0  0  0  0  0  0  0  0
   14.1745   10.9512   14.6078 H   0  0  0  0  0  0  0  0  0  0  0  0
   15.0450   10.1345   15.7223 H   0  0  0  0  0  0  0  0  0  0  0  0
   17.0663   11.0497   14.8143 H   0  0  0  0  0  0  0  0  0  0  0  0
   16.1960   11.8665   13.6999 H   0  0  0  0  0  0  0  0  0  0  0  0
   17.3412    9.2836   11.7257 H   0  0  0  0  0  0  0  0  0  0  0  0
   18.2162    9.3164   13.1041 H   0  0  0  0  0  0  0  0  0  0  0  0
   18.8867   11.0996   11.6687 H   0  0  0  0  0  0  0  0  0  0  0  0
   17.3578   11.6731   11.6583 H   0  0  0  0  0  0  0  0  0  0  0  0
   18.2329   11.7059   13.0368 H   0  0  0  0  0  0  0  0  0  0  0  0
   15.2073    8.1263   13.6002 H   0  0  0  0  0  0  0  0  0  0  0  0
   15.7385    8.7680   15.0046 H   0  0  0  0  0  0  0  0  0  0  0  0
   17.4272    7.3543   15.0261 H   0  0  0  0  0  0  0  0  0  0  0  0
   17.9318    7.8961   13.5705 H   0  0  0  0  0  0  0  0  0  0  0  0
   16.1923    5.6167   14.0233 H   0  0  0  0  0  0  0  0  0  0  0  0
   12.9500    4.8673   11.0543 H   0  0  0  0  0  0  0  0  0  0  0  0
   13.6316    5.6729   12.3005 H   0  0  0  0  0  0  0  0  0  0  0  0
   13.9248    6.1451   10.7651 H   0  0  0  0  0  0  0  0  0  0  0  0
   18.8485    2.5872   11.4789 H   0  0  0  0  0  0  0  0  0  0  0  0
   19.0335    4.1729   11.1360 H   0  0  0  0  0  0  0  0  0  0  0  0
   18.7385    3.6983   12.6704 H   0  0  0  0  0  0  0  0  0  0  0  0
   16.5290    1.7122   10.7674 H   0  0  0  0  0  0  0  0  0  0  0  0
   12.9979    2.5620   10.9579 H   0  0  0  0  0  0  0  0  0  0  0  0
   10.9999    1.2762   10.1846 H   0  0  0  0  0  0  0  0  0  0  0  0
   10.3061   -1.5784    7.2601 H   0  0  0  0  0  0  0  0  0  0  0  0
   12.5952   -1.4203    6.5982 H   0  0  0  0  0  0  0  0  0  0  0  0
   15.0211   -0.2369    7.0054 H   0  0  0  0  0  0  0  0  0  0  0  0
   15.5241    9.9767   12.7040 H   0  0  0  0  0  0  0  0  0  0  0  0
  1  2  1  0  0  0  0
  2  3  1  0  0  0  0
  3  4  1  0  0  0  0
  3  6  1  0  0  0  0
  4  5  1  0  0  0  0
  6  7  1  0  0  0  0
  7  8  1  0  0  0  0
  8  9  1  0  0  0  0
  9 10  2  0  0  0  0
  9 11  1  0  0  0  0
 11 12  1  0  0  0  0
 11 14  2  0  0  0  0
 12 13  1  0  0  0  0
 12 17  2  0  0  0  0
 14 15  1  0  0  0  0
 14 16  1  0  0  0  0
 16 17  1  0  0  0  0
 17 18  1  0  0  0  0
 18 19  2  0  0  0  0
 19 20  1  0  0  0  0
 19 28  1  0  0  0  0
 20 21  2  0  0  0  0
 20 26  1  0  0  0  0
 21 22  1  0  0  0  0
 22 23  1  0  0  0  0
 22 24  2  0  0  0  0
 24 25  1  0  0  0  0
 25 26  2  0  0  0  0
 26 27  1  0  0  0  0
 27 28  1  0  0  0  0
 28 29  2  0  0  0  0
  1 30  1  0  0  0  0
  1 31  1  0  0  0  0
  1 32  1  0  0  0  0
  2 33  1  0  0  0  0
  2 34  1  0  0  0  0
  4 35  1  0  0  0  0
  4 36  1  0  0  0  0
  5 37  1  0  0  0  0
  5 38  1  0  0  0  0
  5 39  1  0  0  0  0
  6 40  1  0  0  0  0
  6 41  1  0  0  0  0
  7 42  1  0  0  0  0
  7 43  1  0  0  0  0
  8 44  1  0  0  0  0
 13 45  1  0  0  0  0
 13 46  1  0  0  0  0
 13 47  1  0  0  0  0
 15 48  1  0  0  0  0
 15 49  1  0  0  0  0
 15 50  1  0  0  0  0
 16 51  1  0  0  0  0
 18 52  1  0  0  0  0
 21 53  1  0  0  0  0
 24 54  1  0  0  0  0
 25 55  1  0  0  0  0
 27 56  1  0  0  0  0
  3 57  1  0  0  0  0
M  CHG  1   3   1
M  END
> <BIOSOLVEIT.HYDE_ESTIMATED_AFFINITY_LOWER_BOUNDARY [nM]>
1384.571395

> <BIOSOLVEIT.HYDE_ESTIMATED_AFFINITY_UPPER_BOUNDARY [nM]>
137565.354363

> <BIOSOLVEIT.HYDE_LIGAND_EFFICIENCY range: ++, +, 0, -, -->
-

> <BIOSOLVEIT.HYDE_LIGAND_LIPOPHILIC_EFFICIENCY range: ++, +, 0, -, -->
-

> <BIOSOLVEIT.LOGP>
2.43214

> <BIOSOLVEIT.MOLECULAR WEIGHT>
415.942

> <BIOSOLVEIT.MOLECULE_CHECKSUM>
LTI3Ljc0MTQ7MC45NTY2MDE=

> <BIOSOLVEIT.TPSA>
78.43

> <OPTIBRIUM.BBB category>
-

> <OPTIBRIUM.PPB90 category>
high

> <OPTIBRIUM.2C9 pKi>
5.51341

> <OPTIBRIUM.logS @ pH7.4>
1.85523

> <OPTIBRIUM.BBB log([brain]:[blood])>
-0.185714

> <OPTIBRIUM.2D6 affinity category>
medium

> <OPTIBRIUM.logS>
2.48239

> <OPTIBRIUM.logD>
2.25417

> <OPTIBRIUM.hERG pIC50>
4.27856

> <OPTIBRIUM.logP>
3.42691

> <OPTIBRIUM.HIA category>
+

> <OPTIBRIUM.P-gp category>
yes

$$$$
J60_A_1305_1_001
joSeeSAR  03092211313D 1   1.00000     0.00000     0
SeeSAR 11.2.2 jonathanwahrer
 57 59  0  0  0  0            999 V2000
   14.6056   10.0594   15.9578 C   0  0  0  0  0  0  0  0  0  0  0  0
   15.9727   10.4761   15.3895 C   0  0  0  0  0  0  0  0  0  0  0  0
   15.9550   10.3537   13.9096 N   0  3  0  0  0  0  0  0  0  0  0  0
   17.1743   10.9405   13.3003 C   0  0  0  0  0  0  0  0  0  0  0  0
   17.2772   12.4580   13.5338 C   0  0  0  0  0  0  0  0  0  0  0  0
   15.6914    8.9710   13.4173 C   0  0  0  0  0  0  0  0  0  0  0  0
   16.6843    7.8834   13.9019 C   0  0  0  0  0  0  0  0  0  0  0  0
   16.2496    6.6011   13.2872 N   0  0  0  0  0  0  0  0  0  0  0  0
   16.6611    6.1798   12.0887 C   0  0  0  0  0  0  0  0  0  0  0  0
   17.4387    6.8283   11.3967 O   0  0  0  0  0  0  0  0  0  0  0  0
   16.2190    4.8734   11.6343 C   0  0  0  0  0  0  0  0  0  0  0  0
   14.9022    4.5270   11.2631 C   0  0  0  0  0  0  0  0  0  0  0  0
   13.6883    5.4405   11.2629 C   0  0  0  0  0  0  0  0  0  0  0  0
   16.9935    3.7648   11.4877 C   0  0  0  0  0  0  0  0  0  0  0  0
   18.4830    3.6731   11.7752 C   0  0  0  0  0  0  0  0  0  0  0  0
   16.2072    2.7488   11.0422 N   0  0  0  0  0  0  0  0  0  0  0  0
   14.9338    3.2142   10.9056 C   0  0  0  0  0  0  0  0  0  0  0  0
   13.8372    2.4604   10.4662 C   0  0  0  0  0  0  0  0  0  0  0  0
   13.8290    1.5713    9.4871 C   0  0  0  0  0  0  0  0  0  0  0  0
   12.6932    0.7964    9.0383 C   0  0  0  0  0  0  0  0  0  0  0  0
   11.3583    0.7003    9.4243 C   0  0  0  0  0  0  0  0  0  0  0  0
   10.5130   -0.1946    8.7764 C   0  0  0  0  0  0  0  0  0  0  0  0
    8.8047   -0.3223    9.2590 Cl  0  0  0  0  0  0  0  0  0  0  0  0
   11.0069   -0.9923    7.7487 C   0  0  0  0  0  0  0  0  0  0  0  0
   12.3443   -0.8769    7.3823 C   0  0  0  0  0  0  0  0  0  0  0  0
   13.1944    0.0180    8.0250 C   0  0  0  0  0  0  0  0  0  0  0  0
   14.5423    0.2372    7.7613 N   0  0  0  0  0  0  0  0  0  0  0  0
   14.9591    1.2029    8.6662 C   0  0  0  0  0  0  0  0  0  0  0  0
   16.0837    1.6672    8.7604 O   0  0  0  0  0  0  0  0  0  0  0  0
   14.6194   10.1424   16.9543 H   0  0  0  0  0  0  0  0  0  0  0  0
   13.8938   10.6539   15.5837 H   0  0  0  0  0  0  0  0  0  0  0  0
   14.4146    9.1109   15.7050 H   0  0  0  0  0  0  0  0  0  0  0  0
   16.6841    9.8816   15.7642 H   0  0  0  0  0  0  0  0  0  0  0  0
   16.1634   11.4245   15.6429 H   0  0  0  0  0  0  0  0  0  0  0  0
   17.1554   10.7680   12.3155 H   0  0  0  0  0  0  0  0  0  0  0  0
   17.9772   10.4992   13.7008 H   0  0  0  0  0  0  0  0  0  0  0  0
   18.1117   12.8053   13.1061 H   0  0  0  0  0  0  0  0  0  0  0  0
   16.4824   12.9119   13.1308 H   0  0  0  0  0  0  0  0  0  0  0  0
   17.3042   12.6430   14.5161 H   0  0  0  0  0  0  0  0  0  0  0  0
   15.7206    8.9901   12.4179 H   0  0  0  0  0  0  0  0  0  0  0  0
   14.7752    8.7071   13.7190 H   0  0  0  0  0  0  0  0  0  0  0  0
   16.6584    7.8132   14.8991 H   0  0  0  0  0  0  0  0  0  0  0  0
   17.6129    8.1090   13.6075 H   0  0  0  0  0  0  0  0  0  0  0  0
   15.6145    6.0227   13.7992 H   0  0  0  0  0  0  0  0  0  0  0  0
   12.8865    4.9294   10.9534 H   0  0  0  0  0  0  0  0  0  0  0  0
   13.5285    5.7828   12.1887 H   0  0  0  0  0  0  0  0  0  0  0  0
   13.8509    6.2108   10.6461 H   0  0  0  0  0  0  0  0  0  0  0  0
   18.8030    2.7453   11.5835 H   0  0  0  0  0  0  0  0  0  0  0  0
   18.9749    4.3220   11.1948 H   0  0  0  0  0  0  0  0  0  0  0  0
   18.6509    3.8917   12.7365 H   0  0  0  0  0  0  0  0  0  0  0  0
   16.5123    1.8166   10.8476 H   0  0  0  0  0  0  0  0  0  0  0  0
   12.9708    2.6104   10.9425 H   0  0  0  0  0  0  0  0  0  0  0  0
   11.0083    1.2733   10.1653 H   0  0  0  0  0  0  0  0  0  0  0  0
   10.4078   -1.6406    7.2790 H   0  0  0  0  0  0  0  0  0  0  0  0
   12.7015   -1.4480    6.6431 H   0  0  0  0  0  0  0  0  0  0  0  0
   15.0985   -0.2105    7.0611 H   0  0  0  0  0  0  0  0  0  0  0  0
   15.1888   10.9129   13.5931 H   0  0  0  0  0  0  0  0  0  0  0  0
  1  2  1  0  0  0  0
  2  3  1  0  0  0  0
  3  4  1  0  0  0  0
  3  6  1  0  0  0  0
  4  5  1  0  0  0  0
  6  7  1  0  0  0  0
  7  8  1  0  0  0  0
  8  9  1  0  0  0  0
  9 10  2  0  0  0  0
  9 11  1  0  0  0  0
 11 12  1  0  0  0  0
 11 14  2  0  0  0  0
 12 13  1  0  0  0  0
 12 17  2  0  0  0  0
 14 15  1  0  0  0  0
 14 16  1  0  0  0  0
 16 17  1  0  0  0  0
 17 18  1  0  0  0  0
 18 19  2  0  0  0  0
 19 20  1  0  0  0  0
 19 28  1  0  0  0  0
 20 21  2  0  0  0  0
 20 26  1  0  0  0  0
 21 22  1  0  0  0  0
 22 23  1  0  0  0  0
 22 24  2  0  0  0  0
 24 25  1  0  0  0  0
 25 26  2  0  0  0  0
 26 27  1  0  0  0  0
 27 28  1  0  0  0  0
 28 29  2  0  0  0  0
  1 30  1  0  0  0  0
  1 31  1  0  0  0  0
  1 32  1  0  0  0  0
  2 33  1  0  0  0  0
  2 34  1  0  0  0  0
  4 35  1  0  0  0  0
  4 36  1  0  0  0  0
  5 37  1  0  0  0  0
  5 38  1  0  0  0  0
  5 39  1  0  0  0  0
  6 40  1  0  0  0  0
  6 41  1  0  0  0  0
  7 42  1  0  0  0  0
  7 43  1  0  0  0  0
  8 44  1  0  0  0  0
 13 45  1  0  0  0  0
 13 46  1  0  0  0  0
 13 47  1  0  0  0  0
 15 48  1  0  0  0  0
 15 49  1  0  0  0  0
 15 50  1  0  0  0  0
 16 51  1  0  0  0  0
 18 52  1  0  0  0  0
 21 53  1  0  0  0  0
 24 54  1  0  0  0  0
 25 55  1  0  0  0  0
 27 56  1  0  0  0  0
  3 57  1  0  0  0  0
M  CHG  1   3   1
M  END
> <BIOSOLVEIT.HYDE_ESTIMATED_AFFINITY_LOWER_BOUNDARY [nM]>
23224.114786

> <BIOSOLVEIT.HYDE_ESTIMATED_AFFINITY_UPPER_BOUNDARY [nM]>
2307453.115827

> <BIOSOLVEIT.HYDE_LIGAND_EFFICIENCY range: ++, +, 0, -, -->
--

> <BIOSOLVEIT.HYDE_LIGAND_LIPOPHILIC_EFFICIENCY range: ++, +, 0, -, -->
--

> <BIOSOLVEIT.LOGP>
2.43214

> <BIOSOLVEIT.MOLECULAR WEIGHT>
415.942

> <BIOSOLVEIT.MOLECULE_CHECKSUM>
LTIwLjc1MTM7MC43MTU1NjE=

> <BIOSOLVEIT.TPSA>
78.43

> <OPTIBRIUM.BBB category>
-

> <OPTIBRIUM.PPB90 category>
high

> <OPTIBRIUM.2C9 pKi>
5.51341

> <OPTIBRIUM.logS @ pH7.4>
1.85523

> <OPTIBRIUM.BBB log([brain]:[blood])>
-0.185714

> <OPTIBRIUM.2D6 affinity category>
medium

> <OPTIBRIUM.logS>
2.48239

> <OPTIBRIUM.logD>
2.25417

> <OPTIBRIUM.hERG pIC50>
4.27856

> <OPTIBRIUM.logP>
3.42691

> <OPTIBRIUM.HIA category>
+

> <OPTIBRIUM.P-gp category>
yes

$$$$
J60_A_1305_1_004
joSeeSAR  03092211313D 1   1.00000     0.00000     0
SeeSAR 11.2.2 jonathanwahrer
 57 59  0  0  0  0            999 V2000
   14.6045   10.0678   15.9556 C   0  0  0  0  0  0  0  0  0  0  0  0
   15.9755   10.4732   15.3884 C   0  0  0  0  0  0  0  0  0  0  0  0
   15.9571   10.3533   13.9083 N   0  3  0  0  0  0  0  0  0  0  0  0
   17.1754   10.9423   13.2993 C   0  0  0  0  0  0  0  0  0  0  0  0
   17.2768   12.4595   13.5349 C   0  0  0  0  0  0  0  0  0  0  0  0
   15.6947    8.9711   13.4137 C   0  0  0  0  0  0  0  0  0  0  0  0
   16.6846    7.8824   13.9020 C   0  0  0  0  0  0  0  0  0  0  0  0
   16.2500    6.6003   13.2870 N   0  0  0  0  0  0  0  0  0  0  0  0
   16.6625    6.1785   12.0891 C   0  0  0  0  0  0  0  0  0  0  0  0
   17.4414    6.8264   11.3980 O   0  0  0  0  0  0  0  0  0  0  0  0
   16.2202    4.8723   11.6345 C   0  0  0  0  0  0  0  0  0  0  0  0
   14.9033    4.5261   11.2634 C   0  0  0  0  0  0  0  0  0  0  0  0
   13.6895    5.4399   11.2638 C   0  0  0  0  0  0  0  0  0  0  0  0
   16.9945    3.7636   11.4872 C   0  0  0  0  0  0  0  0  0  0  0  0
   18.4840    3.6718   11.7743 C   0  0  0  0  0  0  0  0  0  0  0  0
   16.2081    2.7479   11.0416 N   0  0  0  0  0  0  0  0  0  0  0  0
   14.9347    3.2135   10.9054 C   0  0  0  0  0  0  0  0  0  0  0  0
   13.8379    2.4600   10.4661 C   0  0  0  0  0  0  0  0  0  0  0  0
   13.8293    1.5710    9.4868 C   0  0  0  0  0  0  0  0  0  0  0  0
   12.6932    0.7965    9.0381 C   0  0  0  0  0  0  0  0  0  0  0  0
   11.3584    0.7006    9.4242 C   0  0  0  0  0  0  0  0  0  0  0  0
   10.5129   -0.1941    8.7763 C   0  0  0  0  0  0  0  0  0  0  0  0
    8.8046   -0.3215    9.2591 Cl  0  0  0  0  0  0  0  0  0  0  0  0
   11.0064   -0.9917    7.7484 C   0  0  0  0  0  0  0  0  0  0  0  0
   12.3438   -0.8765    7.3818 C   0  0  0  0  0  0  0  0  0  0  0  0
   13.1941    0.0182    8.0245 C   0  0  0  0  0  0  0  0  0  0  0  0
   14.5421    0.2372    7.7606 N   0  0  0  0  0  0  0  0  0  0  0  0
   14.9592    1.2026    8.6657 C   0  0  0  0  0  0  0  0  0  0  0  0
   16.0839    1.6667    8.7597 O   0  0  0  0  0  0  0  0  0  0  0  0
   14.6188   10.1491   16.9521 H   0  0  0  0  0  0  0  0  0  0  0  0
   13.8982   10.6691   15.5821 H   0  0  0  0  0  0  0  0  0  0  0  0
   14.4051    9.1214   15.7012 H   0  0  0  0  0  0  0  0  0  0  0  0
   16.6814    9.8718   15.7623 H   0  0  0  0  0  0  0  0  0  0  0  0
   16.1744   11.4195   15.6432 H   0  0  0  0  0  0  0  0  0  0  0  0
   17.1563   10.7712   12.3142 H   0  0  0  0  0  0  0  0  0  0  0  0
   17.9790   10.5013   13.6988 H   0  0  0  0  0  0  0  0  0  0  0  0
   18.1108   12.8083   13.1073 H   0  0  0  0  0  0  0  0  0  0  0  0
   16.4814   12.9132   13.1329 H   0  0  0  0  0  0  0  0  0  0  0  0
   17.3040   12.6432   14.5175 H   0  0  0  0  0  0  0  0  0  0  0  0
   15.7283    8.9909   12.4145 H   0  0  0  0  0  0  0  0  0  0  0  0
   14.7770    8.7076   13.7112 H   0  0  0  0  0  0  0  0  0  0  0  0
   16.6559    7.8131   14.8992 H   0  0  0  0  0  0  0  0  0  0  0  0
   17.6144    8.1065   13.6101 H   0  0  0  0  0  0  0  0  0  0  0  0
   15.6139    6.0225   13.7984 H   0  0  0  0  0  0  0  0  0  0  0  0
   12.8875    4.9289   10.9544 H   0  0  0  0  0  0  0  0  0  0  0  0
   13.5299    5.7817   12.1898 H   0  0  0  0  0  0  0  0  0  0  0  0
   13.8520    6.2102   10.6473 H   0  0  0  0  0  0  0  0  0  0  0  0
   18.8040    2.7440   11.5822 H   0  0  0  0  0  0  0  0  0  0  0  0
   18.9760    4.3208   11.1941 H   0  0  0  0  0  0  0  0  0  0  0  0
   18.6524    3.8900   12.7356 H   0  0  0  0  0  0  0  0  0  0  0  0
   16.5130    1.8157   10.8466 H   0  0  0  0  0  0  0  0  0  0  0  0
   12.9716    2.6101   10.9425 H   0  0  0  0  0  0  0  0  0  0  0  0
   11.0087    1.2735   10.1655 H   0  0  0  0  0  0  0  0  0  0  0  0
   10.4071   -1.6398    7.2786 H   0  0  0  0  0  0  0  0  0  0  0  0
   12.7007   -1.4475    6.6424 H   0  0  0  0  0  0  0  0  0  0  0  0
   15.0981   -0.2106    7.0603 H   0  0  0  0  0  0  0  0  0  0  0  0
   15.1902   10.9123   13.5931 H   0  0  0  0  0  0  0  0  0  0  0  0
  1  2  1  0  0  0  0
  2  3  1  0  0  0  0
  3  4  1  0  0  0  0
  3  6  1  0  0  0  0
  4  5  1  0  0  0  0
  6  7  1  0  0  0  0
  7  8  1  0  0  0  0
  8  9  1  0  0  0  0
  9 10  2  0  0  0  0
  9 11  1  0  0  0  0
 11 12  1  0  0  0  0
 11 14  2  0  0  0  0
 12 13  1  0  0  0  0
 12 17  2  0  0  0  0
 14 15  1  0  0  0  0
 14 16  1  0  0  0  0
 16 17  1  0  0  0  0
 17 18  1  0  0  0  0
 18 19  2  0  0  0  0
 19 20  1  0  0  0  0
 19 28  1  0  0  0  0
 20 21  2  0  0  0  0
 20 26  1  0  0  0  0
 21 22  1  0  0  0  0
 22 23  1  0  0  0  0
 22 24  2  0  0  0  0
 24 25  1  0  0  0  0
 25 26  2  0  0  0  0
 26 27  1  0  0  0  0
 27 28  1  0  0  0  0
 28 29  2  0  0  0  0
  1 30  1  0  0  0  0
  1 31  1  0  0  0  0
  1 32  1  0  0  0  0
  2 33  1  0  0  0  0
  2 34  1  0  0  0  0
  4 35  1  0  0  0  0
  4 36  1  0  0  0  0
  5 37  1  0  0  0  0
  5 38  1  0  0  0  0
  5 39  1  0  0  0  0
  6 40  1  0  0  0  0
  6 41  1  0  0  0  0
  7 42  1  0  0  0  0
  7 43  1  0  0  0  0
  8 44  1  0  0  0  0
 13 45  1  0  0  0  0
 13 46  1  0  0  0  0
 13 47  1  0  0  0  0
 15 48  1  0  0  0  0
 15 49  1  0  0  0  0
 15 50  1  0  0  0  0
 16 51  1  0  0  0  0
 18 52  1  0  0  0  0
 21 53  1  0  0  0  0
 24 54  1  0  0  0  0
 25 55  1  0  0  0  0
 27 56  1  0  0  0  0
  3 57  1  0  0  0  0
M  CHG  1   3   1
M  END
> <BIOSOLVEIT.HYDE_ESTIMATED_AFFINITY_LOWER_BOUNDARY [nM]>
23572.615065

> <BIOSOLVEIT.HYDE_ESTIMATED_AFFINITY_UPPER_BOUNDARY [nM]>
2342078.679044

> <BIOSOLVEIT.HYDE_LIGAND_EFFICIENCY range: ++, +, 0, -, -->
--

> <BIOSOLVEIT.HYDE_LIGAND_LIPOPHILIC_EFFICIENCY range: ++, +, 0, -, -->
--

> <BIOSOLVEIT.LOGP>
2.43214

> <BIOSOLVEIT.MOLECULAR WEIGHT>
415.942

> <BIOSOLVEIT.MOLECULE_CHECKSUM>
LTIwLjcxNDM7MC43MTQyODg=

> <BIOSOLVEIT.TPSA>
78.43

> <OPTIBRIUM.BBB category>
-

> <OPTIBRIUM.PPB90 category>
high

> <OPTIBRIUM.2C9 pKi>
5.51341

> <OPTIBRIUM.logS @ pH7.4>
1.85523

> <OPTIBRIUM.BBB log([brain]:[blood])>
-0.185714

> <OPTIBRIUM.2D6 affinity category>
medium

> <OPTIBRIUM.logS>
2.48239

> <OPTIBRIUM.logD>
2.25417

> <OPTIBRIUM.hERG pIC50>
4.27856

> <OPTIBRIUM.logP>
3.42691

> <OPTIBRIUM.HIA category>
+

> <OPTIBRIUM.P-gp category>
yes

$$$$
J60_A_1305_1_006
joSeeSAR  03092211313D 1   1.00000     0.00000     0
SeeSAR 11.2.2 jonathanwahrer
 57 59  0  0  0  0            999 V2000
   14.3722    9.5461   15.8164 C   0  0  0  0  0  0  0  0  0  0  0  0
   15.7105   10.1795   15.4001 C   0  0  0  0  0  0  0  0  0  0  0  0
   15.8048   10.2155   13.9185 N   0  3  0  0  0  0  0  0  0  0  0  0
   17.0306   10.9200   13.4679 C   0  0  0  0  0  0  0  0  0  0  0  0
   17.0173   12.4153   13.8311 C   0  0  0  0  0  0  0  0  0  0  0  0
   15.6522    8.8825   13.2673 C   0  0  0  0  0  0  0  0  0  0  0  0
   16.7360    8.5170   12.2205 C   0  0  0  0  0  0  0  0  0  0  0  0
   16.4084    7.1553   11.7214 N   0  0  0  0  0  0  0  0  0  0  0  0
   16.7048    6.0345   12.3843 C   0  0  0  0  0  0  0  0  0  0  0  0
   17.2773    6.0458   13.4688 O   0  0  0  0  0  0  0  0  0  0  0  0
   16.2641    4.7705   11.8216 C   0  0  0  0  0  0  0  0  0  0  0  0
   14.9369    4.4333   11.4800 C   0  0  0  0  0  0  0  0  0  0  0  0
   13.7084    5.3146   11.6296 C   0  0  0  0  0  0  0  0  0  0  0  0
   17.0499    3.7000   11.5271 C   0  0  0  0  0  0  0  0  0  0  0  0
   18.5531    3.6137   11.7330 C   0  0  0  0  0  0  0  0  0  0  0  0
   16.2608    2.7162   11.0190 N   0  0  0  0  0  0  0  0  0  0  0  0
   14.9741    3.1640   10.9906 C   0  0  0  0  0  0  0  0  0  0  0  0
   13.8707    2.4335   10.5296 C   0  0  0  0  0  0  0  0  0  0  0  0
   13.8575    1.5629    9.5339 C   0  0  0  0  0  0  0  0  0  0  0  0
   12.7147    0.8120    9.0631 C   0  0  0  0  0  0  0  0  0  0  0  0
   11.3759    0.7267    9.4380 C   0  0  0  0  0  0  0  0  0  0  0  0
   10.5233   -0.1446    8.7676 C   0  0  0  0  0  0  0  0  0  0  0  0
    8.8101   -0.2581    9.2360 Cl  0  0  0  0  0  0  0  0  0  0  0  0
   11.0138   -0.9293    7.7285 C   0  0  0  0  0  0  0  0  0  0  0  0
   12.3552   -0.8252    7.3734 C   0  0  0  0  0  0  0  0  0  0  0  0
   13.2126    0.0460    8.0386 C   0  0  0  0  0  0  0  0  0  0  0  0
   14.5652    0.2518    7.7882 N   0  0  0  0  0  0  0  0  0  0  0  0
   14.9885    1.1947    8.7140 C   0  0  0  0  0  0  0  0  0  0  0  0
   16.1184    1.6421    8.8245 O   0  0  0  0  0  0  0  0  0  0  0  0
   14.3105    9.5228   16.8143 H   0  0  0  0  0  0  0  0  0  0  0  0
   13.6176   10.0894   15.4485 H   0  0  0  0  0  0  0  0  0  0  0  0
   14.3183    8.6144   15.4573 H   0  0  0  0  0  0  0  0  0  0  0  0
   16.4649    9.6362   15.7685 H   0  0  0  0  0  0  0  0  0  0  0  0
   15.7641   11.1111   15.7597 H   0  0  0  0  0  0  0  0  0  0  0  0
   17.1045   10.8318   12.4745 H   0  0  0  0  0  0  0  0  0  0  0  0
   17.8240   10.4919   13.9005 H   0  0  0  0  0  0  0  0  0  0  0  0
   17.8608   12.8443   13.5077 H   0  0  0  0  0  0  0  0  0  0  0  0
   16.2316   12.8565   13.3978 H   0  0  0  0  0  0  0  0  0  0  0  0
   16.9512   12.5166   14.8238 H   0  0  0  0  0  0  0  0  0  0  0  0
   14.7638    8.8647   12.8086 H   0  0  0  0  0  0  0  0  0  0  0  0
   15.6709    8.1862   13.9848 H   0  0  0  0  0  0  0  0  0  0  0  0
   17.6407    8.5192   12.6464 H   0  0  0  0  0  0  0  0  0  0  0  0
   16.7211    9.1731   11.4660 H   0  0  0  0  0  0  0  0  0  0  0  0
   15.9404    7.0743   10.8414 H   0  0  0  0  0  0  0  0  0  0  0  0
   12.9015    4.8190   11.3084 H   0  0  0  0  0  0  0  0  0  0  0  0
   13.5885    5.5588   12.5919 H   0  0  0  0  0  0  0  0  0  0  0  0
   13.8267    6.1462   11.0870 H   0  0  0  0  0  0  0  0  0  0  0  0
   18.8798    2.7172   11.4336 H   0  0  0  0  0  0  0  0  0  0  0  0
   19.0044    4.3285   11.1987 H   0  0  0  0  0  0  0  0  0  0  0  0
   18.7645    3.7387   12.7024 H   0  0  0  0  0  0  0  0  0  0  0  0
   16.5723    1.8153   10.7169 H   0  0  0  0  0  0  0  0  0  0  0  0
   13.0030    2.5862   11.0027 H   0  0  0  0  0  0  0  0  0  0  0  0
   11.0284    1.2904   10.1873 H   0  0  0  0  0  0  0  0  0  0  0  0
   10.4093   -1.5607    7.2426 H   0  0  0  0  0  0  0  0  0  0  0  0
   12.7099   -1.3871    6.6262 H   0  0  0  0  0  0  0  0  0  0  0  0
   15.1202   -0.1902    7.0836 H   0  0  0  0  0  0  0  0  0  0  0  0
   15.0338   10.7690   13.6037 H   0  0  0  0  0  0  0  0  0  0  0  0
  1  2  1  0  0  0  0
  2  3  1  0  0  0  0
  3  4  1  0  0  0  0
  3  6  1  0  0  0  0
  4  5  1  0  0  0  0
  6  7  1  0  0  0  0
  7  8  1  0  0  0  0
  8  9  1  0  0  0  0
  9 10  2  0  0  0  0
  9 11  1  0  0  0  0
 11 12  1  0  0  0  0
 11 14  2  0  0  0  0
 12 13  1  0  0  0  0
 12 17  2  0  0  0  0
 14 15  1  0  0  0  0
 14 16  1  0  0  0  0
 16 17  1  0  0  0  0
 17 18  1  0  0  0  0
 18 19  2  0  0  0  0
 19 20  1  0  0  0  0
 19 28  1  0  0  0  0
 20 21  2  0  0  0  0
 20 26  1  0  0  0  0
 21 22  1  0  0  0  0
 22 23  1  0  0  0  0
 22 24  2  0  0  0  0
 24 25  1  0  0  0  0
 25 26  2  0  0  0  0
 26 27  1  0  0  0  0
 27 28  1  0  0  0  0
 28 29  2  0  0  0  0
  1 30  1  0  0  0  0
  1 31  1  0  0  0  0
  1 32  1  0  0  0  0
  2 33  1  0  0  0  0
  2 34  1  0  0  0  0
  4 35  1  0  0  0  0
  4 36  1  0  0  0  0
  5 37  1  0  0  0  0
  5 38  1  0  0  0  0
  5 39  1  0  0  0  0
  6 40  1  0  0  0  0
  6 41  1  0  0  0  0
  7 42  1  0  0  0  0
  7 43  1  0  0  0  0
  8 44  1  0  0  0  0
 13 45  1  0  0  0  0
 13 46  1  0  0  0  0
 13 47  1  0  0  0  0
 15 48  1  0  0  0  0
 15 49  1  0  0  0  0
 15 50  1  0  0  0  0
 16 51  1  0  0  0  0
 18 52  1  0  0  0  0
 21 53  1  0  0  0  0
 24 54  1  0  0  0  0
 25 55  1  0  0  0  0
 27 56  1  0  0  0  0
  3 57  1  0  0  0  0
M  CHG  1   3   1
M  END
> <BIOSOLVEIT.HYDE_ESTIMATED_AFFINITY_LOWER_BOUNDARY [nM]>
45603.494606

> <BIOSOLVEIT.HYDE_ESTIMATED_AFFINITY_UPPER_BOUNDARY [nM]>
4530976.818326

> <BIOSOLVEIT.HYDE_LIGAND_EFFICIENCY range: ++, +, 0, -, -->
--

> <BIOSOLVEIT.HYDE_LIGAND_LIPOPHILIC_EFFICIENCY range: ++, +, 0, -, -->
--

> <BIOSOLVEIT.LOGP>
2.43214

> <BIOSOLVEIT.MOLECULAR WEIGHT>
415.942

> <BIOSOLVEIT.MOLECULE_CHECKSUM>
LTE5LjA3ODU7MC42NTc4Nzk=

> <BIOSOLVEIT.TPSA>
78.43

> <OPTIBRIUM.BBB category>
-

> <OPTIBRIUM.PPB90 category>
high

> <OPTIBRIUM.2C9 pKi>
5.51341

> <OPTIBRIUM.logS @ pH7.4>
1.85523

> <OPTIBRIUM.BBB log([brain]:[blood])>
-0.185714

> <OPTIBRIUM.2D6 affinity category>
medium

> <OPTIBRIUM.logS>
2.48239

> <OPTIBRIUM.logD>
2.25417

> <OPTIBRIUM.hERG pIC50>
4.27856

> <OPTIBRIUM.logP>
3.42691

> <OPTIBRIUM.HIA category>
+

> <OPTIBRIUM.P-gp category>
yes

$$$$
J60_A_1305_1_009
joSeeSAR  03092211313D 1   1.00000     0.00000     0
SeeSAR 11.2.2 jonathanwahrer
 57 59  0  0  0  0            999 V2000
   15.1562   11.5690   15.9336 C   0  0  0  0  0  0  0  0  0  0  0  0
   15.6059   10.1848   15.4363 C   0  0  0  0  0  0  0  0  0  0  0  0
   15.7566   10.2113   13.9592 N   0  3  0  0  0  0  0  0  0  0  0  0
   17.0071   10.8986   13.5518 C   0  0  0  0  0  0  0  0  0  0  0  0
   18.1949   10.5503   14.4659 C   0  0  0  0  0  0  0  0  0  0  0  0
   15.6126    8.8767   13.3095 C   0  0  0  0  0  0  0  0  0  0  0  0
   16.6589    8.5449   12.2145 C   0  0  0  0  0  0  0  0  0  0  0  0
   16.3427    7.1793   11.7186 N   0  0  0  0  0  0  0  0  0  0  0  0
   16.6616    6.0621   12.3771 C   0  0  0  0  0  0  0  0  0  0  0  0
   17.2471    6.0803   13.4546 O   0  0  0  0  0  0  0  0  0  0  0  0
   16.2303    4.7928   11.8192 C   0  0  0  0  0  0  0  0  0  0  0  0
   14.9070    4.4475   11.4710 C   0  0  0  0  0  0  0  0  0  0  0  0
   13.6735    5.3239   11.6075 C   0  0  0  0  0  0  0  0  0  0  0  0
   17.0230    3.7242   11.5361 C   0  0  0  0  0  0  0  0  0  0  0  0
   18.5253    3.6462   11.7522 C   0  0  0  0  0  0  0  0  0  0  0  0
   16.2416    2.7338   11.0287 N   0  0  0  0  0  0  0  0  0  0  0  0
   14.9532    3.1755   10.9894 C   0  0  0  0  0  0  0  0  0  0  0  0
   13.8561    2.4371   10.5257 C   0  0  0  0  0  0  0  0  0  0  0  0
   13.8522    1.5643    9.5318 C   0  0  0  0  0  0  0  0  0  0  0  0
   12.7159    0.8053    9.0581 C   0  0  0  0  0  0  0  0  0  0  0  0
   11.3762    0.7126    9.4279 C   0  0  0  0  0  0  0  0  0  0  0  0
   10.5318   -0.1653    8.7561 C   0  0  0  0  0  0  0  0  0  0  0  0
    8.8174   -0.2885    9.2180 Cl  0  0  0  0  0  0  0  0  0  0  0  0
   11.0312   -0.9495    7.7207 C   0  0  0  0  0  0  0  0  0  0  0  0
   12.3733   -0.8378    7.3708 C   0  0  0  0  0  0  0  0  0  0  0  0
   13.2226    0.0402    8.0374 C   0  0  0  0  0  0  0  0  0  0  0  0
   14.5749    0.2539    7.7919 N   0  0  0  0  0  0  0  0  0  0  0  0
   14.9887    1.2013    8.7172 C   0  0  0  0  0  0  0  0  0  0  0  0
   16.1155    1.6558    8.8313 O   0  0  0  0  0  0  0  0  0  0  0  0
   15.0553   11.5492   16.9284 H   0  0  0  0  0  0  0  0  0  0  0  0
   15.8412   12.2525   15.6816 H   0  0  0  0  0  0  0  0  0  0  0  0
   14.2796   11.8052   15.5144 H   0  0  0  0  0  0  0  0  0  0  0  0
   14.9207    9.5016   15.6888 H   0  0  0  0  0  0  0  0  0  0  0  0
   16.4824    9.9489   15.8561 H   0  0  0  0  0  0  0  0  0  0  0  0
   16.8556   11.8865   13.5850 H   0  0  0  0  0  0  0  0  0  0  0  0
   17.2321   10.6272   12.6160 H   0  0  0  0  0  0  0  0  0  0  0  0
   19.0107   11.0359   14.1519 H   0  0  0  0  0  0  0  0  0  0  0  0
   17.9846   10.8241   15.4045 H   0  0  0  0  0  0  0  0  0  0  0  0
   18.3612    9.5648   14.4355 H   0  0  0  0  0  0  0  0  0  0  0  0
   14.7056    8.8355   12.8902 H   0  0  0  0  0  0  0  0  0  0  0  0
   15.6823    8.1789   14.0224 H   0  0  0  0  0  0  0  0  0  0  0  0
   17.5808    8.5658   12.6015 H   0  0  0  0  0  0  0  0  0  0  0  0
   16.5962    9.2059   11.4667 H   0  0  0  0  0  0  0  0  0  0  0  0
   15.8651    7.0926   10.8443 H   0  0  0  0  0  0  0  0  0  0  0  0
   12.8709    4.8227   11.2840 H   0  0  0  0  0  0  0  0  0  0  0  0
   13.5463    5.5732   12.5676 H   0  0  0  0  0  0  0  0  0  0  0  0
   13.7915    6.1529   11.0607 H   0  0  0  0  0  0  0  0  0  0  0  0
   18.8579    2.7494   11.4601 H   0  0  0  0  0  0  0  0  0  0  0  0
   18.9766    4.3598   11.2165 H   0  0  0  0  0  0  0  0  0  0  0  0
   18.7298    3.7779   12.7221 H   0  0  0  0  0  0  0  0  0  0  0  0
   16.5592    1.8326   10.7340 H   0  0  0  0  0  0  0  0  0  0  0  0
   12.9857    2.5856   10.9949 H   0  0  0  0  0  0  0  0  0  0  0  0
   11.0223    1.2758   10.1745 H   0  0  0  0  0  0  0  0  0  0  0  0
   10.4326   -1.5856    7.2339 H   0  0  0  0  0  0  0  0  0  0  0  0
   12.7344   -1.3992    6.6262 H   0  0  0  0  0  0  0  0  0  0  0  0
   15.1355   -0.1863    7.0906 H   0  0  0  0  0  0  0  0  0  0  0  0
   15.0048   10.7723   13.6126 H   0  0  0  0  0  0  0  0  0  0  0  0
  1  2  1  0  0  0  0
  2  3  1  0  0  0  0
  3  4  1  0  0  0  0
  3  6  1  0  0  0  0
  4  5  1  0  0  0  0
  6  7  1  0  0  0  0
  7  8  1  0  0  0  0
  8  9  1  0  0  0  0
  9 10  2  0  0  0  0
  9 11  1  0  0  0  0
 11 12  1  0  0  0  0
 11 14  2  0  0  0  0
 12 13  1  0  0  0  0
 12 17  2  0  0  0  0
 14 15  1  0  0  0  0
 14 16  1  0  0  0  0
 16 17  1  0  0  0  0
 17 18  1  0  0  0  0
 18 19  2  0  0  0  0
 19 20  1  0  0  0  0
 19 28  1  0  0  0  0
 20 21  2  0  0  0  0
 20 26  1  0  0  0  0
 21 22  1  0  0  0  0
 22 23  1  0  0  0  0
 22 24  2  0  0  0  0
 24 25  1  0  0  0  0
 25 26  2  0  0  0  0
 26 27  1  0  0  0  0
 27 28  1  0  0  0  0
 28 29  2  0  0  0  0
  1 30  1  0  0  0  0
  1 31  1  0  0  0  0
  1 32  1  0  0  0  0
  2 33  1  0  0  0  0
  2 34  1  0  0  0  0
  4 35  1  0  0  0  0
  4 36  1  0  0  0  0
  5 37  1  0  0  0  0
  5 38  1  0  0  0  0
  5 39  1  0  0  0  0
  6 40  1  0  0  0  0
  6 41  1  0  0  0  0
  7 42  1  0  0  0  0
  7 43  1  0  0  0  0
  8 44  1  0  0  0  0
 13 45  1  0  0  0  0
 13 46  1  0  0  0  0
 13 47  1  0  0  0  0
 15 48  1  0  0  0  0
 15 49  1  0  0  0  0
 15 50  1  0  0  0  0
 16 51  1  0  0  0  0
 18 52  1  0  0  0  0
 21 53  1  0  0  0  0
 24 54  1  0  0  0  0
 25 55  1  0  0  0  0
 27 56  1  0  0  0  0
  3 57  1  0  0  0  0
M  CHG  1   3   1
M  END
> <BIOSOLVEIT.HYDE_ESTIMATED_AFFINITY_LOWER_BOUNDARY [nM]>
45914.533318

> <BIOSOLVEIT.HYDE_ESTIMATED_AFFINITY_UPPER_BOUNDARY [nM]>
4561880.353386

> <BIOSOLVEIT.HYDE_LIGAND_EFFICIENCY range: ++, +, 0, -, -->
--

> <BIOSOLVEIT.HYDE_LIGAND_LIPOPHILIC_EFFICIENCY range: ++, +, 0, -, -->
--

> <BIOSOLVEIT.LOGP>
2.43214

> <BIOSOLVEIT.MOLECULAR WEIGHT>
415.942

> <BIOSOLVEIT.MOLECULE_CHECKSUM>
LTE5LjA2MTY7MC42NTcyOTg=

> <BIOSOLVEIT.TPSA>
78.43

> <OPTIBRIUM.BBB category>
-

> <OPTIBRIUM.PPB90 category>
high

> <OPTIBRIUM.2C9 pKi>
5.51341

> <OPTIBRIUM.logS @ pH7.4>
1.85523

> <OPTIBRIUM.BBB log([brain]:[blood])>
-0.185714

> <OPTIBRIUM.2D6 affinity category>
medium

> <OPTIBRIUM.logS>
2.48239

> <OPTIBRIUM.logD>
2.25417

> <OPTIBRIUM.hERG pIC50>
4.27856

> <OPTIBRIUM.logP>
3.42691

> <OPTIBRIUM.HIA category>
+

> <OPTIBRIUM.P-gp category>
yes

$$$$
