# created with PyMOL 2.5.2
@<TRIPOS>MOLECULE
J60_A_1305_1_007
57 59 1                 
SMALL
USER_CHARGES
@<TRIPOS>ATOM
1	   C	16.553	8.308	10.721	C.3	1	UNK0	0.000	
2	   C	15.210	8.086	11.437	C.3	1	UNK0	0.000	
3	   N	15.260	8.697	12.789	N.4	1	UNK0	0.000	
4	   C	14.105	8.277	13.620	C.3	1	UNK0	0.000	
5	   C	12.757	8.513	12.916	C.3	1	UNK0	0.000	
6	   C	16.559	8.504	13.496	C.3	1	UNK0	0.000	
7	   C	16.633	7.280	14.445	C.3	1	UNK0	0.000	
8	   N	16.202	6.097	13.654	N.pl3	1	UNK0	0.000	
9	   C	16.883	5.619	12.609	C.2	1	UNK0	0.000	
10	   O	17.930	6.127	12.220	O.2	1	UNK0	0.000	
11	   C	16.392	4.413	11.967	C.2	1	UNK0	0.000	
12	   C	15.047	4.134	11.645	C.2	1	UNK0	0.000	
13	   C	13.847	5.031	11.901	C.3	1	UNK0	0.000	
14	   C	17.140	3.349	11.567	C.2	1	UNK0	0.000	
15	   C	18.646	3.212	11.716	C.3	1	UNK0	0.000	
16	   N	16.310	2.427	11.012	N.pl3	1	UNK0	0.000	
17	   C	15.035	2.906	11.059	C.2	1	UNK0	0.000	
18	   C	13.899	2.239	10.581	C.2	1	UNK0	0.000	
19	   C	13.839	1.424	9.541	C.2	1	UNK0	0.000	
20	   C	12.663	0.739	9.052	C.2	1	UNK0	0.000	
21	   C	11.328	0.680	9.447	C.2	1	UNK0	0.000	
22	   C	10.434	-0.124	8.748	C.2	1	UNK0	0.000	
23	  Cl	8.726	-0.204	9.241	Cl	1	UNK0	0.000	
24	   C	10.880	-0.869	7.660	C.2	1	UNK0	0.000	
25	   C	12.218	-0.793	7.286	C.2	1	UNK0	0.000	
26	   C	13.116	0.012	7.980	C.2	1	UNK0	0.000	
27	   N	14.471	0.184	7.716	N.pl3	1	UNK0	0.000	
28	   C	14.943	1.061	8.682	C.2	1	UNK0	0.000	
29	   O	16.089	1.463	8.796	O.2	1	UNK0	0.000	
30	   H	16.518	7.895	9.811	 H	1	UNK0	0.000	
31	   H	16.728	9.289	10.636	 H	1	UNK0	0.000	
32	   H	17.288	7.883	11.251	 H	1	UNK0	0.000	
33	   H	15.036	7.105	11.521	 H	1	UNK0	0.000	
34	   H	14.477	8.511	10.907	 H	1	UNK0	0.000	
35	   H	14.116	8.797	14.473	 H	1	UNK0	0.000	
36	   H	14.194	7.302	13.823	 H	1	UNK0	0.000	
37	   H	12.012	8.215	13.513	 H	1	UNK0	0.000	
38	   H	12.653	9.487	12.714	 H	1	UNK0	0.000	
39	   H	12.730	7.991	12.064	 H	1	UNK0	0.000	
40	   H	16.738	9.325	14.039	 H	1	UNK0	0.000	
41	   H	17.273	8.400	12.804	 H	1	UNK0	0.000	
42	   H	16.024	7.412	15.226	 H	1	UNK0	0.000	
43	   H	17.570	7.153	14.771	 H	1	UNK0	0.000	
44	   H	15.356	5.635	13.918	 H	1	UNK0	0.000	
45	   H	13.018	4.581	11.570	 H	1	UNK0	0.000	
46	   H	13.764	5.203	12.883	 H	1	UNK0	0.000	
47	   H	13.970	5.898	11.420	 H	1	UNK0	0.000	
48	   H	18.940	2.333	11.339	 H	1	UNK0	0.000	
49	   H	19.099	3.954	11.223	 H	1	UNK0	0.000	
50	   H	18.891	3.257	12.684	 H	1	UNK0	0.000	
51	   H	16.588	1.544	10.632	 H	1	UNK0	0.000	
52	   H	13.045	2.396	11.077	 H	1	UNK0	0.000	
53	   H	11.013	1.214	10.231	 H	1	UNK0	0.000	
54	   H	10.245	-1.452	7.152	 H	1	UNK0	0.000	
55	   H	12.540	-1.326	6.504	 H	1	UNK0	0.000	
56	   H	14.998	-0.238	6.979	 H	1	UNK0	0.000	
57	   H	15.161	9.683	12.653	 H	1	UNK0	0.000	
@<TRIPOS>BOND
1 1 2 1
2 2 3 1
3 3 4 1
4 3 6 1
5 4 5 1
6 6 7 1
7 7 8 1
8 8 9 1
9 9 10 2
10 9 11 1
11 11 12 1
12 11 14 2
13 12 13 1
14 12 17 2
15 14 15 1
16 14 16 1
17 16 17 1
18 17 18 1
19 18 19 2
20 19 20 1
21 19 28 1
22 20 21 2
23 20 26 1
24 21 22 1
25 22 23 1
26 22 24 2
27 24 25 1
28 25 26 2
29 26 27 1
30 27 28 1
31 28 29 2
32 1 30 1
33 1 31 1
34 1 32 1
35 2 33 1
36 2 34 1
37 4 35 1
38 4 36 1
39 5 37 1
40 5 38 1
41 5 39 1
42 6 40 1
43 6 41 1
44 7 42 1
45 7 43 1
46 8 44 1
47 13 45 1
48 13 46 1
49 13 47 1
50 15 48 1
51 15 49 1
52 15 50 1
53 16 51 1
54 18 52 1
55 21 53 1
56 24 54 1
57 25 55 1
58 27 56 1
59 3 57 1
@<TRIPOS>SUBSTRUCTURE
1	UNK0	1	GROUP	1 ****	UNK
