35F_B_2_1_002
joSeeSAR  03092211433D 1   1.00000     0.00000     0
SeeSAR 11.2.2 jonathanwahrer
 42 46  0  0  0  0            999 V2000
  -40.2503  -67.9765   52.3235 C   0  0  0  0  0  0  0  0  0  0  0  0
  -40.8029  -68.4498   53.5072 C   0  0  0  0  0  0  0  0  0  0  0  0
  -40.2011  -69.4401   54.2406 C   0  0  0  0  0  0  0  0  0  0  0  0
  -42.9597  -67.1196   53.8360 C   0  0  0  0  0  0  0  0  0  0  0  0
  -44.8363  -65.2074   53.1132 C   0  0  0  0  0  0  0  0  0  0  0  0
  -43.9432  -66.7362   54.7415 C   0  0  0  0  0  0  0  0  0  0  0  0
  -38.4717  -68.0512   50.6624 C   0  0  0  0  0  0  0  0  0  0  0  0
  -37.1358  -67.7150   49.0001 C   0  0  0  0  0  0  0  0  0  0  0  0
  -43.8330  -63.7155   50.6551 C   0  0  0  0  0  0  0  0  0  0  0  0
  -43.7875  -63.3330   49.3724 C   0  0  0  0  0  0  0  0  0  0  0  0
  -43.0736  -62.8440   47.3427 C   0  0  0  0  0  0  0  0  0  0  0  0
  -43.9139  -62.8779   51.5307 O   0  0  0  0  0  0  0  0  0  0  0  0
  -44.8055  -62.9303   48.6492 O   0  0  0  0  0  0  0  0  0  0  0  0
  -44.4179  -62.6273   47.4290 C   0  0  0  0  0  0  0  0  0  0  0  0
  -42.6586  -63.3026   48.6115 C   0  0  0  0  0  0  0  0  0  0  0  0
  -43.7988  -65.0215   50.9365 N   0  0  0  0  0  0  0  0  0  0  0  0
  -43.8482  -65.5961   52.2126 C   0  0  0  0  0  0  0  0  0  0  0  0
  -42.9038  -66.5538   52.5667 C   0  0  0  0  0  0  0  0  0  0  0  0
  -44.8857  -65.7785   54.3811 C   0  0  0  0  0  0  0  0  0  0  0  0
  -41.9786  -68.1182   54.2138 C   0  0  0  0  0  0  0  0  0  0  0  0
  -42.0250  -68.8798   55.2780 N   0  0  0  0  0  0  0  0  0  0  0  0
  -40.9850  -69.6826   55.3319 N   0  0  0  0  0  0  0  0  0  0  0  0
  -39.0026  -69.9999   53.8098 C   0  0  0  0  0  0  0  0  0  0  0  0
  -38.4291  -69.5420   52.6291 C   0  0  0  0  0  0  0  0  0  0  0  0
  -39.0535  -68.5391   51.8961 C   0  0  0  0  0  0  0  0  0  0  0  0
  -37.3071  -68.3976   50.1695 N   0  0  0  0  0  0  0  0  0  0  0  0
  -38.2122  -66.9698   48.8256 N   0  0  0  0  0  0  0  0  0  0  0  0
  -39.0532  -67.1564   49.8163 N   0  0  0  0  0  0  0  0  0  0  0  0
  -40.6988  -67.2548   51.7965 H   0  0  0  0  0  0  0  0  0  0  0  0
  -45.5105  -64.5178   52.8489 H   0  0  0  0  0  0  0  0  0  0  0  0
  -43.9731  -67.1491   55.6517 H   0  0  0  0  0  0  0  0  0  0  0  0
  -36.3449  -67.7689   48.3905 H   0  0  0  0  0  0  0  0  0  0  0  0
  -42.4958  -62.7051   46.5385 H   0  0  0  0  0  0  0  0  0  0  0  0
  -45.0068  -62.2956   46.6921 H   0  0  0  0  0  0  0  0  0  0  0  0
  -41.7318  -63.5524   48.8921 H   0  0  0  0  0  0  0  0  0  0  0  0
  -43.7316  -65.6491   50.1609 H   0  0  0  0  0  0  0  0  0  0  0  0
  -42.1950  -66.8315   51.9182 H   0  0  0  0  0  0  0  0  0  0  0  0
  -45.5948  -65.5020   55.0297 H   0  0  0  0  0  0  0  0  0  0  0  0
  -40.7999  -70.3549   56.0487 H   0  0  0  0  0  0  0  0  0  0  0  0
  -38.5597  -70.7215   54.3420 H   0  0  0  0  0  0  0  0  0  0  0  0
  -37.5674  -69.9339   52.3069 H   0  0  0  0  0  0  0  0  0  0  0  0
  -39.9482  -66.7246   49.9283 H   0  0  0  0  0  0  0  0  0  0  0  0
  1  2  2  0  0  0  0
  1 25  1  0  0  0  0
  2  3  1  0  0  0  0
  2 20  1  0  0  0  0
  3 22  1  0  0  0  0
  3 23  2  0  0  0  0
  4  6  2  0  0  0  0
  4 18  1  0  0  0  0
  4 20  1  0  0  0  0
  5 17  1  0  0  0  0
  5 19  2  0  0  0  0
  6 19  1  0  0  0  0
  7 25  1  0  0  0  0
  7 26  2  0  0  0  0
  7 28  1  0  0  0  0
  8 26  1  0  0  0  0
  8 27  2  0  0  0  0
  9 10  1  0  0  0  0
  9 12  2  0  0  0  0
  9 16  1  0  0  0  0
 10 13  1  0  0  0  0
 10 15  2  0  0  0  0
 11 14  2  0  0  0  0
 11 15  1  0  0  0  0
 13 14  1  0  0  0  0
 16 17  1  0  0  0  0
 17 18  2  0  0  0  0
 20 21  2  0  0  0  0
 21 22  1  0  0  0  0
 23 24  1  0  0  0  0
 24 25  2  0  0  0  0
 27 28  1  0  0  0  0
  1 29  1  0  0  0  0
  5 30  1  0  0  0  0
  6 31  1  0  0  0  0
  8 32  1  0  0  0  0
 11 33  1  0  0  0  0
 14 34  1  0  0  0  0
 15 35  1  0  0  0  0
 16 36  1  0  0  0  0
 18 37  1  0  0  0  0
 19 38  1  0  0  0  0
 22 39  1  0  0  0  0
 23 40  1  0  0  0  0
 24 41  1  0  0  0  0
 28 42  1  0  0  0  0
M  END
> <BIOSOLVEIT.HYDE_ESTIMATED_AFFINITY_LOWER_BOUNDARY [nM]>
2271.528099

> <BIOSOLVEIT.HYDE_ESTIMATED_AFFINITY_UPPER_BOUNDARY [nM]>
225689.746971

> <BIOSOLVEIT.HYDE_LIGAND_EFFICIENCY range: ++, +, 0, -, -->
-

> <BIOSOLVEIT.HYDE_LIGAND_LIPOPHILIC_EFFICIENCY range: ++, +, 0, -, -->
--

> <BIOSOLVEIT.LOGP>
3.8603

> <BIOSOLVEIT.MOLECULAR WEIGHT>
370.371

> <BIOSOLVEIT.MOLECULE_CHECKSUM>
LTI2LjUxNDI7MC45NDY5MzU=

> <BIOSOLVEIT.TPSA>
112.49

> <OPTIBRIUM.BBB category>
-

> <OPTIBRIUM.PPB90 category>
high

> <OPTIBRIUM.2C9 pKi>
5.84074

> <OPTIBRIUM.logS @ pH7.4>
1.53975

> <OPTIBRIUM.BBB log([brain]:[blood])>
-0.60599

> <OPTIBRIUM.2D6 affinity category>
medium

> <OPTIBRIUM.logS>
1.53975

> <OPTIBRIUM.logD>
2.79495

> <OPTIBRIUM.hERG pIC50>
4.2139

> <OPTIBRIUM.logP>
2.79495

> <OPTIBRIUM.HIA category>
+

> <OPTIBRIUM.P-gp category>
yes

$$$$
35F_B_2_1_004
joSeeSAR  03092211433D 1   1.00000     0.00000     0
SeeSAR 11.2.2 jonathanwahrer
 42 46  0  0  0  0            999 V2000
  -40.2442  -67.9772   52.3212 C   0  0  0  0  0  0  0  0  0  0  0  0
  -40.7964  -68.4507   53.5050 C   0  0  0  0  0  0  0  0  0  0  0  0
  -40.1946  -69.4415   54.2376 C   0  0  0  0  0  0  0  0  0  0  0  0
  -42.9524  -67.1197   53.8355 C   0  0  0  0  0  0  0  0  0  0  0  0
  -44.8286  -65.2065   53.1145 C   0  0  0  0  0  0  0  0  0  0  0  0
  -43.9345  -66.7352   54.7422 C   0  0  0  0  0  0  0  0  0  0  0  0
  -38.4665  -68.0519   50.6591 C   0  0  0  0  0  0  0  0  0  0  0  0
  -38.1235  -66.9644   48.8260 C   0  0  0  0  0  0  0  0  0  0  0  0
  -43.8307  -63.7165   50.6542 C   0  0  0  0  0  0  0  0  0  0  0  0
  -43.7862  -63.3346   49.3713 C   0  0  0  0  0  0  0  0  0  0  0  0
  -43.0737  -62.8452   47.3413 C   0  0  0  0  0  0  0  0  0  0  0  0
  -43.9130  -62.8785   51.5294 O   0  0  0  0  0  0  0  0  0  0  0  0
  -44.8052  -62.9345   48.6480 O   0  0  0  0  0  0  0  0  0  0  0  0
  -44.4184  -62.6313   47.4276 C   0  0  0  0  0  0  0  0  0  0  0  0
  -42.6575  -63.3022   48.6102 C   0  0  0  0  0  0  0  0  0  0  0  0
  -43.7941  -65.0223   50.9362 N   0  0  0  0  0  0  0  0  0  0  0  0
  -43.8421  -65.5963   52.2127 C   0  0  0  0  0  0  0  0  0  0  0  0
  -42.8979  -66.5545   52.5659 C   0  0  0  0  0  0  0  0  0  0  0  0
  -44.8767  -65.7770   54.3827 C   0  0  0  0  0  0  0  0  0  0  0  0
  -41.9716  -68.1188   54.2124 C   0  0  0  0  0  0  0  0  0  0  0  0
  -42.0177  -68.8810   55.2762 N   0  0  0  0  0  0  0  0  0  0  0  0
  -40.9780  -69.6842   55.3293 N   0  0  0  0  0  0  0  0  0  0  0  0
  -38.9965  -70.0016   53.8059 C   0  0  0  0  0  0  0  0  0  0  0  0
  -38.4235  -69.5435   52.6251 C   0  0  0  0  0  0  0  0  0  0  0  0
  -39.0479  -68.5400   51.8929 C   0  0  0  0  0  0  0  0  0  0  0  0
  -38.9778  -67.1319   49.8772 N   0  0  0  0  0  0  0  0  0  0  0  0
  -37.1165  -67.7990   49.0086 N   0  0  0  0  0  0  0  0  0  0  0  0
  -37.2877  -68.4726   50.1225 N   0  0  0  0  0  0  0  0  0  0  0  0
  -40.6928  -67.2550   51.7947 H   0  0  0  0  0  0  0  0  0  0  0  0
  -45.5028  -64.5165   52.8508 H   0  0  0  0  0  0  0  0  0  0  0  0
  -43.9633  -67.1477   55.6526 H   0  0  0  0  0  0  0  0  0  0  0  0
  -38.2384  -66.3295   48.0618 H   0  0  0  0  0  0  0  0  0  0  0  0
  -42.4964  -62.7054   46.5368 H   0  0  0  0  0  0  0  0  0  0  0  0
  -45.0081  -62.3013   46.6906 H   0  0  0  0  0  0  0  0  0  0  0  0
  -41.7302  -63.5497   48.8908 H   0  0  0  0  0  0  0  0  0  0  0  0
  -43.7259  -65.6501   50.1609 H   0  0  0  0  0  0  0  0  0  0  0  0
  -42.1903  -66.8330   51.9165 H   0  0  0  0  0  0  0  0  0  0  0  0
  -45.5847  -65.4997   55.0322 H   0  0  0  0  0  0  0  0  0  0  0  0
  -40.7928  -70.3568   56.0457 H   0  0  0  0  0  0  0  0  0  0  0  0
  -38.5537  -70.7236   54.3376 H   0  0  0  0  0  0  0  0  0  0  0  0
  -37.5621  -69.9357   52.3023 H   0  0  0  0  0  0  0  0  0  0  0  0
  -36.6714  -69.1619   50.5033 H   0  0  0  0  0  0  0  0  0  0  0  0
  1  2  2  0  0  0  0
  1 25  1  0  0  0  0
  2  3  1  0  0  0  0
  2 20  1  0  0  0  0
  3 22  1  0  0  0  0
  3 23  2  0  0  0  0
  4  6  2  0  0  0  0
  4 18  1  0  0  0  0
  4 20  1  0  0  0  0
  5 17  1  0  0  0  0
  5 19  2  0  0  0  0
  6 19  1  0  0  0  0
  7 25  1  0  0  0  0
  7 26  2  0  0  0  0
  7 28  1  0  0  0  0
  8 26  1  0  0  0  0
  8 27  2  0  0  0  0
  9 10  1  0  0  0  0
  9 12  2  0  0  0  0
  9 16  1  0  0  0  0
 10 13  1  0  0  0  0
 10 15  2  0  0  0  0
 11 14  2  0  0  0  0
 11 15  1  0  0  0  0
 13 14  1  0  0  0  0
 16 17  1  0  0  0  0
 17 18  2  0  0  0  0
 20 21  2  0  0  0  0
 21 22  1  0  0  0  0
 23 24  1  0  0  0  0
 24 25  2  0  0  0  0
 27 28  1  0  0  0  0
  1 29  1  0  0  0  0
  5 30  1  0  0  0  0
  6 31  1  0  0  0  0
  8 32  1  0  0  0  0
 11 33  1  0  0  0  0
 14 34  1  0  0  0  0
 15 35  1  0  0  0  0
 16 36  1  0  0  0  0
 18 37  1  0  0  0  0
 19 38  1  0  0  0  0
 22 39  1  0  0  0  0
 23 40  1  0  0  0  0
 24 41  1  0  0  0  0
 28 42  1  0  0  0  0
M  END
> <BIOSOLVEIT.HYDE_ESTIMATED_AFFINITY_LOWER_BOUNDARY [nM]>
3127.885193

> <BIOSOLVEIT.HYDE_ESTIMATED_AFFINITY_UPPER_BOUNDARY [nM]>
310773.887441

> <BIOSOLVEIT.HYDE_LIGAND_EFFICIENCY range: ++, +, 0, -, -->
-

> <BIOSOLVEIT.HYDE_LIGAND_LIPOPHILIC_EFFICIENCY range: ++, +, 0, -, -->
--

> <BIOSOLVEIT.LOGP>
3.8603

> <BIOSOLVEIT.MOLECULAR WEIGHT>
370.371

> <BIOSOLVEIT.MOLECULE_CHECKSUM>
LTI1LjcyMTI7MC45MTg2MTM=

> <BIOSOLVEIT.TPSA>
112.49

> <OPTIBRIUM.BBB category>
-

> <OPTIBRIUM.PPB90 category>
high

> <OPTIBRIUM.2C9 pKi>
5.84074

> <OPTIBRIUM.logS @ pH7.4>
1.53975

> <OPTIBRIUM.BBB log([brain]:[blood])>
-0.60599

> <OPTIBRIUM.2D6 affinity category>
medium

> <OPTIBRIUM.logS>
1.53975

> <OPTIBRIUM.logD>
2.79495

> <OPTIBRIUM.hERG pIC50>
4.2139

> <OPTIBRIUM.logP>
2.79495

> <OPTIBRIUM.HIA category>
+

> <OPTIBRIUM.P-gp category>
yes

$$$$
35F_B_2_1_008
joSeeSAR  03092211433D 1   1.00000     0.00000     0
SeeSAR 11.2.2 jonathanwahrer
 42 46  0  0  0  0            999 V2000
  -40.2814  -68.0075   52.3073 C   0  0  0  0  0  0  0  0  0  0  0  0
  -40.8207  -68.4791   53.4978 C   0  0  0  0  0  0  0  0  0  0  0  0
  -40.1877  -69.4361   54.2489 C   0  0  0  0  0  0  0  0  0  0  0  0
  -43.0216  -67.2166   53.8002 C   0  0  0  0  0  0  0  0  0  0  0  0
  -44.9595  -65.3809   53.0419 C   0  0  0  0  0  0  0  0  0  0  0  0
  -44.0840  -66.9375   54.6532 C   0  0  0  0  0  0  0  0  0  0  0  0
  -38.4974  -68.0505   50.6508 C   0  0  0  0  0  0  0  0  0  0  0  0
  -37.1761  -67.7093   48.9779 C   0  0  0  0  0  0  0  0  0  0  0  0
  -43.8051  -63.7044   50.7411 C   0  0  0  0  0  0  0  0  0  0  0  0
  -43.7128  -63.2544   49.4831 C   0  0  0  0  0  0  0  0  0  0  0  0
  -44.2163  -62.5740   47.4455 C   0  0  0  0  0  0  0  0  0  0  0  0
  -43.9058  -62.9138   51.6576 O   0  0  0  0  0  0  0  0  0  0  0  0
  -42.6045  -62.9471   48.8515 O   0  0  0  0  0  0  0  0  0  0  0  0
  -42.8649  -62.5372   47.6288 C   0  0  0  0  0  0  0  0  0  0  0  0
  -44.7727  -63.0445   48.6545 C   0  0  0  0  0  0  0  0  0  0  0  0
  -43.7947  -65.0239   50.9527 N   0  0  0  0  0  0  0  0  0  0  0  0
  -43.8927  -65.6653   52.1938 C   0  0  0  0  0  0  0  0  0  0  0  0
  -42.9170  -66.5840   52.5660 C   0  0  0  0  0  0  0  0  0  0  0  0
  -45.0573  -66.0184   54.2748 C   0  0  0  0  0  0  0  0  0  0  0  0
  -42.0085  -68.1752   54.1966 C   0  0  0  0  0  0  0  0  0  0  0  0
  -42.0318  -68.9199   55.2734 N   0  0  0  0  0  0  0  0  0  0  0  0
  -40.9656  -69.6863   55.3428 N   0  0  0  0  0  0  0  0  0  0  0  0
  -38.9701  -69.9625   53.8298 C   0  0  0  0  0  0  0  0  0  0  0  0
  -38.4096  -69.5057   52.6425 C   0  0  0  0  0  0  0  0  0  0  0  0
  -39.0655  -68.5368   51.8915 C   0  0  0  0  0  0  0  0  0  0  0  0
  -37.3314  -68.3855   50.1534 N   0  0  0  0  0  0  0  0  0  0  0  0
  -38.2630  -66.9794   48.8046 N   0  0  0  0  0  0  0  0  0  0  0  0
  -39.0956  -67.1695   49.8018 N   0  0  0  0  0  0  0  0  0  0  0  0
  -40.7527  -67.3102   51.7673 H   0  0  0  0  0  0  0  0  0  0  0  0
  -45.6557  -64.7185   52.7649 H   0  0  0  0  0  0  0  0  0  0  0  0
  -44.1484  -67.3977   55.5386 H   0  0  0  0  0  0  0  0  0  0  0  0
  -36.3882  -67.7576   48.3640 H   0  0  0  0  0  0  0  0  0  0  0  0
  -44.7149  -62.3178   46.6173 H   0  0  0  0  0  0  0  0  0  0  0  0
  -42.1889  -62.2484   46.9508 H   0  0  0  0  0  0  0  0  0  0  0  0
  -45.7403  -63.1923   48.8590 H   0  0  0  0  0  0  0  0  0  0  0  0
  -43.7086  -65.6099   50.1470 H   0  0  0  0  0  0  0  0  0  0  0  0
  -42.1516  -66.7867   51.9552 H   0  0  0  0  0  0  0  0  0  0  0  0
  -45.8230  -65.8168   54.8857 H   0  0  0  0  0  0  0  0  0  0  0  0
  -40.7598  -70.3399   56.0712 H   0  0  0  0  0  0  0  0  0  0  0  0
  -38.5046  -70.6598   54.3749 H   0  0  0  0  0  0  0  0  0  0  0  0
  -37.5344  -69.8738   52.3285 H   0  0  0  0  0  0  0  0  0  0  0  0
  -39.9953  -66.7485   49.9161 H   0  0  0  0  0  0  0  0  0  0  0  0
  1  2  2  0  0  0  0
  1 25  1  0  0  0  0
  2  3  1  0  0  0  0
  2 20  1  0  0  0  0
  3 22  1  0  0  0  0
  3 23  2  0  0  0  0
  4  6  2  0  0  0  0
  4 18  1  0  0  0  0
  4 20  1  0  0  0  0
  5 17  1  0  0  0  0
  5 19  2  0  0  0  0
  6 19  1  0  0  0  0
  7 25  1  0  0  0  0
  7 26  2  0  0  0  0
  7 28  1  0  0  0  0
  8 26  1  0  0  0  0
  8 27  2  0  0  0  0
  9 10  1  0  0  0  0
  9 12  2  0  0  0  0
  9 16  1  0  0  0  0
 10 13  1  0  0  0  0
 10 15  2  0  0  0  0
 11 14  2  0  0  0  0
 11 15  1  0  0  0  0
 13 14  1  0  0  0  0
 16 17  1  0  0  0  0
 17 18  2  0  0  0  0
 20 21  2  0  0  0  0
 21 22  1  0  0  0  0
 23 24  1  0  0  0  0
 24 25  2  0  0  0  0
 27 28  1  0  0  0  0
  1 29  1  0  0  0  0
  5 30  1  0  0  0  0
  6 31  1  0  0  0  0
  8 32  1  0  0  0  0
 11 33  1  0  0  0  0
 14 34  1  0  0  0  0
 15 35  1  0  0  0  0
 16 36  1  0  0  0  0
 18 37  1  0  0  0  0
 19 38  1  0  0  0  0
 22 39  1  0  0  0  0
 23 40  1  0  0  0  0
 24 41  1  0  0  0  0
 28 42  1  0  0  0  0
M  END
> <BIOSOLVEIT.HYDE_ESTIMATED_AFFINITY_LOWER_BOUNDARY [nM]>
3569.733856

> <BIOSOLVEIT.HYDE_ESTIMATED_AFFINITY_UPPER_BOUNDARY [nM]>
354674.164570

> <BIOSOLVEIT.HYDE_LIGAND_EFFICIENCY range: ++, +, 0, -, -->
-

> <BIOSOLVEIT.HYDE_LIGAND_LIPOPHILIC_EFFICIENCY range: ++, +, 0, -, -->
--

> <BIOSOLVEIT.LOGP>
3.8603

> <BIOSOLVEIT.MOLECULAR WEIGHT>
370.371

> <BIOSOLVEIT.MOLECULE_CHECKSUM>
LTI1LjM5MzY7MC45MDY5MTQ=

> <BIOSOLVEIT.TPSA>
112.49

> <OPTIBRIUM.BBB category>
-

> <OPTIBRIUM.PPB90 category>
high

> <OPTIBRIUM.2C9 pKi>
5.84074

> <OPTIBRIUM.logS @ pH7.4>
1.53975

> <OPTIBRIUM.BBB log([brain]:[blood])>
-0.60599

> <OPTIBRIUM.2D6 affinity category>
medium

> <OPTIBRIUM.logS>
1.53975

> <OPTIBRIUM.logD>
2.79495

> <OPTIBRIUM.hERG pIC50>
4.2139

> <OPTIBRIUM.logP>
2.79495

> <OPTIBRIUM.HIA category>
+

> <OPTIBRIUM.P-gp category>
yes

$$$$
35F_B_2_1_009
joSeeSAR  03092211433D 1   1.00000     0.00000     0
SeeSAR 11.2.2 jonathanwahrer
 42 46  0  0  0  0            999 V2000
  -40.2753  -68.0072   52.3050 C   0  0  0  0  0  0  0  0  0  0  0  0
  -40.8138  -68.4794   53.4956 C   0  0  0  0  0  0  0  0  0  0  0  0
  -40.1805  -69.4370   54.2457 C   0  0  0  0  0  0  0  0  0  0  0  0
  -43.0142  -67.2167   53.8004 C   0  0  0  0  0  0  0  0  0  0  0  0
  -44.9524  -65.3802   53.0446 C   0  0  0  0  0  0  0  0  0  0  0  0
  -44.0750  -66.9365   54.6551 C   0  0  0  0  0  0  0  0  0  0  0  0
  -38.4925  -68.0496   50.6472 C   0  0  0  0  0  0  0  0  0  0  0  0
  -38.1722  -66.9665   48.8074 C   0  0  0  0  0  0  0  0  0  0  0  0
  -43.8035  -63.7056   50.7407 C   0  0  0  0  0  0  0  0  0  0  0  0
  -43.7127  -63.2563   49.4824 C   0  0  0  0  0  0  0  0  0  0  0  0
  -44.2188  -62.5753   47.4456 C   0  0  0  0  0  0  0  0  0  0  0  0
  -43.9048  -62.9146   51.6567 O   0  0  0  0  0  0  0  0  0  0  0  0
  -42.6050  -62.9522   48.8482 O   0  0  0  0  0  0  0  0  0  0  0  0
  -42.8669  -62.5420   47.6260 C   0  0  0  0  0  0  0  0  0  0  0  0
  -44.7738  -63.0439   48.6559 C   0  0  0  0  0  0  0  0  0  0  0  0
  -43.7910  -65.0250   50.9532 N   0  0  0  0  0  0  0  0  0  0  0  0
  -43.8872  -65.6656   52.1947 C   0  0  0  0  0  0  0  0  0  0  0  0
  -42.9114  -66.5847   52.5657 C   0  0  0  0  0  0  0  0  0  0  0  0
  -45.0484  -66.0170   54.2780 C   0  0  0  0  0  0  0  0  0  0  0  0
  -42.0010  -68.1757   54.1955 C   0  0  0  0  0  0  0  0  0  0  0  0
  -42.0237  -68.9210   55.2719 N   0  0  0  0  0  0  0  0  0  0  0  0
  -40.9576  -69.6877   55.3400 N   0  0  0  0  0  0  0  0  0  0  0  0
  -38.9633  -69.9634   53.8255 C   0  0  0  0  0  0  0  0  0  0  0  0
  -38.4035  -69.5059   52.6380 C   0  0  0  0  0  0  0  0  0  0  0  0
  -39.0598  -68.5365   51.8881 C   0  0  0  0  0  0  0  0  0  0  0  0
  -39.0157  -67.1347   49.8672 N   0  0  0  0  0  0  0  0  0  0  0  0
  -37.1594  -67.7956   48.9832 N   0  0  0  0  0  0  0  0  0  0  0  0
  -37.3168  -68.4664   50.1008 N   0  0  0  0  0  0  0  0  0  0  0  0
  -40.7469  -67.3095   51.7658 H   0  0  0  0  0  0  0  0  0  0  0  0
  -45.6487  -64.7176   52.7685 H   0  0  0  0  0  0  0  0  0  0  0  0
  -44.1381  -67.3962   55.5409 H   0  0  0  0  0  0  0  0  0  0  0  0
  -38.2975  -66.3347   48.0423 H   0  0  0  0  0  0  0  0  0  0  0  0
  -44.7185  -62.3181   46.6184 H   0  0  0  0  0  0  0  0  0  0  0  0
  -42.1916  -62.2553   46.9463 H   0  0  0  0  0  0  0  0  0  0  0  0
  -45.7414  -63.1891   48.8626 H   0  0  0  0  0  0  0  0  0  0  0  0
  -43.7046  -65.6113   50.1478 H   0  0  0  0  0  0  0  0  0  0  0  0
  -42.1473  -66.7882   51.9536 H   0  0  0  0  0  0  0  0  0  0  0  0
  -45.8129  -65.8146   54.8901 H   0  0  0  0  0  0  0  0  0  0  0  0
  -40.7514  -70.3417   56.0679 H   0  0  0  0  0  0  0  0  0  0  0  0
  -38.4974  -70.6610   54.3699 H   0  0  0  0  0  0  0  0  0  0  0  0
  -37.5286  -69.8741   52.3232 H   0  0  0  0  0  0  0  0  0  0  0  0
  -36.6935  -69.1514   50.4780 H   0  0  0  0  0  0  0  0  0  0  0  0
  1  2  2  0  0  0  0
  1 25  1  0  0  0  0
  2  3  1  0  0  0  0
  2 20  1  0  0  0  0
  3 22  1  0  0  0  0
  3 23  2  0  0  0  0
  4  6  2  0  0  0  0
  4 18  1  0  0  0  0
  4 20  1  0  0  0  0
  5 17  1  0  0  0  0
  5 19  2  0  0  0  0
  6 19  1  0  0  0  0
  7 25  1  0  0  0  0
  7 26  2  0  0  0  0
  7 28  1  0  0  0  0
  8 26  1  0  0  0  0
  8 27  2  0  0  0  0
  9 10  1  0  0  0  0
  9 12  2  0  0  0  0
  9 16  1  0  0  0  0
 10 13  1  0  0  0  0
 10 15  2  0  0  0  0
 11 14  2  0  0  0  0
 11 15  1  0  0  0  0
 13 14  1  0  0  0  0
 16 17  1  0  0  0  0
 17 18  2  0  0  0  0
 20 21  2  0  0  0  0
 21 22  1  0  0  0  0
 23 24  1  0  0  0  0
 24 25  2  0  0  0  0
 27 28  1  0  0  0  0
  1 29  1  0  0  0  0
  5 30  1  0  0  0  0
  6 31  1  0  0  0  0
  8 32  1  0  0  0  0
 11 33  1  0  0  0  0
 14 34  1  0  0  0  0
 15 35  1  0  0  0  0
 16 36  1  0  0  0  0
 18 37  1  0  0  0  0
 19 38  1  0  0  0  0
 22 39  1  0  0  0  0
 23 40  1  0  0  0  0
 24 41  1  0  0  0  0
 28 42  1  0  0  0  0
M  END
> <BIOSOLVEIT.HYDE_ESTIMATED_AFFINITY_LOWER_BOUNDARY [nM]>
4724.644608

> <BIOSOLVEIT.HYDE_ESTIMATED_AFFINITY_UPPER_BOUNDARY [nM]>
469421.376102

> <BIOSOLVEIT.HYDE_LIGAND_EFFICIENCY range: ++, +, 0, -, -->
-

> <BIOSOLVEIT.HYDE_LIGAND_LIPOPHILIC_EFFICIENCY range: ++, +, 0, -, -->
--

> <BIOSOLVEIT.LOGP>
3.8603

> <BIOSOLVEIT.MOLECULAR WEIGHT>
370.371

> <BIOSOLVEIT.MOLECULE_CHECKSUM>
LTI0LjY5ODc7MC44ODIwOTg=

> <BIOSOLVEIT.TPSA>
112.49

> <OPTIBRIUM.BBB category>
-

> <OPTIBRIUM.PPB90 category>
high

> <OPTIBRIUM.2C9 pKi>
5.84074

> <OPTIBRIUM.logS @ pH7.4>
1.53975

> <OPTIBRIUM.BBB log([brain]:[blood])>
-0.60599

> <OPTIBRIUM.2D6 affinity category>
medium

> <OPTIBRIUM.logS>
1.53975

> <OPTIBRIUM.logD>
2.79495

> <OPTIBRIUM.hERG pIC50>
4.2139

> <OPTIBRIUM.logP>
2.79495

> <OPTIBRIUM.HIA category>
+

> <OPTIBRIUM.P-gp category>
yes

$$$$
35F_B_2_1_010
joSeeSAR  03092211433D 1   1.00000     0.00000     0
SeeSAR 11.2.2 jonathanwahrer
 42 46  0  0  0  0            999 V2000
  -40.2552  -67.9620   52.3174 C   0  0  0  0  0  0  0  0  0  0  0  0
  -40.8113  -68.4489   53.4940 C   0  0  0  0  0  0  0  0  0  0  0  0
  -40.2131  -69.4497   54.2159 C   0  0  0  0  0  0  0  0  0  0  0  0
  -42.9655  -67.1179   53.8352 C   0  0  0  0  0  0  0  0  0  0  0  0
  -44.8365  -65.1925   53.1329 C   0  0  0  0  0  0  0  0  0  0  0  0
  -43.9450  -66.7376   54.7466 C   0  0  0  0  0  0  0  0  0  0  0  0
  -38.4734  -68.0199   50.6589 C   0  0  0  0  0  0  0  0  0  0  0  0
  -37.1219  -67.6446   49.0178 C   0  0  0  0  0  0  0  0  0  0  0  0
  -43.8737  -63.6877   50.6811 C   0  0  0  0  0  0  0  0  0  0  0  0
  -43.8238  -63.2954   49.4016 C   0  0  0  0  0  0  0  0  0  0  0  0
  -43.1065  -62.8077   47.3728 C   0  0  0  0  0  0  0  0  0  0  0  0
  -43.9897  -62.8587   51.5609 O   0  0  0  0  0  0  0  0  0  0  0  0
  -44.8341  -62.8598   48.6867 O   0  0  0  0  0  0  0  0  0  0  0  0
  -44.4442  -62.5566   47.4673 C   0  0  0  0  0  0  0  0  0  0  0  0
  -42.6980  -63.2881   48.6356 C   0  0  0  0  0  0  0  0  0  0  0  0
  -43.8047  -64.9939   50.9546 N   0  0  0  0  0  0  0  0  0  0  0  0
  -43.8526  -65.5783   52.2264 C   0  0  0  0  0  0  0  0  0  0  0  0
  -42.9111  -66.5425   52.5702 C   0  0  0  0  0  0  0  0  0  0  0  0
  -44.8844  -65.7732   54.3964 C   0  0  0  0  0  0  0  0  0  0  0  0
  -41.9875  -68.1234   54.2024 C   0  0  0  0  0  0  0  0  0  0  0  0
  -42.0377  -68.8983   55.2568 N   0  0  0  0  0  0  0  0  0  0  0  0
  -40.9996  -69.7041   55.3026 N   0  0  0  0  0  0  0  0  0  0  0  0
  -39.0149  -70.0068   53.7805 C   0  0  0  0  0  0  0  0  0  0  0  0
  -38.4381  -69.5353   52.6068 C   0  0  0  0  0  0  0  0  0  0  0  0
  -39.0588  -68.5219   51.8852 C   0  0  0  0  0  0  0  0  0  0  0  0
  -37.2888  -68.3267   50.1882 N   0  0  0  0  0  0  0  0  0  0  0  0
  -38.2209  -66.9395   48.8205 N   0  0  0  0  0  0  0  0  0  0  0  0
  -39.0718  -67.1509   49.7978 N   0  0  0  0  0  0  0  0  0  0  0  0
  -40.7011  -67.2326   51.7986 H   0  0  0  0  0  0  0  0  0  0  0  0
  -45.5087  -64.4981   52.8761 H   0  0  0  0  0  0  0  0  0  0  0  0
  -43.9737  -67.1574   55.6537 H   0  0  0  0  0  0  0  0  0  0  0  0
  -36.3190  -67.6732   48.4224 H   0  0  0  0  0  0  0  0  0  0  0  0
  -42.5289  -62.6772   46.5669 H   0  0  0  0  0  0  0  0  0  0  0  0
  -45.0276  -62.2031   46.7361 H   0  0  0  0  0  0  0  0  0  0  0  0
  -41.7769  -63.5645   48.9097 H   0  0  0  0  0  0  0  0  0  0  0  0
  -43.7096  -65.6141   50.1760 H   0  0  0  0  0  0  0  0  0  0  0  0
  -42.2054  -66.8181   51.9176 H   0  0  0  0  0  0  0  0  0  0  0  0
  -45.5905  -65.4989   55.0493 H   0  0  0  0  0  0  0  0  0  0  0  0
  -40.8175  -70.3858   56.0113 H   0  0  0  0  0  0  0  0  0  0  0  0
  -38.5748  -70.7360   54.3045 H   0  0  0  0  0  0  0  0  0  0  0  0
  -37.5767  -69.9252   52.2814 H   0  0  0  0  0  0  0  0  0  0  0  0
  -39.9836  -66.7510   49.8918 H   0  0  0  0  0  0  0  0  0  0  0  0
  1  2  2  0  0  0  0
  1 25  1  0  0  0  0
  2  3  1  0  0  0  0
  2 20  1  0  0  0  0
  3 22  1  0  0  0  0
  3 23  2  0  0  0  0
  4  6  2  0  0  0  0
  4 18  1  0  0  0  0
  4 20  1  0  0  0  0
  5 17  1  0  0  0  0
  5 19  2  0  0  0  0
  6 19  1  0  0  0  0
  7 25  1  0  0  0  0
  7 26  2  0  0  0  0
  7 28  1  0  0  0  0
  8 26  1  0  0  0  0
  8 27  2  0  0  0  0
  9 10  1  0  0  0  0
  9 12  2  0  0  0  0
  9 16  1  0  0  0  0
 10 13  1  0  0  0  0
 10 15  2  0  0  0  0
 11 14  2  0  0  0  0
 11 15  1  0  0  0  0
 13 14  1  0  0  0  0
 16 17  1  0  0  0  0
 17 18  2  0  0  0  0
 20 21  2  0  0  0  0
 21 22  1  0  0  0  0
 23 24  1  0  0  0  0
 24 25  2  0  0  0  0
 27 28  1  0  0  0  0
  1 29  1  0  0  0  0
  5 30  1  0  0  0  0
  6 31  1  0  0  0  0
  8 32  1  0  0  0  0
 11 33  1  0  0  0  0
 14 34  1  0  0  0  0
 15 35  1  0  0  0  0
 16 36  1  0  0  0  0
 18 37  1  0  0  0  0
 19 38  1  0  0  0  0
 22 39  1  0  0  0  0
 23 40  1  0  0  0  0
 24 41  1  0  0  0  0
 28 42  1  0  0  0  0
M  END
> <BIOSOLVEIT.HYDE_ESTIMATED_AFFINITY_LOWER_BOUNDARY [nM]>
7014.607936

> <BIOSOLVEIT.HYDE_ESTIMATED_AFFINITY_UPPER_BOUNDARY [nM]>
696942.772059

> <BIOSOLVEIT.HYDE_LIGAND_EFFICIENCY range: ++, +, 0, -, -->
-

> <BIOSOLVEIT.HYDE_LIGAND_LIPOPHILIC_EFFICIENCY range: ++, +, 0, -, -->
--

> <BIOSOLVEIT.LOGP>
3.8603

> <BIOSOLVEIT.MOLECULAR WEIGHT>
370.371

> <BIOSOLVEIT.MOLECULE_CHECKSUM>
LTIzLjcxOTE7MC44NDcxMDk=

> <BIOSOLVEIT.TPSA>
112.49

> <OPTIBRIUM.BBB category>
-

> <OPTIBRIUM.PPB90 category>
high

> <OPTIBRIUM.2C9 pKi>
5.84074

> <OPTIBRIUM.logS @ pH7.4>
1.53975

> <OPTIBRIUM.BBB log([brain]:[blood])>
-0.60599

> <OPTIBRIUM.2D6 affinity category>
medium

> <OPTIBRIUM.logS>
1.53975

> <OPTIBRIUM.logD>
2.79495

> <OPTIBRIUM.hERG pIC50>
4.2139

> <OPTIBRIUM.logP>
2.79495

> <OPTIBRIUM.HIA category>
+

> <OPTIBRIUM.P-gp category>
yes

$$$$
35F_B_2_1_001
joSeeSAR  03092211433D 1   1.00000     0.00000     0
SeeSAR 11.2.2 jonathanwahrer
 42 46  0  0  0  0            999 V2000
  -39.5046  -68.2190   52.5885 C   0  0  0  0  0  0  0  0  0  0  0  0
  -40.3409  -68.5194   53.6566 C   0  0  0  0  0  0  0  0  0  0  0  0
  -40.1374  -69.6222   54.4458 C   0  0  0  0  0  0  0  0  0  0  0  0
  -42.1087  -66.6745   53.6820 C   0  0  0  0  0  0  0  0  0  0  0  0
  -43.2935  -64.3525   52.7309 C   0  0  0  0  0  0  0  0  0  0  0  0
  -43.3426  -66.2709   54.1810 C   0  0  0  0  0  0  0  0  0  0  0  0
  -37.5638  -68.7697   51.2251 C   0  0  0  0  0  0  0  0  0  0  0  0
  -36.6743  -67.8386   49.4922 C   0  0  0  0  0  0  0  0  0  0  0  0
  -40.4006  -64.4095   50.4788 C   0  0  0  0  0  0  0  0  0  0  0  0
  -39.8833  -63.5478   49.5938 C   0  0  0  0  0  0  0  0  0  0  0  0
  -38.5261  -62.5509   48.1680 C   0  0  0  0  0  0  0  0  0  0  0  0
  -39.9425  -65.5309   50.5657 O   0  0  0  0  0  0  0  0  0  0  0  0
  -40.4685  -62.4671   49.1343 O   0  0  0  0  0  0  0  0  0  0  0  0
  -39.6869  -61.8430   48.2796 C   0  0  0  0  0  0  0  0  0  0  0  0
  -38.6505  -63.6638   49.0273 C   0  0  0  0  0  0  0  0  0  0  0  0
  -41.4089  -64.0029   51.2560 N   0  0  0  0  0  0  0  0  0  0  0  0
  -42.0582  -64.7629   52.2368 C   0  0  0  0  0  0  0  0  0  0  0  0
  -41.4573  -65.9254   52.7080 C   0  0  0  0  0  0  0  0  0  0  0  0
  -43.9389  -65.1078   53.7050 C   0  0  0  0  0  0  0  0  0  0  0  0
  -41.4891  -67.8875   54.1796 C   0  0  0  0  0  0  0  0  0  0  0  0
  -41.8977  -68.5983   55.2007 N   0  0  0  0  0  0  0  0  0  0  0  0
  -41.1203  -69.6413   55.3934 N   0  0  0  0  0  0  0  0  0  0  0  0
  -39.0696  -70.4771   54.1921 C   0  0  0  0  0  0  0  0  0  0  0  0
  -38.2178  -70.1968   53.1297 C   0  0  0  0  0  0  0  0  0  0  0  0
  -38.4397  -69.0761   52.3376 C   0  0  0  0  0  0  0  0  0  0  0  0
  -37.7047  -67.7730   50.3850 N   0  0  0  0  0  0  0  0  0  0  0  0
  -35.9401  -68.8848   49.8249 N   0  0  0  0  0  0  0  0  0  0  0  0
  -36.4480  -69.4719   50.8836 N   0  0  0  0  0  0  0  0  0  0  0  0
  -39.6636  -67.4126   52.0190 H   0  0  0  0  0  0  0  0  0  0  0  0
  -43.7169  -63.5149   52.3855 H   0  0  0  0  0  0  0  0  0  0  0  0
  -43.8012  -66.8170   54.8820 H   0  0  0  0  0  0  0  0  0  0  0  0
  -36.5070  -67.2128   48.7304 H   0  0  0  0  0  0  0  0  0  0  0  0
  -37.7411  -62.3257   47.5909 H   0  0  0  0  0  0  0  0  0  0  0  0
  -39.9059  -60.9959   47.7953 H   0  0  0  0  0  0  0  0  0  0  0  0
  -37.9761  -64.3849   49.1863 H   0  0  0  0  0  0  0  0  0  0  0  0
  -41.7307  -63.0653   51.1246 H   0  0  0  0  0  0  0  0  0  0  0  0
  -40.5700  -66.2183   52.3517 H   0  0  0  0  0  0  0  0  0  0  0  0
  -44.8266  -64.8160   54.0610 H   0  0  0  0  0  0  0  0  0  0  0  0
  -41.2301  -70.3297   56.1103 H   0  0  0  0  0  0  0  0  0  0  0  0
  -38.9168  -71.2819   54.7657 H   0  0  0  0  0  0  0  0  0  0  0  0
  -37.4454  -70.8016   52.9352 H   0  0  0  0  0  0  0  0  0  0  0  0
  -38.4344  -67.0891   50.3963 H   0  0  0  0  0  0  0  0  0  0  0  0
  1  2  2  0  0  0  0
  1 25  1  0  0  0  0
  2  3  1  0  0  0  0
  2 20  1  0  0  0  0
  3 22  1  0  0  0  0
  3 23  2  0  0  0  0
  4  6  2  0  0  0  0
  4 18  1  0  0  0  0
  4 20  1  0  0  0  0
  5 17  1  0  0  0  0
  5 19  2  0  0  0  0
  6 19  1  0  0  0  0
  7 25  1  0  0  0  0
  7 26  1  0  0  0  0
  7 28  2  0  0  0  0
  8 26  1  0  0  0  0
  8 27  2  0  0  0  0
  9 10  1  0  0  0  0
  9 12  2  0  0  0  0
  9 16  1  0  0  0  0
 10 13  1  0  0  0  0
 10 15  2  0  0  0  0
 11 14  2  0  0  0  0
 11 15  1  0  0  0  0
 13 14  1  0  0  0  0
 16 17  1  0  0  0  0
 17 18  2  0  0  0  0
 20 21  2  0  0  0  0
 21 22  1  0  0  0  0
 23 24  1  0  0  0  0
 24 25  2  0  0  0  0
 27 28  1  0  0  0  0
  1 29  1  0  0  0  0
  5 30  1  0  0  0  0
  6 31  1  0  0  0  0
  8 32  1  0  0  0  0
 11 33  1  0  0  0  0
 14 34  1  0  0  0  0
 15 35  1  0  0  0  0
 16 36  1  0  0  0  0
 18 37  1  0  0  0  0
 19 38  1  0  0  0  0
 22 39  1  0  0  0  0
 23 40  1  0  0  0  0
 24 41  1  0  0  0  0
 26 42  1  0  0  0  0
M  END
> <BIOSOLVEIT.HYDE_ESTIMATED_AFFINITY_LOWER_BOUNDARY [nM]>
9285.048835

> <BIOSOLVEIT.HYDE_ESTIMATED_AFFINITY_UPPER_BOUNDARY [nM]>
922524.499340

> <BIOSOLVEIT.HYDE_LIGAND_EFFICIENCY range: ++, +, 0, -, -->
--

> <BIOSOLVEIT.HYDE_LIGAND_LIPOPHILIC_EFFICIENCY range: ++, +, 0, -, -->
--

> <BIOSOLVEIT.LOGP>
3.8603

> <BIOSOLVEIT.MOLECULAR WEIGHT>
370.371

> <BIOSOLVEIT.MOLECULE_CHECKSUM>
LTIzLjAyMzk7MC44MjIyODM=

> <BIOSOLVEIT.TPSA>
112.49

> <OPTIBRIUM.BBB category>
-

> <OPTIBRIUM.PPB90 category>
high

> <OPTIBRIUM.2C9 pKi>
5.84074

> <OPTIBRIUM.logS @ pH7.4>
1.53975

> <OPTIBRIUM.BBB log([brain]:[blood])>
-0.60599

> <OPTIBRIUM.2D6 affinity category>
medium

> <OPTIBRIUM.logS>
1.53975

> <OPTIBRIUM.logD>
2.79495

> <OPTIBRIUM.hERG pIC50>
4.2139

> <OPTIBRIUM.logP>
2.79495

> <OPTIBRIUM.HIA category>
+

> <OPTIBRIUM.P-gp category>
yes

$$$$
35F_B_2_1_005
joSeeSAR  03092211433D 1   1.00000     0.00000     0
SeeSAR 11.2.2 jonathanwahrer
 42 46  0  0  0  0            999 V2000
  -39.4543  -68.2320   52.5731 C   0  0  0  0  0  0  0  0  0  0  0  0
  -40.3039  -68.5223   53.6335 C   0  0  0  0  0  0  0  0  0  0  0  0
  -40.1196  -69.6263   54.4259 C   0  0  0  0  0  0  0  0  0  0  0  0
  -42.0520  -66.6587   53.6403 C   0  0  0  0  0  0  0  0  0  0  0  0
  -43.2029  -64.3253   52.6754 C   0  0  0  0  0  0  0  0  0  0  0  0
  -43.2877  -66.2430   54.1248 C   0  0  0  0  0  0  0  0  0  0  0  0
  -37.5067  -68.8049   51.2288 C   0  0  0  0  0  0  0  0  0  0  0  0
  -36.6004  -67.8955   49.4931 C   0  0  0  0  0  0  0  0  0  0  0  0
  -40.3320  -64.4310   50.4090 C   0  0  0  0  0  0  0  0  0  0  0  0
  -39.7877  -63.5716   49.5380 C   0  0  0  0  0  0  0  0  0  0  0  0
  -39.5233  -61.9833   48.0294 C   0  0  0  0  0  0  0  0  0  0  0  0
  -39.9354  -65.5781   50.4507 O   0  0  0  0  0  0  0  0  0  0  0  0
  -38.5104  -63.4570   49.2606 O   0  0  0  0  0  0  0  0  0  0  0  0
  -38.3126  -62.5178   48.3610 C   0  0  0  0  0  0  0  0  0  0  0  0
  -40.4891  -62.6714   48.7949 C   0  0  0  0  0  0  0  0  0  0  0  0
  -41.2978  -63.9941   51.2228 N   0  0  0  0  0  0  0  0  0  0  0  0
  -41.9659  -64.7477   52.1958 C   0  0  0  0  0  0  0  0  0  0  0  0
  -41.3820  -65.9159   52.6740 C   0  0  0  0  0  0  0  0  0  0  0  0
  -43.8670  -65.0742   53.6418 C   0  0  0  0  0  0  0  0  0  0  0  0
  -41.4502  -67.8776   54.1450 C   0  0  0  0  0  0  0  0  0  0  0  0
  -41.8759  -68.5829   55.1629 N   0  0  0  0  0  0  0  0  0  0  0  0
  -41.1116  -69.6338   55.3640 N   0  0  0  0  0  0  0  0  0  0  0  0
  -39.0585  -70.4928   54.1831 C   0  0  0  0  0  0  0  0  0  0  0  0
  -38.1938  -70.2229   53.1286 C   0  0  0  0  0  0  0  0  0  0  0  0
  -38.3962  -69.1007   52.3333 C   0  0  0  0  0  0  0  0  0  0  0  0
  -37.6450  -67.8249   50.3689 N   0  0  0  0  0  0  0  0  0  0  0  0
  -35.8605  -68.9277   49.8556 N   0  0  0  0  0  0  0  0  0  0  0  0
  -36.3786  -69.5012   50.9169 N   0  0  0  0  0  0  0  0  0  0  0  0
  -39.5993  -67.4245   52.0012 H   0  0  0  0  0  0  0  0  0  0  0  0
  -43.6141  -63.4836   52.3252 H   0  0  0  0  0  0  0  0  0  0  0  0
  -43.7597  -66.7846   54.8203 H   0  0  0  0  0  0  0  0  0  0  0  0
  -36.4278  -67.2817   48.7228 H   0  0  0  0  0  0  0  0  0  0  0  0
  -39.6931  -61.2482   47.3729 H   0  0  0  0  0  0  0  0  0  0  0  0
  -37.4277  -62.2429   47.9850 H   0  0  0  0  0  0  0  0  0  0  0  0
  -41.4788  -62.5282   48.7922 H   0  0  0  0  0  0  0  0  0  0  0  0
  -41.5697  -63.0364   51.1278 H   0  0  0  0  0  0  0  0  0  0  0  0
  -40.4935  -66.2175   52.3281 H   0  0  0  0  0  0  0  0  0  0  0  0
  -44.7560  -64.7738   53.9875 H   0  0  0  0  0  0  0  0  0  0  0  0
  -41.2355  -70.3201   56.0806 H   0  0  0  0  0  0  0  0  0  0  0  0
  -38.9198  -71.2984   54.7590 H   0  0  0  0  0  0  0  0  0  0  0  0
  -37.4261  -70.8359   52.9420 H   0  0  0  0  0  0  0  0  0  0  0  0
  -38.3817  -67.1488   50.3567 H   0  0  0  0  0  0  0  0  0  0  0  0
  1  2  2  0  0  0  0
  1 25  1  0  0  0  0
  2  3  1  0  0  0  0
  2 20  1  0  0  0  0
  3 22  1  0  0  0  0
  3 23  2  0  0  0  0
  4  6  2  0  0  0  0
  4 18  1  0  0  0  0
  4 20  1  0  0  0  0
  5 17  1  0  0  0  0
  5 19  2  0  0  0  0
  6 19  1  0  0  0  0
  7 25  1  0  0  0  0
  7 26  1  0  0  0  0
  7 28  2  0  0  0  0
  8 26  1  0  0  0  0
  8 27  2  0  0  0  0
  9 10  1  0  0  0  0
  9 12  2  0  0  0  0
  9 16  1  0  0  0  0
 10 13  1  0  0  0  0
 10 15  2  0  0  0  0
 11 14  2  0  0  0  0
 11 15  1  0  0  0  0
 13 14  1  0  0  0  0
 16 17  1  0  0  0  0
 17 18  2  0  0  0  0
 20 21  2  0  0  0  0
 21 22  1  0  0  0  0
 23 24  1  0  0  0  0
 24 25  2  0  0  0  0
 27 28  1  0  0  0  0
  1 29  1  0  0  0  0
  5 30  1  0  0  0  0
  6 31  1  0  0  0  0
  8 32  1  0  0  0  0
 11 33  1  0  0  0  0
 14 34  1  0  0  0  0
 15 35  1  0  0  0  0
 16 36  1  0  0  0  0
 18 37  1  0  0  0  0
 19 38  1  0  0  0  0
 22 39  1  0  0  0  0
 23 40  1  0  0  0  0
 24 41  1  0  0  0  0
 26 42  1  0  0  0  0
M  END
> <BIOSOLVEIT.HYDE_ESTIMATED_AFFINITY_LOWER_BOUNDARY [nM]>
10554.131205

> <BIOSOLVEIT.HYDE_ESTIMATED_AFFINITY_UPPER_BOUNDARY [nM]>
1048615.336227

> <BIOSOLVEIT.HYDE_LIGAND_EFFICIENCY range: ++, +, 0, -, -->
--

> <BIOSOLVEIT.HYDE_LIGAND_LIPOPHILIC_EFFICIENCY range: ++, +, 0, -, -->
--

> <BIOSOLVEIT.LOGP>
3.8603

> <BIOSOLVEIT.MOLECULAR WEIGHT>
370.371

> <BIOSOLVEIT.MOLECULE_CHECKSUM>
LTIyLjcwNjM7MC44MTA5NDE=

> <BIOSOLVEIT.TPSA>
112.49

> <OPTIBRIUM.BBB category>
-

> <OPTIBRIUM.PPB90 category>
high

> <OPTIBRIUM.2C9 pKi>
5.84074

> <OPTIBRIUM.logS @ pH7.4>
1.53975

> <OPTIBRIUM.BBB log([brain]:[blood])>
-0.60599

> <OPTIBRIUM.2D6 affinity category>
medium

> <OPTIBRIUM.logS>
1.53975

> <OPTIBRIUM.logD>
2.79495

> <OPTIBRIUM.hERG pIC50>
4.2139

> <OPTIBRIUM.logP>
2.79495

> <OPTIBRIUM.HIA category>
+

> <OPTIBRIUM.P-gp category>
yes

$$$$
35F_B_2_1_006
joSeeSAR  03092211433D 1   1.00000     0.00000     0
SeeSAR 11.2.2 jonathanwahrer
 42 46  0  0  0  0            999 V2000
  -40.2917  -67.9931   52.3009 C   0  0  0  0  0  0  0  0  0  0  0  0
  -40.8329  -68.4743   53.4867 C   0  0  0  0  0  0  0  0  0  0  0  0
  -40.2008  -69.4369   54.2313 C   0  0  0  0  0  0  0  0  0  0  0  0
  -43.0346  -67.2149   53.7953 C   0  0  0  0  0  0  0  0  0  0  0  0
  -44.9721  -65.3740   53.0484 C   0  0  0  0  0  0  0  0  0  0  0  0
  -44.1003  -66.9453   54.6474 C   0  0  0  0  0  0  0  0  0  0  0  0
  -38.5049  -68.0224   50.6471 C   0  0  0  0  0  0  0  0  0  0  0  0
  -37.1694  -67.6458   48.9932 C   0  0  0  0  0  0  0  0  0  0  0  0
  -43.8460  -63.6754   50.7644 C   0  0  0  0  0  0  0  0  0  0  0  0
  -43.7443  -63.2131   49.5116 C   0  0  0  0  0  0  0  0  0  0  0  0
  -44.2294  -62.5432   47.4661 C   0  0  0  0  0  0  0  0  0  0  0  0
  -43.9866  -62.8952   51.6845 O   0  0  0  0  0  0  0  0  0  0  0  0
  -42.6366  -62.8502   48.9092 O   0  0  0  0  0  0  0  0  0  0  0  0
  -42.8860  -62.4447   47.6827 C   0  0  0  0  0  0  0  0  0  0  0  0
  -44.7924  -63.0472   48.6583 C   0  0  0  0  0  0  0  0  0  0  0  0
  -43.8005  -64.9955   50.9667 N   0  0  0  0  0  0  0  0  0  0  0  0
  -43.9020  -65.6490   52.2011 C   0  0  0  0  0  0  0  0  0  0  0  0
  -42.9265  -66.5703   52.5677 C   0  0  0  0  0  0  0  0  0  0  0  0
  -45.0732  -66.0235   54.2747 C   0  0  0  0  0  0  0  0  0  0  0  0
  -42.0218  -68.1762   54.1859 C   0  0  0  0  0  0  0  0  0  0  0  0
  -42.0466  -68.9295   55.2568 N   0  0  0  0  0  0  0  0  0  0  0  0
  -40.9802  -69.6960   55.3219 N   0  0  0  0  0  0  0  0  0  0  0  0
  -38.9822  -69.9596   53.8101 C   0  0  0  0  0  0  0  0  0  0  0  0
  -38.4198  -69.4931   52.6274 C   0  0  0  0  0  0  0  0  0  0  0  0
  -39.0748  -68.5186   51.8830 C   0  0  0  0  0  0  0  0  0  0  0  0
  -37.3185  -68.3163   50.1727 N   0  0  0  0  0  0  0  0  0  0  0  0
  -38.2806  -66.9605   48.7943 N   0  0  0  0  0  0  0  0  0  0  0  0
  -39.1221  -67.1734   49.7793 N   0  0  0  0  0  0  0  0  0  0  0  0
  -40.7624  -67.2917   51.7655 H   0  0  0  0  0  0  0  0  0  0  0  0
  -45.6681  -64.7098   52.7756 H   0  0  0  0  0  0  0  0  0  0  0  0
  -44.1671  -67.4142   55.5282 H   0  0  0  0  0  0  0  0  0  0  0  0
  -36.3698  -67.6691   48.3931 H   0  0  0  0  0  0  0  0  0  0  0  0
  -44.7191  -62.3052   46.6273 H   0  0  0  0  0  0  0  0  0  0  0  0
  -42.2081  -62.1201   47.0232 H   0  0  0  0  0  0  0  0  0  0  0  0
  -45.7567  -63.2415   48.8381 H   0  0  0  0  0  0  0  0  0  0  0  0
  -43.6826  -65.5725   50.1586 H   0  0  0  0  0  0  0  0  0  0  0  0
  -42.1589  -66.7663   51.9577 H   0  0  0  0  0  0  0  0  0  0  0  0
  -45.8412  -65.8288   54.8848 H   0  0  0  0  0  0  0  0  0  0  0  0
  -40.7755  -70.3552   56.0455 H   0  0  0  0  0  0  0  0  0  0  0  0
  -38.5173  -70.6609   54.3505 H   0  0  0  0  0  0  0  0  0  0  0  0
  -37.5441  -69.8585   52.3120 H   0  0  0  0  0  0  0  0  0  0  0  0
  -40.0395  -66.7867   49.8742 H   0  0  0  0  0  0  0  0  0  0  0  0
  1  2  2  0  0  0  0
  1 25  1  0  0  0  0
  2  3  1  0  0  0  0
  2 20  1  0  0  0  0
  3 22  1  0  0  0  0
  3 23  2  0  0  0  0
  4  6  2  0  0  0  0
  4 18  1  0  0  0  0
  4 20  1  0  0  0  0
  5 17  1  0  0  0  0
  5 19  2  0  0  0  0
  6 19  1  0  0  0  0
  7 25  1  0  0  0  0
  7 26  2  0  0  0  0
  7 28  1  0  0  0  0
  8 26  1  0  0  0  0
  8 27  2  0  0  0  0
  9 10  1  0  0  0  0
  9 12  2  0  0  0  0
  9 16  1  0  0  0  0
 10 13  1  0  0  0  0
 10 15  2  0  0  0  0
 11 14  2  0  0  0  0
 11 15  1  0  0  0  0
 13 14  1  0  0  0  0
 16 17  1  0  0  0  0
 17 18  2  0  0  0  0
 20 21  2  0  0  0  0
 21 22  1  0  0  0  0
 23 24  1  0  0  0  0
 24 25  2  0  0  0  0
 27 28  1  0  0  0  0
  1 29  1  0  0  0  0
  5 30  1  0  0  0  0
  6 31  1  0  0  0  0
  8 32  1  0  0  0  0
 11 33  1  0  0  0  0
 14 34  1  0  0  0  0
 15 35  1  0  0  0  0
 16 36  1  0  0  0  0
 18 37  1  0  0  0  0
 19 38  1  0  0  0  0
 22 39  1  0  0  0  0
 23 40  1  0  0  0  0
 24 41  1  0  0  0  0
 28 42  1  0  0  0  0
M  END
> <BIOSOLVEIT.HYDE_ESTIMATED_AFFINITY_LOWER_BOUNDARY [nM]>
12056.082783

> <BIOSOLVEIT.HYDE_ESTIMATED_AFFINITY_UPPER_BOUNDARY [nM]>
1197843.105701

> <BIOSOLVEIT.HYDE_LIGAND_EFFICIENCY range: ++, +, 0, -, -->
--

> <BIOSOLVEIT.HYDE_LIGAND_LIPOPHILIC_EFFICIENCY range: ++, +, 0, -, -->
--

> <BIOSOLVEIT.LOGP>
3.8603

> <BIOSOLVEIT.MOLECULAR WEIGHT>
370.371

> <BIOSOLVEIT.MOLECULE_CHECKSUM>
LTIyLjM3NjU7MC43OTkxNjE=

> <BIOSOLVEIT.TPSA>
112.49

> <OPTIBRIUM.BBB category>
-

> <OPTIBRIUM.PPB90 category>
high

> <OPTIBRIUM.2C9 pKi>
5.84074

> <OPTIBRIUM.logS @ pH7.4>
1.53975

> <OPTIBRIUM.BBB log([brain]:[blood])>
-0.60599

> <OPTIBRIUM.2D6 affinity category>
medium

> <OPTIBRIUM.logS>
1.53975

> <OPTIBRIUM.logD>
2.79495

> <OPTIBRIUM.hERG pIC50>
4.2139

> <OPTIBRIUM.logP>
2.79495

> <OPTIBRIUM.HIA category>
+

> <OPTIBRIUM.P-gp category>
yes

$$$$
35F_B_2_1_003
joSeeSAR  03092211433D 1   1.00000     0.00000     0
SeeSAR 11.2.2 jonathanwahrer
 42 46  0  0  0  0            999 V2000
  -39.4283  -68.3536   52.5822 C   0  0  0  0  0  0  0  0  0  0  0  0
  -40.2722  -68.6002   53.6581 C   0  0  0  0  0  0  0  0  0  0  0  0
  -40.0439  -69.6300   54.5345 C   0  0  0  0  0  0  0  0  0  0  0  0
  -42.1040  -66.8247   53.5125 C   0  0  0  0  0  0  0  0  0  0  0  0
  -43.3528  -64.6287   52.3643 C   0  0  0  0  0  0  0  0  0  0  0  0
  -43.1671  -66.2110   54.1664 C   0  0  0  0  0  0  0  0  0  0  0  0
  -37.4457  -68.9376   51.2951 C   0  0  0  0  0  0  0  0  0  0  0  0
  -36.6649  -68.3354   49.3746 C   0  0  0  0  0  0  0  0  0  0  0  0
  -40.5884  -64.4234   50.1687 C   0  0  0  0  0  0  0  0  0  0  0  0
  -40.3337  -63.9641   48.9367 C   0  0  0  0  0  0  0  0  0  0  0  0
  -40.4075  -62.7991   47.0644 C   0  0  0  0  0  0  0  0  0  0  0  0
  -39.6858  -64.5123   50.9766 O   0  0  0  0  0  0  0  0  0  0  0  0
  -39.4137  -64.4165   48.1179 O   0  0  0  0  0  0  0  0  0  0  0  0
  -39.4278  -63.7453   46.9865 C   0  0  0  0  0  0  0  0  0  0  0  0
  -41.0027  -62.9412   48.3364 C   0  0  0  0  0  0  0  0  0  0  0  0
  -41.8426  -64.7636   50.4800 N   0  0  0  0  0  0  0  0  0  0  0  0
  -42.2876  -65.2483   51.7161 C   0  0  0  0  0  0  0  0  0  0  0  0
  -41.6562  -66.3496   52.2847 C   0  0  0  0  0  0  0  0  0  0  0  0
  -43.7952  -65.1104   53.5923 C   0  0  0  0  0  0  0  0  0  0  0  0
  -41.4510  -67.9717   54.1129 C   0  0  0  0  0  0  0  0  0  0  0  0
  -41.8521  -68.6155   55.1804 N   0  0  0  0  0  0  0  0  0  0  0  0
  -41.0421  -69.6110   55.4659 N   0  0  0  0  0  0  0  0  0  0  0  0
  -38.9423  -70.4626   54.3644 C   0  0  0  0  0  0  0  0  0  0  0  0
  -38.0823  -70.2350   53.2960 C   0  0  0  0  0  0  0  0  0  0  0  0
  -38.3296  -69.1881   52.4152 C   0  0  0  0  0  0  0  0  0  0  0  0
  -37.7851  -68.3917   50.1524 N   0  0  0  0  0  0  0  0  0  0  0  0
  -35.6775  -68.8569   50.0796 N   0  0  0  0  0  0  0  0  0  0  0  0
  -36.1154  -69.2270   51.2607 N   0  0  0  0  0  0  0  0  0  0  0  0
  -39.6056  -67.6003   51.9489 H   0  0  0  0  0  0  0  0  0  0  0  0
  -43.7999  -63.8375   51.9472 H   0  0  0  0  0  0  0  0  0  0  0  0
  -43.4799  -66.5607   55.0495 H   0  0  0  0  0  0  0  0  0  0  0  0
  -36.6036  -67.9686   48.4463 H   0  0  0  0  0  0  0  0  0  0  0  0
  -40.6553  -62.1351   46.3589 H   0  0  0  0  0  0  0  0  0  0  0  0
  -38.8247  -63.9018   46.2044 H   0  0  0  0  0  0  0  0  0  0  0  0
  -41.7560  -62.4044   48.7162 H   0  0  0  0  0  0  0  0  0  0  0  0
  -42.5299  -64.6623   49.7607 H   0  0  0  0  0  0  0  0  0  0  0  0
  -40.8914  -66.7931   51.8174 H   0  0  0  0  0  0  0  0  0  0  0  0
  -44.5606  -64.6680   54.0597 H   0  0  0  0  0  0  0  0  0  0  0  0
  -41.1402  -70.2451   56.2329 H   0  0  0  0  0  0  0  0  0  0  0  0
  -38.7714  -71.2140   55.0017 H   0  0  0  0  0  0  0  0  0  0  0  0
  -37.2859  -70.8243   53.1610 H   0  0  0  0  0  0  0  0  0  0  0  0
  -35.5761  -69.6416   51.9937 H   0  0  0  0  0  0  0  0  0  0  0  0
  1  2  2  0  0  0  0
  1 25  1  0  0  0  0
  2  3  1  0  0  0  0
  2 20  1  0  0  0  0
  3 22  1  0  0  0  0
  3 23  2  0  0  0  0
  4  6  2  0  0  0  0
  4 18  1  0  0  0  0
  4 20  1  0  0  0  0
  5 17  1  0  0  0  0
  5 19  2  0  0  0  0
  6 19  1  0  0  0  0
  7 25  1  0  0  0  0
  7 26  2  0  0  0  0
  7 28  1  0  0  0  0
  8 26  1  0  0  0  0
  8 27  2  0  0  0  0
  9 10  1  0  0  0  0
  9 12  2  0  0  0  0
  9 16  1  0  0  0  0
 10 13  1  0  0  0  0
 10 15  2  0  0  0  0
 11 14  2  0  0  0  0
 11 15  1  0  0  0  0
 13 14  1  0  0  0  0
 16 17  1  0  0  0  0
 17 18  2  0  0  0  0
 20 21  2  0  0  0  0
 21 22  1  0  0  0  0
 23 24  1  0  0  0  0
 24 25  2  0  0  0  0
 27 28  1  0  0  0  0
  1 29  1  0  0  0  0
  5 30  1  0  0  0  0
  6 31  1  0  0  0  0
  8 32  1  0  0  0  0
 11 33  1  0  0  0  0
 14 34  1  0  0  0  0
 15 35  1  0  0  0  0
 16 36  1  0  0  0  0
 18 37  1  0  0  0  0
 19 38  1  0  0  0  0
 22 39  1  0  0  0  0
 23 40  1  0  0  0  0
 24 41  1  0  0  0  0
 28 42  1  0  0  0  0
M  END
> <BIOSOLVEIT.HYDE_ESTIMATED_AFFINITY_LOWER_BOUNDARY [nM]>
7411600.379668

> <BIOSOLVEIT.HYDE_ESTIMATED_AFFINITY_UPPER_BOUNDARY [nM]>
736386318.569497

> <BIOSOLVEIT.HYDE_LIGAND_EFFICIENCY range: ++, +, 0, -, -->
--

> <BIOSOLVEIT.HYDE_LIGAND_LIPOPHILIC_EFFICIENCY range: ++, +, 0, -, -->
--

> <BIOSOLVEIT.LOGP>
3.8603

> <BIOSOLVEIT.MOLECULAR WEIGHT>
370.371

> <BIOSOLVEIT.MOLECULE_CHECKSUM>
LTYuNDU4NTY7MC4yMzA2NjM=

> <BIOSOLVEIT.TPSA>
112.49

> <OPTIBRIUM.BBB category>
-

> <OPTIBRIUM.PPB90 category>
high

> <OPTIBRIUM.2C9 pKi>
5.84074

> <OPTIBRIUM.logS @ pH7.4>
1.53975

> <OPTIBRIUM.BBB log([brain]:[blood])>
-0.60599

> <OPTIBRIUM.2D6 affinity category>
medium

> <OPTIBRIUM.logS>
1.53975

> <OPTIBRIUM.logD>
2.79495

> <OPTIBRIUM.hERG pIC50>
4.2139

> <OPTIBRIUM.logP>
2.79495

> <OPTIBRIUM.HIA category>
+

> <OPTIBRIUM.P-gp category>
yes

$$$$
35F_B_2_1_007
joSeeSAR  03092211433D 1   1.00000     0.00000     0
SeeSAR 11.2.2 jonathanwahrer
 42 46  0  0  0  0            999 V2000
  -39.4074  -68.3658   52.5949 C   0  0  0  0  0  0  0  0  0  0  0  0
  -40.2593  -68.6027   53.6666 C   0  0  0  0  0  0  0  0  0  0  0  0
  -40.0435  -69.6312   54.5478 C   0  0  0  0  0  0  0  0  0  0  0  0
  -42.0773  -66.8145   53.5047 C   0  0  0  0  0  0  0  0  0  0  0  0
  -43.3036  -64.6133   52.3421 C   0  0  0  0  0  0  0  0  0  0  0  0
  -43.1985  -66.2490   54.1027 C   0  0  0  0  0  0  0  0  0  0  0  0
  -37.4218  -68.9684   51.3211 C   0  0  0  0  0  0  0  0  0  0  0  0
  -36.6276  -68.3869   49.3997 C   0  0  0  0  0  0  0  0  0  0  0  0
  -40.3872  -64.3418   50.3229 C   0  0  0  0  0  0  0  0  0  0  0  0
  -40.0636  -63.8238   49.1310 C   0  0  0  0  0  0  0  0  0  0  0  0
  -39.5280  -62.4137   47.5207 C   0  0  0  0  0  0  0  0  0  0  0  0
  -39.5237  -64.5125   51.1598 O   0  0  0  0  0  0  0  0  0  0  0  0
  -39.9168  -64.4925   48.0117 O   0  0  0  0  0  0  0  0  0  0  0  0
  -39.5977  -63.6828   47.0251 C   0  0  0  0  0  0  0  0  0  0  0  0
  -39.8343  -62.5023   48.8957 C   0  0  0  0  0  0  0  0  0  0  0  0
  -41.6655  -64.6488   50.5631 N   0  0  0  0  0  0  0  0  0  0  0  0
  -42.1804  -65.1848   51.7500 C   0  0  0  0  0  0  0  0  0  0  0  0
  -41.5598  -66.2882   52.3260 C   0  0  0  0  0  0  0  0  0  0  0  0
  -43.8154  -65.1461   53.5211 C   0  0  0  0  0  0  0  0  0  0  0  0
  -41.4360  -67.9642   54.1126 C   0  0  0  0  0  0  0  0  0  0  0  0
  -41.8479  -68.6013   55.1799 N   0  0  0  0  0  0  0  0  0  0  0  0
  -41.0467  -69.6019   55.4733 N   0  0  0  0  0  0  0  0  0  0  0  0
  -38.9469  -70.4722   54.3868 C   0  0  0  0  0  0  0  0  0  0  0  0
  -38.0793  -70.2544   53.3226 C   0  0  0  0  0  0  0  0  0  0  0  0
  -38.3139  -69.2089   52.4369 C   0  0  0  0  0  0  0  0  0  0  0  0
  -37.7540  -68.4384   50.1689 N   0  0  0  0  0  0  0  0  0  0  0  0
  -35.6439  -68.8951   50.1194 N   0  0  0  0  0  0  0  0  0  0  0  0
  -36.0900  -69.2523   51.3014 N   0  0  0  0  0  0  0  0  0  0  0  0
  -39.5756  -67.6134   51.9581 H   0  0  0  0  0  0  0  0  0  0  0  0
  -43.7423  -63.8199   51.9200 H   0  0  0  0  0  0  0  0  0  0  0  0
  -43.5612  -66.6353   54.9507 H   0  0  0  0  0  0  0  0  0  0  0  0
  -36.5601  -68.0315   48.4674 H   0  0  0  0  0  0  0  0  0  0  0  0
  -39.3040  -61.5835   47.0102 H   0  0  0  0  0  0  0  0  0  0  0  0
  -39.4342  -63.9513   46.0757 H   0  0  0  0  0  0  0  0  0  0  0  0
  -39.8745  -61.7533   49.5571 H   0  0  0  0  0  0  0  0  0  0  0  0
  -42.3173  -64.4793   49.8239 H   0  0  0  0  0  0  0  0  0  0  0  0
  -40.7533  -66.6971   51.8990 H   0  0  0  0  0  0  0  0  0  0  0  0
  -44.6225  -64.7382   53.9482 H   0  0  0  0  0  0  0  0  0  0  0  0
  -41.1538  -70.2325   56.2419 H   0  0  0  0  0  0  0  0  0  0  0  0
  -38.7852  -71.2228   55.0274 H   0  0  0  0  0  0  0  0  0  0  0  0
  -37.2863  -70.8500   53.1941 H   0  0  0  0  0  0  0  0  0  0  0  0
  -35.5550  -69.6552   52.0439 H   0  0  0  0  0  0  0  0  0  0  0  0
  1  2  2  0  0  0  0
  1 25  1  0  0  0  0
  2  3  1  0  0  0  0
  2 20  1  0  0  0  0
  3 22  1  0  0  0  0
  3 23  2  0  0  0  0
  4  6  2  0  0  0  0
  4 18  1  0  0  0  0
  4 20  1  0  0  0  0
  5 17  1  0  0  0  0
  5 19  2  0  0  0  0
  6 19  1  0  0  0  0
  7 25  1  0  0  0  0
  7 26  2  0  0  0  0
  7 28  1  0  0  0  0
  8 26  1  0  0  0  0
  8 27  2  0  0  0  0
  9 10  1  0  0  0  0
  9 12  2  0  0  0  0
  9 16  1  0  0  0  0
 10 13  1  0  0  0  0
 10 15  2  0  0  0  0
 11 14  2  0  0  0  0
 11 15  1  0  0  0  0
 13 14  1  0  0  0  0
 16 17  1  0  0  0  0
 17 18  2  0  0  0  0
 20 21  2  0  0  0  0
 21 22  1  0  0  0  0
 23 24  1  0  0  0  0
 24 25  2  0  0  0  0
 27 28  1  0  0  0  0
  1 29  1  0  0  0  0
  5 30  1  0  0  0  0
  6 31  1  0  0  0  0
  8 32  1  0  0  0  0
 11 33  1  0  0  0  0
 14 34  1  0  0  0  0
 15 35  1  0  0  0  0
 16 36  1  0  0  0  0
 18 37  1  0  0  0  0
 19 38  1  0  0  0  0
 22 39  1  0  0  0  0
 23 40  1  0  0  0  0
 24 41  1  0  0  0  0
 28 42  1  0  0  0  0
M  END
> <BIOSOLVEIT.HYDE_ESTIMATED_AFFINITY_LOWER_BOUNDARY [nM]>
8204317.461683

> <BIOSOLVEIT.HYDE_ESTIMATED_AFFINITY_UPPER_BOUNDARY [nM]>
815147447.581978

> <BIOSOLVEIT.HYDE_LIGAND_EFFICIENCY range: ++, +, 0, -, -->
--

> <BIOSOLVEIT.HYDE_LIGAND_LIPOPHILIC_EFFICIENCY range: ++, +, 0, -, -->
--

> <BIOSOLVEIT.LOGP>
3.8603

> <BIOSOLVEIT.MOLECULAR WEIGHT>
370.371

> <BIOSOLVEIT.MOLECULE_CHECKSUM>
LTYuMjA2NjY7MC4yMjE2Njc=

> <BIOSOLVEIT.TPSA>
112.49

> <OPTIBRIUM.BBB category>
-

> <OPTIBRIUM.PPB90 category>
high

> <OPTIBRIUM.2C9 pKi>
5.84074

> <OPTIBRIUM.logS @ pH7.4>
1.53975

> <OPTIBRIUM.BBB log([brain]:[blood])>
-0.60599

> <OPTIBRIUM.2D6 affinity category>
medium

> <OPTIBRIUM.logS>
1.53975

> <OPTIBRIUM.logD>
2.79495

> <OPTIBRIUM.hERG pIC50>
4.2139

> <OPTIBRIUM.logP>
2.79495

> <OPTIBRIUM.HIA category>
+

> <OPTIBRIUM.P-gp category>
yes

$$$$
