# created with PyMOL 2.5.2
@<TRIPOS>MOLECULE
35F_B_2_1_002
42 46 1                 
SMALL
USER_CHARGES
@<TRIPOS>ATOM
1	   C	-40.250	-67.977	52.324	C.2	1	UNK0	0.000	
2	   C	-40.803	-68.450	53.507	C.2	1	UNK0	0.000	
3	   C	-40.201	-69.440	54.241	C.2	1	UNK0	0.000	
4	   C	-42.960	-67.120	53.836	C.2	1	UNK0	0.000	
5	   C	-44.836	-65.207	53.113	C.2	1	UNK0	0.000	
6	   C	-43.943	-66.736	54.742	C.2	1	UNK0	0.000	
7	   C	-38.472	-68.051	50.662	C.2	1	UNK0	0.000	
8	   C	-37.136	-67.715	49.000	C.2	1	UNK0	0.000	
9	   C	-43.833	-63.715	50.655	C.2	1	UNK0	0.000	
10	   C	-43.787	-63.333	49.372	C.2	1	UNK0	0.000	
11	   C	-43.074	-62.844	47.343	C.2	1	UNK0	0.000	
12	   O	-43.914	-62.878	51.531	O.2	1	UNK0	0.000	
13	   O	-44.806	-62.930	48.649	O.3	1	UNK0	0.000	
14	   C	-44.418	-62.627	47.429	C.2	1	UNK0	0.000	
15	   C	-42.659	-63.303	48.611	C.2	1	UNK0	0.000	
16	   N	-43.799	-65.021	50.937	N.pl3	1	UNK0	0.000	
17	   C	-43.848	-65.596	52.213	C.2	1	UNK0	0.000	
18	   C	-42.904	-66.554	52.567	C.2	1	UNK0	0.000	
19	   C	-44.886	-65.779	54.381	C.2	1	UNK0	0.000	
20	   C	-41.979	-68.118	54.214	C.2	1	UNK0	0.000	
21	   N	-42.025	-68.880	55.278	N.2	1	UNK0	0.000	
22	   N	-40.985	-69.683	55.332	N.pl3	1	UNK0	0.000	
23	   C	-39.003	-70.000	53.810	C.2	1	UNK0	0.000	
24	   C	-38.429	-69.542	52.629	C.2	1	UNK0	0.000	
25	   C	-39.054	-68.539	51.896	C.2	1	UNK0	0.000	
26	   N	-37.307	-68.398	50.169	N.2	1	UNK0	0.000	
27	   N	-38.212	-66.970	48.826	N.2	1	UNK0	0.000	
28	   N	-39.053	-67.156	49.816	N.pl3	1	UNK0	0.000	
29	   H	-40.699	-67.255	51.797	 H	1	UNK0	0.000	
30	   H	-45.511	-64.518	52.849	 H	1	UNK0	0.000	
31	   H	-43.973	-67.149	55.652	 H	1	UNK0	0.000	
32	   H	-36.345	-67.769	48.390	 H	1	UNK0	0.000	
33	   H	-42.496	-62.705	46.539	 H	1	UNK0	0.000	
34	   H	-45.007	-62.296	46.692	 H	1	UNK0	0.000	
35	   H	-41.732	-63.552	48.892	 H	1	UNK0	0.000	
36	   H	-43.732	-65.649	50.161	 H	1	UNK0	0.000	
37	   H	-42.195	-66.831	51.918	 H	1	UNK0	0.000	
38	   H	-45.595	-65.502	55.030	 H	1	UNK0	0.000	
39	   H	-40.800	-70.355	56.049	 H	1	UNK0	0.000	
40	   H	-38.560	-70.721	54.342	 H	1	UNK0	0.000	
41	   H	-37.567	-69.934	52.307	 H	1	UNK0	0.000	
42	   H	-39.948	-66.725	49.928	 H	1	UNK0	0.000	
@<TRIPOS>BOND
1 1 2 2
2 1 25 1
3 2 3 1
4 2 20 1
5 3 22 1
6 3 23 2
7 4 6 2
8 4 18 1
9 4 20 1
10 5 17 1
11 5 19 2
12 6 19 1
13 7 25 1
14 7 26 2
15 7 28 1
16 8 26 1
17 8 27 2
18 9 10 1
19 9 12 2
20 9 16 1
21 10 13 1
22 10 15 2
23 11 14 2
24 11 15 1
25 13 14 1
26 16 17 1
27 17 18 2
28 20 21 2
29 21 22 1
30 23 24 1
31 24 25 2
32 27 28 1
33 1 29 1
34 5 30 1
35 6 31 1
36 8 32 1
37 11 33 1
38 14 34 1
39 15 35 1
40 16 36 1
41 18 37 1
42 19 38 1
43 22 39 1
44 23 40 1
45 24 41 1
46 28 42 1
@<TRIPOS>SUBSTRUCTURE
1	UNK0	1	GROUP	1 ****	UNK
