# created with PyMOL 2.5.2
@<TRIPOS>MOLECULE
GS7_A_365_1_003
55 58 1                 
SMALL
USER_CHARGES
@<TRIPOS>ATOM
1	   C	20.403	8.725	32.460	C.2	1	UNK0	0.000	
2	   N	21.074	7.598	32.178	N.2	1	UNK0	0.000	
3	   C	19.114	8.625	32.974	C.2	1	UNK0	0.000	
4	   C	18.571	7.382	33.186	C.2	1	UNK0	0.000	
5	   N	17.322	7.575	33.700	N.pl3	1	UNK0	0.000	
6	   C	17.058	8.909	33.817	C.2	1	UNK0	0.000	
7	   C	18.154	9.587	33.374	C.2	1	UNK0	0.000	
8	   N	19.295	6.292	32.880	N.2	1	UNK0	0.000	
9	   C	20.537	6.383	32.378	C.2	1	UNK0	0.000	
10	   N	21.280	5.238	32.063	N.pl3	1	UNK0	0.000	
11	   C	22.582	5.253	31.525	C.2	1	UNK0	0.000	
12	   C	23.521	4.318	31.950	C.2	1	UNK0	0.000	
13	   O	23.176	3.401	32.878	O.3	1	UNK0	0.000	
14	   C	24.250	2.496	33.087	C.3	1	UNK0	0.000	
15	   C	22.918	6.207	30.570	C.2	1	UNK0	0.000	
16	   C	24.204	6.216	30.042	C.2	1	UNK0	0.000	
17	   C	25.138	5.279	30.471	C.2	1	UNK0	0.000	
18	   C	24.809	4.324	31.426	C.2	1	UNK0	0.000	
19	   C	26.545	5.290	29.895	C.3	1	UNK0	0.000	
20	   S	26.435	5.515	28.133	S.O2	1	UNK0	0.000	
21	   O	26.549	6.929	27.830	O.2	1	UNK0	0.000	
22	   O	25.291	4.751	27.672	O.2	1	UNK0	0.000	
23	   C	27.902	4.711	27.561	C.3	1	UNK0	0.000	
24	   O	20.602	12.648	31.521	O.2	1	UNK0	0.000	
25	   C	21.425	12.294	30.686	C.2	1	UNK0	0.000	
26	   N	21.415	12.665	29.366	N.pl3	1	UNK0	0.000	
27	   C	22.519	11.414	31.053	C.2	1	UNK0	0.000	
28	   C	23.813	11.703	30.635	C.2	1	UNK0	0.000	
29	   F	24.049	12.785	29.898	 F	1	UNK0	0.000	
30	   C	24.867	10.863	30.981	C.2	1	UNK0	0.000	
31	   C	24.624	9.731	31.751	C.2	1	UNK0	0.000	
32	   C	23.330	9.439	32.171	C.2	1	UNK0	0.000	
33	   C	22.278	10.280	31.823	C.2	1	UNK0	0.000	
34	   N	20.978	9.985	32.247	N.pl3	1	UNK0	0.000	
35	   H	16.690	6.844	33.954	 H	1	UNK0	0.000	
36	   H	16.213	9.316	34.164	 H	1	UNK0	0.000	
37	   H	18.261	10.580	33.337	 H	1	UNK0	0.000	
38	   H	20.856	4.348	32.232	 H	1	UNK0	0.000	
39	   H	23.988	1.820	33.775	 H	1	UNK0	0.000	
40	   H	24.465	2.030	32.228	 H	1	UNK0	0.000	
41	   H	25.054	2.999	33.403	 H	1	UNK0	0.000	
42	   H	22.242	6.878	30.266	 H	1	UNK0	0.000	
43	   H	24.458	6.896	29.355	 H	1	UNK0	0.000	
44	   H	25.486	3.654	31.730	 H	1	UNK0	0.000	
45	   H	26.998	4.421	30.096	 H	1	UNK0	0.000	
46	   H	27.069	6.040	30.298	 H	1	UNK0	0.000	
47	   H	27.949	4.775	26.564	 H	1	UNK0	0.000	
48	   H	28.703	5.155	27.962	 H	1	UNK0	0.000	
49	   H	27.882	3.749	27.833	 H	1	UNK0	0.000	
50	   H	21.750	12.033	28.667	 H	1	UNK0	0.000	
51	   H	21.074	13.567	29.103	 H	1	UNK0	0.000	
52	   H	25.796	11.073	30.677	 H	1	UNK0	0.000	
53	   H	25.380	9.125	32.002	 H	1	UNK0	0.000	
54	   H	23.156	8.625	32.724	 H	1	UNK0	0.000	
55	   H	20.385	10.772	32.420	 H	1	UNK0	0.000	
@<TRIPOS>BOND
1 1 2 2
2 1 3 1
3 1 34 1
4 2 9 1
5 3 4 2
6 3 7 1
7 4 5 1
8 4 8 1
9 5 6 1
10 6 7 2
11 8 9 2
12 9 10 1
13 10 11 1
14 11 12 2
15 11 15 1
16 12 13 1
17 12 18 1
18 13 14 1
19 15 16 2
20 16 17 1
21 17 18 2
22 17 19 1
23 19 20 1
24 20 21 2
25 20 22 2
26 20 23 1
27 24 25 2
28 25 26 1
29 25 27 1
30 27 28 1
31 27 33 2
32 28 29 1
33 28 30 2
34 30 31 1
35 31 32 2
36 32 33 1
37 33 34 1
38 5 35 1
39 6 36 1
40 7 37 1
41 10 38 1
42 14 39 1
43 14 40 1
44 14 41 1
45 15 42 1
46 16 43 1
47 18 44 1
48 19 45 1
49 19 46 1
50 23 47 1
51 23 48 1
52 23 49 1
53 26 50 1
54 26 51 1
55 30 52 1
56 31 53 1
57 32 54 1
58 34 55 1
@<TRIPOS>SUBSTRUCTURE
1	UNK0	1	GROUP	1 ****	UNK
