GS7_A_365_1_003
joSeeSAR  03092211473D 1   1.00000     0.00000     0
SeeSAR 11.2.2 jonathanwahrer
 55 58  0  0  0  0            999 V2000
   20.4030    8.7252   32.4605 C   0  0  0  0  0  0  0  0  0  0  0  0
   21.0738    7.5976   32.1778 N   0  0  0  0  0  0  0  0  0  0  0  0
   19.1136    8.6254   32.9745 C   0  0  0  0  0  0  0  0  0  0  0  0
   18.5713    7.3820   33.1862 C   0  0  0  0  0  0  0  0  0  0  0  0
   17.3223    7.5754   33.6996 N   0  0  0  0  0  0  0  0  0  0  0  0
   17.0578    8.9093   33.8166 C   0  0  0  0  0  0  0  0  0  0  0  0
   18.1542    9.5868   33.3738 C   0  0  0  0  0  0  0  0  0  0  0  0
   19.2946    6.2917   32.8796 N   0  0  0  0  0  0  0  0  0  0  0  0
   20.5370    6.3833   32.3779 C   0  0  0  0  0  0  0  0  0  0  0  0
   21.2796    5.2381   32.0631 N   0  0  0  0  0  0  0  0  0  0  0  0
   22.5821    5.2528   31.5250 C   0  0  0  0  0  0  0  0  0  0  0  0
   23.5209    4.3183   31.9496 C   0  0  0  0  0  0  0  0  0  0  0  0
   23.1755    3.4015   32.8784 O   0  0  0  0  0  0  0  0  0  0  0  0
   24.2504    2.4956   33.0866 C   0  0  0  0  0  0  0  0  0  0  0  0
   22.9176    6.2067   30.5698 C   0  0  0  0  0  0  0  0  0  0  0  0
   24.2043    6.2161   30.0422 C   0  0  0  0  0  0  0  0  0  0  0  0
   25.1381    5.2794   30.4710 C   0  0  0  0  0  0  0  0  0  0  0  0
   24.8090    4.3240   31.4258 C   0  0  0  0  0  0  0  0  0  0  0  0
   26.5448    5.2897   29.8947 C   0  0  0  0  0  0  0  0  0  0  0  0
   26.4352    5.5146   28.1333 S   0  0  0  0  0  0  0  0  0  0  0  0
   26.5488    6.9292   27.8300 O   0  0  0  0  0  0  0  0  0  0  0  0
   25.2909    4.7509   27.6719 O   0  0  0  0  0  0  0  0  0  0  0  0
   27.9017    4.7111   27.5607 C   0  0  0  0  0  0  0  0  0  0  0  0
   20.6019   12.6479   31.5214 O   0  0  0  0  0  0  0  0  0  0  0  0
   21.4246   12.2937   30.6856 C   0  0  0  0  0  0  0  0  0  0  0  0
   21.4153   12.6647   29.3664 N   0  0  0  0  0  0  0  0  0  0  0  0
   22.5186   11.4142   31.0527 C   0  0  0  0  0  0  0  0  0  0  0  0
   23.8134   11.7030   30.6345 C   0  0  0  0  0  0  0  0  0  0  0  0
   24.0486   12.7854   29.8980 F   0  0  0  0  0  0  0  0  0  0  0  0
   24.8665   10.8631   30.9807 C   0  0  0  0  0  0  0  0  0  0  0  0
   24.6241    9.7305   31.7507 C   0  0  0  0  0  0  0  0  0  0  0  0
   23.3298    9.4393   32.1712 C   0  0  0  0  0  0  0  0  0  0  0  0
   22.2782   10.2802   31.8229 C   0  0  0  0  0  0  0  0  0  0  0  0
   20.9776    9.9853   32.2473 N   0  0  0  0  0  0  0  0  0  0  0  0
   16.6901    6.8435   33.9541 H   0  0  0  0  0  0  0  0  0  0  0  0
   16.2128    9.3157   34.1643 H   0  0  0  0  0  0  0  0  0  0  0  0
   18.2613   10.5804   33.3374 H   0  0  0  0  0  0  0  0  0  0  0  0
   20.8562    4.3481   32.2320 H   0  0  0  0  0  0  0  0  0  0  0  0
   23.9881    1.8196   33.7753 H   0  0  0  0  0  0  0  0  0  0  0  0
   24.4655    2.0305   32.2279 H   0  0  0  0  0  0  0  0  0  0  0  0
   25.0542    2.9993   33.4032 H   0  0  0  0  0  0  0  0  0  0  0  0
   22.2415    6.8779   30.2660 H   0  0  0  0  0  0  0  0  0  0  0  0
   24.4579    6.8963   29.3546 H   0  0  0  0  0  0  0  0  0  0  0  0
   25.4857    3.6537   31.7301 H   0  0  0  0  0  0  0  0  0  0  0  0
   26.9976    4.4211   30.0958 H   0  0  0  0  0  0  0  0  0  0  0  0
   27.0686    6.0399   30.2982 H   0  0  0  0  0  0  0  0  0  0  0  0
   27.9491    4.7746   26.5638 H   0  0  0  0  0  0  0  0  0  0  0  0
   28.7031    5.1551   27.9615 H   0  0  0  0  0  0  0  0  0  0  0  0
   27.8825    3.7490   27.8329 H   0  0  0  0  0  0  0  0  0  0  0  0
   21.7498   12.0332   28.6669 H   0  0  0  0  0  0  0  0  0  0  0  0
   21.0739   13.5671   29.1033 H   0  0  0  0  0  0  0  0  0  0  0  0
   25.7957   11.0731   30.6767 H   0  0  0  0  0  0  0  0  0  0  0  0
   25.3796    9.1255   32.0021 H   0  0  0  0  0  0  0  0  0  0  0  0
   23.1557    8.6246   32.7244 H   0  0  0  0  0  0  0  0  0  0  0  0
   20.3845   10.7718   32.4199 H   0  0  0  0  0  0  0  0  0  0  0  0
  1  2  2  0  0  0  0
  1  3  1  0  0  0  0
  1 34  1  0  0  0  0
  2  9  1  0  0  0  0
  3  4  2  0  0  0  0
  3  7  1  0  0  0  0
  4  5  1  0  0  0  0
  4  8  1  0  0  0  0
  5  6  1  0  0  0  0
  6  7  2  0  0  0  0
  8  9  2  0  0  0  0
  9 10  1  0  0  0  0
 10 11  1  0  0  0  0
 11 12  2  0  0  0  0
 11 15  1  0  0  0  0
 12 13  1  0  0  0  0
 12 18  1  0  0  0  0
 13 14  1  0  0  0  0
 15 16  2  0  0  0  0
 16 17  1  0  0  0  0
 17 18  2  0  0  0  0
 17 19  1  0  0  0  0
 19 20  1  0  0  0  0
 20 21  2  0  0  0  0
 20 22  2  0  0  0  0
 20 23  1  0  0  0  0
 24 25  2  0  0  0  0
 25 26  1  0  0  0  0
 25 27  1  0  0  0  0
 27 28  1  0  0  0  0
 27 33  2  0  0  0  0
 28 29  1  0  0  0  0
 28 30  2  0  0  0  0
 30 31  1  0  0  0  0
 31 32  2  0  0  0  0
 32 33  1  0  0  0  0
 33 34  1  0  0  0  0
  5 35  1  0  0  0  0
  6 36  1  0  0  0  0
  7 37  1  0  0  0  0
 10 38  1  0  0  0  0
 14 39  1  0  0  0  0
 14 40  1  0  0  0  0
 14 41  1  0  0  0  0
 15 42  1  0  0  0  0
 16 43  1  0  0  0  0
 18 44  1  0  0  0  0
 19 45  1  0  0  0  0
 19 46  1  0  0  0  0
 23 47  1  0  0  0  0
 23 48  1  0  0  0  0
 23 49  1  0  0  0  0
 26 50  1  0  0  0  0
 26 51  1  0  0  0  0
 30 52  1  0  0  0  0
 31 53  1  0  0  0  0
 32 54  1  0  0  0  0
 34 55  1  0  0  0  0
M  END
> <BIOSOLVEIT.HYDE_ESTIMATED_AFFINITY_LOWER_BOUNDARY [nM]>
178.525515

> <BIOSOLVEIT.HYDE_ESTIMATED_AFFINITY_UPPER_BOUNDARY [nM]>
17737.565439

> <BIOSOLVEIT.HYDE_LIGAND_EFFICIENCY range: ++, +, 0, -, -->
-

> <BIOSOLVEIT.HYDE_LIGAND_LIPOPHILIC_EFFICIENCY range: ++, +, 0, -, -->
--

> <BIOSOLVEIT.LOGP>
3.8869

> <BIOSOLVEIT.MOLECULAR WEIGHT>
484.509

> <BIOSOLVEIT.MOLECULE_CHECKSUM>
LTMyLjgxOTQ7MC45NjUyNzU=

> <BIOSOLVEIT.TPSA>
152.09

> <OPTIBRIUM.BBB category>
-

> <OPTIBRIUM.PPB90 category>
high

> <OPTIBRIUM.2C9 pKi>
5.97282

> <OPTIBRIUM.logS @ pH7.4>
0.230091

> <OPTIBRIUM.BBB log([brain]:[blood])>
-0.872896

> <OPTIBRIUM.2D6 affinity category>
medium

> <OPTIBRIUM.logS>
0.230091

> <OPTIBRIUM.logD>
2.02109

> <OPTIBRIUM.hERG pIC50>
4.85982

> <OPTIBRIUM.logP>
2.02109

> <OPTIBRIUM.HIA category>
-

> <OPTIBRIUM.P-gp category>
yes

$$$$
GS7_A_365_1_001
joSeeSAR  03092211473D 1   1.00000     0.00000     0
SeeSAR 11.2.2 jonathanwahrer
 55 58  0  0  0  0            999 V2000
   20.3982    8.7740   32.3884 C   0  0  0  0  0  0  0  0  0  0  0  0
   21.0790    7.6660   32.0565 N   0  0  0  0  0  0  0  0  0  0  0  0
   19.1280    8.6385   32.9407 C   0  0  0  0  0  0  0  0  0  0  0  0
   18.6145    7.3806   33.1387 C   0  0  0  0  0  0  0  0  0  0  0  0
   17.3796    7.5389   33.6963 N   0  0  0  0  0  0  0  0  0  0  0  0
   17.0959    8.8644   33.8548 C   0  0  0  0  0  0  0  0  0  0  0  0
   18.1655    9.5723   33.3941 C   0  0  0  0  0  0  0  0  0  0  0  0
   19.3462    6.3115   32.7821 N   0  0  0  0  0  0  0  0  0  0  0  0
   20.5700    6.4377   32.2435 C   0  0  0  0  0  0  0  0  0  0  0  0
   21.3219    5.3142   31.8767 N   0  0  0  0  0  0  0  0  0  0  0  0
   22.5634    5.3653   31.2118 C   0  0  0  0  0  0  0  0  0  0  0  0
   23.5869    4.4988   31.5815 C   0  0  0  0  0  0  0  0  0  0  0  0
   23.3820    3.6128   32.5793 O   0  0  0  0  0  0  0  0  0  0  0  0
   24.5119    2.7608   32.7087 C   0  0  0  0  0  0  0  0  0  0  0  0
   22.7539    6.2865   30.1871 C   0  0  0  0  0  0  0  0  0  0  0  0
   23.9812    6.3320   29.5345 C   0  0  0  0  0  0  0  0  0  0  0  0
   25.0003    5.4634   29.9089 C   0  0  0  0  0  0  0  0  0  0  0  0
   24.8160    4.5411   30.9326 C   0  0  0  0  0  0  0  0  0  0  0  0
   26.3418    5.5133   29.1958 C   0  0  0  0  0  0  0  0  0  0  0  0
   26.3207    4.3349   27.8630 S   0  0  0  0  0  0  0  0  0  0  0  0
   25.5468    4.8799   26.7631 O   0  0  0  0  0  0  0  0  0  0  0  0
   25.9833    3.0444   28.4343 O   0  0  0  0  0  0  0  0  0  0  0  0
   28.0182    4.2938   27.3721 C   0  0  0  0  0  0  0  0  0  0  0  0
   20.5889   12.7905   31.5099 O   0  0  0  0  0  0  0  0  0  0  0  0
   21.4005   12.3927   30.6828 C   0  0  0  0  0  0  0  0  0  0  0  0
   21.3744   12.6957   29.3466 N   0  0  0  0  0  0  0  0  0  0  0  0
   22.4987   11.5319   31.0806 C   0  0  0  0  0  0  0  0  0  0  0  0
   23.8023   11.8565   30.7203 C   0  0  0  0  0  0  0  0  0  0  0  0
   24.0424   12.9559   30.0113 F   0  0  0  0  0  0  0  0  0  0  0  0
   24.8595   11.0346   31.0960 C   0  0  0  0  0  0  0  0  0  0  0  0
   24.6121    9.8841   31.8374 C   0  0  0  0  0  0  0  0  0  0  0  0
   23.3089    9.5572   32.1999 C   0  0  0  0  0  0  0  0  0  0  0  0
   22.2532   10.3801   31.8221 C   0  0  0  0  0  0  0  0  0  0  0  0
   20.9436   10.0492   32.1882 N   0  0  0  0  0  0  0  0  0  0  0  0
   16.7688    6.7897   33.9526 H   0  0  0  0  0  0  0  0  0  0  0  0
   16.2557    9.2469   34.2392 H   0  0  0  0  0  0  0  0  0  0  0  0
   18.2542   10.5683   33.3790 H   0  0  0  0  0  0  0  0  0  0  0  0
   20.9519    4.4130   32.1025 H   0  0  0  0  0  0  0  0  0  0  0  0
   24.3536    2.1074   33.4490 H   0  0  0  0  0  0  0  0  0  0  0  0
   24.6559    2.2655   31.8521 H   0  0  0  0  0  0  0  0  0  0  0  0
   25.3215    3.3100   32.9163 H   0  0  0  0  0  0  0  0  0  0  0  0
   22.0172    6.9088   29.9230 H   0  0  0  0  0  0  0  0  0  0  0  0
   24.1306    6.9895   28.7960 H   0  0  0  0  0  0  0  0  0  0  0  0
   25.5535    3.9197   31.1972 H   0  0  0  0  0  0  0  0  0  0  0  0
   27.0732    5.2827   29.8377 H   0  0  0  0  0  0  0  0  0  0  0  0
   26.4955    6.4316   28.8311 H   0  0  0  0  0  0  0  0  0  0  0  0
   28.1303    3.6518   26.6136 H   0  0  0  0  0  0  0  0  0  0  0  0
   28.3032    5.2070   27.0809 H   0  0  0  0  0  0  0  0  0  0  0  0
   28.5814    3.9993   28.1442 H   0  0  0  0  0  0  0  0  0  0  0  0
   21.7179   12.0366   28.6777 H   0  0  0  0  0  0  0  0  0  0  0  0
   21.0117   13.5759   29.0406 H   0  0  0  0  0  0  0  0  0  0  0  0
   25.7952   11.2703   30.8337 H   0  0  0  0  0  0  0  0  0  0  0  0
   25.3705    9.2919   32.1099 H   0  0  0  0  0  0  0  0  0  0  0  0
   23.1313    8.7296   32.7325 H   0  0  0  0  0  0  0  0  0  0  0  0
   20.3194   10.8186   32.3240 H   0  0  0  0  0  0  0  0  0  0  0  0
  1  2  2  0  0  0  0
  1  3  1  0  0  0  0
  1 34  1  0  0  0  0
  2  9  1  0  0  0  0
  3  4  2  0  0  0  0
  3  7  1  0  0  0  0
  4  5  1  0  0  0  0
  4  8  1  0  0  0  0
  5  6  1  0  0  0  0
  6  7  2  0  0  0  0
  8  9  2  0  0  0  0
  9 10  1  0  0  0  0
 10 11  1  0  0  0  0
 11 12  2  0  0  0  0
 11 15  1  0  0  0  0
 12 13  1  0  0  0  0
 12 18  1  0  0  0  0
 13 14  1  0  0  0  0
 15 16  2  0  0  0  0
 16 17  1  0  0  0  0
 17 18  2  0  0  0  0
 17 19  1  0  0  0  0
 19 20  1  0  0  0  0
 20 21  2  0  0  0  0
 20 22  2  0  0  0  0
 20 23  1  0  0  0  0
 24 25  2  0  0  0  0
 25 26  1  0  0  0  0
 25 27  1  0  0  0  0
 27 28  1  0  0  0  0
 27 33  2  0  0  0  0
 28 29  1  0  0  0  0
 28 30  2  0  0  0  0
 30 31  1  0  0  0  0
 31 32  2  0  0  0  0
 32 33  1  0  0  0  0
 33 34  1  0  0  0  0
  5 35  1  0  0  0  0
  6 36  1  0  0  0  0
  7 37  1  0  0  0  0
 10 38  1  0  0  0  0
 14 39  1  0  0  0  0
 14 40  1  0  0  0  0
 14 41  1  0  0  0  0
 15 42  1  0  0  0  0
 16 43  1  0  0  0  0
 18 44  1  0  0  0  0
 19 45  1  0  0  0  0
 19 46  1  0  0  0  0
 23 47  1  0  0  0  0
 23 48  1  0  0  0  0
 23 49  1  0  0  0  0
 26 50  1  0  0  0  0
 26 51  1  0  0  0  0
 30 52  1  0  0  0  0
 31 53  1  0  0  0  0
 32 54  1  0  0  0  0
 34 55  1  0  0  0  0
M  END
> <BIOSOLVEIT.HYDE_ESTIMATED_AFFINITY_LOWER_BOUNDARY [nM]>
360.910963

> <BIOSOLVEIT.HYDE_ESTIMATED_AFFINITY_UPPER_BOUNDARY [nM]>
35858.638004

> <BIOSOLVEIT.HYDE_LIGAND_EFFICIENCY range: ++, +, 0, -, -->
-

> <BIOSOLVEIT.HYDE_LIGAND_LIPOPHILIC_EFFICIENCY range: ++, +, 0, -, -->
--

> <BIOSOLVEIT.LOGP>
3.8869

> <BIOSOLVEIT.MOLECULAR WEIGHT>
484.509

> <BIOSOLVEIT.MOLECULE_CHECKSUM>
LTMxLjA3NDQ7MC45MTM5NTQ=

> <BIOSOLVEIT.TPSA>
152.09

> <OPTIBRIUM.BBB category>
-

> <OPTIBRIUM.PPB90 category>
high

> <OPTIBRIUM.2C9 pKi>
5.97282

> <OPTIBRIUM.logS @ pH7.4>
0.230091

> <OPTIBRIUM.BBB log([brain]:[blood])>
-0.872896

> <OPTIBRIUM.2D6 affinity category>
medium

> <OPTIBRIUM.logS>
0.230091

> <OPTIBRIUM.logD>
2.02109

> <OPTIBRIUM.hERG pIC50>
4.85982

> <OPTIBRIUM.logP>
2.02109

> <OPTIBRIUM.HIA category>
-

> <OPTIBRIUM.P-gp category>
yes

$$$$
GS7_A_365_1_008
joSeeSAR  03092211473D 1   1.00000     0.00000     0
SeeSAR 11.2.2 jonathanwahrer
 55 58  0  0  0  0            999 V2000
   20.4630    8.6748   32.4796 C   0  0  0  0  0  0  0  0  0  0  0  0
   21.1416    7.5591   32.1698 N   0  0  0  0  0  0  0  0  0  0  0  0
   19.1717    8.5541   32.9842 C   0  0  0  0  0  0  0  0  0  0  0  0
   18.6354    7.3024   33.1593 C   0  0  0  0  0  0  0  0  0  0  0  0
   17.3828    7.4749   33.6715 N   0  0  0  0  0  0  0  0  0  0  0  0
   17.1102    8.8036   33.8232 C   0  0  0  0  0  0  0  0  0  0  0  0
   18.2051    9.4990   33.4044 C   0  0  0  0  0  0  0  0  0  0  0  0
   19.3662    6.2248   32.8269 N   0  0  0  0  0  0  0  0  0  0  0  0
   20.6105    6.3368   32.3342 C   0  0  0  0  0  0  0  0  0  0  0  0
   21.3613    5.2047   31.9921 N   0  0  0  0  0  0  0  0  0  0  0  0
   22.5997    5.2396   31.3205 C   0  0  0  0  0  0  0  0  0  0  0  0
   23.6167    4.3657   31.6906 C   0  0  0  0  0  0  0  0  0  0  0  0
   23.4085    3.4879   32.6949 O   0  0  0  0  0  0  0  0  0  0  0  0
   24.5284    2.6223   32.8204 C   0  0  0  0  0  0  0  0  0  0  0  0
   22.7939    6.1525   30.2891 C   0  0  0  0  0  0  0  0  0  0  0  0
   24.0181    6.1820   29.6299 C   0  0  0  0  0  0  0  0  0  0  0  0
   25.0307    5.3059   30.0046 C   0  0  0  0  0  0  0  0  0  0  0  0
   24.8428    4.3919   31.0352 C   0  0  0  0  0  0  0  0  0  0  0  0
   26.3689    5.3383   29.2844 C   0  0  0  0  0  0  0  0  0  0  0  0
   26.2981    4.2182   27.9040 S   0  0  0  0  0  0  0  0  0  0  0  0
   25.4969    4.8156   26.8518 O   0  0  0  0  0  0  0  0  0  0  0  0
   25.9663    2.9071   28.4298 O   0  0  0  0  0  0  0  0  0  0  0  0
   27.9800    4.1853   27.3613 C   0  0  0  0  0  0  0  0  0  0  0  0
   20.5631   12.5467   31.5844 O   0  0  0  0  0  0  0  0  0  0  0  0
   21.4081   12.2653   30.7433 C   0  0  0  0  0  0  0  0  0  0  0  0
   21.4069   12.7111   29.4474 N   0  0  0  0  0  0  0  0  0  0  0  0
   22.5226   11.3984   31.0774 C   0  0  0  0  0  0  0  0  0  0  0  0
   23.8023   11.7064   30.6277 C   0  0  0  0  0  0  0  0  0  0  0  0
   24.0043   12.7954   29.8912 F   0  0  0  0  0  0  0  0  0  0  0  0
   24.8748   10.8787   30.9422 C   0  0  0  0  0  0  0  0  0  0  0  0
   24.6670    9.7390   31.7121 C   0  0  0  0  0  0  0  0  0  0  0  0
   23.3879    9.4288   32.1641 C   0  0  0  0  0  0  0  0  0  0  0  0
   22.3168   10.2575   31.8475 C   0  0  0  0  0  0  0  0  0  0  0  0
   21.0316    9.9435   32.3035 N   0  0  0  0  0  0  0  0  0  0  0  0
   16.7535    6.7330   33.9028 H   0  0  0  0  0  0  0  0  0  0  0  0
   16.2613    9.1958   34.1775 H   0  0  0  0  0  0  0  0  0  0  0  0
   18.3067   10.4938   33.3956 H   0  0  0  0  0  0  0  0  0  0  0  0
   20.9927    4.3094   32.2420 H   0  0  0  0  0  0  0  0  0  0  0  0
   24.3676    1.9752   33.5657 H   0  0  0  0  0  0  0  0  0  0  0  0
   24.6591    2.1203   31.9656 H   0  0  0  0  0  0  0  0  0  0  0  0
   25.3464    3.1622   33.0185 H   0  0  0  0  0  0  0  0  0  0  0  0
   22.0617    6.7803   30.0247 H   0  0  0  0  0  0  0  0  0  0  0  0
   24.1701    6.8333   28.8865 H   0  0  0  0  0  0  0  0  0  0  0  0
   25.5756    3.7651   31.3000 H   0  0  0  0  0  0  0  0  0  0  0  0
   27.0954    5.0556   29.9107 H   0  0  0  0  0  0  0  0  0  0  0  0
   26.5530    6.2651   28.9572 H   0  0  0  0  0  0  0  0  0  0  0  0
   28.0641    3.5755   26.5732 H   0  0  0  0  0  0  0  0  0  0  0  0
   28.2642    5.1079   27.1007 H   0  0  0  0  0  0  0  0  0  0  0  0
   28.5631    3.8538   28.1030 H   0  0  0  0  0  0  0  0  0  0  0  0
   21.7487   12.1216   28.7155 H   0  0  0  0  0  0  0  0  0  0  0  0
   21.0642   13.6259   29.2338 H   0  0  0  0  0  0  0  0  0  0  0  0
   25.7931   11.1024   30.6156 H   0  0  0  0  0  0  0  0  0  0  0  0
   25.4366    9.1428   31.9408 H   0  0  0  0  0  0  0  0  0  0  0  0
   23.2388    8.6091   32.7172 H   0  0  0  0  0  0  0  0  0  0  0  0
   20.4460   10.7211   32.5322 H   0  0  0  0  0  0  0  0  0  0  0  0
  1  2  2  0  0  0  0
  1  3  1  0  0  0  0
  1 34  1  0  0  0  0
  2  9  1  0  0  0  0
  3  4  2  0  0  0  0
  3  7  1  0  0  0  0
  4  5  1  0  0  0  0
  4  8  1  0  0  0  0
  5  6  1  0  0  0  0
  6  7  2  0  0  0  0
  8  9  2  0  0  0  0
  9 10  1  0  0  0  0
 10 11  1  0  0  0  0
 11 12  2  0  0  0  0
 11 15  1  0  0  0  0
 12 13  1  0  0  0  0
 12 18  1  0  0  0  0
 13 14  1  0  0  0  0
 15 16  2  0  0  0  0
 16 17  1  0  0  0  0
 17 18  2  0  0  0  0
 17 19  1  0  0  0  0
 19 20  1  0  0  0  0
 20 21  2  0  0  0  0
 20 22  2  0  0  0  0
 20 23  1  0  0  0  0
 24 25  2  0  0  0  0
 25 26  1  0  0  0  0
 25 27  1  0  0  0  0
 27 28  1  0  0  0  0
 27 33  2  0  0  0  0
 28 29  1  0  0  0  0
 28 30  2  0  0  0  0
 30 31  1  0  0  0  0
 31 32  2  0  0  0  0
 32 33  1  0  0  0  0
 33 34  1  0  0  0  0
  5 35  1  0  0  0  0
  6 36  1  0  0  0  0
  7 37  1  0  0  0  0
 10 38  1  0  0  0  0
 14 39  1  0  0  0  0
 14 40  1  0  0  0  0
 14 41  1  0  0  0  0
 15 42  1  0  0  0  0
 16 43  1  0  0  0  0
 18 44  1  0  0  0  0
 19 45  1  0  0  0  0
 19 46  1  0  0  0  0
 23 47  1  0  0  0  0
 23 48  1  0  0  0  0
 23 49  1  0  0  0  0
 26 50  1  0  0  0  0
 26 51  1  0  0  0  0
 30 52  1  0  0  0  0
 31 53  1  0  0  0  0
 32 54  1  0  0  0  0
 34 55  1  0  0  0  0
M  END
> <BIOSOLVEIT.HYDE_ESTIMATED_AFFINITY_LOWER_BOUNDARY [nM]>
566.069682

> <BIOSOLVEIT.HYDE_ESTIMATED_AFFINITY_UPPER_BOUNDARY [nM]>
56242.369790

> <BIOSOLVEIT.HYDE_LIGAND_EFFICIENCY range: ++, +, 0, -, -->
-

> <BIOSOLVEIT.HYDE_LIGAND_LIPOPHILIC_EFFICIENCY range: ++, +, 0, -, -->
--

> <BIOSOLVEIT.LOGP>
3.8869

> <BIOSOLVEIT.MOLECULAR WEIGHT>
484.509

> <BIOSOLVEIT.MOLECULE_CHECKSUM>
LTI5Ljk1ODc7MC44ODExMzg=

> <BIOSOLVEIT.TPSA>
152.09

> <OPTIBRIUM.BBB category>
-

> <OPTIBRIUM.PPB90 category>
high

> <OPTIBRIUM.2C9 pKi>
5.97282

> <OPTIBRIUM.logS @ pH7.4>
0.230091

> <OPTIBRIUM.BBB log([brain]:[blood])>
-0.872896

> <OPTIBRIUM.2D6 affinity category>
medium

> <OPTIBRIUM.logS>
0.230091

> <OPTIBRIUM.logD>
2.02109

> <OPTIBRIUM.hERG pIC50>
4.85982

> <OPTIBRIUM.logP>
2.02109

> <OPTIBRIUM.HIA category>
-

> <OPTIBRIUM.P-gp category>
yes

$$$$
GS7_A_365_1_006
joSeeSAR  03092211473D 1   1.00000     0.00000     0
SeeSAR 11.2.2 jonathanwahrer
 55 58  0  0  0  0            999 V2000
   20.5220    8.6237   32.4757 C   0  0  0  0  0  0  0  0  0  0  0  0
   21.2005    7.5014   32.1905 N   0  0  0  0  0  0  0  0  0  0  0  0
   19.2262    8.5142   32.9717 C   0  0  0  0  0  0  0  0  0  0  0  0
   18.6857    7.2667   33.1636 C   0  0  0  0  0  0  0  0  0  0  0  0
   17.4294    7.4506   33.6624 N   0  0  0  0  0  0  0  0  0  0  0  0
   17.1585    8.7822   33.7895 C   0  0  0  0  0  0  0  0  0  0  0  0
   18.2583    9.4681   33.3681 C   0  0  0  0  0  0  0  0  0  0  0  0
   19.4168    6.1822   32.8554 N   0  0  0  0  0  0  0  0  0  0  0  0
   20.6654    6.2833   32.3711 C   0  0  0  0  0  0  0  0  0  0  0  0
   21.4163    5.1440   32.0544 N   0  0  0  0  0  0  0  0  0  0  0  0
   22.6315    5.1603   31.3408 C   0  0  0  0  0  0  0  0  0  0  0  0
   23.6504    4.2767   31.6816 C   0  0  0  0  0  0  0  0  0  0  0  0
   23.4664    3.4075   32.6981 O   0  0  0  0  0  0  0  0  0  0  0  0
   24.5904    2.5447   32.8058 C   0  0  0  0  0  0  0  0  0  0  0  0
   22.8008    6.0645   30.2976 C   0  0  0  0  0  0  0  0  0  0  0  0
   24.0021    6.0758   29.5968 C   0  0  0  0  0  0  0  0  0  0  0  0
   25.0166    5.1901   29.9424 C   0  0  0  0  0  0  0  0  0  0  0  0
   24.8536    4.2846   30.9846 C   0  0  0  0  0  0  0  0  0  0  0  0
   26.3299    5.2024   29.1769 C   0  0  0  0  0  0  0  0  0  0  0  0
   26.1984    4.0763   27.8058 S   0  0  0  0  0  0  0  0  0  0  0  0
   25.4821    4.7291   26.7257 O   0  0  0  0  0  0  0  0  0  0  0  0
   25.7378    2.8059   28.3344 O   0  0  0  0  0  0  0  0  0  0  0  0
   27.8849    3.8891   27.3113 C   0  0  0  0  0  0  0  0  0  0  0  0
   20.6351   12.4925   31.5781 O   0  0  0  0  0  0  0  0  0  0  0  0
   21.4682   12.2117   30.7249 C   0  0  0  0  0  0  0  0  0  0  0  0
   21.4554   12.6687   29.4330 N   0  0  0  0  0  0  0  0  0  0  0  0
   22.5797   11.3336   31.0386 C   0  0  0  0  0  0  0  0  0  0  0  0
   23.8550   11.6314   30.5700 C   0  0  0  0  0  0  0  0  0  0  0  0
   24.0556   12.7211   29.8341 F   0  0  0  0  0  0  0  0  0  0  0  0
   24.9246   10.7928   30.8649 C   0  0  0  0  0  0  0  0  0  0  0  0
   24.7184    9.6524   31.6340 C   0  0  0  0  0  0  0  0  0  0  0  0
   23.4437    9.3522   32.1049 C   0  0  0  0  0  0  0  0  0  0  0  0
   22.3754   10.1918   31.8079 C   0  0  0  0  0  0  0  0  0  0  0  0
   21.0946    9.8879   32.2829 N   0  0  0  0  0  0  0  0  0  0  0  0
   16.7966    6.7140   33.9012 H   0  0  0  0  0  0  0  0  0  0  0  0
   16.3076    9.1821   34.1302 H   0  0  0  0  0  0  0  0  0  0  0  0
   18.3623   10.4623   33.3432 H   0  0  0  0  0  0  0  0  0  0  0  0
   21.0657    4.2572   32.3558 H   0  0  0  0  0  0  0  0  0  0  0  0
   24.4477    1.9040   33.5601 H   0  0  0  0  0  0  0  0  0  0  0  0
   24.7026    2.0355   31.9526 H   0  0  0  0  0  0  0  0  0  0  0  0
   25.4118    3.0876   32.9805 H   0  0  0  0  0  0  0  0  0  0  0  0
   22.0673    6.6992   30.0542 H   0  0  0  0  0  0  0  0  0  0  0  0
   24.1361    6.7207   28.8445 H   0  0  0  0  0  0  0  0  0  0  0  0
   25.5877    3.6508   31.2283 H   0  0  0  0  0  0  0  0  0  0  0  0
   27.0738    4.9139   29.7795 H   0  0  0  0  0  0  0  0  0  0  0  0
   26.5138    6.1252   28.8384 H   0  0  0  0  0  0  0  0  0  0  0  0
   27.9364    3.2648   26.5318 H   0  0  0  0  0  0  0  0  0  0  0  0
   28.2566    4.7799   27.0501 H   0  0  0  0  0  0  0  0  0  0  0  0
   28.4159    3.5165   28.0724 H   0  0  0  0  0  0  0  0  0  0  0  0
   21.7993   12.0892   28.6941 H   0  0  0  0  0  0  0  0  0  0  0  0
   21.1021   13.5818   29.2291 H   0  0  0  0  0  0  0  0  0  0  0  0
   25.8397   11.0092   30.5248 H   0  0  0  0  0  0  0  0  0  0  0  0
   25.4859    9.0484   31.8486 H   0  0  0  0  0  0  0  0  0  0  0  0
   23.2957    8.5320   32.6575 H   0  0  0  0  0  0  0  0  0  0  0  0
   20.5161   10.6704   32.5134 H   0  0  0  0  0  0  0  0  0  0  0  0
  1  2  2  0  0  0  0
  1  3  1  0  0  0  0
  1 34  1  0  0  0  0
  2  9  1  0  0  0  0
  3  4  2  0  0  0  0
  3  7  1  0  0  0  0
  4  5  1  0  0  0  0
  4  8  1  0  0  0  0
  5  6  1  0  0  0  0
  6  7  2  0  0  0  0
  8  9  2  0  0  0  0
  9 10  1  0  0  0  0
 10 11  1  0  0  0  0
 11 12  2  0  0  0  0
 11 15  1  0  0  0  0
 12 13  1  0  0  0  0
 12 18  1  0  0  0  0
 13 14  1  0  0  0  0
 15 16  2  0  0  0  0
 16 17  1  0  0  0  0
 17 18  2  0  0  0  0
 17 19  1  0  0  0  0
 19 20  1  0  0  0  0
 20 21  2  0  0  0  0
 20 22  2  0  0  0  0
 20 23  1  0  0  0  0
 24 25  2  0  0  0  0
 25 26  1  0  0  0  0
 25 27  1  0  0  0  0
 27 28  1  0  0  0  0
 27 33  2  0  0  0  0
 28 29  1  0  0  0  0
 28 30  2  0  0  0  0
 30 31  1  0  0  0  0
 31 32  2  0  0  0  0
 32 33  1  0  0  0  0
 33 34  1  0  0  0  0
  5 35  1  0  0  0  0
  6 36  1  0  0  0  0
  7 37  1  0  0  0  0
 10 38  1  0  0  0  0
 14 39  1  0  0  0  0
 14 40  1  0  0  0  0
 14 41  1  0  0  0  0
 15 42  1  0  0  0  0
 16 43  1  0  0  0  0
 18 44  1  0  0  0  0
 19 45  1  0  0  0  0
 19 46  1  0  0  0  0
 23 47  1  0  0  0  0
 23 48  1  0  0  0  0
 23 49  1  0  0  0  0
 26 50  1  0  0  0  0
 26 51  1  0  0  0  0
 30 52  1  0  0  0  0
 31 53  1  0  0  0  0
 32 54  1  0  0  0  0
 34 55  1  0  0  0  0
M  END
> <BIOSOLVEIT.HYDE_ESTIMATED_AFFINITY_LOWER_BOUNDARY [nM]>
883.763874

> <BIOSOLVEIT.HYDE_ESTIMATED_AFFINITY_UPPER_BOUNDARY [nM]>
87807.166091

> <BIOSOLVEIT.HYDE_LIGAND_EFFICIENCY range: ++, +, 0, -, -->
-

> <BIOSOLVEIT.HYDE_LIGAND_LIPOPHILIC_EFFICIENCY range: ++, +, 0, -, -->
--

> <BIOSOLVEIT.LOGP>
3.8869

> <BIOSOLVEIT.MOLECULAR WEIGHT>
484.509

> <BIOSOLVEIT.MOLECULE_CHECKSUM>
LTI4Ljg1NDQ7MC44NDg2NTg=

> <BIOSOLVEIT.TPSA>
152.09

> <OPTIBRIUM.BBB category>
-

> <OPTIBRIUM.PPB90 category>
high

> <OPTIBRIUM.2C9 pKi>
5.97282

> <OPTIBRIUM.logS @ pH7.4>
0.230091

> <OPTIBRIUM.BBB log([brain]:[blood])>
-0.872896

> <OPTIBRIUM.2D6 affinity category>
medium

> <OPTIBRIUM.logS>
0.230091

> <OPTIBRIUM.logD>
2.02109

> <OPTIBRIUM.hERG pIC50>
4.85982

> <OPTIBRIUM.logP>
2.02109

> <OPTIBRIUM.HIA category>
-

> <OPTIBRIUM.P-gp category>
yes

$$$$
GS7_A_365_1_004
joSeeSAR  03092211473D 1   1.00000     0.00000     0
SeeSAR 11.2.2 jonathanwahrer
 55 58  0  0  0  0            999 V2000
   20.4912    8.6443   32.4926 C   0  0  0  0  0  0  0  0  0  0  0  0
   21.1663    7.5230   32.1960 N   0  0  0  0  0  0  0  0  0  0  0  0
   19.1956    8.5336   32.9887 C   0  0  0  0  0  0  0  0  0  0  0  0
   18.6517    7.2860   33.1692 C   0  0  0  0  0  0  0  0  0  0  0  0
   17.3964    7.4686   33.6709 N   0  0  0  0  0  0  0  0  0  0  0  0
   17.1293    8.7997   33.8110 C   0  0  0  0  0  0  0  0  0  0  0  0
   18.2307    9.4865   33.3950 C   0  0  0  0  0  0  0  0  0  0  0  0
   19.3796    6.2025   32.8499 N   0  0  0  0  0  0  0  0  0  0  0  0
   20.6280    6.3046   32.3654 C   0  0  0  0  0  0  0  0  0  0  0  0
   21.3755    5.1664   32.0372 N   0  0  0  0  0  0  0  0  0  0  0  0
   22.6125    5.1893   31.3624 C   0  0  0  0  0  0  0  0  0  0  0  0
   23.6245    4.3107   31.7347 C   0  0  0  0  0  0  0  0  0  0  0  0
   23.4130    3.4399   32.7445 O   0  0  0  0  0  0  0  0  0  0  0  0
   24.5275    2.5675   32.8719 C   0  0  0  0  0  0  0  0  0  0  0  0
   22.8101    6.0953   30.3256 C   0  0  0  0  0  0  0  0  0  0  0  0
   24.0328    6.1131   29.6632 C   0  0  0  0  0  0  0  0  0  0  0  0
   25.0405    5.2324   30.0402 C   0  0  0  0  0  0  0  0  0  0  0  0
   24.8492    4.3252   31.0762 C   0  0  0  0  0  0  0  0  0  0  0  0
   26.3772    5.2519   29.3166 C   0  0  0  0  0  0  0  0  0  0  0  0
   26.2796    4.1618   27.9140 S   0  0  0  0  0  0  0  0  0  0  0  0
   25.4965    4.8010   26.8728 O   0  0  0  0  0  0  0  0  0  0  0  0
   25.9122    2.8497   28.4130 O   0  0  0  0  0  0  0  0  0  0  0  0
   27.9611    4.0952   27.3732 C   0  0  0  0  0  0  0  0  0  0  0  0
   20.6103   12.5055   31.5669 O   0  0  0  0  0  0  0  0  0  0  0  0
   21.4573   12.2147   30.7309 C   0  0  0  0  0  0  0  0  0  0  0  0
   21.4626   12.6511   29.4320 N   0  0  0  0  0  0  0  0  0  0  0  0
   22.5673   11.3462   31.0756 C   0  0  0  0  0  0  0  0  0  0  0  0
   23.8493   11.6446   30.6260 C   0  0  0  0  0  0  0  0  0  0  0  0
   24.0578   12.7259   29.8802 F   0  0  0  0  0  0  0  0  0  0  0  0
   24.9176   10.8151   30.9505 C   0  0  0  0  0  0  0  0  0  0  0  0
   24.7031    9.6834   31.7302 C   0  0  0  0  0  0  0  0  0  0  0  0
   23.4217    9.3828   32.1821 C   0  0  0  0  0  0  0  0  0  0  0  0
   22.3549   10.2132   31.8555 C   0  0  0  0  0  0  0  0  0  0  0  0
   21.0672    9.9087   32.3113 N   0  0  0  0  0  0  0  0  0  0  0  0
   16.7617    6.7314   33.9031 H   0  0  0  0  0  0  0  0  0  0  0  0
   16.2799    9.1987   34.1561 H   0  0  0  0  0  0  0  0  0  0  0  0
   18.3374   10.4806   33.3796 H   0  0  0  0  0  0  0  0  0  0  0  0
   21.0055    4.2752   32.3001 H   0  0  0  0  0  0  0  0  0  0  0  0
   24.3642    1.9255   33.6211 H   0  0  0  0  0  0  0  0  0  0  0  0
   24.6528    2.0600   32.0194 H   0  0  0  0  0  0  0  0  0  0  0  0
   25.3496    3.1030   33.0649 H   0  0  0  0  0  0  0  0  0  0  0  0
   22.0814    6.7264   30.0595 H   0  0  0  0  0  0  0  0  0  0  0  0
   24.1872    6.7593   28.9158 H   0  0  0  0  0  0  0  0  0  0  0  0
   25.5785    3.6951   31.3426 H   0  0  0  0  0  0  0  0  0  0  0  0
   27.0994    4.9418   29.9347 H   0  0  0  0  0  0  0  0  0  0  0  0
   26.5793    6.1813   29.0075 H   0  0  0  0  0  0  0  0  0  0  0  0
   28.0306    3.4991   26.5732 H   0  0  0  0  0  0  0  0  0  0  0  0
   28.2701    5.0150   27.1315 H   0  0  0  0  0  0  0  0  0  0  0  0
   28.5337    3.7337   28.1090 H   0  0  0  0  0  0  0  0  0  0  0  0
   21.8055   12.0553   28.7057 H   0  0  0  0  0  0  0  0  0  0  0  0
   21.1235   13.5654   29.2103 H   0  0  0  0  0  0  0  0  0  0  0  0
   25.8375   11.0319   30.6240 H   0  0  0  0  0  0  0  0  0  0  0  0
   25.4696    9.0860   31.9660 H   0  0  0  0  0  0  0  0  0  0  0  0
   23.2678    8.5688   32.7422 H   0  0  0  0  0  0  0  0  0  0  0  0
   20.4860   10.6909   32.5358 H   0  0  0  0  0  0  0  0  0  0  0  0
  1  2  2  0  0  0  0
  1  3  1  0  0  0  0
  1 34  1  0  0  0  0
  2  9  1  0  0  0  0
  3  4  2  0  0  0  0
  3  7  1  0  0  0  0
  4  5  1  0  0  0  0
  4  8  1  0  0  0  0
  5  6  1  0  0  0  0
  6  7  2  0  0  0  0
  8  9  2  0  0  0  0
  9 10  1  0  0  0  0
 10 11  1  0  0  0  0
 11 12  2  0  0  0  0
 11 15  1  0  0  0  0
 12 13  1  0  0  0  0
 12 18  1  0  0  0  0
 13 14  1  0  0  0  0
 15 16  2  0  0  0  0
 16 17  1  0  0  0  0
 17 18  2  0  0  0  0
 17 19  1  0  0  0  0
 19 20  1  0  0  0  0
 20 21  2  0  0  0  0
 20 22  2  0  0  0  0
 20 23  1  0  0  0  0
 24 25  2  0  0  0  0
 25 26  1  0  0  0  0
 25 27  1  0  0  0  0
 27 28  1  0  0  0  0
 27 33  2  0  0  0  0
 28 29  1  0  0  0  0
 28 30  2  0  0  0  0
 30 31  1  0  0  0  0
 31 32  2  0  0  0  0
 32 33  1  0  0  0  0
 33 34  1  0  0  0  0
  5 35  1  0  0  0  0
  6 36  1  0  0  0  0
  7 37  1  0  0  0  0
 10 38  1  0  0  0  0
 14 39  1  0  0  0  0
 14 40  1  0  0  0  0
 14 41  1  0  0  0  0
 15 42  1  0  0  0  0
 16 43  1  0  0  0  0
 18 44  1  0  0  0  0
 19 45  1  0  0  0  0
 19 46  1  0  0  0  0
 23 47  1  0  0  0  0
 23 48  1  0  0  0  0
 23 49  1  0  0  0  0
 26 50  1  0  0  0  0
 26 51  1  0  0  0  0
 30 52  1  0  0  0  0
 31 53  1  0  0  0  0
 32 54  1  0  0  0  0
 34 55  1  0  0  0  0
M  END
> <BIOSOLVEIT.HYDE_ESTIMATED_AFFINITY_LOWER_BOUNDARY [nM]>
1227.761823

> <BIOSOLVEIT.HYDE_ESTIMATED_AFFINITY_UPPER_BOUNDARY [nM]>
121985.396199

> <BIOSOLVEIT.HYDE_LIGAND_EFFICIENCY range: ++, +, 0, -, -->
--

> <BIOSOLVEIT.HYDE_LIGAND_LIPOPHILIC_EFFICIENCY range: ++, +, 0, -, -->
--

> <BIOSOLVEIT.LOGP>
3.8869

> <BIOSOLVEIT.MOLECULAR WEIGHT>
484.509

> <BIOSOLVEIT.MOLECULE_CHECKSUM>
LTI4LjAzOTQ7MC44MjQ2ODg=

> <BIOSOLVEIT.TPSA>
152.09

> <OPTIBRIUM.BBB category>
-

> <OPTIBRIUM.PPB90 category>
high

> <OPTIBRIUM.2C9 pKi>
5.97282

> <OPTIBRIUM.logS @ pH7.4>
0.230091

> <OPTIBRIUM.BBB log([brain]:[blood])>
-0.872896

> <OPTIBRIUM.2D6 affinity category>
medium

> <OPTIBRIUM.logS>
0.230091

> <OPTIBRIUM.logD>
2.02109

> <OPTIBRIUM.hERG pIC50>
4.85982

> <OPTIBRIUM.logP>
2.02109

> <OPTIBRIUM.HIA category>
-

> <OPTIBRIUM.P-gp category>
yes

$$$$
GS7_A_365_1_010
joSeeSAR  03092211473D 1   1.00000     0.00000     0
SeeSAR 11.2.2 jonathanwahrer
 55 58  0  0  0  0            999 V2000
   20.5804    8.5912   32.4371 C   0  0  0  0  0  0  0  0  0  0  0  0
   21.2613    7.4808   32.1136 N   0  0  0  0  0  0  0  0  0  0  0  0
   19.2912    8.4613   32.9448 C   0  0  0  0  0  0  0  0  0  0  0  0
   18.7593    7.2063   33.1092 C   0  0  0  0  0  0  0  0  0  0  0  0
   17.5080    7.3698   33.6272 N   0  0  0  0  0  0  0  0  0  0  0  0
   17.2319    8.6960   33.7935 C   0  0  0  0  0  0  0  0  0  0  0  0
   18.3231    9.3990   33.3780 C   0  0  0  0  0  0  0  0  0  0  0  0
   19.4923    6.1345   32.7633 N   0  0  0  0  0  0  0  0  0  0  0  0
   20.7346    6.2553   32.2675 C   0  0  0  0  0  0  0  0  0  0  0  0
   21.4876    5.1291   31.9114 N   0  0  0  0  0  0  0  0  0  0  0  0
   22.7467    5.1760   31.2802 C   0  0  0  0  0  0  0  0  0  0  0  0
   23.7565    4.3050   31.6761 C   0  0  0  0  0  0  0  0  0  0  0  0
   23.5213    3.4185   32.6668 O   0  0  0  0  0  0  0  0  0  0  0  0
   24.6410    2.5572   32.8206 C   0  0  0  0  0  0  0  0  0  0  0  0
   22.9685    6.0978   30.2624 C   0  0  0  0  0  0  0  0  0  0  0  0
   24.2129    6.1393   29.6430 C   0  0  0  0  0  0  0  0  0  0  0  0
   25.2182    5.2660   30.0434 C   0  0  0  0  0  0  0  0  0  0  0  0
   25.0028    4.3432   31.0605 C   0  0  0  0  0  0  0  0  0  0  0  0
   26.5786    5.3115   29.3668 C   0  0  0  0  0  0  0  0  0  0  0  0
   26.4610    4.4791   27.7988 S   0  0  0  0  0  0  0  0  0  0  0  0
   27.7874    4.3730   27.2199 O   0  0  0  0  0  0  0  0  0  0  0  0
   25.3810    5.1050   27.0588 O   0  0  0  0  0  0  0  0  0  0  0  0
   25.9379    2.8587   28.2730 C   0  0  0  0  0  0  0  0  0  0  0  0
   20.6571   12.4658   31.5635 O   0  0  0  0  0  0  0  0  0  0  0  0
   21.4992   12.1921   30.7169 C   0  0  0  0  0  0  0  0  0  0  0  0
   21.4886   12.6422   29.4227 N   0  0  0  0  0  0  0  0  0  0  0  0
   22.6205   11.3306   31.0424 C   0  0  0  0  0  0  0  0  0  0  0  0
   23.8959   11.6473   30.5866 C   0  0  0  0  0  0  0  0  0  0  0  0
   24.0878   12.7397   29.8524 F   0  0  0  0  0  0  0  0  0  0  0  0
   24.9748   10.8248   30.8928 C   0  0  0  0  0  0  0  0  0  0  0  0
   24.7777    9.6815   31.6601 C   0  0  0  0  0  0  0  0  0  0  0  0
   23.5029    9.3626   32.1181 C   0  0  0  0  0  0  0  0  0  0  0  0
   22.4253   10.1861   31.8099 C   0  0  0  0  0  0  0  0  0  0  0  0
   21.1444    9.8633   32.2720 N   0  0  0  0  0  0  0  0  0  0  0  0
   16.8818    6.6236   33.8533 H   0  0  0  0  0  0  0  0  0  0  0  0
   16.3830    9.0819   34.1546 H   0  0  0  0  0  0  0  0  0  0  0  0
   18.4218   10.3941   33.3789 H   0  0  0  0  0  0  0  0  0  0  0  0
   21.1050    4.2289   32.1197 H   0  0  0  0  0  0  0  0  0  0  0  0
   24.4603    1.9035   33.5555 H   0  0  0  0  0  0  0  0  0  0  0  0
   24.8010    2.0626   31.9663 H   0  0  0  0  0  0  0  0  0  0  0  0
   25.4498    3.0995   33.0483 H   0  0  0  0  0  0  0  0  0  0  0  0
   22.2414    6.7234   29.9793 H   0  0  0  0  0  0  0  0  0  0  0  0
   24.3848    6.7971   28.9096 H   0  0  0  0  0  0  0  0  0  0  0  0
   25.7303    3.7185   31.3441 H   0  0  0  0  0  0  0  0  0  0  0  0
   27.2561    4.8528   29.9417 H   0  0  0  0  0  0  0  0  0  0  0  0
   26.8520    6.2627   29.2236 H   0  0  0  0  0  0  0  0  0  0  0  0
   25.8361    2.2893   27.4571 H   0  0  0  0  0  0  0  0  0  0  0  0
   26.6209    2.4523   28.8800 H   0  0  0  0  0  0  0  0  0  0  0  0
   25.0610    2.9177   28.7499 H   0  0  0  0  0  0  0  0  0  0  0  0
   21.8339   12.0589   28.6875 H   0  0  0  0  0  0  0  0  0  0  0  0
   21.1356   13.5541   29.2134 H   0  0  0  0  0  0  0  0  0  0  0  0
   25.8901   11.0547   30.5619 H   0  0  0  0  0  0  0  0  0  0  0  0
   25.5520    9.0891   31.8827 H   0  0  0  0  0  0  0  0  0  0  0  0
   23.3615    8.5404   32.6694 H   0  0  0  0  0  0  0  0  0  0  0  0
   20.5587   10.6367   32.5144 H   0  0  0  0  0  0  0  0  0  0  0  0
  1  2  2  0  0  0  0
  1  3  1  0  0  0  0
  1 34  1  0  0  0  0
  2  9  1  0  0  0  0
  3  4  2  0  0  0  0
  3  7  1  0  0  0  0
  4  5  1  0  0  0  0
  4  8  1  0  0  0  0
  5  6  1  0  0  0  0
  6  7  2  0  0  0  0
  8  9  2  0  0  0  0
  9 10  1  0  0  0  0
 10 11  1  0  0  0  0
 11 12  2  0  0  0  0
 11 15  1  0  0  0  0
 12 13  1  0  0  0  0
 12 18  1  0  0  0  0
 13 14  1  0  0  0  0
 15 16  2  0  0  0  0
 16 17  1  0  0  0  0
 17 18  2  0  0  0  0
 17 19  1  0  0  0  0
 19 20  1  0  0  0  0
 20 21  2  0  0  0  0
 20 22  2  0  0  0  0
 20 23  1  0  0  0  0
 24 25  2  0  0  0  0
 25 26  1  0  0  0  0
 25 27  1  0  0  0  0
 27 28  1  0  0  0  0
 27 33  2  0  0  0  0
 28 29  1  0  0  0  0
 28 30  2  0  0  0  0
 30 31  1  0  0  0  0
 31 32  2  0  0  0  0
 32 33  1  0  0  0  0
 33 34  1  0  0  0  0
  5 35  1  0  0  0  0
  6 36  1  0  0  0  0
  7 37  1  0  0  0  0
 10 38  1  0  0  0  0
 14 39  1  0  0  0  0
 14 40  1  0  0  0  0
 14 41  1  0  0  0  0
 15 42  1  0  0  0  0
 16 43  1  0  0  0  0
 18 44  1  0  0  0  0
 19 45  1  0  0  0  0
 19 46  1  0  0  0  0
 23 47  1  0  0  0  0
 23 48  1  0  0  0  0
 23 49  1  0  0  0  0
 26 50  1  0  0  0  0
 26 51  1  0  0  0  0
 30 52  1  0  0  0  0
 31 53  1  0  0  0  0
 32 54  1  0  0  0  0
 34 55  1  0  0  0  0
M  END
> <BIOSOLVEIT.HYDE_ESTIMATED_AFFINITY_LOWER_BOUNDARY [nM]>
8540.243506

> <BIOSOLVEIT.HYDE_ESTIMATED_AFFINITY_UPPER_BOUNDARY [nM]>
848523.686273

> <BIOSOLVEIT.HYDE_LIGAND_EFFICIENCY range: ++, +, 0, -, -->
--

> <BIOSOLVEIT.HYDE_LIGAND_LIPOPHILIC_EFFICIENCY range: ++, +, 0, -, -->
--

> <BIOSOLVEIT.LOGP>
3.8869

> <BIOSOLVEIT.MOLECULAR WEIGHT>
484.509

> <BIOSOLVEIT.MOLECULE_CHECKSUM>
LTIzLjIzMTI7MC42ODMyNzE=

> <BIOSOLVEIT.TPSA>
152.09

> <OPTIBRIUM.BBB category>
-

> <OPTIBRIUM.PPB90 category>
high

> <OPTIBRIUM.2C9 pKi>
5.97282

> <OPTIBRIUM.logS @ pH7.4>
0.230091

> <OPTIBRIUM.BBB log([brain]:[blood])>
-0.872896

> <OPTIBRIUM.2D6 affinity category>
medium

> <OPTIBRIUM.logS>
0.230091

> <OPTIBRIUM.logD>
2.02109

> <OPTIBRIUM.hERG pIC50>
4.85982

> <OPTIBRIUM.logP>
2.02109

> <OPTIBRIUM.HIA category>
-

> <OPTIBRIUM.P-gp category>
yes

$$$$
GS7_A_365_1_007
joSeeSAR  03092211473D 1   1.00000     0.00000     0
SeeSAR 11.2.2 jonathanwahrer
 55 58  0  0  0  0            999 V2000
   20.5713    8.6114   32.4244 C   0  0  0  0  0  0  0  0  0  0  0  0
   21.2494    7.5018   32.0927 N   0  0  0  0  0  0  0  0  0  0  0  0
   19.2851    8.4806   32.9391 C   0  0  0  0  0  0  0  0  0  0  0  0
   18.7530    7.2254   33.1016 C   0  0  0  0  0  0  0  0  0  0  0  0
   17.5049    7.3878   33.6276 N   0  0  0  0  0  0  0  0  0  0  0  0
   17.2308    8.7136   33.8006 C   0  0  0  0  0  0  0  0  0  0  0  0
   18.3202    9.4173   33.3815 C   0  0  0  0  0  0  0  0  0  0  0  0
   19.4832    6.1543   32.7474 N   0  0  0  0  0  0  0  0  0  0  0  0
   20.7226    6.2761   32.2448 C   0  0  0  0  0  0  0  0  0  0  0  0
   21.4727    5.1507   31.8800 N   0  0  0  0  0  0  0  0  0  0  0  0
   22.7311    5.1992   31.2475 C   0  0  0  0  0  0  0  0  0  0  0  0
   23.7445    4.3342   31.6473 C   0  0  0  0  0  0  0  0  0  0  0  0
   23.5135    3.4520   32.6428 O   0  0  0  0  0  0  0  0  0  0  0  0
   24.6359    2.5947   32.7990 C   0  0  0  0  0  0  0  0  0  0  0  0
   22.9485    6.1165   30.2247 C   0  0  0  0  0  0  0  0  0  0  0  0
   24.1923    6.1594   29.6042 C   0  0  0  0  0  0  0  0  0  0  0  0
   25.2012    5.2923   30.0084 C   0  0  0  0  0  0  0  0  0  0  0  0
   24.9901    4.3739   31.0306 C   0  0  0  0  0  0  0  0  0  0  0  0
   26.5609    5.3394   29.3305 C   0  0  0  0  0  0  0  0  0  0  0  0
   26.4548    4.4668   27.7838 S   0  0  0  0  0  0  0  0  0  0  0  0
   27.7844    4.3532   27.2135 O   0  0  0  0  0  0  0  0  0  0  0  0
   25.3749    5.0679   27.0233 O   0  0  0  0  0  0  0  0  0  0  0  0
   25.9381    2.8562   28.2966 C   0  0  0  0  0  0  0  0  0  0  0  0
   20.6568   12.4811   31.5295 O   0  0  0  0  0  0  0  0  0  0  0  0
   21.5157   12.2050   30.7007 C   0  0  0  0  0  0  0  0  0  0  0  0
   21.5293   12.6490   29.4044 N   0  0  0  0  0  0  0  0  0  0  0  0
   22.6320   11.3472   31.0519 C   0  0  0  0  0  0  0  0  0  0  0  0
   23.9153   11.6638   30.6187 C   0  0  0  0  0  0  0  0  0  0  0  0
   24.1192   12.7527   29.8826 F   0  0  0  0  0  0  0  0  0  0  0  0
   24.9896   10.8447   30.9495 C   0  0  0  0  0  0  0  0  0  0  0  0
   24.7800    9.7052   31.7191 C   0  0  0  0  0  0  0  0  0  0  0  0
   23.4972    9.3864   32.1544 C   0  0  0  0  0  0  0  0  0  0  0  0
   22.4243   10.2064   31.8215 C   0  0  0  0  0  0  0  0  0  0  0  0
   21.1354    9.8838   32.2609 N   0  0  0  0  0  0  0  0  0  0  0  0
   16.8794    6.6412   33.8543 H   0  0  0  0  0  0  0  0  0  0  0  0
   16.3843    9.0987   34.1682 H   0  0  0  0  0  0  0  0  0  0  0  0
   18.4196   10.4124   33.3858 H   0  0  0  0  0  0  0  0  0  0  0  0
   21.0883    4.2500   32.0825 H   0  0  0  0  0  0  0  0  0  0  0  0
   24.4583    1.9442   33.5375 H   0  0  0  0  0  0  0  0  0  0  0  0
   24.7958    2.0962   31.9471 H   0  0  0  0  0  0  0  0  0  0  0  0
   25.4437    3.1403   33.0226 H   0  0  0  0  0  0  0  0  0  0  0  0
   22.2188    6.7378   29.9390 H   0  0  0  0  0  0  0  0  0  0  0  0
   24.3611    6.8141   28.8673 H   0  0  0  0  0  0  0  0  0  0  0  0
   25.7204    3.7536   31.3169 H   0  0  0  0  0  0  0  0  0  0  0  0
   27.2447    4.9045   29.9165 H   0  0  0  0  0  0  0  0  0  0  0  0
   26.8214    6.2904   29.1636 H   0  0  0  0  0  0  0  0  0  0  0  0
   25.8430    2.2657   27.4952 H   0  0  0  0  0  0  0  0  0  0  0  0
   26.6204    2.4691   28.9167 H   0  0  0  0  0  0  0  0  0  0  0  0
   25.0587    2.9227   28.7680 H   0  0  0  0  0  0  0  0  0  0  0  0
   21.7886   12.0270   28.6654 H   0  0  0  0  0  0  0  0  0  0  0  0
   21.2798   13.5950   29.1972 H   0  0  0  0  0  0  0  0  0  0  0  0
   25.9106   11.0745   30.6348 H   0  0  0  0  0  0  0  0  0  0  0  0
   25.5508    9.1153   31.9594 H   0  0  0  0  0  0  0  0  0  0  0  0
   23.3467    8.5668   32.7074 H   0  0  0  0  0  0  0  0  0  0  0  0
   20.5432   10.6574   32.4864 H   0  0  0  0  0  0  0  0  0  0  0  0
  1  2  2  0  0  0  0
  1  3  1  0  0  0  0
  1 34  1  0  0  0  0
  2  9  1  0  0  0  0
  3  4  2  0  0  0  0
  3  7  1  0  0  0  0
  4  5  1  0  0  0  0
  4  8  1  0  0  0  0
  5  6  1  0  0  0  0
  6  7  2  0  0  0  0
  8  9  2  0  0  0  0
  9 10  1  0  0  0  0
 10 11  1  0  0  0  0
 11 12  2  0  0  0  0
 11 15  1  0  0  0  0
 12 13  1  0  0  0  0
 12 18  1  0  0  0  0
 13 14  1  0  0  0  0
 15 16  2  0  0  0  0
 16 17  1  0  0  0  0
 17 18  2  0  0  0  0
 17 19  1  0  0  0  0
 19 20  1  0  0  0  0
 20 21  2  0  0  0  0
 20 22  2  0  0  0  0
 20 23  1  0  0  0  0
 24 25  2  0  0  0  0
 25 26  1  0  0  0  0
 25 27  1  0  0  0  0
 27 28  1  0  0  0  0
 27 33  2  0  0  0  0
 28 29  1  0  0  0  0
 28 30  2  0  0  0  0
 30 31  1  0  0  0  0
 31 32  2  0  0  0  0
 32 33  1  0  0  0  0
 33 34  1  0  0  0  0
  5 35  1  0  0  0  0
  6 36  1  0  0  0  0
  7 37  1  0  0  0  0
 10 38  1  0  0  0  0
 14 39  1  0  0  0  0
 14 40  1  0  0  0  0
 14 41  1  0  0  0  0
 15 42  1  0  0  0  0
 16 43  1  0  0  0  0
 18 44  1  0  0  0  0
 19 45  1  0  0  0  0
 19 46  1  0  0  0  0
 23 47  1  0  0  0  0
 23 48  1  0  0  0  0
 23 49  1  0  0  0  0
 26 50  1  0  0  0  0
 26 51  1  0  0  0  0
 30 52  1  0  0  0  0
 31 53  1  0  0  0  0
 32 54  1  0  0  0  0
 34 55  1  0  0  0  0
M  END
> <BIOSOLVEIT.HYDE_ESTIMATED_AFFINITY_LOWER_BOUNDARY [nM]>
8862.510113

> <BIOSOLVEIT.HYDE_ESTIMATED_AFFINITY_UPPER_BOUNDARY [nM]>
880542.779072

> <BIOSOLVEIT.HYDE_LIGAND_EFFICIENCY range: ++, +, 0, -, -->
--

> <BIOSOLVEIT.HYDE_LIGAND_LIPOPHILIC_EFFICIENCY range: ++, +, 0, -, -->
--

> <BIOSOLVEIT.LOGP>
3.8869

> <BIOSOLVEIT.MOLECULAR WEIGHT>
484.509

> <BIOSOLVEIT.MOLECULE_CHECKSUM>
LTIzLjEzOTQ7MC42ODA1Nw==

> <BIOSOLVEIT.TPSA>
152.09

> <OPTIBRIUM.BBB category>
-

> <OPTIBRIUM.PPB90 category>
high

> <OPTIBRIUM.2C9 pKi>
5.97282

> <OPTIBRIUM.logS @ pH7.4>
0.230091

> <OPTIBRIUM.BBB log([brain]:[blood])>
-0.872896

> <OPTIBRIUM.2D6 affinity category>
medium

> <OPTIBRIUM.logS>
0.230091

> <OPTIBRIUM.logD>
2.02109

> <OPTIBRIUM.hERG pIC50>
4.85982

> <OPTIBRIUM.logP>
2.02109

> <OPTIBRIUM.HIA category>
-

> <OPTIBRIUM.P-gp category>
yes

$$$$
GS7_A_365_1_005
joSeeSAR  03092211473D 1   1.00000     0.00000     0
SeeSAR 11.2.2 jonathanwahrer
 55 58  0  0  0  0            999 V2000
   20.4023    8.7782   32.2973 C   0  0  0  0  0  0  0  0  0  0  0  0
   21.0816    7.6953   31.8886 N   0  0  0  0  0  0  0  0  0  0  0  0
   19.1575    8.6011   32.8937 C   0  0  0  0  0  0  0  0  0  0  0  0
   18.6670    7.3290   33.0554 C   0  0  0  0  0  0  0  0  0  0  0  0
   17.4544    7.4457   33.6691 N   0  0  0  0  0  0  0  0  0  0  0  0
   17.1621    8.7589   33.8986 C   0  0  0  0  0  0  0  0  0  0  0  0
   18.2037    9.5009   33.4273 C   0  0  0  0  0  0  0  0  0  0  0  0
   19.3959    6.2866   32.6219 N   0  0  0  0  0  0  0  0  0  0  0  0
   20.5951    6.4531   32.0404 C   0  0  0  0  0  0  0  0  0  0  0  0
   21.3443    5.3573   31.5933 N   0  0  0  0  0  0  0  0  0  0  0  0
   22.6082    5.4508   30.9770 C   0  0  0  0  0  0  0  0  0  0  0  0
   23.6382    4.6024   31.3698 C   0  0  0  0  0  0  0  0  0  0  0  0
   23.4181    3.6931   32.3429 O   0  0  0  0  0  0  0  0  0  0  0  0
   24.5770    2.8914   32.5266 C   0  0  0  0  0  0  0  0  0  0  0  0
   22.8141    6.3956   29.9772 C   0  0  0  0  0  0  0  0  0  0  0  0
   24.0636    6.4830   29.3726 C   0  0  0  0  0  0  0  0  0  0  0  0
   25.0891    5.6323   29.7697 C   0  0  0  0  0  0  0  0  0  0  0  0
   24.8894    4.6866   30.7688 C   0  0  0  0  0  0  0  0  0  0  0  0
   26.4548    5.7280   29.1090 C   0  0  0  0  0  0  0  0  0  0  0  0
   26.6211    4.3868   27.9520 S   0  0  0  0  0  0  0  0  0  0  0  0
   27.8146    4.5971   27.1537 O   0  0  0  0  0  0  0  0  0  0  0  0
   25.3301    4.2049   27.3150 O   0  0  0  0  0  0  0  0  0  0  0  0
   26.9099    3.0062   29.0173 C   0  0  0  0  0  0  0  0  0  0  0  0
   20.5755   12.8917   31.5579 O   0  0  0  0  0  0  0  0  0  0  0  0
   21.3540   12.4687   30.7118 C   0  0  0  0  0  0  0  0  0  0  0  0
   21.2785   12.7366   29.3699 N   0  0  0  0  0  0  0  0  0  0  0  0
   22.4632   11.6136   31.0904 C   0  0  0  0  0  0  0  0  0  0  0  0
   23.7642   11.9722   30.7535 C   0  0  0  0  0  0  0  0  0  0  0  0
   23.9914   13.0989   30.0842 F   0  0  0  0  0  0  0  0  0  0  0  0
   24.8320   11.1560   31.1112 C   0  0  0  0  0  0  0  0  0  0  0  0
   24.5980    9.9770   31.8111 C   0  0  0  0  0  0  0  0  0  0  0  0
   23.2974    9.6160   32.1501 C   0  0  0  0  0  0  0  0  0  0  0  0
   22.2311   10.4333   31.7905 C   0  0  0  0  0  0  0  0  0  0  0  0
   20.9242   10.0682   32.1330 N   0  0  0  0  0  0  0  0  0  0  0  0
   16.8633    6.6777   33.9160 H   0  0  0  0  0  0  0  0  0  0  0  0
   16.3339    9.1126   34.3334 H   0  0  0  0  0  0  0  0  0  0  0  0
   18.2800   10.4976   33.4536 H   0  0  0  0  0  0  0  0  0  0  0  0
   20.9552    4.4449   31.7204 H   0  0  0  0  0  0  0  0  0  0  0  0
   24.4071    2.2204   33.2483 H   0  0  0  0  0  0  0  0  0  0  0  0
   24.7923    2.4162   31.6735 H   0  0  0  0  0  0  0  0  0  0  0  0
   25.3471    3.4737   32.7873 H   0  0  0  0  0  0  0  0  0  0  0  0
   22.0726    7.0049   29.6964 H   0  0  0  0  0  0  0  0  0  0  0  0
   24.2243    7.1578   28.6522 H   0  0  0  0  0  0  0  0  0  0  0  0
   25.6316    4.0782   31.0501 H   0  0  0  0  0  0  0  0  0  0  0  0
   27.1705    5.6636   29.8045 H   0  0  0  0  0  0  0  0  0  0  0  0
   26.5355    6.6005   28.6273 H   0  0  0  0  0  0  0  0  0  0  0  0
   27.0211    2.1784   28.4674 H   0  0  0  0  0  0  0  0  0  0  0  0
   27.7399    3.1654   29.5518 H   0  0  0  0  0  0  0  0  0  0  0  0
   26.1318    2.8938   29.6355 H   0  0  0  0  0  0  0  0  0  0  0  0
   21.6472   12.0837   28.7082 H   0  0  0  0  0  0  0  0  0  0  0  0
   20.8547   13.5849   29.0525 H   0  0  0  0  0  0  0  0  0  0  0  0
   25.7659   11.4162   30.8658 H   0  0  0  0  0  0  0  0  0  0  0  0
   25.3640    9.3889   32.0706 H   0  0  0  0  0  0  0  0  0  0  0  0
   23.1294    8.7681   32.6528 H   0  0  0  0  0  0  0  0  0  0  0  0
   20.2831   10.8217   32.2785 H   0  0  0  0  0  0  0  0  0  0  0  0
  1  2  2  0  0  0  0
  1  3  1  0  0  0  0
  1 34  1  0  0  0  0
  2  9  1  0  0  0  0
  3  4  2  0  0  0  0
  3  7  1  0  0  0  0
  4  5  1  0  0  0  0
  4  8  1  0  0  0  0
  5  6  1  0  0  0  0
  6  7  2  0  0  0  0
  8  9  2  0  0  0  0
  9 10  1  0  0  0  0
 10 11  1  0  0  0  0
 11 12  2  0  0  0  0
 11 15  1  0  0  0  0
 12 13  1  0  0  0  0
 12 18  1  0  0  0  0
 13 14  1  0  0  0  0
 15 16  2  0  0  0  0
 16 17  1  0  0  0  0
 17 18  2  0  0  0  0
 17 19  1  0  0  0  0
 19 20  1  0  0  0  0
 20 21  2  0  0  0  0
 20 22  2  0  0  0  0
 20 23  1  0  0  0  0
 24 25  2  0  0  0  0
 25 26  1  0  0  0  0
 25 27  1  0  0  0  0
 27 28  1  0  0  0  0
 27 33  2  0  0  0  0
 28 29  1  0  0  0  0
 28 30  2  0  0  0  0
 30 31  1  0  0  0  0
 31 32  2  0  0  0  0
 32 33  1  0  0  0  0
 33 34  1  0  0  0  0
  5 35  1  0  0  0  0
  6 36  1  0  0  0  0
  7 37  1  0  0  0  0
 10 38  1  0  0  0  0
 14 39  1  0  0  0  0
 14 40  1  0  0  0  0
 14 41  1  0  0  0  0
 15 42  1  0  0  0  0
 16 43  1  0  0  0  0
 18 44  1  0  0  0  0
 19 45  1  0  0  0  0
 19 46  1  0  0  0  0
 23 47  1  0  0  0  0
 23 48  1  0  0  0  0
 23 49  1  0  0  0  0
 26 50  1  0  0  0  0
 26 51  1  0  0  0  0
 30 52  1  0  0  0  0
 31 53  1  0  0  0  0
 32 54  1  0  0  0  0
 34 55  1  0  0  0  0
M  END
> <BIOSOLVEIT.HYDE_ESTIMATED_AFFINITY_LOWER_BOUNDARY [nM]>
9453.494058

> <BIOSOLVEIT.HYDE_ESTIMATED_AFFINITY_UPPER_BOUNDARY [nM]>
939260.528184

> <BIOSOLVEIT.HYDE_LIGAND_EFFICIENCY range: ++, +, 0, -, -->
--

> <BIOSOLVEIT.HYDE_LIGAND_LIPOPHILIC_EFFICIENCY range: ++, +, 0, -, -->
--

> <BIOSOLVEIT.LOGP>
3.8869

> <BIOSOLVEIT.MOLECULAR WEIGHT>
484.509

> <BIOSOLVEIT.MOLECULE_CHECKSUM>
LTIyLjk3OTQ7MC42NzU4NjQ=

> <BIOSOLVEIT.TPSA>
152.09

> <OPTIBRIUM.BBB category>
-

> <OPTIBRIUM.PPB90 category>
high

> <OPTIBRIUM.2C9 pKi>
5.97282

> <OPTIBRIUM.logS @ pH7.4>
0.230091

> <OPTIBRIUM.BBB log([brain]:[blood])>
-0.872896

> <OPTIBRIUM.2D6 affinity category>
medium

> <OPTIBRIUM.logS>
0.230091

> <OPTIBRIUM.logD>
2.02109

> <OPTIBRIUM.hERG pIC50>
4.85982

> <OPTIBRIUM.logP>
2.02109

> <OPTIBRIUM.HIA category>
-

> <OPTIBRIUM.P-gp category>
yes

$$$$
GS7_A_365_1_009
joSeeSAR  03092211473D 1   1.00000     0.00000     0
SeeSAR 11.2.2 jonathanwahrer
 55 58  0  0  0  0            999 V2000
   20.6690    8.4427   32.5347 C   0  0  0  0  0  0  0  0  0  0  0  0
   21.3281    7.2894   32.3431 N   0  0  0  0  0  0  0  0  0  0  0  0
   19.3523    8.3940   32.9830 C   0  0  0  0  0  0  0  0  0  0  0  0
   18.7717    7.1737   33.2247 C   0  0  0  0  0  0  0  0  0  0  0  0
   17.5021    7.4169   33.6604 N   0  0  0  0  0  0  0  0  0  0  0  0
   17.2618    8.7599   33.6987 C   0  0  0  0  0  0  0  0  0  0  0  0
   18.3951    9.3929   33.2833 C   0  0  0  0  0  0  0  0  0  0  0  0
   19.4854    6.0554   33.0103 N   0  0  0  0  0  0  0  0  0  0  0  0
   20.7542    6.0975   32.5723 C   0  0  0  0  0  0  0  0  0  0  0  0
   21.4866    4.9236   32.3533 N   0  0  0  0  0  0  0  0  0  0  0  0
   22.7596    4.8762   31.7507 C   0  0  0  0  0  0  0  0  0  0  0  0
   23.6697    3.8924   32.1235 C   0  0  0  0  0  0  0  0  0  0  0  0
   23.3247    2.9877   33.0643 O   0  0  0  0  0  0  0  0  0  0  0  0
   24.3840    2.0596   33.2538 C   0  0  0  0  0  0  0  0  0  0  0  0
   23.0954    5.8186   30.7842 C   0  0  0  0  0  0  0  0  0  0  0  0
   24.3531    5.7666   30.1929 C   0  0  0  0  0  0  0  0  0  0  0  0
   25.2582    4.7809   30.5700 C   0  0  0  0  0  0  0  0  0  0  0  0
   24.9288    3.8367   31.5358 C   0  0  0  0  0  0  0  0  0  0  0  0
   26.6330    4.7240   29.9241 C   0  0  0  0  0  0  0  0  0  0  0  0
   26.4817    5.2197   28.2222 S   0  0  0  0  0  0  0  0  0  0  0  0
   25.2363    4.7007   27.6881 O   0  0  0  0  0  0  0  0  0  0  0  0
   27.7444    4.9206   27.5726 O   0  0  0  0  0  0  0  0  0  0  0  0
   26.3324    6.9759   28.3550 C   0  0  0  0  0  0  0  0  0  0  0  0
   21.3596   12.3716   30.3599 O   0  0  0  0  0  0  0  0  0  0  0  0
   21.8655   11.2982   30.0551 C   0  0  0  0  0  0  0  0  0  0  0  0
   21.5108   10.5420   28.9686 N   0  0  0  0  0  0  0  0  0  0  0  0
   22.9264   10.7260   30.8627 C   0  0  0  0  0  0  0  0  0  0  0  0
   24.2565   10.9725   30.5392 C   0  0  0  0  0  0  0  0  0  0  0  0
   24.5559   11.7326   29.4895 F   0  0  0  0  0  0  0  0  0  0  0  0
   25.2786   10.4252   31.3074 C   0  0  0  0  0  0  0  0  0  0  0  0
   24.9691    9.6298   32.4056 C   0  0  0  0  0  0  0  0  0  0  0  0
   23.6390    9.3820   32.7321 C   0  0  0  0  0  0  0  0  0  0  0  0
   22.6187    9.9296   31.9617 C   0  0  0  0  0  0  0  0  0  0  0  0
   21.2822    9.6791   32.2924 N   0  0  0  0  0  0  0  0  0  0  0  0
   16.8411    6.7112   33.9155 H   0  0  0  0  0  0  0  0  0  0  0  0
   16.4091    9.1996   33.9805 H   0  0  0  0  0  0  0  0  0  0  0  0
   18.5264   10.3812   33.2050 H   0  0  0  0  0  0  0  0  0  0  0  0
   21.0775    4.0589   32.6449 H   0  0  0  0  0  0  0  0  0  0  0  0
   24.1221    1.3927   33.9514 H   0  0  0  0  0  0  0  0  0  0  0  0
   24.5702    1.5858   32.3930 H   0  0  0  0  0  0  0  0  0  0  0  0
   25.2053    2.5471   33.5503 H   0  0  0  0  0  0  0  0  0  0  0  0
   22.4399    6.5254   30.5178 H   0  0  0  0  0  0  0  0  0  0  0  0
   24.6063    6.4381   29.4966 H   0  0  0  0  0  0  0  0  0  0  0  0
   25.5848    3.1309   31.8029 H   0  0  0  0  0  0  0  0  0  0  0  0
   26.9899    3.7912   29.9729 H   0  0  0  0  0  0  0  0  0  0  0  0
   27.2554    5.3443   30.4015 H   0  0  0  0  0  0  0  0  0  0  0  0
   26.2395    7.3725   27.4417 H   0  0  0  0  0  0  0  0  0  0  0  0
   25.5249    7.2014   28.9001 H   0  0  0  0  0  0  0  0  0  0  0  0
   27.1481    7.3472   28.7982 H   0  0  0  0  0  0  0  0  0  0  0  0
   21.5579    9.5443   29.0171 H   0  0  0  0  0  0  0  0  0  0  0  0
   21.2048   10.9879   28.1275 H   0  0  0  0  0  0  0  0  0  0  0  0
   26.2337   10.6032   31.0708 H   0  0  0  0  0  0  0  0  0  0  0  0
   25.7019    9.2361   32.9604 H   0  0  0  0  0  0  0  0  0  0  0  0
   23.4168    8.8097   33.5215 H   0  0  0  0  0  0  0  0  0  0  0  0
   20.6912   10.4826   32.3647 H   0  0  0  0  0  0  0  0  0  0  0  0
  1  2  2  0  0  0  0
  1  3  1  0  0  0  0
  1 34  1  0  0  0  0
  2  9  1  0  0  0  0
  3  4  2  0  0  0  0
  3  7  1  0  0  0  0
  4  5  1  0  0  0  0
  4  8  1  0  0  0  0
  5  6  1  0  0  0  0
  6  7  2  0  0  0  0
  8  9  2  0  0  0  0
  9 10  1  0  0  0  0
 10 11  1  0  0  0  0
 11 12  2  0  0  0  0
 11 15  1  0  0  0  0
 12 13  1  0  0  0  0
 12 18  1  0  0  0  0
 13 14  1  0  0  0  0
 15 16  2  0  0  0  0
 16 17  1  0  0  0  0
 17 18  2  0  0  0  0
 17 19  1  0  0  0  0
 19 20  1  0  0  0  0
 20 21  2  0  0  0  0
 20 22  2  0  0  0  0
 20 23  1  0  0  0  0
 24 25  2  0  0  0  0
 25 26  1  0  0  0  0
 25 27  1  0  0  0  0
 27 28  1  0  0  0  0
 27 33  2  0  0  0  0
 28 29  1  0  0  0  0
 28 30  2  0  0  0  0
 30 31  1  0  0  0  0
 31 32  2  0  0  0  0
 32 33  1  0  0  0  0
 33 34  1  0  0  0  0
  5 35  1  0  0  0  0
  6 36  1  0  0  0  0
  7 37  1  0  0  0  0
 10 38  1  0  0  0  0
 14 39  1  0  0  0  0
 14 40  1  0  0  0  0
 14 41  1  0  0  0  0
 15 42  1  0  0  0  0
 16 43  1  0  0  0  0
 18 44  1  0  0  0  0
 19 45  1  0  0  0  0
 19 46  1  0  0  0  0
 23 47  1  0  0  0  0
 23 48  1  0  0  0  0
 23 49  1  0  0  0  0
 26 50  1  0  0  0  0
 26 51  1  0  0  0  0
 30 52  1  0  0  0  0
 31 53  1  0  0  0  0
 32 54  1  0  0  0  0
 34 55  1  0  0  0  0
M  END
> <BIOSOLVEIT.HYDE_ESTIMATED_AFFINITY_LOWER_BOUNDARY [nM]>
24504.644269

> <BIOSOLVEIT.HYDE_ESTIMATED_AFFINITY_UPPER_BOUNDARY [nM]>
2434681.291052

> <BIOSOLVEIT.HYDE_LIGAND_EFFICIENCY range: ++, +, 0, -, -->
--

> <BIOSOLVEIT.HYDE_LIGAND_LIPOPHILIC_EFFICIENCY range: ++, +, 0, -, -->
--

> <BIOSOLVEIT.LOGP>
3.8869

> <BIOSOLVEIT.MOLECULAR WEIGHT>
484.509

> <BIOSOLVEIT.MOLECULE_CHECKSUM>
LTIwLjYxODI7MC42MDY0MTg=

> <BIOSOLVEIT.TPSA>
152.09

> <OPTIBRIUM.BBB category>
-

> <OPTIBRIUM.PPB90 category>
high

> <OPTIBRIUM.2C9 pKi>
5.97282

> <OPTIBRIUM.logS @ pH7.4>
0.230091

> <OPTIBRIUM.BBB log([brain]:[blood])>
-0.872896

> <OPTIBRIUM.2D6 affinity category>
medium

> <OPTIBRIUM.logS>
0.230091

> <OPTIBRIUM.logD>
2.02109

> <OPTIBRIUM.hERG pIC50>
4.85982

> <OPTIBRIUM.logP>
2.02109

> <OPTIBRIUM.HIA category>
-

> <OPTIBRIUM.P-gp category>
yes

$$$$
GS7_A_365_1_002
joSeeSAR  03092211473D 1   1.00000     0.00000     0
SeeSAR 11.2.2 jonathanwahrer
 55 58  0  0  0  0            999 V2000
   20.3955    8.6952   32.5380 C   0  0  0  0  0  0  0  0  0  0  0  0
   21.0714    7.5586   32.3088 N   0  0  0  0  0  0  0  0  0  0  0  0
   19.0912    8.6129   33.0167 C   0  0  0  0  0  0  0  0  0  0  0  0
   18.5397    7.3772   33.2489 C   0  0  0  0  0  0  0  0  0  0  0  0
   17.2768    7.5880   33.7194 N   0  0  0  0  0  0  0  0  0  0  0  0
   17.0123    8.9251   33.7891 C   0  0  0  0  0  0  0  0  0  0  0  0
   18.1231    9.5874   33.3587 C   0  0  0  0  0  0  0  0  0  0  0  0
   19.2689    6.2772   32.9962 N   0  0  0  0  0  0  0  0  0  0  0  0
   20.5257    6.3517   32.5289 C   0  0  0  0  0  0  0  0  0  0  0  0
   21.2745    5.1964   32.2700 N   0  0  0  0  0  0  0  0  0  0  0  0
   22.5901    5.1928   31.7649 C   0  0  0  0  0  0  0  0  0  0  0  0
   23.4787    4.1926   32.1454 C   0  0  0  0  0  0  0  0  0  0  0  0
   23.0721    3.2297   32.9999 O   0  0  0  0  0  0  0  0  0  0  0  0
   24.1232    2.2975   33.2133 C   0  0  0  0  0  0  0  0  0  0  0  0
   22.9889    6.1948   30.8865 C   0  0  0  0  0  0  0  0  0  0  0  0
   24.2884    6.1858   30.3910 C   0  0  0  0  0  0  0  0  0  0  0  0
   25.1720    5.1834   30.7752 C   0  0  0  0  0  0  0  0  0  0  0  0
   24.7793    4.1797   31.6535 C   0  0  0  0  0  0  0  0  0  0  0  0
   26.5924    5.1736   30.2341 C   0  0  0  0  0  0  0  0  0  0  0  0
   26.5758    5.8370   28.5834 S   0  0  0  0  0  0  0  0  0  0  0  0
   25.3430    5.4417   27.9281 O   0  0  0  0  0  0  0  0  0  0  0  0
   27.8612    5.5310   27.9834 O   0  0  0  0  0  0  0  0  0  0  0  0
   26.5060    7.5781   28.8798 C   0  0  0  0  0  0  0  0  0  0  0  0
   20.6035   12.5796   31.5458 O   0  0  0  0  0  0  0  0  0  0  0  0
   21.4344   12.2346   30.7144 C   0  0  0  0  0  0  0  0  0  0  0  0
   21.4394   12.6221   29.3999 N   0  0  0  0  0  0  0  0  0  0  0  0
   22.5233   11.3491   31.0819 C   0  0  0  0  0  0  0  0  0  0  0  0
   23.8171   11.6214   30.6499 C   0  0  0  0  0  0  0  0  0  0  0  0
   24.0561   12.6933   29.8997 F   0  0  0  0  0  0  0  0  0  0  0  0
   24.8653   10.7754   30.9964 C   0  0  0  0  0  0  0  0  0  0  0  0
   24.6190    9.6535   31.7807 C   0  0  0  0  0  0  0  0  0  0  0  0
   23.3256    9.3789   32.2150 C   0  0  0  0  0  0  0  0  0  0  0  0
   22.2789   10.2257   31.8663 C   0  0  0  0  0  0  0  0  0  0  0  0
   20.9793    9.9475   32.3047 N   0  0  0  0  0  0  0  0  0  0  0  0
   16.6355    6.8651   33.9768 H   0  0  0  0  0  0  0  0  0  0  0  0
   16.1585    9.3431   34.0995 H   0  0  0  0  0  0  0  0  0  0  0  0
   18.2337   10.5793   33.2962 H   0  0  0  0  0  0  0  0  0  0  0  0
   20.8455    4.3126   32.4568 H   0  0  0  0  0  0  0  0  0  0  0  0
   23.8156    1.5875   33.8467 H   0  0  0  0  0  0  0  0  0  0  0  0
   24.3793    1.8786   32.3420 H   0  0  0  0  0  0  0  0  0  0  0  0
   24.9145    2.7701   33.6012 H   0  0  0  0  0  0  0  0  0  0  0  0
   22.3488    6.9133   30.6142 H   0  0  0  0  0  0  0  0  0  0  0  0
   24.5874    6.9003   29.7584 H   0  0  0  0  0  0  0  0  0  0  0  0
   25.4200    3.4621   31.9262 H   0  0  0  0  0  0  0  0  0  0  0  0
   26.9400    4.2360   30.2170 H   0  0  0  0  0  0  0  0  0  0  0  0
   27.1789    5.7357   30.8173 H   0  0  0  0  0  0  0  0  0  0  0  0
   26.4920    8.0645   28.0062 H   0  0  0  0  0  0  0  0  0  0  0  0
   25.6775    7.7954   29.3958 H   0  0  0  0  0  0  0  0  0  0  0  0
   27.3092    7.8592   29.4050 H   0  0  0  0  0  0  0  0  0  0  0  0
   21.7669   11.9934   28.6946 H   0  0  0  0  0  0  0  0  0  0  0  0
   21.1156   13.5335   29.1461 H   0  0  0  0  0  0  0  0  0  0  0  0
   25.7939   10.9735   30.6825 H   0  0  0  0  0  0  0  0  0  0  0  0
   25.3710    9.0442   32.0324 H   0  0  0  0  0  0  0  0  0  0  0  0
   23.1487    8.5718   32.7785 H   0  0  0  0  0  0  0  0  0  0  0  0
   20.3944   10.7412   32.4722 H   0  0  0  0  0  0  0  0  0  0  0  0
  1  2  2  0  0  0  0
  1  3  1  0  0  0  0
  1 34  1  0  0  0  0
  2  9  1  0  0  0  0
  3  4  2  0  0  0  0
  3  7  1  0  0  0  0
  4  5  1  0  0  0  0
  4  8  1  0  0  0  0
  5  6  1  0  0  0  0
  6  7  2  0  0  0  0
  8  9  2  0  0  0  0
  9 10  1  0  0  0  0
 10 11  1  0  0  0  0
 11 12  2  0  0  0  0
 11 15  1  0  0  0  0
 12 13  1  0  0  0  0
 12 18  1  0  0  0  0
 13 14  1  0  0  0  0
 15 16  2  0  0  0  0
 16 17  1  0  0  0  0
 17 18  2  0  0  0  0
 17 19  1  0  0  0  0
 19 20  1  0  0  0  0
 20 21  2  0  0  0  0
 20 22  2  0  0  0  0
 20 23  1  0  0  0  0
 24 25  2  0  0  0  0
 25 26  1  0  0  0  0
 25 27  1  0  0  0  0
 27 28  1  0  0  0  0
 27 33  2  0  0  0  0
 28 29  1  0  0  0  0
 28 30  2  0  0  0  0
 30 31  1  0  0  0  0
 31 32  2  0  0  0  0
 32 33  1  0  0  0  0
 33 34  1  0  0  0  0
  5 35  1  0  0  0  0
  6 36  1  0  0  0  0
  7 37  1  0  0  0  0
 10 38  1  0  0  0  0
 14 39  1  0  0  0  0
 14 40  1  0  0  0  0
 14 41  1  0  0  0  0
 15 42  1  0  0  0  0
 16 43  1  0  0  0  0
 18 44  1  0  0  0  0
 19 45  1  0  0  0  0
 19 46  1  0  0  0  0
 23 47  1  0  0  0  0
 23 48  1  0  0  0  0
 23 49  1  0  0  0  0
 26 50  1  0  0  0  0
 26 51  1  0  0  0  0
 30 52  1  0  0  0  0
 31 53  1  0  0  0  0
 32 54  1  0  0  0  0
 34 55  1  0  0  0  0
M  END
> <BIOSOLVEIT.HYDE_ESTIMATED_AFFINITY_LOWER_BOUNDARY [nM]>
549930.230726

> <BIOSOLVEIT.HYDE_ESTIMATED_AFFINITY_UPPER_BOUNDARY [nM]>
54638819.867502

> <BIOSOLVEIT.HYDE_LIGAND_EFFICIENCY range: ++, +, 0, -, -->
--

> <BIOSOLVEIT.HYDE_LIGAND_LIPOPHILIC_EFFICIENCY range: ++, +, 0, -, -->
--

> <BIOSOLVEIT.LOGP>
3.8869

> <BIOSOLVEIT.MOLECULAR WEIGHT>
484.509

> <BIOSOLVEIT.MOLECULE_CHECKSUM>
LTEyLjkwNjQ7MC4zNzk1OTk=

> <BIOSOLVEIT.TPSA>
152.09

> <OPTIBRIUM.BBB category>
-

> <OPTIBRIUM.PPB90 category>
high

> <OPTIBRIUM.2C9 pKi>
5.97282

> <OPTIBRIUM.logS @ pH7.4>
0.230091

> <OPTIBRIUM.BBB log([brain]:[blood])>
-0.872896

> <OPTIBRIUM.2D6 affinity category>
medium

> <OPTIBRIUM.logS>
0.230091

> <OPTIBRIUM.logD>
2.02109

> <OPTIBRIUM.hERG pIC50>
4.85982

> <OPTIBRIUM.logP>
2.02109

> <OPTIBRIUM.HIA category>
-

> <OPTIBRIUM.P-gp category>
yes

$$$$
