# created with PyMOL 2.5.2
@<TRIPOS>MOLECULE
B96_B_365_1_007
77 81 1                 
SMALL
USER_CHARGES
@<TRIPOS>ATOM
1	   C	55.042	93.130	23.449	C.2	1	UNK0	0.000	
2	   O	53.896	93.506	23.254	O.2	1	UNK0	0.000	
3	   N	55.818	93.710	24.408	N.pl3	1	UNK0	0.000	
4	   C	55.382	94.761	25.233	C.2	1	UNK0	0.000	
5	   C	56.110	95.939	25.392	C.2	1	UNK0	0.000	
6	   C	55.628	96.948	26.225	C.2	1	UNK0	0.000	
7	   C	54.419	96.783	26.900	C.2	1	UNK0	0.000	
8	   C	57.320	96.133	24.729	C.2	1	UNK0	0.000	
9	   C	58.062	97.301	24.874	C.2	1	UNK0	0.000	
10	   C	57.580	98.307	25.705	C.2	1	UNK0	0.000	
11	   C	56.372	98.117	26.367	C.2	1	UNK0	0.000	
12	   C	53.695	95.606	26.739	C.2	1	UNK0	0.000	
13	   C	54.178	94.601	25.909	C.2	1	UNK0	0.000	
14	   N	55.589	92.134	22.715	N.pl3	1	UNK0	0.000	
15	   C	54.938	91.445	21.689	C.2	1	UNK0	0.000	
16	   C	54.194	92.004	20.699	C.2	1	UNK0	0.000	
17	   C	53.756	90.913	19.920	C.2	1	UNK0	0.000	
18	   N	54.223	89.806	20.445	N.2	1	UNK0	0.000	
19	   N	54.937	90.096	21.506	N.pl3	1	UNK0	0.000	
20	   C	55.593	89.166	22.322	C.2	1	UNK0	0.000	
21	   C	52.549	89.577	18.250	C.3	1	UNK0	0.000	
22	   C	51.571	91.745	18.971	C.3	1	UNK0	0.000	
23	   C	53.621	91.763	17.574	C.3	1	UNK0	0.000	
24	   C	52.882	91.006	18.679	C.3	1	UNK0	0.000	
25	   C	56.333	88.144	21.735	C.2	1	UNK0	0.000	
26	   C	56.989	87.213	22.533	C.2	1	UNK0	0.000	
27	   C	56.895	87.320	23.916	C.2	1	UNK0	0.000	
28	   C	56.157	88.339	24.508	C.2	1	UNK0	0.000	
29	   C	55.502	89.268	23.707	C.2	1	UNK0	0.000	
30	   C	57.609	86.310	24.800	C.3	1	UNK0	0.000	
31	   O	53.909	97.729	27.719	O.3	1	UNK0	0.000	
32	   C	52.815	97.290	28.528	C.3	1	UNK0	0.000	
33	   C	51.710	98.353	28.439	C.3	1	UNK0	0.000	
34	   N	52.060	99.414	27.461	N.4	1	UNK0	0.000	
35	   C	51.124	99.379	26.327	C.3	1	UNK0	0.000	
36	   C	50.897	100.751	25.705	C.3	1	UNK0	0.000	
37	   O	50.263	101.626	26.631	O.3	1	UNK0	0.000	
38	   C	50.644	101.367	27.978	C.3	1	UNK0	0.000	
39	   C	52.035	100.757	28.066	C.3	1	UNK0	0.000	
40	   H	56.749	93.368	24.531	 H	1	UNK0	0.000	
41	   H	57.667	95.410	24.131	 H	1	UNK0	0.000	
42	   H	58.928	97.416	24.387	 H	1	UNK0	0.000	
43	   H	58.096	99.155	25.825	 H	1	UNK0	0.000	
44	   H	56.027	98.841	26.964	 H	1	UNK0	0.000	
45	   H	52.827	95.483	27.220	 H	1	UNK0	0.000	
46	   H	53.654	93.756	25.796	 H	1	UNK0	0.000	
47	   H	56.531	91.871	22.923	 H	1	UNK0	0.000	
48	   H	54.000	92.975	20.556	 H	1	UNK0	0.000	
49	   H	51.973	89.600	17.433	 H	1	UNK0	0.000	
50	   H	53.395	89.083	18.048	 H	1	UNK0	0.000	
51	   H	52.060	89.113	18.989	 H	1	UNK0	0.000	
52	   H	51.020	91.789	18.138	 H	1	UNK0	0.000	
53	   H	51.063	91.256	19.681	 H	1	UNK0	0.000	
54	   H	51.774	92.672	19.286	 H	1	UNK0	0.000	
55	   H	53.040	91.819	16.762	 H	1	UNK0	0.000	
56	   H	53.840	92.686	17.891	 H	1	UNK0	0.000	
57	   H	54.466	91.280	17.346	 H	1	UNK0	0.000	
58	   H	56.393	88.080	20.739	 H	1	UNK0	0.000	
59	   H	57.522	86.476	22.117	 H	1	UNK0	0.000	
60	   H	56.098	88.404	25.504	 H	1	UNK0	0.000	
61	   H	54.969	90.005	24.123	 H	1	UNK0	0.000	
62	   H	57.439	86.529	25.760	 H	1	UNK0	0.000	
63	   H	57.265	85.392	24.602	 H	1	UNK0	0.000	
64	   H	58.592	86.344	24.618	 H	1	UNK0	0.000	
65	   H	53.113	97.189	29.477	 H	1	UNK0	0.000	
66	   H	52.472	96.414	28.191	 H	1	UNK0	0.000	
67	   H	51.583	98.768	29.339	 H	1	UNK0	0.000	
68	   H	50.858	97.914	28.152	 H	1	UNK0	0.000	
69	   H	50.246	99.026	26.648	 H	1	UNK0	0.000	
70	   H	51.493	98.768	25.626	 H	1	UNK0	0.000	
71	   H	50.317	100.653	24.896	 H	1	UNK0	0.000	
72	   H	51.779	101.140	25.437	 H	1	UNK0	0.000	
73	   H	49.987	100.732	28.384	 H	1	UNK0	0.000	
74	   H	50.635	102.227	28.488	 H	1	UNK0	0.000	
75	   H	52.682	101.347	27.582	 H	1	UNK0	0.000	
76	   H	52.302	100.688	29.027	 H	1	UNK0	0.000	
77	   H	52.983	99.238	27.117	 H	1	UNK0	0.000	
@<TRIPOS>BOND
1 1 2 2
2 1 3 1
3 1 14 1
4 3 4 1
5 4 5 2
6 4 13 1
7 5 6 1
8 5 8 1
9 6 7 2
10 6 11 1
11 7 12 1
12 7 31 1
13 8 9 2
14 9 10 1
15 10 11 2
16 12 13 2
17 14 15 1
18 15 16 2
19 15 19 1
20 16 17 1
21 17 18 2
22 17 24 1
23 18 19 1
24 19 20 1
25 20 25 2
26 20 29 1
27 21 24 1
28 22 24 1
29 23 24 1
30 25 26 1
31 26 27 2
32 27 28 1
33 27 30 1
34 28 29 2
35 31 32 1
36 32 33 1
37 33 34 1
38 34 35 1
39 34 39 1
40 35 36 1
41 36 37 1
42 37 38 1
43 38 39 1
44 3 40 1
45 8 41 1
46 9 42 1
47 10 43 1
48 11 44 1
49 12 45 1
50 13 46 1
51 14 47 1
52 16 48 1
53 21 49 1
54 21 50 1
55 21 51 1
56 22 52 1
57 22 53 1
58 22 54 1
59 23 55 1
60 23 56 1
61 23 57 1
62 25 58 1
63 26 59 1
64 28 60 1
65 29 61 1
66 30 62 1
67 30 63 1
68 30 64 1
69 32 65 1
70 32 66 1
71 33 67 1
72 33 68 1
73 35 69 1
74 35 70 1
75 36 71 1
76 36 72 1
77 38 73 1
78 38 74 1
79 39 75 1
80 39 76 1
81 34 77 1
@<TRIPOS>SUBSTRUCTURE
1	UNK0	1	GROUP	1 ****	UNK
