B96_B_365_1_007
joSeeSAR  03092211513D 1   1.00000     0.00000     0
SeeSAR 11.2.2 jonathanwahrer
 77 81  0  0  0  0            999 V2000
   55.0419   93.1295   23.4489 C   0  0  0  0  0  0  0  0  0  0  0  0
   53.8960   93.5063   23.2539 O   0  0  0  0  0  0  0  0  0  0  0  0
   55.8176   93.7099   24.4080 N   0  0  0  0  0  0  0  0  0  0  0  0
   55.3823   94.7614   25.2332 C   0  0  0  0  0  0  0  0  0  0  0  0
   56.1096   95.9394   25.3915 C   0  0  0  0  0  0  0  0  0  0  0  0
   55.6279   96.9480   26.2248 C   0  0  0  0  0  0  0  0  0  0  0  0
   54.4193   96.7828   26.9004 C   0  0  0  0  0  0  0  0  0  0  0  0
   57.3202   96.1331   24.7290 C   0  0  0  0  0  0  0  0  0  0  0  0
   58.0618   97.3011   24.8738 C   0  0  0  0  0  0  0  0  0  0  0  0
   57.5803   98.3068   25.7051 C   0  0  0  0  0  0  0  0  0  0  0  0
   56.3722   98.1165   26.3674 C   0  0  0  0  0  0  0  0  0  0  0  0
   53.6948   95.6059   26.7392 C   0  0  0  0  0  0  0  0  0  0  0  0
   54.1776   94.6006   25.9087 C   0  0  0  0  0  0  0  0  0  0  0  0
   55.5888   92.1339   22.7154 N   0  0  0  0  0  0  0  0  0  0  0  0
   54.9379   91.4445   21.6893 C   0  0  0  0  0  0  0  0  0  0  0  0
   54.1939   92.0044   20.6995 C   0  0  0  0  0  0  0  0  0  0  0  0
   53.7556   90.9135   19.9203 C   0  0  0  0  0  0  0  0  0  0  0  0
   54.2226   89.8056   20.4453 N   0  0  0  0  0  0  0  0  0  0  0  0
   54.9369   90.0960   21.5064 N   0  0  0  0  0  0  0  0  0  0  0  0
   55.5932   89.1656   22.3222 C   0  0  0  0  0  0  0  0  0  0  0  0
   52.5486   89.5769   18.2502 C   0  0  0  0  0  0  0  0  0  0  0  0
   51.5706   91.7451   18.9712 C   0  0  0  0  0  0  0  0  0  0  0  0
   53.6213   91.7631   17.5737 C   0  0  0  0  0  0  0  0  0  0  0  0
   52.8825   91.0058   18.6792 C   0  0  0  0  0  0  0  0  0  0  0  0
   56.3329   88.1443   21.7346 C   0  0  0  0  0  0  0  0  0  0  0  0
   56.9892   87.2134   22.5328 C   0  0  0  0  0  0  0  0  0  0  0  0
   56.8954   87.3197   23.9160 C   0  0  0  0  0  0  0  0  0  0  0  0
   56.1573   88.3394   24.5083 C   0  0  0  0  0  0  0  0  0  0  0  0
   55.5019   89.2683   23.7066 C   0  0  0  0  0  0  0  0  0  0  0  0
   57.6090   86.3097   24.7998 C   0  0  0  0  0  0  0  0  0  0  0  0
   53.9088   97.7295   27.7190 O   0  0  0  0  0  0  0  0  0  0  0  0
   52.8149   97.2903   28.5283 C   0  0  0  0  0  0  0  0  0  0  0  0
   51.7096   98.3527   28.4386 C   0  0  0  0  0  0  0  0  0  0  0  0
   52.0604   99.4142   27.4606 N   0  3  0  0  0  0  0  0  0  0  0  0
   51.1239   99.3794   26.3266 C   0  0  0  0  0  0  0  0  0  0  0  0
   50.8970  100.7513   25.7045 C   0  0  0  0  0  0  0  0  0  0  0  0
   50.2630  101.6255   26.6306 O   0  0  0  0  0  0  0  0  0  0  0  0
   50.6443  101.3668   27.9784 C   0  0  0  0  0  0  0  0  0  0  0  0
   52.0350  100.7574   28.0659 C   0  0  0  0  0  0  0  0  0  0  0  0
   56.7493   93.3682   24.5315 H   0  0  0  0  0  0  0  0  0  0  0  0
   57.6666   95.4102   24.1312 H   0  0  0  0  0  0  0  0  0  0  0  0
   58.9279   97.4160   24.3874 H   0  0  0  0  0  0  0  0  0  0  0  0
   58.0958   99.1553   25.8250 H   0  0  0  0  0  0  0  0  0  0  0  0
   56.0274   98.8409   26.9644 H   0  0  0  0  0  0  0  0  0  0  0  0
   52.8269   95.4830   27.2204 H   0  0  0  0  0  0  0  0  0  0  0  0
   53.6545   93.7557   25.7965 H   0  0  0  0  0  0  0  0  0  0  0  0
   56.5310   91.8710   22.9232 H   0  0  0  0  0  0  0  0  0  0  0  0
   54.0000   92.9748   20.5556 H   0  0  0  0  0  0  0  0  0  0  0  0
   51.9728   89.6002   17.4329 H   0  0  0  0  0  0  0  0  0  0  0  0
   53.3945   89.0832   18.0481 H   0  0  0  0  0  0  0  0  0  0  0  0
   52.0600   89.1125   18.9890 H   0  0  0  0  0  0  0  0  0  0  0  0
   51.0201   91.7890   18.1376 H   0  0  0  0  0  0  0  0  0  0  0  0
   51.0630   91.2559   19.6805 H   0  0  0  0  0  0  0  0  0  0  0  0
   51.7736   92.6723   19.2860 H   0  0  0  0  0  0  0  0  0  0  0  0
   53.0400   91.8188   16.7620 H   0  0  0  0  0  0  0  0  0  0  0  0
   53.8403   92.6859   17.8909 H   0  0  0  0  0  0  0  0  0  0  0  0
   54.4665   91.2796   17.3459 H   0  0  0  0  0  0  0  0  0  0  0  0
   56.3928   88.0796   20.7386 H   0  0  0  0  0  0  0  0  0  0  0  0
   57.5220   86.4764   22.1169 H   0  0  0  0  0  0  0  0  0  0  0  0
   56.0982   88.4043   25.5044 H   0  0  0  0  0  0  0  0  0  0  0  0
   54.9688   90.0050   24.1226 H   0  0  0  0  0  0  0  0  0  0  0  0
   57.4394   86.5290   25.7605 H   0  0  0  0  0  0  0  0  0  0  0  0
   57.2651   85.3919   24.6017 H   0  0  0  0  0  0  0  0  0  0  0  0
   58.5918   86.3438   24.6185 H   0  0  0  0  0  0  0  0  0  0  0  0
   53.1130   97.1887   29.4774 H   0  0  0  0  0  0  0  0  0  0  0  0
   52.4724   96.4136   28.1908 H   0  0  0  0  0  0  0  0  0  0  0  0
   51.5833   98.7684   29.3393 H   0  0  0  0  0  0  0  0  0  0  0  0
   50.8582   97.9138   28.1518 H   0  0  0  0  0  0  0  0  0  0  0  0
   50.2457   99.0256   26.6484 H   0  0  0  0  0  0  0  0  0  0  0  0
   51.4930   98.7684   25.6262 H   0  0  0  0  0  0  0  0  0  0  0  0
   50.3168  100.6531   24.8959 H   0  0  0  0  0  0  0  0  0  0  0  0
   51.7786  101.1401   25.4368 H   0  0  0  0  0  0  0  0  0  0  0  0
   49.9868  100.7320   28.3843 H   0  0  0  0  0  0  0  0  0  0  0  0
   50.6353  102.2272   28.4879 H   0  0  0  0  0  0  0  0  0  0  0  0
   52.6817  101.3469   27.5817 H   0  0  0  0  0  0  0  0  0  0  0  0
   52.3022  100.6884   29.0271 H   0  0  0  0  0  0  0  0  0  0  0  0
   52.9828   99.2377   27.1169 H   0  0  0  0  0  0  0  0  0  0  0  0
  1  2  2  0  0  0  0
  1  3  1  0  0  0  0
  1 14  1  0  0  0  0
  3  4  1  0  0  0  0
  4  5  2  0  0  0  0
  4 13  1  0  0  0  0
  5  6  1  0  0  0  0
  5  8  1  0  0  0  0
  6  7  2  0  0  0  0
  6 11  1  0  0  0  0
  7 12  1  0  0  0  0
  7 31  1  0  0  0  0
  8  9  2  0  0  0  0
  9 10  1  0  0  0  0
 10 11  2  0  0  0  0
 12 13  2  0  0  0  0
 14 15  1  0  0  0  0
 15 16  2  0  0  0  0
 15 19  1  0  0  0  0
 16 17  1  0  0  0  0
 17 18  2  0  0  0  0
 17 24  1  0  0  0  0
 18 19  1  0  0  0  0
 19 20  1  0  0  0  0
 20 25  2  0  0  0  0
 20 29  1  0  0  0  0
 21 24  1  0  0  0  0
 22 24  1  0  0  0  0
 23 24  1  0  0  0  0
 25 26  1  0  0  0  0
 26 27  2  0  0  0  0
 27 28  1  0  0  0  0
 27 30  1  0  0  0  0
 28 29  2  0  0  0  0
 31 32  1  0  0  0  0
 32 33  1  0  0  0  0
 33 34  1  0  0  0  0
 34 35  1  0  0  0  0
 34 39  1  0  0  0  0
 35 36  1  0  0  0  0
 36 37  1  0  0  0  0
 37 38  1  0  0  0  0
 38 39  1  0  0  0  0
  3 40  1  0  0  0  0
  8 41  1  0  0  0  0
  9 42  1  0  0  0  0
 10 43  1  0  0  0  0
 11 44  1  0  0  0  0
 12 45  1  0  0  0  0
 13 46  1  0  0  0  0
 14 47  1  0  0  0  0
 16 48  1  0  0  0  0
 21 49  1  0  0  0  0
 21 50  1  0  0  0  0
 21 51  1  0  0  0  0
 22 52  1  0  0  0  0
 22 53  1  0  0  0  0
 22 54  1  0  0  0  0
 23 55  1  0  0  0  0
 23 56  1  0  0  0  0
 23 57  1  0  0  0  0
 25 58  1  0  0  0  0
 26 59  1  0  0  0  0
 28 60  1  0  0  0  0
 29 61  1  0  0  0  0
 30 62  1  0  0  0  0
 30 63  1  0  0  0  0
 30 64  1  0  0  0  0
 32 65  1  0  0  0  0
 32 66  1  0  0  0  0
 33 67  1  0  0  0  0
 33 68  1  0  0  0  0
 35 69  1  0  0  0  0
 35 70  1  0  0  0  0
 36 71  1  0  0  0  0
 36 72  1  0  0  0  0
 38 73  1  0  0  0  0
 38 74  1  0  0  0  0
 39 75  1  0  0  0  0
 39 76  1  0  0  0  0
 34 77  1  0  0  0  0
M  CHG  1  34   1
M  END
> <BIOSOLVEIT.HYDE_ESTIMATED_AFFINITY_LOWER_BOUNDARY [nM]>
0.000052

> <BIOSOLVEIT.HYDE_ESTIMATED_AFFINITY_UPPER_BOUNDARY [nM]>
0.005160

> <BIOSOLVEIT.HYDE_LIGAND_EFFICIENCY range: ++, +, 0, -, -->
+

> <BIOSOLVEIT.HYDE_LIGAND_LIPOPHILIC_EFFICIENCY range: ++, +, 0, -, -->
++

> <BIOSOLVEIT.LOGP>
4.56932

> <BIOSOLVEIT.MOLECULAR WEIGHT>
528.673

> <BIOSOLVEIT.MOLECULE_CHECKSUM>
LTcwLjEyODQ7MS43OTgxNg==

> <BIOSOLVEIT.TPSA>
81.85

> <OPTIBRIUM.BBB category>
-

> <OPTIBRIUM.PPB90 category>
high

> <OPTIBRIUM.2C9 pKi>
5.93295

> <OPTIBRIUM.logS @ pH7.4>
1.34117

> <OPTIBRIUM.BBB log([brain]:[blood])>
-0.17445

> <OPTIBRIUM.2D6 affinity category>
medium

> <OPTIBRIUM.logS>
0.321773

> <OPTIBRIUM.logD>
4.19103

> <OPTIBRIUM.hERG pIC50>
7.08667

> <OPTIBRIUM.logP>
5.11964

> <OPTIBRIUM.HIA category>
+

> <OPTIBRIUM.P-gp category>
yes

$$$$
B96_B_365_1_009
joSeeSAR  03092211513D 1   1.00000     0.00000     0
SeeSAR 11.2.2 jonathanwahrer
 77 81  0  0  0  0            999 V2000
   55.0421   93.1295   23.4485 C   0  0  0  0  0  0  0  0  0  0  0  0
   53.8959   93.5060   23.2537 O   0  0  0  0  0  0  0  0  0  0  0  0
   55.8178   93.7100   24.4074 N   0  0  0  0  0  0  0  0  0  0  0  0
   55.3823   94.7615   25.2327 C   0  0  0  0  0  0  0  0  0  0  0  0
   56.1096   95.9395   25.3913 C   0  0  0  0  0  0  0  0  0  0  0  0
   55.6277   96.9480   26.2246 C   0  0  0  0  0  0  0  0  0  0  0  0
   54.4191   96.7826   26.9000 C   0  0  0  0  0  0  0  0  0  0  0  0
   57.3204   96.1332   24.7290 C   0  0  0  0  0  0  0  0  0  0  0  0
   58.0619   97.3012   24.8741 C   0  0  0  0  0  0  0  0  0  0  0  0
   57.5803   98.3068   25.7054 C   0  0  0  0  0  0  0  0  0  0  0  0
   56.3721   98.1164   26.3675 C   0  0  0  0  0  0  0  0  0  0  0  0
   53.6946   95.6058   26.7385 C   0  0  0  0  0  0  0  0  0  0  0  0
   54.1774   94.6006   25.9081 C   0  0  0  0  0  0  0  0  0  0  0  0
   55.5890   92.1340   22.7149 N   0  0  0  0  0  0  0  0  0  0  0  0
   54.9381   91.4445   21.6889 C   0  0  0  0  0  0  0  0  0  0  0  0
   54.1941   92.0043   20.6991 C   0  0  0  0  0  0  0  0  0  0  0  0
   53.7557   90.9132   19.9201 C   0  0  0  0  0  0  0  0  0  0  0  0
   54.2227   89.8053   20.4452 N   0  0  0  0  0  0  0  0  0  0  0  0
   54.9370   90.0959   21.5062 N   0  0  0  0  0  0  0  0  0  0  0  0
   55.5933   89.1656   22.3222 C   0  0  0  0  0  0  0  0  0  0  0  0
   52.5495   89.5763   18.2496 C   0  0  0  0  0  0  0  0  0  0  0  0
   51.5704   91.7438   18.9712 C   0  0  0  0  0  0  0  0  0  0  0  0
   53.6210   91.7634   17.5737 C   0  0  0  0  0  0  0  0  0  0  0  0
   52.8826   91.0053   18.6790 C   0  0  0  0  0  0  0  0  0  0  0  0
   56.3332   88.1443   21.7348 C   0  0  0  0  0  0  0  0  0  0  0  0
   56.9895   87.2135   22.5330 C   0  0  0  0  0  0  0  0  0  0  0  0
   56.8955   87.3200   23.9163 C   0  0  0  0  0  0  0  0  0  0  0  0
   56.1573   88.3396   24.5084 C   0  0  0  0  0  0  0  0  0  0  0  0
   55.5020   89.2685   23.7065 C   0  0  0  0  0  0  0  0  0  0  0  0
   57.6091   86.3101   24.8001 C   0  0  0  0  0  0  0  0  0  0  0  0
   53.9085   97.7293   27.7187 O   0  0  0  0  0  0  0  0  0  0  0  0
   52.8144   97.2900   28.5278 C   0  0  0  0  0  0  0  0  0  0  0  0
   51.7096   98.3530   28.4389 C   0  0  0  0  0  0  0  0  0  0  0  0
   52.0602   99.4141   27.4605 N   0  3  0  0  0  0  0  0  0  0  0  0
   51.1230   99.3793   26.3268 C   0  0  0  0  0  0  0  0  0  0  0  0
   50.8960  100.7510   25.7045 C   0  0  0  0  0  0  0  0  0  0  0  0
   50.2628  101.6255   26.6309 O   0  0  0  0  0  0  0  0  0  0  0  0
   50.6446  101.3671   27.9784 C   0  0  0  0  0  0  0  0  0  0  0  0
   52.0352  100.7575   28.0654 C   0  0  0  0  0  0  0  0  0  0  0  0
   56.7495   93.3686   24.5308 H   0  0  0  0  0  0  0  0  0  0  0  0
   57.6668   95.4104   24.1312 H   0  0  0  0  0  0  0  0  0  0  0  0
   58.9282   97.4160   24.3879 H   0  0  0  0  0  0  0  0  0  0  0  0
   58.0957   99.1553   25.8254 H   0  0  0  0  0  0  0  0  0  0  0  0
   56.0272   98.8408   26.9645 H   0  0  0  0  0  0  0  0  0  0  0  0
   52.8267   95.4829   27.2196 H   0  0  0  0  0  0  0  0  0  0  0  0
   53.6545   93.7557   25.7956 H   0  0  0  0  0  0  0  0  0  0  0  0
   56.5312   91.8714   22.9225 H   0  0  0  0  0  0  0  0  0  0  0  0
   54.0001   92.9746   20.5550 H   0  0  0  0  0  0  0  0  0  0  0  0
   51.9737   89.5995   17.4323 H   0  0  0  0  0  0  0  0  0  0  0  0
   53.3956   89.0833   18.0473 H   0  0  0  0  0  0  0  0  0  0  0  0
   52.0612   89.1116   18.9883 H   0  0  0  0  0  0  0  0  0  0  0  0
   51.0197   91.7877   18.1375 H   0  0  0  0  0  0  0  0  0  0  0  0
   51.0631   91.2543   19.6803 H   0  0  0  0  0  0  0  0  0  0  0  0
   51.7728   92.6711   19.2861 H   0  0  0  0  0  0  0  0  0  0  0  0
   53.0396   91.8189   16.7619 H   0  0  0  0  0  0  0  0  0  0  0  0
   53.8395   92.6862   17.8911 H   0  0  0  0  0  0  0  0  0  0  0  0
   54.4664   91.2803   17.3457 H   0  0  0  0  0  0  0  0  0  0  0  0
   56.3932   88.0795   20.7387 H   0  0  0  0  0  0  0  0  0  0  0  0
   57.5224   86.4766   22.1173 H   0  0  0  0  0  0  0  0  0  0  0  0
   56.0981   88.4046   25.5046 H   0  0  0  0  0  0  0  0  0  0  0  0
   54.9688   90.0052   24.1224 H   0  0  0  0  0  0  0  0  0  0  0  0
   57.4395   86.5295   25.7609 H   0  0  0  0  0  0  0  0  0  0  0  0
   57.2653   85.3922   24.6022 H   0  0  0  0  0  0  0  0  0  0  0  0
   58.5919   86.3443   24.6190 H   0  0  0  0  0  0  0  0  0  0  0  0
   53.1125   97.1876   29.4768 H   0  0  0  0  0  0  0  0  0  0  0  0
   52.4714   96.4137   28.1897 H   0  0  0  0  0  0  0  0  0  0  0  0
   51.5843   98.7687   29.3397 H   0  0  0  0  0  0  0  0  0  0  0  0
   50.8577   97.9143   28.1527 H   0  0  0  0  0  0  0  0  0  0  0  0
   50.2450   99.0257   26.6493 H   0  0  0  0  0  0  0  0  0  0  0  0
   51.4917   98.7679   25.6265 H   0  0  0  0  0  0  0  0  0  0  0  0
   50.3154  100.6527   24.8964 H   0  0  0  0  0  0  0  0  0  0  0  0
   51.7775  101.1396   25.4364 H   0  0  0  0  0  0  0  0  0  0  0  0
   49.9872  100.7325   28.3849 H   0  0  0  0  0  0  0  0  0  0  0  0
   50.6360  102.2276   28.4878 H   0  0  0  0  0  0  0  0  0  0  0  0
   52.6818  101.3468   27.5808 H   0  0  0  0  0  0  0  0  0  0  0  0
   52.3029  100.6887   29.0265 H   0  0  0  0  0  0  0  0  0  0  0  0
   52.9823   99.2373   27.1163 H   0  0  0  0  0  0  0  0  0  0  0  0
  1  2  2  0  0  0  0
  1  3  1  0  0  0  0
  1 14  1  0  0  0  0
  3  4  1  0  0  0  0
  4  5  2  0  0  0  0
  4 13  1  0  0  0  0
  5  6  1  0  0  0  0
  5  8  1  0  0  0  0
  6  7  2  0  0  0  0
  6 11  1  0  0  0  0
  7 12  1  0  0  0  0
  7 31  1  0  0  0  0
  8  9  2  0  0  0  0
  9 10  1  0  0  0  0
 10 11  2  0  0  0  0
 12 13  2  0  0  0  0
 14 15  1  0  0  0  0
 15 16  2  0  0  0  0
 15 19  1  0  0  0  0
 16 17  1  0  0  0  0
 17 18  2  0  0  0  0
 17 24  1  0  0  0  0
 18 19  1  0  0  0  0
 19 20  1  0  0  0  0
 20 25  2  0  0  0  0
 20 29  1  0  0  0  0
 21 24  1  0  0  0  0
 22 24  1  0  0  0  0
 23 24  1  0  0  0  0
 25 26  1  0  0  0  0
 26 27  2  0  0  0  0
 27 28  1  0  0  0  0
 27 30  1  0  0  0  0
 28 29  2  0  0  0  0
 31 32  1  0  0  0  0
 32 33  1  0  0  0  0
 33 34  1  0  0  0  0
 34 35  1  0  0  0  0
 34 39  1  0  0  0  0
 35 36  1  0  0  0  0
 36 37  1  0  0  0  0
 37 38  1  0  0  0  0
 38 39  1  0  0  0  0
  3 40  1  0  0  0  0
  8 41  1  0  0  0  0
  9 42  1  0  0  0  0
 10 43  1  0  0  0  0
 11 44  1  0  0  0  0
 12 45  1  0  0  0  0
 13 46  1  0  0  0  0
 14 47  1  0  0  0  0
 16 48  1  0  0  0  0
 21 49  1  0  0  0  0
 21 50  1  0  0  0  0
 21 51  1  0  0  0  0
 22 52  1  0  0  0  0
 22 53  1  0  0  0  0
 22 54  1  0  0  0  0
 23 55  1  0  0  0  0
 23 56  1  0  0  0  0
 23 57  1  0  0  0  0
 25 58  1  0  0  0  0
 26 59  1  0  0  0  0
 28 60  1  0  0  0  0
 29 61  1  0  0  0  0
 30 62  1  0  0  0  0
 30 63  1  0  0  0  0
 30 64  1  0  0  0  0
 32 65  1  0  0  0  0
 32 66  1  0  0  0  0
 33 67  1  0  0  0  0
 33 68  1  0  0  0  0
 35 69  1  0  0  0  0
 35 70  1  0  0  0  0
 36 71  1  0  0  0  0
 36 72  1  0  0  0  0
 38 73  1  0  0  0  0
 38 74  1  0  0  0  0
 39 75  1  0  0  0  0
 39 76  1  0  0  0  0
 34 77  1  0  0  0  0
M  CHG  1  34   1
M  END
> <BIOSOLVEIT.HYDE_ESTIMATED_AFFINITY_LOWER_BOUNDARY [nM]>
0.000053

> <BIOSOLVEIT.HYDE_ESTIMATED_AFFINITY_UPPER_BOUNDARY [nM]>
0.005249

> <BIOSOLVEIT.HYDE_LIGAND_EFFICIENCY range: ++, +, 0, -, -->
+

> <BIOSOLVEIT.HYDE_LIGAND_LIPOPHILIC_EFFICIENCY range: ++, +, 0, -, -->
++

> <BIOSOLVEIT.LOGP>
4.56932

> <BIOSOLVEIT.MOLECULAR WEIGHT>
528.673

> <BIOSOLVEIT.MOLECULE_CHECKSUM>
LTcwLjA4NTk7MS43OTcwOA==

> <BIOSOLVEIT.TPSA>
81.85

> <OPTIBRIUM.BBB category>
-

> <OPTIBRIUM.PPB90 category>
high

> <OPTIBRIUM.2C9 pKi>
5.93295

> <OPTIBRIUM.logS @ pH7.4>
1.34117

> <OPTIBRIUM.BBB log([brain]:[blood])>
-0.17445

> <OPTIBRIUM.2D6 affinity category>
medium

> <OPTIBRIUM.logS>
0.321773

> <OPTIBRIUM.logD>
4.19103

> <OPTIBRIUM.hERG pIC50>
7.08667

> <OPTIBRIUM.logP>
5.11964

> <OPTIBRIUM.HIA category>
+

> <OPTIBRIUM.P-gp category>
yes

$$$$
B96_B_365_1_006
joSeeSAR  03092211513D 1   1.00000     0.00000     0
SeeSAR 11.2.2 jonathanwahrer
 77 81  0  0  0  0            999 V2000
   55.0230   93.1376   23.4910 C   0  0  0  0  0  0  0  0  0  0  0  0
   53.8872   93.5310   23.2712 O   0  0  0  0  0  0  0  0  0  0  0  0
   55.7883   93.7110   24.4625 N   0  0  0  0  0  0  0  0  0  0  0  0
   55.3531   94.7736   25.2735 C   0  0  0  0  0  0  0  0  0  0  0  0
   56.0926   95.9434   25.4358 C   0  0  0  0  0  0  0  0  0  0  0  0
   55.6102   96.9637   26.2544 C   0  0  0  0  0  0  0  0  0  0  0  0
   54.3888   96.8183   26.9114 C   0  0  0  0  0  0  0  0  0  0  0  0
   57.3161   96.1173   24.7918 C   0  0  0  0  0  0  0  0  0  0  0  0
   58.0699   97.2769   24.9408 C   0  0  0  0  0  0  0  0  0  0  0  0
   57.5878   98.2943   25.7574 C   0  0  0  0  0  0  0  0  0  0  0  0
   56.3669   98.1236   26.4013 C   0  0  0  0  0  0  0  0  0  0  0  0
   53.6523   95.6494   26.7461 C   0  0  0  0  0  0  0  0  0  0  0  0
   54.1356   94.6325   25.9304 C   0  0  0  0  0  0  0  0  0  0  0  0
   55.5687   92.1297   22.7737 N   0  0  0  0  0  0  0  0  0  0  0  0
   54.9264   91.4434   21.7359 C   0  0  0  0  0  0  0  0  0  0  0  0
   54.1858   92.0072   20.7457 C   0  0  0  0  0  0  0  0  0  0  0  0
   53.7580   90.9202   19.9553 C   0  0  0  0  0  0  0  0  0  0  0  0
   54.2271   89.8106   20.4749 N   0  0  0  0  0  0  0  0  0  0  0  0
   54.9332   90.0963   21.5427 N   0  0  0  0  0  0  0  0  0  0  0  0
   55.5889   89.1630   22.3556 C   0  0  0  0  0  0  0  0  0  0  0  0
   52.5656   89.5905   18.2693 C   0  0  0  0  0  0  0  0  0  0  0  0
   51.5764   91.7510   18.9981 C   0  0  0  0  0  0  0  0  0  0  0  0
   53.6355   91.7844   17.6135 C   0  0  0  0  0  0  0  0  0  0  0  0
   52.8923   91.0177   18.7095 C   0  0  0  0  0  0  0  0  0  0  0  0
   56.3352   88.1482   21.7649 C   0  0  0  0  0  0  0  0  0  0  0  0
   56.9909   87.2144   22.5600 C   0  0  0  0  0  0  0  0  0  0  0  0
   56.8902   87.3113   23.9435 C   0  0  0  0  0  0  0  0  0  0  0  0
   56.1456   88.3245   24.5389 C   0  0  0  0  0  0  0  0  0  0  0  0
   55.4907   89.2564   23.7401 C   0  0  0  0  0  0  0  0  0  0  0  0
   57.6031   86.2981   24.8241 C   0  0  0  0  0  0  0  0  0  0  0  0
   53.8772   97.7769   27.7152 O   0  0  0  0  0  0  0  0  0  0  0  0
   52.5630   97.5028   28.2073 C   0  0  0  0  0  0  0  0  0  0  0  0
   52.0291   98.7871   28.8583 C   0  0  0  0  0  0  0  0  0  0  0  0
   50.7345   99.1980   28.2572 N   0  3  0  0  0  0  0  0  0  0  0  0
   50.3304  100.5097   28.7869 C   0  0  0  0  0  0  0  0  0  0  0  0
   49.5198  101.3266   27.7888 C   0  0  0  0  0  0  0  0  0  0  0  0
   50.3076  101.6573   26.6513 O   0  0  0  0  0  0  0  0  0  0  0  0
   51.2623  100.6494   26.3333 C   0  0  0  0  0  0  0  0  0  0  0  0
   50.8034   99.2721   26.7872 C   0  0  0  0  0  0  0  0  0  0  0  0
   56.7119   93.3556   24.6064 H   0  0  0  0  0  0  0  0  0  0  0  0
   57.6629   95.3860   24.2046 H   0  0  0  0  0  0  0  0  0  0  0  0
   58.9453   97.3774   24.4678 H   0  0  0  0  0  0  0  0  0  0  0  0
   58.1120   99.1370   25.8800 H   0  0  0  0  0  0  0  0  0  0  0  0
   56.0217   98.8564   26.9877 H   0  0  0  0  0  0  0  0  0  0  0  0
   52.7752   95.5408   27.2140 H   0  0  0  0  0  0  0  0  0  0  0  0
   53.6038   93.7935   25.8154 H   0  0  0  0  0  0  0  0  0  0  0  0
   56.5023   91.8534   23.0017 H   0  0  0  0  0  0  0  0  0  0  0  0
   53.9881   92.9777   20.6079 H   0  0  0  0  0  0  0  0  0  0  0  0
   51.9948   89.6173   17.4486 H   0  0  0  0  0  0  0  0  0  0  0  0
   53.4142   89.1008   18.0692 H   0  0  0  0  0  0  0  0  0  0  0  0
   52.0740   89.1200   19.0020 H   0  0  0  0  0  0  0  0  0  0  0  0
   51.0308   91.7985   18.1614 H   0  0  0  0  0  0  0  0  0  0  0  0
   51.0659   91.2557   19.7011 H   0  0  0  0  0  0  0  0  0  0  0  0
   51.7743   92.6768   19.3200 H   0  0  0  0  0  0  0  0  0  0  0  0
   53.0590   91.8435   16.7985 H   0  0  0  0  0  0  0  0  0  0  0  0
   53.8496   92.7058   17.9379 H   0  0  0  0  0  0  0  0  0  0  0  0
   54.4836   91.3050   17.3878 H   0  0  0  0  0  0  0  0  0  0  0  0
   56.4000   88.0902   20.7686 H   0  0  0  0  0  0  0  0  0  0  0  0
   57.5284   86.4821   22.1419 H   0  0  0  0  0  0  0  0  0  0  0  0
   56.0815   88.3826   25.5352 H   0  0  0  0  0  0  0  0  0  0  0  0
   54.9530   89.9883   24.1583 H   0  0  0  0  0  0  0  0  0  0  0  0
   57.4282   86.5106   25.7855 H   0  0  0  0  0  0  0  0  0  0  0  0
   57.2635   85.3804   24.6184 H   0  0  0  0  0  0  0  0  0  0  0  0
   58.5867   86.3369   24.6477 H   0  0  0  0  0  0  0  0  0  0  0  0
   52.5996   96.7678   28.8845 H   0  0  0  0  0  0  0  0  0  0  0  0
   51.9667   97.2307   27.4521 H   0  0  0  0  0  0  0  0  0  0  0  0
   52.6964   99.5203   28.7276 H   0  0  0  0  0  0  0  0  0  0  0  0
   51.8978   98.6263   29.8365 H   0  0  0  0  0  0  0  0  0  0  0  0
   51.1534  101.0243   29.0270 H   0  0  0  0  0  0  0  0  0  0  0  0
   49.7760  100.3659   29.6067 H   0  0  0  0  0  0  0  0  0  0  0  0
   49.2097  102.1690   28.2294 H   0  0  0  0  0  0  0  0  0  0  0  0
   48.7270  100.7926   27.4949 H   0  0  0  0  0  0  0  0  0  0  0  0
   52.1265  100.8679   26.7863 H   0  0  0  0  0  0  0  0  0  0  0  0
   51.3994  100.6346   25.3429 H   0  0  0  0  0  0  0  0  0  0  0  0
   49.8969   99.0876   26.4073 H   0  0  0  0  0  0  0  0  0  0  0  0
   51.4501   98.5857   26.4547 H   0  0  0  0  0  0  0  0  0  0  0  0
   50.0389   98.5251   28.5095 H   0  0  0  0  0  0  0  0  0  0  0  0
  1  2  2  0  0  0  0
  1  3  1  0  0  0  0
  1 14  1  0  0  0  0
  3  4  1  0  0  0  0
  4  5  2  0  0  0  0
  4 13  1  0  0  0  0
  5  6  1  0  0  0  0
  5  8  1  0  0  0  0
  6  7  2  0  0  0  0
  6 11  1  0  0  0  0
  7 12  1  0  0  0  0
  7 31  1  0  0  0  0
  8  9  2  0  0  0  0
  9 10  1  0  0  0  0
 10 11  2  0  0  0  0
 12 13  2  0  0  0  0
 14 15  1  0  0  0  0
 15 16  2  0  0  0  0
 15 19  1  0  0  0  0
 16 17  1  0  0  0  0
 17 18  2  0  0  0  0
 17 24  1  0  0  0  0
 18 19  1  0  0  0  0
 19 20  1  0  0  0  0
 20 25  2  0  0  0  0
 20 29  1  0  0  0  0
 21 24  1  0  0  0  0
 22 24  1  0  0  0  0
 23 24  1  0  0  0  0
 25 26  1  0  0  0  0
 26 27  2  0  0  0  0
 27 28  1  0  0  0  0
 27 30  1  0  0  0  0
 28 29  2  0  0  0  0
 31 32  1  0  0  0  0
 32 33  1  0  0  0  0
 33 34  1  0  0  0  0
 34 35  1  0  0  0  0
 34 39  1  0  0  0  0
 35 36  1  0  0  0  0
 36 37  1  0  0  0  0
 37 38  1  0  0  0  0
 38 39  1  0  0  0  0
  3 40  1  0  0  0  0
  8 41  1  0  0  0  0
  9 42  1  0  0  0  0
 10 43  1  0  0  0  0
 11 44  1  0  0  0  0
 12 45  1  0  0  0  0
 13 46  1  0  0  0  0
 14 47  1  0  0  0  0
 16 48  1  0  0  0  0
 21 49  1  0  0  0  0
 21 50  1  0  0  0  0
 21 51  1  0  0  0  0
 22 52  1  0  0  0  0
 22 53  1  0  0  0  0
 22 54  1  0  0  0  0
 23 55  1  0  0  0  0
 23 56  1  0  0  0  0
 23 57  1  0  0  0  0
 25 58  1  0  0  0  0
 26 59  1  0  0  0  0
 28 60  1  0  0  0  0
 29 61  1  0  0  0  0
 30 62  1  0  0  0  0
 30 63  1  0  0  0  0
 30 64  1  0  0  0  0
 32 65  1  0  0  0  0
 32 66  1  0  0  0  0
 33 67  1  0  0  0  0
 33 68  1  0  0  0  0
 35 69  1  0  0  0  0
 35 70  1  0  0  0  0
 36 71  1  0  0  0  0
 36 72  1  0  0  0  0
 38 73  1  0  0  0  0
 38 74  1  0  0  0  0
 39 75  1  0  0  0  0
 39 76  1  0  0  0  0
 34 77  1  0  0  0  0
M  CHG  1  34   1
M  END
> <BIOSOLVEIT.HYDE_ESTIMATED_AFFINITY_LOWER_BOUNDARY [nM]>
0.000225

> <BIOSOLVEIT.HYDE_ESTIMATED_AFFINITY_UPPER_BOUNDARY [nM]>
0.022362

> <BIOSOLVEIT.HYDE_LIGAND_EFFICIENCY range: ++, +, 0, -, -->
+

> <BIOSOLVEIT.HYDE_LIGAND_LIPOPHILIC_EFFICIENCY range: ++, +, 0, -, -->
++

> <BIOSOLVEIT.LOGP>
4.56932

> <BIOSOLVEIT.MOLECULAR WEIGHT>
528.673

> <BIOSOLVEIT.MOLECULE_CHECKSUM>
LTY2LjQ5MzE7MS43MDQ5NQ==

> <BIOSOLVEIT.TPSA>
81.85

> <OPTIBRIUM.BBB category>
-

> <OPTIBRIUM.PPB90 category>
high

> <OPTIBRIUM.2C9 pKi>
5.93295

> <OPTIBRIUM.logS @ pH7.4>
1.34117

> <OPTIBRIUM.BBB log([brain]:[blood])>
-0.17445

> <OPTIBRIUM.2D6 affinity category>
medium

> <OPTIBRIUM.logS>
0.321773

> <OPTIBRIUM.logD>
4.19103

> <OPTIBRIUM.hERG pIC50>
7.08667

> <OPTIBRIUM.logP>
5.11964

> <OPTIBRIUM.HIA category>
+

> <OPTIBRIUM.P-gp category>
yes

$$$$
B96_B_365_1_004
joSeeSAR  03092211513D 1   1.00000     0.00000     0
SeeSAR 11.2.2 jonathanwahrer
 77 81  0  0  0  0            999 V2000
   55.0573   93.1164   23.4304 C   0  0  0  0  0  0  0  0  0  0  0  0
   53.9063   93.4888   23.2578 O   0  0  0  0  0  0  0  0  0  0  0  0
   55.8445   93.6894   24.3846 N   0  0  0  0  0  0  0  0  0  0  0  0
   55.4160   94.7280   25.2295 C   0  0  0  0  0  0  0  0  0  0  0  0
   56.1441   95.9040   25.3992 C   0  0  0  0  0  0  0  0  0  0  0  0
   55.6693   96.8994   26.2520 C   0  0  0  0  0  0  0  0  0  0  0  0
   54.4669   96.7231   26.9359 C   0  0  0  0  0  0  0  0  0  0  0  0
   57.3486   96.1085   24.7289 C   0  0  0  0  0  0  0  0  0  0  0  0
   58.0907   97.2747   24.8847 C   0  0  0  0  0  0  0  0  0  0  0  0
   57.6162   98.2673   25.7354 C   0  0  0  0  0  0  0  0  0  0  0  0
   56.4142   98.0662   26.4056 C   0  0  0  0  0  0  0  0  0  0  0  0
   53.7417   95.5483   26.7632 C   0  0  0  0  0  0  0  0  0  0  0  0
   54.2175   94.5561   25.9134 C   0  0  0  0  0  0  0  0  0  0  0  0
   55.5983   92.1333   22.6762 N   0  0  0  0  0  0  0  0  0  0  0  0
   54.9357   91.4528   21.6517 C   0  0  0  0  0  0  0  0  0  0  0  0
   54.1903   92.0223   20.6684 C   0  0  0  0  0  0  0  0  0  0  0  0
   53.7383   90.9378   19.8881 C   0  0  0  0  0  0  0  0  0  0  0  0
   54.1992   89.8242   20.4064 N   0  0  0  0  0  0  0  0  0  0  0  0
   54.9223   90.1050   21.4641 N   0  0  0  0  0  0  0  0  0  0  0  0
   55.5758   89.1664   22.2727 C   0  0  0  0  0  0  0  0  0  0  0  0
   52.5071   89.6172   18.2229 C   0  0  0  0  0  0  0  0  0  0  0  0
   51.5563   91.7940   18.9543 C   0  0  0  0  0  0  0  0  0  0  0  0
   53.5982   91.7936   17.5441 C   0  0  0  0  0  0  0  0  0  0  0  0
   52.8586   91.0417   18.6526 C   0  0  0  0  0  0  0  0  0  0  0  0
   56.3137   88.1483   21.6774 C   0  0  0  0  0  0  0  0  0  0  0  0
   56.9671   87.2093   22.4683 C   0  0  0  0  0  0  0  0  0  0  0  0
   56.8723   87.3042   23.8523 C   0  0  0  0  0  0  0  0  0  0  0  0
   56.1360   88.3206   24.4524 C   0  0  0  0  0  0  0  0  0  0  0  0
   55.4835   89.2578   23.6579 C   0  0  0  0  0  0  0  0  0  0  0  0
   57.5827   86.2854   24.7283 C   0  0  0  0  0  0  0  0  0  0  0  0
   53.9632   97.6570   27.7733 O   0  0  0  0  0  0  0  0  0  0  0  0
   52.6620   97.3585   28.2852 C   0  0  0  0  0  0  0  0  0  0  0  0
   52.1714   98.5877   29.0637 C   0  0  0  0  0  0  0  0  0  0  0  0
   51.2668   99.4250   28.2348 N   0  3  0  0  0  0  0  0  0  0  0  0
   51.8944   99.7842   26.9546 C   0  0  0  0  0  0  0  0  0  0  0  0
   50.9524  100.6477   26.1307 C   0  0  0  0  0  0  0  0  0  0  0  0
   50.5899  101.8159   26.8537 O   0  0  0  0  0  0  0  0  0  0  0  0
   49.9727  101.5106   28.0963 C   0  0  0  0  0  0  0  0  0  0  0  0
   50.8986  100.6567   28.9486 C   0  0  0  0  0  0  0  0  0  0  0  0
   56.7799   93.3517   24.4895 H   0  0  0  0  0  0  0  0  0  0  0  0
   57.6900   95.3950   24.1171 H   0  0  0  0  0  0  0  0  0  0  0  0
   58.9525   97.3974   24.3924 H   0  0  0  0  0  0  0  0  0  0  0  0
   58.1323   99.1143   25.8634 H   0  0  0  0  0  0  0  0  0  0  0  0
   56.0744   98.7811   27.0166 H   0  0  0  0  0  0  0  0  0  0  0  0
   52.8782   95.4176   27.2504 H   0  0  0  0  0  0  0  0  0  0  0  0
   53.6939   93.7126   25.7931 H   0  0  0  0  0  0  0  0  0  0  0  0
   56.5452   91.8734   22.8661 H   0  0  0  0  0  0  0  0  0  0  0  0
   54.0037   92.9949   20.5289 H   0  0  0  0  0  0  0  0  0  0  0  0
   51.9266   89.6482   17.4092 H   0  0  0  0  0  0  0  0  0  0  0  0
   53.3466   89.1153   18.0144 H   0  0  0  0  0  0  0  0  0  0  0  0
   52.0185   89.1565   18.9637 H   0  0  0  0  0  0  0  0  0  0  0  0
   51.0010   91.8453   18.1242 H   0  0  0  0  0  0  0  0  0  0  0  0
   51.0480   91.3087   19.6657 H   0  0  0  0  0  0  0  0  0  0  0  0
   51.7707   92.7185   19.2696 H   0  0  0  0  0  0  0  0  0  0  0  0
   53.0125   91.8571   16.7361 H   0  0  0  0  0  0  0  0  0  0  0  0
   53.8288   92.7134   17.8617 H   0  0  0  0  0  0  0  0  0  0  0  0
   54.4369   91.3019   17.3100 H   0  0  0  0  0  0  0  0  0  0  0  0
   56.3744   88.0917   20.6808 H   0  0  0  0  0  0  0  0  0  0  0  0
   57.4987   86.4746   22.0468 H   0  0  0  0  0  0  0  0  0  0  0  0
   56.0762   88.3774   25.4490 H   0  0  0  0  0  0  0  0  0  0  0  0
   54.9516   89.9922   24.0795 H   0  0  0  0  0  0  0  0  0  0  0  0
   57.4128   86.4970   25.6907 H   0  0  0  0  0  0  0  0  0  0  0  0
   57.2370   85.3699   24.5222 H   0  0  0  0  0  0  0  0  0  0  0  0
   58.5658   86.3187   24.5481 H   0  0  0  0  0  0  0  0  0  0  0  0
   52.7092   96.5666   28.8940 H   0  0  0  0  0  0  0  0  0  0  0  0
   52.0363   97.1617   27.5303 H   0  0  0  0  0  0  0  0  0  0  0  0
   52.9614   99.1356   29.3391 H   0  0  0  0  0  0  0  0  0  0  0  0
   51.6776   98.2822   29.8778 H   0  0  0  0  0  0  0  0  0  0  0  0
   52.1076   98.9501   26.4458 H   0  0  0  0  0  0  0  0  0  0  0  0
   52.7379  100.2916   27.1312 H   0  0  0  0  0  0  0  0  0  0  0  0
   50.1279  100.1239   25.9166 H   0  0  0  0  0  0  0  0  0  0  0  0
   51.4079  100.9142   25.2813 H   0  0  0  0  0  0  0  0  0  0  0  0
   49.1233  101.0101   27.9288 H   0  0  0  0  0  0  0  0  0  0  0  0
   49.7685  102.3610   28.5812 H   0  0  0  0  0  0  0  0  0  0  0  0
   51.7271  101.1767   29.1564 H   0  0  0  0  0  0  0  0  0  0  0  0
   50.4332  100.4166   29.8005 H   0  0  0  0  0  0  0  0  0  0  0  0
   50.4341   98.9044   28.0467 H   0  0  0  0  0  0  0  0  0  0  0  0
  1  2  2  0  0  0  0
  1  3  1  0  0  0  0
  1 14  1  0  0  0  0
  3  4  1  0  0  0  0
  4  5  2  0  0  0  0
  4 13  1  0  0  0  0
  5  6  1  0  0  0  0
  5  8  1  0  0  0  0
  6  7  2  0  0  0  0
  6 11  1  0  0  0  0
  7 12  1  0  0  0  0
  7 31  1  0  0  0  0
  8  9  2  0  0  0  0
  9 10  1  0  0  0  0
 10 11  2  0  0  0  0
 12 13  2  0  0  0  0
 14 15  1  0  0  0  0
 15 16  2  0  0  0  0
 15 19  1  0  0  0  0
 16 17  1  0  0  0  0
 17 18  2  0  0  0  0
 17 24  1  0  0  0  0
 18 19  1  0  0  0  0
 19 20  1  0  0  0  0
 20 25  2  0  0  0  0
 20 29  1  0  0  0  0
 21 24  1  0  0  0  0
 22 24  1  0  0  0  0
 23 24  1  0  0  0  0
 25 26  1  0  0  0  0
 26 27  2  0  0  0  0
 27 28  1  0  0  0  0
 27 30  1  0  0  0  0
 28 29  2  0  0  0  0
 31 32  1  0  0  0  0
 32 33  1  0  0  0  0
 33 34  1  0  0  0  0
 34 35  1  0  0  0  0
 34 39  1  0  0  0  0
 35 36  1  0  0  0  0
 36 37  1  0  0  0  0
 37 38  1  0  0  0  0
 38 39  1  0  0  0  0
  3 40  1  0  0  0  0
  8 41  1  0  0  0  0
  9 42  1  0  0  0  0
 10 43  1  0  0  0  0
 11 44  1  0  0  0  0
 12 45  1  0  0  0  0
 13 46  1  0  0  0  0
 14 47  1  0  0  0  0
 16 48  1  0  0  0  0
 21 49  1  0  0  0  0
 21 50  1  0  0  0  0
 21 51  1  0  0  0  0
 22 52  1  0  0  0  0
 22 53  1  0  0  0  0
 22 54  1  0  0  0  0
 23 55  1  0  0  0  0
 23 56  1  0  0  0  0
 23 57  1  0  0  0  0
 25 58  1  0  0  0  0
 26 59  1  0  0  0  0
 28 60  1  0  0  0  0
 29 61  1  0  0  0  0
 30 62  1  0  0  0  0
 30 63  1  0  0  0  0
 30 64  1  0  0  0  0
 32 65  1  0  0  0  0
 32 66  1  0  0  0  0
 33 67  1  0  0  0  0
 33 68  1  0  0  0  0
 35 69  1  0  0  0  0
 35 70  1  0  0  0  0
 36 71  1  0  0  0  0
 36 72  1  0  0  0  0
 38 73  1  0  0  0  0
 38 74  1  0  0  0  0
 39 75  1  0  0  0  0
 39 76  1  0  0  0  0
 34 77  1  0  0  0  0
M  CHG  1  34   1
M  END
> <BIOSOLVEIT.HYDE_ESTIMATED_AFFINITY_LOWER_BOUNDARY [nM]>
0.000581

> <BIOSOLVEIT.HYDE_ESTIMATED_AFFINITY_UPPER_BOUNDARY [nM]>
0.057767

> <BIOSOLVEIT.HYDE_LIGAND_EFFICIENCY range: ++, +, 0, -, -->
0

> <BIOSOLVEIT.HYDE_LIGAND_LIPOPHILIC_EFFICIENCY range: ++, +, 0, -, -->
++

> <BIOSOLVEIT.LOGP>
4.56932

> <BIOSOLVEIT.MOLECULAR WEIGHT>
528.673

> <BIOSOLVEIT.MOLECULE_CHECKSUM>
LTY0LjE0MDQ7MS42NDQ2Mw==

> <BIOSOLVEIT.TPSA>
81.85

> <OPTIBRIUM.BBB category>
-

> <OPTIBRIUM.PPB90 category>
high

> <OPTIBRIUM.2C9 pKi>
5.93295

> <OPTIBRIUM.logS @ pH7.4>
1.34117

> <OPTIBRIUM.BBB log([brain]:[blood])>
-0.17445

> <OPTIBRIUM.2D6 affinity category>
medium

> <OPTIBRIUM.logS>
0.321773

> <OPTIBRIUM.logD>
4.19103

> <OPTIBRIUM.hERG pIC50>
7.08667

> <OPTIBRIUM.logP>
5.11964

> <OPTIBRIUM.HIA category>
+

> <OPTIBRIUM.P-gp category>
yes

$$$$
B96_B_365_1_003
joSeeSAR  03092211513D 1   1.00000     0.00000     0
SeeSAR 11.2.2 jonathanwahrer
 77 81  0  0  0  0            999 V2000
   55.0573   93.1164   23.4304 C   0  0  0  0  0  0  0  0  0  0  0  0
   53.9061   93.4885   23.2581 O   0  0  0  0  0  0  0  0  0  0  0  0
   55.8443   93.6893   24.3847 N   0  0  0  0  0  0  0  0  0  0  0  0
   55.4155   94.7275   25.2301 C   0  0  0  0  0  0  0  0  0  0  0  0
   56.1432   95.9036   25.4003 C   0  0  0  0  0  0  0  0  0  0  0  0
   55.6681   96.8986   26.2535 C   0  0  0  0  0  0  0  0  0  0  0  0
   54.4657   96.7218   26.9372 C   0  0  0  0  0  0  0  0  0  0  0  0
   57.3478   96.1088   24.7302 C   0  0  0  0  0  0  0  0  0  0  0  0
   58.0896   97.2750   24.8865 C   0  0  0  0  0  0  0  0  0  0  0  0
   57.6148   98.2672   25.7376 C   0  0  0  0  0  0  0  0  0  0  0  0
   56.4127   98.0654   26.4077 C   0  0  0  0  0  0  0  0  0  0  0  0
   53.7408   95.5468   26.7640 C   0  0  0  0  0  0  0  0  0  0  0  0
   54.2169   94.5550   25.9138 C   0  0  0  0  0  0  0  0  0  0  0  0
   55.5985   92.1338   22.6757 N   0  0  0  0  0  0  0  0  0  0  0  0
   54.9360   91.4535   21.6512 C   0  0  0  0  0  0  0  0  0  0  0  0
   54.1908   92.0230   20.6678 C   0  0  0  0  0  0  0  0  0  0  0  0
   53.7389   90.9386   19.8873 C   0  0  0  0  0  0  0  0  0  0  0  0
   54.1998   89.8249   20.4056 N   0  0  0  0  0  0  0  0  0  0  0  0
   54.9227   90.1057   21.4635 N   0  0  0  0  0  0  0  0  0  0  0  0
   55.5760   89.1670   22.2722 C   0  0  0  0  0  0  0  0  0  0  0  0
   52.5085   89.6181   18.2215 C   0  0  0  0  0  0  0  0  0  0  0  0
   51.5568   91.7943   18.9534 C   0  0  0  0  0  0  0  0  0  0  0  0
   53.5989   91.7950   17.5436 C   0  0  0  0  0  0  0  0  0  0  0  0
   52.8593   91.0425   18.6518 C   0  0  0  0  0  0  0  0  0  0  0  0
   56.3140   88.1488   21.6768 C   0  0  0  0  0  0  0  0  0  0  0  0
   56.9672   87.2097   22.4678 C   0  0  0  0  0  0  0  0  0  0  0  0
   56.8724   87.3047   23.8517 C   0  0  0  0  0  0  0  0  0  0  0  0
   56.1361   88.3212   24.4518 C   0  0  0  0  0  0  0  0  0  0  0  0
   55.4837   89.2583   23.6573 C   0  0  0  0  0  0  0  0  0  0  0  0
   57.5827   86.2857   24.7277 C   0  0  0  0  0  0  0  0  0  0  0  0
   53.9618   97.6551   27.7749 O   0  0  0  0  0  0  0  0  0  0  0  0
   52.6583   97.3585   28.2824 C   0  0  0  0  0  0  0  0  0  0  0  0
   52.1691   98.5867   29.0637 C   0  0  0  0  0  0  0  0  0  0  0  0
   51.2752   99.4332   28.2325 N   0  3  0  0  0  0  0  0  0  0  0  0
   50.9128  100.6620   28.9541 C   0  0  0  0  0  0  0  0  0  0  0  0
   49.9840  101.5126   28.1021 C   0  0  0  0  0  0  0  0  0  0  0  0
   50.5942  101.8183   26.8562 O   0  0  0  0  0  0  0  0  0  0  0  0
   50.9543  100.6474   26.1360 C   0  0  0  0  0  0  0  0  0  0  0  0
   51.9036   99.7795   26.9481 C   0  0  0  0  0  0  0  0  0  0  0  0
   56.7798   93.3520   24.4894 H   0  0  0  0  0  0  0  0  0  0  0  0
   57.6893   95.3955   24.1181 H   0  0  0  0  0  0  0  0  0  0  0  0
   58.9513   97.3982   24.3944 H   0  0  0  0  0  0  0  0  0  0  0  0
   58.1306   99.1142   25.8661 H   0  0  0  0  0  0  0  0  0  0  0  0
   56.0727   98.7801   27.0189 H   0  0  0  0  0  0  0  0  0  0  0  0
   52.8773   95.4156   27.2510 H   0  0  0  0  0  0  0  0  0  0  0  0
   53.6936   93.7115   25.7931 H   0  0  0  0  0  0  0  0  0  0  0  0
   56.5455   91.8742   22.8655 H   0  0  0  0  0  0  0  0  0  0  0  0
   54.0042   92.9955   20.5284 H   0  0  0  0  0  0  0  0  0  0  0  0
   51.9279   89.6490   17.4078 H   0  0  0  0  0  0  0  0  0  0  0  0
   53.3481   89.1164   18.0131 H   0  0  0  0  0  0  0  0  0  0  0  0
   52.0198   89.1569   18.9621 H   0  0  0  0  0  0  0  0  0  0  0  0
   51.0016   91.8457   18.1233 H   0  0  0  0  0  0  0  0  0  0  0  0
   51.0486   91.3085   19.6647 H   0  0  0  0  0  0  0  0  0  0  0  0
   51.7709   92.7187   19.2691 H   0  0  0  0  0  0  0  0  0  0  0  0
   53.0133   91.8585   16.7355 H   0  0  0  0  0  0  0  0  0  0  0  0
   53.8291   92.7148   17.8615 H   0  0  0  0  0  0  0  0  0  0  0  0
   54.4378   91.3035   17.3095 H   0  0  0  0  0  0  0  0  0  0  0  0
   56.3746   88.0923   20.6802 H   0  0  0  0  0  0  0  0  0  0  0  0
   57.4988   86.4751   22.0462 H   0  0  0  0  0  0  0  0  0  0  0  0
   56.0763   88.3778   25.4484 H   0  0  0  0  0  0  0  0  0  0  0  0
   54.9519   89.9928   24.0788 H   0  0  0  0  0  0  0  0  0  0  0  0
   57.4128   86.4974   25.6902 H   0  0  0  0  0  0  0  0  0  0  0  0
   57.2369   85.3703   24.5216 H   0  0  0  0  0  0  0  0  0  0  0  0
   58.5658   86.3190   24.5476 H   0  0  0  0  0  0  0  0  0  0  0  0
   52.7018   96.5646   28.8889 H   0  0  0  0  0  0  0  0  0  0  0  0
   52.0341   97.1659   27.5254 H   0  0  0  0  0  0  0  0  0  0  0  0
   52.9601   99.1287   29.3474 H   0  0  0  0  0  0  0  0  0  0  0  0
   51.6677   98.2798   29.8726 H   0  0  0  0  0  0  0  0  0  0  0  0
   51.7420  101.1818   29.1596 H   0  0  0  0  0  0  0  0  0  0  0  0
   50.4507  100.4206   29.8074 H   0  0  0  0  0  0  0  0  0  0  0  0
   49.7799  102.3634   28.5862 H   0  0  0  0  0  0  0  0  0  0  0  0
   49.1350  101.0102   27.9384 H   0  0  0  0  0  0  0  0  0  0  0  0
   51.4030  100.9130   25.2827 H   0  0  0  0  0  0  0  0  0  0  0  0
   50.1281  100.1234   25.9291 H   0  0  0  0  0  0  0  0  0  0  0  0
   52.1069   98.9424   26.4402 H   0  0  0  0  0  0  0  0  0  0  0  0
   52.7520  100.2813   27.1168 H   0  0  0  0  0  0  0  0  0  0  0  0
   50.4383   98.9190   28.0454 H   0  0  0  0  0  0  0  0  0  0  0  0
  1  2  2  0  0  0  0
  1  3  1  0  0  0  0
  1 14  1  0  0  0  0
  3  4  1  0  0  0  0
  4  5  2  0  0  0  0
  4 13  1  0  0  0  0
  5  6  1  0  0  0  0
  5  8  1  0  0  0  0
  6  7  2  0  0  0  0
  6 11  1  0  0  0  0
  7 12  1  0  0  0  0
  7 31  1  0  0  0  0
  8  9  2  0  0  0  0
  9 10  1  0  0  0  0
 10 11  2  0  0  0  0
 12 13  2  0  0  0  0
 14 15  1  0  0  0  0
 15 16  2  0  0  0  0
 15 19  1  0  0  0  0
 16 17  1  0  0  0  0
 17 18  2  0  0  0  0
 17 24  1  0  0  0  0
 18 19  1  0  0  0  0
 19 20  1  0  0  0  0
 20 25  2  0  0  0  0
 20 29  1  0  0  0  0
 21 24  1  0  0  0  0
 22 24  1  0  0  0  0
 23 24  1  0  0  0  0
 25 26  1  0  0  0  0
 26 27  2  0  0  0  0
 27 28  1  0  0  0  0
 27 30  1  0  0  0  0
 28 29  2  0  0  0  0
 31 32  1  0  0  0  0
 32 33  1  0  0  0  0
 33 34  1  0  0  0  0
 34 35  1  0  0  0  0
 34 39  1  0  0  0  0
 35 36  1  0  0  0  0
 36 37  1  0  0  0  0
 37 38  1  0  0  0  0
 38 39  1  0  0  0  0
  3 40  1  0  0  0  0
  8 41  1  0  0  0  0
  9 42  1  0  0  0  0
 10 43  1  0  0  0  0
 11 44  1  0  0  0  0
 12 45  1  0  0  0  0
 13 46  1  0  0  0  0
 14 47  1  0  0  0  0
 16 48  1  0  0  0  0
 21 49  1  0  0  0  0
 21 50  1  0  0  0  0
 21 51  1  0  0  0  0
 22 52  1  0  0  0  0
 22 53  1  0  0  0  0
 22 54  1  0  0  0  0
 23 55  1  0  0  0  0
 23 56  1  0  0  0  0
 23 57  1  0  0  0  0
 25 58  1  0  0  0  0
 26 59  1  0  0  0  0
 28 60  1  0  0  0  0
 29 61  1  0  0  0  0
 30 62  1  0  0  0  0
 30 63  1  0  0  0  0
 30 64  1  0  0  0  0
 32 65  1  0  0  0  0
 32 66  1  0  0  0  0
 33 67  1  0  0  0  0
 33 68  1  0  0  0  0
 35 69  1  0  0  0  0
 35 70  1  0  0  0  0
 36 71  1  0  0  0  0
 36 72  1  0  0  0  0
 38 73  1  0  0  0  0
 38 74  1  0  0  0  0
 39 75  1  0  0  0  0
 39 76  1  0  0  0  0
 34 77  1  0  0  0  0
M  CHG  1  34   1
M  END
> <BIOSOLVEIT.HYDE_ESTIMATED_AFFINITY_LOWER_BOUNDARY [nM]>
0.000583

> <BIOSOLVEIT.HYDE_ESTIMATED_AFFINITY_UPPER_BOUNDARY [nM]>
0.057880

> <BIOSOLVEIT.HYDE_LIGAND_EFFICIENCY range: ++, +, 0, -, -->
0

> <BIOSOLVEIT.HYDE_LIGAND_LIPOPHILIC_EFFICIENCY range: ++, +, 0, -, -->
++

> <BIOSOLVEIT.LOGP>
4.56932

> <BIOSOLVEIT.MOLECULAR WEIGHT>
528.673

> <BIOSOLVEIT.MOLECULE_CHECKSUM>
LTY0LjEzNTY7MS42NDQ1

> <BIOSOLVEIT.TPSA>
81.85

> <OPTIBRIUM.BBB category>
-

> <OPTIBRIUM.PPB90 category>
high

> <OPTIBRIUM.2C9 pKi>
5.93295

> <OPTIBRIUM.logS @ pH7.4>
1.34117

> <OPTIBRIUM.BBB log([brain]:[blood])>
-0.17445

> <OPTIBRIUM.2D6 affinity category>
medium

> <OPTIBRIUM.logS>
0.321773

> <OPTIBRIUM.logD>
4.19103

> <OPTIBRIUM.hERG pIC50>
7.08667

> <OPTIBRIUM.logP>
5.11964

> <OPTIBRIUM.HIA category>
+

> <OPTIBRIUM.P-gp category>
yes

$$$$
B96_B_365_1_001
joSeeSAR  03092211513D 1   1.00000     0.00000     0
SeeSAR 11.2.2 jonathanwahrer
 77 81  0  0  0  0            999 V2000
   55.0572   93.1161   23.4309 C   0  0  0  0  0  0  0  0  0  0  0  0
   53.9064   93.4889   23.2580 O   0  0  0  0  0  0  0  0  0  0  0  0
   55.8444   93.6889   24.3852 N   0  0  0  0  0  0  0  0  0  0  0  0
   55.4160   94.7277   25.2299 C   0  0  0  0  0  0  0  0  0  0  0  0
   56.1440   95.9038   25.3992 C   0  0  0  0  0  0  0  0  0  0  0  0
   55.6695   96.8994   26.2519 C   0  0  0  0  0  0  0  0  0  0  0  0
   54.4671   96.7233   26.9359 C   0  0  0  0  0  0  0  0  0  0  0  0
   57.3486   96.1081   24.7288 C   0  0  0  0  0  0  0  0  0  0  0  0
   58.0908   97.2743   24.8843 C   0  0  0  0  0  0  0  0  0  0  0  0
   57.6164   98.2671   25.7349 C   0  0  0  0  0  0  0  0  0  0  0  0
   56.4143   98.0661   26.4052 C   0  0  0  0  0  0  0  0  0  0  0  0
   53.7418   95.5485   26.7636 C   0  0  0  0  0  0  0  0  0  0  0  0
   54.2175   94.5561   25.9139 C   0  0  0  0  0  0  0  0  0  0  0  0
   55.5982   92.1327   22.6768 N   0  0  0  0  0  0  0  0  0  0  0  0
   54.9354   91.4524   21.6522 C   0  0  0  0  0  0  0  0  0  0  0  0
   54.1901   92.0220   20.6690 C   0  0  0  0  0  0  0  0  0  0  0  0
   53.7381   90.9376   19.8886 C   0  0  0  0  0  0  0  0  0  0  0  0
   54.1991   89.8239   20.4068 N   0  0  0  0  0  0  0  0  0  0  0  0
   54.9222   90.1046   21.4646 N   0  0  0  0  0  0  0  0  0  0  0  0
   55.5756   89.1660   22.2731 C   0  0  0  0  0  0  0  0  0  0  0  0
   52.5069   89.6171   18.2232 C   0  0  0  0  0  0  0  0  0  0  0  0
   51.5561   91.7938   18.9550 C   0  0  0  0  0  0  0  0  0  0  0  0
   53.5981   91.7936   17.5447 C   0  0  0  0  0  0  0  0  0  0  0  0
   52.8583   91.0415   18.6532 C   0  0  0  0  0  0  0  0  0  0  0  0
   56.3132   88.1476   21.6776 C   0  0  0  0  0  0  0  0  0  0  0  0
   56.9666   87.2086   22.4684 C   0  0  0  0  0  0  0  0  0  0  0  0
   56.8722   87.3038   23.8524 C   0  0  0  0  0  0  0  0  0  0  0  0
   56.1363   88.3204   24.4527 C   0  0  0  0  0  0  0  0  0  0  0  0
   55.4838   89.2575   23.6582 C   0  0  0  0  0  0  0  0  0  0  0  0
   57.5827   86.2847   24.7283 C   0  0  0  0  0  0  0  0  0  0  0  0
   53.9636   97.6574   27.7732 O   0  0  0  0  0  0  0  0  0  0  0  0
   52.6628   97.3583   28.2861 C   0  0  0  0  0  0  0  0  0  0  0  0
   52.1719   98.5881   29.0639 C   0  0  0  0  0  0  0  0  0  0  0  0
   51.2676   99.4249   28.2343 N   0  3  0  0  0  0  0  0  0  0  0  0
   51.8964   99.7851   26.9548 C   0  0  0  0  0  0  0  0  0  0  0  0
   50.9546  100.6481   26.1302 C   0  0  0  0  0  0  0  0  0  0  0  0
   50.5903  101.8158   26.8532 O   0  0  0  0  0  0  0  0  0  0  0  0
   49.9719  101.5094   28.0950 C   0  0  0  0  0  0  0  0  0  0  0  0
   50.8975  100.6560   28.9480 C   0  0  0  0  0  0  0  0  0  0  0  0
   56.7796   93.3510   24.4902 H   0  0  0  0  0  0  0  0  0  0  0  0
   57.6899   95.3944   24.1172 H   0  0  0  0  0  0  0  0  0  0  0  0
   58.9525   97.3968   24.3919 H   0  0  0  0  0  0  0  0  0  0  0  0
   58.1325   99.1141   25.8627 H   0  0  0  0  0  0  0  0  0  0  0  0
   56.0747   98.7813   27.0160 H   0  0  0  0  0  0  0  0  0  0  0  0
   52.8783   95.4179   27.2508 H   0  0  0  0  0  0  0  0  0  0  0  0
   53.6939   93.7126   25.7937 H   0  0  0  0  0  0  0  0  0  0  0  0
   56.5448   91.8725   22.8670 H   0  0  0  0  0  0  0  0  0  0  0  0
   54.0034   92.9945   20.5297 H   0  0  0  0  0  0  0  0  0  0  0  0
   51.9264   89.6481   17.4097 H   0  0  0  0  0  0  0  0  0  0  0  0
   53.3464   89.1152   18.0148 H   0  0  0  0  0  0  0  0  0  0  0  0
   52.0182   89.1563   18.9641 H   0  0  0  0  0  0  0  0  0  0  0  0
   51.0008   91.8452   18.1248 H   0  0  0  0  0  0  0  0  0  0  0  0
   51.0479   91.3084   19.6664 H   0  0  0  0  0  0  0  0  0  0  0  0
   51.7705   92.7182   19.2704 H   0  0  0  0  0  0  0  0  0  0  0  0
   53.0122   91.8571   16.7367 H   0  0  0  0  0  0  0  0  0  0  0  0
   53.8286   92.7133   17.8624 H   0  0  0  0  0  0  0  0  0  0  0  0
   54.4367   91.3018   17.3106 H   0  0  0  0  0  0  0  0  0  0  0  0
   56.3735   88.0910   20.6810 H   0  0  0  0  0  0  0  0  0  0  0  0
   57.4979   86.4737   22.0468 H   0  0  0  0  0  0  0  0  0  0  0  0
   56.0767   88.3771   25.4493 H   0  0  0  0  0  0  0  0  0  0  0  0
   54.9522   89.9920   24.0799 H   0  0  0  0  0  0  0  0  0  0  0  0
   57.4131   86.4966   25.6908 H   0  0  0  0  0  0  0  0  0  0  0  0
   57.2367   85.3693   24.5224 H   0  0  0  0  0  0  0  0  0  0  0  0
   58.5657   86.3179   24.5479 H   0  0  0  0  0  0  0  0  0  0  0  0
   52.7110   96.5670   28.8957 H   0  0  0  0  0  0  0  0  0  0  0  0
   52.0367   97.1605   27.5318 H   0  0  0  0  0  0  0  0  0  0  0  0
   52.9617   99.1361   29.3393 H   0  0  0  0  0  0  0  0  0  0  0  0
   51.6778   98.2829   29.8780 H   0  0  0  0  0  0  0  0  0  0  0  0
   52.1108   98.9513   26.4460 H   0  0  0  0  0  0  0  0  0  0  0  0
   52.7392  100.2931   27.1326 H   0  0  0  0  0  0  0  0  0  0  0  0
   50.1308  100.1237   25.9150 H   0  0  0  0  0  0  0  0  0  0  0  0
   51.4110  100.9154   25.2815 H   0  0  0  0  0  0  0  0  0  0  0  0
   49.1231  101.0083   27.9263 H   0  0  0  0  0  0  0  0  0  0  0  0
   49.7665  102.3595   28.5800 H   0  0  0  0  0  0  0  0  0  0  0  0
   51.7253  101.1766   29.1571 H   0  0  0  0  0  0  0  0  0  0  0  0
   50.4312  100.4152   29.7993 H   0  0  0  0  0  0  0  0  0  0  0  0
   50.4354   98.9038   28.0449 H   0  0  0  0  0  0  0  0  0  0  0  0
  1  2  2  0  0  0  0
  1  3  1  0  0  0  0
  1 14  1  0  0  0  0
  3  4  1  0  0  0  0
  4  5  2  0  0  0  0
  4 13  1  0  0  0  0
  5  6  1  0  0  0  0
  5  8  1  0  0  0  0
  6  7  2  0  0  0  0
  6 11  1  0  0  0  0
  7 12  1  0  0  0  0
  7 31  1  0  0  0  0
  8  9  2  0  0  0  0
  9 10  1  0  0  0  0
 10 11  2  0  0  0  0
 12 13  2  0  0  0  0
 14 15  1  0  0  0  0
 15 16  2  0  0  0  0
 15 19  1  0  0  0  0
 16 17  1  0  0  0  0
 17 18  2  0  0  0  0
 17 24  1  0  0  0  0
 18 19  1  0  0  0  0
 19 20  1  0  0  0  0
 20 25  2  0  0  0  0
 20 29  1  0  0  0  0
 21 24  1  0  0  0  0
 22 24  1  0  0  0  0
 23 24  1  0  0  0  0
 25 26  1  0  0  0  0
 26 27  2  0  0  0  0
 27 28  1  0  0  0  0
 27 30  1  0  0  0  0
 28 29  2  0  0  0  0
 31 32  1  0  0  0  0
 32 33  1  0  0  0  0
 33 34  1  0  0  0  0
 34 35  1  0  0  0  0
 34 39  1  0  0  0  0
 35 36  1  0  0  0  0
 36 37  1  0  0  0  0
 37 38  1  0  0  0  0
 38 39  1  0  0  0  0
  3 40  1  0  0  0  0
  8 41  1  0  0  0  0
  9 42  1  0  0  0  0
 10 43  1  0  0  0  0
 11 44  1  0  0  0  0
 12 45  1  0  0  0  0
 13 46  1  0  0  0  0
 14 47  1  0  0  0  0
 16 48  1  0  0  0  0
 21 49  1  0  0  0  0
 21 50  1  0  0  0  0
 21 51  1  0  0  0  0
 22 52  1  0  0  0  0
 22 53  1  0  0  0  0
 22 54  1  0  0  0  0
 23 55  1  0  0  0  0
 23 56  1  0  0  0  0
 23 57  1  0  0  0  0
 25 58  1  0  0  0  0
 26 59  1  0  0  0  0
 28 60  1  0  0  0  0
 29 61  1  0  0  0  0
 30 62  1  0  0  0  0
 30 63  1  0  0  0  0
 30 64  1  0  0  0  0
 32 65  1  0  0  0  0
 32 66  1  0  0  0  0
 33 67  1  0  0  0  0
 33 68  1  0  0  0  0
 35 69  1  0  0  0  0
 35 70  1  0  0  0  0
 36 71  1  0  0  0  0
 36 72  1  0  0  0  0
 38 73  1  0  0  0  0
 38 74  1  0  0  0  0
 39 75  1  0  0  0  0
 39 76  1  0  0  0  0
 34 77  1  0  0  0  0
M  CHG  1  34   1
M  END
> <BIOSOLVEIT.HYDE_ESTIMATED_AFFINITY_LOWER_BOUNDARY [nM]>
0.000583

> <BIOSOLVEIT.HYDE_ESTIMATED_AFFINITY_UPPER_BOUNDARY [nM]>
0.057927

> <BIOSOLVEIT.HYDE_LIGAND_EFFICIENCY range: ++, +, 0, -, -->
0

> <BIOSOLVEIT.HYDE_LIGAND_LIPOPHILIC_EFFICIENCY range: ++, +, 0, -, -->
++

> <BIOSOLVEIT.LOGP>
4.56932

> <BIOSOLVEIT.MOLECULAR WEIGHT>
528.673

> <BIOSOLVEIT.MOLECULE_CHECKSUM>
LTY0LjEzMzY7MS42NDQ0NQ==

> <BIOSOLVEIT.TPSA>
81.85

> <OPTIBRIUM.BBB category>
-

> <OPTIBRIUM.PPB90 category>
high

> <OPTIBRIUM.2C9 pKi>
5.93295

> <OPTIBRIUM.logS @ pH7.4>
1.34117

> <OPTIBRIUM.BBB log([brain]:[blood])>
-0.17445

> <OPTIBRIUM.2D6 affinity category>
medium

> <OPTIBRIUM.logS>
0.321773

> <OPTIBRIUM.logD>
4.19103

> <OPTIBRIUM.hERG pIC50>
7.08667

> <OPTIBRIUM.logP>
5.11964

> <OPTIBRIUM.HIA category>
+

> <OPTIBRIUM.P-gp category>
yes

$$$$
B96_B_365_1_005
joSeeSAR  03092211513D 1   1.00000     0.00000     0
SeeSAR 11.2.2 jonathanwahrer
 77 81  0  0  0  0            999 V2000
   55.0455   93.1419   23.4463 C   0  0  0  0  0  0  0  0  0  0  0  0
   53.8861   93.4929   23.2853 O   0  0  0  0  0  0  0  0  0  0  0  0
   55.8265   93.7185   24.4034 N   0  0  0  0  0  0  0  0  0  0  0  0
   55.3821   94.7371   25.2642 C   0  0  0  0  0  0  0  0  0  0  0  0
   56.0922   95.9212   25.4528 C   0  0  0  0  0  0  0  0  0  0  0  0
   55.6021   96.8958   26.3208 C   0  0  0  0  0  0  0  0  0  0  0  0
   54.4023   96.6907   27.0011 C   0  0  0  0  0  0  0  0  0  0  0  0
   57.2937   96.1544   24.7865 C   0  0  0  0  0  0  0  0  0  0  0  0
   58.0181   97.3290   24.9609 C   0  0  0  0  0  0  0  0  0  0  0  0
   57.5282   98.3010   25.8269 C   0  0  0  0  0  0  0  0  0  0  0  0
   56.3292   98.0711   26.4931 C   0  0  0  0  0  0  0  0  0  0  0  0
   53.6950   95.5078   26.8096 C   0  0  0  0  0  0  0  0  0  0  0  0
   54.1860   94.5363   25.9446 C   0  0  0  0  0  0  0  0  0  0  0  0
   55.6018   92.1799   22.6761 N   0  0  0  0  0  0  0  0  0  0  0  0
   54.9455   91.4979   21.6444 C   0  0  0  0  0  0  0  0  0  0  0  0
   54.2039   92.0669   20.6579 C   0  0  0  0  0  0  0  0  0  0  0  0
   53.7596   90.9826   19.8732 C   0  0  0  0  0  0  0  0  0  0  0  0
   54.2210   89.8693   20.3920 N   0  0  0  0  0  0  0  0  0  0  0  0
   54.9373   90.1503   21.4543 N   0  0  0  0  0  0  0  0  0  0  0  0
   55.5890   89.2122   22.2648 C   0  0  0  0  0  0  0  0  0  0  0  0
   52.5475   89.6611   18.1945 C   0  0  0  0  0  0  0  0  0  0  0  0
   51.5773   91.8279   18.9303 C   0  0  0  0  0  0  0  0  0  0  0  0
   53.6274   91.8482   17.5323 C   0  0  0  0  0  0  0  0  0  0  0  0
   52.8864   91.0860   18.6330 C   0  0  0  0  0  0  0  0  0  0  0  0
   56.3171   88.1859   21.6714 C   0  0  0  0  0  0  0  0  0  0  0  0
   56.9686   87.2472   22.4643 C   0  0  0  0  0  0  0  0  0  0  0  0
   56.8821   87.3509   23.8482 C   0  0  0  0  0  0  0  0  0  0  0  0
   56.1557   88.3756   24.4463 C   0  0  0  0  0  0  0  0  0  0  0  0
   55.5050   89.3122   23.6499 C   0  0  0  0  0  0  0  0  0  0  0  0
   57.5907   86.3325   24.7263 C   0  0  0  0  0  0  0  0  0  0  0  0
   53.8843   97.6035   27.8528 O   0  0  0  0  0  0  0  0  0  0  0  0
   52.4598   97.7180   27.8091 C   0  0  0  0  0  0  0  0  0  0  0  0
   52.0264   98.6206   28.9735 C   0  0  0  0  0  0  0  0  0  0  0  0
   51.6928   99.9883   28.4999 N   0  3  0  0  0  0  0  0  0  0  0  0
   50.2911  100.3202   28.7978 C   0  0  0  0  0  0  0  0  0  0  0  0
   49.9191  101.6534   28.1603 C   0  0  0  0  0  0  0  0  0  0  0  0
   50.2030  101.7114   26.7634 O   0  0  0  0  0  0  0  0  0  0  0  0
   50.8104  100.5315   26.2484 C   0  0  0  0  0  0  0  0  0  0  0  0
   52.0290  100.1533   27.0763 C   0  0  0  0  0  0  0  0  0  0  0  0
   56.7693   93.3987   24.4984 H   0  0  0  0  0  0  0  0  0  0  0  0
   57.6461   95.4558   24.1638 H   0  0  0  0  0  0  0  0  0  0  0  0
   58.8779   97.4726   24.4712 H   0  0  0  0  0  0  0  0  0  0  0  0
   58.0313   99.1535   25.9685 H   0  0  0  0  0  0  0  0  0  0  0  0
   55.9784   98.7713   27.1150 H   0  0  0  0  0  0  0  0  0  0  0  0
   52.8334   95.3564   27.2942 H   0  0  0  0  0  0  0  0  0  0  0  0
   53.6754   93.6871   25.8107 H   0  0  0  0  0  0  0  0  0  0  0  0
   56.5548   91.9370   22.8573 H   0  0  0  0  0  0  0  0  0  0  0  0
   54.0151   93.0391   20.5193 H   0  0  0  0  0  0  0  0  0  0  0  0
   51.9716   89.6918   17.3777 H   0  0  0  0  0  0  0  0  0  0  0  0
   53.3917   89.1660   17.9889 H   0  0  0  0  0  0  0  0  0  0  0  0
   52.0576   89.1936   18.9305 H   0  0  0  0  0  0  0  0  0  0  0  0
   51.0266   91.8792   18.0972 H   0  0  0  0  0  0  0  0  0  0  0  0
   51.0682   91.3357   19.6366 H   0  0  0  0  0  0  0  0  0  0  0  0
   51.7834   92.7523   19.2512 H   0  0  0  0  0  0  0  0  0  0  0  0
   53.0461   91.9113   16.7212 H   0  0  0  0  0  0  0  0  0  0  0  0
   53.8497   92.7681   17.8555 H   0  0  0  0  0  0  0  0  0  0  0  0
   54.4709   91.3633   17.3010 H   0  0  0  0  0  0  0  0  0  0  0  0
   56.3718   88.1230   20.6749 H   0  0  0  0  0  0  0  0  0  0  0  0
   57.4930   86.5066   22.0442 H   0  0  0  0  0  0  0  0  0  0  0  0
   56.1017   88.4386   25.4429 H   0  0  0  0  0  0  0  0  0  0  0  0
   54.9802   90.0526   24.0701 H   0  0  0  0  0  0  0  0  0  0  0  0
   57.4274   86.5509   25.6884 H   0  0  0  0  0  0  0  0  0  0  0  0
   57.2378   85.4182   24.5275 H   0  0  0  0  0  0  0  0  0  0  0  0
   58.5729   86.3584   24.5405 H   0  0  0  0  0  0  0  0  0  0  0  0
   52.0425   96.8143   27.9055 H   0  0  0  0  0  0  0  0  0  0  0  0
   52.1774   98.1244   26.9401 H   0  0  0  0  0  0  0  0  0  0  0  0
   52.7728   98.6782   29.6364 H   0  0  0  0  0  0  0  0  0  0  0  0
   51.2208   98.2222   29.4123 H   0  0  0  0  0  0  0  0  0  0  0  0
   50.1696  100.3824   29.7884 H   0  0  0  0  0  0  0  0  0  0  0  0
   49.6972   99.6029   28.4335 H   0  0  0  0  0  0  0  0  0  0  0  0
   50.4330  102.3785   28.6188 H   0  0  0  0  0  0  0  0  0  0  0  0
   48.9394  101.8052   28.2915 H   0  0  0  0  0  0  0  0  0  0  0  0
   51.0924  100.6928   25.3026 H   0  0  0  0  0  0  0  0  0  0  0  0
   50.1487   99.7822   26.2758 H   0  0  0  0  0  0  0  0  0  0  0  0
   52.4013   99.2923   26.7297 H   0  0  0  0  0  0  0  0  0  0  0  0
   52.7169  100.8737   26.9875 H   0  0  0  0  0  0  0  0  0  0  0  0
   52.2641  100.6274   29.0149 H   0  0  0  0  0  0  0  0  0  0  0  0
  1  2  2  0  0  0  0
  1  3  1  0  0  0  0
  1 14  1  0  0  0  0
  3  4  1  0  0  0  0
  4  5  2  0  0  0  0
  4 13  1  0  0  0  0
  5  6  1  0  0  0  0
  5  8  1  0  0  0  0
  6  7  2  0  0  0  0
  6 11  1  0  0  0  0
  7 12  1  0  0  0  0
  7 31  1  0  0  0  0
  8  9  2  0  0  0  0
  9 10  1  0  0  0  0
 10 11  2  0  0  0  0
 12 13  2  0  0  0  0
 14 15  1  0  0  0  0
 15 16  2  0  0  0  0
 15 19  1  0  0  0  0
 16 17  1  0  0  0  0
 17 18  2  0  0  0  0
 17 24  1  0  0  0  0
 18 19  1  0  0  0  0
 19 20  1  0  0  0  0
 20 25  2  0  0  0  0
 20 29  1  0  0  0  0
 21 24  1  0  0  0  0
 22 24  1  0  0  0  0
 23 24  1  0  0  0  0
 25 26  1  0  0  0  0
 26 27  2  0  0  0  0
 27 28  1  0  0  0  0
 27 30  1  0  0  0  0
 28 29  2  0  0  0  0
 31 32  1  0  0  0  0
 32 33  1  0  0  0  0
 33 34  1  0  0  0  0
 34 35  1  0  0  0  0
 34 39  1  0  0  0  0
 35 36  1  0  0  0  0
 36 37  1  0  0  0  0
 37 38  1  0  0  0  0
 38 39  1  0  0  0  0
  3 40  1  0  0  0  0
  8 41  1  0  0  0  0
  9 42  1  0  0  0  0
 10 43  1  0  0  0  0
 11 44  1  0  0  0  0
 12 45  1  0  0  0  0
 13 46  1  0  0  0  0
 14 47  1  0  0  0  0
 16 48  1  0  0  0  0
 21 49  1  0  0  0  0
 21 50  1  0  0  0  0
 21 51  1  0  0  0  0
 22 52  1  0  0  0  0
 22 53  1  0  0  0  0
 22 54  1  0  0  0  0
 23 55  1  0  0  0  0
 23 56  1  0  0  0  0
 23 57  1  0  0  0  0
 25 58  1  0  0  0  0
 26 59  1  0  0  0  0
 28 60  1  0  0  0  0
 29 61  1  0  0  0  0
 30 62  1  0  0  0  0
 30 63  1  0  0  0  0
 30 64  1  0  0  0  0
 32 65  1  0  0  0  0
 32 66  1  0  0  0  0
 33 67  1  0  0  0  0
 33 68  1  0  0  0  0
 35 69  1  0  0  0  0
 35 70  1  0  0  0  0
 36 71  1  0  0  0  0
 36 72  1  0  0  0  0
 38 73  1  0  0  0  0
 38 74  1  0  0  0  0
 39 75  1  0  0  0  0
 39 76  1  0  0  0  0
 34 77  1  0  0  0  0
M  CHG  1  34   1
M  END
> <BIOSOLVEIT.HYDE_ESTIMATED_AFFINITY_LOWER_BOUNDARY [nM]>
0.020022

> <BIOSOLVEIT.HYDE_ESTIMATED_AFFINITY_UPPER_BOUNDARY [nM]>
1.989338

> <BIOSOLVEIT.HYDE_LIGAND_EFFICIENCY range: ++, +, 0, -, -->
0

> <BIOSOLVEIT.HYDE_LIGAND_LIPOPHILIC_EFFICIENCY range: ++, +, 0, -, -->
+

> <BIOSOLVEIT.LOGP>
4.56932

> <BIOSOLVEIT.MOLECULAR WEIGHT>
528.673

> <BIOSOLVEIT.MOLECULE_CHECKSUM>
LTU1LjM2NzE7MS40MTk2Nw==

> <BIOSOLVEIT.TPSA>
81.85

> <OPTIBRIUM.BBB category>
-

> <OPTIBRIUM.PPB90 category>
high

> <OPTIBRIUM.2C9 pKi>
5.93295

> <OPTIBRIUM.logS @ pH7.4>
1.34117

> <OPTIBRIUM.BBB log([brain]:[blood])>
-0.17445

> <OPTIBRIUM.2D6 affinity category>
medium

> <OPTIBRIUM.logS>
0.321773

> <OPTIBRIUM.logD>
4.19103

> <OPTIBRIUM.hERG pIC50>
7.08667

> <OPTIBRIUM.logP>
5.11964

> <OPTIBRIUM.HIA category>
+

> <OPTIBRIUM.P-gp category>
yes

$$$$
B96_B_365_1_002
joSeeSAR  03092211513D 1   1.00000     0.00000     0
SeeSAR 11.2.2 jonathanwahrer
 77 81  0  0  0  0            999 V2000
   55.0099   93.1457   23.4759 C   0  0  0  0  0  0  0  0  0  0  0  0
   53.8603   93.5060   23.2714 O   0  0  0  0  0  0  0  0  0  0  0  0
   55.7665   93.7316   24.4468 N   0  0  0  0  0  0  0  0  0  0  0  0
   55.3063   94.7705   25.2745 C   0  0  0  0  0  0  0  0  0  0  0  0
   56.0279   95.9460   25.4722 C   0  0  0  0  0  0  0  0  0  0  0  0
   55.5210   96.9418   26.3060 C   0  0  0  0  0  0  0  0  0  0  0  0
   54.2930   96.7663   26.9428 C   0  0  0  0  0  0  0  0  0  0  0  0
   57.2576   96.1498   24.8490 C   0  0  0  0  0  0  0  0  0  0  0  0
   57.9938   97.3156   25.0334 C   0  0  0  0  0  0  0  0  0  0  0  0
   57.4873   98.3086   25.8651 C   0  0  0  0  0  0  0  0  0  0  0  0
   56.2602   98.1081   26.4883 C   0  0  0  0  0  0  0  0  0  0  0  0
   53.5742   95.5919   26.7423 C   0  0  0  0  0  0  0  0  0  0  0  0
   54.0821   94.5993   25.9115 C   0  0  0  0  0  0  0  0  0  0  0  0
   55.5798   92.1639   22.7414 N   0  0  0  0  0  0  0  0  0  0  0  0
   54.9491   91.4700   21.7017 C   0  0  0  0  0  0  0  0  0  0  0  0
   54.2130   92.0257   20.7036 C   0  0  0  0  0  0  0  0  0  0  0  0
   53.7970   90.9331   19.9145 C   0  0  0  0  0  0  0  0  0  0  0  0
   54.2683   89.8282   20.4421 N   0  0  0  0  0  0  0  0  0  0  0  0
   54.9646   90.1222   21.5140 N   0  0  0  0  0  0  0  0  0  0  0  0
   55.6193   89.1957   22.3356 C   0  0  0  0  0  0  0  0  0  0  0  0
   52.6456   89.5902   18.2106 C   0  0  0  0  0  0  0  0  0  0  0  0
   51.6076   91.7264   18.9432 C   0  0  0  0  0  0  0  0  0  0  0  0
   53.6774   91.8086   17.5767 C   0  0  0  0  0  0  0  0  0  0  0  0
   52.9402   91.0209   18.6618 C   0  0  0  0  0  0  0  0  0  0  0  0
   56.3579   88.1699   21.7544 C   0  0  0  0  0  0  0  0  0  0  0  0
   57.0124   87.2428   22.5583 C   0  0  0  0  0  0  0  0  0  0  0  0
   56.9181   87.3574   23.9409 C   0  0  0  0  0  0  0  0  0  0  0  0
   56.1811   88.3815   24.5268 C   0  0  0  0  0  0  0  0  0  0  0  0
   55.5275   89.3066   23.7192 C   0  0  0  0  0  0  0  0  0  0  0  0
   57.6298   86.3516   24.8309 C   0  0  0  0  0  0  0  0  0  0  0  0
   53.7579   97.7004   27.7601 O   0  0  0  0  0  0  0  0  0  0  0  0
   52.4369   97.4034   28.2198 C   0  0  0  0  0  0  0  0  0  0  0  0
   51.9118   98.6386   28.9661 C   0  0  0  0  0  0  0  0  0  0  0  0
   51.8222   99.8154   28.0642 N   0  3  0  0  0  0  0  0  0  0  0  0
   51.0426  100.8648   28.7462 C   0  0  0  0  0  0  0  0  0  0  0  0
   49.8377  101.2810   27.9124 C   0  0  0  0  0  0  0  0  0  0  0  0
   50.2546  101.6364   26.6019 O   0  0  0  0  0  0  0  0  0  0  0  0
   50.9639  100.5998   25.9280 C   0  0  0  0  0  0  0  0  0  0  0  0
   51.2136   99.3756   26.7985 C   0  0  0  0  0  0  0  0  0  0  0  0
   56.7021   93.4037   24.5778 H   0  0  0  0  0  0  0  0  0  0  0  0
   57.6220   95.4361   24.2510 H   0  0  0  0  0  0  0  0  0  0  0  0
   58.8740   97.4378   24.5748 H   0  0  0  0  0  0  0  0  0  0  0  0
   57.9985   99.1552   26.0130 H   0  0  0  0  0  0  0  0  0  0  0  0
   55.8974   98.8233   27.0857 H   0  0  0  0  0  0  0  0  0  0  0  0
   52.6926   95.4616   27.1956 H   0  0  0  0  0  0  0  0  0  0  0  0
   53.5631   93.7562   25.7710 H   0  0  0  0  0  0  0  0  0  0  0  0
   56.5238   91.9144   22.9572 H   0  0  0  0  0  0  0  0  0  0  0  0
   54.0110   92.9946   20.5603 H   0  0  0  0  0  0  0  0  0  0  0  0
   52.0814   89.6105   17.3851 H   0  0  0  0  0  0  0  0  0  0  0  0
   53.5055   89.1186   18.0152 H   0  0  0  0  0  0  0  0  0  0  0  0
   52.1572   89.1057   18.9364 H   0  0  0  0  0  0  0  0  0  0  0  0
   51.0684   91.7682   18.1020 H   0  0  0  0  0  0  0  0  0  0  0  0
   51.1011   91.2170   19.6388 H   0  0  0  0  0  0  0  0  0  0  0  0
   51.7844   92.6540   19.2721 H   0  0  0  0  0  0  0  0  0  0  0  0
   53.1070   91.8611   16.7571 H   0  0  0  0  0  0  0  0  0  0  0  0
   53.8705   92.7322   17.9081 H   0  0  0  0  0  0  0  0  0  0  0  0
   54.5368   91.3474   17.3556 H   0  0  0  0  0  0  0  0  0  0  0  0
   56.4181   88.0993   20.7587 H   0  0  0  0  0  0  0  0  0  0  0  0
   57.5445   86.5027   22.1470 H   0  0  0  0  0  0  0  0  0  0  0  0
   56.1217   88.4523   25.5225 H   0  0  0  0  0  0  0  0  0  0  0  0
   54.9952   90.0466   24.1307 H   0  0  0  0  0  0  0  0  0  0  0  0
   57.4600   86.5768   25.7903 H   0  0  0  0  0  0  0  0  0  0  0  0
   57.2848   85.4330   24.6380 H   0  0  0  0  0  0  0  0  0  0  0  0
   58.6127   86.3832   24.6499 H   0  0  0  0  0  0  0  0  0  0  0  0
   52.4602   96.6172   28.8374 H   0  0  0  0  0  0  0  0  0  0  0  0
   51.8437   97.1984   27.4413 H   0  0  0  0  0  0  0  0  0  0  0  0
   52.5331   98.8524   29.7200 H   0  0  0  0  0  0  0  0  0  0  0  0
   51.0026   98.4372   29.3303 H   0  0  0  0  0  0  0  0  0  0  0  0
   51.6278  101.6619   28.8952 H   0  0  0  0  0  0  0  0  0  0  0  0
   50.7249  100.5151   29.6275 H   0  0  0  0  0  0  0  0  0  0  0  0
   49.3923  102.0662   28.3428 H   0  0  0  0  0  0  0  0  0  0  0  0
   49.1922  100.5191   27.8597 H   0  0  0  0  0  0  0  0  0  0  0  0
   51.8467  100.9620   25.6289 H   0  0  0  0  0  0  0  0  0  0  0  0
   50.4315  100.3182   25.1296 H   0  0  0  0  0  0  0  0  0  0  0  0
   50.3472   98.9122   26.9844 H   0  0  0  0  0  0  0  0  0  0  0  0
   51.8330   98.7479   26.3271 H   0  0  0  0  0  0  0  0  0  0  0  0
   52.7435  100.1589   27.8821 H   0  0  0  0  0  0  0  0  0  0  0  0
  1  2  2  0  0  0  0
  1  3  1  0  0  0  0
  1 14  1  0  0  0  0
  3  4  1  0  0  0  0
  4  5  2  0  0  0  0
  4 13  1  0  0  0  0
  5  6  1  0  0  0  0
  5  8  1  0  0  0  0
  6  7  2  0  0  0  0
  6 11  1  0  0  0  0
  7 12  1  0  0  0  0
  7 31  1  0  0  0  0
  8  9  2  0  0  0  0
  9 10  1  0  0  0  0
 10 11  2  0  0  0  0
 12 13  2  0  0  0  0
 14 15  1  0  0  0  0
 15 16  2  0  0  0  0
 15 19  1  0  0  0  0
 16 17  1  0  0  0  0
 17 18  2  0  0  0  0
 17 24  1  0  0  0  0
 18 19  1  0  0  0  0
 19 20  1  0  0  0  0
 20 25  2  0  0  0  0
 20 29  1  0  0  0  0
 21 24  1  0  0  0  0
 22 24  1  0  0  0  0
 23 24  1  0  0  0  0
 25 26  1  0  0  0  0
 26 27  2  0  0  0  0
 27 28  1  0  0  0  0
 27 30  1  0  0  0  0
 28 29  2  0  0  0  0
 31 32  1  0  0  0  0
 32 33  1  0  0  0  0
 33 34  1  0  0  0  0
 34 35  1  0  0  0  0
 34 39  1  0  0  0  0
 35 36  1  0  0  0  0
 36 37  1  0  0  0  0
 37 38  1  0  0  0  0
 38 39  1  0  0  0  0
  3 40  1  0  0  0  0
  8 41  1  0  0  0  0
  9 42  1  0  0  0  0
 10 43  1  0  0  0  0
 11 44  1  0  0  0  0
 12 45  1  0  0  0  0
 13 46  1  0  0  0  0
 14 47  1  0  0  0  0
 16 48  1  0  0  0  0
 21 49  1  0  0  0  0
 21 50  1  0  0  0  0
 21 51  1  0  0  0  0
 22 52  1  0  0  0  0
 22 53  1  0  0  0  0
 22 54  1  0  0  0  0
 23 55  1  0  0  0  0
 23 56  1  0  0  0  0
 23 57  1  0  0  0  0
 25 58  1  0  0  0  0
 26 59  1  0  0  0  0
 28 60  1  0  0  0  0
 29 61  1  0  0  0  0
 30 62  1  0  0  0  0
 30 63  1  0  0  0  0
 30 64  1  0  0  0  0
 32 65  1  0  0  0  0
 32 66  1  0  0  0  0
 33 67  1  0  0  0  0
 33 68  1  0  0  0  0
 35 69  1  0  0  0  0
 35 70  1  0  0  0  0
 36 71  1  0  0  0  0
 36 72  1  0  0  0  0
 38 73  1  0  0  0  0
 38 74  1  0  0  0  0
 39 75  1  0  0  0  0
 39 76  1  0  0  0  0
 34 77  1  0  0  0  0
M  CHG  1  34   1
M  END
> <BIOSOLVEIT.HYDE_ESTIMATED_AFFINITY_LOWER_BOUNDARY [nM]>
0.023309

> <BIOSOLVEIT.HYDE_ESTIMATED_AFFINITY_UPPER_BOUNDARY [nM]>
2.315870

> <BIOSOLVEIT.HYDE_LIGAND_EFFICIENCY range: ++, +, 0, -, -->
0

> <BIOSOLVEIT.HYDE_LIGAND_LIPOPHILIC_EFFICIENCY range: ++, +, 0, -, -->
+

> <BIOSOLVEIT.LOGP>
4.56932

> <BIOSOLVEIT.MOLECULAR WEIGHT>
528.673

> <BIOSOLVEIT.MOLECULE_CHECKSUM>
LTU0Ljk5MDM7MS40MTAwMQ==

> <BIOSOLVEIT.TPSA>
81.85

> <OPTIBRIUM.BBB category>
-

> <OPTIBRIUM.PPB90 category>
high

> <OPTIBRIUM.2C9 pKi>
5.93295

> <OPTIBRIUM.logS @ pH7.4>
1.34117

> <OPTIBRIUM.BBB log([brain]:[blood])>
-0.17445

> <OPTIBRIUM.2D6 affinity category>
medium

> <OPTIBRIUM.logS>
0.321773

> <OPTIBRIUM.logD>
4.19103

> <OPTIBRIUM.hERG pIC50>
7.08667

> <OPTIBRIUM.logP>
5.11964

> <OPTIBRIUM.HIA category>
+

> <OPTIBRIUM.P-gp category>
yes

$$$$
B96_B_365_1_010
joSeeSAR  03092211513D 1   1.00000     0.00000     0
SeeSAR 11.2.2 jonathanwahrer
 77 81  0  0  0  0            999 V2000
   55.0114   93.1522   23.4914 C   0  0  0  0  0  0  0  0  0  0  0  0
   53.8703   93.5311   23.2736 O   0  0  0  0  0  0  0  0  0  0  0  0
   55.7703   93.7338   24.4631 N   0  0  0  0  0  0  0  0  0  0  0  0
   55.3221   94.7890   25.2766 C   0  0  0  0  0  0  0  0  0  0  0  0
   56.0544   95.9613   25.4538 C   0  0  0  0  0  0  0  0  0  0  0  0
   55.5593   96.9738   26.2742 C   0  0  0  0  0  0  0  0  0  0  0  0
   54.3323   96.8185   26.9182 C   0  0  0  0  0  0  0  0  0  0  0  0
   57.2835   96.1450   24.8231 C   0  0  0  0  0  0  0  0  0  0  0  0
   58.0303   97.3070   24.9870 C   0  0  0  0  0  0  0  0  0  0  0  0
   57.5355   98.3168   25.8055 C   0  0  0  0  0  0  0  0  0  0  0  0
   56.3091   98.1363   26.4361 C   0  0  0  0  0  0  0  0  0  0  0  0
   53.6027   95.6475   26.7381 C   0  0  0  0  0  0  0  0  0  0  0  0
   54.0988   94.6381   25.9206 C   0  0  0  0  0  0  0  0  0  0  0  0
   55.5694   92.1529   22.7715 N   0  0  0  0  0  0  0  0  0  0  0  0
   54.9350   91.4603   21.7331 C   0  0  0  0  0  0  0  0  0  0  0  0
   54.1955   92.0173   20.7383 C   0  0  0  0  0  0  0  0  0  0  0  0
   53.7765   90.9257   19.9495 C   0  0  0  0  0  0  0  0  0  0  0  0
   54.2493   89.8201   20.4742 N   0  0  0  0  0  0  0  0  0  0  0  0
   54.9495   90.1127   21.5440 N   0  0  0  0  0  0  0  0  0  0  0  0
   55.6067   89.1852   22.3624 C   0  0  0  0  0  0  0  0  0  0  0  0
   52.6068   89.5848   18.2564 C   0  0  0  0  0  0  0  0  0  0  0  0
   51.5901   91.7332   18.9833 C   0  0  0  0  0  0  0  0  0  0  0  0
   53.6550   91.7913   17.6080 C   0  0  0  0  0  0  0  0  0  0  0  0
   52.9155   91.0150   18.6998 C   0  0  0  0  0  0  0  0  0  0  0  0
   56.3547   88.1682   21.7777 C   0  0  0  0  0  0  0  0  0  0  0  0
   57.0120   87.2402   22.5784 C   0  0  0  0  0  0  0  0  0  0  0  0
   56.9109   87.3450   23.9613 C   0  0  0  0  0  0  0  0  0  0  0  0
   56.1646   88.3604   24.5507 C   0  0  0  0  0  0  0  0  0  0  0  0
   55.5083   89.2864   23.7463 C   0  0  0  0  0  0  0  0  0  0  0  0
   57.6255   86.3382   24.8477 C   0  0  0  0  0  0  0  0  0  0  0  0
   53.8082   97.7695   27.7231 O   0  0  0  0  0  0  0  0  0  0  0  0
   52.5083   97.4662   28.2356 C   0  0  0  0  0  0  0  0  0  0  0  0
   52.0511   98.6583   29.0888 C   0  0  0  0  0  0  0  0  0  0  0  0
   51.6449   99.8059   28.2378 N   0  3  0  0  0  0  0  0  0  0  0  0
   51.0800   99.3410   26.9627 C   0  0  0  0  0  0  0  0  0  0  0  0
   50.8183  100.5508   26.0783 C   0  0  0  0  0  0  0  0  0  0  0  0
   50.6423  101.7411   26.8401 O   0  0  0  0  0  0  0  0  0  0  0  0
   49.8975  101.5103   28.0292 C   0  0  0  0  0  0  0  0  0  0  0  0
   50.6462  100.5896   28.9814 C   0  0  0  0  0  0  0  0  0  0  0  0
   56.6986   93.3902   24.6053 H   0  0  0  0  0  0  0  0  0  0  0  0
   57.6395   95.4190   24.2346 H   0  0  0  0  0  0  0  0  0  0  0  0
   58.9098   97.4147   24.5234 H   0  0  0  0  0  0  0  0  0  0  0  0
   58.0544   99.1611   25.9386 H   0  0  0  0  0  0  0  0  0  0  0  0
   55.9547   98.8637   27.0238 H   0  0  0  0  0  0  0  0  0  0  0  0
   52.7217   95.5317   27.1966 H   0  0  0  0  0  0  0  0  0  0  0  0
   53.5722   93.7974   25.7949 H   0  0  0  0  0  0  0  0  0  0  0  0
   56.5069   91.8885   22.9979 H   0  0  0  0  0  0  0  0  0  0  0  0
   53.9933   92.9864   20.5967 H   0  0  0  0  0  0  0  0  0  0  0  0
   52.0395   89.6062   17.4332 H   0  0  0  0  0  0  0  0  0  0  0  0
   53.4618   89.1049   18.0597 H   0  0  0  0  0  0  0  0  0  0  0  0
   52.1172   89.1079   18.9863 H   0  0  0  0  0  0  0  0  0  0  0  0
   51.0479   91.7756   18.1441 H   0  0  0  0  0  0  0  0  0  0  0  0
   51.0821   91.2313   19.6833 H   0  0  0  0  0  0  0  0  0  0  0  0
   51.7761   92.6608   19.3071 H   0  0  0  0  0  0  0  0  0  0  0  0
   53.0816   91.8450   16.7906 H   0  0  0  0  0  0  0  0  0  0  0  0
   53.8573   92.7147   17.9345 H   0  0  0  0  0  0  0  0  0  0  0  0
   54.5094   91.3217   17.3857 H   0  0  0  0  0  0  0  0  0  0  0  0
   56.4198   88.1045   20.7818 H   0  0  0  0  0  0  0  0  0  0  0  0
   57.5507   86.5064   22.1646 H   0  0  0  0  0  0  0  0  0  0  0  0
   56.1004   88.4243   25.5465 H   0  0  0  0  0  0  0  0  0  0  0  0
   54.9692   90.0201   24.1602 H   0  0  0  0  0  0  0  0  0  0  0  0
   57.4501   86.5559   25.8079 H   0  0  0  0  0  0  0  0  0  0  0  0
   57.2874   85.4186   24.6473 H   0  0  0  0  0  0  0  0  0  0  0  0
   58.6090   86.3776   24.6712 H   0  0  0  0  0  0  0  0  0  0  0  0
   52.5485   96.6404   28.7982 H   0  0  0  0  0  0  0  0  0  0  0  0
   51.8692   97.3237   27.4797 H   0  0  0  0  0  0  0  0  0  0  0  0
   52.8046   98.9427   29.6815 H   0  0  0  0  0  0  0  0  0  0  0  0
   51.2729   98.3776   29.6505 H   0  0  0  0  0  0  0  0  0  0  0  0
   50.2223   98.8552   27.1315 H   0  0  0  0  0  0  0  0  0  0  0  0
   51.7275   98.7272   26.5111 H   0  0  0  0  0  0  0  0  0  0  0  0
   49.9906  100.3855   25.5419 H   0  0  0  0  0  0  0  0  0  0  0  0
   51.5959  100.6742   25.4617 H   0  0  0  0  0  0  0  0  0  0  0  0
   49.0230  101.0890   27.7890 H   0  0  0  0  0  0  0  0  0  0  0  0
   49.7321  102.3850   28.4848 H   0  0  0  0  0  0  0  0  0  0  0  0
   51.1073  101.1379   29.6790 H   0  0  0  0  0  0  0  0  0  0  0  0
   49.9973   99.9684   29.4209 H   0  0  0  0  0  0  0  0  0  0  0  0
   52.4436  100.3791   28.0548 H   0  0  0  0  0  0  0  0  0  0  0  0
  1  2  2  0  0  0  0
  1  3  1  0  0  0  0
  1 14  1  0  0  0  0
  3  4  1  0  0  0  0
  4  5  2  0  0  0  0
  4 13  1  0  0  0  0
  5  6  1  0  0  0  0
  5  8  1  0  0  0  0
  6  7  2  0  0  0  0
  6 11  1  0  0  0  0
  7 12  1  0  0  0  0
  7 31  1  0  0  0  0
  8  9  2  0  0  0  0
  9 10  1  0  0  0  0
 10 11  2  0  0  0  0
 12 13  2  0  0  0  0
 14 15  1  0  0  0  0
 15 16  2  0  0  0  0
 15 19  1  0  0  0  0
 16 17  1  0  0  0  0
 17 18  2  0  0  0  0
 17 24  1  0  0  0  0
 18 19  1  0  0  0  0
 19 20  1  0  0  0  0
 20 25  2  0  0  0  0
 20 29  1  0  0  0  0
 21 24  1  0  0  0  0
 22 24  1  0  0  0  0
 23 24  1  0  0  0  0
 25 26  1  0  0  0  0
 26 27  2  0  0  0  0
 27 28  1  0  0  0  0
 27 30  1  0  0  0  0
 28 29  2  0  0  0  0
 31 32  1  0  0  0  0
 32 33  1  0  0  0  0
 33 34  1  0  0  0  0
 34 35  1  0  0  0  0
 34 39  1  0  0  0  0
 35 36  1  0  0  0  0
 36 37  1  0  0  0  0
 37 38  1  0  0  0  0
 38 39  1  0  0  0  0
  3 40  1  0  0  0  0
  8 41  1  0  0  0  0
  9 42  1  0  0  0  0
 10 43  1  0  0  0  0
 11 44  1  0  0  0  0
 12 45  1  0  0  0  0
 13 46  1  0  0  0  0
 14 47  1  0  0  0  0
 16 48  1  0  0  0  0
 21 49  1  0  0  0  0
 21 50  1  0  0  0  0
 21 51  1  0  0  0  0
 22 52  1  0  0  0  0
 22 53  1  0  0  0  0
 22 54  1  0  0  0  0
 23 55  1  0  0  0  0
 23 56  1  0  0  0  0
 23 57  1  0  0  0  0
 25 58  1  0  0  0  0
 26 59  1  0  0  0  0
 28 60  1  0  0  0  0
 29 61  1  0  0  0  0
 30 62  1  0  0  0  0
 30 63  1  0  0  0  0
 30 64  1  0  0  0  0
 32 65  1  0  0  0  0
 32 66  1  0  0  0  0
 33 67  1  0  0  0  0
 33 68  1  0  0  0  0
 35 69  1  0  0  0  0
 35 70  1  0  0  0  0
 36 71  1  0  0  0  0
 36 72  1  0  0  0  0
 38 73  1  0  0  0  0
 38 74  1  0  0  0  0
 39 75  1  0  0  0  0
 39 76  1  0  0  0  0
 34 77  1  0  0  0  0
M  CHG  1  34   1
M  END
> <BIOSOLVEIT.HYDE_ESTIMATED_AFFINITY_LOWER_BOUNDARY [nM]>
0.028204

> <BIOSOLVEIT.HYDE_ESTIMATED_AFFINITY_UPPER_BOUNDARY [nM]>
2.802209

> <BIOSOLVEIT.HYDE_LIGAND_EFFICIENCY range: ++, +, 0, -, -->
0

> <BIOSOLVEIT.HYDE_LIGAND_LIPOPHILIC_EFFICIENCY range: ++, +, 0, -, -->
0

> <BIOSOLVEIT.LOGP>
4.56932

> <BIOSOLVEIT.MOLECULAR WEIGHT>
528.673

> <BIOSOLVEIT.MOLECULE_CHECKSUM>
LTU0LjUxNzc7MS4zOTc4OQ==

> <BIOSOLVEIT.TPSA>
81.85

> <OPTIBRIUM.BBB category>
-

> <OPTIBRIUM.PPB90 category>
high

> <OPTIBRIUM.2C9 pKi>
5.93295

> <OPTIBRIUM.logS @ pH7.4>
1.34117

> <OPTIBRIUM.BBB log([brain]:[blood])>
-0.17445

> <OPTIBRIUM.2D6 affinity category>
medium

> <OPTIBRIUM.logS>
0.321773

> <OPTIBRIUM.logD>
4.19103

> <OPTIBRIUM.hERG pIC50>
7.08667

> <OPTIBRIUM.logP>
5.11964

> <OPTIBRIUM.HIA category>
+

> <OPTIBRIUM.P-gp category>
yes

$$$$
B96_B_365_1_008
joSeeSAR  03092211513D 1   1.00000     0.00000     0
SeeSAR 11.2.2 jonathanwahrer
 77 81  0  0  0  0            999 V2000
   55.0607   93.1271   23.3978 C   0  0  0  0  0  0  0  0  0  0  0  0
   53.8902   93.4518   23.2645 O   0  0  0  0  0  0  0  0  0  0  0  0
   55.8474   93.7119   24.3451 N   0  0  0  0  0  0  0  0  0  0  0  0
   55.3967   94.7100   25.2264 C   0  0  0  0  0  0  0  0  0  0  0  0
   56.0981   95.8955   25.4371 C   0  0  0  0  0  0  0  0  0  0  0  0
   55.6022   96.8493   26.3248 C   0  0  0  0  0  0  0  0  0  0  0  0
   54.4050   96.6216   27.0029 C   0  0  0  0  0  0  0  0  0  0  0  0
   57.2968   96.1510   24.7737 C   0  0  0  0  0  0  0  0  0  0  0  0
   58.0125   97.3274   24.9701 C   0  0  0  0  0  0  0  0  0  0  0  0
   57.5168   98.2785   25.8557 C   0  0  0  0  0  0  0  0  0  0  0  0
   56.3207   98.0264   26.5192 C   0  0  0  0  0  0  0  0  0  0  0  0
   53.7065   95.4375   26.7893 C   0  0  0  0  0  0  0  0  0  0  0  0
   54.2035   94.4869   25.9045 C   0  0  0  0  0  0  0  0  0  0  0  0
   55.6238   92.1873   22.6054 N   0  0  0  0  0  0  0  0  0  0  0  0
   54.9626   91.5008   21.5796 C   0  0  0  0  0  0  0  0  0  0  0  0
   54.2207   92.0661   20.5913 C   0  0  0  0  0  0  0  0  0  0  0  0
   53.7708   90.9781   19.8145 C   0  0  0  0  0  0  0  0  0  0  0  0
   54.2296   89.8668   20.3395 N   0  0  0  0  0  0  0  0  0  0  0  0
   54.9493   90.1522   21.3983 N   0  0  0  0  0  0  0  0  0  0  0  0
   55.5998   89.2171   22.2133 C   0  0  0  0  0  0  0  0  0  0  0  0
   52.5589   89.6499   18.1413 C   0  0  0  0  0  0  0  0  0  0  0  0
   51.5845   91.8157   18.8740 C   0  0  0  0  0  0  0  0  0  0  0  0
   53.6321   91.8382   17.4720 C   0  0  0  0  0  0  0  0  0  0  0  0
   52.8951   91.0765   18.5758 C   0  0  0  0  0  0  0  0  0  0  0  0
   56.3253   88.1861   21.6248 C   0  0  0  0  0  0  0  0  0  0  0  0
   56.9756   87.2503   22.4221 C   0  0  0  0  0  0  0  0  0  0  0  0
   56.8904   87.3617   23.8056 C   0  0  0  0  0  0  0  0  0  0  0  0
   56.1667   88.3911   24.3989 C   0  0  0  0  0  0  0  0  0  0  0  0
   55.5172   89.3248   23.5978 C   0  0  0  0  0  0  0  0  0  0  0  0
   57.5976   86.3465   24.6885 C   0  0  0  0  0  0  0  0  0  0  0  0
   53.8816   97.5136   27.8731 O   0  0  0  0  0  0  0  0  0  0  0  0
   52.4595   97.4507   28.0074 C   0  0  0  0  0  0  0  0  0  0  0  0
   52.0463   98.4560   29.0921 C   0  0  0  0  0  0  0  0  0  0  0  0
   51.8249   99.8079   28.5178 N   0  3  0  0  0  0  0  0  0  0  0  0
   52.1508   99.8178   27.0841 C   0  0  0  0  0  0  0  0  0  0  0  0
   51.9378  101.2096   26.5102 C   0  0  0  0  0  0  0  0  0  0  0  0
   50.6009  101.6372   26.7283 O   0  0  0  0  0  0  0  0  0  0  0  0
   50.2587  101.6385   28.1076 C   0  0  0  0  0  0  0  0  0  0  0  0
   50.4369  100.2547   28.7137 C   0  0  0  0  0  0  0  0  0  0  0  0
   56.7993   93.4140   24.4170 H   0  0  0  0  0  0  0  0  0  0  0  0
   57.6533   95.4674   24.1369 H   0  0  0  0  0  0  0  0  0  0  0  0
   58.8705   97.4870   24.4819 H   0  0  0  0  0  0  0  0  0  0  0  0
   58.0137   99.1318   26.0133 H   0  0  0  0  0  0  0  0  0  0  0  0
   55.9656   98.7115   27.1552 H   0  0  0  0  0  0  0  0  0  0  0  0
   52.8469   95.2700   27.2720 H   0  0  0  0  0  0  0  0  0  0  0  0
   53.6990   93.6366   25.7548 H   0  0  0  0  0  0  0  0  0  0  0  0
   56.5859   91.9655   22.7641 H   0  0  0  0  0  0  0  0  0  0  0  0
   54.0348   93.0380   20.4468 H   0  0  0  0  0  0  0  0  0  0  0  0
   51.9814   89.6773   17.3254 H   0  0  0  0  0  0  0  0  0  0  0  0
   53.4039   89.1564   17.9351 H   0  0  0  0  0  0  0  0  0  0  0  0
   52.0717   89.1827   18.8791 H   0  0  0  0  0  0  0  0  0  0  0  0
   51.0321   91.8638   18.0418 H   0  0  0  0  0  0  0  0  0  0  0  0
   51.0781   91.3238   19.5822 H   0  0  0  0  0  0  0  0  0  0  0  0
   51.7888   92.7414   19.1924 H   0  0  0  0  0  0  0  0  0  0  0  0
   53.0489   91.8980   16.6619 H   0  0  0  0  0  0  0  0  0  0  0  0
   53.8525   92.7594   17.7927 H   0  0  0  0  0  0  0  0  0  0  0  0
   54.4762   91.3550   17.2402 H   0  0  0  0  0  0  0  0  0  0  0  0
   56.3791   88.1178   20.6286 H   0  0  0  0  0  0  0  0  0  0  0  0
   57.4982   86.5064   22.0057 H   0  0  0  0  0  0  0  0  0  0  0  0
   56.1136   88.4595   25.3951 H   0  0  0  0  0  0  0  0  0  0  0  0
   54.9944   90.0684   24.0144 H   0  0  0  0  0  0  0  0  0  0  0  0
   57.4356   86.5704   25.6496 H   0  0  0  0  0  0  0  0  0  0  0  0
   57.2427   85.4318   24.4950 H   0  0  0  0  0  0  0  0  0  0  0  0
   58.5798   86.3693   24.5019 H   0  0  0  0  0  0  0  0  0  0  0  0
   52.1835   96.5277   28.2759 H   0  0  0  0  0  0  0  0  0  0  0  0
   52.0247   97.6891   27.1389 H   0  0  0  0  0  0  0  0  0  0  0  0
   52.7702   98.5090   29.7801 H   0  0  0  0  0  0  0  0  0  0  0  0
   51.1999   98.1420   29.5221 H   0  0  0  0  0  0  0  0  0  0  0  0
   51.5594   99.1685   26.6058 H   0  0  0  0  0  0  0  0  0  0  0  0
   53.1067   99.5515   26.9602 H   0  0  0  0  0  0  0  0  0  0  0  0
   52.1217  101.1923   25.5275 H   0  0  0  0  0  0  0  0  0  0  0  0
   52.5648  101.8488   26.9554 H   0  0  0  0  0  0  0  0  0  0  0  0
   49.3040  101.9190   28.2077 H   0  0  0  0  0  0  0  0  0  0  0  0
   50.8486  102.2856   28.5905 H   0  0  0  0  0  0  0  0  0  0  0  0
   50.2335  100.2908   29.6922 H   0  0  0  0  0  0  0  0  0  0  0  0
   49.8139   99.6125   28.2671 H   0  0  0  0  0  0  0  0  0  0  0  0
   52.4321  100.4516   28.9836 H   0  0  0  0  0  0  0  0  0  0  0  0
  1  2  2  0  0  0  0
  1  3  1  0  0  0  0
  1 14  1  0  0  0  0
  3  4  1  0  0  0  0
  4  5  2  0  0  0  0
  4 13  1  0  0  0  0
  5  6  1  0  0  0  0
  5  8  1  0  0  0  0
  6  7  2  0  0  0  0
  6 11  1  0  0  0  0
  7 12  1  0  0  0  0
  7 31  1  0  0  0  0
  8  9  2  0  0  0  0
  9 10  1  0  0  0  0
 10 11  2  0  0  0  0
 12 13  2  0  0  0  0
 14 15  1  0  0  0  0
 15 16  2  0  0  0  0
 15 19  1  0  0  0  0
 16 17  1  0  0  0  0
 17 18  2  0  0  0  0
 17 24  1  0  0  0  0
 18 19  1  0  0  0  0
 19 20  1  0  0  0  0
 20 25  2  0  0  0  0
 20 29  1  0  0  0  0
 21 24  1  0  0  0  0
 22 24  1  0  0  0  0
 23 24  1  0  0  0  0
 25 26  1  0  0  0  0
 26 27  2  0  0  0  0
 27 28  1  0  0  0  0
 27 30  1  0  0  0  0
 28 29  2  0  0  0  0
 31 32  1  0  0  0  0
 32 33  1  0  0  0  0
 33 34  1  0  0  0  0
 34 35  1  0  0  0  0
 34 39  1  0  0  0  0
 35 36  1  0  0  0  0
 36 37  1  0  0  0  0
 37 38  1  0  0  0  0
 38 39  1  0  0  0  0
  3 40  1  0  0  0  0
  8 41  1  0  0  0  0
  9 42  1  0  0  0  0
 10 43  1  0  0  0  0
 11 44  1  0  0  0  0
 12 45  1  0  0  0  0
 13 46  1  0  0  0  0
 14 47  1  0  0  0  0
 16 48  1  0  0  0  0
 21 49  1  0  0  0  0
 21 50  1  0  0  0  0
 21 51  1  0  0  0  0
 22 52  1  0  0  0  0
 22 53  1  0  0  0  0
 22 54  1  0  0  0  0
 23 55  1  0  0  0  0
 23 56  1  0  0  0  0
 23 57  1  0  0  0  0
 25 58  1  0  0  0  0
 26 59  1  0  0  0  0
 28 60  1  0  0  0  0
 29 61  1  0  0  0  0
 30 62  1  0  0  0  0
 30 63  1  0  0  0  0
 30 64  1  0  0  0  0
 32 65  1  0  0  0  0
 32 66  1  0  0  0  0
 33 67  1  0  0  0  0
 33 68  1  0  0  0  0
 35 69  1  0  0  0  0
 35 70  1  0  0  0  0
 36 71  1  0  0  0  0
 36 72  1  0  0  0  0
 38 73  1  0  0  0  0
 38 74  1  0  0  0  0
 39 75  1  0  0  0  0
 39 76  1  0  0  0  0
 34 77  1  0  0  0  0
M  CHG  1  34   1
M  END
> <BIOSOLVEIT.HYDE_ESTIMATED_AFFINITY_LOWER_BOUNDARY [nM]>
0.033654

> <BIOSOLVEIT.HYDE_ESTIMATED_AFFINITY_UPPER_BOUNDARY [nM]>
3.343686

> <BIOSOLVEIT.HYDE_LIGAND_EFFICIENCY range: ++, +, 0, -, -->
0

> <BIOSOLVEIT.HYDE_LIGAND_LIPOPHILIC_EFFICIENCY range: ++, +, 0, -, -->
0

> <BIOSOLVEIT.LOGP>
4.56932

> <BIOSOLVEIT.MOLECULAR WEIGHT>
528.673

> <BIOSOLVEIT.MOLECULE_CHECKSUM>
LTU0LjA3OTg7MS4zODY2Ng==

> <BIOSOLVEIT.TPSA>
81.85

> <OPTIBRIUM.BBB category>
-

> <OPTIBRIUM.PPB90 category>
high

> <OPTIBRIUM.2C9 pKi>
5.93295

> <OPTIBRIUM.logS @ pH7.4>
1.34117

> <OPTIBRIUM.BBB log([brain]:[blood])>
-0.17445

> <OPTIBRIUM.2D6 affinity category>
medium

> <OPTIBRIUM.logS>
0.321773

> <OPTIBRIUM.logD>
4.19103

> <OPTIBRIUM.hERG pIC50>
7.08667

> <OPTIBRIUM.logP>
5.11964

> <OPTIBRIUM.HIA category>
+

> <OPTIBRIUM.P-gp category>
yes

$$$$
