SX0_A_421_1_003
joSeeSAR  03092211543D 1   1.00000     0.00000     0
SeeSAR 11.2.2 jonathanwahrer
 47 49  0  0  0  0            999 V2000
   25.4669   63.3467   -3.0853 C   0  0  0  0  0  0  0  0  0  0  0  0
   23.6388   61.7408   -3.3722 N   0  3  0  0  0  0  0  0  0  0  0  0
   26.6846   63.3749   -2.8582 O   0  0  0  0  0  0  0  0  0  0  0  0
   15.2679   64.4562  -10.8865 Br  0  0  0  0  0  0  0  0  0  0  0  0
   15.8304   59.5911  -10.2304 N   0  0  0  0  0  0  0  0  0  0  0  0
   17.0806   59.1328  -10.0629 C   0  0  0  0  0  0  0  0  0  0  0  0
   18.1053   59.9999  -10.0786 N   0  0  0  0  0  0  0  0  0  0  0  0
   17.9156   61.3170  -10.2567 C   0  0  0  0  0  0  0  0  0  0  0  0
   16.6402   61.7897  -10.4298 C   0  0  0  0  0  0  0  0  0  0  0  0
   15.5744   60.8922  -10.4128 C   0  0  0  0  0  0  0  0  0  0  0  0
   14.2407   61.2862  -10.5796 N   0  0  0  0  0  0  0  0  0  0  0  0
   16.7387   63.1933  -10.5969 C   0  0  0  0  0  0  0  0  0  0  0  0
   18.0562   63.5383  -10.5257 C   0  0  0  0  0  0  0  0  0  0  0  0
   18.7592   62.3887  -10.3179 N   0  0  0  0  0  0  0  0  0  0  0  0
   24.9535   62.1738   -3.9301 C   0  0  1  0  0  0  0  0  0  0  0  0
   24.8082   62.6151   -5.4049 C   0  0  0  0  0  0  0  0  0  0  0  0
   23.7732   64.4459   -7.3041 S   0  0  0  0  0  0  0  0  0  0  0  0
   24.0026   63.9058   -5.5498 C   0  0  0  0  0  0  0  0  0  0  0  0
   20.2228   62.3193  -10.1817 C   0  0  1  0  0  0  0  0  0  0  0  0
   20.8981   63.3691  -11.0441 C   0  0  2  0  0  0  0  0  0  0  0  0
   21.7987   62.6952  -11.9144 O   0  0  0  0  0  0  0  0  0  0  0  0
   21.6305   64.2468  -10.0528 C   0  0  2  0  0  0  0  0  0  0  0  0
   22.8785   64.7202  -10.5405 O   0  0  0  0  0  0  0  0  0  0  0  0
   21.7807   63.3185   -8.8643 C   0  0  2  0  0  0  0  0  0  0  0  0
   20.5463   62.6230   -8.8359 O   0  0  0  0  0  0  0  0  0  0  0  0
   22.0003   64.1073   -7.5953 C   0  0  0  0  0  0  0  0  0  0  0  0
   24.6355   64.1744   -2.6665 O   0  5  0  0  0  0  0  0  0  0  0  0
   22.9906   61.5967   -4.1200 H   0  0  0  0  0  0  0  0  0  0  0  0
   23.7570   60.8874   -2.8645 H   0  0  0  0  0  0  0  0  0  0  0  0
   17.2470   58.1560   -9.9280 H   0  0  0  0  0  0  0  0  0  0  0  0
   13.9349   62.1739  -10.2356 H   0  0  0  0  0  0  0  0  0  0  0  0
   13.5944   60.6797  -11.0429 H   0  0  0  0  0  0  0  0  0  0  0  0
   18.4350   64.4599  -10.6098 H   0  0  0  0  0  0  0  0  0  0  0  0
   25.6031   61.4157   -3.8738 H   0  0  0  0  0  0  0  0  0  0  0  0
   24.3455   61.8890   -5.9133 H   0  0  0  0  0  0  0  0  0  0  0  0
   25.7203   62.7612   -5.7878 H   0  0  0  0  0  0  0  0  0  0  0  0
   24.4791   64.6327   -5.0554 H   0  0  0  0  0  0  0  0  0  0  0  0
   23.1003   63.7621   -5.1431 H   0  0  0  0  0  0  0  0  0  0  0  0
   20.5524   61.4064  -10.4220 H   0  0  0  0  0  0  0  0  0  0  0  0
   20.2244   63.8964  -11.5619 H   0  0  0  0  0  0  0  0  0  0  0  0
   21.5251   61.7372  -12.0005 H   0  0  0  0  0  0  0  0  0  0  0  0
   21.0525   65.0231   -9.8011 H   0  0  0  0  0  0  0  0  0  0  0  0
   23.1493   64.1835  -11.3397 H   0  0  0  0  0  0  0  0  0  0  0  0
   22.5365   62.6809   -9.0134 H   0  0  0  0  0  0  0  0  0  0  0  0
   21.6394   63.5847   -6.8229 H   0  0  0  0  0  0  0  0  0  0  0  0
   21.5122   64.9772   -7.6665 H   0  0  0  0  0  0  0  0  0  0  0  0
   23.2879   62.4479   -2.7584 H   0  0  0  0  0  0  0  0  0  0  0  0
  1  3  2  0  0  0  0
  1 15  1  0  0  0  0
  1 27  1  0  0  0  0
  2 15  1  0  0  0  0
  4 12  1  0  0  0  0
  5  6  2  0  0  0  0
  5 10  1  0  0  0  0
  6  7  1  0  0  0  0
  7  8  2  0  0  0  0
  8  9  1  0  0  0  0
  8 14  1  0  0  0  0
  9 10  2  0  0  0  0
  9 12  1  0  0  0  0
 10 11  1  0  0  0  0
 12 13  2  0  0  0  0
 13 14  1  0  0  0  0
 14 19  1  0  0  0  0
 15 16  1  0  0  0  0
 16 18  1  0  0  0  0
 17 18  1  0  0  0  0
 17 26  1  0  0  0  0
 19 20  1  0  0  0  0
 19 25  1  0  0  0  0
 20 21  1  0  0  0  0
 20 22  1  0  0  0  0
 22 23  1  0  0  0  0
 22 24  1  0  0  0  0
 24 25  1  0  0  0  0
 24 26  1  0  0  0  0
  2 28  1  0  0  0  0
  2 29  1  0  0  0  0
 26 46  1  0  0  0  0
  6 30  1  0  0  0  0
 11 31  1  0  0  0  0
 11 32  1  0  0  0  0
 13 33  1  0  0  0  0
 15 34  1  0  0  0  0
 16 35  1  0  0  0  0
 16 36  1  0  0  0  0
 18 37  1  0  0  0  0
 18 38  1  0  0  0  0
 19 39  1  0  0  0  0
 20 40  1  0  0  0  0
 21 41  1  0  0  0  0
 22 42  1  0  0  0  0
 23 43  1  0  0  0  0
 24 44  1  0  0  0  0
 26 45  1  0  0  0  0
  2 47  1  0  0  0  0
M  CHG  2   2   1  27  -1
M  END
> <BIOSOLVEIT.HYDE_ESTIMATED_AFFINITY_LOWER_BOUNDARY [nM]>
15671697136.246771

> <BIOSOLVEIT.HYDE_ESTIMATED_AFFINITY_UPPER_BOUNDARY [nM]>
1557075768892.680664

> <BIOSOLVEIT.HYDE_LIGAND_EFFICIENCY range: ++, +, 0, -, -->
--

> <BIOSOLVEIT.HYDE_LIGAND_LIPOPHILIC_EFFICIENCY range: ++, +, 0, -, -->
--

> <BIOSOLVEIT.LOGP>
-2.1211

> <BIOSOLVEIT.MOLECULAR WEIGHT>
462.322

> <BIOSOLVEIT.MOLECULE_CHECKSUM>
MTIuNTIxNzsw

> <BIOSOLVEIT.TPSA>
174.19

> <OPTIBRIUM.BBB category>
-

> <OPTIBRIUM.PPB90 category>
low

> <OPTIBRIUM.2C9 pKi>
5.01149

> <OPTIBRIUM.logS @ pH7.4>
2.40859

> <OPTIBRIUM.BBB log([brain]:[blood])>
-1.71924

> <OPTIBRIUM.2D6 affinity category>
low

> <OPTIBRIUM.logS>
2.48611

> <OPTIBRIUM.logD>
-1.46316

> <OPTIBRIUM.hERG pIC50>
3.43235

> <OPTIBRIUM.logP>
-1.84791

> <OPTIBRIUM.HIA category>
-

> <OPTIBRIUM.P-gp category>
yes

$$$$
SX0_A_421_1_002
joSeeSAR  03092211543D 1   1.00000     0.00000     0
SeeSAR 11.2.2 jonathanwahrer
 47 49  0  0  0  0            999 V2000
   25.4760   63.3523   -3.0980 C   0  0  0  0  0  0  0  0  0  0  0  0
   23.6125   61.7896   -3.3963 N   0  3  0  0  0  0  0  0  0  0  0  0
   26.6919   63.3909   -2.8628 O   0  0  0  0  0  0  0  0  0  0  0  0
   15.0938   64.5832  -10.8304 Br  0  0  0  0  0  0  0  0  0  0  0  0
   15.6768   59.7062  -10.2901 N   0  0  0  0  0  0  0  0  0  0  0  0
   16.9212   59.2556  -10.0683 C   0  0  0  0  0  0  0  0  0  0  0  0
   17.9351   60.1331  -10.0019 N   0  0  0  0  0  0  0  0  0  0  0  0
   17.7400   61.4531  -10.1507 C   0  0  0  0  0  0  0  0  0  0  0  0
   16.4704   61.9180  -10.3791 C   0  0  0  0  0  0  0  0  0  0  0  0
   15.4158   61.0096  -10.4474 C   0  0  0  0  0  0  0  0  0  0  0  0
   14.0888   61.3950  -10.6752 N   0  0  0  0  0  0  0  0  0  0  0  0
   16.5614   63.3269  -10.4987 C   0  0  0  0  0  0  0  0  0  0  0  0
   17.8689   63.6828  -10.3451 C   0  0  0  0  0  0  0  0  0  0  0  0
   18.5730   62.5345  -10.1336 N   0  0  0  0  0  0  0  0  0  0  0  0
   24.9705   62.1475   -3.9016 C   0  0  1  0  0  0  0  0  0  0  0  0
   24.9229   62.5039   -5.4054 C   0  0  0  0  0  0  0  0  0  0  0  0
   24.0027   64.2107   -7.4717 S   0  0  0  0  0  0  0  0  0  0  0  0
   24.0584   63.7325   -5.6856 C   0  0  0  0  0  0  0  0  0  0  0  0
   20.0270   62.4759   -9.9197 C   0  0  1  0  0  0  0  0  0  0  0  0
   20.6796   63.3726  -10.9498 C   0  0  2  0  0  0  0  0  0  0  0  0
   21.0588   62.6403  -12.1087 O   0  0  0  0  0  0  0  0  0  0  0  0
   21.8616   63.9498  -10.2002 C   0  0  2  0  0  0  0  0  0  0  0  0
   23.1066   63.6217  -10.7996 O   0  0  0  0  0  0  0  0  0  0  0  0
   21.7423   63.3317   -8.8258 C   0  0  2  0  0  0  0  0  0  0  0  0
   20.3493   63.1270   -8.7129 O   0  0  0  0  0  0  0  0  0  0  0  0
   22.2075   64.3430   -7.7916 C   0  0  0  0  0  0  0  0  0  0  0  0
   24.6404   64.1941   -2.7174 O   0  5  0  0  0  0  0  0  0  0  0  0
   23.0008   61.6277   -4.1707 H   0  0  0  0  0  0  0  0  0  0  0  0
   23.6717   60.9612   -2.8393 H   0  0  0  0  0  0  0  0  0  0  0  0
   17.0915   58.2769   -9.9536 H   0  0  0  0  0  0  0  0  0  0  0  0
   13.7421   62.2484  -10.2861 H   0  0  0  0  0  0  0  0  0  0  0  0
   13.4878   60.8167  -11.2270 H   0  0  0  0  0  0  0  0  0  0  0  0
   18.2408   64.6103  -10.3808 H   0  0  0  0  0  0  0  0  0  0  0  0
   25.5895   61.3742   -3.7639 H   0  0  0  0  0  0  0  0  0  0  0  0
   24.5474   61.7254   -5.9082 H   0  0  0  0  0  0  0  0  0  0  0  0
   25.8538   62.6872   -5.7215 H   0  0  0  0  0  0  0  0  0  0  0  0
   24.4256   64.5027   -5.1638 H   0  0  0  0  0  0  0  0  0  0  0  0
   23.1257   63.5384   -5.3815 H   0  0  0  0  0  0  0  0  0  0  0  0
   20.3786   61.5404   -9.9527 H   0  0  0  0  0  0  0  0  0  0  0  0
   20.0507   64.1070  -11.2052 H   0  0  0  0  0  0  0  0  0  0  0  0
   21.4047   61.7422  -11.8370 H   0  0  0  0  0  0  0  0  0  0  0  0
   21.7688   64.9433  -10.1342 H   0  0  0  0  0  0  0  0  0  0  0  0
   23.1419   64.0017  -11.7239 H   0  0  0  0  0  0  0  0  0  0  0  0
   22.2503   62.4729   -8.7596 H   0  0  0  0  0  0  0  0  0  0  0  0
   21.7137   64.1823   -6.9370 H   0  0  0  0  0  0  0  0  0  0  0  0
   22.0052   65.2636   -8.1255 H   0  0  0  0  0  0  0  0  0  0  0  0
   23.2552   62.5403   -2.8406 H   0  0  0  0  0  0  0  0  0  0  0  0
  1  3  2  0  0  0  0
  1 15  1  0  0  0  0
  1 27  1  0  0  0  0
  2 15  1  0  0  0  0
  4 12  1  0  0  0  0
  5  6  2  0  0  0  0
  5 10  1  0  0  0  0
  6  7  1  0  0  0  0
  7  8  2  0  0  0  0
  8  9  1  0  0  0  0
  8 14  1  0  0  0  0
  9 10  2  0  0  0  0
  9 12  1  0  0  0  0
 10 11  1  0  0  0  0
 12 13  2  0  0  0  0
 13 14  1  0  0  0  0
 14 19  1  0  0  0  0
 15 16  1  0  0  0  0
 16 18  1  0  0  0  0
 17 18  1  0  0  0  0
 17 26  1  0  0  0  0
 19 20  1  0  0  0  0
 19 25  1  0  0  0  0
 20 21  1  0  0  0  0
 20 22  1  0  0  0  0
 22 23  1  0  0  0  0
 22 24  1  0  0  0  0
 24 25  1  0  0  0  0
 24 26  1  0  0  0  0
  2 28  1  0  0  0  0
  2 29  1  0  0  0  0
 26 46  1  0  0  0  0
  6 30  1  0  0  0  0
 11 31  1  0  0  0  0
 11 32  1  0  0  0  0
 13 33  1  0  0  0  0
 15 34  1  0  0  0  0
 16 35  1  0  0  0  0
 16 36  1  0  0  0  0
 18 37  1  0  0  0  0
 18 38  1  0  0  0  0
 19 39  1  0  0  0  0
 20 40  1  0  0  0  0
 21 41  1  0  0  0  0
 22 42  1  0  0  0  0
 23 43  1  0  0  0  0
 24 44  1  0  0  0  0
 26 45  1  0  0  0  0
  2 47  1  0  0  0  0
M  CHG  2   2   1  27  -1
M  END
> <BIOSOLVEIT.HYDE_ESTIMATED_AFFINITY_LOWER_BOUNDARY [nM]>
165501765266.742554

> <BIOSOLVEIT.HYDE_ESTIMATED_AFFINITY_UPPER_BOUNDARY [nM]>
16443578903128.650391

> <BIOSOLVEIT.HYDE_LIGAND_EFFICIENCY range: ++, +, 0, -, -->
--

> <BIOSOLVEIT.HYDE_LIGAND_LIPOPHILIC_EFFICIENCY range: ++, +, 0, -, -->
--

> <BIOSOLVEIT.LOGP>
-2.1211

> <BIOSOLVEIT.MOLECULAR WEIGHT>
462.322

> <BIOSOLVEIT.MOLECULE_CHECKSUM>
MTguMzY0OTsw

> <BIOSOLVEIT.TPSA>
174.19

> <OPTIBRIUM.BBB category>
-

> <OPTIBRIUM.PPB90 category>
low

> <OPTIBRIUM.2C9 pKi>
5.01149

> <OPTIBRIUM.logS @ pH7.4>
2.40859

> <OPTIBRIUM.BBB log([brain]:[blood])>
-1.71924

> <OPTIBRIUM.2D6 affinity category>
low

> <OPTIBRIUM.logS>
2.48611

> <OPTIBRIUM.logD>
-1.46316

> <OPTIBRIUM.hERG pIC50>
3.43235

> <OPTIBRIUM.logP>
-1.84791

> <OPTIBRIUM.HIA category>
-

> <OPTIBRIUM.P-gp category>
yes

$$$$
SX0_A_421_1_001
joSeeSAR  03092211543D 1   1.00000     0.00000     0
SeeSAR 11.2.2 jonathanwahrer
 47 49  0  0  0  0            999 V2000
   25.4760   63.3527   -3.0988 C   0  0  0  0  0  0  0  0  0  0  0  0
   23.6122   61.7902   -3.3967 N   0  3  0  0  0  0  0  0  0  0  0  0
   26.6918   63.3915   -2.8640 O   0  0  0  0  0  0  0  0  0  0  0  0
   15.0951   64.5827  -10.8304 Br  0  0  0  0  0  0  0  0  0  0  0  0
   15.6785   59.7060  -10.2897 N   0  0  0  0  0  0  0  0  0  0  0  0
   16.9229   59.2556  -10.0669 C   0  0  0  0  0  0  0  0  0  0  0  0
   17.9366   60.1331   -9.9998 N   0  0  0  0  0  0  0  0  0  0  0  0
   17.7413   61.4530  -10.1489 C   0  0  0  0  0  0  0  0  0  0  0  0
   16.4720   61.9178  -10.3781 C   0  0  0  0  0  0  0  0  0  0  0  0
   15.4175   61.0093  -10.4471 C   0  0  0  0  0  0  0  0  0  0  0  0
   14.0904   61.3945  -10.6759 N   0  0  0  0  0  0  0  0  0  0  0  0
   16.5628   63.3267  -10.4977 C   0  0  0  0  0  0  0  0  0  0  0  0
   17.8701   63.6828  -10.3432 C   0  0  0  0  0  0  0  0  0  0  0  0
   18.5742   62.5347  -10.1311 N   0  0  0  0  0  0  0  0  0  0  0  0
   24.9703   62.1476   -3.9020 C   0  0  1  0  0  0  0  0  0  0  0  0
   24.9230   62.5035   -5.4059 C   0  0  0  0  0  0  0  0  0  0  0  0
   23.9998   64.2071   -7.4735 S   0  0  0  0  0  0  0  0  0  0  0  0
   24.0579   63.7317   -5.6867 C   0  0  0  0  0  0  0  0  0  0  0  0
   20.0282   62.4763   -9.9163 C   0  0  1  0  0  0  0  0  0  0  0  0
   20.6814   63.3738  -10.9454 C   0  0  2  0  0  0  0  0  0  0  0  0
   21.0616   62.6422  -12.1044 O   0  0  0  0  0  0  0  0  0  0  0  0
   21.8628   63.9507  -10.1947 C   0  0  2  0  0  0  0  0  0  0  0  0
   23.1082   63.6234  -10.7934 O   0  0  0  0  0  0  0  0  0  0  0  0
   21.7427   63.3319   -8.8206 C   0  0  2  0  0  0  0  0  0  0  0  0
   20.3496   63.1267   -8.7089 O   0  0  0  0  0  0  0  0  0  0  0  0
   22.2041   64.3365   -7.7918 C   0  0  0  0  0  0  0  0  0  0  0  0
   24.6403   64.1946   -2.7182 O   0  5  0  0  0  0  0  0  0  0  0  0
   23.0005   61.6283   -4.1710 H   0  0  0  0  0  0  0  0  0  0  0  0
   23.6712   60.9619   -2.8395 H   0  0  0  0  0  0  0  0  0  0  0  0
   17.0933   58.2769   -9.9521 H   0  0  0  0  0  0  0  0  0  0  0  0
   13.7434   62.2478  -10.2868 H   0  0  0  0  0  0  0  0  0  0  0  0
   13.4900   60.8161  -11.2281 H   0  0  0  0  0  0  0  0  0  0  0  0
   18.2420   64.6104  -10.3787 H   0  0  0  0  0  0  0  0  0  0  0  0
   25.5891   61.3744   -3.7638 H   0  0  0  0  0  0  0  0  0  0  0  0
   24.5479   61.7246   -5.9085 H   0  0  0  0  0  0  0  0  0  0  0  0
   25.8538   62.6871   -5.7219 H   0  0  0  0  0  0  0  0  0  0  0  0
   24.4258   64.5026   -5.1667 H   0  0  0  0  0  0  0  0  0  0  0  0
   23.1258   63.5379   -5.3811 H   0  0  0  0  0  0  0  0  0  0  0  0
   20.3802   61.5408   -9.9496 H   0  0  0  0  0  0  0  0  0  0  0  0
   20.0524   64.1080  -11.2009 H   0  0  0  0  0  0  0  0  0  0  0  0
   21.4082   61.7444  -11.8330 H   0  0  0  0  0  0  0  0  0  0  0  0
   21.7696   64.9442  -10.1281 H   0  0  0  0  0  0  0  0  0  0  0  0
   23.1442   64.0041  -11.7173 H   0  0  0  0  0  0  0  0  0  0  0  0
   22.2507   62.4731   -8.7547 H   0  0  0  0  0  0  0  0  0  0  0  0
   21.7113   64.1738   -6.9369 H   0  0  0  0  0  0  0  0  0  0  0  0
   21.9998   65.2572   -8.1243 H   0  0  0  0  0  0  0  0  0  0  0  0
   23.2550   62.5410   -2.8410 H   0  0  0  0  0  0  0  0  0  0  0  0
  1  3  2  0  0  0  0
  1 15  1  0  0  0  0
  1 27  1  0  0  0  0
  2 15  1  0  0  0  0
  4 12  1  0  0  0  0
  5  6  2  0  0  0  0
  5 10  1  0  0  0  0
  6  7  1  0  0  0  0
  7  8  2  0  0  0  0
  8  9  1  0  0  0  0
  8 14  1  0  0  0  0
  9 10  2  0  0  0  0
  9 12  1  0  0  0  0
 10 11  1  0  0  0  0
 12 13  2  0  0  0  0
 13 14  1  0  0  0  0
 14 19  1  0  0  0  0
 15 16  1  0  0  0  0
 16 18  1  0  0  0  0
 17 18  1  0  0  0  0
 17 26  1  0  0  0  0
 19 20  1  0  0  0  0
 19 25  1  0  0  0  0
 20 21  1  0  0  0  0
 20 22  1  0  0  0  0
 22 23  1  0  0  0  0
 22 24  1  0  0  0  0
 24 25  1  0  0  0  0
 24 26  1  0  0  0  0
  2 28  1  0  0  0  0
  2 29  1  0  0  0  0
 26 46  1  0  0  0  0
  6 30  1  0  0  0  0
 11 31  1  0  0  0  0
 11 32  1  0  0  0  0
 13 33  1  0  0  0  0
 15 34  1  0  0  0  0
 16 35  1  0  0  0  0
 16 36  1  0  0  0  0
 18 37  1  0  0  0  0
 18 38  1  0  0  0  0
 19 39  1  0  0  0  0
 20 40  1  0  0  0  0
 21 41  1  0  0  0  0
 22 42  1  0  0  0  0
 23 43  1  0  0  0  0
 24 44  1  0  0  0  0
 26 45  1  0  0  0  0
  2 47  1  0  0  0  0
M  CHG  2   2   1  27  -1
M  END
> <BIOSOLVEIT.HYDE_ESTIMATED_AFFINITY_LOWER_BOUNDARY [nM]>
170117630320.539886

> <BIOSOLVEIT.HYDE_ESTIMATED_AFFINITY_UPPER_BOUNDARY [nM]>
16902192387377.472656

> <BIOSOLVEIT.HYDE_LIGAND_EFFICIENCY range: ++, +, 0, -, -->
--

> <BIOSOLVEIT.HYDE_LIGAND_LIPOPHILIC_EFFICIENCY range: ++, +, 0, -, -->
--

> <BIOSOLVEIT.LOGP>
-2.1211

> <BIOSOLVEIT.MOLECULAR WEIGHT>
462.322

> <BIOSOLVEIT.MOLECULE_CHECKSUM>
MTguNDMzMTsw

> <BIOSOLVEIT.TPSA>
174.19

> <OPTIBRIUM.BBB category>
-

> <OPTIBRIUM.PPB90 category>
low

> <OPTIBRIUM.2C9 pKi>
5.01149

> <OPTIBRIUM.logS @ pH7.4>
2.40859

> <OPTIBRIUM.BBB log([brain]:[blood])>
-1.71924

> <OPTIBRIUM.2D6 affinity category>
low

> <OPTIBRIUM.logS>
2.48611

> <OPTIBRIUM.logD>
-1.46316

> <OPTIBRIUM.hERG pIC50>
3.43235

> <OPTIBRIUM.logP>
-1.84791

> <OPTIBRIUM.HIA category>
-

> <OPTIBRIUM.P-gp category>
yes

$$$$
SX0_A_421_1_005
joSeeSAR  03092211543D 1   1.00000     0.00000     0
SeeSAR 11.2.2 jonathanwahrer
 47 49  0  0  0  0            999 V2000
   25.4588   63.3557   -3.0949 C   0  0  0  0  0  0  0  0  0  0  0  0
   23.6366   61.7414   -3.3732 N   0  3  0  0  0  0  0  0  0  0  0  0
   26.6767   63.3817   -2.8689 O   0  0  0  0  0  0  0  0  0  0  0  0
   15.1622   64.6007  -10.8618 Br  0  0  0  0  0  0  0  0  0  0  0  0
   15.6297   59.7157  -10.2831 N   0  0  0  0  0  0  0  0  0  0  0  0
   16.8701   59.2310  -10.1184 C   0  0  0  0  0  0  0  0  0  0  0  0
   17.9111   60.0786  -10.1157 N   0  0  0  0  0  0  0  0  0  0  0  0
   17.7472   61.4018  -10.2730 C   0  0  0  0  0  0  0  0  0  0  0  0
   16.4818   61.9015  -10.4433 C   0  0  0  0  0  0  0  0  0  0  0  0
   15.3990   61.0242  -10.4454 C   0  0  0  0  0  0  0  0  0  0  0  0
   14.0738   61.4462  -10.6110 N   0  0  0  0  0  0  0  0  0  0  0  0
   16.6076   63.3054  -10.5872 C   0  0  0  0  0  0  0  0  0  0  0  0
   17.9311   63.6241  -10.5050 C   0  0  0  0  0  0  0  0  0  0  0  0
   18.6112   62.4581  -10.3133 N   0  0  0  0  0  0  0  0  0  0  0  0
   24.9430   62.1853   -3.9419 C   0  0  1  0  0  0  0  0  0  0  0  0
   24.7799   62.6352   -5.4120 C   0  0  0  0  0  0  0  0  0  0  0  0
   23.6628   64.4345   -7.2947 S   0  0  0  0  0  0  0  0  0  0  0  0
   23.8769   63.8606   -5.5494 C   0  0  0  0  0  0  0  0  0  0  0  0
   20.0719   62.3587  -10.1725 C   0  0  1  0  0  0  0  0  0  0  0  0
   20.7717   63.3838  -11.0448 C   0  0  2  0  0  0  0  0  0  0  0  0
   21.6597   62.6808  -11.9051 O   0  0  0  0  0  0  0  0  0  0  0  0
   21.5207   64.2565  -10.0614 C   0  0  2  0  0  0  0  0  0  0  0  0
   22.7797   64.6973  -10.5512 O   0  0  0  0  0  0  0  0  0  0  0  0
   21.6479   63.3387   -8.8622 C   0  0  2  0  0  0  0  0  0  0  0  0
   20.3987   62.6704   -8.8293 O   0  0  0  0  0  0  0  0  0  0  0  0
   21.8830   64.1418   -7.5937 C   0  0  0  0  0  0  0  0  0  0  0  0
   24.6288   64.1834   -2.6733 O   0  5  0  0  0  0  0  0  0  0  0  0
   22.9899   61.5715   -4.1167 H   0  0  0  0  0  0  0  0  0  0  0  0
   23.7699   60.9005   -2.8486 H   0  0  0  0  0  0  0  0  0  0  0  0
   17.0173   58.2492   -9.9987 H   0  0  0  0  0  0  0  0  0  0  0  0
   13.7797   62.3272  -10.2406 H   0  0  0  0  0  0  0  0  0  0  0  0
   13.4219   60.8665  -11.0998 H   0  0  0  0  0  0  0  0  0  0  0  0
   18.3277   64.5396  -10.5725 H   0  0  0  0  0  0  0  0  0  0  0  0
   25.5973   61.4305   -3.8972 H   0  0  0  0  0  0  0  0  0  0  0  0
   24.3815   61.8824   -5.9360 H   0  0  0  0  0  0  0  0  0  0  0  0
   25.6819   62.8580   -5.7818 H   0  0  0  0  0  0  0  0  0  0  0  0
   24.2759   64.6079   -5.0179 H   0  0  0  0  0  0  0  0  0  0  0  0
   22.9764   63.6322   -5.1793 H   0  0  0  0  0  0  0  0  0  0  0  0
   20.3822   61.4361  -10.4016 H   0  0  0  0  0  0  0  0  0  0  0  0
   20.1110   63.9197  -11.5703 H   0  0  0  0  0  0  0  0  0  0  0  0
   22.5255   63.1773  -11.9682 H   0  0  0  0  0  0  0  0  0  0  0  0
   20.9590   65.0479   -9.8201 H   0  0  0  0  0  0  0  0  0  0  0  0
   23.2349   65.2488   -9.8521 H   0  0  0  0  0  0  0  0  0  0  0  0
   22.3900   62.6833   -9.0022 H   0  0  0  0  0  0  0  0  0  0  0  0
   21.5028   63.6391   -6.8172 H   0  0  0  0  0  0  0  0  0  0  0  0
   21.4197   65.0240   -7.6786 H   0  0  0  0  0  0  0  0  0  0  0  0
   23.2746   62.4547   -2.7731 H   0  0  0  0  0  0  0  0  0  0  0  0
  1  3  2  0  0  0  0
  1 15  1  0  0  0  0
  1 27  1  0  0  0  0
  2 15  1  0  0  0  0
  4 12  1  0  0  0  0
  5  6  2  0  0  0  0
  5 10  1  0  0  0  0
  6  7  1  0  0  0  0
  7  8  2  0  0  0  0
  8  9  1  0  0  0  0
  8 14  1  0  0  0  0
  9 10  2  0  0  0  0
  9 12  1  0  0  0  0
 10 11  1  0  0  0  0
 12 13  2  0  0  0  0
 13 14  1  0  0  0  0
 14 19  1  0  0  0  0
 15 16  1  0  0  0  0
 16 18  1  0  0  0  0
 17 18  1  0  0  0  0
 17 26  1  0  0  0  0
 19 20  1  0  0  0  0
 19 25  1  0  0  0  0
 20 21  1  0  0  0  0
 20 22  1  0  0  0  0
 22 23  1  0  0  0  0
 22 24  1  0  0  0  0
 24 25  1  0  0  0  0
 24 26  1  0  0  0  0
  2 28  1  0  0  0  0
  2 29  1  0  0  0  0
 26 46  1  0  0  0  0
  6 30  1  0  0  0  0
 11 31  1  0  0  0  0
 11 32  1  0  0  0  0
 13 33  1  0  0  0  0
 15 34  1  0  0  0  0
 16 35  1  0  0  0  0
 16 36  1  0  0  0  0
 18 37  1  0  0  0  0
 18 38  1  0  0  0  0
 19 39  1  0  0  0  0
 20 40  1  0  0  0  0
 21 41  1  0  0  0  0
 22 42  1  0  0  0  0
 23 43  1  0  0  0  0
 24 44  1  0  0  0  0
 26 45  1  0  0  0  0
  2 47  1  0  0  0  0
M  CHG  2   2   1  27  -1
M  END
> <BIOSOLVEIT.HYDE_ESTIMATED_AFFINITY_LOWER_BOUNDARY [nM]>
3023043867347.473633

> <BIOSOLVEIT.HYDE_ESTIMATED_AFFINITY_UPPER_BOUNDARY [nM]>
300357281870856.812500

> <BIOSOLVEIT.HYDE_LIGAND_EFFICIENCY range: ++, +, 0, -, -->
--

> <BIOSOLVEIT.HYDE_LIGAND_LIPOPHILIC_EFFICIENCY range: ++, +, 0, -, -->
--

> <BIOSOLVEIT.LOGP>
-2.1211

> <BIOSOLVEIT.MOLECULAR WEIGHT>
462.322

> <BIOSOLVEIT.MOLECULE_CHECKSUM>
MjUuNTY2NDsw

> <BIOSOLVEIT.TPSA>
174.19

> <OPTIBRIUM.BBB category>
-

> <OPTIBRIUM.PPB90 category>
low

> <OPTIBRIUM.2C9 pKi>
5.01149

> <OPTIBRIUM.logS @ pH7.4>
2.40859

> <OPTIBRIUM.BBB log([brain]:[blood])>
-1.71924

> <OPTIBRIUM.2D6 affinity category>
low

> <OPTIBRIUM.logS>
2.48611

> <OPTIBRIUM.logD>
-1.46316

> <OPTIBRIUM.hERG pIC50>
3.43235

> <OPTIBRIUM.logP>
-1.84791

> <OPTIBRIUM.HIA category>
-

> <OPTIBRIUM.P-gp category>
yes

$$$$
SX0_A_421_1_004
joSeeSAR  03092211543D 1   1.00000     0.00000     0
SeeSAR 11.2.2 jonathanwahrer
 47 49  0  0  0  0            999 V2000
   25.5430   63.7434   -3.2617 C   0  0  0  0  0  0  0  0  0  0  0  0
   25.4047   61.8736   -4.8391 N   0  3  0  0  0  0  0  0  0  0  0  0
   24.7621   64.4957   -2.6624 O   0  0  0  0  0  0  0  0  0  0  0  0
   14.8866   64.5993  -10.7824 Br  0  0  0  0  0  0  0  0  0  0  0  0
   15.5977   59.7315  -10.3177 N   0  0  0  0  0  0  0  0  0  0  0  0
   16.8598   59.3066  -10.1532 C   0  0  0  0  0  0  0  0  0  0  0  0
   17.8563   60.2055  -10.1206 N   0  0  0  0  0  0  0  0  0  0  0  0
   17.6265   61.5222  -10.2474 C   0  0  0  0  0  0  0  0  0  0  0  0
   16.3387   61.9611  -10.4173 C   0  0  0  0  0  0  0  0  0  0  0  0
   15.3021   61.0303  -10.4504 C   0  0  0  0  0  0  0  0  0  0  0  0
   13.9584   61.3884  -10.6180 N   0  0  0  0  0  0  0  0  0  0  0  0
   16.3938   63.3727  -10.5259 C   0  0  0  0  0  0  0  0  0  0  0  0
   17.6987   63.7560  -10.4240 C   0  0  0  0  0  0  0  0  0  0  0  0
   18.4359   62.6216  -10.2543 N   0  0  0  0  0  0  0  0  0  0  0  0
   25.1453   63.3354   -4.6860 C   0  0  1  0  0  0  0  0  0  0  0  0
   23.6524   63.6585   -4.9254 C   0  0  0  0  0  0  0  0  0  0  0  0
   23.7789   64.4231   -7.6511 S   0  0  0  0  0  0  0  0  0  0  0  0
   23.4573   64.8381   -5.8774 C   0  0  0  0  0  0  0  0  0  0  0  0
   19.8985   62.5931  -10.1026 C   0  0  1  0  0  0  0  0  0  0  0  0
   20.4989   63.2904  -11.3044 C   0  0  2  0  0  0  0  0  0  0  0  0
   20.8243   62.3629  -12.3326 O   0  0  0  0  0  0  0  0  0  0  0  0
   21.7139   63.9838  -10.7253 C   0  0  2  0  0  0  0  0  0  0  0  0
   22.9297   63.5479  -11.3158 O   0  0  0  0  0  0  0  0  0  0  0  0
   21.6618   63.6185   -9.2593 C   0  0  2  0  0  0  0  0  0  0  0  0
   20.2763   63.4451   -9.0462 O   0  0  0  0  0  0  0  0  0  0  0  0
   22.1731   64.7934   -8.4431 C   0  0  0  0  0  0  0  0  0  0  0  0
   26.6232   63.3171   -2.8109 O   0  5  0  0  0  0  0  0  0  0  0  0
   24.7397   61.4820   -5.4751 H   0  0  0  0  0  0  0  0  0  0  0  0
   26.3286   61.7346   -5.1955 H   0  0  0  0  0  0  0  0  0  0  0  0
   17.0560   58.3309  -10.0561 H   0  0  0  0  0  0  0  0  0  0  0  0
   13.6121   62.2344  -10.2125 H   0  0  0  0  0  0  0  0  0  0  0  0
   13.3453   60.7980  -11.1430 H   0  0  0  0  0  0  0  0  0  0  0  0
   18.0486   64.6918  -10.4658 H   0  0  0  0  0  0  0  0  0  0  0  0
   25.7033   63.8415   -5.3435 H   0  0  0  0  0  0  0  0  0  0  0  0
   23.2269   63.8801   -4.0480 H   0  0  0  0  0  0  0  0  0  0  0  0
   23.2083   62.8527   -5.3172 H   0  0  0  0  0  0  0  0  0  0  0  0
   24.0826   65.5697   -5.6058 H   0  0  0  0  0  0  0  0  0  0  0  0
   22.5136   65.1582   -5.7940 H   0  0  0  0  0  0  0  0  0  0  0  0
   20.2507   61.6644   -9.9866 H   0  0  0  0  0  0  0  0  0  0  0  0
   19.8566   63.9717  -11.6554 H   0  0  0  0  0  0  0  0  0  0  0  0
   20.8527   61.4389  -11.9511 H   0  0  0  0  0  0  0  0  0  0  0  0
   21.6216   64.9738  -10.8314 H   0  0  0  0  0  0  0  0  0  0  0  0
   23.6076   64.2811  -11.2630 H   0  0  0  0  0  0  0  0  0  0  0  0
   22.1746   62.7818   -9.0669 H   0  0  0  0  0  0  0  0  0  0  0  0
   21.5038   65.0094   -7.7322 H   0  0  0  0  0  0  0  0  0  0  0  0
   22.2844   65.5828   -9.0468 H   0  0  0  0  0  0  0  0  0  0  0  0
   25.3194   61.4249   -3.9496 H   0  0  0  0  0  0  0  0  0  0  0  0
  1  3  2  0  0  0  0
  1 15  1  0  0  0  0
  1 27  1  0  0  0  0
  2 15  1  0  0  0  0
  4 12  1  0  0  0  0
  5  6  2  0  0  0  0
  5 10  1  0  0  0  0
  6  7  1  0  0  0  0
  7  8  2  0  0  0  0
  8  9  1  0  0  0  0
  8 14  1  0  0  0  0
  9 10  2  0  0  0  0
  9 12  1  0  0  0  0
 10 11  1  0  0  0  0
 12 13  2  0  0  0  0
 13 14  1  0  0  0  0
 14 19  1  0  0  0  0
 15 16  1  0  0  0  0
 16 18  1  0  0  0  0
 17 18  1  0  0  0  0
 17 26  1  0  0  0  0
 19 20  1  0  0  0  0
 19 25  1  0  0  0  0
 20 21  1  0  0  0  0
 20 22  1  0  0  0  0
 22 23  1  0  0  0  0
 22 24  1  0  0  0  0
 24 25  1  0  0  0  0
 24 26  1  0  0  0  0
  2 28  1  0  0  0  0
  2 29  1  0  0  0  0
 26 46  1  0  0  0  0
  6 30  1  0  0  0  0
 11 31  1  0  0  0  0
 11 32  1  0  0  0  0
 13 33  1  0  0  0  0
 15 34  1  0  0  0  0
 16 35  1  0  0  0  0
 16 36  1  0  0  0  0
 18 37  1  0  0  0  0
 18 38  1  0  0  0  0
 19 39  1  0  0  0  0
 20 40  1  0  0  0  0
 21 41  1  0  0  0  0
 22 42  1  0  0  0  0
 23 43  1  0  0  0  0
 24 44  1  0  0  0  0
 26 45  1  0  0  0  0
  2 47  1  0  0  0  0
M  CHG  2   2   1  27  -1
M  END
> <BIOSOLVEIT.HYDE_ESTIMATED_AFFINITY_LOWER_BOUNDARY [nM]>
224611058690362.593750

> <BIOSOLVEIT.HYDE_ESTIMATED_AFFINITY_UPPER_BOUNDARY [nM]>
22316436686566460.000000

> <BIOSOLVEIT.HYDE_LIGAND_EFFICIENCY range: ++, +, 0, -, -->
--

> <BIOSOLVEIT.HYDE_LIGAND_LIPOPHILIC_EFFICIENCY range: ++, +, 0, -, -->
--

> <BIOSOLVEIT.LOGP>
-2.1211

> <BIOSOLVEIT.MOLECULAR WEIGHT>
462.322

> <BIOSOLVEIT.MOLECULE_CHECKSUM>
MzYuMjQ2OzA=

> <BIOSOLVEIT.TPSA>
174.19

> <OPTIBRIUM.BBB category>
-

> <OPTIBRIUM.PPB90 category>
low

> <OPTIBRIUM.2C9 pKi>
5.01149

> <OPTIBRIUM.logS @ pH7.4>
2.40859

> <OPTIBRIUM.BBB log([brain]:[blood])>
-1.71924

> <OPTIBRIUM.2D6 affinity category>
low

> <OPTIBRIUM.logS>
2.48611

> <OPTIBRIUM.logD>
-1.46316

> <OPTIBRIUM.hERG pIC50>
3.43235

> <OPTIBRIUM.logP>
-1.84791

> <OPTIBRIUM.HIA category>
-

> <OPTIBRIUM.P-gp category>
yes

$$$$
SX0_A_421_1_007
joSeeSAR  03092211543D 1   1.00000     0.00000     0
SeeSAR 11.2.2 jonathanwahrer
 47 49  0  0  0  0            999 V2000
   25.7368   62.8170   -3.2118 C   0  0  0  0  0  0  0  0  0  0  0  0
   23.3495   62.3157   -2.9814 N   0  3  0  0  0  0  0  0  0  0  0  0
   26.6003   61.9684   -3.4751 O   0  0  0  0  0  0  0  0  0  0  0  0
   14.9659   64.6108  -10.7990 Br  0  0  0  0  0  0  0  0  0  0  0  0
   15.6354   59.7406  -10.2995 N   0  0  0  0  0  0  0  0  0  0  0  0
   16.8939   59.3061  -10.1316 C   0  0  0  0  0  0  0  0  0  0  0  0
   17.8979   60.1967  -10.1049 N   0  0  0  0  0  0  0  0  0  0  0  0
   17.6793   61.5143  -10.2413 C   0  0  0  0  0  0  0  0  0  0  0  0
   16.3953   61.9630  -10.4146 C   0  0  0  0  0  0  0  0  0  0  0  0
   15.3508   61.0408  -10.4415 C   0  0  0  0  0  0  0  0  0  0  0  0
   14.0103   61.4092  -10.6121 N   0  0  0  0  0  0  0  0  0  0  0  0
   16.4626   63.3732  -10.5333 C   0  0  0  0  0  0  0  0  0  0  0  0
   17.7707   63.7462  -10.4337 C   0  0  0  0  0  0  0  0  0  0  0  0
   18.4980   62.6067  -10.2556 N   0  0  0  0  0  0  0  0  0  0  0  0
   24.4055   62.6976   -3.9645 C   0  0  1  0  0  0  0  0  0  0  0  0
   24.0655   64.0443   -4.6435 C   0  0  0  0  0  0  0  0  0  0  0  0
   23.7382   64.2575   -7.4501 S   0  0  0  0  0  0  0  0  0  0  0  0
   23.0494   63.8864   -5.7740 C   0  0  0  0  0  0  0  0  0  0  0  0
   19.9604   62.5669  -10.1033 C   0  0  1  0  0  0  0  0  0  0  0  0
   20.5660   63.2839  -11.2907 C   0  0  2  0  0  0  0  0  0  0  0  0
   20.8871   62.3748  -12.3365 O   0  0  0  0  0  0  0  0  0  0  0  0
   21.7843   63.9589  -10.6971 C   0  0  2  0  0  0  0  0  0  0  0  0
   22.9982   63.5275  -11.2949 O   0  0  0  0  0  0  0  0  0  0  0  0
   21.7288   63.5654   -9.2386 C   0  0  2  0  0  0  0  0  0  0  0  0
   20.3420   63.3958   -9.0301 O   0  0  0  0  0  0  0  0  0  0  0  0
   22.2460   64.7213   -8.3992 C   0  0  0  0  0  0  0  0  0  0  0  0
   25.8570   63.7339   -2.3771 O   0  5  0  0  0  0  0  0  0  0  0  0
   22.5071   62.8139   -3.1867 H   0  0  0  0  0  0  0  0  0  0  0  0
   23.1782   61.3323   -3.0414 H   0  0  0  0  0  0  0  0  0  0  0  0
   17.0817   58.3294  -10.0274 H   0  0  0  0  0  0  0  0  0  0  0  0
   13.6725   62.2638  -10.2175 H   0  0  0  0  0  0  0  0  0  0  0  0
   13.3910   60.8176  -11.1283 H   0  0  0  0  0  0  0  0  0  0  0  0
   18.1285   64.6786  -10.4820 H   0  0  0  0  0  0  0  0  0  0  0  0
   24.4821   61.9850   -4.6619 H   0  0  0  0  0  0  0  0  0  0  0  0
   24.9056   64.4358   -5.0190 H   0  0  0  0  0  0  0  0  0  0  0  0
   23.6873   64.6642   -3.9560 H   0  0  0  0  0  0  0  0  0  0  0  0
   22.2859   64.5088   -5.6016 H   0  0  0  0  0  0  0  0  0  0  0  0
   22.7176   62.9431   -5.7708 H   0  0  0  0  0  0  0  0  0  0  0  0
   20.3070   61.6341  -10.0050 H   0  0  0  0  0  0  0  0  0  0  0  0
   19.9279   63.9757  -11.6289 H   0  0  0  0  0  0  0  0  0  0  0  0
   20.9108   61.4435  -11.9730 H   0  0  0  0  0  0  0  0  0  0  0  0
   21.6978   64.9514  -10.7839 H   0  0  0  0  0  0  0  0  0  0  0  0
   23.6841   64.2510  -11.2159 H   0  0  0  0  0  0  0  0  0  0  0  0
   22.2364   62.7222   -9.0621 H   0  0  0  0  0  0  0  0  0  0  0  0
   21.5303   65.0026   -7.7598 H   0  0  0  0  0  0  0  0  0  0  0  0
   22.4715   65.4850   -9.0041 H   0  0  0  0  0  0  0  0  0  0  0  0
   23.6556   62.5450   -2.0574 H   0  0  0  0  0  0  0  0  0  0  0  0
  1  3  2  0  0  0  0
  1 15  1  0  0  0  0
  1 27  1  0  0  0  0
  2 15  1  0  0  0  0
  4 12  1  0  0  0  0
  5  6  2  0  0  0  0
  5 10  1  0  0  0  0
  6  7  1  0  0  0  0
  7  8  2  0  0  0  0
  8  9  1  0  0  0  0
  8 14  1  0  0  0  0
  9 10  2  0  0  0  0
  9 12  1  0  0  0  0
 10 11  1  0  0  0  0
 12 13  2  0  0  0  0
 13 14  1  0  0  0  0
 14 19  1  0  0  0  0
 15 16  1  0  0  0  0
 16 18  1  0  0  0  0
 17 18  1  0  0  0  0
 17 26  1  0  0  0  0
 19 20  1  0  0  0  0
 19 25  1  0  0  0  0
 20 21  1  0  0  0  0
 20 22  1  0  0  0  0
 22 23  1  0  0  0  0
 22 24  1  0  0  0  0
 24 25  1  0  0  0  0
 24 26  1  0  0  0  0
  2 28  1  0  0  0  0
  2 29  1  0  0  0  0
 26 46  1  0  0  0  0
  6 30  1  0  0  0  0
 11 31  1  0  0  0  0
 11 32  1  0  0  0  0
 13 33  1  0  0  0  0
 15 34  1  0  0  0  0
 16 35  1  0  0  0  0
 16 36  1  0  0  0  0
 18 37  1  0  0  0  0
 18 38  1  0  0  0  0
 19 39  1  0  0  0  0
 20 40  1  0  0  0  0
 21 41  1  0  0  0  0
 22 42  1  0  0  0  0
 23 43  1  0  0  0  0
 24 44  1  0  0  0  0
 26 45  1  0  0  0  0
  2 47  1  0  0  0  0
M  CHG  2   2   1  27  -1
M  END
> <BIOSOLVEIT.HYDE_ESTIMATED_AFFINITY_LOWER_BOUNDARY [nM]>
289769454430881.625000

> <BIOSOLVEIT.HYDE_ESTIMATED_AFFINITY_UPPER_BOUNDARY [nM]>
28790308550311556.000000

> <BIOSOLVEIT.HYDE_LIGAND_EFFICIENCY range: ++, +, 0, -, -->
--

> <BIOSOLVEIT.HYDE_LIGAND_LIPOPHILIC_EFFICIENCY range: ++, +, 0, -, -->
--

> <BIOSOLVEIT.LOGP>
-2.1211

> <BIOSOLVEIT.MOLECULAR WEIGHT>
462.322

> <BIOSOLVEIT.MOLECULE_CHECKSUM>
MzYuODc3NDsw

> <BIOSOLVEIT.TPSA>
174.19

> <OPTIBRIUM.BBB category>
-

> <OPTIBRIUM.PPB90 category>
low

> <OPTIBRIUM.2C9 pKi>
5.01149

> <OPTIBRIUM.logS @ pH7.4>
2.40859

> <OPTIBRIUM.BBB log([brain]:[blood])>
-1.71924

> <OPTIBRIUM.2D6 affinity category>
low

> <OPTIBRIUM.logS>
2.48611

> <OPTIBRIUM.logD>
-1.46316

> <OPTIBRIUM.hERG pIC50>
3.43235

> <OPTIBRIUM.logP>
-1.84791

> <OPTIBRIUM.HIA category>
-

> <OPTIBRIUM.P-gp category>
yes

$$$$
SX0_A_421_1_008
joSeeSAR  03092211543D 1   1.00000     0.00000     0
SeeSAR 11.2.2 jonathanwahrer
 47 49  0  0  0  0            999 V2000
   24.8620   63.4494   -3.1990 C   0  0  0  0  0  0  0  0  0  0  0  0
   25.7092   61.2408   -3.8376 N   0  3  0  0  0  0  0  0  0  0  0  0
   25.2323   64.5278   -2.7143 O   0  0  0  0  0  0  0  0  0  0  0  0
   15.0949   64.5716  -10.8299 Br  0  0  0  0  0  0  0  0  0  0  0  0
   15.6690   59.6932  -10.2936 N   0  0  0  0  0  0  0  0  0  0  0  0
   16.9114   59.2408  -10.0649 C   0  0  0  0  0  0  0  0  0  0  0  0
   17.9260   60.1168   -9.9910 N   0  0  0  0  0  0  0  0  0  0  0  0
   17.7333   61.4374  -10.1390 C   0  0  0  0  0  0  0  0  0  0  0  0
   16.4657   61.9041  -10.3745 C   0  0  0  0  0  0  0  0  0  0  0  0
   15.4104   60.9971  -10.4505 C   0  0  0  0  0  0  0  0  0  0  0  0
   14.0851   61.3844  -10.6857 N   0  0  0  0  0  0  0  0  0  0  0  0
   16.5590   63.3131  -10.4913 C   0  0  0  0  0  0  0  0  0  0  0  0
   17.8660   63.6672  -10.3293 C   0  0  0  0  0  0  0  0  0  0  0  0
   18.5675   62.5178  -10.1153 N   0  0  0  0  0  0  0  0  0  0  0  0
   25.8792   62.7047   -4.0730 C   0  0  1  0  0  0  0  0  0  0  0  0
   25.6463   63.0547   -5.5609 C   0  0  0  0  0  0  0  0  0  0  0  0
   23.9998   64.2792   -7.5152 S   0  0  0  0  0  0  0  0  0  0  0  0
   24.2303   63.5656   -5.8241 C   0  0  0  0  0  0  0  0  0  0  0  0
   20.0200   62.4571   -9.8929 C   0  0  1  0  0  0  0  0  0  0  0  0
   20.6776   63.3809  -10.8956 C   0  0  2  0  0  0  0  0  0  0  0  0
   21.0666   62.6785  -12.0697 O   0  0  0  0  0  0  0  0  0  0  0  0
   21.8531   63.9417  -10.1235 C   0  0  2  0  0  0  0  0  0  0  0  0
   23.1029   63.6316  -10.7221 O   0  0  0  0  0  0  0  0  0  0  0  0
   21.7258   63.2892   -8.7657 C   0  0  2  0  0  0  0  0  0  0  0  0
   20.3324   63.0786   -8.6678 O   0  0  0  0  0  0  0  0  0  0  0  0
   22.1812   64.2752   -7.7035 C   0  0  0  0  0  0  0  0  0  0  0  0
   23.7498   62.9196   -3.0148 O   0  5  0  0  0  0  0  0  0  0  0  0
   26.2061   60.7305   -4.5395 H   0  0  0  0  0  0  0  0  0  0  0  0
   26.0698   61.0042   -2.9354 H   0  0  0  0  0  0  0  0  0  0  0  0
   17.0799   58.2617   -9.9508 H   0  0  0  0  0  0  0  0  0  0  0  0
   13.7367   62.2368  -10.2957 H   0  0  0  0  0  0  0  0  0  0  0  0
   13.4873   60.8086  -11.2434 H   0  0  0  0  0  0  0  0  0  0  0  0
   18.2392   64.5944  -10.3613 H   0  0  0  0  0  0  0  0  0  0  0  0
   26.8045   62.9773   -3.8095 H   0  0  0  0  0  0  0  0  0  0  0  0
   25.7992   62.2340   -6.1115 H   0  0  0  0  0  0  0  0  0  0  0  0
   26.2987   63.7630   -5.8301 H   0  0  0  0  0  0  0  0  0  0  0  0
   24.0202   64.2748   -5.1510 H   0  0  0  0  0  0  0  0  0  0  0  0
   23.5936   62.8024   -5.7141 H   0  0  0  0  0  0  0  0  0  0  0  0
   20.3742   61.5235   -9.9467 H   0  0  0  0  0  0  0  0  0  0  0  0
   20.0487   64.1198  -11.1369 H   0  0  0  0  0  0  0  0  0  0  0  0
   21.4003   61.7697  -11.8192 H   0  0  0  0  0  0  0  0  0  0  0  0
   21.7573   64.9330  -10.0333 H   0  0  0  0  0  0  0  0  0  0  0  0
   23.4111   62.7347  -10.4048 H   0  0  0  0  0  0  0  0  0  0  0  0
   22.2352   62.4300   -8.7176 H   0  0  0  0  0  0  0  0  0  0  0  0
   21.7658   64.0238   -6.8292 H   0  0  0  0  0  0  0  0  0  0  0  0
   21.8808   65.1929   -7.9637 H   0  0  0  0  0  0  0  0  0  0  0  0
   24.7379   61.0070   -3.8802 H   0  0  0  0  0  0  0  0  0  0  0  0
  1  3  2  0  0  0  0
  1 15  1  0  0  0  0
  1 27  1  0  0  0  0
  2 15  1  0  0  0  0
  4 12  1  0  0  0  0
  5  6  2  0  0  0  0
  5 10  1  0  0  0  0
  6  7  1  0  0  0  0
  7  8  2  0  0  0  0
  8  9  1  0  0  0  0
  8 14  1  0  0  0  0
  9 10  2  0  0  0  0
  9 12  1  0  0  0  0
 10 11  1  0  0  0  0
 12 13  2  0  0  0  0
 13 14  1  0  0  0  0
 14 19  1  0  0  0  0
 15 16  1  0  0  0  0
 16 18  1  0  0  0  0
 17 18  1  0  0  0  0
 17 26  1  0  0  0  0
 19 20  1  0  0  0  0
 19 25  1  0  0  0  0
 20 21  1  0  0  0  0
 20 22  1  0  0  0  0
 22 23  1  0  0  0  0
 22 24  1  0  0  0  0
 24 25  1  0  0  0  0
 24 26  1  0  0  0  0
  2 28  1  0  0  0  0
  2 29  1  0  0  0  0
 26 46  1  0  0  0  0
  6 30  1  0  0  0  0
 11 31  1  0  0  0  0
 11 32  1  0  0  0  0
 13 33  1  0  0  0  0
 15 34  1  0  0  0  0
 16 35  1  0  0  0  0
 16 36  1  0  0  0  0
 18 37  1  0  0  0  0
 18 38  1  0  0  0  0
 19 39  1  0  0  0  0
 20 40  1  0  0  0  0
 21 41  1  0  0  0  0
 22 42  1  0  0  0  0
 23 43  1  0  0  0  0
 24 44  1  0  0  0  0
 26 45  1  0  0  0  0
  2 47  1  0  0  0  0
M  CHG  2   2   1  27  -1
M  END
> <BIOSOLVEIT.HYDE_ESTIMATED_AFFINITY_LOWER_BOUNDARY [nM]>
315950515591021.812500

> <BIOSOLVEIT.HYDE_ESTIMATED_AFFINITY_UPPER_BOUNDARY [nM]>
31391551771255696.000000

> <BIOSOLVEIT.HYDE_LIGAND_EFFICIENCY range: ++, +, 0, -, -->
--

> <BIOSOLVEIT.HYDE_LIGAND_LIPOPHILIC_EFFICIENCY range: ++, +, 0, -, -->
--

> <BIOSOLVEIT.LOGP>
-2.1211

> <BIOSOLVEIT.MOLECULAR WEIGHT>
462.322

> <BIOSOLVEIT.MOLECULE_CHECKSUM>
MzcuMDkxOTsw

> <BIOSOLVEIT.TPSA>
174.19

> <OPTIBRIUM.BBB category>
-

> <OPTIBRIUM.PPB90 category>
low

> <OPTIBRIUM.2C9 pKi>
5.01149

> <OPTIBRIUM.logS @ pH7.4>
2.40859

> <OPTIBRIUM.BBB log([brain]:[blood])>
-1.71924

> <OPTIBRIUM.2D6 affinity category>
low

> <OPTIBRIUM.logS>
2.48611

> <OPTIBRIUM.logD>
-1.46316

> <OPTIBRIUM.hERG pIC50>
3.43235

> <OPTIBRIUM.logP>
-1.84791

> <OPTIBRIUM.HIA category>
-

> <OPTIBRIUM.P-gp category>
yes

$$$$
SX0_A_421_1_010
joSeeSAR  03092211543D 1   1.00000     0.00000     0
SeeSAR 11.2.2 jonathanwahrer
 47 49  0  0  0  0            999 V2000
   25.3415   63.5061   -3.1729 C   0  0  0  0  0  0  0  0  0  0  0  0
   23.5863   61.8178   -3.4422 N   0  3  0  0  0  0  0  0  0  0  0  0
   26.5621   63.4402   -2.9705 O   0  0  0  0  0  0  0  0  0  0  0  0
   16.8772   58.9503   -9.9059 Br  0  0  0  0  0  0  0  0  0  0  0  0
   15.9384   63.7249  -10.7649 N   0  0  0  0  0  0  0  0  0  0  0  0
   16.9479   64.5920  -10.5913 C   0  0  0  0  0  0  0  0  0  0  0  0
   18.1475   64.1333  -10.2009 N   0  0  0  0  0  0  0  0  0  0  0  0
   18.3683   62.8277   -9.9789 C   0  0  0  0  0  0  0  0  0  0  0  0
   17.3395   61.9381  -10.1535 C   0  0  0  0  0  0  0  0  0  0  0  0
   16.0933   62.4113  -10.5598 C   0  0  0  0  0  0  0  0  0  0  0  0
   14.9880   61.5757  -10.7641 N   0  0  0  0  0  0  0  0  0  0  0  0
   17.8493   60.6515   -9.8493 C   0  0  0  0  0  0  0  0  0  0  0  0
   19.1601   60.7861   -9.4980 C   0  0  0  0  0  0  0  0  0  0  0  0
   19.4617   62.1131   -9.5821 N   0  0  0  0  0  0  0  0  0  0  0  0
   24.7465   62.4613   -4.1255 C   0  0  1  0  0  0  0  0  0  0  0  0
   24.3029   63.1440   -5.4400 C   0  0  0  0  0  0  0  0  0  0  0  0
   23.2115   65.6414   -6.2157 S   0  0  0  0  0  0  0  0  0  0  0  0
   23.1074   64.0745   -5.2382 C   0  0  0  0  0  0  0  0  0  0  0  0
   20.7823   62.6881   -9.2834 C   0  0  1  0  0  0  0  0  0  0  0  0
   21.1241   63.6566  -10.3953 C   0  0  2  0  0  0  0  0  0  0  0  0
   21.8914   63.0264  -11.4138 O   0  0  0  0  0  0  0  0  0  0  0  0
   21.8818   64.7511   -9.6739 C   0  0  2  0  0  0  0  0  0  0  0  0
   23.2103   64.9070  -10.1511 O   0  0  0  0  0  0  0  0  0  0  0  0
   21.8737   64.2937   -8.2331 C   0  0  2  0  0  0  0  0  0  0  0  0
   20.6797   63.5419   -8.1677 O   0  0  0  0  0  0  0  0  0  0  0  0
   21.7743   65.5057   -7.3377 C   0  0  0  0  0  0  0  0  0  0  0  0
   24.5671   64.3305   -2.6511 O   0  5  0  0  0  0  0  0  0  0  0  0
   22.9035   61.5529   -4.1231 H   0  0  0  0  0  0  0  0  0  0  0  0
   23.8983   61.0054   -2.9495 H   0  0  0  0  0  0  0  0  0  0  0  0
   16.8079   65.5692  -10.7510 H   0  0  0  0  0  0  0  0  0  0  0  0
   15.0800   60.7533  -11.3256 H   0  0  0  0  0  0  0  0  0  0  0  0
   14.1069   61.8014  -10.3485 H   0  0  0  0  0  0  0  0  0  0  0  0
   19.7823   60.0507   -9.2295 H   0  0  0  0  0  0  0  0  0  0  0  0
   25.4373   61.7676   -4.3294 H   0  0  0  0  0  0  0  0  0  0  0  0
   24.0513   62.4365   -6.1004 H   0  0  0  0  0  0  0  0  0  0  0  0
   25.0685   63.6779   -5.7989 H   0  0  0  0  0  0  0  0  0  0  0  0
   23.0514   64.3107   -4.2681 H   0  0  0  0  0  0  0  0  0  0  0  0
   22.2781   63.5868   -5.5109 H   0  0  0  0  0  0  0  0  0  0  0  0
   21.4839   61.9861   -9.1615 H   0  0  0  0  0  0  0  0  0  0  0  0
   20.2838   64.0301  -10.7879 H   0  0  0  0  0  0  0  0  0  0  0  0
   22.6295   62.4970  -10.9956 H   0  0  0  0  0  0  0  0  0  0  0  0
   21.3880   65.6167   -9.7574 H   0  0  0  0  0  0  0  0  0  0  0  0
   23.7651   64.1307   -9.8522 H   0  0  0  0  0  0  0  0  0  0  0  0
   22.6754   63.7366   -8.0160 H   0  0  0  0  0  0  0  0  0  0  0  0
   20.9411   65.4356   -6.7894 H   0  0  0  0  0  0  0  0  0  0  0  0
   21.7302   66.3263   -7.9077 H   0  0  0  0  0  0  0  0  0  0  0  0
   23.1797   62.4638   -2.7962 H   0  0  0  0  0  0  0  0  0  0  0  0
  1  3  2  0  0  0  0
  1 15  1  0  0  0  0
  1 27  1  0  0  0  0
  2 15  1  0  0  0  0
  4 12  1  0  0  0  0
  5  6  2  0  0  0  0
  5 10  1  0  0  0  0
  6  7  1  0  0  0  0
  7  8  2  0  0  0  0
  8  9  1  0  0  0  0
  8 14  1  0  0  0  0
  9 10  2  0  0  0  0
  9 12  1  0  0  0  0
 10 11  1  0  0  0  0
 12 13  2  0  0  0  0
 13 14  1  0  0  0  0
 14 19  1  0  0  0  0
 15 16  1  0  0  0  0
 16 18  1  0  0  0  0
 17 18  1  0  0  0  0
 17 26  1  0  0  0  0
 19 20  1  0  0  0  0
 19 25  1  0  0  0  0
 20 21  1  0  0  0  0
 20 22  1  0  0  0  0
 22 23  1  0  0  0  0
 22 24  1  0  0  0  0
 24 25  1  0  0  0  0
 24 26  1  0  0  0  0
  2 28  1  0  0  0  0
  2 29  1  0  0  0  0
 26 46  1  0  0  0  0
  6 30  1  0  0  0  0
 11 31  1  0  0  0  0
 11 32  1  0  0  0  0
 13 33  1  0  0  0  0
 15 34  1  0  0  0  0
 16 35  1  0  0  0  0
 16 36  1  0  0  0  0
 18 37  1  0  0  0  0
 18 38  1  0  0  0  0
 19 39  1  0  0  0  0
 20 40  1  0  0  0  0
 21 41  1  0  0  0  0
 22 42  1  0  0  0  0
 23 43  1  0  0  0  0
 24 44  1  0  0  0  0
 26 45  1  0  0  0  0
  2 47  1  0  0  0  0
M  CHG  2   2   1  27  -1
M  END
> <BIOSOLVEIT.HYDE_ESTIMATED_AFFINITY_LOWER_BOUNDARY [nM]>
3664746591321324.500000

> <BIOSOLVEIT.HYDE_ESTIMATED_AFFINITY_UPPER_BOUNDARY [nM]>
364114241544429632.000000

> <BIOSOLVEIT.HYDE_LIGAND_EFFICIENCY range: ++, +, 0, -, -->
--

> <BIOSOLVEIT.HYDE_LIGAND_LIPOPHILIC_EFFICIENCY range: ++, +, 0, -, -->
--

> <BIOSOLVEIT.LOGP>
-2.1211

> <BIOSOLVEIT.MOLECULAR WEIGHT>
462.322

> <BIOSOLVEIT.MOLECULE_CHECKSUM>
NDMuMTY3Njsw

> <BIOSOLVEIT.TPSA>
174.19

> <OPTIBRIUM.BBB category>
-

> <OPTIBRIUM.PPB90 category>
low

> <OPTIBRIUM.2C9 pKi>
5.01149

> <OPTIBRIUM.logS @ pH7.4>
2.40859

> <OPTIBRIUM.BBB log([brain]:[blood])>
-1.71924

> <OPTIBRIUM.2D6 affinity category>
low

> <OPTIBRIUM.logS>
2.48611

> <OPTIBRIUM.logD>
-1.46316

> <OPTIBRIUM.hERG pIC50>
3.43235

> <OPTIBRIUM.logP>
-1.84791

> <OPTIBRIUM.HIA category>
-

> <OPTIBRIUM.P-gp category>
yes

$$$$
SX0_A_421_1_006
joSeeSAR  03092211543D 1   1.00000     0.00000     0
SeeSAR 11.2.2 jonathanwahrer
 47 49  0  0  0  0            999 V2000
   25.7938   63.4234   -3.2530 C   0  0  0  0  0  0  0  0  0  0  0  0
   26.7872   62.0359   -5.0113 N   0  3  0  0  0  0  0  0  0  0  0  0
   25.2408   64.4720   -2.8930 O   0  0  0  0  0  0  0  0  0  0  0  0
   14.9732   64.5979  -10.8028 Br  0  0  0  0  0  0  0  0  0  0  0  0
   15.6413   59.7281  -10.2983 N   0  0  0  0  0  0  0  0  0  0  0  0
   16.8994   59.2935  -10.1282 C   0  0  0  0  0  0  0  0  0  0  0  0
   17.9036   60.1841  -10.1007 N   0  0  0  0  0  0  0  0  0  0  0  0
   17.6854   61.5017  -10.2383 C   0  0  0  0  0  0  0  0  0  0  0  0
   16.4017   61.9503  -10.4140 C   0  0  0  0  0  0  0  0  0  0  0  0
   15.3571   61.0282  -10.4418 C   0  0  0  0  0  0  0  0  0  0  0  0
   14.0169   61.3966  -10.6146 N   0  0  0  0  0  0  0  0  0  0  0  0
   16.4693   63.3605  -10.5338 C   0  0  0  0  0  0  0  0  0  0  0  0
   17.7773   63.7332  -10.4324 C   0  0  0  0  0  0  0  0  0  0  0  0
   18.5042   62.5939  -10.2524 N   0  0  0  0  0  0  0  0  0  0  0  0
   25.8189   63.1436   -4.7611 C   0  0  1  0  0  0  0  0  0  0  0  0
   24.4023   62.7576   -5.2453 C   0  0  0  0  0  0  0  0  0  0  0  0
   23.9142   64.2363   -7.6129 S   0  0  0  0  0  0  0  0  0  0  0  0
   23.6329   63.9528   -5.8068 C   0  0  0  0  0  0  0  0  0  0  0  0
   19.9663   62.5540  -10.0978 C   0  0  1  0  0  0  0  0  0  0  0  0
   20.5701   63.3636  -11.2252 C   0  0  2  0  0  0  0  0  0  0  0  0
   20.9019   62.5389  -12.3356 O   0  0  0  0  0  0  0  0  0  0  0  0
   21.7809   64.0011  -10.5775 C   0  0  2  0  0  0  0  0  0  0  0  0
   23.0002   63.6258  -11.2014 O   0  0  0  0  0  0  0  0  0  0  0  0
   21.7237   63.4979   -9.1531 C   0  0  2  0  0  0  0  0  0  0  0  0
   20.3378   63.3022   -8.9635 O   0  0  0  0  0  0  0  0  0  0  0  0
   22.2289   64.5908   -8.2266 C   0  0  0  0  0  0  0  0  0  0  0  0
   26.3440   62.6010   -2.4961 O   0  5  0  0  0  0  0  0  0  0  0  0
   26.6358   61.3043   -4.3465 H   0  0  0  0  0  0  0  0  0  0  0  0
   26.6535   61.6789   -5.9359 H   0  0  0  0  0  0  0  0  0  0  0  0
   17.0870   58.3169  -10.0228 H   0  0  0  0  0  0  0  0  0  0  0  0
   13.6781   62.2505  -10.2195 H   0  0  0  0  0  0  0  0  0  0  0  0
   13.3988   60.8058  -11.1332 H   0  0  0  0  0  0  0  0  0  0  0  0
   18.1353   64.6657  -10.4810 H   0  0  0  0  0  0  0  0  0  0  0  0
   26.1222   63.9644   -5.2452 H   0  0  0  0  0  0  0  0  0  0  0  0
   23.8907   62.3801   -4.4734 H   0  0  0  0  0  0  0  0  0  0  0  0
   24.4854   62.0642   -5.9612 H   0  0  0  0  0  0  0  0  0  0  0  0
   23.9176   64.7729   -5.3104 H   0  0  0  0  0  0  0  0  0  0  0  0
   22.6561   63.7966   -5.6601 H   0  0  0  0  0  0  0  0  0  0  0  0
   20.3202   61.6192  -10.0692 H   0  0  0  0  0  0  0  0  0  0  0  0
   19.9276   64.0740  -11.5125 H   0  0  0  0  0  0  0  0  0  0  0  0
   21.3547   61.7087  -12.0104 H   0  0  0  0  0  0  0  0  0  0  0  0
   21.6867   64.9966  -10.5892 H   0  0  0  0  0  0  0  0  0  0  0  0
   23.1686   64.2196  -11.9883 H   0  0  0  0  0  0  0  0  0  0  0  0
   22.2377   62.6477   -9.0390 H   0  0  0  0  0  0  0  0  0  0  0  0
   21.6090   64.6650   -7.4454 H   0  0  0  0  0  0  0  0  0  0  0  0
   22.2417   65.4576   -8.7253 H   0  0  0  0  0  0  0  0  0  0  0  0
   27.7208   62.3821   -4.9193 H   0  0  0  0  0  0  0  0  0  0  0  0
  1  3  2  0  0  0  0
  1 15  1  0  0  0  0
  1 27  1  0  0  0  0
  2 15  1  0  0  0  0
  4 12  1  0  0  0  0
  5  6  2  0  0  0  0
  5 10  1  0  0  0  0
  6  7  1  0  0  0  0
  7  8  2  0  0  0  0
  8  9  1  0  0  0  0
  8 14  1  0  0  0  0
  9 10  2  0  0  0  0
  9 12  1  0  0  0  0
 10 11  1  0  0  0  0
 12 13  2  0  0  0  0
 13 14  1  0  0  0  0
 14 19  1  0  0  0  0
 15 16  1  0  0  0  0
 16 18  1  0  0  0  0
 17 18  1  0  0  0  0
 17 26  1  0  0  0  0
 19 20  1  0  0  0  0
 19 25  1  0  0  0  0
 20 21  1  0  0  0  0
 20 22  1  0  0  0  0
 22 23  1  0  0  0  0
 22 24  1  0  0  0  0
 24 25  1  0  0  0  0
 24 26  1  0  0  0  0
  2 28  1  0  0  0  0
  2 29  1  0  0  0  0
 26 46  1  0  0  0  0
  6 30  1  0  0  0  0
 11 31  1  0  0  0  0
 11 32  1  0  0  0  0
 13 33  1  0  0  0  0
 15 34  1  0  0  0  0
 16 35  1  0  0  0  0
 16 36  1  0  0  0  0
 18 37  1  0  0  0  0
 18 38  1  0  0  0  0
 19 39  1  0  0  0  0
 20 40  1  0  0  0  0
 21 41  1  0  0  0  0
 22 42  1  0  0  0  0
 23 43  1  0  0  0  0
 24 44  1  0  0  0  0
 26 45  1  0  0  0  0
  2 47  1  0  0  0  0
M  CHG  2   2   1  27  -1
M  END
> <BIOSOLVEIT.HYDE_ESTIMATED_AFFINITY_LOWER_BOUNDARY [nM]>
22777719432953776.000000

> <BIOSOLVEIT.HYDE_ESTIMATED_AFFINITY_UPPER_BOUNDARY [nM]>
2263101098199387136.000000

> <BIOSOLVEIT.HYDE_LIGAND_EFFICIENCY range: ++, +, 0, -, -->
--

> <BIOSOLVEIT.HYDE_LIGAND_LIPOPHILIC_EFFICIENCY range: ++, +, 0, -, -->
--

> <BIOSOLVEIT.LOGP>
-2.1211

> <BIOSOLVEIT.MOLECULAR WEIGHT>
462.322

> <BIOSOLVEIT.MOLECULE_CHECKSUM>
NDcuNjk2Nzsw

> <BIOSOLVEIT.TPSA>
174.19

> <OPTIBRIUM.BBB category>
-

> <OPTIBRIUM.PPB90 category>
low

> <OPTIBRIUM.2C9 pKi>
5.01149

> <OPTIBRIUM.logS @ pH7.4>
2.40859

> <OPTIBRIUM.BBB log([brain]:[blood])>
-1.71924

> <OPTIBRIUM.2D6 affinity category>
low

> <OPTIBRIUM.logS>
2.48611

> <OPTIBRIUM.logD>
-1.46316

> <OPTIBRIUM.hERG pIC50>
3.43235

> <OPTIBRIUM.logP>
-1.84791

> <OPTIBRIUM.HIA category>
-

> <OPTIBRIUM.P-gp category>
yes

$$$$
SX0_A_421_1_009
joSeeSAR  03092211543D 1   1.00000     0.00000     0
SeeSAR 11.2.2 jonathanwahrer
 47 49  0  0  0  0            999 V2000
   24.7937   63.4112   -3.1234 C   0  0  0  0  0  0  0  0  0  0  0  0
   25.5416   61.1066   -3.4883 N   0  3  0  0  0  0  0  0  0  0  0  0
   25.3577   64.4387   -2.7218 O   0  0  0  0  0  0  0  0  0  0  0  0
   15.1062   64.5740  -10.8320 Br  0  0  0  0  0  0  0  0  0  0  0  0
   15.6794   59.6962  -10.2892 N   0  0  0  0  0  0  0  0  0  0  0  0
   16.9224   59.2437  -10.0631 C   0  0  0  0  0  0  0  0  0  0  0  0
   17.9374   60.1194   -9.9934 N   0  0  0  0  0  0  0  0  0  0  0  0
   17.7449   61.4396  -10.1431 C   0  0  0  0  0  0  0  0  0  0  0  0
   16.4770   61.9067  -10.3759 C   0  0  0  0  0  0  0  0  0  0  0  0
   15.4211   61.0000  -10.4475 C   0  0  0  0  0  0  0  0  0  0  0  0
   14.0954   61.3876  -10.6797 N   0  0  0  0  0  0  0  0  0  0  0  0
   16.5706   63.3154  -10.4953 C   0  0  0  0  0  0  0  0  0  0  0  0
   17.8782   63.6691  -10.3374 C   0  0  0  0  0  0  0  0  0  0  0  0
   18.5797   62.5197  -10.1233 N   0  0  0  0  0  0  0  0  0  0  0  0
   25.6126   62.4921   -4.0386 C   0  0  1  0  0  0  0  0  0  0  0  0
   25.0452   62.5442   -5.4759 C   0  0  0  0  0  0  0  0  0  0  0  0
   24.0151   64.2399   -7.4991 S   0  0  0  0  0  0  0  0  0  0  0  0
   24.1774   63.7792   -5.7150 C   0  0  0  0  0  0  0  0  0  0  0  0
   20.0328   62.4588   -9.9048 C   0  0  1  0  0  0  0  0  0  0  0  0
   20.6886   63.3751  -10.9154 C   0  0  2  0  0  0  0  0  0  0  0  0
   21.0734   62.6648  -12.0860 O   0  0  0  0  0  0  0  0  0  0  0  0
   21.8669   63.9396  -10.1503 C   0  0  2  0  0  0  0  0  0  0  0  0
   23.1147   63.6241  -10.7506 O   0  0  0  0  0  0  0  0  0  0  0  0
   21.7428   63.2961   -8.7881 C   0  0  2  0  0  0  0  0  0  0  0  0
   20.3495   63.0878   -8.6848 O   0  0  0  0  0  0  0  0  0  0  0  0
   22.2026   64.2884   -7.7336 C   0  0  0  0  0  0  0  0  0  0  0  0
   23.6360   63.0605   -2.8263 O   0  5  0  0  0  0  0  0  0  0  0  0
   25.9748   60.4714   -4.1277 H   0  0  0  0  0  0  0  0  0  0  0  0
   26.0180   61.0721   -2.6098 H   0  0  0  0  0  0  0  0  0  0  0  0
   17.0906   58.2647   -9.9478 H   0  0  0  0  0  0  0  0  0  0  0  0
   13.7484   62.2410  -10.2906 H   0  0  0  0  0  0  0  0  0  0  0  0
   13.4957   60.8110  -11.2347 H   0  0  0  0  0  0  0  0  0  0  0  0
   18.2518   64.5961  -10.3720 H   0  0  0  0  0  0  0  0  0  0  0  0
   26.5652   62.7966   -4.0473 H   0  0  0  0  0  0  0  0  0  0  0  0
   24.4907   61.7268   -5.6321 H   0  0  0  0  0  0  0  0  0  0  0  0
   25.8083   62.5579   -6.1221 H   0  0  0  0  0  0  0  0  0  0  0  0
   24.5842   64.5506   -5.2255 H   0  0  0  0  0  0  0  0  0  0  0  0
   23.2636   63.5982   -5.3513 H   0  0  0  0  0  0  0  0  0  0  0  0
   20.3857   61.5244   -9.9536 H   0  0  0  0  0  0  0  0  0  0  0  0
   20.0598   64.1134  -11.1597 H   0  0  0  0  0  0  0  0  0  0  0  0
   21.4095   61.7584  -11.8304 H   0  0  0  0  0  0  0  0  0  0  0  0
   21.7726   64.9317  -10.0664 H   0  0  0  0  0  0  0  0  0  0  0  0
   23.4219   62.7281  -10.4299 H   0  0  0  0  0  0  0  0  0  0  0  0
   22.2514   62.4367   -8.7358 H   0  0  0  0  0  0  0  0  0  0  0  0
   21.7580   64.0675   -6.8655 H   0  0  0  0  0  0  0  0  0  0  0  0
   21.9377   65.2096   -8.0188 H   0  0  0  0  0  0  0  0  0  0  0  0
   24.5844   60.8481   -3.3588 H   0  0  0  0  0  0  0  0  0  0  0  0
  1  3  2  0  0  0  0
  1 15  1  0  0  0  0
  1 27  1  0  0  0  0
  2 15  1  0  0  0  0
  4 12  1  0  0  0  0
  5  6  2  0  0  0  0
  5 10  1  0  0  0  0
  6  7  1  0  0  0  0
  7  8  2  0  0  0  0
  8  9  1  0  0  0  0
  8 14  1  0  0  0  0
  9 10  2  0  0  0  0
  9 12  1  0  0  0  0
 10 11  1  0  0  0  0
 12 13  2  0  0  0  0
 13 14  1  0  0  0  0
 14 19  1  0  0  0  0
 15 16  1  0  0  0  0
 16 18  1  0  0  0  0
 17 18  1  0  0  0  0
 17 26  1  0  0  0  0
 19 20  1  0  0  0  0
 19 25  1  0  0  0  0
 20 21  1  0  0  0  0
 20 22  1  0  0  0  0
 22 23  1  0  0  0  0
 22 24  1  0  0  0  0
 24 25  1  0  0  0  0
 24 26  1  0  0  0  0
  2 28  1  0  0  0  0
  2 29  1  0  0  0  0
 26 46  1  0  0  0  0
  6 30  1  0  0  0  0
 11 31  1  0  0  0  0
 11 32  1  0  0  0  0
 13 33  1  0  0  0  0
 15 34  1  0  0  0  0
 16 35  1  0  0  0  0
 16 36  1  0  0  0  0
 18 37  1  0  0  0  0
 18 38  1  0  0  0  0
 19 39  1  0  0  0  0
 20 40  1  0  0  0  0
 21 41  1  0  0  0  0
 22 42  1  0  0  0  0
 23 43  1  0  0  0  0
 24 44  1  0  0  0  0
 26 45  1  0  0  0  0
  2 47  1  0  0  0  0
M  CHG  2   2   1  27  -1
M  END
> <BIOSOLVEIT.HYDE_ESTIMATED_AFFINITY_LOWER_BOUNDARY [nM]>
82416640126353296.000000

> <BIOSOLVEIT.HYDE_ESTIMATED_AFFINITY_UPPER_BOUNDARY [nM]>
8188580482294019072.000000

> <BIOSOLVEIT.HYDE_LIGAND_EFFICIENCY range: ++, +, 0, -, -->
--

> <BIOSOLVEIT.HYDE_LIGAND_LIPOPHILIC_EFFICIENCY range: ++, +, 0, -, -->
--

> <BIOSOLVEIT.LOGP>
-2.1211

> <BIOSOLVEIT.MOLECULAR WEIGHT>
462.322

> <BIOSOLVEIT.MOLECULE_CHECKSUM>
NTAuODg0Nzsw

> <BIOSOLVEIT.TPSA>
174.19

> <OPTIBRIUM.BBB category>
-

> <OPTIBRIUM.PPB90 category>
low

> <OPTIBRIUM.2C9 pKi>
5.01149

> <OPTIBRIUM.logS @ pH7.4>
2.40859

> <OPTIBRIUM.BBB log([brain]:[blood])>
-1.71924

> <OPTIBRIUM.2D6 affinity category>
low

> <OPTIBRIUM.logS>
2.48611

> <OPTIBRIUM.logD>
-1.46316

> <OPTIBRIUM.hERG pIC50>
3.43235

> <OPTIBRIUM.logP>
-1.84791

> <OPTIBRIUM.HIA category>
-

> <OPTIBRIUM.P-gp category>
yes

$$$$
