# created with PyMOL 2.5.2
@<TRIPOS>MOLECULE
SX0_A_421_1_003
47 49 1                 
SMALL
USER_CHARGES
@<TRIPOS>ATOM
1	   C	25.467	63.347	-3.085	C.2	1	UNK0	0.000	
2	   N	23.639	61.741	-3.372	N.4	1	UNK0	0.000	
3	   O	26.685	63.375	-2.858	O.co2	1	UNK0	0.000	
4	  Br	15.268	64.456	-10.887	Br	1	UNK0	0.000	
5	   N	15.830	59.591	-10.230	N.2	1	UNK0	0.000	
6	   C	17.081	59.133	-10.063	C.2	1	UNK0	0.000	
7	   N	18.105	60.000	-10.079	N.2	1	UNK0	0.000	
8	   C	17.916	61.317	-10.257	C.2	1	UNK0	0.000	
9	   C	16.640	61.790	-10.430	C.2	1	UNK0	0.000	
10	   C	15.574	60.892	-10.413	C.2	1	UNK0	0.000	
11	   N	14.241	61.286	-10.580	N.pl3	1	UNK0	0.000	
12	   C	16.739	63.193	-10.597	C.2	1	UNK0	0.000	
13	   C	18.056	63.538	-10.526	C.2	1	UNK0	0.000	
14	   N	18.759	62.389	-10.318	N.pl3	1	UNK0	0.000	
15	   C	24.954	62.174	-3.930	C.3	1	UNK0	0.000	
16	   C	24.808	62.615	-5.405	C.3	1	UNK0	0.000	
17	   S	23.773	64.446	-7.304	S.3	1	UNK0	0.000	
18	   C	24.003	63.906	-5.550	C.3	1	UNK0	0.000	
19	   C	20.223	62.319	-10.182	C.3	1	UNK0	0.000	
20	   C	20.898	63.369	-11.044	C.3	1	UNK0	0.000	
21	   O	21.799	62.695	-11.914	O.3	1	UNK0	0.000	
22	   C	21.631	64.247	-10.053	C.3	1	UNK0	0.000	
23	   O	22.878	64.720	-10.540	O.3	1	UNK0	0.000	
24	   C	21.781	63.319	-8.864	C.3	1	UNK0	0.000	
25	   O	20.546	62.623	-8.836	O.3	1	UNK0	0.000	
26	   C	22.000	64.107	-7.595	C.3	1	UNK0	0.000	
27	   O	24.635	64.174	-2.667	O.co2	1	UNK0	0.000	
28	   H	22.991	61.597	-4.120	 H	1	UNK0	0.000	
29	   H	23.757	60.887	-2.865	 H	1	UNK0	0.000	
30	   H	17.247	58.156	-9.928	 H	1	UNK0	0.000	
31	   H	13.935	62.174	-10.236	 H	1	UNK0	0.000	
32	   H	13.594	60.680	-11.043	 H	1	UNK0	0.000	
33	   H	18.435	64.460	-10.610	 H	1	UNK0	0.000	
34	   H	25.603	61.416	-3.874	 H	1	UNK0	0.000	
35	   H	24.346	61.889	-5.913	 H	1	UNK0	0.000	
36	   H	25.720	62.761	-5.788	 H	1	UNK0	0.000	
37	   H	24.479	64.633	-5.055	 H	1	UNK0	0.000	
38	   H	23.100	63.762	-5.143	 H	1	UNK0	0.000	
39	   H	20.552	61.406	-10.422	 H	1	UNK0	0.000	
40	   H	20.224	63.896	-11.562	 H	1	UNK0	0.000	
41	   H	21.525	61.737	-12.000	 H	1	UNK0	0.000	
42	   H	21.052	65.023	-9.801	 H	1	UNK0	0.000	
43	   H	23.149	64.184	-11.340	 H	1	UNK0	0.000	
44	   H	22.537	62.681	-9.013	 H	1	UNK0	0.000	
45	   H	21.639	63.585	-6.823	 H	1	UNK0	0.000	
46	   H	21.512	64.977	-7.667	 H	1	UNK0	0.000	
47	   H	23.288	62.448	-2.758	 H	1	UNK0	0.000	
@<TRIPOS>BOND
1 1 3 2
2 1 15 1
3 1 27 1
4 2 15 1
5 4 12 1
6 5 6 2
7 5 10 1
8 6 7 1
9 7 8 2
10 8 9 1
11 8 14 1
12 9 10 2
13 9 12 1
14 10 11 1
15 12 13 2
16 13 14 1
17 14 19 1
18 15 16 1
19 16 18 1
20 17 18 1
21 17 26 1
22 19 20 1
23 19 25 1
24 20 21 1
25 20 22 1
26 22 23 1
27 22 24 1
28 24 25 1
29 24 26 1
30 2 28 1
31 2 29 1
32 26 46 1
33 6 30 1
34 11 31 1
35 11 32 1
36 13 33 1
37 15 34 1
38 16 35 1
39 16 36 1
40 18 37 1
41 18 38 1
42 19 39 1
43 20 40 1
44 21 41 1
45 22 42 1
46 23 43 1
47 24 44 1
48 26 45 1
49 2 47 1
@<TRIPOS>SUBSTRUCTURE
1	UNK0	1	GROUP	1 ****	UNK
