# created with PyMOL 2.5.2
@<TRIPOS>MOLECULE
P84_A_400_1_002
25 25 1                 
SMALL
USER_CHARGES
@<TRIPOS>ATOM
1	   C	91.065	95.447	-44.893	C.2	1	UNK0	0.000	
2	   C	91.665	95.189	-43.664	C.2	1	UNK0	0.000	
3	   C	92.201	93.929	-43.422	C.2	1	UNK0	0.000	
4	   C	90.472	96.818	-45.176	C.3	1	UNK0	0.000	
5	   N	91.340	97.687	-45.994	N.4	1	UNK0	0.000	
6	   C	92.145	92.929	-44.387	C.2	1	UNK0	0.000	
7	   C	90.998	94.461	-45.871	C.2	1	UNK0	0.000	
8	   C	90.700	98.947	-46.424	C.3	1	UNK0	0.000	
9	   C	91.540	93.207	-45.609	C.2	1	UNK0	0.000	
10	   I	93.132	93.514	-41.529	 I	1	UNK0	0.000	
11	   O	91.730	96.145	-42.712	O.3	1	UNK0	0.000	
12	   I	91.442	91.676	-47.115	 I	1	UNK0	0.000	
13	   C	92.639	97.934	-45.349	C.3	1	UNK0	0.000	
14	   H	90.303	97.275	-44.303	 H	1	UNK0	0.000	
15	   H	89.606	96.693	-45.660	 H	1	UNK0	0.000	
16	   H	92.533	92.026	-44.206	 H	1	UNK0	0.000	
17	   H	90.566	94.651	-46.753	 H	1	UNK0	0.000	
18	   H	91.346	99.479	-46.971	 H	1	UNK0	0.000	
19	   H	89.891	98.739	-46.973	 H	1	UNK0	0.000	
20	   H	90.430	99.475	-45.619	 H	1	UNK0	0.000	
21	   H	93.195	98.525	-45.933	 H	1	UNK0	0.000	
22	   H	92.493	98.380	-44.466	 H	1	UNK0	0.000	
23	   H	93.112	97.064	-45.208	 H	1	UNK0	0.000	
24	   H	91.537	97.176	-46.831	 H	1	UNK0	0.000	
25	   H	91.501	95.923	-41.764	 H	1	UNK0	0.000	
@<TRIPOS>BOND
1 1 2 2
2 1 4 1
3 1 7 1
4 2 3 1
5 2 11 1
6 3 6 2
7 3 10 1
8 4 5 1
9 5 8 1
10 5 13 1
11 6 9 1
12 7 9 2
13 9 12 1
14 4 14 1
15 4 15 1
16 6 16 1
17 7 17 1
18 8 18 1
19 8 19 1
20 8 20 1
21 5 24 1
22 13 21 1
23 13 22 1
24 13 23 1
25 11 25 1
@<TRIPOS>SUBSTRUCTURE
1	UNK0	1	GROUP	1 ****	UNK
