P84_A_400_1_002
joSeeSAR  03092211553D 1   1.00000     0.00000     0
SeeSAR 11.2.2 jonathanwahrer
 25 25  0  0  0  0            999 V2000
   91.0647   95.4474  -44.8927 C   0  0  0  0  0  0  0  0  0  0  0  0
   91.6647   95.1895  -43.6642 C   0  0  0  0  0  0  0  0  0  0  0  0
   92.2012   93.9291  -43.4222 C   0  0  0  0  0  0  0  0  0  0  0  0
   90.4723   96.8185  -45.1761 C   0  0  0  0  0  0  0  0  0  0  0  0
   91.3398   97.6873  -45.9941 N   0  3  0  0  0  0  0  0  0  0  0  0
   92.1449   92.9294  -44.3872 C   0  0  0  0  0  0  0  0  0  0  0  0
   90.9981   94.4609  -45.8715 C   0  0  0  0  0  0  0  0  0  0  0  0
   90.6999   98.9470  -46.4241 C   0  0  0  0  0  0  0  0  0  0  0  0
   91.5404   93.2074  -45.6085 C   0  0  0  0  0  0  0  0  0  0  0  0
   93.1323   93.5137  -41.5292 I   0  0  0  0  0  0  0  0  0  0  0  0
   91.7299   96.1451  -42.7123 O   0  0  0  0  0  0  0  0  0  0  0  0
   91.4422   91.6763  -47.1149 I   0  0  0  0  0  0  0  0  0  0  0  0
   92.6391   97.9338  -45.3488 C   0  0  0  0  0  0  0  0  0  0  0  0
   90.3031   97.2751  -44.3028 H   0  0  0  0  0  0  0  0  0  0  0  0
   89.6061   96.6932  -45.6600 H   0  0  0  0  0  0  0  0  0  0  0  0
   92.5327   92.0256  -44.2060 H   0  0  0  0  0  0  0  0  0  0  0  0
   90.5658   94.6507  -46.7530 H   0  0  0  0  0  0  0  0  0  0  0  0
   91.3461   99.4793  -46.9709 H   0  0  0  0  0  0  0  0  0  0  0  0
   89.8905   98.7392  -46.9732 H   0  0  0  0  0  0  0  0  0  0  0  0
   90.4300   99.4753  -45.6190 H   0  0  0  0  0  0  0  0  0  0  0  0
   93.1949   98.5247  -45.9335 H   0  0  0  0  0  0  0  0  0  0  0  0
   92.4933   98.3804  -44.4660 H   0  0  0  0  0  0  0  0  0  0  0  0
   93.1118   97.0638  -45.2084 H   0  0  0  0  0  0  0  0  0  0  0  0
   91.5370   97.1757  -46.8305 H   0  0  0  0  0  0  0  0  0  0  0  0
   91.5005   95.9233  -41.7645 H   0  0  0  0  0  0  0  0  0  0  0  0
  1  2  2  0  0  0  0
  1  4  1  0  0  0  0
  1  7  1  0  0  0  0
  2  3  1  0  0  0  0
  2 11  1  0  0  0  0
  3  6  2  0  0  0  0
  3 10  1  0  0  0  0
  4  5  1  0  0  0  0
  5  8  1  0  0  0  0
  5 13  1  0  0  0  0
  6  9  1  0  0  0  0
  7  9  2  0  0  0  0
  9 12  1  0  0  0  0
  4 14  1  0  0  0  0
  4 15  1  0  0  0  0
  6 16  1  0  0  0  0
  7 17  1  0  0  0  0
  8 18  1  0  0  0  0
  8 19  1  0  0  0  0
  8 20  1  0  0  0  0
  5 24  1  0  0  0  0
 13 21  1  0  0  0  0
 13 22  1  0  0  0  0
 13 23  1  0  0  0  0
 11 25  1  0  0  0  0
M  CHG  1   5   1
M  END
> <BIOSOLVEIT.HYDE_ESTIMATED_AFFINITY_LOWER_BOUNDARY [nM]>
51.688614

> <BIOSOLVEIT.HYDE_ESTIMATED_AFFINITY_UPPER_BOUNDARY [nM]>
5135.569368

> <BIOSOLVEIT.HYDE_LIGAND_EFFICIENCY range: ++, +, 0, -, -->
++

> <BIOSOLVEIT.HYDE_LIGAND_LIPOPHILIC_EFFICIENCY range: ++, +, 0, -, -->
+

> <BIOSOLVEIT.LOGP>
1.2459

> <BIOSOLVEIT.MOLECULAR WEIGHT>
404

> <BIOSOLVEIT.MOLECULE_CHECKSUM>
LTM1Ljg5MjsyLjc2MDky

> <BIOSOLVEIT.TPSA>
24.67

> <OPTIBRIUM.BBB category>
+

> <OPTIBRIUM.PPB90 category>
low

> <OPTIBRIUM.2C9 pKi>
4.53082

> <OPTIBRIUM.logS @ pH7.4>
2.51649

> <OPTIBRIUM.BBB log([brain]:[blood])>
-0.706796

> <OPTIBRIUM.2D6 affinity category>
medium

> <OPTIBRIUM.logS>
3.92006

> <OPTIBRIUM.logD>
0.909848

> <OPTIBRIUM.hERG pIC50>
5.07413

> <OPTIBRIUM.logP>
3.30062

> <OPTIBRIUM.HIA category>
+

> <OPTIBRIUM.P-gp category>
no

$$$$
P84_A_400_1_003
joSeeSAR  03092211553D 1   1.00000     0.00000     0
SeeSAR 11.2.2 jonathanwahrer
 25 25  0  0  0  0            999 V2000
   91.0337   95.8087  -44.8725 C   0  0  0  0  0  0  0  0  0  0  0  0
   91.5280   95.5599  -43.5959 C   0  0  0  0  0  0  0  0  0  0  0  0
   92.0078   94.2906  -43.2895 C   0  0  0  0  0  0  0  0  0  0  0  0
   90.5046   97.1893  -45.2267 C   0  0  0  0  0  0  0  0  0  0  0  0
   91.4468   98.0068  -46.0143 N   0  3  0  0  0  0  0  0  0  0  0  0
   91.9990   93.2734  -44.2376 C   0  0  0  0  0  0  0  0  0  0  0  0
   91.0161   94.8047  -45.8354 C   0  0  0  0  0  0  0  0  0  0  0  0
   90.8686   99.2625  -46.5338 C   0  0  0  0  0  0  0  0  0  0  0  0
   91.5001   93.5427  -45.5077 C   0  0  0  0  0  0  0  0  0  0  0  0
   92.7754   93.8888  -41.3217 I   0  0  0  0  0  0  0  0  0  0  0  0
   91.5455   96.5325  -42.6594 O   0  0  0  0  0  0  0  0  0  0  0  0
   91.4767   91.9845  -46.9892 I   0  0  0  0  0  0  0  0  0  0  0  0
   92.7046   98.2498  -45.2903 C   0  0  0  0  0  0  0  0  0  0  0  0
   90.2999   97.6754  -44.3772 H   0  0  0  0  0  0  0  0  0  0  0  0
   89.6646   97.0777  -45.7576 H   0  0  0  0  0  0  0  0  0  0  0  0
   92.3454   92.3634  -44.0101 H   0  0  0  0  0  0  0  0  0  0  0  0
   90.6597   94.9881  -46.7516 H   0  0  0  0  0  0  0  0  0  0  0  0
   91.5633   99.7592  -47.0541 H   0  0  0  0  0  0  0  0  0  0  0  0
   90.0937   99.0512  -47.1296 H   0  0  0  0  0  0  0  0  0  0  0  0
   90.5572   99.8273  -45.7696 H   0  0  0  0  0  0  0  0  0  0  0  0
   93.3133   98.8054  -45.8568 H   0  0  0  0  0  0  0  0  0  0  0  0
   92.5098   98.7332  -44.4369 H   0  0  0  0  0  0  0  0  0  0  0  0
   93.1454   97.3759  -45.0854 H   0  0  0  0  0  0  0  0  0  0  0  0
   91.6882   97.4592  -46.8155 H   0  0  0  0  0  0  0  0  0  0  0  0
   92.3260   96.6163  -42.0400 H   0  0  0  0  0  0  0  0  0  0  0  0
  1  2  2  0  0  0  0
  1  4  1  0  0  0  0
  1  7  1  0  0  0  0
  2  3  1  0  0  0  0
  2 11  1  0  0  0  0
  3  6  2  0  0  0  0
  3 10  1  0  0  0  0
  4  5  1  0  0  0  0
  5  8  1  0  0  0  0
  5 13  1  0  0  0  0
  6  9  1  0  0  0  0
  7  9  2  0  0  0  0
  9 12  1  0  0  0  0
  4 14  1  0  0  0  0
  4 15  1  0  0  0  0
  6 16  1  0  0  0  0
  7 17  1  0  0  0  0
  8 18  1  0  0  0  0
  8 19  1  0  0  0  0
  8 20  1  0  0  0  0
  5 24  1  0  0  0  0
 13 21  1  0  0  0  0
 13 22  1  0  0  0  0
 13 23  1  0  0  0  0
 11 25  1  0  0  0  0
M  CHG  1   5   1
M  END
> <BIOSOLVEIT.HYDE_ESTIMATED_AFFINITY_LOWER_BOUNDARY [nM]>
94.404651

> <BIOSOLVEIT.HYDE_ESTIMATED_AFFINITY_UPPER_BOUNDARY [nM]>
9379.660210

> <BIOSOLVEIT.HYDE_LIGAND_EFFICIENCY range: ++, +, 0, -, -->
++

> <BIOSOLVEIT.HYDE_LIGAND_LIPOPHILIC_EFFICIENCY range: ++, +, 0, -, -->
0

> <BIOSOLVEIT.LOGP>
1.2459

> <BIOSOLVEIT.MOLECULAR WEIGHT>
404

> <BIOSOLVEIT.MOLECULE_CHECKSUM>
LTM0LjM5ODg7Mi42NDYwNg==

> <BIOSOLVEIT.TPSA>
24.67

> <OPTIBRIUM.BBB category>
+

> <OPTIBRIUM.PPB90 category>
low

> <OPTIBRIUM.2C9 pKi>
4.53082

> <OPTIBRIUM.logS @ pH7.4>
2.51649

> <OPTIBRIUM.BBB log([brain]:[blood])>
-0.706796

> <OPTIBRIUM.2D6 affinity category>
medium

> <OPTIBRIUM.logS>
3.92006

> <OPTIBRIUM.logD>
0.909848

> <OPTIBRIUM.hERG pIC50>
5.07413

> <OPTIBRIUM.logP>
3.30062

> <OPTIBRIUM.HIA category>
+

> <OPTIBRIUM.P-gp category>
no

$$$$
P84_A_400_1_001
joSeeSAR  03092211553D 1   1.00000     0.00000     0
SeeSAR 11.2.2 jonathanwahrer
 25 25  0  0  0  0            999 V2000
   91.0225   95.3962  -45.0088 C   0  0  0  0  0  0  0  0  0  0  0  0
   90.9114   94.4110  -45.9848 C   0  0  0  0  0  0  0  0  0  0  0  0
   91.4410   93.1485  -45.7382 C   0  0  0  0  0  0  0  0  0  0  0  0
   90.4503   96.7822  -45.2593 C   0  0  0  0  0  0  0  0  0  0  0  0
   91.3759   97.6940  -45.9585 N   0  3  0  0  0  0  0  0  0  0  0  0
   92.0770   92.8611  -44.5354 C   0  0  0  0  0  0  0  0  0  0  0  0
   91.6550   95.1290  -43.7987 C   0  0  0  0  0  0  0  0  0  0  0  0
   90.7444   98.9347  -46.4511 C   0  0  0  0  0  0  0  0  0  0  0  0
   92.1780   93.8601  -43.5730 C   0  0  0  0  0  0  0  0  0  0  0  0
   91.2779   91.6143  -47.2356 I   0  0  0  0  0  0  0  0  0  0  0  0
   90.2986   94.6682  -47.1603 O   0  0  0  0  0  0  0  0  0  0  0  0
   93.1574   93.4377  -41.7060 I   0  0  0  0  0  0  0  0  0  0  0  0
   92.5775   97.9796  -45.1588 C   0  0  0  0  0  0  0  0  0  0  0  0
   90.2139   97.1895  -44.3771 H   0  0  0  0  0  0  0  0  0  0  0  0
   89.6240   96.6862  -45.8143 H   0  0  0  0  0  0  0  0  0  0  0  0
   92.4555   91.9514  -44.3653 H   0  0  0  0  0  0  0  0  0  0  0  0
   91.7326   95.8402  -43.1000 H   0  0  0  0  0  0  0  0  0  0  0  0
   91.4306   99.4982  -46.9110 H   0  0  0  0  0  0  0  0  0  0  0  0
   90.0155   98.7044  -47.0959 H   0  0  0  0  0  0  0  0  0  0  0  0
   90.3593   99.4415  -45.6799 H   0  0  0  0  0  0  0  0  0  0  0  0
   93.1765   98.5987  -45.6666 H   0  0  0  0  0  0  0  0  0  0  0  0
   92.3094   98.4083  -44.2960 H   0  0  0  0  0  0  0  0  0  0  0  0
   93.0631   97.1261  -44.9701 H   0  0  0  0  0  0  0  0  0  0  0  0
   91.6919   97.2015  -46.7696 H   0  0  0  0  0  0  0  0  0  0  0  0
   90.2525   95.6057  -47.5055 H   0  0  0  0  0  0  0  0  0  0  0  0
  1  2  2  0  0  0  0
  1  4  1  0  0  0  0
  1  7  1  0  0  0  0
  2  3  1  0  0  0  0
  2 11  1  0  0  0  0
  3  6  2  0  0  0  0
  3 10  1  0  0  0  0
  4  5  1  0  0  0  0
  5  8  1  0  0  0  0
  5 13  1  0  0  0  0
  6  9  1  0  0  0  0
  7  9  2  0  0  0  0
  9 12  1  0  0  0  0
  4 14  1  0  0  0  0
  4 15  1  0  0  0  0
  6 16  1  0  0  0  0
  7 17  1  0  0  0  0
  8 18  1  0  0  0  0
  8 19  1  0  0  0  0
  8 20  1  0  0  0  0
  5 24  1  0  0  0  0
 13 21  1  0  0  0  0
 13 22  1  0  0  0  0
 13 23  1  0  0  0  0
 11 25  1  0  0  0  0
M  CHG  1   5   1
M  END
> <BIOSOLVEIT.HYDE_ESTIMATED_AFFINITY_LOWER_BOUNDARY [nM]>
97.840735

> <BIOSOLVEIT.HYDE_ESTIMATED_AFFINITY_UPPER_BOUNDARY [nM]>
9721.055543

> <BIOSOLVEIT.HYDE_LIGAND_EFFICIENCY range: ++, +, 0, -, -->
++

> <BIOSOLVEIT.HYDE_LIGAND_LIPOPHILIC_EFFICIENCY range: ++, +, 0, -, -->
0

> <BIOSOLVEIT.LOGP>
1.2459

> <BIOSOLVEIT.MOLECULAR WEIGHT>
404

> <BIOSOLVEIT.MOLECULE_CHECKSUM>
LTM0LjMxMDI7Mi42MzkyNA==

> <BIOSOLVEIT.TPSA>
24.67

> <OPTIBRIUM.BBB category>
+

> <OPTIBRIUM.PPB90 category>
low

> <OPTIBRIUM.2C9 pKi>
4.53082

> <OPTIBRIUM.logS @ pH7.4>
2.51649

> <OPTIBRIUM.BBB log([brain]:[blood])>
-0.706796

> <OPTIBRIUM.2D6 affinity category>
medium

> <OPTIBRIUM.logS>
3.92006

> <OPTIBRIUM.logD>
0.909848

> <OPTIBRIUM.hERG pIC50>
5.07413

> <OPTIBRIUM.logP>
3.30062

> <OPTIBRIUM.HIA category>
+

> <OPTIBRIUM.P-gp category>
no

$$$$
P84_A_400_1_010
joSeeSAR  03092211553D 1   1.00000     0.00000     0
SeeSAR 11.2.2 jonathanwahrer
 25 25  0  0  0  0            999 V2000
   90.8342   95.0363  -45.2138 C   0  0  0  0  0  0  0  0  0  0  0  0
   91.5275   94.7706  -44.0371 C   0  0  0  0  0  0  0  0  0  0  0  0
   92.1962   93.5584  -43.9023 C   0  0  0  0  0  0  0  0  0  0  0  0
   90.0968   96.3553  -45.3803 C   0  0  0  0  0  0  0  0  0  0  0  0
   90.0378   96.8357  -46.7739 N   0  3  0  0  0  0  0  0  0  0  0  0
   92.1799   92.6140  -44.9229 C   0  0  0  0  0  0  0  0  0  0  0  0
   90.8055   94.1047  -46.2468 C   0  0  0  0  0  0  0  0  0  0  0  0
   89.0122   96.1675  -47.6000 C   0  0  0  0  0  0  0  0  0  0  0  0
   91.4805   92.8987  -46.0909 C   0  0  0  0  0  0  0  0  0  0  0  0
   93.2727   93.1318  -42.0906 I   0  0  0  0  0  0  0  0  0  0  0  0
   91.5562   95.6730  -43.0329 O   0  0  0  0  0  0  0  0  0  0  0  0
   91.4417   91.4527  -47.6818 I   0  0  0  0  0  0  0  0  0  0  0  0
   89.9210   98.3007  -46.8476 C   0  0  0  0  0  0  0  0  0  0  0  0
   90.5615   97.0476  -44.8281 H   0  0  0  0  0  0  0  0  0  0  0  0
   89.1611   96.2369  -45.0481 H   0  0  0  0  0  0  0  0  0  0  0  0
   92.6628   91.7446  -44.8187 H   0  0  0  0  0  0  0  0  0  0  0  0
   90.3059   94.2999  -47.0908 H   0  0  0  0  0  0  0  0  0  0  0  0
   89.0328   96.5443  -48.5261 H   0  0  0  0  0  0  0  0  0  0  0  0
   89.2002   95.1860  -47.6353 H   0  0  0  0  0  0  0  0  0  0  0  0
   88.1092   96.3198  -47.1982 H   0  0  0  0  0  0  0  0  0  0  0  0
   89.8841   98.5844  -47.8058 H   0  0  0  0  0  0  0  0  0  0  0  0
   89.0859   98.5924  -46.3812 H   0  0  0  0  0  0  0  0  0  0  0  0
   90.7136   98.7210  -46.4058 H   0  0  0  0  0  0  0  0  0  0  0  0
   90.9198   96.6057  -47.1852 H   0  0  0  0  0  0  0  0  0  0  0  0
   91.2588   95.4094  -42.1152 H   0  0  0  0  0  0  0  0  0  0  0  0
  1  2  2  0  0  0  0
  1  4  1  0  0  0  0
  1  7  1  0  0  0  0
  2  3  1  0  0  0  0
  2 11  1  0  0  0  0
  3  6  2  0  0  0  0
  3 10  1  0  0  0  0
  4  5  1  0  0  0  0
  5  8  1  0  0  0  0
  5 13  1  0  0  0  0
  6  9  1  0  0  0  0
  7  9  2  0  0  0  0
  9 12  1  0  0  0  0
  4 14  1  0  0  0  0
  4 15  1  0  0  0  0
  6 16  1  0  0  0  0
  7 17  1  0  0  0  0
  8 18  1  0  0  0  0
  8 19  1  0  0  0  0
  8 20  1  0  0  0  0
  5 24  1  0  0  0  0
 13 21  1  0  0  0  0
 13 22  1  0  0  0  0
 13 23  1  0  0  0  0
 11 25  1  0  0  0  0
M  CHG  1   5   1
M  END
> <BIOSOLVEIT.HYDE_ESTIMATED_AFFINITY_LOWER_BOUNDARY [nM]>
102.555760

> <BIOSOLVEIT.HYDE_ESTIMATED_AFFINITY_UPPER_BOUNDARY [nM]>
10189.521113

> <BIOSOLVEIT.HYDE_LIGAND_EFFICIENCY range: ++, +, 0, -, -->
++

> <BIOSOLVEIT.HYDE_LIGAND_LIPOPHILIC_EFFICIENCY range: ++, +, 0, -, -->
0

> <BIOSOLVEIT.LOGP>
1.2459

> <BIOSOLVEIT.MOLECULAR WEIGHT>
404

> <BIOSOLVEIT.MOLECULE_CHECKSUM>
LTM0LjE5MzU7Mi42MzAyNw==

> <BIOSOLVEIT.TPSA>
24.67

> <OPTIBRIUM.BBB category>
+

> <OPTIBRIUM.PPB90 category>
low

> <OPTIBRIUM.2C9 pKi>
4.53082

> <OPTIBRIUM.logS @ pH7.4>
2.51649

> <OPTIBRIUM.BBB log([brain]:[blood])>
-0.706796

> <OPTIBRIUM.2D6 affinity category>
medium

> <OPTIBRIUM.logS>
3.92006

> <OPTIBRIUM.logD>
0.909848

> <OPTIBRIUM.hERG pIC50>
5.07413

> <OPTIBRIUM.logP>
3.30062

> <OPTIBRIUM.HIA category>
+

> <OPTIBRIUM.P-gp category>
no

$$$$
P84_A_400_1_009
joSeeSAR  03092211553D 1   1.00000     0.00000     0
SeeSAR 11.2.2 jonathanwahrer
 25 25  0  0  0  0            999 V2000
   91.1100   95.4436  -44.9822 C   0  0  0  0  0  0  0  0  0  0  0  0
   91.6649   95.2074  -43.7285 C   0  0  0  0  0  0  0  0  0  0  0  0
   92.1666   93.9435  -43.4356 C   0  0  0  0  0  0  0  0  0  0  0  0
   90.5560   96.8182  -45.3214 C   0  0  0  0  0  0  0  0  0  0  0  0
   91.3934   97.9350  -44.8438 N   0  3  0  0  0  0  0  0  0  0  0  0
   92.1201   92.9191  -44.3749 C   0  0  0  0  0  0  0  0  0  0  0  0
   91.0539   94.4323  -45.9360 C   0  0  0  0  0  0  0  0  0  0  0  0
   92.6865   98.0631  -45.5453 C   0  0  0  0  0  0  0  0  0  0  0  0
   91.5610   93.1758  -45.6222 C   0  0  0  0  0  0  0  0  0  0  0  0
   93.0278   93.5613  -41.5030 I   0  0  0  0  0  0  0  0  0  0  0  0
   91.7198   96.1872  -42.8009 O   0  0  0  0  0  0  0  0  0  0  0  0
   91.4786   91.6063  -47.0897 I   0  0  0  0  0  0  0  0  0  0  0  0
   90.6574   99.2091  -44.8298 C   0  0  0  0  0  0  0  0  0  0  0  0
   89.6503   96.9038  -44.9063 H   0  0  0  0  0  0  0  0  0  0  0  0
   90.4749   96.8883  -46.3157 H   0  0  0  0  0  0  0  0  0  0  0  0
   92.4828   92.0130  -44.1572 H   0  0  0  0  0  0  0  0  0  0  0  0
   90.6541   94.6065  -46.8359 H   0  0  0  0  0  0  0  0  0  0  0  0
   93.1948   98.8375  -45.1686 H   0  0  0  0  0  0  0  0  0  0  0  0
   93.2171   97.2245  -45.4223 H   0  0  0  0  0  0  0  0  0  0  0  0
   92.5233   98.2142  -46.5204 H   0  0  0  0  0  0  0  0  0  0  0  0
   91.2584   99.9376  -44.5012 H   0  0  0  0  0  0  0  0  0  0  0  0
   90.3473   99.4251  -45.7557 H   0  0  0  0  0  0  0  0  0  0  0  0
   89.8662   99.1305  -44.2233 H   0  0  0  0  0  0  0  0  0  0  0  0
   91.6131   97.7301  -43.8901 H   0  0  0  0  0  0  0  0  0  0  0  0
   91.4588   95.9953  -41.8549 H   0  0  0  0  0  0  0  0  0  0  0  0
  1  2  2  0  0  0  0
  1  4  1  0  0  0  0
  1  7  1  0  0  0  0
  2  3  1  0  0  0  0
  2 11  1  0  0  0  0
  3  6  2  0  0  0  0
  3 10  1  0  0  0  0
  4  5  1  0  0  0  0
  5  8  1  0  0  0  0
  5 13  1  0  0  0  0
  6  9  1  0  0  0  0
  7  9  2  0  0  0  0
  9 12  1  0  0  0  0
  4 14  1  0  0  0  0
  4 15  1  0  0  0  0
  6 16  1  0  0  0  0
  7 17  1  0  0  0  0
  8 18  1  0  0  0  0
  8 19  1  0  0  0  0
  8 20  1  0  0  0  0
  5 24  1  0  0  0  0
 13 21  1  0  0  0  0
 13 22  1  0  0  0  0
 13 23  1  0  0  0  0
 11 25  1  0  0  0  0
M  CHG  1   5   1
M  END
> <BIOSOLVEIT.HYDE_ESTIMATED_AFFINITY_LOWER_BOUNDARY [nM]>
340.588210

> <BIOSOLVEIT.HYDE_ESTIMATED_AFFINITY_UPPER_BOUNDARY [nM]>
33839.452404

> <BIOSOLVEIT.HYDE_LIGAND_EFFICIENCY range: ++, +, 0, -, -->
++

> <BIOSOLVEIT.HYDE_LIGAND_LIPOPHILIC_EFFICIENCY range: ++, +, 0, -, -->
0

> <BIOSOLVEIT.LOGP>
1.2459

> <BIOSOLVEIT.MOLECULAR WEIGHT>
404

> <BIOSOLVEIT.MOLECULE_CHECKSUM>
LTMxLjIxODE7Mi40MDEzOQ==

> <BIOSOLVEIT.TPSA>
24.67

> <OPTIBRIUM.BBB category>
+

> <OPTIBRIUM.PPB90 category>
low

> <OPTIBRIUM.2C9 pKi>
4.53082

> <OPTIBRIUM.logS @ pH7.4>
2.51649

> <OPTIBRIUM.BBB log([brain]:[blood])>
-0.706796

> <OPTIBRIUM.2D6 affinity category>
medium

> <OPTIBRIUM.logS>
3.92006

> <OPTIBRIUM.logD>
0.909848

> <OPTIBRIUM.hERG pIC50>
5.07413

> <OPTIBRIUM.logP>
3.30062

> <OPTIBRIUM.HIA category>
+

> <OPTIBRIUM.P-gp category>
no

$$$$
P84_A_400_1_007
joSeeSAR  03092211553D 1   1.00000     0.00000     0
SeeSAR 11.2.2 jonathanwahrer
 25 25  0  0  0  0            999 V2000
   91.0374   95.4935  -44.8936 C   0  0  0  0  0  0  0  0  0  0  0  0
   90.9578   94.5380  -45.9016 C   0  0  0  0  0  0  0  0  0  0  0  0
   91.4891   93.2716  -45.6800 C   0  0  0  0  0  0  0  0  0  0  0  0
   90.4629   96.8832  -45.1165 C   0  0  0  0  0  0  0  0  0  0  0  0
   91.4094   97.9760  -44.8222 N   0  3  0  0  0  0  0  0  0  0  0  0
   92.0958   92.9511  -44.4705 C   0  0  0  0  0  0  0  0  0  0  0  0
   91.6403   95.1929  -43.6763 C   0  0  0  0  0  0  0  0  0  0  0  0
   92.7091   97.8512  -45.5121 C   0  0  0  0  0  0  0  0  0  0  0  0
   92.1656   93.9207  -43.4758 C   0  0  0  0  0  0  0  0  0  0  0  0
   91.3744   91.7830  -47.2272 I   0  0  0  0  0  0  0  0  0  0  0  0
   90.3736   94.8276  -47.0842 O   0  0  0  0  0  0  0  0  0  0  0  0
   93.0995   93.4469  -41.5979 I   0  0  0  0  0  0  0  0  0  0  0  0
   90.8070   99.3008  -45.0397 C   0  0  0  0  0  0  0  0  0  0  0  0
   89.6632   96.9918  -44.5259 H   0  0  0  0  0  0  0  0  0  0  0  0
   90.1830   96.9584  -46.0736 H   0  0  0  0  0  0  0  0  0  0  0  0
   92.4757   92.0388  -44.3185 H   0  0  0  0  0  0  0  0  0  0  0  0
   91.6954   95.8829  -42.9544 H   0  0  0  0  0  0  0  0  0  0  0  0
   93.2936   98.6240  -45.2645 H   0  0  0  0  0  0  0  0  0  0  0  0
   93.1516   96.9975  -45.2378 H   0  0  0  0  0  0  0  0  0  0  0  0
   92.5625   97.8478  -46.5013 H   0  0  0  0  0  0  0  0  0  0  0  0
   91.4789  100.0110  -44.8298 H   0  0  0  0  0  0  0  0  0  0  0  0
   90.5208   99.3842  -45.9943 H   0  0  0  0  0  0  0  0  0  0  0  0
   90.0118   99.4073  -44.4429 H   0  0  0  0  0  0  0  0  0  0  0  0
   91.6069   97.9173  -43.8437 H   0  0  0  0  0  0  0  0  0  0  0  0
   89.3978   95.0432  -47.1204 H   0  0  0  0  0  0  0  0  0  0  0  0
  1  2  2  0  0  0  0
  1  4  1  0  0  0  0
  1  7  1  0  0  0  0
  2  3  1  0  0  0  0
  2 11  1  0  0  0  0
  3  6  2  0  0  0  0
  3 10  1  0  0  0  0
  4  5  1  0  0  0  0
  5  8  1  0  0  0  0
  5 13  1  0  0  0  0
  6  9  1  0  0  0  0
  7  9  2  0  0  0  0
  9 12  1  0  0  0  0
  4 14  1  0  0  0  0
  4 15  1  0  0  0  0
  6 16  1  0  0  0  0
  7 17  1  0  0  0  0
  8 18  1  0  0  0  0
  8 19  1  0  0  0  0
  8 20  1  0  0  0  0
  5 24  1  0  0  0  0
 13 21  1  0  0  0  0
 13 22  1  0  0  0  0
 13 23  1  0  0  0  0
 11 25  1  0  0  0  0
M  CHG  1   5   1
M  END
> <BIOSOLVEIT.HYDE_ESTIMATED_AFFINITY_LOWER_BOUNDARY [nM]>
400.493741

> <BIOSOLVEIT.HYDE_ESTIMATED_AFFINITY_UPPER_BOUNDARY [nM]>
39791.421029

> <BIOSOLVEIT.HYDE_LIGAND_EFFICIENCY range: ++, +, 0, -, -->
++

> <BIOSOLVEIT.HYDE_LIGAND_LIPOPHILIC_EFFICIENCY range: ++, +, 0, -, -->
0

> <BIOSOLVEIT.LOGP>
1.2459

> <BIOSOLVEIT.MOLECULAR WEIGHT>
404

> <BIOSOLVEIT.MOLECULE_CHECKSUM>
LTMwLjgxNjQ7Mi4zNzA1

> <BIOSOLVEIT.TPSA>
24.67

> <OPTIBRIUM.BBB category>
+

> <OPTIBRIUM.PPB90 category>
low

> <OPTIBRIUM.2C9 pKi>
4.53082

> <OPTIBRIUM.logS @ pH7.4>
2.51649

> <OPTIBRIUM.BBB log([brain]:[blood])>
-0.706796

> <OPTIBRIUM.2D6 affinity category>
medium

> <OPTIBRIUM.logS>
3.92006

> <OPTIBRIUM.logD>
0.909848

> <OPTIBRIUM.hERG pIC50>
5.07413

> <OPTIBRIUM.logP>
3.30062

> <OPTIBRIUM.HIA category>
+

> <OPTIBRIUM.P-gp category>
no

$$$$
P84_A_400_1_004
joSeeSAR  03092211553D 1   1.00000     0.00000     0
SeeSAR 11.2.2 jonathanwahrer
 25 25  0  0  0  0            999 V2000
   91.0851   95.9081  -44.9893 C   0  0  0  0  0  0  0  0  0  0  0  0
   91.5400   95.6861  -43.6933 C   0  0  0  0  0  0  0  0  0  0  0  0
   91.9561   94.4096  -43.3295 C   0  0  0  0  0  0  0  0  0  0  0  0
   90.6258   97.2962  -45.4061 C   0  0  0  0  0  0  0  0  0  0  0  0
   91.4831   98.3862  -44.9025 N   0  3  0  0  0  0  0  0  0  0  0  0
   91.9225   93.3587  -44.2398 C   0  0  0  0  0  0  0  0  0  0  0  0
   91.0436   94.8703  -45.9150 C   0  0  0  0  0  0  0  0  0  0  0  0
   92.8459   98.3944  -45.4715 C   0  0  0  0  0  0  0  0  0  0  0  0
   91.4638   93.6016  -45.5301 C   0  0  0  0  0  0  0  0  0  0  0  0
   92.6622   94.0489  -41.3309 I   0  0  0  0  0  0  0  0  0  0  0  0
   91.5806   96.6916  -42.7929 O   0  0  0  0  0  0  0  0  0  0  0  0
   91.4033   91.9912  -46.9537 I   0  0  0  0  0  0  0  0  0  0  0  0
   90.8356   99.7012  -45.0312 C   0  0  0  0  0  0  0  0  0  0  0  0
   89.6990   97.4386  -45.0588 H   0  0  0  0  0  0  0  0  0  0  0  0
   90.6175   97.3381  -46.4052 H   0  0  0  0  0  0  0  0  0  0  0  0
   92.2231   92.4436  -43.9710 H   0  0  0  0  0  0  0  0  0  0  0  0
   90.7158   95.0345  -46.8454 H   0  0  0  0  0  0  0  0  0  0  0  0
   93.3640   99.1573  -45.0845 H   0  0  0  0  0  0  0  0  0  0  0  0
   93.3046   97.5338  -45.2506 H   0  0  0  0  0  0  0  0  0  0  0  0
   92.7918   98.4981  -46.4647 H   0  0  0  0  0  0  0  0  0  0  0  0
   91.4474  100.4098  -44.6800 H   0  0  0  0  0  0  0  0  0  0  0  0
   90.6352   99.8812  -45.9942 H   0  0  0  0  0  0  0  0  0  0  0  0
   89.9841   99.7062  -44.5069 H   0  0  0  0  0  0  0  0  0  0  0  0
   91.5919   98.2242  -43.9217 H   0  0  0  0  0  0  0  0  0  0  0  0
   92.1701   96.6190  -41.9885 H   0  0  0  0  0  0  0  0  0  0  0  0
  1  2  2  0  0  0  0
  1  4  1  0  0  0  0
  1  7  1  0  0  0  0
  2  3  1  0  0  0  0
  2 11  1  0  0  0  0
  3  6  2  0  0  0  0
  3 10  1  0  0  0  0
  4  5  1  0  0  0  0
  5  8  1  0  0  0  0
  5 13  1  0  0  0  0
  6  9  1  0  0  0  0
  7  9  2  0  0  0  0
  9 12  1  0  0  0  0
  4 14  1  0  0  0  0
  4 15  1  0  0  0  0
  6 16  1  0  0  0  0
  7 17  1  0  0  0  0
  8 18  1  0  0  0  0
  8 19  1  0  0  0  0
  8 20  1  0  0  0  0
  5 24  1  0  0  0  0
 13 21  1  0  0  0  0
 13 22  1  0  0  0  0
 13 23  1  0  0  0  0
 11 25  1  0  0  0  0
M  CHG  1   5   1
M  END
> <BIOSOLVEIT.HYDE_ESTIMATED_AFFINITY_LOWER_BOUNDARY [nM]>
543.302379

> <BIOSOLVEIT.HYDE_ESTIMATED_AFFINITY_UPPER_BOUNDARY [nM]>
53980.303616

> <BIOSOLVEIT.HYDE_LIGAND_EFFICIENCY range: ++, +, 0, -, -->
++

> <BIOSOLVEIT.HYDE_LIGAND_LIPOPHILIC_EFFICIENCY range: ++, +, 0, -, -->
0

> <BIOSOLVEIT.LOGP>
1.2459

> <BIOSOLVEIT.MOLECULAR WEIGHT>
404

> <BIOSOLVEIT.MOLECULE_CHECKSUM>
LTMwLjA2MDQ7Mi4zMTIzNA==

> <BIOSOLVEIT.TPSA>
24.67

> <OPTIBRIUM.BBB category>
+

> <OPTIBRIUM.PPB90 category>
low

> <OPTIBRIUM.2C9 pKi>
4.53082

> <OPTIBRIUM.logS @ pH7.4>
2.51649

> <OPTIBRIUM.BBB log([brain]:[blood])>
-0.706796

> <OPTIBRIUM.2D6 affinity category>
medium

> <OPTIBRIUM.logS>
3.92006

> <OPTIBRIUM.logD>
0.909848

> <OPTIBRIUM.hERG pIC50>
5.07413

> <OPTIBRIUM.logP>
3.30062

> <OPTIBRIUM.HIA category>
+

> <OPTIBRIUM.P-gp category>
no

$$$$
P84_A_400_1_005
joSeeSAR  03092211553D 1   1.00000     0.00000     0
SeeSAR 11.2.2 jonathanwahrer
 25 25  0  0  0  0            999 V2000
   91.1019   96.1731  -45.0537 C   0  0  0  0  0  0  0  0  0  0  0  0
   91.4584   95.9361  -43.7299 C   0  0  0  0  0  0  0  0  0  0  0  0
   91.7696   94.6398  -43.3326 C   0  0  0  0  0  0  0  0  0  0  0  0
   90.7579   97.5828  -45.5074 C   0  0  0  0  0  0  0  0  0  0  0  0
   89.8374   98.2950  -44.6006 N   0  3  0  0  0  0  0  0  0  0  0  0
   91.7284   93.5841  -44.2369 C   0  0  0  0  0  0  0  0  0  0  0  0
   91.0545   95.1307  -45.9740 C   0  0  0  0  0  0  0  0  0  0  0  0
   89.9342   99.7667  -44.6759 C   0  0  0  0  0  0  0  0  0  0  0  0
   91.3690   93.8422  -45.5554 C   0  0  0  0  0  0  0  0  0  0  0  0
   92.3230   94.2558  -41.2907 I   0  0  0  0  0  0  0  0  0  0  0  0
   91.5044   96.9460  -42.8348 O   0  0  0  0  0  0  0  0  0  0  0  0
   91.2985   92.2248  -46.9704 I   0  0  0  0  0  0  0  0  0  0  0  0
   88.4478   97.8362  -44.7539 C   0  0  0  0  0  0  0  0  0  0  0  0
   90.3307   97.5276  -46.4099 H   0  0  0  0  0  0  0  0  0  0  0  0
   91.6061   98.1086  -45.5716 H   0  0  0  0  0  0  0  0  0  0  0  0
   91.9533   92.6548  -43.9439 H   0  0  0  0  0  0  0  0  0  0  0  0
   90.7976   95.3058  -46.9244 H   0  0  0  0  0  0  0  0  0  0  0  0
   89.2839  100.1767  -44.0363 H   0  0  0  0  0  0  0  0  0  0  0  0
   90.8622  100.0524  -44.4364 H   0  0  0  0  0  0  0  0  0  0  0  0
   89.7224  100.0676  -45.6056 H   0  0  0  0  0  0  0  0  0  0  0  0
   87.8584   98.3421  -44.1240 H   0  0  0  0  0  0  0  0  0  0  0  0
   88.1458   97.9958  -45.6938 H   0  0  0  0  0  0  0  0  0  0  0  0
   88.3947   96.8591  -44.5480 H   0  0  0  0  0  0  0  0  0  0  0  0
   90.1124   98.0450  -43.6722 H   0  0  0  0  0  0  0  0  0  0  0  0
   92.2490   96.9903  -42.1687 H   0  0  0  0  0  0  0  0  0  0  0  0
  1  2  2  0  0  0  0
  1  4  1  0  0  0  0
  1  7  1  0  0  0  0
  2  3  1  0  0  0  0
  2 11  1  0  0  0  0
  3  6  2  0  0  0  0
  3 10  1  0  0  0  0
  4  5  1  0  0  0  0
  5  8  1  0  0  0  0
  5 13  1  0  0  0  0
  6  9  1  0  0  0  0
  7  9  2  0  0  0  0
  9 12  1  0  0  0  0
  4 14  1  0  0  0  0
  4 15  1  0  0  0  0
  6 16  1  0  0  0  0
  7 17  1  0  0  0  0
  8 18  1  0  0  0  0
  8 19  1  0  0  0  0
  8 20  1  0  0  0  0
  5 24  1  0  0  0  0
 13 21  1  0  0  0  0
 13 22  1  0  0  0  0
 13 23  1  0  0  0  0
 11 25  1  0  0  0  0
M  CHG  1   5   1
M  END
> <BIOSOLVEIT.HYDE_ESTIMATED_AFFINITY_LOWER_BOUNDARY [nM]>
6862.577813

> <BIOSOLVEIT.HYDE_ESTIMATED_AFFINITY_UPPER_BOUNDARY [nM]>
681837.680537

> <BIOSOLVEIT.HYDE_LIGAND_EFFICIENCY range: ++, +, 0, -, -->
+

> <BIOSOLVEIT.HYDE_LIGAND_LIPOPHILIC_EFFICIENCY range: ++, +, 0, -, -->
-

> <BIOSOLVEIT.LOGP>
1.2459

> <BIOSOLVEIT.MOLECULAR WEIGHT>
404

> <BIOSOLVEIT.MOLECULE_CHECKSUM>
LTIzLjc3MzQ7MS44Mjg3Mg==

> <BIOSOLVEIT.TPSA>
24.67

> <OPTIBRIUM.BBB category>
+

> <OPTIBRIUM.PPB90 category>
low

> <OPTIBRIUM.2C9 pKi>
4.53082

> <OPTIBRIUM.logS @ pH7.4>
2.51649

> <OPTIBRIUM.BBB log([brain]:[blood])>
-0.706796

> <OPTIBRIUM.2D6 affinity category>
medium

> <OPTIBRIUM.logS>
3.92006

> <OPTIBRIUM.logD>
0.909848

> <OPTIBRIUM.hERG pIC50>
5.07413

> <OPTIBRIUM.logP>
3.30062

> <OPTIBRIUM.HIA category>
+

> <OPTIBRIUM.P-gp category>
no

$$$$
P84_A_400_1_006
joSeeSAR  03092211553D 1   1.00000     0.00000     0
SeeSAR 11.2.2 jonathanwahrer
 25 25  0  0  0  0            999 V2000
   91.3148   92.6481  -45.8093 C   0  0  0  0  0  0  0  0  0  0  0  0
   90.7804   93.8990  -46.1008 C   0  0  0  0  0  0  0  0  0  0  0  0
   90.9622   94.9418  -45.1983 C   0  0  0  0  0  0  0  0  0  0  0  0
   91.1267   91.4956  -46.7828 C   0  0  0  0  0  0  0  0  0  0  0  0
   92.1692   91.4158  -47.8238 N   0  3  0  0  0  0  0  0  0  0  0  0
   91.6669   94.7501  -44.0149 C   0  0  0  0  0  0  0  0  0  0  0  0
   92.0232   92.4355  -44.6308 C   0  0  0  0  0  0  0  0  0  0  0  0
   93.3258   90.5741  -47.4568 C   0  0  0  0  0  0  0  0  0  0  0  0
   92.1928   93.4917  -43.7421 C   0  0  0  0  0  0  0  0  0  0  0  0
   90.1431   96.8816  -45.6331 I   0  0  0  0  0  0  0  0  0  0  0  0
   90.0920   94.1076  -47.2437 O   0  0  0  0  0  0  0  0  0  0  0  0
   93.2858   93.1728  -41.9181 I   0  0  0  0  0  0  0  0  0  0  0  0
   91.6144   91.0316  -49.1314 C   0  0  0  0  0  0  0  0  0  0  0  0
   90.2403   91.6051  -47.2327 H   0  0  0  0  0  0  0  0  0  0  0  0
   91.1338   90.6408  -46.2640 H   0  0  0  0  0  0  0  0  0  0  0  0
   91.7935   95.5044  -43.3707 H   0  0  0  0  0  0  0  0  0  0  0  0
   92.4055   91.5345  -44.4254 H   0  0  0  0  0  0  0  0  0  0  0  0
   93.9860   90.5691  -48.2078 H   0  0  0  0  0  0  0  0  0  0  0  0
   93.7591   90.9434  -46.6346 H   0  0  0  0  0  0  0  0  0  0  0  0
   93.0156   89.6402  -47.2793 H   0  0  0  0  0  0  0  0  0  0  0  0
   92.3509   90.9890  -49.8065 H   0  0  0  0  0  0  0  0  0  0  0  0
   91.1775   90.1351  -49.0577 H   0  0  0  0  0  0  0  0  0  0  0  0
   90.9377   91.7096  -49.4186 H   0  0  0  0  0  0  0  0  0  0  0  0
   92.5242   92.3442  -47.9339 H   0  0  0  0  0  0  0  0  0  0  0  0
   89.3265   94.7511  -47.2559 H   0  0  0  0  0  0  0  0  0  0  0  0
  1  2  2  0  0  0  0
  1  4  1  0  0  0  0
  1  7  1  0  0  0  0
  2  3  1  0  0  0  0
  2 11  1  0  0  0  0
  3  6  2  0  0  0  0
  3 10  1  0  0  0  0
  4  5  1  0  0  0  0
  5  8  1  0  0  0  0
  5 13  1  0  0  0  0
  6  9  1  0  0  0  0
  7  9  2  0  0  0  0
  9 12  1  0  0  0  0
  4 14  1  0  0  0  0
  4 15  1  0  0  0  0
  6 16  1  0  0  0  0
  7 17  1  0  0  0  0
  8 18  1  0  0  0  0
  8 19  1  0  0  0  0
  8 20  1  0  0  0  0
  5 24  1  0  0  0  0
 13 21  1  0  0  0  0
 13 22  1  0  0  0  0
 13 23  1  0  0  0  0
 11 25  1  0  0  0  0
M  CHG  1   5   1
M  END
> <BIOSOLVEIT.HYDE_ESTIMATED_AFFINITY_LOWER_BOUNDARY [nM]>
21924.346414

> <BIOSOLVEIT.HYDE_ESTIMATED_AFFINITY_UPPER_BOUNDARY [nM]>
2178313.443221

> <BIOSOLVEIT.HYDE_LIGAND_EFFICIENCY range: ++, +, 0, -, -->
0

> <BIOSOLVEIT.HYDE_LIGAND_LIPOPHILIC_EFFICIENCY range: ++, +, 0, -, -->
-

> <BIOSOLVEIT.LOGP>
1.2459

> <BIOSOLVEIT.MOLECULAR WEIGHT>
404

> <BIOSOLVEIT.MOLECULE_CHECKSUM>
LTIwLjg5NDsxLjYwNzIz

> <BIOSOLVEIT.TPSA>
24.67

> <OPTIBRIUM.BBB category>
+

> <OPTIBRIUM.PPB90 category>
low

> <OPTIBRIUM.2C9 pKi>
4.53082

> <OPTIBRIUM.logS @ pH7.4>
2.51649

> <OPTIBRIUM.BBB log([brain]:[blood])>
-0.706796

> <OPTIBRIUM.2D6 affinity category>
medium

> <OPTIBRIUM.logS>
3.92006

> <OPTIBRIUM.logD>
0.909848

> <OPTIBRIUM.hERG pIC50>
5.07413

> <OPTIBRIUM.logP>
3.30062

> <OPTIBRIUM.HIA category>
+

> <OPTIBRIUM.P-gp category>
no

$$$$
P84_A_400_1_008
joSeeSAR  03092211553D 1   1.00000     0.00000     0
SeeSAR 11.2.2 jonathanwahrer
 25 25  0  0  0  0            999 V2000
   91.0833   95.3458  -45.3285 C   0  0  0  0  0  0  0  0  0  0  0  0
   91.5576   95.2341  -44.0254 C   0  0  0  0  0  0  0  0  0  0  0  0
   92.0197   94.0019  -43.5747 C   0  0  0  0  0  0  0  0  0  0  0  0
   90.5737   96.6840  -45.8397 C   0  0  0  0  0  0  0  0  0  0  0  0
   89.1133   96.7292  -46.0442 N   0  3  0  0  0  0  0  0  0  0  0  0
   92.0128   92.8868  -44.4056 C   0  0  0  0  0  0  0  0  0  0  0  0
   91.0680   94.2424  -46.1758 C   0  0  0  0  0  0  0  0  0  0  0  0
   88.4401   97.8430  -45.3462 C   0  0  0  0  0  0  0  0  0  0  0  0
   91.5343   93.0197  -45.7047 C   0  0  0  0  0  0  0  0  0  0  0  0
   92.7563   93.8115  -41.5638 I   0  0  0  0  0  0  0  0  0  0  0  0
   91.5728   96.3035  -43.2010 O   0  0  0  0  0  0  0  0  0  0  0  0
   91.5143   91.3085  -47.0067 I   0  0  0  0  0  0  0  0  0  0  0  0
   88.7549   96.6897  -47.4708 C   0  0  0  0  0  0  0  0  0  0  0  0
   91.0201   96.8779  -46.7133 H   0  0  0  0  0  0  0  0  0  0  0  0
   90.8206   97.3894  -45.1754 H   0  0  0  0  0  0  0  0  0  0  0  0
   92.3466   92.0042  -44.0747 H   0  0  0  0  0  0  0  0  0  0  0  0
   90.7261   94.3273  -47.1117 H   0  0  0  0  0  0  0  0  0  0  0  0
   87.4581   97.8074  -45.5316 H   0  0  0  0  0  0  0  0  0  0  0  0
   88.5967   97.7627  -44.3618 H   0  0  0  0  0  0  0  0  0  0  0  0
   88.8097   98.7130  -45.6728 H   0  0  0  0  0  0  0  0  0  0  0  0
   87.7599   96.7221  -47.5654 H   0  0  0  0  0  0  0  0  0  0  0  0
   89.1600   97.4755  -47.9381 H   0  0  0  0  0  0  0  0  0  0  0  0
   89.1011   95.8446  -47.8782 H   0  0  0  0  0  0  0  0  0  0  0  0
   88.7498   95.8887  -45.6425 H   0  0  0  0  0  0  0  0  0  0  0  0
   91.3003   96.2012  -42.2443 H   0  0  0  0  0  0  0  0  0  0  0  0
  1  2  2  0  0  0  0
  1  4  1  0  0  0  0
  1  7  1  0  0  0  0
  2  3  1  0  0  0  0
  2 11  1  0  0  0  0
  3  6  2  0  0  0  0
  3 10  1  0  0  0  0
  4  5  1  0  0  0  0
  5  8  1  0  0  0  0
  5 13  1  0  0  0  0
  6  9  1  0  0  0  0
  7  9  2  0  0  0  0
  9 12  1  0  0  0  0
  4 14  1  0  0  0  0
  4 15  1  0  0  0  0
  6 16  1  0  0  0  0
  7 17  1  0  0  0  0
  8 18  1  0  0  0  0
  8 19  1  0  0  0  0
  8 20  1  0  0  0  0
  5 24  1  0  0  0  0
 13 21  1  0  0  0  0
 13 22  1  0  0  0  0
 13 23  1  0  0  0  0
 11 25  1  0  0  0  0
M  CHG  1   5   1
M  END
> <BIOSOLVEIT.HYDE_ESTIMATED_AFFINITY_LOWER_BOUNDARY [nM]>
58792.872444

> <BIOSOLVEIT.HYDE_ESTIMATED_AFFINITY_UPPER_BOUNDARY [nM]>
5841419.488328

> <BIOSOLVEIT.HYDE_LIGAND_EFFICIENCY range: ++, +, 0, -, -->
0

> <BIOSOLVEIT.HYDE_LIGAND_LIPOPHILIC_EFFICIENCY range: ++, +, 0, -, -->
--

> <BIOSOLVEIT.LOGP>
1.2459

> <BIOSOLVEIT.MOLECULAR WEIGHT>
404

> <BIOSOLVEIT.MOLECULE_CHECKSUM>
LTE4LjQ0ODc7MS40MTkxMw==

> <BIOSOLVEIT.TPSA>
24.67

> <OPTIBRIUM.BBB category>
+

> <OPTIBRIUM.PPB90 category>
low

> <OPTIBRIUM.2C9 pKi>
4.53082

> <OPTIBRIUM.logS @ pH7.4>
2.51649

> <OPTIBRIUM.BBB log([brain]:[blood])>
-0.706796

> <OPTIBRIUM.2D6 affinity category>
medium

> <OPTIBRIUM.logS>
3.92006

> <OPTIBRIUM.logD>
0.909848

> <OPTIBRIUM.hERG pIC50>
5.07413

> <OPTIBRIUM.logP>
3.30062

> <OPTIBRIUM.HIA category>
+

> <OPTIBRIUM.P-gp category>
no

$$$$
