# created with PyMOL 2.5.2
@<TRIPOS>MOLECULE
3WH_A_501_1_003
51 54 1                 
SMALL
USER_CHARGES
@<TRIPOS>ATOM
1	   C	14.718	29.199	74.044	C.3	1	UNK0	0.000	
2	   C	14.072	30.351	73.288	C.3	1	UNK0	0.000	
3	   C	13.771	32.550	70.929	C.2	1	UNK0	0.000	
4	   C	16.025	24.366	74.196	C.3	1	UNK0	0.000	
5	   C	17.082	25.455	74.477	C.3	1	UNK0	0.000	
6	   N	16.587	26.822	74.451	N.pl3	1	UNK0	0.000	
7	   C	16.427	27.533	73.239	C.2	1	UNK0	0.000	
8	   O	16.705	27.005	72.164	O.2	1	UNK0	0.000	
9	   N	15.951	28.851	73.338	N.pl3	1	UNK0	0.000	
10	   C	16.610	30.015	72.735	C.3	1	UNK0	0.000	
11	   C	15.841	30.379	71.474	C.3	1	UNK0	0.000	
12	   C	14.363	30.215	71.800	C.3	1	UNK0	0.000	
13	   N	13.586	31.167	71.033	N.pl3	1	UNK0	0.000	
14	   N	15.000	33.081	70.862	N.2	1	UNK0	0.000	
15	   C	15.180	34.406	70.763	C.2	1	UNK0	0.000	
16	   C	14.079	35.255	70.728	C.2	1	UNK0	0.000	
17	   I	14.308	37.388	70.571	 I	1	UNK0	0.000	
18	   C	12.816	34.678	70.801	C.2	1	UNK0	0.000	
19	   N	12.693	33.347	70.899	N.2	1	UNK0	0.000	
20	   C	16.511	34.976	70.692	C.2	1	UNK0	0.000	
21	   C	16.908	35.960	69.833	C.2	1	UNK0	0.000	
22	   N	18.227	36.223	70.074	N.pl3	1	UNK0	0.000	
23	   C	18.653	35.403	71.080	C.2	1	UNK0	0.000	
24	   C	17.614	34.610	71.496	C.2	1	UNK0	0.000	
25	   C	17.736	33.670	72.515	C.2	1	UNK0	0.000	
26	   C	18.963	33.515	73.151	C.2	1	UNK0	0.000	
27	   C	20.036	34.305	72.751	C.2	1	UNK0	0.000	
28	   C	19.875	35.234	71.727	C.2	1	UNK0	0.000	
29	   H	14.100	28.413	74.063	 H	1	UNK0	0.000	
30	   H	14.928	29.480	74.981	 H	1	UNK0	0.000	
31	   H	14.444	31.218	73.621	 H	1	UNK0	0.000	
32	   H	13.083	30.333	73.436	 H	1	UNK0	0.000	
33	   H	16.457	23.465	74.234	 H	1	UNK0	0.000	
34	   H	15.301	24.419	74.884	 H	1	UNK0	0.000	
35	   H	15.632	24.509	73.287	 H	1	UNK0	0.000	
36	   H	17.801	25.374	73.786	 H	1	UNK0	0.000	
37	   H	17.470	25.284	75.382	 H	1	UNK0	0.000	
38	   H	16.354	27.272	75.313	 H	1	UNK0	0.000	
39	   H	17.556	29.789	72.503	 H	1	UNK0	0.000	
40	   H	16.597	30.783	73.375	 H	1	UNK0	0.000	
41	   H	16.098	29.768	70.725	 H	1	UNK0	0.000	
42	   H	16.034	31.325	71.214	 H	1	UNK0	0.000	
43	   H	14.087	29.296	71.518	 H	1	UNK0	0.000	
44	   H	12.822	30.788	70.511	 H	1	UNK0	0.000	
45	   H	12.000	35.256	70.780	 H	1	UNK0	0.000	
46	   H	16.334	36.410	69.149	 H	1	UNK0	0.000	
47	   H	18.785	36.900	69.594	 H	1	UNK0	0.000	
48	   H	16.952	33.113	72.786	 H	1	UNK0	0.000	
49	   H	19.073	32.845	73.886	 H	1	UNK0	0.000	
50	   H	20.924	34.206	73.200	 H	1	UNK0	0.000	
51	   H	20.655	35.794	71.449	 H	1	UNK0	0.000	
@<TRIPOS>BOND
1 1 2 1
2 1 9 1
3 2 12 1
4 3 13 1
5 3 14 2
6 3 19 1
7 4 5 1
8 5 6 1
9 6 7 1
10 7 8 2
11 7 9 1
12 9 10 1
13 10 11 1
14 11 12 1
15 12 13 1
16 14 15 1
17 15 16 2
18 15 20 1
19 16 17 1
20 16 18 1
21 18 19 2
22 20 21 2
23 20 24 1
24 21 22 1
25 22 23 1
26 23 24 2
27 23 28 1
28 24 25 1
29 25 26 2
30 26 27 1
31 27 28 2
32 1 29 1
33 1 30 1
34 2 31 1
35 2 32 1
36 4 33 1
37 4 34 1
38 4 35 1
39 5 36 1
40 5 37 1
41 6 38 1
42 10 39 1
43 10 40 1
44 11 41 1
45 11 42 1
46 12 43 1
47 13 44 1
48 18 45 1
49 21 46 1
50 22 47 1
51 25 48 1
52 26 49 1
53 27 50 1
54 28 51 1
@<TRIPOS>SUBSTRUCTURE
1	UNK0	1	GROUP	1 ****	UNK
