3WH_A_501_1_003
joSeeSAR  03092211583D 1   1.00000     0.00000     0
SeeSAR 11.2.2 jonathanwahrer
 51 54  0  0  0  0            999 V2000
   14.7179   29.1991   74.0444 C   0  0  0  0  0  0  0  0  0  0  0  0
   14.0718   30.3511   73.2878 C   0  0  0  0  0  0  0  0  0  0  0  0
   13.7705   32.5500   70.9295 C   0  0  0  0  0  0  0  0  0  0  0  0
   16.0251   24.3661   74.1955 C   0  0  0  0  0  0  0  0  0  0  0  0
   17.0824   25.4553   74.4765 C   0  0  0  0  0  0  0  0  0  0  0  0
   16.5871   26.8224   74.4510 N   0  0  0  0  0  0  0  0  0  0  0  0
   16.4265   27.5332   73.2386 C   0  0  0  0  0  0  0  0  0  0  0  0
   16.7052   27.0054   72.1642 O   0  0  0  0  0  0  0  0  0  0  0  0
   15.9513   28.8505   73.3377 N   0  0  0  0  0  0  0  0  0  0  0  0
   16.6097   30.0148   72.7347 C   0  0  0  0  0  0  0  0  0  0  0  0
   15.8408   30.3786   71.4742 C   0  0  0  0  0  0  0  0  0  0  0  0
   14.3625   30.2146   71.8005 C   0  0  2  0  0  0  0  0  0  0  0  0
   13.5859   31.1671   71.0328 N   0  0  0  0  0  0  0  0  0  0  0  0
   15.0004   33.0809   70.8623 N   0  0  0  0  0  0  0  0  0  0  0  0
   15.1796   34.4058   70.7632 C   0  0  0  0  0  0  0  0  0  0  0  0
   14.0789   35.2551   70.7283 C   0  0  0  0  0  0  0  0  0  0  0  0
   14.3076   37.3876   70.5708 I   0  0  0  0  0  0  0  0  0  0  0  0
   12.8162   34.6778   70.8006 C   0  0  0  0  0  0  0  0  0  0  0  0
   12.6925   33.3465   70.8988 N   0  0  0  0  0  0  0  0  0  0  0  0
   16.5113   34.9762   70.6919 C   0  0  0  0  0  0  0  0  0  0  0  0
   16.9081   35.9601   69.8334 C   0  0  0  0  0  0  0  0  0  0  0  0
   18.2270   36.2231   70.0736 N   0  0  0  0  0  0  0  0  0  0  0  0
   18.6533   35.4032   71.0804 C   0  0  0  0  0  0  0  0  0  0  0  0
   17.6140   34.6097   71.4965 C   0  0  0  0  0  0  0  0  0  0  0  0
   17.7364   33.6704   72.5149 C   0  0  0  0  0  0  0  0  0  0  0  0
   18.9633   33.5150   73.1512 C   0  0  0  0  0  0  0  0  0  0  0  0
   20.0361   34.3050   72.7511 C   0  0  0  0  0  0  0  0  0  0  0  0
   19.8746   35.2340   71.7270 C   0  0  0  0  0  0  0  0  0  0  0  0
   14.1002   28.4127   74.0627 H   0  0  0  0  0  0  0  0  0  0  0  0
   14.9278   29.4798   74.9809 H   0  0  0  0  0  0  0  0  0  0  0  0
   14.4436   31.2175   73.6211 H   0  0  0  0  0  0  0  0  0  0  0  0
   13.0831   30.3334   73.4363 H   0  0  0  0  0  0  0  0  0  0  0  0
   16.4566   23.4649   74.2341 H   0  0  0  0  0  0  0  0  0  0  0  0
   15.3014   24.4189   74.8836 H   0  0  0  0  0  0  0  0  0  0  0  0
   15.6325   24.5091   73.2870 H   0  0  0  0  0  0  0  0  0  0  0  0
   17.8010   25.3738   73.7857 H   0  0  0  0  0  0  0  0  0  0  0  0
   17.4698   25.2836   75.3823 H   0  0  0  0  0  0  0  0  0  0  0  0
   16.3540   27.2718   75.3133 H   0  0  0  0  0  0  0  0  0  0  0  0
   17.5560   29.7892   72.5034 H   0  0  0  0  0  0  0  0  0  0  0  0
   16.5970   30.7828   73.3751 H   0  0  0  0  0  0  0  0  0  0  0  0
   16.0983   29.7680   70.7252 H   0  0  0  0  0  0  0  0  0  0  0  0
   16.0335   31.3248   71.2141 H   0  0  0  0  0  0  0  0  0  0  0  0
   14.0866   29.2959   71.5177 H   0  0  0  0  0  0  0  0  0  0  0  0
   12.8216   30.7881   70.5111 H   0  0  0  0  0  0  0  0  0  0  0  0
   12.0003   35.2557   70.7796 H   0  0  0  0  0  0  0  0  0  0  0  0
   16.3342   36.4095   69.1489 H   0  0  0  0  0  0  0  0  0  0  0  0
   18.7853   36.9002   69.5944 H   0  0  0  0  0  0  0  0  0  0  0  0
   16.9516   33.1132   72.7863 H   0  0  0  0  0  0  0  0  0  0  0  0
   19.0726   32.8453   73.8857 H   0  0  0  0  0  0  0  0  0  0  0  0
   20.9243   34.2055   73.1996 H   0  0  0  0  0  0  0  0  0  0  0  0
   20.6552   35.7937   71.4488 H   0  0  0  0  0  0  0  0  0  0  0  0
  1  2  1  0  0  0  0
  1  9  1  0  0  0  0
  2 12  1  0  0  0  0
  3 13  1  0  0  0  0
  3 14  2  0  0  0  0
  3 19  1  0  0  0  0
  4  5  1  0  0  0  0
  5  6  1  0  0  0  0
  6  7  1  0  0  0  0
  7  8  2  0  0  0  0
  7  9  1  0  0  0  0
  9 10  1  0  0  0  0
 10 11  1  0  0  0  0
 11 12  1  0  0  0  0
 12 13  1  0  0  0  0
 14 15  1  0  0  0  0
 15 16  2  0  0  0  0
 15 20  1  0  0  0  0
 16 17  1  0  0  0  0
 16 18  1  0  0  0  0
 18 19  2  0  0  0  0
 20 21  2  0  0  0  0
 20 24  1  0  0  0  0
 21 22  1  0  0  0  0
 22 23  1  0  0  0  0
 23 24  2  0  0  0  0
 23 28  1  0  0  0  0
 24 25  1  0  0  0  0
 25 26  2  0  0  0  0
 26 27  1  0  0  0  0
 27 28  2  0  0  0  0
  1 29  1  0  0  0  0
  1 30  1  0  0  0  0
  2 31  1  0  0  0  0
  2 32  1  0  0  0  0
  4 33  1  0  0  0  0
  4 34  1  0  0  0  0
  4 35  1  0  0  0  0
  5 36  1  0  0  0  0
  5 37  1  0  0  0  0
  6 38  1  0  0  0  0
 10 39  1  0  0  0  0
 10 40  1  0  0  0  0
 11 41  1  0  0  0  0
 11 42  1  0  0  0  0
 12 43  1  0  0  0  0
 13 44  1  0  0  0  0
 18 45  1  0  0  0  0
 21 46  1  0  0  0  0
 22 47  1  0  0  0  0
 25 48  1  0  0  0  0
 26 49  1  0  0  0  0
 27 50  1  0  0  0  0
 28 51  1  0  0  0  0
M  END
> <BIOSOLVEIT.HYDE_ESTIMATED_AFFINITY_LOWER_BOUNDARY [nM]>
1087.214237

> <BIOSOLVEIT.HYDE_ESTIMATED_AFFINITY_UPPER_BOUNDARY [nM]>
108021.162563

> <BIOSOLVEIT.HYDE_LIGAND_EFFICIENCY range: ++, +, 0, -, -->
-

> <BIOSOLVEIT.HYDE_LIGAND_LIPOPHILIC_EFFICIENCY range: ++, +, 0, -, -->
--

> <BIOSOLVEIT.LOGP>
3.8353

> <BIOSOLVEIT.MOLECULAR WEIGHT>
490.343

> <BIOSOLVEIT.MOLECULE_CHECKSUM>
LTI4LjM0MDg7MS4wMTIxNw==

> <BIOSOLVEIT.TPSA>
85.94

> <OPTIBRIUM.BBB category>
-

> <OPTIBRIUM.PPB90 category>
high

> <OPTIBRIUM.2C9 pKi>
5.48289

> <OPTIBRIUM.logS @ pH7.4>
0.994036

> <OPTIBRIUM.BBB log([brain]:[blood])>
-0.929209

> <OPTIBRIUM.2D6 affinity category>
high

> <OPTIBRIUM.logS>
0.572764

> <OPTIBRIUM.logD>
2.20791

> <OPTIBRIUM.hERG pIC50>
5.53506

> <OPTIBRIUM.logP>
3.84469

> <OPTIBRIUM.HIA category>
+

> <OPTIBRIUM.P-gp category>
yes

$$$$
3WH_A_501_1_009
joSeeSAR  03092211583D 1   1.00000     0.00000     0
SeeSAR 11.2.2 jonathanwahrer
 51 54  0  0  0  0            999 V2000
   14.7202   29.2010   74.0448 C   0  0  0  0  0  0  0  0  0  0  0  0
   14.0741   30.3528   73.2882 C   0  0  0  0  0  0  0  0  0  0  0  0
   13.7705   32.5505   70.9297 C   0  0  0  0  0  0  0  0  0  0  0  0
   16.0225   24.3668   74.1946 C   0  0  0  0  0  0  0  0  0  0  0  0
   17.0804   25.4551   74.4765 C   0  0  0  0  0  0  0  0  0  0  0  0
   16.5862   26.8226   74.4506 N   0  0  0  0  0  0  0  0  0  0  0  0
   16.4268   27.5336   73.2381 C   0  0  0  0  0  0  0  0  0  0  0  0
   16.7059   27.0055   72.1640 O   0  0  0  0  0  0  0  0  0  0  0  0
   15.9527   28.8512   73.3369 N   0  0  0  0  0  0  0  0  0  0  0  0
   16.6110   30.0146   72.7322 C   0  0  0  0  0  0  0  0  0  0  0  0
   15.8409   30.3780   71.4724 C   0  0  0  0  0  0  0  0  0  0  0  0
   14.3627   30.2151   71.8006 C   0  0  2  0  0  0  0  0  0  0  0  0
   13.5860   31.1676   71.0332 N   0  0  0  0  0  0  0  0  0  0  0  0
   15.0003   33.0813   70.8625 N   0  0  0  0  0  0  0  0  0  0  0  0
   15.1795   34.4063   70.7631 C   0  0  0  0  0  0  0  0  0  0  0  0
   14.0787   35.2556   70.7279 C   0  0  0  0  0  0  0  0  0  0  0  0
   14.3074   37.3880   70.5701 I   0  0  0  0  0  0  0  0  0  0  0  0
   12.8160   34.6782   70.8003 C   0  0  0  0  0  0  0  0  0  0  0  0
   12.6924   33.3468   70.8987 N   0  0  0  0  0  0  0  0  0  0  0  0
   16.5112   34.9767   70.6917 C   0  0  0  0  0  0  0  0  0  0  0  0
   16.9080   35.9605   69.8332 C   0  0  0  0  0  0  0  0  0  0  0  0
   18.2268   36.2236   70.0733 N   0  0  0  0  0  0  0  0  0  0  0  0
   18.6532   35.4038   71.0801 C   0  0  0  0  0  0  0  0  0  0  0  0
   17.6138   34.6103   71.4963 C   0  0  0  0  0  0  0  0  0  0  0  0
   17.7364   33.6710   72.5147 C   0  0  0  0  0  0  0  0  0  0  0  0
   18.9633   33.5157   73.1510 C   0  0  0  0  0  0  0  0  0  0  0  0
   20.0360   34.3057   72.7508 C   0  0  0  0  0  0  0  0  0  0  0  0
   19.8745   35.2346   71.7267 C   0  0  0  0  0  0  0  0  0  0  0  0
   14.1021   28.4151   74.0644 H   0  0  0  0  0  0  0  0  0  0  0  0
   14.9315   29.4823   74.9809 H   0  0  0  0  0  0  0  0  0  0  0  0
   14.4467   31.2194   73.6202 H   0  0  0  0  0  0  0  0  0  0  0  0
   13.0855   30.3359   73.4378 H   0  0  0  0  0  0  0  0  0  0  0  0
   16.4533   23.4652   74.2336 H   0  0  0  0  0  0  0  0  0  0  0  0
   15.2982   24.4201   74.8820 H   0  0  0  0  0  0  0  0  0  0  0  0
   15.6309   24.5101   73.2858 H   0  0  0  0  0  0  0  0  0  0  0  0
   17.7995   25.3732   73.7864 H   0  0  0  0  0  0  0  0  0  0  0  0
   17.4669   25.2831   75.3826 H   0  0  0  0  0  0  0  0  0  0  0  0
   16.3529   27.2722   75.3129 H   0  0  0  0  0  0  0  0  0  0  0  0
   17.5569   29.7883   72.5000 H   0  0  0  0  0  0  0  0  0  0  0  0
   16.5996   30.7832   73.3720 H   0  0  0  0  0  0  0  0  0  0  0  0
   16.0970   29.7668   70.7235 H   0  0  0  0  0  0  0  0  0  0  0  0
   16.0337   31.3239   71.2113 H   0  0  0  0  0  0  0  0  0  0  0  0
   14.0859   29.2964   71.5187 H   0  0  0  0  0  0  0  0  0  0  0  0
   12.8214   30.7885   70.5117 H   0  0  0  0  0  0  0  0  0  0  0  0
   12.0001   35.2560   70.7791 H   0  0  0  0  0  0  0  0  0  0  0  0
   16.3340   36.4100   69.1486 H   0  0  0  0  0  0  0  0  0  0  0  0
   18.7851   36.9008   69.5940 H   0  0  0  0  0  0  0  0  0  0  0  0
   16.9516   33.1138   72.7862 H   0  0  0  0  0  0  0  0  0  0  0  0
   19.0726   32.8460   73.8856 H   0  0  0  0  0  0  0  0  0  0  0  0
   20.9243   34.2062   73.1993 H   0  0  0  0  0  0  0  0  0  0  0  0
   20.6551   35.7943   71.4485 H   0  0  0  0  0  0  0  0  0  0  0  0
  1  2  1  0  0  0  0
  1  9  1  0  0  0  0
  2 12  1  0  0  0  0
  3 13  1  0  0  0  0
  3 14  2  0  0  0  0
  3 19  1  0  0  0  0
  4  5  1  0  0  0  0
  5  6  1  0  0  0  0
  6  7  1  0  0  0  0
  7  8  2  0  0  0  0
  7  9  1  0  0  0  0
  9 10  1  0  0  0  0
 10 11  1  0  0  0  0
 11 12  1  0  0  0  0
 12 13  1  0  0  0  0
 14 15  1  0  0  0  0
 15 16  2  0  0  0  0
 15 20  1  0  0  0  0
 16 17  1  0  0  0  0
 16 18  1  0  0  0  0
 18 19  2  0  0  0  0
 20 21  2  0  0  0  0
 20 24  1  0  0  0  0
 21 22  1  0  0  0  0
 22 23  1  0  0  0  0
 23 24  2  0  0  0  0
 23 28  1  0  0  0  0
 24 25  1  0  0  0  0
 25 26  2  0  0  0  0
 26 27  1  0  0  0  0
 27 28  2  0  0  0  0
  1 29  1  0  0  0  0
  1 30  1  0  0  0  0
  2 31  1  0  0  0  0
  2 32  1  0  0  0  0
  4 33  1  0  0  0  0
  4 34  1  0  0  0  0
  4 35  1  0  0  0  0
  5 36  1  0  0  0  0
  5 37  1  0  0  0  0
  6 38  1  0  0  0  0
 10 39  1  0  0  0  0
 10 40  1  0  0  0  0
 11 41  1  0  0  0  0
 11 42  1  0  0  0  0
 12 43  1  0  0  0  0
 13 44  1  0  0  0  0
 18 45  1  0  0  0  0
 21 46  1  0  0  0  0
 22 47  1  0  0  0  0
 25 48  1  0  0  0  0
 26 49  1  0  0  0  0
 27 50  1  0  0  0  0
 28 51  1  0  0  0  0
M  END
> <BIOSOLVEIT.HYDE_ESTIMATED_AFFINITY_LOWER_BOUNDARY [nM]>
1108.614649

> <BIOSOLVEIT.HYDE_ESTIMATED_AFFINITY_UPPER_BOUNDARY [nM]>
110147.420051

> <BIOSOLVEIT.HYDE_LIGAND_EFFICIENCY range: ++, +, 0, -, -->
-

> <BIOSOLVEIT.HYDE_LIGAND_LIPOPHILIC_EFFICIENCY range: ++, +, 0, -, -->
--

> <BIOSOLVEIT.LOGP>
3.8353

> <BIOSOLVEIT.MOLECULAR WEIGHT>
490.343

> <BIOSOLVEIT.MOLECULE_CHECKSUM>
LTI4LjI5MjQ7MS4wMTA0NA==

> <BIOSOLVEIT.TPSA>
85.94

> <OPTIBRIUM.BBB category>
-

> <OPTIBRIUM.PPB90 category>
high

> <OPTIBRIUM.2C9 pKi>
5.48289

> <OPTIBRIUM.logS @ pH7.4>
0.994036

> <OPTIBRIUM.BBB log([brain]:[blood])>
-0.929209

> <OPTIBRIUM.2D6 affinity category>
high

> <OPTIBRIUM.logS>
0.572764

> <OPTIBRIUM.logD>
2.20791

> <OPTIBRIUM.hERG pIC50>
5.53506

> <OPTIBRIUM.logP>
3.84469

> <OPTIBRIUM.HIA category>
+

> <OPTIBRIUM.P-gp category>
yes

$$$$
3WH_A_501_1_008
joSeeSAR  03092211583D 1   1.00000     0.00000     0
SeeSAR 11.2.2 jonathanwahrer
 51 54  0  0  0  0            999 V2000
   14.6770   29.2361   74.0511 C   0  0  0  0  0  0  0  0  0  0  0  0
   14.0476   30.3903   73.2837 C   0  0  0  0  0  0  0  0  0  0  0  0
   13.7416   32.5615   70.9224 C   0  0  0  0  0  0  0  0  0  0  0  0
   18.4041   25.2273   74.4836 C   0  0  0  0  0  0  0  0  0  0  0  0
   16.8724   25.4168   74.5077 C   0  0  0  0  0  0  0  0  0  0  0  0
   16.4169   26.7973   74.4657 N   0  0  0  0  0  0  0  0  0  0  0  0
   16.3346   27.5171   73.2507 C   0  0  0  0  0  0  0  0  0  0  0  0
   16.6502   26.9859   72.1882 O   0  0  0  0  0  0  0  0  0  0  0  0
   15.8919   28.8467   73.3338 N   0  0  0  0  0  0  0  0  0  0  0  0
   16.5688   29.9848   72.7019 C   0  0  0  0  0  0  0  0  0  0  0  0
   15.7910   30.3453   71.4459 C   0  0  0  0  0  0  0  0  0  0  0  0
   14.3139   30.2219   71.7952 C   0  0  2  0  0  0  0  0  0  0  0  0
   13.5492   31.1794   71.0220 N   0  0  0  0  0  0  0  0  0  0  0  0
   14.9746   33.0856   70.8596 N   0  0  0  0  0  0  0  0  0  0  0  0
   15.1614   34.4100   70.7642 C   0  0  0  0  0  0  0  0  0  0  0  0
   14.0654   35.2654   70.7284 C   0  0  0  0  0  0  0  0  0  0  0  0
   14.3064   37.3969   70.5766 I   0  0  0  0  0  0  0  0  0  0  0  0
   12.7995   34.6949   70.7962 C   0  0  0  0  0  0  0  0  0  0  0  0
   12.6681   33.3640   70.8909 N   0  0  0  0  0  0  0  0  0  0  0  0
   16.4964   34.9731   70.6976 C   0  0  0  0  0  0  0  0  0  0  0  0
   16.9013   35.9554   69.8413 C   0  0  0  0  0  0  0  0  0  0  0  0
   18.2209   36.2111   70.0859 N   0  0  0  0  0  0  0  0  0  0  0  0
   18.6395   35.3880   71.0933 C   0  0  0  0  0  0  0  0  0  0  0  0
   17.5945   34.5998   71.5054 C   0  0  0  0  0  0  0  0  0  0  0  0
   17.7086   33.6590   72.5234 C   0  0  0  0  0  0  0  0  0  0  0  0
   18.9325   33.4964   73.1636 C   0  0  0  0  0  0  0  0  0  0  0  0
   20.0109   34.2809   72.7675 C   0  0  0  0  0  0  0  0  0  0  0  0
   19.8578   35.2116   71.7437 C   0  0  0  0  0  0  0  0  0  0  0  0
   14.0415   28.4651   74.0914 H   0  0  0  0  0  0  0  0  0  0  0  0
   14.9067   29.5277   74.9798 H   0  0  0  0  0  0  0  0  0  0  0  0
   14.4441   31.2531   73.5970 H   0  0  0  0  0  0  0  0  0  0  0  0
   13.0609   30.3984   73.4461 H   0  0  0  0  0  0  0  0  0  0  0  0
   18.6199   24.2514   74.5155 H   0  0  0  0  0  0  0  0  0  0  0  0
   18.7758   25.6236   73.6440 H   0  0  0  0  0  0  0  0  0  0  0  0
   18.8090   25.6843   75.2756 H   0  0  0  0  0  0  0  0  0  0  0  0
   16.5228   25.0014   75.3476 H   0  0  0  0  0  0  0  0  0  0  0  0
   16.4895   24.9407   73.7161 H   0  0  0  0  0  0  0  0  0  0  0  0
   16.1550   27.2496   75.3182 H   0  0  0  0  0  0  0  0  0  0  0  0
   17.5062   29.7330   72.4616 H   0  0  0  0  0  0  0  0  0  0  0  0
   16.5831   30.7635   73.3290 H   0  0  0  0  0  0  0  0  0  0  0  0
   16.0235   29.7164   70.7041 H   0  0  0  0  0  0  0  0  0  0  0  0
   16.0020   31.2822   71.1669 H   0  0  0  0  0  0  0  0  0  0  0  0
   14.0126   29.3054   71.5320 H   0  0  0  0  0  0  0  0  0  0  0  0
   12.7878   30.8051   70.4927 H   0  0  0  0  0  0  0  0  0  0  0  0
   11.9868   35.2772   70.7744 H   0  0  0  0  0  0  0  0  0  0  0  0
   16.3322   36.4086   69.1553 H   0  0  0  0  0  0  0  0  0  0  0  0
   18.7844   36.8855   69.6090 H   0  0  0  0  0  0  0  0  0  0  0  0
   16.9199   33.1059   72.7918 H   0  0  0  0  0  0  0  0  0  0  0  0
   19.0358   32.8254   73.8978 H   0  0  0  0  0  0  0  0  0  0  0  0
   20.8970   34.1762   73.2188 H   0  0  0  0  0  0  0  0  0  0  0  0
   20.6423   35.7673   71.4685 H   0  0  0  0  0  0  0  0  0  0  0  0
  1  2  1  0  0  0  0
  1  9  1  0  0  0  0
  2 12  1  0  0  0  0
  3 13  1  0  0  0  0
  3 14  2  0  0  0  0
  3 19  1  0  0  0  0
  4  5  1  0  0  0  0
  5  6  1  0  0  0  0
  6  7  1  0  0  0  0
  7  8  2  0  0  0  0
  7  9  1  0  0  0  0
  9 10  1  0  0  0  0
 10 11  1  0  0  0  0
 11 12  1  0  0  0  0
 12 13  1  0  0  0  0
 14 15  1  0  0  0  0
 15 16  2  0  0  0  0
 15 20  1  0  0  0  0
 16 17  1  0  0  0  0
 16 18  1  0  0  0  0
 18 19  2  0  0  0  0
 20 21  2  0  0  0  0
 20 24  1  0  0  0  0
 21 22  1  0  0  0  0
 22 23  1  0  0  0  0
 23 24  2  0  0  0  0
 23 28  1  0  0  0  0
 24 25  1  0  0  0  0
 25 26  2  0  0  0  0
 26 27  1  0  0  0  0
 27 28  2  0  0  0  0
  1 29  1  0  0  0  0
  1 30  1  0  0  0  0
  2 31  1  0  0  0  0
  2 32  1  0  0  0  0
  4 33  1  0  0  0  0
  4 34  1  0  0  0  0
  4 35  1  0  0  0  0
  5 36  1  0  0  0  0
  5 37  1  0  0  0  0
  6 38  1  0  0  0  0
 10 39  1  0  0  0  0
 10 40  1  0  0  0  0
 11 41  1  0  0  0  0
 11 42  1  0  0  0  0
 12 43  1  0  0  0  0
 13 44  1  0  0  0  0
 18 45  1  0  0  0  0
 21 46  1  0  0  0  0
 22 47  1  0  0  0  0
 25 48  1  0  0  0  0
 26 49  1  0  0  0  0
 27 50  1  0  0  0  0
 28 51  1  0  0  0  0
M  END
> <BIOSOLVEIT.HYDE_ESTIMATED_AFFINITY_LOWER_BOUNDARY [nM]>
1369.803142

> <BIOSOLVEIT.HYDE_ESTIMATED_AFFINITY_UPPER_BOUNDARY [nM]>
136098.041067

> <BIOSOLVEIT.HYDE_LIGAND_EFFICIENCY range: ++, +, 0, -, -->
-

> <BIOSOLVEIT.HYDE_LIGAND_LIPOPHILIC_EFFICIENCY range: ++, +, 0, -, -->
--

> <BIOSOLVEIT.LOGP>
3.8353

> <BIOSOLVEIT.MOLECULAR WEIGHT>
490.343

> <BIOSOLVEIT.MOLECULE_CHECKSUM>
LTI3Ljc2ODswLjk5MTcxNQ==

> <BIOSOLVEIT.TPSA>
85.94

> <OPTIBRIUM.BBB category>
-

> <OPTIBRIUM.PPB90 category>
high

> <OPTIBRIUM.2C9 pKi>
5.48289

> <OPTIBRIUM.logS @ pH7.4>
0.994036

> <OPTIBRIUM.BBB log([brain]:[blood])>
-0.929209

> <OPTIBRIUM.2D6 affinity category>
high

> <OPTIBRIUM.logS>
0.572764

> <OPTIBRIUM.logD>
2.20791

> <OPTIBRIUM.hERG pIC50>
5.53506

> <OPTIBRIUM.logP>
3.84469

> <OPTIBRIUM.HIA category>
+

> <OPTIBRIUM.P-gp category>
yes

$$$$
3WH_A_501_1_001
joSeeSAR  03092211583D 1   1.00000     0.00000     0
SeeSAR 11.2.2 jonathanwahrer
 51 54  0  0  0  0            999 V2000
   14.6764   29.2355   74.0509 C   0  0  0  0  0  0  0  0  0  0  0  0
   14.0470   30.3897   73.2835 C   0  0  0  0  0  0  0  0  0  0  0  0
   13.7420   32.5614   70.9223 C   0  0  0  0  0  0  0  0  0  0  0  0
   18.4047   25.2276   74.4841 C   0  0  0  0  0  0  0  0  0  0  0  0
   16.8729   25.4167   74.5078 C   0  0  0  0  0  0  0  0  0  0  0  0
   16.4171   26.7971   74.4657 N   0  0  0  0  0  0  0  0  0  0  0  0
   16.3347   27.5169   73.2508 C   0  0  0  0  0  0  0  0  0  0  0  0
   16.6503   26.9859   72.1882 O   0  0  0  0  0  0  0  0  0  0  0  0
   15.8917   28.8465   73.3339 N   0  0  0  0  0  0  0  0  0  0  0  0
   16.5686   29.9848   72.7026 C   0  0  0  0  0  0  0  0  0  0  0  0
   15.7913   30.3456   71.4464 C   0  0  0  0  0  0  0  0  0  0  0  0
   14.3141   30.2218   71.7950 C   0  0  2  0  0  0  0  0  0  0  0  0
   13.5494   31.1794   71.0217 N   0  0  0  0  0  0  0  0  0  0  0  0
   14.9749   33.0857   70.8595 N   0  0  0  0  0  0  0  0  0  0  0  0
   15.1616   34.4098   70.7641 C   0  0  0  0  0  0  0  0  0  0  0  0
   14.0657   35.2653   70.7286 C   0  0  0  0  0  0  0  0  0  0  0  0
   14.3067   37.3968   70.5770 I   0  0  0  0  0  0  0  0  0  0  0  0
   12.7997   34.6948   70.7963 C   0  0  0  0  0  0  0  0  0  0  0  0
   12.6684   33.3639   70.8908 N   0  0  0  0  0  0  0  0  0  0  0  0
   16.4967   34.9730   70.6975 C   0  0  0  0  0  0  0  0  0  0  0  0
   16.9016   35.9555   69.8412 C   0  0  0  0  0  0  0  0  0  0  0  0
   18.2211   36.2111   70.0858 N   0  0  0  0  0  0  0  0  0  0  0  0
   18.6398   35.3881   71.0933 C   0  0  0  0  0  0  0  0  0  0  0  0
   17.5948   34.5999   71.5054 C   0  0  0  0  0  0  0  0  0  0  0  0
   17.7088   33.6590   72.5233 C   0  0  0  0  0  0  0  0  0  0  0  0
   18.9328   33.4964   73.1635 C   0  0  0  0  0  0  0  0  0  0  0  0
   20.0112   34.2810   72.7675 C   0  0  0  0  0  0  0  0  0  0  0  0
   19.8580   35.2116   71.7436 C   0  0  0  0  0  0  0  0  0  0  0  0
   14.0410   28.4643   74.0907 H   0  0  0  0  0  0  0  0  0  0  0  0
   14.9056   29.5268   74.9796 H   0  0  0  0  0  0  0  0  0  0  0  0
   14.4433   31.2525   73.5971 H   0  0  0  0  0  0  0  0  0  0  0  0
   13.0603   30.3976   73.4454 H   0  0  0  0  0  0  0  0  0  0  0  0
   18.6207   24.2517   74.5160 H   0  0  0  0  0  0  0  0  0  0  0  0
   18.7767   25.6240   73.6448 H   0  0  0  0  0  0  0  0  0  0  0  0
   18.8093   25.6845   75.2763 H   0  0  0  0  0  0  0  0  0  0  0  0
   16.5230   25.0011   75.3473 H   0  0  0  0  0  0  0  0  0  0  0  0
   16.4904   24.9407   73.7158 H   0  0  0  0  0  0  0  0  0  0  0  0
   16.1551   27.2494   75.3182 H   0  0  0  0  0  0  0  0  0  0  0  0
   17.5061   29.7333   72.4627 H   0  0  0  0  0  0  0  0  0  0  0  0
   16.5825   30.7635   73.3300 H   0  0  0  0  0  0  0  0  0  0  0  0
   16.0242   29.7168   70.7045 H   0  0  0  0  0  0  0  0  0  0  0  0
   16.0023   31.2825   71.1678 H   0  0  0  0  0  0  0  0  0  0  0  0
   14.0131   29.3052   71.5314 H   0  0  0  0  0  0  0  0  0  0  0  0
   12.7881   30.8050   70.4923 H   0  0  0  0  0  0  0  0  0  0  0  0
   11.9870   35.2772   70.7746 H   0  0  0  0  0  0  0  0  0  0  0  0
   16.3324   36.4086   69.1552 H   0  0  0  0  0  0  0  0  0  0  0  0
   18.7846   36.8856   69.6090 H   0  0  0  0  0  0  0  0  0  0  0  0
   16.9202   33.1059   72.7917 H   0  0  0  0  0  0  0  0  0  0  0  0
   19.0361   32.8255   73.8977 H   0  0  0  0  0  0  0  0  0  0  0  0
   20.8973   34.1762   73.2187 H   0  0  0  0  0  0  0  0  0  0  0  0
   20.6425   35.7673   71.4684 H   0  0  0  0  0  0  0  0  0  0  0  0
  1  2  1  0  0  0  0
  1  9  1  0  0  0  0
  2 12  1  0  0  0  0
  3 13  1  0  0  0  0
  3 14  2  0  0  0  0
  3 19  1  0  0  0  0
  4  5  1  0  0  0  0
  5  6  1  0  0  0  0
  6  7  1  0  0  0  0
  7  8  2  0  0  0  0
  7  9  1  0  0  0  0
  9 10  1  0  0  0  0
 10 11  1  0  0  0  0
 11 12  1  0  0  0  0
 12 13  1  0  0  0  0
 14 15  1  0  0  0  0
 15 16  2  0  0  0  0
 15 20  1  0  0  0  0
 16 17  1  0  0  0  0
 16 18  1  0  0  0  0
 18 19  2  0  0  0  0
 20 21  2  0  0  0  0
 20 24  1  0  0  0  0
 21 22  1  0  0  0  0
 22 23  1  0  0  0  0
 23 24  2  0  0  0  0
 23 28  1  0  0  0  0
 24 25  1  0  0  0  0
 25 26  2  0  0  0  0
 26 27  1  0  0  0  0
 27 28  2  0  0  0  0
  1 29  1  0  0  0  0
  1 30  1  0  0  0  0
  2 31  1  0  0  0  0
  2 32  1  0  0  0  0
  4 33  1  0  0  0  0
  4 34  1  0  0  0  0
  4 35  1  0  0  0  0
  5 36  1  0  0  0  0
  5 37  1  0  0  0  0
  6 38  1  0  0  0  0
 10 39  1  0  0  0  0
 10 40  1  0  0  0  0
 11 41  1  0  0  0  0
 11 42  1  0  0  0  0
 12 43  1  0  0  0  0
 13 44  1  0  0  0  0
 18 45  1  0  0  0  0
 21 46  1  0  0  0  0
 22 47  1  0  0  0  0
 25 48  1  0  0  0  0
 26 49  1  0  0  0  0
 27 50  1  0  0  0  0
 28 51  1  0  0  0  0
M  END
> <BIOSOLVEIT.HYDE_ESTIMATED_AFFINITY_LOWER_BOUNDARY [nM]>
1371.920939

> <BIOSOLVEIT.HYDE_ESTIMATED_AFFINITY_UPPER_BOUNDARY [nM]>
136308.456685

> <BIOSOLVEIT.HYDE_LIGAND_EFFICIENCY range: ++, +, 0, -, -->
-

> <BIOSOLVEIT.HYDE_LIGAND_LIPOPHILIC_EFFICIENCY range: ++, +, 0, -, -->
--

> <BIOSOLVEIT.LOGP>
3.8353

> <BIOSOLVEIT.MOLECULAR WEIGHT>
490.343

> <BIOSOLVEIT.MOLECULE_CHECKSUM>
LTI3Ljc2NDI7MC45OTE1Nzg=

> <BIOSOLVEIT.TPSA>
85.94

> <OPTIBRIUM.BBB category>
-

> <OPTIBRIUM.PPB90 category>
high

> <OPTIBRIUM.2C9 pKi>
5.48289

> <OPTIBRIUM.logS @ pH7.4>
0.994036

> <OPTIBRIUM.BBB log([brain]:[blood])>
-0.929209

> <OPTIBRIUM.2D6 affinity category>
high

> <OPTIBRIUM.logS>
0.572764

> <OPTIBRIUM.logD>
2.20791

> <OPTIBRIUM.hERG pIC50>
5.53506

> <OPTIBRIUM.logP>
3.84469

> <OPTIBRIUM.HIA category>
+

> <OPTIBRIUM.P-gp category>
yes

$$$$
3WH_A_501_1_004
joSeeSAR  03092211583D 1   1.00000     0.00000     0
SeeSAR 11.2.2 jonathanwahrer
 51 54  0  0  0  0            999 V2000
   14.6475   28.9283   73.9142 C   0  0  0  0  0  0  0  0  0  0  0  0
   13.9652   30.1080   73.2434 C   0  0  0  0  0  0  0  0  0  0  0  0
   13.7905   32.5412   70.9379 C   0  0  0  0  0  0  0  0  0  0  0  0
   15.8296   24.2269   74.5386 C   0  0  0  0  0  0  0  0  0  0  0  0
   16.9448   25.2886   74.6466 C   0  0  0  0  0  0  0  0  0  0  0  0
   16.5069   26.6667   74.4921 N   0  0  0  0  0  0  0  0  0  0  0  0
   16.2819   27.2378   73.2177 C   0  0  0  0  0  0  0  0  0  0  0  0
   16.4535   26.5741   72.1976 O   0  0  0  0  0  0  0  0  0  0  0  0
   15.8752   28.5683   73.1913 N   0  0  0  0  0  0  0  0  0  0  0  0
   16.7255   29.4865   72.4224 C   0  0  0  0  0  0  0  0  0  0  0  0
   15.8848   30.6021   71.8221 C   0  0  0  0  0  0  0  0  0  0  0  0
   14.4189   30.2103   71.7954 C   0  0  2  0  0  0  0  0  0  0  0  0
   13.6197   31.1566   71.0437 N   0  0  0  0  0  0  0  0  0  0  0  0
   15.0147   33.0832   70.8589 N   0  0  0  0  0  0  0  0  0  0  0  0
   15.1808   34.4097   70.7574 C   0  0  0  0  0  0  0  0  0  0  0  0
   14.0719   35.2488   70.7324 C   0  0  0  0  0  0  0  0  0  0  0  0
   14.2795   37.3833   70.5717 I   0  0  0  0  0  0  0  0  0  0  0  0
   12.8154   34.6600   70.8170 C   0  0  0  0  0  0  0  0  0  0  0  0
   12.7049   33.3276   70.9170 N   0  0  0  0  0  0  0  0  0  0  0  0
   16.5065   34.9924   70.6732 C   0  0  0  0  0  0  0  0  0  0  0  0
   16.8874   35.9756   69.8071 C   0  0  0  0  0  0  0  0  0  0  0  0
   18.2055   36.2523   70.0360 N   0  0  0  0  0  0  0  0  0  0  0  0
   18.6472   35.4415   71.0434 C   0  0  0  0  0  0  0  0  0  0  0  0
   17.6185   34.6402   71.4712 C   0  0  0  0  0  0  0  0  0  0  0  0
   17.7576   33.7071   72.4932 C   0  0  0  0  0  0  0  0  0  0  0  0
   18.9906   33.5665   73.1210 C   0  0  0  0  0  0  0  0  0  0  0  0
   20.0528   34.3646   72.7089 C   0  0  0  0  0  0  0  0  0  0  0  0
   19.8748   35.2870   71.6815 C   0  0  0  0  0  0  0  0  0  0  0  0
   14.0252   28.1456   73.9171 H   0  0  0  0  0  0  0  0  0  0  0  0
   14.8792   29.1734   74.8557 H   0  0  0  0  0  0  0  0  0  0  0  0
   14.2059   30.9496   73.7269 H   0  0  0  0  0  0  0  0  0  0  0  0
   12.9741   29.9786   73.2723 H   0  0  0  0  0  0  0  0  0  0  0  0
   16.2242   23.3156   74.6571 H   0  0  0  0  0  0  0  0  0  0  0  0
   15.1451   24.3887   75.2493 H   0  0  0  0  0  0  0  0  0  0  0  0
   15.3969   24.2882   73.6391 H   0  0  0  0  0  0  0  0  0  0  0  0
   17.6227   25.0983   73.9365 H   0  0  0  0  0  0  0  0  0  0  0  0
   17.3708   25.1988   75.5469 H   0  0  0  0  0  0  0  0  0  0  0  0
   16.3609   27.2256   75.3086 H   0  0  0  0  0  0  0  0  0  0  0  0
   17.1770   28.9810   71.6871 H   0  0  0  0  0  0  0  0  0  0  0  0
   17.4159   29.8824   73.0276 H   0  0  0  0  0  0  0  0  0  0  0  0
   16.1943   30.7808   70.8881 H   0  0  0  0  0  0  0  0  0  0  0  0
   15.9941   31.4292   72.3733 H   0  0  0  0  0  0  0  0  0  0  0  0
   14.3353   29.3097   71.3688 H   0  0  0  0  0  0  0  0  0  0  0  0
   12.8487   30.7715   70.5364 H   0  0  0  0  0  0  0  0  0  0  0  0
   11.9941   35.2302   70.8033 H   0  0  0  0  0  0  0  0  0  0  0  0
   16.3042   36.4163   69.1247 H   0  0  0  0  0  0  0  0  0  0  0  0
   18.7537   36.9324   69.5491 H   0  0  0  0  0  0  0  0  0  0  0  0
   16.9801   33.1438   72.7732 H   0  0  0  0  0  0  0  0  0  0  0  0
   19.1118   32.9013   73.8578 H   0  0  0  0  0  0  0  0  0  0  0  0
   20.9453   34.2756   73.1511 H   0  0  0  0  0  0  0  0  0  0  0  0
   20.6480   35.8526   71.3947 H   0  0  0  0  0  0  0  0  0  0  0  0
  1  2  1  0  0  0  0
  1  9  1  0  0  0  0
  2 12  1  0  0  0  0
  3 13  1  0  0  0  0
  3 14  2  0  0  0  0
  3 19  1  0  0  0  0
  4  5  1  0  0  0  0
  5  6  1  0  0  0  0
  6  7  1  0  0  0  0
  7  8  2  0  0  0  0
  7  9  1  0  0  0  0
  9 10  1  0  0  0  0
 10 11  1  0  0  0  0
 11 12  1  0  0  0  0
 12 13  1  0  0  0  0
 14 15  1  0  0  0  0
 15 16  2  0  0  0  0
 15 20  1  0  0  0  0
 16 17  1  0  0  0  0
 16 18  1  0  0  0  0
 18 19  2  0  0  0  0
 20 21  2  0  0  0  0
 20 24  1  0  0  0  0
 21 22  1  0  0  0  0
 22 23  1  0  0  0  0
 23 24  2  0  0  0  0
 23 28  1  0  0  0  0
 24 25  1  0  0  0  0
 25 26  2  0  0  0  0
 26 27  1  0  0  0  0
 27 28  2  0  0  0  0
  1 29  1  0  0  0  0
  1 30  1  0  0  0  0
  2 31  1  0  0  0  0
  2 32  1  0  0  0  0
  4 33  1  0  0  0  0
  4 34  1  0  0  0  0
  4 35  1  0  0  0  0
  5 36  1  0  0  0  0
  5 37  1  0  0  0  0
  6 38  1  0  0  0  0
 10 39  1  0  0  0  0
 10 40  1  0  0  0  0
 11 41  1  0  0  0  0
 11 42  1  0  0  0  0
 12 43  1  0  0  0  0
 13 44  1  0  0  0  0
 18 45  1  0  0  0  0
 21 46  1  0  0  0  0
 22 47  1  0  0  0  0
 25 48  1  0  0  0  0
 26 49  1  0  0  0  0
 27 50  1  0  0  0  0
 28 51  1  0  0  0  0
M  END
> <BIOSOLVEIT.HYDE_ESTIMATED_AFFINITY_LOWER_BOUNDARY [nM]>
2945.770522

> <BIOSOLVEIT.HYDE_ESTIMATED_AFFINITY_UPPER_BOUNDARY [nM]>
292679.718143

> <BIOSOLVEIT.HYDE_LIGAND_EFFICIENCY range: ++, +, 0, -, -->
-

> <BIOSOLVEIT.HYDE_LIGAND_LIPOPHILIC_EFFICIENCY range: ++, +, 0, -, -->
--

> <BIOSOLVEIT.LOGP>
3.8353

> <BIOSOLVEIT.MOLECULAR WEIGHT>
490.343

> <BIOSOLVEIT.MOLECULE_CHECKSUM>
LTI1Ljg2OTk7MC45MjM5MjQ=

> <BIOSOLVEIT.TPSA>
85.94

> <OPTIBRIUM.BBB category>
-

> <OPTIBRIUM.PPB90 category>
high

> <OPTIBRIUM.2C9 pKi>
5.48289

> <OPTIBRIUM.logS @ pH7.4>
0.994036

> <OPTIBRIUM.BBB log([brain]:[blood])>
-0.929209

> <OPTIBRIUM.2D6 affinity category>
high

> <OPTIBRIUM.logS>
0.572764

> <OPTIBRIUM.logD>
2.20791

> <OPTIBRIUM.hERG pIC50>
5.53506

> <OPTIBRIUM.logP>
3.84469

> <OPTIBRIUM.HIA category>
+

> <OPTIBRIUM.P-gp category>
yes

$$$$
3WH_A_501_1_006
joSeeSAR  03092211583D 1   1.00000     0.00000     0
SeeSAR 11.2.2 jonathanwahrer
 51 54  0  0  0  0            999 V2000
   15.0926   29.5498   73.9441 C   0  0  0  0  0  0  0  0  0  0  0  0
   13.9399   29.9617   73.0365 C   0  0  0  0  0  0  0  0  0  0  0  0
   13.8035   32.5823   70.9028 C   0  0  0  0  0  0  0  0  0  0  0  0
   17.9774   24.9612   74.6839 C   0  0  0  0  0  0  0  0  0  0  0  0
   16.5219   25.4588   74.8136 C   0  0  0  0  0  0  0  0  0  0  0  0
   16.3278   26.8795   74.5711 N   0  0  0  0  0  0  0  0  0  0  0  0
   16.2360   27.4052   73.2610 C   0  0  0  0  0  0  0  0  0  0  0  0
   16.3191   26.6639   72.2842 O   0  0  0  0  0  0  0  0  0  0  0  0
   16.0597   28.7933   73.1490 N   0  0  0  0  0  0  0  0  0  0  0  0
   16.8420   29.6229   72.2241 C   0  0  0  0  0  0  0  0  0  0  0  0
   15.9345   30.7439   71.7408 C   0  0  0  0  0  0  0  0  0  0  0  0
   14.5054   30.2362   71.6555 C   0  0  2  0  0  0  0  0  0  0  0  0
   13.6436   31.1955   70.9947 N   0  0  0  0  0  0  0  0  0  0  0  0
   15.0227   33.1338   70.8129 N   0  0  0  0  0  0  0  0  0  0  0  0
   15.1782   34.4625   70.7246 C   0  0  0  0  0  0  0  0  0  0  0  0
   14.0635   35.2941   70.7248 C   0  0  0  0  0  0  0  0  0  0  0  0
   14.2543   37.4316   70.5862 I   0  0  0  0  0  0  0  0  0  0  0  0
   12.8123   34.6955   70.8201 C   0  0  0  0  0  0  0  0  0  0  0  0
   12.7123   33.3614   70.9061 N   0  0  0  0  0  0  0  0  0  0  0  0
   16.4986   35.0553   70.6286 C   0  0  0  0  0  0  0  0  0  0  0  0
   16.8653   36.0388   69.7565 C   0  0  0  0  0  0  0  0  0  0  0  0
   18.1828   36.3266   69.9747 N   0  0  0  0  0  0  0  0  0  0  0  0
   18.6385   35.5226   70.9814 C   0  0  0  0  0  0  0  0  0  0  0  0
   17.6194   34.7146   71.4194 C   0  0  0  0  0  0  0  0  0  0  0  0
   17.7734   33.7859   72.4433 C   0  0  0  0  0  0  0  0  0  0  0  0
   19.0121   33.6571   73.0624 C   0  0  0  0  0  0  0  0  0  0  0  0
   20.0649   34.4623   72.6397 C   0  0  0  0  0  0  0  0  0  0  0  0
   19.8720   35.3798   71.6108 C   0  0  0  0  0  0  0  0  0  0  0  0
   14.7480   28.9790   74.6892 H   0  0  0  0  0  0  0  0  0  0  0  0
   15.5312   30.3645   74.3236 H   0  0  0  0  0  0  0  0  0  0  0  0
   13.5041   30.7873   73.3950 H   0  0  0  0  0  0  0  0  0  0  0  0
   13.2667   29.2240   72.9871 H   0  0  0  0  0  0  0  0  0  0  0  0
   18.0113   23.9787   74.8672 H   0  0  0  0  0  0  0  0  0  0  0  0
   18.3092   25.1390   73.7574 H   0  0  0  0  0  0  0  0  0  0  0  0
   18.5545   25.4434   75.3429 H   0  0  0  0  0  0  0  0  0  0  0  0
   16.2082   25.2580   75.7417 H   0  0  0  0  0  0  0  0  0  0  0  0
   15.9628   24.9538   74.1562 H   0  0  0  0  0  0  0  0  0  0  0  0
   16.2573   27.5014   75.3511 H   0  0  0  0  0  0  0  0  0  0  0  0
   17.1489   29.0727   71.4475 H   0  0  0  0  0  0  0  0  0  0  0  0
   17.6362   30.0055   72.6961 H   0  0  0  0  0  0  0  0  0  0  0  0
   16.2342   31.0497   70.8371 H   0  0  0  0  0  0  0  0  0  0  0  0
   15.9786   31.5091   72.3832 H   0  0  0  0  0  0  0  0  0  0  0  0
   14.4985   29.3847   71.1312 H   0  0  0  0  0  0  0  0  0  0  0  0
   12.8321   30.8187   70.5480 H   0  0  0  0  0  0  0  0  0  0  0  0
   11.9869   35.2601   70.8246 H   0  0  0  0  0  0  0  0  0  0  0  0
   16.2736   36.4725   69.0771 H   0  0  0  0  0  0  0  0  0  0  0  0
   18.7220   37.0093   69.4817 H   0  0  0  0  0  0  0  0  0  0  0  0
   17.0025   33.2175   72.7309 H   0  0  0  0  0  0  0  0  0  0  0  0
   19.1441   32.9954   73.8005 H   0  0  0  0  0  0  0  0  0  0  0  0
   20.9613   34.3818   73.0756 H   0  0  0  0  0  0  0  0  0  0  0  0
   20.6385   35.9506   71.3164 H   0  0  0  0  0  0  0  0  0  0  0  0
  1  2  1  0  0  0  0
  1  9  1  0  0  0  0
  2 12  1  0  0  0  0
  3 13  1  0  0  0  0
  3 14  2  0  0  0  0
  3 19  1  0  0  0  0
  4  5  1  0  0  0  0
  5  6  1  0  0  0  0
  6  7  1  0  0  0  0
  7  8  2  0  0  0  0
  7  9  1  0  0  0  0
  9 10  1  0  0  0  0
 10 11  1  0  0  0  0
 11 12  1  0  0  0  0
 12 13  1  0  0  0  0
 14 15  1  0  0  0  0
 15 16  2  0  0  0  0
 15 20  1  0  0  0  0
 16 17  1  0  0  0  0
 16 18  1  0  0  0  0
 18 19  2  0  0  0  0
 20 21  2  0  0  0  0
 20 24  1  0  0  0  0
 21 22  1  0  0  0  0
 22 23  1  0  0  0  0
 23 24  2  0  0  0  0
 23 28  1  0  0  0  0
 24 25  1  0  0  0  0
 25 26  2  0  0  0  0
 26 27  1  0  0  0  0
 27 28  2  0  0  0  0
  1 29  1  0  0  0  0
  1 30  1  0  0  0  0
  2 31  1  0  0  0  0
  2 32  1  0  0  0  0
  4 33  1  0  0  0  0
  4 34  1  0  0  0  0
  4 35  1  0  0  0  0
  5 36  1  0  0  0  0
  5 37  1  0  0  0  0
  6 38  1  0  0  0  0
 10 39  1  0  0  0  0
 10 40  1  0  0  0  0
 11 41  1  0  0  0  0
 11 42  1  0  0  0  0
 12 43  1  0  0  0  0
 13 44  1  0  0  0  0
 18 45  1  0  0  0  0
 21 46  1  0  0  0  0
 22 47  1  0  0  0  0
 25 48  1  0  0  0  0
 26 49  1  0  0  0  0
 27 50  1  0  0  0  0
 28 51  1  0  0  0  0
M  END
> <BIOSOLVEIT.HYDE_ESTIMATED_AFFINITY_LOWER_BOUNDARY [nM]>
5905.122717

> <BIOSOLVEIT.HYDE_ESTIMATED_AFFINITY_UPPER_BOUNDARY [nM]>
586708.855790

> <BIOSOLVEIT.HYDE_LIGAND_EFFICIENCY range: ++, +, 0, -, -->
-

> <BIOSOLVEIT.HYDE_LIGAND_LIPOPHILIC_EFFICIENCY range: ++, +, 0, -, -->
--

> <BIOSOLVEIT.LOGP>
3.8353

> <BIOSOLVEIT.MOLECULAR WEIGHT>
490.343

> <BIOSOLVEIT.MOLECULE_CHECKSUM>
LTI0LjE0NTk7MC44NjIzNTM=

> <BIOSOLVEIT.TPSA>
85.94

> <OPTIBRIUM.BBB category>
-

> <OPTIBRIUM.PPB90 category>
high

> <OPTIBRIUM.2C9 pKi>
5.48289

> <OPTIBRIUM.logS @ pH7.4>
0.994036

> <OPTIBRIUM.BBB log([brain]:[blood])>
-0.929209

> <OPTIBRIUM.2D6 affinity category>
high

> <OPTIBRIUM.logS>
0.572764

> <OPTIBRIUM.logD>
2.20791

> <OPTIBRIUM.hERG pIC50>
5.53506

> <OPTIBRIUM.logP>
3.84469

> <OPTIBRIUM.HIA category>
+

> <OPTIBRIUM.P-gp category>
yes

$$$$
3WH_A_501_1_007
joSeeSAR  03092211583D 1   1.00000     0.00000     0
SeeSAR 11.2.2 jonathanwahrer
 51 54  0  0  0  0            999 V2000
   14.4913   31.4249   72.4530 C   0  0  0  0  0  0  0  0  0  0  0  0
   15.0596   30.9496   71.1251 C   0  0  0  0  0  0  0  0  0  0  0  0
   18.5982   32.3410   70.7771 C   0  0  0  0  0  0  0  0  0  0  0  0
   10.2087   29.2866   74.8290 C   0  0  0  0  0  0  0  0  0  0  0  0
   11.4055   30.1724   75.2361 C   0  0  0  0  0  0  0  0  0  0  0  0
   12.4249   30.3466   74.2135 N   0  0  0  0  0  0  0  0  0  0  0  0
   13.7961   30.1297   74.4850 C   0  0  0  0  0  0  0  0  0  0  0  0
   14.1631   29.7843   75.6059 O   0  0  0  0  0  0  0  0  0  0  0  0
   14.6922   30.3399   73.4212 N   0  0  0  0  0  0  0  0  0  0  0  0
   15.8788   29.5018   73.2041 C   0  0  0  0  0  0  0  0  0  0  0  0
   16.9507   30.3749   72.5722 C   0  0  0  0  0  0  0  0  0  0  0  0
   16.5746   30.8189   71.1669 C   0  0  2  0  0  0  0  0  0  0  0  0
   17.2284   32.0843   70.9004 N   0  0  0  0  0  0  0  0  0  0  0  0
   19.0523   33.5842   70.5603 N   0  0  0  0  0  0  0  0  0  0  0  0
   20.3646   33.8325   70.4419 C   0  0  0  0  0  0  0  0  0  0  0  0
   21.2807   32.7911   70.5441 C   0  0  0  0  0  0  0  0  0  0  0  0
   23.3962   33.1318   70.3617 I   0  0  0  0  0  0  0  0  0  0  0  0
   20.7819   31.5129   70.7679 C   0  0  0  0  0  0  0  0  0  0  0  0
   19.4599   31.3191   70.8787 N   0  0  0  0  0  0  0  0  0  0  0  0
   20.8519   35.1782   70.2064 C   0  0  0  0  0  0  0  0  0  0  0  0
   21.0621   36.1253   71.1662 C   0  0  0  0  0  0  0  0  0  0  0  0
   21.5208   37.2553   70.5507 N   0  0  0  0  0  0  0  0  0  0  0  0
   21.5959   37.0142   69.2077 C   0  0  0  0  0  0  0  0  0  0  0  0
   21.1891   35.7293   68.9493 C   0  0  0  0  0  0  0  0  0  0  0  0
   21.1578   35.1857   67.6695 C   0  0  0  0  0  0  0  0  0  0  0  0
   21.5537   35.9679   66.5898 C   0  0  0  0  0  0  0  0  0  0  0  0
   21.9708   37.2748   66.8201 C   0  0  0  0  0  0  0  0  0  0  0  0
   21.9874   37.7838   68.1157 C   0  0  0  0  0  0  0  0  0  0  0  0
   13.5158   31.6231   72.3574 H   0  0  0  0  0  0  0  0  0  0  0  0
   14.9707   32.2484   72.7562 H   0  0  0  0  0  0  0  0  0  0  0  0
   14.8119   31.6077   70.4140 H   0  0  0  0  0  0  0  0  0  0  0  0
   14.6646   30.0575   70.9057 H   0  0  0  0  0  0  0  0  0  0  0  0
    9.5645   29.2257   75.5914 H   0  0  0  0  0  0  0  0  0  0  0  0
    9.7503   29.6891   74.0366 H   0  0  0  0  0  0  0  0  0  0  0  0
   10.5359   28.3710   74.5952 H   0  0  0  0  0  0  0  0  0  0  0  0
   11.8384   29.7581   76.0367 H   0  0  0  0  0  0  0  0  0  0  0  0
   11.0528   31.0763   75.4781 H   0  0  0  0  0  0  0  0  0  0  0  0
   12.1491   30.6273   73.2941 H   0  0  0  0  0  0  0  0  0  0  0  0
   15.6531   28.7433   72.5928 H   0  0  0  0  0  0  0  0  0  0  0  0
   16.2050   29.1402   74.0775 H   0  0  0  0  0  0  0  0  0  0  0  0
   17.8044   29.8560   72.5285 H   0  0  0  0  0  0  0  0  0  0  0  0
   17.0825   31.1861   73.1419 H   0  0  0  0  0  0  0  0  0  0  0  0
   16.8751   30.1346   70.5025 H   0  0  0  0  0  0  0  0  0  0  0  0
   16.6243   32.8736   70.7908 H   0  0  0  0  0  0  0  0  0  0  0  0
   21.4092   30.7380   70.8461 H   0  0  0  0  0  0  0  0  0  0  0  0
   20.9075   36.0119   72.1476 H   0  0  0  0  0  0  0  0  0  0  0  0
   21.7609   38.1129   71.0056 H   0  0  0  0  0  0  0  0  0  0  0  0
   20.8544   34.2435   67.5273 H   0  0  0  0  0  0  0  0  0  0  0  0
   21.5386   35.5962   65.6615 H   0  0  0  0  0  0  0  0  0  0  0  0
   22.2591   37.8494   66.0541 H   0  0  0  0  0  0  0  0  0  0  0  0
   22.2881   38.7256   68.2657 H   0  0  0  0  0  0  0  0  0  0  0  0
  1  2  1  0  0  0  0
  1  9  1  0  0  0  0
  2 12  1  0  0  0  0
  3 13  1  0  0  0  0
  3 14  2  0  0  0  0
  3 19  1  0  0  0  0
  4  5  1  0  0  0  0
  5  6  1  0  0  0  0
  6  7  1  0  0  0  0
  7  8  2  0  0  0  0
  7  9  1  0  0  0  0
  9 10  1  0  0  0  0
 10 11  1  0  0  0  0
 11 12  1  0  0  0  0
 12 13  1  0  0  0  0
 14 15  1  0  0  0  0
 15 16  2  0  0  0  0
 15 20  1  0  0  0  0
 16 17  1  0  0  0  0
 16 18  1  0  0  0  0
 18 19  2  0  0  0  0
 20 21  2  0  0  0  0
 20 24  1  0  0  0  0
 21 22  1  0  0  0  0
 22 23  1  0  0  0  0
 23 24  2  0  0  0  0
 23 28  1  0  0  0  0
 24 25  1  0  0  0  0
 25 26  2  0  0  0  0
 26 27  1  0  0  0  0
 27 28  2  0  0  0  0
  1 29  1  0  0  0  0
  1 30  1  0  0  0  0
  2 31  1  0  0  0  0
  2 32  1  0  0  0  0
  4 33  1  0  0  0  0
  4 34  1  0  0  0  0
  4 35  1  0  0  0  0
  5 36  1  0  0  0  0
  5 37  1  0  0  0  0
  6 38  1  0  0  0  0
 10 39  1  0  0  0  0
 10 40  1  0  0  0  0
 11 41  1  0  0  0  0
 11 42  1  0  0  0  0
 12 43  1  0  0  0  0
 13 44  1  0  0  0  0
 18 45  1  0  0  0  0
 21 46  1  0  0  0  0
 22 47  1  0  0  0  0
 25 48  1  0  0  0  0
 26 49  1  0  0  0  0
 27 50  1  0  0  0  0
 28 51  1  0  0  0  0
M  END
> <BIOSOLVEIT.HYDE_ESTIMATED_AFFINITY_LOWER_BOUNDARY [nM]>
273112.424902

> <BIOSOLVEIT.HYDE_ESTIMATED_AFFINITY_UPPER_BOUNDARY [nM]>
27135334.182472

> <BIOSOLVEIT.HYDE_LIGAND_EFFICIENCY range: ++, +, 0, -, -->
--

> <BIOSOLVEIT.HYDE_LIGAND_LIPOPHILIC_EFFICIENCY range: ++, +, 0, -, -->
--

> <BIOSOLVEIT.LOGP>
3.8353

> <BIOSOLVEIT.MOLECULAR WEIGHT>
490.343

> <BIOSOLVEIT.MOLECULE_CHECKSUM>
LTE0LjY0MTQ7MC41MjI5MDc=

> <BIOSOLVEIT.TPSA>
85.94

> <OPTIBRIUM.BBB category>
-

> <OPTIBRIUM.PPB90 category>
high

> <OPTIBRIUM.2C9 pKi>
5.48289

> <OPTIBRIUM.logS @ pH7.4>
0.994036

> <OPTIBRIUM.BBB log([brain]:[blood])>
-0.929209

> <OPTIBRIUM.2D6 affinity category>
high

> <OPTIBRIUM.logS>
0.572764

> <OPTIBRIUM.logD>
2.20791

> <OPTIBRIUM.hERG pIC50>
5.53506

> <OPTIBRIUM.logP>
3.84469

> <OPTIBRIUM.HIA category>
+

> <OPTIBRIUM.P-gp category>
yes

$$$$
3WH_A_501_1_010
joSeeSAR  03092211583D 1   1.00000     0.00000     0
SeeSAR 11.2.2 jonathanwahrer
 51 54  0  0  0  0            999 V2000
   16.1917   29.8934   72.7420 C   0  0  0  0  0  0  0  0  0  0  0  0
   15.1692   30.8945   72.2210 C   0  0  0  0  0  0  0  0  0  0  0  0
   13.3905   33.2105   71.8104 C   0  0  0  0  0  0  0  0  0  0  0  0
   17.2312   24.9178   75.9975 C   0  0  0  0  0  0  0  0  0  0  0  0
   17.0602   25.5211   74.5869 C   0  0  0  0  0  0  0  0  0  0  0  0
   16.4077   26.8200   74.5423 N   0  0  0  0  0  0  0  0  0  0  0  0
   16.1769   27.4954   73.3210 C   0  0  0  0  0  0  0  0  0  0  0  0
   16.5269   26.9939   72.2549 O   0  0  0  0  0  0  0  0  0  0  0  0
   15.5517   28.7430   73.4013 N   0  0  0  0  0  0  0  0  0  0  0  0
   14.2813   28.8410   74.1380 C   0  0  0  0  0  0  0  0  0  0  0  0
   13.3579   29.8923   73.5388 C   0  0  0  0  0  0  0  0  0  0  0  0
   14.0796   31.1993   73.2399 C   0  0  2  0  0  0  0  0  0  0  0  0
   13.1286   32.0895   72.6053 N   0  0  0  0  0  0  0  0  0  0  0  0
   14.6374   33.6846   71.6722 N   0  0  0  0  0  0  0  0  0  0  0  0
   14.8907   34.7589   70.9109 C   0  0  0  0  0  0  0  0  0  0  0  0
   13.8508   35.4011   70.2476 C   0  0  0  0  0  0  0  0  0  0  0  0
   14.1993   37.1280   69.0143 I   0  0  0  0  0  0  0  0  0  0  0  0
   12.5685   34.8889   70.4096 C   0  0  0  0  0  0  0  0  0  0  0  0
   12.3697   33.8117   71.1827 N   0  0  0  0  0  0  0  0  0  0  0  0
   16.2406   35.2693   70.7647 C   0  0  0  0  0  0  0  0  0  0  0  0
   16.5929   36.5875   70.7494 C   0  0  0  0  0  0  0  0  0  0  0  0
   17.9482   36.6604   70.5944 N   0  0  0  0  0  0  0  0  0  0  0  0
   18.4414   35.3885   70.5120 C   0  0  0  0  0  0  0  0  0  0  0  0
   17.4098   34.4895   70.6153 C   0  0  0  0  0  0  0  0  0  0  0  0
   17.5959   33.1118   70.5704 C   0  0  0  0  0  0  0  0  0  0  0  0
   18.8816   32.6053   70.4133 C   0  0  0  0  0  0  0  0  0  0  0  0
   19.9480   33.4921   70.3053 C   0  0  0  0  0  0  0  0  0  0  0  0
   19.7215   34.8648   70.3539 C   0  0  0  0  0  0  0  0  0  0  0  0
   16.7867   30.3533   73.4012 H   0  0  0  0  0  0  0  0  0  0  0  0
   16.7391   29.5616   71.9737 H   0  0  0  0  0  0  0  0  0  0  0  0
   14.7428   30.5184   71.3983 H   0  0  0  0  0  0  0  0  0  0  0  0
   15.6415   31.7456   71.9923 H   0  0  0  0  0  0  0  0  0  0  0  0
   17.6866   24.0303   75.9275 H   0  0  0  0  0  0  0  0  0  0  0  0
   17.7850   25.5333   76.5583 H   0  0  0  0  0  0  0  0  0  0  0  0
   16.3328   24.7991   76.4204 H   0  0  0  0  0  0  0  0  0  0  0  0
   16.5163   24.8831   74.0418 H   0  0  0  0  0  0  0  0  0  0  0  0
   17.9685   25.6173   74.1797 H   0  0  0  0  0  0  0  0  0  0  0  0
   16.1144   27.2471   75.3976 H   0  0  0  0  0  0  0  0  0  0  0  0
   14.4763   29.0854   75.0878 H   0  0  0  0  0  0  0  0  0  0  0  0
   13.8219   27.9532   74.1099 H   0  0  0  0  0  0  0  0  0  0  0  0
   12.6176   30.0753   74.1858 H   0  0  0  0  0  0  0  0  0  0  0  0
   12.9753   29.5351   72.6867 H   0  0  0  0  0  0  0  0  0  0  0  0
   14.4602   31.6044   74.0712 H   0  0  0  0  0  0  0  0  0  0  0  0
   12.1631   31.8754   72.7543 H   0  0  0  0  0  0  0  0  0  0  0  0
   11.7945   35.3239   69.9496 H   0  0  0  0  0  0  0  0  0  0  0  0
   15.9686   37.3639   70.8364 H   0  0  0  0  0  0  0  0  0  0  0  0
   18.4877   37.5012   70.5491 H   0  0  0  0  0  0  0  0  0  0  0  0
   16.8146   32.4929   70.6501 H   0  0  0  0  0  0  0  0  0  0  0  0
   19.0373   31.6181   70.3786 H   0  0  0  0  0  0  0  0  0  0  0  0
   20.8783   33.1431   70.1927 H   0  0  0  0  0  0  0  0  0  0  0  0
   20.4977   35.4902   70.2730 H   0  0  0  0  0  0  0  0  0  0  0  0
  1  2  1  0  0  0  0
  1  9  1  0  0  0  0
  2 12  1  0  0  0  0
  3 13  1  0  0  0  0
  3 14  2  0  0  0  0
  3 19  1  0  0  0  0
  4  5  1  0  0  0  0
  5  6  1  0  0  0  0
  6  7  1  0  0  0  0
  7  8  2  0  0  0  0
  7  9  1  0  0  0  0
  9 10  1  0  0  0  0
 10 11  1  0  0  0  0
 11 12  1  0  0  0  0
 12 13  1  0  0  0  0
 14 15  1  0  0  0  0
 15 16  2  0  0  0  0
 15 20  1  0  0  0  0
 16 17  1  0  0  0  0
 16 18  1  0  0  0  0
 18 19  2  0  0  0  0
 20 21  2  0  0  0  0
 20 24  1  0  0  0  0
 21 22  1  0  0  0  0
 22 23  1  0  0  0  0
 23 24  2  0  0  0  0
 23 28  1  0  0  0  0
 24 25  1  0  0  0  0
 25 26  2  0  0  0  0
 26 27  1  0  0  0  0
 27 28  2  0  0  0  0
  1 29  1  0  0  0  0
  1 30  1  0  0  0  0
  2 31  1  0  0  0  0
  2 32  1  0  0  0  0
  4 33  1  0  0  0  0
  4 34  1  0  0  0  0
  4 35  1  0  0  0  0
  5 36  1  0  0  0  0
  5 37  1  0  0  0  0
  6 38  1  0  0  0  0
 10 39  1  0  0  0  0
 10 40  1  0  0  0  0
 11 41  1  0  0  0  0
 11 42  1  0  0  0  0
 12 43  1  0  0  0  0
 13 44  1  0  0  0  0
 18 45  1  0  0  0  0
 21 46  1  0  0  0  0
 22 47  1  0  0  0  0
 25 48  1  0  0  0  0
 26 49  1  0  0  0  0
 27 50  1  0  0  0  0
 28 51  1  0  0  0  0
M  END
> <BIOSOLVEIT.HYDE_ESTIMATED_AFFINITY_LOWER_BOUNDARY [nM]>
8331687.160969

> <BIOSOLVEIT.HYDE_ESTIMATED_AFFINITY_UPPER_BOUNDARY [nM]>
827802380.275314

> <BIOSOLVEIT.HYDE_LIGAND_EFFICIENCY range: ++, +, 0, -, -->
--

> <BIOSOLVEIT.HYDE_LIGAND_LIPOPHILIC_EFFICIENCY range: ++, +, 0, -, -->
--

> <BIOSOLVEIT.LOGP>
3.8353

> <BIOSOLVEIT.MOLECULAR WEIGHT>
490.343

> <BIOSOLVEIT.MOLECULE_CHECKSUM>
LTYuMTY4NDg7MC4yMjAzMDM=

> <BIOSOLVEIT.TPSA>
85.94

> <OPTIBRIUM.BBB category>
-

> <OPTIBRIUM.PPB90 category>
high

> <OPTIBRIUM.2C9 pKi>
5.48289

> <OPTIBRIUM.logS @ pH7.4>
0.994036

> <OPTIBRIUM.BBB log([brain]:[blood])>
-0.929209

> <OPTIBRIUM.2D6 affinity category>
high

> <OPTIBRIUM.logS>
0.572764

> <OPTIBRIUM.logD>
2.20791

> <OPTIBRIUM.hERG pIC50>
5.53506

> <OPTIBRIUM.logP>
3.84469

> <OPTIBRIUM.HIA category>
+

> <OPTIBRIUM.P-gp category>
yes

$$$$
3WH_A_501_1_002
joSeeSAR  03092211583D 1   1.00000     0.00000     0
SeeSAR 11.2.2 jonathanwahrer
 51 54  0  0  0  0            999 V2000
   15.0111   28.8836   74.2607 C   0  0  0  0  0  0  0  0  0  0  0  0
   14.2541   30.1615   73.9427 C   0  0  0  0  0  0  0  0  0  0  0  0
   13.4110   32.6291   71.6530 C   0  0  0  0  0  0  0  0  0  0  0  0
   16.6818   24.2160   74.9081 C   0  0  0  0  0  0  0  0  0  0  0  0
   15.6225   24.7752   73.9344 C   0  0  0  0  0  0  0  0  0  0  0  0
   15.4528   26.2192   73.9643 N   0  0  0  0  0  0  0  0  0  0  0  0
   15.9611   27.0498   72.9383 C   0  0  0  0  0  0  0  0  0  0  0  0
   16.5661   26.5643   71.9850 O   0  0  0  0  0  0  0  0  0  0  0  0
   15.7486   28.4178   73.0781 N   0  0  0  0  0  0  0  0  0  0  0  0
   16.2847   29.2658   72.0053 C   0  0  0  0  0  0  0  0  0  0  0  0
   15.4093   30.4951   71.8206 C   0  0  0  0  0  0  0  0  0  0  0  0
   14.0420   30.2745   72.4410 C   0  0  2  0  0  0  0  0  0  0  0  0
   13.1171   31.3377   72.1038 N   0  0  0  0  0  0  0  0  0  0  0  0
   14.6791   33.0293   71.4791 N   0  0  0  0  0  0  0  0  0  0  0  0
   14.9631   34.2664   71.0471 C   0  0  0  0  0  0  0  0  0  0  0  0
   13.9332   35.1593   70.7709 C   0  0  0  0  0  0  0  0  0  0  0  0
   14.3307   37.1554   70.0764 I   0  0  0  0  0  0  0  0  0  0  0  0
   12.6286   34.7181   70.9611 C   0  0  0  0  0  0  0  0  0  0  0  0
   12.3995   33.4704   71.3950 N   0  0  0  0  0  0  0  0  0  0  0  0
   16.3360   34.6960   70.8612 C   0  0  0  0  0  0  0  0  0  0  0  0
   16.8134   35.3824   69.7828 C   0  0  0  0  0  0  0  0  0  0  0  0
   18.1477   35.6008   69.9785 N   0  0  0  0  0  0  0  0  0  0  0  0
   18.5030   35.0501   71.1776 C   0  0  0  0  0  0  0  0  0  0  0  0
   17.4022   34.4764   71.7626 C   0  0  0  0  0  0  0  0  0  0  0  0
   17.4451   33.8367   72.9969 C   0  0  0  0  0  0  0  0  0  0  0  0
   18.6526   33.7658   73.6832 C   0  0  0  0  0  0  0  0  0  0  0  0
   19.7864   34.3379   73.1154 C   0  0  0  0  0  0  0  0  0  0  0  0
   19.7038   34.9690   71.8773 C   0  0  0  0  0  0  0  0  0  0  0  0
   14.3618   28.1776   74.5434 H   0  0  0  0  0  0  0  0  0  0  0  0
   15.6569   29.0593   75.0038 H   0  0  0  0  0  0  0  0  0  0  0  0
   14.7814   30.9483   74.2636 H   0  0  0  0  0  0  0  0  0  0  0  0
   13.3665   30.1448   74.4030 H   0  0  0  0  0  0  0  0  0  0  0  0
   16.7269   23.2213   74.8163 H   0  0  0  0  0  0  0  0  0  0  0  0
   17.5746   24.6115   74.6924 H   0  0  0  0  0  0  0  0  0  0  0  0
   16.4301   24.4531   75.8465 H   0  0  0  0  0  0  0  0  0  0  0  0
   14.7432   24.3559   74.1602 H   0  0  0  0  0  0  0  0  0  0  0  0
   15.8876   24.5143   73.0062 H   0  0  0  0  0  0  0  0  0  0  0  0
   14.9637   26.6361   74.7306 H   0  0  0  0  0  0  0  0  0  0  0  0
   16.3066   28.7447   71.1521 H   0  0  0  0  0  0  0  0  0  0  0  0
   17.2121   29.5536   72.2440 H   0  0  0  0  0  0  0  0  0  0  0  0
   15.3012   30.6779   70.8434 H   0  0  0  0  0  0  0  0  0  0  0  0
   15.8470   31.2795   72.2600 H   0  0  0  0  0  0  0  0  0  0  0  0
   13.6724   29.4088   72.1033 H   0  0  0  0  0  0  0  0  0  0  0  0
   12.1462   31.1210   72.2062 H   0  0  0  0  0  0  0  0  0  0  0  0
   11.8612   35.3314   70.7743 H   0  0  0  0  0  0  0  0  0  0  0  0
   16.2803   35.6743   68.9887 H   0  0  0  0  0  0  0  0  0  0  0  0
   18.7601   36.0818   69.3510 H   0  0  0  0  0  0  0  0  0  0  0  0
   16.6174   33.4324   73.3862 H   0  0  0  0  0  0  0  0  0  0  0  0
   18.7051   33.3102   74.5719 H   0  0  0  0  0  0  0  0  0  0  0  0
   20.6617   34.2957   73.5971 H   0  0  0  0  0  0  0  0  0  0  0  0
   20.5276   35.3742   71.4807 H   0  0  0  0  0  0  0  0  0  0  0  0
  1  2  1  0  0  0  0
  1  9  1  0  0  0  0
  2 12  1  0  0  0  0
  3 13  1  0  0  0  0
  3 14  2  0  0  0  0
  3 19  1  0  0  0  0
  4  5  1  0  0  0  0
  5  6  1  0  0  0  0
  6  7  1  0  0  0  0
  7  8  2  0  0  0  0
  7  9  1  0  0  0  0
  9 10  1  0  0  0  0
 10 11  1  0  0  0  0
 11 12  1  0  0  0  0
 12 13  1  0  0  0  0
 14 15  1  0  0  0  0
 15 16  2  0  0  0  0
 15 20  1  0  0  0  0
 16 17  1  0  0  0  0
 16 18  1  0  0  0  0
 18 19  2  0  0  0  0
 20 21  2  0  0  0  0
 20 24  1  0  0  0  0
 21 22  1  0  0  0  0
 22 23  1  0  0  0  0
 23 24  2  0  0  0  0
 23 28  1  0  0  0  0
 24 25  1  0  0  0  0
 25 26  2  0  0  0  0
 26 27  1  0  0  0  0
 27 28  2  0  0  0  0
  1 29  1  0  0  0  0
  1 30  1  0  0  0  0
  2 31  1  0  0  0  0
  2 32  1  0  0  0  0
  4 33  1  0  0  0  0
  4 34  1  0  0  0  0
  4 35  1  0  0  0  0
  5 36  1  0  0  0  0
  5 37  1  0  0  0  0
  6 38  1  0  0  0  0
 10 39  1  0  0  0  0
 10 40  1  0  0  0  0
 11 41  1  0  0  0  0
 11 42  1  0  0  0  0
 12 43  1  0  0  0  0
 13 44  1  0  0  0  0
 18 45  1  0  0  0  0
 21 46  1  0  0  0  0
 22 47  1  0  0  0  0
 25 48  1  0  0  0  0
 26 49  1  0  0  0  0
 27 50  1  0  0  0  0
 28 51  1  0  0  0  0
M  END
> <BIOSOLVEIT.LOGP>
3.8353

> <BIOSOLVEIT.MOLECULAR WEIGHT>
490.343

> <BIOSOLVEIT.TPSA>
85.94

> <OPTIBRIUM.BBB category>
-

> <OPTIBRIUM.PPB90 category>
high

> <OPTIBRIUM.2C9 pKi>
5.48289

> <OPTIBRIUM.logS @ pH7.4>
0.994036

> <OPTIBRIUM.BBB log([brain]:[blood])>
-0.929209

> <OPTIBRIUM.2D6 affinity category>
high

> <OPTIBRIUM.logS>
0.572764

> <OPTIBRIUM.logD>
2.20791

> <OPTIBRIUM.hERG pIC50>
5.53506

> <OPTIBRIUM.logP>
3.84469

> <OPTIBRIUM.HIA category>
+

> <OPTIBRIUM.P-gp category>
yes

$$$$
3WH_A_501_1_005
joSeeSAR  03092211583D 1   1.00000     0.00000     0
SeeSAR 11.2.2 jonathanwahrer
 51 54  0  0  0  0            999 V2000
   15.8428   29.3926   73.9193 C   0  0  0  0  0  0  0  0  0  0  0  0
   14.4242   29.8876   73.6656 C   0  0  0  0  0  0  0  0  0  0  0  0
   13.4243   32.3642   71.5486 C   0  0  0  0  0  0  0  0  0  0  0  0
   14.9151   24.3204   74.1541 C   0  0  0  0  0  0  0  0  0  0  0  0
   16.1396   25.1567   74.5831 C   0  0  0  0  0  0  0  0  0  0  0  0
   16.0533   26.5787   74.2907 N   0  0  0  0  0  0  0  0  0  0  0  0
   16.3188   27.0904   72.9989 C   0  0  0  0  0  0  0  0  0  0  0  0
   16.6326   26.3355   72.0813 O   0  0  0  0  0  0  0  0  0  0  0  0
   16.2151   28.4810   72.8375 N   0  0  0  0  0  0  0  0  0  0  0  0
   16.4820   29.1562   71.5614 C   0  0  0  0  0  0  0  0  0  0  0  0
   15.5419   30.3489   71.4732 C   0  0  0  0  0  0  0  0  0  0  0  0
   14.2325   30.0128   72.1656 C   0  0  2  0  0  0  0  0  0  0  0  0
   13.2297   31.0294   71.9196 N   0  0  0  0  0  0  0  0  0  0  0  0
   14.6577   32.8610   71.3737 N   0  0  0  0  0  0  0  0  0  0  0  0
   14.8465   34.1399   71.0181 C   0  0  0  0  0  0  0  0  0  0  0  0
   13.7522   34.9759   70.8240 C   0  0  0  0  0  0  0  0  0  0  0  0
   13.9964   37.0350   70.2541 I   0  0  0  0  0  0  0  0  0  0  0  0
   12.4856   34.4348   71.0132 C   0  0  0  0  0  0  0  0  0  0  0  0
   12.3523   33.1490   71.3688 N   0  0  0  0  0  0  0  0  0  0  0  0
   16.1821   34.6739   70.8310 C   0  0  0  0  0  0  0  0  0  0  0  0
   16.5839   35.4594   69.7900 C   0  0  0  0  0  0  0  0  0  0  0  0
   17.9052   35.7559   69.9704 N   0  0  0  0  0  0  0  0  0  0  0  0
   18.3281   35.1550   71.1225 C   0  0  0  0  0  0  0  0  0  0  0  0
   17.2841   34.4706   71.6924 C   0  0  0  0  0  0  0  0  0  0  0  0
   17.4023   33.7572   72.8805 C   0  0  0  0  0  0  0  0  0  0  0  0
   18.6295   33.7254   73.5341 C   0  0  0  0  0  0  0  0  0  0  0  0
   19.7070   34.4094   72.9805 C   0  0  0  0  0  0  0  0  0  0  0  0
   19.5497   35.1117   71.7889 C   0  0  0  0  0  0  0  0  0  0  0  0
   15.8807   28.9108   74.7948 H   0  0  0  0  0  0  0  0  0  0  0  0
   16.4729   30.1689   73.9385 H   0  0  0  0  0  0  0  0  0  0  0  0
   14.2930   30.7787   74.1000 H   0  0  0  0  0  0  0  0  0  0  0  0
   13.7651   29.2346   74.0386 H   0  0  0  0  0  0  0  0  0  0  0  0
   15.0655   23.3615   74.3947 H   0  0  0  0  0  0  0  0  0  0  0  0
   14.0996   24.6581   74.6241 H   0  0  0  0  0  0  0  0  0  0  0  0
   14.7870   24.3999   73.1655 H   0  0  0  0  0  0  0  0  0  0  0  0
   16.9430   24.7925   74.1121 H   0  0  0  0  0  0  0  0  0  0  0  0
   16.2557   25.0507   75.5707 H   0  0  0  0  0  0  0  0  0  0  0  0
   15.7997   27.2115   75.0223 H   0  0  0  0  0  0  0  0  0  0  0  0
   16.3118   28.5297   70.8008 H   0  0  0  0  0  0  0  0  0  0  0  0
   17.4321   29.4668   71.5311 H   0  0  0  0  0  0  0  0  0  0  0  0
   15.3656   30.5642   70.5127 H   0  0  0  0  0  0  0  0  0  0  0  0
   15.9623   31.1386   71.9200 H   0  0  0  0  0  0  0  0  0  0  0  0
   13.8974   29.1397   71.8113 H   0  0  0  0  0  0  0  0  0  0  0  0
   12.2786   30.7405   72.0287 H   0  0  0  0  0  0  0  0  0  0  0  0
   11.6740   35.0046   70.8841 H   0  0  0  0  0  0  0  0  0  0  0  0
   16.0116   35.7644   69.0287 H   0  0  0  0  0  0  0  0  0  0  0  0
   18.4672   36.3171   69.3628 H   0  0  0  0  0  0  0  0  0  0  0  0
   16.6141   33.2728   73.2604 H   0  0  0  0  0  0  0  0  0  0  0  0
   18.7358   33.2184   74.3894 H   0  0  0  0  0  0  0  0  0  0  0  0
   20.5955   34.3966   73.4391 H   0  0  0  0  0  0  0  0  0  0  0  0
   20.3336   35.5972   71.4019 H   0  0  0  0  0  0  0  0  0  0  0  0
  1  2  1  0  0  0  0
  1  9  1  0  0  0  0
  2 12  1  0  0  0  0
  3 13  1  0  0  0  0
  3 14  2  0  0  0  0
  3 19  1  0  0  0  0
  4  5  1  0  0  0  0
  5  6  1  0  0  0  0
  6  7  1  0  0  0  0
  7  8  2  0  0  0  0
  7  9  1  0  0  0  0
  9 10  1  0  0  0  0
 10 11  1  0  0  0  0
 11 12  1  0  0  0  0
 12 13  1  0  0  0  0
 14 15  1  0  0  0  0
 15 16  2  0  0  0  0
 15 20  1  0  0  0  0
 16 17  1  0  0  0  0
 16 18  1  0  0  0  0
 18 19  2  0  0  0  0
 20 21  2  0  0  0  0
 20 24  1  0  0  0  0
 21 22  1  0  0  0  0
 22 23  1  0  0  0  0
 23 24  2  0  0  0  0
 23 28  1  0  0  0  0
 24 25  1  0  0  0  0
 25 26  2  0  0  0  0
 26 27  1  0  0  0  0
 27 28  2  0  0  0  0
  1 29  1  0  0  0  0
  1 30  1  0  0  0  0
  2 31  1  0  0  0  0
  2 32  1  0  0  0  0
  4 33  1  0  0  0  0
  4 34  1  0  0  0  0
  4 35  1  0  0  0  0
  5 36  1  0  0  0  0
  5 37  1  0  0  0  0
  6 38  1  0  0  0  0
 10 39  1  0  0  0  0
 10 40  1  0  0  0  0
 11 41  1  0  0  0  0
 11 42  1  0  0  0  0
 12 43  1  0  0  0  0
 13 44  1  0  0  0  0
 18 45  1  0  0  0  0
 21 46  1  0  0  0  0
 22 47  1  0  0  0  0
 25 48  1  0  0  0  0
 26 49  1  0  0  0  0
 27 50  1  0  0  0  0
 28 51  1  0  0  0  0
M  END
> <BIOSOLVEIT.LOGP>
3.8353

> <BIOSOLVEIT.MOLECULAR WEIGHT>
490.343

> <BIOSOLVEIT.TPSA>
85.94

> <OPTIBRIUM.BBB category>
-

> <OPTIBRIUM.PPB90 category>
high

> <OPTIBRIUM.2C9 pKi>
5.48289

> <OPTIBRIUM.logS @ pH7.4>
0.994036

> <OPTIBRIUM.BBB log([brain]:[blood])>
-0.929209

> <OPTIBRIUM.2D6 affinity category>
high

> <OPTIBRIUM.logS>
0.572764

> <OPTIBRIUM.logD>
2.20791

> <OPTIBRIUM.hERG pIC50>
5.53506

> <OPTIBRIUM.logP>
3.84469

> <OPTIBRIUM.HIA category>
+

> <OPTIBRIUM.P-gp category>
yes

$$$$
