HQM_C_501_1_001
joSeeSAR  03092212483D 1   1.00000     0.00000     0
SeeSAR 11.2.2 jonathanwahrer
 70 73  0  0  0  0            999 V2000
   25.3783   78.9806   17.2409 C   0  0  0  0  0  0  0  0  0  0  0  0
   24.7792   76.7871   16.0329 C   0  0  0  0  0  0  0  0  0  0  0  0
   20.4521   78.7304   16.9662 C   0  0  0  0  0  0  0  0  0  0  0  0
   20.2376   77.7984   18.1503 C   0  0  0  0  0  0  0  0  0  0  0  0
   19.9981   78.5605   19.4438 C   0  0  0  0  0  0  0  0  0  0  0  0
   18.8057   79.4792   19.2357 C   0  0  0  0  0  0  0  0  0  0  0  0
   19.0206   80.4403   18.0746 C   0  0  0  0  0  0  0  0  0  0  0  0
   20.3415   80.1949   17.3620 C   0  0  0  0  0  0  0  0  0  0  0  0
   20.4259   75.7350   13.5899 C   0  0  0  0  0  0  0  0  0  0  0  0
   19.2364   73.5341   13.6527 C   0  0  0  0  0  0  0  0  0  0  0  0
   19.5652   72.2079   13.3906 C   0  0  0  0  0  0  0  0  0  0  0  0
   18.6080   71.3442   12.8690 C   0  0  0  0  0  0  0  0  0  0  0  0
   17.3272   71.8236   12.6167 C   0  0  0  0  0  0  0  0  0  0  0  0
   16.9934   73.1487   12.8775 C   0  0  0  0  0  0  0  0  0  0  0  0
   22.0974   79.4972   12.2029 C   0  0  0  0  0  0  0  0  0  0  0  0
   21.8041   78.1825   12.5496 C   0  0  0  0  0  0  0  0  0  0  0  0
   21.7105   77.8525   13.8974 C   0  0  0  0  0  0  0  0  0  0  0  0
   21.9070   78.8205   14.8765 C   0  0  0  0  0  0  0  0  0  0  0  0
   22.1996   80.1343   14.5249 C   0  0  0  0  0  0  0  0  0  0  0  0
   22.2943   80.4699   13.1781 C   0  0  0  0  0  0  0  0  0  0  0  0
   23.0075   78.1171   17.1712 C   0  0  0  0  0  0  0  0  0  0  0  0
   24.3404   78.2203   16.3519 C   0  0  0  0  0  0  0  0  0  0  0  0
   17.9538   74.0095   13.3988 C   0  0  0  0  0  0  0  0  0  0  0  0
   16.2713   70.8898   12.0481 C   0  0  0  0  0  0  0  0  0  0  0  0
   22.2002   79.8640   10.7318 C   0  0  1  0  0  0  0  0  0  0  0  0
   21.6474   78.7834    9.8498 C   0  0  0  0  0  0  0  0  0  0  0  0
   20.8759   80.0591   10.0478 C   0  0  1  0  0  0  0  0  0  0  0  0
   19.6723   79.8455   10.9524 C   0  0  0  0  0  0  0  0  0  0  0  0
   21.8029   78.4534   16.3263 N   0  0  0  0  0  0  0  0  0  0  0  0
   21.4179   76.5371   14.2759 N   0  0  0  0  0  0  0  0  0  0  0  0
   20.2496   74.4277   14.1986 N   0  0  0  0  0  0  0  0  0  0  0  0
   19.8041   76.1566   12.6624 O   0  0  0  0  0  0  0  0  0  0  0  0
   19.1262   78.7087   11.0758 O   0  0  0  0  0  0  0  0  0  0  0  0
   19.2082   80.8267   11.5862 O   0  5  0  0  0  0  0  0  0  0  0  0
   25.0480   79.9071   17.4206 H   0  0  0  0  0  0  0  0  0  0  0  0
   25.4949   78.4944   18.1069 H   0  0  0  0  0  0  0  0  0  0  0  0
   26.2559   79.0263   16.7636 H   0  0  0  0  0  0  0  0  0  0  0  0
   24.0854   76.3448   15.4647 H   0  0  0  0  0  0  0  0  0  0  0  0
   25.6498   76.8068   15.5413 H   0  0  0  0  0  0  0  0  0  0  0  0
   24.8889   76.2748   16.8846 H   0  0  0  0  0  0  0  0  0  0  0  0
   19.7428   78.5382   16.2880 H   0  0  0  0  0  0  0  0  0  0  0  0
   21.0492   77.2247   18.2600 H   0  0  0  0  0  0  0  0  0  0  0  0
   19.4431   77.2201   17.9653 H   0  0  0  0  0  0  0  0  0  0  0  0
   20.8071   79.1015   19.6734 H   0  0  0  0  0  0  0  0  0  0  0  0
   19.8055   77.9177   20.1853 H   0  0  0  0  0  0  0  0  0  0  0  0
   18.6576   80.0096   20.0704 H   0  0  0  0  0  0  0  0  0  0  0  0
   17.9975   78.9213   19.0474 H   0  0  0  0  0  0  0  0  0  0  0  0
   19.0134   81.3765   18.4260 H   0  0  0  0  0  0  0  0  0  0  0  0
   18.2746   80.3248   17.4187 H   0  0  0  0  0  0  0  0  0  0  0  0
   20.3863   80.7644   16.5413 H   0  0  0  0  0  0  0  0  0  0  0  0
   21.0969   80.4309   17.9733 H   0  0  0  0  0  0  0  0  0  0  0  0
   20.4898   71.8757   13.5772 H   0  0  0  0  0  0  0  0  0  0  0  0
   18.8378   70.3900   12.6776 H   0  0  0  0  0  0  0  0  0  0  0  0
   16.0685   73.4804   12.6915 H   0  0  0  0  0  0  0  0  0  0  0  0
   21.6633   77.4883   11.8438 H   0  0  0  0  0  0  0  0  0  0  0  0
   22.3401   80.8283   15.2310 H   0  0  0  0  0  0  0  0  0  0  0  0
   22.5038   81.4105   12.9108 H   0  0  0  0  0  0  0  0  0  0  0  0
   23.0508   78.7536   17.9412 H   0  0  0  0  0  0  0  0  0  0  0  0
   22.9109   77.1833   17.5156 H   0  0  0  0  0  0  0  0  0  0  0  0
   24.1818   78.7259   15.5038 H   0  0  0  0  0  0  0  0  0  0  0  0
   17.7239   74.9638   13.5897 H   0  0  0  0  0  0  0  0  0  0  0  0
   15.4139   71.3901   11.9279 H   0  0  0  0  0  0  0  0  0  0  0  0
   16.5788   70.5380   11.1639 H   0  0  0  0  0  0  0  0  0  0  0  0
   16.1267   70.1270   12.6784 H   0  0  0  0  0  0  0  0  0  0  0  0
   22.9905   80.3899   10.4172 H   0  0  0  0  0  0  0  0  0  0  0  0
   21.3151   77.9305   10.2526 H   0  0  0  0  0  0  0  0  0  0  0  0
   22.0762   78.5903    8.9672 H   0  0  0  0  0  0  0  0  0  0  0  0
   20.8086   80.7106    9.2922 H   0  0  0  0  0  0  0  0  0  0  0  0
   21.9116   76.1366   15.0477 H   0  0  0  0  0  0  0  0  0  0  0  0
   20.8122   74.1469   14.9762 H   0  0  0  0  0  0  0  0  0  0  0  0
  1 22  1  0  0  0  0
  2 22  1  0  0  0  0
  3  4  1  0  0  0  0
  3  8  1  0  0  0  0
  3 29  1  0  0  0  0
  4  5  1  0  0  0  0
  5  6  1  0  0  0  0
  6  7  1  0  0  0  0
  7  8  1  0  0  0  0
  9 30  1  0  0  0  0
  9 31  1  0  0  0  0
  9 32  2  0  0  0  0
 10 11  2  0  0  0  0
 10 23  1  0  0  0  0
 10 31  1  0  0  0  0
 11 12  1  0  0  0  0
 12 13  2  0  0  0  0
 13 14  1  0  0  0  0
 13 24  1  0  0  0  0
 14 23  2  0  0  0  0
 15 16  1  0  0  0  0
 15 20  2  0  0  0  0
 15 25  1  0  0  0  0
 16 17  2  0  0  0  0
 17 18  1  0  0  0  0
 17 30  1  0  0  0  0
 18 19  2  0  0  0  0
 18 29  1  0  0  0  0
 19 20  1  0  0  0  0
 21 22  1  0  0  0  0
 21 29  1  0  0  0  0
 25 26  1  0  0  0  0
 25 27  1  0  0  0  0
 26 27  1  0  0  0  0
 27 28  1  0  0  0  0
 28 33  2  0  0  0  0
 28 34  1  0  0  0  0
  1 35  1  0  0  0  0
  1 36  1  0  0  0  0
  1 37  1  0  0  0  0
  2 38  1  0  0  0  0
  2 39  1  0  0  0  0
  2 40  1  0  0  0  0
  3 41  1  0  0  0  0
  4 42  1  0  0  0  0
  4 43  1  0  0  0  0
  5 44  1  0  0  0  0
  5 45  1  0  0  0  0
  6 46  1  0  0  0  0
  6 47  1  0  0  0  0
  7 48  1  0  0  0  0
  7 49  1  0  0  0  0
  8 50  1  0  0  0  0
  8 51  1  0  0  0  0
 11 52  1  0  0  0  0
 12 53  1  0  0  0  0
 14 54  1  0  0  0  0
 16 55  1  0  0  0  0
 19 56  1  0  0  0  0
 20 57  1  0  0  0  0
 21 58  1  0  0  0  0
 21 59  1  0  0  0  0
 22 60  1  0  0  0  0
 23 61  1  0  0  0  0
 24 62  1  0  0  0  0
 24 63  1  0  0  0  0
 24 64  1  0  0  0  0
 25 65  1  0  0  0  0
 26 66  1  0  0  0  0
 26 67  1  0  0  0  0
 27 68  1  0  0  0  0
 30 69  1  0  0  0  0
 31 70  1  0  0  0  0
M  CHG  1  34  -1
M  END
> <BIOSOLVEIT.HYDE_ESTIMATED_AFFINITY_LOWER_BOUNDARY [nM]>
0.000000

> <BIOSOLVEIT.HYDE_ESTIMATED_AFFINITY_UPPER_BOUNDARY [nM]>
0.001000

> <BIOSOLVEIT.HYDE_LIGAND_EFFICIENCY range: ++, +, 0, -, -->
++

> <BIOSOLVEIT.HYDE_LIGAND_LIPOPHILIC_EFFICIENCY range: ++, +, 0, -, -->
++

> <BIOSOLVEIT.LOGP>
5.28752

> <BIOSOLVEIT.MOLECULAR WEIGHT>
462.61

> <BIOSOLVEIT.MOLECULE_CHECKSUM>
LTg3LjM4Nzg7Mi41NzAyMw==

> <BIOSOLVEIT.TPSA>
84.5

> <OPTIBRIUM.BBB category>
-

> <OPTIBRIUM.PPB90 category>
high

> <OPTIBRIUM.2C9 pKi>
5.44318

> <OPTIBRIUM.logS @ pH7.4>
1.06418

> <OPTIBRIUM.BBB log([brain]:[blood])>
-1.05937

> <OPTIBRIUM.2D6 affinity category>
very high

> <OPTIBRIUM.logS>
-0.0360883

> <OPTIBRIUM.logD>
2.62209

> <OPTIBRIUM.hERG pIC50>
5.44703

> <OPTIBRIUM.logP>
5.98503

> <OPTIBRIUM.HIA category>
+

> <OPTIBRIUM.P-gp category>
yes

$$$$
HQM_C_501_1_002
joSeeSAR  03092212483D 1   1.00000     0.00000     0
SeeSAR 11.2.2 jonathanwahrer
 70 73  0  0  0  0            999 V2000
   25.3820   78.9884   17.2387 C   0  0  0  0  0  0  0  0  0  0  0  0
   24.7699   76.7943   16.0383 C   0  0  0  0  0  0  0  0  0  0  0  0
   20.4444   78.7173   16.9599 C   0  0  0  0  0  0  0  0  0  0  0  0
   20.3543   80.1712   17.3929 C   0  0  0  0  0  0  0  0  0  0  0  0
   19.0332   80.4289   18.1004 C   0  0  0  0  0  0  0  0  0  0  0  0
   18.8214   79.4721   19.2642 C   0  0  0  0  0  0  0  0  0  0  0  0
   19.9808   78.5028   19.4401 C   0  0  0  0  0  0  0  0  0  0  0  0
   20.2029   77.7675   18.1263 C   0  0  0  0  0  0  0  0  0  0  0  0
   20.4254   75.7358   13.5899 C   0  0  0  0  0  0  0  0  0  0  0  0
   19.2364   73.5346   13.6537 C   0  0  0  0  0  0  0  0  0  0  0  0
   19.5661   72.2084   13.3921 C   0  0  0  0  0  0  0  0  0  0  0  0
   18.6095   71.3441   12.8705 C   0  0  0  0  0  0  0  0  0  0  0  0
   17.3286   71.8227   12.6176 C   0  0  0  0  0  0  0  0  0  0  0  0
   16.9939   73.1478   12.8779 C   0  0  0  0  0  0  0  0  0  0  0  0
   22.0964   79.4974   12.2011 C   0  0  0  0  0  0  0  0  0  0  0  0
   21.8032   78.1829   12.5487 C   0  0  0  0  0  0  0  0  0  0  0  0
   21.7092   77.8539   13.8968 C   0  0  0  0  0  0  0  0  0  0  0  0
   21.9053   78.8226   14.8752 C   0  0  0  0  0  0  0  0  0  0  0  0
   22.1978   80.1362   14.5227 C   0  0  0  0  0  0  0  0  0  0  0  0
   22.2929   80.4709   13.1757 C   0  0  0  0  0  0  0  0  0  0  0  0
   23.0067   78.1370   17.1748 C   0  0  0  0  0  0  0  0  0  0  0  0
   24.3390   78.2308   16.3534 C   0  0  0  0  0  0  0  0  0  0  0  0
   17.9537   74.0092   13.3992 C   0  0  0  0  0  0  0  0  0  0  0  0
   16.2734   70.8882   12.0489 C   0  0  0  0  0  0  0  0  0  0  0  0
   22.1995   79.8632   10.7298 C   0  0  1  0  0  0  0  0  0  0  0  0
   21.6464   78.7822    9.8485 C   0  0  0  0  0  0  0  0  0  0  0  0
   20.8754   80.0584   10.0455 C   0  0  1  0  0  0  0  0  0  0  0  0
   19.6716   79.8460   10.9501 C   0  0  0  0  0  0  0  0  0  0  0  0
   21.8009   78.4565   16.3252 N   0  0  0  0  0  0  0  0  0  0  0  0
   21.4166   76.5387   14.2761 N   0  0  0  0  0  0  0  0  0  0  0  0
   20.2490   74.4289   14.1996 N   0  0  0  0  0  0  0  0  0  0  0  0
   19.8043   76.1564   12.6617 O   0  0  0  0  0  0  0  0  0  0  0  0
   19.1244   78.7097   11.0733 O   0  0  0  0  0  0  0  0  0  0  0  0
   19.2086   80.8276   11.5840 O   0  5  0  0  0  0  0  0  0  0  0  0
   25.0568   79.9172   17.4160 H   0  0  0  0  0  0  0  0  0  0  0  0
   25.4973   78.5043   18.1060 H   0  0  0  0  0  0  0  0  0  0  0  0
   26.2592   79.0281   16.7600 H   0  0  0  0  0  0  0  0  0  0  0  0
   24.0731   76.3538   15.4724 H   0  0  0  0  0  0  0  0  0  0  0  0
   25.6399   76.8079   15.5454 H   0  0  0  0  0  0  0  0  0  0  0  0
   24.8781   76.2840   16.8914 H   0  0  0  0  0  0  0  0  0  0  0  0
   19.7394   78.5517   16.2704 H   0  0  0  0  0  0  0  0  0  0  0  0
   20.4175   80.7601   16.5871 H   0  0  0  0  0  0  0  0  0  0  0  0
   21.1084   80.3773   18.0164 H   0  0  0  0  0  0  0  0  0  0  0  0
   18.2867   80.3124   17.4453 H   0  0  0  0  0  0  0  0  0  0  0  0
   19.0291   81.3668   18.4473 H   0  0  0  0  0  0  0  0  0  0  0  0
   17.9865   78.9467   19.0995 H   0  0  0  0  0  0  0  0  0  0  0  0
   18.7193   80.0058   20.1037 H   0  0  0  0  0  0  0  0  0  0  0  0
   19.7637   77.8453   20.1617 H   0  0  0  0  0  0  0  0  0  0  0  0
   20.8076   79.0079   19.6874 H   0  0  0  0  0  0  0  0  0  0  0  0
   20.9990   77.1702   18.2236 H   0  0  0  0  0  0  0  0  0  0  0  0
   19.3937   77.2147   17.9274 H   0  0  0  0  0  0  0  0  0  0  0  0
   20.4907   71.8768   13.5791 H   0  0  0  0  0  0  0  0  0  0  0  0
   18.8399   70.3900   12.6795 H   0  0  0  0  0  0  0  0  0  0  0  0
   16.0689   73.4788   12.6914 H   0  0  0  0  0  0  0  0  0  0  0  0
   21.6627   77.4882   11.8434 H   0  0  0  0  0  0  0  0  0  0  0  0
   22.3380   80.8307   15.2283 H   0  0  0  0  0  0  0  0  0  0  0  0
   22.5023   81.4112   12.9078 H   0  0  0  0  0  0  0  0  0  0  0  0
   23.0485   78.7858   17.9346 H   0  0  0  0  0  0  0  0  0  0  0  0
   22.9127   77.2085   17.5342 H   0  0  0  0  0  0  0  0  0  0  0  0
   24.1818   78.7345   15.5040 H   0  0  0  0  0  0  0  0  0  0  0  0
   17.7232   74.9635   13.5897 H   0  0  0  0  0  0  0  0  0  0  0  0
   15.4157   71.3880   11.9283 H   0  0  0  0  0  0  0  0  0  0  0  0
   16.5813   70.5362   11.1650 H   0  0  0  0  0  0  0  0  0  0  0  0
   16.1289   70.1255   12.6794 H   0  0  0  0  0  0  0  0  0  0  0  0
   22.9901   80.3885   10.4150 H   0  0  0  0  0  0  0  0  0  0  0  0
   21.3136   77.9297   10.2518 H   0  0  0  0  0  0  0  0  0  0  0  0
   22.0752   78.5883    8.9661 H   0  0  0  0  0  0  0  0  0  0  0  0
   20.8085   80.7094    9.2895 H   0  0  0  0  0  0  0  0  0  0  0  0
   21.9099   76.1389   15.0486 H   0  0  0  0  0  0  0  0  0  0  0  0
   20.8110   74.1489   14.9779 H   0  0  0  0  0  0  0  0  0  0  0  0
  1 22  1  0  0  0  0
  2 22  1  0  0  0  0
  3  4  1  0  0  0  0
  3  8  1  0  0  0  0
  3 29  1  0  0  0  0
  4  5  1  0  0  0  0
  5  6  1  0  0  0  0
  6  7  1  0  0  0  0
  7  8  1  0  0  0  0
  9 30  1  0  0  0  0
  9 31  1  0  0  0  0
  9 32  2  0  0  0  0
 10 11  2  0  0  0  0
 10 23  1  0  0  0  0
 10 31  1  0  0  0  0
 11 12  1  0  0  0  0
 12 13  2  0  0  0  0
 13 14  1  0  0  0  0
 13 24  1  0  0  0  0
 14 23  2  0  0  0  0
 15 16  1  0  0  0  0
 15 20  2  0  0  0  0
 15 25  1  0  0  0  0
 16 17  2  0  0  0  0
 17 18  1  0  0  0  0
 17 30  1  0  0  0  0
 18 19  2  0  0  0  0
 18 29  1  0  0  0  0
 19 20  1  0  0  0  0
 21 22  1  0  0  0  0
 21 29  1  0  0  0  0
 25 26  1  0  0  0  0
 25 27  1  0  0  0  0
 26 27  1  0  0  0  0
 27 28  1  0  0  0  0
 28 33  2  0  0  0  0
 28 34  1  0  0  0  0
  1 35  1  0  0  0  0
  1 36  1  0  0  0  0
  1 37  1  0  0  0  0
  2 38  1  0  0  0  0
  2 39  1  0  0  0  0
  2 40  1  0  0  0  0
  3 41  1  0  0  0  0
  4 42  1  0  0  0  0
  4 43  1  0  0  0  0
  5 44  1  0  0  0  0
  5 45  1  0  0  0  0
  6 46  1  0  0  0  0
  6 47  1  0  0  0  0
  7 48  1  0  0  0  0
  7 49  1  0  0  0  0
  8 50  1  0  0  0  0
  8 51  1  0  0  0  0
 11 52  1  0  0  0  0
 12 53  1  0  0  0  0
 14 54  1  0  0  0  0
 16 55  1  0  0  0  0
 19 56  1  0  0  0  0
 20 57  1  0  0  0  0
 21 58  1  0  0  0  0
 21 59  1  0  0  0  0
 22 60  1  0  0  0  0
 23 61  1  0  0  0  0
 24 62  1  0  0  0  0
 24 63  1  0  0  0  0
 24 64  1  0  0  0  0
 25 65  1  0  0  0  0
 26 66  1  0  0  0  0
 26 67  1  0  0  0  0
 27 68  1  0  0  0  0
 30 69  1  0  0  0  0
 31 70  1  0  0  0  0
M  CHG  1  34  -1
M  END
> <BIOSOLVEIT.HYDE_ESTIMATED_AFFINITY_LOWER_BOUNDARY [nM]>
0.000000

> <BIOSOLVEIT.HYDE_ESTIMATED_AFFINITY_UPPER_BOUNDARY [nM]>
0.001000

> <BIOSOLVEIT.HYDE_LIGAND_EFFICIENCY range: ++, +, 0, -, -->
++

> <BIOSOLVEIT.HYDE_LIGAND_LIPOPHILIC_EFFICIENCY range: ++, +, 0, -, -->
++

> <BIOSOLVEIT.LOGP>
5.28752

> <BIOSOLVEIT.MOLECULAR WEIGHT>
462.61

> <BIOSOLVEIT.MOLECULE_CHECKSUM>
LTg3LjgzMTM7Mi41ODMyNw==

> <BIOSOLVEIT.TPSA>
84.5

> <OPTIBRIUM.BBB category>
-

> <OPTIBRIUM.PPB90 category>
high

> <OPTIBRIUM.2C9 pKi>
5.44318

> <OPTIBRIUM.logS @ pH7.4>
1.06418

> <OPTIBRIUM.BBB log([brain]:[blood])>
-1.05937

> <OPTIBRIUM.2D6 affinity category>
very high

> <OPTIBRIUM.logS>
-0.0360883

> <OPTIBRIUM.logD>
2.62209

> <OPTIBRIUM.hERG pIC50>
5.44703

> <OPTIBRIUM.logP>
5.98503

> <OPTIBRIUM.HIA category>
+

> <OPTIBRIUM.P-gp category>
yes

$$$$
HQM_C_501_1_003
joSeeSAR  03092212483D 1   1.00000     0.00000     0
SeeSAR 11.2.2 jonathanwahrer
 70 73  0  0  0  0            999 V2000
   25.5668   78.9069   17.0626 C   0  0  0  0  0  0  0  0  0  0  0  0
   24.9297   76.7102   15.8802 C   0  0  0  0  0  0  0  0  0  0  0  0
   20.6742   78.8149   16.9817 C   0  0  0  0  0  0  0  0  0  0  0  0
   20.6020   80.3016   17.2953 C   0  0  0  0  0  0  0  0  0  0  0  0
   19.2182   80.6603   17.8139 C   0  0  0  0  0  0  0  0  0  0  0  0
   18.5829   79.4866   18.5428 C   0  0  0  0  0  0  0  0  0  0  0  0
   19.6454   78.6649   19.2566 C   0  0  0  0  0  0  0  0  0  0  0  0
   20.5929   78.0058   18.2646 C   0  0  0  0  0  0  0  0  0  0  0  0
   20.4556   75.7659   13.5701 C   0  0  0  0  0  0  0  0  0  0  0  0
   19.2315   73.5847   13.6554 C   0  0  0  0  0  0  0  0  0  0  0  0
   19.5362   72.2514   13.4002 C   0  0  0  0  0  0  0  0  0  0  0  0
   18.5609   71.4003   12.8915 C   0  0  0  0  0  0  0  0  0  0  0  0
   17.2865   71.8994   12.6453 C   0  0  0  0  0  0  0  0  0  0  0  0
   16.9768   73.2317   12.8992 C   0  0  0  0  0  0  0  0  0  0  0  0
   22.1400   79.5014   12.1480 C   0  0  0  0  0  0  0  0  0  0  0  0
   21.8277   78.1937   12.5047 C   0  0  0  0  0  0  0  0  0  0  0  0
   21.7765   77.8641   13.8549 C   0  0  0  0  0  0  0  0  0  0  0  0
   22.0331   78.8256   14.8265 C   0  0  0  0  0  0  0  0  0  0  0  0
   22.3445   80.1323   14.4649 C   0  0  0  0  0  0  0  0  0  0  0  0
   22.3970   80.4676   13.1157 C   0  0  0  0  0  0  0  0  0  0  0  0
   23.1941   78.0460   17.0661 C   0  0  0  0  0  0  0  0  0  0  0  0
   24.5022   78.1450   16.2073 C   0  0  0  0  0  0  0  0  0  0  0  0
   17.9552   74.0798   13.4075 C   0  0  0  0  0  0  0  0  0  0  0  0
   16.2111   70.9795   12.0908 C   0  0  0  0  0  0  0  0  0  0  0  0
   22.1967   79.8678   10.6744 C   0  0  1  0  0  0  0  0  0  0  0  0
   21.6266   78.7822    9.8096 C   0  0  0  0  0  0  0  0  0  0  0  0
   20.8514   80.0522   10.0294 C   0  0  1  0  0  0  0  0  0  0  0  0
   19.6766   79.8300   10.9691 C   0  0  0  0  0  0  0  0  0  0  0  0
   21.9743   78.4589   16.2790 N   0  0  0  0  0  0  0  0  0  0  0  0
   21.4660   76.5557   14.2432 N   0  0  0  0  0  0  0  0  0  0  0  0
   20.2635   74.4649   14.1877 N   0  0  0  0  0  0  0  0  0  0  0  0
   19.8328   76.1922   12.6455 O   0  0  0  0  0  0  0  0  0  0  0  0
   19.1344   78.6921   11.0989 O   0  0  0  0  0  0  0  0  0  0  0  0
   19.2327   80.8053   11.6262 O   0  5  0  0  0  0  0  0  0  0  0  0
   25.2429   79.8344   17.2490 H   0  0  0  0  0  0  0  0  0  0  0  0
   25.7085   78.4234   17.9264 H   0  0  0  0  0  0  0  0  0  0  0  0
   26.4299   78.9500   16.5593 H   0  0  0  0  0  0  0  0  0  0  0  0
   24.2190   76.2668   15.3343 H   0  0  0  0  0  0  0  0  0  0  0  0
   25.7854   76.7272   15.3629 H   0  0  0  0  0  0  0  0  0  0  0  0
   25.0641   76.2005   16.7300 H   0  0  0  0  0  0  0  0  0  0  0  0
   19.9059   78.5683   16.3910 H   0  0  0  0  0  0  0  0  0  0  0  0
   20.7892   80.8245   16.4637 H   0  0  0  0  0  0  0  0  0  0  0  0
   21.2844   80.5263   17.9910 H   0  0  0  0  0  0  0  0  0  0  0  0
   18.6371   80.9180   17.0419 H   0  0  0  0  0  0  0  0  0  0  0  0
   19.2962   81.4324   18.4447 H   0  0  0  0  0  0  0  0  0  0  0  0
   18.1076   78.9065   17.8813 H   0  0  0  0  0  0  0  0  0  0  0  0
   17.9276   79.8320   19.2146 H   0  0  0  0  0  0  0  0  0  0  0  0
   19.1976   77.9551   19.8005 H   0  0  0  0  0  0  0  0  0  0  0  0
   20.1709   79.2650   19.8597 H   0  0  0  0  0  0  0  0  0  0  0  0
   21.5039   77.9440   18.6721 H   0  0  0  0  0  0  0  0  0  0  0  0
   20.2594   77.0871   18.0528 H   0  0  0  0  0  0  0  0  0  0  0  0
   20.4565   71.9051   13.5824 H   0  0  0  0  0  0  0  0  0  0  0  0
   18.7734   70.4411   12.7052 H   0  0  0  0  0  0  0  0  0  0  0  0
   16.0562   73.5775   12.7175 H   0  0  0  0  0  0  0  0  0  0  0  0
   21.6437   77.5042   11.8042 H   0  0  0  0  0  0  0  0  0  0  0  0
   22.5282   80.8216   15.1657 H   0  0  0  0  0  0  0  0  0  0  0  0
   22.6193   81.4031   12.8413 H   0  0  0  0  0  0  0  0  0  0  0  0
   23.2835   78.6444   17.8622 H   0  0  0  0  0  0  0  0  0  0  0  0
   23.0779   77.1007   17.3711 H   0  0  0  0  0  0  0  0  0  0  0  0
   24.3190   78.6479   15.3626 H   0  0  0  0  0  0  0  0  0  0  0  0
   17.7427   75.0391   13.5934 H   0  0  0  0  0  0  0  0  0  0  0  0
   15.3612   71.4933   11.9733 H   0  0  0  0  0  0  0  0  0  0  0  0
   16.5061   70.6165   11.2069 H   0  0  0  0  0  0  0  0  0  0  0  0
   16.0583   70.2236   12.7274 H   0  0  0  0  0  0  0  0  0  0  0  0
   22.9734   80.3995   10.3364 H   0  0  0  0  0  0  0  0  0  0  0  0
   21.3129   77.9271   10.2225 H   0  0  0  0  0  0  0  0  0  0  0  0
   22.0308   78.5917    8.9149 H   0  0  0  0  0  0  0  0  0  0  0  0
   20.7569   80.7025    9.2758 H   0  0  0  0  0  0  0  0  0  0  0  0
   21.9598   76.1516   15.0132 H   0  0  0  0  0  0  0  0  0  0  0  0
   20.8281   74.1794   14.9622 H   0  0  0  0  0  0  0  0  0  0  0  0
  1 22  1  0  0  0  0
  2 22  1  0  0  0  0
  3  4  1  0  0  0  0
  3  8  1  0  0  0  0
  3 29  1  0  0  0  0
  4  5  1  0  0  0  0
  5  6  1  0  0  0  0
  6  7  1  0  0  0  0
  7  8  1  0  0  0  0
  9 30  1  0  0  0  0
  9 31  1  0  0  0  0
  9 32  2  0  0  0  0
 10 11  2  0  0  0  0
 10 23  1  0  0  0  0
 10 31  1  0  0  0  0
 11 12  1  0  0  0  0
 12 13  2  0  0  0  0
 13 14  1  0  0  0  0
 13 24  1  0  0  0  0
 14 23  2  0  0  0  0
 15 16  1  0  0  0  0
 15 20  2  0  0  0  0
 15 25  1  0  0  0  0
 16 17  2  0  0  0  0
 17 18  1  0  0  0  0
 17 30  1  0  0  0  0
 18 19  2  0  0  0  0
 18 29  1  0  0  0  0
 19 20  1  0  0  0  0
 21 22  1  0  0  0  0
 21 29  1  0  0  0  0
 25 26  1  0  0  0  0
 25 27  1  0  0  0  0
 26 27  1  0  0  0  0
 27 28  1  0  0  0  0
 28 33  2  0  0  0  0
 28 34  1  0  0  0  0
  1 35  1  0  0  0  0
  1 36  1  0  0  0  0
  1 37  1  0  0  0  0
  2 38  1  0  0  0  0
  2 39  1  0  0  0  0
  2 40  1  0  0  0  0
  3 41  1  0  0  0  0
  4 42  1  0  0  0  0
  4 43  1  0  0  0  0
  5 44  1  0  0  0  0
  5 45  1  0  0  0  0
  6 46  1  0  0  0  0
  6 47  1  0  0  0  0
  7 48  1  0  0  0  0
  7 49  1  0  0  0  0
  8 50  1  0  0  0  0
  8 51  1  0  0  0  0
 11 52  1  0  0  0  0
 12 53  1  0  0  0  0
 14 54  1  0  0  0  0
 16 55  1  0  0  0  0
 19 56  1  0  0  0  0
 20 57  1  0  0  0  0
 21 58  1  0  0  0  0
 21 59  1  0  0  0  0
 22 60  1  0  0  0  0
 23 61  1  0  0  0  0
 24 62  1  0  0  0  0
 24 63  1  0  0  0  0
 24 64  1  0  0  0  0
 25 65  1  0  0  0  0
 26 66  1  0  0  0  0
 26 67  1  0  0  0  0
 27 68  1  0  0  0  0
 30 69  1  0  0  0  0
 31 70  1  0  0  0  0
M  CHG  1  34  -1
M  END
> <BIOSOLVEIT.HYDE_ESTIMATED_AFFINITY_LOWER_BOUNDARY [nM]>
0.000000

> <BIOSOLVEIT.HYDE_ESTIMATED_AFFINITY_UPPER_BOUNDARY [nM]>
0.001000

> <BIOSOLVEIT.HYDE_LIGAND_EFFICIENCY range: ++, +, 0, -, -->
++

> <BIOSOLVEIT.HYDE_LIGAND_LIPOPHILIC_EFFICIENCY range: ++, +, 0, -, -->
++

> <BIOSOLVEIT.LOGP>
5.28752

> <BIOSOLVEIT.MOLECULAR WEIGHT>
462.61

> <BIOSOLVEIT.MOLECULE_CHECKSUM>
LTg3LjE1MjsyLjU2MzI5

> <BIOSOLVEIT.TPSA>
84.5

> <OPTIBRIUM.BBB category>
-

> <OPTIBRIUM.PPB90 category>
high

> <OPTIBRIUM.2C9 pKi>
5.44318

> <OPTIBRIUM.logS @ pH7.4>
1.06418

> <OPTIBRIUM.BBB log([brain]:[blood])>
-1.05937

> <OPTIBRIUM.2D6 affinity category>
very high

> <OPTIBRIUM.logS>
-0.0360883

> <OPTIBRIUM.logD>
2.62209

> <OPTIBRIUM.hERG pIC50>
5.44703

> <OPTIBRIUM.logP>
5.98503

> <OPTIBRIUM.HIA category>
+

> <OPTIBRIUM.P-gp category>
yes

$$$$
HQM_C_501_1_004
joSeeSAR  03092212483D 1   1.00000     0.00000     0
SeeSAR 11.2.2 jonathanwahrer
 70 73  0  0  0  0            999 V2000
   25.5625   78.9034   17.0739 C   0  0  0  0  0  0  0  0  0  0  0  0
   24.9286   76.7101   15.8836 C   0  0  0  0  0  0  0  0  0  0  0  0
   20.6714   78.8127   16.9866 C   0  0  0  0  0  0  0  0  0  0  0  0
   20.6247   78.0523   18.3044 C   0  0  0  0  0  0  0  0  0  0  0  0
   19.6677   78.7350   19.2739 C   0  0  0  0  0  0  0  0  0  0  0  0
   18.5771   79.5072   18.5434 C   0  0  0  0  0  0  0  0  0  0  0  0
   19.2007   80.6617   17.7737 C   0  0  0  0  0  0  0  0  0  0  0  0
   20.5882   80.3059   17.2593 C   0  0  0  0  0  0  0  0  0  0  0  0
   20.4554   75.7658   13.5720 C   0  0  0  0  0  0  0  0  0  0  0  0
   19.2316   73.5844   13.6547 C   0  0  0  0  0  0  0  0  0  0  0  0
   19.5360   72.2512   13.3987 C   0  0  0  0  0  0  0  0  0  0  0  0
   18.5606   71.4007   12.8893 C   0  0  0  0  0  0  0  0  0  0  0  0
   17.2864   71.9003   12.6429 C   0  0  0  0  0  0  0  0  0  0  0  0
   16.9770   73.2325   12.8976 C   0  0  0  0  0  0  0  0  0  0  0  0
   22.1404   79.5033   12.1545 C   0  0  0  0  0  0  0  0  0  0  0  0
   21.8285   78.1950   12.5095 C   0  0  0  0  0  0  0  0  0  0  0  0
   21.7761   77.8639   13.8592 C   0  0  0  0  0  0  0  0  0  0  0  0
   22.0314   78.8243   14.8322 C   0  0  0  0  0  0  0  0  0  0  0  0
   22.3424   80.1317   14.4723 C   0  0  0  0  0  0  0  0  0  0  0  0
   22.3960   80.4685   13.1236 C   0  0  0  0  0  0  0  0  0  0  0  0
   23.1904   78.0408   17.0714 C   0  0  0  0  0  0  0  0  0  0  0  0
   24.4996   78.1434   16.2147 C   0  0  0  0  0  0  0  0  0  0  0  0
   17.9556   74.0800   13.4068 C   0  0  0  0  0  0  0  0  0  0  0  0
   16.2108   70.9811   12.0876 C   0  0  0  0  0  0  0  0  0  0  0  0
   22.1982   79.8714   10.6814 C   0  0  1  0  0  0  0  0  0  0  0  0
   21.6304   78.7860    9.8148 C   0  0  0  0  0  0  0  0  0  0  0  0
   20.8534   80.0548   10.0352 C   0  0  1  0  0  0  0  0  0  0  0  0
   19.6779   79.8302   10.9734 C   0  0  0  0  0  0  0  0  0  0  0  0
   21.9715   78.4560   16.2842 N   0  0  0  0  0  0  0  0  0  0  0  0
   21.4660   76.5549   14.2458 N   0  0  0  0  0  0  0  0  0  0  0  0
   20.2637   74.4640   14.1878 N   0  0  0  0  0  0  0  0  0  0  0  0
   19.8322   76.1935   12.6483 O   0  0  0  0  0  0  0  0  0  0  0  0
   19.1383   78.6910   11.1029 O   0  0  0  0  0  0  0  0  0  0  0  0
   19.2307   80.8046   11.6294 O   0  5  0  0  0  0  0  0  0  0  0  0
   25.2377   79.8301   17.2627 H   0  0  0  0  0  0  0  0  0  0  0  0
   25.7034   78.4173   17.9362 H   0  0  0  0  0  0  0  0  0  0  0  0
   26.4262   78.9488   16.5719 H   0  0  0  0  0  0  0  0  0  0  0  0
   24.2189   76.2679   15.3353 H   0  0  0  0  0  0  0  0  0  0  0  0
   25.7850   76.7293   15.3675 H   0  0  0  0  0  0  0  0  0  0  0  0
   25.0622   76.1977   16.7319 H   0  0  0  0  0  0  0  0  0  0  0  0
   19.8985   78.5357   16.4156 H   0  0  0  0  0  0  0  0  0  0  0  0
   21.5406   78.0301   18.7053 H   0  0  0  0  0  0  0  0  0  0  0  0
   20.3121   77.1176   18.1352 H   0  0  0  0  0  0  0  0  0  0  0  0
   20.1858   79.3705   19.8465 H   0  0  0  0  0  0  0  0  0  0  0  0
   19.2403   78.0390   19.8507 H   0  0  0  0  0  0  0  0  0  0  0  0
   17.9207   79.8653   19.2073 H   0  0  0  0  0  0  0  0  0  0  0  0
   18.1071   78.8970   17.9057 H   0  0  0  0  0  0  0  0  0  0  0  0
   19.2723   81.4545   18.3790 H   0  0  0  0  0  0  0  0  0  0  0  0
   18.6142   80.8880   16.9960 H   0  0  0  0  0  0  0  0  0  0  0  0
   20.7671   80.8080   16.4132 H   0  0  0  0  0  0  0  0  0  0  0  0
   21.2707   80.5561   17.9459 H   0  0  0  0  0  0  0  0  0  0  0  0
   20.4561   71.9045   13.5810 H   0  0  0  0  0  0  0  0  0  0  0  0
   18.7728   70.4416   12.7024 H   0  0  0  0  0  0  0  0  0  0  0  0
   16.0566   73.5787   12.7159 H   0  0  0  0  0  0  0  0  0  0  0  0
   21.6454   77.5062   11.8081 H   0  0  0  0  0  0  0  0  0  0  0  0
   22.5252   80.8203   15.1740 H   0  0  0  0  0  0  0  0  0  0  0  0
   22.6181   81.4044   12.8504 H   0  0  0  0  0  0  0  0  0  0  0  0
   23.2785   78.6364   17.8698 H   0  0  0  0  0  0  0  0  0  0  0  0
   23.0742   77.0943   17.3728 H   0  0  0  0  0  0  0  0  0  0  0  0
   24.3171   78.6489   15.3714 H   0  0  0  0  0  0  0  0  0  0  0  0
   17.7433   75.0393   13.5932 H   0  0  0  0  0  0  0  0  0  0  0  0
   15.3611   71.4952   11.9702 H   0  0  0  0  0  0  0  0  0  0  0  0
   16.5060   70.6186   11.2036 H   0  0  0  0  0  0  0  0  0  0  0  0
   16.0577   70.2248   12.7237 H   0  0  0  0  0  0  0  0  0  0  0  0
   22.9746   80.4043   10.3448 H   0  0  0  0  0  0  0  0  0  0  0  0
   21.3172   77.9301   10.2264 H   0  0  0  0  0  0  0  0  0  0  0  0
   22.0357   78.5970    8.9203 H   0  0  0  0  0  0  0  0  0  0  0  0
   20.7590   80.7058    9.2821 H   0  0  0  0  0  0  0  0  0  0  0  0
   21.9602   76.1497   15.0150 H   0  0  0  0  0  0  0  0  0  0  0  0
   20.8287   74.1775   14.9616 H   0  0  0  0  0  0  0  0  0  0  0  0
  1 22  1  0  0  0  0
  2 22  1  0  0  0  0
  3  4  1  0  0  0  0
  3  8  1  0  0  0  0
  3 29  1  0  0  0  0
  4  5  1  0  0  0  0
  5  6  1  0  0  0  0
  6  7  1  0  0  0  0
  7  8  1  0  0  0  0
  9 30  1  0  0  0  0
  9 31  1  0  0  0  0
  9 32  2  0  0  0  0
 10 11  2  0  0  0  0
 10 23  1  0  0  0  0
 10 31  1  0  0  0  0
 11 12  1  0  0  0  0
 12 13  2  0  0  0  0
 13 14  1  0  0  0  0
 13 24  1  0  0  0  0
 14 23  2  0  0  0  0
 15 16  1  0  0  0  0
 15 20  2  0  0  0  0
 15 25  1  0  0  0  0
 16 17  2  0  0  0  0
 17 18  1  0  0  0  0
 17 30  1  0  0  0  0
 18 19  2  0  0  0  0
 18 29  1  0  0  0  0
 19 20  1  0  0  0  0
 21 22  1  0  0  0  0
 21 29  1  0  0  0  0
 25 26  1  0  0  0  0
 25 27  1  0  0  0  0
 26 27  1  0  0  0  0
 27 28  1  0  0  0  0
 28 33  2  0  0  0  0
 28 34  1  0  0  0  0
  1 35  1  0  0  0  0
  1 36  1  0  0  0  0
  1 37  1  0  0  0  0
  2 38  1  0  0  0  0
  2 39  1  0  0  0  0
  2 40  1  0  0  0  0
  3 41  1  0  0  0  0
  4 42  1  0  0  0  0
  4 43  1  0  0  0  0
  5 44  1  0  0  0  0
  5 45  1  0  0  0  0
  6 46  1  0  0  0  0
  6 47  1  0  0  0  0
  7 48  1  0  0  0  0
  7 49  1  0  0  0  0
  8 50  1  0  0  0  0
  8 51  1  0  0  0  0
 11 52  1  0  0  0  0
 12 53  1  0  0  0  0
 14 54  1  0  0  0  0
 16 55  1  0  0  0  0
 19 56  1  0  0  0  0
 20 57  1  0  0  0  0
 21 58  1  0  0  0  0
 21 59  1  0  0  0  0
 22 60  1  0  0  0  0
 23 61  1  0  0  0  0
 24 62  1  0  0  0  0
 24 63  1  0  0  0  0
 24 64  1  0  0  0  0
 25 65  1  0  0  0  0
 26 66  1  0  0  0  0
 26 67  1  0  0  0  0
 27 68  1  0  0  0  0
 30 69  1  0  0  0  0
 31 70  1  0  0  0  0
M  CHG  1  34  -1
M  END
> <BIOSOLVEIT.HYDE_ESTIMATED_AFFINITY_LOWER_BOUNDARY [nM]>
0.000000

> <BIOSOLVEIT.HYDE_ESTIMATED_AFFINITY_UPPER_BOUNDARY [nM]>
0.001000

> <BIOSOLVEIT.HYDE_LIGAND_EFFICIENCY range: ++, +, 0, -, -->
++

> <BIOSOLVEIT.HYDE_LIGAND_LIPOPHILIC_EFFICIENCY range: ++, +, 0, -, -->
++

> <BIOSOLVEIT.LOGP>
5.28752

> <BIOSOLVEIT.MOLECULAR WEIGHT>
462.61

> <BIOSOLVEIT.MOLECULE_CHECKSUM>
LTg3LjI4ODsyLjU2NzI5

> <BIOSOLVEIT.TPSA>
84.5

> <OPTIBRIUM.BBB category>
-

> <OPTIBRIUM.PPB90 category>
high

> <OPTIBRIUM.2C9 pKi>
5.44318

> <OPTIBRIUM.logS @ pH7.4>
1.06418

> <OPTIBRIUM.BBB log([brain]:[blood])>
-1.05937

> <OPTIBRIUM.2D6 affinity category>
very high

> <OPTIBRIUM.logS>
-0.0360883

> <OPTIBRIUM.logD>
2.62209

> <OPTIBRIUM.hERG pIC50>
5.44703

> <OPTIBRIUM.logP>
5.98503

> <OPTIBRIUM.HIA category>
+

> <OPTIBRIUM.P-gp category>
yes

$$$$
HQM_C_501_1_005
joSeeSAR  03092212483D 1   1.00000     0.00000     0
SeeSAR 11.2.2 jonathanwahrer
 70 73  0  0  0  0            999 V2000
   18.6259   79.7748   17.8097 C   0  0  0  0  0  0  0  0  0  0  0  0
   21.0190   79.7630   18.7596 C   0  0  0  0  0  0  0  0  0  0  0  0
   23.1010   78.1861   16.5273 C   0  0  0  0  0  0  0  0  0  0  0  0
   23.9202   77.4787   15.4600 C   0  0  0  0  0  0  0  0  0  0  0  0
   25.2594   77.0798   16.0637 C   0  0  0  0  0  0  0  0  0  0  0  0
   26.0089   78.2741   16.6320 C   0  0  0  0  0  0  0  0  0  0  0  0
   25.2144   79.5639   16.5118 C   0  0  0  0  0  0  0  0  0  0  0  0
   23.8336   79.3806   17.1198 C   0  0  0  0  0  0  0  0  0  0  0  0
   20.1758   75.8047   13.3792 C   0  0  0  0  0  0  0  0  0  0  0  0
   18.9106   73.6498   13.5162 C   0  0  0  0  0  0  0  0  0  0  0  0
   19.2890   72.3499   13.1963 C   0  0  0  0  0  0  0  0  0  0  0  0
   18.3587   71.4677   12.6569 C   0  0  0  0  0  0  0  0  0  0  0  0
   17.0550   71.9025   12.4452 C   0  0  0  0  0  0  0  0  0  0  0  0
   16.6716   73.2012   12.7640 C   0  0  0  0  0  0  0  0  0  0  0  0
   21.9122   79.4334   11.8300 C   0  0  0  0  0  0  0  0  0  0  0  0
   21.5364   78.1651   12.2601 C   0  0  0  0  0  0  0  0  0  0  0  0
   21.4965   77.9079   13.6263 C   0  0  0  0  0  0  0  0  0  0  0  0
   21.8269   78.9016   14.5415 C   0  0  0  0  0  0  0  0  0  0  0  0
   22.2017   80.1687   14.1067 C   0  0  0  0  0  0  0  0  0  0  0  0
   22.2430   80.4314   12.7411 C   0  0  0  0  0  0  0  0  0  0  0  0
   20.4882   78.4999   16.6797 C   0  0  0  0  0  0  0  0  0  0  0  0
   20.1571   79.7988   17.4929 C   0  0  0  0  0  0  0  0  0  0  0  0
   17.6051   74.0807   13.3028 C   0  0  0  0  0  0  0  0  0  0  0  0
   16.0282   70.9480   11.8578 C   0  0  0  0  0  0  0  0  0  0  0  0
   21.9567   79.7208   10.3380 C   0  0  1  0  0  0  0  0  0  0  0  0
   21.2685   78.6488    9.5450 C   0  0  0  0  0  0  0  0  0  0  0  0
   20.6141   79.9919    9.7189 C   0  0  1  0  0  0  0  0  0  0  0  0
   19.4390   79.9204   10.7099 C   0  0  0  0  0  0  0  0  0  0  0  0
   21.7829   78.6320   15.9154 N   0  0  0  0  0  0  0  0  0  0  0  0
   21.1232   76.6403   14.0879 N   0  0  0  0  0  0  0  0  0  0  0  0
   19.8960   74.5632   14.0801 N   0  0  0  0  0  0  0  0  0  0  0  0
   19.6625   76.1558   12.3606 O   0  0  0  0  0  0  0  0  0  0  0  0
   18.7673   78.8579   10.8698 O   0  0  0  0  0  0  0  0  0  0  0  0
   19.1389   80.9471   11.3700 O   0  5  0  0  0  0  0  0  0  0  0  0
   18.1081   79.7995   16.9546 H   0  0  0  0  0  0  0  0  0  0  0  0
   18.4022   78.9388   18.3108 H   0  0  0  0  0  0  0  0  0  0  0  0
   18.3881   80.5707   18.3665 H   0  0  0  0  0  0  0  0  0  0  0  0
   21.9860   79.7801   18.5054 H   0  0  0  0  0  0  0  0  0  0  0  0
   20.8096   80.5589   19.3278 H   0  0  0  0  0  0  0  0  0  0  0  0
   20.8237   78.9268   19.2721 H   0  0  0  0  0  0  0  0  0  0  0  0
   22.9067   77.5360   17.2619 H   0  0  0  0  0  0  0  0  0  0  0  0
   24.0692   78.0943   14.6860 H   0  0  0  0  0  0  0  0  0  0  0  0
   23.4343   76.6623   15.1479 H   0  0  0  0  0  0  0  0  0  0  0  0
   25.8202   76.6557   15.3525 H   0  0  0  0  0  0  0  0  0  0  0  0
   25.0984   76.4207   16.7983 H   0  0  0  0  0  0  0  0  0  0  0  0
   26.8702   78.3794   16.1350 H   0  0  0  0  0  0  0  0  0  0  0  0
   26.2005   78.1032   17.5985 H   0  0  0  0  0  0  0  0  0  0  0  0
   25.1218   79.8073   15.5463 H   0  0  0  0  0  0  0  0  0  0  0  0
   25.6950   80.2955   16.9954 H   0  0  0  0  0  0  0  0  0  0  0  0
   23.9311   79.2427   18.1054 H   0  0  0  0  0  0  0  0  0  0  0  0
   23.2947   80.2058   16.9504 H   0  0  0  0  0  0  0  0  0  0  0  0
   20.2298   72.0498   13.3540 H   0  0  0  0  0  0  0  0  0  0  0  0
   18.6243   70.5322   12.4241 H   0  0  0  0  0  0  0  0  0  0  0  0
   15.7306   73.5008   12.6066 H   0  0  0  0  0  0  0  0  0  0  0  0
   21.2994   77.4522   11.6000 H   0  0  0  0  0  0  0  0  0  0  0  0
   22.4384   80.8814   14.7670 H   0  0  0  0  0  0  0  0  0  0  0  0
   22.5105   81.3379   12.4143 H   0  0  0  0  0  0  0  0  0  0  0  0
   19.7464   78.3254   16.0321 H   0  0  0  0  0  0  0  0  0  0  0  0
   20.5641   77.7310   17.3145 H   0  0  0  0  0  0  0  0  0  0  0  0
   20.3810   80.6083   16.9501 H   0  0  0  0  0  0  0  0  0  0  0  0
   17.3395   75.0164   13.5352 H   0  0  0  0  0  0  0  0  0  0  0  0
   15.1488   71.4162   11.7718 H   0  0  0  0  0  0  0  0  0  0  0  0
   16.3337   70.6441   10.9554 H   0  0  0  0  0  0  0  0  0  0  0  0
   15.9267   70.1560   12.4597 H   0  0  0  0  0  0  0  0  0  0  0  0
   22.7664   80.1641    9.9535 H   0  0  0  0  0  0  0  0  0  0  0  0
   20.8937   77.8463   10.0091 H   0  0  0  0  0  0  0  0  0  0  0  0
   21.6277   78.3797    8.6513 H   0  0  0  0  0  0  0  0  0  0  0  0
   20.5543   80.6104    8.9353 H   0  0  0  0  0  0  0  0  0  0  0  0
   21.5252   76.2993   14.9377 H   0  0  0  0  0  0  0  0  0  0  0  0
   20.3699   74.3402   14.9319 H   0  0  0  0  0  0  0  0  0  0  0  0
  1 22  1  0  0  0  0
  2 22  1  0  0  0  0
  3  4  1  0  0  0  0
  3  8  1  0  0  0  0
  3 29  1  0  0  0  0
  4  5  1  0  0  0  0
  5  6  1  0  0  0  0
  6  7  1  0  0  0  0
  7  8  1  0  0  0  0
  9 30  1  0  0  0  0
  9 31  1  0  0  0  0
  9 32  2  0  0  0  0
 10 11  2  0  0  0  0
 10 23  1  0  0  0  0
 10 31  1  0  0  0  0
 11 12  1  0  0  0  0
 12 13  2  0  0  0  0
 13 14  1  0  0  0  0
 13 24  1  0  0  0  0
 14 23  2  0  0  0  0
 15 16  1  0  0  0  0
 15 20  2  0  0  0  0
 15 25  1  0  0  0  0
 16 17  2  0  0  0  0
 17 18  1  0  0  0  0
 17 30  1  0  0  0  0
 18 19  2  0  0  0  0
 18 29  1  0  0  0  0
 19 20  1  0  0  0  0
 21 22  1  0  0  0  0
 21 29  1  0  0  0  0
 25 26  1  0  0  0  0
 25 27  1  0  0  0  0
 26 27  1  0  0  0  0
 27 28  1  0  0  0  0
 28 33  2  0  0  0  0
 28 34  1  0  0  0  0
  1 35  1  0  0  0  0
  1 36  1  0  0  0  0
  1 37  1  0  0  0  0
  2 38  1  0  0  0  0
  2 39  1  0  0  0  0
  2 40  1  0  0  0  0
  3 41  1  0  0  0  0
  4 42  1  0  0  0  0
  4 43  1  0  0  0  0
  5 44  1  0  0  0  0
  5 45  1  0  0  0  0
  6 46  1  0  0  0  0
  6 47  1  0  0  0  0
  7 48  1  0  0  0  0
  7 49  1  0  0  0  0
  8 50  1  0  0  0  0
  8 51  1  0  0  0  0
 11 52  1  0  0  0  0
 12 53  1  0  0  0  0
 14 54  1  0  0  0  0
 16 55  1  0  0  0  0
 19 56  1  0  0  0  0
 20 57  1  0  0  0  0
 21 58  1  0  0  0  0
 21 59  1  0  0  0  0
 22 60  1  0  0  0  0
 23 61  1  0  0  0  0
 24 62  1  0  0  0  0
 24 63  1  0  0  0  0
 24 64  1  0  0  0  0
 25 65  1  0  0  0  0
 26 66  1  0  0  0  0
 26 67  1  0  0  0  0
 27 68  1  0  0  0  0
 30 69  1  0  0  0  0
 31 70  1  0  0  0  0
M  CHG  1  34  -1
M  END
> <BIOSOLVEIT.HYDE_ESTIMATED_AFFINITY_LOWER_BOUNDARY [nM]>
0.001095

> <BIOSOLVEIT.HYDE_ESTIMATED_AFFINITY_UPPER_BOUNDARY [nM]>
0.108832

> <BIOSOLVEIT.HYDE_LIGAND_EFFICIENCY range: ++, +, 0, -, -->
+

> <BIOSOLVEIT.HYDE_LIGAND_LIPOPHILIC_EFFICIENCY range: ++, +, 0, -, -->
+

> <BIOSOLVEIT.LOGP>
5.28752

> <BIOSOLVEIT.MOLECULAR WEIGHT>
462.61

> <BIOSOLVEIT.MOLECULE_CHECKSUM>
LTYyLjU3MDM7MS44NDAz

> <BIOSOLVEIT.TPSA>
84.5

> <OPTIBRIUM.BBB category>
-

> <OPTIBRIUM.PPB90 category>
high

> <OPTIBRIUM.2C9 pKi>
5.44318

> <OPTIBRIUM.logS @ pH7.4>
1.06418

> <OPTIBRIUM.BBB log([brain]:[blood])>
-1.05937

> <OPTIBRIUM.2D6 affinity category>
very high

> <OPTIBRIUM.logS>
-0.0360883

> <OPTIBRIUM.logD>
2.62209

> <OPTIBRIUM.hERG pIC50>
5.44703

> <OPTIBRIUM.logP>
5.98503

> <OPTIBRIUM.HIA category>
+

> <OPTIBRIUM.P-gp category>
yes

$$$$
HQM_C_501_1_006
joSeeSAR  03092212483D 1   1.00000     0.00000     0
SeeSAR 11.2.2 jonathanwahrer
 70 73  0  0  0  0            999 V2000
   25.3691   79.0183   17.1521 C   0  0  0  0  0  0  0  0  0  0  0  0
   24.7852   76.7874   16.0069 C   0  0  0  0  0  0  0  0  0  0  0  0
   20.4470   78.7476   16.8805 C   0  0  0  0  0  0  0  0  0  0  0  0
   20.3892   80.1867   17.3656 C   0  0  0  0  0  0  0  0  0  0  0  0
   19.0685   80.4519   18.0709 C   0  0  0  0  0  0  0  0  0  0  0  0
   18.8218   79.4590   19.1970 C   0  0  0  0  0  0  0  0  0  0  0  0
   19.9549   78.4548   19.3472 C   0  0  0  0  0  0  0  0  0  0  0  0
   20.1707   77.7625   18.0091 C   0  0  0  0  0  0  0  0  0  0  0  0
   20.4306   75.7397   13.5989 C   0  0  0  0  0  0  0  0  0  0  0  0
   19.2399   73.5392   13.6550 C   0  0  0  0  0  0  0  0  0  0  0  0
   19.5672   72.2130   13.3906 C   0  0  0  0  0  0  0  0  0  0  0  0
   18.6091   71.3517   12.8668 C   0  0  0  0  0  0  0  0  0  0  0  0
   17.3293   71.8332   12.6144 C   0  0  0  0  0  0  0  0  0  0  0  0
   16.9971   73.1583   12.8775 C   0  0  0  0  0  0  0  0  0  0  0  0
   22.1108   79.5041   12.2237 C   0  0  0  0  0  0  0  0  0  0  0  0
   21.8171   78.1883   12.5663 C   0  0  0  0  0  0  0  0  0  0  0  0
   21.7165   77.8555   13.9128 C   0  0  0  0  0  0  0  0  0  0  0  0
   21.9065   78.8216   14.8950 C   0  0  0  0  0  0  0  0  0  0  0  0
   22.1995   80.1365   14.5475 C   0  0  0  0  0  0  0  0  0  0  0  0
   22.3010   80.4751   13.2019 C   0  0  0  0  0  0  0  0  0  0  0  0
   23.0029   78.1414   17.0995 C   0  0  0  0  0  0  0  0  0  0  0  0
   24.3382   78.2272   16.2821 C   0  0  0  0  0  0  0  0  0  0  0  0
   17.9582   74.0168   13.4010 C   0  0  0  0  0  0  0  0  0  0  0  0
   16.2724   70.9020   12.0433 C   0  0  0  0  0  0  0  0  0  0  0  0
   22.2211   79.8742   10.7536 C   0  0  1  0  0  0  0  0  0  0  0  0
   21.6751   78.7943    9.8663 C   0  0  0  0  0  0  0  0  0  0  0  0
   20.9003   80.0684   10.0626 C   0  0  1  0  0  0  0  0  0  0  0  0
   19.6776   79.8484   10.9707 C   0  0  0  0  0  0  0  0  0  0  0  0
   21.8023   78.4758   16.2482 N   0  0  0  0  0  0  0  0  0  0  0  0
   21.4234   76.5389   14.2869 N   0  0  0  0  0  0  0  0  0  0  0  0
   20.2540   74.4304   14.2032 N   0  0  0  0  0  0  0  0  0  0  0  0
   19.8085   76.1648   12.6733 O   0  0  0  0  0  0  0  0  0  0  0  0
   19.1495   78.7049   11.1099 O   0  0  0  0  0  0  0  0  0  0  0  0
   19.1912   80.8329   11.5822 O   0  5  0  0  0  0  0  0  0  0  0  0
   25.0336   79.9482   17.3035 H   0  0  0  0  0  0  0  0  0  0  0  0
   25.4849   78.5583   18.0324 H   0  0  0  0  0  0  0  0  0  0  0  0
   26.2481   79.0545   16.6767 H   0  0  0  0  0  0  0  0  0  0  0  0
   24.0956   76.3252   15.4495 H   0  0  0  0  0  0  0  0  0  0  0  0
   25.6574   76.7970   15.5179 H   0  0  0  0  0  0  0  0  0  0  0  0
   24.8942   76.3008   16.8737 H   0  0  0  0  0  0  0  0  0  0  0  0
   19.7443   78.6253   16.1795 H   0  0  0  0  0  0  0  0  0  0  0  0
   20.4748   80.8027   16.5825 H   0  0  0  0  0  0  0  0  0  0  0  0
   21.1425   80.3507   18.0026 H   0  0  0  0  0  0  0  0  0  0  0  0
   18.3254   80.3785   17.4057 H   0  0  0  0  0  0  0  0  0  0  0  0
   19.0846   81.3764   18.4519 H   0  0  0  0  0  0  0  0  0  0  0  0
   17.9756   78.9615   19.0063 H   0  0  0  0  0  0  0  0  0  0  0  0
   18.7253   79.9642   20.0546 H   0  0  0  0  0  0  0  0  0  0  0  0
   19.7145   77.7772   20.0423 H   0  0  0  0  0  0  0  0  0  0  0  0
   20.7918   78.9295   19.6197 H   0  0  0  0  0  0  0  0  0  0  0  0
   20.9506   77.1420   18.0912 H   0  0  0  0  0  0  0  0  0  0  0  0
   19.3498   77.2380   17.7833 H   0  0  0  0  0  0  0  0  0  0  0  0
   20.4911   71.8792   13.5773 H   0  0  0  0  0  0  0  0  0  0  0  0
   18.8379   70.3974   12.6739 H   0  0  0  0  0  0  0  0  0  0  0  0
   16.0727   73.4916   12.6913 H   0  0  0  0  0  0  0  0  0  0  0  0
   21.6810   77.4953   11.8582 H   0  0  0  0  0  0  0  0  0  0  0  0
   22.3352   80.8293   15.2558 H   0  0  0  0  0  0  0  0  0  0  0  0
   22.5109   81.4164   12.9377 H   0  0  0  0  0  0  0  0  0  0  0  0
   23.0484   78.7862   17.8625 H   0  0  0  0  0  0  0  0  0  0  0  0
   22.8996   77.2120   17.4541 H   0  0  0  0  0  0  0  0  0  0  0  0
   24.1802   78.7069   15.4190 H   0  0  0  0  0  0  0  0  0  0  0  0
   17.7295   74.9712   13.5935 H   0  0  0  0  0  0  0  0  0  0  0  0
   15.4158   71.4036   11.9233 H   0  0  0  0  0  0  0  0  0  0  0  0
   16.5801   70.5513   11.1588 H   0  0  0  0  0  0  0  0  0  0  0  0
   16.1262   70.1383   12.6721 H   0  0  0  0  0  0  0  0  0  0  0  0
   23.0123   80.4019   10.4445 H   0  0  0  0  0  0  0  0  0  0  0  0
   21.3420   77.9400   10.2655 H   0  0  0  0  0  0  0  0  0  0  0  0
   22.1092   78.6037    8.9858 H   0  0  0  0  0  0  0  0  0  0  0  0
   20.8361   80.7213    9.3079 H   0  0  0  0  0  0  0  0  0  0  0  0
   21.9175   76.1355   15.0571 H   0  0  0  0  0  0  0  0  0  0  0  0
   20.8169   74.1466   14.9796 H   0  0  0  0  0  0  0  0  0  0  0  0
  1 22  1  0  0  0  0
  2 22  1  0  0  0  0
  3  4  1  0  0  0  0
  3  8  1  0  0  0  0
  3 29  1  0  0  0  0
  4  5  1  0  0  0  0
  5  6  1  0  0  0  0
  6  7  1  0  0  0  0
  7  8  1  0  0  0  0
  9 30  1  0  0  0  0
  9 31  1  0  0  0  0
  9 32  2  0  0  0  0
 10 11  2  0  0  0  0
 10 23  1  0  0  0  0
 10 31  1  0  0  0  0
 11 12  1  0  0  0  0
 12 13  2  0  0  0  0
 13 14  1  0  0  0  0
 13 24  1  0  0  0  0
 14 23  2  0  0  0  0
 15 16  1  0  0  0  0
 15 20  2  0  0  0  0
 15 25  1  0  0  0  0
 16 17  2  0  0  0  0
 17 18  1  0  0  0  0
 17 30  1  0  0  0  0
 18 19  2  0  0  0  0
 18 29  1  0  0  0  0
 19 20  1  0  0  0  0
 21 22  1  0  0  0  0
 21 29  1  0  0  0  0
 25 26  1  0  0  0  0
 25 27  1  0  0  0  0
 26 27  1  0  0  0  0
 27 28  1  0  0  0  0
 28 33  2  0  0  0  0
 28 34  1  0  0  0  0
  1 35  1  0  0  0  0
  1 36  1  0  0  0  0
  1 37  1  0  0  0  0
  2 38  1  0  0  0  0
  2 39  1  0  0  0  0
  2 40  1  0  0  0  0
  3 41  1  0  0  0  0
  4 42  1  0  0  0  0
  4 43  1  0  0  0  0
  5 44  1  0  0  0  0
  5 45  1  0  0  0  0
  6 46  1  0  0  0  0
  6 47  1  0  0  0  0
  7 48  1  0  0  0  0
  7 49  1  0  0  0  0
  8 50  1  0  0  0  0
  8 51  1  0  0  0  0
 11 52  1  0  0  0  0
 12 53  1  0  0  0  0
 14 54  1  0  0  0  0
 16 55  1  0  0  0  0
 19 56  1  0  0  0  0
 20 57  1  0  0  0  0
 21 58  1  0  0  0  0
 21 59  1  0  0  0  0
 22 60  1  0  0  0  0
 23 61  1  0  0  0  0
 24 62  1  0  0  0  0
 24 63  1  0  0  0  0
 24 64  1  0  0  0  0
 25 65  1  0  0  0  0
 26 66  1  0  0  0  0
 26 67  1  0  0  0  0
 27 68  1  0  0  0  0
 30 69  1  0  0  0  0
 31 70  1  0  0  0  0
M  CHG  1  34  -1
M  END
> <BIOSOLVEIT.HYDE_ESTIMATED_AFFINITY_LOWER_BOUNDARY [nM]>
0.000000

> <BIOSOLVEIT.HYDE_ESTIMATED_AFFINITY_UPPER_BOUNDARY [nM]>
0.001000

> <BIOSOLVEIT.HYDE_LIGAND_EFFICIENCY range: ++, +, 0, -, -->
++

> <BIOSOLVEIT.HYDE_LIGAND_LIPOPHILIC_EFFICIENCY range: ++, +, 0, -, -->
++

> <BIOSOLVEIT.LOGP>
5.28752

> <BIOSOLVEIT.MOLECULAR WEIGHT>
462.61

> <BIOSOLVEIT.MOLECULE_CHECKSUM>
LTg2LjQ0MTM7Mi41NDIzOQ==

> <BIOSOLVEIT.TPSA>
84.5

> <OPTIBRIUM.BBB category>
-

> <OPTIBRIUM.PPB90 category>
high

> <OPTIBRIUM.2C9 pKi>
5.44318

> <OPTIBRIUM.logS @ pH7.4>
1.06418

> <OPTIBRIUM.BBB log([brain]:[blood])>
-1.05937

> <OPTIBRIUM.2D6 affinity category>
very high

> <OPTIBRIUM.logS>
-0.0360883

> <OPTIBRIUM.logD>
2.62209

> <OPTIBRIUM.hERG pIC50>
5.44703

> <OPTIBRIUM.logP>
5.98503

> <OPTIBRIUM.HIA category>
+

> <OPTIBRIUM.P-gp category>
yes

$$$$
HQM_C_501_1_007
joSeeSAR  03092212483D 1   1.00000     0.00000     0
SeeSAR 11.2.2 jonathanwahrer
 70 73  0  0  0  0            999 V2000
   25.5222   79.0801   17.0427 C   0  0  0  0  0  0  0  0  0  0  0  0
   24.7097   76.8624   16.0175 C   0  0  0  0  0  0  0  0  0  0  0  0
   20.4733   78.6608   16.7988 C   0  0  0  0  0  0  0  0  0  0  0  0
   20.0766   77.3812   17.5229 C   0  0  0  0  0  0  0  0  0  0  0  0
   20.5555   77.3822   18.9658 C   0  0  0  0  0  0  0  0  0  0  0  0
   19.7613   78.4309   19.7319 C   0  0  0  0  0  0  0  0  0  0  0  0
   19.3783   79.6050   18.8467 C   0  0  0  0  0  0  0  0  0  0  0  0
   20.4701   79.8014   17.8075 C   0  0  0  0  0  0  0  0  0  0  0  0
   20.4339   75.7547   13.6133 C   0  0  0  0  0  0  0  0  0  0  0  0
   19.2423   73.5562   13.7121 C   0  0  0  0  0  0  0  0  0  0  0  0
   19.5596   72.2218   13.4792 C   0  0  0  0  0  0  0  0  0  0  0  0
   18.5943   71.3548   12.9785 C   0  0  0  0  0  0  0  0  0  0  0  0
   17.3173   71.8391   12.7175 C   0  0  0  0  0  0  0  0  0  0  0  0
   16.9949   73.1725   12.9492 C   0  0  0  0  0  0  0  0  0  0  0  0
   22.1044   79.5526   12.1545 C   0  0  0  0  0  0  0  0  0  0  0  0
   21.8140   78.2415   12.5172 C   0  0  0  0  0  0  0  0  0  0  0  0
   21.7367   77.9242   13.8691 C   0  0  0  0  0  0  0  0  0  0  0  0
   21.9464   78.9010   14.8365 C   0  0  0  0  0  0  0  0  0  0  0  0
   22.2361   80.2112   14.4690 C   0  0  0  0  0  0  0  0  0  0  0  0
   22.3145   80.5341   13.1179 C   0  0  0  0  0  0  0  0  0  0  0  0
   23.0844   78.4265   17.0736 C   0  0  0  0  0  0  0  0  0  0  0  0
   24.4039   78.3489   16.2301 C   0  0  0  0  0  0  0  0  0  0  0  0
   17.9634   74.0367   13.4496 C   0  0  0  0  0  0  0  0  0  0  0  0
   16.2525   70.9018   12.1716 C   0  0  0  0  0  0  0  0  0  0  0  0
   22.1895   79.9055   10.6789 C   0  0  1  0  0  0  0  0  0  0  0  0
   21.6373   78.8113    9.8132 C   0  0  0  0  0  0  0  0  0  0  0  0
   20.8568   80.0824   10.0063 C   0  0  1  0  0  0  0  0  0  0  0  0
   19.6642   79.8676   10.9249 C   0  0  0  0  0  0  0  0  0  0  0  0
   21.8656   78.5709   16.1953 N   0  0  0  0  0  0  0  0  0  0  0  0
   21.4362   76.5616   14.2787 N   0  0  0  0  0  0  0  0  0  0  0  0
   20.2641   74.4532   14.2363 N   0  0  0  0  0  0  0  0  0  0  0  0
   19.8006   76.1688   12.6905 O   0  0  0  0  0  0  0  0  0  0  0  0
   19.1285   78.7277   11.0642 O   0  0  0  0  0  0  0  0  0  0  0  0
   19.1987   80.8509   11.5545 O   0  5  0  0  0  0  0  0  0  0  0  0
   25.2775   80.0431   17.1545 H   0  0  0  0  0  0  0  0  0  0  0  0
   25.6141   78.6529   17.9422 H   0  0  0  0  0  0  0  0  0  0  0  0
   26.3904   79.0116   16.5510 H   0  0  0  0  0  0  0  0  0  0  0  0
   23.9683   76.4409   15.4952 H   0  0  0  0  0  0  0  0  0  0  0  0
   25.5683   76.7675   15.5136 H   0  0  0  0  0  0  0  0  0  0  0  0
   24.7919   76.4088   16.9048 H   0  0  0  0  0  0  0  0  0  0  0  0
   19.8093   78.8538   16.0764 H   0  0  0  0  0  0  0  0  0  0  0  0
   20.4818   76.6004   17.0472 H   0  0  0  0  0  0  0  0  0  0  0  0
   19.0802   77.2978   17.5118 H   0  0  0  0  0  0  0  0  0  0  0  0
   21.5298   77.6052   18.9987 H   0  0  0  0  0  0  0  0  0  0  0  0
   20.4059   76.4809   19.3724 H   0  0  0  0  0  0  0  0  0  0  0  0
   20.3171   78.7664   20.4925 H   0  0  0  0  0  0  0  0  0  0  0  0
   18.9278   78.0091   20.0889 H   0  0  0  0  0  0  0  0  0  0  0  0
   19.2891   80.4316   19.4025 H   0  0  0  0  0  0  0  0  0  0  0  0
   18.5090   79.4143   18.3908 H   0  0  0  0  0  0  0  0  0  0  0  0
   20.3123   80.6635   17.3260 H   0  0  0  0  0  0  0  0  0  0  0  0
   21.3575   79.8339   18.2674 H   0  0  0  0  0  0  0  0  0  0  0  0
   20.4817   71.8861   13.6717 H   0  0  0  0  0  0  0  0  0  0  0  0
   18.8159   70.3946   12.8082 H   0  0  0  0  0  0  0  0  0  0  0  0
   16.0725   73.5077   12.7572 H   0  0  0  0  0  0  0  0  0  0  0  0
   21.6638   77.5409   11.8196 H   0  0  0  0  0  0  0  0  0  0  0  0
   22.3861   80.9116   15.1667 H   0  0  0  0  0  0  0  0  0  0  0  0
   22.5218   81.4718   12.8394 H   0  0  0  0  0  0  0  0  0  0  0  0
   23.1376   79.2154   17.6858 H   0  0  0  0  0  0  0  0  0  0  0  0
   22.9964   77.5901   17.6146 H   0  0  0  0  0  0  0  0  0  0  0  0
   24.2722   78.8003   15.3476 H   0  0  0  0  0  0  0  0  0  0  0  0
   17.7418   74.9969   13.6195 H   0  0  0  0  0  0  0  0  0  0  0  0
   15.3991   71.4065   12.0415 H   0  0  0  0  0  0  0  0  0  0  0  0
   16.5555   70.5277   11.2950 H   0  0  0  0  0  0  0  0  0  0  0  0
   16.1025   70.1546   12.8190 H   0  0  0  0  0  0  0  0  0  0  0  0
   22.9720   80.4349   10.3512 H   0  0  0  0  0  0  0  0  0  0  0  0
   21.3164   77.9597   10.2278 H   0  0  0  0  0  0  0  0  0  0  0  0
   22.0589   78.6131    8.9283 H   0  0  0  0  0  0  0  0  0  0  0  0
   20.7763   80.7257    9.2450 H   0  0  0  0  0  0  0  0  0  0  0  0
   21.9395   76.1674   15.0475 H   0  0  0  0  0  0  0  0  0  0  0  0
   20.8365   74.1787   15.0089 H   0  0  0  0  0  0  0  0  0  0  0  0
  1 22  1  0  0  0  0
  2 22  1  0  0  0  0
  3  4  1  0  0  0  0
  3  8  1  0  0  0  0
  3 29  1  0  0  0  0
  4  5  1  0  0  0  0
  5  6  1  0  0  0  0
  6  7  1  0  0  0  0
  7  8  1  0  0  0  0
  9 30  1  0  0  0  0
  9 31  1  0  0  0  0
  9 32  2  0  0  0  0
 10 11  2  0  0  0  0
 10 23  1  0  0  0  0
 10 31  1  0  0  0  0
 11 12  1  0  0  0  0
 12 13  2  0  0  0  0
 13 14  1  0  0  0  0
 13 24  1  0  0  0  0
 14 23  2  0  0  0  0
 15 16  1  0  0  0  0
 15 20  2  0  0  0  0
 15 25  1  0  0  0  0
 16 17  2  0  0  0  0
 17 18  1  0  0  0  0
 17 30  1  0  0  0  0
 18 19  2  0  0  0  0
 18 29  1  0  0  0  0
 19 20  1  0  0  0  0
 21 22  1  0  0  0  0
 21 29  1  0  0  0  0
 25 26  1  0  0  0  0
 25 27  1  0  0  0  0
 26 27  1  0  0  0  0
 27 28  1  0  0  0  0
 28 33  2  0  0  0  0
 28 34  1  0  0  0  0
  1 35  1  0  0  0  0
  1 36  1  0  0  0  0
  1 37  1  0  0  0  0
  2 38  1  0  0  0  0
  2 39  1  0  0  0  0
  2 40  1  0  0  0  0
  3 41  1  0  0  0  0
  4 42  1  0  0  0  0
  4 43  1  0  0  0  0
  5 44  1  0  0  0  0
  5 45  1  0  0  0  0
  6 46  1  0  0  0  0
  6 47  1  0  0  0  0
  7 48  1  0  0  0  0
  7 49  1  0  0  0  0
  8 50  1  0  0  0  0
  8 51  1  0  0  0  0
 11 52  1  0  0  0  0
 12 53  1  0  0  0  0
 14 54  1  0  0  0  0
 16 55  1  0  0  0  0
 19 56  1  0  0  0  0
 20 57  1  0  0  0  0
 21 58  1  0  0  0  0
 21 59  1  0  0  0  0
 22 60  1  0  0  0  0
 23 61  1  0  0  0  0
 24 62  1  0  0  0  0
 24 63  1  0  0  0  0
 24 64  1  0  0  0  0
 25 65  1  0  0  0  0
 26 66  1  0  0  0  0
 26 67  1  0  0  0  0
 27 68  1  0  0  0  0
 30 69  1  0  0  0  0
 31 70  1  0  0  0  0
M  CHG  1  34  -1
M  END
> <BIOSOLVEIT.HYDE_ESTIMATED_AFFINITY_LOWER_BOUNDARY [nM]>
0.000000

> <BIOSOLVEIT.HYDE_ESTIMATED_AFFINITY_UPPER_BOUNDARY [nM]>
0.001000

> <BIOSOLVEIT.HYDE_LIGAND_EFFICIENCY range: ++, +, 0, -, -->
++

> <BIOSOLVEIT.HYDE_LIGAND_LIPOPHILIC_EFFICIENCY range: ++, +, 0, -, -->
++

> <BIOSOLVEIT.LOGP>
5.28752

> <BIOSOLVEIT.MOLECULAR WEIGHT>
462.61

> <BIOSOLVEIT.MOLECULE_CHECKSUM>
LTg3LjA4NDY7Mi41NjEzMQ==

> <BIOSOLVEIT.TPSA>
84.5

> <OPTIBRIUM.BBB category>
-

> <OPTIBRIUM.PPB90 category>
high

> <OPTIBRIUM.2C9 pKi>
5.44318

> <OPTIBRIUM.logS @ pH7.4>
1.06418

> <OPTIBRIUM.BBB log([brain]:[blood])>
-1.05937

> <OPTIBRIUM.2D6 affinity category>
very high

> <OPTIBRIUM.logS>
-0.0360883

> <OPTIBRIUM.logD>
2.62209

> <OPTIBRIUM.hERG pIC50>
5.44703

> <OPTIBRIUM.logP>
5.98503

> <OPTIBRIUM.HIA category>
+

> <OPTIBRIUM.P-gp category>
yes

$$$$
HQM_C_501_1_008
joSeeSAR  03092212483D 1   1.00000     0.00000     0
SeeSAR 11.2.2 jonathanwahrer
 70 73  0  0  0  0            999 V2000
   19.1357   80.3566   17.4252 C   0  0  0  0  0  0  0  0  0  0  0  0
   21.4067   79.8453   18.5254 C   0  0  0  0  0  0  0  0  0  0  0  0
   23.4322   78.6185   15.8903 C   0  0  0  0  0  0  0  0  0  0  0  0
   24.1869   79.8531   16.3550 C   0  0  0  0  0  0  0  0  0  0  0  0
   25.5714   79.5194   16.8947 C   0  0  0  0  0  0  0  0  0  0  0  0
   25.8307   78.0189   16.8892 C   0  0  0  0  0  0  0  0  0  0  0  0
   24.7138   77.2691   17.6029 C   0  0  0  0  0  0  0  0  0  0  0  0
   23.3458   77.6259   17.0432 C   0  0  0  0  0  0  0  0  0  0  0  0
   20.1595   76.0174   13.1519 C   0  0  0  0  0  0  0  0  0  0  0  0
   18.9145   73.8717   13.4824 C   0  0  0  0  0  0  0  0  0  0  0  0
   19.3419   72.5786   13.1986 C   0  0  0  0  0  0  0  0  0  0  0  0
   18.4352   71.6334   12.7309 C   0  0  0  0  0  0  0  0  0  0  0  0
   17.1052   71.9988   12.5539 C   0  0  0  0  0  0  0  0  0  0  0  0
   16.6728   73.2905   12.8367 C   0  0  0  0  0  0  0  0  0  0  0  0
   21.7147   79.5477   11.2838 C   0  0  0  0  0  0  0  0  0  0  0  0
   21.3373   78.3274   11.8349 C   0  0  0  0  0  0  0  0  0  0  0  0
   21.4510   78.1521   13.2099 C   0  0  0  0  0  0  0  0  0  0  0  0
   21.9331   79.1786   14.0149 C   0  0  0  0  0  0  0  0  0  0  0  0
   22.3088   80.3974   13.4593 C   0  0  0  0  0  0  0  0  0  0  0  0
   22.1968   80.5783   12.0843 C   0  0  0  0  0  0  0  0  0  0  0  0
   20.8412   78.8720   16.3037 C   0  0  0  0  0  0  0  0  0  0  0  0
   20.6695   80.1370   17.2140 C   0  0  0  0  0  0  0  0  0  0  0  0
   17.5830   74.2331   13.3039 C   0  0  0  0  0  0  0  0  0  0  0  0
   16.1037   70.9751   12.0448 C   0  0  0  0  0  0  0  0  0  0  0  0
   21.5918   79.7455    9.7817 C   0  0  1  0  0  0  0  0  0  0  0  0
   20.7798   78.6575    9.1426 C   0  0  0  0  0  0  0  0  0  0  0  0
   20.1950   80.0336    9.3068 C   0  0  1  0  0  0  0  0  0  0  0  0
   19.1437   80.0669   10.4302 C   0  0  0  0  0  0  0  0  0  0  0  0
   22.0431   78.9917   15.3987 N   0  0  0  0  0  0  0  0  0  0  0  0
   21.0801   76.9345   13.7918 N   0  0  0  0  0  0  0  0  0  0  0  0
   19.8757   74.8516   13.9712 N   0  0  0  0  0  0  0  0  0  0  0  0
   19.6677   76.2542   12.0906 O   0  0  0  0  0  0  0  0  0  0  0  0
   18.3461   79.1015   10.6238 O   0  0  0  0  0  0  0  0  0  0  0  0
   19.0752   81.0832   11.1668 O   0  5  0  0  0  0  0  0  0  0  0  0
   18.7012   80.5428   16.5441 H   0  0  0  0  0  0  0  0  0  0  0  0
   18.7336   79.5344   17.8281 H   0  0  0  0  0  0  0  0  0  0  0  0
   18.9916   81.1332   18.0387 H   0  0  0  0  0  0  0  0  0  0  0  0
   22.3801   79.7129   18.3384 H   0  0  0  0  0  0  0  0  0  0  0  0
   21.2895   80.6156   19.1522 H   0  0  0  0  0  0  0  0  0  0  0  0
   21.0315   79.0170   18.9416 H   0  0  0  0  0  0  0  0  0  0  0  0
   23.9378   78.1958   15.1382 H   0  0  0  0  0  0  0  0  0  0  0  0
   23.6593   80.2986   17.0783 H   0  0  0  0  0  0  0  0  0  0  0  0
   24.2862   80.4789   15.5813 H   0  0  0  0  0  0  0  0  0  0  0  0
   25.6438   79.8574   17.8330 H   0  0  0  0  0  0  0  0  0  0  0  0
   26.2587   79.9691   16.3243 H   0  0  0  0  0  0  0  0  0  0  0  0
   26.6969   77.8351   17.3540 H   0  0  0  0  0  0  0  0  0  0  0  0
   25.8859   77.7001   15.9431 H   0  0  0  0  0  0  0  0  0  0  0  0
   24.7367   77.5029   18.5749 H   0  0  0  0  0  0  0  0  0  0  0  0
   24.8621   76.2864   17.4929 H   0  0  0  0  0  0  0  0  0  0  0  0
   22.9048   76.7903   16.7155 H   0  0  0  0  0  0  0  0  0  0  0  0
   22.7948   78.0291   17.7738 H   0  0  0  0  0  0  0  0  0  0  0  0
   20.3012   72.3287   13.3309 H   0  0  0  0  0  0  0  0  0  0  0  0
   18.7360   70.7023   12.5244 H   0  0  0  0  0  0  0  0  0  0  0  0
   15.7134   73.5398   12.7050 H   0  0  0  0  0  0  0  0  0  0  0  0
   20.9911   77.5909   11.2540 H   0  0  0  0  0  0  0  0  0  0  0  0
   22.6548   81.1339   14.0406 H   0  0  0  0  0  0  0  0  0  0  0  0
   22.4631   81.4492   11.6715 H   0  0  0  0  0  0  0  0  0  0  0  0
   20.0217   78.7645   15.7409 H   0  0  0  0  0  0  0  0  0  0  0  0
   20.9536   78.0669   16.8861 H   0  0  0  0  0  0  0  0  0  0  0  0
   21.0708   80.9365   16.7670 H   0  0  0  0  0  0  0  0  0  0  0  0
   17.2822   75.1642   13.5101 H   0  0  0  0  0  0  0  0  0  0  0  0
   15.2004   71.3985   11.9753 H   0  0  0  0  0  0  0  0  0  0  0  0
   16.3892   70.6490   11.1436 H   0  0  0  0  0  0  0  0  0  0  0  0
   16.0625   70.2043   12.6806 H   0  0  0  0  0  0  0  0  0  0  0  0
   22.3645   80.1330    9.2789 H   0  0  0  0  0  0  0  0  0  0  0  0
   20.4364   77.8991    9.6963 H   0  0  0  0  0  0  0  0  0  0  0  0
   21.0216   78.3226    8.2319 H   0  0  0  0  0  0  0  0  0  0  0  0
   20.0633   80.6072    8.4983 H   0  0  0  0  0  0  0  0  0  0  0  0
   21.4646   76.6887   14.6817 H   0  0  0  0  0  0  0  0  0  0  0  0
   20.3309   74.7244   14.8525 H   0  0  0  0  0  0  0  0  0  0  0  0
  1 22  1  0  0  0  0
  2 22  1  0  0  0  0
  3  4  1  0  0  0  0
  3  8  1  0  0  0  0
  3 29  1  0  0  0  0
  4  5  1  0  0  0  0
  5  6  1  0  0  0  0
  6  7  1  0  0  0  0
  7  8  1  0  0  0  0
  9 30  1  0  0  0  0
  9 31  1  0  0  0  0
  9 32  2  0  0  0  0
 10 11  2  0  0  0  0
 10 23  1  0  0  0  0
 10 31  1  0  0  0  0
 11 12  1  0  0  0  0
 12 13  2  0  0  0  0
 13 14  1  0  0  0  0
 13 24  1  0  0  0  0
 14 23  2  0  0  0  0
 15 16  1  0  0  0  0
 15 20  2  0  0  0  0
 15 25  1  0  0  0  0
 16 17  2  0  0  0  0
 17 18  1  0  0  0  0
 17 30  1  0  0  0  0
 18 19  2  0  0  0  0
 18 29  1  0  0  0  0
 19 20  1  0  0  0  0
 21 22  1  0  0  0  0
 21 29  1  0  0  0  0
 25 26  1  0  0  0  0
 25 27  1  0  0  0  0
 26 27  1  0  0  0  0
 27 28  1  0  0  0  0
 28 33  2  0  0  0  0
 28 34  1  0  0  0  0
  1 35  1  0  0  0  0
  1 36  1  0  0  0  0
  1 37  1  0  0  0  0
  2 38  1  0  0  0  0
  2 39  1  0  0  0  0
  2 40  1  0  0  0  0
  3 41  1  0  0  0  0
  4 42  1  0  0  0  0
  4 43  1  0  0  0  0
  5 44  1  0  0  0  0
  5 45  1  0  0  0  0
  6 46  1  0  0  0  0
  6 47  1  0  0  0  0
  7 48  1  0  0  0  0
  7 49  1  0  0  0  0
  8 50  1  0  0  0  0
  8 51  1  0  0  0  0
 11 52  1  0  0  0  0
 12 53  1  0  0  0  0
 14 54  1  0  0  0  0
 16 55  1  0  0  0  0
 19 56  1  0  0  0  0
 20 57  1  0  0  0  0
 21 58  1  0  0  0  0
 21 59  1  0  0  0  0
 22 60  1  0  0  0  0
 23 61  1  0  0  0  0
 24 62  1  0  0  0  0
 24 63  1  0  0  0  0
 24 64  1  0  0  0  0
 25 65  1  0  0  0  0
 26 66  1  0  0  0  0
 26 67  1  0  0  0  0
 27 68  1  0  0  0  0
 30 69  1  0  0  0  0
 31 70  1  0  0  0  0
M  CHG  1  34  -1
M  END
> <BIOSOLVEIT.HYDE_ESTIMATED_AFFINITY_LOWER_BOUNDARY [nM]>
0.000300

> <BIOSOLVEIT.HYDE_ESTIMATED_AFFINITY_UPPER_BOUNDARY [nM]>
0.029768

> <BIOSOLVEIT.HYDE_LIGAND_EFFICIENCY range: ++, +, 0, -, -->
+

> <BIOSOLVEIT.HYDE_LIGAND_LIPOPHILIC_EFFICIENCY range: ++, +, 0, -, -->
+

> <BIOSOLVEIT.LOGP>
5.28752

> <BIOSOLVEIT.MOLECULAR WEIGHT>
462.61

> <BIOSOLVEIT.MOLECULE_CHECKSUM>
LTY1Ljc4Mzk7MS45MzQ4Mg==

> <BIOSOLVEIT.TPSA>
84.5

> <OPTIBRIUM.BBB category>
-

> <OPTIBRIUM.PPB90 category>
high

> <OPTIBRIUM.2C9 pKi>
5.44318

> <OPTIBRIUM.logS @ pH7.4>
1.06418

> <OPTIBRIUM.BBB log([brain]:[blood])>
-1.05937

> <OPTIBRIUM.2D6 affinity category>
very high

> <OPTIBRIUM.logS>
-0.0360883

> <OPTIBRIUM.logD>
2.62209

> <OPTIBRIUM.hERG pIC50>
5.44703

> <OPTIBRIUM.logP>
5.98503

> <OPTIBRIUM.HIA category>
+

> <OPTIBRIUM.P-gp category>
yes

$$$$
HQM_C_501_1_009
joSeeSAR  03092212483D 1   1.00000     0.00000     0
SeeSAR 11.2.2 jonathanwahrer
 70 73  0  0  0  0            999 V2000
   26.0902   79.0321   16.6321 C   0  0  0  0  0  0  0  0  0  0  0  0
   24.7313   76.9676   15.9103 C   0  0  0  0  0  0  0  0  0  0  0  0
   20.9390   78.8639   16.6750 C   0  0  0  0  0  0  0  0  0  0  0  0
   20.8519   77.5585   17.4490 C   0  0  0  0  0  0  0  0  0  0  0  0
   19.5221   77.5227   18.1887 C   0  0  0  0  0  0  0  0  0  0  0  0
   19.3466   78.7209   19.1078 C   0  0  0  0  0  0  0  0  0  0  0  0
   20.5135   79.6906   19.0204 C   0  0  0  0  0  0  0  0  0  0  0  0
   20.7566   80.0795   17.5715 C   0  0  0  0  0  0  0  0  0  0  0  0
   20.5224   76.0910   13.4825 C   0  0  0  0  0  0  0  0  0  0  0  0
   19.2878   73.9276   13.7241 C   0  0  0  0  0  0  0  0  0  0  0  0
   19.6143   72.5882   13.5368 C   0  0  0  0  0  0  0  0  0  0  0  0
   18.6524   71.6961   13.0750 C   0  0  0  0  0  0  0  0  0  0  0  0
   17.3694   72.1606   12.8068 C   0  0  0  0  0  0  0  0  0  0  0  0
   17.0379   73.4989   12.9929 C   0  0  0  0  0  0  0  0  0  0  0  0
   22.1145   79.7229   11.7900 C   0  0  0  0  0  0  0  0  0  0  0  0
   21.7821   78.4540   12.2527 C   0  0  0  0  0  0  0  0  0  0  0  0
   21.8418   78.2050   13.6197 C   0  0  0  0  0  0  0  0  0  0  0  0
   22.2268   79.2073   14.5037 C   0  0  0  0  0  0  0  0  0  0  0  0
   22.5578   80.4751   14.0362 C   0  0  0  0  0  0  0  0  0  0  0  0
   22.4996   80.7297   12.6698 C   0  0  0  0  0  0  0  0  0  0  0  0
   23.5699   78.9975   16.7672 C   0  0  0  0  0  0  0  0  0  0  0  0
   24.7984   78.4984   15.9304 C   0  0  0  0  0  0  0  0  0  0  0  0
   18.0030   74.3881   13.4545 C   0  0  0  0  0  0  0  0  0  0  0  0
   16.3085   71.1958   12.3031 C   0  0  0  0  0  0  0  0  0  0  0  0
   22.0503   80.0013   10.2975 C   0  0  1  0  0  0  0  0  0  0  0  0
   21.4495   78.8517    9.5432 C   0  0  0  0  0  0  0  0  0  0  0  0
   20.6558   80.1128    9.7473 C   0  0  1  0  0  0  0  0  0  0  0  0
   19.5614   79.9184   10.7851 C   0  0  0  0  0  0  0  0  0  0  0  0
   22.2870   78.9276   15.9753 N   0  0  0  0  0  0  0  0  0  0  0  0
   21.5142   76.9371   14.1138 N   0  0  0  0  0  0  0  0  0  0  0  0
   20.3059   74.8510   14.2078 N   0  0  0  0  0  0  0  0  0  0  0  0
   19.9308   76.4333   12.5040 O   0  0  0  0  0  0  0  0  0  0  0  0
   18.9967   78.7968   10.9543 O   0  0  0  0  0  0  0  0  0  0  0  0
   19.2081   80.9007   11.4852 O   0  5  0  0  0  0  0  0  0  0  0  0
   26.0875   80.0319   16.6196 H   0  0  0  0  0  0  0  0  0  0  0  0
   26.1124   78.7105   17.5786 H   0  0  0  0  0  0  0  0  0  0  0  0
   26.8967   78.6949   16.1465 H   0  0  0  0  0  0  0  0  0  0  0  0
   23.8909   76.6768   15.4531 H   0  0  0  0  0  0  0  0  0  0  0  0
   25.5219   76.6058   15.4162 H   0  0  0  0  0  0  0  0  0  0  0  0
   24.7375   76.6213   16.8484 H   0  0  0  0  0  0  0  0  0  0  0  0
   20.2196   78.8703   15.9804 H   0  0  0  0  0  0  0  0  0  0  0  0
   21.6044   77.5048   18.1053 H   0  0  0  0  0  0  0  0  0  0  0  0
   20.9064   76.7866   16.8156 H   0  0  0  0  0  0  0  0  0  0  0  0
   19.4801   76.6872   18.7365 H   0  0  0  0  0  0  0  0  0  0  0  0
   18.7801   77.5193   17.5183 H   0  0  0  0  0  0  0  0  0  0  0  0
   19.2693   78.3948   20.0500 H   0  0  0  0  0  0  0  0  0  0  0  0
   18.5084   79.2025   18.8519 H   0  0  0  0  0  0  0  0  0  0  0  0
   21.3348   79.2549   19.3888 H   0  0  0  0  0  0  0  0  0  0  0  0
   20.3037   80.5105   19.5530 H   0  0  0  0  0  0  0  0  0  0  0  0
   19.9731   80.6073   17.2436 H   0  0  0  0  0  0  0  0  0  0  0  0
   21.5816   80.6426   17.5230 H   0  0  0  0  0  0  0  0  0  0  0  0
   20.5405   72.2670   13.7341 H   0  0  0  0  0  0  0  0  0  0  0  0
   18.8805   70.7323   12.9376 H   0  0  0  0  0  0  0  0  0  0  0  0
   16.1114   73.8196   12.7962 H   0  0  0  0  0  0  0  0  0  0  0  0
   21.5057   77.7349   11.6151 H   0  0  0  0  0  0  0  0  0  0  0  0
   22.8340   81.1940   14.6741 H   0  0  0  0  0  0  0  0  0  0  0  0
   22.7346   81.6364   12.3197 H   0  0  0  0  0  0  0  0  0  0  0  0
   23.7293   79.9455   17.0423 H   0  0  0  0  0  0  0  0  0  0  0  0
   23.4791   78.4247   17.5819 H   0  0  0  0  0  0  0  0  0  0  0  0
   24.7441   78.8552   14.9978 H   0  0  0  0  0  0  0  0  0  0  0  0
   17.7748   75.3520   13.5915 H   0  0  0  0  0  0  0  0  0  0  0  0
   15.4500   71.6887   12.1617 H   0  0  0  0  0  0  0  0  0  0  0  0
   16.6080   70.7929   11.4383 H   0  0  0  0  0  0  0  0  0  0  0  0
   16.1695   70.4711   12.9780 H   0  0  0  0  0  0  0  0  0  0  0  0
   22.7836   80.5308    9.8710 H   0  0  0  0  0  0  0  0  0  0  0  0
   21.1926   78.0154   10.0279 H   0  0  0  0  0  0  0  0  0  0  0  0
   21.7912   78.6178    8.6329 H   0  0  0  0  0  0  0  0  0  0  0  0
   20.4863   80.7141    8.9665 H   0  0  0  0  0  0  0  0  0  0  0  0
   21.9819   76.6032   14.9322 H   0  0  0  0  0  0  0  0  0  0  0  0
   20.8446   74.6356   15.0223 H   0  0  0  0  0  0  0  0  0  0  0  0
  1 22  1  0  0  0  0
  2 22  1  0  0  0  0
  3  4  1  0  0  0  0
  3  8  1  0  0  0  0
  3 29  1  0  0  0  0
  4  5  1  0  0  0  0
  5  6  1  0  0  0  0
  6  7  1  0  0  0  0
  7  8  1  0  0  0  0
  9 30  1  0  0  0  0
  9 31  1  0  0  0  0
  9 32  2  0  0  0  0
 10 11  2  0  0  0  0
 10 23  1  0  0  0  0
 10 31  1  0  0  0  0
 11 12  1  0  0  0  0
 12 13  2  0  0  0  0
 13 14  1  0  0  0  0
 13 24  1  0  0  0  0
 14 23  2  0  0  0  0
 15 16  1  0  0  0  0
 15 20  2  0  0  0  0
 15 25  1  0  0  0  0
 16 17  2  0  0  0  0
 17 18  1  0  0  0  0
 17 30  1  0  0  0  0
 18 19  2  0  0  0  0
 18 29  1  0  0  0  0
 19 20  1  0  0  0  0
 21 22  1  0  0  0  0
 21 29  1  0  0  0  0
 25 26  1  0  0  0  0
 25 27  1  0  0  0  0
 26 27  1  0  0  0  0
 27 28  1  0  0  0  0
 28 33  2  0  0  0  0
 28 34  1  0  0  0  0
  1 35  1  0  0  0  0
  1 36  1  0  0  0  0
  1 37  1  0  0  0  0
  2 38  1  0  0  0  0
  2 39  1  0  0  0  0
  2 40  1  0  0  0  0
  3 41  1  0  0  0  0
  4 42  1  0  0  0  0
  4 43  1  0  0  0  0
  5 44  1  0  0  0  0
  5 45  1  0  0  0  0
  6 46  1  0  0  0  0
  6 47  1  0  0  0  0
  7 48  1  0  0  0  0
  7 49  1  0  0  0  0
  8 50  1  0  0  0  0
  8 51  1  0  0  0  0
 11 52  1  0  0  0  0
 12 53  1  0  0  0  0
 14 54  1  0  0  0  0
 16 55  1  0  0  0  0
 19 56  1  0  0  0  0
 20 57  1  0  0  0  0
 21 58  1  0  0  0  0
 21 59  1  0  0  0  0
 22 60  1  0  0  0  0
 23 61  1  0  0  0  0
 24 62  1  0  0  0  0
 24 63  1  0  0  0  0
 24 64  1  0  0  0  0
 25 65  1  0  0  0  0
 26 66  1  0  0  0  0
 26 67  1  0  0  0  0
 27 68  1  0  0  0  0
 30 69  1  0  0  0  0
 31 70  1  0  0  0  0
M  CHG  1  34  -1
M  END
> <BIOSOLVEIT.HYDE_ESTIMATED_AFFINITY_LOWER_BOUNDARY [nM]>
0.000000

> <BIOSOLVEIT.HYDE_ESTIMATED_AFFINITY_UPPER_BOUNDARY [nM]>
0.001000

> <BIOSOLVEIT.HYDE_LIGAND_EFFICIENCY range: ++, +, 0, -, -->
++

> <BIOSOLVEIT.HYDE_LIGAND_LIPOPHILIC_EFFICIENCY range: ++, +, 0, -, -->
++

> <BIOSOLVEIT.LOGP>
5.28752

> <BIOSOLVEIT.MOLECULAR WEIGHT>
462.61

> <BIOSOLVEIT.MOLECULE_CHECKSUM>
LTg3LjQyODg7Mi41NzE0NA==

> <BIOSOLVEIT.TPSA>
84.5

> <OPTIBRIUM.BBB category>
-

> <OPTIBRIUM.PPB90 category>
high

> <OPTIBRIUM.2C9 pKi>
5.44318

> <OPTIBRIUM.logS @ pH7.4>
1.06418

> <OPTIBRIUM.BBB log([brain]:[blood])>
-1.05937

> <OPTIBRIUM.2D6 affinity category>
very high

> <OPTIBRIUM.logS>
-0.0360883

> <OPTIBRIUM.logD>
2.62209

> <OPTIBRIUM.hERG pIC50>
5.44703

> <OPTIBRIUM.logP>
5.98503

> <OPTIBRIUM.HIA category>
+

> <OPTIBRIUM.P-gp category>
yes

$$$$
HQM_C_501_1_010
joSeeSAR  03092212483D 1   1.00000     0.00000     0
SeeSAR 11.2.2 jonathanwahrer
 70 73  0  0  0  0            999 V2000
   18.8424   79.8127   17.8845 C   0  0  0  0  0  0  0  0  0  0  0  0
   19.9395   77.9292   19.2548 C   0  0  0  0  0  0  0  0  0  0  0  0
   22.9818   78.1229   16.8536 C   0  0  0  0  0  0  0  0  0  0  0  0
   23.8936   77.3909   15.8824 C   0  0  0  0  0  0  0  0  0  0  0  0
   25.2261   77.1325   16.5715 C   0  0  0  0  0  0  0  0  0  0  0  0
   25.8700   78.4160   17.0707 C   0  0  0  0  0  0  0  0  0  0  0  0
   25.0007   79.6355   16.8128 C   0  0  0  0  0  0  0  0  0  0  0  0
   23.6077   79.4075   17.3761 C   0  0  0  0  0  0  0  0  0  0  0  0
   20.3229   75.6755   13.5144 C   0  0  0  0  0  0  0  0  0  0  0  0
   19.1376   73.4723   13.5783 C   0  0  0  0  0  0  0  0  0  0  0  0
   19.4727   72.1503   13.3031 C   0  0  0  0  0  0  0  0  0  0  0  0
   18.5168   71.2848   12.7821 C   0  0  0  0  0  0  0  0  0  0  0  0
   17.2312   71.7581   12.5436 C   0  0  0  0  0  0  0  0  0  0  0  0
   16.8911   73.0790   12.8177 C   0  0  0  0  0  0  0  0  0  0  0  0
   22.0038   79.4370   12.1261 C   0  0  0  0  0  0  0  0  0  0  0  0
   21.7135   78.1216   12.4732 C   0  0  0  0  0  0  0  0  0  0  0  0
   21.6036   77.7955   13.8207 C   0  0  0  0  0  0  0  0  0  0  0  0
   21.7812   78.7678   14.7992 C   0  0  0  0  0  0  0  0  0  0  0  0
   22.0707   80.0822   14.4470 C   0  0  0  0  0  0  0  0  0  0  0  0
   22.1816   80.4139   13.1005 C   0  0  0  0  0  0  0  0  0  0  0  0
   20.3464   78.0980   16.8034 C   0  0  0  0  0  0  0  0  0  0  0  0
   20.1154   78.9329   18.1104 C   0  0  0  0  0  0  0  0  0  0  0  0
   17.8501   73.9417   13.3382 C   0  0  0  0  0  0  0  0  0  0  0  0
   16.1767   70.8222   11.9759 C   0  0  0  0  0  0  0  0  0  0  0  0
   22.1242   79.7997   10.6548 C   0  0  1  0  0  0  0  0  0  0  0  0
   21.5324   78.7411    9.7713 C   0  0  0  0  0  0  0  0  0  0  0  0
   20.8102   80.0457    9.9676 C   0  0  1  0  0  0  0  0  0  0  0  0
   19.5825   79.8768   10.8799 C   0  0  0  0  0  0  0  0  0  0  0  0
   21.6677   78.4288   16.1533 N   0  0  0  0  0  0  0  0  0  0  0  0
   21.3138   76.4796   14.1995 N   0  0  0  0  0  0  0  0  0  0  0  0
   20.1495   74.3679   14.1235 N   0  0  0  0  0  0  0  0  0  0  0  0
   19.6998   76.0958   12.5873 O   0  0  0  0  0  0  0  0  0  0  0  0
   19.0108   78.7553   11.0249 O   0  0  0  0  0  0  0  0  0  0  0  0
   19.1366   80.8818   11.4892 O   0  5  0  0  0  0  0  0  0  0  0  0
   19.0063   80.4489   17.1306 H   0  0  0  0  0  0  0  0  0  0  0  0
   18.0656   79.2239   17.6609 H   0  0  0  0  0  0  0  0  0  0  0  0
   18.6412   80.3279   18.7176 H   0  0  0  0  0  0  0  0  0  0  0  0
   20.7769   77.3926   19.3594 H   0  0  0  0  0  0  0  0  0  0  0  0
   19.7511   78.4219   20.1044 H   0  0  0  0  0  0  0  0  0  0  0  0
   19.1757   77.3179   19.0477 H   0  0  0  0  0  0  0  0  0  0  0  0
   22.7958   77.5212   17.6303 H   0  0  0  0  0  0  0  0  0  0  0  0
   24.0386   77.9522   15.0676 H   0  0  0  0  0  0  0  0  0  0  0  0
   23.4764   76.5213   15.6183 H   0  0  0  0  0  0  0  0  0  0  0  0
   25.8455   76.6928   15.9211 H   0  0  0  0  0  0  0  0  0  0  0  0
   25.0738   76.5241   17.3503 H   0  0  0  0  0  0  0  0  0  0  0  0
   26.7450   78.5401   16.6027 H   0  0  0  0  0  0  0  0  0  0  0  0
   26.0269   78.3353   18.0550 H   0  0  0  0  0  0  0  0  0  0  0  0
   24.9376   79.7951   15.8276 H   0  0  0  0  0  0  0  0  0  0  0  0
   25.4102   80.4338   17.2542 H   0  0  0  0  0  0  0  0  0  0  0  0
   23.6678   79.3546   18.3729 H   0  0  0  0  0  0  0  0  0  0  0  0
   23.0253   80.1783   17.1177 H   0  0  0  0  0  0  0  0  0  0  0  0
   20.4007   71.8225   13.4798 H   0  0  0  0  0  0  0  0  0  0  0  0
   18.7512   70.3337   12.5815 H   0  0  0  0  0  0  0  0  0  0  0  0
   15.9628   73.4062   12.6414 H   0  0  0  0  0  0  0  0  0  0  0  0
   21.5865   77.4242   11.7678 H   0  0  0  0  0  0  0  0  0  0  0  0
   22.1975   80.7794   15.1526 H   0  0  0  0  0  0  0  0  0  0  0  0
   22.3891   81.3549   12.8329 H   0  0  0  0  0  0  0  0  0  0  0  0
   19.6092   78.2969   16.1578 H   0  0  0  0  0  0  0  0  0  0  0  0
   20.3338   77.1251   17.0344 H   0  0  0  0  0  0  0  0  0  0  0  0
   20.9075   79.5171   18.2870 H   0  0  0  0  0  0  0  0  0  0  0  0
   17.6158   74.8929   13.5385 H   0  0  0  0  0  0  0  0  0  0  0  0
   15.3152   71.3181   11.8662 H   0  0  0  0  0  0  0  0  0  0  0  0
   16.4794   70.4793   11.0865 H   0  0  0  0  0  0  0  0  0  0  0  0
   16.0418   70.0536   12.6010 H   0  0  0  0  0  0  0  0  0  0  0  0
   22.9351   80.2945   10.3422 H   0  0  0  0  0  0  0  0  0  0  0  0
   21.1664   77.9017   10.1732 H   0  0  0  0  0  0  0  0  0  0  0  0
   21.9555   78.5316    8.8897 H   0  0  0  0  0  0  0  0  0  0  0  0
   20.7699   80.6994    9.2118 H   0  0  0  0  0  0  0  0  0  0  0  0
   21.8088   76.0802   14.9712 H   0  0  0  0  0  0  0  0  0  0  0  0
   20.7130   74.0884   14.9008 H   0  0  0  0  0  0  0  0  0  0  0  0
  1 22  1  0  0  0  0
  2 22  1  0  0  0  0
  3  4  1  0  0  0  0
  3  8  1  0  0  0  0
  3 29  1  0  0  0  0
  4  5  1  0  0  0  0
  5  6  1  0  0  0  0
  6  7  1  0  0  0  0
  7  8  1  0  0  0  0
  9 30  1  0  0  0  0
  9 31  1  0  0  0  0
  9 32  2  0  0  0  0
 10 11  2  0  0  0  0
 10 23  1  0  0  0  0
 10 31  1  0  0  0  0
 11 12  1  0  0  0  0
 12 13  2  0  0  0  0
 13 14  1  0  0  0  0
 13 24  1  0  0  0  0
 14 23  2  0  0  0  0
 15 16  1  0  0  0  0
 15 20  2  0  0  0  0
 15 25  1  0  0  0  0
 16 17  2  0  0  0  0
 17 18  1  0  0  0  0
 17 30  1  0  0  0  0
 18 19  2  0  0  0  0
 18 29  1  0  0  0  0
 19 20  1  0  0  0  0
 21 22  1  0  0  0  0
 21 29  1  0  0  0  0
 25 26  1  0  0  0  0
 25 27  1  0  0  0  0
 26 27  1  0  0  0  0
 27 28  1  0  0  0  0
 28 33  2  0  0  0  0
 28 34  1  0  0  0  0
  1 35  1  0  0  0  0
  1 36  1  0  0  0  0
  1 37  1  0  0  0  0
  2 38  1  0  0  0  0
  2 39  1  0  0  0  0
  2 40  1  0  0  0  0
  3 41  1  0  0  0  0
  4 42  1  0  0  0  0
  4 43  1  0  0  0  0
  5 44  1  0  0  0  0
  5 45  1  0  0  0  0
  6 46  1  0  0  0  0
  6 47  1  0  0  0  0
  7 48  1  0  0  0  0
  7 49  1  0  0  0  0
  8 50  1  0  0  0  0
  8 51  1  0  0  0  0
 11 52  1  0  0  0  0
 12 53  1  0  0  0  0
 14 54  1  0  0  0  0
 16 55  1  0  0  0  0
 19 56  1  0  0  0  0
 20 57  1  0  0  0  0
 21 58  1  0  0  0  0
 21 59  1  0  0  0  0
 22 60  1  0  0  0  0
 23 61  1  0  0  0  0
 24 62  1  0  0  0  0
 24 63  1  0  0  0  0
 24 64  1  0  0  0  0
 25 65  1  0  0  0  0
 26 66  1  0  0  0  0
 26 67  1  0  0  0  0
 27 68  1  0  0  0  0
 30 69  1  0  0  0  0
 31 70  1  0  0  0  0
M  CHG  1  34  -1
M  END
> <BIOSOLVEIT.HYDE_ESTIMATED_AFFINITY_LOWER_BOUNDARY [nM]>
0.000004

> <BIOSOLVEIT.HYDE_ESTIMATED_AFFINITY_UPPER_BOUNDARY [nM]>
0.001000

> <BIOSOLVEIT.HYDE_LIGAND_EFFICIENCY range: ++, +, 0, -, -->
++

> <BIOSOLVEIT.HYDE_LIGAND_LIPOPHILIC_EFFICIENCY range: ++, +, 0, -, -->
++

> <BIOSOLVEIT.LOGP>
5.28752

> <BIOSOLVEIT.MOLECULAR WEIGHT>
462.61

> <BIOSOLVEIT.MOLECULE_CHECKSUM>
LTc2LjQ4MDY7Mi4yNDk0Mw==

> <BIOSOLVEIT.TPSA>
84.5

> <OPTIBRIUM.BBB category>
-

> <OPTIBRIUM.PPB90 category>
high

> <OPTIBRIUM.2C9 pKi>
5.44318

> <OPTIBRIUM.logS @ pH7.4>
1.06418

> <OPTIBRIUM.BBB log([brain]:[blood])>
-1.05937

> <OPTIBRIUM.2D6 affinity category>
very high

> <OPTIBRIUM.logS>
-0.0360883

> <OPTIBRIUM.logD>
2.62209

> <OPTIBRIUM.hERG pIC50>
5.44703

> <OPTIBRIUM.logP>
5.98503

> <OPTIBRIUM.HIA category>
+

> <OPTIBRIUM.P-gp category>
yes

$$$$
