# created with PyMOL 2.5.2
@<TRIPOS>MOLECULE
HQM_C_501_1_001
70 73 1                 
SMALL
USER_CHARGES
@<TRIPOS>ATOM
1	   C	25.378	78.981	17.241	C.3	1	UNK0	0.000	
2	   C	24.779	76.787	16.033	C.3	1	UNK0	0.000	
3	   C	20.452	78.730	16.966	C.3	1	UNK0	0.000	
4	   C	20.238	77.798	18.150	C.3	1	UNK0	0.000	
5	   C	19.998	78.561	19.444	C.3	1	UNK0	0.000	
6	   C	18.806	79.479	19.236	C.3	1	UNK0	0.000	
7	   C	19.021	80.440	18.075	C.3	1	UNK0	0.000	
8	   C	20.341	80.195	17.362	C.3	1	UNK0	0.000	
9	   C	20.426	75.735	13.590	C.2	1	UNK0	0.000	
10	   C	19.236	73.534	13.653	C.2	1	UNK0	0.000	
11	   C	19.565	72.208	13.391	C.2	1	UNK0	0.000	
12	   C	18.608	71.344	12.869	C.2	1	UNK0	0.000	
13	   C	17.327	71.824	12.617	C.2	1	UNK0	0.000	
14	   C	16.993	73.149	12.877	C.2	1	UNK0	0.000	
15	   C	22.097	79.497	12.203	C.2	1	UNK0	0.000	
16	   C	21.804	78.183	12.550	C.2	1	UNK0	0.000	
17	   C	21.711	77.853	13.897	C.2	1	UNK0	0.000	
18	   C	21.907	78.821	14.877	C.2	1	UNK0	0.000	
19	   C	22.200	80.134	14.525	C.2	1	UNK0	0.000	
20	   C	22.294	80.470	13.178	C.2	1	UNK0	0.000	
21	   C	23.007	78.117	17.171	C.3	1	UNK0	0.000	
22	   C	24.340	78.220	16.352	C.3	1	UNK0	0.000	
23	   C	17.954	74.009	13.399	C.2	1	UNK0	0.000	
24	   C	16.271	70.890	12.048	C.3	1	UNK0	0.000	
25	   C	22.200	79.864	10.732	C.3	1	UNK0	0.000	
26	   C	21.647	78.783	9.850	C.3	1	UNK0	0.000	
27	   C	20.876	80.059	10.048	C.3	1	UNK0	0.000	
28	   C	19.672	79.845	10.952	C.2	1	UNK0	0.000	
29	   N	21.803	78.453	16.326	N.pl3	1	UNK0	0.000	
30	   N	21.418	76.537	14.276	N.pl3	1	UNK0	0.000	
31	   N	20.250	74.428	14.199	N.pl3	1	UNK0	0.000	
32	   O	19.804	76.157	12.662	O.2	1	UNK0	0.000	
33	   O	19.126	78.709	11.076	O.co2	1	UNK0	0.000	
34	   O	19.208	80.827	11.586	O.co2	1	UNK0	0.000	
35	   H	25.048	79.907	17.421	 H	1	UNK0	0.000	
36	   H	25.495	78.494	18.107	 H	1	UNK0	0.000	
37	   H	26.256	79.026	16.764	 H	1	UNK0	0.000	
38	   H	24.085	76.345	15.465	 H	1	UNK0	0.000	
39	   H	25.650	76.807	15.541	 H	1	UNK0	0.000	
40	   H	24.889	76.275	16.885	 H	1	UNK0	0.000	
41	   H	19.743	78.538	16.288	 H	1	UNK0	0.000	
42	   H	21.049	77.225	18.260	 H	1	UNK0	0.000	
43	   H	19.443	77.220	17.965	 H	1	UNK0	0.000	
44	   H	20.807	79.102	19.673	 H	1	UNK0	0.000	
45	   H	19.806	77.918	20.185	 H	1	UNK0	0.000	
46	   H	18.658	80.010	20.070	 H	1	UNK0	0.000	
47	   H	17.997	78.921	19.047	 H	1	UNK0	0.000	
48	   H	19.013	81.377	18.426	 H	1	UNK0	0.000	
49	   H	18.275	80.325	17.419	 H	1	UNK0	0.000	
50	   H	20.386	80.764	16.541	 H	1	UNK0	0.000	
51	   H	21.097	80.431	17.973	 H	1	UNK0	0.000	
52	   H	20.490	71.876	13.577	 H	1	UNK0	0.000	
53	   H	18.838	70.390	12.678	 H	1	UNK0	0.000	
54	   H	16.069	73.480	12.691	 H	1	UNK0	0.000	
55	   H	21.663	77.488	11.844	 H	1	UNK0	0.000	
56	   H	22.340	80.828	15.231	 H	1	UNK0	0.000	
57	   H	22.504	81.410	12.911	 H	1	UNK0	0.000	
58	   H	23.051	78.754	17.941	 H	1	UNK0	0.000	
59	   H	22.911	77.183	17.516	 H	1	UNK0	0.000	
60	   H	24.182	78.726	15.504	 H	1	UNK0	0.000	
61	   H	17.724	74.964	13.590	 H	1	UNK0	0.000	
62	   H	15.414	71.390	11.928	 H	1	UNK0	0.000	
63	   H	16.579	70.538	11.164	 H	1	UNK0	0.000	
64	   H	16.127	70.127	12.678	 H	1	UNK0	0.000	
65	   H	22.990	80.390	10.417	 H	1	UNK0	0.000	
66	   H	21.315	77.930	10.253	 H	1	UNK0	0.000	
67	   H	22.076	78.590	8.967	 H	1	UNK0	0.000	
68	   H	20.809	80.711	9.292	 H	1	UNK0	0.000	
69	   H	21.912	76.137	15.048	 H	1	UNK0	0.000	
70	   H	20.812	74.147	14.976	 H	1	UNK0	0.000	
@<TRIPOS>BOND
1 1 22 1
2 2 22 1
3 3 4 1
4 3 8 1
5 3 29 1
6 4 5 1
7 5 6 1
8 6 7 1
9 7 8 1
10 9 30 1
11 9 31 1
12 9 32 2
13 10 11 2
14 10 23 1
15 10 31 1
16 11 12 1
17 12 13 2
18 13 14 1
19 13 24 1
20 14 23 2
21 15 16 1
22 15 20 2
23 15 25 1
24 16 17 2
25 17 18 1
26 17 30 1
27 18 19 2
28 18 29 1
29 19 20 1
30 21 22 1
31 21 29 1
32 25 26 1
33 25 27 1
34 26 27 1
35 27 28 1
36 28 33 2
37 28 34 1
38 1 35 1
39 1 36 1
40 1 37 1
41 2 38 1
42 2 39 1
43 2 40 1
44 3 41 1
45 4 42 1
46 4 43 1
47 5 44 1
48 5 45 1
49 6 46 1
50 6 47 1
51 7 48 1
52 7 49 1
53 8 50 1
54 8 51 1
55 11 52 1
56 12 53 1
57 14 54 1
58 16 55 1
59 19 56 1
60 20 57 1
61 21 58 1
62 21 59 1
63 22 60 1
64 23 61 1
65 24 62 1
66 24 63 1
67 24 64 1
68 25 65 1
69 26 66 1
70 26 67 1
71 27 68 1
72 30 69 1
73 31 70 1
@<TRIPOS>SUBSTRUCTURE
1	UNK0	1	GROUP	1 ****	UNK
