# created with PyMOL 2.5.2
@<TRIPOS>MOLECULE
HRQ_B_201_1_010
49 52 1                 
SMALL
USER_CHARGES
@<TRIPOS>ATOM
1	   C	-2.506	19.889	-9.931	C.2	1	UNK0	0.000	
2	   C	-3.816	20.300	-10.155	C.2	1	UNK0	0.000	
3	   C	-4.539	19.824	-11.243	C.2	1	UNK0	0.000	
4	   C	-6.353	21.204	-10.518	C.3	1	UNK0	0.000	
5	   C	-1.025	16.937	-13.098	C.2	1	UNK0	0.000	
6	   C	0.886	15.808	-12.049	C.3	1	UNK0	0.000	
7	   C	0.804	14.589	-12.952	C.3	1	UNK0	0.000	
8	   C	2.307	14.195	-11.152	C.3	1	UNK0	0.000	
9	   C	1.225	15.156	-10.724	C.3	1	UNK0	0.000	
10	   C	2.075	12.373	-12.915	C.2	1	UNK0	0.000	
11	   C	1.206	11.775	-13.821	C.2	1	UNK0	0.000	
12	   C	1.512	10.529	-14.359	C.2	1	UNK0	0.000	
13	   C	2.690	9.897	-13.979	C.2	1	UNK0	0.000	
14	   C	3.563	10.491	-13.073	C.2	1	UNK0	0.000	
15	   C	3.253	11.737	-12.537	C.2	1	UNK0	0.000	
16	   C	3.036	8.536	-14.559	C.3	1	UNK0	0.000	
17	   C	-1.902	18.990	-10.801	C.2	1	UNK0	0.000	
18	   C	-2.637	18.523	-11.885	C.2	1	UNK0	0.000	
19	   C	-3.932	18.924	-12.114	C.2	1	UNK0	0.000	
20	   N	-4.384	18.302	-13.243	N.pl3	1	UNK0	0.000	
21	   C	-3.391	17.507	-13.739	C.2	1	UNK0	0.000	
22	   C	-2.310	17.624	-12.922	C.2	1	UNK0	0.000	
23	   O	-5.809	20.238	-11.439	O.3	1	UNK0	0.000	
24	   N	-0.418	16.480	-11.976	N.pl3	1	UNK0	0.000	
25	   O	-0.520	16.813	-14.217	O.2	1	UNK0	0.000	
26	   N	1.755	13.628	-12.381	N.pl3	1	UNK0	0.000	
27	   H	-1.999	20.241	-9.144	 H	1	UNK0	0.000	
28	   H	-4.244	20.948	-9.524	 H	1	UNK0	0.000	
29	   H	-7.294	21.421	-10.779	 H	1	UNK0	0.000	
30	   H	-6.342	20.826	-9.593	 H	1	UNK0	0.000	
31	   H	-5.800	22.037	-10.544	 H	1	UNK0	0.000	
32	   H	1.607	16.436	-12.344	 H	1	UNK0	0.000	
33	   H	1.064	14.827	-13.888	 H	1	UNK0	0.000	
34	   H	-0.122	14.212	-12.949	 H	1	UNK0	0.000	
35	   H	2.456	13.487	-10.461	 H	1	UNK0	0.000	
36	   H	3.167	14.674	-11.328	 H	1	UNK0	0.000	
37	   H	0.438	14.675	-10.338	 H	1	UNK0	0.000	
38	   H	1.566	15.823	-10.061	 H	1	UNK0	0.000	
39	   H	0.362	12.241	-14.087	 H	1	UNK0	0.000	
40	   H	0.891	10.093	-15.010	 H	1	UNK0	0.000	
41	   H	4.407	10.026	-12.808	 H	1	UNK0	0.000	
42	   H	3.874	12.173	-11.885	 H	1	UNK0	0.000	
43	   H	3.910	8.226	-14.184	 H	1	UNK0	0.000	
44	   H	2.320	7.880	-14.322	 H	1	UNK0	0.000	
45	   H	3.107	8.606	-15.554	 H	1	UNK0	0.000	
46	   H	-0.961	18.686	-10.652	 H	1	UNK0	0.000	
47	   H	-5.295	18.411	-13.642	 H	1	UNK0	0.000	
48	   H	-3.448	16.937	-14.559	 H	1	UNK0	0.000	
49	   H	-0.863	16.602	-11.088	 H	1	UNK0	0.000	
@<TRIPOS>BOND
1 1 2 2
2 1 17 1
3 2 3 1
4 3 19 2
5 3 23 1
6 4 23 1
7 5 22 1
8 5 24 1
9 5 25 2
10 6 7 1
11 6 9 1
12 6 24 1
13 7 26 1
14 8 9 1
15 8 26 1
16 10 11 2
17 10 15 1
18 10 26 1
19 11 12 1
20 12 13 2
21 13 14 1
22 13 16 1
23 14 15 2
24 17 18 2
25 18 19 1
26 18 22 1
27 19 20 1
28 20 21 1
29 21 22 2
30 1 27 1
31 2 28 1
32 4 29 1
33 4 30 1
34 4 31 1
35 6 32 1
36 7 33 1
37 7 34 1
38 8 35 1
39 8 36 1
40 9 37 1
41 9 38 1
42 11 39 1
43 12 40 1
44 14 41 1
45 15 42 1
46 16 43 1
47 16 44 1
48 16 45 1
49 17 46 1
50 20 47 1
51 21 48 1
52 24 49 1
@<TRIPOS>SUBSTRUCTURE
1	UNK0	1	GROUP	1 ****	UNK
