HRQ_B_201_1_010
joSeeSAR  03092212523D 1   1.00000     0.00000     0
SeeSAR 11.2.2 jonathanwahrer
 49 52  0  0  0  0            999 V2000
   -2.5059   19.8894   -9.9306 C   0  0  0  0  0  0  0  0  0  0  0  0
   -3.8163   20.3004  -10.1550 C   0  0  0  0  0  0  0  0  0  0  0  0
   -4.5391   19.8236  -11.2431 C   0  0  0  0  0  0  0  0  0  0  0  0
   -6.3531   21.2044  -10.5184 C   0  0  0  0  0  0  0  0  0  0  0  0
   -1.0245   16.9370  -13.0982 C   0  0  0  0  0  0  0  0  0  0  0  0
    0.8863   15.8081  -12.0490 C   0  0  2  0  0  0  0  0  0  0  0  0
    0.8043   14.5892  -12.9517 C   0  0  0  0  0  0  0  0  0  0  0  0
    2.3075   14.1949  -11.1516 C   0  0  0  0  0  0  0  0  0  0  0  0
    1.2251   15.1556  -10.7240 C   0  0  0  0  0  0  0  0  0  0  0  0
    2.0752   12.3734  -12.9146 C   0  0  0  0  0  0  0  0  0  0  0  0
    1.2061   11.7752  -13.8215 C   0  0  0  0  0  0  0  0  0  0  0  0
    1.5115   10.5292  -14.3587 C   0  0  0  0  0  0  0  0  0  0  0  0
    2.6901    9.8969  -13.9786 C   0  0  0  0  0  0  0  0  0  0  0  0
    3.5626   10.4912  -13.0725 C   0  0  0  0  0  0  0  0  0  0  0  0
    3.2534   11.7373  -12.5370 C   0  0  0  0  0  0  0  0  0  0  0  0
    3.0364    8.5357  -14.5594 C   0  0  0  0  0  0  0  0  0  0  0  0
   -1.9019   18.9898  -10.8014 C   0  0  0  0  0  0  0  0  0  0  0  0
   -2.6371   18.5229  -11.8851 C   0  0  0  0  0  0  0  0  0  0  0  0
   -3.9320   18.9239  -12.1136 C   0  0  0  0  0  0  0  0  0  0  0  0
   -4.3843   18.3016  -13.2430 N   0  0  0  0  0  0  0  0  0  0  0  0
   -3.3907   17.5065  -13.7392 C   0  0  0  0  0  0  0  0  0  0  0  0
   -2.3096   17.6244  -12.9220 C   0  0  0  0  0  0  0  0  0  0  0  0
   -5.8093   20.2378  -11.4395 O   0  0  0  0  0  0  0  0  0  0  0  0
   -0.4181   16.4805  -11.9756 N   0  0  0  0  0  0  0  0  0  0  0  0
   -0.5201   16.8128  -14.2168 O   0  0  0  0  0  0  0  0  0  0  0  0
    1.7550   13.6278  -12.3812 N   0  0  0  0  0  0  0  0  0  0  0  0
   -1.9991   20.2409   -9.1435 H   0  0  0  0  0  0  0  0  0  0  0  0
   -4.2444   20.9480   -9.5245 H   0  0  0  0  0  0  0  0  0  0  0  0
   -7.2940   21.4206  -10.7791 H   0  0  0  0  0  0  0  0  0  0  0  0
   -6.3423   20.8258   -9.5930 H   0  0  0  0  0  0  0  0  0  0  0  0
   -5.8002   22.0372  -10.5444 H   0  0  0  0  0  0  0  0  0  0  0  0
    1.6068   16.4357  -12.3441 H   0  0  0  0  0  0  0  0  0  0  0  0
    1.0643   14.8271  -13.8876 H   0  0  0  0  0  0  0  0  0  0  0  0
   -0.1216   14.2115  -12.9489 H   0  0  0  0  0  0  0  0  0  0  0  0
    2.4563   13.4868  -10.4614 H   0  0  0  0  0  0  0  0  0  0  0  0
    3.1673   14.6740  -11.3285 H   0  0  0  0  0  0  0  0  0  0  0  0
    0.4376   14.6749  -10.3383 H   0  0  0  0  0  0  0  0  0  0  0  0
    1.5656   15.8228  -10.0615 H   0  0  0  0  0  0  0  0  0  0  0  0
    0.3619   12.2409  -14.0870 H   0  0  0  0  0  0  0  0  0  0  0  0
    0.8908   10.0933  -15.0105 H   0  0  0  0  0  0  0  0  0  0  0  0
    4.4070   10.0255  -12.8078 H   0  0  0  0  0  0  0  0  0  0  0  0
    3.8738   12.1730  -11.8849 H   0  0  0  0  0  0  0  0  0  0  0  0
    3.9100    8.2257  -14.1842 H   0  0  0  0  0  0  0  0  0  0  0  0
    2.3200    7.8798  -14.3217 H   0  0  0  0  0  0  0  0  0  0  0  0
    3.1072    8.6059  -15.5544 H   0  0  0  0  0  0  0  0  0  0  0  0
   -0.9611   18.6859  -10.6519 H   0  0  0  0  0  0  0  0  0  0  0  0
   -5.2950   18.4106  -13.6415 H   0  0  0  0  0  0  0  0  0  0  0  0
   -3.4479   16.9373  -14.5595 H   0  0  0  0  0  0  0  0  0  0  0  0
   -0.8628   16.6023  -11.0883 H   0  0  0  0  0  0  0  0  0  0  0  0
  1  2  2  0  0  0  0
  1 17  1  0  0  0  0
  2  3  1  0  0  0  0
  3 19  2  0  0  0  0
  3 23  1  0  0  0  0
  4 23  1  0  0  0  0
  5 22  1  0  0  0  0
  5 24  1  0  0  0  0
  5 25  2  0  0  0  0
  6  7  1  0  0  0  0
  6  9  1  0  0  0  0
  6 24  1  0  0  0  0
  7 26  1  0  0  0  0
  8  9  1  0  0  0  0
  8 26  1  0  0  0  0
 10 11  2  0  0  0  0
 10 15  1  0  0  0  0
 10 26  1  0  0  0  0
 11 12  1  0  0  0  0
 12 13  2  0  0  0  0
 13 14  1  0  0  0  0
 13 16  1  0  0  0  0
 14 15  2  0  0  0  0
 17 18  2  0  0  0  0
 18 19  1  0  0  0  0
 18 22  1  0  0  0  0
 19 20  1  0  0  0  0
 20 21  1  0  0  0  0
 21 22  2  0  0  0  0
  1 27  1  0  0  0  0
  2 28  1  0  0  0  0
  4 29  1  0  0  0  0
  4 30  1  0  0  0  0
  4 31  1  0  0  0  0
  6 32  1  0  0  0  0
  7 33  1  0  0  0  0
  7 34  1  0  0  0  0
  8 35  1  0  0  0  0
  8 36  1  0  0  0  0
  9 37  1  0  0  0  0
  9 38  1  0  0  0  0
 11 39  1  0  0  0  0
 12 40  1  0  0  0  0
 14 41  1  0  0  0  0
 15 42  1  0  0  0  0
 16 43  1  0  0  0  0
 16 44  1  0  0  0  0
 16 45  1  0  0  0  0
 17 46  1  0  0  0  0
 20 47  1  0  0  0  0
 21 48  1  0  0  0  0
 24 49  1  0  0  0  0
M  END
> <BIOSOLVEIT.HYDE_ESTIMATED_AFFINITY_LOWER_BOUNDARY [nM]>
1.503195

> <BIOSOLVEIT.HYDE_ESTIMATED_AFFINITY_UPPER_BOUNDARY [nM]>
149.351284

> <BIOSOLVEIT.HYDE_LIGAND_EFFICIENCY range: ++, +, 0, -, -->
+

> <BIOSOLVEIT.HYDE_LIGAND_LIPOPHILIC_EFFICIENCY range: ++, +, 0, -, -->
0

> <BIOSOLVEIT.LOGP>
3.49362

> <BIOSOLVEIT.MOLECULAR WEIGHT>
349.432

> <BIOSOLVEIT.MOLECULE_CHECKSUM>
LTQ0LjY2MTc7MS43MTc3Ng==

> <BIOSOLVEIT.TPSA>
57.36

> <OPTIBRIUM.BBB category>
-

> <OPTIBRIUM.PPB90 category>
high

> <OPTIBRIUM.2C9 pKi>
5.63445

> <OPTIBRIUM.logS @ pH7.4>
0.861256

> <OPTIBRIUM.BBB log([brain]:[blood])>
-0.144439

> <OPTIBRIUM.2D6 affinity category>
high

> <OPTIBRIUM.logS>
1.60423

> <OPTIBRIUM.logD>
2.69535

> <OPTIBRIUM.hERG pIC50>
4.76557

> <OPTIBRIUM.logP>
3.77012

> <OPTIBRIUM.HIA category>
+

> <OPTIBRIUM.P-gp category>
yes

$$$$
HRQ_B_201_1_001
joSeeSAR  03092212523D 1   1.00000     0.00000     0
SeeSAR 11.2.2 jonathanwahrer
 49 52  0  0  0  0            999 V2000
   -2.3799   19.7566   -9.9301 C   0  0  0  0  0  0  0  0  0  0  0  0
   -3.6706   20.2549  -10.0786 C   0  0  0  0  0  0  0  0  0  0  0  0
   -4.4647   19.8748  -11.1550 C   0  0  0  0  0  0  0  0  0  0  0  0
   -6.1795   21.2824  -10.2603 C   0  0  0  0  0  0  0  0  0  0  0  0
   -1.2115   16.8776  -13.2902 C   0  0  0  0  0  0  0  0  0  0  0  0
    0.5899   15.4907  -12.3930 C   0  0  2  0  0  0  0  0  0  0  0  0
    0.3170   14.0500  -12.7843 C   0  0  0  0  0  0  0  0  0  0  0  0
    2.2041   14.0896  -11.3260 C   0  0  0  0  0  0  0  0  0  0  0  0
    1.2987   15.2811  -11.0661 C   0  0  0  0  0  0  0  0  0  0  0  0
    1.9989   12.1279  -12.9458 C   0  0  0  0  0  0  0  0  0  0  0  0
    3.1735   11.5598  -12.4630 C   0  0  0  0  0  0  0  0  0  0  0  0
    3.6422   10.3670  -13.0032 C   0  0  0  0  0  0  0  0  0  0  0  0
    2.9231    9.7562  -14.0246 C   0  0  0  0  0  0  0  0  0  0  0  0
    1.7478   10.3200  -14.5105 C   0  0  0  0  0  0  0  0  0  0  0  0
    1.2826   11.5134  -13.9679 C   0  0  0  0  0  0  0  0  0  0  0  0
    3.4235    8.4515  -14.6227 C   0  0  0  0  0  0  0  0  0  0  0  0
   -1.8679   18.8658  -10.8664 C   0  0  0  0  0  0  0  0  0  0  0  0
   -2.6735   18.4960  -11.9375 C   0  0  0  0  0  0  0  0  0  0  0  0
   -3.9496   18.9837  -12.0912 C   0  0  0  0  0  0  0  0  0  0  0  0
   -4.4845   18.4444  -13.2272 N   0  0  0  0  0  0  0  0  0  0  0  0
   -3.5623   17.6165  -13.8016 C   0  0  0  0  0  0  0  0  0  0  0  0
   -2.4438   17.6307  -13.0275 C   0  0  0  0  0  0  0  0  0  0  0  0
   -5.7141   20.3726  -11.2772 O   0  0  0  0  0  0  0  0  0  0  0  0
   -0.6513   16.2373  -12.2355 N   0  0  0  0  0  0  0  0  0  0  0  0
   -0.7070   16.8600  -14.4156 O   0  0  0  0  0  0  0  0  0  0  0  0
    1.5386   13.3300  -12.3928 N   0  0  0  0  0  0  0  0  0  0  0  0
   -1.8211   20.0391   -9.1505 H   0  0  0  0  0  0  0  0  0  0  0  0
   -4.0324   20.8957   -9.4014 H   0  0  0  0  0  0  0  0  0  0  0  0
   -7.1129   21.5711  -10.4733 H   0  0  0  0  0  0  0  0  0  0  0  0
   -6.1670   20.8238   -9.3718 H   0  0  0  0  0  0  0  0  0  0  0  0
   -5.5814   22.0832  -10.2306 H   0  0  0  0  0  0  0  0  0  0  0  0
    1.1934   15.9341  -13.0558 H   0  0  0  0  0  0  0  0  0  0  0  0
    0.1610   13.9738  -13.7692 H   0  0  0  0  0  0  0  0  0  0  0  0
   -0.4773   13.6936  -12.2925 H   0  0  0  0  0  0  0  0  0  0  0  0
    2.2952   13.5312  -10.5015 H   0  0  0  0  0  0  0  0  0  0  0  0
    3.1089   14.3945  -11.6238 H   0  0  0  0  0  0  0  0  0  0  0  0
    0.6423   15.0783  -10.3393 H   0  0  0  0  0  0  0  0  0  0  0  0
    1.8339   16.0881  -10.8162 H   0  0  0  0  0  0  0  0  0  0  0  0
    3.6808   12.0091  -11.7276 H   0  0  0  0  0  0  0  0  0  0  0  0
    4.4861    9.9537  -12.6612 H   0  0  0  0  0  0  0  0  0  0  0  0
    1.2404    9.8700  -15.2455 H   0  0  0  0  0  0  0  0  0  0  0  0
    0.4389   11.9269  -14.3102 H   0  0  0  0  0  0  0  0  0  0  0  0
    2.7945    8.1506  -15.3396 H   0  0  0  0  0  0  0  0  0  0  0  0
    4.3329    8.5915  -15.0145 H   0  0  0  0  0  0  0  0  0  0  0  0
    3.4723    7.7540  -13.9078 H   0  0  0  0  0  0  0  0  0  0  0  0
   -0.9421   18.4996  -10.7718 H   0  0  0  0  0  0  0  0  0  0  0  0
   -5.4022   18.6263  -13.5805 H   0  0  0  0  0  0  0  0  0  0  0  0
   -3.6874   17.0920  -14.6438 H   0  0  0  0  0  0  0  0  0  0  0  0
   -1.0944   16.2775  -11.3399 H   0  0  0  0  0  0  0  0  0  0  0  0
  1  2  2  0  0  0  0
  1 17  1  0  0  0  0
  2  3  1  0  0  0  0
  3 19  2  0  0  0  0
  3 23  1  0  0  0  0
  4 23  1  0  0  0  0
  5 22  1  0  0  0  0
  5 24  1  0  0  0  0
  5 25  2  0  0  0  0
  6  7  1  0  0  0  0
  6  9  1  0  0  0  0
  6 24  1  0  0  0  0
  7 26  1  0  0  0  0
  8  9  1  0  0  0  0
  8 26  1  0  0  0  0
 10 11  2  0  0  0  0
 10 15  1  0  0  0  0
 10 26  1  0  0  0  0
 11 12  1  0  0  0  0
 12 13  2  0  0  0  0
 13 14  1  0  0  0  0
 13 16  1  0  0  0  0
 14 15  2  0  0  0  0
 17 18  2  0  0  0  0
 18 19  1  0  0  0  0
 18 22  1  0  0  0  0
 19 20  1  0  0  0  0
 20 21  1  0  0  0  0
 21 22  2  0  0  0  0
  1 27  1  0  0  0  0
  2 28  1  0  0  0  0
  4 29  1  0  0  0  0
  4 30  1  0  0  0  0
  4 31  1  0  0  0  0
  6 32  1  0  0  0  0
  7 33  1  0  0  0  0
  7 34  1  0  0  0  0
  8 35  1  0  0  0  0
  8 36  1  0  0  0  0
  9 37  1  0  0  0  0
  9 38  1  0  0  0  0
 11 39  1  0  0  0  0
 12 40  1  0  0  0  0
 14 41  1  0  0  0  0
 15 42  1  0  0  0  0
 16 43  1  0  0  0  0
 16 44  1  0  0  0  0
 16 45  1  0  0  0  0
 17 46  1  0  0  0  0
 20 47  1  0  0  0  0
 21 48  1  0  0  0  0
 24 49  1  0  0  0  0
M  END
> <BIOSOLVEIT.HYDE_ESTIMATED_AFFINITY_LOWER_BOUNDARY [nM]>
1.532079

> <BIOSOLVEIT.HYDE_ESTIMATED_AFFINITY_UPPER_BOUNDARY [nM]>
152.221103

> <BIOSOLVEIT.HYDE_LIGAND_EFFICIENCY range: ++, +, 0, -, -->
+

> <BIOSOLVEIT.HYDE_LIGAND_LIPOPHILIC_EFFICIENCY range: ++, +, 0, -, -->
0

> <BIOSOLVEIT.LOGP>
3.49362

> <BIOSOLVEIT.MOLECULAR WEIGHT>
349.432

> <BIOSOLVEIT.MOLECULE_CHECKSUM>
LTQ0LjYxNDU7MS43MTU5NA==

> <BIOSOLVEIT.TPSA>
57.36

> <OPTIBRIUM.BBB category>
-

> <OPTIBRIUM.PPB90 category>
high

> <OPTIBRIUM.2C9 pKi>
5.63445

> <OPTIBRIUM.logS @ pH7.4>
0.861256

> <OPTIBRIUM.BBB log([brain]:[blood])>
-0.144439

> <OPTIBRIUM.2D6 affinity category>
high

> <OPTIBRIUM.logS>
1.60423

> <OPTIBRIUM.logD>
2.69535

> <OPTIBRIUM.hERG pIC50>
4.76557

> <OPTIBRIUM.logP>
3.77012

> <OPTIBRIUM.HIA category>
+

> <OPTIBRIUM.P-gp category>
yes

$$$$
HRQ_B_201_1_007
joSeeSAR  03092212523D 1   1.00000     0.00000     0
SeeSAR 11.2.2 jonathanwahrer
 49 52  0  0  0  0            999 V2000
   -2.3060   19.6873   -9.9394 C   0  0  0  0  0  0  0  0  0  0  0  0
   -3.5897   20.2151  -10.0387 C   0  0  0  0  0  0  0  0  0  0  0  0
   -4.4210   19.8790  -11.1015 C   0  0  0  0  0  0  0  0  0  0  0  0
   -6.0798   21.2991  -10.1248 C   0  0  0  0  0  0  0  0  0  0  0  0
   -1.2915   16.8729  -13.4026 C   0  0  0  0  0  0  0  0  0  0  0  0
    0.4801   15.3685  -12.6076 C   0  0  2  0  0  0  0  0  0  0  0  0
    0.1790   13.8926  -12.7386 C   0  0  0  0  0  0  0  0  0  0  0  0
    2.0438   14.0486  -11.3022 C   0  0  0  0  0  0  0  0  0  0  0  0
    1.3857   15.4194  -11.3940 C   0  0  0  0  0  0  0  0  0  0  0  0
    1.9693   12.0729  -12.9117 C   0  0  0  0  0  0  0  0  0  0  0  0
    1.3122   11.4536  -13.9700 C   0  0  0  0  0  0  0  0  0  0  0  0
    1.8332   10.2905  -14.5268 C   0  0  0  0  0  0  0  0  0  0  0  0
    3.0122    9.7616  -14.0132 C   0  0  0  0  0  0  0  0  0  0  0  0
    3.6732   10.3774  -12.9553 C   0  0  0  0  0  0  0  0  0  0  0  0
    3.1487   11.5404  -12.4008 C   0  0  0  0  0  0  0  0  0  0  0  0
    3.5930    8.4918  -14.6134 C   0  0  0  0  0  0  0  0  0  0  0  0
   -1.8388   18.8107  -10.9119 C   0  0  0  0  0  0  0  0  0  0  0  0
   -2.6813   18.4851  -11.9686 C   0  0  0  0  0  0  0  0  0  0  0  0
   -3.9507   19.0021  -12.0740 C   0  0  0  0  0  0  0  0  0  0  0  0
   -4.5281   18.5032  -13.2077 N   0  0  0  0  0  0  0  0  0  0  0  0
   -3.6396   17.6719  -13.8286 C   0  0  0  0  0  0  0  0  0  0  0  0
   -2.5001   17.6436  -13.0862 C   0  0  0  0  0  0  0  0  0  0  0  0
   -5.6627   20.4048  -11.1757 O   0  0  0  0  0  0  0  0  0  0  0  0
   -0.7494   16.1474  -12.3946 N   0  0  0  0  0  0  0  0  0  0  0  0
   -0.7894   16.9148  -14.5283 O   0  0  0  0  0  0  0  0  0  0  0  0
    1.4333   13.2430  -12.3603 N   0  0  0  0  0  0  0  0  0  0  0  0
   -1.7200   19.9383   -9.1689 H   0  0  0  0  0  0  0  0  0  0  0  0
   -3.9190   20.8455   -9.3356 H   0  0  0  0  0  0  0  0  0  0  0  0
   -7.0126   21.6118  -10.3038 H   0  0  0  0  0  0  0  0  0  0  0  0
   -6.0517   20.8191   -9.2480 H   0  0  0  0  0  0  0  0  0  0  0  0
   -5.4644   22.0867  -10.0935 H   0  0  0  0  0  0  0  0  0  0  0  0
    0.9650   15.6982  -13.4177 H   0  0  0  0  0  0  0  0  0  0  0  0
   -0.0713   13.6627  -13.6791 H   0  0  0  0  0  0  0  0  0  0  0  0
   -0.5609   13.6243  -12.1217 H   0  0  0  0  0  0  0  0  0  0  0  0
    1.8698   13.6378  -10.4073 H   0  0  0  0  0  0  0  0  0  0  0  0
    3.0302   14.1251  -11.4478 H   0  0  0  0  0  0  0  0  0  0  0  0
    0.8513   15.6040  -10.5693 H   0  0  0  0  0  0  0  0  0  0  0  0
    2.0793   16.1306  -11.5080 H   0  0  0  0  0  0  0  0  0  0  0  0
    0.4653   11.8447  -14.3304 H   0  0  0  0  0  0  0  0  0  0  0  0
    1.3655    9.8399  -15.2872 H   0  0  0  0  0  0  0  0  0  0  0  0
    4.5204    9.9864  -12.5956 H   0  0  0  0  0  0  0  0  0  0  0  0
    3.6162   11.9907  -11.6401 H   0  0  0  0  0  0  0  0  0  0  0  0
    4.4352    8.2502  -14.1315 H   0  0  0  0  0  0  0  0  0  0  0  0
    2.9316    7.7472  -14.5225 H   0  0  0  0  0  0  0  0  0  0  0  0
    3.7945    8.6424  -15.5813 H   0  0  0  0  0  0  0  0  0  0  0  0
   -0.9187   18.4237  -10.8527 H   0  0  0  0  0  0  0  0  0  0  0  0
   -5.4512   18.7126  -13.5302 H   0  0  0  0  0  0  0  0  0  0  0  0
   -3.7990   17.1719  -14.6798 H   0  0  0  0  0  0  0  0  0  0  0  0
   -1.1897   16.1415  -11.4967 H   0  0  0  0  0  0  0  0  0  0  0  0
  1  2  2  0  0  0  0
  1 17  1  0  0  0  0
  2  3  1  0  0  0  0
  3 19  2  0  0  0  0
  3 23  1  0  0  0  0
  4 23  1  0  0  0  0
  5 22  1  0  0  0  0
  5 24  1  0  0  0  0
  5 25  2  0  0  0  0
  6  7  1  0  0  0  0
  6  9  1  0  0  0  0
  6 24  1  0  0  0  0
  7 26  1  0  0  0  0
  8  9  1  0  0  0  0
  8 26  1  0  0  0  0
 10 11  2  0  0  0  0
 10 15  1  0  0  0  0
 10 26  1  0  0  0  0
 11 12  1  0  0  0  0
 12 13  2  0  0  0  0
 13 14  1  0  0  0  0
 13 16  1  0  0  0  0
 14 15  2  0  0  0  0
 17 18  2  0  0  0  0
 18 19  1  0  0  0  0
 18 22  1  0  0  0  0
 19 20  1  0  0  0  0
 20 21  1  0  0  0  0
 21 22  2  0  0  0  0
  1 27  1  0  0  0  0
  2 28  1  0  0  0  0
  4 29  1  0  0  0  0
  4 30  1  0  0  0  0
  4 31  1  0  0  0  0
  6 32  1  0  0  0  0
  7 33  1  0  0  0  0
  7 34  1  0  0  0  0
  8 35  1  0  0  0  0
  8 36  1  0  0  0  0
  9 37  1  0  0  0  0
  9 38  1  0  0  0  0
 11 39  1  0  0  0  0
 12 40  1  0  0  0  0
 14 41  1  0  0  0  0
 15 42  1  0  0  0  0
 16 43  1  0  0  0  0
 16 44  1  0  0  0  0
 16 45  1  0  0  0  0
 17 46  1  0  0  0  0
 20 47  1  0  0  0  0
 21 48  1  0  0  0  0
 24 49  1  0  0  0  0
M  END
> <BIOSOLVEIT.HYDE_ESTIMATED_AFFINITY_LOWER_BOUNDARY [nM]>
1.852402

> <BIOSOLVEIT.HYDE_ESTIMATED_AFFINITY_UPPER_BOUNDARY [nM]>
184.047126

> <BIOSOLVEIT.HYDE_LIGAND_EFFICIENCY range: ++, +, 0, -, -->
+

> <BIOSOLVEIT.HYDE_LIGAND_LIPOPHILIC_EFFICIENCY range: ++, +, 0, -, -->
0

> <BIOSOLVEIT.LOGP>
3.49362

> <BIOSOLVEIT.MOLECULAR WEIGHT>
349.432

> <BIOSOLVEIT.MOLECULE_CHECKSUM>
LTQ0LjE0Mzg7MS42OTc4NA==

> <BIOSOLVEIT.TPSA>
57.36

> <OPTIBRIUM.BBB category>
-

> <OPTIBRIUM.PPB90 category>
high

> <OPTIBRIUM.2C9 pKi>
5.63445

> <OPTIBRIUM.logS @ pH7.4>
0.861256

> <OPTIBRIUM.BBB log([brain]:[blood])>
-0.144439

> <OPTIBRIUM.2D6 affinity category>
high

> <OPTIBRIUM.logS>
1.60423

> <OPTIBRIUM.logD>
2.69535

> <OPTIBRIUM.hERG pIC50>
4.76557

> <OPTIBRIUM.logP>
3.77012

> <OPTIBRIUM.HIA category>
+

> <OPTIBRIUM.P-gp category>
yes

$$$$
HRQ_B_201_1_004
joSeeSAR  03092212523D 1   1.00000     0.00000     0
SeeSAR 11.2.2 jonathanwahrer
 49 52  0  0  0  0            999 V2000
   -2.3034   19.6850   -9.9392 C   0  0  0  0  0  0  0  0  0  0  0  0
   -3.5866   20.2141  -10.0373 C   0  0  0  0  0  0  0  0  0  0  0  0
   -4.4191   19.8795  -11.0997 C   0  0  0  0  0  0  0  0  0  0  0  0
   -6.0759   21.3001  -10.1206 C   0  0  0  0  0  0  0  0  0  0  0  0
   -1.2940   16.8720  -13.4053 C   0  0  0  0  0  0  0  0  0  0  0  0
    0.4758   15.3641  -12.6130 C   0  0  2  0  0  0  0  0  0  0  0  0
    0.1727   13.8887  -12.7467 C   0  0  0  0  0  0  0  0  0  0  0  0
    2.0379   14.0398  -11.3101 C   0  0  0  0  0  0  0  0  0  0  0  0
    1.3815   15.4116  -11.3994 C   0  0  0  0  0  0  0  0  0  0  0  0
    1.9609   12.0672  -12.9231 C   0  0  0  0  0  0  0  0  0  0  0  0
    3.1412   11.5440  -12.4048 C   0  0  0  0  0  0  0  0  0  0  0  0
    3.6835   10.3830  -12.9455 C   0  0  0  0  0  0  0  0  0  0  0  0
    3.0316    9.7583  -14.0030 C   0  0  0  0  0  0  0  0  0  0  0  0
    1.8508   10.2772  -14.5244 C   0  0  0  0  0  0  0  0  0  0  0  0
    1.3119   11.4390  -13.9812 C   0  0  0  0  0  0  0  0  0  0  0  0
    3.6128    8.4881  -14.6021 C   0  0  0  0  0  0  0  0  0  0  0  0
   -1.8377   18.8087  -10.9127 C   0  0  0  0  0  0  0  0  0  0  0  0
   -2.6813   18.4845  -11.9691 C   0  0  0  0  0  0  0  0  0  0  0  0
   -3.9503   19.0028  -12.0731 C   0  0  0  0  0  0  0  0  0  0  0  0
   -4.5289   18.5052  -13.2068 N   0  0  0  0  0  0  0  0  0  0  0  0
   -3.6417   17.6736  -13.8289 C   0  0  0  0  0  0  0  0  0  0  0  0
   -2.5017   17.6437  -13.0874 C   0  0  0  0  0  0  0  0  0  0  0  0
   -5.6603   20.4064  -11.1727 O   0  0  0  0  0  0  0  0  0  0  0  0
   -0.7528   16.1441  -12.3985 N   0  0  0  0  0  0  0  0  0  0  0  0
   -0.7918   16.9155  -14.5309 O   0  0  0  0  0  0  0  0  0  0  0  0
    1.4263   13.2370  -12.3697 N   0  0  0  0  0  0  0  0  0  0  0  0
   -1.7166   19.9348   -9.1690 H   0  0  0  0  0  0  0  0  0  0  0  0
   -3.9149   20.8442   -9.3336 H   0  0  0  0  0  0  0  0  0  0  0  0
   -7.0086   21.6139  -10.2989 H   0  0  0  0  0  0  0  0  0  0  0  0
   -6.0477   20.8193   -9.2443 H   0  0  0  0  0  0  0  0  0  0  0  0
   -5.4598   22.0871  -10.0890 H   0  0  0  0  0  0  0  0  0  0  0  0
    0.9609   15.6945  -13.4225 H   0  0  0  0  0  0  0  0  0  0  0  0
   -0.0777   13.6609  -13.6875 H   0  0  0  0  0  0  0  0  0  0  0  0
   -0.5674   13.6202  -12.1302 H   0  0  0  0  0  0  0  0  0  0  0  0
    1.8634   13.6277  -10.4159 H   0  0  0  0  0  0  0  0  0  0  0  0
    3.0244   14.1154  -11.4556 H   0  0  0  0  0  0  0  0  0  0  0  0
    0.8472   15.5953  -10.5743 H   0  0  0  0  0  0  0  0  0  0  0  0
    2.0760   16.1222  -11.5121 H   0  0  0  0  0  0  0  0  0  0  0  0
    3.5997   12.0027  -11.6437 H   0  0  0  0  0  0  0  0  0  0  0  0
    4.5320   10.0021  -12.5781 H   0  0  0  0  0  0  0  0  0  0  0  0
    1.3922    9.8179  -15.2850 H   0  0  0  0  0  0  0  0  0  0  0  0
    0.4635   11.8201  -14.3489 H   0  0  0  0  0  0  0  0  0  0  0  0
    3.0254    8.1717  -15.3470 H   0  0  0  0  0  0  0  0  0  0  0  0
    4.5289    8.6755  -14.9566 H   0  0  0  0  0  0  0  0  0  0  0  0
    3.6666    7.7812  -13.8967 H   0  0  0  0  0  0  0  0  0  0  0  0
   -0.9179   18.4208  -10.8545 H   0  0  0  0  0  0  0  0  0  0  0  0
   -5.4521   18.7157  -13.5285 H   0  0  0  0  0  0  0  0  0  0  0  0
   -3.8022   17.1743  -14.6804 H   0  0  0  0  0  0  0  0  0  0  0  0
   -1.1930   16.1371  -11.5007 H   0  0  0  0  0  0  0  0  0  0  0  0
  1  2  2  0  0  0  0
  1 17  1  0  0  0  0
  2  3  1  0  0  0  0
  3 19  2  0  0  0  0
  3 23  1  0  0  0  0
  4 23  1  0  0  0  0
  5 22  1  0  0  0  0
  5 24  1  0  0  0  0
  5 25  2  0  0  0  0
  6  7  1  0  0  0  0
  6  9  1  0  0  0  0
  6 24  1  0  0  0  0
  7 26  1  0  0  0  0
  8  9  1  0  0  0  0
  8 26  1  0  0  0  0
 10 11  2  0  0  0  0
 10 15  1  0  0  0  0
 10 26  1  0  0  0  0
 11 12  1  0  0  0  0
 12 13  2  0  0  0  0
 13 14  1  0  0  0  0
 13 16  1  0  0  0  0
 14 15  2  0  0  0  0
 17 18  2  0  0  0  0
 18 19  1  0  0  0  0
 18 22  1  0  0  0  0
 19 20  1  0  0  0  0
 20 21  1  0  0  0  0
 21 22  2  0  0  0  0
  1 27  1  0  0  0  0
  2 28  1  0  0  0  0
  4 29  1  0  0  0  0
  4 30  1  0  0  0  0
  4 31  1  0  0  0  0
  6 32  1  0  0  0  0
  7 33  1  0  0  0  0
  7 34  1  0  0  0  0
  8 35  1  0  0  0  0
  8 36  1  0  0  0  0
  9 37  1  0  0  0  0
  9 38  1  0  0  0  0
 11 39  1  0  0  0  0
 12 40  1  0  0  0  0
 14 41  1  0  0  0  0
 15 42  1  0  0  0  0
 16 43  1  0  0  0  0
 16 44  1  0  0  0  0
 16 45  1  0  0  0  0
 17 46  1  0  0  0  0
 20 47  1  0  0  0  0
 21 48  1  0  0  0  0
 24 49  1  0  0  0  0
M  END
> <BIOSOLVEIT.HYDE_ESTIMATED_AFFINITY_LOWER_BOUNDARY [nM]>
1.940995

> <BIOSOLVEIT.HYDE_ESTIMATED_AFFINITY_UPPER_BOUNDARY [nM]>
192.849371

> <BIOSOLVEIT.HYDE_LIGAND_EFFICIENCY range: ++, +, 0, -, -->
+

> <BIOSOLVEIT.HYDE_LIGAND_LIPOPHILIC_EFFICIENCY range: ++, +, 0, -, -->
0

> <BIOSOLVEIT.LOGP>
3.49362

> <BIOSOLVEIT.MOLECULAR WEIGHT>
349.432

> <BIOSOLVEIT.MOLECULE_CHECKSUM>
LTQ0LjAyODsxLjY5MzM5

> <BIOSOLVEIT.TPSA>
57.36

> <OPTIBRIUM.BBB category>
-

> <OPTIBRIUM.PPB90 category>
high

> <OPTIBRIUM.2C9 pKi>
5.63445

> <OPTIBRIUM.logS @ pH7.4>
0.861256

> <OPTIBRIUM.BBB log([brain]:[blood])>
-0.144439

> <OPTIBRIUM.2D6 affinity category>
high

> <OPTIBRIUM.logS>
1.60423

> <OPTIBRIUM.logD>
2.69535

> <OPTIBRIUM.hERG pIC50>
4.76557

> <OPTIBRIUM.logP>
3.77012

> <OPTIBRIUM.HIA category>
+

> <OPTIBRIUM.P-gp category>
yes

$$$$
HRQ_B_201_1_009
joSeeSAR  03092212523D 1   1.00000     0.00000     0
SeeSAR 11.2.2 jonathanwahrer
 49 52  0  0  0  0            999 V2000
   -2.3050   19.7175   -9.8905 C   0  0  0  0  0  0  0  0  0  0  0  0
   -3.5864   20.2525   -9.9814 C   0  0  0  0  0  0  0  0  0  0  0  0
   -4.4232   19.9282  -11.0436 C   0  0  0  0  0  0  0  0  0  0  0  0
   -6.0739   21.3439  -10.0471 C   0  0  0  0  0  0  0  0  0  0  0  0
   -1.3170   16.9231  -13.3776 C   0  0  0  0  0  0  0  0  0  0  0  0
    0.4569   15.4141  -12.5970 C   0  0  2  0  0  0  0  0  0  0  0  0
    0.1509   13.9385  -12.7202 C   0  0  0  0  0  0  0  0  0  0  0  0
    2.0307   14.0945  -11.3035 C   0  0  0  0  0  0  0  0  0  0  0  0
    1.3751   15.4666  -11.3930 C   0  0  0  0  0  0  0  0  0  0  0  0
    1.9350   12.1140  -12.9058 C   0  0  0  0  0  0  0  0  0  0  0  0
    1.2664   11.4939  -13.9566 C   0  0  0  0  0  0  0  0  0  0  0  0
    1.7789   10.3277  -14.5150 C   0  0  0  0  0  0  0  0  0  0  0  0
    2.9609    9.7965  -14.0107 C   0  0  0  0  0  0  0  0  0  0  0  0
    3.6332   10.4131  -12.9603 C   0  0  0  0  0  0  0  0  0  0  0  0
    3.1172   11.5792  -12.4042 C   0  0  0  0  0  0  0  0  0  0  0  0
    3.5324    8.5234  -14.6128 C   0  0  0  0  0  0  0  0  0  0  0  0
   -1.8458   18.8458  -10.8710 C   0  0  0  0  0  0  0  0  0  0  0  0
   -2.6936   18.5319  -11.9271 C   0  0  0  0  0  0  0  0  0  0  0  0
   -3.9608   19.0560  -12.0241 C   0  0  0  0  0  0  0  0  0  0  0  0
   -4.5447   18.5680  -13.1592 N   0  0  0  0  0  0  0  0  0  0  0  0
   -3.6627   17.7369  -13.7893 C   0  0  0  0  0  0  0  0  0  0  0  0
   -2.5207   17.6977  -13.0514 C   0  0  0  0  0  0  0  0  0  0  0  0
   -5.6625   20.4606  -11.1096 O   0  0  0  0  0  0  0  0  0  0  0  0
   -0.7684   16.1967  -12.3738 N   0  0  0  0  0  0  0  0  0  0  0  0
   -0.8245   16.9632  -14.5076 O   0  0  0  0  0  0  0  0  0  0  0  0
    1.4075   13.2872  -12.3528 N   0  0  0  0  0  0  0  0  0  0  0  0
   -1.7151   19.9600   -9.1204 H   0  0  0  0  0  0  0  0  0  0  0  0
   -3.9101   20.8793   -9.2727 H   0  0  0  0  0  0  0  0  0  0  0  0
   -7.0055   21.6632  -10.2209 H   0  0  0  0  0  0  0  0  0  0  0  0
   -6.0468   20.8531   -9.1762 H   0  0  0  0  0  0  0  0  0  0  0  0
   -5.4548   22.1282  -10.0071 H   0  0  0  0  0  0  0  0  0  0  0  0
    0.9342   15.7400  -13.4130 H   0  0  0  0  0  0  0  0  0  0  0  0
   -0.1095   13.7063  -13.6574 H   0  0  0  0  0  0  0  0  0  0  0  0
   -0.5832   13.6740  -12.0950 H   0  0  0  0  0  0  0  0  0  0  0  0
    1.8649   13.6869  -10.4056 H   0  0  0  0  0  0  0  0  0  0  0  0
    3.0158   14.1682  -11.4595 H   0  0  0  0  0  0  0  0  0  0  0  0
    0.8495   15.6551  -10.5634 H   0  0  0  0  0  0  0  0  0  0  0  0
    2.0692   16.1758  -11.5163 H   0  0  0  0  0  0  0  0  0  0  0  0
    0.4176   11.8866  -14.3105 H   0  0  0  0  0  0  0  0  0  0  0  0
    1.3031    9.8767  -15.2700 H   0  0  0  0  0  0  0  0  0  0  0  0
    4.4824   10.0205  -12.6072 H   0  0  0  0  0  0  0  0  0  0  0  0
    3.5929   12.0300  -11.6489 H   0  0  0  0  0  0  0  0  0  0  0  0
    4.3782    8.2805  -14.1377 H   0  0  0  0  0  0  0  0  0  0  0  0
    2.8696    7.7812  -14.5140 H   0  0  0  0  0  0  0  0  0  0  0  0
    3.7256    8.6708  -15.5828 H   0  0  0  0  0  0  0  0  0  0  0  0
   -0.9273   18.4537  -10.8180 H   0  0  0  0  0  0  0  0  0  0  0  0
   -5.4680   18.7843  -13.4769 H   0  0  0  0  0  0  0  0  0  0  0  0
   -3.8276   17.2439  -14.6435 H   0  0  0  0  0  0  0  0  0  0  0  0
   -1.2010   16.1925  -11.4723 H   0  0  0  0  0  0  0  0  0  0  0  0
  1  2  2  0  0  0  0
  1 17  1  0  0  0  0
  2  3  1  0  0  0  0
  3 19  2  0  0  0  0
  3 23  1  0  0  0  0
  4 23  1  0  0  0  0
  5 22  1  0  0  0  0
  5 24  1  0  0  0  0
  5 25  2  0  0  0  0
  6  7  1  0  0  0  0
  6  9  1  0  0  0  0
  6 24  1  0  0  0  0
  7 26  1  0  0  0  0
  8  9  1  0  0  0  0
  8 26  1  0  0  0  0
 10 11  2  0  0  0  0
 10 15  1  0  0  0  0
 10 26  1  0  0  0  0
 11 12  1  0  0  0  0
 12 13  2  0  0  0  0
 13 14  1  0  0  0  0
 13 16  1  0  0  0  0
 14 15  2  0  0  0  0
 17 18  2  0  0  0  0
 18 19  1  0  0  0  0
 18 22  1  0  0  0  0
 19 20  1  0  0  0  0
 20 21  1  0  0  0  0
 21 22  2  0  0  0  0
  1 27  1  0  0  0  0
  2 28  1  0  0  0  0
  4 29  1  0  0  0  0
  4 30  1  0  0  0  0
  4 31  1  0  0  0  0
  6 32  1  0  0  0  0
  7 33  1  0  0  0  0
  7 34  1  0  0  0  0
  8 35  1  0  0  0  0
  8 36  1  0  0  0  0
  9 37  1  0  0  0  0
  9 38  1  0  0  0  0
 11 39  1  0  0  0  0
 12 40  1  0  0  0  0
 14 41  1  0  0  0  0
 15 42  1  0  0  0  0
 16 43  1  0  0  0  0
 16 44  1  0  0  0  0
 16 45  1  0  0  0  0
 17 46  1  0  0  0  0
 20 47  1  0  0  0  0
 21 48  1  0  0  0  0
 24 49  1  0  0  0  0
M  END
> <BIOSOLVEIT.HYDE_ESTIMATED_AFFINITY_LOWER_BOUNDARY [nM]>
2.453254

> <BIOSOLVEIT.HYDE_ESTIMATED_AFFINITY_UPPER_BOUNDARY [nM]>
243.745275

> <BIOSOLVEIT.HYDE_LIGAND_EFFICIENCY range: ++, +, 0, -, -->
0

> <BIOSOLVEIT.HYDE_LIGAND_LIPOPHILIC_EFFICIENCY range: ++, +, 0, -, -->
0

> <BIOSOLVEIT.LOGP>
3.49362

> <BIOSOLVEIT.MOLECULAR WEIGHT>
349.432

> <BIOSOLVEIT.MOLECULE_CHECKSUM>
LTQzLjQ0NzQ7MS42NzEwNQ==

> <BIOSOLVEIT.TPSA>
57.36

> <OPTIBRIUM.BBB category>
-

> <OPTIBRIUM.PPB90 category>
high

> <OPTIBRIUM.2C9 pKi>
5.63445

> <OPTIBRIUM.logS @ pH7.4>
0.861256

> <OPTIBRIUM.BBB log([brain]:[blood])>
-0.144439

> <OPTIBRIUM.2D6 affinity category>
high

> <OPTIBRIUM.logS>
1.60423

> <OPTIBRIUM.logD>
2.69535

> <OPTIBRIUM.hERG pIC50>
4.76557

> <OPTIBRIUM.logP>
3.77012

> <OPTIBRIUM.HIA category>
+

> <OPTIBRIUM.P-gp category>
yes

$$$$
HRQ_B_201_1_006
joSeeSAR  03092212523D 1   1.00000     0.00000     0
SeeSAR 11.2.2 jonathanwahrer
 49 52  0  0  0  0            999 V2000
   -2.3041   19.7162   -9.8911 C   0  0  0  0  0  0  0  0  0  0  0  0
   -3.5857   20.2507   -9.9817 C   0  0  0  0  0  0  0  0  0  0  0  0
   -4.4225   19.9261  -11.0439 C   0  0  0  0  0  0  0  0  0  0  0  0
   -6.0730   21.3424  -10.0477 C   0  0  0  0  0  0  0  0  0  0  0  0
   -1.3154   16.9229  -13.3789 C   0  0  0  0  0  0  0  0  0  0  0  0
    0.4475   15.4216  -12.5966 C   0  0  2  0  0  0  0  0  0  0  0  0
    0.1422   13.9457  -12.7186 C   0  0  0  0  0  0  0  0  0  0  0  0
    2.0230   14.1038  -11.3034 C   0  0  0  0  0  0  0  0  0  0  0  0
    1.3665   15.4754  -11.3934 C   0  0  0  0  0  0  0  0  0  0  0  0
    1.9280   12.1197  -12.9051 C   0  0  0  0  0  0  0  0  0  0  0  0
    1.2594   11.4986  -13.9552 C   0  0  0  0  0  0  0  0  0  0  0  0
    1.7721   10.3323  -14.5131 C   0  0  0  0  0  0  0  0  0  0  0  0
    2.9545    9.8020  -14.0089 C   0  0  0  0  0  0  0  0  0  0  0  0
    3.6271   10.4196  -12.9594 C   0  0  0  0  0  0  0  0  0  0  0  0
    3.1108   11.5858  -12.4037 C   0  0  0  0  0  0  0  0  0  0  0  0
    3.5263    8.5286  -14.6105 C   0  0  0  0  0  0  0  0  0  0  0  0
   -1.8445   18.8448  -10.8718 C   0  0  0  0  0  0  0  0  0  0  0  0
   -2.6925   18.5308  -11.9278 C   0  0  0  0  0  0  0  0  0  0  0  0
   -3.9599   19.0543  -12.0245 C   0  0  0  0  0  0  0  0  0  0  0  0
   -4.5437   18.5664  -13.1597 N   0  0  0  0  0  0  0  0  0  0  0  0
   -3.6614   17.7359  -13.7901 C   0  0  0  0  0  0  0  0  0  0  0  0
   -2.5193   17.6968  -13.0522 C   0  0  0  0  0  0  0  0  0  0  0  0
   -5.6620   20.4581  -11.1095 O   0  0  0  0  0  0  0  0  0  0  0  0
   -0.7665   16.1962  -12.3753 N   0  0  0  0  0  0  0  0  0  0  0  0
   -0.8228   16.9635  -14.5089 O   0  0  0  0  0  0  0  0  0  0  0  0
    1.3994   13.2953  -12.3516 N   0  0  0  0  0  0  0  0  0  0  0  0
   -1.7141   19.9587   -9.1210 H   0  0  0  0  0  0  0  0  0  0  0  0
   -3.9095   20.8772   -9.2728 H   0  0  0  0  0  0  0  0  0  0  0  0
   -7.0048   21.6612  -10.2213 H   0  0  0  0  0  0  0  0  0  0  0  0
   -6.0452   20.8525   -9.1764 H   0  0  0  0  0  0  0  0  0  0  0  0
   -5.4541   22.1269  -10.0090 H   0  0  0  0  0  0  0  0  0  0  0  0
    0.9240   15.7471  -13.4134 H   0  0  0  0  0  0  0  0  0  0  0  0
   -0.1188   13.7126  -13.6554 H   0  0  0  0  0  0  0  0  0  0  0  0
   -0.5914   13.6812  -12.0925 H   0  0  0  0  0  0  0  0  0  0  0  0
    1.8580   13.6969  -10.4049 H   0  0  0  0  0  0  0  0  0  0  0  0
    3.0078   14.1779  -11.4601 H   0  0  0  0  0  0  0  0  0  0  0  0
    0.8414   15.6643  -10.5636 H   0  0  0  0  0  0  0  0  0  0  0  0
    2.0602   16.1850  -11.5176 H   0  0  0  0  0  0  0  0  0  0  0  0
    0.4102   11.8908  -14.3088 H   0  0  0  0  0  0  0  0  0  0  0  0
    1.2960    9.8805  -15.2676 H   0  0  0  0  0  0  0  0  0  0  0  0
    4.4766   10.0274  -12.6064 H   0  0  0  0  0  0  0  0  0  0  0  0
    3.5867   12.0372  -11.6490 H   0  0  0  0  0  0  0  0  0  0  0  0
    4.3724    8.2865  -14.1357 H   0  0  0  0  0  0  0  0  0  0  0  0
    2.8639    7.7862  -14.5108 H   0  0  0  0  0  0  0  0  0  0  0  0
    3.7189    8.6756  -15.5807 H   0  0  0  0  0  0  0  0  0  0  0  0
   -0.9259   18.4531  -10.8190 H   0  0  0  0  0  0  0  0  0  0  0  0
   -5.4671   18.7825  -13.4773 H   0  0  0  0  0  0  0  0  0  0  0  0
   -3.8262   17.2429  -14.6444 H   0  0  0  0  0  0  0  0  0  0  0  0
   -1.1991   16.1916  -11.4737 H   0  0  0  0  0  0  0  0  0  0  0  0
  1  2  2  0  0  0  0
  1 17  1  0  0  0  0
  2  3  1  0  0  0  0
  3 19  2  0  0  0  0
  3 23  1  0  0  0  0
  4 23  1  0  0  0  0
  5 22  1  0  0  0  0
  5 24  1  0  0  0  0
  5 25  2  0  0  0  0
  6  7  1  0  0  0  0
  6  9  1  0  0  0  0
  6 24  1  0  0  0  0
  7 26  1  0  0  0  0
  8  9  1  0  0  0  0
  8 26  1  0  0  0  0
 10 11  2  0  0  0  0
 10 15  1  0  0  0  0
 10 26  1  0  0  0  0
 11 12  1  0  0  0  0
 12 13  2  0  0  0  0
 13 14  1  0  0  0  0
 13 16  1  0  0  0  0
 14 15  2  0  0  0  0
 17 18  2  0  0  0  0
 18 19  1  0  0  0  0
 18 22  1  0  0  0  0
 19 20  1  0  0  0  0
 20 21  1  0  0  0  0
 21 22  2  0  0  0  0
  1 27  1  0  0  0  0
  2 28  1  0  0  0  0
  4 29  1  0  0  0  0
  4 30  1  0  0  0  0
  4 31  1  0  0  0  0
  6 32  1  0  0  0  0
  7 33  1  0  0  0  0
  7 34  1  0  0  0  0
  8 35  1  0  0  0  0
  8 36  1  0  0  0  0
  9 37  1  0  0  0  0
  9 38  1  0  0  0  0
 11 39  1  0  0  0  0
 12 40  1  0  0  0  0
 14 41  1  0  0  0  0
 15 42  1  0  0  0  0
 16 43  1  0  0  0  0
 16 44  1  0  0  0  0
 16 45  1  0  0  0  0
 17 46  1  0  0  0  0
 20 47  1  0  0  0  0
 21 48  1  0  0  0  0
 24 49  1  0  0  0  0
M  END
> <BIOSOLVEIT.HYDE_ESTIMATED_AFFINITY_LOWER_BOUNDARY [nM]>
2.523295

> <BIOSOLVEIT.HYDE_ESTIMATED_AFFINITY_UPPER_BOUNDARY [nM]>
250.704263

> <BIOSOLVEIT.HYDE_LIGAND_EFFICIENCY range: ++, +, 0, -, -->
0

> <BIOSOLVEIT.HYDE_LIGAND_LIPOPHILIC_EFFICIENCY range: ++, +, 0, -, -->
0

> <BIOSOLVEIT.LOGP>
3.49362

> <BIOSOLVEIT.MOLECULAR WEIGHT>
349.432

> <BIOSOLVEIT.MOLECULE_CHECKSUM>
LTQzLjM3NzY7MS42NjgzNw==

> <BIOSOLVEIT.TPSA>
57.36

> <OPTIBRIUM.BBB category>
-

> <OPTIBRIUM.PPB90 category>
high

> <OPTIBRIUM.2C9 pKi>
5.63445

> <OPTIBRIUM.logS @ pH7.4>
0.861256

> <OPTIBRIUM.BBB log([brain]:[blood])>
-0.144439

> <OPTIBRIUM.2D6 affinity category>
high

> <OPTIBRIUM.logS>
1.60423

> <OPTIBRIUM.logD>
2.69535

> <OPTIBRIUM.hERG pIC50>
4.76557

> <OPTIBRIUM.logP>
3.77012

> <OPTIBRIUM.HIA category>
+

> <OPTIBRIUM.P-gp category>
yes

$$$$
HRQ_B_201_1_008
joSeeSAR  03092212523D 1   1.00000     0.00000     0
SeeSAR 11.2.2 jonathanwahrer
 49 52  0  0  0  0            999 V2000
   -2.3042   19.7162   -9.8911 C   0  0  0  0  0  0  0  0  0  0  0  0
   -3.5857   20.2507   -9.9817 C   0  0  0  0  0  0  0  0  0  0  0  0
   -4.4226   19.9262  -11.0439 C   0  0  0  0  0  0  0  0  0  0  0  0
   -6.0731   21.3425  -10.0478 C   0  0  0  0  0  0  0  0  0  0  0  0
   -1.3154   16.9229  -13.3789 C   0  0  0  0  0  0  0  0  0  0  0  0
    0.4475   15.4216  -12.5966 C   0  0  2  0  0  0  0  0  0  0  0  0
    0.1422   13.9457  -12.7186 C   0  0  0  0  0  0  0  0  0  0  0  0
    2.0230   14.1037  -11.3034 C   0  0  0  0  0  0  0  0  0  0  0  0
    1.3666   15.4754  -11.3935 C   0  0  0  0  0  0  0  0  0  0  0  0
    1.9281   12.1197  -12.9052 C   0  0  0  0  0  0  0  0  0  0  0  0
    1.2594   11.4987  -13.9554 C   0  0  0  0  0  0  0  0  0  0  0  0
    1.7721   10.3323  -14.5132 C   0  0  0  0  0  0  0  0  0  0  0  0
    2.9543    9.8019  -14.0090 C   0  0  0  0  0  0  0  0  0  0  0  0
    3.6269   10.4193  -12.9593 C   0  0  0  0  0  0  0  0  0  0  0  0
    3.1107   11.5856  -12.4037 C   0  0  0  0  0  0  0  0  0  0  0  0
    3.5262    8.5286  -14.6105 C   0  0  0  0  0  0  0  0  0  0  0  0
   -1.8446   18.8448  -10.8718 C   0  0  0  0  0  0  0  0  0  0  0  0
   -2.6926   18.5308  -11.9278 C   0  0  0  0  0  0  0  0  0  0  0  0
   -3.9599   19.0543  -12.0246 C   0  0  0  0  0  0  0  0  0  0  0  0
   -4.5438   18.5664  -13.1597 N   0  0  0  0  0  0  0  0  0  0  0  0
   -3.6614   17.7359  -13.7901 C   0  0  0  0  0  0  0  0  0  0  0  0
   -2.5194   17.6967  -13.0522 C   0  0  0  0  0  0  0  0  0  0  0  0
   -5.6620   20.4582  -11.1096 O   0  0  0  0  0  0  0  0  0  0  0  0
   -0.7665   16.1962  -12.3753 N   0  0  0  0  0  0  0  0  0  0  0  0
   -0.8230   16.9634  -14.5089 O   0  0  0  0  0  0  0  0  0  0  0  0
    1.3994   13.2952  -12.3516 N   0  0  0  0  0  0  0  0  0  0  0  0
   -1.7142   19.9589   -9.1210 H   0  0  0  0  0  0  0  0  0  0  0  0
   -3.9096   20.8772   -9.2728 H   0  0  0  0  0  0  0  0  0  0  0  0
   -7.0048   21.6613  -10.2213 H   0  0  0  0  0  0  0  0  0  0  0  0
   -6.0453   20.8526   -9.1765 H   0  0  0  0  0  0  0  0  0  0  0  0
   -5.4541   22.1270  -10.0090 H   0  0  0  0  0  0  0  0  0  0  0  0
    0.9240   15.7471  -13.4134 H   0  0  0  0  0  0  0  0  0  0  0  0
   -0.1189   13.7126  -13.6553 H   0  0  0  0  0  0  0  0  0  0  0  0
   -0.5913   13.6812  -12.0925 H   0  0  0  0  0  0  0  0  0  0  0  0
    1.8581   13.6968  -10.4050 H   0  0  0  0  0  0  0  0  0  0  0  0
    3.0078   14.1778  -11.4601 H   0  0  0  0  0  0  0  0  0  0  0  0
    0.8415   15.6643  -10.5636 H   0  0  0  0  0  0  0  0  0  0  0  0
    2.0602   16.1849  -11.5177 H   0  0  0  0  0  0  0  0  0  0  0  0
    0.4103   11.8910  -14.3091 H   0  0  0  0  0  0  0  0  0  0  0  0
    1.2961    9.8807  -15.2679 H   0  0  0  0  0  0  0  0  0  0  0  0
    4.4764   10.0272  -12.6063 H   0  0  0  0  0  0  0  0  0  0  0  0
    3.5865   12.0370  -11.6489 H   0  0  0  0  0  0  0  0  0  0  0  0
    4.3722    8.2862  -14.1357 H   0  0  0  0  0  0  0  0  0  0  0  0
    2.8636    7.7862  -14.5111 H   0  0  0  0  0  0  0  0  0  0  0  0
    3.7189    8.6756  -15.5807 H   0  0  0  0  0  0  0  0  0  0  0  0
   -0.9260   18.4531  -10.8189 H   0  0  0  0  0  0  0  0  0  0  0  0
   -5.4670   18.7824  -13.4773 H   0  0  0  0  0  0  0  0  0  0  0  0
   -3.8262   17.2428  -14.6444 H   0  0  0  0  0  0  0  0  0  0  0  0
   -1.1990   16.1916  -11.4737 H   0  0  0  0  0  0  0  0  0  0  0  0
  1  2  2  0  0  0  0
  1 17  1  0  0  0  0
  2  3  1  0  0  0  0
  3 19  2  0  0  0  0
  3 23  1  0  0  0  0
  4 23  1  0  0  0  0
  5 22  1  0  0  0  0
  5 24  1  0  0  0  0
  5 25  2  0  0  0  0
  6  7  1  0  0  0  0
  6  9  1  0  0  0  0
  6 24  1  0  0  0  0
  7 26  1  0  0  0  0
  8  9  1  0  0  0  0
  8 26  1  0  0  0  0
 10 11  2  0  0  0  0
 10 15  1  0  0  0  0
 10 26  1  0  0  0  0
 11 12  1  0  0  0  0
 12 13  2  0  0  0  0
 13 14  1  0  0  0  0
 13 16  1  0  0  0  0
 14 15  2  0  0  0  0
 17 18  2  0  0  0  0
 18 19  1  0  0  0  0
 18 22  1  0  0  0  0
 19 20  1  0  0  0  0
 20 21  1  0  0  0  0
 21 22  2  0  0  0  0
  1 27  1  0  0  0  0
  2 28  1  0  0  0  0
  4 29  1  0  0  0  0
  4 30  1  0  0  0  0
  4 31  1  0  0  0  0
  6 32  1  0  0  0  0
  7 33  1  0  0  0  0
  7 34  1  0  0  0  0
  8 35  1  0  0  0  0
  8 36  1  0  0  0  0
  9 37  1  0  0  0  0
  9 38  1  0  0  0  0
 11 39  1  0  0  0  0
 12 40  1  0  0  0  0
 14 41  1  0  0  0  0
 15 42  1  0  0  0  0
 16 43  1  0  0  0  0
 16 44  1  0  0  0  0
 16 45  1  0  0  0  0
 17 46  1  0  0  0  0
 20 47  1  0  0  0  0
 21 48  1  0  0  0  0
 24 49  1  0  0  0  0
M  END
> <BIOSOLVEIT.HYDE_ESTIMATED_AFFINITY_LOWER_BOUNDARY [nM]>
2.523732

> <BIOSOLVEIT.HYDE_ESTIMATED_AFFINITY_UPPER_BOUNDARY [nM]>
250.747653

> <BIOSOLVEIT.HYDE_LIGAND_EFFICIENCY range: ++, +, 0, -, -->
0

> <BIOSOLVEIT.HYDE_LIGAND_LIPOPHILIC_EFFICIENCY range: ++, +, 0, -, -->
0

> <BIOSOLVEIT.LOGP>
3.49362

> <BIOSOLVEIT.MOLECULAR WEIGHT>
349.432

> <BIOSOLVEIT.MOLECULE_CHECKSUM>
LTQzLjM3NzI7MS42NjgzNQ==

> <BIOSOLVEIT.TPSA>
57.36

> <OPTIBRIUM.BBB category>
-

> <OPTIBRIUM.PPB90 category>
high

> <OPTIBRIUM.2C9 pKi>
5.63445

> <OPTIBRIUM.logS @ pH7.4>
0.861256

> <OPTIBRIUM.BBB log([brain]:[blood])>
-0.144439

> <OPTIBRIUM.2D6 affinity category>
high

> <OPTIBRIUM.logS>
1.60423

> <OPTIBRIUM.logD>
2.69535

> <OPTIBRIUM.hERG pIC50>
4.76557

> <OPTIBRIUM.logP>
3.77012

> <OPTIBRIUM.HIA category>
+

> <OPTIBRIUM.P-gp category>
yes

$$$$
HRQ_B_201_1_002
joSeeSAR  03092212523D 1   1.00000     0.00000     0
SeeSAR 11.2.2 jonathanwahrer
 49 52  0  0  0  0            999 V2000
   -2.3412   19.7266   -9.9368 C   0  0  0  0  0  0  0  0  0  0  0  0
   -3.6309   20.2263  -10.0891 C   0  0  0  0  0  0  0  0  0  0  0  0
   -4.4236   19.8439  -11.1658 C   0  0  0  0  0  0  0  0  0  0  0  0
   -6.1396   21.2532  -10.2762 C   0  0  0  0  0  0  0  0  0  0  0  0
   -1.1706   16.8358  -13.2861 C   0  0  0  0  0  0  0  0  0  0  0  0
    0.6367   15.4635  -12.3784 C   0  0  2  0  0  0  0  0  0  0  0  0
    0.3643   14.0247  -12.7767 C   0  0  0  0  0  0  0  0  0  0  0  0
    2.2431   14.0566  -11.3074 C   0  0  0  0  0  0  0  0  0  0  0  0
    1.3375   15.2481  -11.0481 C   0  0  0  0  0  0  0  0  0  0  0  0
    2.0448   12.1011  -12.9356 C   0  0  0  0  0  0  0  0  0  0  0  0
    1.3228   11.5010  -13.9623 C   0  0  0  0  0  0  0  0  0  0  0  0
    1.7698   10.3087  -14.5218 C   0  0  0  0  0  0  0  0  0  0  0  0
    2.9405    9.7315  -14.0427 C   0  0  0  0  0  0  0  0  0  0  0  0
    3.6663   10.3279  -13.0166 C   0  0  0  0  0  0  0  0  0  0  0  0
    3.2157   11.5202  -12.4593 C   0  0  0  0  0  0  0  0  0  0  0  0
    3.4409    8.4293  -14.6464 C   0  0  0  0  0  0  0  0  0  0  0  0
   -1.8286   18.8323  -10.8695 C   0  0  0  0  0  0  0  0  0  0  0  0
   -2.6328   18.4604  -11.9407 C   0  0  0  0  0  0  0  0  0  0  0  0
   -3.9080   18.9492  -12.0983 C   0  0  0  0  0  0  0  0  0  0  0  0
   -4.4417   18.4073  -13.2336 N   0  0  0  0  0  0  0  0  0  0  0  0
   -3.5195   17.5764  -13.8040 C   0  0  0  0  0  0  0  0  0  0  0  0
   -2.4025   17.5914  -13.0278 C   0  0  0  0  0  0  0  0  0  0  0  0
   -5.6721   20.3429  -11.2916 O   0  0  0  0  0  0  0  0  0  0  0  0
   -0.6046   16.2110  -12.2252 N   0  0  0  0  0  0  0  0  0  0  0  0
   -0.6717   16.8029  -14.4135 O   0  0  0  0  0  0  0  0  0  0  0  0
    1.5828   13.3017  -12.3809 N   0  0  0  0  0  0  0  0  0  0  0  0
   -1.7833   20.0107   -9.1570 H   0  0  0  0  0  0  0  0  0  0  0  0
   -3.9930   20.8695   -9.4144 H   0  0  0  0  0  0  0  0  0  0  0  0
   -7.0720   21.5430  -10.4920 H   0  0  0  0  0  0  0  0  0  0  0  0
   -6.1303   20.7946   -9.3876 H   0  0  0  0  0  0  0  0  0  0  0  0
   -5.5407   22.0534  -10.2445 H   0  0  0  0  0  0  0  0  0  0  0  0
    1.2445   15.9086  -13.0360 H   0  0  0  0  0  0  0  0  0  0  0  0
    0.2138   13.9523  -13.7626 H   0  0  0  0  0  0  0  0  0  0  0  0
   -0.4333   13.6674  -12.2906 H   0  0  0  0  0  0  0  0  0  0  0  0
    2.3288   13.4949  -10.4844 H   0  0  0  0  0  0  0  0  0  0  0  0
    3.1498   14.3613  -11.5987 H   0  0  0  0  0  0  0  0  0  0  0  0
    0.6768   15.0435  -10.3260 H   0  0  0  0  0  0  0  0  0  0  0  0
    1.8723   16.0534  -10.7923 H   0  0  0  0  0  0  0  0  0  0  0  0
    0.4826   11.9268  -14.2981 H   0  0  0  0  0  0  0  0  0  0  0  0
    1.2552    9.8717  -15.2596 H   0  0  0  0  0  0  0  0  0  0  0  0
    4.5068    9.9021  -12.6816 H   0  0  0  0  0  0  0  0  0  0  0  0
    3.7301   11.9569  -11.7213 H   0  0  0  0  0  0  0  0  0  0  0  0
    4.2875    8.1543  -14.1909 H   0  0  0  0  0  0  0  0  0  0  0  0
    2.7495    7.7174  -14.5228 H   0  0  0  0  0  0  0  0  0  0  0  0
    3.6145    8.5594  -15.6226 H   0  0  0  0  0  0  0  0  0  0  0  0
   -0.9036   18.4652  -10.7721 H   0  0  0  0  0  0  0  0  0  0  0  0
   -5.3584   18.5893  -13.5891 H   0  0  0  0  0  0  0  0  0  0  0  0
   -3.6438   17.0494  -14.6446 H   0  0  0  0  0  0  0  0  0  0  0  0
   -1.0431   16.2636  -11.3281 H   0  0  0  0  0  0  0  0  0  0  0  0
  1  2  2  0  0  0  0
  1 17  1  0  0  0  0
  2  3  1  0  0  0  0
  3 19  2  0  0  0  0
  3 23  1  0  0  0  0
  4 23  1  0  0  0  0
  5 22  1  0  0  0  0
  5 24  1  0  0  0  0
  5 25  2  0  0  0  0
  6  7  1  0  0  0  0
  6  9  1  0  0  0  0
  6 24  1  0  0  0  0
  7 26  1  0  0  0  0
  8  9  1  0  0  0  0
  8 26  1  0  0  0  0
 10 11  2  0  0  0  0
 10 15  1  0  0  0  0
 10 26  1  0  0  0  0
 11 12  1  0  0  0  0
 12 13  2  0  0  0  0
 13 14  1  0  0  0  0
 13 16  1  0  0  0  0
 14 15  2  0  0  0  0
 17 18  2  0  0  0  0
 18 19  1  0  0  0  0
 18 22  1  0  0  0  0
 19 20  1  0  0  0  0
 20 21  1  0  0  0  0
 21 22  2  0  0  0  0
  1 27  1  0  0  0  0
  2 28  1  0  0  0  0
  4 29  1  0  0  0  0
  4 30  1  0  0  0  0
  4 31  1  0  0  0  0
  6 32  1  0  0  0  0
  7 33  1  0  0  0  0
  7 34  1  0  0  0  0
  8 35  1  0  0  0  0
  8 36  1  0  0  0  0
  9 37  1  0  0  0  0
  9 38  1  0  0  0  0
 11 39  1  0  0  0  0
 12 40  1  0  0  0  0
 14 41  1  0  0  0  0
 15 42  1  0  0  0  0
 16 43  1  0  0  0  0
 16 44  1  0  0  0  0
 16 45  1  0  0  0  0
 17 46  1  0  0  0  0
 20 47  1  0  0  0  0
 21 48  1  0  0  0  0
 24 49  1  0  0  0  0
M  END
> <BIOSOLVEIT.HYDE_ESTIMATED_AFFINITY_LOWER_BOUNDARY [nM]>
2.662176

> <BIOSOLVEIT.HYDE_ESTIMATED_AFFINITY_UPPER_BOUNDARY [nM]>
264.502947

> <BIOSOLVEIT.HYDE_LIGAND_EFFICIENCY range: ++, +, 0, -, -->
0

> <BIOSOLVEIT.HYDE_LIGAND_LIPOPHILIC_EFFICIENCY range: ++, +, 0, -, -->
0

> <BIOSOLVEIT.LOGP>
3.49362

> <BIOSOLVEIT.MOLECULAR WEIGHT>
349.432

> <BIOSOLVEIT.MOLECULE_CHECKSUM>
LTQzLjI0NDg7MS42NjMyNg==

> <BIOSOLVEIT.TPSA>
57.36

> <OPTIBRIUM.BBB category>
-

> <OPTIBRIUM.PPB90 category>
high

> <OPTIBRIUM.2C9 pKi>
5.63445

> <OPTIBRIUM.logS @ pH7.4>
0.861256

> <OPTIBRIUM.BBB log([brain]:[blood])>
-0.144439

> <OPTIBRIUM.2D6 affinity category>
high

> <OPTIBRIUM.logS>
1.60423

> <OPTIBRIUM.logD>
2.69535

> <OPTIBRIUM.hERG pIC50>
4.76557

> <OPTIBRIUM.logP>
3.77012

> <OPTIBRIUM.HIA category>
+

> <OPTIBRIUM.P-gp category>
yes

$$$$
HRQ_B_201_1_003
joSeeSAR  03092212523D 1   1.00000     0.00000     0
SeeSAR 11.2.2 jonathanwahrer
 49 52  0  0  0  0            999 V2000
   -2.3412   19.7267   -9.9364 C   0  0  0  0  0  0  0  0  0  0  0  0
   -3.6309   20.2265  -10.0886 C   0  0  0  0  0  0  0  0  0  0  0  0
   -4.4237   19.8442  -11.1654 C   0  0  0  0  0  0  0  0  0  0  0  0
   -6.1395   21.2537  -10.2758 C   0  0  0  0  0  0  0  0  0  0  0  0
   -1.1708   16.8361  -13.2858 C   0  0  0  0  0  0  0  0  0  0  0  0
    0.6367   15.4639  -12.3781 C   0  0  2  0  0  0  0  0  0  0  0  0
    0.3644   14.0251  -12.7763 C   0  0  0  0  0  0  0  0  0  0  0  0
    2.2431   14.0569  -11.3070 C   0  0  0  0  0  0  0  0  0  0  0  0
    1.3376   15.2485  -11.0478 C   0  0  0  0  0  0  0  0  0  0  0  0
    2.0448   12.1015  -12.9353 C   0  0  0  0  0  0  0  0  0  0  0  0
    1.3227   11.5013  -13.9619 C   0  0  0  0  0  0  0  0  0  0  0  0
    1.7697   10.3090  -14.5214 C   0  0  0  0  0  0  0  0  0  0  0  0
    2.9407    9.7320  -14.0426 C   0  0  0  0  0  0  0  0  0  0  0  0
    3.6665   10.3286  -13.0166 C   0  0  0  0  0  0  0  0  0  0  0  0
    3.2158   11.5208  -12.4592 C   0  0  0  0  0  0  0  0  0  0  0  0
    3.4408    8.4299  -14.6463 C   0  0  0  0  0  0  0  0  0  0  0  0
   -1.8287   18.8325  -10.8690 C   0  0  0  0  0  0  0  0  0  0  0  0
   -2.6329   18.4606  -11.9404 C   0  0  0  0  0  0  0  0  0  0  0  0
   -3.9081   18.9496  -12.0979 C   0  0  0  0  0  0  0  0  0  0  0  0
   -4.4417   18.4076  -13.2331 N   0  0  0  0  0  0  0  0  0  0  0  0
   -3.5196   17.5767  -13.8036 C   0  0  0  0  0  0  0  0  0  0  0  0
   -2.4025   17.5916  -13.0274 C   0  0  0  0  0  0  0  0  0  0  0  0
   -5.6721   20.3433  -11.2913 O   0  0  0  0  0  0  0  0  0  0  0  0
   -0.6045   16.2115  -12.2248 N   0  0  0  0  0  0  0  0  0  0  0  0
   -0.6720   16.8030  -14.4132 O   0  0  0  0  0  0  0  0  0  0  0  0
    1.5828   13.3021  -12.3805 N   0  0  0  0  0  0  0  0  0  0  0  0
   -1.7834   20.0108   -9.1565 H   0  0  0  0  0  0  0  0  0  0  0  0
   -3.9930   20.8698   -9.4141 H   0  0  0  0  0  0  0  0  0  0  0  0
   -7.0719   21.5435  -10.4917 H   0  0  0  0  0  0  0  0  0  0  0  0
   -6.1302   20.7953   -9.3872 H   0  0  0  0  0  0  0  0  0  0  0  0
   -5.5406   22.0539  -10.2444 H   0  0  0  0  0  0  0  0  0  0  0  0
    1.2446   15.9091  -13.0356 H   0  0  0  0  0  0  0  0  0  0  0  0
    0.2139   13.9528  -13.7623 H   0  0  0  0  0  0  0  0  0  0  0  0
   -0.4333   13.6679  -12.2903 H   0  0  0  0  0  0  0  0  0  0  0  0
    2.3288   13.4953  -10.4840 H   0  0  0  0  0  0  0  0  0  0  0  0
    3.1498   14.3617  -11.5984 H   0  0  0  0  0  0  0  0  0  0  0  0
    0.6768   15.0439  -10.3256 H   0  0  0  0  0  0  0  0  0  0  0  0
    1.8723   16.0538  -10.7918 H   0  0  0  0  0  0  0  0  0  0  0  0
    0.4824   11.9272  -14.2975 H   0  0  0  0  0  0  0  0  0  0  0  0
    1.2550    9.8721  -15.2592 H   0  0  0  0  0  0  0  0  0  0  0  0
    4.5070    9.9028  -12.6817 H   0  0  0  0  0  0  0  0  0  0  0  0
    3.7303   11.9575  -11.7212 H   0  0  0  0  0  0  0  0  0  0  0  0
    4.2877    8.1550  -14.1909 H   0  0  0  0  0  0  0  0  0  0  0  0
    2.7496    7.7178  -14.5227 H   0  0  0  0  0  0  0  0  0  0  0  0
    3.6144    8.5600  -15.6224 H   0  0  0  0  0  0  0  0  0  0  0  0
   -0.9037   18.4654  -10.7717 H   0  0  0  0  0  0  0  0  0  0  0  0
   -5.3585   18.5897  -13.5887 H   0  0  0  0  0  0  0  0  0  0  0  0
   -3.6440   17.0498  -14.6443 H   0  0  0  0  0  0  0  0  0  0  0  0
   -1.0430   16.2642  -11.3276 H   0  0  0  0  0  0  0  0  0  0  0  0
  1  2  2  0  0  0  0
  1 17  1  0  0  0  0
  2  3  1  0  0  0  0
  3 19  2  0  0  0  0
  3 23  1  0  0  0  0
  4 23  1  0  0  0  0
  5 22  1  0  0  0  0
  5 24  1  0  0  0  0
  5 25  2  0  0  0  0
  6  7  1  0  0  0  0
  6  9  1  0  0  0  0
  6 24  1  0  0  0  0
  7 26  1  0  0  0  0
  8  9  1  0  0  0  0
  8 26  1  0  0  0  0
 10 11  2  0  0  0  0
 10 15  1  0  0  0  0
 10 26  1  0  0  0  0
 11 12  1  0  0  0  0
 12 13  2  0  0  0  0
 13 14  1  0  0  0  0
 13 16  1  0  0  0  0
 14 15  2  0  0  0  0
 17 18  2  0  0  0  0
 18 19  1  0  0  0  0
 18 22  1  0  0  0  0
 19 20  1  0  0  0  0
 20 21  1  0  0  0  0
 21 22  2  0  0  0  0
  1 27  1  0  0  0  0
  2 28  1  0  0  0  0
  4 29  1  0  0  0  0
  4 30  1  0  0  0  0
  4 31  1  0  0  0  0
  6 32  1  0  0  0  0
  7 33  1  0  0  0  0
  7 34  1  0  0  0  0
  8 35  1  0  0  0  0
  8 36  1  0  0  0  0
  9 37  1  0  0  0  0
  9 38  1  0  0  0  0
 11 39  1  0  0  0  0
 12 40  1  0  0  0  0
 14 41  1  0  0  0  0
 15 42  1  0  0  0  0
 16 43  1  0  0  0  0
 16 44  1  0  0  0  0
 16 45  1  0  0  0  0
 17 46  1  0  0  0  0
 20 47  1  0  0  0  0
 21 48  1  0  0  0  0
 24 49  1  0  0  0  0
M  END
> <BIOSOLVEIT.HYDE_ESTIMATED_AFFINITY_LOWER_BOUNDARY [nM]>
2.662713

> <BIOSOLVEIT.HYDE_ESTIMATED_AFFINITY_UPPER_BOUNDARY [nM]>
264.556231

> <BIOSOLVEIT.HYDE_LIGAND_EFFICIENCY range: ++, +, 0, -, -->
0

> <BIOSOLVEIT.HYDE_LIGAND_LIPOPHILIC_EFFICIENCY range: ++, +, 0, -, -->
0

> <BIOSOLVEIT.LOGP>
3.49362

> <BIOSOLVEIT.MOLECULAR WEIGHT>
349.432

> <BIOSOLVEIT.MOLECULE_CHECKSUM>
LTQzLjI0NDM7MS42NjMyNA==

> <BIOSOLVEIT.TPSA>
57.36

> <OPTIBRIUM.BBB category>
-

> <OPTIBRIUM.PPB90 category>
high

> <OPTIBRIUM.2C9 pKi>
5.63445

> <OPTIBRIUM.logS @ pH7.4>
0.861256

> <OPTIBRIUM.BBB log([brain]:[blood])>
-0.144439

> <OPTIBRIUM.2D6 affinity category>
high

> <OPTIBRIUM.logS>
1.60423

> <OPTIBRIUM.logD>
2.69535

> <OPTIBRIUM.hERG pIC50>
4.76557

> <OPTIBRIUM.logP>
3.77012

> <OPTIBRIUM.HIA category>
+

> <OPTIBRIUM.P-gp category>
yes

$$$$
HRQ_B_201_1_005
joSeeSAR  03092212523D 1   1.00000     0.00000     0
SeeSAR 11.2.2 jonathanwahrer
 49 52  0  0  0  0            999 V2000
   -2.2832   19.7761   -9.8412 C   0  0  0  0  0  0  0  0  0  0  0  0
   -3.5801   20.2798   -9.8684 C   0  0  0  0  0  0  0  0  0  0  0  0
   -4.4472   19.9669  -10.9095 C   0  0  0  0  0  0  0  0  0  0  0  0
   -6.0665   21.3775   -9.8559 C   0  0  0  0  0  0  0  0  0  0  0  0
   -1.3551   17.1188  -13.4498 C   0  0  0  0  0  0  0  0  0  0  0  0
    0.5017   15.6828  -12.7686 C   0  0  2  0  0  0  0  0  0  0  0  0
    0.2011   14.2328  -13.0935 C   0  0  0  0  0  0  0  0  0  0  0  0
    1.5936   14.2173  -11.1760 C   0  0  0  0  0  0  0  0  0  0  0  0
    1.4453   15.6717  -11.5758 C   0  0  0  0  0  0  0  0  0  0  0  0
    1.8314   12.2850  -12.8359 C   0  0  0  0  0  0  0  0  0  0  0  0
    2.9885   11.8222  -12.2175 C   0  0  0  0  0  0  0  0  0  0  0  0
    3.5729   10.6320  -12.6374 C   0  0  0  0  0  0  0  0  0  0  0  0
    2.9862    9.9177  -13.6761 C   0  0  0  0  0  0  0  0  0  0  0  0
    1.8288   10.3760  -14.2975 C   0  0  0  0  0  0  0  0  0  0  0  0
    1.2477   11.5672  -13.8748 C   0  0  0  0  0  0  0  0  0  0  0  0
    3.6137    8.6148  -14.1438 C   0  0  0  0  0  0  0  0  0  0  0  0
   -1.8387   18.9477  -10.8651 C   0  0  0  0  0  0  0  0  0  0  0  0
   -2.7170   18.6448  -11.8993 C   0  0  0  0  0  0  0  0  0  0  0  0
   -3.9997   19.1381  -11.9336 C   0  0  0  0  0  0  0  0  0  0  0  0
   -4.6127   18.6707  -13.0618 N   0  0  0  0  0  0  0  0  0  0  0  0
   -3.7340   17.8832  -13.7499 C   0  0  0  0  0  0  0  0  0  0  0  0
   -2.5648   17.8508  -13.0554 C   0  0  0  0  0  0  0  0  0  0  0  0
   -5.7010   20.4684  -10.9134 O   0  0  0  0  0  0  0  0  0  0  0  0
   -0.7243   16.4148  -12.4788 N   0  0  0  0  0  0  0  0  0  0  0  0
   -0.9298   17.1733  -14.6063 O   0  0  0  0  0  0  0  0  0  0  0  0
    1.2529   13.4875  -12.4025 N   0  0  0  0  0  0  0  0  0  0  0  0
   -1.6713   20.0098   -9.0855 H   0  0  0  0  0  0  0  0  0  0  0  0
   -3.8929   20.8754   -9.1286 H   0  0  0  0  0  0  0  0  0  0  0  0
   -7.0149   21.6694   -9.9801 H   0  0  0  0  0  0  0  0  0  0  0  0
   -5.9725   20.9171   -8.9731 H   0  0  0  0  0  0  0  0  0  0  0  0
   -5.4658   22.1766   -9.8808 H   0  0  0  0  0  0  0  0  0  0  0  0
    0.9618   16.1066  -13.5488 H   0  0  0  0  0  0  0  0  0  0  0  0
    0.2429   14.0739  -14.0799 H   0  0  0  0  0  0  0  0  0  0  0  0
   -0.7018   13.9722  -12.7518 H   0  0  0  0  0  0  0  0  0  0  0  0
    0.9638   13.9844  -10.4351 H   0  0  0  0  0  0  0  0  0  0  0  0
    2.5314   14.0190  -10.8911 H   0  0  0  0  0  0  0  0  0  0  0  0
    1.0585   16.2020  -10.8214 H   0  0  0  0  0  0  0  0  0  0  0  0
    2.3332   16.0543  -11.8314 H   0  0  0  0  0  0  0  0  0  0  0  0
    3.4000   12.3452  -11.4711 H   0  0  0  0  0  0  0  0  0  0  0  0
    4.4049   10.2940  -12.1977 H   0  0  0  0  0  0  0  0  0  0  0  0
    1.4172    9.8524  -15.0434 H   0  0  0  0  0  0  0  0  0  0  0  0
    0.4158   11.9053  -14.3150 H   0  0  0  0  0  0  0  0  0  0  0  0
    3.0709    8.2329  -14.8917 H   0  0  0  0  0  0  0  0  0  0  0  0
    4.5452    8.7891  -14.4631 H   0  0  0  0  0  0  0  0  0  0  0  0
    3.6382    7.9650  -13.3840 H   0  0  0  0  0  0  0  0  0  0  0  0
   -0.9094   18.5784  -10.8580 H   0  0  0  0  0  0  0  0  0  0  0  0
   -5.5522   18.8725  -13.3389 H   0  0  0  0  0  0  0  0  0  0  0  0
   -3.9180   17.4127  -14.6130 H   0  0  0  0  0  0  0  0  0  0  0  0
   -1.1040   16.3977  -11.5538 H   0  0  0  0  0  0  0  0  0  0  0  0
  1  2  2  0  0  0  0
  1 17  1  0  0  0  0
  2  3  1  0  0  0  0
  3 19  2  0  0  0  0
  3 23  1  0  0  0  0
  4 23  1  0  0  0  0
  5 22  1  0  0  0  0
  5 24  1  0  0  0  0
  5 25  2  0  0  0  0
  6  7  1  0  0  0  0
  6  9  1  0  0  0  0
  6 24  1  0  0  0  0
  7 26  1  0  0  0  0
  8  9  1  0  0  0  0
  8 26  1  0  0  0  0
 10 11  2  0  0  0  0
 10 15  1  0  0  0  0
 10 26  1  0  0  0  0
 11 12  1  0  0  0  0
 12 13  2  0  0  0  0
 13 14  1  0  0  0  0
 13 16  1  0  0  0  0
 14 15  2  0  0  0  0
 17 18  2  0  0  0  0
 18 19  1  0  0  0  0
 18 22  1  0  0  0  0
 19 20  1  0  0  0  0
 20 21  1  0  0  0  0
 21 22  2  0  0  0  0
  1 27  1  0  0  0  0
  2 28  1  0  0  0  0
  4 29  1  0  0  0  0
  4 30  1  0  0  0  0
  4 31  1  0  0  0  0
  6 32  1  0  0  0  0
  7 33  1  0  0  0  0
  7 34  1  0  0  0  0
  8 35  1  0  0  0  0
  8 36  1  0  0  0  0
  9 37  1  0  0  0  0
  9 38  1  0  0  0  0
 11 39  1  0  0  0  0
 12 40  1  0  0  0  0
 14 41  1  0  0  0  0
 15 42  1  0  0  0  0
 16 43  1  0  0  0  0
 16 44  1  0  0  0  0
 16 45  1  0  0  0  0
 17 46  1  0  0  0  0
 20 47  1  0  0  0  0
 21 48  1  0  0  0  0
 24 49  1  0  0  0  0
M  END
> <BIOSOLVEIT.HYDE_ESTIMATED_AFFINITY_LOWER_BOUNDARY [nM]>
4.674603

> <BIOSOLVEIT.HYDE_ESTIMATED_AFFINITY_UPPER_BOUNDARY [nM]>
464.449420

> <BIOSOLVEIT.HYDE_LIGAND_EFFICIENCY range: ++, +, 0, -, -->
0

> <BIOSOLVEIT.HYDE_LIGAND_LIPOPHILIC_EFFICIENCY range: ++, +, 0, -, -->
0

> <BIOSOLVEIT.LOGP>
3.49362

> <BIOSOLVEIT.MOLECULAR WEIGHT>
349.432

> <BIOSOLVEIT.MOLECULE_CHECKSUM>
LTQxLjg0OTI7MS42MDk1OA==

> <BIOSOLVEIT.TPSA>
57.36

> <OPTIBRIUM.BBB category>
-

> <OPTIBRIUM.PPB90 category>
high

> <OPTIBRIUM.2C9 pKi>
5.63445

> <OPTIBRIUM.logS @ pH7.4>
0.861256

> <OPTIBRIUM.BBB log([brain]:[blood])>
-0.144439

> <OPTIBRIUM.2D6 affinity category>
high

> <OPTIBRIUM.logS>
1.60423

> <OPTIBRIUM.logD>
2.69535

> <OPTIBRIUM.hERG pIC50>
4.76557

> <OPTIBRIUM.logP>
3.77012

> <OPTIBRIUM.HIA category>
+

> <OPTIBRIUM.P-gp category>
yes

$$$$
