# created with PyMOL 2.5.2
@<TRIPOS>MOLECULE
KRK_A_501_1_006
34 37 1                 
SMALL
USER_CHARGES
@<TRIPOS>ATOM
1	   C	18.555	-54.574	35.674	C.2	1	UNK0	0.000	
2	   C	19.415	-54.903	34.664	C.2	1	UNK0	0.000	
3	   C	20.390	-53.935	34.297	C.2	1	UNK0	0.000	
4	   N	14.820	-56.286	38.049	N.pl3	1	UNK0	0.000	
5	   C	13.553	-58.267	38.018	C.3	1	UNK0	0.000	
6	   C	13.882	-57.061	38.872	C.3	1	UNK0	0.000	
7	   C	18.703	-53.294	36.269	C.2	1	UNK0	0.000	
8	   C	15.116	-57.044	36.830	C.3	1	UNK0	0.000	
9	   C	14.819	-58.475	37.221	C.3	1	UNK0	0.000	
10	   C	15.344	-55.027	38.372	C.2	1	UNK0	0.000	
11	   C	15.253	-53.134	39.741	C.2	1	UNK0	0.000	
12	   C	16.320	-52.571	39.050	C.2	1	UNK0	0.000	
13	   C	16.883	-53.289	38.001	C.2	1	UNK0	0.000	
14	   C	17.999	-52.709	37.273	C.2	1	UNK0	0.000	
15	   C	18.543	-51.427	37.493	C.2	1	UNK0	0.000	
16	   F	15.794	-59.005	37.958	 F	1	UNK0	0.000	
17	   N	14.793	-54.343	39.385	N.2	1	UNK0	0.000	
18	   N	19.518	-51.323	36.627	N.2	1	UNK0	0.000	
19	   N	19.648	-52.405	35.882	N.pl3	1	UNK0	0.000	
20	   N	20.465	-52.760	34.901	N.2	1	UNK0	0.000	
21	   N	16.376	-54.494	37.697	N.2	1	UNK0	0.000	
22	   H	17.848	-55.211	35.981	 H	1	UNK0	0.000	
23	   H	19.361	-55.789	34.202	 H	1	UNK0	0.000	
24	   H	21.035	-54.147	33.563	 H	1	UNK0	0.000	
25	   H	12.776	-58.079	37.416	 H	1	UNK0	0.000	
26	   H	13.350	-59.064	38.585	 H	1	UNK0	0.000	
27	   H	13.058	-56.529	39.069	 H	1	UNK0	0.000	
28	   H	14.311	-57.340	39.731	 H	1	UNK0	0.000	
29	   H	16.075	-56.938	36.568	 H	1	UNK0	0.000	
30	   H	14.529	-56.751	36.076	 H	1	UNK0	0.000	
31	   H	14.641	-59.034	36.412	 H	1	UNK0	0.000	
32	   H	14.829	-52.640	40.500	 H	1	UNK0	0.000	
33	   H	16.675	-51.670	39.302	 H	1	UNK0	0.000	
34	   H	18.249	-50.747	38.164	 H	1	UNK0	0.000	
@<TRIPOS>BOND
1 1 2 2
2 1 7 1
3 2 3 1
4 3 20 2
5 4 6 1
6 4 8 1
7 4 10 1
8 5 6 1
9 5 9 1
10 7 14 2
11 7 19 1
12 8 9 1
13 9 16 1
14 10 17 1
15 10 21 2
16 11 12 1
17 11 17 2
18 12 13 2
19 13 14 1
20 13 21 1
21 14 15 1
22 15 18 2
23 18 19 1
24 19 20 1
25 1 22 1
26 2 23 1
27 3 24 1
28 5 25 1
29 5 26 1
30 6 27 1
31 6 28 1
32 8 29 1
33 8 30 1
34 9 31 1
35 11 32 1
36 12 33 1
37 15 34 1
@<TRIPOS>SUBSTRUCTURE
1	UNK0	1	GROUP	1 ****	UNK
