KRK_A_501_1_006
joSeeSAR  03092212563D 1   1.00000     0.00000     0
SeeSAR 11.2.2 jonathanwahrer
 34 37  0  0  0  0            999 V2000
   18.5550  -54.5739   35.6735 C   0  0  0  0  0  0  0  0  0  0  0  0
   19.4151  -54.9033   34.6637 C   0  0  0  0  0  0  0  0  0  0  0  0
   20.3901  -53.9346   34.2966 C   0  0  0  0  0  0  0  0  0  0  0  0
   14.8200  -56.2859   38.0486 N   0  0  0  0  0  0  0  0  0  0  0  0
   13.5527  -58.2666   38.0179 C   0  0  0  0  0  0  0  0  0  0  0  0
   13.8821  -57.0607   38.8721 C   0  0  0  0  0  0  0  0  0  0  0  0
   18.7032  -53.2944   36.2686 C   0  0  0  0  0  0  0  0  0  0  0  0
   15.1159  -57.0444   36.8304 C   0  0  0  0  0  0  0  0  0  0  0  0
   14.8192  -58.4748   37.2213 C   0  0  1  0  0  0  0  0  0  0  0  0
   15.3439  -55.0273   38.3719 C   0  0  0  0  0  0  0  0  0  0  0  0
   15.2528  -53.1345   39.7405 C   0  0  0  0  0  0  0  0  0  0  0  0
   16.3204  -52.5708   39.0501 C   0  0  0  0  0  0  0  0  0  0  0  0
   16.8835  -53.2887   38.0006 C   0  0  0  0  0  0  0  0  0  0  0  0
   17.9989  -52.7088   37.2735 C   0  0  0  0  0  0  0  0  0  0  0  0
   18.5432  -51.4272   37.4932 C   0  0  0  0  0  0  0  0  0  0  0  0
   15.7936  -59.0051   37.9577 F   0  0  0  0  0  0  0  0  0  0  0  0
   14.7932  -54.3434   39.3853 N   0  0  0  0  0  0  0  0  0  0  0  0
   19.5181  -51.3233   36.6266 N   0  0  0  0  0  0  0  0  0  0  0  0
   19.6480  -52.4054   35.8816 N   0  0  0  0  0  0  0  0  0  0  0  0
   20.4653  -52.7604   34.9013 N   0  0  0  0  0  0  0  0  0  0  0  0
   16.3756  -54.4942   37.6969 N   0  0  0  0  0  0  0  0  0  0  0  0
   17.8481  -55.2106   35.9814 H   0  0  0  0  0  0  0  0  0  0  0  0
   19.3611  -55.7887   34.2018 H   0  0  0  0  0  0  0  0  0  0  0  0
   21.0352  -54.1468   33.5626 H   0  0  0  0  0  0  0  0  0  0  0  0
   12.7762  -58.0795   37.4162 H   0  0  0  0  0  0  0  0  0  0  0  0
   13.3497  -59.0645   38.5855 H   0  0  0  0  0  0  0  0  0  0  0  0
   13.0584  -56.5287   39.0685 H   0  0  0  0  0  0  0  0  0  0  0  0
   14.3110  -57.3403   39.7312 H   0  0  0  0  0  0  0  0  0  0  0  0
   16.0749  -56.9378   36.5675 H   0  0  0  0  0  0  0  0  0  0  0  0
   14.5289  -56.7513   36.0758 H   0  0  0  0  0  0  0  0  0  0  0  0
   14.6413  -59.0344   36.4118 H   0  0  0  0  0  0  0  0  0  0  0  0
   14.8292  -52.6399   40.4996 H   0  0  0  0  0  0  0  0  0  0  0  0
   16.6747  -51.6703   39.3024 H   0  0  0  0  0  0  0  0  0  0  0  0
   18.2489  -50.7466   38.1642 H   0  0  0  0  0  0  0  0  0  0  0  0
  1  2  2  0  0  0  0
  1  7  1  0  0  0  0
  2  3  1  0  0  0  0
  3 20  2  0  0  0  0
  4  6  1  0  0  0  0
  4  8  1  0  0  0  0
  4 10  1  0  0  0  0
  5  6  1  0  0  0  0
  5  9  1  0  0  0  0
  7 14  2  0  0  0  0
  7 19  1  0  0  0  0
  8  9  1  0  0  0  0
  9 16  1  0  0  0  0
 10 17  1  0  0  0  0
 10 21  2  0  0  0  0
 11 12  1  0  0  0  0
 11 17  2  0  0  0  0
 12 13  2  0  0  0  0
 13 14  1  0  0  0  0
 13 21  1  0  0  0  0
 14 15  1  0  0  0  0
 15 18  2  0  0  0  0
 18 19  1  0  0  0  0
 19 20  1  0  0  0  0
  1 22  1  0  0  0  0
  2 23  1  0  0  0  0
  3 24  1  0  0  0  0
  5 25  1  0  0  0  0
  5 26  1  0  0  0  0
  6 27  1  0  0  0  0
  6 28  1  0  0  0  0
  8 29  1  0  0  0  0
  8 30  1  0  0  0  0
  9 31  1  0  0  0  0
 11 32  1  0  0  0  0
 12 33  1  0  0  0  0
 15 34  1  0  0  0  0
M  END
> <BIOSOLVEIT.HYDE_ESTIMATED_AFFINITY_LOWER_BOUNDARY [nM]>
207.218592

> <BIOSOLVEIT.HYDE_ESTIMATED_AFFINITY_UPPER_BOUNDARY [nM]>
20588.392313

> <BIOSOLVEIT.HYDE_LIGAND_EFFICIENCY range: ++, +, 0, -, -->
0

> <BIOSOLVEIT.HYDE_LIGAND_LIPOPHILIC_EFFICIENCY range: ++, +, 0, -, -->
0

> <BIOSOLVEIT.LOGP>
1.7345

> <BIOSOLVEIT.MOLECULAR WEIGHT>
284.297

> <BIOSOLVEIT.MOLECULE_CHECKSUM>
LTMyLjQ0OTk7MS41NDUyMw==

> <BIOSOLVEIT.TPSA>
59.73

> <OPTIBRIUM.BBB category>
-

> <OPTIBRIUM.PPB90 category>
low

> <OPTIBRIUM.2C9 pKi>
4.96549

> <OPTIBRIUM.logS @ pH7.4>
1.81647

> <OPTIBRIUM.BBB log([brain]:[blood])>
-0.521743

> <OPTIBRIUM.2D6 affinity category>
medium

> <OPTIBRIUM.logS>
2.223

> <OPTIBRIUM.logD>
1.86778

> <OPTIBRIUM.hERG pIC50>
5.43527

> <OPTIBRIUM.logP>
1.46448

> <OPTIBRIUM.HIA category>
+

> <OPTIBRIUM.P-gp category>
yes

$$$$
KRK_A_501_1_003
joSeeSAR  03092212563D 1   1.00000     0.00000     0
SeeSAR 11.2.2 jonathanwahrer
 34 37  0  0  0  0            999 V2000
   18.5598  -54.5925   35.6628 C   0  0  0  0  0  0  0  0  0  0  0  0
   19.4237  -54.9095   34.6522 C   0  0  0  0  0  0  0  0  0  0  0  0
   20.3944  -53.9329   34.2949 C   0  0  0  0  0  0  0  0  0  0  0  0
   14.7409  -56.2799   37.9315 N   0  0  0  0  0  0  0  0  0  0  0  0
   13.8171  -58.4447   38.1795 C   0  0  0  0  0  0  0  0  0  0  0  0
   13.6751  -57.0016   38.6395 C   0  0  0  0  0  0  0  0  0  0  0  0
   18.7000  -53.3169   36.2680 C   0  0  0  0  0  0  0  0  0  0  0  0
   15.0937  -57.0818   36.7565 C   0  0  0  0  0  0  0  0  0  0  0  0
   15.0285  -58.5038   37.2714 C   0  0  1  0  0  0  0  0  0  0  0  0
   15.3025  -55.0532   38.3091 C   0  0  0  0  0  0  0  0  0  0  0  0
   15.2872  -53.2345   39.7777 C   0  0  0  0  0  0  0  0  0  0  0  0
   16.3537  -52.6602   39.0943 C   0  0  0  0  0  0  0  0  0  0  0  0
   16.8767  -53.3341   37.9961 C   0  0  0  0  0  0  0  0  0  0  0  0
   17.9905  -52.7428   37.2760 C   0  0  0  0  0  0  0  0  0  0  0  0
   18.5278  -51.4602   37.5069 C   0  0  0  0  0  0  0  0  0  0  0  0
   16.1336  -58.7627   37.9671 F   0  0  0  0  0  0  0  0  0  0  0  0
   14.7903  -54.4115   39.3693 N   0  0  0  0  0  0  0  0  0  0  0  0
   19.5038  -51.3445   36.6433 N   0  0  0  0  0  0  0  0  0  0  0  0
   19.6410  -52.4201   35.8901 N   0  0  0  0  0  0  0  0  0  0  0  0
   20.4623  -52.7631   34.9089 N   0  0  0  0  0  0  0  0  0  0  0  0
   16.3327  -54.5094   37.6406 N   0  0  0  0  0  0  0  0  0  0  0  0
   17.8555  -55.2352   35.9641 H   0  0  0  0  0  0  0  0  0  0  0  0
   19.3754  -55.7915   34.1833 H   0  0  0  0  0  0  0  0  0  0  0  0
   21.0422  -54.1360   33.5606 H   0  0  0  0  0  0  0  0  0  0  0  0
   12.9989  -58.7276   37.6792 H   0  0  0  0  0  0  0  0  0  0  0  0
   13.9498  -59.0449   38.9682 H   0  0  0  0  0  0  0  0  0  0  0  0
   12.7772  -56.6385   38.3905 H   0  0  0  0  0  0  0  0  0  0  0  0
   13.7995  -56.9328   39.6294 H   0  0  0  0  0  0  0  0  0  0  0  0
   16.0139  -56.8594   36.4344 H   0  0  0  0  0  0  0  0  0  0  0  0
   14.4376  -56.9389   36.0154 H   0  0  0  0  0  0  0  0  0  0  0  0
   14.8995  -59.1594   36.5274 H   0  0  0  0  0  0  0  0  0  0  0  0
   14.8920  -52.7713   40.5710 H   0  0  0  0  0  0  0  0  0  0  0  0
   16.7354  -51.7831   39.3859 H   0  0  0  0  0  0  0  0  0  0  0  0
   18.2284  -50.7864   38.1825 H   0  0  0  0  0  0  0  0  0  0  0  0
  1  2  2  0  0  0  0
  1  7  1  0  0  0  0
  2  3  1  0  0  0  0
  3 20  2  0  0  0  0
  4  6  1  0  0  0  0
  4  8  1  0  0  0  0
  4 10  1  0  0  0  0
  5  6  1  0  0  0  0
  5  9  1  0  0  0  0
  7 14  2  0  0  0  0
  7 19  1  0  0  0  0
  8  9  1  0  0  0  0
  9 16  1  0  0  0  0
 10 17  1  0  0  0  0
 10 21  2  0  0  0  0
 11 12  1  0  0  0  0
 11 17  2  0  0  0  0
 12 13  2  0  0  0  0
 13 14  1  0  0  0  0
 13 21  1  0  0  0  0
 14 15  1  0  0  0  0
 15 18  2  0  0  0  0
 18 19  1  0  0  0  0
 19 20  1  0  0  0  0
  1 22  1  0  0  0  0
  2 23  1  0  0  0  0
  3 24  1  0  0  0  0
  5 25  1  0  0  0  0
  5 26  1  0  0  0  0
  6 27  1  0  0  0  0
  6 28  1  0  0  0  0
  8 29  1  0  0  0  0
  8 30  1  0  0  0  0
  9 31  1  0  0  0  0
 11 32  1  0  0  0  0
 12 33  1  0  0  0  0
 15 34  1  0  0  0  0
M  END
> <BIOSOLVEIT.HYDE_ESTIMATED_AFFINITY_LOWER_BOUNDARY [nM]>
299.061418

> <BIOSOLVEIT.HYDE_ESTIMATED_AFFINITY_UPPER_BOUNDARY [nM]>
29713.520115

> <BIOSOLVEIT.HYDE_LIGAND_EFFICIENCY range: ++, +, 0, -, -->
0

> <BIOSOLVEIT.HYDE_LIGAND_LIPOPHILIC_EFFICIENCY range: ++, +, 0, -, -->
0

> <BIOSOLVEIT.LOGP>
1.7345

> <BIOSOLVEIT.MOLECULAR WEIGHT>
284.297

> <BIOSOLVEIT.MOLECULE_CHECKSUM>
LTMxLjU0MDQ7MS41MDE5Mg==

> <BIOSOLVEIT.TPSA>
59.73

> <OPTIBRIUM.BBB category>
-

> <OPTIBRIUM.PPB90 category>
low

> <OPTIBRIUM.2C9 pKi>
4.96549

> <OPTIBRIUM.logS @ pH7.4>
1.81647

> <OPTIBRIUM.BBB log([brain]:[blood])>
-0.521743

> <OPTIBRIUM.2D6 affinity category>
medium

> <OPTIBRIUM.logS>
2.223

> <OPTIBRIUM.logD>
1.86778

> <OPTIBRIUM.hERG pIC50>
5.43527

> <OPTIBRIUM.logP>
1.46448

> <OPTIBRIUM.HIA category>
+

> <OPTIBRIUM.P-gp category>
yes

$$$$
KRK_A_501_1_008
joSeeSAR  03092212563D 1   1.00000     0.00000     0
SeeSAR 11.2.2 jonathanwahrer
 34 37  0  0  0  0            999 V2000
   18.5715  -54.5972   35.3660 C   0  0  0  0  0  0  0  0  0  0  0  0
   19.3774  -54.8861   34.3006 C   0  0  0  0  0  0  0  0  0  0  0  0
   20.3899  -53.9415   33.9749 C   0  0  0  0  0  0  0  0  0  0  0  0
   15.0660  -56.4704   37.9674 N   0  0  0  0  0  0  0  0  0  0  0  0
   14.6458  -58.3356   36.6815 C   0  0  0  0  0  0  0  0  0  0  0  0
   15.7831  -57.5050   37.2289 C   0  0  0  0  0  0  0  0  0  0  0  0
   18.8085  -53.3798   36.0551 C   0  0  0  0  0  0  0  0  0  0  0  0
   13.7503  -56.9789   38.3628 C   0  0  0  0  0  0  0  0  0  0  0  0
   13.7346  -58.4138   37.8843 C   0  0  1  0  0  0  0  0  0  0  0  0
   15.5484  -55.1863   38.2526 C   0  0  0  0  0  0  0  0  0  0  0  0
   15.3718  -53.2434   39.5404 C   0  0  0  0  0  0  0  0  0  0  0  0
   16.4427  -52.6794   38.8554 C   0  0  0  0  0  0  0  0  0  0  0  0
   17.0524  -53.4234   37.8510 C   0  0  0  0  0  0  0  0  0  0  0  0
   18.1716  -52.8434   37.1301 C   0  0  0  0  0  0  0  0  0  0  0  0
   18.7913  -51.6133   37.4303 C   0  0  0  0  0  0  0  0  0  0  0  0
   12.4977  -58.7248   37.5117 F   0  0  0  0  0  0  0  0  0  0  0  0
   14.9532  -54.4774   39.2228 N   0  0  0  0  0  0  0  0  0  0  0  0
   19.7400  -51.4886   36.5379 N   0  0  0  0  0  0  0  0  0  0  0  0
   19.7859  -52.5114   35.7044 N   0  0  0  0  0  0  0  0  0  0  0  0
   20.5488  -52.8260   34.6681 N   0  0  0  0  0  0  0  0  0  0  0  0
   16.5839  -54.6532   37.5836 N   0  0  0  0  0  0  0  0  0  0  0  0
   17.8423  -55.2202   35.6492 H   0  0  0  0  0  0  0  0  0  0  0  0
   19.2601  -55.7269   33.7720 H   0  0  0  0  0  0  0  0  0  0  0  0
   20.9970  -54.1254   33.2019 H   0  0  0  0  0  0  0  0  0  0  0  0
   14.9576  -59.2427   36.3984 H   0  0  0  0  0  0  0  0  0  0  0  0
   14.1979  -57.8816   35.9114 H   0  0  0  0  0  0  0  0  0  0  0  0
   16.3699  -58.0438   37.8334 H   0  0  0  0  0  0  0  0  0  0  0  0
   16.3341  -57.1117   36.4929 H   0  0  0  0  0  0  0  0  0  0  0  0
   13.0221  -56.4526   37.9238 H   0  0  0  0  0  0  0  0  0  0  0  0
   13.6397  -56.9369   39.3558 H   0  0  0  0  0  0  0  0  0  0  0  0
   14.0851  -59.0428   38.5782 H   0  0  0  0  0  0  0  0  0  0  0  0
   14.9153  -52.7304   40.2673 H   0  0  0  0  0  0  0  0  0  0  0  0
   16.7668  -51.7604   39.0799 H   0  0  0  0  0  0  0  0  0  0  0  0
   18.5572  -50.9758   38.1644 H   0  0  0  0  0  0  0  0  0  0  0  0
  1  2  2  0  0  0  0
  1  7  1  0  0  0  0
  2  3  1  0  0  0  0
  3 20  2  0  0  0  0
  4  6  1  0  0  0  0
  4  8  1  0  0  0  0
  4 10  1  0  0  0  0
  5  6  1  0  0  0  0
  5  9  1  0  0  0  0
  7 14  2  0  0  0  0
  7 19  1  0  0  0  0
  8  9  1  0  0  0  0
  9 16  1  0  0  0  0
 10 17  1  0  0  0  0
 10 21  2  0  0  0  0
 11 12  1  0  0  0  0
 11 17  2  0  0  0  0
 12 13  2  0  0  0  0
 13 14  1  0  0  0  0
 13 21  1  0  0  0  0
 14 15  1  0  0  0  0
 15 18  2  0  0  0  0
 18 19  1  0  0  0  0
 19 20  1  0  0  0  0
  1 22  1  0  0  0  0
  2 23  1  0  0  0  0
  3 24  1  0  0  0  0
  5 25  1  0  0  0  0
  5 26  1  0  0  0  0
  6 27  1  0  0  0  0
  6 28  1  0  0  0  0
  8 29  1  0  0  0  0
  8 30  1  0  0  0  0
  9 31  1  0  0  0  0
 11 32  1  0  0  0  0
 12 33  1  0  0  0  0
 15 34  1  0  0  0  0
M  END
> <BIOSOLVEIT.HYDE_ESTIMATED_AFFINITY_LOWER_BOUNDARY [nM]>
72444.618749

> <BIOSOLVEIT.HYDE_ESTIMATED_AFFINITY_UPPER_BOUNDARY [nM]>
7197801.199185

> <BIOSOLVEIT.HYDE_LIGAND_EFFICIENCY range: ++, +, 0, -, -->
-

> <BIOSOLVEIT.HYDE_LIGAND_LIPOPHILIC_EFFICIENCY range: ++, +, 0, -, -->
--

> <BIOSOLVEIT.LOGP>
1.7345

> <BIOSOLVEIT.MOLECULAR WEIGHT>
284.297

> <BIOSOLVEIT.MOLECULE_CHECKSUM>
LTE3LjkzMTE7MC44NTM4NjM=

> <BIOSOLVEIT.TPSA>
59.73

> <OPTIBRIUM.BBB category>
-

> <OPTIBRIUM.PPB90 category>
low

> <OPTIBRIUM.2C9 pKi>
4.96549

> <OPTIBRIUM.logS @ pH7.4>
1.81647

> <OPTIBRIUM.BBB log([brain]:[blood])>
-0.521743

> <OPTIBRIUM.2D6 affinity category>
medium

> <OPTIBRIUM.logS>
2.223

> <OPTIBRIUM.logD>
1.86778

> <OPTIBRIUM.hERG pIC50>
5.43527

> <OPTIBRIUM.logP>
1.46448

> <OPTIBRIUM.HIA category>
+

> <OPTIBRIUM.P-gp category>
yes

$$$$
KRK_A_501_1_001
joSeeSAR  03092212563D 1   1.00000     0.00000     0
SeeSAR 11.2.2 jonathanwahrer
 34 37  0  0  0  0            999 V2000
   16.4374  -55.3115   37.5617 C   0  0  0  0  0  0  0  0  0  0  0  0
   15.5790  -56.3053   37.9406 C   0  0  0  0  0  0  0  0  0  0  0  0
   14.6138  -55.9876   38.9362 C   0  0  0  0  0  0  0  0  0  0  0  0
   19.5895  -54.1563   34.1176 N   0  0  0  0  0  0  0  0  0  0  0  0
   19.9533  -54.7962   31.8683 C   0  0  0  0  0  0  0  0  0  0  0  0
   20.4621  -53.8777   32.9692 C   0  0  0  0  0  0  0  0  0  0  0  0
   16.2974  -54.0490   38.1938 C   0  0  0  0  0  0  0  0  0  0  0  0
   19.0159  -55.4885   33.9065 C   0  0  0  0  0  0  0  0  0  0  0  0
   18.7403  -55.5185   32.4183 C   0  0  1  0  0  0  0  0  0  0  0  0
   19.3608  -53.3082   35.2089 C   0  0  0  0  0  0  0  0  0  0  0  0
   20.0250  -51.4310   36.4337 C   0  0  0  0  0  0  0  0  0  0  0  0
   18.9677  -51.6200   37.3171 C   0  0  0  0  0  0  0  0  0  0  0  0
   18.1096  -52.6935   37.1030 C   0  0  0  0  0  0  0  0  0  0  0  0
   17.0023  -52.8993   38.0199 C   0  0  0  0  0  0  0  0  0  0  0  0
   16.4679  -51.9285   38.8911 C   0  0  0  0  0  0  0  0  0  0  0  0
   17.6255  -54.8341   32.1711 F   0  0  0  0  0  0  0  0  0  0  0  0
   20.1944  -52.2764   35.4063 N   0  0  0  0  0  0  0  0  0  0  0  0
   15.4978  -52.5402   39.5209 N   0  0  0  0  0  0  0  0  0  0  0  0
   15.3620  -53.7966   39.1391 N   0  0  0  0  0  0  0  0  0  0  0  0
   14.5459  -54.7832   39.4792 N   0  0  0  0  0  0  0  0  0  0  0  0
   18.3356  -53.5018   36.0548 N   0  0  0  0  0  0  0  0  0  0  0  0
   17.1376  -55.4683   36.8651 H   0  0  0  0  0  0  0  0  0  0  0  0
   15.6274  -57.2180   37.5348 H   0  0  0  0  0  0  0  0  0  0  0  0
   13.9701  -56.6929   39.2332 H   0  0  0  0  0  0  0  0  0  0  0  0
   20.6614  -55.4563   31.6174 H   0  0  0  0  0  0  0  0  0  0  0  0
   19.6979  -54.2594   31.0641 H   0  0  0  0  0  0  0  0  0  0  0  0
   21.4147  -54.0863   33.1908 H   0  0  0  0  0  0  0  0  0  0  0  0
   20.3864  -52.9197   32.6926 H   0  0  0  0  0  0  0  0  0  0  0  0
   18.1710  -55.6015   34.4294 H   0  0  0  0  0  0  0  0  0  0  0  0
   19.6659  -56.2033   34.1647 H   0  0  0  0  0  0  0  0  0  0  0  0
   18.6816  -56.4553   32.0734 H   0  0  0  0  0  0  0  0  0  0  0  0
   20.6569  -50.6670   36.5639 H   0  0  0  0  0  0  0  0  0  0  0  0
   18.8276  -50.9989   38.0881 H   0  0  0  0  0  0  0  0  0  0  0  0
   16.7650  -50.9802   39.0032 H   0  0  0  0  0  0  0  0  0  0  0  0
  1  2  2  0  0  0  0
  1  7  1  0  0  0  0
  2  3  1  0  0  0  0
  3 20  2  0  0  0  0
  4  6  1  0  0  0  0
  4  8  1  0  0  0  0
  4 10  1  0  0  0  0
  5  6  1  0  0  0  0
  5  9  1  0  0  0  0
  7 14  2  0  0  0  0
  7 19  1  0  0  0  0
  8  9  1  0  0  0  0
  9 16  1  0  0  0  0
 10 17  1  0  0  0  0
 10 21  2  0  0  0  0
 11 12  1  0  0  0  0
 11 17  2  0  0  0  0
 12 13  2  0  0  0  0
 13 14  1  0  0  0  0
 13 21  1  0  0  0  0
 14 15  1  0  0  0  0
 15 18  2  0  0  0  0
 18 19  1  0  0  0  0
 19 20  1  0  0  0  0
  1 22  1  0  0  0  0
  2 23  1  0  0  0  0
  3 24  1  0  0  0  0
  5 25  1  0  0  0  0
  5 26  1  0  0  0  0
  6 27  1  0  0  0  0
  6 28  1  0  0  0  0
  8 29  1  0  0  0  0
  8 30  1  0  0  0  0
  9 31  1  0  0  0  0
 11 32  1  0  0  0  0
 12 33  1  0  0  0  0
 15 34  1  0  0  0  0
M  END
> <BIOSOLVEIT.HYDE_ESTIMATED_AFFINITY_LOWER_BOUNDARY [nM]>
1683837.094215

> <BIOSOLVEIT.HYDE_ESTIMATED_AFFINITY_UPPER_BOUNDARY [nM]>
167299170.943085

> <BIOSOLVEIT.HYDE_LIGAND_EFFICIENCY range: ++, +, 0, -, -->
--

> <BIOSOLVEIT.HYDE_LIGAND_LIPOPHILIC_EFFICIENCY range: ++, +, 0, -, -->
--

> <BIOSOLVEIT.LOGP>
1.7345

> <BIOSOLVEIT.MOLECULAR WEIGHT>
284.297

> <BIOSOLVEIT.MOLECULE_CHECKSUM>
LTEwLjEzMjM7MC40ODI0OTE=

> <BIOSOLVEIT.TPSA>
59.73

> <OPTIBRIUM.BBB category>
-

> <OPTIBRIUM.PPB90 category>
low

> <OPTIBRIUM.2C9 pKi>
4.96549

> <OPTIBRIUM.logS @ pH7.4>
1.81647

> <OPTIBRIUM.BBB log([brain]:[blood])>
-0.521743

> <OPTIBRIUM.2D6 affinity category>
medium

> <OPTIBRIUM.logS>
2.223

> <OPTIBRIUM.logD>
1.86778

> <OPTIBRIUM.hERG pIC50>
5.43527

> <OPTIBRIUM.logP>
1.46448

> <OPTIBRIUM.HIA category>
+

> <OPTIBRIUM.P-gp category>
yes

$$$$
KRK_A_501_1_010
joSeeSAR  03092212563D 1   1.00000     0.00000     0
SeeSAR 11.2.2 jonathanwahrer
 34 37  0  0  0  0            999 V2000
   16.2066  -55.6651   37.6496 C   0  0  0  0  0  0  0  0  0  0  0  0
   15.3808  -56.6748   38.0576 C   0  0  0  0  0  0  0  0  0  0  0  0
   14.4573  -56.3802   39.0988 C   0  0  0  0  0  0  0  0  0  0  0  0
   19.0693  -54.3195   33.9805 N   0  0  0  0  0  0  0  0  0  0  0  0
   19.7573  -55.1738   31.8983 C   0  0  0  0  0  0  0  0  0  0  0  0
   20.0548  -54.0936   32.9189 C   0  0  0  0  0  0  0  0  0  0  0  0
   16.0772  -54.4103   38.2993 C   0  0  0  0  0  0  0  0  0  0  0  0
   18.2538  -55.4872   33.6304 C   0  0  0  0  0  0  0  0  0  0  0  0
   19.1614  -56.2948   32.7295 C   0  0  1  0  0  0  0  0  0  0  0  0
   18.9359  -53.5426   35.1387 C   0  0  0  0  0  0  0  0  0  0  0  0
   19.7414  -51.7811   36.4474 C   0  0  0  0  0  0  0  0  0  0  0  0
   18.7287  -51.9941   37.3763 C   0  0  0  0  0  0  0  0  0  0  0  0
   17.8181  -53.0185   37.1404 C   0  0  0  0  0  0  0  0  0  0  0  0
   16.7567  -53.2488   38.1044 C   0  0  0  0  0  0  0  0  0  0  0  0
   16.2483  -52.2937   39.0079 C   0  0  0  0  0  0  0  0  0  0  0  0
   18.4699  -57.1460   31.9758 F   0  0  0  0  0  0  0  0  0  0  0  0
   19.8194  -52.5576   35.3567 N   0  0  0  0  0  0  0  0  0  0  0  0
   15.3168  -52.9253   39.6753 N   0  0  0  0  0  0  0  0  0  0  0  0
   15.1820  -54.1802   39.2882 N   0  0  0  0  0  0  0  0  0  0  0  0
   14.3965  -55.1817   39.6557 N   0  0  0  0  0  0  0  0  0  0  0  0
   17.9528  -53.7587   36.0281 N   0  0  0  0  0  0  0  0  0  0  0  0
   16.8767  -55.8054   36.9207 H   0  0  0  0  0  0  0  0  0  0  0  0
   15.4239  -57.5831   37.6416 H   0  0  0  0  0  0  0  0  0  0  0  0
   13.8379  -57.0975   39.4181 H   0  0  0  0  0  0  0  0  0  0  0  0
   20.5948  -55.4742   31.4417 H   0  0  0  0  0  0  0  0  0  0  0  0
   19.1031  -54.8493   31.2151 H   0  0  0  0  0  0  0  0  0  0  0  0
   20.9852  -54.1872   33.2731 H   0  0  0  0  0  0  0  0  0  0  0  0
   19.9408  -53.1850   32.5169 H   0  0  0  0  0  0  0  0  0  0  0  0
   17.4235  -55.2111   33.1463 H   0  0  0  0  0  0  0  0  0  0  0  0
   18.0058  -56.0079   34.4473 H   0  0  0  0  0  0  0  0  0  0  0  0
   19.8665  -56.7687   33.2569 H   0  0  0  0  0  0  0  0  0  0  0  0
   20.4094  -51.0511   36.5923 H   0  0  0  0  0  0  0  0  0  0  0  0
   18.6567  -51.4240   38.1948 H   0  0  0  0  0  0  0  0  0  0  0  0
   16.5366  -51.3421   39.1154 H   0  0  0  0  0  0  0  0  0  0  0  0
  1  2  2  0  0  0  0
  1  7  1  0  0  0  0
  2  3  1  0  0  0  0
  3 20  2  0  0  0  0
  4  6  1  0  0  0  0
  4  8  1  0  0  0  0
  4 10  1  0  0  0  0
  5  6  1  0  0  0  0
  5  9  1  0  0  0  0
  7 14  2  0  0  0  0
  7 19  1  0  0  0  0
  8  9  1  0  0  0  0
  9 16  1  0  0  0  0
 10 17  1  0  0  0  0
 10 21  2  0  0  0  0
 11 12  1  0  0  0  0
 11 17  2  0  0  0  0
 12 13  2  0  0  0  0
 13 14  1  0  0  0  0
 13 21  1  0  0  0  0
 14 15  1  0  0  0  0
 15 18  2  0  0  0  0
 18 19  1  0  0  0  0
 19 20  1  0  0  0  0
  1 22  1  0  0  0  0
  2 23  1  0  0  0  0
  3 24  1  0  0  0  0
  5 25  1  0  0  0  0
  5 26  1  0  0  0  0
  6 27  1  0  0  0  0
  6 28  1  0  0  0  0
  8 29  1  0  0  0  0
  8 30  1  0  0  0  0
  9 31  1  0  0  0  0
 11 32  1  0  0  0  0
 12 33  1  0  0  0  0
 15 34  1  0  0  0  0
M  END
> <BIOSOLVEIT.HYDE_ESTIMATED_AFFINITY_LOWER_BOUNDARY [nM]>
1779584.142063

> <BIOSOLVEIT.HYDE_ESTIMATED_AFFINITY_UPPER_BOUNDARY [nM]>
176812206.248101

> <BIOSOLVEIT.HYDE_LIGAND_EFFICIENCY range: ++, +, 0, -, -->
--

> <BIOSOLVEIT.HYDE_LIGAND_LIPOPHILIC_EFFICIENCY range: ++, +, 0, -, -->
--

> <BIOSOLVEIT.LOGP>
1.7345

> <BIOSOLVEIT.MOLECULAR WEIGHT>
284.297

> <BIOSOLVEIT.MOLECULE_CHECKSUM>
LTkuOTk1MjE7MC40NzU5NjI=

> <BIOSOLVEIT.TPSA>
59.73

> <OPTIBRIUM.BBB category>
-

> <OPTIBRIUM.PPB90 category>
low

> <OPTIBRIUM.2C9 pKi>
4.96549

> <OPTIBRIUM.logS @ pH7.4>
1.81647

> <OPTIBRIUM.BBB log([brain]:[blood])>
-0.521743

> <OPTIBRIUM.2D6 affinity category>
medium

> <OPTIBRIUM.logS>
2.223

> <OPTIBRIUM.logD>
1.86778

> <OPTIBRIUM.hERG pIC50>
5.43527

> <OPTIBRIUM.logP>
1.46448

> <OPTIBRIUM.HIA category>
+

> <OPTIBRIUM.P-gp category>
yes

$$$$
KRK_A_501_1_009
joSeeSAR  03092212563D 1   1.00000     0.00000     0
SeeSAR 11.2.2 jonathanwahrer
 34 37  0  0  0  0            999 V2000
   16.2067  -55.6649   37.6495 C   0  0  0  0  0  0  0  0  0  0  0  0
   15.3809  -56.6746   38.0575 C   0  0  0  0  0  0  0  0  0  0  0  0
   14.4573  -56.3800   39.0987 C   0  0  0  0  0  0  0  0  0  0  0  0
   19.0695  -54.3193   33.9803 N   0  0  0  0  0  0  0  0  0  0  0  0
   19.7576  -55.1735   31.8982 C   0  0  0  0  0  0  0  0  0  0  0  0
   20.0550  -54.0935   32.9189 C   0  0  0  0  0  0  0  0  0  0  0  0
   16.0773  -54.4102   38.2992 C   0  0  0  0  0  0  0  0  0  0  0  0
   18.2539  -55.4868   33.6301 C   0  0  0  0  0  0  0  0  0  0  0  0
   19.1614  -56.2946   32.7294 C   0  0  1  0  0  0  0  0  0  0  0  0
   18.9361  -53.5424   35.1386 C   0  0  0  0  0  0  0  0  0  0  0  0
   19.7416  -51.7808   36.4474 C   0  0  0  0  0  0  0  0  0  0  0  0
   18.7288  -51.9939   37.3763 C   0  0  0  0  0  0  0  0  0  0  0  0
   17.8183  -53.0183   37.1403 C   0  0  0  0  0  0  0  0  0  0  0  0
   16.7569  -53.2486   38.1043 C   0  0  0  0  0  0  0  0  0  0  0  0
   16.2485  -52.2934   39.0079 C   0  0  0  0  0  0  0  0  0  0  0  0
   18.4698  -57.1455   31.9755 F   0  0  0  0  0  0  0  0  0  0  0  0
   19.8196  -52.5574   35.3566 N   0  0  0  0  0  0  0  0  0  0  0  0
   15.3169  -52.9250   39.6752 N   0  0  0  0  0  0  0  0  0  0  0  0
   15.1821  -54.1799   39.2882 N   0  0  0  0  0  0  0  0  0  0  0  0
   14.3966  -55.1816   39.6556 N   0  0  0  0  0  0  0  0  0  0  0  0
   17.9530  -53.7584   36.0279 N   0  0  0  0  0  0  0  0  0  0  0  0
   16.8768  -55.8052   36.9206 H   0  0  0  0  0  0  0  0  0  0  0  0
   15.4240  -57.5829   37.6414 H   0  0  0  0  0  0  0  0  0  0  0  0
   13.8380  -57.0973   39.4179 H   0  0  0  0  0  0  0  0  0  0  0  0
   20.5950  -55.4739   31.4416 H   0  0  0  0  0  0  0  0  0  0  0  0
   19.1035  -54.8488   31.2150 H   0  0  0  0  0  0  0  0  0  0  0  0
   20.9854  -54.1870   33.2732 H   0  0  0  0  0  0  0  0  0  0  0  0
   19.9413  -53.1848   32.5169 H   0  0  0  0  0  0  0  0  0  0  0  0
   17.4236  -55.2106   33.1460 H   0  0  0  0  0  0  0  0  0  0  0  0
   18.0057  -56.0075   34.4470 H   0  0  0  0  0  0  0  0  0  0  0  0
   19.8664  -56.7686   33.2568 H   0  0  0  0  0  0  0  0  0  0  0  0
   20.4096  -51.0510   36.5922 H   0  0  0  0  0  0  0  0  0  0  0  0
   18.6569  -51.4239   38.1947 H   0  0  0  0  0  0  0  0  0  0  0  0
   16.5367  -51.3419   39.1153 H   0  0  0  0  0  0  0  0  0  0  0  0
  1  2  2  0  0  0  0
  1  7  1  0  0  0  0
  2  3  1  0  0  0  0
  3 20  2  0  0  0  0
  4  6  1  0  0  0  0
  4  8  1  0  0  0  0
  4 10  1  0  0  0  0
  5  6  1  0  0  0  0
  5  9  1  0  0  0  0
  7 14  2  0  0  0  0
  7 19  1  0  0  0  0
  8  9  1  0  0  0  0
  9 16  1  0  0  0  0
 10 17  1  0  0  0  0
 10 21  2  0  0  0  0
 11 12  1  0  0  0  0
 11 17  2  0  0  0  0
 12 13  2  0  0  0  0
 13 14  1  0  0  0  0
 13 21  1  0  0  0  0
 14 15  1  0  0  0  0
 15 18  2  0  0  0  0
 18 19  1  0  0  0  0
 19 20  1  0  0  0  0
  1 22  1  0  0  0  0
  2 23  1  0  0  0  0
  3 24  1  0  0  0  0
  5 25  1  0  0  0  0
  5 26  1  0  0  0  0
  6 27  1  0  0  0  0
  6 28  1  0  0  0  0
  8 29  1  0  0  0  0
  8 30  1  0  0  0  0
  9 31  1  0  0  0  0
 11 32  1  0  0  0  0
 12 33  1  0  0  0  0
 15 34  1  0  0  0  0
M  END
> <BIOSOLVEIT.HYDE_ESTIMATED_AFFINITY_LOWER_BOUNDARY [nM]>
1782429.615674

> <BIOSOLVEIT.HYDE_ESTIMATED_AFFINITY_UPPER_BOUNDARY [nM]>
177094920.875161

> <BIOSOLVEIT.HYDE_LIGAND_EFFICIENCY range: ++, +, 0, -, -->
--

> <BIOSOLVEIT.HYDE_LIGAND_LIPOPHILIC_EFFICIENCY range: ++, +, 0, -, -->
--

> <BIOSOLVEIT.LOGP>
1.7345

> <BIOSOLVEIT.MOLECULAR WEIGHT>
284.297

> <BIOSOLVEIT.MOLECULE_CHECKSUM>
LTkuOTkxMjU7MC40NzU3NzQ=

> <BIOSOLVEIT.TPSA>
59.73

> <OPTIBRIUM.BBB category>
-

> <OPTIBRIUM.PPB90 category>
low

> <OPTIBRIUM.2C9 pKi>
4.96549

> <OPTIBRIUM.logS @ pH7.4>
1.81647

> <OPTIBRIUM.BBB log([brain]:[blood])>
-0.521743

> <OPTIBRIUM.2D6 affinity category>
medium

> <OPTIBRIUM.logS>
2.223

> <OPTIBRIUM.logD>
1.86778

> <OPTIBRIUM.hERG pIC50>
5.43527

> <OPTIBRIUM.logP>
1.46448

> <OPTIBRIUM.HIA category>
+

> <OPTIBRIUM.P-gp category>
yes

$$$$
KRK_A_501_1_007
joSeeSAR  03092212563D 1   1.00000     0.00000     0
SeeSAR 11.2.2 jonathanwahrer
 34 37  0  0  0  0            999 V2000
   16.2602  -55.5657   37.6144 C   0  0  0  0  0  0  0  0  0  0  0  0
   15.4328  -56.5819   38.0028 C   0  0  0  0  0  0  0  0  0  0  0  0
   14.4928  -56.2990   39.0324 C   0  0  0  0  0  0  0  0  0  0  0  0
   19.2922  -54.3040   34.1044 N   0  0  0  0  0  0  0  0  0  0  0  0
   19.2137  -56.0779   32.5597 C   0  0  0  0  0  0  0  0  0  0  0  0
   18.5981  -55.5695   33.8479 C   0  0  0  0  0  0  0  0  0  0  0  0
   16.1160  -54.3164   38.2715 C   0  0  0  0  0  0  0  0  0  0  0  0
   20.2422  -54.0546   33.0151 C   0  0  0  0  0  0  0  0  0  0  0  0
   19.6473  -54.8099   31.8476 C   0  0  1  0  0  0  0  0  0  0  0  0
   19.0763  -53.4733   35.2116 C   0  0  0  0  0  0  0  0  0  0  0  0
   19.7323  -51.5940   36.4376 C   0  0  0  0  0  0  0  0  0  0  0  0
   18.7064  -51.8177   37.3495 C   0  0  0  0  0  0  0  0  0  0  0  0
   17.8679  -52.9088   37.1486 C   0  0  0  0  0  0  0  0  0  0  0  0
   16.7933  -53.1507   38.0952 C   0  0  0  0  0  0  0  0  0  0  0  0
   16.2678  -52.2044   38.9984 C   0  0  0  0  0  0  0  0  0  0  0  0
   20.5607  -55.0635   30.9136 F   0  0  0  0  0  0  0  0  0  0  0  0
   19.8909  -52.4242   35.3961 N   0  0  0  0  0  0  0  0  0  0  0  0
   15.3293  -52.8449   39.6472 N   0  0  0  0  0  0  0  0  0  0  0  0
   15.2055  -54.0974   39.2489 N   0  0  0  0  0  0  0  0  0  0  0  0
   14.4190  -55.1050   39.5974 N   0  0  0  0  0  0  0  0  0  0  0  0
   18.0815  -53.7003   36.0850 N   0  0  0  0  0  0  0  0  0  0  0  0
   16.9414  -55.6977   36.8944 H   0  0  0  0  0  0  0  0  0  0  0  0
   15.4859  -57.4868   37.5805 H   0  0  0  0  0  0  0  0  0  0  0  0
   13.8720  -57.0212   39.3372 H   0  0  0  0  0  0  0  0  0  0  0  0
   18.5411  -56.5804   32.0164 H   0  0  0  0  0  0  0  0  0  0  0  0
   19.9987  -56.6682   32.7476 H   0  0  0  0  0  0  0  0  0  0  0  0
   17.6158  -55.4187   33.7361 H   0  0  0  0  0  0  0  0  0  0  0  0
   18.7532  -56.2165   34.5944 H   0  0  0  0  0  0  0  0  0  0  0  0
   21.1494  -54.4074   33.2442 H   0  0  0  0  0  0  0  0  0  0  0  0
   20.3059  -53.0772   32.8133 H   0  0  0  0  0  0  0  0  0  0  0  0
   18.8624  -54.3236   31.4639 H   0  0  0  0  0  0  0  0  0  0  0  0
   20.3498  -50.8167   36.5579 H   0  0  0  0  0  0  0  0  0  0  0  0
   18.5748  -51.2082   38.1313 H   0  0  0  0  0  0  0  0  0  0  0  0
   16.5504  -51.2526   39.1171 H   0  0  0  0  0  0  0  0  0  0  0  0
  1  2  2  0  0  0  0
  1  7  1  0  0  0  0
  2  3  1  0  0  0  0
  3 20  2  0  0  0  0
  4  6  1  0  0  0  0
  4  8  1  0  0  0  0
  4 10  1  0  0  0  0
  5  6  1  0  0  0  0
  5  9  1  0  0  0  0
  7 14  2  0  0  0  0
  7 19  1  0  0  0  0
  8  9  1  0  0  0  0
  9 16  1  0  0  0  0
 10 17  1  0  0  0  0
 10 21  2  0  0  0  0
 11 12  1  0  0  0  0
 11 17  2  0  0  0  0
 12 13  2  0  0  0  0
 13 14  1  0  0  0  0
 13 21  1  0  0  0  0
 14 15  1  0  0  0  0
 15 18  2  0  0  0  0
 18 19  1  0  0  0  0
 19 20  1  0  0  0  0
  1 22  1  0  0  0  0
  2 23  1  0  0  0  0
  3 24  1  0  0  0  0
  5 25  1  0  0  0  0
  5 26  1  0  0  0  0
  6 27  1  0  0  0  0
  6 28  1  0  0  0  0
  8 29  1  0  0  0  0
  8 30  1  0  0  0  0
  9 31  1  0  0  0  0
 11 32  1  0  0  0  0
 12 33  1  0  0  0  0
 15 34  1  0  0  0  0
M  END
> <BIOSOLVEIT.HYDE_ESTIMATED_AFFINITY_LOWER_BOUNDARY [nM]>
2212212.549698

> <BIOSOLVEIT.HYDE_ESTIMATED_AFFINITY_UPPER_BOUNDARY [nM]>
219796396.448259

> <BIOSOLVEIT.HYDE_LIGAND_EFFICIENCY range: ++, +, 0, -, -->
--

> <BIOSOLVEIT.HYDE_LIGAND_LIPOPHILIC_EFFICIENCY range: ++, +, 0, -, -->
--

> <BIOSOLVEIT.LOGP>
1.7345

> <BIOSOLVEIT.MOLECULAR WEIGHT>
284.297

> <BIOSOLVEIT.MOLECULE_CHECKSUM>
LTkuNDU1NzU7MC40NTAyNzQ=

> <BIOSOLVEIT.TPSA>
59.73

> <OPTIBRIUM.BBB category>
-

> <OPTIBRIUM.PPB90 category>
low

> <OPTIBRIUM.2C9 pKi>
4.96549

> <OPTIBRIUM.logS @ pH7.4>
1.81647

> <OPTIBRIUM.BBB log([brain]:[blood])>
-0.521743

> <OPTIBRIUM.2D6 affinity category>
medium

> <OPTIBRIUM.logS>
2.223

> <OPTIBRIUM.logD>
1.86778

> <OPTIBRIUM.hERG pIC50>
5.43527

> <OPTIBRIUM.logP>
1.46448

> <OPTIBRIUM.HIA category>
+

> <OPTIBRIUM.P-gp category>
yes

$$$$
KRK_A_501_1_005
joSeeSAR  03092212563D 1   1.00000     0.00000     0
SeeSAR 11.2.2 jonathanwahrer
 34 37  0  0  0  0            999 V2000
   16.2790  -55.5282   37.6107 C   0  0  0  0  0  0  0  0  0  0  0  0
   15.4576  -56.5563   37.9799 C   0  0  0  0  0  0  0  0  0  0  0  0
   14.5048  -56.2934   39.0030 C   0  0  0  0  0  0  0  0  0  0  0  0
   19.3941  -54.2543   34.1999 N   0  0  0  0  0  0  0  0  0  0  0  0
   19.6239  -54.5805   31.9133 C   0  0  0  0  0  0  0  0  0  0  0  0
   20.3290  -53.9768   33.1088 C   0  0  0  0  0  0  0  0  0  0  0  0
   16.1162  -54.2875   38.2796 C   0  0  0  0  0  0  0  0  0  0  0  0
   18.8103  -55.5750   33.9525 C   0  0  0  0  0  0  0  0  0  0  0  0
   18.9247  -55.8151   32.4537 C   0  0  1  0  0  0  0  0  0  0  0  0
   19.1282  -53.4097   35.2856 C   0  0  0  0  0  0  0  0  0  0  0  0
   19.6930  -51.4830   36.4828 C   0  0  0  0  0  0  0  0  0  0  0  0
   18.6599  -51.7259   37.3817 C   0  0  0  0  0  0  0  0  0  0  0  0
   17.8656  -52.8512   37.1894 C   0  0  0  0  0  0  0  0  0  0  0  0
   16.7841  -53.1135   38.1226 C   0  0  0  0  0  0  0  0  0  0  0  0
   16.2405  -52.1820   39.0303 C   0  0  0  0  0  0  0  0  0  0  0  0
   17.7326  -55.9710   31.8864 F   0  0  0  0  0  0  0  0  0  0  0  0
   19.9004  -52.3275   35.4618 N   0  0  0  0  0  0  0  0  0  0  0  0
   15.3016  -52.8383   39.6628 N   0  0  0  0  0  0  0  0  0  0  0  0
   15.1940  -54.0876   39.2500 N   0  0  0  0  0  0  0  0  0  0  0  0
   14.4138  -55.1063   39.5797 N   0  0  0  0  0  0  0  0  0  0  0  0
   18.1270  -53.6557   36.1465 N   0  0  0  0  0  0  0  0  0  0  0  0
   16.9687  -55.6459   36.8962 H   0  0  0  0  0  0  0  0  0  0  0  0
   15.5237  -57.4561   37.5486 H   0  0  0  0  0  0  0  0  0  0  0  0
   13.8879  -57.0248   39.2937 H   0  0  0  0  0  0  0  0  0  0  0  0
   20.2840  -54.8318   31.2054 H   0  0  0  0  0  0  0  0  0  0  0  0
   18.9586  -53.9367   31.5352 H   0  0  0  0  0  0  0  0  0  0  0  0
   21.2122  -54.4179   33.2684 H   0  0  0  0  0  0  0  0  0  0  0  0
   20.4644  -52.9932   32.9900 H   0  0  0  0  0  0  0  0  0  0  0  0
   17.8508  -55.5882   34.2337 H   0  0  0  0  0  0  0  0  0  0  0  0
   19.3147  -56.2768   34.4556 H   0  0  0  0  0  0  0  0  0  0  0  0
   19.4878  -56.6236   32.2833 H   0  0  0  0  0  0  0  0  0  0  0  0
   20.2793  -50.6810   36.5974 H   0  0  0  0  0  0  0  0  0  0  0  0
   18.4921  -51.1060   38.1482 H   0  0  0  0  0  0  0  0  0  0  0  0
   16.5126  -51.2288   39.1620 H   0  0  0  0  0  0  0  0  0  0  0  0
  1  2  2  0  0  0  0
  1  7  1  0  0  0  0
  2  3  1  0  0  0  0
  3 20  2  0  0  0  0
  4  6  1  0  0  0  0
  4  8  1  0  0  0  0
  4 10  1  0  0  0  0
  5  6  1  0  0  0  0
  5  9  1  0  0  0  0
  7 14  2  0  0  0  0
  7 19  1  0  0  0  0
  8  9  1  0  0  0  0
  9 16  1  0  0  0  0
 10 17  1  0  0  0  0
 10 21  2  0  0  0  0
 11 12  1  0  0  0  0
 11 17  2  0  0  0  0
 12 13  2  0  0  0  0
 13 14  1  0  0  0  0
 13 21  1  0  0  0  0
 14 15  1  0  0  0  0
 15 18  2  0  0  0  0
 18 19  1  0  0  0  0
 19 20  1  0  0  0  0
  1 22  1  0  0  0  0
  2 23  1  0  0  0  0
  3 24  1  0  0  0  0
  5 25  1  0  0  0  0
  5 26  1  0  0  0  0
  6 27  1  0  0  0  0
  6 28  1  0  0  0  0
  8 29  1  0  0  0  0
  8 30  1  0  0  0  0
  9 31  1  0  0  0  0
 11 32  1  0  0  0  0
 12 33  1  0  0  0  0
 15 34  1  0  0  0  0
M  END
> <BIOSOLVEIT.HYDE_ESTIMATED_AFFINITY_LOWER_BOUNDARY [nM]>
3167614.113767

> <BIOSOLVEIT.HYDE_ESTIMATED_AFFINITY_UPPER_BOUNDARY [nM]>
314721190.619592

> <BIOSOLVEIT.HYDE_LIGAND_EFFICIENCY range: ++, +, 0, -, -->
--

> <BIOSOLVEIT.HYDE_LIGAND_LIPOPHILIC_EFFICIENCY range: ++, +, 0, -, -->
--

> <BIOSOLVEIT.LOGP>
1.7345

> <BIOSOLVEIT.MOLECULAR WEIGHT>
284.297

> <BIOSOLVEIT.MOLECULE_CHECKSUM>
LTguNTY1ODQ7MC40MDc4OTc=

> <BIOSOLVEIT.TPSA>
59.73

> <OPTIBRIUM.BBB category>
-

> <OPTIBRIUM.PPB90 category>
low

> <OPTIBRIUM.2C9 pKi>
4.96549

> <OPTIBRIUM.logS @ pH7.4>
1.81647

> <OPTIBRIUM.BBB log([brain]:[blood])>
-0.521743

> <OPTIBRIUM.2D6 affinity category>
medium

> <OPTIBRIUM.logS>
2.223

> <OPTIBRIUM.logD>
1.86778

> <OPTIBRIUM.hERG pIC50>
5.43527

> <OPTIBRIUM.logP>
1.46448

> <OPTIBRIUM.HIA category>
+

> <OPTIBRIUM.P-gp category>
yes

$$$$
KRK_A_501_1_002
joSeeSAR  03092212563D 1   1.00000     0.00000     0
SeeSAR 11.2.2 jonathanwahrer
 34 37  0  0  0  0            999 V2000
   16.2960  -55.5057   37.6053 C   0  0  0  0  0  0  0  0  0  0  0  0
   15.4712  -56.5301   37.9772 C   0  0  0  0  0  0  0  0  0  0  0  0
   14.5175  -56.2606   38.9977 C   0  0  0  0  0  0  0  0  0  0  0  0
   19.4587  -54.2863   34.2305 N   0  0  0  0  0  0  0  0  0  0  0  0
   19.0832  -55.9415   32.5704 C   0  0  0  0  0  0  0  0  0  0  0  0
   18.9112  -55.6336   34.0479 C   0  0  0  0  0  0  0  0  0  0  0  0
   16.1355  -54.2620   38.2689 C   0  0  0  0  0  0  0  0  0  0  0  0
   20.3542  -54.0120   33.1073 C   0  0  0  0  0  0  0  0  0  0  0  0
   19.6226  -54.6643   31.9544 C   0  0  1  0  0  0  0  0  0  0  0  0
   19.1734  -53.4200   35.2939 C   0  0  0  0  0  0  0  0  0  0  0  0
   19.7024  -51.4571   36.4481 C   0  0  0  0  0  0  0  0  0  0  0  0
   18.6671  -51.6937   37.3461 C   0  0  0  0  0  0  0  0  0  0  0  0
   17.8904  -52.8346   37.1760 C   0  0  0  0  0  0  0  0  0  0  0  0
   16.8066  -53.0904   38.1083 C   0  0  0  0  0  0  0  0  0  0  0  0
   16.2640  -52.1539   39.0115 C   0  0  0  0  0  0  0  0  0  0  0  0
   20.4667  -54.9690   30.9733 F   0  0  0  0  0  0  0  0  0  0  0  0
   19.9287  -52.3228   35.4490 N   0  0  0  0  0  0  0  0  0  0  0  0
   15.3225  -52.8051   39.6450 N   0  0  0  0  0  0  0  0  0  0  0  0
   15.2121  -54.0557   39.2370 N   0  0  0  0  0  0  0  0  0  0  0  0
   14.4286  -55.0710   39.5695 N   0  0  0  0  0  0  0  0  0  0  0  0
   18.1703  -53.6599   36.1542 N   0  0  0  0  0  0  0  0  0  0  0  0
   16.9866  -55.6282   36.8924 H   0  0  0  0  0  0  0  0  0  0  0  0
   15.5355  -57.4318   37.5496 H   0  0  0  0  0  0  0  0  0  0  0  0
   13.8981  -56.9892   39.2903 H   0  0  0  0  0  0  0  0  0  0  0  0
   18.2049  -56.1849   32.1589 H   0  0  0  0  0  0  0  0  0  0  0  0
   19.7309  -56.6927   32.4423 H   0  0  0  0  0  0  0  0  0  0  0  0
   17.9436  -55.6553   34.2996 H   0  0  0  0  0  0  0  0  0  0  0  0
   19.4152  -56.2944   34.6041 H   0  0  0  0  0  0  0  0  0  0  0  0
   21.2526  -54.4275   33.2491 H   0  0  0  0  0  0  0  0  0  0  0  0
   20.4613  -53.0287   32.9598 H   0  0  0  0  0  0  0  0  0  0  0  0
   18.8799  -54.0823   31.6232 H   0  0  0  0  0  0  0  0  0  0  0  0
   20.2763  -50.6442   36.5471 H   0  0  0  0  0  0  0  0  0  0  0  0
   18.4854  -51.0580   38.0965 H   0  0  0  0  0  0  0  0  0  0  0  0
   16.5385  -51.2008   39.1398 H   0  0  0  0  0  0  0  0  0  0  0  0
  1  2  2  0  0  0  0
  1  7  1  0  0  0  0
  2  3  1  0  0  0  0
  3 20  2  0  0  0  0
  4  6  1  0  0  0  0
  4  8  1  0  0  0  0
  4 10  1  0  0  0  0
  5  6  1  0  0  0  0
  5  9  1  0  0  0  0
  7 14  2  0  0  0  0
  7 19  1  0  0  0  0
  8  9  1  0  0  0  0
  9 16  1  0  0  0  0
 10 17  1  0  0  0  0
 10 21  2  0  0  0  0
 11 12  1  0  0  0  0
 11 17  2  0  0  0  0
 12 13  2  0  0  0  0
 13 14  1  0  0  0  0
 13 21  1  0  0  0  0
 14 15  1  0  0  0  0
 15 18  2  0  0  0  0
 18 19  1  0  0  0  0
 19 20  1  0  0  0  0
  1 22  1  0  0  0  0
  2 23  1  0  0  0  0
  3 24  1  0  0  0  0
  5 25  1  0  0  0  0
  5 26  1  0  0  0  0
  6 27  1  0  0  0  0
  6 28  1  0  0  0  0
  8 29  1  0  0  0  0
  8 30  1  0  0  0  0
  9 31  1  0  0  0  0
 11 32  1  0  0  0  0
 12 33  1  0  0  0  0
 15 34  1  0  0  0  0
M  END
> <BIOSOLVEIT.HYDE_ESTIMATED_AFFINITY_LOWER_BOUNDARY [nM]>
3759745.510047

> <BIOSOLVEIT.HYDE_ESTIMATED_AFFINITY_UPPER_BOUNDARY [nM]>
373552945.797901

> <BIOSOLVEIT.HYDE_LIGAND_EFFICIENCY range: ++, +, 0, -, -->
--

> <BIOSOLVEIT.HYDE_LIGAND_LIPOPHILIC_EFFICIENCY range: ++, +, 0, -, -->
--

> <BIOSOLVEIT.LOGP>
1.7345

> <BIOSOLVEIT.MOLECULAR WEIGHT>
284.297

> <BIOSOLVEIT.MOLECULE_CHECKSUM>
LTguMTQxMDI7MC4zODc2Njg=

> <BIOSOLVEIT.TPSA>
59.73

> <OPTIBRIUM.BBB category>
-

> <OPTIBRIUM.PPB90 category>
low

> <OPTIBRIUM.2C9 pKi>
4.96549

> <OPTIBRIUM.logS @ pH7.4>
1.81647

> <OPTIBRIUM.BBB log([brain]:[blood])>
-0.521743

> <OPTIBRIUM.2D6 affinity category>
medium

> <OPTIBRIUM.logS>
2.223

> <OPTIBRIUM.logD>
1.86778

> <OPTIBRIUM.hERG pIC50>
5.43527

> <OPTIBRIUM.logP>
1.46448

> <OPTIBRIUM.HIA category>
+

> <OPTIBRIUM.P-gp category>
yes

$$$$
KRK_A_501_1_004
joSeeSAR  03092212563D 1   1.00000     0.00000     0
SeeSAR 11.2.2 jonathanwahrer
 34 37  0  0  0  0            999 V2000
   18.1455  -51.4658   37.0737 C   0  0  0  0  0  0  0  0  0  0  0  0
   18.8545  -50.3786   36.6454 C   0  0  0  0  0  0  0  0  0  0  0  0
   19.9598  -50.6204   35.7830 C   0  0  0  0  0  0  0  0  0  0  0  0
   14.4930  -56.9308   38.3094 N   0  0  0  0  0  0  0  0  0  0  0  0
   13.4596  -58.6934   37.2443 C   0  0  0  0  0  0  0  0  0  0  0  0
   14.8019  -58.0132   37.3803 C   0  0  0  0  0  0  0  0  0  0  0  0
   18.5719  -52.7431   36.6267 C   0  0  0  0  0  0  0  0  0  0  0  0
   13.3314  -57.3030   39.1204 C   0  0  0  0  0  0  0  0  0  0  0  0
   12.9927  -58.7103   38.6811 C   0  0  1  0  0  0  0  0  0  0  0  0
   15.1880  -55.7187   38.4125 C   0  0  0  0  0  0  0  0  0  0  0  0
   15.4024  -53.6396   39.4596 C   0  0  0  0  0  0  0  0  0  0  0  0
   16.5010  -53.3391   38.6616 C   0  0  0  0  0  0  0  0  0  0  0  0
   16.9195  -54.2816   37.7284 C   0  0  0  0  0  0  0  0  0  0  0  0
   18.0660  -53.9773   36.8906 C   0  0  0  0  0  0  0  0  0  0  0  0
   18.8529  -54.9233   36.2028 C   0  0  0  0  0  0  0  0  0  0  0  0
   11.6748  -58.8693   38.7404 F   0  0  0  0  0  0  0  0  0  0  0  0
   14.7760  -54.8168   39.3153 N   0  0  0  0  0  0  0  0  0  0  0  0
   19.7626  -54.2161   35.5829 N   0  0  0  0  0  0  0  0  0  0  0  0
   19.6335  -52.9213   35.8059 N   0  0  0  0  0  0  0  0  0  0  0  0
   20.2951  -51.8443   35.4093 N   0  0  0  0  0  0  0  0  0  0  0  0
   16.2480  -55.4408   37.6357 N   0  0  0  0  0  0  0  0  0  0  0  0
   17.3562  -51.3648   37.6793 H   0  0  0  0  0  0  0  0  0  0  0  0
   18.6066  -49.4515   36.9266 H   0  0  0  0  0  0  0  0  0  0  0  0
   20.4971  -49.8452   35.4508 H   0  0  0  0  0  0  0  0  0  0  0  0
   13.5533  -59.6193   36.8784 H   0  0  0  0  0  0  0  0  0  0  0  0
   12.8390  -58.1667   36.6634 H   0  0  0  0  0  0  0  0  0  0  0  0
   15.4883  -58.6339   37.7591 H   0  0  0  0  0  0  0  0  0  0  0  0
   15.1216  -57.6590   36.5015 H   0  0  0  0  0  0  0  0  0  0  0  0
   12.5655  -56.6846   38.9445 H   0  0  0  0  0  0  0  0  0  0  0  0
   13.5595  -57.2826   40.0938 H   0  0  0  0  0  0  0  0  0  0  0  0
   13.4766  -59.3974   39.2231 H   0  0  0  0  0  0  0  0  0  0  0  0
   15.0804  -52.9801   40.1388 H   0  0  0  0  0  0  0  0  0  0  0  0
   16.9789  -52.4659   38.7565 H   0  0  0  0  0  0  0  0  0  0  0  0
   18.7406  -55.9169   36.1913 H   0  0  0  0  0  0  0  0  0  0  0  0
  1  2  2  0  0  0  0
  1  7  1  0  0  0  0
  2  3  1  0  0  0  0
  3 20  2  0  0  0  0
  4  6  1  0  0  0  0
  4  8  1  0  0  0  0
  4 10  1  0  0  0  0
  5  6  1  0  0  0  0
  5  9  1  0  0  0  0
  7 14  2  0  0  0  0
  7 19  1  0  0  0  0
  8  9  1  0  0  0  0
  9 16  1  0  0  0  0
 10 17  1  0  0  0  0
 10 21  2  0  0  0  0
 11 12  1  0  0  0  0
 11 17  2  0  0  0  0
 12 13  2  0  0  0  0
 13 14  1  0  0  0  0
 13 21  1  0  0  0  0
 14 15  1  0  0  0  0
 15 18  2  0  0  0  0
 18 19  1  0  0  0  0
 19 20  1  0  0  0  0
  1 22  1  0  0  0  0
  2 23  1  0  0  0  0
  3 24  1  0  0  0  0
  5 25  1  0  0  0  0
  5 26  1  0  0  0  0
  6 27  1  0  0  0  0
  6 28  1  0  0  0  0
  8 29  1  0  0  0  0
  8 30  1  0  0  0  0
  9 31  1  0  0  0  0
 11 32  1  0  0  0  0
 12 33  1  0  0  0  0
 15 34  1  0  0  0  0
M  END
> <BIOSOLVEIT.LOGP>
1.7345

> <BIOSOLVEIT.MOLECULAR WEIGHT>
284.297

> <BIOSOLVEIT.TPSA>
59.73

> <OPTIBRIUM.BBB category>
-

> <OPTIBRIUM.PPB90 category>
low

> <OPTIBRIUM.2C9 pKi>
4.96549

> <OPTIBRIUM.logS @ pH7.4>
1.81647

> <OPTIBRIUM.BBB log([brain]:[blood])>
-0.521743

> <OPTIBRIUM.2D6 affinity category>
medium

> <OPTIBRIUM.logS>
2.223

> <OPTIBRIUM.logD>
1.86778

> <OPTIBRIUM.hERG pIC50>
5.43527

> <OPTIBRIUM.logP>
1.46448

> <OPTIBRIUM.HIA category>
+

> <OPTIBRIUM.P-gp category>
yes

$$$$
