2


 38 41  0  0  0  0  0  0  0  0999 V2000
    2.4205  -17.5471  -36.6017 C   0  0  0  0  0  0  0  0  0  0  0  0
    3.1404  -17.9318  -35.4905 N   0  0  0  0  0  0  0  0  0  0  0  0
    3.9446  -18.8802  -35.8496 N   0  0  0  0  0  0  0  0  0  0  0  0
    3.7764  -19.1370  -37.1761 N   0  0  0  0  0  0  0  0  0  0  0  0
    2.8408  -18.3283  -37.6701 C   0  0  0  0  0  0  0  0  0  0  0  0
    4.5567  -20.1601  -37.7995 C   0  0  0  0  0  0  0  0  0  0  0  0
    4.2355  -21.3607  -38.2644 N   0  0  0  0  0  0  0  0  0  0  0  0
    5.3048  -21.8839  -38.7674 O   0  0  0  0  0  0  0  0  0  0  0  0
    6.3247  -21.0912  -38.6607 N   0  0  0  0  0  0  0  0  0  0  0  0
    5.9250  -19.9798  -38.0580 C   0  0  0  0  0  0  0  0  0  0  0  0
    6.6685  -18.8210  -37.7171 N   0  0  0  0  0  0  0  0  0  0  0  0
    7.1779  -18.3020  -38.4622 H   0  0  0  0  0  0  0  0  0  0  0  0
    6.7309  -18.4548  -36.7238 H   0  0  0  0  0  0  0  0  0  0  0  0
    1.5662  -15.1344  -36.2752 N   0  0  0  0  0  0  0  0  0  0  0  0
    1.4306  -16.4977  -36.5607 C   0  0  0  0  0  0  0  0  0  0  0  0
    0.2186  -16.8954  -36.8390 O   0  0  0  0  0  0  0  0  0  0  0  0
    2.4278  -14.6650  -36.0510 H   0  0  0  0  0  0  0  0  0  0  0  0
    0.3620  -13.1397  -35.8997 C   0  0  0  0  0  0  0  0  0  0  0  0
    0.3623  -14.3494  -36.3182 N   0  0  0  0  0  0  0  0  0  0  0  0
   -3.0017  -10.1976  -38.8097 Br  0  0  0  0  0  0  0  0  0  0  0  0
   -2.4148  -10.9502  -37.1435 C   0  0  0  0  0  0  0  0  0  0  0  0
   -3.1462  -10.6761  -36.0038 C   0  0  0  0  0  0  0  0  0  0  0  0
   -2.7082  -11.2264  -34.8190 C   0  0  0  0  0  0  0  0  0  0  0  0
   -1.5748  -12.0217  -34.7879 C   0  0  0  0  0  0  0  0  0  0  0  0
   -0.8414  -12.2978  -35.9234 C   0  0  0  0  0  0  0  0  0  0  0  0
   -1.2859  -11.7433  -37.1055 C   0  0  0  0  0  0  0  0  0  0  0  0
   -0.5358  -12.0267  -38.2615 O   0  0  0  0  0  0  0  0  0  0  0  0
   -3.7233  -10.8449  -33.2439 Br  0  0  0  0  0  0  0  0  0  0  0  0
   -4.2842   -9.8701  -36.0722 O   0  0  0  0  0  0  0  0  0  0  0  0
   -0.8274  -11.6418  -39.1466 H   0  0  0  0  0  0  0  0  0  0  0  0
    2.3306  -18.2361  -39.0376 C   0  0  0  0  0  0  0  0  0  0  0  0
    1.0060  -18.6422  -39.3220 N   0  0  0  0  0  0  0  0  0  0  0  0
    0.8925  -20.0559  -39.6491 C   0  0  0  0  0  0  0  0  0  0  0  0
    1.8457  -20.4399  -40.7086 C   0  0  0  0  0  0  0  0  0  0  0  0
    2.1833  -19.5750  -41.6671 O   0  0  0  0  0  0  0  0  0  0  0  0
    1.6901  -18.3110  -41.6365 C   0  0  0  0  0  0  0  0  0  0  0  0
    0.6474  -18.0164  -40.6364 C   0  0  0  0  0  0  0  0  0  0  0  0
    0.3352  -18.3373  -38.6322 H   0  0  0  0  0  0  0  0  0  0  0  0
 20 21  1  0  0  0
 21 22  2  0  0  0
 21 26  1  0  0  0
 22 23  1  0  0  0
 22 29  1  0  0  0
 23 24  2  0  0  0
 23 28  1  0  0  0
 24 25  1  0  0  0
 25 26  2  0  0  0
 25 18  1  0  0  0
 26 27  1  0  0  0
 18 19  2  0  0  0
 19 14  1  0  0  0
 14 15  1  0  0  0
 15 16  2  0  0  0
 15  1  1  0  0  0
  1  2  1  0  0  0
  1  5  2  0  0  0
  2  3  2  0  0  0
  3  4  1  0  0  0
  4  5  1  0  0  0
  4  6  1  0  0  0
  5 31  1  0  0  0
 31 32  1  0  0  0
 32 33  1  0  0  0
 32 37  1  0  0  0
 33 34  1  0  0  0
 34 35  1  0  0  0
 35 36  1  0  0  0
 36 37  1  0  0  0
  6  7  2  0  0  0
  6 10  1  0  0  0
  7  8  1  0  0  0
  8  9  1  0  0  0
  9 10  2  0  0  0
 10 11  1  0  0  0
 27 30  1  0  0  0
 14 17  1  0  0  0
 32 38  1  0  0  0
 11 12  1  0  0  0
 11 13  1  0  0  0
M  CHG 1  29  -1
M  CHG 1  32   1
M  END
> <minimizedAffinity>
-6.75741

$$$$
3


 38 41  0  0  0  0  0  0  0  0999 V2000
    2.3556  -17.4408  -36.3096 C   0  0  0  0  0  0  0  0  0  0  0  0
    3.1243  -17.9482  -35.2920 N   0  0  0  0  0  0  0  0  0  0  0  0
    3.8919  -18.8935  -35.7591 N   0  0  0  0  0  0  0  0  0  0  0  0
    3.7015  -19.0743  -37.0546 N   0  0  0  0  0  0  0  0  0  0  0  0
    2.7565  -18.1916  -37.4199 C   0  0  0  0  0  0  0  0  0  0  0  0
    4.4185  -20.0118  -37.8381 C   0  0  0  0  0  0  0  0  0  0  0  0
    3.9882  -21.1535  -38.4161 N   0  0  0  0  0  0  0  0  0  0  0  0
    4.9722  -21.7204  -39.0626 O   0  0  0  0  0  0  0  0  0  0  0  0
    6.0637  -21.0075  -38.9483 N   0  0  0  0  0  0  0  0  0  0  0  0
    5.7565  -19.9387  -38.1945 C   0  0  0  0  0  0  0  0  0  0  0  0
    6.6738  -18.9250  -37.8428 N   0  0  0  0  0  0  0  0  0  0  0  0
    7.0032  -18.2717  -38.5765 H   0  0  0  0  0  0  0  0  0  0  0  0
    7.0324  -18.8064  -36.8782 H   0  0  0  0  0  0  0  0  0  0  0  0
    1.5138  -15.0240  -36.4417 N   0  0  0  0  0  0  0  0  0  0  0  0
    1.3777  -16.3785  -36.1697 C   0  0  0  0  0  0  0  0  0  0  0  0
    0.2301  -16.7650  -35.7297 O   0  0  0  0  0  0  0  0  0  0  0  0
    2.3659  -14.5300  -36.7987 H   0  0  0  0  0  0  0  0  0  0  0  0
    0.5261  -12.9190  -36.1104 C   0  0  0  0  0  0  0  0  0  0  0  0
    0.3670  -14.1907  -36.2097 N   0  0  0  0  0  0  0  0  0  0  0  0
   -2.2145   -8.7072  -37.8116 Br  0  0  0  0  0  0  0  0  0  0  0  0
   -1.8878  -10.0797  -36.5472 C   0  0  0  0  0  0  0  0  0  0  0  0
   -2.6705  -10.1832  -35.4346 C   0  0  0  0  0  0  0  0  0  0  0  0
   -2.4049  -11.2017  -34.5229 C   0  0  0  0  0  0  0  0  0  0  0  0
   -1.3562  -12.0838  -34.7635 C   0  0  0  0  0  0  0  0  0  0  0  0
   -0.5660  -11.9866  -35.8774 C   0  0  0  0  0  0  0  0  0  0  0  0
   -0.8401  -10.9745  -36.7702 C   0  0  0  0  0  0  0  0  0  0  0  0
   -0.0338  -10.8858  -37.8945 O   0  0  0  0  0  0  0  0  0  0  0  0
   -3.4742  -11.3737  -32.9672 Br  0  0  0  0  0  0  0  0  0  0  0  0
   -3.7208   -9.3146  -35.1763 O   0  0  0  0  0  0  0  0  0  0  0  0
   -0.1947  -10.1591  -38.5806 H   0  0  0  0  0  0  0  0  0  0  0  0
   -4.2834   -9.4119  -34.3469 H   0  0  0  0  0  0  0  0  0  0  0  0
    2.2239  -17.9798  -38.7692 C   0  0  0  0  0  0  0  0  0  0  0  0
    1.4013  -19.0826  -39.2734 N   0  0  0  0  0  0  0  0  0  0  0  0
    0.5879  -18.5826  -40.3991 C   0  0  0  0  0  0  0  0  0  0  0  0
   -0.0453  -17.2873  -40.0279 C   0  0  0  0  0  0  0  0  0  0  0  0
   -0.7448  -17.4344  -38.8553 O   0  0  0  0  0  0  0  0  0  0  0  0
   -0.8681  -18.7305  -38.4283 C   0  0  0  0  0  0  0  0  0  0  0  0
    0.4350  -19.4552  -38.2130 C   0  0  0  0  0  0  0  0  0  0  0  0
 20 21  1  0  0  0
 21 22  2  0  0  0
 21 26  1  0  0  0
 22 23  1  0  0  0
 22 29  1  0  0  0
 23 24  2  0  0  0
 23 28  1  0  0  0
 24 25  1  0  0  0
 25 26  2  0  0  0
 25 18  1  0  0  0
 26 27  1  0  0  0
 18 19  2  0  0  0
 19 14  1  0  0  0
 14 15  1  0  0  0
 15 16  2  0  0  0
 15  1  1  0  0  0
  1  2  1  0  0  0
  1  5  2  0  0  0
  2  3  2  0  0  0
  3  4  1  0  0  0
  4  5  1  0  0  0
  4  6  1  0  0  0
  5 32  1  0  0  0
 32 33  1  0  0  0
 33 34  1  0  0  0
 33 38  1  0  0  0
 34 35  1  0  0  0
 35 36  1  0  0  0
 36 37  1  0  0  0
 37 38  1  0  0  0
  6  7  2  0  0  0
  6 10  1  0  0  0
  7  8  1  0  0  0
  8  9  1  0  0  0
  9 10  2  0  0  0
 10 11  1  0  0  0
 27 30  1  0  0  0
 14 17  1  0  0  0
 11 12  1  0  0  0
 11 13  1  0  0  0
 29 31  1  0  0  0
M  END
> <minimizedAffinity>
-7.03641

$$$$
4


 34 37  0  0  0  0  0  0  0  0999 V2000
    1.2433  -14.3082  -36.3488 C   0  0  0  0  0  0  0  0  0  0  0  0
    2.2567  -13.7410  -36.9993 N   0  0  0  0  0  0  0  0  0  0  0  0
    2.2382  -12.4358  -37.3958 C   0  0  0  0  0  0  0  0  0  0  0  0
    1.1395  -11.7475  -37.0949 N   0  0  0  0  0  0  0  0  0  0  0  0
    0.0671  -12.2441  -36.4376 C   0  0  0  0  0  0  0  0  0  0  0  0
    0.1684  -13.5586  -36.0779 N   0  0  0  0  0  0  0  0  0  0  0  0
   -1.0744  -11.4773  -36.1409 N   0  0  0  0  0  0  0  0  0  0  0  0
   -1.0139  -10.0491  -36.1271 C   0  0  0  0  0  0  0  0  0  0  0  0
   -1.6111   -9.5849  -34.7957 C   0  0  0  0  0  0  0  0  0  0  0  0
   -1.9503  -10.6457  -33.9839 O   0  0  0  0  0  0  0  0  0  0  0  0
   -2.8393  -11.5290  -34.5439 C   0  0  0  0  0  0  0  0  0  0  0  0
   -2.3174  -12.1219  -35.8474 C   0  0  0  0  0  0  0  0  0  0  0  0
    3.3235  -11.8536  -38.0844 N   0  0  0  0  0  0  0  0  0  0  0  0
    4.1172  -10.8337  -37.4577 C   0  0  0  0  0  0  0  0  0  0  0  0
    4.2827   -9.7074  -38.4657 C   0  0  0  0  0  0  0  0  0  0  0  0
    4.6405  -10.1816  -39.7217 O   0  0  0  0  0  0  0  0  0  0  0  0
    3.7004  -11.0166  -40.2816 C   0  0  0  0  0  0  0  0  0  0  0  0
    3.6370  -12.2826  -39.4179 C   0  0  0  0  0  0  0  0  0  0  0  0
    1.3014  -15.6724  -35.9523 N   0  0  0  0  0  0  0  0  0  0  0  0
    1.1513  -16.0025  -34.9933 H   0  0  0  0  0  0  0  0  0  0  0  0
    2.3559  -17.6444  -36.7076 C   0  0  0  0  0  0  0  0  0  0  0  0
    1.5804  -16.6563  -36.9210 N   0  0  0  0  0  0  0  0  0  0  0  0
    0.7247  -20.8160  -40.7311 Br  0  0  0  0  0  0  0  0  0  0  0  0
    2.0243  -20.1390  -39.5048 C   0  0  0  0  0  0  0  0  0  0  0  0
    3.3015  -20.6605  -39.5714 C   0  0  0  0  0  0  0  0  0  0  0  0
    4.2424  -20.1759  -38.6893 C   0  0  0  0  0  0  0  0  0  0  0  0
    3.9277  -19.1970  -37.7637 C   0  0  0  0  0  0  0  0  0  0  0  0
    2.6593  -18.6719  -37.6900 C   0  0  0  0  0  0  0  0  0  0  0  0
    1.7184  -19.1582  -38.5739 C   0  0  0  0  0  0  0  0  0  0  0  0
    0.4435  -18.6470  -38.5191 O   0  0  0  0  0  0  0  0  0  0  0  0
    6.0170  -20.8914  -38.7704 Br  0  0  0  0  0  0  0  0  0  0  0  0
    3.6003  -21.6460  -40.5095 O   0  0  0  0  0  0  0  0  0  0  0  0
   -0.2832  -18.9828  -39.1582 H   0  0  0  0  0  0  0  0  0  0  0  0
    4.5326  -22.0223  -40.5534 H   0  0  0  0  0  0  0  0  0  0  0  0
 23 24  1  0  0  0
 24 25  2  0  0  0
 24 29  1  0  0  0
 25 26  1  0  0  0
 25 32  1  0  0  0
 26 27  2  0  0  0
 26 31  1  0  0  0
 27 28  1  0  0  0
 28 29  2  0  0  0
 28 21  1  0  0  0
 29 30  1  0  0  0
 21 22  2  0  0  0
 22 19  1  0  0  0
 19  1  1  0  0  0
  1  2  2  0  0  0
  1  6  1  0  0  0
  2  3  1  0  0  0
  3  4  2  0  0  0
  3 13  1  0  0  0
  4  5  1  0  0  0
  5  6  2  0  0  0
  5  7  1  0  0  0
  7  8  1  0  0  0
  7 12  1  0  0  0
  8  9  1  0  0  0
  9 10  1  0  0  0
 10 11  1  0  0  0
 11 12  1  0  0  0
 13 14  1  0  0  0
 13 18  1  0  0  0
 14 15  1  0  0  0
 15 16  1  0  0  0
 16 17  1  0  0  0
 17 18  1  0  0  0
 30 33  1  0  0  0
 19 20  1  0  0  0
 32 34  1  0  0  0
M  END
> <minimizedAffinity>
-6.69471

$$$$
5


 38 41  0  0  0  0  0  0  0  0999 V2000
    2.4427  -19.4255  -38.4886 N   0  0  0  0  0  0  0  0  0  0  0  0
    3.5738  -19.9765  -39.0036 C   0  0  0  0  0  0  0  0  0  0  0  0
    3.2381  -20.9200  -39.9376 C   0  0  0  0  0  0  0  0  0  0  0  0
    1.9215  -20.9210  -39.9736 N   0  0  0  0  0  0  0  0  0  0  0  0
    1.3994  -20.0155  -39.1019 C   0  0  0  0  0  0  0  0  0  0  0  0
    4.1444  -21.6520  -40.6561 N   0  0  0  0  0  0  0  0  0  0  0  0
    5.4379  -21.4072  -40.4130 C   0  0  0  0  0  0  0  0  0  0  0  0
    6.2720  -22.0850  -41.0773 O   0  0  0  0  0  0  0  0  0  0  0  0
    5.8202  -20.4866  -39.5072 N   0  0  0  0  0  0  0  0  0  0  0  0
    4.9423  -19.7621  -38.7950 C   0  0  0  0  0  0  0  0  0  0  0  0
    5.3596  -18.8233  -37.8798 O   0  0  0  0  0  0  0  0  0  0  0  0
    3.6714  -22.6375  -41.6185 C   0  0  0  0  0  0  0  0  0  0  0  0
   -0.0120  -19.7413  -39.0373 N   0  0  0  0  0  0  0  0  0  0  0  0
   -0.7879  -18.9938  -39.9502 C   0  0  0  0  0  0  0  0  0  0  0  0
   -2.2679  -19.0712  -39.4844 C   0  0  0  0  0  0  0  0  0  0  0  0
   -2.2750  -18.4362  -38.1806 N   0  0  0  0  0  0  0  0  0  0  0  0
   -1.7767  -19.5000  -37.2882 C   0  0  0  0  0  0  0  0  0  0  0  0
   -0.7401  -20.3448  -37.9133 C   0  0  0  0  0  0  0  0  0  0  0  0
   -1.5921  -17.6542  -38.0903 H   0  0  0  0  0  0  0  0  0  0  0  0
   -3.6136  -18.0519  -37.7798 C   0  0  0  0  0  0  0  0  0  0  0  0
   -3.5170  -17.1030  -36.6055 C   0  0  0  0  0  0  0  0  0  0  0  0
   -2.5368  -16.1399  -36.8753 O   0  0  0  0  0  0  0  0  0  0  0  0
   -1.8089  -16.1766  -36.1956 H   0  0  0  0  0  0  0  0  0  0  0  0
    2.3912  -18.4127  -37.4956 C   0  0  0  0  0  0  0  0  0  0  0  0
    1.7194  -17.1414  -37.7074 C   0  0  0  0  0  0  0  0  0  0  0  0
    0.5011  -16.9037  -37.0464 O   0  0  0  0  0  0  0  0  0  0  0  0
    0.6114  -16.8596  -36.0797 H   0  0  0  0  0  0  0  0  0  0  0  0
    1.6422  -16.4157  -38.9828 C   0  0  0  0  0  0  0  0  0  0  0  0
    1.3132  -15.0464  -38.7598 O   0  0  0  0  0  0  0  0  0  0  0  0
    1.4736  -13.4954  -36.2052 Br  0  0  0  0  0  0  0  0  0  0  0  0
    2.3542  -13.1101  -37.8602 C   0  0  0  0  0  0  0  0  0  0  0  0
    2.1306  -13.9849  -38.9347 C   0  0  0  0  0  0  0  0  0  0  0  0
    2.7618  -13.6981  -40.1017 C   0  0  0  0  0  0  0  0  0  0  0  0
    3.6017  -12.5864  -40.2436 C   0  0  0  0  0  0  0  0  0  0  0  0
    3.8053  -11.7440  -39.1753 C   0  0  0  0  0  0  0  0  0  0  0  0
    3.1729  -12.0167  -37.9813 C   0  0  0  0  0  0  0  0  0  0  0  0
    4.9232  -10.2032  -39.2504 Br  0  0  0  0  0  0  0  0  0  0  0  0
    2.5278  -14.7825  -41.6231 Br  0  0  0  0  0  0  0  0  0  0  0  0
 30 31  1  0  0  0
 31 32  2  0  0  0
 31 36  1  0  0  0
 32 33  1  0  0  0
 32 29  1  0  0  0
 33 34  2  0  0  0
 33 38  1  0  0  0
 34 35  1  0  0  0
 35 36  2  0  0  0
 35 37  1  0  0  0
 29 28  1  0  0  0
 28 25  1  0  0  0
 25 26  1  0  0  0
 25 24  1  0  0  0
 24  1  1  0  0  0
  1  2  1  0  0  0
  1  5  1  0  0  0
  2  3  2  0  0  0
  2 10  1  0  0  0
  3  4  1  0  0  0
  3  6  1  0  0  0
  4  5  2  0  0  0
  5 13  1  0  0  0
 13 14  1  0  0  0
 13 18  1  0  0  0
 14 15  1  0  0  0
 15 16  1  0  0  0
 16 17  1  0  0  0
 16 20  1  0  0  0
 17 18  1  0  0  0
 20 21  1  0  0  0
 21 22  1  0  0  0
  6  7  1  0  0  0
  6 12  1  0  0  0
  7  8  2  0  0  0
  7  9  1  0  0  0
  9 10  2  0  0  0
 10 11  1  0  0  0
 26 27  1  0  0  0
 16 19  1  0  0  0
 22 23  1  0  0  0
M  CHG 1  11  -1
M  CHG 1  16   1
M  END
> <minimizedAffinity>
-6.12331

$$$$
6


 34 37  0  0  0  0  0  0  0  0999 V2000
    2.9336  -18.6263  -38.8976 N   0  0  0  0  0  0  0  0  0  0  0  0
    2.1599  -17.7332  -38.2254 C   0  0  0  0  0  0  0  0  0  0  0  0
    2.4754  -17.7471  -36.8952 C   0  0  0  0  0  0  0  0  0  0  0  0
    3.4509  -18.6606  -36.7718 N   0  0  0  0  0  0  0  0  0  0  0  0
    3.7345  -19.2020  -37.9983 C   0  0  0  0  0  0  0  0  0  0  0  0
    1.7937  -16.9035  -36.0429 C   0  0  0  0  0  0  0  0  0  0  0  0
    0.8032  -16.0471  -36.4953 C   0  0  0  0  0  0  0  0  0  0  0  0
    0.5056  -16.0557  -37.8467 C   0  0  0  0  0  0  0  0  0  0  0  0
    1.1866  -16.8987  -38.7017 C   0  0  0  0  0  0  0  0  0  0  0  0
    4.7491  -20.2253  -38.2183 C   0  0  0  0  0  0  0  0  0  0  0  0
    4.5097  -21.5035  -38.5381 N   0  0  0  0  0  0  0  0  0  0  0  0
    5.6631  -22.1360  -38.6587 O   0  0  0  0  0  0  0  0  0  0  0  0
    6.6458  -21.3228  -38.4303 N   0  0  0  0  0  0  0  0  0  0  0  0
    6.1190  -20.1108  -38.1491 C   0  0  0  0  0  0  0  0  0  0  0  0
    6.8396  -18.9321  -37.8394 N   0  0  0  0  0  0  0  0  0  0  0  0
    7.1577  -18.4267  -38.6773 H   0  0  0  0  0  0  0  0  0  0  0  0
    7.7114  -19.2480  -37.3324 H   0  0  0  0  0  0  0  0  0  0  0  0
    6.3181  -18.2976  -37.1798 H   0  0  0  0  0  0  0  0  0  0  0  0
    2.9172  -18.9135  -40.2979 C   0  0  0  0  0  0  0  0  0  0  0  0
    2.8512  -21.1814  -41.3870 N   0  0  0  0  0  0  0  0  0  0  0  0
    2.2255  -20.1147  -40.6964 C   0  0  0  0  0  0  0  0  0  0  0  0
    1.0078  -20.2518  -40.4322 O   0  0  0  0  0  0  0  0  0  0  0  0
    3.8637  -21.0776  -41.6126 H   0  0  0  0  0  0  0  0  0  0  0  0
    2.8200  -23.3675  -42.2509 C   0  0  0  0  0  0  0  0  0  0  0  0
    2.2129  -22.3453  -41.7819 N   0  0  0  0  0  0  0  0  0  0  0  0
    1.3323  -26.6442  -46.0868 Br  0  0  0  0  0  0  0  0  0  0  0  0
    1.3143  -26.0693  -44.2788 C   0  0  0  0  0  0  0  0  0  0  0  0
    2.0515  -24.9587  -43.9260 C   0  0  0  0  0  0  0  0  0  0  0  0
    2.0488  -24.5341  -42.6330 C   0  0  0  0  0  0  0  0  0  0  0  0
    1.3124  -25.2005  -41.6472 C   0  0  0  0  0  0  0  0  0  0  0  0
    0.5865  -26.3034  -42.0261 C   0  0  0  0  0  0  0  0  0  0  0  0
    0.5758  -26.7481  -43.3249 C   0  0  0  0  0  0  0  0  0  0  0  0
   -0.4383  -27.2522  -40.7187 Br  0  0  0  0  0  0  0  0  0  0  0  0
    2.7855  -24.2881  -44.8882 O   0  0  0  0  0  0  0  0  0  0  0  0
 26 27  1  0  0  0
 27 28  2  0  0  0
 27 32  1  0  0  0
 28 29  1  0  0  0
 28 34  1  0  0  0
 29 30  2  0  0  0
 29 24  1  0  0  0
 30 31  1  0  0  0
 31 32  2  0  0  0
 31 33  1  0  0  0
 24 25  2  0  0  0
 25 20  1  0  0  0
 20 21  1  0  0  0
 21 22  2  0  0  0
 21 19  1  0  0  0
 19  1  1  0  0  0
  1  2  1  0  0  0
  1  5  1  0  0  0
  2  3  2  0  0  0
  2  9  1  0  0  0
  3  4  1  0  0  0
  3  6  1  0  0  0
  4  5  2  0  0  0
  5 10  1  0  0  0
 10 11  2  0  0  0
 10 14  1  0  0  0
 11 12  1  0  0  0
 12 13  1  0  0  0
 13 14  2  0  0  0
 14 15  1  0  0  0
  6  7  2  0  0  0
  7  8  1  0  0  0
  8  9  2  0  0  0
 20 23  1  0  0  0
 15 16  1  0  0  0
 15 17  1  0  0  0
 15 18  1  0  0  0
M  CHG 1  15   1
M  CHG 1  34  -1
M  END
> <minimizedAffinity>
-6.92398

$$$$
11


 36 39  0  0  0  0  0  0  0  0999 V2000
    1.9192  -19.2160  -39.9248 C   0  0  0  0  0  0  0  0  0  0  0  0
    2.3892  -18.8636  -38.6491 N   0  0  0  0  0  0  0  0  0  0  0  0
    1.6838  -17.9472  -37.8842 C   0  0  0  0  0  0  0  0  0  0  0  0
    2.3663  -17.7806  -36.7376 C   0  0  0  0  0  0  0  0  0  0  0  0
    3.4360  -18.5573  -36.8071 N   0  0  0  0  0  0  0  0  0  0  0  0
    3.4614  -19.2483  -38.0099 C   0  0  0  0  0  0  0  0  0  0  0  0
    1.9457  -16.9231  -35.7329 C   0  0  0  0  0  0  0  0  0  0  0  0
    0.7772  -16.2377  -35.9631 C   0  0  0  0  0  0  0  0  0  0  0  0
    0.0350  -16.3735  -37.1206 C   0  0  0  0  0  0  0  0  0  0  0  0
    0.5056  -17.2487  -38.0978 C   0  0  0  0  0  0  0  0  0  0  0  0
    4.5977  -20.1269  -38.2211 C   0  0  0  0  0  0  0  0  0  0  0  0
    4.4493  -21.4514  -38.6276 N   0  0  0  0  0  0  0  0  0  0  0  0
    5.5850  -22.0053  -38.7668 O   0  0  0  0  0  0  0  0  0  0  0  0
    6.5176  -21.1845  -38.4918 N   0  0  0  0  0  0  0  0  0  0  0  0
    5.9355  -19.9862  -38.1440 C   0  0  0  0  0  0  0  0  0  0  0  0
    6.7059  -18.8543  -37.8038 N   0  0  0  0  0  0  0  0  0  0  0  0
    7.7437  -19.0629  -38.0584 H   0  0  0  0  0  0  0  0  0  0  0  0
    6.7324  -18.7387  -36.7834 H   0  0  0  0  0  0  0  0  0  0  0  0
    6.4913  -18.0577  -38.3981 H   0  0  0  0  0  0  0  0  0  0  0  0
    2.5320  -17.1949  -41.0502 N   0  0  0  0  0  0  0  0  0  0  0  0
    2.7287  -18.5368  -41.0514 C   0  0  0  0  0  0  0  0  0  0  0  0
    3.3805  -19.3385  -41.7175 O   0  0  0  0  0  0  0  0  0  0  0  0
    3.4277  -17.1084  -42.1303 H   0  0  0  0  0  0  0  0  0  0  0  0
    2.2310  -14.8023  -40.9749 C   0  0  0  0  0  0  0  0  0  0  0  0
    2.3558  -15.9745  -41.0512 N   0  0  0  0  0  0  0  0  0  0  0  0
    5.2147  -10.5671  -39.7699 Br  0  0  0  0  0  0  0  0  0  0  0  0
    3.9211  -11.8841  -39.3287 C   0  0  0  0  0  0  0  0  0  0  0  0
    3.3770  -11.9268  -38.0640 C   0  0  0  0  0  0  0  0  0  0  0  0
    2.4297  -12.9317  -37.7518 C   0  0  0  0  0  0  0  0  0  0  0  0
    2.1042  -13.8184  -38.7369 C   0  0  0  0  0  0  0  0  0  0  0  0
    2.6336  -13.8135  -40.0354 C   0  0  0  0  0  0  0  0  0  0  0  0
    3.5479  -12.8129  -40.2805 C   0  0  0  0  0  0  0  0  0  0  0  0
    3.7026  -11.0458  -37.0740 O   0  0  0  0  0  0  0  0  0  0  0  0
    1.9024  -12.9518  -36.4743 O   0  0  0  0  0  0  0  0  0  0  0  0
    0.5750  -12.6601  -36.1998 C   0  0  0  0  0  0  0  0  0  0  0  0
    0.0336  -11.3979  -36.8093 C   0  0  0  0  0  0  0  0  0  0  0  0
 26 27  1  0  0  0
 27 28  2  0  0  0
 27 32  1  0  0  0
 28 29  1  0  0  0
 28 33  1  0  0  0
 29 30  2  0  0  0
 29 34  1  0  0  0
 30 31  1  0  0  0
 31 32  2  0  0  0
 31 24  1  0  0  0
 24 25  2  0  0  0
 25 20  1  0  0  0
 20 21  1  0  0  0
 21 22  2  0  0  0
 21  1  1  0  0  0
  1  2  1  0  0  0
  2  3  1  0  0  0
  2  6  1  0  0  0
  3  4  2  0  0  0
  3 10  1  0  0  0
  4  5  1  0  0  0
  4  7  1  0  0  0
  5  6  2  0  0  0
  6 11  1  0  0  0
 11 12  2  0  0  0
 11 15  1  0  0  0
 12 13  1  0  0  0
 13 14  1  0  0  0
 14 15  2  0  0  0
 15 16  1  0  0  0
  7  8  2  0  0  0
  8  9  1  0  0  0
  9 10  2  0  0  0
 34 35  1  0  0  0
 35 36  1  0  0  0
 20 23  1  0  0  0
 16 17  1  0  0  0
 16 18  1  0  0  0
 16 19  1  0  0  0
M  CHG 1  16   1
M  CHG 1  33  -1
M  END
> <minimizedAffinity>
-7.55178

$$$$
17


 38 41  0  0  0  0  0  0  0  0999 V2000
    2.3067  -17.5128  -36.2692 C   0  0  0  0  0  0  0  0  0  0  0  0
    3.0974  -17.9419  -35.2771 N   0  0  0  0  0  0  0  0  0  0  0  0
    3.9257  -18.8477  -35.7359 N   0  0  0  0  0  0  0  0  0  0  0  0
    3.7205  -19.0567  -37.0490 N   0  0  0  0  0  0  0  0  0  0  0  0
    2.7224  -18.2408  -37.4002 C   0  0  0  0  0  0  0  0  0  0  0  0
    4.4655  -20.0090  -37.8156 C   0  0  0  0  0  0  0  0  0  0  0  0
    4.0475  -21.1560  -38.3739 N   0  0  0  0  0  0  0  0  0  0  0  0
    5.0537  -21.7236  -38.9952 O   0  0  0  0  0  0  0  0  0  0  0  0
    6.1372  -20.9949  -38.8724 N   0  0  0  0  0  0  0  0  0  0  0  0
    5.7974  -19.9185  -38.1406 C   0  0  0  0  0  0  0  0  0  0  0  0
    6.7101  -18.8880  -37.7963 N   0  0  0  0  0  0  0  0  0  0  0  0
    7.3302  -18.9153  -36.9612 H   0  0  0  0  0  0  0  0  0  0  0  0
    6.7990  -18.0262  -38.3937 H   0  0  0  0  0  0  0  0  0  0  0  0
    1.4679  -15.1704  -36.5853 N   0  0  0  0  0  0  0  0  0  0  0  0
    1.2430  -16.5180  -36.2254 C   0  0  0  0  0  0  0  0  0  0  0  0
    0.1030  -16.8660  -35.8600 O   0  0  0  0  0  0  0  0  0  0  0  0
    2.4436  -14.8909  -36.8937 H   0  0  0  0  0  0  0  0  0  0  0  0
    0.6338  -13.0348  -36.0137 C   0  0  0  0  0  0  0  0  0  0  0  0
    0.5123  -14.1847  -36.5670 N   0  0  0  0  0  0  0  0  0  0  0  0
   -2.1363   -9.7608  -39.0503 Br  0  0  0  0  0  0  0  0  0  0  0  0
   -1.7424  -10.5384  -37.3557 C   0  0  0  0  0  0  0  0  0  0  0  0
   -2.4432  -10.1817  -36.2093 C   0  0  0  0  0  0  0  0  0  0  0  0
   -2.1638  -10.7390  -34.9825 C   0  0  0  0  0  0  0  0  0  0  0  0
   -1.1559  -11.6717  -34.9234 C   0  0  0  0  0  0  0  0  0  0  0  0
   -0.4365  -12.0513  -36.0456 C   0  0  0  0  0  0  0  0  0  0  0  0
   -0.7498  -11.4681  -37.2534 C   0  0  0  0  0  0  0  0  0  0  0  0
   -3.4526   -9.2310  -36.3301 O   0  0  0  0  0  0  0  0  0  0  0  0
   -3.9808   -8.9513  -35.5122 H   0  0  0  0  0  0  0  0  0  0  0  0
   -2.8975  -10.3383  -33.8916 O   0  0  0  0  0  0  0  0  0  0  0  0
   -3.9661  -11.0099  -33.3094 C   0  0  0  0  0  0  0  0  0  0  0  0
   -3.6164  -11.8467  -32.1214 C   0  0  0  0  0  0  0  0  0  0  0  0
    2.0764  -18.0812  -38.7042 C   0  0  0  0  0  0  0  0  0  0  0  0
    1.2565  -19.1727  -39.1655 N   0  0  0  0  0  0  0  0  0  0  0  0
   -0.1178  -18.7569  -38.8580 C   0  0  0  0  0  0  0  0  0  0  0  0
   -0.5617  -17.5206  -39.5333 C   0  0  0  0  0  0  0  0  0  0  0  0
    0.0252  -17.3852  -40.7818 O   0  0  0  0  0  0  0  0  0  0  0  0
    0.2072  -18.6432  -41.3142 C   0  0  0  0  0  0  0  0  0  0  0  0
    1.3847  -19.2981  -40.6191 C   0  0  0  0  0  0  0  0  0  0  0  0
 20 21  1  0  0  0
 21 22  2  0  0  0
 21 26  1  0  0  0
 22 23  1  0  0  0
 22 27  1  0  0  0
 23 24  2  0  0  0
 23 29  1  0  0  0
 24 25  1  0  0  0
 25 26  2  0  0  0
 25 18  1  0  0  0
 18 19  2  0  0  0
 19 14  1  0  0  0
 14 15  1  0  0  0
 15 16  2  0  0  0
 15  1  1  0  0  0
  1  2  1  0  0  0
  1  5  2  0  0  0
  2  3  2  0  0  0
  3  4  1  0  0  0
  4  5  1  0  0  0
  4  6  1  0  0  0
  5 32  1  0  0  0
 32 33  1  0  0  0
 33 34  1  0  0  0
 33 38  1  0  0  0
 34 35  1  0  0  0
 35 36  1  0  0  0
 36 37  1  0  0  0
 37 38  1  0  0  0
  6  7  2  0  0  0
  6 10  1  0  0  0
  7  8  1  0  0  0
  8  9  1  0  0  0
  9 10  2  0  0  0
 10 11  1  0  0  0
 29 30  1  0  0  0
 30 31  1  0  0  0
 14 17  1  0  0  0
 11 12  1  0  0  0
 11 13  1  0  0  0
 27 28  1  0  0  0
M  END
> <minimizedAffinity>
-6.62913

$$$$
18


 37 40  0  0  0  0  0  0  0  0999 V2000
    2.1637  -17.7178  -36.8058 C   0  0  0  0  0  0  0  0  0  0  0  0
    3.1036  -17.7829  -35.9299 N   0  0  0  0  0  0  0  0  0  0  0  0
    3.8981  -18.8060  -36.1946 N   0  0  0  0  0  0  0  0  0  0  0  0
    3.4476  -19.4259  -37.2759 N   0  0  0  0  0  0  0  0  0  0  0  0
    2.3511  -18.8536  -37.7521 C   0  0  0  0  0  0  0  0  0  0  0  0
    4.3243  -20.2953  -38.0337 C   0  0  0  0  0  0  0  0  0  0  0  0
    4.1801  -21.4198  -38.6001 N   0  0  0  0  0  0  0  0  0  0  0  0
    5.3129  -21.8651  -39.1450 O   0  0  0  0  0  0  0  0  0  0  0  0
    6.2032  -20.9713  -38.9065 N   0  0  0  0  0  0  0  0  0  0  0  0
    5.6976  -19.9472  -38.2182 C   0  0  0  0  0  0  0  0  0  0  0  0
    6.3584  -18.7964  -37.7574 N   0  0  0  0  0  0  0  0  0  0  0  0
    6.5442  -18.6171  -36.7544 H   0  0  0  0  0  0  0  0  0  0  0  0
    6.7226  -18.0397  -38.4291 H   0  0  0  0  0  0  0  0  0  0  0  0
    0.8069  -15.6405  -36.4380 N   0  0  0  0  0  0  0  0  0  0  0  0
    1.2933  -16.6819  -37.3153 C   0  0  0  0  0  0  0  0  0  0  0  0
    1.0341  -16.6491  -38.5176 O   0  0  0  0  0  0  0  0  0  0  0  0
    0.6305  -15.3962  -35.5567 H   0  0  0  0  0  0  0  0  0  0  0  0
    1.7596  -14.0359  -37.5660 C   0  0  0  0  0  0  0  0  0  0  0  0
    0.4860  -14.4604  -37.4634 N   0  0  0  0  0  0  0  0  0  0  0  0
    4.1067  -12.8873  -42.0527 Br  0  0  0  0  0  0  0  0  0  0  0  0
    3.7315  -12.5441  -40.1904 C   0  0  0  0  0  0  0  0  0  0  0  0
    4.3040  -11.4424  -39.5908 C   0  0  0  0  0  0  0  0  0  0  0  0
    4.0391  -11.1637  -38.2787 C   0  0  0  0  0  0  0  0  0  0  0  0
    3.1994  -12.0135  -37.5962 C   0  0  0  0  0  0  0  0  0  0  0  0
    2.6016  -13.1316  -38.1492 C   0  0  0  0  0  0  0  0  0  0  0  0
    2.9192  -13.3676  -39.5376 C   0  0  0  0  0  0  0  0  0  0  0  0
    5.1541  -10.6171  -40.3325 O   0  0  0  0  0  0  0  0  0  0  0  0
    5.3641  -10.8904  -41.3161 H   0  0  0  0  0  0  0  0  0  0  0  0
    4.5875  -10.0455  -37.6392 O   0  0  0  0  0  0  0  0  0  0  0  0
    3.8117   -8.8313  -37.5813 C   0  0  0  0  0  0  0  0  0  0  0  0
    1.5536  -19.0079  -38.9345 C   0  0  0  0  0  0  0  0  0  0  0  0
    0.8571  -20.2807  -39.1331 N   0  0  0  0  0  0  0  0  0  0  0  0
    0.0064  -20.2628  -40.2783 C   0  0  0  0  0  0  0  0  0  0  0  0
   -1.1915  -19.3645  -40.1610 C   0  0  0  0  0  0  0  0  0  0  0  0
   -2.1199  -19.9390  -39.3093 O   0  0  0  0  0  0  0  0  0  0  0  0
   -1.4956  -20.8240  -38.4230 C   0  0  0  0  0  0  0  0  0  0  0  0
   -0.1748  -20.2686  -38.0074 C   0  0  0  0  0  0  0  0  0  0  0  0
 20 21  1  0  0  0
 21 22  2  0  0  0
 21 26  1  0  0  0
 22 23  1  0  0  0
 22 27  1  0  0  0
 23 24  2  0  0  0
 23 29  1  0  0  0
 24 25  1  0  0  0
 25 26  2  0  0  0
 25 18  1  0  0  0
 18 19  2  0  0  0
 19 14  1  0  0  0
 14 15  1  0  0  0
 15 16  2  0  0  0
 15  1  1  0  0  0
  1  2  1  0  0  0
  1  5  2  0  0  0
  2  3  2  0  0  0
  3  4  1  0  0  0
  4  5  1  0  0  0
  4  6  1  0  0  0
  5 31  1  0  0  0
 31 32  1  0  0  0
 32 33  1  0  0  0
 32 37  1  0  0  0
 33 34  1  0  0  0
 34 35  1  0  0  0
 35 36  1  0  0  0
 36 37  1  0  0  0
  6  7  2  0  0  0
  6 10  1  0  0  0
  7  8  1  0  0  0
  8  9  1  0  0  0
  9 10  2  0  0  0
 10 11  1  0  0  0
 29 30  1  0  0  0
 14 17  1  0  0  0
 11 12  1  0  0  0
 11 13  1  0  0  0
 27 28  1  0  0  0
M  END
> <minimizedAffinity>
-7.37733

$$$$
20


 34 37  0  0  0  0  0  0  0  0999 V2000
    2.4965  -17.7343  -40.4680 C   0  0  0  0  0  0  0  0  0  0  0  0
    1.3279  -17.6219  -39.8659 N   0  0  0  0  0  0  0  0  0  0  0  0
    1.0891  -18.2427  -38.6753 C   0  0  0  0  0  0  0  0  0  0  0  0
    2.1179  -18.9635  -38.1695 N   0  0  0  0  0  0  0  0  0  0  0  0
    3.3288  -19.1152  -38.7381 C   0  0  0  0  0  0  0  0  0  0  0  0
    3.4959  -18.4768  -39.9184 N   0  0  0  0  0  0  0  0  0  0  0  0
    4.3786  -19.7428  -38.0907 N   0  0  0  0  0  0  0  0  0  0  0  0
    5.4194  -19.1967  -37.3088 C   0  0  0  0  0  0  0  0  0  0  0  0
    6.7290  -19.5332  -38.0279 C   0  0  0  0  0  0  0  0  0  0  0  0
    6.7693  -20.8985  -38.2044 O   0  0  0  0  0  0  0  0  0  0  0  0
    5.7621  -21.4296  -38.9769 C   0  0  0  0  0  0  0  0  0  0  0  0
    4.4081  -21.2288  -38.2375 C   0  0  0  0  0  0  0  0  0  0  0  0
   -0.1180  -18.0774  -37.9559 N   0  0  0  0  0  0  0  0  0  0  0  0
   -0.3526  -16.8309  -37.2094 C   0  0  0  0  0  0  0  0  0  0  0  0
   -0.8695  -17.2908  -35.8219 C   0  0  0  0  0  0  0  0  0  0  0  0
   -2.0959  -17.8340  -36.0783 O   0  0  0  0  0  0  0  0  0  0  0  0
   -2.0482  -19.0174  -36.7603 C   0  0  0  0  0  0  0  0  0  0  0  0
   -1.0938  -19.0972  -37.9062 C   0  0  0  0  0  0  0  0  0  0  0  0
    2.9119  -16.9321  -41.6422 N   0  0  0  0  0  0  0  0  0  0  0  0
    3.3630  -17.4448  -42.3743 H   0  0  0  0  0  0  0  0  0  0  0  0
    2.2631  -14.5687  -41.3376 C   0  0  0  0  0  0  0  0  0  0  0  0
    2.5726  -15.6796  -41.4711 N   0  0  0  0  0  0  0  0  0  0  0  0
    5.2760  -10.5383  -39.6814 Br  0  0  0  0  0  0  0  0  0  0  0  0
    3.9209  -11.8630  -39.3804 C   0  0  0  0  0  0  0  0  0  0  0  0
    3.4158  -12.0347  -38.1213 C   0  0  0  0  0  0  0  0  0  0  0  0
    2.4438  -13.0087  -37.9021 C   0  0  0  0  0  0  0  0  0  0  0  0
    1.9980  -13.7975  -38.9533 C   0  0  0  0  0  0  0  0  0  0  0  0
    2.5016  -13.6420  -40.2120 C   0  0  0  0  0  0  0  0  0  0  0  0
    3.4573  -12.6683  -40.3975 C   0  0  0  0  0  0  0  0  0  0  0  0
    3.8933  -11.2306  -37.1083 O   0  0  0  0  0  0  0  0  0  0  0  0
    4.5967  -10.5422  -37.2278 H   0  0  0  0  0  0  0  0  0  0  0  0
    1.9918  -13.1060  -36.6233 O   0  0  0  0  0  0  0  0  0  0  0  0
    0.7692  -13.5464  -36.1487 C   0  0  0  0  0  0  0  0  0  0  0  0
   -0.0779  -12.4244  -35.5666 C   0  0  0  0  0  0  0  0  0  0  0  0
 23 24  1  0  0  0
 24 25  2  0  0  0
 24 29  1  0  0  0
 25 26  1  0  0  0
 25 30  1  0  0  0
 26 27  2  0  0  0
 26 32  1  0  0  0
 27 28  1  0  0  0
 28 29  2  0  0  0
 28 21  1  0  0  0
 21 22  2  0  0  0
 22 19  1  0  0  0
 19  1  1  0  0  0
  1  2  2  0  0  0
  1  6  1  0  0  0
  2  3  1  0  0  0
  3  4  2  0  0  0
  3 13  1  0  0  0
  4  5  1  0  0  0
  5  6  2  0  0  0
  5  7  1  0  0  0
  7  8  1  0  0  0
  7 12  1  0  0  0
  8  9  1  0  0  0
  9 10  1  0  0  0
 10 11  1  0  0  0
 11 12  1  0  0  0
 13 14  1  0  0  0
 13 18  1  0  0  0
 14 15  1  0  0  0
 15 16  1  0  0  0
 16 17  1  0  0  0
 17 18  1  0  0  0
 32 33  1  0  0  0
 33 34  1  0  0  0
 19 20  1  0  0  0
 30 31  1  0  0  0
M  END
> <minimizedAffinity>
-6.57836

$$$$
23


 37 40  0  0  0  0  0  0  0  0999 V2000
    0.5676  -17.3104  -37.0006 C   0  0  0  0  0  0  0  0  0  0  0  0
   -0.7163  -17.5210  -37.6356 N   0  0  0  0  0  0  0  0  0  0  0  0
   -0.5947  -18.2818  -38.8031 C   0  0  0  0  0  0  0  0  0  0  0  0
   -1.4955  -18.5171  -39.6223 O   0  0  0  0  0  0  0  0  0  0  0  0
    0.7896  -18.7490  -38.8850 C   0  0  0  0  0  0  0  0  0  0  0  0
    1.2110  -19.4591  -39.8337 O   0  0  0  0  0  0  0  0  0  0  0  0
    1.4993  -18.2489  -37.7272 C   0  0  0  0  0  0  0  0  0  0  0  0
    2.7353  -18.5348  -37.4185 C   0  0  0  0  0  0  0  0  0  0  0  0
    3.3218  -17.9372  -36.3145 O   0  0  0  0  0  0  0  0  0  0  0  0
    3.5214  -19.4671  -38.1887 C   0  0  0  0  0  0  0  0  0  0  0  0
    4.1274  -18.9219  -39.3280 C   0  0  0  0  0  0  0  0  0  0  0  0
    4.9340  -19.6843  -40.1360 C   0  0  0  0  0  0  0  0  0  0  0  0
    5.1591  -21.0075  -39.8357 C   0  0  0  0  0  0  0  0  0  0  0  0
    4.5497  -21.5231  -38.7070 C   0  0  0  0  0  0  0  0  0  0  0  0
    3.7385  -20.7731  -37.8833 C   0  0  0  0  0  0  0  0  0  0  0  0
    6.0136  -21.5414  -40.8228 O   0  0  0  0  0  0  0  0  0  0  0  0
    6.0078  -20.6642  -41.9446 C   0  0  0  0  0  0  0  0  0  0  0  0
    5.6616  -19.3021  -41.3890 C   0  0  0  0  0  0  0  0  0  0  0  0
    4.9353  -21.0352  -42.9515 C   0  0  0  0  0  0  0  0  0  0  0  0
    2.7703  -13.4861  -40.0335 Br  0  0  0  0  0  0  0  0  0  0  0  0
    1.8917  -14.1220  -38.4782 C   0  0  0  0  0  0  0  0  0  0  0  0
    1.5744  -13.2117  -37.4600 C   0  0  0  0  0  0  0  0  0  0  0  0
    0.9315  -13.6770  -36.3201 C   0  0  0  0  0  0  0  0  0  0  0  0
    0.6340  -14.9958  -36.2336 C   0  0  0  0  0  0  0  0  0  0  0  0
    0.9485  -15.8940  -37.2408 C   0  0  0  0  0  0  0  0  0  0  0  0
    1.5839  -15.4641  -38.3793 C   0  0  0  0  0  0  0  0  0  0  0  0
    1.8813  -11.8783  -37.5612 O   0  0  0  0  0  0  0  0  0  0  0  0
    1.6502  -11.2520  -36.8300 H   0  0  0  0  0  0  0  0  0  0  0  0
    0.6129  -12.7737  -35.3027 O   0  0  0  0  0  0  0  0  0  0  0  0
   -0.5968  -12.0674  -35.2530 C   0  0  0  0  0  0  0  0  0  0  0  0
   -1.9331  -16.9727  -37.0730 C   0  0  0  0  0  0  0  0  0  0  0  0
   -2.6768  -17.8352  -36.1435 C   0  0  0  0  0  0  0  0  0  0  0  0
   -4.0034  -18.3435  -36.5712 C   0  0  0  0  0  0  0  0  0  0  0  0
   -4.1403  -18.5193  -37.9962 N   0  0  0  0  0  0  0  0  0  0  0  0
   -5.2963  -17.7409  -38.4642 C   0  0  0  0  0  0  0  0  0  0  0  0
   -4.4487  -19.9187  -38.2288 C   0  0  0  0  0  0  0  0  0  0  0  0
   -3.3075  -18.2915  -38.5461 H   0  0  0  0  0  0  0  0  0  0  0  0
 20 21  1  0  0  0
 21 22  2  0  0  0
 21 26  1  0  0  0
 22 23  1  0  0  0
 22 27  1  0  0  0
 23 24  2  0  0  0
 23 29  1  0  0  0
 24 25  1  0  0  0
 25 26  2  0  0  0
 25  1  1  0  0  0
  1  2  1  0  0  0
  1  7  1  0  0  0
  2  3  1  0  0  0
  2 31  1  0  0  0
  3  4  2  0  0  0
  3  5  1  0  0  0
  5  6  2  0  0  0
  5  7  1  0  0  0
  7  8  2  0  0  0
  8  9  1  0  0  0
  8 10  1  0  0  0
 10 11  2  0  0  0
 10 15  1  0  0  0
 11 12  1  0  0  0
 12 13  2  0  0  0
 12 18  1  0  0  0
 13 14  1  0  0  0
 13 16  1  0  0  0
 14 15  2  0  0  0
 16 17  1  0  0  0
 17 18  1  0  0  0
 17 19  1  0  0  0
 31 32  1  0  0  0
 32 33  1  0  0  0
 33 34  1  0  0  0
 34 35  1  0  0  0
 34 36  1  0  0  0
 29 30  1  0  0  0
 34 37  1  0  0  0
 27 28  1  0  0  0
M  CHG 1   9  -1
M  CHG 1  34   1
M  END
> <minimizedAffinity>
-6.78779

$$$$
26


 29 32  0  0  0  0  0  0  0  0999 V2000
    1.4121  -19.0552  -37.8362 C   0  0  0  0  0  0  0  0  0  0  0  0
    0.3634  -19.7099  -38.5011 N   0  0  0  0  0  0  0  0  0  0  0  0
   -0.9339  -19.1495  -38.4815 C   0  0  0  0  0  0  0  0  0  0  0  0
   -1.1968  -18.1648  -37.3743 C   0  0  0  0  0  0  0  0  0  0  0  0
   -0.0809  -17.2034  -37.2091 C   0  0  0  0  0  0  0  0  0  0  0  0
   -0.0448  -15.8819  -36.8547 C   0  0  0  0  0  0  0  0  0  0  0  0
    1.2964  -15.5417  -36.8777 C   0  0  0  0  0  0  0  0  0  0  0  0
    2.0250  -16.6327  -37.2350 N   0  0  0  0  0  0  0  0  0  0  0  0
    1.1830  -17.6545  -37.4389 C   0  0  0  0  0  0  0  0  0  0  0  0
    1.6130  -14.2400  -36.5526 C   0  0  0  0  0  0  0  0  0  0  0  0
    0.6422  -13.3191  -36.2204 C   0  0  0  0  0  0  0  0  0  0  0  0
   -0.6946  -13.6600  -36.1982 C   0  0  0  0  0  0  0  0  0  0  0  0
   -1.0303  -14.9643  -36.5216 C   0  0  0  0  0  0  0  0  0  0  0  0
    0.6105  -19.9271  -39.5092 H   0  0  0  0  0  0  0  0  0  0  0  0
    0.2877  -20.6958  -38.0911 H   0  0  0  0  0  0  0  0  0  0  0  0
    3.0643  -16.5848  -37.3104 H   0  0  0  0  0  0  0  0  0  0  0  0
    6.5414  -20.4452  -38.2187 Br  0  0  0  0  0  0  0  0  0  0  0  0
    4.9578  -19.6701  -38.9294 C   0  0  0  0  0  0  0  0  0  0  0  0
    4.9606  -19.1438  -40.1988 C   0  0  0  0  0  0  0  0  0  0  0  0
    3.7973  -18.5884  -40.6882 C   0  0  0  0  0  0  0  0  0  0  0  0
    2.6190  -18.5263  -39.9762 C   0  0  0  0  0  0  0  0  0  0  0  0
    2.6236  -19.0568  -38.7038 C   0  0  0  0  0  0  0  0  0  0  0  0
    3.7722  -19.6177  -38.1902 C   0  0  0  0  0  0  0  0  0  0  0  0
    3.8253  -17.8638  -42.4509 Br  0  0  0  0  0  0  0  0  0  0  0  0
    6.1258  -19.1680  -40.9915 O   0  0  0  0  0  0  0  0  0  0  0  0
    6.9561  -19.5840  -40.5934 H   0  0  0  0  0  0  0  0  0  0  0  0
   -1.2919  -18.4780  -39.7612 C   0  0  0  0  0  0  0  0  0  0  0  0
   -0.6689  -18.7971  -40.8307 O   0  0  0  0  0  0  0  0  0  0  0  0
   -2.2897  -17.5170  -39.7771 O   0  0  0  0  0  0  0  0  0  0  0  0
 17 18  1  0  0  0
 18 19  2  0  0  0
 18 23  1  0  0  0
 19 20  1  0  0  0
 19 25  1  0  0  0
 20 21  2  0  0  0
 20 24  1  0  0  0
 21 22  1  0  0  0
 22 23  2  0  0  0
 22  1  1  0  0  0
  1  2  1  0  0  0
  1  9  1  0  0  0
  2  3  1  0  0  0
  3  4  1  0  0  0
  3 27  1  0  0  0
  4  5  1  0  0  0
  5  6  1  0  0  0
  5  9  2  0  0  0
  6  7  2  0  0  0
  6 13  1  0  0  0
  7  8  1  0  0  0
  7 10  1  0  0  0
  8  9  1  0  0  0
 10 11  2  0  0  0
 11 12  1  0  0  0
 12 13  2  0  0  0
 27 28  2  0  0  0
 27 29  1  0  0  0
  2 14  1  0  0  0
  2 15  1  0  0  0
  8 16  1  0  0  0
 25 26  1  0  0  0
M  CHG 1   2   1
M  END
> <minimizedAffinity>
-6.21782

$$$$
31


 24 27  0  0  0  0  0  0  0  0999 V2000
   -2.0244  -16.3007  -36.9662 Br  0  0  0  0  0  0  0  0  0  0  0  0
   -1.2003  -17.9803  -37.4016 C   0  0  0  0  0  0  0  0  0  0  0  0
   -0.0089  -18.0340  -38.0328 C   0  0  0  0  0  0  0  0  0  0  0  0
    0.5617  -19.2856  -38.4069 C   0  0  0  0  0  0  0  0  0  0  0  0
   -0.1356  -20.4062  -38.1148 C   0  0  0  0  0  0  0  0  0  0  0  0
   -1.3592  -20.3291  -37.4787 C   0  0  0  0  0  0  0  0  0  0  0  0
   -1.8995  -19.1334  -37.1163 C   0  0  0  0  0  0  0  0  0  0  0  0
    1.6280  -19.1561  -39.4193 C   0  0  0  0  0  0  0  0  0  0  0  0
    2.9356  -19.6082  -39.1736 N   0  0  0  0  0  0  0  0  0  0  0  0
    3.4044  -19.8439  -37.9020 C   0  0  0  0  0  0  0  0  0  0  0  0
    4.7403  -20.4356  -37.9070 N   0  0  0  0  0  0  0  0  0  0  0  0
    5.6224  -19.5171  -38.6080 C   0  0  0  0  0  0  0  0  0  0  0  0
    5.1459  -19.2127  -39.9413 N   0  0  0  0  0  0  0  0  0  0  0  0
    3.8323  -18.7036  -39.9717 C   0  0  0  0  0  0  0  0  0  0  0  0
    5.2298  -20.4221  -40.7335 C   0  0  0  0  0  0  0  0  0  0  0  0
    4.3613  -21.4422  -40.0411 C   0  0  0  0  0  0  0  0  0  0  0  0
    2.9872  -20.8874  -39.9645 C   0  0  0  0  0  0  0  0  0  0  0  0
    4.8060  -21.6969  -38.6033 C   0  0  0  0  0  0  0  0  0  0  0  0
    0.6784  -16.9115  -38.3294 O   0  0  0  0  0  0  0  0  0  0  0  0
    1.5758  -16.2544  -37.4117 C   0  0  0  0  0  0  0  0  0  0  0  0
    1.7065  -14.8044  -37.5255 C   0  0  0  0  0  0  0  0  0  0  0  0
    1.8762  -14.1906  -38.5694 O   0  0  0  0  0  0  0  0  0  0  0  0
    1.5949  -14.0566  -36.3479 O   0  0  0  0  0  0  0  0  0  0  0  0
    0.4248  -13.3757  -35.9806 C   0  0  0  0  0  0  0  0  0  0  0  0
  1  2  1  0  0  0
  2  3  2  0  0  0
  2  7  1  0  0  0
  3  4  1  0  0  0
  3 19  1  0  0  0
  4  5  2  0  0  0
  4  8  1  0  0  0
  5  6  1  0  0  0
  6  7  2  0  0  0
  8  9  1  0  0  0
  9 10  1  0  0  0
  9 14  1  0  0  0
  9 17  1  0  0  0
 10 11  1  0  0  0
 11 12  1  0  0  0
 11 18  1  0  0  0
 12 13  1  0  0  0
 13 14  1  0  0  0
 13 15  1  0  0  0
 15 16  1  0  0  0
 16 17  1  0  0  0
 16 18  1  0  0  0
 19 20  1  0  0  0
 20 21  1  0  0  0
 21 22  2  0  0  0
 21 23  1  0  0  0
 23 24  1  0  0  0
M  CHG 1   9   1
M  END
> <minimizedAffinity>
-5.13161

$$$$
33


 33 36  0  0  0  0  0  0  0  0999 V2000
    0.8871  -17.9816  -37.6887 C   0  0  0  0  0  0  0  0  0  0  0  0
    2.1150  -18.4743  -37.7206 N   0  0  0  0  0  0  0  0  0  0  0  0
    2.4545  -19.6249  -38.3276 C   0  0  0  0  0  0  0  0  0  0  0  0
    1.4590  -20.3038  -38.9383 N   0  0  0  0  0  0  0  0  0  0  0  0
    0.1775  -19.8487  -38.9408 C   0  0  0  0  0  0  0  0  0  0  0  0
   -0.0888  -18.6792  -38.3078 N   0  0  0  0  0  0  0  0  0  0  0  0
   -0.8543  -20.5753  -39.5684 N   0  0  0  0  0  0  0  0  0  0  0  0
   -0.7734  -20.9441  -40.9584 C   0  0  0  0  0  0  0  0  0  0  0  0
   -1.0147  -22.4604  -40.9898 C   0  0  0  0  0  0  0  0  0  0  0  0
   -2.1894  -22.7414  -40.3223 O   0  0  0  0  0  0  0  0  0  0  0  0
   -2.0375  -22.5240  -38.9535 C   0  0  0  0  0  0  0  0  0  0  0  0
   -2.0106  -20.9867  -38.8135 C   0  0  0  0  0  0  0  0  0  0  0  0
    3.8028  -20.1224  -38.3317 N   0  0  0  0  0  0  0  0  0  0  0  0
    4.1577  -21.3135  -39.0493 C   0  0  0  0  0  0  0  0  0  0  0  0
    5.6020  -21.5948  -39.1978 C   0  0  0  0  0  0  0  0  0  0  0  0
    6.4205  -20.8869  -38.3288 O   0  0  0  0  0  0  0  0  0  0  0  0
    6.1168  -19.5325  -38.3106 C   0  0  0  0  0  0  0  0  0  0  0  0
    4.7945  -19.3937  -37.5966 C   0  0  0  0  0  0  0  0  0  0  0  0
    0.6169  -16.7710  -36.9930 N   0  0  0  0  0  0  0  0  0  0  0  0
   -0.2067  -16.7136  -36.3824 H   0  0  0  0  0  0  0  0  0  0  0  0
    1.3032  -14.7647  -38.0352 C   0  0  0  0  0  0  0  0  0  0  0  0
    1.4524  -15.6760  -37.1362 N   0  0  0  0  0  0  0  0  0  0  0  0
    4.5194  -11.6646  -41.0075 Br  0  0  0  0  0  0  0  0  0  0  0  0
    3.6754  -12.1525  -39.3752 C   0  0  0  0  0  0  0  0  0  0  0  0
    3.9300  -11.3827  -38.2512 C   0  0  0  0  0  0  0  0  0  0  0  0
    3.3095  -11.7604  -37.0757 C   0  0  0  0  0  0  0  0  0  0  0  0
    2.4800  -12.8508  -37.0294 C   0  0  0  0  0  0  0  0  0  0  0  0
    2.2072  -13.6385  -38.1473 C   0  0  0  0  0  0  0  0  0  0  0  0
    2.8347  -13.2474  -39.3098 C   0  0  0  0  0  0  0  0  0  0  0  0
    1.8563  -13.2284  -35.8356 O   0  0  0  0  0  0  0  0  0  0  0  0
    4.7719  -10.2731  -38.2866 O   0  0  0  0  0  0  0  0  0  0  0  0
    2.0364  -12.6747  -35.0034 H   0  0  0  0  0  0  0  0  0  0  0  0
    5.2431   -9.9536  -39.1194 H   0  0  0  0  0  0  0  0  0  0  0  0
 23 24  1  0  0  0
 24 25  2  0  0  0
 24 29  1  0  0  0
 25 26  1  0  0  0
 25 31  1  0  0  0
 26 27  2  0  0  0
 27 28  1  0  0  0
 27 30  1  0  0  0
 28 29  2  0  0  0
 28 21  1  0  0  0
 21 22  2  0  0  0
 22 19  1  0  0  0
 19  1  1  0  0  0
  1  2  2  0  0  0
  1  6  1  0  0  0
  2  3  1  0  0  0
  3  4  2  0  0  0
  3 13  1  0  0  0
  4  5  1  0  0  0
  5  6  2  0  0  0
  5  7  1  0  0  0
  7  8  1  0  0  0
  7 12  1  0  0  0
  8  9  1  0  0  0
  9 10  1  0  0  0
 10 11  1  0  0  0
 11 12  1  0  0  0
 13 14  1  0  0  0
 13 18  1  0  0  0
 14 15  1  0  0  0
 15 16  1  0  0  0
 16 17  1  0  0  0
 17 18  1  0  0  0
 19 20  1  0  0  0
 30 32  1  0  0  0
 31 33  1  0  0  0
M  END
> <minimizedAffinity>
-7.04807

$$$$
35


 33 36  0  0  0  0  0  0  0  0999 V2000
    1.1231  -17.3356  -37.5112 C   0  0  0  0  0  0  0  0  0  0  0  0
    2.3093  -17.9471  -37.4445 N   0  0  0  0  0  0  0  0  0  0  0  0
    2.4871  -19.2311  -37.8551 C   0  0  0  0  0  0  0  0  0  0  0  0
    1.4338  -19.9053  -38.3428 N   0  0  0  0  0  0  0  0  0  0  0  0
    0.2296  -19.3197  -38.4232 C   0  0  0  0  0  0  0  0  0  0  0  0
    0.0900  -18.0280  -38.0006 N   0  0  0  0  0  0  0  0  0  0  0  0
   -0.8959  -20.0302  -38.9386 N   0  0  0  0  0  0  0  0  0  0  0  0
   -1.7245  -20.8998  -38.1386 C   0  0  0  0  0  0  0  0  0  0  0  0
   -1.9956  -22.2009  -38.8633 C   0  0  0  0  0  0  0  0  0  0  0  0
   -1.3733  -22.2595  -40.1012 O   0  0  0  0  0  0  0  0  0  0  0  0
   -1.8090  -21.1720  -40.8828 C   0  0  0  0  0  0  0  0  0  0  0  0
   -1.2293  -19.8804  -40.3408 C   0  0  0  0  0  0  0  0  0  0  0  0
    3.7794  -19.7819  -37.7374 N   0  0  0  0  0  0  0  0  0  0  0  0
    4.0498  -21.0737  -38.3086 C   0  0  0  0  0  0  0  0  0  0  0  0
    5.2311  -20.8515  -39.2663 C   0  0  0  0  0  0  0  0  0  0  0  0
    6.2875  -20.4275  -38.4595 O   0  0  0  0  0  0  0  0  0  0  0  0
    6.0738  -19.1535  -37.9442 C   0  0  0  0  0  0  0  0  0  0  0  0
    4.8477  -19.0928  -37.0555 C   0  0  0  0  0  0  0  0  0  0  0  0
    1.0080  -15.9993  -37.0763 N   0  0  0  0  0  0  0  0  0  0  0  0
    0.1602  -15.7327  -36.5338 H   0  0  0  0  0  0  0  0  0  0  0  0
    1.7482  -14.0170  -38.1175 C   0  0  0  0  0  0  0  0  0  0  0  0
    2.0094  -15.0290  -37.3575 N   0  0  0  0  0  0  0  0  0  0  0  0
    2.6945  -14.1479  -41.0245 Br  0  0  0  0  0  0  0  0  0  0  0  0
    3.2409  -12.8736  -39.7160 C   0  0  0  0  0  0  0  0  0  0  0  0
    4.1538  -11.8854  -40.0373 C   0  0  0  0  0  0  0  0  0  0  0  0
    4.5345  -10.9708  -39.0672 C   0  0  0  0  0  0  0  0  0  0  0  0
    4.0020  -11.0600  -37.8007 C   0  0  0  0  0  0  0  0  0  0  0  0
    3.0897  -12.0651  -37.5175 C   0  0  0  0  0  0  0  0  0  0  0  0
    2.6944  -12.9838  -38.4593 C   0  0  0  0  0  0  0  0  0  0  0  0
    4.4110  -10.1264  -36.8614 O   0  0  0  0  0  0  0  0  0  0  0  0
    4.6862  -11.8003  -41.3105 O   0  0  0  0  0  0  0  0  0  0  0  0
    3.9518   -9.2399  -36.7031 H   0  0  0  0  0  0  0  0  0  0  0  0
    4.3905  -12.4795  -41.9994 H   0  0  0  0  0  0  0  0  0  0  0  0
 23 24  1  0  0  0
 24 25  2  0  0  0
 24 29  1  0  0  0
 25 26  1  0  0  0
 25 31  1  0  0  0
 26 27  2  0  0  0
 27 28  1  0  0  0
 27 30  1  0  0  0
 28 29  2  0  0  0
 29 21  1  0  0  0
 21 22  2  0  0  0
 22 19  1  0  0  0
 19  1  1  0  0  0
  1  2  2  0  0  0
  1  6  1  0  0  0
  2  3  1  0  0  0
  3  4  2  0  0  0
  3 13  1  0  0  0
  4  5  1  0  0  0
  5  6  2  0  0  0
  5  7  1  0  0  0
  7  8  1  0  0  0
  7 12  1  0  0  0
  8  9  1  0  0  0
  9 10  1  0  0  0
 10 11  1  0  0  0
 11 12  1  0  0  0
 13 14  1  0  0  0
 13 18  1  0  0  0
 14 15  1  0  0  0
 15 16  1  0  0  0
 16 17  1  0  0  0
 17 18  1  0  0  0
 19 20  1  0  0  0
 30 32  1  0  0  0
 31 33  1  0  0  0
M  END
> <minimizedAffinity>
-6.72365

$$$$
37


 27 30  0  0  0  0  0  0  0  0999 V2000
    1.8849  -13.9464  -37.5454 N   0  0  0  0  0  0  0  0  0  0  0  0
    1.7272  -15.2435  -38.1598 C   0  0  0  0  0  0  0  0  0  0  0  0
    1.5512  -16.1392  -36.9531 C   0  0  0  0  0  0  0  0  0  0  0  0
    0.5621  -15.3324  -36.1305 C   0  0  0  0  0  0  0  0  0  0  0  0
    1.1093  -13.9688  -36.3608 C   0  0  0  0  0  0  0  0  0  0  0  0
    0.9059  -12.9921  -35.6088 O   0  0  0  0  0  0  0  0  0  0  0  0
    5.3068   -9.4762  -39.9614 Br  0  0  0  0  0  0  0  0  0  0  0  0
    4.2432  -10.8738  -39.2209 C   0  0  0  0  0  0  0  0  0  0  0  0
    3.8468  -10.7735  -37.8925 C   0  0  0  0  0  0  0  0  0  0  0  0
    3.0824  -11.7881  -37.3847 C   0  0  0  0  0  0  0  0  0  0  0  0
    2.6779  -12.9004  -38.0904 C   0  0  0  0  0  0  0  0  0  0  0  0
    3.0974  -12.9627  -39.4217 C   0  0  0  0  0  0  0  0  0  0  0  0
    3.8700  -11.9636  -39.9806 C   0  0  0  0  0  0  0  0  0  0  0  0
    4.2669   -9.5862  -37.0997 C   0  0  0  0  0  0  0  0  0  0  0  0
    1.0125  -17.4662  -37.3176 C   0  0  0  0  0  0  0  0  0  0  0  0
   -0.2011  -17.7415  -37.1607 O   0  0  0  0  0  0  0  0  0  0  0  0
    1.8865  -18.4354  -37.8524 N   0  0  0  0  0  0  0  0  0  0  0  0
    2.8901  -18.2174  -37.9840 H   0  0  0  0  0  0  0  0  0  0  0  0
    1.4031  -19.7425  -38.2247 C   0  0  0  0  0  0  0  0  0  0  0  0
    2.2307  -20.3329  -39.3139 C   0  0  0  0  0  0  0  0  0  0  0  0
    3.4892  -20.8316  -39.2244 N   0  0  0  0  0  0  0  0  0  0  0  0
    3.8815  -21.2725  -40.4315 C   0  0  0  0  0  0  0  0  0  0  0  0
    2.8325  -21.0316  -41.2585 N   0  0  0  0  0  0  0  0  0  0  0  0
    1.8445  -20.4692  -40.5926 N   0  0  0  0  0  0  0  0  0  0  0  0
    5.2718  -21.8315  -40.3693 C   0  0  0  0  0  0  0  0  0  0  0  0
    5.7675  -21.3055  -39.0408 C   0  0  0  0  0  0  0  0  0  0  0  0
    4.5237  -21.0242  -38.2242 C   0  0  0  0  0  0  0  0  0  0  0  0
  7  8  1  0  0  0
  8  9  2  0  0  0
  8 13  1  0  0  0
  9 10  1  0  0  0
  9 14  1  0  0  0
 10 11  2  0  0  0
 11 12  1  0  0  0
 11  1  1  0  0  0
 12 13  2  0  0  0
  1  2  1  0  0  0
  1  5  1  0  0  0
  2  3  1  0  0  0
  3  4  1  0  0  0
  3 15  1  0  0  0
  4  5  1  0  0  0
  5  6  2  0  0  0
 15 16  2  0  0  0
 15 17  1  0  0  0
 17 19  1  0  0  0
 19 20  1  0  0  0
 20 21  1  0  0  0
 20 24  2  0  0  0
 21 22  1  0  0  0
 21 27  1  0  0  0
 22 23  2  0  0  0
 22 25  1  0  0  0
 23 24  1  0  0  0
 25 26  1  0  0  0
 26 27  1  0  0  0
 17 18  1  0  0  0
M  END
> <minimizedAffinity>
-7.28029

$$$$
39


 21 23  0  0  0  0  0  0  0  0999 V2000
    1.3866  -17.5581  -38.0083 N   0  0  0  0  0  0  0  0  0  0  0  0
    2.3637  -18.4129  -37.4957 C   0  0  0  0  0  0  0  0  0  0  0  0
    3.0619  -18.0892  -36.5244 O   0  0  0  0  0  0  0  0  0  0  0  0
    0.8395  -17.9261  -38.8428 H   0  0  0  0  0  0  0  0  0  0  0  0
   -1.1415  -17.6572  -36.3848 Br  0  0  0  0  0  0  0  0  0  0  0  0
   -0.1252  -16.0758  -36.7863 C   0  0  0  0  0  0  0  0  0  0  0  0
    1.0262  -16.2650  -37.5643 C   0  0  0  0  0  0  0  0  0  0  0  0
    1.7352  -15.1146  -37.8376 C   0  0  0  0  0  0  0  0  0  0  0  0
    1.3224  -13.8663  -37.3657 C   0  0  0  0  0  0  0  0  0  0  0  0
    0.1902  -13.7058  -36.6050 C   0  0  0  0  0  0  0  0  0  0  0  0
   -0.5258  -14.8451  -36.3264 C   0  0  0  0  0  0  0  0  0  0  0  0
   -0.2360  -12.3616  -36.1100 C   0  0  0  0  0  0  0  0  0  0  0  0
    2.5642  -19.7306  -38.1299 C   0  0  0  0  0  0  0  0  0  0  0  0
    3.7860  -19.8991  -38.8470 N   0  0  0  0  0  0  0  0  0  0  0  0
    3.9077  -21.3258  -39.1852 C   0  0  0  0  0  0  0  0  0  0  0  0
    4.8124  -21.4217  -40.3885 C   0  0  0  0  0  0  0  0  0  0  0  0
    5.8646  -20.4273  -40.1809 N   0  0  0  0  0  0  0  0  0  0  0  0
    5.2812  -19.1520  -40.5865 C   0  0  0  0  0  0  0  0  0  0  0  0
    3.8488  -19.1087  -40.0736 C   0  0  0  0  0  0  0  0  0  0  0  0
    6.1483  -20.3243  -38.7581 C   0  0  0  0  0  0  0  0  0  0  0  0
    4.9780  -19.5886  -38.0846 C   0  0  0  0  0  0  0  0  0  0  0  0
  5  6  1  0  0  0
  6  7  2  0  0  0
  6 11  1  0  0  0
  7  8  1  0  0  0
  7  1  1  0  0  0
  8  9  2  0  0  0
  9 10  1  0  0  0
 10 11  2  0  0  0
 10 12  1  0  0  0
  1  2  1  0  0  0
  2  3  2  0  0  0
  2 13  1  0  0  0
 13 14  1  0  0  0
 14 15  1  0  0  0
 14 19  1  0  0  0
 14 21  1  0  0  0
 15 16  1  0  0  0
 16 17  1  0  0  0
 17 18  1  0  0  0
 17 20  1  0  0  0
 18 19  1  0  0  0
 20 21  1  0  0  0
  1  4  1  0  0  0
M  CHG 1  14   1
M  END
> <minimizedAffinity>
-5.50501

$$$$
56


 24 27  0  0  0  0  0  0  0  0999 V2000
    1.6198  -19.9758  -38.9161 C   0  0  0  0  0  0  0  0  0  0  0  0
    0.8578  -19.1001  -38.1406 C   0  0  0  0  0  0  0  0  0  0  0  0
    0.6265  -17.6327  -38.0492 C   0  0  0  0  0  0  0  0  0  0  0  0
   -0.5916  -17.6574  -38.8974 N   0  0  0  0  0  0  0  0  0  0  0  0
   -0.3831  -18.4933  -39.8658 C   0  0  0  0  0  0  0  0  0  0  0  0
    0.9355  -19.0183  -39.6962 C   0  0  0  0  0  0  0  0  0  0  0  0
   -1.3226  -18.8209  -40.9139 N   0  0  0  0  0  0  0  0  0  0  0  0
    0.2593  -17.3318  -36.7329 O   0  0  0  0  0  0  0  0  0  0  0  0
    1.0620  -16.2870  -36.3179 C   0  0  0  0  0  0  0  0  0  0  0  0
    1.4364  -15.6243  -37.6329 C   0  0  0  0  0  0  0  0  0  0  0  0
    1.5832  -16.7829  -38.4354 O   0  0  0  0  0  0  0  0  0  0  0  0
   -1.9580  -18.1016  -41.3086 H   0  0  0  0  0  0  0  0  0  0  0  0
   -1.3791  -19.7847  -41.2921 H   0  0  0  0  0  0  0  0  0  0  0  0
    3.3326  -21.4817  -41.1447 Br  0  0  0  0  0  0  0  0  0  0  0  0
    3.9566  -20.5546  -39.5972 C   0  0  0  0  0  0  0  0  0  0  0  0
    3.0928  -19.9442  -38.7234 C   0  0  0  0  0  0  0  0  0  0  0  0
    3.5790  -19.2795  -37.6227 C   0  0  0  0  0  0  0  0  0  0  0  0
    4.9406  -19.2065  -37.3623 C   0  0  0  0  0  0  0  0  0  0  0  0
    5.8237  -19.8104  -38.2245 C   0  0  0  0  0  0  0  0  0  0  0  0
    5.3195  -20.4847  -39.3423 C   0  0  0  0  0  0  0  0  0  0  0  0
    1.8896  -18.0296  -40.2826 C   0  0  0  0  0  0  0  0  0  0  0  0
    2.6456  -17.2607  -40.7700 N   0  0  0  0  0  0  0  0  0  0  0  0
   -0.3910  -19.7505  -37.6045 C   0  0  0  0  0  0  0  0  0  0  0  0
   -1.3578  -20.2727  -37.1707 N   0  0  0  0  0  0  0  0  0  0  0  0
 14 15  1  0  0  0
 15 16  2  0  0  0
 15 20  1  0  0  0
 16 17  1  0  0  0
 16  1  1  0  0  0
 17 18  2  0  0  0
 18 19  1  0  0  0
 19 20  2  0  0  0
  1  2  1  0  0  0
  1  6  1  0  0  0
  2  3  1  0  0  0
  2  6  1  0  0  0
  2 23  1  0  0  0
  3  4  1  0  0  0
  3  8  1  0  0  0
  3 11  1  0  0  0
  4  5  2  0  0  0
  5  6  1  0  0  0
  5  7  1  0  0  0
  6 21  1  0  0  0
 21 22  3  0  0  0
  8  9  1  0  0  0
  9 10  1  0  0  0
 10 11  1  0  0  0
 23 24  3  0  0  0
  7 12  1  0  0  0
  7 13  1  0  0  0
M  END
> <minimizedAffinity>
-5.13145

$$$$
64


 22 25  0  0  0  0  0  0  0  0999 V2000
    1.5626  -17.6623  -37.9057 N   0  0  0  0  0  0  0  0  0  0  0  0
    2.5641  -18.5804  -37.4985 C   0  0  0  0  0  0  0  0  0  0  0  0
    3.5053  -18.2984  -36.7359 O   0  0  0  0  0  0  0  0  0  0  0  0
    2.3401  -19.9153  -38.0996 C   0  0  0  0  0  0  0  0  0  0  0  0
    3.4170  -20.3243  -39.0432 C   0  0  0  0  0  0  0  0  0  0  0  0
    2.7477  -20.6836  -40.2431 O   0  0  0  0  0  0  0  0  0  0  0  0
    1.9998  -19.4841  -40.3685 C   0  0  0  0  0  0  0  0  0  0  0  0
    1.1851  -19.6392  -39.0787 C   0  0  0  0  0  0  0  0  0  0  0  0
    0.5753  -18.3664  -38.6653 C   0  0  0  0  0  0  0  0  0  0  0  0
   -0.5768  -17.9455  -38.9076 O   0  0  0  0  0  0  0  0  0  0  0  0
    3.0737  -18.4786  -40.2242 C   0  0  0  0  0  0  0  0  0  0  0  0
    4.0562  -19.0683  -39.5436 C   0  0  0  0  0  0  0  0  0  0  0  0
    0.1153  -16.9524  -35.2729 Br  0  0  0  0  0  0  0  0  0  0  0  0
    0.8689  -15.7216  -36.5498 C   0  0  0  0  0  0  0  0  0  0  0  0
    1.4719  -16.2661  -37.6607 C   0  0  0  0  0  0  0  0  0  0  0  0
    2.0047  -15.3553  -38.5666 C   0  0  0  0  0  0  0  0  0  0  0  0
    1.9367  -13.9897  -38.3687 C   0  0  0  0  0  0  0  0  0  0  0  0
    1.3202  -13.4746  -37.2342 C   0  0  0  0  0  0  0  0  0  0  0  0
    0.7924  -14.3634  -36.3361 C   0  0  0  0  0  0  0  0  0  0  0  0
    4.3699  -21.3477  -38.5887 C   0  0  0  0  0  0  0  0  0  0  0  0
    4.7371  -22.1277  -39.7012 O   0  0  0  0  0  0  0  0  0  0  0  0
    3.9848  -22.7473  -39.9331 H   0  0  0  0  0  0  0  0  0  0  0  0
 13 14  1  0  0  0
 14 15  2  0  0  0
 14 19  1  0  0  0
 15 16  1  0  0  0
 15  1  1  0  0  0
 16 17  2  0  0  0
 17 18  1  0  0  0
 18 19  2  0  0  0
  1  2  1  0  0  0
  1  9  1  0  0  0
  2  3  2  0  0  0
  2  4  1  0  0  0
  4  5  1  0  0  0
  4  8  1  0  0  0
  5  6  1  0  0  0
  5 12  1  0  0  0
  5 20  1  0  0  0
  6  7  1  0  0  0
  7  8  1  0  0  0
  7 11  1  0  0  0
  8  9  1  0  0  0
  9 10  2  0  0  0
 11 12  2  0  0  0
 20 21  1  0  0  0
 21 22  1  0  0  0
M  END
> <minimizedAffinity>
-6.09531

$$$$
67


 22 25  0  0  0  0  0  0  0  0999 V2000
    4.9541  -21.7008  -41.1271 N   0  0  0  0  0  0  0  0  0  0  0  0
    5.8062  -21.7759  -39.9249 C   0  0  0  0  0  0  0  0  0  0  0  0
    5.3864  -20.5876  -39.1933 C   0  0  0  0  0  0  0  0  0  0  0  0
    4.2515  -20.7339  -38.3779 O   0  0  0  0  0  0  0  0  0  0  0  0
    4.1211  -19.3550  -38.0634 C   0  0  0  0  0  0  0  0  0  0  0  0
    3.8513  -18.8519  -39.4882 C   0  0  0  0  0  0  0  0  0  0  0  0
    4.9769  -19.5157  -40.2181 C   0  0  0  0  0  0  0  0  0  0  0  0
    4.6219  -20.3378  -41.3633 C   0  0  0  0  0  0  0  0  0  0  0  0
    4.0979  -19.9274  -42.4194 O   0  0  0  0  0  0  0  0  0  0  0  0
    5.5113  -19.0446  -37.6178 C   0  0  0  0  0  0  0  0  0  0  0  0
    6.3000  -19.9343  -38.2612 C   0  0  0  0  0  0  0  0  0  0  0  0
    7.0984  -22.8095  -43.1742 Br  0  0  0  0  0  0  0  0  0  0  0  0
    5.3264  -23.3815  -42.8815 C   0  0  0  0  0  0  0  0  0  0  0  0
    4.5137  -22.7807  -41.9356 C   0  0  0  0  0  0  0  0  0  0  0  0
    3.2324  -23.3068  -41.8276 C   0  0  0  0  0  0  0  0  0  0  0  0
    2.7736  -24.3493  -42.5930 C   0  0  0  0  0  0  0  0  0  0  0  0
    3.5874  -24.9261  -43.5157 C   0  0  0  0  0  0  0  0  0  0  0  0
    4.8605  -24.4431  -43.6606 C   0  0  0  0  0  0  0  0  0  0  0  0
    2.5446  -19.4742  -39.8723 C   0  0  0  0  0  0  0  0  0  0  0  0
    2.1843  -20.5885  -39.4668 O   0  0  0  0  0  0  0  0  0  0  0  0
    1.7015  -18.7691  -40.7221 O   0  0  0  0  0  0  0  0  0  0  0  0
    1.9759  -17.3839  -40.9635 C   0  0  0  0  0  0  0  0  0  0  0  0
 12 13  1  0  0  0
 13 14  2  0  0  0
 13 18  1  0  0  0
 14 15  1  0  0  0
 14  1  1  0  0  0
 15 16  2  0  0  0
 16 17  1  0  0  0
 17 18  2  0  0  0
  1  2  1  0  0  0
  1  8  1  0  0  0
  2  3  1  0  0  0
  3  4  1  0  0  0
  3  7  1  0  0  0
  3 11  1  0  0  0
  4  5  1  0  0  0
  5  6  1  0  0  0
  5 10  1  0  0  0
  6  7  1  0  0  0
  6 19  1  0  0  0
  7  8  1  0  0  0
  8  9  2  0  0  0
 19 20  2  0  0  0
 19 21  1  0  0  0
 21 22  1  0  0  0
 10 11  2  0  0  0
M  END
> <minimizedAffinity>
-5.13775

$$$$
81


 22 25  0  0  0  0  0  0  0  0999 V2000
    1.1711  -16.9007  -36.5930 C   0  0  0  0  0  0  0  0  0  0  0  0
    2.3581  -17.3351  -36.1322 N   0  0  0  0  0  0  0  0  0  0  0  0
    2.8471  -18.2560  -36.9651 N   0  0  0  0  0  0  0  0  0  0  0  0
    1.9782  -18.4301  -37.9816 C   0  0  0  0  0  0  0  0  0  0  0  0
    0.9593  -17.5876  -37.7293 N   0  0  0  0  0  0  0  0  0  0  0  0
    2.2762  -19.3437  -38.9740 C   0  0  0  0  0  0  0  0  0  0  0  0
    3.4375  -20.0898  -38.9658 C   0  0  0  0  0  0  0  0  0  0  0  0
    3.4771  -20.8974  -40.0444 N   0  0  0  0  0  0  0  0  0  0  0  0
    2.3733  -20.6818  -40.7335 N   0  0  0  0  0  0  0  0  0  0  0  0
    1.6062  -19.7365  -40.1145 C   0  0  0  0  0  0  0  0  0  0  0  0
    4.5160  -21.8425  -40.4200 C   0  0  0  0  0  0  0  0  0  0  0  0
    4.2767  -19.8862  -37.9343 N   0  0  0  0  0  0  0  0  0  0  0  0
    3.9770  -18.9853  -36.9610 C   0  0  0  0  0  0  0  0  0  0  0  0
    0.2747  -15.8669  -35.9686 C   0  0  0  0  0  0  0  0  0  0  0  0
    0.0533  -10.6323  -37.1081 Br  0  0  0  0  0  0  0  0  0  0  0  0
    0.6443  -12.4074  -36.7830 C   0  0  0  0  0  0  0  0  0  0  0  0
   -0.1372  -13.4835  -36.4505 C   0  0  0  0  0  0  0  0  0  0  0  0
    0.6916  -14.5282  -36.3162 N   0  0  0  0  0  0  0  0  0  0  0  0
    1.9294  -14.1386  -36.5507 N   0  0  0  0  0  0  0  0  0  0  0  0
    1.9497  -12.8190  -36.8467 C   0  0  0  0  0  0  0  0  0  0  0  0
    3.1679  -11.9939  -37.1748 C   0  0  0  0  0  0  0  0  0  0  0  0
   -1.6252  -13.4501  -36.2807 C   0  0  0  0  0  0  0  0  0  0  0  0
 15 16  1  0  0  0
 16 17  2  0  0  0
 16 20  1  0  0  0
 17 18  1  0  0  0
 17 22  1  0  0  0
 18 19  1  0  0  0
 18 14  1  0  0  0
 19 20  2  0  0  0
 20 21  1  0  0  0
 14  1  1  0  0  0
  1  2  2  0  0  0
  1  5  1  0  0  0
  2  3  1  0  0  0
  3  4  1  0  0  0
  3 13  1  0  0  0
  4  5  2  0  0  0
  4  6  1  0  0  0
  6  7  2  0  0  0
  6 10  1  0  0  0
  7  8  1  0  0  0
  7 12  1  0  0  0
  8  9  1  0  0  0
  8 11  1  0  0  0
  9 10  2  0  0  0
 12 13  2  0  0  0
M  END
> <minimizedAffinity>
-6.05216

$$$$
85


 26 29  0  0  0  0  0  0  0  0999 V2000
    1.6788  -20.0718  -38.9433 C   0  0  0  0  0  0  0  0  0  0  0  0
    2.9239  -19.7345  -38.3748 C   0  0  0  0  0  0  0  0  0  0  0  0
    3.2307  -19.2218  -37.1524 N   0  0  0  0  0  0  0  0  0  0  0  0
    4.5214  -19.0889  -37.1076 O   0  0  0  0  0  0  0  0  0  0  0  0
    5.0600  -19.4819  -38.2197 N   0  0  0  0  0  0  0  0  0  0  0  0
    4.1010  -19.8995  -39.0561 C   0  0  0  0  0  0  0  0  0  0  0  0
    4.1475  -20.4050  -40.3394 C   0  0  0  0  0  0  0  0  0  0  0  0
    2.9249  -20.7343  -40.8935 C   0  0  0  0  0  0  0  0  0  0  0  0
    1.7217  -20.5707  -40.2097 C   0  0  0  0  0  0  0  0  0  0  0  0
    5.3477  -20.5795  -41.0519 N   0  0  0  0  0  0  0  0  0  0  0  0
    5.8489  -19.4650  -41.8516 C   0  0  0  0  0  0  0  0  0  0  0  0
    7.0361  -19.8672  -42.6824 C   0  0  0  0  0  0  0  0  0  0  0  0
    6.9841  -21.1030  -43.2374 O   0  0  0  0  0  0  0  0  0  0  0  0
    6.3020  -22.0853  -42.5808 C   0  0  0  0  0  0  0  0  0  0  0  0
    6.1879  -21.7372  -41.1113 C   0  0  0  0  0  0  0  0  0  0  0  0
   -0.2813  -18.7252  -38.1807 C   0  0  0  0  0  0  0  0  0  0  0  0
   -0.0060  -17.7666  -38.9946 O   0  0  0  0  0  0  0  0  0  0  0  0
    0.5274  -19.8576  -38.1444 N   0  0  0  0  0  0  0  0  0  0  0  0
    0.2225  -20.6117  -37.4581 H   0  0  0  0  0  0  0  0  0  0  0  0
   -3.3629  -20.3038  -38.7615 Br  0  0  0  0  0  0  0  0  0  0  0  0
   -2.7123  -19.0708  -37.4565 C   0  0  0  0  0  0  0  0  0  0  0  0
   -1.4723  -18.5363  -37.3262 C   0  0  0  0  0  0  0  0  0  0  0  0
   -1.4704  -17.7124  -36.2227 N   0  0  0  0  0  0  0  0  0  0  0  0
   -2.6748  -17.7590  -35.7178 N   0  0  0  0  0  0  0  0  0  0  0  0
   -3.4897  -18.5556  -36.4000 C   0  0  0  0  0  0  0  0  0  0  0  0
   -0.3557  -16.9483  -35.7268 C   0  0  0  0  0  0  0  0  0  0  0  0
 20 21  1  0  0  0
 21 22  2  0  0  0
 21 25  1  0  0  0
 22 23  1  0  0  0
 22 16  1  0  0  0
 23 24  1  0  0  0
 23 26  1  0  0  0
 24 25  2  0  0  0
 16 17  2  0  0  0
 16 18  1  0  0  0
 18  1  1  0  0  0
  1  2  1  0  0  0
  1  9  2  0  0  0
  2  3  2  0  0  0
  2  6  1  0  0  0
  3  4  1  0  0  0
  4  5  1  0  0  0
  5  6  2  0  0  0
  6  7  1  0  0  0
  7  8  2  0  0  0
  7 10  1  0  0  0
  8  9  1  0  0  0
 10 11  1  0  0  0
 10 15  1  0  0  0
 11 12  1  0  0  0
 12 13  1  0  0  0
 13 14  1  0  0  0
 14 15  1  0  0  0
 18 19  1  0  0  0
M  END
> <minimizedAffinity>
-5.44908

$$$$
95


 26 29  0  0  0  0  0  0  0  0999 V2000
    0.8762  -16.5361  -35.9625 C   0  0  0  0  0  0  0  0  0  0  0  0
    0.5353  -17.0144  -34.8326 O   0  0  0  0  0  0  0  0  0  0  0  0
    1.0631  -15.2067  -36.2568 N   0  0  0  0  0  0  0  0  0  0  0  0
    0.7377  -14.8647  -34.9797 H   0  0  0  0  0  0  0  0  0  0  0  0
    4.2013  -19.3367  -39.1069 Br  0  0  0  0  0  0  0  0  0  0  0  0
    2.4751  -18.8426  -38.5073 C   0  0  0  0  0  0  0  0  0  0  0  0
    2.3444  -17.9009  -37.4795 C   0  0  0  0  0  0  0  0  0  0  0  0
    1.0858  -17.5546  -37.0590 C   0  0  0  0  0  0  0  0  0  0  0  0
   -0.0286  -18.1141  -37.6260 C   0  0  0  0  0  0  0  0  0  0  0  0
    0.0973  -19.0588  -38.6588 C   0  0  0  0  0  0  0  0  0  0  0  0
    1.3635  -19.4081  -39.0827 C   0  0  0  0  0  0  0  0  0  0  0  0
   -1.2958  -17.7146  -37.1362 N   0  0  0  0  0  0  0  0  0  0  0  0
   -1.9983  -18.4136  -36.2655 N   0  0  0  0  0  0  0  0  0  0  0  0
   -3.1334  -17.8089  -35.9869 N   0  0  0  0  0  0  0  0  0  0  0  0
   -3.1843  -16.6870  -36.6865 N   0  0  0  0  0  0  0  0  0  0  0  0
   -2.0501  -16.6355  -37.3923 C   0  0  0  0  0  0  0  0  0  0  0  0
    1.2487  -13.8849  -36.5487 C   0  0  0  0  0  0  0  0  0  0  0  0
    1.9441  -13.6370  -37.8771 C   0  0  0  0  0  0  0  0  0  0  0  0
    2.8636  -12.6733  -38.1025 N   0  0  0  0  0  0  0  0  0  0  0  0
    3.2821  -12.7215  -39.3737 C   0  0  0  0  0  0  0  0  0  0  0  0
    2.6086  -13.7345  -39.9408 N   0  0  0  0  0  0  0  0  0  0  0  0
    1.7943  -14.2926  -39.0331 N   0  0  0  0  0  0  0  0  0  0  0  0
    4.2420  -11.8156  -39.8441 C   0  0  0  0  0  0  0  0  0  0  0  0
    4.7638  -10.8689  -39.0070 C   0  0  0  0  0  0  0  0  0  0  0  0
    4.3322  -10.8197  -37.6963 C   0  0  0  0  0  0  0  0  0  0  0  0
    3.3800  -11.7311  -37.2635 C   0  0  0  0  0  0  0  0  0  0  0  0
  5  6  1  0  0  0
  6  7  2  0  0  0
  6 11  1  0  0  0
  7  8  1  0  0  0
  8  9  2  0  0  0
  8  1  1  0  0  0
  9 10  1  0  0  0
  9 12  1  0  0  0
 10 11  2  0  0  0
 12 13  1  0  0  0
 12 16  1  0  0  0
 13 14  2  0  0  0
 14 15  1  0  0  0
 15 16  2  0  0  0
  1  2  2  0  0  0
  1  3  1  0  0  0
  3 17  1  0  0  0
 17 18  1  0  0  0
 18 19  1  0  0  0
 18 22  2  0  0  0
 19 20  1  0  0  0
 19 26  1  0  0  0
 20 21  2  0  0  0
 20 23  1  0  0  0
 21 22  1  0  0  0
 23 24  2  0  0  0
 24 25  1  0  0  0
 25 26  2  0  0  0
  3  4  1  0  0  0
M  END
> <minimizedAffinity>
-6.44191

$$$$
106


 29 32  0  0  0  0  0  0  0  0999 V2000
    1.9553  -16.7542  -36.0021 C   0  0  0  0  0  0  0  0  0  0  0  0
    2.4020  -17.7084  -36.7709 C   0  0  0  0  0  0  0  0  0  0  0  0
    1.9861  -17.9254  -38.0752 O   0  0  0  0  0  0  0  0  0  0  0  0
    2.6279  -19.0082  -38.6469 C   0  0  0  0  0  0  0  0  0  0  0  0
    3.5080  -19.5754  -37.7537 C   0  0  0  0  0  0  0  0  0  0  0  0
    4.2555  -20.6745  -38.1210 C   0  0  0  0  0  0  0  0  0  0  0  0
    4.1116  -21.1990  -39.3879 C   0  0  0  0  0  0  0  0  0  0  0  0
    3.2033  -20.6001  -40.2830 C   0  0  0  0  0  0  0  0  0  0  0  0
    2.4564  -19.5142  -39.9433 C   0  0  0  0  0  0  0  0  0  0  0  0
    3.1624  -21.2405  -41.5317 O   0  0  0  0  0  0  0  0  0  0  0  0
    3.3904  -18.7656  -36.5365 C   0  0  0  0  0  0  0  0  0  0  0  0
    4.0201  -18.9357  -35.4692 O   0  0  0  0  0  0  0  0  0  0  0  0
    0.7638  -11.6974  -37.4417 Br  0  0  0  0  0  0  0  0  0  0  0  0
    0.3556  -13.5036  -36.9951 C   0  0  0  0  0  0  0  0  0  0  0  0
    1.2778  -14.4579  -36.6750 C   0  0  0  0  0  0  0  0  0  0  0  0
    0.9571  -15.7588  -36.3548 C   0  0  0  0  0  0  0  0  0  0  0  0
   -0.3997  -16.0962  -36.3644 C   0  0  0  0  0  0  0  0  0  0  0  0
   -1.3675  -15.1820  -36.6780 C   0  0  0  0  0  0  0  0  0  0  0  0
   -0.9833  -13.8840  -36.9930 C   0  0  0  0  0  0  0  0  0  0  0  0
   -0.7487  -17.3932  -36.0420 O   0  0  0  0  0  0  0  0  0  0  0  0
   -2.0961  -17.7859  -36.0398 C   0  0  0  0  0  0  0  0  0  0  0  0
    1.5305  -18.8511  -40.8198 C   0  0  0  0  0  0  0  0  0  0  0  0
    0.3270  -19.4394  -41.2451 N   0  0  0  0  0  0  0  0  0  0  0  0
   -0.3657  -20.2293  -40.2638 C   0  0  0  0  0  0  0  0  0  0  0  0
   -1.2125  -19.4235  -39.3099 C   0  0  0  0  0  0  0  0  0  0  0  0
   -1.0769  -18.0514  -39.4706 O   0  0  0  0  0  0  0  0  0  0  0  0
   -1.4468  -17.7726  -40.7818 C   0  0  0  0  0  0  0  0  0  0  0  0
   -0.6099  -18.4536  -41.8143 C   0  0  0  0  0  0  0  0  0  0  0  0
    0.5188  -20.0567  -42.0608 H   0  0  0  0  0  0  0  0  0  0  0  0
 13 14  1  0  0  0
 14 15  2  0  0  0
 14 19  1  0  0  0
 15 16  1  0  0  0
 16 17  2  0  0  0
 16  1  1  0  0  0
 17 18  1  0  0  0
 17 20  1  0  0  0
 18 19  2  0  0  0
 20 21  1  0  0  0
  1  2  2  0  0  0
  2  3  1  0  0  0
  2 11  1  0  0  0
  3  4  1  0  0  0
  4  5  2  0  0  0
  4  9  1  0  0  0
  5  6  1  0  0  0
  5 11  1  0  0  0
  6  7  2  0  0  0
  7  8  1  0  0  0
  8  9  2  0  0  0
  8 10  1  0  0  0
  9 22  1  0  0  0
 22 23  1  0  0  0
 23 24  1  0  0  0
 23 28  1  0  0  0
 24 25  1  0  0  0
 25 26  1  0  0  0
 26 27  1  0  0  0
 27 28  1  0  0  0
 11 12  2  0  0  0
 23 29  1  0  0  0
M  CHG 1  10  -1
M  CHG 1  23   1
M  END
> <minimizedAffinity>
-6.24539

$$$$
107


 31 34  0  0  0  0  0  0  0  0999 V2000
    1.5206  -17.5716  -39.6925 C   0  0  0  0  0  0  0  0  0  0  0  0
    2.6915  -18.1511  -39.3501 N   0  0  0  0  0  0  0  0  0  0  0  0
    2.7330  -19.3251  -38.7097 C   0  0  0  0  0  0  0  0  0  0  0  0
    1.5736  -19.9294  -38.4067 N   0  0  0  0  0  0  0  0  0  0  0  0
    0.3593  -19.4041  -38.7212 C   0  0  0  0  0  0  0  0  0  0  0  0
    0.3941  -18.2083  -39.3712 N   0  0  0  0  0  0  0  0  0  0  0  0
    3.9648  -19.9343  -38.3486 N   0  0  0  0  0  0  0  0  0  0  0  0
    4.9678  -19.2486  -37.5641 C   0  0  0  0  0  0  0  0  0  0  0  0
    6.3648  -19.5083  -38.1074 C   0  0  0  0  0  0  0  0  0  0  0  0
    6.5332  -20.8669  -38.3977 O   0  0  0  0  0  0  0  0  0  0  0  0
    5.6497  -21.2953  -39.3594 C   0  0  0  0  0  0  0  0  0  0  0  0
    4.2584  -21.2878  -38.7638 C   0  0  0  0  0  0  0  0  0  0  0  0
   -0.8524  -20.0424  -38.4006 N   0  0  0  0  0  0  0  0  0  0  0  0
   -1.3595  -21.1219  -39.1942 C   0  0  0  0  0  0  0  0  0  0  0  0
   -2.7923  -20.7586  -39.5783 C   0  0  0  0  0  0  0  0  0  0  0  0
   -3.4796  -20.5217  -38.4005 O   0  0  0  0  0  0  0  0  0  0  0  0
   -3.0440  -19.3971  -37.7402 C   0  0  0  0  0  0  0  0  0  0  0  0
   -1.6085  -19.6138  -37.2607 C   0  0  0  0  0  0  0  0  0  0  0  0
    1.4402  -16.3255  -40.3736 N   0  0  0  0  0  0  0  0  0  0  0  0
    0.7759  -16.1908  -41.1834 H   0  0  0  0  0  0  0  0  0  0  0  0
    1.8639  -14.3390  -39.1674 C   0  0  0  0  0  0  0  0  0  0  0  0
    2.2193  -15.2219  -40.0225 N   0  0  0  0  0  0  0  0  0  0  0  0
    5.4405  -10.6708  -40.6575 Br  0  0  0  0  0  0  0  0  0  0  0  0
    4.2944  -11.5059  -39.3839 C   0  0  0  0  0  0  0  0  0  0  0  0
    3.5171  -12.5886  -39.7305 C   0  0  0  0  0  0  0  0  0  0  0  0
    2.6915  -13.1915  -38.8127 C   0  0  0  0  0  0  0  0  0  0  0  0
    2.6628  -12.6818  -37.5328 C   0  0  0  0  0  0  0  0  0  0  0  0
    3.4456  -11.5836  -37.1681 C   0  0  0  0  0  0  0  0  0  0  0  0
    4.2766  -10.9803  -38.0981 C   0  0  0  0  0  0  0  0  0  0  0  0
    1.8186  -13.3100  -36.6246 O   0  0  0  0  0  0  0  0  0  0  0  0
    0.6369  -12.7307  -36.1224 C   0  0  0  0  0  0  0  0  0  0  0  0
 23 24  1  0  0  0
 24 25  2  0  0  0
 24 29  1  0  0  0
 25 26  1  0  0  0
 26 27  2  0  0  0
 26 21  1  0  0  0
 27 28  1  0  0  0
 27 30  1  0  0  0
 28 29  2  0  0  0
 30 31  1  0  0  0
 21 22  2  0  0  0
 22 19  1  0  0  0
 19  1  1  0  0  0
  1  2  2  0  0  0
  1  6  1  0  0  0
  2  3  1  0  0  0
  3  4  2  0  0  0
  3  7  1  0  0  0
  4  5  1  0  0  0
  5  6  2  0  0  0
  5 13  1  0  0  0
 13 14  1  0  0  0
 13 18  1  0  0  0
 14 15  1  0  0  0
 15 16  1  0  0  0
 16 17  1  0  0  0
 17 18  1  0  0  0
  7  8  1  0  0  0
  7 12  1  0  0  0
  8  9  1  0  0  0
  9 10  1  0  0  0
 10 11  1  0  0  0
 11 12  1  0  0  0
 19 20  1  0  0  0
M  END
> <minimizedAffinity>
-6.45926

$$$$
111


 29 32  0  0  0  0  0  0  0  0999 V2000
    2.1642  -17.6876  -37.2261 C   0  0  0  0  0  0  0  0  0  0  0  0
    2.3243  -18.6370  -38.1223 N   0  0  0  0  0  0  0  0  0  0  0  0
    3.3336  -19.4854  -37.7479 C   0  0  0  0  0  0  0  0  0  0  0  0
    3.8077  -19.0171  -36.5710 N   0  0  0  0  0  0  0  0  0  0  0  0
    3.1342  -17.9645  -36.2528 N   0  0  0  0  0  0  0  0  0  0  0  0
    3.4828  -20.4413  -38.6676 N   0  0  0  0  0  0  0  0  0  0  0  0
    2.5770  -20.2048  -39.6304 C   0  0  0  0  0  0  0  0  0  0  0  0
    1.8373  -19.0713  -39.3127 C   0  0  0  0  0  0  0  0  0  0  0  0
    0.8902  -18.5944  -40.0975 N   0  0  0  0  0  0  0  0  0  0  0  0
    0.6512  -19.2775  -41.2608 C   0  0  0  0  0  0  0  0  0  0  0  0
   -0.2295  -18.9128  -42.0802 O   0  0  0  0  0  0  0  0  0  0  0  0
    1.3462  -20.3837  -41.5999 N   0  0  0  0  0  0  0  0  0  0  0  0
    2.3031  -20.8631  -40.8141 C   0  0  0  0  0  0  0  0  0  0  0  0
    2.9849  -21.8868  -41.0738 O   0  0  0  0  0  0  0  0  0  0  0  0
    0.1062  -17.4062  -39.9448 C   0  0  0  0  0  0  0  0  0  0  0  0
    1.1515  -20.8927  -42.4875 H   0  0  0  0  0  0  0  0  0  0  0  0
    1.4640  -12.3825  -37.0590 Br  0  0  0  0  0  0  0  0  0  0  0  0
    0.8189  -14.1653  -36.8507 C   0  0  0  0  0  0  0  0  0  0  0  0
    1.6500  -15.2186  -37.0997 C   0  0  0  0  0  0  0  0  0  0  0  0
    1.3349  -16.5393  -36.9949 C   0  0  0  0  0  0  0  0  0  0  0  0
   -0.0005  -16.7552  -36.5831 C   0  0  0  0  0  0  0  0  0  0  0  0
   -0.8722  -15.7255  -36.3209 C   0  0  0  0  0  0  0  0  0  0  0  0
   -0.4630  -14.4078  -36.4543 C   0  0  0  0  0  0  0  0  0  0  0  0
   -0.4490  -18.0564  -36.4368 O   0  0  0  0  0  0  0  0  0  0  0  0
   -1.7506  -18.4767  -36.7043 C   0  0  0  0  0  0  0  0  0  0  0  0
    4.4208  -21.5252  -38.6561 C   0  0  0  0  0  0  0  0  0  0  0  0
    5.7918  -21.0094  -39.0411 C   0  0  0  0  0  0  0  0  0  0  0  0
    6.0607  -21.4173  -40.3326 O   0  0  0  0  0  0  0  0  0  0  0  0
    6.0596  -20.3345  -41.2288 C   0  0  0  0  0  0  0  0  0  0  0  0
 17 18  1  0  0  0
 18 19  2  0  0  0
 18 23  1  0  0  0
 19 20  1  0  0  0
 20 21  2  0  0  0
 20  1  1  0  0  0
 21 22  1  0  0  0
 21 24  1  0  0  0
 22 23  2  0  0  0
 24 25  1  0  0  0
  1  2  1  0  0  0
  1  5  2  0  0  0
  2  3  1  0  0  0
  2  8  1  0  0  0
  3  4  2  0  0  0
  3  6  1  0  0  0
  4  5  1  0  0  0
  6  7  1  0  0  0
  6 26  1  0  0  0
  7  8  2  0  0  0
  7 13  1  0  0  0
  8  9  1  0  0  0
  9 10  1  0  0  0
  9 15  1  0  0  0
 10 11  2  0  0  0
 10 12  1  0  0  0
 12 13  1  0  0  0
 13 14  2  0  0  0
 26 27  1  0  0  0
 27 28  1  0  0  0
 28 29  1  0  0  0
 12 16  1  0  0  0
M  END
> <minimizedAffinity>
-5.82167

$$$$
127


 29 32  0  0  0  0  0  0  0  0999 V2000
    0.1327  -15.6694  -36.5674 N   0  0  0  0  0  0  0  0  0  0  0  0
   -0.1344  -16.8493  -35.8322 C   0  0  0  0  0  0  0  0  0  0  0  0
   -1.4814  -17.4371  -36.0109 C   0  0  0  0  0  0  0  0  0  0  0  0
   -1.7867  -17.6191  -37.3938 N   0  0  0  0  0  0  0  0  0  0  0  0
   -1.0703  -16.8388  -38.3614 C   0  0  0  0  0  0  0  0  0  0  0  0
   -0.5274  -15.5370  -37.8191 C   0  0  0  0  0  0  0  0  0  0  0  0
   -2.7890  -18.5216  -37.8379 C   0  0  0  0  0  0  0  0  0  0  0  0
   -2.4176  -19.7596  -38.1580 C   0  0  0  0  0  0  0  0  0  0  0  0
   -1.1909  -20.4676  -38.1743 N   0  0  0  0  0  0  0  0  0  0  0  0
   -1.5189  -21.7658  -38.6272 N   0  0  0  0  0  0  0  0  0  0  0  0
   -2.9101  -21.8280  -38.8758 C   0  0  0  0  0  0  0  0  0  0  0  0
   -3.4926  -20.6678  -38.6143 C   0  0  0  0  0  0  0  0  0  0  0  0
   -4.8344  -20.1990  -38.6907 N   0  0  0  0  0  0  0  0  0  0  0  0
   -5.1409  -18.9912  -38.3686 C   0  0  0  0  0  0  0  0  0  0  0  0
   -4.1603  -18.0822  -37.9274 N   0  0  0  0  0  0  0  0  0  0  0  0
   -3.6746  -23.0066  -39.3638 C   0  0  0  0  0  0  0  0  0  0  0  0
    0.1110  -19.9661  -37.8066 C   0  0  0  0  0  0  0  0  0  0  0  0
   -0.7962  -22.5075  -38.7366 H   0  0  0  0  0  0  0  0  0  0  0  0
   -4.3575  -17.1030  -37.6582 H   0  0  0  0  0  0  0  0  0  0  0  0
    1.4446  -15.1573  -36.4908 C   0  0  0  0  0  0  0  0  0  0  0  0
    1.5173  -13.6955  -36.4567 C   0  0  0  0  0  0  0  0  0  0  0  0
    0.8399  -13.0694  -35.6014 O   0  0  0  0  0  0  0  0  0  0  0  0
    3.3131  -13.3560  -41.4746 Br  0  0  0  0  0  0  0  0  0  0  0  0
    3.2356  -12.7840  -39.6616 C   0  0  0  0  0  0  0  0  0  0  0  0
    2.4314  -13.4169  -38.7224 C   0  0  0  0  0  0  0  0  0  0  0  0
    2.3733  -13.0060  -37.4165 C   0  0  0  0  0  0  0  0  0  0  0  0
    3.1361  -11.9317  -37.0209 C   0  0  0  0  0  0  0  0  0  0  0  0
    3.9325  -11.3024  -37.9438 C   0  0  0  0  0  0  0  0  0  0  0  0
    4.0018  -11.7079  -39.2704 C   0  0  0  0  0  0  0  0  0  0  0  0
 23 24  1  0  0  0
 24 25  2  0  0  0
 24 29  1  0  0  0
 25 26  1  0  0  0
 26 27  2  0  0  0
 26 21  1  0  0  0
 27 28  1  0  0  0
 28 29  2  0  0  0
 21 22  2  0  0  0
 21 20  1  0  0  0
 20  1  1  0  0  0
  1  2  1  0  0  0
  1  6  1  0  0  0
  2  3  1  0  0  0
  3  4  1  0  0  0
  4  5  1  0  0  0
  4  7  1  0  0  0
  5  6  1  0  0  0
  7  8  2  0  0  0
  7 15  1  0  0  0
  8  9  1  0  0  0
  8 12  1  0  0  0
  9 10  1  0  0  0
  9 17  1  0  0  0
 10 11  1  0  0  0
 11 12  2  0  0  0
 11 16  1  0  0  0
 12 13  1  0  0  0
 13 14  2  0  0  0
 14 15  1  0  0  0
 10 18  1  0  0  0
 15 19  1  0  0  0
M  END
> <minimizedAffinity>
-6.01531

$$$$
129


 31 34  0  0  0  0  0  0  0  0999 V2000
    0.6260  -18.0696  -37.4911 C   0  0  0  0  0  0  0  0  0  0  0  0
   -0.5345  -18.5493  -37.2965 O   0  0  0  0  0  0  0  0  0  0  0  0
    1.4647  -18.5980  -38.5142 N   0  0  0  0  0  0  0  0  0  0  0  0
    2.8425  -18.2057  -38.6682 C   0  0  0  0  0  0  0  0  0  0  0  0
    3.6098  -19.5104  -38.3459 C   0  0  0  0  0  0  0  0  0  0  0  0
    3.3968  -20.3846  -39.5524 C   0  0  0  0  0  0  0  0  0  0  0  0
    3.7757  -21.7390  -39.1532 N   0  0  0  0  0  0  0  0  0  0  0  0
    5.1021  -21.8304  -38.6688 C   0  0  0  0  0  0  0  0  0  0  0  0
    6.1454  -21.4926  -39.7182 C   0  0  0  0  0  0  0  0  0  0  0  0
    5.6697  -20.4526  -40.6495 C   0  0  0  0  0  0  0  0  0  0  0  0
    6.3229  -19.8518  -41.6582 N   0  0  0  0  0  0  0  0  0  0  0  0
    5.4662  -18.9745  -42.2259 C   0  0  0  0  0  0  0  0  0  0  0  0
    4.2876  -19.0432  -41.5564 N   0  0  0  0  0  0  0  0  0  0  0  0
    4.3844  -19.9527  -40.5673 C   0  0  0  0  0  0  0  0  0  0  0  0
    2.0030  -20.4281  -40.0716 C   0  0  0  0  0  0  0  0  0  0  0  0
    0.9720  -19.5629  -39.4306 C   0  0  0  0  0  0  0  0  0  0  0  0
    3.5643  -22.4457  -39.9032 H   0  0  0  0  0  0  0  0  0  0  0  0
    3.5008  -18.4345  -41.8587 H   0  0  0  0  0  0  0  0  0  0  0  0
    1.0402  -16.9845  -36.6135 C   0  0  0  0  0  0  0  0  0  0  0  0
   -0.1205  -16.5741  -35.7214 C   0  0  0  0  0  0  0  0  0  0  0  0
    1.0887  -15.0452  -38.1798 C   0  0  0  0  0  0  0  0  0  0  0  0
   -0.0671  -14.9729  -38.5595 O   0  0  0  0  0  0  0  0  0  0  0  0
    1.6918  -15.9140  -37.2753 N   0  0  0  0  0  0  0  0  0  0  0  0
    2.7081  -15.7562  -37.0012 H   0  0  0  0  0  0  0  0  0  0  0  0
    4.0043  -10.6768  -37.3375 Br  0  0  0  0  0  0  0  0  0  0  0  0
    3.3502  -12.0833  -38.4801 C   0  0  0  0  0  0  0  0  0  0  0  0
    2.5056  -13.0380  -37.9653 C   0  0  0  0  0  0  0  0  0  0  0  0
    2.0489  -14.0477  -38.7846 C   0  0  0  0  0  0  0  0  0  0  0  0
    2.4219  -14.1038  -40.0892 C   0  0  0  0  0  0  0  0  0  0  0  0
    3.2606  -13.1428  -40.5832 C   0  0  0  0  0  0  0  0  0  0  0  0
    3.7564  -12.0995  -39.7984 C   0  0  0  0  0  0  0  0  0  0  0  0
 25 26  1  0  0  0
 26 27  2  0  0  0
 26 31  1  0  0  0
 27 28  1  0  0  0
 28 29  2  0  0  0
 28 21  1  0  0  0
 29 30  1  0  0  0
 30 31  2  0  0  0
 21 22  2  0  0  0
 21 23  1  0  0  0
 23 19  1  0  0  0
 19 20  1  0  0  0
 19  1  1  0  0  0
  1  2  2  0  0  0
  1  3  1  0  0  0
  3  4  1  0  0  0
  3 16  1  0  0  0
  4  5  1  0  0  0
  5  6  1  0  0  0
  6  7  1  0  0  0
  6 14  1  0  0  0
  6 15  1  0  0  0
  7  8  1  0  0  0
  8  9  1  0  0  0
  9 10  1  0  0  0
 10 11  1  0  0  0
 10 14  2  0  0  0
 11 12  2  0  0  0
 12 13  1  0  0  0
 13 14  1  0  0  0
 15 16  1  0  0  0
 23 24  1  0  0  0
  7 17  1  0  0  0
 13 18  1  0  0  0
M  END
> <minimizedAffinity>
-7.24557

$$$$
130


 30 33  0  0  0  0  0  0  0  0999 V2000
    1.9309  -17.9052  -37.5111 C   0  0  0  0  0  0  0  0  0  0  0  0
    2.7201  -17.4095  -36.6316 O   0  0  0  0  0  0  0  0  0  0  0  0
    2.0472  -19.2378  -37.9285 N   0  0  0  0  0  0  0  0  0  0  0  0
    1.1890  -19.8226  -38.9086 C   0  0  0  0  0  0  0  0  0  0  0  0
    1.9017  -20.8086  -39.7903 C   0  0  0  0  0  0  0  0  0  0  0  0
    3.4035  -20.6361  -39.8522 C   0  0  0  0  0  0  0  0  0  0  0  0
    3.8653  -21.8545  -40.5033 N   0  0  0  0  0  0  0  0  0  0  0  0
    5.2251  -21.8793  -40.8857 C   0  0  0  0  0  0  0  0  0  0  0  0
    5.9464  -20.5848  -40.9763 C   0  0  0  0  0  0  0  0  0  0  0  0
    5.0172  -19.4535  -41.2846 C   0  0  0  0  0  0  0  0  0  0  0  0
    5.1655  -18.3591  -42.0299 N   0  0  0  0  0  0  0  0  0  0  0  0
    3.9941  -17.6945  -41.9445 C   0  0  0  0  0  0  0  0  0  0  0  0
    3.1299  -18.3684  -41.1544 N   0  0  0  0  0  0  0  0  0  0  0  0
    3.7665  -19.4953  -40.7226 C   0  0  0  0  0  0  0  0  0  0  0  0
    4.0567  -20.4815  -38.5029 C   0  0  0  0  0  0  0  0  0  0  0  0
    3.0816  -20.1185  -37.3979 C   0  0  0  0  0  0  0  0  0  0  0  0
    3.6411  -22.6169  -39.8011 H   0  0  0  0  0  0  0  0  0  0  0  0
    2.1658  -18.0736  -40.9255 H   0  0  0  0  0  0  0  0  0  0  0  0
    0.8971  -16.9424  -38.0366 C   0  0  0  0  0  0  0  0  0  0  0  0
    1.2769  -14.4443  -37.0603 C   0  0  0  0  0  0  0  0  0  0  0  0
    0.7937  -13.9203  -35.9955 O   0  0  0  0  0  0  0  0  0  0  0  0
    1.0913  -15.6641  -37.5373 N   0  0  0  0  0  0  0  0  0  0  0  0
    0.2566  -15.9667  -36.4762 H   0  0  0  0  0  0  0  0  0  0  0  0
    3.6575  -13.1935  -41.6719 Br  0  0  0  0  0  0  0  0  0  0  0  0
    3.2959  -12.8657  -39.8492 C   0  0  0  0  0  0  0  0  0  0  0  0
    2.4507  -13.7188  -39.1561 C   0  0  0  0  0  0  0  0  0  0  0  0
    2.1644  -13.5056  -37.8338 C   0  0  0  0  0  0  0  0  0  0  0  0
    2.6867  -12.4586  -37.1354 C   0  0  0  0  0  0  0  0  0  0  0  0
    3.5409  -11.5939  -37.8268 C   0  0  0  0  0  0  0  0  0  0  0  0
    3.8330  -11.8059  -39.1611 C   0  0  0  0  0  0  0  0  0  0  0  0
 24 25  1  0  0  0
 25 26  2  0  0  0
 25 30  1  0  0  0
 26 27  1  0  0  0
 27 28  2  0  0  0
 27 20  1  0  0  0
 28 29  1  0  0  0
 29 30  2  0  0  0
 20 21  2  0  0  0
 20 22  1  0  0  0
 22 19  1  0  0  0
 19  1  1  0  0  0
  1  2  2  0  0  0
  1  3  1  0  0  0
  3  4  1  0  0  0
  3 16  1  0  0  0
  4  5  1  0  0  0
  5  6  1  0  0  0
  6  7  1  0  0  0
  6 14  1  0  0  0
  6 15  1  0  0  0
  7  8  1  0  0  0
  8  9  1  0  0  0
  9 10  1  0  0  0
 10 11  1  0  0  0
 10 14  2  0  0  0
 11 12  2  0  0  0
 12 13  1  0  0  0
 13 14  1  0  0  0
 15 16  1  0  0  0
 22 23  1  0  0  0
  7 17  1  0  0  0
 13 18  1  0  0  0
M  END
> <minimizedAffinity>
-7.07538

$$$$
131


 30 33  0  0  0  0  0  0  0  0999 V2000
   -0.2363  -16.5413  -37.3164 C   0  0  0  0  0  0  0  0  0  0  0  0
   -1.3505  -16.4582  -37.8893 O   0  0  0  0  0  0  0  0  0  0  0  0
    0.4728  -17.7515  -37.3648 N   0  0  0  0  0  0  0  0  0  0  0  0
    1.7566  -17.9231  -36.7314 C   0  0  0  0  0  0  0  0  0  0  0  0
    2.7599  -18.1779  -37.8353 C   0  0  0  0  0  0  0  0  0  0  0  0
    2.2566  -19.2808  -38.7357 C   0  0  0  0  0  0  0  0  0  0  0  0
    2.0627  -18.7250  -40.0581 N   0  0  0  0  0  0  0  0  0  0  0  0
    1.7081  -19.6696  -41.0589 C   0  0  0  0  0  0  0  0  0  0  0  0
    2.3820  -20.9917  -41.0115 C   0  0  0  0  0  0  0  0  0  0  0  0
    3.4233  -21.1169  -39.9702 C   0  0  0  0  0  0  0  0  0  0  0  0
    4.5142  -21.9339  -39.8484 N   0  0  0  0  0  0  0  0  0  0  0  0
    5.1065  -21.6122  -38.6920 C   0  0  0  0  0  0  0  0  0  0  0  0
    4.4149  -20.6241  -38.1013 N   0  0  0  0  0  0  0  0  0  0  0  0
    3.3516  -20.2875  -38.8738 C   0  0  0  0  0  0  0  0  0  0  0  0
    1.0090  -19.9496  -38.2556 C   0  0  0  0  0  0  0  0  0  0  0  0
   -0.0753  -18.8844  -38.0651 C   0  0  0  0  0  0  0  0  0  0  0  0
    1.2958  -18.0042  -40.0029 H   0  0  0  0  0  0  0  0  0  0  0  0
    4.7940  -22.6680  -40.5627 H   0  0  0  0  0  0  0  0  0  0  0  0
    0.2545  -15.3243  -36.6172 C   0  0  0  0  0  0  0  0  0  0  0  0
    1.7509  -13.3586  -37.0110 C   0  0  0  0  0  0  0  0  0  0  0  0
    1.3240  -12.8717  -35.9328 O   0  0  0  0  0  0  0  0  0  0  0  0
    1.2361  -14.6135  -37.4082 N   0  0  0  0  0  0  0  0  0  0  0  0
    1.5735  -15.0359  -38.2955 H   0  0  0  0  0  0  0  0  0  0  0  0
    4.1329  -12.4840  -41.6947 Br  0  0  0  0  0  0  0  0  0  0  0  0
    3.9012  -12.1239  -39.8499 C   0  0  0  0  0  0  0  0  0  0  0  0
    2.9561  -12.8385  -39.1361 C   0  0  0  0  0  0  0  0  0  0  0  0
    2.7379  -12.6230  -37.7883 C   0  0  0  0  0  0  0  0  0  0  0  0
    3.5044  -11.6556  -37.1544 C   0  0  0  0  0  0  0  0  0  0  0  0
    4.4418  -10.9489  -37.8699 C   0  0  0  0  0  0  0  0  0  0  0  0
    4.6720  -11.1503  -39.2127 C   0  0  0  0  0  0  0  0  0  0  0  0
 24 25  1  0  0  0
 25 26  2  0  0  0
 25 30  1  0  0  0
 26 27  1  0  0  0
 27 28  2  0  0  0
 27 20  1  0  0  0
 28 29  1  0  0  0
 29 30  2  0  0  0
 20 21  2  0  0  0
 20 22  1  0  0  0
 22 19  1  0  0  0
 19  1  1  0  0  0
  1  2  2  0  0  0
  1  3  1  0  0  0
  3  4  1  0  0  0
  3 16  1  0  0  0
  4  5  1  0  0  0
  5  6  1  0  0  0
  6  7  1  0  0  0
  6 14  1  0  0  0
  6 15  1  0  0  0
  7  8  1  0  0  0
  8  9  1  0  0  0
  9 10  1  0  0  0
 10 11  1  0  0  0
 10 14  2  0  0  0
 11 12  1  0  0  0
 12 13  2  0  0  0
 13 14  1  0  0  0
 15 16  1  0  0  0
 22 23  1  0  0  0
  7 17  1  0  0  0
 11 18  1  0  0  0
M  END
> <minimizedAffinity>
-7.51934

$$$$
136


 30 33  0  0  0  0  0  0  0  0999 V2000
    3.2323  -20.9890  -39.6697 C   0  0  0  0  0  0  0  0  0  0  0  0
    3.0961  -19.5732  -40.1960 C   0  0  0  0  0  0  0  0  0  0  0  0
    2.6813  -18.8302  -39.0221 N   0  0  0  0  0  0  0  0  0  0  0  0
    2.7660  -19.6511  -37.8313 C   0  0  0  0  0  0  0  0  0  0  0  0
    3.7422  -20.7481  -38.2771 C   0  0  0  0  0  0  0  0  0  0  0  0
    3.3183  -18.8424  -36.7458 C   0  0  0  0  0  0  0  0  0  0  0  0
    4.3017  -19.2192  -36.0917 O   0  0  0  0  0  0  0  0  0  0  0  0
    2.6916  -17.6027  -36.4578 N   0  0  0  0  0  0  0  0  0  0  0  0
    1.9802  -16.9048  -37.5049 C   0  0  0  0  0  0  0  0  0  0  0  0
    2.2211  -17.4825  -38.8463 C   0  0  0  0  0  0  0  0  0  0  0  0
    2.0207  -16.7811  -39.8725 O   0  0  0  0  0  0  0  0  0  0  0  0
    2.7226  -17.1639  -35.5100 H   0  0  0  0  0  0  0  0  0  0  0  0
    3.6033  -22.5377  -41.5261 C   0  0  0  0  0  0  0  0  0  0  0  0
    2.3333  -22.5198  -41.7262 O   0  0  0  0  0  0  0  0  0  0  0  0
    4.1508  -21.7707  -40.4779 N   0  0  0  0  0  0  0  0  0  0  0  0
    5.1659  -21.7849  -40.3092 H   0  0  0  0  0  0  0  0  0  0  0  0
    8.2510  -23.1366  -44.0357 Br  0  0  0  0  0  0  0  0  0  0  0  0
    6.4892  -23.7149  -43.5634 C   0  0  0  0  0  0  0  0  0  0  0  0
    5.7082  -22.9451  -42.7466 C   0  0  0  0  0  0  0  0  0  0  0  0
    4.4275  -23.3569  -42.3986 C   0  0  0  0  0  0  0  0  0  0  0  0
    3.9803  -24.5427  -42.8914 C   0  0  0  0  0  0  0  0  0  0  0  0
    4.7800  -25.3160  -43.7183 C   0  0  0  0  0  0  0  0  0  0  0  0
    6.0447  -24.9061  -44.0617 C   0  0  0  0  0  0  0  0  0  0  0  0
    0.5035  -16.7583  -37.2056 C   0  0  0  0  0  0  0  0  0  0  0  0
    0.1240  -15.3928  -36.8071 C   0  0  0  0  0  0  0  0  0  0  0  0
    1.0923  -14.5135  -36.3573 C   0  0  0  0  0  0  0  0  0  0  0  0
    0.7458  -13.2357  -35.9830 C   0  0  0  0  0  0  0  0  0  0  0  0
   -0.5547  -12.7707  -36.0333 C   0  0  0  0  0  0  0  0  0  0  0  0
   -1.5222  -13.6447  -36.4810 C   0  0  0  0  0  0  0  0  0  0  0  0
   -1.1927  -14.9313  -36.8611 C   0  0  0  0  0  0  0  0  0  0  0  0
 17 18  1  0  0  0
 18 19  2  0  0  0
 18 23  1  0  0  0
 19 20  1  0  0  0
 20 21  2  0  0  0
 20 13  1  0  0  0
 21 22  1  0  0  0
 22 23  2  0  0  0
 13 14  2  0  0  0
 13 15  1  0  0  0
 15  1  1  0  0  0
  1  2  1  0  0  0
  1  5  1  0  0  0
  2  3  1  0  0  0
  3  4  1  0  0  0
  3 10  1  0  0  0
  4  5  1  0  0  0
  4  6  1  0  0  0
  6  7  2  0  0  0
  6  8  1  0  0  0
  8  9  1  0  0  0
  9 10  1  0  0  0
  9 24  1  0  0  0
 10 11  2  0  0  0
 24 25  1  0  0  0
 25 26  2  0  0  0
 25 30  1  0  0  0
 26 27  1  0  0  0
 27 28  2  0  0  0
 28 29  1  0  0  0
 29 30  2  0  0  0
 15 16  1  0  0  0
  8 12  1  0  0  0
M  END
> <minimizedAffinity>
-6.80265

$$$$
137


 25 28  0  0  0  0  0  0  0  0999 V2000
    1.8747  -18.4166  -38.2790 C   0  0  0  0  0  0  0  0  0  0  0  0
    3.1977  -19.0801  -37.7454 C   0  0  0  0  0  0  0  0  0  0  0  0
    3.7334  -19.7268  -38.8946 N   0  0  0  0  0  0  0  0  0  0  0  0
    3.1647  -19.1231  -40.0909 C   0  0  0  0  0  0  0  0  0  0  0  0
    2.4967  -17.8997  -39.6125 C   0  0  0  0  0  0  0  0  0  0  0  0
    4.2002  -18.9698  -41.1252 C   0  0  0  0  0  0  0  0  0  0  0  0
    4.2212  -17.9395  -41.8212 O   0  0  0  0  0  0  0  0  0  0  0  0
    5.1627  -19.9843  -41.3276 N   0  0  0  0  0  0  0  0  0  0  0  0
    5.6069  -20.7825  -40.2066 C   0  0  0  0  0  0  0  0  0  0  0  0
    5.9072  -22.1539  -40.7770 C   0  0  0  0  0  0  0  0  0  0  0  0
    5.7168  -22.0095  -42.2462 C   0  0  0  0  0  0  0  0  0  0  0  0
    5.8996  -20.5016  -42.4761 C   0  0  0  0  0  0  0  0  0  0  0  0
    4.6642  -20.7848  -39.0930 C   0  0  0  0  0  0  0  0  0  0  0  0
    4.6603  -21.7587  -38.2614 O   0  0  0  0  0  0  0  0  0  0  0  0
    0.8416  -16.5854  -36.5836 C   0  0  0  0  0  0  0  0  0  0  0  0
    0.1139  -16.7483  -35.5559 O   0  0  0  0  0  0  0  0  0  0  0  0
    1.3687  -17.5139  -37.4466 N   0  0  0  0  0  0  0  0  0  0  0  0
    0.7722  -18.5105  -36.7062 H   0  0  0  0  0  0  0  0  0  0  0  0
    3.1043  -12.7961  -39.6691 Br  0  0  0  0  0  0  0  0  0  0  0  0
    2.1202  -13.3762  -38.1501 C   0  0  0  0  0  0  0  0  0  0  0  0
    1.8515  -14.7007  -37.9067 C   0  0  0  0  0  0  0  0  0  0  0  0
    1.1222  -15.1175  -36.8199 C   0  0  0  0  0  0  0  0  0  0  0  0
    0.6418  -14.1813  -35.9405 C   0  0  0  0  0  0  0  0  0  0  0  0
    0.8902  -12.8303  -36.1490 C   0  0  0  0  0  0  0  0  0  0  0  0
    1.6200  -12.4494  -37.2399 C   0  0  0  0  0  0  0  0  0  0  0  0
 19 20  1  0  0  0
 20 21  2  0  0  0
 20 25  1  0  0  0
 21 22  1  0  0  0
 22 23  2  0  0  0
 22 15  1  0  0  0
 23 24  1  0  0  0
 24 25  2  0  0  0
 15 16  2  0  0  0
 15 17  1  0  0  0
 17  1  1  0  0  0
  1  2  1  0  0  0
  1  5  1  0  0  0
  2  3  1  0  0  0
  3  4  1  0  0  0
  3 13  1  0  0  0
  4  5  1  0  0  0
  4  6  1  0  0  0
  6  7  2  0  0  0
  6  8  1  0  0  0
  8  9  1  0  0  0
  8 12  1  0  0  0
  9 10  1  0  0  0
  9 13  1  0  0  0
 10 11  1  0  0  0
 11 12  1  0  0  0
 13 14  2  0  0  0
 17 18  1  0  0  0
M  END
> <minimizedAffinity>
-6.67835

$$$$
138


 25 28  0  0  0  0  0  0  0  0999 V2000
    3.5326  -19.6091  -39.4582 C   0  0  0  0  0  0  0  0  0  0  0  0
    4.4770  -19.1834  -40.5325 C   0  0  0  0  0  0  0  0  0  0  0  0
    5.0157  -20.4645  -41.0215 N   0  0  0  0  0  0  0  0  0  0  0  0
    4.1998  -21.5541  -40.5060 C   0  0  0  0  0  0  0  0  0  0  0  0
    2.9317  -20.8737  -40.0901 C   0  0  0  0  0  0  0  0  0  0  0  0
    4.0352  -22.5370  -41.5733 C   0  0  0  0  0  0  0  0  0  0  0  0
    2.9775  -23.1638  -41.7076 O   0  0  0  0  0  0  0  0  0  0  0  0
    5.1165  -22.7819  -42.4836 N   0  0  0  0  0  0  0  0  0  0  0  0
    6.3935  -22.2184  -42.1188 C   0  0  0  0  0  0  0  0  0  0  0  0
    7.3844  -22.4582  -43.1822 C   0  0  0  0  0  0  0  0  0  0  0  0
    6.7338  -23.5647  -43.9888 C   0  0  0  0  0  0  0  0  0  0  0  0
    5.2690  -23.4761  -43.7250 C   0  0  0  0  0  0  0  0  0  0  0  0
    6.1290  -20.7607  -41.8595 C   0  0  0  0  0  0  0  0  0  0  0  0
    6.8472  -19.8624  -42.3527 O   0  0  0  0  0  0  0  0  0  0  0  0
    2.4268  -18.2239  -37.7626 C   0  0  0  0  0  0  0  0  0  0  0  0
    3.2139  -18.7053  -36.8744 O   0  0  0  0  0  0  0  0  0  0  0  0
    2.5492  -18.6549  -39.1016 N   0  0  0  0  0  0  0  0  0  0  0  0
    1.9112  -18.2630  -39.8176 H   0  0  0  0  0  0  0  0  0  0  0  0
    1.3418  -13.1910  -36.2999 Br  0  0  0  0  0  0  0  0  0  0  0  0
    0.8717  -15.0085  -36.5987 C   0  0  0  0  0  0  0  0  0  0  0  0
    1.7731  -15.9355  -37.0553 C   0  0  0  0  0  0  0  0  0  0  0  0
    1.4607  -17.2528  -37.2792 C   0  0  0  0  0  0  0  0  0  0  0  0
    0.1661  -17.6364  -37.0237 C   0  0  0  0  0  0  0  0  0  0  0  0
   -0.7877  -16.7199  -36.5559 C   0  0  0  0  0  0  0  0  0  0  0  0
   -0.4248  -15.3995  -36.3439 C   0  0  0  0  0  0  0  0  0  0  0  0
 19 20  1  0  0  0
 20 21  2  0  0  0
 20 25  1  0  0  0
 21 22  1  0  0  0
 22 23  2  0  0  0
 22 15  1  0  0  0
 23 24  1  0  0  0
 24 25  2  0  0  0
 15 16  2  0  0  0
 15 17  1  0  0  0
 17  1  1  0  0  0
  1  2  1  0  0  0
  1  5  1  0  0  0
  2  3  1  0  0  0
  3  4  1  0  0  0
  3 13  1  0  0  0
  4  5  1  0  0  0
  4  6  1  0  0  0
  6  7  2  0  0  0
  6  8  1  0  0  0
  8  9  1  0  0  0
  8 12  1  0  0  0
  9 10  1  0  0  0
  9 13  1  0  0  0
 10 11  1  0  0  0
 11 12  1  0  0  0
 13 14  2  0  0  0
 17 18  1  0  0  0
M  END
> <minimizedAffinity>
-6.16955

$$$$
141


 23 26  0  0  0  0  0  0  0  0999 V2000
    2.6745  -18.2190  -37.8011 N   0  0  0  0  0  0  0  0  0  0  0  0
    3.4814  -18.9894  -36.8897 C   0  0  0  0  0  0  0  0  0  0  0  0
    3.8546  -18.6723  -35.7161 O   0  0  0  0  0  0  0  0  0  0  0  0
    3.8259  -20.2430  -37.5327 C   0  0  0  0  0  0  0  0  0  0  0  0
    2.8176  -20.4287  -38.6838 C   0  0  0  0  0  0  0  0  0  0  0  0
    3.6009  -20.9916  -39.8247 C   0  0  0  0  0  0  0  0  0  0  0  0
    4.8583  -21.5296  -39.1130 C   0  0  0  0  0  0  0  0  0  0  0  0
    5.1018  -20.2031  -38.3615 C   0  0  0  0  0  0  0  0  0  0  0  0
    4.9564  -19.2576  -39.5052 C   0  0  0  0  0  0  0  0  0  0  0  0
    4.2705  -19.8247  -40.5066 C   0  0  0  0  0  0  0  0  0  0  0  0
    2.5275  -18.9697  -38.9746 C   0  0  0  0  0  0  0  0  0  0  0  0
    2.2091  -18.5326  -40.1032 O   0  0  0  0  0  0  0  0  0  0  0  0
    0.8703  -16.6496  -37.0618 C   0  0  0  0  0  0  0  0  0  0  0  0
    0.0008  -17.5370  -37.0124 O   0  0  0  0  0  0  0  0  0  0  0  0
    2.1904  -16.9454  -37.4429 N   0  0  0  0  0  0  0  0  0  0  0  0
    2.8580  -16.1102  -37.4534 H   0  0  0  0  0  0  0  0  0  0  0  0
   -3.1585  -13.2901  -36.6022 Br  0  0  0  0  0  0  0  0  0  0  0  0
   -1.3028  -13.6929  -36.4674 C   0  0  0  0  0  0  0  0  0  0  0  0
   -0.8779  -14.9573  -36.7921 C   0  0  0  0  0  0  0  0  0  0  0  0
    0.4695  -15.3007  -36.7139 C   0  0  0  0  0  0  0  0  0  0  0  0
    1.3523  -14.3494  -36.3064 C   0  0  0  0  0  0  0  0  0  0  0  0
    0.9202  -13.0825  -35.9819 C   0  0  0  0  0  0  0  0  0  0  0  0
   -0.4027  -12.7195  -36.0506 C   0  0  0  0  0  0  0  0  0  0  0  0
 17 18  1  0  0  0
 18 19  2  0  0  0
 18 23  1  0  0  0
 19 20  1  0  0  0
 20 21  2  0  0  0
 20 13  1  0  0  0
 21 22  1  0  0  0
 22 23  2  0  0  0
 13 14  2  0  0  0
 13 15  1  0  0  0
 15  1  1  0  0  0
  1  2  1  0  0  0
  1 11  1  0  0  0
  2  3  2  0  0  0
  2  4  1  0  0  0
  4  5  1  0  0  0
  4  8  1  0  0  0
  5  6  1  0  0  0
  5 11  1  0  0  0
  6  7  1  0  0  0
  6 10  1  0  0  0
  7  8  1  0  0  0
  8  9  1  0  0  0
  9 10  2  0  0  0
 11 12  2  0  0  0
 15 16  1  0  0  0
M  END
> <minimizedAffinity>
-6.95610

$$$$
152


 27 30  0  0  0  0  0  0  0  0999 V2000
    1.9913  -16.9430  -36.1885 C   0  0  0  0  0  0  0  0  0  0  0  0
    2.3806  -17.9677  -36.9555 C   0  0  0  0  0  0  0  0  0  0  0  0
    1.8264  -18.3474  -38.1063 O   0  0  0  0  0  0  0  0  0  0  0  0
    2.5349  -19.4529  -38.6416 C   0  0  0  0  0  0  0  0  0  0  0  0
    3.5666  -19.8019  -37.8372 C   0  0  0  0  0  0  0  0  0  0  0  0
    4.4100  -20.8261  -38.2608 C   0  0  0  0  0  0  0  0  0  0  0  0
    4.1814  -21.4671  -39.4380 C   0  0  0  0  0  0  0  0  0  0  0  0
    3.1022  -21.1087  -40.2209 C   0  0  0  0  0  0  0  0  0  0  0  0
    2.2331  -20.1038  -39.8696 C   0  0  0  0  0  0  0  0  0  0  0  0
    2.9023  -21.8035  -41.4161 O   0  0  0  0  0  0  0  0  0  0  0  0
    3.5155  -18.8624  -36.6921 C   0  0  0  0  0  0  0  0  0  0  0  0
    4.2775  -18.8433  -35.7080 O   0  0  0  0  0  0  0  0  0  0  0  0
    0.2559  -11.9588  -36.7277 Br  0  0  0  0  0  0  0  0  0  0  0  0
   -0.0940  -13.8344  -36.6841 C   0  0  0  0  0  0  0  0  0  0  0  0
    1.0051  -14.7032  -36.6581 C   0  0  0  0  0  0  0  0  0  0  0  0
    0.8418  -16.0958  -36.6068 C   0  0  0  0  0  0  0  0  0  0  0  0
   -0.4387  -16.5697  -36.5935 C   0  0  0  0  0  0  0  0  0  0  0  0
   -1.5631  -15.7166  -36.6184 C   0  0  0  0  0  0  0  0  0  0  0  0
   -1.3526  -14.3134  -36.6658 C   0  0  0  0  0  0  0  0  0  0  0  0
    0.8607  -19.9185  -40.2955 C   0  0  0  0  0  0  0  0  0  0  0  0
   -0.4062  -20.2254  -39.9538 N   0  0  0  0  0  0  0  0  0  0  0  0
   -0.8317  -20.9522  -38.8392 C   0  0  0  0  0  0  0  0  0  0  0  0
   -1.2450  -20.0730  -37.6384 C   0  0  0  0  0  0  0  0  0  0  0  0
   -2.3602  -19.3071  -37.8808 O   0  0  0  0  0  0  0  0  0  0  0  0
   -2.3188  -18.8219  -39.1929 C   0  0  0  0  0  0  0  0  0  0  0  0
   -0.9943  -18.7997  -39.7506 C   0  0  0  0  0  0  0  0  0  0  0  0
   -0.9433  -20.5777  -40.8331 H   0  0  0  0  0  0  0  0  0  0  0  0
 13 14  1  0  0  0
 14 15  2  0  0  0
 14 19  1  0  0  0
 15 16  1  0  0  0
 16 17  2  0  0  0
 16  1  1  0  0  0
 17 18  1  0  0  0
 18 19  2  0  0  0
  1  2  2  0  0  0
  2  3  1  0  0  0
  2 11  1  0  0  0
  3  4  1  0  0  0
  4  5  2  0  0  0
  4  9  1  0  0  0
  5  6  1  0  0  0
  5 11  1  0  0  0
  6  7  2  0  0  0
  7  8  1  0  0  0
  8  9  2  0  0  0
  8 10  1  0  0  0
  9 20  1  0  0  0
 20 21  1  0  0  0
 21 22  1  0  0  0
 21 26  1  0  0  0
 22 23  1  0  0  0
 23 24  1  0  0  0
 24 25  1  0  0  0
 25 26  1  0  0  0
 11 12  2  0  0  0
 21 27  1  0  0  0
M  CHG 1  10  -1
M  CHG 1  21   1
M  END
> <minimizedAffinity>
-6.61714

$$$$
153


 34 37  0  0  0  0  0  0  0  0999 V2000
   -0.4572  -15.1621  -36.6288 C   0  0  0  0  0  0  0  0  0  0  0  0
   -1.7335  -15.1354  -36.8080 N   0  0  0  0  0  0  0  0  0  0  0  0
   -2.1680  -13.8792  -36.7937 N   0  0  0  0  0  0  0  0  0  0  0  0
   -1.1078  -13.0554  -36.5836 N   0  0  0  0  0  0  0  0  0  0  0  0
   -0.0404  -13.7789  -36.5046 C   0  0  0  0  0  0  0  0  0  0  0  0
   -1.4042  -11.7277  -36.0665 C   0  0  0  0  0  0  0  0  0  0  0  0
   -0.8966  -11.5034  -34.7341 N   0  0  0  0  0  0  0  0  0  0  0  0
   -1.1806  -10.3565  -34.3334 O   0  0  0  0  0  0  0  0  0  0  0  0
   -1.8524   -9.7376  -35.2553 N   0  0  0  0  0  0  0  0  0  0  0  0
   -1.9823  -10.6091  -36.3361 C   0  0  0  0  0  0  0  0  0  0  0  0
   -2.6723  -10.1811  -37.4883 N   0  0  0  0  0  0  0  0  0  0  0  0
   -2.2651   -9.2703  -37.9019 H   0  0  0  0  0  0  0  0  0  0  0  0
   -3.4563  -10.5584  -37.9842 H   0  0  0  0  0  0  0  0  0  0  0  0
    1.1342  -16.7981  -37.4808 N   0  0  0  0  0  0  0  0  0  0  0  0
    0.5015  -16.3158  -36.3717 C   0  0  0  0  0  0  0  0  0  0  0  0
    0.6246  -16.6910  -35.1852 O   0  0  0  0  0  0  0  0  0  0  0  0
    0.7927  -16.0120  -38.3540 H   0  0  0  0  0  0  0  0  0  0  0  0
    2.5890  -18.6381  -37.6761 C   0  0  0  0  0  0  0  0  0  0  0  0
    1.9469  -17.5997  -38.1329 N   0  0  0  0  0  0  0  0  0  0  0  0
    5.8271  -19.3246  -41.9863 Br  0  0  0  0  0  0  0  0  0  0  0  0
    4.9911  -19.8474  -40.3416 C   0  0  0  0  0  0  0  0  0  0  0  0
    4.0417  -19.0408  -39.7156 C   0  0  0  0  0  0  0  0  0  0  0  0
    3.4942  -19.4478  -38.5144 C   0  0  0  0  0  0  0  0  0  0  0  0
    3.9123  -20.6557  -37.9855 C   0  0  0  0  0  0  0  0  0  0  0  0
    4.8419  -21.4148  -38.6343 C   0  0  0  0  0  0  0  0  0  0  0  0
    5.4296  -21.0594  -39.8200 C   0  0  0  0  0  0  0  0  0  0  0  0
    1.3887  -13.5237  -36.3560 C   0  0  0  0  0  0  0  0  0  0  0  0
    2.2445  -13.3033  -37.4305 N   0  0  0  0  0  0  0  0  0  0  0  0
    2.2601  -13.6176  -38.7356 C   0  0  0  0  0  0  0  0  0  0  0  0
    2.0068  -12.3228  -39.5550 C   0  0  0  0  0  0  0  0  0  0  0  0
    1.2937  -11.4265  -38.7169 N   0  0  0  0  0  0  0  0  0  0  0  0
    2.1329  -10.9201  -37.6732 C   0  0  0  0  0  0  0  0  0  0  0  0
    3.0490  -12.0632  -37.2179 C   0  0  0  0  0  0  0  0  0  0  0  0
    0.3768  -10.5283  -39.2799 C   0  0  0  0  0  0  0  0  0  0  0  0
 20 21  1  0  0  0
 21 22  2  0  0  0
 21 26  1  0  0  0
 22 23  1  0  0  0
 23 24  2  0  0  0
 23 18  1  0  0  0
 24 25  1  0  0  0
 25 26  2  0  0  0
 18 19  2  0  0  0
 19 14  1  0  0  0
 14 15  1  0  0  0
 15 16  2  0  0  0
 15  1  1  0  0  0
  1  2  1  0  0  0
  1  5  2  0  0  0
  2  3  2  0  0  0
  3  4  1  0  0  0
  4  5  1  0  0  0
  4  6  1  0  0  0
  5 27  1  0  0  0
 27 28  1  0  0  0
 28 29  1  0  0  0
 28 33  1  0  0  0
 29 30  1  0  0  0
 30 31  1  0  0  0
 31 32  1  0  0  0
 31 34  1  0  0  0
 32 33  1  0  0  0
  6  7  2  0  0  0
  6 10  1  0  0  0
  7  8  1  0  0  0
  8  9  1  0  0  0
  9 10  2  0  0  0
 10 11  1  0  0  0
 14 17  1  0  0  0
 11 12  1  0  0  0
 11 13  1  0  0  0
M  END
> <minimizedAffinity>
-6.35594

$$$$
156


 29 32  0  0  0  0  0  0  0  0999 V2000
    0.8289  -16.4501  -36.5698 C   0  0  0  0  0  0  0  0  0  0  0  0
   -0.3454  -17.0890  -36.5708 N   0  0  0  0  0  0  0  0  0  0  0  0
   -0.5184  -18.3250  -37.1169 C   0  0  0  0  0  0  0  0  0  0  0  0
    0.5838  -18.8781  -37.6674 N   0  0  0  0  0  0  0  0  0  0  0  0
    1.7902  -18.2868  -37.6976 C   0  0  0  0  0  0  0  0  0  0  0  0
    1.8724  -17.0579  -37.1306 N   0  0  0  0  0  0  0  0  0  0  0  0
    2.9217  -18.8846  -38.2772 N   0  0  0  0  0  0  0  0  0  0  0  0
    3.8452  -19.6767  -37.5101 C   0  0  0  0  0  0  0  0  0  0  0  0
    4.2718  -20.8295  -38.4290 C   0  0  0  0  0  0  0  0  0  0  0  0
    3.2743  -21.0969  -39.3634 O   0  0  0  0  0  0  0  0  0  0  0  0
    3.1077  -20.1128  -40.3046 C   0  0  0  0  0  0  0  0  0  0  0  0
    3.1870  -18.7140  -39.6773 C   0  0  0  0  0  0  0  0  0  0  0  0
   -1.7691  -18.9798  -37.1061 N   0  0  0  0  0  0  0  0  0  0  0  0
   -2.8946  -18.4027  -36.4251 C   0  0  0  0  0  0  0  0  0  0  0  0
   -4.0327  -18.3268  -37.4368 C   0  0  0  0  0  0  0  0  0  0  0  0
   -4.2802  -19.6354  -37.8437 O   0  0  0  0  0  0  0  0  0  0  0  0
   -3.2395  -20.1601  -38.5885 C   0  0  0  0  0  0  0  0  0  0  0  0
   -1.9525  -20.2394  -37.7737 C   0  0  0  0  0  0  0  0  0  0  0  0
    0.9395  -15.1599  -35.9806 N   0  0  0  0  0  0  0  0  0  0  0  0
    0.3112  -14.8817  -35.1985 H   0  0  0  0  0  0  0  0  0  0  0  0
    1.8343  -13.6254  -37.5486 C   0  0  0  0  0  0  0  0  0  0  0  0
    1.8837  -14.2320  -36.4287 N   0  0  0  0  0  0  0  0  0  0  0  0
    4.8004  -11.7118  -41.5728 Br  0  0  0  0  0  0  0  0  0  0  0  0
    4.2252  -11.7230  -39.7460 C   0  0  0  0  0  0  0  0  0  0  0  0
    3.2827  -12.6172  -39.2995 C   0  0  0  0  0  0  0  0  0  0  0  0
    2.8353  -12.6632  -37.9906 C   0  0  0  0  0  0  0  0  0  0  0  0
    3.3891  -11.7493  -37.1203 C   0  0  0  0  0  0  0  0  0  0  0  0
    4.3470  -10.8269  -37.5341 C   0  0  0  0  0  0  0  0  0  0  0  0
    4.7596  -10.8203  -38.8498 C   0  0  0  0  0  0  0  0  0  0  0  0
 23 24  1  0  0  0
 24 25  2  0  0  0
 24 29  1  0  0  0
 25 26  1  0  0  0
 26 27  2  0  0  0
 26 21  1  0  0  0
 27 28  1  0  0  0
 28 29  2  0  0  0
 21 22  2  0  0  0
 22 19  1  0  0  0
 19  1  1  0  0  0
  1  2  2  0  0  0
  1  6  1  0  0  0
  2  3  1  0  0  0
  3  4  2  0  0  0
  3 13  1  0  0  0
  4  5  1  0  0  0
  5  6  2  0  0  0
  5  7  1  0  0  0
  7  8  1  0  0  0
  7 12  1  0  0  0
  8  9  1  0  0  0
  9 10  1  0  0  0
 10 11  1  0  0  0
 11 12  1  0  0  0
 13 14  1  0  0  0
 13 18  1  0  0  0
 14 15  1  0  0  0
 15 16  1  0  0  0
 16 17  1  0  0  0
 17 18  1  0  0  0
 19 20  1  0  0  0
M  END
> <minimizedAffinity>
-6.86194

$$$$
167


 35 38  0  0  0  0  0  0  0  0999 V2000
    2.5541  -20.2361  -39.0073 C   0  0  0  0  0  0  0  0  0  0  0  0
    3.8249  -20.3961  -38.4059 N   0  0  0  0  0  0  0  0  0  0  0  0
    4.0194  -19.3913  -37.4242 C   0  0  0  0  0  0  0  0  0  0  0  0
    5.0951  -19.2068  -36.7741 O   0  0  0  0  0  0  0  0  0  0  0  0
    2.7942  -18.6329  -37.2931 C   0  0  0  0  0  0  0  0  0  0  0  0
    2.6943  -17.6704  -36.4851 O   0  0  0  0  0  0  0  0  0  0  0  0
    1.8360  -19.1965  -38.2245 C   0  0  0  0  0  0  0  0  0  0  0  0
    0.5930  -18.7910  -38.3525 C   0  0  0  0  0  0  0  0  0  0  0  0
   -0.2014  -19.3608  -39.3207 O   0  0  0  0  0  0  0  0  0  0  0  0
    1.8381  -21.9324  -44.0022 Br  0  0  0  0  0  0  0  0  0  0  0  0
    2.3585  -20.6117  -42.7256 C   0  0  0  0  0  0  0  0  0  0  0  0
    2.3169  -20.8008  -41.3780 C   0  0  0  0  0  0  0  0  0  0  0  0
    2.6839  -19.8700  -40.4214 C   0  0  0  0  0  0  0  0  0  0  0  0
    3.1353  -18.6339  -40.8764 C   0  0  0  0  0  0  0  0  0  0  0  0
    3.1915  -18.4082  -42.2383 C   0  0  0  0  0  0  0  0  0  0  0  0
    2.8161  -19.3604  -43.1698 C   0  0  0  0  0  0  0  0  0  0  0  0
    0.0474  -17.7690  -37.4943 C   0  0  0  0  0  0  0  0  0  0  0  0
    0.1555  -16.3903  -37.7484 C   0  0  0  0  0  0  0  0  0  0  0  0
   -0.4858  -15.7160  -36.7862 N   0  0  0  0  0  0  0  0  0  0  0  0
   -0.9830  -16.6107  -35.9523 N   0  0  0  0  0  0  0  0  0  0  0  0
   -0.6860  -17.8587  -36.3439 C   0  0  0  0  0  0  0  0  0  0  0  0
    0.8785  -15.8162  -38.9202 C   0  0  0  0  0  0  0  0  0  0  0  0
   -0.6296  -14.3073  -36.6723 C   0  0  0  0  0  0  0  0  0  0  0  0
    0.3821  -13.5798  -36.0599 C   0  0  0  0  0  0  0  0  0  0  0  0
    0.3139  -12.2075  -35.9242 C   0  0  0  0  0  0  0  0  0  0  0  0
   -0.7848  -11.4924  -36.4027 C   0  0  0  0  0  0  0  0  0  0  0  0
   -1.7929  -12.2173  -37.0128 C   0  0  0  0  0  0  0  0  0  0  0  0
   -1.7014  -13.5798  -37.1349 C   0  0  0  0  0  0  0  0  0  0  0  0
    4.8283  -21.4563  -38.7048 C   0  0  0  0  0  0  0  0  0  0  0  0
    5.7706  -20.9728  -39.7768 C   0  0  0  0  0  0  0  0  0  0  0  0
    5.7724  -21.8319  -41.0015 C   0  0  0  0  0  0  0  0  0  0  0  0
    5.9883  -21.1626  -42.2414 N   0  0  0  0  0  0  0  0  0  0  0  0
    6.5165  -19.8403  -42.1658 C   0  0  0  0  0  0  0  0  0  0  0  0
    6.8907  -21.9537  -43.0936 C   0  0  0  0  0  0  0  0  0  0  0  0
    5.0766  -21.1287  -42.7907 H   0  0  0  0  0  0  0  0  0  0  0  0
 10 11  1  0  0  0
 11 12  2  0  0  0
 11 16  1  0  0  0
 12 13  1  0  0  0
 13 14  2  0  0  0
 13  1  1  0  0  0
 14 15  1  0  0  0
 15 16  2  0  0  0
  1  2  1  0  0  0
  1  7  1  0  0  0
  2  3  1  0  0  0
  2 29  1  0  0  0
  3  4  2  0  0  0
  3  5  1  0  0  0
  5  6  2  0  0  0
  5  7  1  0  0  0
  7  8  2  0  0  0
  8  9  1  0  0  0
  8 17  1  0  0  0
 17 18  2  0  0  0
 17 21  1  0  0  0
 18 19  1  0  0  0
 18 22  1  0  0  0
 19 20  1  0  0  0
 19 23  1  0  0  0
 20 21  2  0  0  0
 23 24  2  0  0  0
 23 28  1  0  0  0
 24 25  1  0  0  0
 25 26  2  0  0  0
 26 27  1  0  0  0
 27 28  2  0  0  0
 29 30  1  0  0  0
 30 31  1  0  0  0
 31 32  1  0  0  0
 32 33  1  0  0  0
 32 34  1  0  0  0
 32 35  1  0  0  0
M  CHG 1   9  -1
M  CHG 1  32   1
M  END
> <minimizedAffinity>
-5.83735

$$$$
169


 37 40  0  0  0  0  0  0  0  0999 V2000
    0.6282  -17.0650  -38.9293 C   0  0  0  0  0  0  0  0  0  0  0  0
    1.8758  -17.6890  -38.5333 N   0  0  0  0  0  0  0  0  0  0  0  0
    2.1293  -17.2608  -37.2032 C   0  0  0  0  0  0  0  0  0  0  0  0
    2.8083  -17.8474  -36.3315 O   0  0  0  0  0  0  0  0  0  0  0  0
    1.4283  -15.9694  -37.0288 C   0  0  0  0  0  0  0  0  0  0  0  0
    1.4011  -15.2529  -36.0043 O   0  0  0  0  0  0  0  0  0  0  0  0
    0.7791  -15.7036  -38.3054 C   0  0  0  0  0  0  0  0  0  0  0  0
    0.4675  -14.5331  -38.7713 C   0  0  0  0  0  0  0  0  0  0  0  0
   -0.1011  -14.4623  -40.0604 O   0  0  0  0  0  0  0  0  0  0  0  0
    0.6480  -13.2663  -38.0770 C   0  0  0  0  0  0  0  0  0  0  0  0
    1.6571  -12.3647  -38.0266 C   0  0  0  0  0  0  0  0  0  0  0  0
    1.2605  -11.3305  -37.2562 N   0  0  0  0  0  0  0  0  0  0  0  0
    0.0192  -11.5193  -36.7916 C   0  0  0  0  0  0  0  0  0  0  0  0
   -0.3903  -12.7268  -37.2911 C   0  0  0  0  0  0  0  0  0  0  0  0
   -1.7197  -13.3600  -37.0386 C   0  0  0  0  0  0  0  0  0  0  0  0
    3.0179  -12.4681  -38.6528 C   0  0  0  0  0  0  0  0  0  0  0  0
    1.8631  -10.4818  -37.0492 H   0  0  0  0  0  0  0  0  0  0  0  0
   -0.7523  -10.6116  -35.9188 C   0  0  0  0  0  0  0  0  0  0  0  0
   -1.1001   -9.5041  -36.3543 O   0  0  0  0  0  0  0  0  0  0  0  0
   -1.0860  -10.9858  -34.6311 O   0  0  0  0  0  0  0  0  0  0  0  0
   -2.4110  -11.0743  -34.1596 C   0  0  0  0  0  0  0  0  0  0  0  0
   -4.2365  -16.8869  -36.7079 Br  0  0  0  0  0  0  0  0  0  0  0  0
   -2.6787  -17.8366  -37.2640 C   0  0  0  0  0  0  0  0  0  0  0  0
   -1.6417  -17.1574  -37.8673 C   0  0  0  0  0  0  0  0  0  0  0  0
   -0.4871  -17.8033  -38.2897 C   0  0  0  0  0  0  0  0  0  0  0  0
   -0.4482  -19.1711  -38.0643 C   0  0  0  0  0  0  0  0  0  0  0  0
   -1.4797  -19.8590  -37.4615 C   0  0  0  0  0  0  0  0  0  0  0  0
   -2.6155  -19.1962  -37.0515 C   0  0  0  0  0  0  0  0  0  0  0  0
    2.7178  -18.5809  -39.3347 C   0  0  0  0  0  0  0  0  0  0  0  0
    2.8146  -19.9524  -38.7038 C   0  0  0  0  0  0  0  0  0  0  0  0
    4.1125  -20.5383  -38.7868 N   0  0  0  0  0  0  0  0  0  0  0  0
    5.2023  -19.5762  -38.6730 C   0  0  0  0  0  0  0  0  0  0  0  0
    6.4479  -20.3427  -38.3194 C   0  0  0  0  0  0  0  0  0  0  0  0
    6.3097  -21.6474  -38.7225 O   0  0  0  0  0  0  0  0  0  0  0  0
    5.7475  -21.8015  -39.9776 C   0  0  0  0  0  0  0  0  0  0  0  0
    4.3355  -21.2228  -40.0542 C   0  0  0  0  0  0  0  0  0  0  0  0
    4.2071  -21.2680  -38.0576 H   0  0  0  0  0  0  0  0  0  0  0  0
 22 23  1  0  0  0
 23 24  2  0  0  0
 23 28  1  0  0  0
 24 25  1  0  0  0
 25 26  2  0  0  0
 25  1  1  0  0  0
 26 27  1  0  0  0
 27 28  2  0  0  0
  1  2  1  0  0  0
  1  7  1  0  0  0
  2  3  1  0  0  0
  2 29  1  0  0  0
  3  4  2  0  0  0
  3  5  1  0  0  0
  5  6  2  0  0  0
  5  7  1  0  0  0
  7  8  2  0  0  0
  8  9  1  0  0  0
  8 10  1  0  0  0
 10 11  2  0  0  0
 10 14  1  0  0  0
 11 12  1  0  0  0
 11 16  1  0  0  0
 12 13  1  0  0  0
 13 14  2  0  0  0
 13 18  1  0  0  0
 14 15  1  0  0  0
 18 19  2  0  0  0
 18 20  1  0  0  0
 20 21  1  0  0  0
 29 30  1  0  0  0
 30 31  1  0  0  0
 31 32  1  0  0  0
 31 36  1  0  0  0
 32 33  1  0  0  0
 33 34  1  0  0  0
 34 35  1  0  0  0
 35 36  1  0  0  0
 12 17  1  0  0  0
 31 37  1  0  0  0
M  CHG 1   9  -1
M  CHG 1  31   1
M  END
> <minimizedAffinity>
-6.48996

$$$$
170


 35 38  0  0  0  0  0  0  0  0999 V2000
    0.7189  -15.2888  -38.1404 C   0  0  0  0  0  0  0  0  0  0  0  0
   -0.0891  -15.2345  -39.3428 N   0  0  0  0  0  0  0  0  0  0  0  0
    0.5709  -15.8660  -40.4182 C   0  0  0  0  0  0  0  0  0  0  0  0
    0.3897  -15.7877  -41.6604 O   0  0  0  0  0  0  0  0  0  0  0  0
    1.6156  -16.7213  -39.8007 C   0  0  0  0  0  0  0  0  0  0  0  0
    2.3978  -17.4371  -40.4573 O   0  0  0  0  0  0  0  0  0  0  0  0
    1.5181  -16.5434  -38.3633 C   0  0  0  0  0  0  0  0  0  0  0  0
    1.9932  -17.3571  -37.4559 C   0  0  0  0  0  0  0  0  0  0  0  0
    1.7556  -17.0835  -36.0976 O   0  0  0  0  0  0  0  0  0  0  0  0
    4.1512  -11.7766  -40.2834 Br  0  0  0  0  0  0  0  0  0  0  0  0
    3.1380  -12.4779  -38.8304 C   0  0  0  0  0  0  0  0  0  0  0  0
    2.3245  -13.5907  -39.0112 C   0  0  0  0  0  0  0  0  0  0  0  0
    1.5875  -14.1106  -37.9712 C   0  0  0  0  0  0  0  0  0  0  0  0
    1.6657  -13.5067  -36.7362 C   0  0  0  0  0  0  0  0  0  0  0  0
    2.4722  -12.4016  -36.5508 C   0  0  0  0  0  0  0  0  0  0  0  0
    3.2145  -11.8740  -37.5855 C   0  0  0  0  0  0  0  0  0  0  0  0
    2.7603  -18.5257  -37.7945 C   0  0  0  0  0  0  0  0  0  0  0  0
    4.1499  -18.4396  -37.6240 C   0  0  0  0  0  0  0  0  0  0  0  0
    4.9611  -19.4880  -37.9590 C   0  0  0  0  0  0  0  0  0  0  0  0
    4.4540  -20.6729  -38.4777 C   0  0  0  0  0  0  0  0  0  0  0  0
    3.1044  -20.7338  -38.6353 C   0  0  0  0  0  0  0  0  0  0  0  0
    2.2710  -19.6850  -38.3033 C   0  0  0  0  0  0  0  0  0  0  0  0
    6.4432  -19.3789  -37.7709 C   0  0  0  0  0  0  0  0  0  0  0  0
    5.3394  -21.6841  -38.7900 O   0  0  0  0  0  0  0  0  0  0  0  0
    5.7357  -21.9162  -40.1334 C   0  0  0  0  0  0  0  0  0  0  0  0
   -1.4219  -14.6213  -39.4591 C   0  0  0  0  0  0  0  0  0  0  0  0
   -2.2299  -14.9186  -38.2264 C   0  0  0  0  0  0  0  0  0  0  0  0
   -3.3926  -15.8274  -38.4368 C   0  0  0  0  0  0  0  0  0  0  0  0
   -3.2150  -17.1421  -37.8596 N   0  0  0  0  0  0  0  0  0  0  0  0
   -2.7991  -18.1139  -38.8513 C   0  0  0  0  0  0  0  0  0  0  0  0
   -1.4186  -18.6307  -38.5482 C   0  0  0  0  0  0  0  0  0  0  0  0
   -1.4661  -19.2663  -37.2907 O   0  0  0  0  0  0  0  0  0  0  0  0
   -1.7632  -18.3451  -36.2888 C   0  0  0  0  0  0  0  0  0  0  0  0
   -2.2071  -17.0132  -36.8029 C   0  0  0  0  0  0  0  0  0  0  0  0
   -4.0660  -17.5013  -37.3782 H   0  0  0  0  0  0  0  0  0  0  0  0
 10 11  1  0  0  0
 11 12  2  0  0  0
 11 16  1  0  0  0
 12 13  1  0  0  0
 13 14  2  0  0  0
 13  1  1  0  0  0
 14 15  1  0  0  0
 15 16  2  0  0  0
  1  2  1  0  0  0
  1  7  1  0  0  0
  2  3  1  0  0  0
  2 26  1  0  0  0
  3  4  2  0  0  0
  3  5  1  0  0  0
  5  6  2  0  0  0
  5  7  1  0  0  0
  7  8  2  0  0  0
  8  9  1  0  0  0
  8 17  1  0  0  0
 17 18  2  0  0  0
 17 22  1  0  0  0
 18 19  1  0  0  0
 19 20  2  0  0  0
 19 23  1  0  0  0
 20 21  1  0  0  0
 20 24  1  0  0  0
 21 22  2  0  0  0
 24 25  1  0  0  0
 26 27  1  0  0  0
 27 28  1  0  0  0
 28 29  1  0  0  0
 29 30  1  0  0  0
 29 34  1  0  0  0
 30 31  1  0  0  0
 31 32  1  0  0  0
 32 33  1  0  0  0
 33 34  1  0  0  0
 29 35  1  0  0  0
M  CHG 1   9  -1
M  CHG 1  29   1
M  END
> <minimizedAffinity>
-6.60371

$$$$
175


 32 35  0  0  0  0  0  0  0  0999 V2000
    2.6522  -18.3137  -38.8838 C   0  0  0  0  0  0  0  0  0  0  0  0
    3.7072  -18.8609  -38.0843 N   0  0  0  0  0  0  0  0  0  0  0  0
    3.3645  -18.5920  -36.7334 C   0  0  0  0  0  0  0  0  0  0  0  0
    3.8328  -19.1777  -35.7257 O   0  0  0  0  0  0  0  0  0  0  0  0
    2.3612  -17.5020  -36.6927 C   0  0  0  0  0  0  0  0  0  0  0  0
    1.8279  -16.9948  -35.6916 O   0  0  0  0  0  0  0  0  0  0  0  0
    2.1316  -17.1498  -38.0811 C   0  0  0  0  0  0  0  0  0  0  0  0
    1.6270  -16.0342  -38.5604 C   0  0  0  0  0  0  0  0  0  0  0  0
    1.5459  -15.8479  -39.9240 O   0  0  0  0  0  0  0  0  0  0  0  0
    0.4997  -22.0792  -42.0858 Br  0  0  0  0  0  0  0  0  0  0  0  0
    0.5031  -20.9966  -40.5123 C   0  0  0  0  0  0  0  0  0  0  0  0
    1.5253  -20.0852  -40.2682 C   0  0  0  0  0  0  0  0  0  0  0  0
    1.5562  -19.2893  -39.1421 C   0  0  0  0  0  0  0  0  0  0  0  0
    0.5050  -19.4430  -38.2491 C   0  0  0  0  0  0  0  0  0  0  0  0
   -0.5173  -20.3406  -38.4714 C   0  0  0  0  0  0  0  0  0  0  0  0
   -0.5046  -21.1103  -39.6067 C   0  0  0  0  0  0  0  0  0  0  0  0
    1.1434  -14.9887  -37.6954 C   0  0  0  0  0  0  0  0  0  0  0  0
    1.8695  -13.9491  -37.1908 C   0  0  0  0  0  0  0  0  0  0  0  0
    1.2631  -12.9897  -36.4014 C   0  0  0  0  0  0  0  0  0  0  0  0
   -0.0735  -13.0088  -36.0740 C   0  0  0  0  0  0  0  0  0  0  0  0
   -0.8059  -14.0602  -36.5838 C   0  0  0  0  0  0  0  0  0  0  0  0
   -0.2227  -15.0236  -37.3693 C   0  0  0  0  0  0  0  0  0  0  0  0
   -0.7026  -11.9622  -35.2206 C   0  0  0  0  0  0  0  0  0  0  0  0
    4.9205  -19.5720  -38.5342 C   0  0  0  0  0  0  0  0  0  0  0  0
    5.1793  -19.1577  -39.9557 C   0  0  0  0  0  0  0  0  0  0  0  0
    5.9031  -20.0937  -40.7371 N   0  0  0  0  0  0  0  0  0  0  0  0
    5.6654  -21.4771  -40.4447 C   0  0  0  0  0  0  0  0  0  0  0  0
    4.5666  -22.1026  -41.2595 C   0  0  0  0  0  0  0  0  0  0  0  0
    4.5767  -21.7297  -42.5852 O   0  0  0  0  0  0  0  0  0  0  0  0
    4.5136  -20.3652  -42.7448 C   0  0  0  0  0  0  0  0  0  0  0  0
    5.7552  -19.7721  -42.1341 C   0  0  0  0  0  0  0  0  0  0  0  0
    6.9336  -19.9202  -40.5359 H   0  0  0  0  0  0  0  0  0  0  0  0
 10 11  1  0  0  0
 11 12  2  0  0  0
 11 16  1  0  0  0
 12 13  1  0  0  0
 13 14  2  0  0  0
 13  1  1  0  0  0
 14 15  1  0  0  0
 15 16  2  0  0  0
  1  2  1  0  0  0
  1  7  1  0  0  0
  2  3  1  0  0  0
  2 24  1  0  0  0
  3  4  2  0  0  0
  3  5  1  0  0  0
  5  6  2  0  0  0
  5  7  1  0  0  0
  7  8  2  0  0  0
  8  9  1  0  0  0
  8 17  1  0  0  0
 17 18  2  0  0  0
 17 22  1  0  0  0
 18 19  1  0  0  0
 19 20  2  0  0  0
 20 21  1  0  0  0
 20 23  1  0  0  0
 21 22  2  0  0  0
 24 25  1  0  0  0
 25 26  1  0  0  0
 26 27  1  0  0  0
 26 31  1  0  0  0
 27 28  1  0  0  0
 28 29  1  0  0  0
 29 30  1  0  0  0
 30 31  1  0  0  0
 26 32  1  0  0  0
M  CHG 1   9  -1
M  CHG 1  26   1
M  END
> <minimizedAffinity>
-6.77658

$$$$
176


 33 36  0  0  0  0  0  0  0  0999 V2000
    0.8709  -16.4089  -37.2771 C   0  0  0  0  0  0  0  0  0  0  0  0
   -0.2089  -16.5842  -38.2346 N   0  0  0  0  0  0  0  0  0  0  0  0
    0.3926  -17.0299  -39.4678 C   0  0  0  0  0  0  0  0  0  0  0  0
   -0.1589  -16.9728  -40.5944 O   0  0  0  0  0  0  0  0  0  0  0  0
    1.7091  -17.5343  -39.1389 C   0  0  0  0  0  0  0  0  0  0  0  0
    2.5824  -18.0211  -39.9233 O   0  0  0  0  0  0  0  0  0  0  0  0
    1.8883  -17.3891  -37.7007 C   0  0  0  0  0  0  0  0  0  0  0  0
    2.8137  -18.0020  -36.9771 C   0  0  0  0  0  0  0  0  0  0  0  0
    2.8076  -17.6446  -35.6123 O   0  0  0  0  0  0  0  0  0  0  0  0
    3.4359  -12.5480  -39.9810 Br  0  0  0  0  0  0  0  0  0  0  0  0
    2.5183  -13.2274  -38.4622 C   0  0  0  0  0  0  0  0  0  0  0  0
    2.0338  -14.5266  -38.3986 C   0  0  0  0  0  0  0  0  0  0  0  0
    1.3669  -15.0097  -37.2958 C   0  0  0  0  0  0  0  0  0  0  0  0
    1.1840  -14.1682  -36.2395 C   0  0  0  0  0  0  0  0  0  0  0  0
    1.6698  -12.8543  -36.2914 C   0  0  0  0  0  0  0  0  0  0  0  0
    2.3362  -12.3731  -37.3952 C   0  0  0  0  0  0  0  0  0  0  0  0
    3.7694  -18.9669  -37.4952 C   0  0  0  0  0  0  0  0  0  0  0  0
    5.1058  -18.7270  -37.7103 C   0  0  0  0  0  0  0  0  0  0  0  0
    5.9744  -19.6949  -38.1732 C   0  0  0  0  0  0  0  0  0  0  0  0
    5.5244  -20.9670  -38.4451 C   0  0  0  0  0  0  0  0  0  0  0  0
    4.1846  -21.2262  -38.2355 C   0  0  0  0  0  0  0  0  0  0  0  0
    3.3234  -20.2512  -37.7717 C   0  0  0  0  0  0  0  0  0  0  0  0
    6.6163  -22.2230  -39.0378 Cl  0  0  0  0  0  0  0  0  0  0  0  0
   -1.5818  -16.2654  -38.0097 C   0  0  0  0  0  0  0  0  0  0  0  0
   -2.4264  -17.2049  -37.2512 C   0  0  0  0  0  0  0  0  0  0  0  0
   -1.8199  -18.3848  -36.5882 C   0  0  0  0  0  0  0  0  0  0  0  0
   -2.0935  -19.6756  -37.1233 N   0  0  0  0  0  0  0  0  0  0  0  0
   -3.0750  -19.5986  -38.1754 C   0  0  0  0  0  0  0  0  0  0  0  0
   -2.4651  -19.4640  -39.5550 C   0  0  0  0  0  0  0  0  0  0  0  0
   -1.7543  -20.6217  -39.8795 O   0  0  0  0  0  0  0  0  0  0  0  0
   -1.3261  -21.2820  -38.7264 C   0  0  0  0  0  0  0  0  0  0  0  0
   -0.8586  -20.2283  -37.7612 C   0  0  0  0  0  0  0  0  0  0  0  0
   -2.3135  -20.3654  -36.4092 H   0  0  0  0  0  0  0  0  0  0  0  0
 10 11  1  0  0  0
 11 12  2  0  0  0
 11 16  1  0  0  0
 12 13  1  0  0  0
 13 14  2  0  0  0
 13  1  1  0  0  0
 14 15  1  0  0  0
 15 16  2  0  0  0
  1  2  1  0  0  0
  1  7  1  0  0  0
  2  3  1  0  0  0
  2 24  1  0  0  0
  3  4  2  0  0  0
  3  5  1  0  0  0
  5  6  2  0  0  0
  5  7  1  0  0  0
  7  8  2  0  0  0
  8  9  1  0  0  0
  8 17  1  0  0  0
 17 18  2  0  0  0
 17 22  1  0  0  0
 18 19  1  0  0  0
 19 20  2  0  0  0
 20 21  1  0  0  0
 20 23  1  0  0  0
 21 22  2  0  0  0
 24 25  1  0  0  0
 25 26  1  0  0  0
 26 27  1  0  0  0
 27 28  1  0  0  0
 27 32  1  0  0  0
 28 29  1  0  0  0
 29 30  1  0  0  0
 30 31  1  0  0  0
 31 32  1  0  0  0
 27 33  1  0  0  0
M  CHG 1   9  -1
M  CHG 1  27   1
M  END
> <minimizedAffinity>
-7.20767

$$$$
182


 36 40  0  0  0  0  0  0  0  0999 V2000
    4.7072  -19.6825  -40.5973 C   0  0  0  0  0  0  0  0  0  0  0  0
    4.8696  -21.0872  -40.4548 N   0  0  0  0  0  0  0  0  0  0  0  0
    4.5930  -21.3166  -39.0335 C   0  0  0  0  0  0  0  0  0  0  0  0
    5.0454  -22.2399  -38.3379 O   0  0  0  0  0  0  0  0  0  0  0  0
    3.6807  -20.2400  -38.6139 C   0  0  0  0  0  0  0  0  0  0  0  0
    3.1809  -20.0472  -37.4822 O   0  0  0  0  0  0  0  0  0  0  0  0
    3.4669  -19.4254  -39.8077 C   0  0  0  0  0  0  0  0  0  0  0  0
    2.4121  -18.7050  -40.0892 C   0  0  0  0  0  0  0  0  0  0  0  0
    2.3984  -18.0478  -41.3387 O   0  0  0  0  0  0  0  0  0  0  0  0
    1.2868  -18.5556  -39.1786 C   0  0  0  0  0  0  0  0  0  0  0  0
    1.0736  -17.7234  -38.1493 N   0  0  0  0  0  0  0  0  0  0  0  0
   -0.1049  -17.9997  -37.5843 C   0  0  0  0  0  0  0  0  0  0  0  0
   -0.6514  -19.0339  -38.2763 N   0  0  0  0  0  0  0  0  0  0  0  0
    0.1720  -19.4046  -39.2655 C   0  0  0  0  0  0  0  0  0  0  0  0
   -0.0482  -20.4964  -40.2556 C   0  0  0  0  0  0  0  0  0  0  0  0
   -0.5839  -17.2729  -36.4966 C   0  0  0  0  0  0  0  0  0  0  0  0
    0.2115  -16.2469  -36.0248 C   0  0  0  0  0  0  0  0  0  0  0  0
    1.4252  -15.9861  -36.6334 C   0  0  0  0  0  0  0  0  0  0  0  0
    1.8775  -16.7179  -37.7043 C   0  0  0  0  0  0  0  0  0  0  0  0
   -1.8993  -17.6256  -35.9082 C   0  0  0  0  0  0  0  0  0  0  0  0
    7.0898  -15.8763  -43.4269 Br  0  0  0  0  0  0  0  0  0  0  0  0
    5.8442  -17.3216  -43.2533 C   0  0  0  0  0  0  0  0  0  0  0  0
    5.6996  -17.9861  -42.0636 C   0  0  0  0  0  0  0  0  0  0  0  0
    4.7999  -19.0556  -41.8815 C   0  0  0  0  0  0  0  0  0  0  0  0
    4.0822  -19.3624  -43.0164 C   0  0  0  0  0  0  0  0  0  0  0  0
    4.2118  -18.7085  -44.2228 C   0  0  0  0  0  0  0  0  0  0  0  0
    5.1050  -17.6694  -44.3515 C   0  0  0  0  0  0  0  0  0  0  0  0
    5.2600  -22.1647  -41.3470 C   0  0  0  0  0  0  0  0  0  0  0  0
    4.1334  -22.8934  -41.9942 C   0  0  0  0  0  0  0  0  0  0  0  0
    4.3106  -23.0525  -43.4242 N   0  0  0  0  0  0  0  0  0  0  0  0
    5.4554  -23.8824  -43.7269 C   0  0  0  0  0  0  0  0  0  0  0  0
    5.1347  -25.3426  -43.3924 C   0  0  0  0  0  0  0  0  0  0  0  0
    4.1249  -25.7229  -44.2832 O   0  0  0  0  0  0  0  0  0  0  0  0
    2.9674  -25.0386  -43.8586 C   0  0  0  0  0  0  0  0  0  0  0  0
    3.1047  -23.5476  -44.0582 C   0  0  0  0  0  0  0  0  0  0  0  0
    4.5052  -22.1126  -43.8487 H   0  0  0  0  0  0  0  0  0  0  0  0
 21 22  1  0  0  0
 22 23  2  0  0  0
 22 27  1  0  0  0
 23 24  1  0  0  0
 24 25  2  0  0  0
 24  1  1  0  0  0
 25 26  1  0  0  0
 26 27  2  0  0  0
  1  2  1  0  0  0
  1  7  1  0  0  0
  2  3  1  0  0  0
  2 28  1  0  0  0
  3  4  2  0  0  0
  3  5  1  0  0  0
  5  6  2  0  0  0
  5  7  1  0  0  0
  7  8  2  0  0  0
  8  9  1  0  0  0
  8 10  1  0  0  0
 10 11  1  0  0  0
 10 14  2  0  0  0
 11 12  1  0  0  0
 11 19  1  0  0  0
 12 13  2  0  0  0
 12 16  1  0  0  0
 13 14  1  0  0  0
 14 15  1  0  0  0
 16 17  2  0  0  0
 16 20  1  0  0  0
 17 18  1  0  0  0
 18 19  2  0  0  0
 28 29  1  0  0  0
 29 30  1  0  0  0
 30 31  1  0  0  0
 30 35  1  0  0  0
 31 32  1  0  0  0
 32 33  1  0  0  0
 33 34  1  0  0  0
 34 35  1  0  0  0
 30 36  1  0  0  0
M  CHG 1   9  -1
M  CHG 1  30   1
M  END
> <minimizedAffinity>
-6.36178

$$$$
184


 33 36  0  0  0  0  0  0  0  0999 V2000
    3.1866  -18.4315  -38.9792 C   0  0  0  0  0  0  0  0  0  0  0  0
    3.5705  -19.4331  -38.0036 N   0  0  0  0  0  0  0  0  0  0  0  0
    3.4572  -18.7792  -36.7325 C   0  0  0  0  0  0  0  0  0  0  0  0
    4.0585  -19.0567  -35.6797 O   0  0  0  0  0  0  0  0  0  0  0  0
    2.4865  -17.7035  -36.8942 C   0  0  0  0  0  0  0  0  0  0  0  0
    2.0559  -16.8512  -36.0611 O   0  0  0  0  0  0  0  0  0  0  0  0
    2.0478  -17.7578  -38.2805 C   0  0  0  0  0  0  0  0  0  0  0  0
    0.9201  -17.2673  -38.7555 C   0  0  0  0  0  0  0  0  0  0  0  0
    0.7368  -17.3780  -40.1411 O   0  0  0  0  0  0  0  0  0  0  0  0
   -0.1242  -16.6407  -37.9589 C   0  0  0  0  0  0  0  0  0  0  0  0
   -0.2668  -15.3376  -37.6757 N   0  0  0  0  0  0  0  0  0  0  0  0
   -1.3878  -15.1224  -36.9402 C   0  0  0  0  0  0  0  0  0  0  0  0
   -1.9413  -16.3557  -36.7743 N   0  0  0  0  0  0  0  0  0  0  0  0
   -1.2181  -17.2902  -37.3668 C   0  0  0  0  0  0  0  0  0  0  0  0
   -1.4044  -18.7549  -37.4652 C   0  0  0  0  0  0  0  0  0  0  0  0
   -1.7689  -13.8651  -36.4988 C   0  0  0  0  0  0  0  0  0  0  0  0
   -0.9924  -12.7669  -36.8053 C   0  0  0  0  0  0  0  0  0  0  0  0
    0.1543  -12.9962  -37.5569 C   0  0  0  0  0  0  0  0  0  0  0  0
    0.4975  -14.2451  -37.9735 C   0  0  0  0  0  0  0  0  0  0  0  0
    0.3736  -21.9060  -41.9108 Br  0  0  0  0  0  0  0  0  0  0  0  0
    1.5838  -20.4537  -41.7236 C   0  0  0  0  0  0  0  0  0  0  0  0
    1.9160  -20.0005  -40.4464 C   0  0  0  0  0  0  0  0  0  0  0  0
    2.7761  -18.9672  -40.2827 C   0  0  0  0  0  0  0  0  0  0  0  0
    3.3160  -18.3721  -41.4281 C   0  0  0  0  0  0  0  0  0  0  0  0
    2.9890  -18.8180  -42.6740 C   0  0  0  0  0  0  0  0  0  0  0  0
    2.1168  -19.8678  -42.8628 C   0  0  0  0  0  0  0  0  0  0  0  0
    4.0010  -20.8138  -38.2364 C   0  0  0  0  0  0  0  0  0  0  0  0
    5.4335  -20.9355  -38.6066 C   0  0  0  0  0  0  0  0  0  0  0  0
    5.7883  -21.7228  -39.7999 C   0  0  0  0  0  0  0  0  0  0  0  0
    5.1786  -21.3368  -41.0241 N   0  0  0  0  0  0  0  0  0  0  0  0
    4.6835  -22.5000  -41.7203 C   0  0  0  0  0  0  0  0  0  0  0  0
    6.1991  -20.7450  -41.9095 C   0  0  0  0  0  0  0  0  0  0  0  0
    4.4621  -20.5839  -40.9323 H   0  0  0  0  0  0  0  0  0  0  0  0
 20 21  1  0  0  0
 21 22  2  0  0  0
 21 26  1  0  0  0
 22 23  1  0  0  0
 23 24  2  0  0  0
 23  1  1  0  0  0
 24 25  1  0  0  0
 25 26  2  0  0  0
  1  2  1  0  0  0
  1  7  1  0  0  0
  2  3  1  0  0  0
  2 27  1  0  0  0
  3  4  2  0  0  0
  3  5  1  0  0  0
  5  6  2  0  0  0
  5  7  1  0  0  0
  7  8  2  0  0  0
  8  9  1  0  0  0
  8 10  1  0  0  0
 10 11  1  0  0  0
 10 14  2  0  0  0
 11 12  1  0  0  0
 11 19  1  0  0  0
 12 13  2  0  0  0
 12 16  1  0  0  0
 13 14  1  0  0  0
 14 15  1  0  0  0
 16 17  2  0  0  0
 17 18  1  0  0  0
 18 19  2  0  0  0
 27 28  1  0  0  0
 28 29  1  0  0  0
 29 30  1  0  0  0
 30 31  1  0  0  0
 30 32  1  0  0  0
 30 33  1  0  0  0
M  CHG 1   9  -1
M  CHG 1  30   1
M  END
> <minimizedAffinity>
-5.71502

$$$$
188


 31 34  0  0  0  0  0  0  0  0999 V2000
    1.6579  -16.8791  -36.9308 C   0  0  0  0  0  0  0  0  0  0  0  0
    1.6608  -15.8019  -37.9093 N   0  0  0  0  0  0  0  0  0  0  0  0
    1.6630  -16.5072  -39.1731 C   0  0  0  0  0  0  0  0  0  0  0  0
    1.2484  -16.0726  -40.2690 O   0  0  0  0  0  0  0  0  0  0  0  0
    2.2336  -17.8319  -38.9685 C   0  0  0  0  0  0  0  0  0  0  0  0
    2.4302  -18.7811  -39.7701 O   0  0  0  0  0  0  0  0  0  0  0  0
    2.5760  -17.9040  -37.5487 C   0  0  0  0  0  0  0  0  0  0  0  0
    3.4354  -18.6705  -36.9411 C   0  0  0  0  0  0  0  0  0  0  0  0
    3.5458  -18.5610  -35.5384 O   0  0  0  0  0  0  0  0  0  0  0  0
   -1.4473  -21.0106  -38.3984 Br  0  0  0  0  0  0  0  0  0  0  0  0
   -1.1525  -19.3617  -37.4643 C   0  0  0  0  0  0  0  0  0  0  0  0
    0.0729  -18.7146  -37.5077 C   0  0  0  0  0  0  0  0  0  0  0  0
    0.3175  -17.5310  -36.8471 C   0  0  0  0  0  0  0  0  0  0  0  0
   -0.7194  -16.9845  -36.1156 C   0  0  0  0  0  0  0  0  0  0  0  0
   -1.9604  -17.6235  -36.0606 C   0  0  0  0  0  0  0  0  0  0  0  0
   -2.1841  -18.8112  -36.7316 C   0  0  0  0  0  0  0  0  0  0  0  0
    4.2545  -19.6055  -37.6902 C   0  0  0  0  0  0  0  0  0  0  0  0
    3.8952  -20.8363  -37.9403 O   0  0  0  0  0  0  0  0  0  0  0  0
    4.8094  -21.4661  -38.6259 C   0  0  0  0  0  0  0  0  0  0  0  0
    5.8410  -20.6052  -38.8479 C   0  0  0  0  0  0  0  0  0  0  0  0
    5.4883  -19.3942  -38.2411 C   0  0  0  0  0  0  0  0  0  0  0  0
    1.6443  -14.3716  -37.7538 C   0  0  0  0  0  0  0  0  0  0  0  0
    1.4039  -13.9131  -36.3339 C   0  0  0  0  0  0  0  0  0  0  0  0
    1.0842  -12.4709  -36.3254 C   0  0  0  0  0  0  0  0  0  0  0  0
   -0.2521  -12.1353  -36.7623 N   0  0  0  0  0  0  0  0  0  0  0  0
   -1.2718  -12.7089  -35.9159 C   0  0  0  0  0  0  0  0  0  0  0  0
   -1.7904  -11.8023  -34.8574 C   0  0  0  0  0  0  0  0  0  0  0  0
   -2.0026  -10.4959  -35.2444 O   0  0  0  0  0  0  0  0  0  0  0  0
   -0.9226   -9.9274  -35.9064 C   0  0  0  0  0  0  0  0  0  0  0  0
   -0.4704  -10.7639  -37.0755 C   0  0  0  0  0  0  0  0  0  0  0  0
   -0.3561  -12.6608  -37.6879 H   0  0  0  0  0  0  0  0  0  0  0  0
 10 11  1  0  0  0
 11 12  2  0  0  0
 11 16  1  0  0  0
 12 13  1  0  0  0
 13 14  2  0  0  0
 13  1  1  0  0  0
 14 15  1  0  0  0
 15 16  2  0  0  0
  1  2  1  0  0  0
  1  7  1  0  0  0
  2  3  1  0  0  0
  2 22  1  0  0  0
  3  4  2  0  0  0
  3  5  1  0  0  0
  5  6  2  0  0  0
  5  7  1  0  0  0
  7  8  2  0  0  0
  8  9  1  0  0  0
  8 17  1  0  0  0
 17 18  1  0  0  0
 17 21  2  0  0  0
 18 19  1  0  0  0
 19 20  2  0  0  0
 20 21  1  0  0  0
 22 23  1  0  0  0
 23 24  1  0  0  0
 24 25  1  0  0  0
 25 26  1  0  0  0
 25 30  1  0  0  0
 26 27  1  0  0  0
 27 28  1  0  0  0
 28 29  1  0  0  0
 29 30  1  0  0  0
 25 31  1  0  0  0
M  CHG 1   9  -1
M  CHG 1  25   1
M  END
> <minimizedAffinity>
-7.02588

$$$$
191


 34 37  0  0  0  0  0  0  0  0999 V2000
    1.4568  -18.8344  -37.6853 C   0  0  0  0  0  0  0  0  0  0  0  0
    0.4954  -19.2352  -38.6923 N   0  0  0  0  0  0  0  0  0  0  0  0
    0.5238  -18.1961  -39.6949 C   0  0  0  0  0  0  0  0  0  0  0  0
    0.1641  -18.3270  -40.8899 O   0  0  0  0  0  0  0  0  0  0  0  0
    1.0451  -16.9935  -39.0381 C   0  0  0  0  0  0  0  0  0  0  0  0
    1.2385  -15.8535  -39.5333 O   0  0  0  0  0  0  0  0  0  0  0  0
    1.3237  -17.3303  -37.6469 C   0  0  0  0  0  0  0  0  0  0  0  0
    1.4415  -16.5036  -36.6218 C   0  0  0  0  0  0  0  0  0  0  0  0
    1.7277  -17.0105  -35.3793 O   0  0  0  0  0  0  0  0  0  0  0  0
    1.2691  -15.0480  -36.7853 C   0  0  0  0  0  0  0  0  0  0  0  0
    2.1534  -14.2316  -37.2909 O   0  0  0  0  0  0  0  0  0  0  0  0
    1.7629  -13.0015  -37.3256 C   0  0  0  0  0  0  0  0  0  0  0  0
    0.4957  -12.9732  -36.7952 C   0  0  0  0  0  0  0  0  0  0  0  0
    0.1843  -14.2722  -36.4526 C   0  0  0  0  0  0  0  0  0  0  0  0
   -0.1509  -11.7591  -36.7173 C   0  0  0  0  0  0  0  0  0  0  0  0
    0.4409  -10.5913  -37.1544 C   0  0  0  0  0  0  0  0  0  0  0  0
    1.7314  -10.6674  -37.6880 C   0  0  0  0  0  0  0  0  0  0  0  0
    2.4062  -11.8582  -37.7815 C   0  0  0  0  0  0  0  0  0  0  0  0
    3.6700  -11.8895  -38.3131 O   0  0  0  0  0  0  0  0  0  0  0  0
    4.0098  -11.8529  -39.6621 C   0  0  0  0  0  0  0  0  0  0  0  0
    4.6890  -21.7193  -40.8496 Br  0  0  0  0  0  0  0  0  0  0  0  0
    4.3978  -20.5016  -39.3872 C   0  0  0  0  0  0  0  0  0  0  0  0
    3.1330  -20.1092  -39.0571 C   0  0  0  0  0  0  0  0  0  0  0  0
    2.8511  -19.2290  -38.0102 C   0  0  0  0  0  0  0  0  0  0  0  0
    3.9504  -18.7708  -37.3183 C   0  0  0  0  0  0  0  0  0  0  0  0
    5.2456  -19.1638  -37.6460 C   0  0  0  0  0  0  0  0  0  0  0  0
    5.4633  -20.0280  -38.6808 C   0  0  0  0  0  0  0  0  0  0  0  0
   -0.3202  -20.4243  -38.7350 C   0  0  0  0  0  0  0  0  0  0  0  0
   -1.3430  -20.4355  -37.6248 C   0  0  0  0  0  0  0  0  0  0  0  0
   -2.3718  -19.3662  -37.7024 C   0  0  0  0  0  0  0  0  0  0  0  0
   -2.7685  -18.8153  -36.4442 N   0  0  0  0  0  0  0  0  0  0  0  0
   -4.1913  -18.4641  -36.4583 C   0  0  0  0  0  0  0  0  0  0  0  0
   -1.9980  -17.6695  -36.0704 C   0  0  0  0  0  0  0  0  0  0  0  0
   -2.6870  -19.5165  -35.6530 H   0  0  0  0  0  0  0  0  0  0  0  0
 21 22  1  0  0  0
 22 23  2  0  0  0
 22 27  1  0  0  0
 23 24  1  0  0  0
 24 25  2  0  0  0
 24  1  1  0  0  0
 25 26  1  0  0  0
 26 27  2  0  0  0
  1  2  1  0  0  0
  1  7  1  0  0  0
  2  3  1  0  0  0
  2 28  1  0  0  0
  3  4  2  0  0  0
  3  5  1  0  0  0
  5  6  2  0  0  0
  5  7  1  0  0  0
  7  8  2  0  0  0
  8  9  1  0  0  0
  8 10  1  0  0  0
 10 11  1  0  0  0
 10 14  2  0  0  0
 11 12  1  0  0  0
 12 13  2  0  0  0
 12 18  1  0  0  0
 13 14  1  0  0  0
 13 15  1  0  0  0
 15 16  2  0  0  0
 16 17  1  0  0  0
 17 18  2  0  0  0
 18 19  1  0  0  0
 19 20  1  0  0  0
 28 29  1  0  0  0
 29 30  1  0  0  0
 30 31  1  0  0  0
 31 32  1  0  0  0
 31 33  1  0  0  0
 31 34  1  0  0  0
M  CHG 1   9  -1
M  CHG 1  31   1
M  END
> <minimizedAffinity>
-6.48790

$$$$
199


 25 28  0  0  0  0  0  0  0  0999 V2000
    0.6926  -16.7222  -36.1728 C   0  0  0  0  0  0  0  0  0  0  0  0
    2.1026  -17.2181  -36.3620 C   0  0  0  0  0  0  0  0  0  0  0  0
    1.7405  -17.8477  -37.6405 N   0  0  0  0  0  0  0  0  0  0  0  0
    0.3595  -17.7614  -37.2029 C   0  0  0  0  0  0  0  0  0  0  0  0
    2.4908  -18.3072  -38.7576 C   0  0  0  0  0  0  0  0  0  0  0  0
    2.5028  -17.6427  -39.9423 N   0  0  0  0  0  0  0  0  0  0  0  0
    3.2323  -18.1048  -40.9998 C   0  0  0  0  0  0  0  0  0  0  0  0
    3.9572  -19.2237  -40.9049 N   0  0  0  0  0  0  0  0  0  0  0  0
    3.9909  -19.9263  -39.7713 C   0  0  0  0  0  0  0  0  0  0  0  0
    4.6294  -21.0629  -39.4284 N   0  0  0  0  0  0  0  0  0  0  0  0
    4.3050  -21.3076  -38.1774 N   0  0  0  0  0  0  0  0  0  0  0  0
    3.4797  -20.3623  -37.7137 N   0  0  0  0  0  0  0  0  0  0  0  0
    3.2527  -19.4576  -38.7037 C   0  0  0  0  0  0  0  0  0  0  0  0
    5.5124  -21.8841  -40.2526 C   0  0  0  0  0  0  0  0  0  0  0  0
    1.4522  -14.3372  -36.3242 N   0  0  0  0  0  0  0  0  0  0  0  0
    0.4798  -15.3033  -36.6255 C   0  0  0  0  0  0  0  0  0  0  0  0
   -0.5740  -15.1019  -37.2465 O   0  0  0  0  0  0  0  0  0  0  0  0
    2.3343  -14.6438  -35.7710 H   0  0  0  0  0  0  0  0  0  0  0  0
    4.1269  -10.2224  -38.2869 Br  0  0  0  0  0  0  0  0  0  0  0  0
    2.5523  -11.0294  -37.5798 C   0  0  0  0  0  0  0  0  0  0  0  0
    2.5289  -12.3526  -37.2056 C   0  0  0  0  0  0  0  0  0  0  0  0
    1.3868  -12.9766  -36.6816 C   0  0  0  0  0  0  0  0  0  0  0  0
    0.2747  -12.1919  -36.5581 C   0  0  0  0  0  0  0  0  0  0  0  0
    0.3084  -10.8486  -36.9403 C   0  0  0  0  0  0  0  0  0  0  0  0
    1.4286  -10.2696  -37.4451 C   0  0  0  0  0  0  0  0  0  0  0  0
 19 20  1  0  0  0
 20 21  2  0  0  0
 20 25  1  0  0  0
 21 22  1  0  0  0
 22 23  2  0  0  0
 22 15  1  0  0  0
 23 24  1  0  0  0
 24 25  2  0  0  0
 15 16  1  0  0  0
 16 17  2  0  0  0
 16  1  1  0  0  0
  1  2  1  0  0  0
  1  4  1  0  0  0
  2  3  1  0  0  0
  3  4  1  0  0  0
  3  5  1  0  0  0
  5  6  2  0  0  0
  5 13  1  0  0  0
  6  7  1  0  0  0
  7  8  2  0  0  0
  8  9  1  0  0  0
  9 10  1  0  0  0
  9 13  2  0  0  0
 10 11  1  0  0  0
 10 14  1  0  0  0
 11 12  2  0  0  0
 12 13  1  0  0  0
 15 18  1  0  0  0
M  END
> <minimizedAffinity>
-6.30069

$$$$
200


 21 24  0  0  0  0  0  0  0  0999 V2000
    1.5062  -17.4878  -37.1730 C   0  0  0  0  0  0  0  0  0  0  0  0
    2.7952  -17.7818  -37.0416 N   0  0  0  0  0  0  0  0  0  0  0  0
    3.3866  -18.8968  -37.5022 C   0  0  0  0  0  0  0  0  0  0  0  0
    4.6286  -19.4116  -37.5000 N   0  0  0  0  0  0  0  0  0  0  0  0
    4.6639  -20.5590  -38.1010 O   0  0  0  0  0  0  0  0  0  0  0  0
    3.4718  -20.8210  -38.5051 N   0  0  0  0  0  0  0  0  0  0  0  0
    2.6187  -19.8381  -38.1732 C   0  0  0  0  0  0  0  0  0  0  0  0
    1.3107  -19.5859  -38.3300 N   0  0  0  0  0  0  0  0  0  0  0  0
    0.3800  -20.3248  -38.9289 N   0  0  0  0  0  0  0  0  0  0  0  0
   -0.7791  -19.6560  -38.8306 N   0  0  0  0  0  0  0  0  0  0  0  0
   -0.5436  -18.5180  -38.1748 N   0  0  0  0  0  0  0  0  0  0  0  0
    0.7521  -18.4611  -37.8571 C   0  0  0  0  0  0  0  0  0  0  0  0
    0.8410  -16.3299  -36.7056 N   0  0  0  0  0  0  0  0  0  0  0  0
   -0.0169  -16.4313  -36.0915 H   0  0  0  0  0  0  0  0  0  0  0  0
    3.2063  -12.7662  -39.9418 Br  0  0  0  0  0  0  0  0  0  0  0  0
    2.2715  -13.2632  -38.3560 C   0  0  0  0  0  0  0  0  0  0  0  0
    1.9037  -14.5757  -38.1089 C   0  0  0  0  0  0  0  0  0  0  0  0
    1.2335  -15.0065  -36.9960 C   0  0  0  0  0  0  0  0  0  0  0  0
    0.9265  -13.9831  -36.0742 C   0  0  0  0  0  0  0  0  0  0  0  0
    1.2754  -12.6723  -36.2868 C   0  0  0  0  0  0  0  0  0  0  0  0
    1.9508  -12.3054  -37.4293 C   0  0  0  0  0  0  0  0  0  0  0  0
 15 16  1  0  0  0
 16 17  2  0  0  0
 16 21  1  0  0  0
 17 18  1  0  0  0
 18 19  2  0  0  0
 18 13  1  0  0  0
 19 20  1  0  0  0
 20 21  2  0  0  0
 13  1  1  0  0  0
  1  2  2  0  0  0
  1 12  1  0  0  0
  2  3  1  0  0  0
  3  4  2  0  0  0
  3  7  1  0  0  0
  4  5  1  0  0  0
  5  6  1  0  0  0
  6  7  2  0  0  0
  7  8  1  0  0  0
  8  9  1  0  0  0
  8 12  1  0  0  0
  9 10  2  0  0  0
 10 11  1  0  0  0
 11 12  2  0  0  0
 13 14  1  0  0  0
M  END
> <minimizedAffinity>
-5.94915

$$$$
201


 25 28  0  0  0  0  0  0  0  0999 V2000
    0.6604  -17.2174  -37.5578 C   0  0  0  0  0  0  0  0  0  0  0  0
   -0.5338  -17.5670  -37.3868 O   0  0  0  0  0  0  0  0  0  0  0  0
    1.6025  -18.1856  -37.9607 N   0  0  0  0  0  0  0  0  0  0  0  0
    2.5908  -17.8762  -38.0978 H   0  0  0  0  0  0  0  0  0  0  0  0
    1.9683  -13.8380  -37.5068 N   0  0  0  0  0  0  0  0  0  0  0  0
    1.0867  -13.7996  -36.5431 N   0  0  0  0  0  0  0  0  0  0  0  0
    0.4909  -14.9732  -36.4078 N   0  0  0  0  0  0  0  0  0  0  0  0
    1.0089  -15.8205  -37.3299 C   0  0  0  0  0  0  0  0  0  0  0  0
    1.9442  -15.0804  -38.0167 C   0  0  0  0  0  0  0  0  0  0  0  0
    4.6441  -11.5656  -41.5417 Br  0  0  0  0  0  0  0  0  0  0  0  0
    4.0820  -11.6858  -39.7242 C   0  0  0  0  0  0  0  0  0  0  0  0
    3.2370  -12.7170  -39.3009 C   0  0  0  0  0  0  0  0  0  0  0  0
    2.8337  -12.8017  -37.9905 C   0  0  0  0  0  0  0  0  0  0  0  0
    3.2865  -11.8422  -37.1113 C   0  0  0  0  0  0  0  0  0  0  0  0
    4.1322  -10.8060  -37.5222 C   0  0  0  0  0  0  0  0  0  0  0  0
    4.5303  -10.7313  -38.8375 C   0  0  0  0  0  0  0  0  0  0  0  0
    1.2952  -19.5782  -38.1959 C   0  0  0  0  0  0  0  0  0  0  0  0
    2.5376  -20.3587  -38.5280 C   0  0  0  0  0  0  0  0  0  0  0  0
    2.9589  -20.7872  -39.7421 N   0  0  0  0  0  0  0  0  0  0  0  0
    4.1156  -21.4443  -39.6067 C   0  0  0  0  0  0  0  0  0  0  0  0
    4.4057  -21.4177  -38.2838 N   0  0  0  0  0  0  0  0  0  0  0  0
    3.4596  -20.7662  -37.6373 N   0  0  0  0  0  0  0  0  0  0  0  0
    4.6175  -21.9390  -40.9401 C   0  0  0  0  0  0  0  0  0  0  0  0
    3.3539  -21.8537  -41.7700 C   0  0  0  0  0  0  0  0  0  0  0  0
    2.5326  -20.7503  -41.1305 C   0  0  0  0  0  0  0  0  0  0  0  0
 10 11  1  0  0  0
 11 12  2  0  0  0
 11 16  1  0  0  0
 12 13  1  0  0  0
 13 14  2  0  0  0
 13  5  1  0  0  0
 14 15  1  0  0  0
 15 16  2  0  0  0
  5  6  1  0  0  0
  5  9  1  0  0  0
  6  7  2  0  0  0
  7  8  1  0  0  0
  8  9  2  0  0  0
  8  1  1  0  0  0
  1  2  2  0  0  0
  1  3  1  0  0  0
  3 17  1  0  0  0
 17 18  1  0  0  0
 18 19  1  0  0  0
 18 22  2  0  0  0
 19 20  1  0  0  0
 19 25  1  0  0  0
 20 21  2  0  0  0
 20 23  1  0  0  0
 21 22  1  0  0  0
 23 24  1  0  0  0
 24 25  1  0  0  0
  3  4  1  0  0  0
M  END
> <minimizedAffinity>
-6.35412

$$$$
205


 25 28  0  0  0  0  0  0  0  0999 V2000
   -0.0359  -16.6428  -37.1571 N   0  0  0  0  0  0  0  0  0  0  0  0
   -0.9061  -17.6790  -36.6592 C   0  0  0  0  0  0  0  0  0  0  0  0
   -1.4654  -17.6395  -35.5270 O   0  0  0  0  0  0  0  0  0  0  0  0
   -1.0177  -18.7357  -37.6628 C   0  0  0  0  0  0  0  0  0  0  0  0
   -1.1087  -20.0287  -37.2285 O   0  0  0  0  0  0  0  0  0  0  0  0
   -0.4221  -20.7212  -38.2233 N   0  0  0  0  0  0  0  0  0  0  0  0
    0.6947  -19.9519  -38.6006 C   0  0  0  0  0  0  0  0  0  0  0  0
    0.3690  -18.6968  -38.2610 C   0  0  0  0  0  0  0  0  0  0  0  0
    0.7589  -17.2950  -38.1629 C   0  0  0  0  0  0  0  0  0  0  0  0
    1.6483  -16.7457  -38.8464 O   0  0  0  0  0  0  0  0  0  0  0  0
   -0.6850  -21.6353  -38.6125 H   0  0  0  0  0  0  0  0  0  0  0  0
   -2.5776  -12.0507  -36.2094 Br  0  0  0  0  0  0  0  0  0  0  0  0
   -1.0199  -13.1462  -36.3106 C   0  0  0  0  0  0  0  0  0  0  0  0
   -1.0649  -14.4656  -36.6840 C   0  0  0  0  0  0  0  0  0  0  0  0
    0.0570  -15.2874  -36.7687 C   0  0  0  0  0  0  0  0  0  0  0  0
    1.2619  -14.6830  -36.4453 C   0  0  0  0  0  0  0  0  0  0  0  0
    1.3184  -13.3626  -36.0693 C   0  0  0  0  0  0  0  0  0  0  0  0
    0.1862  -12.5569  -35.9913 C   0  0  0  0  0  0  0  0  0  0  0  0
    1.9204  -20.3702  -39.2629 C   0  0  0  0  0  0  0  0  0  0  0  0
    3.1627  -20.4892  -38.6328 C   0  0  0  0  0  0  0  0  0  0  0  0
    4.0401  -20.9142  -39.5200 N   0  0  0  0  0  0  0  0  0  0  0  0
    3.4174  -21.0711  -40.6857 N   0  0  0  0  0  0  0  0  0  0  0  0
    2.1416  -20.7487  -40.5575 C   0  0  0  0  0  0  0  0  0  0  0  0
    5.4614  -21.1711  -39.2935 C   0  0  0  0  0  0  0  0  0  0  0  0
    3.4587  -20.1669  -37.2170 C   0  0  0  0  0  0  0  0  0  0  0  0
 12 13  1  0  0  0
 13 14  2  0  0  0
 13 18  1  0  0  0
 14 15  1  0  0  0
 15 16  2  0  0  0
 15  1  1  0  0  0
 16 17  1  0  0  0
 17 18  2  0  0  0
  1  2  1  0  0  0
  1  9  1  0  0  0
  2  3  2  0  0  0
  2  4  1  0  0  0
  4  5  1  0  0  0
  4  8  1  0  0  0
  5  6  1  0  0  0
  6  7  1  0  0  0
  7  8  2  0  0  0
  7 19  1  0  0  0
  8  9  1  0  0  0
  9 10  2  0  0  0
 19 20  2  0  0  0
 19 23  1  0  0  0
 20 21  1  0  0  0
 20 25  1  0  0  0
 21 22  1  0  0  0
 21 24  1  0  0  0
 22 23  2  0  0  0
  6 11  1  0  0  0
M  END
> <minimizedAffinity>
-6.56728

$$$$
211


 22 25  0  0  0  0  0  0  0  0999 V2000
    2.4094  -18.5770  -37.4368 N   0  0  0  0  0  0  0  0  0  0  0  0
    1.8743  -19.6011  -38.2631 C   0  0  0  0  0  0  0  0  0  0  0  0
    0.6421  -19.6821  -38.6231 O   0  0  0  0  0  0  0  0  0  0  0  0
    2.9515  -20.5321  -38.6286 C   0  0  0  0  0  0  0  0  0  0  0  0
    3.5300  -20.0928  -39.9381 C   0  0  0  0  0  0  0  0  0  0  0  0
    4.1913  -18.9092  -39.5210 O   0  0  0  0  0  0  0  0  0  0  0  0
    5.0703  -19.5391  -38.6004 C   0  0  0  0  0  0  0  0  0  0  0  0
    4.0630  -20.1953  -37.6743 C   0  0  0  0  0  0  0  0  0  0  0  0
    3.5455  -19.1289  -36.7937 C   0  0  0  0  0  0  0  0  0  0  0  0
    4.0345  -18.7874  -35.6850 O   0  0  0  0  0  0  0  0  0  0  0  0
    5.6947  -20.5426  -39.4922 C   0  0  0  0  0  0  0  0  0  0  0  0
    4.7206  -20.8807  -40.3581 C   0  0  0  0  0  0  0  0  0  0  0  0
    1.9918  -13.7371  -39.5555 Br  0  0  0  0  0  0  0  0  0  0  0  0
    1.6331  -14.9803  -38.1512 C   0  0  0  0  0  0  0  0  0  0  0  0
    2.0942  -16.2546  -38.2410 C   0  0  0  0  0  0  0  0  0  0  0  0
    1.8924  -17.2351  -37.2815 C   0  0  0  0  0  0  0  0  0  0  0  0
    1.1697  -16.8595  -36.1723 C   0  0  0  0  0  0  0  0  0  0  0  0
    0.6804  -15.5567  -36.0493 C   0  0  0  0  0  0  0  0  0  0  0  0
    0.9091  -14.6168  -37.0324 C   0  0  0  0  0  0  0  0  0  0  0  0
    2.5479  -19.8637  -41.0232 C   0  0  0  0  0  0  0  0  0  0  0  0
    1.8325  -21.0434  -41.2358 O   0  0  0  0  0  0  0  0  0  0  0  0
    1.7924  -21.2509  -42.2028 H   0  0  0  0  0  0  0  0  0  0  0  0
 13 14  1  0  0  0
 14 15  2  0  0  0
 14 19  1  0  0  0
 15 16  1  0  0  0
 16 17  2  0  0  0
 16  1  1  0  0  0
 17 18  1  0  0  0
 18 19  2  0  0  0
  1  2  1  0  0  0
  1  9  1  0  0  0
  2  3  2  0  0  0
  2  4  1  0  0  0
  4  5  1  0  0  0
  4  8  1  0  0  0
  5  6  1  0  0  0
  5 12  1  0  0  0
  5 20  1  0  0  0
  6  7  1  0  0  0
  7  8  1  0  0  0
  7 11  1  0  0  0
  8  9  1  0  0  0
  9 10  2  0  0  0
 11 12  2  0  0  0
 20 21  1  0  0  0
 21 22  1  0  0  0
M  END
> <minimizedAffinity>
-6.03234

$$$$
213


 25 28  0  0  0  0  0  0  0  0999 V2000
    2.7716  -18.4681  -37.7359 N   0  0  0  0  0  0  0  0  0  0  0  0
    3.9234  -18.8286  -36.9422 C   0  0  0  0  0  0  0  0  0  0  0  0
    3.9715  -19.0608  -35.7293 O   0  0  0  0  0  0  0  0  0  0  0  0
    5.1000  -18.8809  -37.8578 C   0  0  0  0  0  0  0  0  0  0  0  0
    6.0176  -19.8685  -37.5499 O   0  0  0  0  0  0  0  0  0  0  0  0
    6.5175  -20.1783  -38.7927 N   0  0  0  0  0  0  0  0  0  0  0  0
    5.3539  -20.2564  -39.6355 C   0  0  0  0  0  0  0  0  0  0  0  0
    4.4536  -19.4713  -39.0949 C   0  0  0  0  0  0  0  0  0  0  0  0
    3.1132  -18.8733  -39.0803 C   0  0  0  0  0  0  0  0  0  0  0  0
    2.4233  -18.7599  -40.0990 O   0  0  0  0  0  0  0  0  0  0  0  0
    7.4899  -20.3264  -39.0831 H   0  0  0  0  0  0  0  0  0  0  0  0
   -2.4818  -18.7541  -37.2183 Br  0  0  0  0  0  0  0  0  0  0  0  0
   -0.8099  -17.8804  -36.9685 C   0  0  0  0  0  0  0  0  0  0  0  0
    0.3727  -18.4695  -37.4270 C   0  0  0  0  0  0  0  0  0  0  0  0
    1.5920  -17.8536  -37.2573 C   0  0  0  0  0  0  0  0  0  0  0  0
    1.6060  -16.6381  -36.6197 C   0  0  0  0  0  0  0  0  0  0  0  0
    0.4225  -16.0441  -36.1582 C   0  0  0  0  0  0  0  0  0  0  0  0
   -0.7974  -16.6627  -36.3293 C   0  0  0  0  0  0  0  0  0  0  0  0
    5.1628  -21.0315  -40.8316 C   0  0  0  0  0  0  0  0  0  0  0  0
    4.2754  -22.1037  -40.8948 C   0  0  0  0  0  0  0  0  0  0  0  0
    4.2929  -22.6289  -42.1332 N   0  0  0  0  0  0  0  0  0  0  0  0
    5.1631  -21.9064  -42.8175 N   0  0  0  0  0  0  0  0  0  0  0  0
    5.7132  -20.9373  -42.0890 C   0  0  0  0  0  0  0  0  0  0  0  0
    6.7288  -19.9168  -42.5171 C   0  0  0  0  0  0  0  0  0  0  0  0
    3.5018  -23.7742  -42.6121 C   0  0  0  0  0  0  0  0  0  0  0  0
 12 13  1  0  0  0
 13 14  2  0  0  0
 13 18  1  0  0  0
 14 15  1  0  0  0
 15 16  2  0  0  0
 15  1  1  0  0  0
 16 17  1  0  0  0
 17 18  2  0  0  0
  1  2  1  0  0  0
  1  9  1  0  0  0
  2  3  2  0  0  0
  2  4  1  0  0  0
  4  5  1  0  0  0
  4  8  1  0  0  0
  5  6  1  0  0  0
  6  7  1  0  0  0
  7  8  2  0  0  0
  7 19  1  0  0  0
  8  9  1  0  0  0
  9 10  2  0  0  0
 19 20  2  0  0  0
 19 23  1  0  0  0
 20 21  1  0  0  0
 21 22  1  0  0  0
 21 25  1  0  0  0
 22 23  2  0  0  0
 23 24  1  0  0  0
  6 11  1  0  0  0
M  END
> <minimizedAffinity>
-6.26968

$$$$
216


 28 31  0  0  0  0  0  0  0  0999 V2000
    1.1346  -17.2999  -37.9971 C   0  0  0  0  0  0  0  0  0  0  0  0
    0.0666  -17.3487  -38.6570 O   0  0  0  0  0  0  0  0  0  0  0  0
    1.9126  -18.4518  -37.7549 N   0  0  0  0  0  0  0  0  0  0  0  0
    3.1558  -18.4326  -36.9967 C   0  0  0  0  0  0  0  0  0  0  0  0
    4.0454  -19.5693  -37.4837 C   0  0  0  0  0  0  0  0  0  0  0  0
    3.7866  -19.9336  -38.8628 N   0  0  0  0  0  0  0  0  0  0  0  0
    2.5010  -20.5310  -38.9556 C   0  0  0  0  0  0  0  0  0  0  0  0
    1.4290  -19.7245  -38.3050 C   0  0  0  0  0  0  0  0  0  0  0  0
    1.8571  -13.7986  -37.6577 N   0  0  0  0  0  0  0  0  0  0  0  0
    1.4140  -14.8846  -38.5191 C   0  0  0  0  0  0  0  0  0  0  0  0
    1.5639  -16.0156  -37.4802 C   0  0  0  0  0  0  0  0  0  0  0  0
    0.6268  -15.4236  -36.4215 C   0  0  0  0  0  0  0  0  0  0  0  0
    1.1294  -14.0221  -36.4552 C   0  0  0  0  0  0  0  0  0  0  0  0
    0.9404  -13.1668  -35.5600 O   0  0  0  0  0  0  0  0  0  0  0  0
    4.6283  -11.7055  -41.5892 Br  0  0  0  0  0  0  0  0  0  0  0  0
    4.1378  -11.7645  -39.7662 C   0  0  0  0  0  0  0  0  0  0  0  0
    3.2086  -12.7081  -39.3427 C   0  0  0  0  0  0  0  0  0  0  0  0
    2.8002  -12.8124  -38.0260 C   0  0  0  0  0  0  0  0  0  0  0  0
    3.3735  -11.9191  -37.1479 C   0  0  0  0  0  0  0  0  0  0  0  0
    4.3004  -10.9594  -37.4987 C   0  0  0  0  0  0  0  0  0  0  0  0
    4.6774  -10.8920  -38.8224 C   0  0  0  0  0  0  0  0  0  0  0  0
    4.0823  -18.8806  -39.7679 C   0  0  0  0  0  0  0  0  0  0  0  0
    5.1838  -19.2009  -40.7460 C   0  0  0  0  0  0  0  0  0  0  0  0
    5.0257  -20.4612  -41.4133 N   0  0  0  0  0  0  0  0  0  0  0  0
    5.7189  -21.5875  -41.2369 C   0  0  0  0  0  0  0  0  0  0  0  0
    5.2528  -22.5397  -42.0734 N   0  0  0  0  0  0  0  0  0  0  0  0
    4.2524  -22.0129  -42.7892 C   0  0  0  0  0  0  0  0  0  0  0  0
    4.1189  -20.7104  -42.3681 C   0  0  0  0  0  0  0  0  0  0  0  0
 15 16  1  0  0  0
 16 17  2  0  0  0
 16 21  1  0  0  0
 17 18  1  0  0  0
 18 19  2  0  0  0
 18  9  1  0  0  0
 19 20  1  0  0  0
 20 21  2  0  0  0
  9 10  1  0  0  0
  9 13  1  0  0  0
 10 11  1  0  0  0
 11 12  1  0  0  0
 11  1  1  0  0  0
 12 13  1  0  0  0
 13 14  2  0  0  0
  1  2  2  0  0  0
  1  3  1  0  0  0
  3  4  1  0  0  0
  3  8  1  0  0  0
  4  5  1  0  0  0
  5  6  1  0  0  0
  6  7  1  0  0  0
  6 22  1  0  0  0
  7  8  1  0  0  0
 22 23  1  0  0  0
 23 24  1  0  0  0
 24 25  1  0  0  0
 24 28  1  0  0  0
 25 26  2  0  0  0
 26 27  1  0  0  0
 27 28  2  0  0  0
M  END
> <minimizedAffinity>
-6.94401

$$$$
219


 27 30  0  0  0  0  0  0  0  0999 V2000
   -0.0860  -17.9658  -38.1993 N   0  0  0  0  0  0  0  0  0  0  0  0
    0.2179  -19.3327  -38.4477 C   0  0  0  0  0  0  0  0  0  0  0  0
   -0.2742  -20.1583  -37.6018 O   0  0  0  0  0  0  0  0  0  0  0  0
    0.2847  -17.2502  -38.8592 H   0  0  0  0  0  0  0  0  0  0  0  0
    1.0333  -19.8291  -39.5752 C   0  0  0  0  0  0  0  0  0  0  0  0
    2.4169  -20.0593  -39.2606 N   0  0  0  0  0  0  0  0  0  0  0  0
    3.1426  -19.2152  -38.3511 C   0  0  0  0  0  0  0  0  0  0  0  0
    2.8327  -18.0635  -37.9559 O   0  0  0  0  0  0  0  0  0  0  0  0
    4.3477  -19.9369  -37.9431 C   0  0  0  0  0  0  0  0  0  0  0  0
    4.3182  -21.3009  -38.6613 C   0  0  0  0  0  0  0  0  0  0  0  0
    5.6524  -21.4622  -39.3000 C   0  0  0  0  0  0  0  0  0  0  0  0
    6.5317  -20.6248  -38.3473 C   0  0  0  0  0  0  0  0  0  0  0  0
    5.6357  -19.3774  -38.4821 C   0  0  0  0  0  0  0  0  0  0  0  0
    5.5373  -19.3342  -39.9804 C   0  0  0  0  0  0  0  0  0  0  0  0
    5.6956  -20.5572  -40.4756 C   0  0  0  0  0  0  0  0  0  0  0  0
    3.2979  -21.0924  -39.7216 C   0  0  0  0  0  0  0  0  0  0  0  0
    3.1991  -21.6817  -40.8118 O   0  0  0  0  0  0  0  0  0  0  0  0
   -0.8765  -17.5382  -37.0852 C   0  0  0  0  0  0  0  0  0  0  0  0
    0.0038  -16.8327  -36.0416 C   0  0  0  0  0  0  0  0  0  0  0  0
    0.5710  -15.7752  -36.5237 O   0  0  0  0  0  0  0  0  0  0  0  0
    2.8245  -13.7152  -40.7365 Br  0  0  0  0  0  0  0  0  0  0  0  0
    2.3043  -13.7099  -38.8993 C   0  0  0  0  0  0  0  0  0  0  0  0
    1.6128  -14.7485  -38.3384 C   0  0  0  0  0  0  0  0  0  0  0  0
    1.2171  -14.7707  -36.9887 C   0  0  0  0  0  0  0  0  0  0  0  0
    1.5903  -13.6318  -36.2468 C   0  0  0  0  0  0  0  0  0  0  0  0
    2.2847  -12.5879  -36.8070 C   0  0  0  0  0  0  0  0  0  0  0  0
    2.6449  -12.6239  -38.1393 C   0  0  0  0  0  0  0  0  0  0  0  0
 21 22  1  0  0  0
 22 23  2  0  0  0
 22 27  1  0  0  0
 23 24  1  0  0  0
 24 25  2  0  0  0
 24 20  1  0  0  0
 25 26  1  0  0  0
 26 27  2  0  0  0
 20 19  1  0  0  0
 19 18  1  0  0  0
 18  1  1  0  0  0
  1  2  1  0  0  0
  2  3  2  0  0  0
  2  5  1  0  0  0
  5  6  1  0  0  0
  6  7  1  0  0  0
  6 16  1  0  0  0
  7  8  2  0  0  0
  7  9  1  0  0  0
  9 10  1  0  0  0
  9 13  1  0  0  0
 10 11  1  0  0  0
 10 16  1  0  0  0
 11 12  1  0  0  0
 11 15  1  0  0  0
 12 13  1  0  0  0
 13 14  1  0  0  0
 14 15  2  0  0  0
 16 17  2  0  0  0
  1  4  1  0  0  0
M  END
> <minimizedAffinity>
-6.63333

$$$$
226


 30 33  0  0  0  0  0  0  0  0999 V2000
    0.6573  -18.2861  -37.8112 N   0  0  0  0  0  0  0  0  0  0  0  0
   -0.6637  -18.5255  -37.7620 C   0  0  0  0  0  0  0  0  0  0  0  0
   -0.9200  -19.8154  -38.1859 C   0  0  0  0  0  0  0  0  0  0  0  0
    0.2806  -20.3272  -38.4833 N   0  0  0  0  0  0  0  0  0  0  0  0
    1.2536  -19.4244  -38.2662 C   0  0  0  0  0  0  0  0  0  0  0  0
   -2.1830  -20.2779  -38.2179 N   0  0  0  0  0  0  0  0  0  0  0  0
   -3.2098  -19.4958  -37.8411 C   0  0  0  0  0  0  0  0  0  0  0  0
   -4.4031  -19.8874  -37.8555 O   0  0  0  0  0  0  0  0  0  0  0  0
   -2.9714  -18.2230  -37.4206 N   0  0  0  0  0  0  0  0  0  0  0  0
   -1.7270  -17.7151  -37.3711 C   0  0  0  0  0  0  0  0  0  0  0  0
   -1.5452  -16.5184  -36.9739 O   0  0  0  0  0  0  0  0  0  0  0  0
   -2.4845  -21.6246  -38.6581 C   0  0  0  0  0  0  0  0  0  0  0  0
   -3.7980  -17.6481  -37.1351 H   0  0  0  0  0  0  0  0  0  0  0  0
    2.6509  -19.5628  -38.4468 N   0  0  0  0  0  0  0  0  0  0  0  0
    3.2005  -19.3969  -39.7535 C   0  0  0  0  0  0  0  0  0  0  0  0
    4.6669  -19.1967  -39.8513 C   0  0  0  0  0  0  0  0  0  0  0  0
    5.4424  -19.7211  -38.7663 N   0  0  0  0  0  0  0  0  0  0  0  0
    4.8711  -19.2281  -37.5281 C   0  0  0  0  0  0  0  0  0  0  0  0
    3.4922  -19.8596  -37.3285 C   0  0  0  0  0  0  0  0  0  0  0  0
    5.5751  -21.1498  -38.7900 C   0  0  0  0  0  0  0  0  0  0  0  0
    1.3364  -17.0742  -37.4489 C   0  0  0  0  0  0  0  0  0  0  0  0
    1.3630  -16.0632  -38.5515 C   0  0  0  0  0  0  0  0  0  0  0  0
    0.9565  -16.3535  -39.6884 O   0  0  0  0  0  0  0  0  0  0  0  0
    3.5140  -10.3416  -37.5650 Br  0  0  0  0  0  0  0  0  0  0  0  0
    2.8431  -12.1001  -37.8367 C   0  0  0  0  0  0  0  0  0  0  0  0
    2.9622  -12.7094  -39.0775 C   0  0  0  0  0  0  0  0  0  0  0  0
    2.4833  -13.9887  -39.3061 C   0  0  0  0  0  0  0  0  0  0  0  0
    1.8670  -14.7122  -38.3148 C   0  0  0  0  0  0  0  0  0  0  0  0
    1.7543  -14.0939  -37.0822 C   0  0  0  0  0  0  0  0  0  0  0  0
    2.2261  -12.8239  -36.8406 C   0  0  0  0  0  0  0  0  0  0  0  0
 24 25  1  0  0  0
 25 26  2  0  0  0
 25 30  1  0  0  0
 26 27  1  0  0  0
 27 28  2  0  0  0
 28 29  1  0  0  0
 28 22  1  0  0  0
 29 30  2  0  0  0
 22 23  2  0  0  0
 22 21  1  0  0  0
 21  1  1  0  0  0
  1  2  1  0  0  0
  1  5  1  0  0  0
  2  3  2  0  0  0
  2 10  1  0  0  0
  3  4  1  0  0  0
  3  6  1  0  0  0
  4  5  2  0  0  0
  5 14  1  0  0  0
 14 15  1  0  0  0
 14 19  1  0  0  0
 15 16  1  0  0  0
 16 17  1  0  0  0
 17 18  1  0  0  0
 17 20  1  0  0  0
 18 19  1  0  0  0
  6  7  1  0  0  0
  6 12  1  0  0  0
  7  8  2  0  0  0
  7  9  1  0  0  0
  9 10  1  0  0  0
 10 11  2  0  0  0
  9 13  1  0  0  0
M  END
> <minimizedAffinity>
-6.52294

$$$$
231


 34 37  0  0  0  0  0  0  0  0999 V2000
    1.6116  -14.6986  -37.1335 C   0  0  0  0  0  0  0  0  0  0  0  0
    2.0168  -16.0404  -37.6932 C   0  0  0  0  0  0  0  0  0  0  0  0
    1.8344  -16.9123  -36.5554 N   0  0  0  0  0  0  0  0  0  0  0  0
    0.7183  -16.4005  -35.8343 C   0  0  0  0  0  0  0  0  0  0  0  0
    0.1485  -16.9646  -34.8496 O   0  0  0  0  0  0  0  0  0  0  0  0
    0.3394  -15.1051  -36.4306 C   0  0  0  0  0  0  0  0  0  0  0  0
   -0.7572  -14.5289  -36.3506 O   0  0  0  0  0  0  0  0  0  0  0  0
    1.2833  -16.4439  -38.8828 C   0  0  0  0  0  0  0  0  0  0  0  0
    0.0387  -17.0854  -38.8074 C   0  0  0  0  0  0  0  0  0  0  0  0
   -0.6531  -17.4614  -39.9401 C   0  0  0  0  0  0  0  0  0  0  0  0
   -0.1428  -17.2165  -41.2016 C   0  0  0  0  0  0  0  0  0  0  0  0
    1.0792  -16.5858  -41.2989 C   0  0  0  0  0  0  0  0  0  0  0  0
    1.7625  -16.2149  -40.1514 C   0  0  0  0  0  0  0  0  0  0  0  0
   -0.8184  -17.5850  -42.3582 O   0  0  0  0  0  0  0  0  0  0  0  0
   -1.8814  -18.0953  -39.8726 O   0  0  0  0  0  0  0  0  0  0  0  0
   -2.0842  -19.3343  -39.2425 C   0  0  0  0  0  0  0  0  0  0  0  0
    1.3857  -13.6597  -38.1213 C   0  0  0  0  0  0  0  0  0  0  0  0
    0.2510  -13.4586  -38.6012 O   0  0  0  0  0  0  0  0  0  0  0  0
    6.0528  -10.2064  -40.1003 Br  0  0  0  0  0  0  0  0  0  0  0  0
    4.6101  -11.2636  -39.4661 C   0  0  0  0  0  0  0  0  0  0  0  0
    3.9659  -12.1021  -40.3439 C   0  0  0  0  0  0  0  0  0  0  0  0
    2.9221  -12.8711  -39.8992 C   0  0  0  0  0  0  0  0  0  0  0  0
    2.4895  -12.8301  -38.5687 C   0  0  0  0  0  0  0  0  0  0  0  0
    3.1781  -11.9683  -37.7393 C   0  0  0  0  0  0  0  0  0  0  0  0
    4.2345  -11.1776  -38.1519 C   0  0  0  0  0  0  0  0  0  0  0  0
    2.5799  -18.0792  -36.1545 C   0  0  0  0  0  0  0  0  0  0  0  0
    3.4284  -18.6531  -37.2482 C   0  0  0  0  0  0  0  0  0  0  0  0
    3.0949  -19.9632  -37.6552 N   0  0  0  0  0  0  0  0  0  0  0  0
    4.3019  -20.5900  -38.2041 C   0  0  0  0  0  0  0  0  0  0  0  0
    4.7029  -20.0071  -39.5187 C   0  0  0  0  0  0  0  0  0  0  0  0
    3.7415  -19.2360  -40.1247 O   0  0  0  0  0  0  0  0  0  0  0  0
    2.5037  -19.8243  -40.0405 C   0  0  0  0  0  0  0  0  0  0  0  0
    2.0662  -20.0898  -38.6253 C   0  0  0  0  0  0  0  0  0  0  0  0
    2.8373  -20.5662  -36.8249 H   0  0  0  0  0  0  0  0  0  0  0  0
 19 20  1  0  0  0
 20 21  2  0  0  0
 20 25  1  0  0  0
 21 22  1  0  0  0
 22 23  2  0  0  0
 23 24  1  0  0  0
 23 17  1  0  0  0
 24 25  2  0  0  0
 17 18  2  0  0  0
 17  1  1  0  0  0
  1  2  1  0  0  0
  1  6  1  0  0  0
  2  3  1  0  0  0
  2  8  1  0  0  0
  3  4  1  0  0  0
  3 26  1  0  0  0
  4  5  2  0  0  0
  4  6  1  0  0  0
  6  7  2  0  0  0
 26 27  1  0  0  0
 27 28  1  0  0  0
 28 29  1  0  0  0
 28 33  1  0  0  0
 29 30  1  0  0  0
 30 31  1  0  0  0
 31 32  1  0  0  0
 32 33  1  0  0  0
  8  9  2  0  0  0
  8 13  1  0  0  0
  9 10  1  0  0  0
 10 11  2  0  0  0
 10 15  1  0  0  0
 11 12  1  0  0  0
 11 14  1  0  0  0
 12 13  2  0  0  0
 15 16  1  0  0  0
 28 34  1  0  0  0
M  CHG 1  14  -1
M  CHG 1  28   1
M  END
> <minimizedAffinity>
-6.09070

$$$$
235


 25 28  0  0  0  0  0  0  0  0999 V2000
    0.6798  -14.3206  -37.9944 C   0  0  0  0  0  0  0  0  0  0  0  0
    0.1988  -15.4093  -37.1584 N   0  0  0  0  0  0  0  0  0  0  0  0
    0.5540  -15.9985  -35.9625 N   0  0  0  0  0  0  0  0  0  0  0  0
   -0.1449  -16.9091  -35.3817 C   0  0  0  0  0  0  0  0  0  0  0  0
   -1.3689  -17.3705  -35.9951 C   0  0  0  0  0  0  0  0  0  0  0  0
   -1.7596  -16.8778  -37.1475 C   0  0  0  0  0  0  0  0  0  0  0  0
   -0.9948  -15.8726  -37.8615 C   0  0  0  0  0  0  0  0  0  0  0  0
   -1.6883  -14.5846  -38.1330 C   0  0  0  0  0  0  0  0  0  0  0  0
   -0.5906  -13.5147  -38.1537 C   0  0  0  0  0  0  0  0  0  0  0  0
   -0.8889  -12.6805  -36.9916 C   0  0  0  0  0  0  0  0  0  0  0  0
   -0.1030  -11.8423  -36.4694 O   0  0  0  0  0  0  0  0  0  0  0  0
   -2.2005  -12.9667  -36.5465 N   0  0  0  0  0  0  0  0  0  0  0  0
   -2.6523  -14.1979  -37.0957 C   0  0  0  0  0  0  0  0  0  0  0  0
   -3.6784  -14.8394  -36.7635 O   0  0  0  0  0  0  0  0  0  0  0  0
    1.7545  -13.5695  -37.3312 C   0  0  0  0  0  0  0  0  0  0  0  0
    1.8271  -13.6827  -36.0644 O   0  0  0  0  0  0  0  0  0  0  0  0
    5.8800  -10.0252  -40.2528 Br  0  0  0  0  0  0  0  0  0  0  0  0
    4.6001  -11.1291  -39.3652 C   0  0  0  0  0  0  0  0  0  0  0  0
    4.3157  -10.9586  -38.0279 C   0  0  0  0  0  0  0  0  0  0  0  0
    3.4020  -11.7290  -37.3451 C   0  0  0  0  0  0  0  0  0  0  0  0
    2.7217  -12.7256  -37.9960 C   0  0  0  0  0  0  0  0  0  0  0  0
    2.9992  -12.9066  -39.3416 C   0  0  0  0  0  0  0  0  0  0  0  0
    3.9144  -12.1314  -40.0158 C   0  0  0  0  0  0  0  0  0  0  0  0
   -2.9903  -12.1424  -35.6620 C   0  0  0  0  0  0  0  0  0  0  0  0
   -3.7256  -11.0424  -36.3655 C   0  0  0  0  0  0  0  0  0  0  0  0
 17 18  1  0  0  0
 18 19  2  0  0  0
 18 23  1  0  0  0
 19 20  1  0  0  0
 20 21  2  0  0  0
 21 22  1  0  0  0
 21 15  1  0  0  0
 22 23  2  0  0  0
 15 16  2  0  0  0
 15  1  1  0  0  0
  1  2  1  0  0  0
  1  9  1  0  0  0
  2  3  1  0  0  0
  2  7  1  0  0  0
  3  4  2  0  0  0
  4  5  1  0  0  0
  5  6  2  0  0  0
  6  7  1  0  0  0
  7  8  1  0  0  0
  8  9  1  0  0  0
  8 13  1  0  0  0
  9 10  1  0  0  0
 10 11  2  0  0  0
 10 12  1  0  0  0
 12 13  1  0  0  0
 12 24  1  0  0  0
 13 14  2  0  0  0
 24 25  1  0  0  0
M  END
> <minimizedAffinity>
-5.95897

$$$$
243


 30 33  0  0  0  0  0  0  0  0999 V2000
    1.0666  -15.9690  -37.2179 C   0  0  0  0  0  0  0  0  0  0  0  0
    1.9539  -16.7918  -36.3162 C   0  0  0  0  0  0  0  0  0  0  0  0
    2.4110  -17.8764  -37.1584 N   0  0  0  0  0  0  0  0  0  0  0  0
    1.5429  -18.0053  -38.3169 C   0  0  0  0  0  0  0  0  0  0  0  0
    0.5549  -16.8922  -38.2886 C   0  0  0  0  0  0  0  0  0  0  0  0
    2.4329  -17.9764  -39.4997 C   0  0  0  0  0  0  0  0  0  0  0  0
    2.1562  -17.2216  -40.4583 O   0  0  0  0  0  0  0  0  0  0  0  0
    3.5744  -18.8143  -39.4967 N   0  0  0  0  0  0  0  0  0  0  0  0
    4.1393  -19.3962  -38.3011 C   0  0  0  0  0  0  0  0  0  0  0  0
    3.4841  -18.8069  -37.0985 C   0  0  0  0  0  0  0  0  0  0  0  0
    3.8923  -19.1382  -35.9278 O   0  0  0  0  0  0  0  0  0  0  0  0
    4.0128  -19.0035  -40.4364 H   0  0  0  0  0  0  0  0  0  0  0  0
    2.0175  -13.6905  -37.1923 C   0  0  0  0  0  0  0  0  0  0  0  0
    1.6069  -13.5144  -35.9955 O   0  0  0  0  0  0  0  0  0  0  0  0
    1.7799  -14.8948  -37.8598 N   0  0  0  0  0  0  0  0  0  0  0  0
    2.1136  -15.0341  -38.8280 H   0  0  0  0  0  0  0  0  0  0  0  0
    5.0421   -8.9256  -39.7680 Br  0  0  0  0  0  0  0  0  0  0  0  0
    4.1273  -10.3760  -38.9494 C   0  0  0  0  0  0  0  0  0  0  0  0
    4.1914  -10.6453  -37.5975 C   0  0  0  0  0  0  0  0  0  0  0  0
    3.5143  -11.7076  -37.0341 C   0  0  0  0  0  0  0  0  0  0  0  0
    2.7379  -12.5587  -37.7928 C   0  0  0  0  0  0  0  0  0  0  0  0
    2.6743  -12.2904  -39.1407 C   0  0  0  0  0  0  0  0  0  0  0  0
    3.3441  -11.2352  -39.7121 C   0  0  0  0  0  0  0  0  0  0  0  0
    4.0458  -20.9027  -38.3279 C   0  0  0  0  0  0  0  0  0  0  0  0
    4.4318  -21.4487  -39.6596 C   0  0  0  0  0  0  0  0  0  0  0  0
    3.4605  -21.9423  -40.5315 C   0  0  0  0  0  0  0  0  0  0  0  0
    3.8747  -22.4343  -41.7495 C   0  0  0  0  0  0  0  0  0  0  0  0
    5.2017  -22.4585  -42.1417 C   0  0  0  0  0  0  0  0  0  0  0  0
    6.1220  -21.9612  -41.2489 C   0  0  0  0  0  0  0  0  0  0  0  0
    5.7679  -21.4571  -40.0170 C   0  0  0  0  0  0  0  0  0  0  0  0
 17 18  1  0  0  0
 18 19  2  0  0  0
 18 23  1  0  0  0
 19 20  1  0  0  0
 20 21  2  0  0  0
 21 22  1  0  0  0
 21 13  1  0  0  0
 22 23  2  0  0  0
 13 14  2  0  0  0
 13 15  1  0  0  0
 15  1  1  0  0  0
  1  2  1  0  0  0
  1  5  1  0  0  0
  2  3  1  0  0  0
  3  4  1  0  0  0
  3 10  1  0  0  0
  4  5  1  0  0  0
  4  6  1  0  0  0
  6  7  2  0  0  0
  6  8  1  0  0  0
  8  9  1  0  0  0
  9 10  1  0  0  0
  9 24  1  0  0  0
 10 11  2  0  0  0
 24 25  1  0  0  0
 25 26  2  0  0  0
 25 30  1  0  0  0
 26 27  1  0  0  0
 27 28  2  0  0  0
 28 29  1  0  0  0
 29 30  2  0  0  0
 15 16  1  0  0  0
  8 12  1  0  0  0
M  END
> <minimizedAffinity>
-7.29958

$$$$
244


 25 28  0  0  0  0  0  0  0  0999 V2000
    1.0746  -15.9573  -37.0409 C   0  0  0  0  0  0  0  0  0  0  0  0
    1.8479  -16.8226  -36.0733 C   0  0  0  0  0  0  0  0  0  0  0  0
    2.3560  -17.8860  -36.9217 N   0  0  0  0  0  0  0  0  0  0  0  0
    1.4782  -18.0396  -38.0651 C   0  0  0  0  0  0  0  0  0  0  0  0
    0.4958  -16.9172  -38.0513 C   0  0  0  0  0  0  0  0  0  0  0  0
    2.3473  -18.0388  -39.2692 C   0  0  0  0  0  0  0  0  0  0  0  0
    2.0994  -17.3757  -40.3033 O   0  0  0  0  0  0  0  0  0  0  0  0
    3.5278  -18.8199  -39.2797 N   0  0  0  0  0  0  0  0  0  0  0  0
    4.2398  -19.1681  -38.0676 C   0  0  0  0  0  0  0  0  0  0  0  0
    4.3871  -20.6464  -38.2414 C   0  0  0  0  0  0  0  0  0  0  0  0
    4.7299  -20.7453  -39.7327 C   0  0  0  0  0  0  0  0  0  0  0  0
    4.2675  -19.4231  -40.3529 C   0  0  0  0  0  0  0  0  0  0  0  0
    3.4760  -18.7604  -36.8616 C   0  0  0  0  0  0  0  0  0  0  0  0
    3.8219  -19.2009  -35.7122 O   0  0  0  0  0  0  0  0  0  0  0  0
    2.0512  -13.7075  -37.2198 C   0  0  0  0  0  0  0  0  0  0  0  0
    1.4757  -13.3865  -36.1592 O   0  0  0  0  0  0  0  0  0  0  0  0
    1.8915  -15.0183  -37.7369 N   0  0  0  0  0  0  0  0  0  0  0  0
    2.3569  -15.3301  -38.6262 H   0  0  0  0  0  0  0  0  0  0  0  0
    5.5155   -9.6106  -40.2978 Br  0  0  0  0  0  0  0  0  0  0  0  0
    4.4650  -10.8380  -39.3013 C   0  0  0  0  0  0  0  0  0  0  0  0
    3.8216  -11.8770  -39.9516 C   0  0  0  0  0  0  0  0  0  0  0  0
    3.0472  -12.7947  -39.2766 C   0  0  0  0  0  0  0  0  0  0  0  0
    2.8878  -12.7071  -37.9114 C   0  0  0  0  0  0  0  0  0  0  0  0
    3.5184  -11.6870  -37.2653 C   0  0  0  0  0  0  0  0  0  0  0  0
    4.3047  -10.7496  -37.9313 C   0  0  0  0  0  0  0  0  0  0  0  0
 19 20  1  0  0  0
 20 21  2  0  0  0
 20 25  1  0  0  0
 21 22  1  0  0  0
 22 23  2  0  0  0
 23 24  1  0  0  0
 23 15  1  0  0  0
 24 25  2  0  0  0
 15 16  2  0  0  0
 15 17  1  0  0  0
 17  1  1  0  0  0
  1  2  1  0  0  0
  1  5  1  0  0  0
  2  3  1  0  0  0
  3  4  1  0  0  0
  3 13  1  0  0  0
  4  5  1  0  0  0
  4  6  1  0  0  0
  6  7  2  0  0  0
  6  8  1  0  0  0
  8  9  1  0  0  0
  8 12  1  0  0  0
  9 10  1  0  0  0
  9 13  1  0  0  0
 10 11  1  0  0  0
 11 12  1  0  0  0
 13 14  2  0  0  0
 17 18  1  0  0  0
M  END
> <minimizedAffinity>
-7.27581

$$$$
247


 23 26  0  0  0  0  0  0  0  0999 V2000
    2.3877  -18.2941  -37.5680 N   0  0  0  0  0  0  0  0  0  0  0  0
    1.8704  -19.2566  -38.4796 C   0  0  0  0  0  0  0  0  0  0  0  0
    0.8647  -18.9977  -39.2246 O   0  0  0  0  0  0  0  0  0  0  0  0
    2.6542  -20.5172  -38.4095 C   0  0  0  0  0  0  0  0  0  0  0  0
    3.7872  -20.1307  -37.4782 C   0  0  0  0  0  0  0  0  0  0  0  0
    4.8854  -19.8378  -38.4778 C   0  0  0  0  0  0  0  0  0  0  0  0
    4.7609  -21.1426  -39.2921 C   0  0  0  0  0  0  0  0  0  0  0  0
    3.3173  -20.8219  -39.7231 C   0  0  0  0  0  0  0  0  0  0  0  0
    3.5920  -19.4878  -40.3658 C   0  0  0  0  0  0  0  0  0  0  0  0
    4.4211  -18.8838  -39.5230 C   0  0  0  0  0  0  0  0  0  0  0  0
    3.3535  -18.9246  -36.7511 C   0  0  0  0  0  0  0  0  0  0  0  0
    3.7737  -18.5561  -35.6331 O   0  0  0  0  0  0  0  0  0  0  0  0
    0.9514  -16.5073  -36.6528 C   0  0  0  0  0  0  0  0  0  0  0  0
    0.2136  -17.3439  -36.0376 O   0  0  0  0  0  0  0  0  0  0  0  0
    2.0528  -16.9218  -37.4315 N   0  0  0  0  0  0  0  0  0  0  0  0
    2.6409  -16.2185  -37.9137 H   0  0  0  0  0  0  0  0  0  0  0  0
   -0.6401  -10.5925  -36.1744 Br  0  0  0  0  0  0  0  0  0  0  0  0
   -0.1172  -12.4266  -36.3151 C   0  0  0  0  0  0  0  0  0  0  0  0
   -1.0712  -13.3952  -36.4305 C   0  0  0  0  0  0  0  0  0  0  0  0
   -0.7121  -14.7231  -36.5360 C   0  0  0  0  0  0  0  0  0  0  0  0
    0.6252  -15.1072  -36.5272 C   0  0  0  0  0  0  0  0  0  0  0  0
    1.5732  -14.1169  -36.4103 C   0  0  0  0  0  0  0  0  0  0  0  0
    1.2278  -12.7945  -36.3045 C   0  0  0  0  0  0  0  0  0  0  0  0
 17 18  1  0  0  0
 18 19  2  0  0  0
 18 23  1  0  0  0
 19 20  1  0  0  0
 20 21  2  0  0  0
 21 22  1  0  0  0
 21 13  1  0  0  0
 22 23  2  0  0  0
 13 14  2  0  0  0
 13 15  1  0  0  0
 15  1  1  0  0  0
  1  2  1  0  0  0
  1 11  1  0  0  0
  2  3  2  0  0  0
  2  4  1  0  0  0
  4  5  1  0  0  0
  4  8  1  0  0  0
  5  6  1  0  0  0
  5 11  1  0  0  0
  6  7  1  0  0  0
  6 10  1  0  0  0
  7  8  1  0  0  0
  8  9  1  0  0  0
  9 10  2  0  0  0
 11 12  2  0  0  0
 15 16  1  0  0  0
M  END
> <minimizedAffinity>
-6.47600

$$$$
257


 31 34  0  0  0  0  0  0  0  0999 V2000
    1.1282  -16.6810  -38.5678 C   0  0  0  0  0  0  0  0  0  0  0  0
    1.8019  -17.6256  -37.9636 C   0  0  0  0  0  0  0  0  0  0  0  0
    2.2628  -18.9407  -38.5133 C   0  0  0  0  0  0  0  0  0  0  0  0
    3.5759  -19.0525  -37.8892 N   0  0  0  0  0  0  0  0  0  0  0  0
    3.3768  -18.5588  -36.5495 C   0  0  0  0  0  0  0  0  0  0  0  0
    4.0713  -18.8811  -35.5718 O   0  0  0  0  0  0  0  0  0  0  0  0
    2.2324  -17.6347  -36.5738 C   0  0  0  0  0  0  0  0  0  0  0  0
    1.7322  -16.9955  -35.6113 O   0  0  0  0  0  0  0  0  0  0  0  0
    0.7560  -16.8725  -39.9129 O   0  0  0  0  0  0  0  0  0  0  0  0
   -0.5041  -11.5028  -35.5927 Br  0  0  0  0  0  0  0  0  0  0  0  0
   -0.0167  -13.1077  -36.4966 C   0  0  0  0  0  0  0  0  0  0  0  0
   -0.8703  -14.1802  -36.6423 C   0  0  0  0  0  0  0  0  0  0  0  0
   -0.5005  -15.3335  -37.2991 C   0  0  0  0  0  0  0  0  0  0  0  0
    0.7788  -15.4649  -37.8543 C   0  0  0  0  0  0  0  0  0  0  0  0
    1.6199  -14.3836  -37.6998 C   0  0  0  0  0  0  0  0  0  0  0  0
    1.2476  -13.2168  -37.0354 C   0  0  0  0  0  0  0  0  0  0  0  0
    2.3270  -18.8985  -39.9950 C   0  0  0  0  0  0  0  0  0  0  0  0
    1.4269  -19.6181  -40.6839 N   0  0  0  0  0  0  0  0  0  0  0  0
    1.3800  -19.6488  -42.0178 C   0  0  0  0  0  0  0  0  0  0  0  0
    2.3034  -18.9051  -42.7150 C   0  0  0  0  0  0  0  0  0  0  0  0
    3.2436  -18.1532  -42.0507 C   0  0  0  0  0  0  0  0  0  0  0  0
    3.2484  -18.1556  -40.6796 C   0  0  0  0  0  0  0  0  0  0  0  0
    4.7797  -19.5550  -38.4847 C   0  0  0  0  0  0  0  0  0  0  0  0
    4.8262  -21.0751  -38.4843 C   0  0  0  0  0  0  0  0  0  0  0  0
    5.9009  -21.5050  -39.4827 C   0  0  0  0  0  0  0  0  0  0  0  0
    5.3826  -21.5577  -40.8360 N   0  0  0  0  0  0  0  0  0  0  0  0
    4.2561  -22.1753  -41.2621 C   0  0  0  0  0  0  0  0  0  0  0  0
    4.1310  -21.9872  -42.5868 N   0  0  0  0  0  0  0  0  0  0  0  0
    5.1606  -21.2543  -43.0361 C   0  0  0  0  0  0  0  0  0  0  0  0
    5.9337  -20.9955  -41.9223 C   0  0  0  0  0  0  0  0  0  0  0  0
    3.3494  -22.3511  -43.2011 H   0  0  0  0  0  0  0  0  0  0  0  0
 10 11  1  0  0  0
 11 12  2  0  0  0
 11 16  1  0  0  0
 12 13  1  0  0  0
 13 14  2  0  0  0
 14 15  1  0  0  0
 14  1  1  0  0  0
 15 16  2  0  0  0
  1  2  2  0  0  0
  1  9  1  0  0  0
  2  3  1  0  0  0
  2  7  1  0  0  0
  3  4  1  0  0  0
  3 17  1  0  0  0
  4  5  1  0  0  0
  4 23  1  0  0  0
  5  6  2  0  0  0
  5  7  1  0  0  0
  7  8  2  0  0  0
 23 24  1  0  0  0
 24 25  1  0  0  0
 25 26  1  0  0  0
 26 27  1  0  0  0
 26 30  1  0  0  0
 27 28  2  0  0  0
 28 29  1  0  0  0
 29 30  2  0  0  0
 17 18  2  0  0  0
 17 22  1  0  0  0
 18 19  1  0  0  0
 19 20  2  0  0  0
 20 21  1  0  0  0
 21 22  2  0  0  0
 28 31  1  0  0  0
M  CHG 1   9  -1
M  END
> <minimizedAffinity>
-5.91739

$$$$
263


 34 37  0  0  0  0  0  0  0  0999 V2000
    1.3480  -16.6506  -38.6587 C   0  0  0  0  0  0  0  0  0  0  0  0
    1.9923  -17.6288  -38.0791 C   0  0  0  0  0  0  0  0  0  0  0  0
    2.4604  -18.9127  -38.7136 C   0  0  0  0  0  0  0  0  0  0  0  0
    3.6507  -19.2177  -37.9971 N   0  0  0  0  0  0  0  0  0  0  0  0
    3.4954  -18.6742  -36.6639 C   0  0  0  0  0  0  0  0  0  0  0  0
    4.1324  -18.9934  -35.6314 O   0  0  0  0  0  0  0  0  0  0  0  0
    2.4448  -17.6630  -36.7071 C   0  0  0  0  0  0  0  0  0  0  0  0
    2.0436  -16.9727  -35.7102 O   0  0  0  0  0  0  0  0  0  0  0  0
    1.0468  -16.7741  -40.0334 O   0  0  0  0  0  0  0  0  0  0  0  0
   -0.6536  -11.9358  -35.3198 Br  0  0  0  0  0  0  0  0  0  0  0  0
    0.0295  -13.3784  -36.3926 C   0  0  0  0  0  0  0  0  0  0  0  0
   -0.7848  -14.4707  -36.5893 C   0  0  0  0  0  0  0  0  0  0  0  0
   -0.3222  -15.5085  -37.3480 C   0  0  0  0  0  0  0  0  0  0  0  0
    0.9504  -15.4665  -37.9153 C   0  0  0  0  0  0  0  0  0  0  0  0
    1.7438  -14.3854  -37.7141 C   0  0  0  0  0  0  0  0  0  0  0  0
    1.2895  -13.3308  -36.9504 C   0  0  0  0  0  0  0  0  0  0  0  0
    2.5456  -18.7910  -40.1634 C   0  0  0  0  0  0  0  0  0  0  0  0
    3.4958  -18.0907  -40.8566 C   0  0  0  0  0  0  0  0  0  0  0  0
    3.5120  -18.0330  -42.2259 C   0  0  0  0  0  0  0  0  0  0  0  0
    2.5486  -18.6931  -42.9393 C   0  0  0  0  0  0  0  0  0  0  0  0
    1.5559  -19.4215  -42.2911 C   0  0  0  0  0  0  0  0  0  0  0  0
    1.5694  -19.4585  -40.9206 C   0  0  0  0  0  0  0  0  0  0  0  0
    4.5209  -17.2934  -42.8742 N   0  0  0  0  0  0  0  0  0  0  0  0
    4.3016  -16.1685  -43.3924 O   0  0  0  0  0  0  0  0  0  0  0  0
    5.7874  -17.8277  -42.9383 O   0  0  0  0  0  0  0  0  0  0  0  0
    4.8563  -19.9545  -38.3277 C   0  0  0  0  0  0  0  0  0  0  0  0
    4.6708  -21.4174  -38.5708 C   0  0  0  0  0  0  0  0  0  0  0  0
    5.0501  -21.8194  -39.9156 N   0  0  0  0  0  0  0  0  0  0  0  0
    5.7717  -20.7393  -40.5962 C   0  0  0  0  0  0  0  0  0  0  0  0
    6.2422  -21.3538  -41.9216 C   0  0  0  0  0  0  0  0  0  0  0  0
    5.1948  -21.7883  -42.6965 O   0  0  0  0  0  0  0  0  0  0  0  0
    4.3169  -22.6376  -42.0412 C   0  0  0  0  0  0  0  0  0  0  0  0
    3.8762  -22.0820  -40.7095 C   0  0  0  0  0  0  0  0  0  0  0  0
    5.6688  -22.6334  -39.9544 H   0  0  0  0  0  0  0  0  0  0  0  0
 10 11  1  0  0  0
 11 12  2  0  0  0
 11 16  1  0  0  0
 12 13  1  0  0  0
 13 14  2  0  0  0
 14 15  1  0  0  0
 14  1  1  0  0  0
 15 16  2  0  0  0
  1  2  2  0  0  0
  1  9  1  0  0  0
  2  3  1  0  0  0
  2  7  1  0  0  0
  3  4  1  0  0  0
  3 17  1  0  0  0
  4  5  1  0  0  0
  4 26  1  0  0  0
  5  6  2  0  0  0
  5  7  1  0  0  0
  7  8  2  0  0  0
 26 27  1  0  0  0
 27 28  1  0  0  0
 28 29  1  0  0  0
 28 33  1  0  0  0
 29 30  1  0  0  0
 30 31  1  0  0  0
 31 32  1  0  0  0
 32 33  1  0  0  0
 17 18  2  0  0  0
 17 22  1  0  0  0
 18 19  1  0  0  0
 19 20  2  0  0  0
 19 23  1  0  0  0
 20 21  1  0  0  0
 21 22  2  0  0  0
 23 24  2  0  0  0
 23 25  1  0  0  0
 28 34  1  0  0  0
M  CHG 1   9  -1
M  CHG 1  25  -1
M  CHG 1  28   1
M  END
> <minimizedAffinity>
-6.48360

$$$$
265


 35 38  0  0  0  0  0  0  0  0999 V2000
    2.4766  -18.4750  -37.7816 C   0  0  0  0  0  0  0  0  0  0  0  0
    1.1990  -18.2186  -37.9561 C   0  0  0  0  0  0  0  0  0  0  0  0
    0.3487  -17.3308  -37.0836 C   0  0  0  0  0  0  0  0  0  0  0  0
   -0.9725  -17.4181  -37.6012 N   0  0  0  0  0  0  0  0  0  0  0  0
   -1.0037  -18.1866  -38.8220 C   0  0  0  0  0  0  0  0  0  0  0  0
   -1.9636  -18.4102  -39.5724 O   0  0  0  0  0  0  0  0  0  0  0  0
    0.3717  -18.6888  -39.0430 C   0  0  0  0  0  0  0  0  0  0  0  0
    0.7341  -19.4066  -40.0302 O   0  0  0  0  0  0  0  0  0  0  0  0
    3.0815  -17.8420  -36.6710 O   0  0  0  0  0  0  0  0  0  0  0  0
    5.9266  -21.9780  -41.5680 Br  0  0  0  0  0  0  0  0  0  0  0  0
    4.8497  -20.9343  -40.3804 C   0  0  0  0  0  0  0  0  0  0  0  0
    4.6263  -19.6019  -40.6533 C   0  0  0  0  0  0  0  0  0  0  0  0
    3.8508  -18.8347  -39.8105 C   0  0  0  0  0  0  0  0  0  0  0  0
    3.2540  -19.3459  -38.6507 C   0  0  0  0  0  0  0  0  0  0  0  0
    3.4886  -20.6762  -38.3946 C   0  0  0  0  0  0  0  0  0  0  0  0
    4.2754  -21.4603  -39.2480 C   0  0  0  0  0  0  0  0  0  0  0  0
    0.9235  -15.9630  -37.2708 C   0  0  0  0  0  0  0  0  0  0  0  0
    1.0388  -15.1595  -36.1806 C   0  0  0  0  0  0  0  0  0  0  0  0
    1.5574  -13.8862  -36.2966 C   0  0  0  0  0  0  0  0  0  0  0  0
    1.9618  -13.4226  -37.5191 C   0  0  0  0  0  0  0  0  0  0  0  0
    1.8457  -14.2352  -38.6169 C   0  0  0  0  0  0  0  0  0  0  0  0
    1.3258  -15.5146  -38.5069 C   0  0  0  0  0  0  0  0  0  0  0  0
    2.5109  -12.0715  -37.6558 C   0  0  0  0  0  0  0  0  0  0  0  0
    1.9294  -11.2400  -38.3985 O   0  0  0  0  0  0  0  0  0  0  0  0
    3.6429  -11.6558  -37.0100 O   0  0  0  0  0  0  0  0  0  0  0  0
    4.2000  -10.3721  -37.1845 C   0  0  0  0  0  0  0  0  0  0  0  0
   -2.1755  -16.8449  -37.0601 C   0  0  0  0  0  0  0  0  0  0  0  0
   -2.7197  -15.6788  -37.8113 C   0  0  0  0  0  0  0  0  0  0  0  0
   -2.5689  -14.4081  -37.1675 N   0  0  0  0  0  0  0  0  0  0  0  0
   -3.8225  -13.7615  -36.8383 C   0  0  0  0  0  0  0  0  0  0  0  0
   -3.4896  -12.5442  -36.0003 C   0  0  0  0  0  0  0  0  0  0  0  0
   -2.8209  -11.6507  -36.8710 O   0  0  0  0  0  0  0  0  0  0  0  0
   -1.5857  -12.2443  -37.1453 C   0  0  0  0  0  0  0  0  0  0  0  0
   -1.8433  -13.4539  -38.0292 C   0  0  0  0  0  0  0  0  0  0  0  0
   -1.9506  -14.4684  -36.3153 H   0  0  0  0  0  0  0  0  0  0  0  0
 10 11  1  0  0  0
 11 12  2  0  0  0
 11 16  1  0  0  0
 12 13  1  0  0  0
 13 14  2  0  0  0
 14 15  1  0  0  0
 14  1  1  0  0  0
 15 16  2  0  0  0
  1  2  2  0  0  0
  1  9  1  0  0  0
  2  3  1  0  0  0
  2  7  1  0  0  0
  3  4  1  0  0  0
  3 17  1  0  0  0
  4  5  1  0  0  0
  4 27  1  0  0  0
  5  6  2  0  0  0
  5  7  1  0  0  0
  7  8  2  0  0  0
 27 28  1  0  0  0
 28 29  1  0  0  0
 29 30  1  0  0  0
 29 34  1  0  0  0
 30 31  1  0  0  0
 31 32  1  0  0  0
 32 33  1  0  0  0
 33 34  1  0  0  0
 17 18  2  0  0  0
 17 22  1  0  0  0
 18 19  1  0  0  0
 19 20  2  0  0  0
 20 21  1  0  0  0
 20 23  1  0  0  0
 21 22  2  0  0  0
 23 24  2  0  0  0
 23 25  1  0  0  0
 25 26  1  0  0  0
 29 35  1  0  0  0
M  CHG 1   9  -1
M  CHG 1  29   1
M  END
> <minimizedAffinity>
-6.31659

$$$$
274


 31 34  0  0  0  0  0  0  0  0999 V2000
    1.8826  -17.9444  -39.6185 C   0  0  0  0  0  0  0  0  0  0  0  0
    1.9055  -17.4962  -38.3782 C   0  0  0  0  0  0  0  0  0  0  0  0
    1.0445  -16.4775  -37.7117 C   0  0  0  0  0  0  0  0  0  0  0  0
    0.9507  -16.9804  -36.3310 N   0  0  0  0  0  0  0  0  0  0  0  0
    2.2150  -17.5578  -36.0693 C   0  0  0  0  0  0  0  0  0  0  0  0
    2.6894  -17.7390  -34.9406 O   0  0  0  0  0  0  0  0  0  0  0  0
    2.8503  -17.8954  -37.3381 C   0  0  0  0  0  0  0  0  0  0  0  0
    3.9679  -18.4169  -37.5787 O   0  0  0  0  0  0  0  0  0  0  0  0
    0.9137  -17.4016  -40.4853 O   0  0  0  0  0  0  0  0  0  0  0  0
    5.6517  -22.2439  -41.9832 Br  0  0  0  0  0  0  0  0  0  0  0  0
    4.4899  -20.9093  -41.2439 C   0  0  0  0  0  0  0  0  0  0  0  0
    4.7595  -19.5680  -41.3912 C   0  0  0  0  0  0  0  0  0  0  0  0
    3.9152  -18.6088  -40.8530 C   0  0  0  0  0  0  0  0  0  0  0  0
    2.7798  -18.9534  -40.1542 C   0  0  0  0  0  0  0  0  0  0  0  0
    2.5117  -20.2952  -40.0095 C   0  0  0  0  0  0  0  0  0  0  0  0
    3.3590  -21.2674  -40.5493 C   0  0  0  0  0  0  0  0  0  0  0  0
    1.5626  -15.1099  -37.7881 C   0  0  0  0  0  0  0  0  0  0  0  0
    1.5496  -14.2731  -36.6657 C   0  0  0  0  0  0  0  0  0  0  0  0
    2.0162  -12.9947  -36.6706 C   0  0  0  0  0  0  0  0  0  0  0  0
    2.5392  -12.4578  -37.8324 C   0  0  0  0  0  0  0  0  0  0  0  0
    2.5650  -13.2499  -38.9444 C   0  0  0  0  0  0  0  0  0  0  0  0
    2.0855  -14.5631  -38.9379 C   0  0  0  0  0  0  0  0  0  0  0  0
   -0.2198  -16.8407  -35.5440 C   0  0  0  0  0  0  0  0  0  0  0  0
   -1.5334  -17.0145  -36.1877 C   0  0  0  0  0  0  0  0  0  0  0  0
   -2.1168  -18.3181  -36.1034 N   0  0  0  0  0  0  0  0  0  0  0  0
   -1.5762  -19.2997  -36.9768 C   0  0  0  0  0  0  0  0  0  0  0  0
   -2.5651  -19.5607  -38.0920 C   0  0  0  0  0  0  0  0  0  0  0  0
   -3.1764  -18.3931  -38.5406 O   0  0  0  0  0  0  0  0  0  0  0  0
   -4.0098  -17.8330  -37.5905 C   0  0  0  0  0  0  0  0  0  0  0  0
   -3.5581  -18.3050  -36.2265 C   0  0  0  0  0  0  0  0  0  0  0  0
   -1.9202  -18.6417  -35.1064 H   0  0  0  0  0  0  0  0  0  0  0  0
 10 11  1  0  0  0
 11 12  2  0  0  0
 11 16  1  0  0  0
 12 13  1  0  0  0
 13 14  2  0  0  0
 14 15  1  0  0  0
 14  1  1  0  0  0
 15 16  2  0  0  0
  1  2  2  0  0  0
  1  9  1  0  0  0
  2  3  1  0  0  0
  2  7  1  0  0  0
  3  4  1  0  0  0
  3 17  1  0  0  0
  4  5  1  0  0  0
  4 23  1  0  0  0
  5  6  2  0  0  0
  5  7  1  0  0  0
  7  8  2  0  0  0
 23 24  1  0  0  0
 24 25  1  0  0  0
 25 26  1  0  0  0
 25 30  1  0  0  0
 26 27  1  0  0  0
 27 28  1  0  0  0
 28 29  1  0  0  0
 29 30  1  0  0  0
 17 18  2  0  0  0
 17 22  1  0  0  0
 18 19  1  0  0  0
 19 20  2  0  0  0
 20 21  1  0  0  0
 21 22  2  0  0  0
 25 31  1  0  0  0
M  CHG 1   9  -1
M  CHG 1  25   1
M  END
> <minimizedAffinity>
-6.57266

$$$$
278


 30 33  0  0  0  0  0  0  0  0999 V2000
    1.5258  -15.8698  -38.1507 N   0  0  0  0  0  0  0  0  0  0  0  0
    1.7398  -16.3541  -39.3972 C   0  0  0  0  0  0  0  0  0  0  0  0
    2.1415  -17.6705  -39.2366 C   0  0  0  0  0  0  0  0  0  0  0  0
    2.4387  -18.4158  -40.3623 C   0  0  0  0  0  0  0  0  0  0  0  0
    2.3438  -17.8779  -41.6517 C   0  0  0  0  0  0  0  0  0  0  0  0
    1.9376  -16.5549  -41.7612 C   0  0  0  0  0  0  0  0  0  0  0  0
    1.6365  -15.7919  -40.6602 C   0  0  0  0  0  0  0  0  0  0  0  0
    2.1704  -17.9900  -37.9082 N   0  0  0  0  0  0  0  0  0  0  0  0
    1.7859  -16.8532  -37.2686 C   0  0  0  0  0  0  0  0  0  0  0  0
    1.6933  -16.7621  -35.9843 N   0  0  0  0  0  0  0  0  0  0  0  0
    1.3843  -15.8380  -35.5565 H   0  0  0  0  0  0  0  0  0  0  0  0
    1.8941  -17.4983  -35.3039 H   0  0  0  0  0  0  0  0  0  0  0  0
    1.0918  -14.5223  -37.9224 C   0  0  0  0  0  0  0  0  0  0  0  0
    1.9857  -13.7570  -36.9943 C   0  0  0  0  0  0  0  0  0  0  0  0
    1.3140  -13.0267  -36.0333 O   0  0  0  0  0  0  0  0  0  0  0  0
    0.6949  -12.3673  -36.4026 H   0  0  0  0  0  0  0  0  0  0  0  0
    5.5061   -9.8178  -40.1499 Br  0  0  0  0  0  0  0  0  0  0  0  0
    4.4095  -11.0422  -39.1681 C   0  0  0  0  0  0  0  0  0  0  0  0
    4.3035  -10.9048  -37.8026 C   0  0  0  0  0  0  0  0  0  0  0  0
    3.5176  -11.7842  -37.1064 C   0  0  0  0  0  0  0  0  0  0  0  0
    2.8487  -12.7855  -37.7652 C   0  0  0  0  0  0  0  0  0  0  0  0
    2.9791  -12.8920  -39.1290 C   0  0  0  0  0  0  0  0  0  0  0  0
    3.7623  -12.0269  -39.8770 C   0  0  0  0  0  0  0  0  0  0  0  0
    2.5294  -19.2802  -37.4007 C   0  0  0  0  0  0  0  0  0  0  0  0
    3.9330  -19.6938  -37.7462 C   0  0  0  0  0  0  0  0  0  0  0  0
    4.1396  -20.9179  -38.3589 C   0  0  0  0  0  0  0  0  0  0  0  0
    5.3980  -21.3676  -38.7086 C   0  0  0  0  0  0  0  0  0  0  0  0
    6.4635  -20.5492  -38.4267 C   0  0  0  0  0  0  0  0  0  0  0  0
    6.2873  -19.3335  -37.8204 C   0  0  0  0  0  0  0  0  0  0  0  0
    5.0267  -18.9166  -37.4865 C   0  0  0  0  0  0  0  0  0  0  0  0
 17 18  1  0  0  0
 18 19  2  0  0  0
 18 23  1  0  0  0
 19 20  1  0  0  0
 20 21  2  0  0  0
 21 22  1  0  0  0
 21 14  1  0  0  0
 22 23  2  0  0  0
 14 15  1  0  0  0
 14 13  1  0  0  0
 13  1  1  0  0  0
  1  2  1  0  0  0
  1  9  1  0  0  0
  2  3  1  0  0  0
  2  7  2  0  0  0
  3  4  2  0  0  0
  3  8  1  0  0  0
  4  5  1  0  0  0
  5  6  2  0  0  0
  6  7  1  0  0  0
  8  9  1  0  0  0
  8 24  1  0  0  0
  9 10  2  0  0  0
 24 25  1  0  0  0
 25 26  2  0  0  0
 25 30  1  0  0  0
 26 27  1  0  0  0
 27 28  2  0  0  0
 28 29  1  0  0  0
 29 30  2  0  0  0
 15 16  1  0  0  0
 10 11  1  0  0  0
 10 12  1  0  0  0
M  END
> <minimizedAffinity>
-7.48087

$$$$
289


 31 34  0  0  0  0  0  0  0  0999 V2000
    3.0881  -19.0307  -39.6126 C   0  0  0  0  0  0  0  0  0  0  0  0
    3.8352  -20.0170  -40.1356 N   0  0  0  0  0  0  0  0  0  0  0  0
    4.3395  -19.6115  -41.3248 C   0  0  0  0  0  0  0  0  0  0  0  0
    3.9023  -18.3287  -41.5729 C   0  0  0  0  0  0  0  0  0  0  0  0
    3.1473  -18.0021  -40.5240 N   0  0  0  0  0  0  0  0  0  0  0  0
    4.2785  -17.7075  -42.7061 N   0  0  0  0  0  0  0  0  0  0  0  0
    5.0713  -18.3010  -43.6084 C   0  0  0  0  0  0  0  0  0  0  0  0
    5.4075  -17.6803  -44.6674 O   0  0  0  0  0  0  0  0  0  0  0  0
    5.5092  -19.5519  -43.3850 N   0  0  0  0  0  0  0  0  0  0  0  0
    5.1530  -20.1995  -42.2672 C   0  0  0  0  0  0  0  0  0  0  0  0
    5.5641  -21.3677  -42.0607 O   0  0  0  0  0  0  0  0  0  0  0  0
    3.7978  -16.3403  -42.9336 C   0  0  0  0  0  0  0  0  0  0  0  0
    6.1370  -20.0282  -44.0958 H   0  0  0  0  0  0  0  0  0  0  0  0
    0.9675  -17.1722  -37.5384 N   0  0  0  0  0  0  0  0  0  0  0  0
    0.2306  -18.3469  -37.7427 C   0  0  0  0  0  0  0  0  0  0  0  0
    1.1040  -19.5167  -38.1845 C   0  0  0  0  0  0  0  0  0  0  0  0
    2.4178  -19.0094  -38.3770 N   0  0  0  0  0  0  0  0  0  0  0  0
    3.0584  -18.4306  -37.2207 C   0  0  0  0  0  0  0  0  0  0  0  0
    2.2123  -17.1961  -36.8877 C   0  0  0  0  0  0  0  0  0  0  0  0
    0.7055  -16.0996  -38.4397 C   0  0  0  0  0  0  0  0  0  0  0  0
    3.7464  -10.8372  -37.3295 Br  0  0  0  0  0  0  0  0  0  0  0  0
    2.7997  -12.4777  -37.6548 C   0  0  0  0  0  0  0  0  0  0  0  0
    2.8528  -13.0873  -38.8916 C   0  0  0  0  0  0  0  0  0  0  0  0
    2.1694  -14.2691  -39.1300 C   0  0  0  0  0  0  0  0  0  0  0  0
    1.4263  -14.8496  -38.1331 C   0  0  0  0  0  0  0  0  0  0  0  0
    1.3637  -14.2544  -36.8907 C   0  0  0  0  0  0  0  0  0  0  0  0
    2.0499  -13.0775  -36.6686 C   0  0  0  0  0  0  0  0  0  0  0  0
    4.0723  -21.3349  -39.6106 C   0  0  0  0  0  0  0  0  0  0  0  0
    5.0779  -21.3265  -38.4814 C   0  0  0  0  0  0  0  0  0  0  0  0
    6.3078  -20.8058  -38.8294 O   0  0  0  0  0  0  0  0  0  0  0  0
    6.5129  -19.6992  -37.9729 C   0  0  0  0  0  0  0  0  0  0  0  0
 21 22  1  0  0  0
 22 23  2  0  0  0
 22 27  1  0  0  0
 23 24  1  0  0  0
 24 25  2  0  0  0
 25 26  1  0  0  0
 25 20  1  0  0  0
 26 27  2  0  0  0
 20 14  1  0  0  0
 14 15  1  0  0  0
 14 19  1  0  0  0
 15 16  1  0  0  0
 16 17  1  0  0  0
 17 18  1  0  0  0
 17  1  1  0  0  0
 18 19  1  0  0  0
  1  2  1  0  0  0
  1  5  2  0  0  0
  2  3  1  0  0  0
  2 28  1  0  0  0
  3  4  2  0  0  0
  3 10  1  0  0  0
  4  5  1  0  0  0
  4  6  1  0  0  0
  6  7  1  0  0  0
  6 12  1  0  0  0
  7  8  2  0  0  0
  7  9  1  0  0  0
  9 10  1  0  0  0
 10 11  2  0  0  0
 28 29  1  0  0  0
 29 30  1  0  0  0
 30 31  1  0  0  0
  9 13  1  0  0  0
M  END
> <minimizedAffinity>
-6.13096

$$$$
293


 27 30  0  0  0  0  0  0  0  0999 V2000
    1.7206  -13.2414  -36.4556 C   0  0  0  0  0  0  0  0  0  0  0  0
    2.3703  -12.9704  -37.5937 C   0  0  0  0  0  0  0  0  0  0  0  0
    2.1920  -13.6885  -38.7649 O   0  0  0  0  0  0  0  0  0  0  0  0
    2.9882  -13.1971  -39.7943 C   0  0  0  0  0  0  0  0  0  0  0  0
    3.7037  -12.1450  -39.3080 C   0  0  0  0  0  0  0  0  0  0  0  0
    4.5812  -11.4681  -40.1294 C   0  0  0  0  0  0  0  0  0  0  0  0
    4.6942  -11.8970  -41.4261 C   0  0  0  0  0  0  0  0  0  0  0  0
    3.9592  -12.9786  -41.9288 C   0  0  0  0  0  0  0  0  0  0  0  0
    3.0823  -13.6654  -41.1271 C   0  0  0  0  0  0  0  0  0  0  0  0
    4.1331  -13.3518  -43.2624 O   0  0  0  0  0  0  0  0  0  0  0  0
    3.3448  -11.9569  -37.8954 C   0  0  0  0  0  0  0  0  0  0  0  0
    3.7756  -11.0980  -37.0843 O   0  0  0  0  0  0  0  0  0  0  0  0
   -2.2398  -18.0147  -36.2641 Br  0  0  0  0  0  0  0  0  0  0  0  0
   -1.0226  -16.5280  -36.3279 C   0  0  0  0  0  0  0  0  0  0  0  0
    0.3143  -16.6927  -36.0464 C   0  0  0  0  0  0  0  0  0  0  0  0
    1.1895  -15.6240  -36.0893 C   0  0  0  0  0  0  0  0  0  0  0  0
    0.7677  -14.3461  -36.4159 C   0  0  0  0  0  0  0  0  0  0  0  0
   -0.5704  -14.1861  -36.6977 C   0  0  0  0  0  0  0  0  0  0  0  0
   -1.4608  -15.2623  -36.6556 C   0  0  0  0  0  0  0  0  0  0  0  0
    2.2496  -14.8127  -41.5082 C   0  0  0  0  0  0  0  0  0  0  0  0
    2.3700  -16.0072  -40.7661 N   0  0  0  0  0  0  0  0  0  0  0  0
    1.0843  -16.5593  -40.3932 C   0  0  0  0  0  0  0  0  0  0  0  0
    0.5668  -17.4401  -41.5155 C   0  0  0  0  0  0  0  0  0  0  0  0
    1.2329  -18.6540  -41.4478 O   0  0  0  0  0  0  0  0  0  0  0  0
    2.5433  -18.4013  -41.0277 C   0  0  0  0  0  0  0  0  0  0  0  0
    3.0138  -17.0611  -41.5696 C   0  0  0  0  0  0  0  0  0  0  0  0
    2.9939  -15.8970  -39.9410 H   0  0  0  0  0  0  0  0  0  0  0  0
 13 14  1  0  0  0
 14 15  2  0  0  0
 14 19  1  0  0  0
 15 16  1  0  0  0
 16 17  2  0  0  0
 17 18  1  0  0  0
 17  1  1  0  0  0
 18 19  2  0  0  0
  1  2  2  0  0  0
  2  3  1  0  0  0
  2 11  1  0  0  0
  3  4  1  0  0  0
  4  5  2  0  0  0
  4  9  1  0  0  0
  5  6  1  0  0  0
  5 11  1  0  0  0
  6  7  2  0  0  0
  7  8  1  0  0  0
  8  9  2  0  0  0
  8 10  1  0  0  0
  9 20  1  0  0  0
 20 21  1  0  0  0
 21 22  1  0  0  0
 21 26  1  0  0  0
 22 23  1  0  0  0
 23 24  1  0  0  0
 24 25  1  0  0  0
 25 26  1  0  0  0
 11 12  2  0  0  0
 21 27  1  0  0  0
M  CHG 1  10  -1
M  CHG 1  21   1
M  END
> <minimizedAffinity>
-5.94815

$$$$
294


 35 38  0  0  0  0  0  0  0  0999 V2000
    6.7130  -23.9219  -44.1977 N   0  0  0  0  0  0  0  0  0  0  0  0
    8.0249  -24.0643  -43.8375 N   0  0  0  0  0  0  0  0  0  0  0  0
    8.2010  -25.2899  -43.3247 C   0  0  0  0  0  0  0  0  0  0  0  0
    7.0061  -25.8761  -43.3767 N   0  0  0  0  0  0  0  0  0  0  0  0
    6.0624  -25.0217  -43.9249 C   0  0  0  0  0  0  0  0  0  0  0  0
    9.4376  -25.8693  -42.8140 C   0  0  0  0  0  0  0  0  0  0  0  0
    9.5652  -26.7527  -41.8194 N   0  0  0  0  0  0  0  0  0  0  0  0
   10.8453  -27.0362  -41.6525 O   0  0  0  0  0  0  0  0  0  0  0  0
   11.5720  -26.3702  -42.5042 N   0  0  0  0  0  0  0  0  0  0  0  0
   10.7116  -25.6191  -43.2575 C   0  0  0  0  0  0  0  0  0  0  0  0
   11.1285  -24.7524  -44.3002 N   0  0  0  0  0  0  0  0  0  0  0  0
   12.0529  -24.9232  -44.7863 H   0  0  0  0  0  0  0  0  0  0  0  0
   10.5764  -23.9383  -44.6312 H   0  0  0  0  0  0  0  0  0  0  0  0
    4.6768  -25.4068  -44.0971 C   0  0  0  0  0  0  0  0  0  0  0  0
    4.2867  -26.3398  -45.0538 N   0  0  0  0  0  0  0  0  0  0  0  0
    3.0252  -26.5156  -44.9928 O   0  0  0  0  0  0  0  0  0  0  0  0
    2.5248  -25.7834  -44.0773 N   0  0  0  0  0  0  0  0  0  0  0  0
    3.5349  -25.0710  -43.4919 C   0  0  0  0  0  0  0  0  0  0  0  0
    3.2651  -24.1893  -42.4384 N   0  0  0  0  0  0  0  0  0  0  0  0
    3.0106  -23.1975  -42.6541 H   0  0  0  0  0  0  0  0  0  0  0  0
    3.2890  -24.4515  -41.4310 H   0  0  0  0  0  0  0  0  0  0  0  0
    6.2659  -22.6817  -44.8009 C   0  0  0  0  0  0  0  0  0  0  0  0
    6.0372  -21.8207  -42.4376 N   0  0  0  0  0  0  0  0  0  0  0  0
    5.6356  -21.7874  -43.7949 C   0  0  0  0  0  0  0  0  0  0  0  0
    4.7367  -20.9909  -44.1467 O   0  0  0  0  0  0  0  0  0  0  0  0
    6.8001  -22.4871  -42.1079 H   0  0  0  0  0  0  0  0  0  0  0  0
    4.6654  -21.3361  -40.5779 C   0  0  0  0  0  0  0  0  0  0  0  0
    5.4332  -20.9776  -41.5306 N   0  0  0  0  0  0  0  0  0  0  0  0
    2.0745  -17.3784  -36.5916 Br  0  0  0  0  0  0  0  0  0  0  0  0
    2.8776  -18.6060  -37.8129 C   0  0  0  0  0  0  0  0  0  0  0  0
    2.8331  -18.3836  -39.1812 C   0  0  0  0  0  0  0  0  0  0  0  0
    3.4077  -19.2601  -40.0843 C   0  0  0  0  0  0  0  0  0  0  0  0
    4.0521  -20.3974  -39.6449 C   0  0  0  0  0  0  0  0  0  0  0  0
    4.0913  -20.6094  -38.2834 C   0  0  0  0  0  0  0  0  0  0  0  0
    3.5225  -19.7428  -37.3727 C   0  0  0  0  0  0  0  0  0  0  0  0
 29 30  1  0  0  0
 30 31  2  0  0  0
 30 35  1  0  0  0
 31 32  1  0  0  0
 32 33  2  0  0  0
 33 34  1  0  0  0
 33 27  1  0  0  0
 34 35  2  0  0  0
 27 28  2  0  0  0
 28 23  1  0  0  0
 23 24  1  0  0  0
 24 25  2  0  0  0
 24 22  1  0  0  0
 22  1  1  0  0  0
  1  2  1  0  0  0
  1  5  1  0  0  0
  2  3  2  0  0  0
  3  4  1  0  0  0
  3  6  1  0  0  0
  4  5  2  0  0  0
  5 14  1  0  0  0
 14 15  2  0  0  0
 14 18  1  0  0  0
 15 16  1  0  0  0
 16 17  1  0  0  0
 17 18  2  0  0  0
 18 19  1  0  0  0
  6  7  2  0  0  0
  6 10  1  0  0  0
  7  8  1  0  0  0
  8  9  1  0  0  0
  9 10  2  0  0  0
 10 11  1  0  0  0
 23 26  1  0  0  0
 19 20  1  0  0  0
 19 21  1  0  0  0
 11 12  1  0  0  0
 11 13  1  0  0  0
M  END
> <minimizedAffinity>
-6.43844

$$$$
302


 29 33  0  0  0  0  0  0  0  0999 V2000
    1.2856  -15.5285  -38.1432 C   0  0  0  0  0  0  0  0  0  0  0  0
    1.8892  -16.7343  -38.1830 N   0  0  0  0  0  0  0  0  0  0  0  0
    0.9582  -17.7203  -38.1990 C   0  0  0  0  0  0  0  0  0  0  0  0
   -0.2590  -17.1507  -38.1707 N   0  0  0  0  0  0  0  0  0  0  0  0
   -0.0645  -15.8123  -38.1359 C   0  0  0  0  0  0  0  0  0  0  0  0
   -1.1444  -18.1655  -38.1888 C   0  0  0  0  0  0  0  0  0  0  0  0
   -0.4819  -19.3735  -38.2290 C   0  0  0  0  0  0  0  0  0  0  0  0
   -1.1579  -20.5879  -38.2541 C   0  0  0  0  0  0  0  0  0  0  0  0
   -2.5338  -20.6000  -38.2398 C   0  0  0  0  0  0  0  0  0  0  0  0
   -3.1876  -19.3876  -38.1997 C   0  0  0  0  0  0  0  0  0  0  0  0
   -2.5429  -18.1695  -38.1738 C   0  0  0  0  0  0  0  0  0  0  0  0
    0.8403  -19.0574  -38.2340 N   0  0  0  0  0  0  0  0  0  0  0  0
    2.9145  -16.9085  -38.1981 H   0  0  0  0  0  0  0  0  0  0  0  0
    4.0497  -10.0137  -37.9937 Br  0  0  0  0  0  0  0  0  0  0  0  0
    3.1983  -11.7094  -38.0358 C   0  0  0  0  0  0  0  0  0  0  0  0
    3.1701  -12.4476  -39.2030 C   0  0  0  0  0  0  0  0  0  0  0  0
    2.5452  -13.6919  -39.2307 C   0  0  0  0  0  0  0  0  0  0  0  0
    1.9415  -14.2250  -38.1145 C   0  0  0  0  0  0  0  0  0  0  0  0
    1.9747  -13.4830  -36.9554 C   0  0  0  0  0  0  0  0  0  0  0  0
    2.5967  -12.2326  -36.9095 C   0  0  0  0  0  0  0  0  0  0  0  0
    1.8800  -20.0650  -38.2729 C   0  0  0  0  0  0  0  0  0  0  0  0
    2.5908  -20.0840  -39.6085 C   0  0  0  0  0  0  0  0  0  0  0  0
    4.0097  -19.9806  -39.4204 N   0  0  0  0  0  0  0  0  0  0  0  0
    4.6517  -21.2436  -39.7186 C   0  0  0  0  0  0  0  0  0  0  0  0
    5.6824  -21.6315  -38.6866 C   0  0  0  0  0  0  0  0  0  0  0  0
    6.5549  -20.5579  -38.4956 O   0  0  0  0  0  0  0  0  0  0  0  0
    5.8991  -19.4192  -38.0789 C   0  0  0  0  0  0  0  0  0  0  0  0
    4.4023  -19.5861  -38.1006 C   0  0  0  0  0  0  0  0  0  0  0  0
    4.4180  -19.2785  -40.0878 H   0  0  0  0  0  0  0  0  0  0  0  0
 14 15  1  0  0  0
 15 16  2  0  0  0
 15 20  1  0  0  0
 16 17  1  0  0  0
 17 18  2  0  0  0
 18 19  1  0  0  0
 18  1  1  0  0  0
 19 20  2  0  0  0
  1  2  1  0  0  0
  1  5  2  0  0  0
  2  3  2  0  0  0
  3  4  1  0  0  0
  3 12  1  0  0  0
  4  5  1  0  0  0
  4  6  1  0  0  0
  6  7  2  0  0  0
  6 11  1  0  0  0
  7  8  1  0  0  0
  7 12  1  0  0  0
  8  9  2  0  0  0
  9 10  1  0  0  0
 10 11  2  0  0  0
 12 21  1  0  0  0
 21 22  1  0  0  0
 22 23  1  0  0  0
 23 24  1  0  0  0
 23 28  1  0  0  0
 24 25  1  0  0  0
 25 26  1  0  0  0
 26 27  1  0  0  0
 27 28  1  0  0  0
  2 13  1  0  0  0
 23 29  1  0  0  0
M  CHG 1  23   1
M  END
> <minimizedAffinity>
-6.56525

$$$$
305


 27 30  0  0  0  0  0  0  0  0999 V2000
    2.1919  -17.8208  -37.0810 C   0  0  0  0  0  0  0  0  0  0  0  0
    2.3707  -18.7538  -38.0072 N   0  0  0  0  0  0  0  0  0  0  0  0
    3.4170  -19.5539  -37.6855 C   0  0  0  0  0  0  0  0  0  0  0  0
    3.8919  -19.0974  -36.5117 N   0  0  0  0  0  0  0  0  0  0  0  0
    3.1866  -18.0814  -36.1349 N   0  0  0  0  0  0  0  0  0  0  0  0
    3.6178  -20.5088  -38.6016 N   0  0  0  0  0  0  0  0  0  0  0  0
    2.6699  -20.3153  -39.5249 C   0  0  0  0  0  0  0  0  0  0  0  0
    1.8627  -19.2223  -39.1809 C   0  0  0  0  0  0  0  0  0  0  0  0
    0.8329  -18.8688  -39.9327 N   0  0  0  0  0  0  0  0  0  0  0  0
    0.5952  -19.6026  -41.0634 C   0  0  0  0  0  0  0  0  0  0  0  0
   -0.3681  -19.2982  -41.8057 O   0  0  0  0  0  0  0  0  0  0  0  0
    1.3525  -20.6460  -41.4237 N   0  0  0  0  0  0  0  0  0  0  0  0
    2.3975  -21.0261  -40.6699 C   0  0  0  0  0  0  0  0  0  0  0  0
    3.1311  -22.0023  -40.9754 O   0  0  0  0  0  0  0  0  0  0  0  0
   -0.1477  -17.8558  -39.6394 C   0  0  0  0  0  0  0  0  0  0  0  0
    1.1730  -21.2026  -42.2842 H   0  0  0  0  0  0  0  0  0  0  0  0
   -1.6223  -13.0343  -36.7838 Br  0  0  0  0  0  0  0  0  0  0  0  0
   -0.4544  -14.5249  -36.8107 C   0  0  0  0  0  0  0  0  0  0  0  0
    0.8018  -14.3992  -37.3660 C   0  0  0  0  0  0  0  0  0  0  0  0
    1.6421  -15.4683  -37.3863 C   0  0  0  0  0  0  0  0  0  0  0  0
    1.2844  -16.7113  -36.8599 C   0  0  0  0  0  0  0  0  0  0  0  0
    0.0229  -16.7688  -36.3256 C   0  0  0  0  0  0  0  0  0  0  0  0
   -0.8671  -15.7255  -36.2770 C   0  0  0  0  0  0  0  0  0  0  0  0
    4.6417  -21.5289  -38.5995 C   0  0  0  0  0  0  0  0  0  0  0  0
    5.9640  -21.0290  -39.1401 C   0  0  0  0  0  0  0  0  0  0  0  0
    6.1525  -21.3926  -40.4679 O   0  0  0  0  0  0  0  0  0  0  0  0
    6.1393  -20.2219  -41.2258 C   0  0  0  0  0  0  0  0  0  0  0  0
 17 18  1  0  0  0
 18 19  2  0  0  0
 18 23  1  0  0  0
 19 20  1  0  0  0
 20 21  2  0  0  0
 21 22  1  0  0  0
 21  1  1  0  0  0
 22 23  2  0  0  0
  1  2  1  0  0  0
  1  5  2  0  0  0
  2  3  1  0  0  0
  2  8  1  0  0  0
  3  4  2  0  0  0
  3  6  1  0  0  0
  4  5  1  0  0  0
  6  7  1  0  0  0
  6 24  1  0  0  0
  7  8  2  0  0  0
  7 13  1  0  0  0
  8  9  1  0  0  0
  9 10  1  0  0  0
  9 15  1  0  0  0
 10 11  2  0  0  0
 10 12  1  0  0  0
 12 13  1  0  0  0
 13 14  2  0  0  0
 24 25  1  0  0  0
 25 26  1  0  0  0
 26 27  1  0  0  0
 12 16  1  0  0  0
M  END
> <minimizedAffinity>
-5.77612

$$$$
309


 33 36  0  0  0  0  0  0  0  0999 V2000
    1.5935  -16.3548  -37.8855 C   0  0  0  0  0  0  0  0  0  0  0  0
    1.5910  -16.4649  -39.2552 C   0  0  0  0  0  0  0  0  0  0  0  0
    2.1451  -17.4779  -39.8932 O   0  0  0  0  0  0  0  0  0  0  0  0
    2.7363  -18.4525  -39.2507 C   0  0  0  0  0  0  0  0  0  0  0  0
    2.7727  -18.4016  -37.9027 C   0  0  0  0  0  0  0  0  0  0  0  0
    3.3853  -19.4144  -37.1981 C   0  0  0  0  0  0  0  0  0  0  0  0
    3.9439  -20.4529  -37.8980 C   0  0  0  0  0  0  0  0  0  0  0  0
    3.9000  -20.4959  -39.3048 C   0  0  0  0  0  0  0  0  0  0  0  0
    3.3004  -19.5052  -40.0232 C   0  0  0  0  0  0  0  0  0  0  0  0
    4.5131  -21.6182  -39.8361 O   0  0  0  0  0  0  0  0  0  0  0  0
    2.2169  -17.3748  -37.1645 C   0  0  0  0  0  0  0  0  0  0  0  0
    2.2516  -17.3306  -35.9305 O   0  0  0  0  0  0  0  0  0  0  0  0
   -1.1686  -11.5780  -35.1505 Br  0  0  0  0  0  0  0  0  0  0  0  0
   -0.3301  -13.0748  -35.9956 C   0  0  0  0  0  0  0  0  0  0  0  0
    1.0247  -13.0613  -36.1528 C   0  0  0  0  0  0  0  0  0  0  0  0
    1.6409  -14.1322  -36.7628 C   0  0  0  0  0  0  0  0  0  0  0  0
    0.9497  -15.2445  -37.2360 C   0  0  0  0  0  0  0  0  0  0  0  0
   -0.4098  -15.2333  -37.0650 C   0  0  0  0  0  0  0  0  0  0  0  0
   -1.0609  -14.1537  -36.4462 C   0  0  0  0  0  0  0  0  0  0  0  0
    0.9414  -15.3996  -40.0348 C   0  0  0  0  0  0  0  0  0  0  0  0
   -0.1514  -15.6643  -40.5959 O   0  0  0  0  0  0  0  0  0  0  0  0
    1.4566  -14.1489  -40.1806 O   0  0  0  0  0  0  0  0  0  0  0  0
    2.7897  -13.9665  -40.5921 C   0  0  0  0  0  0  0  0  0  0  0  0
    3.3958  -12.8357  -39.8077 C   0  0  0  0  0  0  0  0  0  0  0  0
    3.1944  -19.3988  -41.4581 C   0  0  0  0  0  0  0  0  0  0  0  0
    2.6708  -20.4166  -42.2741 N   0  0  0  0  0  0  0  0  0  0  0  0
    1.5198  -21.0277  -41.7109 C   0  0  0  0  0  0  0  0  0  0  0  0
    1.2060  -22.4297  -42.0564 C   0  0  0  0  0  0  0  0  0  0  0  0
    2.2945  -23.1421  -42.5706 N   0  0  0  0  0  0  0  0  0  0  0  0
    3.1080  -22.5270  -43.5258 C   0  0  0  0  0  0  0  0  0  0  0  0
    3.5711  -21.1839  -43.0566 C   0  0  0  0  0  0  0  0  0  0  0  0
    2.5671  -24.4444  -42.1281 C   0  0  0  0  0  0  0  0  0  0  0  0
    2.1852  -19.7914  -43.0913 H   0  0  0  0  0  0  0  0  0  0  0  0
 13 14  1  0  0  0
 14 15  2  0  0  0
 14 19  1  0  0  0
 15 16  1  0  0  0
 16 17  2  0  0  0
 17 18  1  0  0  0
 17  1  1  0  0  0
 18 19  2  0  0  0
  1  2  2  0  0  0
  1 11  1  0  0  0
  2  3  1  0  0  0
  2 20  1  0  0  0
  3  4  1  0  0  0
  4  5  2  0  0  0
  4  9  1  0  0  0
  5  6  1  0  0  0
  5 11  1  0  0  0
  6  7  2  0  0  0
  7  8  1  0  0  0
  8  9  2  0  0  0
  8 10  1  0  0  0
  9 25  1  0  0  0
 25 26  1  0  0  0
 26 27  1  0  0  0
 26 31  1  0  0  0
 27 28  1  0  0  0
 28 29  1  0  0  0
 29 30  1  0  0  0
 29 32  1  0  0  0
 30 31  1  0  0  0
 11 12  2  0  0  0
 20 21  2  0  0  0
 20 22  1  0  0  0
 22 23  1  0  0  0
 23 24  1  0  0  0
 26 33  1  0  0  0
M  CHG 1  10  -1
M  CHG 1  26   1
M  END
> <minimizedAffinity>
-6.50197

$$$$
320


 32 36  0  0  0  0  0  0  0  0999 V2000
    0.4394  -14.9762  -37.2016 C   0  0  0  0  0  0  0  0  0  0  0  0
   -0.9366  -14.7506  -37.3716 C   0  0  0  0  0  0  0  0  0  0  0  0
   -1.5557  -15.8557  -36.9762 N   0  0  0  0  0  0  0  0  0  0  0  0
   -2.8277  -16.3479  -36.8675 C   0  0  0  0  0  0  0  0  0  0  0  0
   -2.6827  -17.6178  -36.3685 C   0  0  0  0  0  0  0  0  0  0  0  0
   -1.3863  -17.8321  -36.2037 N   0  0  0  0  0  0  0  0  0  0  0  0
   -0.6672  -16.7359  -36.5800 C   0  0  0  0  0  0  0  0  0  0  0  0
    0.5873  -16.2112  -36.7095 N   0  0  0  0  0  0  0  0  0  0  0  0
   -3.7901  -18.4353  -36.1248 C   0  0  0  0  0  0  0  0  0  0  0  0
   -5.0577  -17.9622  -36.3870 C   0  0  0  0  0  0  0  0  0  0  0  0
   -5.1761  -16.6852  -36.8865 C   0  0  0  0  0  0  0  0  0  0  0  0
   -4.0801  -15.8665  -37.1327 C   0  0  0  0  0  0  0  0  0  0  0  0
   -1.0046  -18.7282  -35.8461 H   0  0  0  0  0  0  0  0  0  0  0  0
    4.6977  -10.8505  -38.9373 Br  0  0  0  0  0  0  0  0  0  0  0  0
    3.3733  -12.1318  -38.3774 C   0  0  0  0  0  0  0  0  0  0  0  0
    2.8488  -13.0411  -39.2438 C   0  0  0  0  0  0  0  0  0  0  0  0
    1.9104  -13.9475  -38.8417 C   0  0  0  0  0  0  0  0  0  0  0  0
    1.4430  -13.9920  -37.5437 C   0  0  0  0  0  0  0  0  0  0  0  0
    1.9634  -13.0884  -36.6808 C   0  0  0  0  0  0  0  0  0  0  0  0
    2.9373  -12.1419  -37.0822 C   0  0  0  0  0  0  0  0  0  0  0  0
    1.7502  -16.9689  -36.3614 C   0  0  0  0  0  0  0  0  0  0  0  0
    2.4143  -17.7277  -37.4382 C   0  0  0  0  0  0  0  0  0  0  0  0
    3.4687  -18.7109  -37.0778 C   0  0  0  0  0  0  0  0  0  0  0  0
    3.0437  -20.0728  -37.3148 N   0  0  0  0  0  0  0  0  0  0  0  0
    2.8552  -20.6393  -36.4916 H   0  0  0  0  0  0  0  0  0  0  0  0
    2.0719  -19.9848  -37.7887 H   0  0  0  0  0  0  0  0  0  0  0  0
    3.8552  -20.7603  -38.2752 C   0  0  0  0  0  0  0  0  0  0  0  0
    3.3765  -20.6659  -39.6964 C   0  0  0  0  0  0  0  0  0  0  0  0
    4.0517  -21.8209  -40.4509 C   0  0  0  0  0  0  0  0  0  0  0  0
    5.5264  -21.6170  -40.4075 C   0  0  0  0  0  0  0  0  0  0  0  0
    6.0735  -21.4151  -39.0135 C   0  0  0  0  0  0  0  0  0  0  0  0
    5.3075  -20.3010  -38.2910 C   0  0  0  0  0  0  0  0  0  0  0  0
 14 15  1  0  0  0
 15 16  2  0  0  0
 15 20  1  0  0  0
 16 17  1  0  0  0
 17 18  2  0  0  0
 18 19  1  0  0  0
 18  1  1  0  0  0
 19 20  2  0  0  0
  1  2  2  0  0  0
  1  8  1  0  0  0
  2  3  1  0  0  0
  3  4  1  0  0  0
  3  7  1  0  0  0
  4  5  2  0  0  0
  4 12  1  0  0  0
  5  6  1  0  0  0
  5  9  1  0  0  0
  6  7  2  0  0  0
  7  8  1  0  0  0
  8 21  1  0  0  0
 21 22  1  0  0  0
 22 23  1  0  0  0
 23 24  1  0  0  0
 24 27  1  0  0  0
 27 28  1  0  0  0
 27 32  1  0  0  0
 28 29  1  0  0  0
 29 30  1  0  0  0
 30 31  1  0  0  0
 31 32  1  0  0  0
  9 10  2  0  0  0
 10 11  1  0  0  0
 11 12  2  0  0  0
  6 13  1  0  0  0
 24 25  1  0  0  0
 24 26  1  0  0  0
M  CHG 1  24   1
M  END
> <minimizedAffinity>
-7.20901

$$$$
324


 34 38  0  0  0  0  0  0  0  0999 V2000
    0.2925  -15.0517  -37.0615 C   0  0  0  0  0  0  0  0  0  0  0  0
   -1.0813  -14.9135  -37.3357 C   0  0  0  0  0  0  0  0  0  0  0  0
   -1.7571  -15.9970  -36.9383 N   0  0  0  0  0  0  0  0  0  0  0  0
   -2.9893  -16.5581  -36.8698 C   0  0  0  0  0  0  0  0  0  0  0  0
   -2.8184  -17.7853  -36.2769 C   0  0  0  0  0  0  0  0  0  0  0  0
   -1.4933  -17.9377  -36.0014 N   0  0  0  0  0  0  0  0  0  0  0  0
   -0.8577  -16.8258  -36.4159 C   0  0  0  0  0  0  0  0  0  0  0  0
    0.3967  -16.2529  -36.4892 N   0  0  0  0  0  0  0  0  0  0  0  0
   -3.9335  -18.5740  -36.0857 C   0  0  0  0  0  0  0  0  0  0  0  0
   -5.1999  -18.1569  -36.4753 C   0  0  0  0  0  0  0  0  0  0  0  0
   -5.3687  -16.9311  -37.0681 C   0  0  0  0  0  0  0  0  0  0  0  0
   -4.2360  -16.1315  -37.2612 C   0  0  0  0  0  0  0  0  0  0  0  0
   -1.0771  -18.7804  -35.5479 H   0  0  0  0  0  0  0  0  0  0  0  0
    4.6490  -10.9691  -38.8173 Br  0  0  0  0  0  0  0  0  0  0  0  0
    3.2964  -12.2116  -38.2650 C   0  0  0  0  0  0  0  0  0  0  0  0
    2.8406  -12.2283  -36.9717 C   0  0  0  0  0  0  0  0  0  0  0  0
    1.8501  -13.1393  -36.5689 C   0  0  0  0  0  0  0  0  0  0  0  0
    1.2917  -14.0438  -37.4138 C   0  0  0  0  0  0  0  0  0  0  0  0
    1.7690  -14.0084  -38.7248 C   0  0  0  0  0  0  0  0  0  0  0  0
    2.7456  -13.1132  -39.1318 C   0  0  0  0  0  0  0  0  0  0  0  0
    1.5905  -16.9239  -36.0196 C   0  0  0  0  0  0  0  0  0  0  0  0
    2.4259  -17.5335  -37.1204 C   0  0  0  0  0  0  0  0  0  0  0  0
    1.5626  -18.2488  -38.1292 C   0  0  0  0  0  0  0  0  0  0  0  0
    1.8324  -19.6532  -38.2687 N   0  0  0  0  0  0  0  0  0  0  0  0
    2.9728  -19.9264  -37.4086 C   0  0  0  0  0  0  0  0  0  0  0  0
    4.0290  -20.7646  -38.0248 C   0  0  0  0  0  0  0  0  0  0  0  0
    4.4030  -20.4221  -39.3698 N   0  0  0  0  0  0  0  0  0  0  0  0
    3.3905  -19.6672  -40.0775 C   0  0  0  0  0  0  0  0  0  0  0  0
    2.0297  -20.1288  -39.5976 C   0  0  0  0  0  0  0  0  0  0  0  0
    4.4568  -21.3494  -39.8976 H   0  0  0  0  0  0  0  0  0  0  0  0
    5.7193  -19.8721  -39.4388 C   0  0  0  0  0  0  0  0  0  0  0  0
    6.5717  -20.0590  -38.2303 C   0  0  0  0  0  0  0  0  0  0  0  0
    7.1308  -18.8764  -37.7493 O   0  0  0  0  0  0  0  0  0  0  0  0
    6.4523  -18.1802  -37.7157 H   0  0  0  0  0  0  0  0  0  0  0  0
 14 15  1  0  0  0
 15 16  2  0  0  0
 15 20  1  0  0  0
 16 17  1  0  0  0
 17 18  2  0  0  0
 18 19  1  0  0  0
 18  1  1  0  0  0
 19 20  2  0  0  0
  1  2  2  0  0  0
  1  8  1  0  0  0
  2  3  1  0  0  0
  3  4  1  0  0  0
  3  7  1  0  0  0
  4  5  2  0  0  0
  4 12  1  0  0  0
  5  6  1  0  0  0
  5  9  1  0  0  0
  6  7  2  0  0  0
  7  8  1  0  0  0
  8 21  1  0  0  0
 21 22  1  0  0  0
 22 23  1  0  0  0
 23 24  1  0  0  0
 24 25  1  0  0  0
 24 29  1  0  0  0
 25 26  1  0  0  0
 26 27  1  0  0  0
 27 28  1  0  0  0
 27 31  1  0  0  0
 28 29  1  0  0  0
 31 32  1  0  0  0
 32 33  1  0  0  0
  9 10  2  0  0  0
 10 11  1  0  0  0
 11 12  2  0  0  0
  6 13  1  0  0  0
 27 30  1  0  0  0
 33 34  1  0  0  0
M  CHG 1  27   1
M  END
> <minimizedAffinity>
-7.23716

$$$$
346


 35 38  0  0  0  0  0  0  0  0999 V2000
    0.5706  -18.8369  -37.9460 C   0  0  0  0  0  0  0  0  0  0  0  0
   -0.5463  -19.2354  -38.7585 N   0  0  0  0  0  0  0  0  0  0  0  0
   -1.3254  -18.1176  -39.1386 C   0  0  0  0  0  0  0  0  0  0  0  0
   -2.3891  -18.0998  -39.8319 O   0  0  0  0  0  0  0  0  0  0  0  0
   -0.7038  -16.8905  -38.5922 C   0  0  0  0  0  0  0  0  0  0  0  0
   -1.1453  -15.7293  -38.7439 O   0  0  0  0  0  0  0  0  0  0  0  0
    0.4721  -17.3414  -37.8782 C   0  0  0  0  0  0  0  0  0  0  0  0
    1.2758  -16.5218  -37.2374 C   0  0  0  0  0  0  0  0  0  0  0  0
    2.3527  -17.0870  -36.5225 O   0  0  0  0  0  0  0  0  0  0  0  0
    6.0225  -20.7036  -40.2280 Br  0  0  0  0  0  0  0  0  0  0  0  0
    4.3377  -20.1397  -39.4972 C   0  0  0  0  0  0  0  0  0  0  0  0
    3.5595  -19.2438  -40.1958 C   0  0  0  0  0  0  0  0  0  0  0  0
    2.3282  -18.8188  -39.6869 C   0  0  0  0  0  0  0  0  0  0  0  0
    1.8619  -19.2827  -38.4757 C   0  0  0  0  0  0  0  0  0  0  0  0
    2.6690  -20.1766  -37.8093 C   0  0  0  0  0  0  0  0  0  0  0  0
    3.8819  -20.6047  -38.2949 C   0  0  0  0  0  0  0  0  0  0  0  0
    1.1713  -15.0853  -37.1978 C   0  0  0  0  0  0  0  0  0  0  0  0
    0.4689  -14.3488  -36.3095 C   0  0  0  0  0  0  0  0  0  0  0  0
    0.4824  -12.9709  -36.3645 C   0  0  0  0  0  0  0  0  0  0  0  0
    1.1963  -12.2602  -37.3053 C   0  0  0  0  0  0  0  0  0  0  0  0
    1.9048  -13.0358  -38.2018 C   0  0  0  0  0  0  0  0  0  0  0  0
    1.9120  -14.4030  -38.1754 C   0  0  0  0  0  0  0  0  0  0  0  0
   -0.3130  -12.1978  -35.3546 C   0  0  0  0  0  0  0  0  0  0  0  0
    1.2054  -10.8716  -37.3551 O   0  0  0  0  0  0  0  0  0  0  0  0
    2.3765  -10.1827  -37.7686 C   0  0  0  0  0  0  0  0  0  0  0  0
   -0.8219  -20.6140  -39.1205 C   0  0  0  0  0  0  0  0  0  0  0  0
   -1.8899  -21.2513  -38.2747 C   0  0  0  0  0  0  0  0  0  0  0  0
   -2.8140  -22.0999  -39.0931 C   0  0  0  0  0  0  0  0  0  0  0  0
   -3.0245  -23.4058  -38.5393 N   0  0  0  0  0  0  0  0  0  0  0  0
   -2.0660  -24.3878  -39.0034 C   0  0  0  0  0  0  0  0  0  0  0  0
   -2.2686  -25.6412  -38.1455 C   0  0  0  0  0  0  0  0  0  0  0  0
   -3.4314  -25.5403  -37.3963 O   0  0  0  0  0  0  0  0  0  0  0  0
   -4.5274  -25.2364  -38.2337 C   0  0  0  0  0  0  0  0  0  0  0  0
   -4.3794  -23.8180  -38.7725 C   0  0  0  0  0  0  0  0  0  0  0  0
   -2.8947  -23.3476  -37.4853 H   0  0  0  0  0  0  0  0  0  0  0  0
 10 11  1  0  0  0
 11 12  2  0  0  0
 11 16  1  0  0  0
 12 13  1  0  0  0
 13 14  2  0  0  0
 14 15  1  0  0  0
 14  1  1  0  0  0
 15 16  2  0  0  0
  1  2  1  0  0  0
  1  7  1  0  0  0
  2  3  1  0  0  0
  2 26  1  0  0  0
  3  4  2  0  0  0
  3  5  1  0  0  0
  5  6  2  0  0  0
  5  7  1  0  0  0
  7  8  2  0  0  0
  8  9  1  0  0  0
  8 17  1  0  0  0
 17 18  2  0  0  0
 17 22  1  0  0  0
 18 19  1  0  0  0
 19 20  2  0  0  0
 19 23  1  0  0  0
 20 21  1  0  0  0
 20 24  1  0  0  0
 21 22  2  0  0  0
 24 25  1  0  0  0
 26 27  1  0  0  0
 27 28  1  0  0  0
 28 29  1  0  0  0
 29 30  1  0  0  0
 29 34  1  0  0  0
 30 31  1  0  0  0
 31 32  1  0  0  0
 32 33  1  0  0  0
 33 34  1  0  0  0
 29 35  1  0  0  0
M  CHG 1   9  -1
M  CHG 1  29   1
M  END
> <minimizedAffinity>
-6.59094

$$$$
347


 34 37  0  0  0  0  0  0  0  0999 V2000
    0.6275  -18.4020  -37.8090 C   0  0  0  0  0  0  0  0  0  0  0  0
   -0.1896  -18.5344  -38.9979 N   0  0  0  0  0  0  0  0  0  0  0  0
    0.2557  -17.5246  -39.9059 C   0  0  0  0  0  0  0  0  0  0  0  0
    0.1616  -17.5429  -41.1582 O   0  0  0  0  0  0  0  0  0  0  0  0
    0.8383  -16.4742  -39.0780 C   0  0  0  0  0  0  0  0  0  0  0  0
    1.3623  -15.3854  -39.4226 O   0  0  0  0  0  0  0  0  0  0  0  0
    0.7189  -16.9003  -37.6873 C   0  0  0  0  0  0  0  0  0  0  0  0
    0.7329  -16.1374  -36.6219 C   0  0  0  0  0  0  0  0  0  0  0  0
    0.6556  -16.8019  -35.3850 O   0  0  0  0  0  0  0  0  0  0  0  0
    6.1544  -21.0178  -38.6013 Br  0  0  0  0  0  0  0  0  0  0  0  0
    4.4505  -20.1972  -38.3509 C   0  0  0  0  0  0  0  0  0  0  0  0
    3.3706  -20.6119  -39.0941 C   0  0  0  0  0  0  0  0  0  0  0  0
    2.1208  -20.0137  -38.9121 C   0  0  0  0  0  0  0  0  0  0  0  0
    1.9390  -19.0065  -37.9967 C   0  0  0  0  0  0  0  0  0  0  0  0
    3.0384  -18.6123  -37.2676 C   0  0  0  0  0  0  0  0  0  0  0  0
    4.2826  -19.1934  -37.4342 C   0  0  0  0  0  0  0  0  0  0  0  0
    0.8154  -14.6815  -36.6759 C   0  0  0  0  0  0  0  0  0  0  0  0
    1.9962  -13.9745  -36.6892 C   0  0  0  0  0  0  0  0  0  0  0  0
    2.0823  -12.5941  -36.7192 C   0  0  0  0  0  0  0  0  0  0  0  0
    0.9240  -11.8714  -36.7378 C   0  0  0  0  0  0  0  0  0  0  0  0
   -0.2943  -12.5445  -36.7265 C   0  0  0  0  0  0  0  0  0  0  0  0
   -0.3411  -13.9222  -36.6961 C   0  0  0  0  0  0  0  0  0  0  0  0
    3.3485  -12.0541  -36.7289 O   0  0  0  0  0  0  0  0  0  0  0  0
    3.8704  -11.1253  -37.6155 C   0  0  0  0  0  0  0  0  0  0  0  0
   -1.2683  -19.5063  -39.2449 C   0  0  0  0  0  0  0  0  0  0  0  0
   -1.9169  -19.9303  -37.9185 C   0  0  0  0  0  0  0  0  0  0  0  0
   -3.3108  -19.3748  -37.8516 C   0  0  0  0  0  0  0  0  0  0  0  0
   -3.5344  -18.8213  -36.5378 N   0  0  0  0  0  0  0  0  0  0  0  0
   -4.8644  -18.3445  -36.3230 C   0  0  0  0  0  0  0  0  0  0  0  0
   -5.1615  -17.0806  -37.0554 C   0  0  0  0  0  0  0  0  0  0  0  0
   -4.2465  -16.0941  -36.7313 O   0  0  0  0  0  0  0  0  0  0  0  0
   -2.9841  -16.5431  -37.1207 C   0  0  0  0  0  0  0  0  0  0  0  0
   -2.6255  -17.7276  -36.2443 C   0  0  0  0  0  0  0  0  0  0  0  0
   -3.3297  -19.5659  -35.8317 H   0  0  0  0  0  0  0  0  0  0  0  0
 10 11  1  0  0  0
 11 12  2  0  0  0
 11 16  1  0  0  0
 12 13  1  0  0  0
 13 14  2  0  0  0
 14 15  1  0  0  0
 14  1  1  0  0  0
 15 16  2  0  0  0
  1  2  1  0  0  0
  1  7  1  0  0  0
  2  3  1  0  0  0
  2 25  1  0  0  0
  3  4  2  0  0  0
  3  5  1  0  0  0
  5  6  2  0  0  0
  5  7  1  0  0  0
  7  8  2  0  0  0
  8  9  1  0  0  0
  8 17  1  0  0  0
 17 18  2  0  0  0
 17 22  1  0  0  0
 18 19  1  0  0  0
 19 20  2  0  0  0
 19 23  1  0  0  0
 20 21  1  0  0  0
 21 22  2  0  0  0
 23 24  1  0  0  0
 25 26  1  0  0  0
 26 27  1  0  0  0
 27 28  1  0  0  0
 28 29  1  0  0  0
 28 33  1  0  0  0
 29 30  1  0  0  0
 30 31  1  0  0  0
 31 32  1  0  0  0
 32 33  1  0  0  0
 28 34  1  0  0  0
M  CHG 1   9  -1
M  CHG 1  28   1
M  END
> <minimizedAffinity>
-6.21220

$$$$
349


 32 35  0  0  0  0  0  0  0  0999 V2000
    1.5538  -19.4318  -38.1664 C   0  0  0  0  0  0  0  0  0  0  0  0
    2.9444  -19.4541  -38.3187 N   0  0  0  0  0  0  0  0  0  0  0  0
    3.4338  -18.7490  -37.1158 C   0  0  0  0  0  0  0  0  0  0  0  0
    4.5258  -18.9397  -36.5128 O   0  0  0  0  0  0  0  0  0  0  0  0
    2.3691  -17.7925  -36.7968 C   0  0  0  0  0  0  0  0  0  0  0  0
    2.3294  -16.9475  -35.8511 O   0  0  0  0  0  0  0  0  0  0  0  0
    1.3258  -18.0012  -37.8194 C   0  0  0  0  0  0  0  0  0  0  0  0
    0.4827  -17.1156  -38.2999 C   0  0  0  0  0  0  0  0  0  0  0  0
   -0.3967  -17.4616  -39.3190 O   0  0  0  0  0  0  0  0  0  0  0  0
   -2.8598  -22.5306  -41.1100 Br  0  0  0  0  0  0  0  0  0  0  0  0
   -1.4782  -21.5603  -40.2058 C   0  0  0  0  0  0  0  0  0  0  0  0
   -1.5165  -21.3430  -38.8456 C   0  0  0  0  0  0  0  0  0  0  0  0
   -0.5207  -20.6476  -38.2218 C   0  0  0  0  0  0  0  0  0  0  0  0
    0.5790  -20.1236  -38.9182 C   0  0  0  0  0  0  0  0  0  0  0  0
    0.6119  -20.3402  -40.2503 C   0  0  0  0  0  0  0  0  0  0  0  0
   -0.4035  -21.0499  -40.8929 C   0  0  0  0  0  0  0  0  0  0  0  0
    0.4012  -15.7491  -37.8086 C   0  0  0  0  0  0  0  0  0  0  0  0
    1.2108  -14.7179  -38.1690 C   0  0  0  0  0  0  0  0  0  0  0  0
    0.9972  -13.4455  -37.6576 C   0  0  0  0  0  0  0  0  0  0  0  0
   -0.0359  -13.2106  -36.7792 C   0  0  0  0  0  0  0  0  0  0  0  0
   -0.8768  -14.2265  -36.3895 C   0  0  0  0  0  0  0  0  0  0  0  0
   -0.6437  -15.4902  -36.9141 C   0  0  0  0  0  0  0  0  0  0  0  0
   -0.2967  -11.8553  -36.2085 C   0  0  0  0  0  0  0  0  0  0  0  0
    3.9304  -19.9791  -39.2514 C   0  0  0  0  0  0  0  0  0  0  0  0
    4.3206  -21.4104  -38.9909 C   0  0  0  0  0  0  0  0  0  0  0  0
    4.7603  -22.1102  -40.1530 N   0  0  0  0  0  0  0  0  0  0  0  0
    5.7860  -21.3479  -40.8399 C   0  0  0  0  0  0  0  0  0  0  0  0
    6.2540  -22.1369  -42.0340 C   0  0  0  0  0  0  0  0  0  0  0  0
    5.1871  -22.1400  -42.9472 O   0  0  0  0  0  0  0  0  0  0  0  0
    4.1451  -22.8294  -42.3720 C   0  0  0  0  0  0  0  0  0  0  0  0
    3.6377  -22.1813  -41.1098 C   0  0  0  0  0  0  0  0  0  0  0  0
    5.0796  -23.0697  -39.9559 H   0  0  0  0  0  0  0  0  0  0  0  0
 10 11  1  0  0  0
 11 12  2  0  0  0
 11 16  1  0  0  0
 12 13  1  0  0  0
 13 14  2  0  0  0
 14 15  1  0  0  0
 14  1  1  0  0  0
 15 16  2  0  0  0
  1  2  1  0  0  0
  1  7  1  0  0  0
  2  3  1  0  0  0
  2 24  1  0  0  0
  3  4  2  0  0  0
  3  5  1  0  0  0
  5  6  2  0  0  0
  5  7  1  0  0  0
  7  8  2  0  0  0
  8  9  1  0  0  0
  8 17  1  0  0  0
 17 18  2  0  0  0
 17 22  1  0  0  0
 18 19  1  0  0  0
 19 20  2  0  0  0
 20 21  1  0  0  0
 20 23  1  0  0  0
 21 22  2  0  0  0
 24 25  1  0  0  0
 25 26  1  0  0  0
 26 27  1  0  0  0
 26 31  1  0  0  0
 27 28  1  0  0  0
 28 29  1  0  0  0
 29 30  1  0  0  0
 30 31  1  0  0  0
 26 32  1  0  0  0
M  CHG 1   9  -1
M  CHG 1  26   1
M  END
> <minimizedAffinity>
-6.62648

$$$$
351


 32 35  0  0  0  0  0  0  0  0999 V2000
    1.2149  -19.9997  -38.3517 C   0  0  0  0  0  0  0  0  0  0  0  0
    2.4689  -20.3472  -38.9131 N   0  0  0  0  0  0  0  0  0  0  0  0
    3.4283  -19.7679  -37.9780 C   0  0  0  0  0  0  0  0  0  0  0  0
    4.5919  -20.1961  -37.7469 O   0  0  0  0  0  0  0  0  0  0  0  0
    2.7584  -18.6109  -37.3866 C   0  0  0  0  0  0  0  0  0  0  0  0
    3.2053  -17.8030  -36.5316 O   0  0  0  0  0  0  0  0  0  0  0  0
    1.4283  -18.5648  -37.9977 C   0  0  0  0  0  0  0  0  0  0  0  0
    0.6712  -17.5025  -38.2056 C   0  0  0  0  0  0  0  0  0  0  0  0
   -0.5443  -17.6267  -38.8600 O   0  0  0  0  0  0  0  0  0  0  0  0
   -4.2177  -21.5216  -40.7661 Br  0  0  0  0  0  0  0  0  0  0  0  0
   -2.5167  -21.0353  -40.0683 C   0  0  0  0  0  0  0  0  0  0  0  0
   -1.4662  -20.6301  -40.8594 C   0  0  0  0  0  0  0  0  0  0  0  0
   -0.2253  -20.2784  -40.3078 C   0  0  0  0  0  0  0  0  0  0  0  0
   -0.0182  -20.3276  -38.9585 C   0  0  0  0  0  0  0  0  0  0  0  0
   -1.0890  -20.7369  -38.1909 C   0  0  0  0  0  0  0  0  0  0  0  0
   -2.3129  -21.0847  -38.7150 C   0  0  0  0  0  0  0  0  0  0  0  0
    1.0309  -16.1591  -37.7737 C   0  0  0  0  0  0  0  0  0  0  0  0
    1.6561  -15.3788  -38.7557 C   0  0  0  0  0  0  0  0  0  0  0  0
    2.0242  -14.0738  -38.5243 C   0  0  0  0  0  0  0  0  0  0  0  0
    1.7602  -13.5281  -37.2728 C   0  0  0  0  0  0  0  0  0  0  0  0
    1.1449  -14.3011  -36.3129 C   0  0  0  0  0  0  0  0  0  0  0  0
    0.7792  -15.6086  -36.5554 C   0  0  0  0  0  0  0  0  0  0  0  0
    2.2335  -11.8683  -36.9897 Cl  0  0  0  0  0  0  0  0  0  0  0  0
    2.8767  -21.1303  -40.0830 C   0  0  0  0  0  0  0  0  0  0  0  0
    3.6603  -20.3600  -41.1004 C   0  0  0  0  0  0  0  0  0  0  0  0
    5.0735  -20.3105  -40.7993 N   0  0  0  0  0  0  0  0  0  0  0  0
    5.8202  -19.5282  -41.7441 C   0  0  0  0  0  0  0  0  0  0  0  0
    5.9364  -20.1592  -43.1007 C   0  0  0  0  0  0  0  0  0  0  0  0
    6.4093  -21.4707  -43.0320 O   0  0  0  0  0  0  0  0  0  0  0  0
    5.4750  -22.1832  -42.2652 C   0  0  0  0  0  0  0  0  0  0  0  0
    5.5873  -21.6674  -40.8466 C   0  0  0  0  0  0  0  0  0  0  0  0
    5.2668  -19.9444  -39.8471 H   0  0  0  0  0  0  0  0  0  0  0  0
 10 11  1  0  0  0
 11 12  2  0  0  0
 11 16  1  0  0  0
 12 13  1  0  0  0
 13 14  2  0  0  0
 14 15  1  0  0  0
 14  1  1  0  0  0
 15 16  2  0  0  0
  1  2  1  0  0  0
  1  7  1  0  0  0
  2  3  1  0  0  0
  2 24  1  0  0  0
  3  4  2  0  0  0
  3  5  1  0  0  0
  5  6  2  0  0  0
  5  7  1  0  0  0
  7  8  2  0  0  0
  8  9  1  0  0  0
  8 17  1  0  0  0
 17 18  2  0  0  0
 17 22  1  0  0  0
 18 19  1  0  0  0
 19 20  2  0  0  0
 20 21  1  0  0  0
 20 23  1  0  0  0
 21 22  2  0  0  0
 24 25  1  0  0  0
 25 26  1  0  0  0
 26 27  1  0  0  0
 26 31  1  0  0  0
 27 28  1  0  0  0
 28 29  1  0  0  0
 29 30  1  0  0  0
 30 31  1  0  0  0
 26 32  1  0  0  0
M  CHG 1   9  -1
M  CHG 1  26   1
M  END
> <minimizedAffinity>
-6.08876

$$$$
354


 32 35  0  0  0  0  0  0  0  0999 V2000
    2.2295  -18.5504  -38.5028 C   0  0  0  0  0  0  0  0  0  0  0  0
    3.4515  -18.9022  -37.8536 N   0  0  0  0  0  0  0  0  0  0  0  0
    3.3108  -18.4433  -36.4842 C   0  0  0  0  0  0  0  0  0  0  0  0
    3.9911  -18.8699  -35.5151 O   0  0  0  0  0  0  0  0  0  0  0  0
    2.2701  -17.4334  -36.4577 C   0  0  0  0  0  0  0  0  0  0  0  0
    1.8459  -16.7820  -35.4552 O   0  0  0  0  0  0  0  0  0  0  0  0
    1.7951  -17.3028  -37.8201 C   0  0  0  0  0  0  0  0  0  0  0  0
    1.1469  -16.2655  -38.3192 C   0  0  0  0  0  0  0  0  0  0  0  0
    0.8215  -16.3381  -39.6955 O   0  0  0  0  0  0  0  0  0  0  0  0
    1.8453  -18.4700  -44.6713 Br  0  0  0  0  0  0  0  0  0  0  0  0
    1.9960  -18.4626  -42.7681 C   0  0  0  0  0  0  0  0  0  0  0  0
    3.0009  -17.7844  -42.1131 C   0  0  0  0  0  0  0  0  0  0  0  0
    3.0961  -17.7890  -40.7346 C   0  0  0  0  0  0  0  0  0  0  0  0
    2.2174  -18.4545  -39.9492 C   0  0  0  0  0  0  0  0  0  0  0  0
    1.1974  -19.1419  -40.6281 C   0  0  0  0  0  0  0  0  0  0  0  0
    1.0827  -19.1505  -41.9991 C   0  0  0  0  0  0  0  0  0  0  0  0
    0.7563  -15.0968  -37.5565 C   0  0  0  0  0  0  0  0  0  0  0  0
    1.7108  -14.0764  -37.4614 C   0  0  0  0  0  0  0  0  0  0  0  0
    1.4580  -12.8913  -36.8028 C   0  0  0  0  0  0  0  0  0  0  0  0
    0.2581  -12.6956  -36.2267 N   0  0  0  0  0  0  0  0  0  0  0  0
   -0.6806  -13.6615  -36.3028 C   0  0  0  0  0  0  0  0  0  0  0  0
   -0.4374  -14.8628  -36.9658 C   0  0  0  0  0  0  0  0  0  0  0  0
    4.6308  -19.6377  -38.3141 C   0  0  0  0  0  0  0  0  0  0  0  0
    4.4091  -21.0874  -38.5819 C   0  0  0  0  0  0  0  0  0  0  0  0
    5.5596  -21.7045  -39.3620 C   0  0  0  0  0  0  0  0  0  0  0  0
    5.1166  -22.2041  -40.6428 N   0  0  0  0  0  0  0  0  0  0  0  0
    3.7561  -21.8227  -40.9473 C   0  0  0  0  0  0  0  0  0  0  0  0
    3.5694  -22.0291  -42.4524 C   0  0  0  0  0  0  0  0  0  0  0  0
    4.2113  -20.9881  -43.1222 O   0  0  0  0  0  0  0  0  0  0  0  0
    5.4306  -20.6687  -42.5262 C   0  0  0  0  0  0  0  0  0  0  0  0
    5.9774  -21.8308  -41.7228 C   0  0  0  0  0  0  0  0  0  0  0  0
    5.1294  -23.2499  -40.5734 H   0  0  0  0  0  0  0  0  0  0  0  0
 10 11  1  0  0  0
 11 12  2  0  0  0
 11 16  1  0  0  0
 12 13  1  0  0  0
 13 14  2  0  0  0
 14 15  1  0  0  0
 14  1  1  0  0  0
 15 16  2  0  0  0
  1  2  1  0  0  0
  1  7  1  0  0  0
  2  3  1  0  0  0
  2 23  1  0  0  0
  3  4  2  0  0  0
  3  5  1  0  0  0
  5  6  2  0  0  0
  5  7  1  0  0  0
  7  8  2  0  0  0
  8  9  1  0  0  0
  8 17  1  0  0  0
 17 18  2  0  0  0
 17 22  1  0  0  0
 18 19  1  0  0  0
 19 20  2  0  0  0
 20 21  1  0  0  0
 21 22  2  0  0  0
 23 24  1  0  0  0
 24 25  1  0  0  0
 25 26  1  0  0  0
 26 27  1  0  0  0
 26 31  1  0  0  0
 27 28  1  0  0  0
 28 29  1  0  0  0
 29 30  1  0  0  0
 30 31  1  0  0  0
 26 32  1  0  0  0
M  CHG 1   9  -1
M  CHG 1  26   1
M  END
> <minimizedAffinity>
-5.90820

$$$$
361


 33 36  0  0  0  0  0  0  0  0999 V2000
    2.1329  -18.4348  -39.0607 C   0  0  0  0  0  0  0  0  0  0  0  0
    2.6344  -18.0714  -40.3990 N   0  0  0  0  0  0  0  0  0  0  0  0
    1.6252  -17.2255  -40.9389 C   0  0  0  0  0  0  0  0  0  0  0  0
    1.4251  -17.0572  -42.1764 O   0  0  0  0  0  0  0  0  0  0  0  0
    0.8907  -16.6081  -39.8396 C   0  0  0  0  0  0  0  0  0  0  0  0
   -0.0591  -15.8032  -39.9294 O   0  0  0  0  0  0  0  0  0  0  0  0
    1.5072  -17.1295  -38.6338 C   0  0  0  0  0  0  0  0  0  0  0  0
    1.5535  -16.5825  -37.4459 C   0  0  0  0  0  0  0  0  0  0  0  0
    2.2331  -17.1948  -36.4025 O   0  0  0  0  0  0  0  0  0  0  0  0
    0.8980  -15.3204  -37.1600 C   0  0  0  0  0  0  0  0  0  0  0  0
    1.2853  -14.0444  -37.3626 N   0  0  0  0  0  0  0  0  0  0  0  0
    0.3624  -13.1870  -36.9030 C   0  0  0  0  0  0  0  0  0  0  0  0
   -0.6333  -13.9462  -36.3969 N   0  0  0  0  0  0  0  0  0  0  0  0
   -0.3608  -15.2299  -36.5273 C   0  0  0  0  0  0  0  0  0  0  0  0
   -1.1677  -16.4238  -36.1172 C   0  0  0  0  0  0  0  0  0  0  0  0
    0.4960  -11.8014  -36.9987 C   0  0  0  0  0  0  0  0  0  0  0  0
    1.6140  -11.2576  -37.5879 C   0  0  0  0  0  0  0  0  0  0  0  0
    2.5489  -12.1520  -38.0558 C   0  0  0  0  0  0  0  0  0  0  0  0
    2.3901  -13.5130  -37.9465 C   0  0  0  0  0  0  0  0  0  0  0  0
   -2.5112  -22.5517  -39.4928 Br  0  0  0  0  0  0  0  0  0  0  0  0
   -1.0737  -21.2836  -39.3596 C   0  0  0  0  0  0  0  0  0  0  0  0
   -0.9048  -20.5248  -38.2158 C   0  0  0  0  0  0  0  0  0  0  0  0
    0.1427  -19.6090  -38.1339 C   0  0  0  0  0  0  0  0  0  0  0  0
    1.0355  -19.4226  -39.1624 C   0  0  0  0  0  0  0  0  0  0  0  0
    0.8495  -20.1887  -40.2925 C   0  0  0  0  0  0  0  0  0  0  0  0
   -0.1807  -21.0950  -40.3844 C   0  0  0  0  0  0  0  0  0  0  0  0
    3.8679  -18.5104  -40.9967 C   0  0  0  0  0  0  0  0  0  0  0  0
    4.7565  -19.4200  -40.2433 C   0  0  0  0  0  0  0  0  0  0  0  0
    4.6364  -20.8849  -40.3909 C   0  0  0  0  0  0  0  0  0  0  0  0
    4.7301  -21.6908  -39.2113 N   0  0  0  0  0  0  0  0  0  0  0  0
    6.1784  -21.7766  -38.8690 C   0  0  0  0  0  0  0  0  0  0  0  0
    4.1430  -20.9904  -38.0874 C   0  0  0  0  0  0  0  0  0  0  0  0
    4.3573  -22.6383  -39.2676 H   0  0  0  0  0  0  0  0  0  0  0  0
 20 21  1  0  0  0
 21 22  2  0  0  0
 21 26  1  0  0  0
 22 23  1  0  0  0
 23 24  2  0  0  0
 24 25  1  0  0  0
 24  1  1  0  0  0
 25 26  2  0  0  0
  1  2  1  0  0  0
  1  7  1  0  0  0
  2  3  1  0  0  0
  2 27  1  0  0  0
  3  4  2  0  0  0
  3  5  1  0  0  0
  5  6  2  0  0  0
  5  7  1  0  0  0
  7  8  2  0  0  0
  8  9  1  0  0  0
  8 10  1  0  0  0
 10 11  1  0  0  0
 10 14  2  0  0  0
 11 12  1  0  0  0
 11 19  1  0  0  0
 12 13  2  0  0  0
 12 16  1  0  0  0
 13 14  1  0  0  0
 14 15  1  0  0  0
 16 17  2  0  0  0
 17 18  1  0  0  0
 18 19  2  0  0  0
 27 28  1  0  0  0
 28 29  1  0  0  0
 29 30  1  0  0  0
 30 31  1  0  0  0
 30 32  1  0  0  0
 30 33  1  0  0  0
M  CHG 1   9  -1
M  CHG 1  30   1
M  END
> <minimizedAffinity>
-5.96708

$$$$
362


 36 40  0  0  0  0  0  0  0  0999 V2000
    1.6505  -19.5980  -38.2506 C   0  0  0  0  0  0  0  0  0  0  0  0
    2.4213  -18.7006  -37.4973 N   0  0  0  0  0  0  0  0  0  0  0  0
    3.6510  -19.4424  -37.2757 C   0  0  0  0  0  0  0  0  0  0  0  0
    4.4838  -19.3167  -36.3144 O   0  0  0  0  0  0  0  0  0  0  0  0
    3.7938  -20.3950  -38.3712 C   0  0  0  0  0  0  0  0  0  0  0  0
    4.6987  -21.2572  -38.6117 O   0  0  0  0  0  0  0  0  0  0  0  0
    2.6214  -20.1750  -39.2156 C   0  0  0  0  0  0  0  0  0  0  0  0
    2.4654  -20.4619  -40.4943 C   0  0  0  0  0  0  0  0  0  0  0  0
    1.2465  -20.2256  -41.1149 O   0  0  0  0  0  0  0  0  0  0  0  0
    3.5311  -21.0240  -41.3097 C   0  0  0  0  0  0  0  0  0  0  0  0
    3.6137  -22.2641  -41.8207 N   0  0  0  0  0  0  0  0  0  0  0  0
    4.7431  -22.3889  -42.5559 C   0  0  0  0  0  0  0  0  0  0  0  0
    5.3665  -21.2014  -42.4949 N   0  0  0  0  0  0  0  0  0  0  0  0
    4.6689  -20.3462  -41.7508 C   0  0  0  0  0  0  0  0  0  0  0  0
    4.9604  -18.9302  -41.4019 C   0  0  0  0  0  0  0  0  0  0  0  0
    5.0873  -23.5639  -43.1896 C   0  0  0  0  0  0  0  0  0  0  0  0
    4.2857  -24.6771  -43.0983 C   0  0  0  0  0  0  0  0  0  0  0  0
    3.1335  -24.5681  -42.3521 C   0  0  0  0  0  0  0  0  0  0  0  0
    2.8388  -23.3856  -41.7475 C   0  0  0  0  0  0  0  0  0  0  0  0
   -3.9444  -18.3504  -40.4461 Br  0  0  0  0  0  0  0  0  0  0  0  0
   -2.1973  -18.7211  -39.7754 C   0  0  0  0  0  0  0  0  0  0  0  0
   -1.1634  -17.8086  -39.8738 C   0  0  0  0  0  0  0  0  0  0  0  0
    0.0996  -18.0758  -39.3892 C   0  0  0  0  0  0  0  0  0  0  0  0
    0.3656  -19.2721  -38.7870 C   0  0  0  0  0  0  0  0  0  0  0  0
   -0.6528  -20.1770  -38.6873 C   0  0  0  0  0  0  0  0  0  0  0  0
   -1.9191  -19.9289  -39.1648 C   0  0  0  0  0  0  0  0  0  0  0  0
    2.3230  -17.3996  -36.9192 C   0  0  0  0  0  0  0  0  0  0  0  0
    1.4185  -17.0744  -35.8380 C   0  0  0  0  0  0  0  0  0  0  0  0
    0.3715  -16.0143  -36.0868 C   0  0  0  0  0  0  0  0  0  0  0  0
    0.8851  -14.9507  -36.9446 N   0  0  0  0  0  0  0  0  0  0  0  0
    1.3679  -13.8064  -36.2296 C   0  0  0  0  0  0  0  0  0  0  0  0
    0.3254  -12.7723  -35.9219 C   0  0  0  0  0  0  0  0  0  0  0  0
   -0.9589  -13.2149  -36.0949 O   0  0  0  0  0  0  0  0  0  0  0  0
   -1.2273  -13.7826  -37.3131 C   0  0  0  0  0  0  0  0  0  0  0  0
   -0.0784  -14.5233  -37.9134 C   0  0  0  0  0  0  0  0  0  0  0  0
    1.7077  -15.3602  -37.4537 H   0  0  0  0  0  0  0  0  0  0  0  0
 20 21  1  0  0  0
 21 22  2  0  0  0
 21 26  1  0  0  0
 22 23  1  0  0  0
 23 24  2  0  0  0
 24 25  1  0  0  0
 24  1  1  0  0  0
 25 26  2  0  0  0
  1  2  1  0  0  0
  1  7  1  0  0  0
  2  3  1  0  0  0
  2 27  1  0  0  0
  3  4  2  0  0  0
  3  5  1  0  0  0
  5  6  2  0  0  0
  5  7  1  0  0  0
  7  8  2  0  0  0
  8  9  1  0  0  0
  8 10  1  0  0  0
 10 11  1  0  0  0
 10 14  2  0  0  0
 11 12  1  0  0  0
 11 19  1  0  0  0
 12 13  2  0  0  0
 12 16  1  0  0  0
 13 14  1  0  0  0
 14 15  1  0  0  0
 16 17  2  0  0  0
 17 18  1  0  0  0
 18 19  2  0  0  0
 27 28  1  0  0  0
 28 29  1  0  0  0
 29 30  1  0  0  0
 30 31  1  0  0  0
 30 35  1  0  0  0
 31 32  1  0  0  0
 32 33  1  0  0  0
 33 34  1  0  0  0
 34 35  1  0  0  0
 30 36  1  0  0  0
M  CHG 1   9  -1
M  CHG 1  30   1
M  END
> <minimizedAffinity>
-6.28211

$$$$
364


 32 35  0  0  0  0  0  0  0  0999 V2000
    0.8859  -16.5602  -37.1302 C   0  0  0  0  0  0  0  0  0  0  0  0
    1.6799  -17.4574  -37.9235 N   0  0  0  0  0  0  0  0  0  0  0  0
    2.0117  -16.7828  -39.1246 C   0  0  0  0  0  0  0  0  0  0  0  0
    2.5280  -17.3143  -40.1488 O   0  0  0  0  0  0  0  0  0  0  0  0
    1.6601  -15.3667  -38.9931 C   0  0  0  0  0  0  0  0  0  0  0  0
    1.8097  -14.4574  -39.8463 O   0  0  0  0  0  0  0  0  0  0  0  0
    1.0974  -15.1982  -37.6654 C   0  0  0  0  0  0  0  0  0  0  0  0
    0.8824  -14.0419  -37.0589 C   0  0  0  0  0  0  0  0  0  0  0  0
    0.3995  -14.0900  -35.7364 O   0  0  0  0  0  0  0  0  0  0  0  0
    1.0858  -12.7304  -37.6222 C   0  0  0  0  0  0  0  0  0  0  0  0
    2.1195  -11.8799  -37.6114 N   0  0  0  0  0  0  0  0  0  0  0  0
    1.8097  -10.7396  -38.2523 C   0  0  0  0  0  0  0  0  0  0  0  0
    0.5440  -10.8651  -38.6856 N   0  0  0  0  0  0  0  0  0  0  0  0
    0.0738  -12.0593  -38.3217 C   0  0  0  0  0  0  0  0  0  0  0  0
   -1.2935  -12.5708  -38.6197 C   0  0  0  0  0  0  0  0  0  0  0  0
    2.6983   -9.6818  -38.4122 C   0  0  0  0  0  0  0  0  0  0  0  0
    3.9559   -9.8086  -37.8900 C   0  0  0  0  0  0  0  0  0  0  0  0
    4.2783  -10.9810  -37.2314 C   0  0  0  0  0  0  0  0  0  0  0  0
    3.3630  -11.9992  -37.0985 C   0  0  0  0  0  0  0  0  0  0  0  0
   -5.1193  -18.1725  -37.0309 Br  0  0  0  0  0  0  0  0  0  0  0  0
   -3.2793  -17.6612  -37.0996 C   0  0  0  0  0  0  0  0  0  0  0  0
   -2.4790  -17.9362  -36.0278 C   0  0  0  0  0  0  0  0  0  0  0  0
   -1.1530  -17.5731  -36.0636 C   0  0  0  0  0  0  0  0  0  0  0  0
   -0.5533  -16.9376  -37.1273 C   0  0  0  0  0  0  0  0  0  0  0  0
   -1.3985  -16.6720  -38.2059 C   0  0  0  0  0  0  0  0  0  0  0  0
   -2.7265  -17.0275  -38.1868 C   0  0  0  0  0  0  0  0  0  0  0  0
    2.0850  -18.8338  -37.5622 C   0  0  0  0  0  0  0  0  0  0  0  0
    3.5643  -18.8693  -37.2435 C   0  0  0  0  0  0  0  0  0  0  0  0
    4.3606  -19.3692  -38.3088 N   0  0  0  0  0  0  0  0  0  0  0  0
    5.7628  -19.2552  -37.9070 C   0  0  0  0  0  0  0  0  0  0  0  0
    4.1002  -20.7251  -38.6817 C   0  0  0  0  0  0  0  0  0  0  0  0
    4.2650  -18.7818  -39.1846 H   0  0  0  0  0  0  0  0  0  0  0  0
 20 21  1  0  0  0
 21 22  2  0  0  0
 21 26  1  0  0  0
 22 23  1  0  0  0
 23 24  2  0  0  0
 24 25  1  0  0  0
 24  1  1  0  0  0
 25 26  2  0  0  0
  1  2  1  0  0  0
  1  7  1  0  0  0
  2  3  1  0  0  0
  2 27  1  0  0  0
  3  4  2  0  0  0
  3  5  1  0  0  0
  5  6  2  0  0  0
  5  7  1  0  0  0
  7  8  2  0  0  0
  8  9  1  0  0  0
  8 10  1  0  0  0
 10 11  1  0  0  0
 10 14  2  0  0  0
 11 12  1  0  0  0
 11 19  1  0  0  0
 12 13  2  0  0  0
 12 16  1  0  0  0
 13 14  1  0  0  0
 14 15  1  0  0  0
 16 17  2  0  0  0
 17 18  1  0  0  0
 18 19  2  0  0  0
 27 28  1  0  0  0
 28 29  1  0  0  0
 29 30  1  0  0  0
 29 31  1  0  0  0
 29 32  1  0  0  0
M  CHG 1   9  -1
M  CHG 1  29   1
M  END
> <minimizedAffinity>
-5.93231

$$$$
381


 29 32  0  0  0  0  0  0  0  0999 V2000
    1.1473  -16.0288  -36.4231 N   0  0  0  0  0  0  0  0  0  0  0  0
    1.6296  -14.9216  -36.9797 N   0  0  0  0  0  0  0  0  0  0  0  0
    0.8088  -13.9420  -37.4556 C   0  0  0  0  0  0  0  0  0  0  0  0
   -0.5209  -14.0975  -37.3628 N   0  0  0  0  0  0  0  0  0  0  0  0
   -1.2050  -12.9637  -37.9446 C   0  0  0  0  0  0  0  0  0  0  0  0
   -0.1472  -12.0187  -38.4317 C   0  0  0  0  0  0  0  0  0  0  0  0
    1.0864  -12.6769  -38.0442 N   0  0  0  0  0  0  0  0  0  0  0  0
   -1.0658  -15.1907  -36.8124 C   0  0  0  0  0  0  0  0  0  0  0  0
   -2.3087  -15.3338  -36.7268 O   0  0  0  0  0  0  0  0  0  0  0  0
   -0.1897  -16.1499  -36.3455 C   0  0  0  0  0  0  0  0  0  0  0  0
   -0.6538  -17.1942  -35.8220 O   0  0  0  0  0  0  0  0  0  0  0  0
    2.3601  -12.0952  -38.2462 C   0  0  0  0  0  0  0  0  0  0  0  0
    3.0282  -11.3737  -37.2936 C   0  0  0  0  0  0  0  0  0  0  0  0
    4.2670  -10.8035  -37.5276 C   0  0  0  0  0  0  0  0  0  0  0  0
    4.8672  -10.9586  -38.7626 C   0  0  0  0  0  0  0  0  0  0  0  0
    4.2209  -11.6723  -39.7222 C   0  0  0  0  0  0  0  0  0  0  0  0
    2.9863  -12.2362  -39.4810 C   0  0  0  0  0  0  0  0  0  0  0  0
    2.0206  -17.0797  -35.8748 C   0  0  0  0  0  0  0  0  0  0  0  0
    3.6227  -18.8239  -36.8781 N   0  0  0  0  0  0  0  0  0  0  0  0
    2.5574  -17.9179  -36.9457 C   0  0  0  0  0  0  0  0  0  0  0  0
    1.9361  -17.7650  -38.0715 O   0  0  0  0  0  0  0  0  0  0  0  0
    4.1081  -18.9097  -35.9404 H   0  0  0  0  0  0  0  0  0  0  0  0
    5.9570  -21.9809  -41.6312 Br  0  0  0  0  0  0  0  0  0  0  0  0
    5.2098  -21.0350  -40.1487 C   0  0  0  0  0  0  0  0  0  0  0  0
    4.0655  -21.4555  -39.5241 C   0  0  0  0  0  0  0  0  0  0  0  0
    3.5255  -20.7507  -38.4393 C   0  0  0  0  0  0  0  0  0  0  0  0
    4.0951  -19.6095  -37.9329 C   0  0  0  0  0  0  0  0  0  0  0  0
    5.2702  -19.2067  -38.5972 C   0  0  0  0  0  0  0  0  0  0  0  0
    5.8017  -19.8884  -39.6566 C   0  0  0  0  0  0  0  0  0  0  0  0
 23 24  1  0  0  0
 24 25  2  0  0  0
 24 29  1  0  0  0
 25 26  1  0  0  0
 26 27  2  0  0  0
 27 28  1  0  0  0
 27 19  1  0  0  0
 28 29  2  0  0  0
 19 20  1  0  0  0
 20 21  2  0  0  0
 20 18  1  0  0  0
 18  1  1  0  0  0
  1  2  1  0  0  0
  1 10  1  0  0  0
  2  3  2  0  0  0
  3  4  1  0  0  0
  3  7  1  0  0  0
  4  5  1  0  0  0
  4  8  1  0  0  0
  5  6  1  0  0  0
  6  7  1  0  0  0
  7 12  1  0  0  0
 12 13  2  0  0  0
 12 17  1  0  0  0
 13 14  1  0  0  0
 14 15  2  0  0  0
 15 16  1  0  0  0
 16 17  2  0  0  0
  8  9  2  0  0  0
  8 10  1  0  0  0
 10 11  2  0  0  0
 19 22  1  0  0  0
M  END
> <minimizedAffinity>
-7.02702

$$$$
382


 31 34  0  0  0  0  0  0  0  0999 V2000
    0.8856  -15.9558  -37.1091 N   0  0  0  0  0  0  0  0  0  0  0  0
    1.0988  -15.9179  -35.7936 N   0  0  0  0  0  0  0  0  0  0  0  0
    1.9797  -16.8353  -35.4672 N   0  0  0  0  0  0  0  0  0  0  0  0
    2.3547  -17.4890  -36.5927 C   0  0  0  0  0  0  0  0  0  0  0  0
    1.6688  -16.9327  -37.5986 C   0  0  0  0  0  0  0  0  0  0  0  0
    2.0762  -17.6230  -38.7208 C   0  0  0  0  0  0  0  0  0  0  0  0
    1.6303  -17.3660  -39.8786 O   0  0  0  0  0  0  0  0  0  0  0  0
    2.9798  -18.5712  -38.4288 N   0  0  0  0  0  0  0  0  0  0  0  0
    3.1600  -18.4915  -37.0797 C   0  0  0  0  0  0  0  0  0  0  0  0
    3.9514  -19.2454  -36.4504 O   0  0  0  0  0  0  0  0  0  0  0  0
    0.6187  -15.2461  -35.1595 H   0  0  0  0  0  0  0  0  0  0  0  0
    2.3638  -17.0658  -34.5172 H   0  0  0  0  0  0  0  0  0  0  0  0
    3.6393  -19.4901  -39.3121 C   0  0  0  0  0  0  0  0  0  0  0  0
    3.0422  -20.6789  -39.6728 C   0  0  0  0  0  0  0  0  0  0  0  0
    3.6653  -21.5632  -40.5306 C   0  0  0  0  0  0  0  0  0  0  0  0
    4.9133  -21.3067  -41.0687 C   0  0  0  0  0  0  0  0  0  0  0  0
    5.5129  -20.1180  -40.7096 C   0  0  0  0  0  0  0  0  0  0  0  0
    4.8829  -19.2339  -39.8490 C   0  0  0  0  0  0  0  0  0  0  0  0
    5.5546  -22.2794  -41.9942 C   0  0  0  0  0  0  0  0  0  0  0  0
   -0.0300  -15.0832  -37.8171 C   0  0  0  0  0  0  0  0  0  0  0  0
    2.1453  -13.8580  -38.2225 N   0  0  0  0  0  0  0  0  0  0  0  0
    0.7499  -13.8905  -38.3447 C   0  0  0  0  0  0  0  0  0  0  0  0
    0.1276  -12.9497  -38.8805 O   0  0  0  0  0  0  0  0  0  0  0  0
    2.6335  -14.6836  -37.7505 H   0  0  0  0  0  0  0  0  0  0  0  0
    5.9168   -9.5265  -40.4169 Br  0  0  0  0  0  0  0  0  0  0  0  0
    4.7444  -10.8329  -39.6883 C   0  0  0  0  0  0  0  0  0  0  0  0
    4.3129  -10.7960  -38.3868 C   0  0  0  0  0  0  0  0  0  0  0  0
    3.4571  -11.7761  -37.9026 C   0  0  0  0  0  0  0  0  0  0  0  0
    2.9955  -12.8221  -38.6721 C   0  0  0  0  0  0  0  0  0  0  0  0
    3.4585  -12.8269  -40.0017 C   0  0  0  0  0  0  0  0  0  0  0  0
    4.2962  -11.8693  -40.4772 C   0  0  0  0  0  0  0  0  0  0  0  0
 25 26  1  0  0  0
 26 27  2  0  0  0
 26 31  1  0  0  0
 27 28  1  0  0  0
 28 29  2  0  0  0
 29 30  1  0  0  0
 29 21  1  0  0  0
 30 31  2  0  0  0
 21 22  1  0  0  0
 22 23  2  0  0  0
 22 20  1  0  0  0
 20  1  1  0  0  0
  1  2  1  0  0  0
  1  5  1  0  0  0
  2  3  1  0  0  0
  3  4  1  0  0  0
  4  5  2  0  0  0
  4  9  1  0  0  0
  5  6  1  0  0  0
  6  7  2  0  0  0
  6  8  1  0  0  0
  8  9  1  0  0  0
  8 13  1  0  0  0
  9 10  2  0  0  0
 13 14  2  0  0  0
 13 18  1  0  0  0
 14 15  1  0  0  0
 15 16  2  0  0  0
 16 17  1  0  0  0
 16 19  1  0  0  0
 17 18  2  0  0  0
 21 24  1  0  0  0
  2 11  1  0  0  0
  3 12  1  0  0  0
M  END
> <minimizedAffinity>
-7.29067

$$$$
385


 32 35  0  0  0  0  0  0  0  0999 V2000
    0.0052  -15.7839  -37.3418 C   0  0  0  0  0  0  0  0  0  0  0  0
   -0.8852  -16.5722  -38.2556 C   0  0  0  0  0  0  0  0  0  0  0  0
   -0.2977  -16.8792  -39.5658 C   0  0  0  0  0  0  0  0  0  0  0  0
   -0.6506  -17.9476  -40.1354 O   0  0  0  0  0  0  0  0  0  0  0  0
    0.6368  -15.9921  -40.1542 N   0  0  0  0  0  0  0  0  0  0  0  0
    1.2570  -14.9965  -39.3686 C   0  0  0  0  0  0  0  0  0  0  0  0
    2.1470  -14.1413  -39.9617 N   0  0  0  0  0  0  0  0  0  0  0  0
    2.7591  -13.1691  -39.2825 C   0  0  0  0  0  0  0  0  0  0  0  0
    2.4767  -13.0485  -37.9791 N   0  0  0  0  0  0  0  0  0  0  0  0
    1.5992  -13.8753  -37.3389 C   0  0  0  0  0  0  0  0  0  0  0  0
    0.9522  -14.8881  -38.0188 C   0  0  0  0  0  0  0  0  0  0  0  0
    1.3416  -13.7141  -35.9478 N   0  0  0  0  0  0  0  0  0  0  0  0
    0.8906  -16.0512  -41.1827 H   0  0  0  0  0  0  0  0  0  0  0  0
    0.5394  -14.1377  -35.4720 H   0  0  0  0  0  0  0  0  0  0  0  0
    2.0044  -13.1257  -35.3812 H   0  0  0  0  0  0  0  0  0  0  0  0
    3.6976  -12.2797  -39.9304 N   0  0  0  0  0  0  0  0  0  0  0  0
    4.2035  -11.1989  -39.1588 C   0  0  0  0  0  0  0  0  0  0  0  0
    5.4684  -10.5942  -39.6965 C   0  0  0  0  0  0  0  0  0  0  0  0
    5.9534  -11.2756  -40.8075 O   0  0  0  0  0  0  0  0  0  0  0  0
    4.9736  -11.4514  -41.7752 C   0  0  0  0  0  0  0  0  0  0  0  0
    4.0575  -12.5523  -41.3065 C   0  0  0  0  0  0  0  0  0  0  0  0
    1.5686  -17.6882  -37.0429 N   0  0  0  0  0  0  0  0  0  0  0  0
    0.7300  -16.8372  -36.4762 C   0  0  0  0  0  0  0  0  0  0  0  0
    0.3668  -16.7044  -35.2406 O   0  0  0  0  0  0  0  0  0  0  0  0
    1.6722  -18.3731  -35.8700 H   0  0  0  0  0  0  0  0  0  0  0  0
    5.7224  -21.6254  -39.1568 Br  0  0  0  0  0  0  0  0  0  0  0  0
    4.3990  -20.3815  -38.5354 C   0  0  0  0  0  0  0  0  0  0  0  0
    4.6969  -19.4581  -37.5646 C   0  0  0  0  0  0  0  0  0  0  0  0
    3.7755  -18.5825  -37.1169 C   0  0  0  0  0  0  0  0  0  0  0  0
    2.4392  -18.5723  -37.6292 C   0  0  0  0  0  0  0  0  0  0  0  0
    2.1830  -19.5142  -38.6012 C   0  0  0  0  0  0  0  0  0  0  0  0
    3.1240  -20.4040  -39.0570 C   0  0  0  0  0  0  0  0  0  0  0  0
 26 27  1  0  0  0
 27 28  2  0  0  0
 27 32  1  0  0  0
 28 29  1  0  0  0
 29 30  2  0  0  0
 30 31  1  0  0  0
 30 22  1  0  0  0
 31 32  2  0  0  0
 22 23  1  0  0  0
 23 24  2  0  0  0
 23  1  1  0  0  0
  1  2  1  0  0  0
  1 11  1  0  0  0
  2  3  1  0  0  0
  3  4  2  0  0  0
  3  5  1  0  0  0
  5  6  1  0  0  0
  6  7  2  0  0  0
  6 11  1  0  0  0
  7  8  1  0  0  0
  8  9  2  0  0  0
  8 16  1  0  0  0
  9 10  1  0  0  0
 10 11  2  0  0  0
 10 12  1  0  0  0
 16 17  1  0  0  0
 16 21  1  0  0  0
 17 18  1  0  0  0
 18 19  1  0  0  0
 19 20  1  0  0  0
 20 21  1  0  0  0
 22 25  1  0  0  0
  5 13  1  0  0  0
 12 14  1  0  0  0
 12 15  1  0  0  0
M  END
> <minimizedAffinity>
-6.47204

$$$$
386


 36 39  0  0  0  0  0  0  0  0999 V2000
    1.2989  -15.6666  -38.9223 C   0  0  0  0  0  0  0  0  0  0  0  0
    1.5951  -15.1664  -37.5208 C   0  0  0  0  0  0  0  0  0  0  0  0
    1.1728  -16.2282  -36.5580 C   0  0  0  0  0  0  0  0  0  0  0  0
    0.4801  -15.9565  -35.5938 O   0  0  0  0  0  0  0  0  0  0  0  0
    1.6182  -17.5300  -36.8286 N   0  0  0  0  0  0  0  0  0  0  0  0
    2.0161  -17.9029  -38.1329 C   0  0  0  0  0  0  0  0  0  0  0  0
    2.5382  -19.1199  -38.3867 N   0  0  0  0  0  0  0  0  0  0  0  0
    3.0222  -19.5224  -39.5621 C   0  0  0  0  0  0  0  0  0  0  0  0
    2.9642  -18.5969  -40.5546 N   0  0  0  0  0  0  0  0  0  0  0  0
    2.4497  -17.3536  -40.3728 C   0  0  0  0  0  0  0  0  0  0  0  0
    1.9517  -16.9457  -39.1732 C   0  0  0  0  0  0  0  0  0  0  0  0
    2.4320  -16.4646  -41.4442 O   0  0  0  0  0  0  0  0  0  0  0  0
    1.6822  -18.2791  -36.0878 H   0  0  0  0  0  0  0  0  0  0  0  0
    3.2707  -15.9904  -41.7723 H   0  0  0  0  0  0  0  0  0  0  0  0
    3.5182  -20.8227  -39.8152 N   0  0  0  0  0  0  0  0  0  0  0  0
    3.2660  -21.6259  -40.9832 C   0  0  0  0  0  0  0  0  0  0  0  0
    4.5503  -22.3682  -41.3399 C   0  0  0  0  0  0  0  0  0  0  0  0
    5.7774  -21.6088  -40.9289 C   0  0  0  0  0  0  0  0  0  0  0  0
    5.8056  -21.3668  -39.4608 C   0  0  0  0  0  0  0  0  0  0  0  0
    4.3995  -21.4496  -38.8233 C   0  0  0  0  0  0  0  0  0  0  0  0
    5.9560  -20.3706  -41.7237 C   0  0  0  0  0  0  0  0  0  0  0  0
    5.9407  -20.4726  -42.9674 O   0  0  0  0  0  0  0  0  0  0  0  0
    6.1465  -19.0914  -41.1553 N   0  0  0  0  0  0  0  0  0  0  0  0
    5.6784  -18.7922  -40.2803 H   0  0  0  0  0  0  0  0  0  0  0  0
    6.7840  -18.4222  -41.6351 H   0  0  0  0  0  0  0  0  0  0  0  0
    2.2935  -13.6666  -40.0113 N   0  0  0  0  0  0  0  0  0  0  0  0
    1.3291  -14.6060  -39.9651 C   0  0  0  0  0  0  0  0  0  0  0  0
    0.3144  -14.7575  -40.7728 O   0  0  0  0  0  0  0  0  0  0  0  0
    1.8040  -13.2086  -41.1799 H   0  0  0  0  0  0  0  0  0  0  0  0
    6.8565   -9.7582  -40.6277 Br  0  0  0  0  0  0  0  0  0  0  0  0
    5.4036  -10.9447  -40.3748 C   0  0  0  0  0  0  0  0  0  0  0  0
    4.9989  -11.7674  -41.4113 C   0  0  0  0  0  0  0  0  0  0  0  0
    3.9695  -12.6425  -41.3098 C   0  0  0  0  0  0  0  0  0  0  0  0
    3.2754  -12.7084  -40.0590 C   0  0  0  0  0  0  0  0  0  0  0  0
    3.7023  -11.8784  -39.0500 C   0  0  0  0  0  0  0  0  0  0  0  0
    4.7520  -10.9961  -39.1759 C   0  0  0  0  0  0  0  0  0  0  0  0
 30 31  1  0  0  0
 31 32  2  0  0  0
 31 36  1  0  0  0
 32 33  1  0  0  0
 33 34  2  0  0  0
 34 35  1  0  0  0
 34 26  1  0  0  0
 35 36  2  0  0  0
 26 27  1  0  0  0
 27 28  2  0  0  0
 27  1  1  0  0  0
  1  2  1  0  0  0
  1 11  1  0  0  0
  2  3  1  0  0  0
  3  4  2  0  0  0
  3  5  1  0  0  0
  5  6  1  0  0  0
  6  7  2  0  0  0
  6 11  1  0  0  0
  7  8  1  0  0  0
  8  9  2  0  0  0
  8 15  1  0  0  0
  9 10  1  0  0  0
 10 11  2  0  0  0
 10 12  1  0  0  0
 15 16  1  0  0  0
 15 20  1  0  0  0
 16 17  1  0  0  0
 17 18  1  0  0  0
 18 19  1  0  0  0
 18 21  1  0  0  0
 19 20  1  0  0  0
 21 22  2  0  0  0
 21 23  1  0  0  0
 26 29  1  0  0  0
  5 13  1  0  0  0
 12 14  1  0  0  0
 23 24  1  0  0  0
 23 25  1  0  0  0
M  END
> <minimizedAffinity>
-6.93053

$$$$
393


 27 30  0  0  0  0  0  0  0  0999 V2000
   -0.1539  -15.3116  -37.3944 N   0  0  0  0  0  0  0  0  0  0  0  0
   -1.4317  -15.5285  -37.2043 N   0  0  0  0  0  0  0  0  0  0  0  0
   -2.1489  -14.3878  -37.1720 C   0  0  0  0  0  0  0  0  0  0  0  0
   -1.2485  -13.3748  -37.3567 C   0  0  0  0  0  0  0  0  0  0  0  0
   -0.0138  -13.9732  -37.4928 C   0  0  0  0  0  0  0  0  0  0  0  0
   -1.5758  -11.9547  -37.3950 C   0  0  0  0  0  0  0  0  0  0  0  0
   -1.8490  -11.4734  -38.5208 O   0  0  0  0  0  0  0  0  0  0  0  0
   -1.5963  -11.1286  -36.2504 N   0  0  0  0  0  0  0  0  0  0  0  0
   -1.9339   -9.7334  -36.3986 C   0  0  0  0  0  0  0  0  0  0  0  0
   -3.2462   -9.4994  -35.7116 C   0  0  0  0  0  0  0  0  0  0  0  0
   -3.5400  -10.5268  -34.7193 N   0  0  0  0  0  0  0  0  0  0  0  0
   -2.5238  -11.3133  -34.1069 C   0  0  0  0  0  0  0  0  0  0  0  0
   -2.6926  -11.7567  -32.9447 O   0  0  0  0  0  0  0  0  0  0  0  0
   -1.3006  -11.5643  -34.9046 C   0  0  0  0  0  0  0  0  0  0  0  0
   -4.5602  -10.6778  -34.4581 H   0  0  0  0  0  0  0  0  0  0  0  0
    4.2062  -19.6481  -37.7673 Br  0  0  0  0  0  0  0  0  0  0  0  0
    2.8533  -18.3016  -37.6490 C   0  0  0  0  0  0  0  0  0  0  0  0
    2.1461  -17.9200  -38.7697 C   0  0  0  0  0  0  0  0  0  0  0  0
    1.1729  -16.9468  -38.6657 C   0  0  0  0  0  0  0  0  0  0  0  0
    0.8593  -16.3173  -37.4758 C   0  0  0  0  0  0  0  0  0  0  0  0
    1.5760  -16.7115  -36.3607 C   0  0  0  0  0  0  0  0  0  0  0  0
    2.5519  -17.6839  -36.4490 C   0  0  0  0  0  0  0  0  0  0  0  0
    1.2437  -13.2932  -37.7071 N   0  0  0  0  0  0  0  0  0  0  0  0
    1.8758  -13.0744  -38.8504 C   0  0  0  0  0  0  0  0  0  0  0  0
    3.0489  -12.3904  -38.6301 C   0  0  0  0  0  0  0  0  0  0  0  0
    3.1074  -12.1974  -37.2705 C   0  0  0  0  0  0  0  0  0  0  0  0
    1.9803  -12.7630  -36.7172 C   0  0  0  0  0  0  0  0  0  0  0  0
 16 17  1  0  0  0
 17 18  2  0  0  0
 17 22  1  0  0  0
 18 19  1  0  0  0
 19 20  2  0  0  0
 20 21  1  0  0  0
 20  1  1  0  0  0
 21 22  2  0  0  0
  1  2  1  0  0  0
  1  5  1  0  0  0
  2  3  2  0  0  0
  3  4  1  0  0  0
  4  5  2  0  0  0
  4  6  1  0  0  0
  5 23  1  0  0  0
 23 24  1  0  0  0
 23 27  1  0  0  0
 24 25  2  0  0  0
 25 26  1  0  0  0
 26 27  2  0  0  0
  6  7  2  0  0  0
  6  8  1  0  0  0
  8  9  1  0  0  0
  8 14  1  0  0  0
  9 10  1  0  0  0
 10 11  1  0  0  0
 11 12  1  0  0  0
 12 13  2  0  0  0
 12 14  1  0  0  0
 11 15  1  0  0  0
M  END
> <minimizedAffinity>
-5.91096

$$$$
395


 28 31  0  0  0  0  0  0  0  0999 V2000
    3.0465  -19.4961  -38.0610 N   0  0  0  0  0  0  0  0  0  0  0  0
    3.4321  -20.5020  -37.2950 N   0  0  0  0  0  0  0  0  0  0  0  0
    4.3090  -21.2733  -37.9152 N   0  0  0  0  0  0  0  0  0  0  0  0
    4.5280  -20.7685  -39.1590 C   0  0  0  0  0  0  0  0  0  0  0  0
    3.7162  -19.6499  -39.2169 C   0  0  0  0  0  0  0  0  0  0  0  0
    3.7336  -18.9452  -40.3541 N   0  0  0  0  0  0  0  0  0  0  0  0
    4.5102  -19.3195  -41.3855 C   0  0  0  0  0  0  0  0  0  0  0  0
    5.3063  -20.4121  -41.3368 N   0  0  0  0  0  0  0  0  0  0  0  0
    5.3190  -21.1461  -40.2177 C   0  0  0  0  0  0  0  0  0  0  0  0
    6.0537  -22.1572  -40.1696 O   0  0  0  0  0  0  0  0  0  0  0  0
   -0.9180  -14.9829  -36.6798 Br  0  0  0  0  0  0  0  0  0  0  0  0
    0.3038  -16.3909  -37.1191 C   0  0  0  0  0  0  0  0  0  0  0  0
    1.5311  -16.4916  -36.4986 C   0  0  0  0  0  0  0  0  0  0  0  0
    2.4288  -17.5040  -36.8036 C   0  0  0  0  0  0  0  0  0  0  0  0
    2.1162  -18.4557  -37.7514 C   0  0  0  0  0  0  0  0  0  0  0  0
    0.8856  -18.3485  -38.3682 C   0  0  0  0  0  0  0  0  0  0  0  0
   -0.0088  -17.3426  -38.0668 C   0  0  0  0  0  0  0  0  0  0  0  0
    6.1078  -20.7363  -42.5022 C   0  0  0  0  0  0  0  0  0  0  0  0
    5.3791  -21.7266  -43.3744 C   0  0  0  0  0  0  0  0  0  0  0  0
    4.2718  -21.4283  -43.8965 O   0  0  0  0  0  0  0  0  0  0  0  0
    5.9215  -23.0091  -43.6247 N   0  0  0  0  0  0  0  0  0  0  0  0
    5.2324  -23.9660  -44.4573 C   0  0  0  0  0  0  0  0  0  0  0  0
    5.2974  -25.3030  -43.7392 C   0  0  0  0  0  0  0  0  0  0  0  0
    6.5728  -25.6962  -43.4258 O   0  0  0  0  0  0  0  0  0  0  0  0
    7.5393  -24.7421  -43.6285 C   0  0  0  0  0  0  0  0  0  0  0  0
    7.1878  -23.3895  -43.0432 C   0  0  0  0  0  0  0  0  0  0  0  0
    8.9004  -25.1585  -43.1546 C   0  0  0  0  0  0  0  0  0  0  0  0
    4.7357  -26.3388  -44.7187 C   0  0  0  0  0  0  0  0  0  0  0  0
 11 12  1  0  0  0
 12 13  2  0  0  0
 12 17  1  0  0  0
 13 14  1  0  0  0
 14 15  2  0  0  0
 15 16  1  0  0  0
 15  1  1  0  0  0
 16 17  2  0  0  0
  1  2  1  0  0  0
  1  5  1  0  0  0
  2  3  2  0  0  0
  3  4  1  0  0  0
  4  5  2  0  0  0
  4  9  1  0  0  0
  5  6  1  0  0  0
  6  7  2  0  0  0
  7  8  1  0  0  0
  8  9  1  0  0  0
  8 18  1  0  0  0
  9 10  2  0  0  0
 18 19  1  0  0  0
 19 20  2  0  0  0
 19 21  1  0  0  0
 21 22  1  0  0  0
 21 26  1  0  0  0
 22 23  1  0  0  0
 23 24  1  0  0  0
 23 28  1  0  0  0
 24 25  1  0  0  0
 25 26  1  0  0  0
 25 27  1  0  0  0
M  END
> <minimizedAffinity>
-6.52488

$$$$
399


 28 31  0  0  0  0  0  0  0  0999 V2000
    0.5456  -15.2080  -36.9809 N   0  0  0  0  0  0  0  0  0  0  0  0
   -0.8651  -15.2810  -37.1549 C   0  0  0  0  0  0  0  0  0  0  0  0
   -1.5709  -14.3869  -37.6684 O   0  0  0  0  0  0  0  0  0  0  0  0
   -1.4001  -16.5538  -36.6488 C   0  0  0  0  0  0  0  0  0  0  0  0
   -0.3347  -16.9678  -35.6401 C   0  0  0  0  0  0  0  0  0  0  0  0
    0.9110  -16.3809  -36.2279 C   0  0  0  0  0  0  0  0  0  0  0  0
    2.0232  -16.9048  -36.0314 O   0  0  0  0  0  0  0  0  0  0  0  0
    4.4851  -10.9079  -38.9876 Br  0  0  0  0  0  0  0  0  0  0  0  0
    3.2622  -12.2402  -38.3579 C   0  0  0  0  0  0  0  0  0  0  0  0
    2.8273  -12.2608  -37.0611 C   0  0  0  0  0  0  0  0  0  0  0  0
    1.9344  -13.2373  -36.6074 C   0  0  0  0  0  0  0  0  0  0  0  0
    1.4592  -14.2091  -37.4396 C   0  0  0  0  0  0  0  0  0  0  0  0
    1.8908  -14.1932  -38.7345 C   0  0  0  0  0  0  0  0  0  0  0  0
    2.7872  -13.2190  -39.2002 C   0  0  0  0  0  0  0  0  0  0  0  0
   -1.5772  -17.5870  -37.6440 N   0  0  0  0  0  0  0  0  0  0  0  0
   -1.0685  -17.1990  -38.9376 C   0  0  0  0  0  0  0  0  0  0  0  0
    0.3187  -17.7181  -39.2441 C   0  0  0  0  0  0  0  0  0  0  0  0
    0.4813  -19.0783  -38.7978 N   0  0  0  0  0  0  0  0  0  0  0  0
   -0.7446  -19.7236  -38.3906 C   0  0  0  0  0  0  0  0  0  0  0  0
   -1.2274  -18.8850  -37.1920 C   0  0  0  0  0  0  0  0  0  0  0  0
   -2.6429  -17.6097  -37.7919 H   0  0  0  0  0  0  0  0  0  0  0  0
    1.7131  -19.7377  -38.7348 C   0  0  0  0  0  0  0  0  0  0  0  0
    2.5349  -19.7946  -37.6272 C   0  0  0  0  0  0  0  0  0  0  0  0
    3.7595  -20.4427  -37.6263 C   0  0  0  0  0  0  0  0  0  0  0  0
    4.2071  -21.0659  -38.7602 C   0  0  0  0  0  0  0  0  0  0  0  0
    3.4255  -21.0396  -39.8976 C   0  0  0  0  0  0  0  0  0  0  0  0
    2.2062  -20.3863  -39.8734 C   0  0  0  0  0  0  0  0  0  0  0  0
    5.4292  -21.7358  -38.8266 O   0  0  0  0  0  0  0  0  0  0  0  0
  8  9  1  0  0  0
  9 10  2  0  0  0
  9 14  1  0  0  0
 10 11  1  0  0  0
 11 12  2  0  0  0
 12 13  1  0  0  0
 12  1  1  0  0  0
 13 14  2  0  0  0
  1  2  1  0  0  0
  1  6  1  0  0  0
  2  3  2  0  0  0
  2  4  1  0  0  0
  4  5  1  0  0  0
  4 15  1  0  0  0
  5  6  1  0  0  0
  6  7  2  0  0  0
 15 16  1  0  0  0
 15 20  1  0  0  0
 16 17  1  0  0  0
 17 18  1  0  0  0
 18 19  1  0  0  0
 18 22  1  0  0  0
 19 20  1  0  0  0
 22 23  2  0  0  0
 22 27  1  0  0  0
 23 24  1  0  0  0
 24 25  2  0  0  0
 25 26  1  0  0  0
 25 28  1  0  0  0
 26 27  2  0  0  0
 15 21  1  0  0  0
M  CHG 1  15   1
M  CHG 1  28  -1
M  END
> <minimizedAffinity>
-7.43723

$$$$
400


 31 34  0  0  0  0  0  0  0  0999 V2000
   -0.6957  -14.6501  -37.0557 N   0  0  0  0  0  0  0  0  0  0  0  0
    0.0036  -14.4656  -38.2628 C   0  0  0  0  0  0  0  0  0  0  0  0
   -0.0865  -12.9859  -38.6594 C   0  0  0  0  0  0  0  0  0  0  0  0
    0.6760  -12.1123  -37.6883 C   0  0  0  0  0  0  0  0  0  0  0  0
    0.4468  -12.5872  -36.3103 C   0  0  0  0  0  0  0  0  0  0  0  0
   -0.7414  -13.5113  -36.2190 C   0  0  0  0  0  0  0  0  0  0  0  0
    0.7131  -17.5807  -37.3451 N   0  0  0  0  0  0  0  0  0  0  0  0
    0.7219  -16.4496  -36.4676 C   0  0  0  0  0  0  0  0  0  0  0  0
    1.6981  -15.9758  -35.8371 O   0  0  0  0  0  0  0  0  0  0  0  0
   -0.6597  -15.9047  -36.4211 C   0  0  0  0  0  0  0  0  0  0  0  0
   -1.5574  -16.9452  -37.0527 C   0  0  0  0  0  0  0  0  0  0  0  0
   -0.6205  -18.0725  -37.3045 C   0  0  0  0  0  0  0  0  0  0  0  0
   -0.9428  -19.3025  -37.4640 O   0  0  0  0  0  0  0  0  0  0  0  0
    5.4640  -19.7607  -40.6189 Br  0  0  0  0  0  0  0  0  0  0  0  0
    3.9892  -19.0836  -39.6073 C   0  0  0  0  0  0  0  0  0  0  0  0
    2.9843  -18.3428  -40.1850 C   0  0  0  0  0  0  0  0  0  0  0  0
    1.9078  -17.8502  -39.4371 C   0  0  0  0  0  0  0  0  0  0  0  0
    1.8195  -18.0930  -38.0923 C   0  0  0  0  0  0  0  0  0  0  0  0
    2.8311  -18.8346  -37.5240 C   0  0  0  0  0  0  0  0  0  0  0  0
    3.9008  -19.3278  -38.2541 C   0  0  0  0  0  0  0  0  0  0  0  0
    2.0104  -12.0303  -38.1176 N   0  0  0  0  0  0  0  0  0  0  0  0
    3.0355  -12.2739  -37.1921 C   0  0  0  0  0  0  0  0  0  0  0  0
    3.9561  -11.0412  -37.2143 C   0  0  0  0  0  0  0  0  0  0  0  0
    4.5779  -11.0187  -38.5959 C   0  0  0  0  0  0  0  0  0  0  0  0
    3.8595  -11.8743  -39.5854 C   0  0  0  0  0  0  0  0  0  0  0  0
    2.3321  -11.7990  -39.4414 C   0  0  0  0  0  0  0  0  0  0  0  0
    0.0668  -10.7415  -37.8229 C   0  0  0  0  0  0  0  0  0  0  0  0
   -0.9254  -10.5649  -38.5922 O   0  0  0  0  0  0  0  0  0  0  0  0
    0.5521   -9.6127  -37.1210 N   0  0  0  0  0  0  0  0  0  0  0  0
    0.9301   -8.8129  -37.6429 H   0  0  0  0  0  0  0  0  0  0  0  0
    0.5306   -9.5791  -36.0838 H   0  0  0  0  0  0  0  0  0  0  0  0
 14 15  1  0  0  0
 15 16  2  0  0  0
 15 20  1  0  0  0
 16 17  1  0  0  0
 17 18  2  0  0  0
 18 19  1  0  0  0
 18  7  1  0  0  0
 19 20  2  0  0  0
  7  8  1  0  0  0
  7 12  1  0  0  0
  8  9  2  0  0  0
  8 10  1  0  0  0
 10 11  1  0  0  0
 10  1  1  0  0  0
 11 12  1  0  0  0
 12 13  2  0  0  0
  1  2  1  0  0  0
  1  6  1  0  0  0
  2  3  1  0  0  0
  3  4  1  0  0  0
  4  5  1  0  0  0
  4 21  1  0  0  0
  4 27  1  0  0  0
  5  6  1  0  0  0
 21 22  1  0  0  0
 21 26  1  0  0  0
 22 23  1  0  0  0
 23 24  1  0  0  0
 24 25  1  0  0  0
 25 26  1  0  0  0
 27 28  2  0  0  0
 27 29  1  0  0  0
 29 30  1  0  0  0
 29 31  1  0  0  0
M  END
> <minimizedAffinity>
-6.47612

$$$$
408


 31 34  0  0  0  0  0  0  0  0999 V2000
    3.0505  -18.6093  -38.4606 N   0  0  0  0  0  0  0  0  0  0  0  0
    2.2315  -17.5914  -38.7754 C   0  0  0  0  0  0  0  0  0  0  0  0
    1.9160  -17.2835  -39.9658 O   0  0  0  0  0  0  0  0  0  0  0  0
    1.7865  -16.9341  -37.6283 C   0  0  0  0  0  0  0  0  0  0  0  0
    2.3529  -17.5761  -36.6108 C   0  0  0  0  0  0  0  0  0  0  0  0
    1.9114  -16.9272  -35.5183 N   0  0  0  0  0  0  0  0  0  0  0  0
    1.1096  -15.9341  -35.8660 N   0  0  0  0  0  0  0  0  0  0  0  0
    1.0255  -15.9302  -37.1741 N   0  0  0  0  0  0  0  0  0  0  0  0
    3.1288  -18.6027  -37.1106 C   0  0  0  0  0  0  0  0  0  0  0  0
    3.8117  -19.4208  -36.4560 O   0  0  0  0  0  0  0  0  0  0  0  0
    2.2033  -17.2231  -34.5522 H   0  0  0  0  0  0  0  0  0  0  0  0
    0.6537  -15.2987  -35.1715 H   0  0  0  0  0  0  0  0  0  0  0  0
    5.9293  -22.4378  -42.3405 Br  0  0  0  0  0  0  0  0  0  0  0  0
    5.0248  -21.2515  -41.1318 C   0  0  0  0  0  0  0  0  0  0  0  0
    5.6030  -20.0654  -40.7334 C   0  0  0  0  0  0  0  0  0  0  0  0
    4.9540  -19.2099  -39.8634 C   0  0  0  0  0  0  0  0  0  0  0  0
    3.7004  -19.5070  -39.3563 C   0  0  0  0  0  0  0  0  0  0  0  0
    3.1397  -20.6993  -39.7678 C   0  0  0  0  0  0  0  0  0  0  0  0
    3.7781  -21.5571  -40.6339 C   0  0  0  0  0  0  0  0  0  0  0  0
    0.2641  -15.0259  -37.9980 C   0  0  0  0  0  0  0  0  0  0  0  0
    0.9870  -13.7295  -38.2211 C   0  0  0  0  0  0  0  0  0  0  0  0
    0.2367  -12.7321  -38.3437 O   0  0  0  0  0  0  0  0  0  0  0  0
    2.3802  -13.6465  -38.2863 N   0  0  0  0  0  0  0  0  0  0  0  0
    2.8863  -14.5870  -38.1633 H   0  0  0  0  0  0  0  0  0  0  0  0
    3.1528  -12.4970  -38.4894 C   0  0  0  0  0  0  0  0  0  0  0  0
    3.6667  -12.2891  -39.7798 C   0  0  0  0  0  0  0  0  0  0  0  0
    4.4293  -11.1752  -40.0240 C   0  0  0  0  0  0  0  0  0  0  0  0
    4.7187  -10.2384  -39.0545 C   0  0  0  0  0  0  0  0  0  0  0  0
    4.2239  -10.4337  -37.7993 C   0  0  0  0  0  0  0  0  0  0  0  0
    3.4564  -11.5504  -37.5419 C   0  0  0  0  0  0  0  0  0  0  0  0
    3.4037  -13.2424  -40.8754 C   0  0  0  0  0  0  0  0  0  0  0  0
 13 14  1  0  0  0
 14 15  2  0  0  0
 14 19  1  0  0  0
 15 16  1  0  0  0
 16 17  2  0  0  0
 17 18  1  0  0  0
 17  1  1  0  0  0
 18 19  2  0  0  0
  1  2  1  0  0  0
  1  9  1  0  0  0
  2  3  2  0  0  0
  2  4  1  0  0  0
  4  5  2  0  0  0
  4  8  1  0  0  0
  5  6  1  0  0  0
  5  9  1  0  0  0
  6  7  1  0  0  0
  7  8  1  0  0  0
  8 20  1  0  0  0
 20 21  1  0  0  0
 21 22  2  0  0  0
 21 23  1  0  0  0
 23 25  1  0  0  0
 25 26  2  0  0  0
 25 30  1  0  0  0
 26 27  1  0  0  0
 26 31  1  0  0  0
 27 28  2  0  0  0
 28 29  1  0  0  0
 29 30  2  0  0  0
  9 10  2  0  0  0
  6 11  1  0  0  0
  7 12  1  0  0  0
 23 24  1  0  0  0
M  END
> <minimizedAffinity>
-7.43097

$$$$
411


 34 37  0  0  0  0  0  0  0  0999 V2000
    2.9154  -18.5197  -38.5330 N   0  0  0  0  0  0  0  0  0  0  0  0
    2.0296  -17.5509  -38.8160 C   0  0  0  0  0  0  0  0  0  0  0  0
    1.6460  -17.3082  -39.9889 O   0  0  0  0  0  0  0  0  0  0  0  0
    1.6235  -16.8928  -37.6670 C   0  0  0  0  0  0  0  0  0  0  0  0
    2.2754  -17.4737  -36.6679 C   0  0  0  0  0  0  0  0  0  0  0  0
    1.8820  -16.8354  -35.5550 N   0  0  0  0  0  0  0  0  0  0  0  0
    1.0133  -15.8903  -35.8664 N   0  0  0  0  0  0  0  0  0  0  0  0
    0.8403  -15.9096  -37.1611 N   0  0  0  0  0  0  0  0  0  0  0  0
    3.0704  -18.4719  -37.1911 C   0  0  0  0  0  0  0  0  0  0  0  0
    3.8355  -19.2366  -36.5148 O   0  0  0  0  0  0  0  0  0  0  0  0
    2.1911  -17.0261  -34.5811 H   0  0  0  0  0  0  0  0  0  0  0  0
    0.5254  -15.2191  -35.2016 H   0  0  0  0  0  0  0  0  0  0  0  0
    5.9180  -22.3780  -42.2817 Br  0  0  0  0  0  0  0  0  0  0  0  0
    4.9727  -21.1886  -41.1158 C   0  0  0  0  0  0  0  0  0  0  0  0
    3.7131  -21.4987  -40.6423 C   0  0  0  0  0  0  0  0  0  0  0  0
    3.0308  -20.6310  -39.7947 C   0  0  0  0  0  0  0  0  0  0  0  0
    3.5833  -19.4309  -39.3979 C   0  0  0  0  0  0  0  0  0  0  0  0
    4.8398  -19.1268  -39.8738 C   0  0  0  0  0  0  0  0  0  0  0  0
    5.5184  -19.9862  -40.7132 C   0  0  0  0  0  0  0  0  0  0  0  0
   -0.0171  -15.0568  -37.9492 C   0  0  0  0  0  0  0  0  0  0  0  0
    0.7759  -13.8622  -38.4256 C   0  0  0  0  0  0  0  0  0  0  0  0
    0.1676  -12.8279  -38.7796 O   0  0  0  0  0  0  0  0  0  0  0  0
    2.1766  -13.9191  -38.4680 N   0  0  0  0  0  0  0  0  0  0  0  0
    2.6296  -14.8366  -38.1494 H   0  0  0  0  0  0  0  0  0  0  0  0
    3.0331  -12.8802  -38.8834 C   0  0  0  0  0  0  0  0  0  0  0  0
    3.4692  -11.8366  -38.1070 C   0  0  0  0  0  0  0  0  0  0  0  0
    4.2958  -10.8385  -38.5799 C   0  0  0  0  0  0  0  0  0  0  0  0
    4.6990  -10.9009  -39.8972 C   0  0  0  0  0  0  0  0  0  0  0  0
    4.2819  -11.9388  -40.7148 C   0  0  0  0  0  0  0  0  0  0  0  0
    3.4607  -12.9172  -40.2246 C   0  0  0  0  0  0  0  0  0  0  0  0
    5.5339   -9.9039  -40.3946 O   0  0  0  0  0  0  0  0  0  0  0  0
    6.9152  -10.1690  -40.5376 C   0  0  0  0  0  0  0  0  0  0  0  0
    4.7226   -9.7908  -37.7672 O   0  0  0  0  0  0  0  0  0  0  0  0
    3.8089   -8.7083  -37.5472 C   0  0  0  0  0  0  0  0  0  0  0  0
 13 14  1  0  0  0
 14 15  2  0  0  0
 14 19  1  0  0  0
 15 16  1  0  0  0
 16 17  2  0  0  0
 17 18  1  0  0  0
 17  1  1  0  0  0
 18 19  2  0  0  0
  1  2  1  0  0  0
  1  9  1  0  0  0
  2  3  2  0  0  0
  2  4  1  0  0  0
  4  5  2  0  0  0
  4  8  1  0  0  0
  5  6  1  0  0  0
  5  9  1  0  0  0
  6  7  1  0  0  0
  7  8  1  0  0  0
  8 20  1  0  0  0
 20 21  1  0  0  0
 21 22  2  0  0  0
 21 23  1  0  0  0
 23 25  1  0  0  0
 25 26  2  0  0  0
 25 30  1  0  0  0
 26 27  1  0  0  0
 27 28  2  0  0  0
 27 33  1  0  0  0
 28 29  1  0  0  0
 28 31  1  0  0  0
 29 30  2  0  0  0
 31 32  1  0  0  0
 33 34  1  0  0  0
  9 10  2  0  0  0
  6 11  1  0  0  0
  7 12  1  0  0  0
 23 24  1  0  0  0
M  END
> <minimizedAffinity>
-6.96416

$$$$
412


 34 37  0  0  0  0  0  0  0  0999 V2000
    2.5028  -18.6185  -37.8615 N   0  0  0  0  0  0  0  0  0  0  0  0
    3.0945  -18.9374  -39.0153 C   0  0  0  0  0  0  0  0  0  0  0  0
    2.4799  -19.0407  -40.1290 O   0  0  0  0  0  0  0  0  0  0  0  0
    4.4478  -19.1523  -38.8958 C   0  0  0  0  0  0  0  0  0  0  0  0
    4.6965  -18.9504  -37.5875 C   0  0  0  0  0  0  0  0  0  0  0  0
    6.0280  -19.1555  -37.4418 N   0  0  0  0  0  0  0  0  0  0  0  0
    6.5693  -19.4667  -38.6060 N   0  0  0  0  0  0  0  0  0  0  0  0
    5.6037  -19.4656  -39.5021 N   0  0  0  0  0  0  0  0  0  0  0  0
    3.5227  -18.6257  -36.9482 C   0  0  0  0  0  0  0  0  0  0  0  0
    3.3406  -18.3668  -35.7342 O   0  0  0  0  0  0  0  0  0  0  0  0
    6.5292  -19.0752  -36.5264 H   0  0  0  0  0  0  0  0  0  0  0  0
    7.5977  -19.6707  -38.7260 H   0  0  0  0  0  0  0  0  0  0  0  0
   -3.4041  -17.3236  -36.6433 Br  0  0  0  0  0  0  0  0  0  0  0  0
   -1.5598  -17.7332  -37.0290 C   0  0  0  0  0  0  0  0  0  0  0  0
   -1.1910  -18.9685  -37.5046 C   0  0  0  0  0  0  0  0  0  0  0  0
    0.1527  -19.2653  -37.7819 C   0  0  0  0  0  0  0  0  0  0  0  0
    1.1313  -18.3225  -37.5831 C   0  0  0  0  0  0  0  0  0  0  0  0
    0.7361  -17.0908  -37.1066 C   0  0  0  0  0  0  0  0  0  0  0  0
   -0.5772  -16.7908  -36.8307 C   0  0  0  0  0  0  0  0  0  0  0  0
    5.7826  -19.7530  -40.8959 C   0  0  0  0  0  0  0  0  0  0  0  0
    5.6870  -21.1736  -41.2227 C   0  0  0  0  0  0  0  0  0  0  0  0
    5.7635  -22.0809  -40.3438 O   0  0  0  0  0  0  0  0  0  0  0  0
    5.5082  -21.5357  -42.5766 N   0  0  0  0  0  0  0  0  0  0  0  0
    5.4472  -20.7879  -43.3345 H   0  0  0  0  0  0  0  0  0  0  0  0
    5.4133  -22.9101  -42.9124 C   0  0  0  0  0  0  0  0  0  0  0  0
    4.1521  -23.4527  -42.9252 C   0  0  0  0  0  0  0  0  0  0  0  0
    3.9757  -24.8105  -43.2174 C   0  0  0  0  0  0  0  0  0  0  0  0
    5.0645  -25.5963  -43.4886 C   0  0  0  0  0  0  0  0  0  0  0  0
    6.3504  -25.0604  -43.4784 C   0  0  0  0  0  0  0  0  0  0  0  0
    6.4906  -23.7123  -43.1872 C   0  0  0  0  0  0  0  0  0  0  0  0
    7.3983  -25.9125  -43.7563 O   0  0  0  0  0  0  0  0  0  0  0  0
    8.7395  -25.7334  -43.4230 C   0  0  0  0  0  0  0  0  0  0  0  0
    2.6719  -25.2448  -43.2059 O   0  0  0  0  0  0  0  0  0  0  0  0
    1.8182  -25.1339  -42.1267 C   0  0  0  0  0  0  0  0  0  0  0  0
 13 14  1  0  0  0
 14 15  2  0  0  0
 14 19  1  0  0  0
 15 16  1  0  0  0
 16 17  2  0  0  0
 17 18  1  0  0  0
 17  1  1  0  0  0
 18 19  2  0  0  0
  1  2  1  0  0  0
  1  9  1  0  0  0
  2  3  2  0  0  0
  2  4  1  0  0  0
  4  5  2  0  0  0
  4  8  1  0  0  0
  5  6  1  0  0  0
  5  9  1  0  0  0
  6  7  1  0  0  0
  7  8  1  0  0  0
  8 20  1  0  0  0
 20 21  1  0  0  0
 21 22  2  0  0  0
 21 23  1  0  0  0
 23 25  1  0  0  0
 25 26  2  0  0  0
 25 30  1  0  0  0
 26 27  1  0  0  0
 27 28  2  0  0  0
 27 33  1  0  0  0
 28 29  1  0  0  0
 29 30  2  0  0  0
 29 31  1  0  0  0
 31 32  1  0  0  0
 33 34  1  0  0  0
  9 10  2  0  0  0
  6 11  1  0  0  0
  7 12  1  0  0  0
 23 24  1  0  0  0
M  END
> <minimizedAffinity>
-6.51826

$$$$
414


 35 38  0  0  0  0  0  0  0  0999 V2000
    3.0291  -18.5888  -38.2630 N   0  0  0  0  0  0  0  0  0  0  0  0
    2.1380  -17.6420  -38.6522 C   0  0  0  0  0  0  0  0  0  0  0  0
    1.7549  -17.4180  -39.8426 O   0  0  0  0  0  0  0  0  0  0  0  0
    1.6956  -16.9388  -37.5451 C   0  0  0  0  0  0  0  0  0  0  0  0
    2.3285  -17.4752  -36.5045 C   0  0  0  0  0  0  0  0  0  0  0  0
    1.9120  -16.8026  -35.4047 N   0  0  0  0  0  0  0  0  0  0  0  0
    1.0411  -15.8821  -35.8074 N   0  0  0  0  0  0  0  0  0  0  0  0
    0.8836  -15.9356  -37.1160 N   0  0  0  0  0  0  0  0  0  0  0  0
    3.1516  -18.4899  -36.9318 C   0  0  0  0  0  0  0  0  0  0  0  0
    3.8927  -19.2091  -36.2262 O   0  0  0  0  0  0  0  0  0  0  0  0
    2.2246  -16.9851  -34.4296 H   0  0  0  0  0  0  0  0  0  0  0  0
    0.5587  -15.2188  -35.1762 H   0  0  0  0  0  0  0  0  0  0  0  0
    5.8817  -22.3857  -42.1380 Br  0  0  0  0  0  0  0  0  0  0  0  0
    5.0161  -21.1936  -40.9356 C   0  0  0  0  0  0  0  0  0  0  0  0
    5.6164  -20.0560  -40.4384 C   0  0  0  0  0  0  0  0  0  0  0  0
    4.9709  -19.2232  -39.5788 C   0  0  0  0  0  0  0  0  0  0  0  0
    3.6740  -19.4851  -39.1648 C   0  0  0  0  0  0  0  0  0  0  0  0
    3.0650  -20.6131  -39.6518 C   0  0  0  0  0  0  0  0  0  0  0  0
    3.7280  -21.4419  -40.5159 C   0  0  0  0  0  0  0  0  0  0  0  0
    0.0342  -15.1224  -37.9782 C   0  0  0  0  0  0  0  0  0  0  0  0
    0.8716  -14.0410  -38.6163 C   0  0  0  0  0  0  0  0  0  0  0  0
    0.3152  -13.5302  -39.6198 O   0  0  0  0  0  0  0  0  0  0  0  0
    2.1150  -13.7154  -38.0777 N   0  0  0  0  0  0  0  0  0  0  0  0
    2.4042  -14.2755  -37.2140 H   0  0  0  0  0  0  0  0  0  0  0  0
    3.0230  -12.7344  -38.5476 C   0  0  0  0  0  0  0  0  0  0  0  0
    3.5421  -11.7092  -37.7933 C   0  0  0  0  0  0  0  0  0  0  0  0
    4.4376  -10.7756  -38.3333 C   0  0  0  0  0  0  0  0  0  0  0  0
    4.8380  -10.8452  -39.6462 C   0  0  0  0  0  0  0  0  0  0  0  0
    4.3258  -11.8662  -40.4090 C   0  0  0  0  0  0  0  0  0  0  0  0
    3.4431  -12.7850  -39.8749 C   0  0  0  0  0  0  0  0  0  0  0  0
    5.7720   -9.8516  -40.1650 C   0  0  0  0  0  0  0  0  0  0  0  0
    5.3094   -8.9046  -40.8493 O   0  0  0  0  0  0  0  0  0  0  0  0
    7.1229   -9.8790  -39.9584 O   0  0  0  0  0  0  0  0  0  0  0  0
    8.1109   -9.9445  -40.9461 C   0  0  0  0  0  0  0  0  0  0  0  0
    7.8906  -11.2657  -41.6962 C   0  0  0  0  0  0  0  0  0  0  0  0
 13 14  1  0  0  0
 14 15  2  0  0  0
 14 19  1  0  0  0
 15 16  1  0  0  0
 16 17  2  0  0  0
 17 18  1  0  0  0
 17  1  1  0  0  0
 18 19  2  0  0  0
  1  2  1  0  0  0
  1  9  1  0  0  0
  2  3  2  0  0  0
  2  4  1  0  0  0
  4  5  2  0  0  0
  4  8  1  0  0  0
  5  6  1  0  0  0
  5  9  1  0  0  0
  6  7  1  0  0  0
  7  8  1  0  0  0
  8 20  1  0  0  0
 20 21  1  0  0  0
 21 22  2  0  0  0
 21 23  1  0  0  0
 23 25  1  0  0  0
 25 26  2  0  0  0
 25 30  1  0  0  0
 26 27  1  0  0  0
 27 28  2  0  0  0
 28 29  1  0  0  0
 28 31  1  0  0  0
 29 30  2  0  0  0
 31 32  2  0  0  0
 31 33  1  0  0  0
 33 34  1  0  0  0
 34 35  1  0  0  0
  9 10  2  0  0  0
  6 11  1  0  0  0
  7 12  1  0  0  0
 23 24  1  0  0  0
M  END
> <minimizedAffinity>
-7.23142

$$$$
416


 33 36  0  0  0  0  0  0  0  0999 V2000
    2.9949  -18.5219  -38.4477 N   0  0  0  0  0  0  0  0  0  0  0  0
    2.1437  -17.5064  -38.7648 C   0  0  0  0  0  0  0  0  0  0  0  0
    1.8271  -17.2046  -39.9403 O   0  0  0  0  0  0  0  0  0  0  0  0
    1.6907  -16.8710  -37.6289 C   0  0  0  0  0  0  0  0  0  0  0  0
    2.2641  -17.4965  -36.6113 C   0  0  0  0  0  0  0  0  0  0  0  0
    1.8400  -16.8953  -35.4849 N   0  0  0  0  0  0  0  0  0  0  0  0
    1.0171  -15.9149  -35.8282 N   0  0  0  0  0  0  0  0  0  0  0  0
    0.9026  -15.8717  -37.1422 N   0  0  0  0  0  0  0  0  0  0  0  0
    3.0592  -18.5040  -37.1088 C   0  0  0  0  0  0  0  0  0  0  0  0
    3.7650  -19.3179  -36.4338 O   0  0  0  0  0  0  0  0  0  0  0  0
    2.0869  -17.1301  -34.5079 H   0  0  0  0  0  0  0  0  0  0  0  0
    0.5285  -15.2695  -35.1415 H   0  0  0  0  0  0  0  0  0  0  0  0
    5.7791  -22.4345  -42.3193 Br  0  0  0  0  0  0  0  0  0  0  0  0
    4.9426  -21.2097  -41.1184 C   0  0  0  0  0  0  0  0  0  0  0  0
    5.5703  -20.0604  -40.6862 C   0  0  0  0  0  0  0  0  0  0  0  0
    4.9469  -19.1793  -39.8156 C   0  0  0  0  0  0  0  0  0  0  0  0
    3.6720  -19.4040  -39.3384 C   0  0  0  0  0  0  0  0  0  0  0  0
    3.0396  -20.5563  -39.7692 C   0  0  0  0  0  0  0  0  0  0  0  0
    3.6595  -21.4338  -40.6349 C   0  0  0  0  0  0  0  0  0  0  0  0
    0.1270  -14.9631  -37.9351 C   0  0  0  0  0  0  0  0  0  0  0  0
    0.9032  -13.7489  -38.3881 C   0  0  0  0  0  0  0  0  0  0  0  0
    0.2328  -12.8600  -38.9564 O   0  0  0  0  0  0  0  0  0  0  0  0
    2.2759  -13.6322  -38.1792 N   0  0  0  0  0  0  0  0  0  0  0  0
    2.7379  -14.4728  -37.6832 H   0  0  0  0  0  0  0  0  0  0  0  0
    3.1577  -12.5908  -38.5151 C   0  0  0  0  0  0  0  0  0  0  0  0
    3.6563  -12.4891  -39.8140 C   0  0  0  0  0  0  0  0  0  0  0  0
    4.5310  -11.5017  -40.1801 C   0  0  0  0  0  0  0  0  0  0  0  0
    4.9554  -10.5550  -39.2465 C   0  0  0  0  0  0  0  0  0  0  0  0
    4.4459  -10.6815  -37.9771 C   0  0  0  0  0  0  0  0  0  0  0  0
    3.5655  -11.6703  -37.6041 C   0  0  0  0  0  0  0  0  0  0  0  0
    5.8381   -9.5827  -39.6560 O   0  0  0  0  0  0  0  0  0  0  0  0
    6.6689   -9.6261  -40.7704 C   0  0  0  0  0  0  0  0  0  0  0  0
    7.9906  -10.2713  -40.5293 C   0  0  0  0  0  0  0  0  0  0  0  0
 13 14  1  0  0  0
 14 15  2  0  0  0
 14 19  1  0  0  0
 15 16  1  0  0  0
 16 17  2  0  0  0
 17 18  1  0  0  0
 17  1  1  0  0  0
 18 19  2  0  0  0
  1  2  1  0  0  0
  1  9  1  0  0  0
  2  3  2  0  0  0
  2  4  1  0  0  0
  4  5  2  0  0  0
  4  8  1  0  0  0
  5  6  1  0  0  0
  5  9  1  0  0  0
  6  7  1  0  0  0
  7  8  1  0  0  0
  8 20  1  0  0  0
 20 21  1  0  0  0
 21 22  2  0  0  0
 21 23  1  0  0  0
 23 25  1  0  0  0
 25 26  2  0  0  0
 25 30  1  0  0  0
 26 27  1  0  0  0
 27 28  2  0  0  0
 28 29  1  0  0  0
 28 31  1  0  0  0
 29 30  2  0  0  0
 31 32  1  0  0  0
 32 33  1  0  0  0
  9 10  2  0  0  0
  6 11  1  0  0  0
  7 12  1  0  0  0
 23 24  1  0  0  0
M  END
> <minimizedAffinity>
-7.22204

$$$$
421


 28 31  0  0  0  0  0  0  0  0999 V2000
   -0.2503  -16.2300  -37.4161 N   0  0  0  0  0  0  0  0  0  0  0  0
    0.7293  -17.0839  -37.7866 C   0  0  0  0  0  0  0  0  0  0  0  0
    1.9212  -16.7959  -38.1271 O   0  0  0  0  0  0  0  0  0  0  0  0
    0.2786  -18.3909  -37.7587 C   0  0  0  0  0  0  0  0  0  0  0  0
   -0.9938  -18.3103  -37.3630 C   0  0  0  0  0  0  0  0  0  0  0  0
   -1.4380  -19.5900  -37.3339 N   0  0  0  0  0  0  0  0  0  0  0  0
   -0.4492  -20.3871  -37.7026 N   0  0  0  0  0  0  0  0  0  0  0  0
    0.6296  -19.6713  -37.9727 N   0  0  0  0  0  0  0  0  0  0  0  0
   -1.3268  -16.9895  -37.1509 C   0  0  0  0  0  0  0  0  0  0  0  0
   -2.4285  -16.5177  -36.7745 O   0  0  0  0  0  0  0  0  0  0  0  0
   -2.4147  -19.8735  -37.0593 H   0  0  0  0  0  0  0  0  0  0  0  0
   -0.4706  -21.4369  -37.7844 H   0  0  0  0  0  0  0  0  0  0  0  0
    0.1754  -10.0857  -37.1735 Br  0  0  0  0  0  0  0  0  0  0  0  0
    0.0539  -11.9957  -37.2265 C   0  0  0  0  0  0  0  0  0  0  0  0
    0.5201  -12.7801  -36.1916 C   0  0  0  0  0  0  0  0  0  0  0  0
    0.4256  -14.1681  -36.2444 C   0  0  0  0  0  0  0  0  0  0  0  0
   -0.1374  -14.8033  -37.3314 C   0  0  0  0  0  0  0  0  0  0  0  0
   -0.5992  -14.0064  -38.3586 C   0  0  0  0  0  0  0  0  0  0  0  0
   -0.5090  -12.6279  -38.3157 C   0  0  0  0  0  0  0  0  0  0  0  0
    1.9033  -20.1670  -38.4030 C   0  0  0  0  0  0  0  0  0  0  0  0
    2.1095  -20.5614  -39.7090 C   0  0  0  0  0  0  0  0  0  0  0  0
    3.3327  -21.0451  -40.1559 C   0  0  0  0  0  0  0  0  0  0  0  0
    4.3955  -21.1450  -39.2834 C   0  0  0  0  0  0  0  0  0  0  0  0
    4.1923  -20.7518  -37.9780 C   0  0  0  0  0  0  0  0  0  0  0  0
    2.9706  -20.2690  -37.5354 C   0  0  0  0  0  0  0  0  0  0  0  0
    5.6622  -21.6375  -39.7119 N   0  0  0  0  0  0  0  0  0  0  0  0
    5.9383  -21.7993  -40.9154 O   0  0  0  0  0  0  0  0  0  0  0  0
    6.6048  -21.9435  -38.7824 O   0  0  0  0  0  0  0  0  0  0  0  0
 13 14  1  0  0  0
 14 15  2  0  0  0
 14 19  1  0  0  0
 15 16  1  0  0  0
 16 17  2  0  0  0
 17 18  1  0  0  0
 17  1  1  0  0  0
 18 19  2  0  0  0
  1  2  1  0  0  0
  1  9  1  0  0  0
  2  3  2  0  0  0
  2  4  1  0  0  0
  4  5  2  0  0  0
  4  8  1  0  0  0
  5  6  1  0  0  0
  5  9  1  0  0  0
  6  7  1  0  0  0
  7  8  1  0  0  0
  8 20  1  0  0  0
 20 21  2  0  0  0
 20 25  1  0  0  0
 21 22  1  0  0  0
 22 23  2  0  0  0
 23 24  1  0  0  0
 23 26  1  0  0  0
 24 25  2  0  0  0
 26 27  2  0  0  0
 26 28  1  0  0  0
  9 10  2  0  0  0
  6 11  1  0  0  0
  7 12  1  0  0  0
M  CHG 1  28  -1
M  END
> <minimizedAffinity>
-6.22627

$$$$
425


 24 28  0  0  0  0  0  0  0  0999 V2000
    1.2556  -16.7688  -37.8769 N   0  0  0  0  0  0  0  0  0  0  0  0
    1.9128  -17.7399  -37.0778 C   0  0  0  0  0  0  0  0  0  0  0  0
    2.5737  -17.4724  -36.0455 O   0  0  0  0  0  0  0  0  0  0  0  0
    1.6841  -19.0878  -37.6640 C   0  0  0  0  0  0  0  0  0  0  0  0
    2.7972  -19.5050  -38.5749 C   0  0  0  0  0  0  0  0  0  0  0  0
    2.0849  -20.2986  -39.5014 O   0  0  0  0  0  0  0  0  0  0  0  0
    1.2019  -19.2845  -39.9506 C   0  0  0  0  0  0  0  0  0  0  0  0
    0.5516  -18.8838  -38.6714 C   0  0  0  0  0  0  0  0  0  0  0  0
    0.2672  -17.4236  -38.6715 C   0  0  0  0  0  0  0  0  0  0  0  0
   -0.6727  -16.8898  -39.2665 O   0  0  0  0  0  0  0  0  0  0  0  0
    2.1967  -18.2441  -40.3197 C   0  0  0  0  0  0  0  0  0  0  0  0
    3.1617  -18.3506  -39.4112 C   0  0  0  0  0  0  0  0  0  0  0  0
    2.6715  -10.8442  -37.7475 Br  0  0  0  0  0  0  0  0  0  0  0  0
    2.2289  -12.6884  -37.7778 C   0  0  0  0  0  0  0  0  0  0  0  0
    1.7180  -13.2806  -36.6484 C   0  0  0  0  0  0  0  0  0  0  0  0
    1.4043  -14.6209  -36.6991 C   0  0  0  0  0  0  0  0  0  0  0  0
    1.5883  -15.3753  -37.8368 C   0  0  0  0  0  0  0  0  0  0  0  0
    2.1038  -14.7781  -38.9790 C   0  0  0  0  0  0  0  0  0  0  0  0
    2.4196  -13.4190  -38.9239 C   0  0  0  0  0  0  0  0  0  0  0  0
    3.9047  -20.2263  -37.9356 C   0  0  0  0  0  0  0  0  0  0  0  0
    5.1056  -19.5743  -38.0003 O   0  0  0  0  0  0  0  0  0  0  0  0
    5.9369  -20.2630  -38.8477 C   0  0  0  0  0  0  0  0  0  0  0  0
    5.1631  -21.4457  -39.3300 C   0  0  0  0  0  0  0  0  0  0  0  0
    4.0723  -21.4914  -38.4692 O   0  0  0  0  0  0  0  0  0  0  0  0
 13 14  1  0  0  0
 14 15  2  0  0  0
 14 19  1  0  0  0
 15 16  1  0  0  0
 16 17  2  0  0  0
 17 18  1  0  0  0
 17  1  1  0  0  0
 18 19  2  0  0  0
  1  2  1  0  0  0
  1  9  1  0  0  0
  2  3  2  0  0  0
  2  4  1  0  0  0
  4  5  1  0  0  0
  4  8  1  0  0  0
  5  6  1  0  0  0
  5 12  1  0  0  0
  5 20  1  0  0  0
  6  7  1  0  0  0
  7  8  1  0  0  0
  7 11  1  0  0  0
  8  9  1  0  0  0
  9 10  2  0  0  0
 11 12  2  0  0  0
 20 21  1  0  0  0
 20 24  1  0  0  0
 21 22  1  0  0  0
 22 23  1  0  0  0
 23 24  1  0  0  0
M  END
> <minimizedAffinity>
-6.72135

$$$$
426


 29 32  0  0  0  0  0  0  0  0999 V2000
    3.3119  -18.8768  -38.5169 N   0  0  0  0  0  0  0  0  0  0  0  0
    3.6021  -18.6279  -37.1278 C   0  0  0  0  0  0  0  0  0  0  0  0
    4.7282  -18.7495  -36.5673 O   0  0  0  0  0  0  0  0  0  0  0  0
    2.3326  -18.2050  -36.4936 C   0  0  0  0  0  0  0  0  0  0  0  0
    2.4880  -17.2284  -35.4336 N   0  0  0  0  0  0  0  0  0  0  0  0
    1.3088  -16.4577  -35.6757 N   0  0  0  0  0  0  0  0  0  0  0  0
    1.1490  -16.3035  -37.0861 C   0  0  0  0  0  0  0  0  0  0  0  0
    1.7659  -17.3569  -37.6096 C   0  0  0  0  0  0  0  0  0  0  0  0
    2.1603  -18.0780  -38.8136 C   0  0  0  0  0  0  0  0  0  0  0  0
    1.5252  -17.9518  -39.8970 O   0  0  0  0  0  0  0  0  0  0  0  0
    3.2821  -16.6038  -35.7503 H   0  0  0  0  0  0  0  0  0  0  0  0
    0.6696  -16.0693  -34.9554 H   0  0  0  0  0  0  0  0  0  0  0  0
    6.4289  -22.3433  -42.5120 Br  0  0  0  0  0  0  0  0  0  0  0  0
    5.4367  -21.2729  -41.2529 C   0  0  0  0  0  0  0  0  0  0  0  0
    5.7546  -19.9486  -41.0916 C   0  0  0  0  0  0  0  0  0  0  0  0
    5.0455  -19.2106  -40.1995 C   0  0  0  0  0  0  0  0  0  0  0  0
    3.9974  -19.7176  -39.4216 C   0  0  0  0  0  0  0  0  0  0  0  0
    3.6993  -21.0414  -39.6010 C   0  0  0  0  0  0  0  0  0  0  0  0
    4.4083  -21.8115  -40.5038 C   0  0  0  0  0  0  0  0  0  0  0  0
    0.4602  -15.2385  -37.8067 C   0  0  0  0  0  0  0  0  0  0  0  0
   -0.7227  -15.3661  -38.2006 O   0  0  0  0  0  0  0  0  0  0  0  0
    1.0720  -14.0279  -38.0969 O   0  0  0  0  0  0  0  0  0  0  0  0
    1.8259  -13.3196  -37.1227 C   0  0  0  0  0  0  0  0  0  0  0  0
    2.8671  -12.4866  -37.8122 C   0  0  0  0  0  0  0  0  0  0  0  0
    3.1266  -12.6656  -39.1699 C   0  0  0  0  0  0  0  0  0  0  0  0
    4.0635  -11.9242  -39.8377 C   0  0  0  0  0  0  0  0  0  0  0  0
    4.7834  -10.9594  -39.1381 C   0  0  0  0  0  0  0  0  0  0  0  0
    4.5242  -10.7863  -37.7963 C   0  0  0  0  0  0  0  0  0  0  0  0
    3.5647  -11.5476  -37.1251 C   0  0  0  0  0  0  0  0  0  0  0  0
 13 14  1  0  0  0
 14 15  2  0  0  0
 14 19  1  0  0  0
 15 16  1  0  0  0
 16 17  2  0  0  0
 17 18  1  0  0  0
 17  1  1  0  0  0
 18 19  2  0  0  0
  1  2  1  0  0  0
  1  9  1  0  0  0
  2  3  2  0  0  0
  2  4  1  0  0  0
  4  5  1  0  0  0
  4  8  1  0  0  0
  5  6  1  0  0  0
  6  7  1  0  0  0
  7  8  2  0  0  0
  7 20  1  0  0  0
  8  9  1  0  0  0
  9 10  2  0  0  0
 20 21  2  0  0  0
 20 22  1  0  0  0
 22 23  1  0  0  0
 23 24  1  0  0  0
 24 25  2  0  0  0
 24 29  1  0  0  0
 25 26  1  0  0  0
 26 27  2  0  0  0
 27 28  1  0  0  0
 28 29  2  0  0  0
  5 11  1  0  0  0
  6 12  1  0  0  0
M  END
> <minimizedAffinity>
-7.11403

$$$$
428


 28 31  0  0  0  0  0  0  0  0999 V2000
    0.6515  -16.9736  -37.7634 N   0  0  0  0  0  0  0  0  0  0  0  0
   -0.5590  -17.5303  -37.2178 C   0  0  0  0  0  0  0  0  0  0  0  0
   -0.5862  -18.7456  -36.8788 O   0  0  0  0  0  0  0  0  0  0  0  0
   -1.6645  -16.6651  -37.0916 N   0  0  0  0  0  0  0  0  0  0  0  0
   -1.6597  -15.4415  -37.4245 C   0  0  0  0  0  0  0  0  0  0  0  0
   -0.5116  -14.6983  -38.0002 C   0  0  0  0  0  0  0  0  0  0  0  0
   -0.9527  -14.0815  -39.2826 C   0  0  0  0  0  0  0  0  0  0  0  0
   -0.2998  -12.8886  -39.6839 N   0  0  0  0  0  0  0  0  0  0  0  0
    0.8594  -12.5454  -38.9594 C   0  0  0  0  0  0  0  0  0  0  0  0
    0.9644  -12.8592  -37.5986 C   0  0  0  0  0  0  0  0  0  0  0  0
    2.0961  -12.5183  -36.9129 C   0  0  0  0  0  0  0  0  0  0  0  0
    3.1684  -11.8711  -37.4832 C   0  0  0  0  0  0  0  0  0  0  0  0
    3.0608  -11.5647  -38.8236 C   0  0  0  0  0  0  0  0  0  0  0  0
    1.9235  -11.8973  -39.5475 C   0  0  0  0  0  0  0  0  0  0  0  0
    4.3805  -11.5193  -36.7069 C   0  0  0  0  0  0  0  0  0  0  0  0
   -0.2141  -13.5576  -37.0227 C   0  0  0  0  0  0  0  0  0  0  0  0
   -1.2217  -11.7423  -39.7494 C   0  0  0  0  0  0  0  0  0  0  0  0
    0.6524  -15.5997  -38.1366 C   0  0  0  0  0  0  0  0  0  0  0  0
    1.7542  -15.1704  -38.6143 O   0  0  0  0  0  0  0  0  0  0  0  0
   -2.8404  -14.6897  -37.2425 O   0  0  0  0  0  0  0  0  0  0  0  0
    0.0116  -13.0200  -40.6927 H   0  0  0  0  0  0  0  0  0  0  0  0
    5.5353  -20.5239  -38.7186 Br  0  0  0  0  0  0  0  0  0  0  0  0
    4.0263  -19.4078  -38.3798 C   0  0  0  0  0  0  0  0  0  0  0  0
    3.0963  -19.2265  -39.3679 C   0  0  0  0  0  0  0  0  0  0  0  0
    1.9946  -18.4144  -39.1280 C   0  0  0  0  0  0  0  0  0  0  0  0
    1.8079  -17.7825  -37.9193 C   0  0  0  0  0  0  0  0  0  0  0  0
    2.7556  -17.9785  -36.9392 C   0  0  0  0  0  0  0  0  0  0  0  0
    3.8623  -18.7833  -37.1537 C   0  0  0  0  0  0  0  0  0  0  0  0
 22 23  1  0  0  0
 23 24  2  0  0  0
 23 28  1  0  0  0
 24 25  1  0  0  0
 25 26  2  0  0  0
 26 27  1  0  0  0
 26  1  1  0  0  0
 27 28  2  0  0  0
  1  2  1  0  0  0
  1 18  1  0  0  0
  2  3  2  0  0  0
  2  4  1  0  0  0
  4  5  2  0  0  0
  5  6  1  0  0  0
  5 20  1  0  0  0
  6  7  1  0  0  0
  6 16  1  0  0  0
  6 18  1  0  0  0
  7  8  1  0  0  0
  8  9  1  0  0  0
  8 17  1  0  0  0
  9 10  2  0  0  0
  9 14  1  0  0  0
 10 11  1  0  0  0
 10 16  1  0  0  0
 11 12  2  0  0  0
 12 13  1  0  0  0
 12 15  1  0  0  0
 13 14  2  0  0  0
 18 19  2  0  0  0
  8 21  1  0  0  0
M  CHG 1   8   1
M  CHG 1  20  -1
M  END
> <minimizedAffinity>
-6.59003

$$$$
429


 36 39  0  0  0  0  0  0  0  0999 V2000
    0.8599  -18.9820  -37.8546 N   0  0  0  0  0  0  0  0  0  0  0  0
   -0.3828  -19.6846  -37.7962 C   0  0  0  0  0  0  0  0  0  0  0  0
   -0.4420  -20.8195  -38.3685 O   0  0  0  0  0  0  0  0  0  0  0  0
   -1.4850  -19.1080  -37.1190 N   0  0  0  0  0  0  0  0  0  0  0  0
   -1.4417  -17.8398  -36.4722 C   0  0  0  0  0  0  0  0  0  0  0  0
   -2.4415  -17.3515  -35.8753 O   0  0  0  0  0  0  0  0  0  0  0  0
   -0.1749  -17.0874  -36.5121 C   0  0  0  0  0  0  0  0  0  0  0  0
   -0.0718  -15.9021  -35.9309 C   0  0  0  0  0  0  0  0  0  0  0  0
    0.9409  -17.7083  -37.2167 C   0  0  0  0  0  0  0  0  0  0  0  0
    2.0422  -17.1036  -37.2774 O   0  0  0  0  0  0  0  0  0  0  0  0
   -2.3765  -19.6556  -37.0992 H   0  0  0  0  0  0  0  0  0  0  0  0
    5.6640  -21.5270  -40.6789 Br  0  0  0  0  0  0  0  0  0  0  0  0
    4.1584  -20.7269  -39.8084 C   0  0  0  0  0  0  0  0  0  0  0  0
    3.9922  -20.8350  -38.4379 C   0  0  0  0  0  0  0  0  0  0  0  0
    2.9030  -20.2537  -37.8181 C   0  0  0  0  0  0  0  0  0  0  0  0
    1.9475  -19.5521  -38.5257 C   0  0  0  0  0  0  0  0  0  0  0  0
    2.0985  -19.4355  -39.8914 C   0  0  0  0  0  0  0  0  0  0  0  0
    3.1932  -20.0218  -40.4939 C   0  0  0  0  0  0  0  0  0  0  0  0
    1.1624  -15.2011  -35.9868 N   0  0  0  0  0  0  0  0  0  0  0  0
    1.9854  -15.6991  -35.5512 H   0  0  0  0  0  0  0  0  0  0  0  0
    1.3485  -13.9511  -36.5541 N   0  0  0  0  0  0  0  0  0  0  0  0
    1.0054  -13.1380  -35.9639 H   0  0  0  0  0  0  0  0  0  0  0  0
    1.9442  -13.7209  -37.8252 C   0  0  0  0  0  0  0  0  0  0  0  0
    2.8459  -12.7706  -38.0923 N   0  0  0  0  0  0  0  0  0  0  0  0
    3.1980  -12.8372  -39.3869 C   0  0  0  0  0  0  0  0  0  0  0  0
    2.4797  -13.8807  -39.9550 C   0  0  0  0  0  0  0  0  0  0  0  0
    1.7387  -14.3790  -38.9667 N   0  0  0  0  0  0  0  0  0  0  0  0
    2.6116  -14.2034  -41.2541 N   0  0  0  0  0  0  0  0  0  0  0  0
    3.4545  -13.4999  -42.0105 C   0  0  0  0  0  0  0  0  0  0  0  0
    3.6086  -13.7722  -43.2406 O   0  0  0  0  0  0  0  0  0  0  0  0
    4.1888  -12.4662  -41.5185 N   0  0  0  0  0  0  0  0  0  0  0  0
    4.0483  -12.1492  -40.2101 C   0  0  0  0  0  0  0  0  0  0  0  0
    4.7197  -11.2004  -39.7550 O   0  0  0  0  0  0  0  0  0  0  0  0
    5.0880  -11.7378  -42.3767 C   0  0  0  0  0  0  0  0  0  0  0  0
    1.8361  -15.2926  -41.7695 C   0  0  0  0  0  0  0  0  0  0  0  0
    3.4271  -11.7665  -37.1941 C   0  0  0  0  0  0  0  0  0  0  0  0
 12 13  1  0  0  0
 13 14  2  0  0  0
 13 18  1  0  0  0
 14 15  1  0  0  0
 15 16  2  0  0  0
 16 17  1  0  0  0
 16  1  1  0  0  0
 17 18  2  0  0  0
  1  2  1  0  0  0
  1  9  1  0  0  0
  2  3  2  0  0  0
  2  4  1  0  0  0
  4  5  1  0  0  0
  5  6  2  0  0  0
  5  7  1  0  0  0
  7  8  2  0  0  0
  7  9  1  0  0  0
  8 19  1  0  0  0
 19 21  1  0  0  0
 21 23  1  0  0  0
 23 24  1  0  0  0
 23 27  2  0  0  0
 24 25  1  0  0  0
 24 36  1  0  0  0
 25 26  2  0  0  0
 25 32  1  0  0  0
 26 27  1  0  0  0
 26 28  1  0  0  0
 28 29  1  0  0  0
 28 35  1  0  0  0
 29 30  2  0  0  0
 29 31  1  0  0  0
 31 32  1  0  0  0
 31 34  1  0  0  0
 32 33  2  0  0  0
  9 10  2  0  0  0
  4 11  1  0  0  0
 19 20  1  0  0  0
 21 22  1  0  0  0
M  END
> <minimizedAffinity>
-7.47629

$$$$
436


 29 32  0  0  0  0  0  0  0  0999 V2000
    4.6843  -20.2606  -39.5854 N   0  0  0  0  0  0  0  0  0  0  0  0
    5.8866  -20.1287  -38.7869 C   0  0  0  0  0  0  0  0  0  0  0  0
    5.7751  -19.0605  -37.7242 C   0  0  0  0  0  0  0  0  0  0  0  0
    4.3996  -19.2348  -37.0620 C   0  0  0  0  0  0  0  0  0  0  0  0
    3.4506  -18.8228  -38.0632 N   0  0  0  0  0  0  0  0  0  0  0  0
    3.6228  -19.3546  -39.3115 C   0  0  0  0  0  0  0  0  0  0  0  0
    2.6630  -18.8692  -40.1159 N   0  0  0  0  0  0  0  0  0  0  0  0
    1.9037  -18.0410  -39.3554 C   0  0  0  0  0  0  0  0  0  0  0  0
    2.3929  -18.0062  -38.0587 C   0  0  0  0  0  0  0  0  0  0  0  0
    1.7823  -17.2272  -37.0957 C   0  0  0  0  0  0  0  0  0  0  0  0
    2.2638  -17.2232  -35.9133 O   0  0  0  0  0  0  0  0  0  0  0  0
    0.7014  -16.4982  -37.4254 N   0  0  0  0  0  0  0  0  0  0  0  0
    0.2477  -16.5504  -38.6899 C   0  0  0  0  0  0  0  0  0  0  0  0
   -0.7675  -15.8517  -38.9559 O   0  0  0  0  0  0  0  0  0  0  0  0
    0.8209  -17.2944  -39.6355 N   0  0  0  0  0  0  0  0  0  0  0  0
    0.3027  -17.3268  -40.9952 C   0  0  0  0  0  0  0  0  0  0  0  0
    4.7721  -24.5126  -43.9458 Br  0  0  0  0  0  0  0  0  0  0  0  0
    4.6864  -23.2090  -42.5859 C   0  0  0  0  0  0  0  0  0  0  0  0
    3.5289  -22.9560  -41.8801 C   0  0  0  0  0  0  0  0  0  0  0  0
    3.4908  -21.9855  -40.8775 C   0  0  0  0  0  0  0  0  0  0  0  0
    4.6235  -21.2629  -40.5797 C   0  0  0  0  0  0  0  0  0  0  0  0
    5.7594  -21.5424  -41.3041 C   0  0  0  0  0  0  0  0  0  0  0  0
    5.8261  -22.4875  -42.2920 C   0  0  0  0  0  0  0  0  0  0  0  0
    0.0513  -15.6764  -36.4193 C   0  0  0  0  0  0  0  0  0  0  0  0
    0.5366  -14.2651  -36.5699 C   0  0  0  0  0  0  0  0  0  0  0  0
    1.6434  -13.9179  -36.0955 O   0  0  0  0  0  0  0  0  0  0  0  0
   -0.2324  -13.2908  -37.2461 N   0  0  0  0  0  0  0  0  0  0  0  0
    0.1961  -12.5466  -37.8420 H   0  0  0  0  0  0  0  0  0  0  0  0
   -1.2800  -13.2768  -37.1757 H   0  0  0  0  0  0  0  0  0  0  0  0
 17 18  1  0  0  0
 18 19  2  0  0  0
 18 23  1  0  0  0
 19 20  1  0  0  0
 20 21  2  0  0  0
 21 22  1  0  0  0
 21  1  1  0  0  0
 22 23  2  0  0  0
  1  2  1  0  0  0
  1  6  1  0  0  0
  2  3  1  0  0  0
  3  4  1  0  0  0
  4  5  1  0  0  0
  5  6  1  0  0  0
  5  9  1  0  0  0
  6  7  2  0  0  0
  7  8  1  0  0  0
  8  9  2  0  0  0
  8 15  1  0  0  0
  9 10  1  0  0  0
 10 11  2  0  0  0
 10 12  1  0  0  0
 12 13  1  0  0  0
 12 24  1  0  0  0
 13 14  2  0  0  0
 13 15  1  0  0  0
 15 16  1  0  0  0
 24 25  1  0  0  0
 25 26  2  0  0  0
 25 27  1  0  0  0
 27 28  1  0  0  0
 27 29  1  0  0  0
M  END
> <minimizedAffinity>
-6.04405

$$$$
439


 28 32  0  0  0  0  0  0  0  0999 V2000
    1.4039  -14.4445  -37.2238 N   0  0  0  0  0  0  0  0  0  0  0  0
    0.8797  -14.8500  -36.0722 N   0  0  0  0  0  0  0  0  0  0  0  0
    0.7113  -16.1853  -36.0758 C   0  0  0  0  0  0  0  0  0  0  0  0
    0.2135  -16.9173  -35.0874 C   0  0  0  0  0  0  0  0  0  0  0  0
    1.1475  -16.6789  -37.2882 C   0  0  0  0  0  0  0  0  0  0  0  0
    1.1625  -17.9440  -37.7169 C   0  0  0  0  0  0  0  0  0  0  0  0
    1.5725  -15.5522  -37.9761 C   0  0  0  0  0  0  0  0  0  0  0  0
    2.0443  -15.5794  -39.1359 O   0  0  0  0  0  0  0  0  0  0  0  0
    0.6336  -14.2235  -35.2802 H   0  0  0  0  0  0  0  0  0  0  0  0
    2.8688   -8.7077  -38.8698 Br  0  0  0  0  0  0  0  0  0  0  0  0
    2.4321  -10.5042  -38.3401 C   0  0  0  0  0  0  0  0  0  0  0  0
    3.2281  -11.2175  -37.4948 C   0  0  0  0  0  0  0  0  0  0  0  0
    2.8777  -12.5162  -37.1343 C   0  0  0  0  0  0  0  0  0  0  0  0
    1.7315  -13.1158  -37.6134 C   0  0  0  0  0  0  0  0  0  0  0  0
    0.9514  -12.3647  -38.4658 C   0  0  0  0  0  0  0  0  0  0  0  0
    1.2746  -11.0799  -38.8377 C   0  0  0  0  0  0  0  0  0  0  0  0
    1.6665  -18.1984  -39.0228 N   0  0  0  0  0  0  0  0  0  0  0  0
    1.2007  -17.7369  -39.8177 H   0  0  0  0  0  0  0  0  0  0  0  0
    2.7858  -19.0650  -39.2549 C   0  0  0  0  0  0  0  0  0  0  0  0
    2.3273  -20.4495  -39.5858 C   0  0  0  0  0  0  0  0  0  0  0  0
    3.4859  -21.2702  -39.9093 N   0  0  0  0  0  0  0  0  0  0  0  0
    4.1496  -20.6662  -41.0581 C   0  0  0  0  0  0  0  0  0  0  0  0
    4.6649  -19.3548  -40.7492 N   0  0  0  0  0  0  0  0  0  0  0  0
    5.5284  -19.4343  -39.5751 C   0  0  0  0  0  0  0  0  0  0  0  0
    4.8332  -19.9890  -38.4357 N   0  0  0  0  0  0  0  0  0  0  0  0
    4.3661  -21.3144  -38.7695 C   0  0  0  0  0  0  0  0  0  0  0  0
    3.7185  -19.1486  -38.0694 C   0  0  0  0  0  0  0  0  0  0  0  0
    3.5721  -18.4739  -40.4294 C   0  0  0  0  0  0  0  0  0  0  0  0
 10 11  1  0  0  0
 11 12  2  0  0  0
 11 16  1  0  0  0
 12 13  1  0  0  0
 13 14  2  0  0  0
 14 15  1  0  0  0
 14  1  1  0  0  0
 15 16  2  0  0  0
  1  2  1  0  0  0
  1  7  1  0  0  0
  2  3  1  0  0  0
  3  4  2  0  0  0
  3  5  1  0  0  0
  5  6  2  0  0  0
  5  7  1  0  0  0
  6 17  1  0  0  0
 17 19  1  0  0  0
 19 20  1  0  0  0
 19 27  1  0  0  0
 19 28  1  0  0  0
 20 21  1  0  0  0
 21 22  1  0  0  0
 21 26  1  0  0  0
 22 23  1  0  0  0
 23 24  1  0  0  0
 23 28  1  0  0  0
 24 25  1  0  0  0
 25 26  1  0  0  0
 25 27  1  0  0  0
  7  8  2  0  0  0
  2  9  1  0  0  0
 17 18  1  0  0  0
M  END
> <minimizedAffinity>
-6.08440

$$$$
441


 36 39  0  0  0  0  0  0  0  0999 V2000
    0.2483  -16.2814  -36.5776 C   0  0  0  0  0  0  0  0  0  0  0  0
    1.0659  -17.0904  -37.2766 N   0  0  0  0  0  0  0  0  0  0  0  0
    0.6583  -18.3046  -37.6078 C   0  0  0  0  0  0  0  0  0  0  0  0
    1.2793  -19.2772  -38.2879 N   0  0  0  0  0  0  0  0  0  0  0  0
    0.4030  -20.3065  -38.3348 C   0  0  0  0  0  0  0  0  0  0  0  0
   -0.7272  -19.9782  -37.7020 N   0  0  0  0  0  0  0  0  0  0  0  0
   -0.6190  -18.7352  -37.2290 C   0  0  0  0  0  0  0  0  0  0  0  0
   -1.4642  -17.9098  -36.5111 C   0  0  0  0  0  0  0  0  0  0  0  0
   -0.9989  -16.6955  -36.2058 N   0  0  0  0  0  0  0  0  0  0  0  0
   -2.7187  -18.3882  -36.1618 O   0  0  0  0  0  0  0  0  0  0  0  0
   -3.2127  -18.9129  -36.8923 H   0  0  0  0  0  0  0  0  0  0  0  0
    2.5631  -19.3315  -38.8746 C   0  0  0  0  0  0  0  0  0  0  0  0
    2.5121  -19.7692  -40.2046 O   0  0  0  0  0  0  0  0  0  0  0  0
    2.8347  -21.1192  -40.0939 C   0  0  0  0  0  0  0  0  0  0  0  0
    4.1076  -21.0266  -39.2655 C   0  0  0  0  0  0  0  0  0  0  0  0
    3.6076  -20.0884  -38.1697 C   0  0  0  0  0  0  0  0  0  0  0  0
    4.6629  -19.2575  -37.7312 O   0  0  0  0  0  0  0  0  0  0  0  0
    4.5435  -22.2325  -38.7929 O   0  0  0  0  0  0  0  0  0  0  0  0
    5.2284  -19.8323  -37.1570 H   0  0  0  0  0  0  0  0  0  0  0  0
    4.2911  -23.0085  -39.3882 H   0  0  0  0  0  0  0  0  0  0  0  0
    3.0722  -21.7656  -41.4278 C   0  0  0  0  0  0  0  0  0  0  0  0
    3.6192  -23.0174  -41.3483 O   0  0  0  0  0  0  0  0  0  0  0  0
    2.8824  -23.6810  -41.3065 H   0  0  0  0  0  0  0  0  0  0  0  0
    0.3520  -13.8261  -36.9678 C   0  0  0  0  0  0  0  0  0  0  0  0
   -0.2900  -13.9346  -38.0274 O   0  0  0  0  0  0  0  0  0  0  0  0
    0.6534  -14.9680  -36.1985 N   0  0  0  0  0  0  0  0  0  0  0  0
    1.2011  -14.8760  -35.2949 H   0  0  0  0  0  0  0  0  0  0  0  0
    0.8035  -12.4984  -36.5122 C   0  0  0  0  0  0  0  0  0  0  0  0
    2.1909  -12.4091  -36.3625 O   0  0  0  0  0  0  0  0  0  0  0  0
    5.6346  -10.9094  -41.1495 Br  0  0  0  0  0  0  0  0  0  0  0  0
    4.5516  -11.3765  -39.6344 C   0  0  0  0  0  0  0  0  0  0  0  0
    3.6145  -12.3796  -39.7489 C   0  0  0  0  0  0  0  0  0  0  0  0
    2.8265  -12.7188  -38.6456 C   0  0  0  0  0  0  0  0  0  0  0  0
    2.9721  -12.0669  -37.4443 C   0  0  0  0  0  0  0  0  0  0  0  0
    3.9121  -11.0705  -37.3502 C   0  0  0  0  0  0  0  0  0  0  0  0
    4.6949  -10.7248  -38.4270 C   0  0  0  0  0  0  0  0  0  0  0  0
 30 31  1  0  0  0
 31 32  2  0  0  0
 31 36  1  0  0  0
 32 33  1  0  0  0
 33 34  2  0  0  0
 34 35  1  0  0  0
 34 29  1  0  0  0
 35 36  2  0  0  0
 29 28  1  0  0  0
 28 24  1  0  0  0
 24 25  2  0  0  0
 24 26  1  0  0  0
 26  1  1  0  0  0
  1  2  2  0  0  0
  1  9  1  0  0  0
  2  3  1  0  0  0
  3  4  1  0  0  0
  3  7  2  0  0  0
  4  5  1  0  0  0
  4 12  1  0  0  0
  5  6  2  0  0  0
  6  7  1  0  0  0
  7  8  1  0  0  0
  8  9  2  0  0  0
  8 10  1  0  0  0
 12 13  1  0  0  0
 12 16  1  0  0  0
 13 14  1  0  0  0
 14 15  1  0  0  0
 14 21  1  0  0  0
 15 16  1  0  0  0
 15 18  1  0  0  0
 16 17  1  0  0  0
 21 22  1  0  0  0
 26 27  1  0  0  0
 10 11  1  0  0  0
 17 19  1  0  0  0
 18 20  1  0  0  0
 22 23  1  0  0  0
M  END
> <minimizedAffinity>
-7.21804

$$$$
444


 33 36  0  0  0  0  0  0  0  0999 V2000
    0.8947  -17.7648  -38.1740 N   0  0  0  0  0  0  0  0  0  0  0  0
   -0.4305  -18.0377  -38.1795 C   0  0  0  0  0  0  0  0  0  0  0  0
   -0.5917  -19.4033  -38.2364 C   0  0  0  0  0  0  0  0  0  0  0  0
    0.6288  -19.8969  -38.2662 N   0  0  0  0  0  0  0  0  0  0  0  0
    1.5837  -18.9152  -38.2322 C   0  0  0  0  0  0  0  0  0  0  0  0
   -1.8054  -20.0278  -38.2578 N   0  0  0  0  0  0  0  0  0  0  0  0
   -2.8928  -19.2560  -38.2215 C   0  0  0  0  0  0  0  0  0  0  0  0
   -4.0222  -19.8158  -38.2394 O   0  0  0  0  0  0  0  0  0  0  0  0
   -2.7669  -17.9233  -38.1675 N   0  0  0  0  0  0  0  0  0  0  0  0
   -1.5784  -17.2761  -38.1448 C   0  0  0  0  0  0  0  0  0  0  0  0
   -1.4925  -16.0405  -38.0957 O   0  0  0  0  0  0  0  0  0  0  0  0
   -1.8736  -21.4886  -38.3097 C   0  0  0  0  0  0  0  0  0  0  0  0
   -3.6384  -17.3545  -38.1406 H   0  0  0  0  0  0  0  0  0  0  0  0
    2.9979  -19.1741  -38.3244 N   0  0  0  0  0  0  0  0  0  0  0  0
    3.4832  -19.3010  -39.7165 C   0  0  0  0  0  0  0  0  0  0  0  0
    4.9504  -19.2629  -39.8626 C   0  0  0  0  0  0  0  0  0  0  0  0
    5.6538  -19.8789  -38.7656 N   0  0  0  0  0  0  0  0  0  0  0  0
    5.3440  -19.0998  -37.6089 C   0  0  0  0  0  0  0  0  0  0  0  0
    3.8756  -19.2455  -37.2106 C   0  0  0  0  0  0  0  0  0  0  0  0
    5.3880  -21.2752  -38.6547 C   0  0  0  0  0  0  0  0  0  0  0  0
    1.4917  -16.4516  -38.0627 C   0  0  0  0  0  0  0  0  0  0  0  0
    1.7040  -15.9543  -36.6626 C   0  0  0  0  0  0  0  0  0  0  0  0
    1.1397  -16.8102  -35.7062 O   0  0  0  0  0  0  0  0  0  0  0  0
    1.6169  -16.6717  -34.8255 H   0  0  0  0  0  0  0  0  0  0  0  0
    1.2308  -14.5682  -36.3591 C   0  0  0  0  0  0  0  0  0  0  0  0
    1.6578  -13.6290  -37.1767 O   0  0  0  0  0  0  0  0  0  0  0  0
    5.6600  -10.3092  -40.1539 Br  0  0  0  0  0  0  0  0  0  0  0  0
    4.3928  -11.3597  -39.2054 C   0  0  0  0  0  0  0  0  0  0  0  0
    4.2063  -11.1263  -37.8695 C   0  0  0  0  0  0  0  0  0  0  0  0
    3.2883  -11.8858  -37.1776 C   0  0  0  0  0  0  0  0  0  0  0  0
    2.5448  -12.8785  -37.7837 C   0  0  0  0  0  0  0  0  0  0  0  0
    2.7615  -13.0957  -39.1632 C   0  0  0  0  0  0  0  0  0  0  0  0
    3.6652  -12.3462  -39.8394 C   0  0  0  0  0  0  0  0  0  0  0  0
 27 28  1  0  0  0
 28 29  2  0  0  0
 28 33  1  0  0  0
 29 30  1  0  0  0
 30 31  2  0  0  0
 31 32  1  0  0  0
 31 26  1  0  0  0
 32 33  2  0  0  0
 26 25  1  0  0  0
 25 22  1  0  0  0
 22 23  1  0  0  0
 22 21  1  0  0  0
 21  1  1  0  0  0
  1  2  1  0  0  0
  1  5  1  0  0  0
  2  3  2  0  0  0
  2 10  1  0  0  0
  3  4  1  0  0  0
  3  6  1  0  0  0
  4  5  2  0  0  0
  5 14  1  0  0  0
 14 15  1  0  0  0
 14 19  1  0  0  0
 15 16  1  0  0  0
 16 17  1  0  0  0
 17 18  1  0  0  0
 17 20  1  0  0  0
 18 19  1  0  0  0
  6  7  1  0  0  0
  6 12  1  0  0  0
  7  8  2  0  0  0
  7  9  1  0  0  0
  9 10  1  0  0  0
 10 11  2  0  0  0
 23 24  1  0  0  0
  9 13  1  0  0  0
M  END
> <minimizedAffinity>
-6.72409

$$$$
454


 21 25  0  0  0  0  0  0  0  0999 V2000
    4.6020  -21.6692  -42.3126 C   0  0  0  0  0  0  0  0  0  0  0  0
    2.7275  -24.1727  -42.6798 Br  0  0  0  0  0  0  0  0  0  0  0  0
    4.6153  -24.0356  -42.9586 C   0  0  0  0  0  0  0  0  0  0  0  0
    5.3529  -25.1534  -43.3017 C   0  0  0  0  0  0  0  0  0  0  0  0
    6.7163  -25.0717  -43.5004 C   0  0  0  0  0  0  0  0  0  0  0  0
    7.4455  -23.9134  -43.3720 C   0  0  0  0  0  0  0  0  0  0  0  0
    6.7099  -22.8114  -43.0309 C   0  0  0  0  0  0  0  0  0  0  0  0
    5.3295  -22.8333  -42.8196 C   0  0  0  0  0  0  0  0  0  0  0  0
    8.7546  -24.2782  -43.6416 O   0  0  0  0  0  0  0  0  0  0  0  0
    8.9024  -25.6820  -43.2900 C   0  0  0  0  0  0  0  0  0  0  0  0
    7.6270  -26.1145  -43.8524 O   0  0  0  0  0  0  0  0  0  0  0  0
    4.8671  -21.1712  -41.0282 N   0  0  0  0  0  0  0  0  0  0  0  0
    3.4825  -21.1796  -40.4326 C   0  0  0  0  0  0  0  0  0  0  0  0
    3.3532  -20.4559  -39.2395 N   0  0  0  0  0  0  0  0  0  0  0  0
    3.7887  -19.0966  -39.5083 C   0  0  0  0  0  0  0  0  0  0  0  0
    5.1934  -19.1540  -39.8292 N   0  0  0  0  0  0  0  0  0  0  0  0
    5.4159  -19.8170  -41.0733 C   0  0  0  0  0  0  0  0  0  0  0  0
    6.0052  -19.8166  -38.8018 C   0  0  0  0  0  0  0  0  0  0  0  0
    5.5553  -21.1973  -38.7314 N   0  0  0  0  0  0  0  0  0  0  0  0
    5.6459  -21.8626  -40.0487 C   0  0  0  0  0  0  0  0  0  0  0  0
    4.1946  -21.1433  -38.2532 C   0  0  0  0  0  0  0  0  0  0  0  0
  2  3  1  0  0  0
  3  4  2  0  0  0
  3  8  1  0  0  0
  4  5  1  0  0  0
  5  6  2  0  0  0
  5 11  1  0  0  0
  6  7  1  0  0  0
  6  9  1  0  0  0
  7  8  2  0  0  0
  8  1  1  0  0  0
  1 12  1  0  0  0
 12 13  1  0  0  0
 12 17  1  0  0  0
 12 20  1  0  0  0
 13 14  1  0  0  0
 14 15  1  0  0  0
 14 21  1  0  0  0
 15 16  1  0  0  0
 16 17  1  0  0  0
 16 18  1  0  0  0
 18 19  1  0  0  0
 19 20  1  0  0  0
 19 21  1  0  0  0
  9 10  1  0  0  0
 10 11  1  0  0  0
M  CHG 1  12   1
M  END
> <minimizedAffinity>
-5.30928

$$$$
455


 26 29  0  0  0  0  0  0  0  0999 V2000
   -0.2758  -17.3587  -38.0067 N   0  0  0  0  0  0  0  0  0  0  0  0
   -1.3579  -16.3982  -38.3467 C   0  0  0  0  0  0  0  0  0  0  0  0
   -1.1923  -15.3039  -37.2974 C   0  0  0  0  0  0  0  0  0  0  0  0
   -0.3148  -15.6492  -36.2400 N   0  0  0  0  0  0  0  0  0  0  0  0
   -0.5921  -16.9447  -35.6768 C   0  0  0  0  0  0  0  0  0  0  0  0
   -0.7738  -17.9591  -36.7676 C   0  0  0  0  0  0  0  0  0  0  0  0
   -0.1745  -18.3573  -39.0529 C   0  0  0  0  0  0  0  0  0  0  0  0
    1.2055  -16.5425  -41.0989 Br  0  0  0  0  0  0  0  0  0  0  0  0
    2.0361  -17.9953  -40.1781 C   0  0  0  0  0  0  0  0  0  0  0  0
    3.3607  -18.2948  -40.3996 C   0  0  0  0  0  0  0  0  0  0  0  0
    3.9719  -19.3353  -39.7452 C   0  0  0  0  0  0  0  0  0  0  0  0
    3.2245  -20.0657  -38.8654 C   0  0  0  0  0  0  0  0  0  0  0  0
    1.8829  -19.7594  -38.6436 C   0  0  0  0  0  0  0  0  0  0  0  0
    1.2455  -18.7196  -39.2881 C   0  0  0  0  0  0  0  0  0  0  0  0
    3.8230  -21.1201  -38.1942 O   0  0  0  0  0  0  0  0  0  0  0  0
    5.0717  -21.6572  -38.5465 C   0  0  0  0  0  0  0  0  0  0  0  0
    5.9660  -20.6173  -39.1416 C   0  0  0  0  0  0  0  0  0  0  0  0
    5.3058  -19.6685  -39.9402 O   0  0  0  0  0  0  0  0  0  0  0  0
    1.0516  -15.3112  -36.3712 C   0  0  0  0  0  0  0  0  0  0  0  0
    1.3647  -13.8954  -36.4281 C   0  0  0  0  0  0  0  0  0  0  0  0
    0.9077  -13.0990  -35.5813 O   0  0  0  0  0  0  0  0  0  0  0  0
    2.1991  -13.3751  -37.4442 N   0  0  0  0  0  0  0  0  0  0  0  0
    2.6276  -13.9865  -38.1976 H   0  0  0  0  0  0  0  0  0  0  0  0
    2.5348  -11.9591  -37.5332 C   0  0  0  0  0  0  0  0  0  0  0  0
    3.5700  -11.4927  -38.4694 C   0  0  0  0  0  0  0  0  0  0  0  0
    3.9255  -11.5998  -37.0173 C   0  0  0  0  0  0  0  0  0  0  0  0
  8  9  1  0  0  0
  9 10  2  0  0  0
  9 14  1  0  0  0
 10 11  1  0  0  0
 11 12  2  0  0  0
 11 18  1  0  0  0
 12 13  1  0  0  0
 12 15  1  0  0  0
 13 14  2  0  0  0
 14  7  1  0  0  0
  7  1  1  0  0  0
  1  2  1  0  0  0
  1  6  1  0  0  0
  2  3  1  0  0  0
  3  4  1  0  0  0
  4  5  1  0  0  0
  4 19  1  0  0  0
  5  6  1  0  0  0
 19 20  1  0  0  0
 20 21  2  0  0  0
 20 22  1  0  0  0
 22 24  1  0  0  0
 24 25  1  0  0  0
 24 26  1  0  0  0
 25 26  1  0  0  0
 15 16  1  0  0  0
 16 17  1  0  0  0
 17 18  1  0  0  0
 22 23  1  0  0  0
M  END
> <minimizedAffinity>
-5.84303

$$$$
459


 29 32  0  0  0  0  0  0  0  0999 V2000
    0.7411  -16.7560  -36.6247 C   0  0  0  0  0  0  0  0  0  0  0  0
    2.0551  -17.0223  -36.2163 C   0  0  0  0  0  0  0  0  0  0  0  0
    2.8170  -18.0306  -36.7610 C   0  0  0  0  0  0  0  0  0  0  0  0
    2.3033  -18.8376  -37.7524 C   0  0  0  0  0  0  0  0  0  0  0  0
    1.0115  -18.5909  -38.1657 C   0  0  0  0  0  0  0  0  0  0  0  0
    0.2368  -17.5686  -37.6153 C   0  0  0  0  0  0  0  0  0  0  0  0
    3.1022  -19.9150  -38.3416 C   0  0  0  0  0  0  0  0  0  0  0  0
    3.2733  -20.2234  -39.6378 N   0  0  0  0  0  0  0  0  0  0  0  0
    4.0847  -21.2827  -39.7224 N   0  0  0  0  0  0  0  0  0  0  0  0
    4.4261  -21.6469  -38.4950 N   0  0  0  0  0  0  0  0  0  0  0  0
    3.8279  -20.8150  -37.6592 N   0  0  0  0  0  0  0  0  0  0  0  0
    4.5478  -21.9634  -40.9136 C   0  0  0  0  0  0  0  0  0  0  0  0
    5.8289  -21.3812  -41.3697 C   0  0  0  0  0  0  0  0  0  0  0  0
    6.5249  -21.9972  -42.1927 O   0  0  0  0  0  0  0  0  0  0  0  0
    6.2400  -20.1312  -40.8589 N   0  0  0  0  0  0  0  0  0  0  0  0
    5.9808  -19.7972  -39.8893 H   0  0  0  0  0  0  0  0  0  0  0  0
    6.8235  -19.4963  -41.4441 H   0  0  0  0  0  0  0  0  0  0  0  0
    0.0180  -15.7311  -36.0400 O   0  0  0  0  0  0  0  0  0  0  0  0
   -0.3446  -14.5560  -36.7010 C   0  0  0  0  0  0  0  0  0  0  0  0
   -0.4317  -14.6823  -39.7470 Br  0  0  0  0  0  0  0  0  0  0  0  0
    0.8984  -13.7691  -38.7149 C   0  0  0  0  0  0  0  0  0  0  0  0
    1.9214  -13.0751  -39.3116 C   0  0  0  0  0  0  0  0  0  0  0  0
    2.8711  -12.4229  -38.5517 C   0  0  0  0  0  0  0  0  0  0  0  0
    2.7816  -12.4752  -37.1768 C   0  0  0  0  0  0  0  0  0  0  0  0
    1.7391  -13.1816  -36.5793 C   0  0  0  0  0  0  0  0  0  0  0  0
    0.7835  -13.8389  -37.3201 C   0  0  0  0  0  0  0  0  0  0  0  0
    3.8439  -11.7486  -36.6767 O   0  0  0  0  0  0  0  0  0  0  0  0
    4.4434  -10.9785  -37.7038 C   0  0  0  0  0  0  0  0  0  0  0  0
    3.9976  -11.6566  -38.8583 O   0  0  0  0  0  0  0  0  0  0  0  0
 20 21  1  0  0  0
 21 22  2  0  0  0
 21 26  1  0  0  0
 22 23  1  0  0  0
 23 24  2  0  0  0
 23 29  1  0  0  0
 24 25  1  0  0  0
 24 27  1  0  0  0
 25 26  2  0  0  0
 26 19  1  0  0  0
 19 18  1  0  0  0
 18  1  1  0  0  0
  1  2  2  0  0  0
  1  6  1  0  0  0
  2  3  1  0  0  0
  3  4  2  0  0  0
  4  5  1  0  0  0
  4  7  1  0  0  0
  5  6  2  0  0  0
  7  8  2  0  0  0
  7 11  1  0  0  0
  8  9  1  0  0  0
  9 10  1  0  0  0
  9 12  1  0  0  0
 10 11  2  0  0  0
 12 13  1  0  0  0
 13 14  2  0  0  0
 13 15  1  0  0  0
 27 28  1  0  0  0
 28 29  1  0  0  0
 15 16  1  0  0  0
 15 17  1  0  0  0
M  END
> <minimizedAffinity>
-6.67965

$$$$
467


 28 31  0  0  0  0  0  0  0  0999 V2000
    1.3694  -16.7366  -40.4864 N   0  0  0  0  0  0  0  0  0  0  0  0
    0.9283  -16.7898  -41.4299 H   0  0  0  0  0  0  0  0  0  0  0  0
    1.2889  -17.8615  -39.6370 C   0  0  0  0  0  0  0  0  0  0  0  0
    2.4498  -18.4637  -39.3304 N   0  0  0  0  0  0  0  0  0  0  0  0
    2.5238  -19.5380  -38.4991 C   0  0  0  0  0  0  0  0  0  0  0  0
    1.3659  -19.9669  -37.9991 N   0  0  0  0  0  0  0  0  0  0  0  0
    0.1838  -19.4156  -38.2628 C   0  0  0  0  0  0  0  0  0  0  0  0
    0.1651  -18.3392  -39.1044 N   0  0  0  0  0  0  0  0  0  0  0  0
    3.7708  -20.1112  -38.2409 N   0  0  0  0  0  0  0  0  0  0  0  0
    4.1796  -21.3400  -38.8784 C   0  0  0  0  0  0  0  0  0  0  0  0
    5.6763  -21.5413  -38.7665 C   0  0  0  0  0  0  0  0  0  0  0  0
    6.4277  -20.4127  -38.7960 O   0  0  0  0  0  0  0  0  0  0  0  0
    5.9720  -19.2931  -38.1724 C   0  0  0  0  0  0  0  0  0  0  0  0
    4.7080  -19.4892  -37.3406 C   0  0  0  0  0  0  0  0  0  0  0  0
   -1.0029  -19.8854  -37.7265 O   0  0  0  0  0  0  0  0  0  0  0  0
   -1.8300  -19.0426  -36.9698 C   0  0  0  0  0  0  0  0  0  0  0  0
    1.7096  -14.7690  -39.1877 C   0  0  0  0  0  0  0  0  0  0  0  0
    2.0089  -15.5690  -40.1202 N   0  0  0  0  0  0  0  0  0  0  0  0
    1.3599  -13.6269  -36.3274 Br  0  0  0  0  0  0  0  0  0  0  0  0
    2.4497  -12.9300  -37.7118 C   0  0  0  0  0  0  0  0  0  0  0  0
    3.1984  -11.7878  -37.4978 C   0  0  0  0  0  0  0  0  0  0  0  0
    4.0144  -11.2372  -38.4879 C   0  0  0  0  0  0  0  0  0  0  0  0
    4.0576  -11.8805  -39.7224 C   0  0  0  0  0  0  0  0  0  0  0  0
    3.3018  -13.0189  -39.9125 C   0  0  0  0  0  0  0  0  0  0  0  0
    2.4855  -13.5733  -38.9289 C   0  0  0  0  0  0  0  0  0  0  0  0
    4.9186  -11.1524  -40.5119 O   0  0  0  0  0  0  0  0  0  0  0  0
    5.2951   -9.9471  -39.8757 C   0  0  0  0  0  0  0  0  0  0  0  0
    4.8500  -10.1344  -38.5578 O   0  0  0  0  0  0  0  0  0  0  0  0
 19 20  1  0  0  0
 20 21  2  0  0  0
 20 25  1  0  0  0
 21 22  1  0  0  0
 22 23  2  0  0  0
 22 28  1  0  0  0
 23 24  1  0  0  0
 23 26  1  0  0  0
 24 25  2  0  0  0
 25 17  1  0  0  0
 17 18  2  0  0  0
 18  1  1  0  0  0
  1  3  1  0  0  0
  3  4  2  0  0  0
  3  8  1  0  0  0
  4  5  1  0  0  0
  5  6  2  0  0  0
  5  9  1  0  0  0
  6  7  1  0  0  0
  7  8  2  0  0  0
  7 15  1  0  0  0
 15 16  1  0  0  0
  9 10  1  0  0  0
  9 14  1  0  0  0
 10 11  1  0  0  0
 11 12  1  0  0  0
 12 13  1  0  0  0
 13 14  1  0  0  0
 26 27  1  0  0  0
 27 28  1  0  0  0
  1  2  1  0  0  0
M  END
> <minimizedAffinity>
-6.45922

$$$$
469


 32 36  0  0  0  0  0  0  0  0999 V2000
    4.0884  -23.4295  -42.7252 C   0  0  0  0  0  0  0  0  0  0  0  0
    5.4846  -23.7931  -42.7978 N   0  0  0  0  0  0  0  0  0  0  0  0
    6.3885  -22.7437  -42.8099 C   0  0  0  0  0  0  0  0  0  0  0  0
    7.6869  -22.8729  -43.5085 C   0  0  0  0  0  0  0  0  0  0  0  0
    7.9698  -24.2648  -43.7118 N   0  0  0  0  0  0  0  0  0  0  0  0
    6.9275  -24.9821  -44.4018 C   0  0  0  0  0  0  0  0  0  0  0  0
    5.7372  -25.0032  -43.4784 C   0  0  0  0  0  0  0  0  0  0  0  0
    9.1268  -24.9514  -43.3084 C   0  0  0  0  0  0  0  0  0  0  0  0
    9.1492  -25.8766  -42.3157 N   0  0  0  0  0  0  0  0  0  0  0  0
   10.2737  -26.5193  -41.9527 C   0  0  0  0  0  0  0  0  0  0  0  0
   11.4441  -26.2712  -42.5666 N   0  0  0  0  0  0  0  0  0  0  0  0
   11.5163  -25.3674  -43.5646 C   0  0  0  0  0  0  0  0  0  0  0  0
   12.5357  -24.9240  -44.3442 N   0  0  0  0  0  0  0  0  0  0  0  0
   12.0123  -24.0266  -45.1598 N   0  0  0  0  0  0  0  0  0  0  0  0
   10.7043  -23.8654  -44.9474 C   0  0  0  0  0  0  0  0  0  0  0  0
   10.3612  -24.7199  -43.9235 C   0  0  0  0  0  0  0  0  0  0  0  0
   13.9274  -25.3719  -44.2699 C   0  0  0  0  0  0  0  0  0  0  0  0
    3.6967  -22.1776  -40.5988 N   0  0  0  0  0  0  0  0  0  0  0  0
    3.8934  -22.1204  -41.9941 C   0  0  0  0  0  0  0  0  0  0  0  0
    3.9204  -21.0861  -42.6814 O   0  0  0  0  0  0  0  0  0  0  0  0
    3.6993  -23.1441  -40.1438 H   0  0  0  0  0  0  0  0  0  0  0  0
    6.1088  -21.7663  -38.8606 Br  0  0  0  0  0  0  0  0  0  0  0  0
    4.5272  -20.7171  -38.8652 C   0  0  0  0  0  0  0  0  0  0  0  0
    4.3713  -19.6399  -38.0253 C   0  0  0  0  0  0  0  0  0  0  0  0
    3.2431  -18.8812  -38.0204 C   0  0  0  0  0  0  0  0  0  0  0  0
    2.2136  -19.1934  -38.8813 C   0  0  0  0  0  0  0  0  0  0  0  0
    2.3498  -20.2857  -39.7451 C   0  0  0  0  0  0  0  0  0  0  0  0
    3.4969  -21.0602  -39.7526 C   0  0  0  0  0  0  0  0  0  0  0  0
    1.0854  -18.4137  -38.8590 O   0  0  0  0  0  0  0  0  0  0  0  0
    0.6733  -17.6498  -37.7519 C   0  0  0  0  0  0  0  0  0  0  0  0
    1.7231  -17.5270  -36.6944 C   0  0  0  0  0  0  0  0  0  0  0  0
    3.0431  -17.7866  -37.1901 O   0  0  0  0  0  0  0  0  0  0  0  0
 22 23  1  0  0  0
 23 24  2  0  0  0
 23 28  1  0  0  0
 24 25  1  0  0  0
 25 26  2  0  0  0
 25 32  1  0  0  0
 26 27  1  0  0  0
 26 29  1  0  0  0
 27 28  2  0  0  0
 28 18  1  0  0  0
 18 19  1  0  0  0
 19 20  2  0  0  0
 19  1  1  0  0  0
  1  2  1  0  0  0
  2  3  1  0  0  0
  2  7  1  0  0  0
  3  4  1  0  0  0
  4  5  1  0  0  0
  5  6  1  0  0  0
  5  8  1  0  0  0
  6  7  1  0  0  0
  8  9  2  0  0  0
  8 16  1  0  0  0
  9 10  1  0  0  0
 10 11  2  0  0  0
 11 12  1  0  0  0
 12 13  1  0  0  0
 12 16  2  0  0  0
 13 14  1  0  0  0
 13 17  1  0  0  0
 14 15  2  0  0  0
 15 16  1  0  0  0
 29 30  1  0  0  0
 30 31  1  0  0  0
 31 32  1  0  0  0
 18 21  1  0  0  0
M  END
> <minimizedAffinity>
-6.27041

$$$$
471


 27 30  0  0  0  0  0  0  0  0999 V2000
    0.7792  -16.5067  -39.0217 C   0  0  0  0  0  0  0  0  0  0  0  0
   -0.0991  -16.4563  -39.9309 O   0  0  0  0  0  0  0  0  0  0  0  0
    1.1648  -17.7586  -38.5023 N   0  0  0  0  0  0  0  0  0  0  0  0
    0.5449  -18.9500  -39.0238 C   0  0  0  0  0  0  0  0  0  0  0  0
    1.5503  -19.9635  -39.5279 C   0  0  0  0  0  0  0  0  0  0  0  0
    2.7351  -19.8389  -38.7638 N   0  0  0  0  0  0  0  0  0  0  0  0
    2.4920  -19.4521  -37.4299 C   0  0  0  0  0  0  0  0  0  0  0  0
    2.1520  -17.9507  -37.4676 C   0  0  0  0  0  0  0  0  0  0  0  0
    5.3239  -10.4882  -40.3395 Br  0  0  0  0  0  0  0  0  0  0  0  0
    4.1256  -11.4609  -39.2190 C   0  0  0  0  0  0  0  0  0  0  0  0
    3.5773  -12.6564  -39.6516 C   0  0  0  0  0  0  0  0  0  0  0  0
    2.7030  -13.3858  -38.8590 C   0  0  0  0  0  0  0  0  0  0  0  0
    2.4152  -12.8500  -37.6186 C   0  0  0  0  0  0  0  0  0  0  0  0
    2.9436  -11.6666  -37.1643 C   0  0  0  0  0  0  0  0  0  0  0  0
    3.8073  -10.9644  -37.9691 C   0  0  0  0  0  0  0  0  0  0  0  0
    1.5436  -13.5728  -36.8244 C   0  0  0  0  0  0  0  0  0  0  0  0
    1.2351  -13.1339  -35.6675 O   0  0  0  0  0  0  0  0  0  0  0  0
    1.0278  -14.7572  -37.3066 C   0  0  0  0  0  0  0  0  0  0  0  0
    1.3545  -15.2401  -38.5523 C   0  0  0  0  0  0  0  0  0  0  0  0
    2.1826  -14.5180  -39.2651 O   0  0  0  0  0  0  0  0  0  0  0  0
    3.8643  -19.3000  -39.4089 C   0  0  0  0  0  0  0  0  0  0  0  0
    5.1545  -19.6338  -38.8122 C   0  0  0  0  0  0  0  0  0  0  0  0
    5.7982  -18.9025  -37.8878 N   0  0  0  0  0  0  0  0  0  0  0  0
    6.8937  -19.5151  -37.6115 O   0  0  0  0  0  0  0  0  0  0  0  0
    7.0117  -20.6193  -38.3058 N   0  0  0  0  0  0  0  0  0  0  0  0
    5.9174  -20.7345  -39.0898 C   0  0  0  0  0  0  0  0  0  0  0  0
    5.6152  -21.8352  -40.0533 C   0  0  0  0  0  0  0  0  0  0  0  0
  9 10  1  0  0  0
 10 11  2  0  0  0
 10 15  1  0  0  0
 11 12  1  0  0  0
 12 13  2  0  0  0
 12 20  1  0  0  0
 13 14  1  0  0  0
 13 16  1  0  0  0
 14 15  2  0  0  0
 16 17  2  0  0  0
 16 18  1  0  0  0
 18 19  2  0  0  0
 19 20  1  0  0  0
 19  1  1  0  0  0
  1  2  2  0  0  0
  1  3  1  0  0  0
  3  4  1  0  0  0
  3  8  1  0  0  0
  4  5  1  0  0  0
  5  6  1  0  0  0
  6  7  1  0  0  0
  6 21  1  0  0  0
  7  8  1  0  0  0
 21 22  1  0  0  0
 22 23  2  0  0  0
 22 26  1  0  0  0
 23 24  1  0  0  0
 24 25  1  0  0  0
 25 26  2  0  0  0
 26 27  1  0  0  0
M  END
> <minimizedAffinity>
-7.02072

$$$$
473


 29 32  0  0  0  0  0  0  0  0999 V2000
    1.9592  -17.0456  -36.6745 C   0  0  0  0  0  0  0  0  0  0  0  0
    1.5747  -18.1702  -37.5578 C   0  0  0  0  0  0  0  0  0  0  0  0
    0.4310  -18.2960  -38.0678 O   0  0  0  0  0  0  0  0  0  0  0  0
    2.5262  -19.2028  -37.8825 N   0  0  0  0  0  0  0  0  0  0  0  0
    2.1613  -20.3033  -38.7448 C   0  0  0  0  0  0  0  0  0  0  0  0
    3.2009  -20.6324  -39.7633 C   0  0  0  0  0  0  0  0  0  0  0  0
    4.3818  -19.8049  -39.6972 N   0  0  0  0  0  0  0  0  0  0  0  0
    4.8813  -19.1876  -38.4979 C   0  0  0  0  0  0  0  0  0  0  0  0
    3.8822  -19.1910  -37.3668 C   0  0  0  0  0  0  0  0  0  0  0  0
    5.1073  -19.5837  -40.9108 C   0  0  0  0  0  0  0  0  0  0  0  0
    6.0922  -20.4302  -41.3170 N   0  0  0  0  0  0  0  0  0  0  0  0
    6.7904  -20.2602  -42.4387 C   0  0  0  0  0  0  0  0  0  0  0  0
    6.5082  -19.1660  -43.2428 C   0  0  0  0  0  0  0  0  0  0  0  0
    5.5332  -18.3033  -42.8678 N   0  0  0  0  0  0  0  0  0  0  0  0
    4.8507  -18.5079  -41.7296 C   0  0  0  0  0  0  0  0  0  0  0  0
    0.7993  -16.3292  -36.0430 C   0  0  0  0  0  0  0  0  0  0  0  0
    0.2180  -15.3637  -37.0080 C   0  0  0  0  0  0  0  0  0  0  0  0
    5.4071  -10.9401  -40.9507 Br  0  0  0  0  0  0  0  0  0  0  0  0
    4.2662  -11.5953  -39.5692 C   0  0  0  0  0  0  0  0  0  0  0  0
    3.5159  -12.7298  -39.8036 C   0  0  0  0  0  0  0  0  0  0  0  0
    2.6745  -13.2464  -38.8355 C   0  0  0  0  0  0  0  0  0  0  0  0
    2.6089  -12.5860  -37.6241 C   0  0  0  0  0  0  0  0  0  0  0  0
    3.3636  -11.4525  -37.4009 C   0  0  0  0  0  0  0  0  0  0  0  0
    4.2063  -10.9314  -38.3617 C   0  0  0  0  0  0  0  0  0  0  0  0
    1.6688  -13.3147  -36.7907 C   0  0  0  0  0  0  0  0  0  0  0  0
    1.3691  -12.9770  -35.6004 O   0  0  0  0  0  0  0  0  0  0  0  0
    1.1792  -14.4201  -37.5350 N   0  0  0  0  0  0  0  0  0  0  0  0
    1.7775  -14.4118  -38.8071 C   0  0  0  0  0  0  0  0  0  0  0  0
    1.6034  -15.2262  -39.7547 O   0  0  0  0  0  0  0  0  0  0  0  0
 18 19  1  0  0  0
 19 20  2  0  0  0
 19 24  1  0  0  0
 20 21  1  0  0  0
 21 22  2  0  0  0
 21 28  1  0  0  0
 22 23  1  0  0  0
 22 25  1  0  0  0
 23 24  2  0  0  0
 25 26  2  0  0  0
 25 27  1  0  0  0
 27 28  1  0  0  0
 27 17  1  0  0  0
 28 29  2  0  0  0
 17 16  1  0  0  0
 16  1  1  0  0  0
  1  2  1  0  0  0
  2  3  2  0  0  0
  2  4  1  0  0  0
  4  5  1  0  0  0
  4  9  1  0  0  0
  5  6  1  0  0  0
  6  7  1  0  0  0
  7  8  1  0  0  0
  7 10  1  0  0  0
  8  9  1  0  0  0
 10 11  2  0  0  0
 10 15  1  0  0  0
 11 12  1  0  0  0
 12 13  2  0  0  0
 13 14  1  0  0  0
 14 15  2  0  0  0
M  END
> <minimizedAffinity>
-6.85573

$$$$
483


 31 34  0  0  0  0  0  0  0  0999 V2000
    0.5024  -17.2979  -36.7057 N   0  0  0  0  0  0  0  0  0  0  0  0
   -0.7158  -17.9001  -37.1059 C   0  0  0  0  0  0  0  0  0  0  0  0
   -1.7717  -17.2286  -37.0599 O   0  0  0  0  0  0  0  0  0  0  0  0
    1.3787  -17.8570  -36.7345 H   0  0  0  0  0  0  0  0  0  0  0  0
    2.3723  -17.4600  -41.7285 Br  0  0  0  0  0  0  0  0  0  0  0  0
    2.1871  -15.9980  -40.5281 C   0  0  0  0  0  0  0  0  0  0  0  0
    1.6683  -16.1649  -39.2386 C   0  0  0  0  0  0  0  0  0  0  0  0
    1.5320  -15.1081  -38.3639 C   0  0  0  0  0  0  0  0  0  0  0  0
    1.9227  -13.8281  -38.7754 C   0  0  0  0  0  0  0  0  0  0  0  0
    2.4356  -13.6753  -40.0551 C   0  0  0  0  0  0  0  0  0  0  0  0
    2.5636  -14.7415  -40.9132 C   0  0  0  0  0  0  0  0  0  0  0  0
    1.7032  -12.8823  -37.7348 N   0  0  0  0  0  0  0  0  0  0  0  0
    1.1565  -13.5965  -36.6370 C   0  0  0  0  0  0  0  0  0  0  0  0
    0.8027  -13.1827  -35.4989 O   0  0  0  0  0  0  0  0  0  0  0  0
    1.0316  -15.0248  -36.9995 C   0  0  0  0  0  0  0  0  0  0  0  0
    0.5765  -15.9763  -36.2589 N   0  0  0  0  0  0  0  0  0  0  0  0
    1.9577  -11.4558  -37.7131 C   0  0  0  0  0  0  0  0  0  0  0  0
    3.3668  -11.1943  -37.4655 C   0  0  0  0  0  0  0  0  0  0  0  0
    4.5302  -10.9810  -37.2439 C   0  0  0  0  0  0  0  0  0  0  0  0
   -0.7365  -19.2821  -37.5635 C   0  0  0  0  0  0  0  0  0  0  0  0
    0.4922  -19.6813  -38.2226 N   0  0  0  0  0  0  0  0  0  0  0  0
    0.6268  -20.1295  -39.4590 N   0  0  0  0  0  0  0  0  0  0  0  0
    1.8970  -20.3944  -39.7171 N   0  0  0  0  0  0  0  0  0  0  0  0
    2.6118  -20.1108  -38.6149 C   0  0  0  0  0  0  0  0  0  0  0  0
    1.7179  -19.6749  -37.7178 N   0  0  0  0  0  0  0  0  0  0  0  0
    4.0569  -20.2642  -38.4794 C   0  0  0  0  0  0  0  0  0  0  0  0
    4.6650  -21.4424  -38.8561 C   0  0  0  0  0  0  0  0  0  0  0  0
    6.0478  -21.5926  -38.7282 C   0  0  0  0  0  0  0  0  0  0  0  0
    6.8403  -20.5842  -38.2288 C   0  0  0  0  0  0  0  0  0  0  0  0
    6.2321  -19.4001  -37.8505 C   0  0  0  0  0  0  0  0  0  0  0  0
    4.8572  -19.2593  -37.9809 C   0  0  0  0  0  0  0  0  0  0  0  0
  5  6  1  0  0  0
  6  7  2  0  0  0
  6 11  1  0  0  0
  7  8  1  0  0  0
  8  9  2  0  0  0
  8 15  1  0  0  0
  9 10  1  0  0  0
  9 12  1  0  0  0
 10 11  2  0  0  0
 12 13  1  0  0  0
 12 17  1  0  0  0
 13 14  2  0  0  0
 13 15  1  0  0  0
 15 16  2  0  0  0
 16  1  1  0  0  0
  1  2  1  0  0  0
  2  3  2  0  0  0
  2 20  1  0  0  0
 20 21  1  0  0  0
 21 22  1  0  0  0
 21 25  1  0  0  0
 22 23  2  0  0  0
 23 24  1  0  0  0
 24 25  2  0  0  0
 24 26  1  0  0  0
 26 27  2  0  0  0
 26 31  1  0  0  0
 27 28  1  0  0  0
 28 29  2  0  0  0
 29 30  1  0  0  0
 30 31  2  0  0  0
 17 18  1  0  0  0
 18 19  3  0  0  0
  1  4  1  0  0  0
M  END
> <minimizedAffinity>
-7.16653

$$$$
484


 35 38  0  0  0  0  0  0  0  0999 V2000
    1.3176  -16.1205  -41.2674 Br  0  0  0  0  0  0  0  0  0  0  0  0
    2.4416  -14.5913  -41.0570 C   0  0  0  0  0  0  0  0  0  0  0  0
    2.5149  -13.8954  -39.8412 C   0  0  0  0  0  0  0  0  0  0  0  0
    3.3585  -12.8228  -39.8036 C   0  0  0  0  0  0  0  0  0  0  0  0
    4.1195  -12.3975  -40.8725 C   0  0  0  0  0  0  0  0  0  0  0  0
    4.0412  -13.0789  -42.0657 C   0  0  0  0  0  0  0  0  0  0  0  0
    3.1897  -14.1910  -42.1424 C   0  0  0  0  0  0  0  0  0  0  0  0
    4.9037  -11.2573  -40.5463 N   0  0  0  0  0  0  0  0  0  0  0  0
    4.5976  -10.9429  -39.1626 C   0  0  0  0  0  0  0  0  0  0  0  0
    5.1054  -10.0083  -38.5089 O   0  0  0  0  0  0  0  0  0  0  0  0
    3.6252  -11.9206  -38.7272 C   0  0  0  0  0  0  0  0  0  0  0  0
    2.9522  -11.9434  -37.6421 N   0  0  0  0  0  0  0  0  0  0  0  0
    2.0875  -12.4349  -37.0327 N   0  0  0  0  0  0  0  0  0  0  0  0
    1.0410  -13.0150  -36.2803 C   0  0  0  0  0  0  0  0  0  0  0  0
    0.4661  -12.6681  -35.2730 O   0  0  0  0  0  0  0  0  0  0  0  0
    2.1680  -11.4850  -36.0229 H   0  0  0  0  0  0  0  0  0  0  0  0
    0.6257  -14.3520  -36.9355 C   0  0  0  0  0  0  0  0  0  0  0  0
    0.8258  -15.3274  -35.8899 O   0  0  0  0  0  0  0  0  0  0  0  0
    1.5646  -16.4768  -36.2914 N   0  0  0  0  0  0  0  0  0  0  0  0
    1.3157  -17.0786  -37.3882 C   0  0  0  0  0  0  0  0  0  0  0  0
    2.0688  -18.2524  -37.7657 C   0  0  0  0  0  0  0  0  0  0  0  0
    1.7042  -19.1510  -38.7114 C   0  0  0  0  0  0  0  0  0  0  0  0
    2.5519  -20.2767  -38.8746 C   0  0  0  0  0  0  0  0  0  0  0  0
    3.6739  -20.5382  -38.2071 C   0  0  0  0  0  0  0  0  0  0  0  0
    3.9976  -19.6094  -37.2773 C   0  0  0  0  0  0  0  0  0  0  0  0
    3.3209  -18.4909  -36.9698 C   0  0  0  0  0  0  0  0  0  0  0  0
    4.4200  -21.6907  -38.4780 O   0  0  0  0  0  0  0  0  0  0  0  0
    5.8080  -21.6026  -38.7787 C   0  0  0  0  0  0  0  0  0  0  0  0
    5.8869  -10.5002  -41.3035 C   0  0  0  0  0  0  0  0  0  0  0  0
    7.1533  -11.0348  -41.1897 N   0  0  0  0  0  0  0  0  0  0  0  0
    7.5551  -11.7296  -42.3446 C   0  0  0  0  0  0  0  0  0  0  0  0
    8.9954  -11.3506  -42.6971 C   0  0  0  0  0  0  0  0  0  0  0  0
    8.9595   -9.9294  -42.7174 O   0  0  0  0  0  0  0  0  0  0  0  0
    8.9422   -9.4540  -41.3993 C   0  0  0  0  0  0  0  0  0  0  0  0
    8.1066  -10.2847  -40.4757 C   0  0  0  0  0  0  0  0  0  0  0  0
  1  2  1  0  0  0
  2  3  2  0  0  0
  2  7  1  0  0  0
  3  4  1  0  0  0
  4  5  2  0  0  0
  4 11  1  0  0  0
  5  6  1  0  0  0
  5  8  1  0  0  0
  6  7  2  0  0  0
  8  9  1  0  0  0
  8 29  1  0  0  0
  9 10  2  0  0  0
  9 11  1  0  0  0
 11 12  2  0  0  0
 12 13  1  0  0  0
 13 14  1  0  0  0
 14 15  2  0  0  0
 14 17  1  0  0  0
 17 18  1  0  0  0
 18 19  1  0  0  0
 19 20  2  0  0  0
 20 21  1  0  0  0
 21 22  2  0  0  0
 21 26  1  0  0  0
 22 23  1  0  0  0
 23 24  2  0  0  0
 24 25  1  0  0  0
 24 27  1  0  0  0
 25 26  2  0  0  0
 27 28  1  0  0  0
 29 30  1  0  0  0
 30 31  1  0  0  0
 30 35  1  0  0  0
 31 32  1  0  0  0
 32 33  1  0  0  0
 33 34  1  0  0  0
 34 35  1  0  0  0
 13 16  1  0  0  0
M  END
> <minimizedAffinity>
-7.01981

$$$$
485


 34 37  0  0  0  0  0  0  0  0999 V2000
   -4.6698  -20.2096  -38.5239 Br  0  0  0  0  0  0  0  0  0  0  0  0
   -2.7688  -19.9656  -38.3756 C   0  0  0  0  0  0  0  0  0  0  0  0
   -2.2294  -18.7861  -37.9165 C   0  0  0  0  0  0  0  0  0  0  0  0
   -0.8623  -18.5624  -37.7927 C   0  0  0  0  0  0  0  0  0  0  0  0
    0.0096  -19.5935  -38.1545 C   0  0  0  0  0  0  0  0  0  0  0  0
   -0.5311  -20.7768  -38.6146 C   0  0  0  0  0  0  0  0  0  0  0  0
   -1.9036  -20.9786  -38.7304 C   0  0  0  0  0  0  0  0  0  0  0  0
    1.3683  -19.1781  -37.9564 N   0  0  0  0  0  0  0  0  0  0  0  0
    1.3191  -17.8479  -37.4579 C   0  0  0  0  0  0  0  0  0  0  0  0
    2.3134  -17.1478  -37.1640 O   0  0  0  0  0  0  0  0  0  0  0  0
   -0.0665  -17.4351  -37.3441 C   0  0  0  0  0  0  0  0  0  0  0  0
   -0.5107  -16.3019  -36.9312 N   0  0  0  0  0  0  0  0  0  0  0  0
    0.3171  -15.2653  -36.5164 N   0  0  0  0  0  0  0  0  0  0  0  0
   -0.1326  -13.9314  -36.6030 C   0  0  0  0  0  0  0  0  0  0  0  0
   -1.2941  -13.6444  -37.0569 O   0  0  0  0  0  0  0  0  0  0  0  0
    1.2545  -15.4795  -36.1486 H   0  0  0  0  0  0  0  0  0  0  0  0
    0.6840  -12.7653  -36.1823 C   0  0  0  0  0  0  0  0  0  0  0  0
    2.0729  -13.0671  -36.3099 O   0  0  0  0  0  0  0  0  0  0  0  0
    2.8107  -12.4997  -37.3351 C   0  0  0  0  0  0  0  0  0  0  0  0
    2.8092  -13.0733  -38.5889 C   0  0  0  0  0  0  0  0  0  0  0  0
    3.5529  -12.4977  -39.6143 C   0  0  0  0  0  0  0  0  0  0  0  0
    4.2953  -11.3549  -39.3859 C   0  0  0  0  0  0  0  0  0  0  0  0
    4.2871  -10.7996  -38.1408 C   0  0  0  0  0  0  0  0  0  0  0  0
    3.5464  -11.3734  -37.1207 C   0  0  0  0  0  0  0  0  0  0  0  0
    2.0831  -14.2080  -38.8484 O   0  0  0  0  0  0  0  0  0  0  0  0
    1.2665  -14.2890  -39.9891 C   0  0  0  0  0  0  0  0  0  0  0  0
    2.5361  -19.9997  -38.2267 C   0  0  0  0  0  0  0  0  0  0  0  0
    3.0101  -19.9443  -39.5627 N   0  0  0  0  0  0  0  0  0  0  0  0
    3.8997  -18.8755  -39.8639 C   0  0  0  0  0  0  0  0  0  0  0  0
    4.2918  -18.8555  -41.3441 C   0  0  0  0  0  0  0  0  0  0  0  0
    3.3899  -19.7403  -42.0242 N   0  0  0  0  0  0  0  0  0  0  0  0
    3.5577  -21.1098  -41.6485 C   0  0  0  0  0  0  0  0  0  0  0  0
    3.3684  -21.2052  -40.1453 C   0  0  0  0  0  0  0  0  0  0  0  0
    3.3104  -19.5157  -43.4389 C   0  0  0  0  0  0  0  0  0  0  0  0
  1  2  1  0  0  0
  2  3  2  0  0  0
  2  7  1  0  0  0
  3  4  1  0  0  0
  4  5  2  0  0  0
  4 11  1  0  0  0
  5  6  1  0  0  0
  5  8  1  0  0  0
  6  7  2  0  0  0
  8  9  1  0  0  0
  8 27  1  0  0  0
  9 10  2  0  0  0
  9 11  1  0  0  0
 11 12  2  0  0  0
 12 13  1  0  0  0
 13 14  1  0  0  0
 14 15  2  0  0  0
 14 17  1  0  0  0
 17 18  1  0  0  0
 18 19  1  0  0  0
 19 20  2  0  0  0
 19 24  1  0  0  0
 20 21  1  0  0  0
 20 25  1  0  0  0
 21 22  2  0  0  0
 22 23  1  0  0  0
 23 24  2  0  0  0
 25 26  1  0  0  0
 27 28  1  0  0  0
 28 29  1  0  0  0
 28 33  1  0  0  0
 29 30  1  0  0  0
 30 31  1  0  0  0
 31 32  1  0  0  0
 31 34  1  0  0  0
 32 33  1  0  0  0
 13 16  1  0  0  0
M  END
> <minimizedAffinity>
-6.07368

$$$$
500


 32 35  0  0  0  0  0  0  0  0999 V2000
    4.0061  -15.6616  -43.0787 Br  0  0  0  0  0  0  0  0  0  0  0  0
    2.7185  -16.6985  -42.0918 C   0  0  0  0  0  0  0  0  0  0  0  0
    3.0293  -17.4204  -40.9763 C   0  0  0  0  0  0  0  0  0  0  0  0
    2.0885  -18.1709  -40.3193 C   0  0  0  0  0  0  0  0  0  0  0  0
    0.8196  -18.1678  -40.8256 C   0  0  0  0  0  0  0  0  0  0  0  0
    0.4734  -17.4334  -41.9671 C   0  0  0  0  0  0  0  0  0  0  0  0
    1.4291  -16.6829  -42.6207 C   0  0  0  0  0  0  0  0  0  0  0  0
   -0.0342  -19.0119  -40.0781 N   0  0  0  0  0  0  0  0  0  0  0  0
    0.7276  -19.5747  -39.0566 C   0  0  0  0  0  0  0  0  0  0  0  0
    0.2731  -20.3948  -38.2165 O   0  0  0  0  0  0  0  0  0  0  0  0
    2.1390  -19.0457  -39.1345 C   0  0  0  0  0  0  0  0  0  0  0  0
    2.3661  -18.4000  -37.8510 C   0  0  0  0  0  0  0  0  0  0  0  0
    3.2814  -18.9087  -36.9809 C   0  0  0  0  0  0  0  0  0  0  0  0
    3.2603  -18.1050  -35.8809 N   0  0  0  0  0  0  0  0  0  0  0  0
    2.3816  -17.1523  -36.0569 N   0  0  0  0  0  0  0  0  0  0  0  0
    1.7798  -17.2675  -37.2633 C   0  0  0  0  0  0  0  0  0  0  0  0
    4.0482  -20.0569  -37.2630 O   0  0  0  0  0  0  0  0  0  0  0  0
    3.8291  -20.6652  -38.4837 C   0  0  0  0  0  0  0  0  0  0  0  0
    2.9646  -20.2245  -39.3537 C   0  0  0  0  0  0  0  0  0  0  0  0
    4.6148  -21.8456  -38.7757 N   0  0  0  0  0  0  0  0  0  0  0  0
   -1.4697  -19.2489  -40.3324 C   0  0  0  0  0  0  0  0  0  0  0  0
    2.1382  -16.3736  -35.3784 H   0  0  0  0  0  0  0  0  0  0  0  0
    5.4956  -22.0816  -38.2865 H   0  0  0  0  0  0  0  0  0  0  0  0
    4.2689  -22.4806  -39.5126 H   0  0  0  0  0  0  0  0  0  0  0  0
    2.8006  -20.9452  -40.6199 C   0  0  0  0  0  0  0  0  0  0  0  0
    2.6597  -21.5214  -41.6000 N   0  0  0  0  0  0  0  0  0  0  0  0
    0.7476  -16.3407  -37.7933 C   0  0  0  0  0  0  0  0  0  0  0  0
    0.1128  -15.5597  -36.7092 C   0  0  0  0  0  0  0  0  0  0  0  0
   -1.1011  -15.6159  -36.3855 O   0  0  0  0  0  0  0  0  0  0  0  0
    0.9182  -14.7004  -35.9954 O   0  0  0  0  0  0  0  0  0  0  0  0
    0.9295  -13.3008  -36.0897 C   0  0  0  0  0  0  0  0  0  0  0  0
    2.1645  -12.8506  -36.8339 C   0  0  0  0  0  0  0  0  0  0  0  0
  1  2  1  0  0  0
  2  3  2  0  0  0
  2  7  1  0  0  0
  3  4  1  0  0  0
  4  5  2  0  0  0
  4 11  1  0  0  0
  5  6  1  0  0  0
  5  8  1  0  0  0
  6  7  2  0  0  0
  8  9  1  0  0  0
  8 21  1  0  0  0
  9 10  2  0  0  0
  9 11  1  0  0  0
 11 12  1  0  0  0
 11 19  1  0  0  0
 12 13  1  0  0  0
 12 16  2  0  0  0
 13 14  2  0  0  0
 13 17  1  0  0  0
 14 15  1  0  0  0
 15 16  1  0  0  0
 16 27  1  0  0  0
 27 28  1  0  0  0
 28 29  2  0  0  0
 28 30  1  0  0  0
 30 31  1  0  0  0
 31 32  1  0  0  0
 17 18  1  0  0  0
 18 19  2  0  0  0
 18 20  1  0  0  0
 19 25  1  0  0  0
 25 26  3  0  0  0
 15 22  1  0  0  0
 20 23  1  0  0  0
 20 24  1  0  0  0
M  END
> <minimizedAffinity>
-6.02356

$$$$
502


 27 30  0  0  0  0  0  0  0  0999 V2000
    2.7673  -12.2447  -37.6046 Br  0  0  0  0  0  0  0  0  0  0  0  0
    1.7553  -13.8667  -37.3608 C   0  0  0  0  0  0  0  0  0  0  0  0
    2.0139  -14.9810  -38.1146 C   0  0  0  0  0  0  0  0  0  0  0  0
    1.2771  -16.1307  -37.9217 C   0  0  0  0  0  0  0  0  0  0  0  0
    0.2991  -16.1057  -36.9647 C   0  0  0  0  0  0  0  0  0  0  0  0
    0.0345  -14.9584  -36.1896 C   0  0  0  0  0  0  0  0  0  0  0  0
    0.7762  -13.8256  -36.3944 C   0  0  0  0  0  0  0  0  0  0  0  0
   -0.3711  -17.3600  -36.8837 N   0  0  0  0  0  0  0  0  0  0  0  0
    0.2049  -18.2177  -37.8292 C   0  0  0  0  0  0  0  0  0  0  0  0
   -0.1458  -19.4199  -38.0345 O   0  0  0  0  0  0  0  0  0  0  0  0
    1.2977  -17.4744  -38.5500 C   0  0  0  0  0  0  0  0  0  0  0  0
    2.5265  -18.2129  -38.2822 C   0  0  0  0  0  0  0  0  0  0  0  0
    3.2240  -18.8100  -39.2858 C   0  0  0  0  0  0  0  0  0  0  0  0
    4.3068  -19.4072  -38.7062 N   0  0  0  0  0  0  0  0  0  0  0  0
    4.2978  -19.2021  -37.4058 N   0  0  0  0  0  0  0  0  0  0  0  0
    3.2253  -18.4751  -37.1004 C   0  0  0  0  0  0  0  0  0  0  0  0
    2.7670  -17.9795  -35.7649 C   0  0  0  0  0  0  0  0  0  0  0  0
    2.8202  -18.7582  -40.6244 O   0  0  0  0  0  0  0  0  0  0  0  0
    1.6475  -18.0535  -40.8756 C   0  0  0  0  0  0  0  0  0  0  0  0
    0.9343  -17.4597  -39.9546 C   0  0  0  0  0  0  0  0  0  0  0  0
    1.1771  -17.9650  -42.2503 N   0  0  0  0  0  0  0  0  0  0  0  0
   -1.4741  -17.7064  -35.9745 C   0  0  0  0  0  0  0  0  0  0  0  0
    4.9914  -19.5315  -36.6858 H   0  0  0  0  0  0  0  0  0  0  0  0
    0.5514  -18.7409  -42.5455 H   0  0  0  0  0  0  0  0  0  0  0  0
    1.4324  -17.2103  -42.8839 H   0  0  0  0  0  0  0  0  0  0  0  0
   -0.2806  -16.7576  -40.4038 C   0  0  0  0  0  0  0  0  0  0  0  0
   -1.2400  -16.2090  -40.7814 N   0  0  0  0  0  0  0  0  0  0  0  0
  1  2  1  0  0  0
  2  3  2  0  0  0
  2  7  1  0  0  0
  3  4  1  0  0  0
  4  5  2  0  0  0
  4 11  1  0  0  0
  5  6  1  0  0  0
  5  8  1  0  0  0
  6  7  2  0  0  0
  8  9  1  0  0  0
  8 22  1  0  0  0
  9 10  2  0  0  0
  9 11  1  0  0  0
 11 12  1  0  0  0
 11 20  1  0  0  0
 12 13  1  0  0  0
 12 16  2  0  0  0
 13 14  2  0  0  0
 13 18  1  0  0  0
 14 15  1  0  0  0
 15 16  1  0  0  0
 16 17  1  0  0  0
 18 19  1  0  0  0
 19 20  2  0  0  0
 19 21  1  0  0  0
 20 26  1  0  0  0
 26 27  3  0  0  0
 15 23  1  0  0  0
 21 24  1  0  0  0
 21 25  1  0  0  0
M  END
> <minimizedAffinity>
-5.75959

$$$$
504


 29 32  0  0  0  0  0  0  0  0999 V2000
    2.8641  -13.5081  -41.0601 Br  0  0  0  0  0  0  0  0  0  0  0  0
    1.7083  -14.9731  -40.7030 C   0  0  0  0  0  0  0  0  0  0  0  0
    2.0161  -15.9700  -39.8085 C   0  0  0  0  0  0  0  0  0  0  0  0
    1.1134  -17.0124  -39.6025 C   0  0  0  0  0  0  0  0  0  0  0  0
   -0.0753  -17.1025  -40.2453 C   0  0  0  0  0  0  0  0  0  0  0  0
   -0.3883  -16.0881  -41.1544 C   0  0  0  0  0  0  0  0  0  0  0  0
    0.4912  -15.0510  -41.3708 C   0  0  0  0  0  0  0  0  0  0  0  0
   -0.8059  -18.2509  -39.8601 N   0  0  0  0  0  0  0  0  0  0  0  0
   -0.0343  -18.9440  -38.9074 C   0  0  0  0  0  0  0  0  0  0  0  0
   -0.3550  -20.0196  -38.3304 O   0  0  0  0  0  0  0  0  0  0  0  0
    1.2337  -18.1934  -38.6877 C   0  0  0  0  0  0  0  0  0  0  0  0
    2.4003  -19.0190  -39.0895 C   0  0  0  0  0  0  0  0  0  0  0  0
    3.3969  -19.2345  -38.3095 C   0  0  0  0  0  0  0  0  0  0  0  0
    3.4738  -18.6903  -36.9627 N   0  0  0  0  0  0  0  0  0  0  0  0
    2.3701  -17.9023  -36.5682 C   0  0  0  0  0  0  0  0  0  0  0  0
    1.3471  -17.6709  -37.3441 C   0  0  0  0  0  0  0  0  0  0  0  0
    2.3920  -17.3315  -35.2307 N   0  0  0  0  0  0  0  0  0  0  0  0
    4.3874  -20.0985  -39.0233 C   0  0  0  0  0  0  0  0  0  0  0  0
    3.8384  -20.3349  -40.2665 O   0  0  0  0  0  0  0  0  0  0  0  0
    2.6316  -19.7174  -40.3958 C   0  0  0  0  0  0  0  0  0  0  0  0
    1.8258  -19.6958  -41.3743 O   0  0  0  0  0  0  0  0  0  0  0  0
    4.6432  -21.3621  -38.2245 C   0  0  0  0  0  0  0  0  0  0  0  0
    5.6987  -19.3601  -39.2202 C   0  0  0  0  0  0  0  0  0  0  0  0
   -2.1280  -18.6796  -40.3418 C   0  0  0  0  0  0  0  0  0  0  0  0
    4.3008  -18.8955  -36.3763 H   0  0  0  0  0  0  0  0  0  0  0  0
    1.7149  -17.7200  -34.5431 H   0  0  0  0  0  0  0  0  0  0  0  0
    3.0452  -16.5773  -34.9774 H   0  0  0  0  0  0  0  0  0  0  0  0
    0.2810  -16.8390  -36.7991 C   0  0  0  0  0  0  0  0  0  0  0  0
   -0.5552  -16.1768  -36.3474 N   0  0  0  0  0  0  0  0  0  0  0  0
  1  2  1  0  0  0
  2  3  2  0  0  0
  2  7  1  0  0  0
  3  4  1  0  0  0
  4  5  2  0  0  0
  4 11  1  0  0  0
  5  6  1  0  0  0
  5  8  1  0  0  0
  6  7  2  0  0  0
  8  9  1  0  0  0
  8 24  1  0  0  0
  9 10  2  0  0  0
  9 11  1  0  0  0
 11 12  1  0  0  0
 11 16  1  0  0  0
 12 13  2  0  0  0
 12 20  1  0  0  0
 13 14  1  0  0  0
 13 18  1  0  0  0
 14 15  1  0  0  0
 15 16  2  0  0  0
 15 17  1  0  0  0
 16 28  1  0  0  0
 28 29  3  0  0  0
 18 19  1  0  0  0
 18 22  1  0  0  0
 18 23  1  0  0  0
 19 20  1  0  0  0
 20 21  2  0  0  0
 14 25  1  0  0  0
 17 26  1  0  0  0
 17 27  1  0  0  0
M  END
> <minimizedAffinity>
-5.57483

$$$$
505


 30 33  0  0  0  0  0  0  0  0999 V2000
   -2.2158  -22.3295  -38.9935 Br  0  0  0  0  0  0  0  0  0  0  0  0
   -1.0794  -21.1325  -39.9411 C   0  0  0  0  0  0  0  0  0  0  0  0
    0.1718  -20.8380  -39.4449 C   0  0  0  0  0  0  0  0  0  0  0  0
    1.0258  -19.9618  -40.1223 C   0  0  0  0  0  0  0  0  0  0  0  0
    0.5778  -19.4153  -41.2816 C   0  0  0  0  0  0  0  0  0  0  0  0
   -0.7035  -19.7171  -41.7879 C   0  0  0  0  0  0  0  0  0  0  0  0
   -1.5372  -20.5806  -41.1158 C   0  0  0  0  0  0  0  0  0  0  0  0
    1.5859  -18.5618  -41.8080 N   0  0  0  0  0  0  0  0  0  0  0  0
    2.7057  -18.5682  -40.9570 C   0  0  0  0  0  0  0  0  0  0  0  0
    3.7821  -17.9360  -41.1002 O   0  0  0  0  0  0  0  0  0  0  0  0
    2.4044  -19.4790  -39.8129 C   0  0  0  0  0  0  0  0  0  0  0  0
    2.4376  -18.7508  -38.5397 C   0  0  0  0  0  0  0  0  0  0  0  0
    3.2235  -19.1528  -37.5092 C   0  0  0  0  0  0  0  0  0  0  0  0
    4.0323  -20.2858  -37.6411 O   0  0  0  0  0  0  0  0  0  0  0  0
    4.0382  -21.0059  -38.8190 C   0  0  0  0  0  0  0  0  0  0  0  0
    3.2954  -20.6425  -39.8205 C   0  0  0  0  0  0  0  0  0  0  0  0
    4.8943  -22.1586  -38.8807 N   0  0  0  0  0  0  0  0  0  0  0  0
    3.2220  -18.4281  -36.3141 C   0  0  0  0  0  0  0  0  0  0  0  0
    3.9503  -18.8082  -35.3739 O   0  0  0  0  0  0  0  0  0  0  0  0
    2.4217  -17.3157  -36.1999 C   0  0  0  0  0  0  0  0  0  0  0  0
    1.6436  -16.9546  -37.2795 C   0  0  0  0  0  0  0  0  0  0  0  0
    1.6860  -17.6620  -38.3575 O   0  0  0  0  0  0  0  0  0  0  0  0
    1.4246  -17.8064  -43.0656 C   0  0  0  0  0  0  0  0  0  0  0  0
    4.5035  -23.0403  -39.2078 H   0  0  0  0  0  0  0  0  0  0  0  0
    5.8666  -22.0556  -38.5936 H   0  0  0  0  0  0  0  0  0  0  0  0
    0.7542  -15.7335  -37.1780 C   0  0  0  0  0  0  0  0  0  0  0  0
    1.0674  -15.0381  -36.0101 O   0  0  0  0  0  0  0  0  0  0  0  0
    1.4306  -15.6839  -35.3325 H   0  0  0  0  0  0  0  0  0  0  0  0
    3.3652  -21.4676  -41.0351 C   0  0  0  0  0  0  0  0  0  0  0  0
    3.4230  -22.1135  -41.9715 N   0  0  0  0  0  0  0  0  0  0  0  0
  1  2  1  0  0  0
  2  3  2  0  0  0
  2  7  1  0  0  0
  3  4  1  0  0  0
  4  5  2  0  0  0
  4 11  1  0  0  0
  5  6  1  0  0  0
  5  8  1  0  0  0
  6  7  2  0  0  0
  8  9  1  0  0  0
  8 23  1  0  0  0
  9 10  2  0  0  0
  9 11  1  0  0  0
 11 12  1  0  0  0
 11 16  1  0  0  0
 12 13  2  0  0  0
 12 22  1  0  0  0
 13 14  1  0  0  0
 13 18  1  0  0  0
 14 15  1  0  0  0
 15 16  2  0  0  0
 15 17  1  0  0  0
 16 29  1  0  0  0
 29 30  3  0  0  0
 18 19  2  0  0  0
 18 20  1  0  0  0
 20 21  2  0  0  0
 21 22  1  0  0  0
 21 26  1  0  0  0
 26 27  1  0  0  0
 17 24  1  0  0  0
 17 25  1  0  0  0
 27 28  1  0  0  0
M  END
> <minimizedAffinity>
-6.08509

$$$$
513


 33 36  0  0  0  0  0  0  0  0999 V2000
    1.9613  -14.6352  -37.3009 N   0  0  0  0  0  0  0  0  0  0  0  0
    1.1699  -15.5205  -36.5208 C   0  0  0  0  0  0  0  0  0  0  0  0
    0.1546  -15.0492  -35.9842 O   0  0  0  0  0  0  0  0  0  0  0  0
    2.8212  -15.0302  -37.7395 H   0  0  0  0  0  0  0  0  0  0  0  0
    1.6537  -13.3015  -37.4975 N   0  0  0  0  0  0  0  0  0  0  0  0
    0.7037  -13.0345  -37.8748 H   0  0  0  0  0  0  0  0  0  0  0  0
    2.8118  -14.7214  -42.6438 Br  0  0  0  0  0  0  0  0  0  0  0  0
    3.6053  -13.3476  -41.5724 C   0  0  0  0  0  0  0  0  0  0  0  0
    3.1734  -13.1310  -40.2642 C   0  0  0  0  0  0  0  0  0  0  0  0
    3.7034  -12.1562  -39.4472 C   0  0  0  0  0  0  0  0  0  0  0  0
    4.7050  -11.3781  -39.9778 C   0  0  0  0  0  0  0  0  0  0  0  0
    5.1646  -11.5678  -41.2891 C   0  0  0  0  0  0  0  0  0  0  0  0
    4.6068  -12.5510  -42.0647 C   0  0  0  0  0  0  0  0  0  0  0  0
    5.0983  -10.4476  -38.9786 N   0  0  0  0  0  0  0  0  0  0  0  0
    4.3376  -10.6378  -37.7998 C   0  0  0  0  0  0  0  0  0  0  0  0
    4.4028  -10.0109  -36.7147 O   0  0  0  0  0  0  0  0  0  0  0  0
    3.4110  -11.7493  -38.0686 C   0  0  0  0  0  0  0  0  0  0  0  0
    2.5285  -12.2411  -37.2263 C   0  0  0  0  0  0  0  0  0  0  0  0
    5.8439   -9.7203  -39.0835 H   0  0  0  0  0  0  0  0  0  0  0  0
    1.4999  -16.9506  -36.3314 C   0  0  0  0  0  0  0  0  0  0  0  0
    1.2507  -17.7080  -37.4672 N   0  0  0  0  0  0  0  0  0  0  0  0
    1.9531  -18.6614  -38.0773 C   0  0  0  0  0  0  0  0  0  0  0  0
    1.2753  -19.0550  -39.2234 C   0  0  0  0  0  0  0  0  0  0  0  0
    0.1522  -18.3147  -39.2810 N   0  0  0  0  0  0  0  0  0  0  0  0
    0.1348  -17.5150  -38.2392 C   0  0  0  0  0  0  0  0  0  0  0  0
    1.7989  -20.0459  -40.0296 C   0  0  0  0  0  0  0  0  0  0  0  0
    1.1631  -20.3791  -41.0628 O   0  0  0  0  0  0  0  0  0  0  0  0
    2.9508  -20.5875  -39.6632 N   0  0  0  0  0  0  0  0  0  0  0  0
    3.5975  -20.2002  -38.5495 C   0  0  0  0  0  0  0  0  0  0  0  0
    4.6853  -20.7404  -38.2384 O   0  0  0  0  0  0  0  0  0  0  0  0
    3.1240  -19.2277  -37.7202 N   0  0  0  0  0  0  0  0  0  0  0  0
    3.8199  -18.8624  -36.5196 C   0  0  0  0  0  0  0  0  0  0  0  0
    3.5547  -21.6465  -40.4889 C   0  0  0  0  0  0  0  0  0  0  0  0
  7  8  1  0  0  0
  8  9  2  0  0  0
  8 13  1  0  0  0
  9 10  1  0  0  0
 10 11  2  0  0  0
 10 17  1  0  0  0
 11 12  1  0  0  0
 11 14  1  0  0  0
 12 13  2  0  0  0
 14 15  1  0  0  0
 15 16  2  0  0  0
 15 17  1  0  0  0
 17 18  2  0  0  0
 18  5  1  0  0  0
  5  1  1  0  0  0
  1  2  1  0  0  0
  2  3  2  0  0  0
  2 20  1  0  0  0
 20 21  1  0  0  0
 21 22  1  0  0  0
 21 25  1  0  0  0
 22 23  2  0  0  0
 22 31  1  0  0  0
 23 24  1  0  0  0
 23 26  1  0  0  0
 24 25  2  0  0  0
 26 27  2  0  0  0
 26 28  1  0  0  0
 28 29  1  0  0  0
 28 33  1  0  0  0
 29 30  2  0  0  0
 29 31  1  0  0  0
 31 32  1  0  0  0
 14 19  1  0  0  0
  5  6  1  0  0  0
  1  4  1  0  0  0
M  END
> <minimizedAffinity>
-7.14328

$$$$
526


 31 34  0  0  0  0  0  0  0  0999 V2000
    2.1492  -17.3997  -36.6469 N   0  0  0  0  0  0  0  0  0  0  0  0
    2.2319  -18.2096  -37.7947 C   0  0  0  0  0  0  0  0  0  0  0  0
    2.1592  -17.6413  -38.9418 O   0  0  0  0  0  0  0  0  0  0  0  0
    2.1949  -17.8543  -35.6946 H   0  0  0  0  0  0  0  0  0  0  0  0
    3.7564  -10.4934  -37.7659 Br  0  0  0  0  0  0  0  0  0  0  0  0
    2.2755  -11.5933  -37.3194 C   0  0  0  0  0  0  0  0  0  0  0  0
    2.3920  -12.9482  -37.1931 C   0  0  0  0  0  0  0  0  0  0  0  0
    1.3083  -13.7365  -36.8721 C   0  0  0  0  0  0  0  0  0  0  0  0
    0.0694  -13.2191  -36.6624 C   0  0  0  0  0  0  0  0  0  0  0  0
   -0.0588  -11.8321  -36.7894 C   0  0  0  0  0  0  0  0  0  0  0  0
    1.0170  -11.0427  -37.1088 C   0  0  0  0  0  0  0  0  0  0  0  0
   -0.8726  -14.2222  -36.3495 N   0  0  0  0  0  0  0  0  0  0  0  0
   -0.2191  -15.4940  -36.3547 C   0  0  0  0  0  0  0  0  0  0  0  0
   -0.6547  -16.6269  -36.1398 O   0  0  0  0  0  0  0  0  0  0  0  0
    1.2029  -15.1903  -36.6951 C   0  0  0  0  0  0  0  0  0  0  0  0
    2.0114  -16.0624  -36.7620 N   0  0  0  0  0  0  0  0  0  0  0  0
   -1.8935  -14.0997  -36.1460 H   0  0  0  0  0  0  0  0  0  0  0  0
    2.4054  -19.6641  -37.8495 C   0  0  0  0  0  0  0  0  0  0  0  0
    2.7844  -20.2120  -39.1211 N   0  0  0  0  0  0  0  0  0  0  0  0
    3.8615  -21.1338  -39.2463 C   0  0  0  0  0  0  0  0  0  0  0  0
    4.4701  -21.4355  -38.1469 O   0  0  0  0  0  0  0  0  0  0  0  0
    2.3068  -19.9490  -39.9966 H   0  0  0  0  0  0  0  0  0  0  0  0
    4.3239  -21.7419  -40.4561 C   0  0  0  0  0  0  0  0  0  0  0  0
    5.6391  -21.7592  -40.8960 C   0  0  0  0  0  0  0  0  0  0  0  0
    6.0118  -22.3606  -42.0494 C   0  0  0  0  0  0  0  0  0  0  0  0
    5.0867  -22.9947  -42.8543 C   0  0  0  0  0  0  0  0  0  0  0  0
    3.7844  -22.9991  -42.4649 C   0  0  0  0  0  0  0  0  0  0  0  0
    3.3796  -22.3838  -41.2709 C   0  0  0  0  0  0  0  0  0  0  0  0
    5.7568  -23.5290  -43.9671 O   0  0  0  0  0  0  0  0  0  0  0  0
    7.0597  -23.8366  -43.4153 C   0  0  0  0  0  0  0  0  0  0  0  0
    7.2671  -22.5450  -42.7399 O   0  0  0  0  0  0  0  0  0  0  0  0
  5  6  1  0  0  0
  6  7  2  0  0  0
  6 11  1  0  0  0
  7  8  1  0  0  0
  8  9  2  0  0  0
  8 15  1  0  0  0
  9 10  1  0  0  0
  9 12  1  0  0  0
 10 11  2  0  0  0
 12 13  1  0  0  0
 13 14  2  0  0  0
 13 15  1  0  0  0
 15 16  2  0  0  0
 16  1  1  0  0  0
  1  2  1  0  0  0
  2  3  2  0  0  0
  2 18  1  0  0  0
 18 19  1  0  0  0
 19 20  1  0  0  0
 20 21  2  0  0  0
 20 23  1  0  0  0
 23 24  2  0  0  0
 23 28  1  0  0  0
 24 25  1  0  0  0
 25 26  2  0  0  0
 25 31  1  0  0  0
 26 27  1  0  0  0
 26 29  1  0  0  0
 27 28  2  0  0  0
 29 30  1  0  0  0
 30 31  1  0  0  0
 12 17  1  0  0  0
  1  4  1  0  0  0
 19 22  1  0  0  0
M  END
> <minimizedAffinity>
-6.73447

$$$$
550


 30 35  0  0  0  0  0  0  0  0999 V2000
    0.7316  -16.5662  -35.9747 Br  0  0  0  0  0  0  0  0  0  0  0  0
    1.4274  -16.9075  -37.7175 C   0  0  0  0  0  0  0  0  0  0  0  0
    2.2988  -17.9601  -37.9720 C   0  0  0  0  0  0  0  0  0  0  0  0
    2.7947  -18.1993  -39.2253 C   0  0  0  0  0  0  0  0  0  0  0  0
    2.3917  -17.3455  -40.2412 C   0  0  0  0  0  0  0  0  0  0  0  0
    1.5277  -16.2991  -39.9958 C   0  0  0  0  0  0  0  0  0  0  0  0
    1.0366  -16.0682  -38.7321 C   0  0  0  0  0  0  0  0  0  0  0  0
    2.9932  -17.7347  -41.4787 N   0  0  0  0  0  0  0  0  0  0  0  0
    3.8032  -18.8680  -41.2505 C   0  0  0  0  0  0  0  0  0  0  0  0
    4.4562  -19.4486  -42.1294 O   0  0  0  0  0  0  0  0  0  0  0  0
    3.7000  -19.1852  -39.8102 C   0  0  0  0  0  0  0  0  0  0  0  0
    5.0321  -19.2065  -39.2849 N   0  0  0  0  0  0  0  0  0  0  0  0
    5.5806  -20.4751  -39.7602 C   0  0  0  0  0  0  0  0  0  0  0  0
    4.4370  -21.4338  -39.8157 C   0  0  0  0  0  0  0  0  0  0  0  0
    3.2311  -20.5972  -39.5621 C   0  0  0  0  0  0  0  0  0  0  0  0
    2.2399  -21.0615  -40.5272 C   0  0  0  0  0  0  0  0  0  0  0  0
    1.0341  -20.7292  -40.5695 O   0  0  0  0  0  0  0  0  0  0  0  0
    2.8469  -21.9558  -41.4260 N   0  0  0  0  0  0  0  0  0  0  0  0
    4.2592  -22.0321  -41.1774 C   0  0  0  0  0  0  0  0  0  0  0  0
    5.1686  -22.4886  -41.9144 O   0  0  0  0  0  0  0  0  0  0  0  0
    6.5363  -20.9381  -38.6704 C   0  0  0  0  0  0  0  0  0  0  0  0
    6.5159  -19.8564  -37.6106 C   0  0  0  0  0  0  0  0  0  0  0  0
    5.1139  -19.2758  -37.8408 C   0  0  0  0  0  0  0  0  0  0  0  0
    2.8413  -17.2369  -42.4048 H   0  0  0  0  0  0  0  0  0  0  0  0
    2.1842  -22.6988  -42.4512 C   0  0  0  0  0  0  0  0  0  0  0  0
    1.3315  -23.8173  -41.9745 C   0  0  0  0  0  0  0  0  0  0  0  0
    1.9291  -25.0674  -42.0874 O   0  0  0  0  0  0  0  0  0  0  0  0
    0.8919  -25.9516  -41.8227 C   0  0  0  0  0  0  0  0  0  0  0  0
   -0.3643  -25.3871  -42.4084 C   0  0  0  0  0  0  0  0  0  0  0  0
   -0.0176  -23.9110  -42.6009 C   0  0  0  0  0  0  0  0  0  0  0  0
  1  2  1  0  0  0
  2  3  2  0  0  0
  2  7  1  0  0  0
  3  4  1  0  0  0
  4  5  2  0  0  0
  4 11  1  0  0  0
  5  6  1  0  0  0
  5  8  1  0  0  0
  6  7  2  0  0  0
  8  9  1  0  0  0
  9 10  2  0  0  0
  9 11  1  0  0  0
 11 12  1  0  0  0
 11 15  1  0  0  0
 12 13  1  0  0  0
 12 23  1  0  0  0
 13 14  1  0  0  0
 13 21  1  0  0  0
 14 15  1  0  0  0
 14 19  1  0  0  0
 15 16  1  0  0  0
 16 17  2  0  0  0
 16 18  1  0  0  0
 18 19  1  0  0  0
 18 25  1  0  0  0
 19 20  2  0  0  0
 25 26  1  0  0  0
 26 27  1  0  0  0
 26 30  1  0  0  0
 27 28  1  0  0  0
 28 29  1  0  0  0
 29 30  1  0  0  0
 21 22  1  0  0  0
 22 23  1  0  0  0
  8 24  1  0  0  0
M  END
> <minimizedAffinity>
-6.42663

$$$$
556


 30 33  0  0  0  0  0  0  0  0999 V2000
    3.1868  -12.8399  -40.1668 Br  0  0  0  0  0  0  0  0  0  0  0  0
    2.2954  -13.6024  -38.6632 C   0  0  0  0  0  0  0  0  0  0  0  0
    1.5184  -14.7116  -38.8912 C   0  0  0  0  0  0  0  0  0  0  0  0
    0.8448  -15.3075  -37.8195 C   0  0  0  0  0  0  0  0  0  0  0  0
    0.9730  -14.7754  -36.5779 C   0  0  0  0  0  0  0  0  0  0  0  0
    1.7644  -13.6392  -36.3223 C   0  0  0  0  0  0  0  0  0  0  0  0
    2.4145  -13.0752  -37.3945 C   0  0  0  0  0  0  0  0  0  0  0  0
    0.2149  -15.5121  -35.6363 N   0  0  0  0  0  0  0  0  0  0  0  0
   -0.4162  -16.5506  -36.3235 C   0  0  0  0  0  0  0  0  0  0  0  0
   -1.2061  -17.4452  -35.8296 O   0  0  0  0  0  0  0  0  0  0  0  0
   -0.0267  -16.4701  -37.7631 C   0  0  0  0  0  0  0  0  0  0  0  0
    0.5600  -17.7438  -38.0885 C   0  0  0  0  0  0  0  0  0  0  0  0
   -0.0410  -18.5958  -38.9373 C   0  0  0  0  0  0  0  0  0  0  0  0
    0.7677  -19.7027  -39.0310 N   0  0  0  0  0  0  0  0  0  0  0  0
    1.8189  -19.5177  -38.2617 N   0  0  0  0  0  0  0  0  0  0  0  0
    1.7621  -18.3348  -37.6490 C   0  0  0  0  0  0  0  0  0  0  0  0
    2.7393  -17.7318  -36.6970 C   0  0  0  0  0  0  0  0  0  0  0  0
   -1.2689  -18.3229  -39.5677 O   0  0  0  0  0  0  0  0  0  0  0  0
   -1.8516  -17.0982  -39.2669 C   0  0  0  0  0  0  0  0  0  0  0  0
   -1.3178  -16.2370  -38.4546 C   0  0  0  0  0  0  0  0  0  0  0  0
   -3.1142  -16.7450  -39.8751 N   0  0  0  0  0  0  0  0  0  0  0  0
    0.1187  -15.3383  -34.5952 H   0  0  0  0  0  0  0  0  0  0  0  0
    0.5757  -20.5481  -39.6150 H   0  0  0  0  0  0  0  0  0  0  0  0
   -3.9661  -16.8718  -39.3238 H   0  0  0  0  0  0  0  0  0  0  0  0
   -3.1246  -16.3808  -40.8283 H   0  0  0  0  0  0  0  0  0  0  0  0
   -2.0267  -14.9494  -38.2001 C   0  0  0  0  0  0  0  0  0  0  0  0
   -2.0931  -14.1284  -39.1323 O   0  0  0  0  0  0  0  0  0  0  0  0
   -2.6034  -14.6358  -36.9997 O   0  0  0  0  0  0  0  0  0  0  0  0
   -3.0865  -13.3612  -36.6491 C   0  0  0  0  0  0  0  0  0  0  0  0
   -1.9444  -12.6215  -35.9445 C   0  0  0  0  0  0  0  0  0  0  0  0
  1  2  1  0  0  0
  2  3  2  0  0  0
  2  7  1  0  0  0
  3  4  1  0  0  0
  4  5  2  0  0  0
  4 11  1  0  0  0
  5  6  1  0  0  0
  5  8  1  0  0  0
  6  7  2  0  0  0
  8  9  1  0  0  0
  9 10  2  0  0  0
  9 11  1  0  0  0
 11 12  1  0  0  0
 11 20  1  0  0  0
 12 13  2  0  0  0
 12 16  1  0  0  0
 13 14  1  0  0  0
 13 18  1  0  0  0
 14 15  1  0  0  0
 15 16  2  0  0  0
 16 17  1  0  0  0
 18 19  1  0  0  0
 19 20  2  0  0  0
 19 21  1  0  0  0
 20 26  1  0  0  0
 26 27  2  0  0  0
 26 28  1  0  0  0
 28 29  1  0  0  0
 29 30  1  0  0  0
  8 22  1  0  0  0
 14 23  1  0  0  0
 21 24  1  0  0  0
 21 25  1  0  0  0
M  END
> <minimizedAffinity>
-5.42760

$$$$
558


 29 32  0  0  0  0  0  0  0  0999 V2000
    3.3404  -12.7822  -40.0934 Br  0  0  0  0  0  0  0  0  0  0  0  0
    2.3920  -13.5813  -38.6551 C   0  0  0  0  0  0  0  0  0  0  0  0
    1.7288  -14.8051  -38.7912 C   0  0  0  0  0  0  0  0  0  0  0  0
    1.0476  -15.3748  -37.7485 C   0  0  0  0  0  0  0  0  0  0  0  0
    1.0109  -14.7342  -36.5448 C   0  0  0  0  0  0  0  0  0  0  0  0
    1.6593  -13.5055  -36.3584 C   0  0  0  0  0  0  0  0  0  0  0  0
    2.3357  -12.9588  -37.4223 C   0  0  0  0  0  0  0  0  0  0  0  0
    0.2610  -15.4782  -35.5995 N   0  0  0  0  0  0  0  0  0  0  0  0
   -0.1940  -16.6412  -36.2451 C   0  0  0  0  0  0  0  0  0  0  0  0
   -0.8948  -17.5703  -35.7642 O   0  0  0  0  0  0  0  0  0  0  0  0
    0.2846  -16.6317  -37.6449 C   0  0  0  0  0  0  0  0  0  0  0  0
   -0.8912  -16.6188  -38.5744 C   0  0  0  0  0  0  0  0  0  0  0  0
   -1.1191  -17.4910  -39.5208 C   0  0  0  0  0  0  0  0  0  0  0  0
   -0.1897  -18.5430  -39.6989 N   0  0  0  0  0  0  0  0  0  0  0  0
    0.9549  -18.6375  -38.8657 C   0  0  0  0  0  0  0  0  0  0  0  0
    1.1862  -17.7646  -37.9162 C   0  0  0  0  0  0  0  0  0  0  0  0
    1.8957  -19.7272  -39.0675 N   0  0  0  0  0  0  0  0  0  0  0  0
   -2.3810  -17.1222  -40.2075 C   0  0  0  0  0  0  0  0  0  0  0  0
   -2.8674  -15.9631  -39.5818 O   0  0  0  0  0  0  0  0  0  0  0  0
   -1.9810  -15.6271  -38.5772 C   0  0  0  0  0  0  0  0  0  0  0  0
   -2.1023  -14.6225  -37.7949 O   0  0  0  0  0  0  0  0  0  0  0  0
   -3.4470  -18.2005  -40.0006 C   0  0  0  0  0  0  0  0  0  0  0  0
   -2.1500  -16.8998  -41.6956 C   0  0  0  0  0  0  0  0  0  0  0  0
    0.0864  -15.1897  -34.5862 H   0  0  0  0  0  0  0  0  0  0  0  0
   -0.3209  -19.2740  -40.4449 H   0  0  0  0  0  0  0  0  0  0  0  0
    2.8870  -19.6825  -38.7806 H   0  0  0  0  0  0  0  0  0  0  0  0
    1.5443  -20.5860  -39.5211 H   0  0  0  0  0  0  0  0  0  0  0  0
    2.3920  -17.9339  -37.0995 C   0  0  0  0  0  0  0  0  0  0  0  0
    3.3393  -18.0867  -36.4543 N   0  0  0  0  0  0  0  0  0  0  0  0
  1  2  1  0  0  0
  2  3  2  0  0  0
  2  7  1  0  0  0
  3  4  1  0  0  0
  4  5  2  0  0  0
  4 11  1  0  0  0
  5  6  1  0  0  0
  5  8  1  0  0  0
  6  7  2  0  0  0
  8  9  1  0  0  0
  9 10  2  0  0  0
  9 11  1  0  0  0
 11 12  1  0  0  0
 11 16  1  0  0  0
 12 13  2  0  0  0
 12 20  1  0  0  0
 13 14  1  0  0  0
 13 18  1  0  0  0
 14 15  1  0  0  0
 15 16  2  0  0  0
 15 17  1  0  0  0
 16 28  1  0  0  0
 28 29  3  0  0  0
 18 19  1  0  0  0
 18 22  1  0  0  0
 18 23  1  0  0  0
 19 20  1  0  0  0
 20 21  2  0  0  0
  8 24  1  0  0  0
 14 25  1  0  0  0
 17 26  1  0  0  0
 17 27  1  0  0  0
M  END
> <minimizedAffinity>
-5.70920

$$$$
559


 32 35  0  0  0  0  0  0  0  0999 V2000
    4.1148  -10.4560  -37.4485 Br  0  0  0  0  0  0  0  0  0  0  0  0
    3.7442  -11.6960  -38.8662 C   0  0  0  0  0  0  0  0  0  0  0  0
    2.7830  -12.6815  -38.7378 C   0  0  0  0  0  0  0  0  0  0  0  0
    2.5099  -13.5776  -39.7509 C   0  0  0  0  0  0  0  0  0  0  0  0
    3.2498  -13.4400  -40.9071 C   0  0  0  0  0  0  0  0  0  0  0  0
    4.2182  -12.4498  -41.0399 C   0  0  0  0  0  0  0  0  0  0  0  0
    4.4678  -11.5779  -40.0249 C   0  0  0  0  0  0  0  0  0  0  0  0
    2.8396  -14.4516  -41.8407 N   0  0  0  0  0  0  0  0  0  0  0  0
    1.8199  -15.2395  -41.2514 C   0  0  0  0  0  0  0  0  0  0  0  0
    1.2651  -16.2097  -41.8178 O   0  0  0  0  0  0  0  0  0  0  0  0
    1.5607  -14.7049  -39.8984 C   0  0  0  0  0  0  0  0  0  0  0  0
    1.7482  -15.7189  -38.8961 N   0  0  0  0  0  0  0  0  0  0  0  0
    0.5123  -16.4728  -38.9287 C   0  0  0  0  0  0  0  0  0  0  0  0
   -0.5483  -15.4102  -39.0402 C   0  0  0  0  0  0  0  0  0  0  0  0
    0.1338  -14.2978  -39.7999 C   0  0  0  0  0  0  0  0  0  0  0  0
   -0.1280  -13.0783  -39.0226 C   0  0  0  0  0  0  0  0  0  0  0  0
    0.1525  -11.8990  -39.3550 O   0  0  0  0  0  0  0  0  0  0  0  0
   -0.7756  -13.4236  -37.7767 N   0  0  0  0  0  0  0  0  0  0  0  0
   -0.9301  -14.8330  -37.7330 C   0  0  0  0  0  0  0  0  0  0  0  0
   -1.3302  -15.4653  -36.7266 O   0  0  0  0  0  0  0  0  0  0  0  0
    3.2573  -14.5511  -42.7913 H   0  0  0  0  0  0  0  0  0  0  0  0
    1.8313  -15.2660  -37.9717 H   0  0  0  0  0  0  0  0  0  0  0  0
   -1.2000  -12.5116  -36.7439 C   0  0  0  0  0  0  0  0  0  0  0  0
   -2.5450  -12.8912  -36.1733 C   0  0  0  0  0  0  0  0  0  0  0  0
   -0.1511  -12.5063  -35.6277 C   0  0  0  0  0  0  0  0  0  0  0  0
   -1.3249  -11.1046  -37.2856 C   0  0  0  0  0  0  0  0  0  0  0  0
    0.3857  -17.3270  -37.6962 C   0  0  0  0  0  0  0  0  0  0  0  0
    1.5617  -17.1747  -36.8241 C   0  0  0  0  0  0  0  0  0  0  0  0
    2.5946  -17.8535  -37.0765 O   0  0  0  0  0  0  0  0  0  0  0  0
    1.6279  -16.3089  -35.7030 N   0  0  0  0  0  0  0  0  0  0  0  0
    0.9099  -16.2289  -34.9684 H   0  0  0  0  0  0  0  0  0  0  0  0
    2.4847  -15.7007  -35.6221 H   0  0  0  0  0  0  0  0  0  0  0  0
  1  2  1  0  0  0
  2  3  2  0  0  0
  2  7  1  0  0  0
  3  4  1  0  0  0
  4  5  2  0  0  0
  4 11  1  0  0  0
  5  6  1  0  0  0
  5  8  1  0  0  0
  6  7  2  0  0  0
  8  9  1  0  0  0
  9 10  2  0  0  0
  9 11  1  0  0  0
 11 12  1  0  0  0
 11 15  1  0  0  0
 12 13  1  0  0  0
 13 14  1  0  0  0
 13 27  1  0  0  0
 14 15  1  0  0  0
 14 19  1  0  0  0
 15 16  1  0  0  0
 16 17  2  0  0  0
 16 18  1  0  0  0
 18 19  1  0  0  0
 18 23  1  0  0  0
 19 20  2  0  0  0
 23 24  1  0  0  0
 23 25  1  0  0  0
 23 26  1  0  0  0
 27 28  1  0  0  0
 28 29  2  0  0  0
 28 30  1  0  0  0
  8 21  1  0  0  0
 12 22  1  0  0  0
 30 31  1  0  0  0
 30 32  1  0  0  0
M  END
> <minimizedAffinity>
-5.68522

$$$$
566


 30 33  0  0  0  0  0  0  0  0999 V2000
    2.9014  -13.2680  -41.6842 Br  0  0  0  0  0  0  0  0  0  0  0  0
    2.4072  -13.6330  -39.8778 C   0  0  0  0  0  0  0  0  0  0  0  0
    2.0517  -14.9001  -39.4900 C   0  0  0  0  0  0  0  0  0  0  0  0
    1.6851  -15.1804  -38.1611 C   0  0  0  0  0  0  0  0  0  0  0  0
    1.6703  -14.1997  -37.2093 C   0  0  0  0  0  0  0  0  0  0  0  0
    2.0341  -12.9048  -37.6058 C   0  0  0  0  0  0  0  0  0  0  0  0
    2.3887  -12.6524  -38.9105 C   0  0  0  0  0  0  0  0  0  0  0  0
    1.2700  -14.7203  -35.9496 N   0  0  0  0  0  0  0  0  0  0  0  0
    1.0212  -16.1009  -36.1243 C   0  0  0  0  0  0  0  0  0  0  0  0
    0.6425  -16.8481  -35.1623 O   0  0  0  0  0  0  0  0  0  0  0  0
    1.2698  -16.4443  -37.5139 C   0  0  0  0  0  0  0  0  0  0  0  0
    2.2570  -17.4926  -37.6845 N   0  0  0  0  0  0  0  0  0  0  0  0
    1.5147  -18.7397  -37.6599 C   0  0  0  0  0  0  0  0  0  0  0  0
    0.3012  -18.3968  -38.4754 C   0  0  0  0  0  0  0  0  0  0  0  0
   -0.0040  -16.9778  -38.1353 C   0  0  0  0  0  0  0  0  0  0  0  0
   -1.1289  -17.0265  -37.1882 C   0  0  0  0  0  0  0  0  0  0  0  0
   -1.5581  -16.1115  -36.4113 O   0  0  0  0  0  0  0  0  0  0  0  0
   -1.7356  -18.3116  -37.2369 N   0  0  0  0  0  0  0  0  0  0  0  0
   -0.9053  -19.1302  -38.0358 C   0  0  0  0  0  0  0  0  0  0  0  0
   -1.1270  -20.3368  -38.3580 O   0  0  0  0  0  0  0  0  0  0  0  0
    1.1909  -14.1363  -35.0781 H   0  0  0  0  0  0  0  0  0  0  0  0
    3.0100  -17.4554  -36.9740 H   0  0  0  0  0  0  0  0  0  0  0  0
    2.3506  -19.8231  -38.2651 C   0  0  0  0  0  0  0  0  0  0  0  0
    3.2190  -20.2974  -37.2740 O   0  0  0  0  0  0  0  0  0  0  0  0
    3.2059  -19.2618  -39.3742 C   0  0  0  0  0  0  0  0  0  0  0  0
    4.1353  -20.4163  -37.6337 H   0  0  0  0  0  0  0  0  0  0  0  0
   -2.9707  -18.7143  -36.5933 C   0  0  0  0  0  0  0  0  0  0  0  0
   -4.1793  -18.3143  -37.3760 C   0  0  0  0  0  0  0  0  0  0  0  0
   -4.9688  -17.3329  -36.5006 C   0  0  0  0  0  0  0  0  0  0  0  0
   -4.9856  -15.9662  -37.1278 C   0  0  0  0  0  0  0  0  0  0  0  0
  1  2  1  0  0  0
  2  3  2  0  0  0
  2  7  1  0  0  0
  3  4  1  0  0  0
  4  5  2  0  0  0
  4 11  1  0  0  0
  5  6  1  0  0  0
  5  8  1  0  0  0
  6  7  2  0  0  0
  8  9  1  0  0  0
  9 10  2  0  0  0
  9 11  1  0  0  0
 11 12  1  0  0  0
 11 15  1  0  0  0
 12 13  1  0  0  0
 13 14  1  0  0  0
 13 23  1  0  0  0
 14 15  1  0  0  0
 14 19  1  0  0  0
 15 16  1  0  0  0
 16 17  2  0  0  0
 16 18  1  0  0  0
 18 19  1  0  0  0
 18 27  1  0  0  0
 19 20  2  0  0  0
 27 28  1  0  0  0
 28 29  1  0  0  0
 29 30  1  0  0  0
 23 24  1  0  0  0
 23 25  1  0  0  0
  8 21  1  0  0  0
 12 22  1  0  0  0
 24 26  1  0  0  0
M  END
> <minimizedAffinity>
-5.76081

$$$$
571


 34 38  0  0  0  0  0  0  0  0999 V2000
    3.1205  -14.5625  -41.6905 Br  0  0  0  0  0  0  0  0  0  0  0  0
    2.5498  -16.3389  -42.0963 C   0  0  0  0  0  0  0  0  0  0  0  0
    2.6642  -17.3778  -41.1997 C   0  0  0  0  0  0  0  0  0  0  0  0
    2.2493  -18.6829  -41.5054 C   0  0  0  0  0  0  0  0  0  0  0  0
    1.7131  -18.8974  -42.7516 C   0  0  0  0  0  0  0  0  0  0  0  0
    1.5938  -17.8552  -43.6600 C   0  0  0  0  0  0  0  0  0  0  0  0
    2.0055  -16.5781  -43.3489 C   0  0  0  0  0  0  0  0  0  0  0  0
    1.3554  -20.2552  -42.9222 N   0  0  0  0  0  0  0  0  0  0  0  0
    1.6812  -20.9320  -41.7287 C   0  0  0  0  0  0  0  0  0  0  0  0
    1.4800  -22.1692  -41.5722 O   0  0  0  0  0  0  0  0  0  0  0  0
    2.2613  -19.9554  -40.7833 C   0  0  0  0  0  0  0  0  0  0  0  0
    3.6296  -20.3412  -40.4248 N   0  0  0  0  0  0  0  0  0  0  0  0
    3.8116  -19.9011  -39.0598 C   0  0  0  0  0  0  0  0  0  0  0  0
    2.4842  -19.8448  -38.4129 C   0  0  0  0  0  0  0  0  0  0  0  0
    1.4717  -20.0187  -39.5301 C   0  0  0  0  0  0  0  0  0  0  0  0
    0.4613  -18.9916  -39.3062 C   0  0  0  0  0  0  0  0  0  0  0  0
   -0.4915  -18.7019  -40.0716 O   0  0  0  0  0  0  0  0  0  0  0  0
    0.7015  -18.3237  -38.0489 N   0  0  0  0  0  0  0  0  0  0  0  0
    2.1052  -18.5534  -37.8061 C   0  0  0  0  0  0  0  0  0  0  0  0
    2.8511  -17.7804  -37.1863 O   0  0  0  0  0  0  0  0  0  0  0  0
    0.9223  -20.6807  -43.7877 H   0  0  0  0  0  0  0  0  0  0  0  0
    4.3307  -19.9016  -41.0640 H   0  0  0  0  0  0  0  0  0  0  0  0
    4.8002  -20.7953  -38.3495 C   0  0  0  0  0  0  0  0  0  0  0  0
    4.5597  -22.1163  -38.6748 O   0  0  0  0  0  0  0  0  0  0  0  0
    6.2308  -20.3879  -38.6059 C   0  0  0  0  0  0  0  0  0  0  0  0
    5.2273  -22.7220  -38.3007 H   0  0  0  0  0  0  0  0  0  0  0  0
   -0.2145  -17.6247  -37.2054 C   0  0  0  0  0  0  0  0  0  0  0  0
   -0.6451  -16.2673  -37.6798 C   0  0  0  0  0  0  0  0  0  0  0  0
    0.3180  -15.1832  -37.4209 C   0  0  0  0  0  0  0  0  0  0  0  0
    1.2327  -14.8345  -38.4071 C   0  0  0  0  0  0  0  0  0  0  0  0
    2.1063  -13.8222  -38.1911 C   0  0  0  0  0  0  0  0  0  0  0  0
    2.1338  -13.1093  -37.0274 C   0  0  0  0  0  0  0  0  0  0  0  0
    1.2165  -13.4650  -36.0504 C   0  0  0  0  0  0  0  0  0  0  0  0
    0.3267  -14.4822  -36.2437 C   0  0  0  0  0  0  0  0  0  0  0  0
  1  2  1  0  0  0
  2  3  2  0  0  0
  2  7  1  0  0  0
  3  4  1  0  0  0
  4  5  2  0  0  0
  4 11  1  0  0  0
  5  6  1  0  0  0
  5  8  1  0  0  0
  6  7  2  0  0  0
  8  9  1  0  0  0
  9 10  2  0  0  0
  9 11  1  0  0  0
 11 12  1  0  0  0
 11 15  1  0  0  0
 12 13  1  0  0  0
 13 14  1  0  0  0
 13 23  1  0  0  0
 14 15  1  0  0  0
 14 19  1  0  0  0
 15 16  1  0  0  0
 16 17  2  0  0  0
 16 18  1  0  0  0
 18 19  1  0  0  0
 18 27  1  0  0  0
 19 20  2  0  0  0
 27 28  1  0  0  0
 28 29  1  0  0  0
 29 30  2  0  0  0
 29 34  1  0  0  0
 30 31  1  0  0  0
 31 32  2  0  0  0
 32 33  1  0  0  0
 33 34  2  0  0  0
 23 24  1  0  0  0
 23 25  1  0  0  0
  8 21  1  0  0  0
 12 22  1  0  0  0
 24 26  1  0  0  0
M  END
> <minimizedAffinity>
-6.52087

$$$$
578


 27 30  0  0  0  0  0  0  0  0999 V2000
   -2.1182  -20.0392  -37.8364 Br  0  0  0  0  0  0  0  0  0  0  0  0
   -0.7166  -20.4168  -39.0776 C   0  0  0  0  0  0  0  0  0  0  0  0
    0.6040  -20.1890  -38.7823 C   0  0  0  0  0  0  0  0  0  0  0  0
    1.6615  -20.4543  -39.6703 C   0  0  0  0  0  0  0  0  0  0  0  0
    1.3253  -20.9679  -40.8868 C   0  0  0  0  0  0  0  0  0  0  0  0
   -0.0242  -21.2072  -41.2077 C   0  0  0  0  0  0  0  0  0  0  0  0
   -1.0361  -20.9364  -40.3166 C   0  0  0  0  0  0  0  0  0  0  0  0
    2.4849  -21.1962  -41.6756 N   0  0  0  0  0  0  0  0  0  0  0  0
    3.5977  -20.8040  -40.9060 C   0  0  0  0  0  0  0  0  0  0  0  0
    4.8263  -20.8744  -41.2774 O   0  0  0  0  0  0  0  0  0  0  0  0
    3.1004  -20.3047  -39.6113 C   0  0  0  0  0  0  0  0  0  0  0  0
    3.6721  -21.2499  -38.6355 N   0  0  0  0  0  0  0  0  0  0  0  0
    4.8090  -20.6374  -38.0218 C   0  0  0  0  0  0  0  0  0  0  0  0
    4.5214  -19.1825  -38.0793 C   0  0  0  0  0  0  0  0  0  0  0  0
    3.6210  -18.9592  -39.2640 C   0  0  0  0  0  0  0  0  0  0  0  0
    2.6866  -17.9590  -38.8004 C   0  0  0  0  0  0  0  0  0  0  0  0
    1.9184  -17.2810  -39.5442 O   0  0  0  0  0  0  0  0  0  0  0  0
    2.7721  -17.8625  -37.3855 N   0  0  0  0  0  0  0  0  0  0  0  0
    3.6868  -18.8285  -36.8881 C   0  0  0  0  0  0  0  0  0  0  0  0
    3.7264  -19.2398  -35.7116 O   0  0  0  0  0  0  0  0  0  0  0  0
    6.1372  -21.0069  -38.6395 C   0  0  0  0  0  0  0  0  0  0  0  0
    2.5270  -21.5881  -42.6619 H   0  0  0  0  0  0  0  0  0  0  0  0
    2.9555  -21.5383  -37.9336 H   0  0  0  0  0  0  0  0  0  0  0  0
    2.0066  -16.8933  -36.6130 C   0  0  0  0  0  0  0  0  0  0  0  0
    0.5856  -17.3277  -36.4170 C   0  0  0  0  0  0  0  0  0  0  0  0
   -0.3291  -16.2014  -36.0174 C   0  0  0  0  0  0  0  0  0  0  0  0
    0.4360  -14.9024  -36.2942 C   0  0  0  0  0  0  0  0  0  0  0  0
  1  2  1  0  0  0
  2  3  2  0  0  0
  2  7  1  0  0  0
  3  4  1  0  0  0
  4  5  2  0  0  0
  4 11  1  0  0  0
  5  6  1  0  0  0
  5  8  1  0  0  0
  6  7  2  0  0  0
  8  9  1  0  0  0
  9 10  2  0  0  0
  9 11  1  0  0  0
 11 12  1  0  0  0
 11 15  1  0  0  0
 12 13  1  0  0  0
 13 14  1  0  0  0
 13 21  1  0  0  0
 14 15  1  0  0  0
 14 19  1  0  0  0
 15 16  1  0  0  0
 16 17  2  0  0  0
 16 18  1  0  0  0
 18 19  1  0  0  0
 18 24  1  0  0  0
 19 20  2  0  0  0
 24 25  1  0  0  0
 25 26  1  0  0  0
 26 27  1  0  0  0
  8 22  1  0  0  0
 12 23  1  0  0  0
M  END
> <minimizedAffinity>
-5.85155

$$$$
579


 32 35  0  0  0  0  0  0  0  0999 V2000
    3.6762  -12.1146  -40.7012 Br  0  0  0  0  0  0  0  0  0  0  0  0
    2.8477  -12.9488  -39.1995 C   0  0  0  0  0  0  0  0  0  0  0  0
    2.3918  -14.2481  -39.2230 C   0  0  0  0  0  0  0  0  0  0  0  0
    1.7874  -14.8525  -38.1213 C   0  0  0  0  0  0  0  0  0  0  0  0
    1.6345  -14.1325  -36.9630 C   0  0  0  0  0  0  0  0  0  0  0  0
    2.0828  -12.8225  -36.9088 C   0  0  0  0  0  0  0  0  0  0  0  0
    2.6868  -12.2403  -38.0295 C   0  0  0  0  0  0  0  0  0  0  0  0
    1.0013  -14.9372  -35.9637 N   0  0  0  0  0  0  0  0  0  0  0  0
    0.7466  -16.2157  -36.5205 C   0  0  0  0  0  0  0  0  0  0  0  0
    0.2098  -17.1440  -35.8853 O   0  0  0  0  0  0  0  0  0  0  0  0
    1.2155  -16.2114  -37.8969 C   0  0  0  0  0  0  0  0  0  0  0  0
    2.2583  -17.2314  -38.0021 N   0  0  0  0  0  0  0  0  0  0  0  0
    2.0743  -17.8429  -39.2843 C   0  0  0  0  0  0  0  0  0  0  0  0
    0.5995  -17.8753  -39.4557 C   0  0  0  0  0  0  0  0  0  0  0  0
    0.1772  -16.5218  -38.9334 C   0  0  0  0  0  0  0  0  0  0  0  0
   -1.1768  -16.7245  -38.4366 C   0  0  0  0  0  0  0  0  0  0  0  0
   -2.0138  -15.8266  -38.2024 O   0  0  0  0  0  0  0  0  0  0  0  0
   -1.3730  -18.1228  -38.2657 N   0  0  0  0  0  0  0  0  0  0  0  0
   -0.1222  -18.7964  -38.5434 C   0  0  0  0  0  0  0  0  0  0  0  0
    0.1640  -19.9040  -38.0608 O   0  0  0  0  0  0  0  0  0  0  0  0
    0.7742  -14.6051  -34.9852 H   0  0  0  0  0  0  0  0  0  0  0  0
    2.1200  -17.9697  -37.2714 H   0  0  0  0  0  0  0  0  0  0  0  0
   -2.6176  -18.7248  -37.8842 C   0  0  0  0  0  0  0  0  0  0  0  0
   -2.8864  -18.7636  -36.4168 C   0  0  0  0  0  0  0  0  0  0  0  0
   -3.6699  -17.7104  -35.9746 O   0  0  0  0  0  0  0  0  0  0  0  0
   -4.8234  -17.5693  -36.7425 C   0  0  0  0  0  0  0  0  0  0  0  0
    2.7655  -19.1549  -39.4306 C   0  0  0  0  0  0  0  0  0  0  0  0
    3.6390  -19.3898  -38.2756 C   0  0  0  0  0  0  0  0  0  0  0  0
    4.8474  -19.0229  -38.3210 O   0  0  0  0  0  0  0  0  0  0  0  0
    3.1427  -20.0266  -37.0998 N   0  0  0  0  0  0  0  0  0  0  0  0
    3.5484  -19.7997  -36.1693 H   0  0  0  0  0  0  0  0  0  0  0  0
    2.3711  -20.7199  -37.1803 H   0  0  0  0  0  0  0  0  0  0  0  0
  1  2  1  0  0  0
  2  3  2  0  0  0
  2  7  1  0  0  0
  3  4  1  0  0  0
  4  5  2  0  0  0
  4 11  1  0  0  0
  5  6  1  0  0  0
  5  8  1  0  0  0
  6  7  2  0  0  0
  8  9  1  0  0  0
  9 10  2  0  0  0
  9 11  1  0  0  0
 11 12  1  0  0  0
 11 15  1  0  0  0
 12 13  1  0  0  0
 13 14  1  0  0  0
 13 27  1  0  0  0
 14 15  1  0  0  0
 14 19  1  0  0  0
 15 16  1  0  0  0
 16 17  2  0  0  0
 16 18  1  0  0  0
 18 19  1  0  0  0
 18 23  1  0  0  0
 19 20  2  0  0  0
 23 24  1  0  0  0
 24 25  1  0  0  0
 25 26  1  0  0  0
 27 28  1  0  0  0
 28 29  2  0  0  0
 28 30  1  0  0  0
  8 21  1  0  0  0
 12 22  1  0  0  0
 30 31  1  0  0  0
 30 32  1  0  0  0
M  END
> <minimizedAffinity>
-5.75521

$$$$
588


 24 27  0  0  0  0  0  0  0  0999 V2000
    1.3464  -13.2164  -36.3598 Br  0  0  0  0  0  0  0  0  0  0  0  0
    1.6247  -14.3426  -37.8715 C   0  0  0  0  0  0  0  0  0  0  0  0
    1.4336  -15.6855  -37.7229 C   0  0  0  0  0  0  0  0  0  0  0  0
    1.6292  -16.5274  -38.8046 C   0  0  0  0  0  0  0  0  0  0  0  0
    2.0173  -16.0102  -40.0345 C   0  0  0  0  0  0  0  0  0  0  0  0
    2.2143  -14.6545  -40.2006 C   0  0  0  0  0  0  0  0  0  0  0  0
    2.0089  -13.8563  -39.0978 C   0  0  0  0  0  0  0  0  0  0  0  0
    2.2449  -16.7695  -41.2047 N   0  0  0  0  0  0  0  0  0  0  0  0
    2.1741  -16.2073  -42.4171 N   0  0  0  0  0  0  0  0  0  0  0  0
    2.4312  -17.1612  -43.2703 N   0  0  0  0  0  0  0  0  0  0  0  0
    2.6608  -18.2996  -42.6360 N   0  0  0  0  0  0  0  0  0  0  0  0
    2.5422  -18.0541  -41.2989 C   0  0  0  0  0  0  0  0  0  0  0  0
    2.7420  -19.1384  -40.2760 C   0  0  0  0  0  0  0  0  0  0  0  0
    1.7327  -19.0485  -39.2240 N   0  0  0  0  0  0  0  0  0  0  0  0
    1.3711  -17.9235  -38.4315 C   0  0  0  0  0  0  0  0  0  0  0  0
    0.7884  -18.1346  -37.3313 O   0  0  0  0  0  0  0  0  0  0  0  0
    4.0629  -18.8494  -39.6158 C   0  0  0  0  0  0  0  0  0  0  0  0
    4.5842  -20.0890  -38.9656 C   0  0  0  0  0  0  0  0  0  0  0  0
    4.8053  -21.0064  -39.9585 O   0  0  0  0  0  0  0  0  0  0  0  0
    3.6876  -21.4574  -40.6071 C   0  0  0  0  0  0  0  0  0  0  0  0
    2.6601  -20.4636  -40.9405 C   0  0  0  0  0  0  0  0  0  0  0  0
    5.9461  -19.7905  -38.3262 C   0  0  0  0  0  0  0  0  0  0  0  0
    3.7031  -20.6020  -37.8583 C   0  0  0  0  0  0  0  0  0  0  0  0
    1.1829  -19.9339  -39.0054 H   0  0  0  0  0  0  0  0  0  0  0  0
  1  2  1  0  0  0
  2  3  2  0  0  0
  2  7  1  0  0  0
  3  4  1  0  0  0
  4  5  2  0  0  0
  4 15  1  0  0  0
  5  6  1  0  0  0
  5  8  1  0  0  0
  6  7  2  0  0  0
  8  9  1  0  0  0
  8 12  1  0  0  0
  9 10  2  0  0  0
 10 11  1  0  0  0
 11 12  2  0  0  0
 12 13  1  0  0  0
 13 14  1  0  0  0
 13 17  1  0  0  0
 13 21  1  0  0  0
 14 15  1  0  0  0
 15 16  2  0  0  0
 17 18  1  0  0  0
 18 19  1  0  0  0
 18 22  1  0  0  0
 18 23  1  0  0  0
 19 20  1  0  0  0
 20 21  1  0  0  0
 14 24  1  0  0  0
M  END
> <minimizedAffinity>
-5.94296

$$$$
591


 23 26  0  0  0  0  0  0  0  0999 V2000
    5.8340  -21.7905  -38.9792 Br  0  0  0  0  0  0  0  0  0  0  0  0
    4.2282  -20.7490  -38.8262 C   0  0  0  0  0  0  0  0  0  0  0  0
    4.0627  -19.8716  -37.7758 C   0  0  0  0  0  0  0  0  0  0  0  0
    2.9074  -19.1254  -37.6710 C   0  0  0  0  0  0  0  0  0  0  0  0
    1.8757  -19.2108  -38.5863 C   0  0  0  0  0  0  0  0  0  0  0  0
    2.0592  -20.1026  -39.6402 C   0  0  0  0  0  0  0  0  0  0  0  0
    3.2121  -20.8512  -39.7525 C   0  0  0  0  0  0  0  0  0  0  0  0
    0.6435  -18.5289  -38.6262 N   0  0  0  0  0  0  0  0  0  0  0  0
   -0.3640  -18.8866  -39.4057 N   0  0  0  0  0  0  0  0  0  0  0  0
   -1.3573  -18.0371  -39.1956 N   0  0  0  0  0  0  0  0  0  0  0  0
   -0.9765  -17.1606  -38.2973 N   0  0  0  0  0  0  0  0  0  0  0  0
    0.2927  -17.4408  -37.9103 C   0  0  0  0  0  0  0  0  0  0  0  0
    0.9678  -16.6117  -36.9101 C   0  0  0  0  0  0  0  0  0  0  0  0
    1.9640  -17.2478  -36.1195 N   0  0  0  0  0  0  0  0  0  0  0  0
    2.8962  -18.2472  -36.4992 C   0  0  0  0  0  0  0  0  0  0  0  0
    3.8899  -18.4586  -35.7535 O   0  0  0  0  0  0  0  0  0  0  0  0
    1.6413  -15.3897  -37.5537 C   0  0  0  0  0  0  0  0  0  0  0  0
    1.5775  -14.2361  -36.5851 C   0  0  0  0  0  0  0  0  0  0  0  0
    0.2353  -13.7019  -36.6341 N   0  0  0  0  0  0  0  0  0  0  0  0
   -0.7057  -14.7853  -36.5274 C   0  0  0  0  0  0  0  0  0  0  0  0
   -0.0956  -16.0492  -35.9733 C   0  0  0  0  0  0  0  0  0  0  0  0
    0.0915  -12.9831  -37.8992 C   0  0  0  0  0  0  0  0  0  0  0  0
    2.0134  -16.9344  -35.1285 H   0  0  0  0  0  0  0  0  0  0  0  0
  1  2  1  0  0  0
  2  3  2  0  0  0
  2  7  1  0  0  0
  3  4  1  0  0  0
  4  5  2  0  0  0
  4 15  1  0  0  0
  5  6  1  0  0  0
  5  8  1  0  0  0
  6  7  2  0  0  0
  8  9  1  0  0  0
  8 12  1  0  0  0
  9 10  2  0  0  0
 10 11  1  0  0  0
 11 12  2  0  0  0
 12 13  1  0  0  0
 13 14  1  0  0  0
 13 17  1  0  0  0
 13 21  1  0  0  0
 14 15  1  0  0  0
 15 16  2  0  0  0
 17 18  1  0  0  0
 18 19  1  0  0  0
 19 20  1  0  0  0
 19 22  1  0  0  0
 20 21  1  0  0  0
 14 23  1  0  0  0
M  END
> <minimizedAffinity>
-6.47443

$$$$
592


 27 30  0  0  0  0  0  0  0  0999 V2000
    3.2986  -12.3045  -38.8647 Br  0  0  0  0  0  0  0  0  0  0  0  0
    2.0601  -13.4218  -37.9564 C   0  0  0  0  0  0  0  0  0  0  0  0
    1.9385  -14.7272  -38.3442 C   0  0  0  0  0  0  0  0  0  0  0  0
    1.0257  -15.5490  -37.6750 C   0  0  0  0  0  0  0  0  0  0  0  0
    0.2918  -15.0250  -36.6630 C   0  0  0  0  0  0  0  0  0  0  0  0
    0.4200  -13.6778  -36.2660 C   0  0  0  0  0  0  0  0  0  0  0  0
    1.3170  -12.8736  -36.9262 C   0  0  0  0  0  0  0  0  0  0  0  0
   -0.6236  -15.7963  -35.9699 O   0  0  0  0  0  0  0  0  0  0  0  0
   -0.7779  -17.1179  -36.3288 C   0  0  0  0  0  0  0  0  0  0  0  0
   -0.1037  -17.6939  -37.2952 C   0  0  0  0  0  0  0  0  0  0  0  0
    0.8814  -16.9629  -38.0806 C   0  0  0  0  0  0  0  0  0  0  0  0
    0.6599  -17.0872  -39.5414 C   0  0  0  0  0  0  0  0  0  0  0  0
    1.7345  -17.7295  -40.0910 C   0  0  0  0  0  0  0  0  0  0  0  0
    1.5270  -17.8427  -41.4361 N   0  0  0  0  0  0  0  0  0  0  0  0
    0.3567  -17.2815  -41.6825 N   0  0  0  0  0  0  0  0  0  0  0  0
   -0.2053  -16.8097  -40.5623 C   0  0  0  0  0  0  0  0  0  0  0  0
   -1.5301  -16.1201  -40.5114 C   0  0  0  0  0  0  0  0  0  0  0  0
    2.6893  -18.0602  -39.1055 N   0  0  0  0  0  0  0  0  0  0  0  0
    2.1971  -17.6051  -37.8715 C   0  0  0  0  0  0  0  0  0  0  0  0
    2.7546  -17.7077  -36.7462 O   0  0  0  0  0  0  0  0  0  0  0  0
   -1.7330  -17.9059  -35.5995 N   0  0  0  0  0  0  0  0  0  0  0  0
   -0.0381  -17.2382  -42.6596 H   0  0  0  0  0  0  0  0  0  0  0  0
    3.6173  -18.5676  -39.2916 H   0  0  0  0  0  0  0  0  0  0  0  0
   -2.5344  -17.4346  -35.1270 H   0  0  0  0  0  0  0  0  0  0  0  0
   -1.6576  -18.9449  -35.5215 H   0  0  0  0  0  0  0  0  0  0  0  0
   -0.3216  -19.0851  -37.6121 C   0  0  0  0  0  0  0  0  0  0  0  0
   -0.5070  -20.2032  -37.8495 N   0  0  0  0  0  0  0  0  0  0  0  0
  1  2  1  0  0  0
  2  3  2  0  0  0
  2  7  1  0  0  0
  3  4  1  0  0  0
  4  5  2  0  0  0
  4 11  1  0  0  0
  5  6  1  0  0  0
  5  8  1  0  0  0
  6  7  2  0  0  0
  8  9  1  0  0  0
  9 10  2  0  0  0
  9 21  1  0  0  0
 10 11  1  0  0  0
 10 26  1  0  0  0
 11 12  1  0  0  0
 11 19  1  0  0  0
 12 13  1  0  0  0
 12 16  2  0  0  0
 13 14  2  0  0  0
 13 18  1  0  0  0
 14 15  1  0  0  0
 15 16  1  0  0  0
 16 17  1  0  0  0
 18 19  1  0  0  0
 19 20  2  0  0  0
 26 27  3  0  0  0
 15 22  1  0  0  0
 18 23  1  0  0  0
 21 24  1  0  0  0
 21 25  1  0  0  0
M  END
> <minimizedAffinity>
-5.64042

$$$$
596


 29 32  0  0  0  0  0  0  0  0999 V2000
    1.4237  -18.2411  -39.2538 C   0  0  0  0  0  0  0  0  0  0  0  0
    0.5848  -18.4879  -40.3286 C   0  0  0  0  0  0  0  0  0  0  0  0
    0.8132  -19.5654  -41.1580 C   0  0  0  0  0  0  0  0  0  0  0  0
    0.0018  -19.7246  -42.1239 O   0  0  0  0  0  0  0  0  0  0  0  0
    1.8121  -20.3663  -40.9466 O   0  0  0  0  0  0  0  0  0  0  0  0
    2.6218  -20.1960  -39.9734 C   0  0  0  0  0  0  0  0  0  0  0  0
    2.4632  -19.1208  -39.0781 C   0  0  0  0  0  0  0  0  0  0  0  0
    3.3366  -18.9715  -38.0406 C   0  0  0  0  0  0  0  0  0  0  0  0
    4.3700  -19.9065  -37.9157 C   0  0  0  0  0  0  0  0  0  0  0  0
    4.5005  -20.9476  -38.8130 C   0  0  0  0  0  0  0  0  0  0  0  0
    3.6360  -21.1299  -39.8690 C   0  0  0  0  0  0  0  0  0  0  0  0
    5.5805  -21.8315  -38.5995 O   0  0  0  0  0  0  0  0  0  0  0  0
    2.8736  -10.7975  -37.6461 Br  0  0  0  0  0  0  0  0  0  0  0  0
    2.0156  -12.4520  -37.3056 C   0  0  0  0  0  0  0  0  0  0  0  0
    2.2369  -13.5589  -38.1048 C   0  0  0  0  0  0  0  0  0  0  0  0
    1.6422  -14.7883  -37.8874 C   0  0  0  0  0  0  0  0  0  0  0  0
    0.7855  -14.9031  -36.8116 C   0  0  0  0  0  0  0  0  0  0  0  0
    0.5239  -13.8280  -35.9753 C   0  0  0  0  0  0  0  0  0  0  0  0
    1.1350  -12.6220  -36.2276 C   0  0  0  0  0  0  0  0  0  0  0  0
    0.1978  -16.0784  -36.5793 O   0  0  0  0  0  0  0  0  0  0  0  0
    0.3888  -17.1189  -37.3109 C   0  0  0  0  0  0  0  0  0  0  0  0
   -0.1649  -18.2416  -37.0953 O   0  0  0  0  0  0  0  0  0  0  0  0
    1.2318  -17.0694  -38.4007 C   0  0  0  0  0  0  0  0  0  0  0  0
    1.8640  -15.8808  -38.6877 C   0  0  0  0  0  0  0  0  0  0  0  0
    3.8960  -22.1785  -40.8182 C   0  0  0  0  0  0  0  0  0  0  0  0
    5.0241  -22.2239  -41.6555 N   0  0  0  0  0  0  0  0  0  0  0  0
    5.0541  -23.2336  -42.6774 C   0  0  0  0  0  0  0  0  0  0  0  0
    5.4001  -20.8816  -42.1687 C   0  0  0  0  0  0  0  0  0  0  0  0
    5.8523  -22.4766  -41.0421 H   0  0  0  0  0  0  0  0  0  0  0  0
 13 14  1  0  0  0
 14 15  2  0  0  0
 14 19  1  0  0  0
 15 16  1  0  0  0
 16 17  2  0  0  0
 16 24  1  0  0  0
 17 18  1  0  0  0
 17 20  1  0  0  0
 18 19  2  0  0  0
 20 21  1  0  0  0
 21 22  2  0  0  0
 21 23  1  0  0  0
 23 24  2  0  0  0
 23  1  1  0  0  0
  1  2  2  0  0  0
  1  7  1  0  0  0
  2  3  1  0  0  0
  3  4  2  0  0  0
  3  5  1  0  0  0
  5  6  1  0  0  0
  6  7  2  0  0  0
  6 11  1  0  0  0
  7  8  1  0  0  0
  8  9  2  0  0  0
  9 10  1  0  0  0
 10 11  2  0  0  0
 10 12  1  0  0  0
 11 25  1  0  0  0
 25 26  1  0  0  0
 26 27  1  0  0  0
 26 28  1  0  0  0
 26 29  1  0  0  0
M  CHG 1  12  -1
M  CHG 1  26   1
M  END
> <minimizedAffinity>
-6.70102

$$$$
610


 32 35  0  0  0  0  0  0  0  0999 V2000
    5.1575  -13.0717  -43.0812 Br  0  0  0  0  0  0  0  0  0  0  0  0
    3.7767  -13.8029  -41.9858 C   0  0  0  0  0  0  0  0  0  0  0  0
    3.3978  -13.1719  -40.8042 C   0  0  0  0  0  0  0  0  0  0  0  0
    2.3928  -13.7025  -40.0071 C   0  0  0  0  0  0  0  0  0  0  0  0
    1.7585  -14.8671  -40.3826 C   0  0  0  0  0  0  0  0  0  0  0  0
    0.7732  -15.3851  -39.6066 N   0  0  0  0  0  0  0  0  0  0  0  0
    0.3863  -14.7922  -38.4631 C   0  0  0  0  0  0  0  0  0  0  0  0
    1.0135  -13.6624  -38.1145 N   0  0  0  0  0  0  0  0  0  0  0  0
    1.9981  -13.0933  -38.8340 C   0  0  0  0  0  0  0  0  0  0  0  0
    2.1549  -15.4784  -41.5650 C   0  0  0  0  0  0  0  0  0  0  0  0
    3.1493  -14.9688  -42.3712 C   0  0  0  0  0  0  0  0  0  0  0  0
   -0.6601  -15.3677  -37.6709 N   0  0  0  0  0  0  0  0  0  0  0  0
   -0.2558  -15.4323  -36.2927 C   0  0  0  0  0  0  0  0  0  0  0  0
    0.7251  -16.5128  -35.9875 C   0  0  0  0  0  0  0  0  0  0  0  0
    0.8418  -17.4753  -37.0604 N   0  0  0  0  0  0  0  0  0  0  0  0
   -0.3756  -17.8172  -37.7626 C   0  0  0  0  0  0  0  0  0  0  0  0
   -1.1471  -16.6078  -38.1915 C   0  0  0  0  0  0  0  0  0  0  0  0
    2.1169  -18.0160  -37.3537 C   0  0  0  0  0  0  0  0  0  0  0  0
    3.1269  -17.6710  -36.7018 O   0  0  0  0  0  0  0  0  0  0  0  0
   -1.4419  -14.6470  -37.7058 H   0  0  0  0  0  0  0  0  0  0  0  0
    2.1806  -19.0056  -38.4681 C   0  0  0  0  0  0  0  0  0  0  0  0
    2.7070  -20.3285  -37.9999 C   0  0  0  0  0  0  0  0  0  0  0  0
    4.1005  -20.5753  -38.4007 C   0  0  0  0  0  0  0  0  0  0  0  0
    4.8073  -19.6730  -38.8959 O   0  0  0  0  0  0  0  0  0  0  0  0
    4.6421  -21.8321  -38.2253 O   0  0  0  0  0  0  0  0  0  0  0  0
    2.6148  -11.8624  -38.3665 C   0  0  0  0  0  0  0  0  0  0  0  0
    2.0903  -10.6307  -38.7336 C   0  0  0  0  0  0  0  0  0  0  0  0
    2.6392   -9.4431  -38.2995 C   0  0  0  0  0  0  0  0  0  0  0  0
    3.7433   -9.4308  -37.4724 C   0  0  0  0  0  0  0  0  0  0  0  0
    4.2670  -10.6645  -37.1056 C   0  0  0  0  0  0  0  0  0  0  0  0
    3.7125  -11.8465  -37.5446 C   0  0  0  0  0  0  0  0  0  0  0  0
    0.6776  -10.6150  -39.7920 Cl  0  0  0  0  0  0  0  0  0  0  0  0
  1  2  1  0  0  0
  2  3  2  0  0  0
  2 11  1  0  0  0
  3  4  1  0  0  0
  4  5  2  0  0  0
  4  9  1  0  0  0
  5  6  1  0  0  0
  5 10  1  0  0  0
  6  7  2  0  0  0
  7  8  1  0  0  0
  7 12  1  0  0  0
  8  9  2  0  0  0
  9 26  1  0  0  0
 26 27  2  0  0  0
 26 31  1  0  0  0
 27 28  1  0  0  0
 27 32  1  0  0  0
 28 29  2  0  0  0
 29 30  1  0  0  0
 30 31  2  0  0  0
 12 13  1  0  0  0
 12 17  1  0  0  0
 13 14  1  0  0  0
 14 15  1  0  0  0
 15 16  1  0  0  0
 15 18  1  0  0  0
 16 17  1  0  0  0
 18 19  2  0  0  0
 18 21  1  0  0  0
 21 22  1  0  0  0
 22 23  1  0  0  0
 23 24  2  0  0  0
 23 25  1  0  0  0
 10 11  2  0  0  0
 12 20  1  0  0  0
M  CHG 1  12   1
M  END
> <minimizedAffinity>
-6.46847

$$$$
611


 33 36  0  0  0  0  0  0  0  0999 V2000
   -1.4393   -9.9894  -35.8088 Br  0  0  0  0  0  0  0  0  0  0  0  0
   -0.9763  -11.7837  -36.2791 C   0  0  0  0  0  0  0  0  0  0  0  0
    0.2418  -12.1010  -36.8533 C   0  0  0  0  0  0  0  0  0  0  0  0
    0.6050  -13.3831  -37.2035 C   0  0  0  0  0  0  0  0  0  0  0  0
   -0.2730  -14.4280  -36.9814 C   0  0  0  0  0  0  0  0  0  0  0  0
    0.0614  -15.6963  -37.3260 N   0  0  0  0  0  0  0  0  0  0  0  0
    1.2419  -16.0022  -37.8902 C   0  0  0  0  0  0  0  0  0  0  0  0
    2.0977  -14.9869  -38.1057 N   0  0  0  0  0  0  0  0  0  0  0  0
    1.8120  -13.7042  -37.7805 C   0  0  0  0  0  0  0  0  0  0  0  0
   -1.4880  -14.1222  -36.4093 C   0  0  0  0  0  0  0  0  0  0  0  0
   -1.8489  -12.8268  -36.0586 C   0  0  0  0  0  0  0  0  0  0  0  0
    1.5589  -17.3454  -38.2380 N   0  0  0  0  0  0  0  0  0  0  0  0
    1.9442  -17.4440  -39.6282 C   0  0  0  0  0  0  0  0  0  0  0  0
    2.6837  -18.7292  -39.8261 C   0  0  0  0  0  0  0  0  0  0  0  0
    2.4452  -19.5821  -38.6797 N   0  0  0  0  0  0  0  0  0  0  0  0
    1.0808  -19.6730  -38.1917 C   0  0  0  0  0  0  0  0  0  0  0  0
    0.4803  -18.2730  -38.0156 C   0  0  0  0  0  0  0  0  0  0  0  0
    3.5267  -20.2694  -38.1041 C   0  0  0  0  0  0  0  0  0  0  0  0
    3.2951  -20.9993  -37.1086 O   0  0  0  0  0  0  0  0  0  0  0  0
    2.3574  -17.6371  -37.6366 H   0  0  0  0  0  0  0  0  0  0  0  0
    4.8928  -20.1611  -38.6203 C   0  0  0  0  0  0  0  0  0  0  0  0
    5.3285  -21.4789  -39.1929 C   0  0  0  0  0  0  0  0  0  0  0  0
    5.4836  -21.4372  -40.6971 C   0  0  0  0  0  0  0  0  0  0  0  0
    4.4908  -22.2692  -41.4054 C   0  0  0  0  0  0  0  0  0  0  0  0
    3.2800  -22.0592  -41.1574 O   0  0  0  0  0  0  0  0  0  0  0  0
    4.9101  -23.2379  -42.3048 O   0  0  0  0  0  0  0  0  0  0  0  0
    2.7743  -12.6438  -38.0383 C   0  0  0  0  0  0  0  0  0  0  0  0
    3.1597  -12.3017  -39.3254 C   0  0  0  0  0  0  0  0  0  0  0  0
    4.0881  -11.3088  -39.5826 C   0  0  0  0  0  0  0  0  0  0  0  0
    4.6412  -10.6419  -38.4830 C   0  0  0  0  0  0  0  0  0  0  0  0
    4.2800  -10.9576  -37.1900 C   0  0  0  0  0  0  0  0  0  0  0  0
    3.3648  -11.9405  -36.9851 C   0  0  0  0  0  0  0  0  0  0  0  0
    2.4501  -13.1548  -40.6868 Cl  0  0  0  0  0  0  0  0  0  0  0  0
  1  2  1  0  0  0
  2  3  2  0  0  0
  2 11  1  0  0  0
  3  4  1  0  0  0
  4  5  2  0  0  0
  4  9  1  0  0  0
  5  6  1  0  0  0
  5 10  1  0  0  0
  6  7  2  0  0  0
  7  8  1  0  0  0
  7 12  1  0  0  0
  8  9  2  0  0  0
  9 27  1  0  0  0
 27 28  2  0  0  0
 27 32  1  0  0  0
 28 29  1  0  0  0
 28 33  1  0  0  0
 29 30  2  0  0  0
 30 31  1  0  0  0
 31 32  2  0  0  0
 12 13  1  0  0  0
 12 17  1  0  0  0
 13 14  1  0  0  0
 14 15  1  0  0  0
 15 16  1  0  0  0
 15 18  1  0  0  0
 16 17  1  0  0  0
 18 19  2  0  0  0
 18 21  1  0  0  0
 21 22  1  0  0  0
 22 23  1  0  0  0
 23 24  1  0  0  0
 24 25  2  0  0  0
 24 26  1  0  0  0
 10 11  2  0  0  0
 12 20  1  0  0  0
M  CHG 1  12   1
M  END
> <minimizedAffinity>
-7.03781

$$$$
616


 28 31  0  0  0  0  0  0  0  0999 V2000
    4.1885  -22.8421  -41.9089 C   0  0  0  0  0  0  0  0  0  0  0  0
    3.3569  -23.8176  -42.0504 O   0  0  0  0  0  0  0  0  0  0  0  0
    5.2263  -22.7922  -42.8399 N   0  0  0  0  0  0  0  0  0  0  0  0
    6.2844  -21.8196  -42.8889 C   0  0  0  0  0  0  0  0  0  0  0  0
    7.2854  -22.1097  -44.0149 C   0  0  0  0  0  0  0  0  0  0  0  0
    7.6566  -23.5149  -43.9530 N   0  0  0  0  0  0  0  0  0  0  0  0
    6.6259  -24.5304  -43.7323 C   0  0  0  0  0  0  0  0  0  0  0  0
    5.2844  -23.8158  -43.9175 C   0  0  0  0  0  0  0  0  0  0  0  0
    9.0004  -23.9238  -44.0988 C   0  0  0  0  0  0  0  0  0  0  0  0
    9.8560  -23.0247  -44.2800 O   0  0  0  0  0  0  0  0  0  0  0  0
    1.7702  -16.9036  -37.3515 Br  0  0  0  0  0  0  0  0  0  0  0  0
    2.6560  -18.4796  -37.9935 C   0  0  0  0  0  0  0  0  0  0  0  0
    2.4651  -18.9499  -39.2670 C   0  0  0  0  0  0  0  0  0  0  0  0
    3.1137  -20.0993  -39.7268 C   0  0  0  0  0  0  0  0  0  0  0  0
    3.9613  -20.7791  -38.8960 C   0  0  0  0  0  0  0  0  0  0  0  0
    4.4621  -21.8554  -39.5779 N   0  0  0  0  0  0  0  0  0  0  0  0
    3.9761  -21.9078  -40.8209 C   0  0  0  0  0  0  0  0  0  0  0  0
    3.1167  -20.7837  -40.9089 C   0  0  0  0  0  0  0  0  0  0  0  0
    4.1596  -20.3114  -37.6106 C   0  0  0  0  0  0  0  0  0  0  0  0
    3.5110  -19.1696  -37.1626 C   0  0  0  0  0  0  0  0  0  0  0  0
    5.1291  -22.5008  -39.1304 H   0  0  0  0  0  0  0  0  0  0  0  0
    9.3281  -25.3391  -44.0313 C   0  0  0  0  0  0  0  0  0  0  0  0
   10.7419  -25.6420  -44.0556 N   0  0  0  0  0  0  0  0  0  0  0  0
   10.9212  -27.0431  -44.4429 C   0  0  0  0  0  0  0  0  0  0  0  0
   11.0951  -27.9126  -43.2464 C   0  0  0  0  0  0  0  0  0  0  0  0
   10.3154  -27.4552  -42.1868 O   0  0  0  0  0  0  0  0  0  0  0  0
   10.8046  -26.2481  -41.6822 C   0  0  0  0  0  0  0  0  0  0  0  0
   11.3949  -25.3958  -42.7820 C   0  0  0  0  0  0  0  0  0  0  0  0
 11 12  1  0  0  0
 12 13  2  0  0  0
 12 20  1  0  0  0
 13 14  1  0  0  0
 14 15  2  0  0  0
 14 18  1  0  0  0
 15 16  1  0  0  0
 15 19  1  0  0  0
 16 17  1  0  0  0
 17 18  2  0  0  0
 17  1  1  0  0  0
  1  2  2  0  0  0
  1  3  1  0  0  0
  3  4  1  0  0  0
  3  8  1  0  0  0
  4  5  1  0  0  0
  5  6  1  0  0  0
  6  7  1  0  0  0
  6  9  1  0  0  0
  7  8  1  0  0  0
  9 10  2  0  0  0
  9 22  1  0  0  0
 22 23  1  0  0  0
 23 24  1  0  0  0
 23 28  1  0  0  0
 24 25  1  0  0  0
 25 26  1  0  0  0
 26 27  1  0  0  0
 27 28  1  0  0  0
 19 20  2  0  0  0
 16 21  1  0  0  0
M  END
> <minimizedAffinity>
-6.28313

$$$$
617


 25 28  0  0  0  0  0  0  0  0999 V2000
    4.6394  -22.5788  -42.0000 Br  0  0  0  0  0  0  0  0  0  0  0  0
    4.6248  -21.5016  -40.4323 C   0  0  0  0  0  0  0  0  0  0  0  0
    3.5171  -20.7579  -40.0816 C   0  0  0  0  0  0  0  0  0  0  0  0
    3.4905  -19.9715  -38.9478 C   0  0  0  0  0  0  0  0  0  0  0  0
    4.6195  -19.9405  -38.1513 C   0  0  0  0  0  0  0  0  0  0  0  0
    4.3206  -19.1103  -37.1360 N   0  0  0  0  0  0  0  0  0  0  0  0
    3.0607  -18.6231  -37.2596 C   0  0  0  0  0  0  0  0  0  0  0  0
    2.5166  -19.1602  -38.4067 C   0  0  0  0  0  0  0  0  0  0  0  0
    1.2574  -18.8162  -38.7414 N   0  0  0  0  0  0  0  0  0  0  0  0
    0.5244  -17.9713  -37.9916 C   0  0  0  0  0  0  0  0  0  0  0  0
    1.0269  -17.4348  -36.8717 N   0  0  0  0  0  0  0  0  0  0  0  0
    2.2791  -17.7636  -36.5211 C   0  0  0  0  0  0  0  0  0  0  0  0
    2.7672  -17.2697  -35.4739 O   0  0  0  0  0  0  0  0  0  0  0  0
    5.7230  -20.6899  -38.5146 C   0  0  0  0  0  0  0  0  0  0  0  0
    5.7589  -21.4786  -39.6468 C   0  0  0  0  0  0  0  0  0  0  0  0
    4.9499  -18.8594  -36.3512 H   0  0  0  0  0  0  0  0  0  0  0  0
    0.2313  -16.5081  -36.0482 C   0  0  0  0  0  0  0  0  0  0  0  0
   -0.5885  -15.6253  -36.9080 C   0  0  0  0  0  0  0  0  0  0  0  0
   -0.1547  -14.2825  -37.0445 N   0  0  0  0  0  0  0  0  0  0  0  0
    0.0064  -13.8248  -38.3810 C   0  0  0  0  0  0  0  0  0  0  0  0
    1.4210  -13.9109  -38.8783 C   0  0  0  0  0  0  0  0  0  0  0  0
    2.3915  -13.6023  -37.8501 N   0  0  0  0  0  0  0  0  0  0  0  0
    1.7729  -12.9058  -36.7346 C   0  0  0  0  0  0  0  0  0  0  0  0
    0.8215  -13.8864  -36.0938 C   0  0  0  0  0  0  0  0  0  0  0  0
    2.9049  -14.4516  -37.5211 H   0  0  0  0  0  0  0  0  0  0  0  0
  1  2  1  0  0  0
  2  3  2  0  0  0
  2 15  1  0  0  0
  3  4  1  0  0  0
  4  5  2  0  0  0
  4  8  1  0  0  0
  5  6  1  0  0  0
  5 14  1  0  0  0
  6  7  1  0  0  0
  7  8  2  0  0  0
  7 12  1  0  0  0
  8  9  1  0  0  0
  9 10  2  0  0  0
 10 11  1  0  0  0
 11 12  1  0  0  0
 11 17  1  0  0  0
 12 13  2  0  0  0
 17 18  1  0  0  0
 18 19  1  0  0  0
 19 20  1  0  0  0
 19 24  1  0  0  0
 20 21  1  0  0  0
 21 22  1  0  0  0
 22 23  1  0  0  0
 23 24  1  0  0  0
 14 15  2  0  0  0
  6 16  1  0  0  0
 22 25  1  0  0  0
M  END
> <minimizedAffinity>
-5.75840

$$$$
624


 22 25  0  0  0  0  0  0  0  0999 V2000
    5.8093  -17.8816  -43.5328 Br  0  0  0  0  0  0  0  0  0  0  0  0
    5.0685  -18.6429  -41.9520 C   0  0  0  0  0  0  0  0  0  0  0  0
    5.7247  -19.6946  -41.3479 C   0  0  0  0  0  0  0  0  0  0  0  0
    5.2051  -20.2763  -40.1843 C   0  0  0  0  0  0  0  0  0  0  0  0
    4.0493  -19.7755  -39.6781 C   0  0  0  0  0  0  0  0  0  0  0  0
    3.3586  -18.7273  -40.2458 C   0  0  0  0  0  0  0  0  0  0  0  0
    3.8861  -18.1748  -41.3840 C   0  0  0  0  0  0  0  0  0  0  0  0
    2.2040  -18.3231  -39.6302 C   0  0  0  0  0  0  0  0  0  0  0  0
    1.5719  -17.3786  -40.1311 O   0  0  0  0  0  0  0  0  0  0  0  0
    1.7199  -18.9234  -38.4775 C   0  0  0  0  0  0  0  0  0  0  0  0
    2.4581  -19.9663  -37.9607 C   0  0  0  0  0  0  0  0  0  0  0  0
    3.6154  -20.3792  -38.5704 N   0  0  0  0  0  0  0  0  0  0  0  0
    4.5636  -21.4227  -38.2503 C   0  0  0  0  0  0  0  0  0  0  0  0
    5.6333  -21.3796  -39.3074 C   0  0  0  0  0  0  0  0  0  0  0  0
    0.4884  -18.4796  -37.8332 C   0  0  0  0  0  0  0  0  0  0  0  0
   -0.5893  -19.0503  -38.1178 O   0  0  0  0  0  0  0  0  0  0  0  0
    0.5026  -17.4037  -36.8849 N   0  0  0  0  0  0  0  0  0  0  0  0
   -0.7044  -16.9437  -36.2321 C   0  0  0  0  0  0  0  0  0  0  0  0
   -0.7766  -15.4332  -36.4899 C   0  0  0  0  0  0  0  0  0  0  0  0
    0.4029  -14.8480  -36.0969 O   0  0  0  0  0  0  0  0  0  0  0  0
    1.5021  -15.2428  -36.8299 C   0  0  0  0  0  0  0  0  0  0  0  0
    1.7375  -16.7278  -36.5402 C   0  0  0  0  0  0  0  0  0  0  0  0
  1  2  1  0  0  0
  2  3  2  0  0  0
  2  7  1  0  0  0
  3  4  1  0  0  0
  4  5  2  0  0  0
  4 14  1  0  0  0
  5  6  1  0  0  0
  5 12  1  0  0  0
  6  7  2  0  0  0
  6  8  1  0  0  0
  8  9  2  0  0  0
  8 10  1  0  0  0
 10 11  2  0  0  0
 10 15  1  0  0  0
 11 12  1  0  0  0
 12 13  1  0  0  0
 13 14  1  0  0  0
 15 16  2  0  0  0
 15 17  1  0  0  0
 17 18  1  0  0  0
 17 22  1  0  0  0
 18 19  1  0  0  0
 19 20  1  0  0  0
 20 21  1  0  0  0
 21 22  1  0  0  0
M  END
> <minimizedAffinity>
-5.74274

$$$$
625


 31 34  0  0  0  0  0  0  0  0999 V2000
    3.0316  -16.7658  -43.5581 Br  0  0  0  0  0  0  0  0  0  0  0  0
    2.8160  -15.6498  -42.0550 C   0  0  0  0  0  0  0  0  0  0  0  0
    2.1995  -16.1070  -40.9017 C   0  0  0  0  0  0  0  0  0  0  0  0
    2.0160  -15.3143  -39.8060 C   0  0  0  0  0  0  0  0  0  0  0  0
    1.4900  -15.6062  -38.5786 N   0  0  0  0  0  0  0  0  0  0  0  0
    1.6072  -14.5004  -37.8229 C   0  0  0  0  0  0  0  0  0  0  0  0
    2.1964  -13.4667  -38.6000 C   0  0  0  0  0  0  0  0  0  0  0  0
    2.4404  -14.0326  -39.8251 C   0  0  0  0  0  0  0  0  0  0  0  0
    3.0671  -13.5478  -40.9760 C   0  0  0  0  0  0  0  0  0  0  0  0
    3.2626  -14.3426  -42.0961 C   0  0  0  0  0  0  0  0  0  0  0  0
    3.8979  -13.8874  -43.2655 O   0  0  0  0  0  0  0  0  0  0  0  0
    4.0166  -14.5384  -44.0551 H   0  0  0  0  0  0  0  0  0  0  0  0
    2.3414  -12.0462  -38.2553 C   0  0  0  0  0  0  0  0  0  0  0  0
    1.4642  -11.2540  -38.6929 O   0  0  0  0  0  0  0  0  0  0  0  0
    3.3295  -11.5141  -37.4960 O   0  0  0  0  0  0  0  0  0  0  0  0
    4.2917  -10.5599  -37.7680 C   0  0  0  0  0  0  0  0  0  0  0  0
    5.0155  -10.7493  -39.0954 C   0  0  0  0  0  0  0  0  0  0  0  0
    0.6750  -16.8183  -38.3667 C   0  0  0  0  0  0  0  0  0  0  0  0
    1.6888  -17.9295  -38.0104 C   0  0  0  0  0  0  0  0  0  0  0  0
    1.5971  -19.0667  -38.7591 C   0  0  0  0  0  0  0  0  0  0  0  0
    2.4942  -20.1166  -38.5010 C   0  0  0  0  0  0  0  0  0  0  0  0
    3.4566  -20.0444  -37.5387 C   0  0  0  0  0  0  0  0  0  0  0  0
    3.5132  -18.8602  -36.8031 C   0  0  0  0  0  0  0  0  0  0  0  0
    2.6219  -17.8079  -37.0467 C   0  0  0  0  0  0  0  0  0  0  0  0
    1.2905  -14.2993  -36.4091 C   0  0  0  0  0  0  0  0  0  0  0  0
   -0.0183  -13.8494  -36.0497 N   0  0  0  0  0  0  0  0  0  0  0  0
   -1.2299  -14.1364  -36.5850 C   0  0  0  0  0  0  0  0  0  0  0  0
   -2.1152  -12.8738  -36.4503 C   0  0  0  0  0  0  0  0  0  0  0  0
   -1.4546  -12.2147  -35.2419 C   0  0  0  0  0  0  0  0  0  0  0  0
    0.0011  -12.4384  -35.6281 C   0  0  0  0  0  0  0  0  0  0  0  0
   -0.0570  -14.3004  -34.9600 H   0  0  0  0  0  0  0  0  0  0  0  0
  1  2  1  0  0  0
  2  3  2  0  0  0
  2 10  1  0  0  0
  3  4  1  0  0  0
  4  5  1  0  0  0
  4  8  2  0  0  0
  5  6  1  0  0  0
  5 18  1  0  0  0
  6  7  2  0  0  0
  6 25  1  0  0  0
  7  8  1  0  0  0
  7 13  1  0  0  0
  8  9  1  0  0  0
  9 10  2  0  0  0
 10 11  1  0  0  0
 13 14  2  0  0  0
 13 15  1  0  0  0
 15 16  1  0  0  0
 16 17  1  0  0  0
 25 26  1  0  0  0
 26 27  1  0  0  0
 26 30  1  0  0  0
 27 28  1  0  0  0
 28 29  1  0  0  0
 29 30  1  0  0  0
 18 19  1  0  0  0
 19 20  2  0  0  0
 19 24  1  0  0  0
 20 21  1  0  0  0
 21 22  2  0  0  0
 22 23  1  0  0  0
 23 24  2  0  0  0
 11 12  1  0  0  0
 26 31  1  0  0  0
M  CHG 1  26   1
M  END
> <minimizedAffinity>
-5.83387

$$$$
626


 32 35  0  0  0  0  0  0  0  0999 V2000
    1.8021  -16.6361  -36.0310 N   0  0  0  0  0  0  0  0  0  0  0  0
    2.3790  -17.5012  -36.9697 C   0  0  0  0  0  0  0  0  0  0  0  0
    2.2421  -17.2817  -38.2002 O   0  0  0  0  0  0  0  0  0  0  0  0
    1.9883  -16.8940  -35.0139 H   0  0  0  0  0  0  0  0  0  0  0  0
   -1.1148  -17.3138  -36.0350 Br  0  0  0  0  0  0  0  0  0  0  0  0
   -0.3465  -15.5787  -36.3162 C   0  0  0  0  0  0  0  0  0  0  0  0
   -1.1836  -14.5102  -36.5431 C   0  0  0  0  0  0  0  0  0  0  0  0
   -0.6695  -13.2549  -36.7578 C   0  0  0  0  0  0  0  0  0  0  0  0
   -1.1757  -12.0311  -37.0006 N   0  0  0  0  0  0  0  0  0  0  0  0
   -0.1837  -11.1304  -37.1313 C   0  0  0  0  0  0  0  0  0  0  0  0
    0.9519  -11.8300  -36.9625 N   0  0  0  0  0  0  0  0  0  0  0  0
    0.6908  -13.1332  -36.7320 C   0  0  0  0  0  0  0  0  0  0  0  0
    1.5480  -14.2185  -36.5007 C   0  0  0  0  0  0  0  0  0  0  0  0
    1.0354  -15.4776  -36.2851 C   0  0  0  0  0  0  0  0  0  0  0  0
   -0.3248   -9.7525  -37.3891 O   0  0  0  0  0  0  0  0  0  0  0  0
    1.9278  -11.4236  -37.0030 H   0  0  0  0  0  0  0  0  0  0  0  0
   -0.3544   -9.1534  -36.5534 H   0  0  0  0  0  0  0  0  0  0  0  0
    3.1623  -18.6896  -36.6147 C   0  0  0  0  0  0  0  0  0  0  0  0
    3.8894  -19.3363  -37.6329 N   0  0  0  0  0  0  0  0  0  0  0  0
    5.2796  -19.0767  -37.7354 C   0  0  0  0  0  0  0  0  0  0  0  0
    5.8365  -19.4467  -39.1105 C   0  0  0  0  0  0  0  0  0  0  0  0
    5.4949  -20.7793  -39.3716 N   0  0  0  0  0  0  0  0  0  0  0  0
    4.6387  -21.4503  -38.4736 C   0  0  0  0  0  0  0  0  0  0  0  0
    3.4793  -20.6652  -37.9379 C   0  0  0  0  0  0  0  0  0  0  0  0
    5.6109  -21.2103  -40.6907 C   0  0  0  0  0  0  0  0  0  0  0  0
    4.4243  -21.7390  -41.3642 C   0  0  0  0  0  0  0  0  0  0  0  0
    3.5239  -20.8601  -41.6580 O   0  0  0  0  0  0  0  0  0  0  0  0
    4.1545  -23.0551  -41.7222 N   0  0  0  0  0  0  0  0  0  0  0  0
    4.8444  -23.8074  -41.5217 H   0  0  0  0  0  0  0  0  0  0  0  0
    2.9268  -23.4665  -42.3967 C   0  0  0  0  0  0  0  0  0  0  0  0
    2.9305  -24.5763  -43.3630 C   0  0  0  0  0  0  0  0  0  0  0  0
    2.3150  -24.7909  -41.9929 C   0  0  0  0  0  0  0  0  0  0  0  0
  5  6  1  0  0  0
  6  7  2  0  0  0
  6 14  1  0  0  0
  7  8  1  0  0  0
  8  9  1  0  0  0
  8 12  2  0  0  0
  9 10  2  0  0  0
 10 11  1  0  0  0
 10 15  1  0  0  0
 11 12  1  0  0  0
 12 13  1  0  0  0
 13 14  2  0  0  0
 14  1  1  0  0  0
  1  2  1  0  0  0
  2  3  2  0  0  0
  2 18  1  0  0  0
 18 19  1  0  0  0
 19 20  1  0  0  0
 19 24  1  0  0  0
 20 21  1  0  0  0
 21 22  1  0  0  0
 22 23  1  0  0  0
 22 25  1  0  0  0
 23 24  1  0  0  0
 25 26  1  0  0  0
 26 27  2  0  0  0
 26 28  1  0  0  0
 28 30  1  0  0  0
 30 31  1  0  0  0
 30 32  1  0  0  0
 31 32  1  0  0  0
 11 16  1  0  0  0
  1  4  1  0  0  0
 28 29  1  0  0  0
 15 17  1  0  0  0
M  END
> <minimizedAffinity>
-6.26456

$$$$
631


 29 32  0  0  0  0  0  0  0  0999 V2000
    0.7925  -16.1902  -38.0984 N   0  0  0  0  0  0  0  0  0  0  0  0
    1.7174  -17.3039  -38.4039 C   0  0  0  0  0  0  0  0  0  0  0  0
    1.2821  -17.7358  -39.7951 C   0  0  0  0  0  0  0  0  0  0  0  0
   -0.2090  -17.4743  -39.7752 C   0  0  0  0  0  0  0  0  0  0  0  0
   -0.4751  -16.5528  -38.6407 C   0  0  0  0  0  0  0  0  0  0  0  0
   -1.5766  -16.1646  -38.2288 O   0  0  0  0  0  0  0  0  0  0  0  0
    4.5186  -10.2616  -39.0848 Br  0  0  0  0  0  0  0  0  0  0  0  0
    3.4765  -11.7901  -38.5886 C   0  0  0  0  0  0  0  0  0  0  0  0
    2.9755  -11.9261  -37.2955 C   0  0  0  0  0  0  0  0  0  0  0  0
    2.2369  -13.0527  -37.0163 C   0  0  0  0  0  0  0  0  0  0  0  0
    1.6237  -13.4895  -35.9022 N   0  0  0  0  0  0  0  0  0  0  0  0
    1.0330  -14.6561  -36.1452 N   0  0  0  0  0  0  0  0  0  0  0  0
    1.2256  -15.0388  -37.4157 C   0  0  0  0  0  0  0  0  0  0  0  0
    2.0013  -14.0028  -37.9719 C   0  0  0  0  0  0  0  0  0  0  0  0
    2.4871  -13.8792  -39.2433 C   0  0  0  0  0  0  0  0  0  0  0  0
    3.2282  -12.7639  -39.5458 C   0  0  0  0  0  0  0  0  0  0  0  0
    0.5004  -15.1743  -35.4197 H   0  0  0  0  0  0  0  0  0  0  0  0
    1.6521  -19.1564  -39.8987 C   0  0  0  0  0  0  0  0  0  0  0  0
    0.8284  -20.0628  -39.6343 O   0  0  0  0  0  0  0  0  0  0  0  0
    2.9745  -19.4754  -40.3101 N   0  0  0  0  0  0  0  0  0  0  0  0
    3.6269  -18.6925  -40.5111 H   0  0  0  0  0  0  0  0  0  0  0  0
    3.4186  -20.8452  -40.4462 C   0  0  0  0  0  0  0  0  0  0  0  0
    3.9263  -21.4260  -39.1436 C   0  0  0  0  0  0  0  0  0  0  0  0
    5.0589  -20.6357  -38.6229 C   0  0  0  0  0  0  0  0  0  0  0  0
    4.9170  -19.5088  -37.9068 N   0  0  0  0  0  0  0  0  0  0  0  0
    6.1137  -19.0235  -37.5745 C   0  0  0  0  0  0  0  0  0  0  0  0
    7.0547  -19.8598  -38.0904 N   0  0  0  0  0  0  0  0  0  0  0  0
    6.4007  -20.8371  -38.7256 C   0  0  0  0  0  0  0  0  0  0  0  0
    8.0793  -19.6940  -37.9670 H   0  0  0  0  0  0  0  0  0  0  0  0
  7  8  1  0  0  0
  8  9  2  0  0  0
  8 16  1  0  0  0
  9 10  1  0  0  0
 10 11  2  0  0  0
 10 14  1  0  0  0
 11 12  1  0  0  0
 12 13  1  0  0  0
 13 14  2  0  0  0
 13  1  1  0  0  0
 14 15  1  0  0  0
 15 16  2  0  0  0
  1  2  1  0  0  0
  1  5  1  0  0  0
  2  3  1  0  0  0
  3  4  1  0  0  0
  3 18  1  0  0  0
  4  5  1  0  0  0
  5  6  2  0  0  0
 18 19  2  0  0  0
 18 20  1  0  0  0
 20 22  1  0  0  0
 22 23  1  0  0  0
 23 24  1  0  0  0
 24 25  1  0  0  0
 24 28  2  0  0  0
 25 26  2  0  0  0
 26 27  1  0  0  0
 27 28  1  0  0  0
 12 17  1  0  0  0
 20 21  1  0  0  0
 27 29  1  0  0  0
M  END
> <minimizedAffinity>
-6.34305

$$$$
648


 32 35  0  0  0  0  0  0  0  0999 V2000
   -1.3794  -13.5325  -38.3839 C   0  0  0  0  0  0  0  0  0  0  0  0
   -1.8344  -13.9449  -39.5111 O   0  0  0  0  0  0  0  0  0  0  0  0
   -0.0214  -13.5415  -38.2059 N   0  0  0  0  0  0  0  0  0  0  0  0
    0.6711  -13.1379  -37.0217 C   0  0  0  0  0  0  0  0  0  0  0  0
    1.2215  -14.3528  -36.3495 C   0  0  0  0  0  0  0  0  0  0  0  0
    1.4754  -15.4226  -37.3036 N   0  0  0  0  0  0  0  0  0  0  0  0
    1.6623  -15.2015  -38.6989 C   0  0  0  0  0  0  0  0  0  0  0  0
    0.8958  -14.0101  -39.2651 C   0  0  0  0  0  0  0  0  0  0  0  0
    1.4583  -16.7321  -36.7146 C   0  0  0  0  0  0  0  0  0  0  0  0
    1.1363  -16.8021  -35.4556 O   0  0  0  0  0  0  0  0  0  0  0  0
   -3.5714  -15.7763  -37.1027 Br  0  0  0  0  0  0  0  0  0  0  0  0
   -3.3478  -13.8889  -36.8056 C   0  0  0  0  0  0  0  0  0  0  0  0
   -4.0857  -13.0915  -35.9738 C   0  0  0  0  0  0  0  0  0  0  0  0
   -3.5908  -11.8535  -36.0739 N   0  0  0  0  0  0  0  0  0  0  0  0
   -2.5956  -11.8595  -36.9202 N   0  0  0  0  0  0  0  0  0  0  0  0
   -2.3723  -13.1058  -37.4311 C   0  0  0  0  0  0  0  0  0  0  0  0
   -4.1506  -10.7383  -35.3200 C   0  0  0  0  0  0  0  0  0  0  0  0
   -3.5155  -10.5685  -33.9658 C   0  0  0  0  0  0  0  0  0  0  0  0
    1.7621  -17.9388  -37.4018 C   0  0  0  0  0  0  0  0  0  0  0  0
    0.7882  -18.8217  -37.8504 N   0  0  0  0  0  0  0  0  0  0  0  0
    1.3484  -19.8582  -38.3826 N   0  0  0  0  0  0  0  0  0  0  0  0
    2.6744  -19.7679  -38.3391 C   0  0  0  0  0  0  0  0  0  0  0  0
    2.9349  -18.5347  -37.7080 C   0  0  0  0  0  0  0  0  0  0  0  0
   -0.6378  -18.6207  -37.7476 C   0  0  0  0  0  0  0  0  0  0  0  0
    3.6823  -20.6869  -38.8362 C   0  0  0  0  0  0  0  0  0  0  0  0
    4.2670  -21.4181  -37.9595 O   0  0  0  0  0  0  0  0  0  0  0  0
    4.0571  -20.8320  -40.1628 N   0  0  0  0  0  0  0  0  0  0  0  0
    5.0809  -21.8313  -40.4845 C   0  0  0  0  0  0  0  0  0  0  0  0
    6.1416  -21.0943  -41.2751 C   0  0  0  0  0  0  0  0  0  0  0  0
    5.5193  -20.7304  -42.4833 O   0  0  0  0  0  0  0  0  0  0  0  0
    4.6204  -19.7246  -42.2606 C   0  0  0  0  0  0  0  0  0  0  0  0
    3.5339  -20.0625  -41.2481 C   0  0  0  0  0  0  0  0  0  0  0  0
 11 12  1  0  0  0
 12 13  2  0  0  0
 12 16  1  0  0  0
 13 14  1  0  0  0
 14 15  1  0  0  0
 14 17  1  0  0  0
 15 16  2  0  0  0
 16  1  1  0  0  0
  1  2  2  0  0  0
  1  3  1  0  0  0
  3  4  1  0  0  0
  3  8  1  0  0  0
  4  5  1  0  0  0
  5  6  1  0  0  0
  6  7  1  0  0  0
  6  9  1  0  0  0
  7  8  1  0  0  0
  9 10  2  0  0  0
  9 19  1  0  0  0
 19 20  1  0  0  0
 19 23  2  0  0  0
 20 21  1  0  0  0
 20 24  1  0  0  0
 21 22  2  0  0  0
 22 23  1  0  0  0
 22 25  1  0  0  0
 25 26  2  0  0  0
 25 27  1  0  0  0
 27 28  1  0  0  0
 27 32  1  0  0  0
 28 29  1  0  0  0
 29 30  1  0  0  0
 30 31  1  0  0  0
 31 32  1  0  0  0
 17 18  1  0  0  0
M  END
> <minimizedAffinity>
-5.83872

$$$$
653


 29 32  0  0  0  0  0  0  0  0999 V2000
    1.6559  -17.6273  -37.7577 C   0  0  0  0  0  0  0  0  0  0  0  0
    0.8098  -17.3341  -38.7966 C   0  0  0  0  0  0  0  0  0  0  0  0
    1.0499  -17.8075  -40.0735 C   0  0  0  0  0  0  0  0  0  0  0  0
    2.1507  -18.5900  -40.3432 C   0  0  0  0  0  0  0  0  0  0  0  0
    3.0285  -18.8979  -39.2862 C   0  0  0  0  0  0  0  0  0  0  0  0
    2.7895  -18.4292  -38.0215 C   0  0  0  0  0  0  0  0  0  0  0  0
    3.7050  -18.7649  -36.9283 C   0  0  0  0  0  0  0  0  0  0  0  0
    5.0764  -19.1788  -37.2869 C   0  0  0  0  0  0  0  0  0  0  0  0
    5.1600  -19.9313  -38.5323 N   0  0  0  0  0  0  0  0  0  0  0  0
    4.2316  -19.6711  -39.5763 C   0  0  0  0  0  0  0  0  0  0  0  0
    4.4704  -20.1174  -40.7390 O   0  0  0  0  0  0  0  0  0  0  0  0
    6.2216  -20.9061  -38.6350 C   0  0  0  0  0  0  0  0  0  0  0  0
    0.0208  -17.3384  -40.8662 O   0  0  0  0  0  0  0  0  0  0  0  0
   -0.9688  -16.7255  -40.0790 C   0  0  0  0  0  0  0  0  0  0  0  0
   -0.3751  -16.5624  -38.7937 O   0  0  0  0  0  0  0  0  0  0  0  0
    2.4222  -19.0829  -41.6068 O   0  0  0  0  0  0  0  0  0  0  0  0
    1.5265  -19.9591  -42.2587 C   0  0  0  0  0  0  0  0  0  0  0  0
    1.4497  -17.1004  -36.3918 C   0  0  0  0  0  0  0  0  0  0  0  0
    0.7289  -14.6564  -36.1646 C   0  0  0  0  0  0  0  0  0  0  0  0
   -0.5204  -14.8981  -36.1264 O   0  0  0  0  0  0  0  0  0  0  0  0
    1.6571  -15.6672  -36.2890 N   0  0  0  0  0  0  0  0  0  0  0  0
    2.6906  -15.3955  -36.3104 H   0  0  0  0  0  0  0  0  0  0  0  0
    1.1518  -13.2331  -36.0710 C   0  0  0  0  0  0  0  0  0  0  0  0
    4.7239  -10.9781  -39.4924 Br  0  0  0  0  0  0  0  0  0  0  0  0
    3.4016  -12.0929  -38.6837 C   0  0  0  0  0  0  0  0  0  0  0  0
    2.8638  -11.9811  -37.4222 C   0  0  0  0  0  0  0  0  0  0  0  0
    1.9748  -12.9563  -37.2640 N   0  0  0  0  0  0  0  0  0  0  0  0
    1.9513  -13.6628  -38.3914 N   0  0  0  0  0  0  0  0  0  0  0  0
    2.8104  -13.1730  -39.2977 C   0  0  0  0  0  0  0  0  0  0  0  0
 24 25  1  0  0  0
 25 26  2  0  0  0
 25 29  1  0  0  0
 26 27  1  0  0  0
 27 28  1  0  0  0
 27 23  1  0  0  0
 28 29  2  0  0  0
 23 19  1  0  0  0
 19 20  2  0  0  0
 19 21  1  0  0  0
 21 18  1  0  0  0
 18  1  1  0  0  0
  1  2  2  0  0  0
  1  6  1  0  0  0
  2  3  1  0  0  0
  2 15  1  0  0  0
  3  4  2  0  0  0
  3 13  1  0  0  0
  4  5  1  0  0  0
  4 16  1  0  0  0
  5  6  2  0  0  0
  5 10  1  0  0  0
  6  7  1  0  0  0
  7  8  1  0  0  0
  8  9  1  0  0  0
  9 10  1  0  0  0
  9 12  1  0  0  0
 10 11  2  0  0  0
 16 17  1  0  0  0
 13 14  1  0  0  0
 14 15  1  0  0  0
 21 22  1  0  0  0
M  END
> <minimizedAffinity>
-5.97388

$$$$
662


 25 29  0  0  0  0  0  0  0  0999 V2000
    1.9338  -17.8389  -37.5522 C   0  0  0  0  0  0  0  0  0  0  0  0
    2.9131  -18.4938  -36.9084 N   0  0  0  0  0  0  0  0  0  0  0  0
    3.3459  -19.5154  -37.6473 N   0  0  0  0  0  0  0  0  0  0  0  0
    2.6224  -19.5175  -38.8036 C   0  0  0  0  0  0  0  0  0  0  0  0
    1.7656  -18.4815  -38.7194 N   0  0  0  0  0  0  0  0  0  0  0  0
    2.8894  -20.4921  -39.7416 C   0  0  0  0  0  0  0  0  0  0  0  0
    3.8585  -21.4619  -39.5547 C   0  0  0  0  0  0  0  0  0  0  0  0
    3.8898  -22.2668  -40.6303 N   0  0  0  0  0  0  0  0  0  0  0  0
    2.9719  -21.8247  -41.4749 N   0  0  0  0  0  0  0  0  0  0  0  0
    2.3402  -20.7445  -40.9701 C   0  0  0  0  0  0  0  0  0  0  0  0
    4.5448  -21.4200  -38.4017 N   0  0  0  0  0  0  0  0  0  0  0  0
    4.2819  -20.4687  -37.4908 C   0  0  0  0  0  0  0  0  0  0  0  0
    4.5081  -23.0893  -40.7964 H   0  0  0  0  0  0  0  0  0  0  0  0
    0.7434  -14.6322  -36.3724 N   0  0  0  0  0  0  0  0  0  0  0  0
    1.6972  -15.4408  -36.8001 N   0  0  0  0  0  0  0  0  0  0  0  0
    1.2110  -16.6655  -37.0641 C   0  0  0  0  0  0  0  0  0  0  0  0
   -0.1355  -16.5956  -36.7754 C   0  0  0  0  0  0  0  0  0  0  0  0
   -0.4194  -15.3051  -36.3402 C   0  0  0  0  0  0  0  0  0  0  0  0
    0.9288  -13.2282  -35.9962 C   0  0  0  0  0  0  0  0  0  0  0  0
    4.7274  -10.7843  -38.9374 Br  0  0  0  0  0  0  0  0  0  0  0  0
    3.0788  -11.4587  -38.3013 C   0  0  0  0  0  0  0  0  0  0  0  0
    2.8771  -12.1906  -37.1486 C   0  0  0  0  0  0  0  0  0  0  0  0
    1.5678  -12.4761  -37.0560 N   0  0  0  0  0  0  0  0  0  0  0  0
    0.9520  -11.9534  -38.1012 N   0  0  0  0  0  0  0  0  0  0  0  0
    1.8441  -11.3167  -38.8939 C   0  0  0  0  0  0  0  0  0  0  0  0
 20 21  1  0  0  0
 21 22  2  0  0  0
 21 25  1  0  0  0
 22 23  1  0  0  0
 23 24  1  0  0  0
 23 19  1  0  0  0
 24 25  2  0  0  0
 19 14  1  0  0  0
 14 15  1  0  0  0
 14 18  1  0  0  0
 15 16  2  0  0  0
 16 17  1  0  0  0
 16  1  1  0  0  0
 17 18  2  0  0  0
  1  2  2  0  0  0
  1  5  1  0  0  0
  2  3  1  0  0  0
  3  4  1  0  0  0
  3 12  1  0  0  0
  4  5  2  0  0  0
  4  6  1  0  0  0
  6  7  2  0  0  0
  6 10  1  0  0  0
  7  8  1  0  0  0
  7 11  1  0  0  0
  8  9  1  0  0  0
  9 10  2  0  0  0
 11 12  2  0  0  0
  8 13  1  0  0  0
M  END
> <minimizedAffinity>
-6.06674

$$$$
663


 28 31  0  0  0  0  0  0  0  0999 V2000
    0.9032  -15.0156  -37.4732 C   0  0  0  0  0  0  0  0  0  0  0  0
    0.2969  -14.8295  -36.3441 O   0  0  0  0  0  0  0  0  0  0  0  0
    0.5937  -16.1925  -38.1336 N   0  0  0  0  0  0  0  0  0  0  0  0
    1.0154  -16.7089  -39.4078 C   0  0  0  0  0  0  0  0  0  0  0  0
    2.1060  -17.7271  -39.1369 C   0  0  0  0  0  0  0  0  0  0  0  0
    1.7905  -18.5176  -37.8831 C   0  0  0  0  0  0  0  0  0  0  0  0
    2.1881  -19.8865  -38.1295 N   0  0  0  0  0  0  0  0  0  0  0  0
    3.5716  -19.9989  -37.8315 C   0  0  0  0  0  0  0  0  0  0  0  0
    4.3893  -20.8931  -38.2251 O   0  0  0  0  0  0  0  0  0  0  0  0
    3.8991  -18.8910  -36.9781 N   0  0  0  0  0  0  0  0  0  0  0  0
    2.6897  -18.1278  -36.7811 C   0  0  0  0  0  0  0  0  0  0  0  0
    2.5122  -17.3203  -35.8438 O   0  0  0  0  0  0  0  0  0  0  0  0
    0.3410  -18.5037  -37.5184 C   0  0  0  0  0  0  0  0  0  0  0  0
   -0.2971  -17.1596  -37.4189 C   0  0  0  0  0  0  0  0  0  0  0  0
    1.6032  -20.6765  -38.4642 H   0  0  0  0  0  0  0  0  0  0  0  0
    4.8178  -18.6372  -36.5537 H   0  0  0  0  0  0  0  0  0  0  0  0
    3.5172  -11.8607  -38.7824 C   0  0  0  0  0  0  0  0  0  0  0  0
    3.0393  -12.8309  -39.6290 C   0  0  0  0  0  0  0  0  0  0  0  0
    2.2182  -13.8350  -39.1902 C   0  0  0  0  0  0  0  0  0  0  0  0
    1.8049  -13.9498  -37.8468 C   0  0  0  0  0  0  0  0  0  0  0  0
    2.2889  -12.9718  -37.0099 C   0  0  0  0  0  0  0  0  0  0  0  0
    3.1310  -11.9481  -37.4724 C   0  0  0  0  0  0  0  0  0  0  0  0
    7.7036   -9.2519  -41.0447 Br  0  0  0  0  0  0  0  0  0  0  0  0
    6.0423   -9.6892  -40.1753 C   0  0  0  0  0  0  0  0  0  0  0  0
    5.5629  -10.9445  -39.8711 C   0  0  0  0  0  0  0  0  0  0  0  0
    4.3672  -10.8309  -39.2656 N   0  0  0  0  0  0  0  0  0  0  0  0
    4.1050   -9.5433  -39.1917 N   0  0  0  0  0  0  0  0  0  0  0  0
    5.0811   -8.8116  -39.7251 C   0  0  0  0  0  0  0  0  0  0  0  0
 23 24  1  0  0  0
 24 25  2  0  0  0
 24 28  1  0  0  0
 25 26  1  0  0  0
 26 27  1  0  0  0
 26 17  1  0  0  0
 27 28  2  0  0  0
 17 18  2  0  0  0
 17 22  1  0  0  0
 18 19  1  0  0  0
 19 20  2  0  0  0
 20 21  1  0  0  0
 20  1  1  0  0  0
 21 22  2  0  0  0
  1  2  2  0  0  0
  1  3  1  0  0  0
  3  4  1  0  0  0
  3 14  1  0  0  0
  4  5  1  0  0  0
  5  6  1  0  0  0
  6  7  1  0  0  0
  6 11  1  0  0  0
  6 13  1  0  0  0
  7  8  1  0  0  0
  8  9  2  0  0  0
  8 10  1  0  0  0
 10 11  1  0  0  0
 11 12  2  0  0  0
 13 14  1  0  0  0
  7 15  1  0  0  0
 10 16  1  0  0  0
M  END
> <minimizedAffinity>
-6.90304

$$$$
666


 28 31  0  0  0  0  0  0  0  0999 V2000
    1.6005  -17.1486  -36.9572 C   0  0  0  0  0  0  0  0  0  0  0  0
    1.2589  -17.2401  -38.2084 C   0  0  0  0  0  0  0  0  0  0  0  0
    2.2065  -18.1642  -38.8338 C   0  0  0  0  0  0  0  0  0  0  0  0
    2.1732  -18.4888  -40.0616 O   0  0  0  0  0  0  0  0  0  0  0  0
    3.1648  -18.6438  -37.8794 N   0  0  0  0  0  0  0  0  0  0  0  0
    2.7822  -17.9960  -36.6668 C   0  0  0  0  0  0  0  0  0  0  0  0
    3.3493  -18.1235  -35.5497 O   0  0  0  0  0  0  0  0  0  0  0  0
    4.2394  -19.5414  -38.1073 C   0  0  0  0  0  0  0  0  0  0  0  0
    5.5587  -19.1845  -37.9948 C   0  0  0  0  0  0  0  0  0  0  0  0
    6.6015  -20.1091  -38.2124 C   0  0  0  0  0  0  0  0  0  0  0  0
    6.3177  -21.4134  -38.5479 C   0  0  0  0  0  0  0  0  0  0  0  0
    4.9998  -21.7755  -38.6613 C   0  0  0  0  0  0  0  0  0  0  0  0
    3.9808  -20.8473  -38.4426 C   0  0  0  0  0  0  0  0  0  0  0  0
    0.1774  -16.5982  -38.8872 N   0  0  0  0  0  0  0  0  0  0  0  0
    0.4108  -15.5099  -39.6429 C   0  0  0  0  0  0  0  0  0  0  0  0
   -0.6313  -14.8498  -40.3169 C   0  0  0  0  0  0  0  0  0  0  0  0
   -1.9272  -15.3183  -40.2072 C   0  0  0  0  0  0  0  0  0  0  0  0
   -2.1407  -16.4349  -39.4276 C   0  0  0  0  0  0  0  0  0  0  0  0
   -1.0967  -17.0495  -38.7878 C   0  0  0  0  0  0  0  0  0  0  0  0
    1.0052  -16.3844  -35.9257 N   0  0  0  0  0  0  0  0  0  0  0  0
    0.7734  -16.8090  -35.0282 H   0  0  0  0  0  0  0  0  0  0  0  0
   -0.0385  -10.4385  -36.9518 Br  0  0  0  0  0  0  0  0  0  0  0  0
    0.2808  -12.2979  -36.6437 C   0  0  0  0  0  0  0  0  0  0  0  0
    1.5468  -12.8170  -36.5778 C   0  0  0  0  0  0  0  0  0  0  0  0
    1.7456  -14.1208  -36.3537 N   0  0  0  0  0  0  0  0  0  0  0  0
    0.7392  -15.0183  -36.1768 C   0  0  0  0  0  0  0  0  0  0  0  0
   -0.5509  -14.4786  -36.2482 C   0  0  0  0  0  0  0  0  0  0  0  0
   -0.7862  -13.1497  -36.4745 C   0  0  0  0  0  0  0  0  0  0  0  0
 22 23  1  0  0  0
 23 24  2  0  0  0
 23 28  1  0  0  0
 24 25  1  0  0  0
 25 26  2  0  0  0
 26 27  1  0  0  0
 26 20  1  0  0  0
 27 28  2  0  0  0
 20  1  1  0  0  0
  1  2  2  0  0  0
  1  6  1  0  0  0
  2  3  1  0  0  0
  2 14  1  0  0  0
  3  4  2  0  0  0
  3  5  1  0  0  0
  5  6  1  0  0  0
  5  8  1  0  0  0
  6  7  2  0  0  0
  8  9  2  0  0  0
  8 13  1  0  0  0
  9 10  1  0  0  0
 10 11  2  0  0  0
 11 12  1  0  0  0
 12 13  2  0  0  0
 14 15  2  0  0  0
 14 19  1  0  0  0
 15 16  1  0  0  0
 16 17  2  0  0  0
 17 18  1  0  0  0
 18 19  2  0  0  0
 20 21  1  0  0  0
M  END
> <minimizedAffinity>
-6.45954

$$$$
670


 23 26  0  0  0  0  0  0  0  0999 V2000
    1.9745  -17.4325  -35.7926 C   0  0  0  0  0  0  0  0  0  0  0  0
    1.2585  -16.2290  -36.1243 N   0  0  0  0  0  0  0  0  0  0  0  0
    1.9516  -15.0614  -36.4434 N   0  0  0  0  0  0  0  0  0  0  0  0
    1.2888  -13.8497  -36.7774 C   0  0  0  0  0  0  0  0  0  0  0  0
    1.9929  -12.7736  -37.0715 C   0  0  0  0  0  0  0  0  0  0  0  0
    3.2205  -11.9821  -37.2866 C   0  0  0  0  0  0  0  0  0  0  0  0
    1.9424  -11.3133  -37.4732 C   0  0  0  0  0  0  0  0  0  0  0  0
   -0.1596  -13.7898  -36.7967 C   0  0  0  0  0  0  0  0  0  0  0  0
   -0.8381  -14.8855  -36.4967 C   0  0  0  0  0  0  0  0  0  0  0  0
   -0.1587  -16.1504  -36.1491 C   0  0  0  0  0  0  0  0  0  0  0  0
   -0.8281  -17.1795  -35.8674 O   0  0  0  0  0  0  0  0  0  0  0  0
    3.0118  -15.1138  -36.4268 H   0  0  0  0  0  0  0  0  0  0  0  0
    3.4680  -19.3569  -38.1125 N   0  0  0  0  0  0  0  0  0  0  0  0
    3.7786  -18.9474  -36.7733 C   0  0  0  0  0  0  0  0  0  0  0  0
    2.7564  -17.8507  -36.9976 C   0  0  0  0  0  0  0  0  0  0  0  0
    2.1186  -18.9585  -37.8287 C   0  0  0  0  0  0  0  0  0  0  0  0
    6.5319  -21.7550  -42.8003 Br  0  0  0  0  0  0  0  0  0  0  0  0
    5.5655  -21.0147  -41.3246 C   0  0  0  0  0  0  0  0  0  0  0  0
    5.5783  -19.6583  -41.0910 C   0  0  0  0  0  0  0  0  0  0  0  0
    4.9013  -19.1657  -40.0624 N   0  0  0  0  0  0  0  0  0  0  0  0
    4.1739  -19.8987  -39.1920 C   0  0  0  0  0  0  0  0  0  0  0  0
    4.1664  -21.2439  -39.4289 N   0  0  0  0  0  0  0  0  0  0  0  0
    4.8342  -21.7973  -40.4570 C   0  0  0  0  0  0  0  0  0  0  0  0
 17 18  1  0  0  0
 18 19  2  0  0  0
 18 23  1  0  0  0
 19 20  1  0  0  0
 20 21  2  0  0  0
 21 22  1  0  0  0
 21 13  1  0  0  0
 22 23  2  0  0  0
 13 14  1  0  0  0
 13 16  1  0  0  0
 14 15  1  0  0  0
 15 16  1  0  0  0
 15  1  1  0  0  0
  1  2  1  0  0  0
  2  3  1  0  0  0
  2 10  1  0  0  0
  3  4  1  0  0  0
  4  5  2  0  0  0
  4  8  1  0  0  0
  5  6  1  0  0  0
  5  7  1  0  0  0
  6  7  1  0  0  0
  8  9  2  0  0  0
  9 10  1  0  0  0
 10 11  2  0  0  0
  3 12  1  0  0  0
M  END
> <minimizedAffinity>
-6.01862

$$$$
677


 29 32  0  0  0  0  0  0  0  0999 V2000
    2.6174  -18.7183  -37.8027 C   0  0  0  0  0  0  0  0  0  0  0  0
    1.4339  -18.9687  -38.5842 C   0  0  0  0  0  0  0  0  0  0  0  0
    1.4692  -19.8660  -39.5876 C   0  0  0  0  0  0  0  0  0  0  0  0
    2.6482  -20.5710  -39.8913 C   0  0  0  0  0  0  0  0  0  0  0  0
    3.7869  -20.3431  -39.1575 C   0  0  0  0  0  0  0  0  0  0  0  0
    3.7627  -19.4077  -38.1106 C   0  0  0  0  0  0  0  0  0  0  0  0
    5.0077  -19.0797  -37.3694 C   0  0  0  0  0  0  0  0  0  0  0  0
    6.2809  -19.4974  -38.0975 C   0  0  0  0  0  0  0  0  0  0  0  0
    6.1835  -20.8419  -38.6155 N   0  0  0  0  0  0  0  0  0  0  0  0
    5.0199  -21.0790  -39.4200 C   0  0  0  0  0  0  0  0  0  0  0  0
    5.1342  -21.9294  -40.3267 O   0  0  0  0  0  0  0  0  0  0  0  0
    7.1750  -21.8605  -38.3441 C   0  0  0  0  0  0  0  0  0  0  0  0
    2.6018  -21.4511  -40.9075 O   0  0  0  0  0  0  0  0  0  0  0  0
    0.1886  -19.8960  -40.1609 O   0  0  0  0  0  0  0  0  0  0  0  0
   -0.7204  -19.1915  -39.3419 C   0  0  0  0  0  0  0  0  0  0  0  0
    0.1438  -18.4340  -38.5181 O   0  0  0  0  0  0  0  0  0  0  0  0
    3.2715  -22.0296  -41.2837 H   0  0  0  0  0  0  0  0  0  0  0  0
    2.3689  -17.7349  -36.7702 C   0  0  0  0  0  0  0  0  0  0  0  0
    0.8362  -15.9323  -36.2082 C   0  0  0  0  0  0  0  0  0  0  0  0
    0.2762  -16.7297  -35.4375 O   0  0  0  0  0  0  0  0  0  0  0  0
    2.0026  -16.4037  -36.9828 N   0  0  0  0  0  0  0  0  0  0  0  0
    2.4032  -15.6450  -37.5534 H   0  0  0  0  0  0  0  0  0  0  0  0
   -3.1589  -12.4229  -36.6031 Br  0  0  0  0  0  0  0  0  0  0  0  0
   -1.3126  -12.9051  -36.5244 C   0  0  0  0  0  0  0  0  0  0  0  0
   -0.3461  -11.9522  -36.5898 C   0  0  0  0  0  0  0  0  0  0  0  0
    0.9456  -12.2738  -36.5360 N   0  0  0  0  0  0  0  0  0  0  0  0
    1.3058  -13.5597  -36.4153 C   0  0  0  0  0  0  0  0  0  0  0  0
    0.3598  -14.5762  -36.3438 C   0  0  0  0  0  0  0  0  0  0  0  0
   -0.9765  -14.2523  -36.3982 C   0  0  0  0  0  0  0  0  0  0  0  0
 23 24  1  0  0  0
 24 25  2  0  0  0
 24 29  1  0  0  0
 25 26  1  0  0  0
 26 27  2  0  0  0
 27 28  1  0  0  0
 28 29  2  0  0  0
 28 19  1  0  0  0
 19 20  2  0  0  0
 19 21  1  0  0  0
 21 18  1  0  0  0
 18  1  1  0  0  0
  1  2  2  0  0  0
  1  6  1  0  0  0
  2  3  1  0  0  0
  2 16  1  0  0  0
  3  4  2  0  0  0
  3 14  1  0  0  0
  4  5  1  0  0  0
  4 13  1  0  0  0
  5  6  2  0  0  0
  5 10  1  0  0  0
  6  7  1  0  0  0
  7  8  1  0  0  0
  8  9  1  0  0  0
  9 10  1  0  0  0
  9 12  1  0  0  0
 10 11  2  0  0  0
 14 15  1  0  0  0
 15 16  1  0  0  0
 21 22  1  0  0  0
 13 17  1  0  0  0
M  END
> <minimizedAffinity>
-6.56181

$$$$
680


 24 27  0  0  0  0  0  0  0  0999 V2000
    4.4574  -21.0246  -39.1507 C   0  0  0  0  0  0  0  0  0  0  0  0
    4.6836  -21.9919  -38.3343 O   0  0  0  0  0  0  0  0  0  0  0  0
    3.6554  -19.9639  -38.6894 N   0  0  0  0  0  0  0  0  0  0  0  0
    3.1082  -18.7287  -39.1569 C   0  0  0  0  0  0  0  0  0  0  0  0
    1.9740  -18.9253  -38.1348 C   0  0  0  0  0  0  0  0  0  0  0  0
    3.0195  -19.6651  -37.3900 C   0  0  0  0  0  0  0  0  0  0  0  0
    1.5265  -17.6748  -37.5864 N   0  0  0  0  0  0  0  0  0  0  0  0
    1.7762  -17.1332  -36.2757 C   0  0  0  0  0  0  0  0  0  0  0  0
    2.7497  -17.4257  -35.5600 O   0  0  0  0  0  0  0  0  0  0  0  0
    0.6393  -16.1859  -36.0091 C   0  0  0  0  0  0  0  0  0  0  0  0
    0.4810  -15.5703  -37.3793 C   0  0  0  0  0  0  0  0  0  0  0  0
   -0.8831  -14.9615  -37.5502 C   0  0  0  0  0  0  0  0  0  0  0  0
   -1.9237  -16.0067  -37.3567 C   0  0  0  0  0  0  0  0  0  0  0  0
   -1.7085  -16.9234  -36.4356 C   0  0  0  0  0  0  0  0  0  0  0  0
   -0.5227  -17.0108  -35.5718 C   0  0  0  0  0  0  0  0  0  0  0  0
    0.7274  -16.7180  -38.2733 C   0  0  0  0  0  0  0  0  0  0  0  0
    0.2785  -16.7874  -39.4439 O   0  0  0  0  0  0  0  0  0  0  0  0
    5.2377  -23.8351  -43.6966 Br  0  0  0  0  0  0  0  0  0  0  0  0
    5.4882  -22.3371  -42.5491 C   0  0  0  0  0  0  0  0  0  0  0  0
    6.2860  -21.2985  -42.9662 C   0  0  0  0  0  0  0  0  0  0  0  0
    6.4741  -20.2220  -42.1610 N   0  0  0  0  0  0  0  0  0  0  0  0
    5.8961  -20.1504  -40.9571 C   0  0  0  0  0  0  0  0  0  0  0  0
    5.0686  -21.1620  -40.4516 C   0  0  0  0  0  0  0  0  0  0  0  0
    4.9016  -22.2348  -41.2976 C   0  0  0  0  0  0  0  0  0  0  0  0
 18 19  1  0  0  0
 19 20  2  0  0  0
 19 24  1  0  0  0
 20 21  1  0  0  0
 21 22  2  0  0  0
 22 23  1  0  0  0
 23 24  2  0  0  0
 23  1  1  0  0  0
  1  2  2  0  0  0
  1  3  1  0  0  0
  3  4  1  0  0  0
  3  6  1  0  0  0
  4  5  1  0  0  0
  5  6  1  0  0  0
  5  7  1  0  0  0
  7  8  1  0  0  0
  7 16  1  0  0  0
  8  9  2  0  0  0
  8 10  1  0  0  0
 10 11  1  0  0  0
 10 15  1  0  0  0
 11 12  1  0  0  0
 11 16  1  0  0  0
 12 13  1  0  0  0
 13 14  2  0  0  0
 14 15  1  0  0  0
 16 17  2  0  0  0
M  END
> <minimizedAffinity>
-6.38880

$$$$
681


 25 28  0  0  0  0  0  0  0  0999 V2000
    3.0161  -18.9100  -37.4301 C   0  0  0  0  0  0  0  0  0  0  0  0
    3.8136  -18.8358  -36.4443 O   0  0  0  0  0  0  0  0  0  0  0  0
    3.2848  -19.8415  -38.4407 N   0  0  0  0  0  0  0  0  0  0  0  0
    2.7468  -20.3231  -39.6852 C   0  0  0  0  0  0  0  0  0  0  0  0
    3.7478  -21.4667  -39.7494 C   0  0  0  0  0  0  0  0  0  0  0  0
    4.4126  -20.7818  -38.5941 C   0  0  0  0  0  0  0  0  0  0  0  0
    1.2514  -14.0067  -36.3696 Br  0  0  0  0  0  0  0  0  0  0  0  0
    0.9896  -15.8084  -36.9863 C   0  0  0  0  0  0  0  0  0  0  0  0
   -0.2654  -16.1812  -37.4097 C   0  0  0  0  0  0  0  0  0  0  0  0
   -0.4224  -17.4400  -37.8344 N   0  0  0  0  0  0  0  0  0  0  0  0
    0.6059  -18.3374  -37.8565 C   0  0  0  0  0  0  0  0  0  0  0  0
    1.8782  -18.0251  -37.4484 C   0  0  0  0  0  0  0  0  0  0  0  0
    2.0328  -16.6989  -37.0039 C   0  0  0  0  0  0  0  0  0  0  0  0
    4.5017  -21.5807  -40.9156 O   0  0  0  0  0  0  0  0  0  0  0  0
    4.4812  -22.6422  -41.7969 C   0  0  0  0  0  0  0  0  0  0  0  0
    3.3594  -23.3370  -41.9678 C   0  0  0  0  0  0  0  0  0  0  0  0
    3.2740  -24.4674  -42.8837 C   0  0  0  0  0  0  0  0  0  0  0  0
    2.1429  -25.1347  -43.0298 C   0  0  0  0  0  0  0  0  0  0  0  0
    4.4469  -24.8183  -43.6045 N   0  0  0  0  0  0  0  0  0  0  0  0
    5.6432  -24.0510  -43.3989 C   0  0  0  0  0  0  0  0  0  0  0  0
    5.6566  -23.0210  -42.5409 N   0  0  0  0  0  0  0  0  0  0  0  0
    6.8811  -22.4841  -42.5325 N   0  0  0  0  0  0  0  0  0  0  0  0
    7.6254  -23.1902  -43.3909 C   0  0  0  0  0  0  0  0  0  0  0  0
    6.8677  -24.1533  -43.9247 N   0  0  0  0  0  0  0  0  0  0  0  0
    4.3980  -25.6184  -44.2575 H   0  0  0  0  0  0  0  0  0  0  0  0
  7  8  1  0  0  0
  8  9  2  0  0  0
  8 13  1  0  0  0
  9 10  1  0  0  0
 10 11  2  0  0  0
 11 12  1  0  0  0
 12 13  2  0  0  0
 12  1  1  0  0  0
  1  2  2  0  0  0
  1  3  1  0  0  0
  3  4  1  0  0  0
  3  6  1  0  0  0
  4  5  1  0  0  0
  5  6  1  0  0  0
  5 14  1  0  0  0
 14 15  1  0  0  0
 15 16  2  0  0  0
 15 21  1  0  0  0
 16 17  1  0  0  0
 17 18  2  0  0  0
 17 19  1  0  0  0
 19 20  1  0  0  0
 20 21  1  0  0  0
 20 24  2  0  0  0
 21 22  1  0  0  0
 22 23  2  0  0  0
 23 24  1  0  0  0
 19 25  1  0  0  0
M  END
> <minimizedAffinity>
-5.98031

$$$$
683


 20 22  0  0  0  0  0  0  0  0999 V2000
    0.5588  -15.1670  -39.4376 N   0  0  0  0  0  0  0  0  0  0  0  0
    0.9508  -13.8243  -39.0420 C   0  0  0  0  0  0  0  0  0  0  0  0
    2.0602  -13.8352  -38.0147 C   0  0  0  0  0  0  0  0  0  0  0  0
    1.4727  -13.8762  -36.6149 C   0  0  0  0  0  0  0  0  0  0  0  0
    0.9412  -15.2552  -36.2954 C   0  0  0  0  0  0  0  0  0  0  0  0
    1.4379  -16.2150  -37.2939 C   0  0  0  0  0  0  0  0  0  0  0  0
    1.2599  -16.1579  -38.6553 C   0  0  0  0  0  0  0  0  0  0  0  0
    1.7799  -17.1167  -39.4257 N   0  0  0  0  0  0  0  0  0  0  0  0
    2.4725  -18.1404  -38.9188 C   0  0  0  0  0  0  0  0  0  0  0  0
    2.6622  -18.2179  -37.5629 C   0  0  0  0  0  0  0  0  0  0  0  0
    2.1361  -17.2412  -36.7420 C   0  0  0  0  0  0  0  0  0  0  0  0
    2.3463  -17.3425  -35.3245 N   0  0  0  0  0  0  0  0  0  0  0  0
    3.3756  -19.2624  -36.9811 C   0  0  0  0  0  0  0  0  0  0  0  0
    3.8921  -20.2269  -37.8098 C   0  0  0  0  0  0  0  0  0  0  0  0
    3.7018  -20.1482  -39.1676 C   0  0  0  0  0  0  0  0  0  0  0  0
    2.9859  -19.0976  -39.7397 C   0  0  0  0  0  0  0  0  0  0  0  0
    0.9547  -15.3514  -40.8296 C   0  0  0  0  0  0  0  0  0  0  0  0
   -0.4749  -15.2893  -39.3381 H   0  0  0  0  0  0  0  0  0  0  0  0
    2.9132  -16.6298  -34.8386 H   0  0  0  0  0  0  0  0  0  0  0  0
    1.9348  -18.1300  -34.7728 H   0  0  0  0  0  0  0  0  0  0  0  0
  1  2  1  0  0  0
  1  7  1  0  0  0
  1 17  1  0  0  0
  2  3  1  0  0  0
  3  4  1  0  0  0
  4  5  1  0  0  0
  5  6  1  0  0  0
  6  7  2  0  0  0
  6 11  1  0  0  0
  7  8  1  0  0  0
  8  9  2  0  0  0
  9 10  1  0  0  0
  9 16  1  0  0  0
 10 11  2  0  0  0
 10 13  1  0  0  0
 11 12  1  0  0  0
 13 14  2  0  0  0
 14 15  1  0  0  0
 15 16  2  0  0  0
  1 18  1  0  0  0
 12 19  1  0  0  0
 12 20  1  0  0  0
M  CHG 1   1   1
M  END
> <minimizedAffinity>
-5.72143

$$$$
684


 19 21  0  0  0  0  0  0  0  0999 V2000
    4.8997  -22.0075  -39.3395 N   0  0  0  0  0  0  0  0  0  0  0  0
    5.2160  -21.8819  -40.7743 C   0  0  0  0  0  0  0  0  0  0  0  0
    4.0544  -22.3888  -41.5644 C   0  0  0  0  0  0  0  0  0  0  0  0
    2.8413  -21.5529  -41.2565 C   0  0  0  0  0  0  0  0  0  0  0  0
    2.9613  -20.7233  -40.0461 C   0  0  0  0  0  0  0  0  0  0  0  0
    3.9536  -20.9421  -39.1169 C   0  0  0  0  0  0  0  0  0  0  0  0
    4.0046  -20.1560  -38.0435 N   0  0  0  0  0  0  0  0  0  0  0  0
    3.1340  -19.1505  -37.8112 C   0  0  0  0  0  0  0  0  0  0  0  0
    2.1271  -18.9028  -38.7204 C   0  0  0  0  0  0  0  0  0  0  0  0
    2.0355  -19.6905  -39.8464 C   0  0  0  0  0  0  0  0  0  0  0  0
    0.9953  -19.4317  -40.7821 N   0  0  0  0  0  0  0  0  0  0  0  0
    1.2250  -17.8639  -38.4832 C   0  0  0  0  0  0  0  0  0  0  0  0
    1.2994  -17.0644  -37.3643 C   0  0  0  0  0  0  0  0  0  0  0  0
    2.3087  -17.3175  -36.4576 C   0  0  0  0  0  0  0  0  0  0  0  0
    3.2053  -18.3491  -36.6923 C   0  0  0  0  0  0  0  0  0  0  0  0
    6.1424  -21.7661  -38.6354 C   0  0  0  0  0  0  0  0  0  0  0  0
    4.4959  -22.9367  -39.1351 H   0  0  0  0  0  0  0  0  0  0  0  0
    1.0677  -18.5501  -41.3362 H   0  0  0  0  0  0  0  0  0  0  0  0
    0.1853  -20.0456  -40.9492 H   0  0  0  0  0  0  0  0  0  0  0  0
  1  2  1  0  0  0
  1  6  1  0  0  0
  1 16  1  0  0  0
  2  3  1  0  0  0
  3  4  1  0  0  0
  4  5  1  0  0  0
  5  6  2  0  0  0
  5 10  1  0  0  0
  6  7  1  0  0  0
  7  8  2  0  0  0
  8  9  1  0  0  0
  8 15  1  0  0  0
  9 10  2  0  0  0
  9 12  1  0  0  0
 10 11  1  0  0  0
 12 13  2  0  0  0
 13 14  1  0  0  0
 14 15  2  0  0  0
  1 17  1  0  0  0
 11 18  1  0  0  0
 11 19  1  0  0  0
M  CHG 1   1   1
M  END
> <minimizedAffinity>
-5.68830

$$$$
692


 29 32  0  0  0  0  0  0  0  0999 V2000
    3.5012  -13.3351  -42.0621 Br  0  0  0  0  0  0  0  0  0  0  0  0
    3.1386  -13.1278  -40.2087 C   0  0  0  0  0  0  0  0  0  0  0  0
    2.3452  -14.0568  -39.5632 C   0  0  0  0  0  0  0  0  0  0  0  0
    2.0377  -13.9619  -38.1976 C   0  0  0  0  0  0  0  0  0  0  0  0
    2.5403  -12.9108  -37.4719 C   0  0  0  0  0  0  0  0  0  0  0  0
    3.3345  -11.9784  -38.1113 C   0  0  0  0  0  0  0  0  0  0  0  0
    3.6367  -12.0711  -39.4522 C   0  0  0  0  0  0  0  0  0  0  0  0
    4.0485  -10.5087  -37.1355 Br  0  0  0  0  0  0  0  0  0  0  0  0
    1.1842  -14.9597  -37.5641 C   0  0  0  0  0  0  0  0  0  0  0  0
    0.6006  -14.5930  -36.5075 O   0  0  0  0  0  0  0  0  0  0  0  0
    1.0090  -16.3009  -38.1098 C   0  0  0  0  0  0  0  0  0  0  0  0
    1.7176  -16.3702  -39.4888 C   0  0  0  0  0  0  0  0  0  0  0  0
    1.7704  -15.1653  -40.1603 O   0  0  0  0  0  0  0  0  0  0  0  0
    1.5775  -17.4198  -37.3649 C   0  0  0  0  0  0  0  0  0  0  0  0
    2.3187  -18.4739  -37.8824 N   0  0  0  0  0  0  0  0  0  0  0  0
    1.6751  -19.6535  -38.3701 C   0  0  0  0  0  0  0  0  0  0  0  0
    2.6569  -20.2871  -39.3891 C   0  0  0  0  0  0  0  0  0  0  0  0
    3.7669  -20.8831  -38.5486 C   0  0  0  0  0  0  0  0  0  0  0  0
    3.7809  -20.3099  -37.1490 C   0  0  0  0  0  0  0  0  0  0  0  0
    3.5281  -18.8175  -37.1488 C   0  0  0  0  0  0  0  0  0  0  0  0
    2.7327  -18.0616  -38.7982 H   0  0  0  0  0  0  0  0  0  0  0  0
   -0.4799  -16.5263  -38.3219 C   0  0  0  0  0  0  0  0  0  0  0  0
   -1.0510  -17.4467  -37.3697 N   0  0  0  0  0  0  0  0  0  0  0  0
   -1.8615  -18.4052  -38.1072 C   0  0  0  0  0  0  0  0  0  0  0  0
   -2.8436  -17.6651  -38.9531 C   0  0  0  0  0  0  0  0  0  0  0  0
   -3.6837  -16.6776  -38.2299 C   0  0  0  0  0  0  0  0  0  0  0  0
   -3.0126  -15.9633  -37.1081 C   0  0  0  0  0  0  0  0  0  0  0  0
   -1.9787  -16.8374  -36.4341 C   0  0  0  0  0  0  0  0  0  0  0  0
   -0.3212  -17.9100  -36.7998 H   0  0  0  0  0  0  0  0  0  0  0  0
  1  2  1  0  0  0
  2  3  2  0  0  0
  2  7  1  0  0  0
  3  4  1  0  0  0
  3 13  1  0  0  0
  4  5  2  0  0  0
  4  9  1  0  0  0
  5  6  1  0  0  0
  6  7  2  0  0  0
  6  8  1  0  0  0
  9 10  2  0  0  0
  9 11  1  0  0  0
 11 12  1  0  0  0
 11 14  1  0  0  0
 11 22  1  0  0  0
 12 13  1  0  0  0
 14 15  1  0  0  0
 15 16  1  0  0  0
 15 20  1  0  0  0
 16 17  1  0  0  0
 17 18  1  0  0  0
 18 19  1  0  0  0
 19 20  1  0  0  0
 22 23  1  0  0  0
 23 24  1  0  0  0
 23 28  1  0  0  0
 24 25  1  0  0  0
 25 26  1  0  0  0
 26 27  1  0  0  0
 27 28  1  0  0  0
 15 21  1  0  0  0
 23 29  1  0  0  0
M  CHG 1  15   1
M  CHG 1  23   1
M  END
> <minimizedAffinity>
-6.08699

$$$$
693


 33 36  0  0  0  0  0  0  0  0999 V2000
    4.2653  -19.2022  -39.2794 N   0  0  0  0  0  0  0  0  0  0  0  0
    4.7190  -19.1525  -37.9426 C   0  0  0  0  0  0  0  0  0  0  0  0
    5.9413  -19.1248  -37.6894 O   0  0  0  0  0  0  0  0  0  0  0  0
    3.2629  -19.2275  -39.5638 H   0  0  0  0  0  0  0  0  0  0  0  0
    7.1071  -24.0140  -44.2111 Br  0  0  0  0  0  0  0  0  0  0  0  0
    7.1871  -22.2115  -43.5722 C   0  0  0  0  0  0  0  0  0  0  0  0
    6.3782  -21.7697  -42.5453 C   0  0  0  0  0  0  0  0  0  0  0  0
    6.4289  -20.4691  -42.0733 C   0  0  0  0  0  0  0  0  0  0  0  0
    7.3338  -19.6286  -42.6844 C   0  0  0  0  0  0  0  0  0  0  0  0
    8.1563  -20.0324  -43.7119 C   0  0  0  0  0  0  0  0  0  0  0  0
    8.0937  -21.3375  -44.1722 C   0  0  0  0  0  0  0  0  0  0  0  0
    9.3914  -18.8151  -44.5162 Br  0  0  0  0  0  0  0  0  0  0  0  0
    5.4782  -20.2680  -40.9900 C   0  0  0  0  0  0  0  0  0  0  0  0
    5.2230  -19.2218  -40.2977 N   0  0  0  0  0  0  0  0  0  0  0  0
    4.8091  -21.5605  -40.8059 C   0  0  0  0  0  0  0  0  0  0  0  0
    3.9124  -21.7708  -39.9457 O   0  0  0  0  0  0  0  0  0  0  0  0
    5.3859  -22.4259  -41.7635 N   0  0  0  0  0  0  0  0  0  0  0  0
    5.1204  -23.4179  -41.8844 H   0  0  0  0  0  0  0  0  0  0  0  0
    3.7782  -19.1308  -36.7780 C   0  0  0  0  0  0  0  0  0  0  0  0
    2.9340  -17.9680  -36.7905 N   0  0  0  0  0  0  0  0  0  0  0  0
    1.6852  -17.9278  -37.4683 C   0  0  0  0  0  0  0  0  0  0  0  0
    1.3083  -18.9517  -38.0788 O   0  0  0  0  0  0  0  0  0  0  0  0
    3.2105  -17.0903  -36.2909 H   0  0  0  0  0  0  0  0  0  0  0  0
    0.7986  -16.7260  -37.4925 C   0  0  0  0  0  0  0  0  0  0  0  0
    1.1709  -15.8228  -38.4908 O   0  0  0  0  0  0  0  0  0  0  0  0
    1.7460  -14.5747  -38.2615 C   0  0  0  0  0  0  0  0  0  0  0  0
    1.6045  -14.0471  -37.0052 C   0  0  0  0  0  0  0  0  0  0  0  0
    2.1695  -12.7980  -36.7473 C   0  0  0  0  0  0  0  0  0  0  0  0
    2.8560  -12.0855  -37.7039 C   0  0  0  0  0  0  0  0  0  0  0  0
    2.9780  -12.6496  -38.9590 C   0  0  0  0  0  0  0  0  0  0  0  0
    2.4234  -13.8809  -39.2190 C   0  0  0  0  0  0  0  0  0  0  0  0
    0.9238  -14.7469  -36.0476 O   0  0  0  0  0  0  0  0  0  0  0  0
    0.6295  -16.1129  -36.1468 C   0  0  0  0  0  0  0  0  0  0  0  0
  5  6  1  0  0  0
  6  7  2  0  0  0
  6 11  1  0  0  0
  7  8  1  0  0  0
  7 17  1  0  0  0
  8  9  2  0  0  0
  8 13  1  0  0  0
  9 10  1  0  0  0
 10 11  2  0  0  0
 10 12  1  0  0  0
 13 14  2  0  0  0
 13 15  1  0  0  0
 14  1  1  0  0  0
  1  2  1  0  0  0
  2  3  2  0  0  0
  2 19  1  0  0  0
 19 20  1  0  0  0
 20 21  1  0  0  0
 21 22  2  0  0  0
 21 24  1  0  0  0
 24 25  1  0  0  0
 24 33  1  0  0  0
 25 26  1  0  0  0
 26 27  2  0  0  0
 26 31  1  0  0  0
 27 28  1  0  0  0
 27 32  1  0  0  0
 28 29  2  0  0  0
 29 30  1  0  0  0
 30 31  2  0  0  0
 32 33  1  0  0  0
 15 16  2  0  0  0
 15 17  1  0  0  0
  1  4  1  0  0  0
 20 23  1  0  0  0
 17 18  1  0  0  0
M  END
> <minimizedAffinity>
-7.17206

$$$$
695


 22 25  0  0  0  0  0  0  0  0999 V2000
    0.7849  -15.0321  -36.3722 C   0  0  0  0  0  0  0  0  0  0  0  0
    2.8291  -13.8536  -41.1842 Br  0  0  0  0  0  0  0  0  0  0  0  0
    2.5568  -13.4889  -39.3180 C   0  0  0  0  0  0  0  0  0  0  0  0
    3.1381  -12.3503  -38.8012 C   0  0  0  0  0  0  0  0  0  0  0  0
    2.9436  -12.0888  -37.4673 C   0  0  0  0  0  0  0  0  0  0  0  0
    2.1838  -12.9557  -36.6797 C   0  0  0  0  0  0  0  0  0  0  0  0
    1.5999  -14.0940  -37.1854 C   0  0  0  0  0  0  0  0  0  0  0  0
    1.8048  -14.3500  -38.5444 C   0  0  0  0  0  0  0  0  0  0  0  0
    3.6231  -10.8994  -37.1976 O   0  0  0  0  0  0  0  0  0  0  0  0
    4.6280  -10.7469  -38.2120 C   0  0  0  0  0  0  0  0  0  0  0  0
    3.9288  -11.3210  -39.3256 O   0  0  0  0  0  0  0  0  0  0  0  0
    1.5417  -16.2352  -36.1264 N   0  0  0  0  0  0  0  0  0  0  0  0
    2.2988  -16.2727  -35.4233 H   0  0  0  0  0  0  0  0  0  0  0  0
    1.2226  -17.4122  -36.8921 C   0  0  0  0  0  0  0  0  0  0  0  0
   -0.0280  -17.6456  -37.3129 N   0  0  0  0  0  0  0  0  0  0  0  0
   -0.3172  -18.7475  -38.0277 C   0  0  0  0  0  0  0  0  0  0  0  0
    0.6660  -19.6770  -38.3528 C   0  0  0  0  0  0  0  0  0  0  0  0
    1.9074  -19.4378  -37.9311 N   0  0  0  0  0  0  0  0  0  0  0  0
    2.2029  -18.3262  -37.2089 C   0  0  0  0  0  0  0  0  0  0  0  0
    3.5163  -18.3578  -36.9303 N   0  0  0  0  0  0  0  0  0  0  0  0
    4.0582  -19.4465  -37.4496 N   0  0  0  0  0  0  0  0  0  0  0  0
    3.0689  -20.1038  -38.0605 C   0  0  0  0  0  0  0  0  0  0  0  0
  2  3  1  0  0  0
  3  4  2  0  0  0
  3  8  1  0  0  0
  4  5  1  0  0  0
  4 11  1  0  0  0
  5  6  2  0  0  0
  5  9  1  0  0  0
  6  7  1  0  0  0
  7  8  2  0  0  0
  7  1  1  0  0  0
  1 12  1  0  0  0
 12 14  1  0  0  0
 14 15  2  0  0  0
 14 19  1  0  0  0
 15 16  1  0  0  0
 16 17  2  0  0  0
 17 18  1  0  0  0
 18 19  1  0  0  0
 18 22  1  0  0  0
 19 20  2  0  0  0
 20 21  1  0  0  0
 21 22  2  0  0  0
  9 10  1  0  0  0
 10 11  1  0  0  0
 12 13  1  0  0  0
M  END
> <minimizedAffinity>
-5.73731

$$$$
696


 28 31  0  0  0  0  0  0  0  0999 V2000
    2.7304  -13.0063  -39.7723 Br  0  0  0  0  0  0  0  0  0  0  0  0
    1.7846  -13.5608  -38.2228 C   0  0  0  0  0  0  0  0  0  0  0  0
    1.6738  -14.9294  -37.9423 C   0  0  0  0  0  0  0  0  0  0  0  0
    1.0152  -15.3859  -36.8417 C   0  0  0  0  0  0  0  0  0  0  0  0
    0.4411  -14.4639  -35.9841 C   0  0  0  0  0  0  0  0  0  0  0  0
    0.5459  -13.1042  -36.2547 C   0  0  0  0  0  0  0  0  0  0  0  0
    1.2130  -12.6458  -37.3668 C   0  0  0  0  0  0  0  0  0  0  0  0
   -0.0581  -12.0793  -35.3562 C   0  0  0  0  0  0  0  0  0  0  0  0
    0.9471  -16.8423  -36.5423 C   0  0  0  0  0  0  0  0  0  0  0  0
    0.9513  -17.7641  -37.7084 C   0  0  0  0  0  0  0  0  0  0  0  0
    1.3498  -17.0198  -39.0054 C   0  0  0  0  0  0  0  0  0  0  0  0
    2.2121  -15.9244  -38.7459 O   0  0  0  0  0  0  0  0  0  0  0  0
    2.0567  -17.0252  -35.6701 O   0  0  0  0  0  0  0  0  0  0  0  0
    1.8441  -16.7421  -34.7644 H   0  0  0  0  0  0  0  0  0  0  0  0
   -0.4275  -18.2999  -38.0447 C   0  0  0  0  0  0  0  0  0  0  0  0
   -1.4799  -17.8575  -37.1553 N   0  0  0  0  0  0  0  0  0  0  0  0
   -2.3192  -18.9977  -36.7868 C   0  0  0  0  0  0  0  0  0  0  0  0
   -3.6504  -18.4715  -36.3961 C   0  0  0  0  0  0  0  0  0  0  0  0
   -3.5986  -17.0309  -36.7781 C   0  0  0  0  0  0  0  0  0  0  0  0
   -2.4735  -17.0319  -37.8212 C   0  0  0  0  0  0  0  0  0  0  0  0
   -1.1683  -17.3330  -36.3252 H   0  0  0  0  0  0  0  0  0  0  0  0
    1.9755  -18.8280  -37.5896 C   0  0  0  0  0  0  0  0  0  0  0  0
    3.0259  -19.1351  -38.4146 N   0  0  0  0  0  0  0  0  0  0  0  0
    4.3034  -19.0380  -37.6729 C   0  0  0  0  0  0  0  0  0  0  0  0
    5.1939  -20.0816  -38.2260 C   0  0  0  0  0  0  0  0  0  0  0  0
    4.3176  -21.1181  -38.8175 C   0  0  0  0  0  0  0  0  0  0  0  0
    3.0261  -20.3561  -39.1084 C   0  0  0  0  0  0  0  0  0  0  0  0
    3.2097  -18.3206  -39.1509 H   0  0  0  0  0  0  0  0  0  0  0  0
  1  2  1  0  0  0
  2  3  2  0  0  0
  2  7  1  0  0  0
  3  4  1  0  0  0
  3 12  1  0  0  0
  4  5  2  0  0  0
  4  9  1  0  0  0
  5  6  1  0  0  0
  6  7  2  0  0  0
  6  8  1  0  0  0
  9 10  1  0  0  0
  9 13  1  0  0  0
 10 11  1  0  0  0
 10 15  1  0  0  0
 10 22  1  0  0  0
 11 12  1  0  0  0
 15 16  1  0  0  0
 16 17  1  0  0  0
 16 20  1  0  0  0
 17 18  1  0  0  0
 18 19  1  0  0  0
 19 20  1  0  0  0
 22 23  1  0  0  0
 23 24  1  0  0  0
 23 27  1  0  0  0
 24 25  1  0  0  0
 25 26  1  0  0  0
 26 27  1  0  0  0
 16 21  1  0  0  0
 23 28  1  0  0  0
 13 14  1  0  0  0
M  CHG 1  16   1
M  CHG 1  23   1
M  END
> <minimizedAffinity>
-5.96590

$$$$
699


 32 35  0  0  0  0  0  0  0  0999 V2000
    0.1736  -16.9312  -36.2939 C   0  0  0  0  0  0  0  0  0  0  0  0
   -0.5952  -17.3147  -35.2259 O   0  0  0  0  0  0  0  0  0  0  0  0
   -0.8754  -16.5907  -34.6371 H   0  0  0  0  0  0  0  0  0  0  0  0
   -0.0650  -15.5028  -36.7139 C   0  0  0  0  0  0  0  0  0  0  0  0
    0.5732  -15.1945  -37.9381 O   0  0  0  0  0  0  0  0  0  0  0  0
    1.8978  -14.8183  -40.6577 Br  0  0  0  0  0  0  0  0  0  0  0  0
    2.2024  -13.8051  -39.0764 C   0  0  0  0  0  0  0  0  0  0  0  0
    3.1150  -12.7691  -39.1024 C   0  0  0  0  0  0  0  0  0  0  0  0
    3.3555  -12.0176  -37.9711 C   0  0  0  0  0  0  0  0  0  0  0  0
    2.6486  -12.3498  -36.8335 C   0  0  0  0  0  0  0  0  0  0  0  0
    1.7375  -13.3869  -36.8161 C   0  0  0  0  0  0  0  0  0  0  0  0
    1.4900  -14.1449  -37.9429 C   0  0  0  0  0  0  0  0  0  0  0  0
    4.2709  -10.9787  -37.9975 C   0  0  0  0  0  0  0  0  0  0  0  0
    4.9779  -10.6452  -39.1347 C   0  0  0  0  0  0  0  0  0  0  0  0
    4.7381  -11.3977  -40.2675 C   0  0  0  0  0  0  0  0  0  0  0  0
    3.8255  -12.4337  -40.2416 C   0  0  0  0  0  0  0  0  0  0  0  0
    1.6243  -17.1830  -36.0690 C   0  0  0  0  0  0  0  0  0  0  0  0
    2.3067  -17.7427  -37.2145 N   0  0  0  0  0  0  0  0  0  0  0  0
    1.3566  -18.6097  -37.8885 C   0  0  0  0  0  0  0  0  0  0  0  0
    2.0276  -19.4626  -38.9748 C   0  0  0  0  0  0  0  0  0  0  0  0
    3.0660  -20.2257  -38.3806 N   0  0  0  0  0  0  0  0  0  0  0  0
    3.2757  -19.9703  -36.9402 C   0  0  0  0  0  0  0  0  0  0  0  0
    3.4559  -18.5018  -36.7441 C   0  0  0  0  0  0  0  0  0  0  0  0
    3.8642  -21.1625  -39.0466 C   0  0  0  0  0  0  0  0  0  0  0  0
    4.7615  -21.7353  -38.2607 O   0  0  0  0  0  0  0  0  0  0  0  0
    2.6266  -17.0294  -37.9032 H   0  0  0  0  0  0  0  0  0  0  0  0
    3.8929  -21.6107  -40.4012 C   0  0  0  0  0  0  0  0  0  0  0  0
    2.8203  -21.7899  -41.2273 C   0  0  0  0  0  0  0  0  0  0  0  0
    2.9179  -22.2308  -42.5398 C   0  0  0  0  0  0  0  0  0  0  0  0
    4.1338  -22.5117  -43.0754 C   0  0  0  0  0  0  0  0  0  0  0  0
    5.2382  -22.3409  -42.2663 C   0  0  0  0  0  0  0  0  0  0  0  0
    5.1417  -21.9058  -40.9686 C   0  0  0  0  0  0  0  0  0  0  0  0
  6  7  1  0  0  0
  7  8  2  0  0  0
  7 12  1  0  0  0
  8  9  1  0  0  0
  8 16  1  0  0  0
  9 10  2  0  0  0
  9 13  1  0  0  0
 10 11  1  0  0  0
 11 12  2  0  0  0
 12  5  1  0  0  0
  5  4  1  0  0  0
  4  1  1  0  0  0
  1  2  1  0  0  0
  1 17  1  0  0  0
 17 18  1  0  0  0
 18 19  1  0  0  0
 18 23  1  0  0  0
 19 20  1  0  0  0
 20 21  1  0  0  0
 21 22  1  0  0  0
 21 24  1  0  0  0
 22 23  1  0  0  0
 24 25  2  0  0  0
 24 27  1  0  0  0
 27 28  2  0  0  0
 27 32  1  0  0  0
 28 29  1  0  0  0
 29 30  2  0  0  0
 30 31  1  0  0  0
 31 32  2  0  0  0
 13 14  2  0  0  0
 14 15  1  0  0  0
 15 16  2  0  0  0
  2  3  1  0  0  0
 18 26  1  0  0  0
M  CHG 1  18   1
M  END
> <minimizedAffinity>
-7.71761

$$$$
706


 30 33  0  0  0  0  0  0  0  0999 V2000
    0.5544  -18.8043  -38.2398 C   0  0  0  0  0  0  0  0  0  0  0  0
   -1.0685  -20.5190  -40.5507 Br  0  0  0  0  0  0  0  0  0  0  0  0
    0.7942  -20.3985  -40.0651 C   0  0  0  0  0  0  0  0  0  0  0  0
    1.3309  -19.6444  -39.0876 N   0  0  0  0  0  0  0  0  0  0  0  0
    2.6599  -19.8313  -39.0574 C   0  0  0  0  0  0  0  0  0  0  0  0
    2.9694  -20.7367  -40.0537 C   0  0  0  0  0  0  0  0  0  0  0  0
    1.8116  -21.0589  -40.6452 N   0  0  0  0  0  0  0  0  0  0  0  0
    4.2578  -21.0954  -40.2261 N   0  0  0  0  0  0  0  0  0  0  0  0
    5.2611  -20.6071  -39.4635 C   0  0  0  0  0  0  0  0  0  0  0  0
    6.4591  -20.9707  -39.6589 O   0  0  0  0  0  0  0  0  0  0  0  0
    4.9954  -19.7241  -38.4838 N   0  0  0  0  0  0  0  0  0  0  0  0
    3.7141  -19.3600  -38.3032 C   0  0  0  0  0  0  0  0  0  0  0  0
    3.4563  -18.5430  -37.3958 O   0  0  0  0  0  0  0  0  0  0  0  0
    6.0887  -19.2152  -37.6782 C   0  0  0  0  0  0  0  0  0  0  0  0
    4.5730  -22.0445  -41.2740 C   0  0  0  0  0  0  0  0  0  0  0  0
    0.1264  -17.4922  -38.7883 C   0  0  0  0  0  0  0  0  0  0  0  0
    0.6503  -16.3194  -38.1727 N   0  0  0  0  0  0  0  0  0  0  0  0
    1.4116  -15.3803  -38.7878 C   0  0  0  0  0  0  0  0  0  0  0  0
    1.7405  -14.3989  -37.8855 C   0  0  0  0  0  0  0  0  0  0  0  0
    1.1610  -14.7734  -36.7328 N   0  0  0  0  0  0  0  0  0  0  0  0
    0.5048  -15.9295  -36.9033 C   0  0  0  0  0  0  0  0  0  0  0  0
   -0.4937  -16.9145  -35.5807 Br  0  0  0  0  0  0  0  0  0  0  0  0
    2.4995  -13.3169  -38.2053 N   0  0  0  0  0  0  0  0  0  0  0  0
    2.9329  -13.2361  -39.4761 C   0  0  0  0  0  0  0  0  0  0  0  0
    3.6379  -12.2372  -39.7857 O   0  0  0  0  0  0  0  0  0  0  0  0
    2.6426  -14.1667  -40.4021 N   0  0  0  0  0  0  0  0  0  0  0  0
    1.8984  -15.2234  -40.0793 C   0  0  0  0  0  0  0  0  0  0  0  0
    1.5906  -16.1304  -40.8985 O   0  0  0  0  0  0  0  0  0  0  0  0
    3.1339  -14.0327  -41.7572 C   0  0  0  0  0  0  0  0  0  0  0  0
    2.8279  -12.2940  -37.2213 C   0  0  0  0  0  0  0  0  0  0  0  0
  2  3  1  0  0  0
  3  4  1  0  0  0
  3  7  2  0  0  0
  4  5  1  0  0  0
  4  1  1  0  0  0
  5  6  2  0  0  0
  5 12  1  0  0  0
  6  7  1  0  0  0
  6  8  1  0  0  0
  8  9  1  0  0  0
  8 15  1  0  0  0
  9 10  2  0  0  0
  9 11  1  0  0  0
 11 12  1  0  0  0
 11 14  1  0  0  0
 12 13  2  0  0  0
  1 16  1  0  0  0
 16 17  1  0  0  0
 17 18  1  0  0  0
 17 21  1  0  0  0
 18 19  2  0  0  0
 18 27  1  0  0  0
 19 20  1  0  0  0
 19 23  1  0  0  0
 20 21  2  0  0  0
 21 22  1  0  0  0
 23 24  1  0  0  0
 23 30  1  0  0  0
 24 25  2  0  0  0
 24 26  1  0  0  0
 26 27  1  0  0  0
 26 29  1  0  0  0
 27 28  2  0  0  0
M  END
> <minimizedAffinity>
-6.09631

$$$$
708


 31 34  0  0  0  0  0  0  0  0999 V2000
    1.6104  -16.3867  -37.4000 C   0  0  0  0  0  0  0  0  0  0  0  0
    0.9056  -17.7077  -37.2982 C   0  0  0  0  0  0  0  0  0  0  0  0
   -1.1343  -18.3813  -39.7420 Br  0  0  0  0  0  0  0  0  0  0  0  0
    0.5959  -19.0790  -39.3613 C   0  0  0  0  0  0  0  0  0  0  0  0
    1.3360  -18.6797  -38.2821 N   0  0  0  0  0  0  0  0  0  0  0  0
    2.4754  -19.3947  -38.3657 C   0  0  0  0  0  0  0  0  0  0  0  0
    2.4572  -20.2265  -39.4735 C   0  0  0  0  0  0  0  0  0  0  0  0
    1.2664  -19.9999  -40.0689 N   0  0  0  0  0  0  0  0  0  0  0  0
    3.4562  -21.0609  -39.8091 N   0  0  0  0  0  0  0  0  0  0  0  0
    4.5296  -21.0698  -38.9986 C   0  0  0  0  0  0  0  0  0  0  0  0
    5.5061  -21.8447  -39.2750 O   0  0  0  0  0  0  0  0  0  0  0  0
    4.5887  -20.2790  -37.9113 N   0  0  0  0  0  0  0  0  0  0  0  0
    3.5780  -19.4324  -37.5685 C   0  0  0  0  0  0  0  0  0  0  0  0
    3.6477  -18.7067  -36.5552 O   0  0  0  0  0  0  0  0  0  0  0  0
    3.4292  -21.9255  -40.9695 C   0  0  0  0  0  0  0  0  0  0  0  0
    5.4130  -20.2737  -37.2734 H   0  0  0  0  0  0  0  0  0  0  0  0
    0.8435  -15.3226  -38.1314 C   0  0  0  0  0  0  0  0  0  0  0  0
    1.7619  -14.4539  -38.8547 N   0  0  0  0  0  0  0  0  0  0  0  0
    2.4276  -13.3689  -38.3976 C   0  0  0  0  0  0  0  0  0  0  0  0
    3.1982  -12.8253  -39.3990 C   0  0  0  0  0  0  0  0  0  0  0  0
    2.9884  -13.6019  -40.4785 N   0  0  0  0  0  0  0  0  0  0  0  0
    2.1212  -14.5809  -40.1421 C   0  0  0  0  0  0  0  0  0  0  0  0
    1.4668  -15.9686  -41.2792 Br  0  0  0  0  0  0  0  0  0  0  0  0
    3.9718  -11.7358  -39.2374 N   0  0  0  0  0  0  0  0  0  0  0  0
    3.9670  -11.1681  -38.0063 C   0  0  0  0  0  0  0  0  0  0  0  0
    4.6960  -10.1413  -37.8495 O   0  0  0  0  0  0  0  0  0  0  0  0
    3.2257  -11.6694  -36.9961 N   0  0  0  0  0  0  0  0  0  0  0  0
    2.4542  -12.7621  -37.1695 C   0  0  0  0  0  0  0  0  0  0  0  0
    1.7537  -13.2529  -36.2512 O   0  0  0  0  0  0  0  0  0  0  0  0
    4.7739  -11.1933  -40.3312 C   0  0  0  0  0  0  0  0  0  0  0  0
    3.2627  -11.1924  -36.0735 H   0  0  0  0  0  0  0  0  0  0  0  0
  3  4  1  0  0  0
  4  5  1  0  0  0
  4  8  2  0  0  0
  5  6  1  0  0  0
  5  2  1  0  0  0
  6  7  2  0  0  0
  6 13  1  0  0  0
  7  8  1  0  0  0
  7  9  1  0  0  0
  9 10  1  0  0  0
  9 15  1  0  0  0
 10 11  2  0  0  0
 10 12  1  0  0  0
 12 13  1  0  0  0
 13 14  2  0  0  0
  2  1  1  0  0  0
  1 17  1  0  0  0
 17 18  1  0  0  0
 18 19  1  0  0  0
 18 22  1  0  0  0
 19 20  2  0  0  0
 19 28  1  0  0  0
 20 21  1  0  0  0
 20 24  1  0  0  0
 21 22  2  0  0  0
 22 23  1  0  0  0
 24 25  1  0  0  0
 24 30  1  0  0  0
 25 26  2  0  0  0
 25 27  1  0  0  0
 27 28  1  0  0  0
 28 29  2  0  0  0
 12 16  1  0  0  0
 27 31  1  0  0  0
M  END
> <minimizedAffinity>
-6.46582

$$$$
709


 30 33  0  0  0  0  0  0  0  0999 V2000
    0.4501  -19.1900  -38.5051 C   0  0  0  0  0  0  0  0  0  0  0  0
    0.0147  -21.1701  -41.0377 Br  0  0  0  0  0  0  0  0  0  0  0  0
    1.6023  -20.6798  -40.0967 C   0  0  0  0  0  0  0  0  0  0  0  0
    1.6034  -19.8215  -39.0494 N   0  0  0  0  0  0  0  0  0  0  0  0
    2.8921  -19.7208  -38.6485 C   0  0  0  0  0  0  0  0  0  0  0  0
    3.7047  -20.5196  -39.4481 C   0  0  0  0  0  0  0  0  0  0  0  0
    2.8573  -21.0935  -40.3318 N   0  0  0  0  0  0  0  0  0  0  0  0
    5.0314  -20.5907  -39.2386 N   0  0  0  0  0  0  0  0  0  0  0  0
    5.6054  -19.8889  -38.2456 C   0  0  0  0  0  0  0  0  0  0  0  0
    6.8593  -19.9499  -38.0406 O   0  0  0  0  0  0  0  0  0  0  0  0
    4.8692  -19.1021  -37.4401 N   0  0  0  0  0  0  0  0  0  0  0  0
    3.5292  -19.0266  -37.6480 C   0  0  0  0  0  0  0  0  0  0  0  0
    2.8021  -18.2993  -36.9096 O   0  0  0  0  0  0  0  0  0  0  0  0
    5.8812  -21.4170  -40.0650 C   0  0  0  0  0  0  0  0  0  0  0  0
    5.2936  -18.5498  -36.6644 H   0  0  0  0  0  0  0  0  0  0  0  0
   -0.0408  -17.9669  -39.1939 C   0  0  0  0  0  0  0  0  0  0  0  0
    0.6913  -16.7609  -39.0310 N   0  0  0  0  0  0  0  0  0  0  0  0
    0.5983  -15.8710  -38.0291 C   0  0  0  0  0  0  0  0  0  0  0  0
    1.4806  -14.8368  -38.2627 C   0  0  0  0  0  0  0  0  0  0  0  0
    2.0857  -15.1563  -39.4248 N   0  0  0  0  0  0  0  0  0  0  0  0
    1.6331  -16.3068  -39.9098 C   0  0  0  0  0  0  0  0  0  0  0  0
    2.1756  -17.1911  -41.5335 Br  0  0  0  0  0  0  0  0  0  0  0  0
    1.5761  -13.8278  -37.3978 N   0  0  0  0  0  0  0  0  0  0  0  0
    0.8207  -13.8038  -36.2968 C   0  0  0  0  0  0  0  0  0  0  0  0
    0.8885  -12.8505  -35.4517 O   0  0  0  0  0  0  0  0  0  0  0  0
   -0.0622  -14.7732  -35.9981 N   0  0  0  0  0  0  0  0  0  0  0  0
   -0.1550  -15.7867  -36.8686 C   0  0  0  0  0  0  0  0  0  0  0  0
   -0.9716  -16.6950  -36.5976 O   0  0  0  0  0  0  0  0  0  0  0  0
    2.4946  -12.7376  -37.6303 C   0  0  0  0  0  0  0  0  0  0  0  0
   -0.6419  -14.7239  -35.1216 H   0  0  0  0  0  0  0  0  0  0  0  0
  2  3  1  0  0  0
  3  4  1  0  0  0
  3  7  2  0  0  0
  4  5  1  0  0  0
  4  1  1  0  0  0
  5  6  2  0  0  0
  5 12  1  0  0  0
  6  7  1  0  0  0
  6  8  1  0  0  0
  8  9  1  0  0  0
  8 14  1  0  0  0
  9 10  2  0  0  0
  9 11  1  0  0  0
 11 12  1  0  0  0
 12 13  2  0  0  0
  1 16  1  0  0  0
 16 17  1  0  0  0
 17 18  1  0  0  0
 17 21  1  0  0  0
 18 19  2  0  0  0
 18 27  1  0  0  0
 19 20  1  0  0  0
 19 23  1  0  0  0
 20 21  2  0  0  0
 21 22  1  0  0  0
 23 24  1  0  0  0
 23 29  1  0  0  0
 24 25  2  0  0  0
 24 26  1  0  0  0
 26 27  1  0  0  0
 27 28  2  0  0  0
 11 15  1  0  0  0
 26 30  1  0  0  0
M  END
> <minimizedAffinity>
-6.04903

$$$$
716


 31 35  0  0  0  0  0  0  0  0999 V2000
    1.4370  -14.1343  -37.8835 C   0  0  0  0  0  0  0  0  0  0  0  0
    2.0104  -15.4665  -38.3107 C   0  0  0  0  0  0  0  0  0  0  0  0
    1.1363  -16.5736  -37.7984 C   0  0  0  0  0  0  0  0  0  0  0  0
   -0.2028  -16.4357  -38.5360 C   0  0  0  0  0  0  0  0  0  0  0  0
   -0.7794  -15.0747  -38.2390 C   0  0  0  0  0  0  0  0  0  0  0  0
    0.1383  -13.9481  -38.6380 C   0  0  0  0  0  0  0  0  0  0  0  0
   -1.0890  -14.9958  -36.7780 C   0  0  0  0  0  0  0  0  0  0  0  0
    0.1993  -15.1630  -36.0036 C   0  0  0  0  0  0  0  0  0  0  0  0
    1.1355  -14.0781  -36.4184 C   0  0  0  0  0  0  0  0  0  0  0  0
    0.8338  -16.4947  -36.3392 C   0  0  0  0  0  0  0  0  0  0  0  0
    5.0336  -11.1274  -40.6011 Br  0  0  0  0  0  0  0  0  0  0  0  0
    3.8574  -11.8177  -39.2528 C   0  0  0  0  0  0  0  0  0  0  0  0
    3.0687  -12.9052  -39.3277 N   0  0  0  0  0  0  0  0  0  0  0  0
    2.3939  -13.0744  -38.1977 N   0  0  0  0  0  0  0  0  0  0  0  0
    2.7744  -12.0617  -37.3976 C   0  0  0  0  0  0  0  0  0  0  0  0
    3.6691  -11.2832  -38.0248 N   0  0  0  0  0  0  0  0  0  0  0  0
    1.7099  -17.9022  -38.1012 C   0  0  0  0  0  0  0  0  0  0  0  0
    1.1885  -18.9084  -37.5573 O   0  0  0  0  0  0  0  0  0  0  0  0
    2.8205  -18.0375  -38.9833 N   0  0  0  0  0  0  0  0  0  0  0  0
    3.1940  -17.1601  -39.3911 H   0  0  0  0  0  0  0  0  0  0  0  0
    3.4370  -19.2680  -39.3319 C   0  0  0  0  0  0  0  0  0  0  0  0
    4.5601  -19.7669  -38.7350 C   0  0  0  0  0  0  0  0  0  0  0  0
    4.8399  -20.9485  -39.3345 N   0  0  0  0  0  0  0  0  0  0  0  0
    3.9354  -21.1774  -40.2624 N   0  0  0  0  0  0  0  0  0  0  0  0
    3.0531  -20.1734  -40.2997 C   0  0  0  0  0  0  0  0  0  0  0  0
    5.9383  -21.8533  -39.0447 C   0  0  0  0  0  0  0  0  0  0  0  0
    5.3843  -19.2419  -37.6651 C   0  0  0  0  0  0  0  0  0  0  0  0
    4.9028  -18.9984  -36.5305 O   0  0  0  0  0  0  0  0  0  0  0  0
    6.7712  -18.9665  -37.8092 N   0  0  0  0  0  0  0  0  0  0  0  0
    7.4584  -19.6761  -37.4216 H   0  0  0  0  0  0  0  0  0  0  0  0
    7.1677  -18.1219  -38.2640 H   0  0  0  0  0  0  0  0  0  0  0  0
 11 12  1  0  0  0
 12 13  2  0  0  0
 12 16  1  0  0  0
 13 14  1  0  0  0
 14 15  1  0  0  0
 14  1  1  0  0  0
 15 16  2  0  0  0
  1  2  1  0  0  0
  1  6  1  0  0  0
  1  9  1  0  0  0
  2  3  1  0  0  0
  3  4  1  0  0  0
  3 10  1  0  0  0
  3 17  1  0  0  0
  4  5  1  0  0  0
  5  6  1  0  0  0
  5  7  1  0  0  0
  7  8  1  0  0  0
  8  9  1  0  0  0
  8 10  1  0  0  0
 17 18  2  0  0  0
 17 19  1  0  0  0
 19 21  1  0  0  0
 21 22  2  0  0  0
 21 25  1  0  0  0
 22 23  1  0  0  0
 22 27  1  0  0  0
 23 24  1  0  0  0
 23 26  1  0  0  0
 24 25  2  0  0  0
 27 28  2  0  0  0
 27 29  1  0  0  0
 19 20  1  0  0  0
 29 30  1  0  0  0
 29 31  1  0  0  0
M  END
> <minimizedAffinity>
-6.88892

$$$$
723


 23 26  0  0  0  0  0  0  0  0999 V2000
    0.0703  -17.8988  -38.7215 N   0  0  0  0  0  0  0  0  0  0  0  0
    0.6086  -19.0527  -38.0723 C   0  0  0  0  0  0  0  0  0  0  0  0
    0.0064  -20.3231  -38.5355 C   0  0  0  0  0  0  0  0  0  0  0  0
   -1.0944  -20.2383  -39.3437 O   0  0  0  0  0  0  0  0  0  0  0  0
   -1.9412  -19.1897  -39.0019 C   0  0  0  0  0  0  0  0  0  0  0  0
   -1.2888  -17.8548  -39.1660 C   0  0  0  0  0  0  0  0  0  0  0  0
   -0.3091  -16.8494  -35.6809 Br  0  0  0  0  0  0  0  0  0  0  0  0
    0.6780  -15.5766  -36.6950 C   0  0  0  0  0  0  0  0  0  0  0  0
    1.1667  -14.3907  -36.2682 N   0  0  0  0  0  0  0  0  0  0  0  0
    1.8264  -13.7724  -37.2203 N   0  0  0  0  0  0  0  0  0  0  0  0
    1.7671  -14.5741  -38.2990 C   0  0  0  0  0  0  0  0  0  0  0  0
    2.2765  -14.4489  -39.5289 N   0  0  0  0  0  0  0  0  0  0  0  0
    2.1029  -15.4025  -40.4616 C   0  0  0  0  0  0  0  0  0  0  0  0
    1.4056  -16.5177  -40.1814 N   0  0  0  0  0  0  0  0  0  0  0  0
    0.8536  -16.7167  -38.9448 C   0  0  0  0  0  0  0  0  0  0  0  0
    1.0424  -15.7373  -38.0103 C   0  0  0  0  0  0  0  0  0  0  0  0
    2.4803  -12.4818  -37.1096 C   0  0  0  0  0  0  0  0  0  0  0  0
    2.0886  -19.0540  -38.0969 C   0  0  0  0  0  0  0  0  0  0  0  0
    2.8557  -19.4622  -39.1087 N   0  0  0  0  0  0  0  0  0  0  0  0
    4.1471  -19.2910  -38.7052 C   0  0  0  0  0  0  0  0  0  0  0  0
    4.0941  -18.7847  -37.4601 N   0  0  0  0  0  0  0  0  0  0  0  0
    2.8458  -18.6520  -37.1177 O   0  0  0  0  0  0  0  0  0  0  0  0
    5.3751  -19.5969  -39.4742 C   0  0  0  0  0  0  0  0  0  0  0  0
  7  8  1  0  0  0
  8  9  2  0  0  0
  8 16  1  0  0  0
  9 10  1  0  0  0
 10 11  1  0  0  0
 10 17  1  0  0  0
 11 12  1  0  0  0
 11 16  2  0  0  0
 12 13  2  0  0  0
 13 14  1  0  0  0
 14 15  2  0  0  0
 15 16  1  0  0  0
 15  1  1  0  0  0
  1  2  1  0  0  0
  1  6  1  0  0  0
  2  3  1  0  0  0
  2 18  1  0  0  0
  3  4  1  0  0  0
  4  5  1  0  0  0
  5  6  1  0  0  0
 18 19  2  0  0  0
 18 22  1  0  0  0
 19 20  1  0  0  0
 20 21  2  0  0  0
 20 23  1  0  0  0
 21 22  1  0  0  0
M  END
> <minimizedAffinity>
-5.12291

$$$$
727


 21 24  0  0  0  0  0  0  0  0999 V2000
    1.2666  -15.5453  -37.1382 Br  0  0  0  0  0  0  0  0  0  0  0  0
   -0.1921  -16.7648  -37.0444 C   0  0  0  0  0  0  0  0  0  0  0  0
   -1.4515  -16.4746  -36.6041 N   0  0  0  0  0  0  0  0  0  0  0  0
   -2.1907  -17.5536  -36.7042 N   0  0  0  0  0  0  0  0  0  0  0  0
   -1.4595  -18.5649  -37.2005 C   0  0  0  0  0  0  0  0  0  0  0  0
   -1.7281  -19.8452  -37.5032 N   0  0  0  0  0  0  0  0  0  0  0  0
   -0.8033  -20.6571  -38.0084 C   0  0  0  0  0  0  0  0  0  0  0  0
    0.4272  -20.2019  -38.2245 N   0  0  0  0  0  0  0  0  0  0  0  0
    0.8092  -18.9105  -37.9504 C   0  0  0  0  0  0  0  0  0  0  0  0
   -0.1587  -18.0873  -37.4317 C   0  0  0  0  0  0  0  0  0  0  0  0
   -3.6083  -17.7170  -36.3496 C   0  0  0  0  0  0  0  0  0  0  0  0
    2.1233  -18.4910  -38.1566 N   0  0  0  0  0  0  0  0  0  0  0  0
    3.0795  -18.4564  -37.0720 C   0  0  0  0  0  0  0  0  0  0  0  0
    4.0751  -19.6121  -37.3048 C   0  0  0  0  0  0  0  0  0  0  0  0
    4.3406  -19.7425  -38.7538 C   0  0  0  0  0  0  0  0  0  0  0  0
    5.2543  -20.5482  -39.3428 N   0  0  0  0  0  0  0  0  0  0  0  0
    5.1708  -20.3606  -40.6707 C   0  0  0  0  0  0  0  0  0  0  0  0
    4.2318  -19.4589  -40.9503 N   0  0  0  0  0  0  0  0  0  0  0  0
    3.7151  -19.0734  -39.7627 C   0  0  0  0  0  0  0  0  0  0  0  0
    2.6440  -18.0991  -39.4414 C   0  0  0  0  0  0  0  0  0  0  0  0
    6.1744  -21.4614  -38.7149 C   0  0  0  0  0  0  0  0  0  0  0  0
  1  2  1  0  0  0
  2  3  2  0  0  0
  2 10  1  0  0  0
  3  4  1  0  0  0
  4  5  1  0  0  0
  4 11  1  0  0  0
  5  6  1  0  0  0
  5 10  2  0  0  0
  6  7  2  0  0  0
  7  8  1  0  0  0
  8  9  2  0  0  0
  9 10  1  0  0  0
  9 12  1  0  0  0
 12 13  1  0  0  0
 12 20  1  0  0  0
 13 14  1  0  0  0
 14 15  1  0  0  0
 15 16  1  0  0  0
 15 19  2  0  0  0
 16 17  1  0  0  0
 16 21  1  0  0  0
 17 18  2  0  0  0
 18 19  1  0  0  0
 19 20  1  0  0  0
M  END
> <minimizedAffinity>
-5.57347

$$$$
729


 27 30  0  0  0  0  0  0  0  0999 V2000
    4.6376  -21.7169  -41.3502 N   0  0  0  0  0  0  0  0  0  0  0  0
    5.4945  -21.8311  -40.2044 C   0  0  0  0  0  0  0  0  0  0  0  0
    4.6825  -21.2530  -39.0421 C   0  0  0  0  0  0  0  0  0  0  0  0
    3.6029  -20.3911  -39.5365 N   0  0  0  0  0  0  0  0  0  0  0  0
    4.1120  -19.5404  -40.6152 C   0  0  0  0  0  0  0  0  0  0  0  0
    4.4100  -20.3803  -41.8435 C   0  0  0  0  0  0  0  0  0  0  0  0
    7.2668  -22.2169  -43.0993 Br  0  0  0  0  0  0  0  0  0  0  0  0
    5.9734  -23.5641  -43.4268 C   0  0  0  0  0  0  0  0  0  0  0  0
    6.0577  -24.6215  -44.2538 N   0  0  0  0  0  0  0  0  0  0  0  0
    4.9645  -25.3358  -44.2415 N   0  0  0  0  0  0  0  0  0  0  0  0
    4.1099  -24.7496  -43.3814 C   0  0  0  0  0  0  0  0  0  0  0  0
    2.8579  -25.0405  -42.9881 N   0  0  0  0  0  0  0  0  0  0  0  0
    2.1894  -24.2883  -42.1094 C   0  0  0  0  0  0  0  0  0  0  0  0
    2.7769  -23.2126  -41.5994 N   0  0  0  0  0  0  0  0  0  0  0  0
    4.0346  -22.8372  -41.9327 C   0  0  0  0  0  0  0  0  0  0  0  0
    4.7266  -23.6216  -42.8481 C   0  0  0  0  0  0  0  0  0  0  0  0
    4.6365  -26.5474  -44.9794 C   0  0  0  0  0  0  0  0  0  0  0  0
    3.2191  -19.5357  -38.4244 C   0  0  0  0  0  0  0  0  0  0  0  0
    3.5168  -20.3316  -37.1242 C   0  0  0  0  0  0  0  0  0  0  0  0
    1.7789  -19.2260  -38.4618 C   0  0  0  0  0  0  0  0  0  0  0  0
    1.0729  -20.1269  -39.0804 O   0  0  0  0  0  0  0  0  0  0  0  0
    1.1047  -18.1135  -37.9337 N   0  0  0  0  0  0  0  0  0  0  0  0
    1.6502  -16.9805  -37.2491 C   0  0  0  0  0  0  0  0  0  0  0  0
    0.8916  -16.5809  -36.0006 C   0  0  0  0  0  0  0  0  0  0  0  0
   -0.5827  -16.7774  -36.0840 C   0  0  0  0  0  0  0  0  0  0  0  0
   -0.9531  -18.1009  -36.7188 C   0  0  0  0  0  0  0  0  0  0  0  0
   -0.3656  -18.0803  -38.1060 C   0  0  0  0  0  0  0  0  0  0  0  0
  7  8  1  0  0  0
  8  9  2  0  0  0
  8 16  1  0  0  0
  9 10  1  0  0  0
 10 11  1  0  0  0
 10 17  1  0  0  0
 11 12  1  0  0  0
 11 16  2  0  0  0
 12 13  2  0  0  0
 13 14  1  0  0  0
 14 15  2  0  0  0
 15 16  1  0  0  0
 15  1  1  0  0  0
  1  2  1  0  0  0
  1  6  1  0  0  0
  2  3  1  0  0  0
  3  4  1  0  0  0
  4  5  1  0  0  0
  4 18  1  0  0  0
  5  6  1  0  0  0
 18 19  1  0  0  0
 18 20  1  0  0  0
 20 21  2  0  0  0
 20 22  1  0  0  0
 22 23  1  0  0  0
 22 27  1  0  0  0
 23 24  1  0  0  0
 24 25  1  0  0  0
 25 26  1  0  0  0
 26 27  1  0  0  0
M  END
> <minimizedAffinity>
-6.00063

$$$$
737


 21 24  0  0  0  0  0  0  0  0999 V2000
    1.3441  -17.2700  -37.5353 C   0  0  0  0  0  0  0  0  0  0  0  0
    1.6076  -16.0360  -37.1701 C   0  0  0  0  0  0  0  0  0  0  0  0
    0.6260  -15.2183  -36.4408 C   0  0  0  0  0  0  0  0  0  0  0  0
    0.8772  -13.9761  -36.0677 C   0  0  0  0  0  0  0  0  0  0  0  0
   -0.6110  -15.8577  -36.1652 N   0  0  0  0  0  0  0  0  0  0  0  0
   -0.8801  -17.2063  -36.5717 C   0  0  0  0  0  0  0  0  0  0  0  0
    0.0990  -17.8714  -37.2413 N   0  0  0  0  0  0  0  0  0  0  0  0
   -0.4010  -19.0854  -37.4985 N   0  0  0  0  0  0  0  0  0  0  0  0
   -1.6476  -19.2059  -37.0190 C   0  0  0  0  0  0  0  0  0  0  0  0
   -1.9366  -18.0276  -36.4425 N   0  0  0  0  0  0  0  0  0  0  0  0
   -1.3491  -15.3311  -35.6508 H   0  0  0  0  0  0  0  0  0  0  0  0
    4.7754  -21.3917  -41.9111 Br  0  0  0  0  0  0  0  0  0  0  0  0
    4.4078  -20.9500  -40.0819 C   0  0  0  0  0  0  0  0  0  0  0  0
    3.9068  -19.8115  -39.5893 N   0  0  0  0  0  0  0  0  0  0  0  0
    3.8034  -19.9068  -38.2650 C   0  0  0  0  0  0  0  0  0  0  0  0
    4.2525  -21.1415  -37.9178 N   0  0  0  0  0  0  0  0  0  0  0  0
    4.6311  -21.8065  -39.0237 C   0  0  0  0  0  0  0  0  0  0  0  0
    3.2709  -18.7687  -37.4586 C   0  0  0  0  0  0  0  0  0  0  0  0
    2.3211  -18.0075  -38.2316 N   0  0  0  0  0  0  0  0  0  0  0  0
    2.3138  -17.9544  -39.6748 C   0  0  0  0  0  0  0  0  0  0  0  0
    3.5107  -18.6108  -40.2975 C   0  0  0  0  0  0  0  0  0  0  0  0
 12 13  1  0  0  0
 13 14  1  0  0  0
 13 17  2  0  0  0
 14 15  1  0  0  0
 14 21  1  0  0  0
 15 16  2  0  0  0
 15 18  1  0  0  0
 16 17  1  0  0  0
 18 19  1  0  0  0
 19 20  1  0  0  0
 19  1  1  0  0  0
 20 21  1  0  0  0
  1  2  2  0  0  0
  1  7  1  0  0  0
  2  3  1  0  0  0
  3  4  2  0  0  0
  3  5  1  0  0  0
  5  6  1  0  0  0
  6  7  1  0  0  0
  6 10  2  0  0  0
  7  8  1  0  0  0
  8  9  2  0  0  0
  9 10  1  0  0  0
  5 11  1  0  0  0
M  END
> <minimizedAffinity>
-5.72745

$$$$
743


 30 33  0  0  0  0  0  0  0  0999 V2000
   -1.3575  -18.3432  -38.7867 C   0  0  0  0  0  0  0  0  0  0  0  0
   -1.9110  -17.3102  -39.2916 O   0  0  0  0  0  0  0  0  0  0  0  0
   -0.1985  -18.9029  -39.3890 N   0  0  0  0  0  0  0  0  0  0  0  0
    0.3492  -18.2988  -40.5720 C   0  0  0  0  0  0  0  0  0  0  0  0
    1.8403  -18.4000  -40.6753 C   0  0  0  0  0  0  0  0  0  0  0  0
    2.4194  -19.5474  -39.9010 C   0  0  0  0  0  0  0  0  0  0  0  0
    3.6261  -20.0157  -40.5122 N   0  0  0  0  0  0  0  0  0  0  0  0
    4.2200  -21.1348  -39.8634 C   0  0  0  0  0  0  0  0  0  0  0  0
    4.2686  -21.0599  -38.3731 C   0  0  0  0  0  0  0  0  0  0  0  0
    3.6735  -19.8116  -37.8314 C   0  0  0  0  0  0  0  0  0  0  0  0
    3.8371  -19.1855  -36.6652 N   0  0  0  0  0  0  0  0  0  0  0  0
    3.0755  -18.0829  -36.6434 C   0  0  0  0  0  0  0  0  0  0  0  0
    2.4122  -17.9924  -37.8040 N   0  0  0  0  0  0  0  0  0  0  0  0
    2.7747  -19.0514  -38.5389 C   0  0  0  0  0  0  0  0  0  0  0  0
    1.3777  -20.6410  -39.7274 C   0  0  0  0  0  0  0  0  0  0  0  0
    0.3685  -20.0839  -38.7453 C   0  0  0  0  0  0  0  0  0  0  0  0
    3.4093  -20.2759  -41.4994 H   0  0  0  0  0  0  0  0  0  0  0  0
    1.7249  -17.2241  -38.0923 H   0  0  0  0  0  0  0  0  0  0  0  0
   -1.9821  -18.8996  -37.5761 C   0  0  0  0  0  0  0  0  0  0  0  0
   -1.6985  -18.0958  -36.3447 C   0  0  0  0  0  0  0  0  0  0  0  0
   -0.1323  -16.1733  -36.0304 C   0  0  0  0  0  0  0  0  0  0  0  0
    0.5438  -16.8866  -35.2315 O   0  0  0  0  0  0  0  0  0  0  0  0
   -1.2867  -16.7550  -36.6209 N   0  0  0  0  0  0  0  0  0  0  0  0
   -1.8429  -16.1730  -37.2757 H   0  0  0  0  0  0  0  0  0  0  0  0
    3.1424  -12.0785  -37.0997 Br  0  0  0  0  0  0  0  0  0  0  0  0
    1.5893  -13.1509  -36.7243 C   0  0  0  0  0  0  0  0  0  0  0  0
    1.5123  -14.4317  -36.5203 O   0  0  0  0  0  0  0  0  0  0  0  0
    0.3031  -14.8249  -36.2940 C   0  0  0  0  0  0  0  0  0  0  0  0
   -0.5320  -13.7023  -36.3469 C   0  0  0  0  0  0  0  0  0  0  0  0
    0.3122  -12.6477  -36.6234 C   0  0  0  0  0  0  0  0  0  0  0  0
 25 26  1  0  0  0
 26 27  1  0  0  0
 26 30  2  0  0  0
 27 28  1  0  0  0
 28 29  2  0  0  0
 28 21  1  0  0  0
 29 30  1  0  0  0
 21 22  2  0  0  0
 21 23  1  0  0  0
 23 20  1  0  0  0
 20 19  1  0  0  0
 19  1  1  0  0  0
  1  2  2  0  0  0
  1  3  1  0  0  0
  3  4  1  0  0  0
  3 16  1  0  0  0
  4  5  1  0  0  0
  5  6  1  0  0  0
  6  7  1  0  0  0
  6 14  1  0  0  0
  6 15  1  0  0  0
  7  8  1  0  0  0
  8  9  1  0  0  0
  9 10  1  0  0  0
 10 11  1  0  0  0
 10 14  2  0  0  0
 11 12  2  0  0  0
 12 13  1  0  0  0
 13 14  1  0  0  0
 15 16  1  0  0  0
 23 24  1  0  0  0
  7 17  1  0  0  0
 13 18  1  0  0  0
M  END
> <minimizedAffinity>
-6.07064

$$$$
746


 30 33  0  0  0  0  0  0  0  0999 V2000
   -0.4768  -16.6589  -36.6949 C   0  0  0  0  0  0  0  0  0  0  0  0
   -0.5960  -17.2837  -35.5836 O   0  0  0  0  0  0  0  0  0  0  0  0
   -0.2095  -17.4308  -37.8314 N   0  0  0  0  0  0  0  0  0  0  0  0
   -0.0553  -16.8575  -39.1527 C   0  0  0  0  0  0  0  0  0  0  0  0
    1.3347  -17.1547  -39.6239 C   0  0  0  0  0  0  0  0  0  0  0  0
    1.6677  -18.6092  -39.5202 C   0  0  0  0  0  0  0  0  0  0  0  0
    2.0662  -19.0841  -40.8337 N   0  0  0  0  0  0  0  0  0  0  0  0
    3.3004  -18.4118  -41.1958 C   0  0  0  0  0  0  0  0  0  0  0  0
    4.4248  -19.1783  -40.4900 C   0  0  0  0  0  0  0  0  0  0  0  0
    4.0896  -19.1433  -39.0462 C   0  0  0  0  0  0  0  0  0  0  0  0
    4.8843  -19.3417  -37.9770 N   0  0  0  0  0  0  0  0  0  0  0  0
    4.1207  -19.2046  -36.8819 C   0  0  0  0  0  0  0  0  0  0  0  0
    2.8663  -18.9242  -37.2790 N   0  0  0  0  0  0  0  0  0  0  0  0
    2.8114  -18.8780  -38.6204 C   0  0  0  0  0  0  0  0  0  0  0  0
    0.4315  -19.3898  -39.0738 C   0  0  0  0  0  0  0  0  0  0  0  0
   -0.0740  -18.8747  -37.7659 C   0  0  0  0  0  0  0  0  0  0  0  0
    1.3582  -18.8087  -41.5703 H   0  0  0  0  0  0  0  0  0  0  0  0
    5.9113  -19.5638  -37.9441 H   0  0  0  0  0  0  0  0  0  0  0  0
   -0.6396  -15.1966  -36.6305 C   0  0  0  0  0  0  0  0  0  0  0  0
   -1.9645  -14.6836  -37.0647 C   0  0  0  0  0  0  0  0  0  0  0  0
    1.2269  -13.5196  -36.7856 C   0  0  0  0  0  0  0  0  0  0  0  0
    1.0829  -13.2213  -35.5823 O   0  0  0  0  0  0  0  0  0  0  0  0
    0.3965  -14.4969  -37.3630 N   0  0  0  0  0  0  0  0  0  0  0  0
    0.5248  -14.7378  -38.3671 H   0  0  0  0  0  0  0  0  0  0  0  0
    4.1177  -12.2583  -41.1069 Br  0  0  0  0  0  0  0  0  0  0  0  0
    3.4486  -12.3109  -39.3025 C   0  0  0  0  0  0  0  0  0  0  0  0
    2.4607  -13.0551  -38.8773 O   0  0  0  0  0  0  0  0  0  0  0  0
    2.2495  -12.8528  -37.5762 C   0  0  0  0  0  0  0  0  0  0  0  0
    3.1729  -11.9163  -37.1674 C   0  0  0  0  0  0  0  0  0  0  0  0
    3.9411  -11.5604  -38.2468 C   0  0  0  0  0  0  0  0  0  0  0  0
 25 26  1  0  0  0
 26 27  1  0  0  0
 26 30  2  0  0  0
 27 28  1  0  0  0
 28 29  2  0  0  0
 28 21  1  0  0  0
 29 30  1  0  0  0
 21 22  2  0  0  0
 21 23  1  0  0  0
 23 19  1  0  0  0
 19 20  1  0  0  0
 19  1  1  0  0  0
  1  2  2  0  0  0
  1  3  1  0  0  0
  3  4  1  0  0  0
  3 16  1  0  0  0
  4  5  1  0  0  0
  5  6  1  0  0  0
  6  7  1  0  0  0
  6 14  1  0  0  0
  6 15  1  0  0  0
  7  8  1  0  0  0
  8  9  1  0  0  0
  9 10  1  0  0  0
 10 11  1  0  0  0
 10 14  2  0  0  0
 11 12  1  0  0  0
 12 13  2  0  0  0
 13 14  1  0  0  0
 15 16  1  0  0  0
 23 24  1  0  0  0
  7 17  1  0  0  0
 11 18  1  0  0  0
M  END
> <minimizedAffinity>
-6.43032

$$$$
754


 27 30  0  0  0  0  0  0  0  0999 V2000
   -0.5971  -16.8583  -36.0137 C   0  0  0  0  0  0  0  0  0  0  0  0
   -0.5460  -17.3215  -34.8654 O   0  0  0  0  0  0  0  0  0  0  0  0
   -1.2752  -17.5723  -37.0320 N   0  0  0  0  0  0  0  0  0  0  0  0
   -1.9072  -18.8391  -36.7247 C   0  0  0  0  0  0  0  0  0  0  0  0
   -1.3340  -19.9744  -37.5375 C   0  0  0  0  0  0  0  0  0  0  0  0
   -0.8759  -19.3866  -38.8072 N   0  0  0  0  0  0  0  0  0  0  0  0
   -1.6664  -18.3236  -39.3264 C   0  0  0  0  0  0  0  0  0  0  0  0
   -1.3908  -17.1205  -38.4053 C   0  0  0  0  0  0  0  0  0  0  0  0
    0.2971  -19.9363  -39.3790 C   0  0  0  0  0  0  0  0  0  0  0  0
    1.4750  -19.9682  -38.6961 N   0  0  0  0  0  0  0  0  0  0  0  0
    2.5946  -20.4842  -39.2267 C   0  0  0  0  0  0  0  0  0  0  0  0
    2.5792  -20.9941  -40.4772 N   0  0  0  0  0  0  0  0  0  0  0  0
    1.4626  -21.0062  -41.2260 C   0  0  0  0  0  0  0  0  0  0  0  0
    0.3117  -20.4582  -40.6401 C   0  0  0  0  0  0  0  0  0  0  0  0
    1.4225  -21.5631  -42.6051 C   0  0  0  0  0  0  0  0  0  0  0  0
    3.7959  -20.4948  -38.4742 N   0  0  0  0  0  0  0  0  0  0  0  0
    4.8004  -21.5225  -38.6014 C   0  0  0  0  0  0  0  0  0  0  0  0
    6.1418  -20.9021  -38.8546 C   0  0  0  0  0  0  0  0  0  0  0  0
    6.1465  -19.5201  -38.6749 O   0  0  0  0  0  0  0  0  0  0  0  0
    5.5321  -19.1776  -37.4736 C   0  0  0  0  0  0  0  0  0  0  0  0
    4.0451  -19.4299  -37.5266 C   0  0  0  0  0  0  0  0  0  0  0  0
    0.0942  -11.5624  -36.7331 Br  0  0  0  0  0  0  0  0  0  0  0  0
    0.3821  -13.4686  -36.5802 C   0  0  0  0  0  0  0  0  0  0  0  0
   -0.4789  -14.3818  -36.3093 O   0  0  0  0  0  0  0  0  0  0  0  0
    0.0559  -15.5651  -36.2847 C   0  0  0  0  0  0  0  0  0  0  0  0
    1.3938  -15.4102  -36.5673 C   0  0  0  0  0  0  0  0  0  0  0  0
    1.6047  -14.0684  -36.7562 C   0  0  0  0  0  0  0  0  0  0  0  0
 22 23  1  0  0  0
 23 24  1  0  0  0
 23 27  2  0  0  0
 24 25  1  0  0  0
 25 26  2  0  0  0
 25  1  1  0  0  0
 26 27  1  0  0  0
  1  2  2  0  0  0
  1  3  1  0  0  0
  3  4  1  0  0  0
  3  8  1  0  0  0
  4  5  1  0  0  0
  5  6  1  0  0  0
  6  7  1  0  0  0
  6  9  1  0  0  0
  7  8  1  0  0  0
  9 10  2  0  0  0
  9 14  1  0  0  0
 10 11  1  0  0  0
 11 12  2  0  0  0
 11 16  1  0  0  0
 12 13  1  0  0  0
 13 14  2  0  0  0
 13 15  1  0  0  0
 16 17  1  0  0  0
 16 21  1  0  0  0
 17 18  1  0  0  0
 18 19  1  0  0  0
 19 20  1  0  0  0
 20 21  1  0  0  0
M  END
> <minimizedAffinity>
-6.28402

$$$$
755


 28 31  0  0  0  0  0  0  0  0999 V2000
    0.4967  -12.5734  -37.7463 C   0  0  0  0  0  0  0  0  0  0  0  0
   -0.4810  -11.8729  -38.0480 O   0  0  0  0  0  0  0  0  0  0  0  0
    0.3294  -13.8056  -37.0609 N   0  0  0  0  0  0  0  0  0  0  0  0
    1.4866  -14.6243  -36.7091 C   0  0  0  0  0  0  0  0  0  0  0  0
    1.0257  -15.9189  -36.0427 C   0  0  0  0  0  0  0  0  0  0  0  0
    0.0026  -16.4981  -36.8910 N   0  0  0  0  0  0  0  0  0  0  0  0
   -1.1645  -15.7159  -37.1953 C   0  0  0  0  0  0  0  0  0  0  0  0
   -0.9736  -14.3125  -36.6796 C   0  0  0  0  0  0  0  0  0  0  0  0
    0.1352  -17.8221  -37.4238 C   0  0  0  0  0  0  0  0  0  0  0  0
   -0.9235  -18.6314  -37.5690 N   0  0  0  0  0  0  0  0  0  0  0  0
   -0.7689  -19.8629  -38.0681 C   0  0  0  0  0  0  0  0  0  0  0  0
    0.4388  -20.3323  -38.4379 N   0  0  0  0  0  0  0  0  0  0  0  0
    1.5416  -19.5717  -38.3182 C   0  0  0  0  0  0  0  0  0  0  0  0
    1.3611  -18.3057  -37.8024 C   0  0  0  0  0  0  0  0  0  0  0  0
   -1.9476  -20.7509  -38.2258 C   0  0  0  0  0  0  0  0  0  0  0  0
    2.8321  -20.0193  -38.6931 N   0  0  0  0  0  0  0  0  0  0  0  0
    3.6632  -20.7335  -37.7458 C   0  0  0  0  0  0  0  0  0  0  0  0
    4.8152  -21.3357  -38.5228 C   0  0  0  0  0  0  0  0  0  0  0  0
    5.5750  -20.2720  -39.1220 N   0  0  0  0  0  0  0  0  0  0  0  0
    4.7991  -19.2863  -39.8066 C   0  0  0  0  0  0  0  0  0  0  0  0
    3.3890  -19.7964  -40.0136 C   0  0  0  0  0  0  0  0  0  0  0  0
    6.5142  -19.7390  -38.1682 C   0  0  0  0  0  0  0  0  0  0  0  0
    4.7502  -11.4564  -40.8227 Br  0  0  0  0  0  0  0  0  0  0  0  0
    3.6183  -11.6479  -39.2951 C   0  0  0  0  0  0  0  0  0  0  0  0
    2.3913  -12.1038  -39.3020 O   0  0  0  0  0  0  0  0  0  0  0  0
    1.8610  -12.1217  -38.1045 C   0  0  0  0  0  0  0  0  0  0  0  0
    2.8223  -11.6386  -37.2496 C   0  0  0  0  0  0  0  0  0  0  0  0
    3.9358  -11.3364  -37.9905 C   0  0  0  0  0  0  0  0  0  0  0  0
 23 24  1  0  0  0
 24 25  1  0  0  0
 24 28  2  0  0  0
 25 26  1  0  0  0
 26 27  2  0  0  0
 26  1  1  0  0  0
 27 28  1  0  0  0
  1  2  2  0  0  0
  1  3  1  0  0  0
  3  4  1  0  0  0
  3  8  1  0  0  0
  4  5  1  0  0  0
  5  6  1  0  0  0
  6  7  1  0  0  0
  6  9  1  0  0  0
  7  8  1  0  0  0
  9 10  2  0  0  0
  9 14  1  0  0  0
 10 11  1  0  0  0
 11 12  2  0  0  0
 11 15  1  0  0  0
 12 13  1  0  0  0
 13 14  2  0  0  0
 13 16  1  0  0  0
 16 17  1  0  0  0
 16 21  1  0  0  0
 17 18  1  0  0  0
 18 19  1  0  0  0
 19 20  1  0  0  0
 19 22  1  0  0  0
 20 21  1  0  0  0
M  END
> <minimizedAffinity>
-6.50554

$$$$
767


 32 35  0  0  0  0  0  0  0  0999 V2000
    0.3588  -14.3435  -35.9029 C   0  0  0  0  0  0  0  0  0  0  0  0
    1.1697  -16.6568  -36.3267 C   0  0  0  0  0  0  0  0  0  0  0  0
   -0.0254  -17.0813  -36.1714 O   0  0  0  0  0  0  0  0  0  0  0  0
    1.4073  -15.2602  -36.1969 N   0  0  0  0  0  0  0  0  0  0  0  0
    2.3746  -14.9082  -36.3223 H   0  0  0  0  0  0  0  0  0  0  0  0
    3.6459  -18.9977  -37.6010 C   0  0  0  0  0  0  0  0  0  0  0  0
    3.9392  -18.8598  -36.2883 N   0  0  0  0  0  0  0  0  0  0  0  0
    3.0977  -18.0314  -35.7385 O   0  0  0  0  0  0  0  0  0  0  0  0
    2.2407  -17.5987  -36.6279 C   0  0  0  0  0  0  0  0  0  0  0  0
    2.5807  -18.1965  -37.7758 N   0  0  0  0  0  0  0  0  0  0  0  0
    6.2732  -20.4226  -42.0535 Br  0  0  0  0  0  0  0  0  0  0  0  0
    5.3944  -20.4367  -40.3725 C   0  0  0  0  0  0  0  0  0  0  0  0
    4.8532  -19.4492  -39.7265 O   0  0  0  0  0  0  0  0  0  0  0  0
    4.3321  -19.8249  -38.5861 C   0  0  0  0  0  0  0  0  0  0  0  0
    4.5562  -21.1854  -38.4815 C   0  0  0  0  0  0  0  0  0  0  0  0
    5.2370  -21.5999  -39.6164 C   0  0  0  0  0  0  0  0  0  0  0  0
    0.7914  -12.8969  -36.0122 C   0  0  0  0  0  0  0  0  0  0  0  0
    2.0410  -12.7726  -36.7491 N   0  0  0  0  0  0  0  0  0  0  0  0
    2.2412  -11.6481  -37.5679 C   0  0  0  0  0  0  0  0  0  0  0  0
    1.2727  -10.8073  -37.5899 O   0  0  0  0  0  0  0  0  0  0  0  0
    2.7855  -13.4899  -36.6819 H   0  0  0  0  0  0  0  0  0  0  0  0
    3.3922  -11.3320  -38.3748 C   0  0  0  0  0  0  0  0  0  0  0  0
    3.5157  -11.9361  -39.6252 C   0  0  0  0  0  0  0  0  0  0  0  0
    4.5970  -11.6453  -40.4184 C   0  0  0  0  0  0  0  0  0  0  0  0
    5.5478  -10.7721  -39.9895 C   0  0  0  0  0  0  0  0  0  0  0  0
    6.6469  -10.4793  -40.8009 C   0  0  0  0  0  0  0  0  0  0  0  0
    6.8034  -11.0528  -42.0393 C   0  0  0  0  0  0  0  0  0  0  0  0
    5.8420  -11.9330  -42.4657 C   0  0  0  0  0  0  0  0  0  0  0  0
    4.7527  -12.2321  -41.6779 C   0  0  0  0  0  0  0  0  0  0  0  0
    5.4041  -10.2239  -38.8175 O   0  0  0  0  0  0  0  0  0  0  0  0
    4.3839  -10.4605  -38.0005 C   0  0  0  0  0  0  0  0  0  0  0  0
    4.3666   -9.8666  -36.8969 O   0  0  0  0  0  0  0  0  0  0  0  0
 11 12  1  0  0  0
 12 13  1  0  0  0
 12 16  2  0  0  0
 13 14  1  0  0  0
 14 15  2  0  0  0
 14  6  1  0  0  0
 15 16  1  0  0  0
  6  7  2  0  0  0
  6 10  1  0  0  0
  7  8  1  0  0  0
  8  9  1  0  0  0
  9 10  2  0  0  0
  9  2  1  0  0  0
  2  3  2  0  0  0
  2  4  1  0  0  0
  4  1  1  0  0  0
  1 17  1  0  0  0
 17 18  1  0  0  0
 18 19  1  0  0  0
 19 20  2  0  0  0
 19 22  1  0  0  0
 22 23  2  0  0  0
 22 31  1  0  0  0
 23 24  1  0  0  0
 24 25  2  0  0  0
 24 29  1  0  0  0
 25 26  1  0  0  0
 25 30  1  0  0  0
 26 27  2  0  0  0
 27 28  1  0  0  0
 28 29  2  0  0  0
 30 31  1  0  0  0
 31 32  2  0  0  0
  4  5  1  0  0  0
 18 21  1  0  0  0
M  END
> <minimizedAffinity>
-7.54517

$$$$
769


 26 29  0  0  0  0  0  0  0  0999 V2000
    4.0012  -21.1198  -39.2627 C   0  0  0  0  0  0  0  0  0  0  0  0
    4.5869  -21.6487  -38.2049 O   0  0  0  0  0  0  0  0  0  0  0  0
    2.9542  -20.2507  -38.9940 N   0  0  0  0  0  0  0  0  0  0  0  0
    2.5847  -19.9895  -37.5795 C   0  0  0  0  0  0  0  0  0  0  0  0
    2.6441  -18.5011  -37.3307 C   0  0  0  0  0  0  0  0  0  0  0  0
    1.7838  -17.8354  -38.2266 N   0  0  0  0  0  0  0  0  0  0  0  0
    1.1314  -18.7332  -39.1173 C   0  0  0  0  0  0  0  0  0  0  0  0
    2.1618  -19.5519  -39.9317 C   0  0  0  0  0  0  0  0  0  0  0  0
    3.9178  -24.1169  -43.7050 Br  0  0  0  0  0  0  0  0  0  0  0  0
    4.6684  -22.8656  -42.5131 C   0  0  0  0  0  0  0  0  0  0  0  0
    4.0132  -22.4888  -41.3369 C   0  0  0  0  0  0  0  0  0  0  0  0
    4.5995  -21.5756  -40.5028 C   0  0  0  0  0  0  0  0  0  0  0  0
    5.8428  -21.0690  -40.8929 C   0  0  0  0  0  0  0  0  0  0  0  0
    6.4108  -21.4489  -41.9926 O   0  0  0  0  0  0  0  0  0  0  0  0
    5.8890  -22.3046  -42.7990 C   0  0  0  0  0  0  0  0  0  0  0  0
    6.5188  -22.6093  -43.8451 O   0  0  0  0  0  0  0  0  0  0  0  0
    0.8852  -16.8849  -37.6529 C   0  0  0  0  0  0  0  0  0  0  0  0
    1.3696  -15.4934  -37.6128 C   0  0  0  0  0  0  0  0  0  0  0  0
    1.9916  -14.8594  -38.6383 C   0  0  0  0  0  0  0  0  0  0  0  0
    2.4111  -13.5591  -38.5045 C   0  0  0  0  0  0  0  0  0  0  0  0
    2.2002  -12.8983  -37.3248 C   0  0  0  0  0  0  0  0  0  0  0  0
    1.5710  -13.5208  -36.2702 C   0  0  0  0  0  0  0  0  0  0  0  0
    1.1663  -14.8061  -36.4301 C   0  0  0  0  0  0  0  0  0  0  0  0
    2.7027  -11.6116  -37.4185 O   0  0  0  0  0  0  0  0  0  0  0  0
    3.5603  -11.6041  -38.5509 C   0  0  0  0  0  0  0  0  0  0  0  0
    3.0647  -12.6558  -39.3572 O   0  0  0  0  0  0  0  0  0  0  0  0
  9 10  1  0  0  0
 10 11  2  0  0  0
 10 15  1  0  0  0
 11 12  1  0  0  0
 12 13  2  0  0  0
 12  1  1  0  0  0
 13 14  1  0  0  0
 14 15  1  0  0  0
 15 16  2  0  0  0
  1  2  2  0  0  0
  1  3  1  0  0  0
  3  4  1  0  0  0
  3  8  1  0  0  0
  4  5  1  0  0  0
  5  6  1  0  0  0
  6  7  1  0  0  0
  6 17  1  0  0  0
  7  8  1  0  0  0
 17 18  1  0  0  0
 18 19  2  0  0  0
 18 23  1  0  0  0
 19 20  1  0  0  0
 20 21  2  0  0  0
 20 26  1  0  0  0
 21 22  1  0  0  0
 21 24  1  0  0  0
 22 23  2  0  0  0
 24 25  1  0  0  0
 25 26  1  0  0  0
M  END
> <minimizedAffinity>
-6.57328

$$$$
776


 38 41  0  0  0  0  0  0  0  0999 V2000
    4.6143  -20.1667  -42.0293 C   0  0  0  0  0  0  0  0  0  0  0  0
    5.2823  -20.8558  -40.8325 C   0  0  0  0  0  0  0  0  0  0  0  0
    4.2575  -21.1112  -39.7812 C   0  0  0  0  0  0  0  0  0  0  0  0
    3.7190  -19.7829  -39.2993 C   0  0  0  0  0  0  0  0  0  0  0  0
    3.9559  -18.7559  -40.1936 O   0  0  0  0  0  0  0  0  0  0  0  0
    3.7062  -19.0997  -41.5150 C   0  0  0  0  0  0  0  0  0  0  0  0
    2.2858  -19.9721  -38.9584 C   0  0  0  0  0  0  0  0  0  0  0  0
    1.7340  -18.6388  -38.4304 C   0  0  0  0  0  0  0  0  0  0  0  0
    2.3719  -18.3696  -37.1842 N   0  0  0  0  0  0  0  0  0  0  0  0
    3.5103  -19.2917  -36.8552 C   0  0  0  0  0  0  0  0  0  0  0  0
    4.4405  -19.4380  -38.0138 C   0  0  0  0  0  0  0  0  0  0  0  0
    2.0434  -17.3663  -36.2934 C   0  0  0  0  0  0  0  0  0  0  0  0
    2.7673  -17.3313  -35.1939 O   0  0  0  0  0  0  0  0  0  0  0  0
    6.2037  -19.9406  -40.3175 O   0  0  0  0  0  0  0  0  0  0  0  0
    6.0364  -22.0734  -41.2598 C   0  0  0  0  0  0  0  0  0  0  0  0
    6.4387  -19.2268  -40.9622 H   0  0  0  0  0  0  0  0  0  0  0  0
    0.8415  -23.6947  -43.0499 Br  0  0  0  0  0  0  0  0  0  0  0  0
    2.3929  -22.7207  -43.5656 C   0  0  0  0  0  0  0  0  0  0  0  0
    2.9334  -21.8329  -42.6701 C   0  0  0  0  0  0  0  0  0  0  0  0
    4.0273  -21.0976  -42.9387 N   0  0  0  0  0  0  0  0  0  0  0  0
    4.5672  -21.2999  -44.1785 C   0  0  0  0  0  0  0  0  0  0  0  0
    5.5988  -20.6445  -44.5065 O   0  0  0  0  0  0  0  0  0  0  0  0
    4.0704  -22.1473  -45.0656 N   0  0  0  0  0  0  0  0  0  0  0  0
    2.9778  -22.8821  -44.7972 C   0  0  0  0  0  0  0  0  0  0  0  0
    2.4771  -23.6973  -45.6103 O   0  0  0  0  0  0  0  0  0  0  0  0
    4.5034  -22.2808  -46.0033 H   0  0  0  0  0  0  0  0  0  0  0  0
    1.0504  -16.3535  -36.3572 C   0  0  0  0  0  0  0  0  0  0  0  0
    1.4229  -14.9971  -36.3507 C   0  0  0  0  0  0  0  0  0  0  0  0
    0.5719  -13.9407  -36.4248 C   0  0  0  0  0  0  0  0  0  0  0  0
   -0.8018  -14.2460  -36.5177 C   0  0  0  0  0  0  0  0  0  0  0  0
   -1.1850  -15.5435  -36.5262 C   0  0  0  0  0  0  0  0  0  0  0  0
   -0.2785  -16.6145  -36.4469 C   0  0  0  0  0  0  0  0  0  0  0  0
    0.9721  -12.6379  -36.4111 O   0  0  0  0  0  0  0  0  0  0  0  0
    1.3762  -11.7940  -37.4023 C   0  0  0  0  0  0  0  0  0  0  0  0
    2.8477  -11.8311  -37.6358 C   0  0  0  0  0  0  0  0  0  0  0  0
    3.1424  -12.7177  -38.7624 N   0  0  0  0  0  0  0  0  0  0  0  0
    3.0110  -12.2491  -39.6706 H   0  0  0  0  0  0  0  0  0  0  0  0
    2.6968  -13.6361  -38.6748 H   0  0  0  0  0  0  0  0  0  0  0  0
 17 18  1  0  0  0
 18 19  2  0  0  0
 18 24  1  0  0  0
 19 20  1  0  0  0
 20 21  1  0  0  0
 20  1  1  0  0  0
 21 22  2  0  0  0
 21 23  1  0  0  0
 23 24  1  0  0  0
 24 25  2  0  0  0
  1  2  1  0  0  0
  1  6  1  0  0  0
  2  3  1  0  0  0
  2 14  1  0  0  0
  2 15  1  0  0  0
  3  4  1  0  0  0
  4  5  1  0  0  0
  4  7  1  0  0  0
  4 11  1  0  0  0
  5  6  1  0  0  0
  7  8  1  0  0  0
  8  9  1  0  0  0
  9 10  1  0  0  0
  9 12  1  0  0  0
 10 11  1  0  0  0
 12 13  2  0  0  0
 12 27  1  0  0  0
 27 28  2  0  0  0
 27 32  1  0  0  0
 28 29  1  0  0  0
 29 30  2  0  0  0
 29 33  1  0  0  0
 30 31  1  0  0  0
 31 32  2  0  0  0
 33 34  1  0  0  0
 34 35  1  0  0  0
 35 36  1  0  0  0
 23 26  1  0  0  0
 36 37  1  0  0  0
 36 38  1  0  0  0
 14 16  1  0  0  0
M  END
> <minimizedAffinity>
-6.46843

$$$$
783


 39 42  0  0  0  0  0  0  0  0999 V2000
    2.2637  -19.9510  -38.3267 C   0  0  0  0  0  0  0  0  0  0  0  0
    2.7606  -18.5608  -38.3347 C   0  0  0  0  0  0  0  0  0  0  0  0
    1.8031  -17.5504  -37.6915 C   0  0  0  0  0  0  0  0  0  0  0  0
    0.4362  -17.6387  -38.3232 C   0  0  0  0  0  0  0  0  0  0  0  0
    0.2307  -18.8615  -38.9336 O   0  0  0  0  0  0  0  0  0  0  0  0
    0.7601  -19.9372  -38.2903 C   0  0  0  0  0  0  0  0  0  0  0  0
    0.3167  -16.4921  -39.3110 C   0  0  0  0  0  0  0  0  0  0  0  0
   -0.3779  -15.3185  -38.6744 C   0  0  0  0  0  0  0  0  0  0  0  0
    0.0864  -15.1871  -37.3170 N   0  0  0  0  0  0  0  0  0  0  0  0
   -0.3232  -16.2430  -36.4030 C   0  0  0  0  0  0  0  0  0  0  0  0
   -0.5943  -17.4782  -37.2311 C   0  0  0  0  0  0  0  0  0  0  0  0
    0.8626  -14.0951  -36.9209 C   0  0  0  0  0  0  0  0  0  0  0  0
    1.2191  -14.0923  -35.6865 O   0  0  0  0  0  0  0  0  0  0  0  0
    3.9003  -18.5230  -37.4907 O   0  0  0  0  0  0  0  0  0  0  0  0
    3.2221  -18.0459  -39.6592 C   0  0  0  0  0  0  0  0  0  0  0  0
    3.7329  -18.9782  -36.6328 H   0  0  0  0  0  0  0  0  0  0  0  0
    1.5325  -21.6623  -43.2483 Br  0  0  0  0  0  0  0  0  0  0  0  0
    2.5216  -21.6047  -41.6023 C   0  0  0  0  0  0  0  0  0  0  0  0
    2.0832  -20.8258  -40.5566 C   0  0  0  0  0  0  0  0  0  0  0  0
    2.7563  -20.7752  -39.4120 N   0  0  0  0  0  0  0  0  0  0  0  0
    3.8734  -21.4799  -39.2520 C   0  0  0  0  0  0  0  0  0  0  0  0
    4.5471  -21.4578  -38.1693 O   0  0  0  0  0  0  0  0  0  0  0  0
    4.3175  -22.2448  -40.2612 N   0  0  0  0  0  0  0  0  0  0  0  0
    3.6796  -22.3368  -41.4427 C   0  0  0  0  0  0  0  0  0  0  0  0
    4.1243  -23.0679  -42.3758 O   0  0  0  0  0  0  0  0  0  0  0  0
    5.2116  -22.8084  -40.1328 H   0  0  0  0  0  0  0  0  0  0  0  0
    1.3248  -12.9542  -37.7043 C   0  0  0  0  0  0  0  0  0  0  0  0
    0.3445  -11.8674  -37.7195 N   0  0  0  0  0  0  0  0  0  0  0  0
   -0.6279  -12.2399  -37.7788 H   0  0  0  0  0  0  0  0  0  0  0  0
    0.4941  -11.2987  -38.5894 H   0  0  0  0  0  0  0  0  0  0  0  0
    2.6227  -12.3337  -37.2379 C   0  0  0  0  0  0  0  0  0  0  0  0
    3.4180  -12.0481  -38.4896 C   0  0  0  0  0  0  0  0  0  0  0  0
    3.2136  -12.7921  -39.6219 C   0  0  0  0  0  0  0  0  0  0  0  0
    3.9685  -12.4955  -40.7533 C   0  0  0  0  0  0  0  0  0  0  0  0
    4.9016  -11.4840  -40.7577 C   0  0  0  0  0  0  0  0  0  0  0  0
    5.0783  -10.7567  -39.5976 C   0  0  0  0  0  0  0  0  0  0  0  0
    4.3462  -11.0277  -38.4596 C   0  0  0  0  0  0  0  0  0  0  0  0
    5.6217  -11.2340  -41.9102 O   0  0  0  0  0  0  0  0  0  0  0  0
    6.5122  -11.6779  -42.1341 H   0  0  0  0  0  0  0  0  0  0  0  0
 17 18  1  0  0  0
 18 19  2  0  0  0
 18 24  1  0  0  0
 19 20  1  0  0  0
 20 21  1  0  0  0
 20  1  1  0  0  0
 21 22  2  0  0  0
 21 23  1  0  0  0
 23 24  1  0  0  0
 24 25  2  0  0  0
  1  2  1  0  0  0
  1  6  1  0  0  0
  2  3  1  0  0  0
  2 14  1  0  0  0
  2 15  1  0  0  0
  3  4  1  0  0  0
  4  5  1  0  0  0
  4  7  1  0  0  0
  4 11  1  0  0  0
  5  6  1  0  0  0
  7  8  1  0  0  0
  8  9  1  0  0  0
  9 10  1  0  0  0
  9 12  1  0  0  0
 10 11  1  0  0  0
 12 13  2  0  0  0
 12 27  1  0  0  0
 27 28  1  0  0  0
 27 31  1  0  0  0
 31 32  1  0  0  0
 32 33  2  0  0  0
 32 37  1  0  0  0
 33 34  1  0  0  0
 34 35  2  0  0  0
 35 36  1  0  0  0
 35 38  1  0  0  0
 36 37  2  0  0  0
 23 26  1  0  0  0
 28 29  1  0  0  0
 28 30  1  0  0  0
 38 39  1  0  0  0
 14 16  1  0  0  0
M  END
> <minimizedAffinity>
-7.73532

$$$$
784


 39 42  0  0  0  0  0  0  0  0999 V2000
    1.1391  -19.1461  -38.1219 C   0  0  0  0  0  0  0  0  0  0  0  0
    0.6648  -18.2026  -39.2393 C   0  0  0  0  0  0  0  0  0  0  0  0
   -0.6870  -17.6810  -38.7327 C   0  0  0  0  0  0  0  0  0  0  0  0
   -1.5833  -18.8230  -38.3417 C   0  0  0  0  0  0  0  0  0  0  0  0
   -1.0013  -20.0065  -38.7269 O   0  0  0  0  0  0  0  0  0  0  0  0
    0.2128  -20.2917  -38.1073 C   0  0  0  0  0  0  0  0  0  0  0  0
   -2.8523  -18.6685  -39.1690 C   0  0  0  0  0  0  0  0  0  0  0  0
   -3.7958  -17.7151  -38.4802 C   0  0  0  0  0  0  0  0  0  0  0  0
   -3.0554  -16.8417  -37.5543 N   0  0  0  0  0  0  0  0  0  0  0  0
   -2.4930  -17.4980  -36.4113 C   0  0  0  0  0  0  0  0  0  0  0  0
   -1.9778  -18.8465  -36.9079 C   0  0  0  0  0  0  0  0  0  0  0  0
   -2.8793  -15.4788  -37.7906 C   0  0  0  0  0  0  0  0  0  0  0  0
   -3.3224  -14.9304  -38.8734 O   0  0  0  0  0  0  0  0  0  0  0  0
    1.5142  -17.1312  -39.4098 O   0  0  0  0  0  0  0  0  0  0  0  0
    0.5355  -18.9241  -40.5433 C   0  0  0  0  0  0  0  0  0  0  0  0
    1.4282  -16.7931  -40.3372 H   0  0  0  0  0  0  0  0  0  0  0  0
    5.3594  -21.6034  -40.1104 Br  0  0  0  0  0  0  0  0  0  0  0  0
    4.5528  -20.3739  -38.9168 C   0  0  0  0  0  0  0  0  0  0  0  0
    3.1677  -20.2134  -38.9556 C   0  0  0  0  0  0  0  0  0  0  0  0
    2.5280  -19.3668  -38.1455 N   0  0  0  0  0  0  0  0  0  0  0  0
    3.3063  -18.6613  -37.2702 C   0  0  0  0  0  0  0  0  0  0  0  0
    2.7496  -17.8488  -36.4831 O   0  0  0  0  0  0  0  0  0  0  0  0
    4.6419  -18.7955  -37.2092 N   0  0  0  0  0  0  0  0  0  0  0  0
    5.2999  -19.6439  -38.0191 C   0  0  0  0  0  0  0  0  0  0  0  0
    6.5661  -19.7717  -37.9618 O   0  0  0  0  0  0  0  0  0  0  0  0
    5.1687  -18.2138  -36.5049 H   0  0  0  0  0  0  0  0  0  0  0  0
   -2.2000  -14.5887  -36.8621 C   0  0  0  0  0  0  0  0  0  0  0  0
   -0.8935  -14.2251  -37.3548 N   0  0  0  0  0  0  0  0  0  0  0  0
    0.3517  -14.6723  -36.9298 C   0  0  0  0  0  0  0  0  0  0  0  0
    0.5546  -15.4857  -36.0047 O   0  0  0  0  0  0  0  0  0  0  0  0
    1.6211  -14.1760  -37.5973 C   0  0  0  0  0  0  0  0  0  0  0  0
   -0.9067  -13.5143  -38.1499 H   0  0  0  0  0  0  0  0  0  0  0  0
   -3.0200  -13.2843  -36.6116 C   0  0  0  0  0  0  0  0  0  0  0  0
   -2.1314  -12.2215  -36.1090 C   0  0  0  0  0  0  0  0  0  0  0  0
   -1.3288  -11.4036  -36.7716 N   0  0  0  0  0  0  0  0  0  0  0  0
   -0.6727  -10.5585  -35.9297 C   0  0  0  0  0  0  0  0  0  0  0  0
   -1.0899  -10.8689  -34.6877 N   0  0  0  0  0  0  0  0  0  0  0  0
   -1.9789  -11.8808  -34.7755 C   0  0  0  0  0  0  0  0  0  0  0  0
   -0.7482  -10.3761  -33.8272 H   0  0  0  0  0  0  0  0  0  0  0  0
 17 18  1  0  0  0
 18 19  2  0  0  0
 18 24  1  0  0  0
 19 20  1  0  0  0
 20 21  1  0  0  0
 20  1  1  0  0  0
 21 22  2  0  0  0
 21 23  1  0  0  0
 23 24  1  0  0  0
 24 25  2  0  0  0
  1  2  1  0  0  0
  1  6  1  0  0  0
  2  3  1  0  0  0
  2 14  1  0  0  0
  2 15  1  0  0  0
  3  4  1  0  0  0
  4  5  1  0  0  0
  4  7  1  0  0  0
  4 11  1  0  0  0
  5  6  1  0  0  0
  7  8  1  0  0  0
  8  9  1  0  0  0
  9 10  1  0  0  0
  9 12  1  0  0  0
 10 11  1  0  0  0
 12 13  2  0  0  0
 12 27  1  0  0  0
 27 28  1  0  0  0
 27 33  1  0  0  0
 28 29  1  0  0  0
 29 30  2  0  0  0
 29 31  1  0  0  0
 33 34  1  0  0  0
 34 35  1  0  0  0
 34 38  2  0  0  0
 35 36  2  0  0  0
 36 37  1  0  0  0
 37 38  1  0  0  0
 23 26  1  0  0  0
 28 32  1  0  0  0
 37 39  1  0  0  0
 14 16  1  0  0  0
M  END
> <minimizedAffinity>
-6.30203

$$$$
786


 25 28  0  0  0  0  0  0  0  0999 V2000
    2.5792  -18.0732  -37.7277 N   0  0  0  0  0  0  0  0  0  0  0  0
    2.0179  -17.2277  -36.7579 C   0  0  0  0  0  0  0  0  0  0  0  0
    2.3571  -17.3382  -35.5614 O   0  0  0  0  0  0  0  0  0  0  0  0
    2.2897  -17.9725  -38.7192 H   0  0  0  0  0  0  0  0  0  0  0  0
    1.0270  -16.2042  -37.1391 C   0  0  0  0  0  0  0  0  0  0  0  0
    0.2511  -16.6455  -38.3545 C   0  0  0  0  0  0  0  0  0  0  0  0
   -0.4241  -17.8791  -37.9995 N   0  0  0  0  0  0  0  0  0  0  0  0
   -0.9128  -18.0467  -36.7599 C   0  0  0  0  0  0  0  0  0  0  0  0
   -1.4771  -19.2707  -36.7246 N   0  0  0  0  0  0  0  0  0  0  0  0
   -1.3489  -19.8417  -37.8857 N   0  0  0  0  0  0  0  0  0  0  0  0
   -0.6975  -18.9887  -38.6865 C   0  0  0  0  0  0  0  0  0  0  0  0
   -0.3682  -19.3102  -40.1097 C   0  0  0  0  0  0  0  0  0  0  0  0
   -0.8222  -17.0502  -35.6816 C   0  0  0  0  0  0  0  0  0  0  0  0
    0.1118  -15.9302  -35.9739 C   0  0  0  0  0  0  0  0  0  0  0  0
    3.5500  -19.0694  -37.3324 C   0  0  0  0  0  0  0  0  0  0  0  0
    7.1359  -22.9536  -43.1145 Br  0  0  0  0  0  0  0  0  0  0  0  0
    5.8129  -22.2750  -41.9072 C   0  0  0  0  0  0  0  0  0  0  0  0
    6.1261  -21.3858  -40.9031 C   0  0  0  0  0  0  0  0  0  0  0  0
    5.1870  -20.9002  -40.0426 N   0  0  0  0  0  0  0  0  0  0  0  0
    3.9122  -21.3067  -40.1830 C   0  0  0  0  0  0  0  0  0  0  0  0
    3.1682  -20.7069  -39.2378 N   0  0  0  0  0  0  0  0  0  0  0  0
    3.9533  -19.9140  -38.4852 C   0  0  0  0  0  0  0  0  0  0  0  0
    5.2243  -20.0453  -39.0038 C   0  0  0  0  0  0  0  0  0  0  0  0
    3.5634  -22.2044  -41.1880 C   0  0  0  0  0  0  0  0  0  0  0  0
    4.5079  -22.6945  -42.0547 C   0  0  0  0  0  0  0  0  0  0  0  0
 16 17  1  0  0  0
 17 18  2  0  0  0
 17 25  1  0  0  0
 18 19  1  0  0  0
 19 20  1  0  0  0
 19 23  1  0  0  0
 20 21  2  0  0  0
 20 24  1  0  0  0
 21 22  1  0  0  0
 22 23  2  0  0  0
 22 15  1  0  0  0
 15  1  1  0  0  0
  1  2  1  0  0  0
  2  3  2  0  0  0
  2  5  1  0  0  0
  5  6  1  0  0  0
  5 14  1  0  0  0
  6  7  1  0  0  0
  7  8  1  0  0  0
  7 11  1  0  0  0
  8  9  2  0  0  0
  8 13  1  0  0  0
  9 10  1  0  0  0
 10 11  2  0  0  0
 11 12  1  0  0  0
 13 14  1  0  0  0
 24 25  2  0  0  0
  1  4  1  0  0  0
M  END
> <minimizedAffinity>
-5.94133

$$$$
789


 21 24  0  0  0  0  0  0  0  0999 V2000
    3.3757  -18.7027  -37.0423 C   0  0  0  0  0  0  0  0  0  0  0  0
    3.8723  -18.9093  -35.9022 O   0  0  0  0  0  0  0  0  0  0  0  0
    2.4030  -17.6791  -37.1716 N   0  0  0  0  0  0  0  0  0  0  0  0
    2.0177  -16.9170  -36.0407 C   0  0  0  0  0  0  0  0  0  0  0  0
    0.6408  -16.3722  -36.1224 C   0  0  0  0  0  0  0  0  0  0  0  0
   -0.0811  -16.6674  -37.3269 N   0  0  0  0  0  0  0  0  0  0  0  0
    0.7313  -16.4295  -38.5055 C   0  0  0  0  0  0  0  0  0  0  0  0
    1.8426  -17.4614  -38.4777 C   0  0  0  0  0  0  0  0  0  0  0  0
   -1.2461  -15.8410  -37.2341 C   0  0  0  0  0  0  0  0  0  0  0  0
   -0.7754  -14.5528  -36.6067 C   0  0  0  0  0  0  0  0  0  0  0  0
    0.6131  -14.8537  -36.0881 C   0  0  0  0  0  0  0  0  0  0  0  0
    4.4470  -23.7451  -42.9131 Br  0  0  0  0  0  0  0  0  0  0  0  0
    4.7186  -22.3280  -41.6441 C   0  0  0  0  0  0  0  0  0  0  0  0
    3.7688  -22.0183  -40.6958 C   0  0  0  0  0  0  0  0  0  0  0  0
    3.9463  -21.0196  -39.7922 N   0  0  0  0  0  0  0  0  0  0  0  0
    3.2093  -20.5338  -38.8057 N   0  0  0  0  0  0  0  0  0  0  0  0
    3.8232  -19.5212  -38.1779 C   0  0  0  0  0  0  0  0  0  0  0  0
    5.0380  -19.3935  -38.8519 C   0  0  0  0  0  0  0  0  0  0  0  0
    5.1028  -20.3350  -39.8591 C   0  0  0  0  0  0  0  0  0  0  0  0
    6.0475  -20.6327  -40.7898 N   0  0  0  0  0  0  0  0  0  0  0  0
    5.8949  -21.6137  -41.6922 C   0  0  0  0  0  0  0  0  0  0  0  0
 12 13  1  0  0  0
 13 14  2  0  0  0
 13 21  1  0  0  0
 14 15  1  0  0  0
 15 16  1  0  0  0
 15 19  1  0  0  0
 16 17  2  0  0  0
 17 18  1  0  0  0
 17  1  1  0  0  0
 18 19  2  0  0  0
 19 20  1  0  0  0
 20 21  2  0  0  0
  1  2  2  0  0  0
  1  3  1  0  0  0
  3  4  1  0  0  0
  3  8  1  0  0  0
  4  5  1  0  0  0
  5  6  1  0  0  0
  5 11  1  0  0  0
  6  7  1  0  0  0
  6  9  1  0  0  0
  7  8  1  0  0  0
  9 10  1  0  0  0
 10 11  1  0  0  0
M  END
> <minimizedAffinity>
-6.17806

$$$$
790


 25 28  0  0  0  0  0  0  0  0999 V2000
    0.5089  -17.9691  -38.8593 C   0  0  0  0  0  0  0  0  0  0  0  0
   -0.5389  -18.3672  -39.4446 O   0  0  0  0  0  0  0  0  0  0  0  0
    0.4436  -17.3674  -37.5763 N   0  0  0  0  0  0  0  0  0  0  0  0
    1.7104  -16.9332  -36.9676 C   0  0  0  0  0  0  0  0  0  0  0  0
    1.2967  -15.8082  -36.0188 C   0  0  0  0  0  0  0  0  0  0  0  0
    0.2665  -15.0817  -36.6995 N   0  0  0  0  0  0  0  0  0  0  0  0
   -1.0761  -15.7109  -36.5296 C   0  0  0  0  0  0  0  0  0  0  0  0
   -0.8192  -17.1797  -36.8773 C   0  0  0  0  0  0  0  0  0  0  0  0
    0.3840  -13.9496  -37.4890 C   0  0  0  0  0  0  0  0  0  0  0  0
   -0.7159  -13.4465  -37.9667 O   0  0  0  0  0  0  0  0  0  0  0  0
    6.4392  -21.7524  -38.7302 Br  0  0  0  0  0  0  0  0  0  0  0  0
    4.9079  -20.6366  -38.9198 C   0  0  0  0  0  0  0  0  0  0  0  0
    4.8396  -19.7098  -39.9119 C   0  0  0  0  0  0  0  0  0  0  0  0
    3.7749  -18.9292  -40.0491 N   0  0  0  0  0  0  0  0  0  0  0  0
    3.4865  -17.9677  -40.9279 N   0  0  0  0  0  0  0  0  0  0  0  0
    2.2704  -17.4812  -40.6302 C   0  0  0  0  0  0  0  0  0  0  0  0
    1.7700  -18.1470  -39.5356 C   0  0  0  0  0  0  0  0  0  0  0  0
    2.7534  -19.0661  -39.1864 C   0  0  0  0  0  0  0  0  0  0  0  0
    2.8054  -19.9764  -38.2013 N   0  0  0  0  0  0  0  0  0  0  0  0
    3.8657  -20.7722  -38.0443 C   0  0  0  0  0  0  0  0  0  0  0  0
    1.5714  -13.2108  -37.8845 C   0  0  0  0  0  0  0  0  0  0  0  0
    2.1446  -12.2457  -37.1520 O   0  0  0  0  0  0  0  0  0  0  0  0
    3.1833  -11.7502  -37.7326 C   0  0  0  0  0  0  0  0  0  0  0  0
    3.3764  -12.3786  -38.9372 C   0  0  0  0  0  0  0  0  0  0  0  0
    2.3452  -13.3005  -39.0163 C   0  0  0  0  0  0  0  0  0  0  0  0
 11 12  1  0  0  0
 12 13  2  0  0  0
 12 20  1  0  0  0
 13 14  1  0  0  0
 14 15  1  0  0  0
 14 18  1  0  0  0
 15 16  2  0  0  0
 16 17  1  0  0  0
 17 18  2  0  0  0
 17  1  1  0  0  0
 18 19  1  0  0  0
 19 20  2  0  0  0
  1  2  2  0  0  0
  1  3  1  0  0  0
  3  4  1  0  0  0
  3  8  1  0  0  0
  4  5  1  0  0  0
  5  6  1  0  0  0
  6  7  1  0  0  0
  6  9  1  0  0  0
  7  8  1  0  0  0
  9 10  2  0  0  0
  9 21  1  0  0  0
 21 22  1  0  0  0
 21 25  2  0  0  0
 22 23  1  0  0  0
 23 24  2  0  0  0
 24 25  1  0  0  0
M  END
> <minimizedAffinity>
-5.71620

$$$$
797


 28 31  0  0  0  0  0  0  0  0999 V2000
    1.9969  -17.0962  -37.2618 O   0  0  0  0  0  0  0  0  0  0  0  0
    0.9658  -16.4013  -36.6652 C   0  0  0  0  0  0  0  0  0  0  0  0
    0.5847  -16.7248  -35.5220 O   0  0  0  0  0  0  0  0  0  0  0  0
    0.3395  -15.2830  -37.4071 C   0  0  0  0  0  0  0  0  0  0  0  0
    1.3115  -14.2872  -37.7563 N   0  0  0  0  0  0  0  0  0  0  0  0
    1.9233  -14.1265  -39.0170 C   0  0  0  0  0  0  0  0  0  0  0  0
    1.7623  -14.7919  -40.0728 O   0  0  0  0  0  0  0  0  0  0  0  0
    2.8573  -12.9828  -38.9345 C   0  0  0  0  0  0  0  0  0  0  0  0
    2.7928  -12.4872  -37.6605 C   0  0  0  0  0  0  0  0  0  0  0  0
    3.5461  -11.4180  -37.2690 C   0  0  0  0  0  0  0  0  0  0  0  0
    4.3854  -10.8354  -38.1872 C   0  0  0  0  0  0  0  0  0  0  0  0
    4.4505  -11.3347  -39.4737 C   0  0  0  0  0  0  0  0  0  0  0  0
    3.6946  -12.4135  -39.8787 C   0  0  0  0  0  0  0  0  0  0  0  0
    1.8290  -13.2908  -36.9050 C   0  0  0  0  0  0  0  0  0  0  0  0
    1.5331  -13.0942  -35.6867 O   0  0  0  0  0  0  0  0  0  0  0  0
    2.7616  -18.1031  -36.6527 C   0  0  0  0  0  0  0  0  0  0  0  0
    5.6135  -23.1371  -42.6983 Br  0  0  0  0  0  0  0  0  0  0  0  0
    4.7046  -22.0058  -41.4441 C   0  0  0  0  0  0  0  0  0  0  0  0
    5.3619  -21.4360  -40.3759 C   0  0  0  0  0  0  0  0  0  0  0  0
    4.7566  -20.6355  -39.4722 N   0  0  0  0  0  0  0  0  0  0  0  0
    3.4477  -20.3395  -39.5614 C   0  0  0  0  0  0  0  0  0  0  0  0
    2.8291  -19.5449  -38.6709 N   0  0  0  0  0  0  0  0  0  0  0  0
    3.4702  -18.9812  -37.6195 C   0  0  0  0  0  0  0  0  0  0  0  0
    4.8135  -19.2719  -37.5078 C   0  0  0  0  0  0  0  0  0  0  0  0
    5.4374  -20.0965  -38.4395 C   0  0  0  0  0  0  0  0  0  0  0  0
    6.6457  -20.3645  -38.3485 O   0  0  0  0  0  0  0  0  0  0  0  0
    2.7541  -20.9033  -40.6354 C   0  0  0  0  0  0  0  0  0  0  0  0
    3.3610  -21.7214  -41.5630 C   0  0  0  0  0  0  0  0  0  0  0  0
 17 18  1  0  0  0
 18 19  2  0  0  0
 18 28  1  0  0  0
 19 20  1  0  0  0
 20 21  1  0  0  0
 20 25  1  0  0  0
 21 22  2  0  0  0
 21 27  1  0  0  0
 22 23  1  0  0  0
 23 24  2  0  0  0
 23 16  1  0  0  0
 24 25  1  0  0  0
 25 26  2  0  0  0
 16  1  1  0  0  0
  1  2  1  0  0  0
  2  3  2  0  0  0
  2  4  1  0  0  0
  4  5  1  0  0  0
  5  6  1  0  0  0
  5 14  1  0  0  0
  6  7  2  0  0  0
  6  8  1  0  0  0
  8  9  2  0  0  0
  8 13  1  0  0  0
  9 10  1  0  0  0
  9 14  1  0  0  0
 10 11  2  0  0  0
 11 12  1  0  0  0
 12 13  2  0  0  0
 14 15  2  0  0  0
 27 28  2  0  0  0
M  END
> <minimizedAffinity>
-7.46986

$$$$
800


 29 32  0  0  0  0  0  0  0  0999 V2000
    0.5555  -18.2452  -39.3200 C   0  0  0  0  0  0  0  0  0  0  0  0
    1.0476  -18.1604  -40.4748 O   0  0  0  0  0  0  0  0  0  0  0  0
   -0.3332  -17.2765  -38.9190 O   0  0  0  0  0  0  0  0  0  0  0  0
   -0.4028  -16.7988  -37.5887 C   0  0  0  0  0  0  0  0  0  0  0  0
    4.2376   -9.9843  -38.1540 Br  0  0  0  0  0  0  0  0  0  0  0  0
    3.2760  -11.6298  -38.2837 C   0  0  0  0  0  0  0  0  0  0  0  0
    2.4328  -11.9941  -37.2564 C   0  0  0  0  0  0  0  0  0  0  0  0
    1.7552  -13.1511  -37.3442 N   0  0  0  0  0  0  0  0  0  0  0  0
    1.8767  -13.9657  -38.4123 C   0  0  0  0  0  0  0  0  0  0  0  0
    1.1840  -15.1278  -38.4806 N   0  0  0  0  0  0  0  0  0  0  0  0
    0.3511  -15.5231  -37.5019 C   0  0  0  0  0  0  0  0  0  0  0  0
    0.2136  -14.7047  -36.4051 C   0  0  0  0  0  0  0  0  0  0  0  0
    0.9291  -13.5051  -36.3346 C   0  0  0  0  0  0  0  0  0  0  0  0
    0.8122  -12.7590  -35.3485 O   0  0  0  0  0  0  0  0  0  0  0  0
    2.7202  -13.6064  -39.4452 C   0  0  0  0  0  0  0  0  0  0  0  0
    3.4376  -12.4320  -39.4031 C   0  0  0  0  0  0  0  0  0  0  0  0
    0.9811  -19.3963  -38.4815 C   0  0  0  0  0  0  0  0  0  0  0  0
    2.4055  -19.4879  -38.3555 N   0  0  0  0  0  0  0  0  0  0  0  0
    3.2219  -18.7885  -37.4173 C   0  0  0  0  0  0  0  0  0  0  0  0
    2.7939  -17.9746  -36.5488 O   0  0  0  0  0  0  0  0  0  0  0  0
    4.5746  -19.1708  -37.6383 N   0  0  0  0  0  0  0  0  0  0  0  0
    4.6390  -19.9908  -38.8215 C   0  0  0  0  0  0  0  0  0  0  0  0
    5.2872  -19.2899  -39.9860 C   0  0  0  0  0  0  0  0  0  0  0  0
    5.6852  -20.4170  -40.8863 C   0  0  0  0  0  0  0  0  0  0  0  0
    5.6258  -21.6881  -40.0906 C   0  0  0  0  0  0  0  0  0  0  0  0
    5.4722  -21.2167  -38.6608 C   0  0  0  0  0  0  0  0  0  0  0  0
    3.2534  -20.3075  -39.1630 C   0  0  0  0  0  0  0  0  0  0  0  0
    2.8263  -21.1361  -40.0006 O   0  0  0  0  0  0  0  0  0  0  0  0
    5.3601  -18.8878  -37.0275 H   0  0  0  0  0  0  0  0  0  0  0  0
  5  6  1  0  0  0
  6  7  2  0  0  0
  6 16  1  0  0  0
  7  8  1  0  0  0
  8  9  1  0  0  0
  8 13  1  0  0  0
  9 10  2  0  0  0
  9 15  1  0  0  0
 10 11  1  0  0  0
 11 12  2  0  0  0
 11  4  1  0  0  0
 12 13  1  0  0  0
 13 14  2  0  0  0
  4  3  1  0  0  0
  3  1  1  0  0  0
  1  2  2  0  0  0
  1 17  1  0  0  0
 17 18  1  0  0  0
 18 19  1  0  0  0
 18 27  1  0  0  0
 19 20  2  0  0  0
 19 21  1  0  0  0
 21 22  1  0  0  0
 22 23  1  0  0  0
 22 26  1  0  0  0
 22 27  1  0  0  0
 23 24  1  0  0  0
 24 25  1  0  0  0
 25 26  1  0  0  0
 27 28  2  0  0  0
 15 16  2  0  0  0
 21 29  1  0  0  0
M  END
> <minimizedAffinity>
-6.58965

$$$$
803


 31 34  0  0  0  0  0  0  0  0999 V2000
   -2.3515  -13.4883  -38.9623 Br  0  0  0  0  0  0  0  0  0  0  0  0
   -1.0043  -14.5807  -38.1869 C   0  0  0  0  0  0  0  0  0  0  0  0
   -0.5741  -15.7363  -38.7393 C   0  0  0  0  0  0  0  0  0  0  0  0
    0.4318  -16.4642  -38.2454 N   0  0  0  0  0  0  0  0  0  0  0  0
    1.0481  -16.0291  -37.1471 C   0  0  0  0  0  0  0  0  0  0  0  0
    2.0717  -16.7588  -36.6208 N   0  0  0  0  0  0  0  0  0  0  0  0
    2.4952  -17.8984  -37.1494 C   0  0  0  0  0  0  0  0  0  0  0  0
    1.8753  -18.3689  -38.2845 C   0  0  0  0  0  0  0  0  0  0  0  0
    2.2660  -19.5530  -38.8775 C   0  0  0  0  0  0  0  0  0  0  0  0
    3.3031  -20.3340  -38.3659 C   0  0  0  0  0  0  0  0  0  0  0  0
    3.9166  -19.8532  -37.2294 C   0  0  0  0  0  0  0  0  0  0  0  0
    3.5282  -18.6667  -36.6318 C   0  0  0  0  0  0  0  0  0  0  0  0
    0.8347  -17.6098  -38.8062 C   0  0  0  0  0  0  0  0  0  0  0  0
    0.2618  -18.0266  -39.8373 O   0  0  0  0  0  0  0  0  0  0  0  0
    0.6356  -14.8747  -36.5737 N   0  0  0  0  0  0  0  0  0  0  0  0
   -0.3525  -14.1009  -37.0020 C   0  0  0  0  0  0  0  0  0  0  0  0
    1.2109  -14.6369  -35.7017 H   0  0  0  0  0  0  0  0  0  0  0  0
   -0.8874  -12.9934  -36.4243 N   0  0  0  0  0  0  0  0  0  0  0  0
   -1.9801  -13.6900  -35.9892 H   0  0  0  0  0  0  0  0  0  0  0  0
   -1.4150  -11.9023  -35.8548 C   0  0  0  0  0  0  0  0  0  0  0  0
   -0.8680  -10.6438  -36.1372 C   0  0  0  0  0  0  0  0  0  0  0  0
   -1.2168   -9.5559  -35.4062 C   0  0  0  0  0  0  0  0  0  0  0  0
   -2.1192   -9.6682  -34.3767 C   0  0  0  0  0  0  0  0  0  0  0  0
   -2.6979  -10.8752  -34.0529 C   0  0  0  0  0  0  0  0  0  0  0  0
   -2.3262  -11.9636  -34.8067 C   0  0  0  0  0  0  0  0  0  0  0  0
   -0.0203  -10.4153  -37.3139 C   0  0  0  0  0  0  0  0  0  0  0  0
   -0.5929  -10.2195  -38.4158 O   0  0  0  0  0  0  0  0  0  0  0  0
    1.3444  -10.4023  -37.3183 O   0  0  0  0  0  0  0  0  0  0  0  0
    2.1171  -11.2437  -38.1528 C   0  0  0  0  0  0  0  0  0  0  0  0
    3.1421  -12.0190  -37.3200 C   0  0  0  0  0  0  0  0  0  0  0  0
    4.3653  -11.1536  -37.1322 C   0  0  0  0  0  0  0  0  0  0  0  0
  1  2  1  0  0  0
  2  3  2  0  0  0
  2 16  1  0  0  0
  3  4  1  0  0  0
  4  5  1  0  0  0
  4 13  1  0  0  0
  5  6  2  0  0  0
  5 15  1  0  0  0
  6  7  1  0  0  0
  7  8  2  0  0  0
  7 12  1  0  0  0
  8  9  1  0  0  0
  8 13  1  0  0  0
  9 10  2  0  0  0
 10 11  1  0  0  0
 11 12  2  0  0  0
 13 14  2  0  0  0
 15 16  2  0  0  0
 16 18  1  0  0  0
 18 20  1  0  0  0
 20 21  2  0  0  0
 20 25  1  0  0  0
 21 22  1  0  0  0
 21 26  1  0  0  0
 22 23  2  0  0  0
 23 24  1  0  0  0
 24 25  2  0  0  0
 26 27  2  0  0  0
 26 28  1  0  0  0
 28 29  1  0  0  0
 29 30  1  0  0  0
 30 31  1  0  0  0
 15 17  1  0  0  0
 18 19  1  0  0  0
M  END
> <minimizedAffinity>
-6.04539

$$$$
814


 31 34  0  0  0  0  0  0  0  0999 V2000
    1.0860  -16.3667  -37.8532 N   0  0  0  0  0  0  0  0  0  0  0  0
    2.1374  -16.7328  -37.1561 N   0  0  0  0  0  0  0  0  0  0  0  0
    2.3529  -18.0504  -37.2841 C   0  0  0  0  0  0  0  0  0  0  0  0
    1.3958  -18.5254  -38.0945 N   0  0  0  0  0  0  0  0  0  0  0  0
    0.6078  -17.4666  -38.4448 C   0  0  0  0  0  0  0  0  0  0  0  0
   -0.5616  -17.5170  -39.3206 C   0  0  0  0  0  0  0  0  0  0  0  0
   -1.6317  -18.4602  -38.8236 C   0  0  0  0  0  0  0  0  0  0  0  0
   -1.2306  -19.9091  -38.9913 C   0  0  0  0  0  0  0  0  0  0  0  0
   -0.1506  -20.3355  -38.0457 C   0  0  0  0  0  0  0  0  0  0  0  0
    1.2312  -19.9028  -38.5151 C   0  0  0  0  0  0  0  0  0  0  0  0
    0.5465  -15.0443  -37.9636 C   0  0  0  0  0  0  0  0  0  0  0  0
    1.3644  -14.0491  -37.2207 C   0  0  0  0  0  0  0  0  0  0  0  0
    1.1952  -13.9701  -35.9749 O   0  0  0  0  0  0  0  0  0  0  0  0
    5.4754  -10.3871  -40.0137 Br  0  0  0  0  0  0  0  0  0  0  0  0
    4.1927  -11.5329  -39.1505 C   0  0  0  0  0  0  0  0  0  0  0  0
    3.8972  -11.3495  -37.8106 C   0  0  0  0  0  0  0  0  0  0  0  0
    2.9708  -12.1749  -37.1804 C   0  0  0  0  0  0  0  0  0  0  0  0
    2.3300  -13.1833  -37.8622 C   0  0  0  0  0  0  0  0  0  0  0  0
    2.6479  -13.3381  -39.1930 C   0  0  0  0  0  0  0  0  0  0  0  0
    3.5580  -12.5384  -39.8400 C   0  0  0  0  0  0  0  0  0  0  0  0
    3.4200  -18.8534  -36.6713 C   0  0  0  0  0  0  0  0  0  0  0  0
    4.6302  -18.8348  -37.4345 N   0  0  0  0  0  0  0  0  0  0  0  0
    5.3843  -18.1759  -37.1921 H   0  0  0  0  0  0  0  0  0  0  0  0
    4.8611  -19.6982  -38.5435 C   0  0  0  0  0  0  0  0  0  0  0  0
    4.9599  -19.2281  -39.8334 C   0  0  0  0  0  0  0  0  0  0  0  0
    5.1874  -20.0685  -40.8925 C   0  0  0  0  0  0  0  0  0  0  0  0
    5.3201  -21.4037  -40.6738 C   0  0  0  0  0  0  0  0  0  0  0  0
    5.2213  -21.8782  -39.3844 C   0  0  0  0  0  0  0  0  0  0  0  0
    4.9935  -21.0420  -38.3111 C   0  0  0  0  0  0  0  0  0  0  0  0
    5.5479  -22.2701  -41.7162 O   0  0  0  0  0  0  0  0  0  0  0  0
    4.5120  -22.9124  -42.4173 C   0  0  0  0  0  0  0  0  0  0  0  0
 14 15  1  0  0  0
 15 16  2  0  0  0
 15 20  1  0  0  0
 16 17  1  0  0  0
 17 18  2  0  0  0
 18 19  1  0  0  0
 18 12  1  0  0  0
 19 20  2  0  0  0
 12 13  2  0  0  0
 12 11  1  0  0  0
 11  1  1  0  0  0
  1  2  1  0  0  0
  1  5  2  0  0  0
  2  3  2  0  0  0
  3  4  1  0  0  0
  3 21  1  0  0  0
  4  5  1  0  0  0
  4 10  1  0  0  0
  5  6  1  0  0  0
  6  7  1  0  0  0
  7  8  1  0  0  0
  8  9  1  0  0  0
  9 10  1  0  0  0
 21 22  1  0  0  0
 22 24  1  0  0  0
 24 25  2  0  0  0
 24 29  1  0  0  0
 25 26  1  0  0  0
 26 27  2  0  0  0
 27 28  1  0  0  0
 27 30  1  0  0  0
 28 29  2  0  0  0
 30 31  1  0  0  0
 22 23  1  0  0  0
M  END
> <minimizedAffinity>
-7.01553

$$$$
827


 29 32  0  0  0  0  0  0  0  0999 V2000
    0.6321  -16.5404  -36.5065 C   0  0  0  0  0  0  0  0  0  0  0  0
    0.7334  -17.8334  -37.1794 N   0  0  0  0  0  0  0  0  0  0  0  0
   -0.4537  -18.1232  -37.8068 C   0  0  0  0  0  0  0  0  0  0  0  0
   -0.9146  -19.2690  -38.2429 C   0  0  0  0  0  0  0  0  0  0  0  0
   -2.1663  -19.6936  -38.9342 C   0  0  0  0  0  0  0  0  0  0  0  0
   -3.2073  -18.6231  -39.0297 C   0  0  0  0  0  0  0  0  0  0  0  0
   -2.6817  -17.3959  -39.7363 C   0  0  0  0  0  0  0  0  0  0  0  0
   -2.2092  -16.3764  -38.7186 C   0  0  0  0  0  0  0  0  0  0  0  0
   -1.2400  -16.9091  -37.8164 N   0  0  0  0  0  0  0  0  0  0  0  0
   -0.8873  -16.1853  -36.5876 C   0  0  0  0  0  0  0  0  0  0  0  0
    0.9653  -16.5814  -35.2083 O   0  0  0  0  0  0  0  0  0  0  0  0
    0.6560  -18.4992  -36.2576 H   0  0  0  0  0  0  0  0  0  0  0  0
    1.1526  -15.7680  -34.7174 H   0  0  0  0  0  0  0  0  0  0  0  0
    3.2012  -12.0152  -39.8077 Br  0  0  0  0  0  0  0  0  0  0  0  0
    2.4083  -13.3995  -38.7876 C   0  0  0  0  0  0  0  0  0  0  0  0
    2.0144  -14.5661  -39.4155 C   0  0  0  0  0  0  0  0  0  0  0  0
    1.4419  -15.5889  -38.6894 C   0  0  0  0  0  0  0  0  0  0  0  0
    1.2535  -15.4662  -37.3323 C   0  0  0  0  0  0  0  0  0  0  0  0
    1.6424  -14.3150  -36.7164 C   0  0  0  0  0  0  0  0  0  0  0  0
    2.2263  -13.2629  -37.4347 C   0  0  0  0  0  0  0  0  0  0  0  0
    1.9733  -18.1735  -37.6518 C   0  0  0  0  0  0  0  0  0  0  0  0
    2.2774  -18.4692  -38.9463 C   0  0  0  0  0  0  0  0  0  0  0  0
    3.5255  -18.9799  -39.3417 C   0  0  0  0  0  0  0  0  0  0  0  0
    4.5137  -19.2066  -38.4202 C   0  0  0  0  0  0  0  0  0  0  0  0
    4.2128  -18.9056  -37.0998 C   0  0  0  0  0  0  0  0  0  0  0  0
    2.9868  -18.4064  -36.7163 C   0  0  0  0  0  0  0  0  0  0  0  0
    5.7463  -19.7197  -38.7888 O   0  0  0  0  0  0  0  0  0  0  0  0
    6.1611  -21.0489  -38.6002 C   0  0  0  0  0  0  0  0  0  0  0  0
    5.7595  -21.7943  -39.8875 C   0  0  0  0  0  0  0  0  0  0  0  0
 14 15  1  0  0  0
 15 16  2  0  0  0
 15 20  1  0  0  0
 16 17  1  0  0  0
 17 18  2  0  0  0
 18 19  1  0  0  0
 18  1  1  0  0  0
 19 20  2  0  0  0
  1  2  1  0  0  0
  1 10  1  0  0  0
  1 11  1  0  0  0
  2  3  1  0  0  0
  2 21  1  0  0  0
  3  4  2  0  0  0
  3  9  1  0  0  0
  4  5  1  0  0  0
  5  6  1  0  0  0
  6  7  1  0  0  0
  7  8  1  0  0  0
  8  9  1  0  0  0
  9 10  1  0  0  0
 21 22  2  0  0  0
 21 26  1  0  0  0
 22 23  1  0  0  0
 23 24  2  0  0  0
 24 25  1  0  0  0
 24 27  1  0  0  0
 25 26  2  0  0  0
 27 28  1  0  0  0
 28 29  1  0  0  0
  2 12  1  0  0  0
 11 13  1  0  0  0
M  CHG 1   2   1
M  END
> <minimizedAffinity>
-6.75078

$$$$
833


 28 31  0  0  0  0  0  0  0  0999 V2000
    1.1112  -16.5022  -36.7104 C   0  0  0  0  0  0  0  0  0  0  0  0
    0.1908  -17.1518  -37.6335 N   0  0  0  0  0  0  0  0  0  0  0  0
   -0.9868  -16.4805  -38.1720 C   0  0  0  0  0  0  0  0  0  0  0  0
   -1.9369  -17.4073  -38.8369 C   0  0  0  0  0  0  0  0  0  0  0  0
   -2.3240  -18.5981  -37.9989 C   0  0  0  0  0  0  0  0  0  0  0  0
   -1.4178  -19.7320  -38.4406 C   0  0  0  0  0  0  0  0  0  0  0  0
   -0.0191  -19.5491  -38.1856 C   0  0  0  0  0  0  0  0  0  0  0  0
    0.6756  -18.4415  -37.8381 C   0  0  0  0  0  0  0  0  0  0  0  0
    2.0709  -18.4951  -37.6516 N   0  0  0  0  0  0  0  0  0  0  0  0
    2.3661  -17.2325  -37.0393 C   0  0  0  0  0  0  0  0  0  0  0  0
    0.6448  -16.7263  -35.4412 O   0  0  0  0  0  0  0  0  0  0  0  0
    2.3935  -19.2597  -37.0148 H   0  0  0  0  0  0  0  0  0  0  0  0
   -0.2322  -16.3286  -35.2583 H   0  0  0  0  0  0  0  0  0  0  0  0
    1.4970  -10.4820  -37.7648 Br  0  0  0  0  0  0  0  0  0  0  0  0
    1.3663  -12.3642  -37.4396 C   0  0  0  0  0  0  0  0  0  0  0  0
    1.9027  -13.2450  -38.3501 C   0  0  0  0  0  0  0  0  0  0  0  0
    1.8230  -14.6225  -38.1416 C   0  0  0  0  0  0  0  0  0  0  0  0
    1.1772  -15.0516  -36.9787 C   0  0  0  0  0  0  0  0  0  0  0  0
    0.6424  -14.1900  -36.0738 C   0  0  0  0  0  0  0  0  0  0  0  0
    0.7320  -12.8268  -36.2986 C   0  0  0  0  0  0  0  0  0  0  0  0
    2.6408  -18.6152  -38.9553 C   0  0  0  0  0  0  0  0  0  0  0  0
    3.5079  -19.6517  -39.2571 C   0  0  0  0  0  0  0  0  0  0  0  0
    4.0675  -19.6353  -40.5282 C   0  0  0  0  0  0  0  0  0  0  0  0
    3.8098  -18.6642  -41.4779 C   0  0  0  0  0  0  0  0  0  0  0  0
    2.9194  -17.6282  -41.1242 C   0  0  0  0  0  0  0  0  0  0  0  0
    2.3819  -17.6571  -39.8883 C   0  0  0  0  0  0  0  0  0  0  0  0
    3.7680  -20.6155  -38.3316 O   0  0  0  0  0  0  0  0  0  0  0  0
    4.8008  -21.5492  -38.5101 C   0  0  0  0  0  0  0  0  0  0  0  0
 14 15  1  0  0  0
 15 16  2  0  0  0
 15 20  1  0  0  0
 16 17  1  0  0  0
 17 18  2  0  0  0
 18 19  1  0  0  0
 18  1  1  0  0  0
 19 20  2  0  0  0
  1  2  1  0  0  0
  1 10  1  0  0  0
  1 11  1  0  0  0
  2  3  1  0  0  0
  2  8  1  0  0  0
  3  4  1  0  0  0
  4  5  1  0  0  0
  5  6  1  0  0  0
  6  7  1  0  0  0
  7  8  2  0  0  0
  8  9  1  0  0  0
  9 10  1  0  0  0
  9 21  1  0  0  0
 21 22  2  0  0  0
 21 26  1  0  0  0
 22 23  1  0  0  0
 22 27  1  0  0  0
 23 24  2  0  0  0
 24 25  1  0  0  0
 25 26  2  0  0  0
 27 28  1  0  0  0
  9 12  1  0  0  0
 11 13  1  0  0  0
M  CHG 1   9   1
M  END
> <minimizedAffinity>
-6.43585

$$$$
834


 28 31  0  0  0  0  0  0  0  0999 V2000
    1.0825  -16.6456  -37.2107 C   0  0  0  0  0  0  0  0  0  0  0  0
   -0.3095  -16.9616  -37.2007 N   0  0  0  0  0  0  0  0  0  0  0  0
   -1.0029  -17.8570  -36.3269 C   0  0  0  0  0  0  0  0  0  0  0  0
   -1.9627  -18.8017  -36.9397 C   0  0  0  0  0  0  0  0  0  0  0  0
   -2.1643  -18.7101  -38.4090 C   0  0  0  0  0  0  0  0  0  0  0  0
   -2.9635  -17.4686  -38.8064 C   0  0  0  0  0  0  0  0  0  0  0  0
   -1.9766  -16.3528  -38.9442 C   0  0  0  0  0  0  0  0  0  0  0  0
   -0.8602  -16.1425  -38.2673 C   0  0  0  0  0  0  0  0  0  0  0  0
    0.0174  -15.0471  -38.4979 N   0  0  0  0  0  0  0  0  0  0  0  0
    1.2855  -15.7074  -38.4051 C   0  0  0  0  0  0  0  0  0  0  0  0
    1.4959  -16.0090  -36.0242 O   0  0  0  0  0  0  0  0  0  0  0  0
   -0.1759  -14.6792  -39.4634 H   0  0  0  0  0  0  0  0  0  0  0  0
    2.0986  -15.2805  -36.3220 H   0  0  0  0  0  0  0  0  0  0  0  0
    4.8158  -21.3572  -38.6130 Br  0  0  0  0  0  0  0  0  0  0  0  0
    3.6881  -19.8878  -38.1350 C   0  0  0  0  0  0  0  0  0  0  0  0
    3.8729  -19.2033  -36.9527 C   0  0  0  0  0  0  0  0  0  0  0  0
    3.0407  -18.1411  -36.6222 C   0  0  0  0  0  0  0  0  0  0  0  0
    2.0306  -17.7358  -37.4295 C   0  0  0  0  0  0  0  0  0  0  0  0
    1.8364  -18.4334  -38.6405 C   0  0  0  0  0  0  0  0  0  0  0  0
    2.6642  -19.4796  -38.9563 C   0  0  0  0  0  0  0  0  0  0  0  0
   -0.1867  -14.0765  -37.5042 C   0  0  0  0  0  0  0  0  0  0  0  0
   -1.4524  -13.9046  -36.9143 C   0  0  0  0  0  0  0  0  0  0  0  0
   -1.6846  -12.9649  -35.9466 C   0  0  0  0  0  0  0  0  0  0  0  0
   -0.6730  -12.1393  -35.5045 C   0  0  0  0  0  0  0  0  0  0  0  0
    0.5698  -12.2880  -36.0639 C   0  0  0  0  0  0  0  0  0  0  0  0
    0.8028  -13.2350  -37.0401 C   0  0  0  0  0  0  0  0  0  0  0  0
   -0.9213  -11.1761  -34.5080 O   0  0  0  0  0  0  0  0  0  0  0  0
   -1.3720   -9.8965  -34.8658 C   0  0  0  0  0  0  0  0  0  0  0  0
 14 15  1  0  0  0
 15 16  2  0  0  0
 15 20  1  0  0  0
 16 17  1  0  0  0
 17 18  2  0  0  0
 18 19  1  0  0  0
 18  1  1  0  0  0
 19 20  2  0  0  0
  1  2  1  0  0  0
  1 10  1  0  0  0
  1 11  1  0  0  0
  2  3  1  0  0  0
  2  8  1  0  0  0
  3  4  1  0  0  0
  4  5  1  0  0  0
  5  6  1  0  0  0
  6  7  1  0  0  0
  7  8  2  0  0  0
  8  9  1  0  0  0
  9 10  1  0  0  0
  9 21  1  0  0  0
 21 22  2  0  0  0
 21 26  1  0  0  0
 22 23  1  0  0  0
 23 24  2  0  0  0
 24 25  1  0  0  0
 24 27  1  0  0  0
 25 26  2  0  0  0
 27 28  1  0  0  0
  9 12  1  0  0  0
 11 13  1  0  0  0
M  CHG 1   9   1
M  END
> <minimizedAffinity>
-6.62096

$$$$
835


 27 30  0  0  0  0  0  0  0  0999 V2000
    1.5954  -12.8920  -37.7224 C   0  0  0  0  0  0  0  0  0  0  0  0
    0.7811  -11.9152  -37.0317 N   0  0  0  0  0  0  0  0  0  0  0  0
    0.4405  -10.5149  -37.1690 C   0  0  0  0  0  0  0  0  0  0  0  0
   -0.9852  -10.2281  -36.7444 C   0  0  0  0  0  0  0  0  0  0  0  0
   -1.1480  -10.6642  -35.3272 C   0  0  0  0  0  0  0  0  0  0  0  0
   -0.6795  -12.0518  -35.1262 C   0  0  0  0  0  0  0  0  0  0  0  0
    0.2219  -12.6254  -35.9288 C   0  0  0  0  0  0  0  0  0  0  0  0
    0.7655  -13.9226  -35.8300 N   0  0  0  0  0  0  0  0  0  0  0  0
    2.0185  -13.7993  -36.6032 C   0  0  0  0  0  0  0  0  0  0  0  0
    0.8693  -13.6467  -38.6379 O   0  0  0  0  0  0  0  0  0  0  0  0
    1.1328  -14.1098  -34.8396 H   0  0  0  0  0  0  0  0  0  0  0  0
    1.3845  -14.4748  -38.7937 H   0  0  0  0  0  0  0  0  0  0  0  0
    6.4964  -10.3264  -40.5292 Br  0  0  0  0  0  0  0  0  0  0  0  0
    4.9748  -11.1344  -39.6808 C   0  0  0  0  0  0  0  0  0  0  0  0
    4.7191  -10.8601  -38.3561 C   0  0  0  0  0  0  0  0  0  0  0  0
    3.6080  -11.4473  -37.7517 C   0  0  0  0  0  0  0  0  0  0  0  0
    2.7542  -12.2924  -38.4275 C   0  0  0  0  0  0  0  0  0  0  0  0
    3.0321  -12.5511  -39.7564 C   0  0  0  0  0  0  0  0  0  0  0  0
    4.1291  -11.9765  -40.3700 C   0  0  0  0  0  0  0  0  0  0  0  0
   -0.0127  -14.9757  -36.2984 C   0  0  0  0  0  0  0  0  0  0  0  0
    0.4323  -16.2714  -36.3845 C   0  0  0  0  0  0  0  0  0  0  0  0
   -0.3982  -17.2774  -36.8836 C   0  0  0  0  0  0  0  0  0  0  0  0
   -1.6744  -16.9953  -37.2978 C   0  0  0  0  0  0  0  0  0  0  0  0
   -2.1306  -15.6978  -37.2132 C   0  0  0  0  0  0  0  0  0  0  0  0
   -1.3100  -14.7141  -36.7214 C   0  0  0  0  0  0  0  0  0  0  0  0
    1.7008  -16.6449  -35.9885 O   0  0  0  0  0  0  0  0  0  0  0  0
    2.4424  -17.5659  -36.7171 C   0  0  0  0  0  0  0  0  0  0  0  0
 13 14  1  0  0  0
 14 15  2  0  0  0
 14 19  1  0  0  0
 15 16  1  0  0  0
 16 17  2  0  0  0
 17 18  1  0  0  0
 17  1  1  0  0  0
 18 19  2  0  0  0
  1  2  1  0  0  0
  1  9  1  0  0  0
  1 10  1  0  0  0
  2  3  1  0  0  0
  2  7  1  0  0  0
  3  4  1  0  0  0
  4  5  1  0  0  0
  5  6  1  0  0  0
  6  7  2  0  0  0
  7  8  1  0  0  0
  8  9  1  0  0  0
  8 20  1  0  0  0
 20 21  2  0  0  0
 20 25  1  0  0  0
 21 22  1  0  0  0
 21 26  1  0  0  0
 22 23  2  0  0  0
 23 24  1  0  0  0
 24 25  2  0  0  0
 26 27  1  0  0  0
  8 11  1  0  0  0
 10 12  1  0  0  0
M  CHG 1   8   1
M  END
> <minimizedAffinity>
-6.53201

$$$$
836


 27 30  0  0  0  0  0  0  0  0999 V2000
    0.5915  -15.3316  -38.6400 C   0  0  0  0  0  0  0  0  0  0  0  0
    0.4051  -16.2688  -37.5601 N   0  0  0  0  0  0  0  0  0  0  0  0
    0.3776  -16.1930  -36.1057 C   0  0  0  0  0  0  0  0  0  0  0  0
   -0.4856  -17.1960  -35.4451 C   0  0  0  0  0  0  0  0  0  0  0  0
   -1.2998  -18.0691  -36.3669 C   0  0  0  0  0  0  0  0  0  0  0  0
   -0.6064  -18.4027  -37.6076 C   0  0  0  0  0  0  0  0  0  0  0  0
    0.2104  -17.5338  -38.1742 C   0  0  0  0  0  0  0  0  0  0  0  0
    1.0072  -17.5758  -39.3539 N   0  0  0  0  0  0  0  0  0  0  0  0
    1.1449  -16.2060  -39.7414 C   0  0  0  0  0  0  0  0  0  0  0  0
   -0.6845  -14.8387  -38.9826 O   0  0  0  0  0  0  0  0  0  0  0  0
    0.4504  -18.1101  -40.0746 H   0  0  0  0  0  0  0  0  0  0  0  0
   -1.1889  -14.7861  -38.1341 H   0  0  0  0  0  0  0  0  0  0  0  0
    4.3072  -10.5071  -37.4387 Br  0  0  0  0  0  0  0  0  0  0  0  0
    3.1595  -11.9882  -37.7996 C   0  0  0  0  0  0  0  0  0  0  0  0
    3.1604  -12.6260  -39.0256 C   0  0  0  0  0  0  0  0  0  0  0  0
    2.3253  -13.6970  -39.2683 C   0  0  0  0  0  0  0  0  0  0  0  0
    1.4515  -14.1933  -38.3241 C   0  0  0  0  0  0  0  0  0  0  0  0
    1.4576  -13.5449  -37.0950 C   0  0  0  0  0  0  0  0  0  0  0  0
    2.2919  -12.4709  -36.8439 C   0  0  0  0  0  0  0  0  0  0  0  0
    2.1924  -18.2441  -39.0778 C   0  0  0  0  0  0  0  0  0  0  0  0
    2.5941  -18.4559  -37.7797 C   0  0  0  0  0  0  0  0  0  0  0  0
    3.7938  -19.1316  -37.5028 C   0  0  0  0  0  0  0  0  0  0  0  0
    4.6001  -19.6003  -38.5019 C   0  0  0  0  0  0  0  0  0  0  0  0
    4.1860  -19.3821  -39.8291 C   0  0  0  0  0  0  0  0  0  0  0  0
    3.0023  -18.7150  -40.0680 C   0  0  0  0  0  0  0  0  0  0  0  0
    5.8010  -20.2778  -38.2998 O   0  0  0  0  0  0  0  0  0  0  0  0
    6.0951  -21.5757  -38.7027 C   0  0  0  0  0  0  0  0  0  0  0  0
 13 14  1  0  0  0
 14 15  2  0  0  0
 14 19  1  0  0  0
 15 16  1  0  0  0
 16 17  2  0  0  0
 17 18  1  0  0  0
 17  1  1  0  0  0
 18 19  2  0  0  0
  1  2  1  0  0  0
  1  9  1  0  0  0
  1 10  1  0  0  0
  2  3  1  0  0  0
  2  7  1  0  0  0
  3  4  1  0  0  0
  4  5  1  0  0  0
  5  6  1  0  0  0
  6  7  2  0  0  0
  7  8  1  0  0  0
  8  9  1  0  0  0
  8 20  1  0  0  0
 20 21  2  0  0  0
 20 25  1  0  0  0
 21 22  1  0  0  0
 22 23  2  0  0  0
 23 24  1  0  0  0
 23 26  1  0  0  0
 24 25  2  0  0  0
 26 27  1  0  0  0
  8 11  1  0  0  0
 10 12  1  0  0  0
M  CHG 1   8   1
M  END
> <minimizedAffinity>
-7.16232

$$$$
847


 31 34  0  0  0  0  0  0  0  0999 V2000
    2.4032  -18.0655  -37.3063 C   0  0  0  0  0  0  0  0  0  0  0  0
    1.3580  -18.5342  -38.0075 N   0  0  0  0  0  0  0  0  0  0  0  0
    0.6245  -17.4818  -38.4147 C   0  0  0  0  0  0  0  0  0  0  0  0
    1.2287  -16.3357  -37.9560 N   0  0  0  0  0  0  0  0  0  0  0  0
    2.3002  -16.7311  -37.2910 N   0  0  0  0  0  0  0  0  0  0  0  0
   -0.6052  -17.3750  -39.2057 C   0  0  0  0  0  0  0  0  0  0  0  0
   -1.5816  -18.5052  -39.0185 C   0  0  0  0  0  0  0  0  0  0  0  0
   -1.0392  -19.8397  -39.4139 C   0  0  0  0  0  0  0  0  0  0  0  0
   -0.2791  -20.3803  -38.2249 C   0  0  0  0  0  0  0  0  0  0  0  0
    1.1607  -19.9297  -38.2253 C   0  0  0  0  0  0  0  0  0  0  0  0
    3.5171  -18.8080  -36.6331 C   0  0  0  0  0  0  0  0  0  0  0  0
    4.7215  -18.8543  -37.4371 N   0  0  0  0  0  0  0  0  0  0  0  0
    5.5453  -18.2563  -37.2068 H   0  0  0  0  0  0  0  0  0  0  0  0
    5.3036  -22.5074  -42.2829 Br  0  0  0  0  0  0  0  0  0  0  0  0
    5.1189  -21.3696  -40.7717 C   0  0  0  0  0  0  0  0  0  0  0  0
    5.3571  -20.0040  -40.8902 C   0  0  0  0  0  0  0  0  0  0  0  0
    5.2252  -19.1847  -39.8012 C   0  0  0  0  0  0  0  0  0  0  0  0
    4.8567  -19.7073  -38.5808 C   0  0  0  0  0  0  0  0  0  0  0  0
    4.6245  -21.0627  -38.4810 C   0  0  0  0  0  0  0  0  0  0  0  0
    4.7480  -21.9136  -39.5550 C   0  0  0  0  0  0  0  0  0  0  0  0
    0.8571  -14.9936  -38.1689 C   0  0  0  0  0  0  0  0  0  0  0  0
    1.5878  -13.9606  -37.4833 C   0  0  0  0  0  0  0  0  0  0  0  0
    1.2998  -13.9097  -36.1820 O   0  0  0  0  0  0  0  0  0  0  0  0
    2.5539  -12.9766  -37.8822 C   0  0  0  0  0  0  0  0  0  0  0  0
    2.9697  -12.8854  -39.2285 C   0  0  0  0  0  0  0  0  0  0  0  0
    3.8918  -11.9701  -39.6626 C   0  0  0  0  0  0  0  0  0  0  0  0
    4.4657  -11.0814  -38.7888 C   0  0  0  0  0  0  0  0  0  0  0  0
    4.0909  -11.1354  -37.4745 C   0  0  0  0  0  0  0  0  0  0  0  0
    3.1424  -12.0814  -37.0425 C   0  0  0  0  0  0  0  0  0  0  0  0
    5.4034  -10.1503  -39.2319 O   0  0  0  0  0  0  0  0  0  0  0  0
    6.3185  -10.4312  -40.2623 C   0  0  0  0  0  0  0  0  0  0  0  0
 14 15  1  0  0  0
 15 16  2  0  0  0
 15 20  1  0  0  0
 16 17  1  0  0  0
 17 18  2  0  0  0
 18 19  1  0  0  0
 18 12  1  0  0  0
 19 20  2  0  0  0
 12 11  1  0  0  0
 11  1  1  0  0  0
  1  2  1  0  0  0
  1  5  2  0  0  0
  2  3  1  0  0  0
  2 10  1  0  0  0
  3  4  2  0  0  0
  3  6  1  0  0  0
  4  5  1  0  0  0
  4 21  1  0  0  0
 21 22  1  0  0  0
 22 23  2  0  0  0
 22 24  1  0  0  0
 24 25  2  0  0  0
 24 29  1  0  0  0
 25 26  1  0  0  0
 26 27  2  0  0  0
 27 28  1  0  0  0
 27 30  1  0  0  0
 28 29  2  0  0  0
 30 31  1  0  0  0
  6  7  1  0  0  0
  7  8  1  0  0  0
  8  9  1  0  0  0
  9 10  1  0  0  0
 12 13  1  0  0  0
M  END
> <minimizedAffinity>
-7.07808

$$$$
850


 29 32  0  0  0  0  0  0  0  0999 V2000
    0.2003  -15.5851  -36.7393 N   0  0  0  0  0  0  0  0  0  0  0  0
    1.0864  -15.6652  -37.8622 C   0  0  0  0  0  0  0  0  0  0  0  0
    0.0648  -15.7547  -38.9951 C   0  0  0  0  0  0  0  0  0  0  0  0
   -0.9764  -16.6273  -38.4302 N   0  0  0  0  0  0  0  0  0  0  0  0
   -1.9070  -17.2921  -39.2720 C   0  0  0  0  0  0  0  0  0  0  0  0
   -2.8711  -18.1942  -38.5615 C   0  0  0  0  0  0  0  0  0  0  0  0
   -2.1124  -19.1018  -37.6325 C   0  0  0  0  0  0  0  0  0  0  0  0
   -2.2666  -18.4684  -36.2421 C   0  0  0  0  0  0  0  0  0  0  0  0
   -1.2737  -17.3836  -36.1082 C   0  0  0  0  0  0  0  0  0  0  0  0
   -0.7517  -16.5970  -37.0216 C   0  0  0  0  0  0  0  0  0  0  0  0
    2.0241  -14.6912  -37.9964 O   0  0  0  0  0  0  0  0  0  0  0  0
    0.7838  -15.7990  -35.8711 H   0  0  0  0  0  0  0  0  0  0  0  0
    2.4584  -14.6841  -38.8690 H   0  0  0  0  0  0  0  0  0  0  0  0
   -2.2805  -10.0997  -35.5928 Br  0  0  0  0  0  0  0  0  0  0  0  0
   -1.5187  -11.8251  -35.9346 C   0  0  0  0  0  0  0  0  0  0  0  0
   -0.2159  -12.1136  -35.5955 C   0  0  0  0  0  0  0  0  0  0  0  0
    0.3265  -13.3621  -35.8624 C   0  0  0  0  0  0  0  0  0  0  0  0
   -0.4064  -14.3748  -36.4784 C   0  0  0  0  0  0  0  0  0  0  0  0
   -1.6898  -14.0383  -36.7924 C   0  0  0  0  0  0  0  0  0  0  0  0
   -2.2601  -12.7940  -36.5367 C   0  0  0  0  0  0  0  0  0  0  0  0
    1.8205  -16.9627  -37.9005 C   0  0  0  0  0  0  0  0  0  0  0  0
    1.9535  -17.7562  -39.0004 C   0  0  0  0  0  0  0  0  0  0  0  0
    2.6691  -18.9716  -38.9710 C   0  0  0  0  0  0  0  0  0  0  0  0
    3.2683  -19.4078  -37.8141 C   0  0  0  0  0  0  0  0  0  0  0  0
    3.1402  -18.6163  -36.6984 C   0  0  0  0  0  0  0  0  0  0  0  0
    2.4405  -17.4317  -36.7310 C   0  0  0  0  0  0  0  0  0  0  0  0
    3.9869  -20.6143  -37.7750 O   0  0  0  0  0  0  0  0  0  0  0  0
    4.2872  -21.3317  -38.9485 C   0  0  0  0  0  0  0  0  0  0  0  0
    5.7421  -21.6611  -39.0641 C   0  0  0  0  0  0  0  0  0  0  0  0
 14 15  1  0  0  0
 15 16  2  0  0  0
 15 20  1  0  0  0
 16 17  1  0  0  0
 17 18  2  0  0  0
 18 19  1  0  0  0
 18  1  1  0  0  0
 19 20  2  0  0  0
  1  2  1  0  0  0
  1 10  1  0  0  0
  2  3  1  0  0  0
  2 11  1  0  0  0
  2 21  1  0  0  0
  3  4  1  0  0  0
  4  5  1  0  0  0
  4 10  1  0  0  0
  5  6  1  0  0  0
  6  7  1  0  0  0
  7  8  1  0  0  0
  8  9  1  0  0  0
  9 10  2  0  0  0
 21 22  2  0  0  0
 21 26  1  0  0  0
 22 23  1  0  0  0
 23 24  2  0  0  0
 24 25  1  0  0  0
 24 27  1  0  0  0
 25 26  2  0  0  0
 27 28  1  0  0  0
 28 29  1  0  0  0
  1 12  1  0  0  0
 11 13  1  0  0  0
M  CHG 1   1   1
M  END
> <minimizedAffinity>
-6.56076

$$$$
860


 29 32  0  0  0  0  0  0  0  0999 V2000
    4.7105  -20.4311  -41.4886 Br  0  0  0  0  0  0  0  0  0  0  0  0
    3.9404  -19.6445  -39.9211 C   0  0  0  0  0  0  0  0  0  0  0  0
    3.1373  -18.5233  -39.9943 C   0  0  0  0  0  0  0  0  0  0  0  0
    2.5860  -17.9615  -38.8646 C   0  0  0  0  0  0  0  0  0  0  0  0
    2.8762  -18.5705  -37.6616 C   0  0  0  0  0  0  0  0  0  0  0  0
    3.6782  -19.6912  -37.5821 C   0  0  0  0  0  0  0  0  0  0  0  0
    4.2279  -20.2505  -38.7158 C   0  0  0  0  0  0  0  0  0  0  0  0
    5.0926  -21.4612  -38.6185 C   0  0  0  0  0  0  0  0  0  0  0  0
    2.3070  -17.9836  -36.5330 O   0  0  0  0  0  0  0  0  0  0  0  0
    1.7586  -16.7086  -36.5108 C   0  0  0  0  0  0  0  0  0  0  0  0
    1.1172  -16.2605  -37.7804 C   0  0  0  0  0  0  0  0  0  0  0  0
    1.7453  -16.7713  -39.0288 C   0  0  0  0  0  0  0  0  0  0  0  0
    0.7600  -17.0995  -39.9916 O   0  0  0  0  0  0  0  0  0  0  0  0
    0.7820  -18.0476  -40.2357 H   0  0  0  0  0  0  0  0  0  0  0  0
    1.2683  -14.8016  -37.8004 N   0  0  0  0  0  0  0  0  0  0  0  0
    1.5669  -14.2481  -36.5245 C   0  0  0  0  0  0  0  0  0  0  0  0
    2.0561  -12.8146  -36.7831 C   0  0  0  0  0  0  0  0  0  0  0  0
    0.9812  -12.1297  -37.3236 O   0  0  0  0  0  0  0  0  0  0  0  0
    0.5366  -12.6650  -38.5269 C   0  0  0  0  0  0  0  0  0  0  0  0
    0.1291  -14.1355  -38.3536 C   0  0  0  0  0  0  0  0  0  0  0  0
    2.0790  -14.6186  -38.4340 H   0  0  0  0  0  0  0  0  0  0  0  0
   -0.3724  -16.5352  -37.8122 C   0  0  0  0  0  0  0  0  0  0  0  0
   -0.7771  -17.6309  -36.9861 N   0  0  0  0  0  0  0  0  0  0  0  0
   -1.9857  -17.3501  -36.2329 C   0  0  0  0  0  0  0  0  0  0  0  0
   -2.9592  -18.5184  -36.2708 C   0  0  0  0  0  0  0  0  0  0  0  0
   -3.4133  -18.7846  -37.5520 O   0  0  0  0  0  0  0  0  0  0  0  0
   -2.4239  -18.5437  -38.5004 C   0  0  0  0  0  0  0  0  0  0  0  0
   -1.0943  -18.8011  -37.8215 C   0  0  0  0  0  0  0  0  0  0  0  0
   -0.0716  -17.9609  -36.3102 H   0  0  0  0  0  0  0  0  0  0  0  0
  1  2  1  0  0  0
  2  3  2  0  0  0
  2  7  1  0  0  0
  3  4  1  0  0  0
  4  5  2  0  0  0
  4 12  1  0  0  0
  5  6  1  0  0  0
  5  9  1  0  0  0
  6  7  2  0  0  0
  7  8  1  0  0  0
  9 10  1  0  0  0
 10 11  1  0  0  0
 11 12  1  0  0  0
 11 15  1  0  0  0
 11 22  1  0  0  0
 12 13  1  0  0  0
 15 16  1  0  0  0
 15 20  1  0  0  0
 16 17  1  0  0  0
 17 18  1  0  0  0
 18 19  1  0  0  0
 19 20  1  0  0  0
 22 23  1  0  0  0
 23 24  1  0  0  0
 23 28  1  0  0  0
 24 25  1  0  0  0
 25 26  1  0  0  0
 26 27  1  0  0  0
 27 28  1  0  0  0
 13 14  1  0  0  0
 15 21  1  0  0  0
 23 29  1  0  0  0
M  CHG 1  15   1
M  CHG 1  23   1
M  END
> <minimizedAffinity>
-5.72868

$$$$
861


 32 35  0  0  0  0  0  0  0  0999 V2000
   -0.1942  -13.4818  -41.1865 Br  0  0  0  0  0  0  0  0  0  0  0  0
    0.3240  -14.0323  -39.4254 C   0  0  0  0  0  0  0  0  0  0  0  0
    0.9253  -15.2543  -39.2399 C   0  0  0  0  0  0  0  0  0  0  0  0
    1.3204  -15.6959  -37.9662 C   0  0  0  0  0  0  0  0  0  0  0  0
    1.0732  -14.8396  -36.9156 C   0  0  0  0  0  0  0  0  0  0  0  0
    0.4713  -13.6099  -37.0738 C   0  0  0  0  0  0  0  0  0  0  0  0
    0.0937  -13.1991  -38.3317 C   0  0  0  0  0  0  0  0  0  0  0  0
   -0.5602  -11.8932  -38.6049 C   0  0  0  0  0  0  0  0  0  0  0  0
    0.1419  -12.4445  -35.5994 Br  0  0  0  0  0  0  0  0  0  0  0  0
    1.9481  -16.9924  -37.8162 C   0  0  0  0  0  0  0  0  0  0  0  0
    2.3921  -17.3450  -36.7184 O   0  0  0  0  0  0  0  0  0  0  0  0
    2.0528  -17.8864  -38.9830 C   0  0  0  0  0  0  0  0  0  0  0  0
    2.2294  -17.0096  -40.2032 C   0  0  0  0  0  0  0  0  0  0  0  0
    1.1589  -16.0914  -40.3267 O   0  0  0  0  0  0  0  0  0  0  0  0
    3.1496  -18.9010  -38.8680 C   0  0  0  0  0  0  0  0  0  0  0  0
    3.7744  -19.2795  -40.0765 N   0  0  0  0  0  0  0  0  0  0  0  0
    5.1941  -19.1194  -39.9652 C   0  0  0  0  0  0  0  0  0  0  0  0
    5.8753  -20.1008  -39.0802 C   0  0  0  0  0  0  0  0  0  0  0  0
    5.0633  -21.2403  -38.5992 C   0  0  0  0  0  0  0  0  0  0  0  0
    3.8747  -21.5968  -39.4036 C   0  0  0  0  0  0  0  0  0  0  0  0
    3.5422  -20.6317  -40.5033 C   0  0  0  0  0  0  0  0  0  0  0  0
    6.3829  -19.3404  -37.8495 C   0  0  0  0  0  0  0  0  0  0  0  0
    3.4528  -18.6546  -40.8586 H   0  0  0  0  0  0  0  0  0  0  0  0
    0.7123  -18.5829  -39.0958 C   0  0  0  0  0  0  0  0  0  0  0  0
    0.1981  -19.1143  -37.8799 N   0  0  0  0  0  0  0  0  0  0  0  0
   -0.1761  -20.5160  -38.0580 C   0  0  0  0  0  0  0  0  0  0  0  0
   -1.6543  -20.6995  -38.2406 C   0  0  0  0  0  0  0  0  0  0  0  0
   -2.1903  -19.6179  -39.1509 C   0  0  0  0  0  0  0  0  0  0  0  0
   -2.0644  -18.3109  -38.4314 C   0  0  0  0  0  0  0  0  0  0  0  0
   -0.9821  -18.4375  -37.3879 C   0  0  0  0  0  0  0  0  0  0  0  0
   -1.8524  -22.0265  -38.9855 C   0  0  0  0  0  0  0  0  0  0  0  0
    0.9119  -19.0966  -37.1466 H   0  0  0  0  0  0  0  0  0  0  0  0
  1  2  1  0  0  0
  2  3  2  0  0  0
  2  7  1  0  0  0
  3  4  1  0  0  0
  3 14  1  0  0  0
  4  5  2  0  0  0
  4 10  1  0  0  0
  5  6  1  0  0  0
  6  7  2  0  0  0
  6  9  1  0  0  0
  7  8  1  0  0  0
 10 11  2  0  0  0
 10 12  1  0  0  0
 12 13  1  0  0  0
 12 15  1  0  0  0
 12 24  1  0  0  0
 13 14  1  0  0  0
 15 16  1  0  0  0
 16 17  1  0  0  0
 16 21  1  0  0  0
 17 18  1  0  0  0
 18 19  1  0  0  0
 18 22  1  0  0  0
 19 20  1  0  0  0
 20 21  1  0  0  0
 24 25  1  0  0  0
 25 26  1  0  0  0
 25 30  1  0  0  0
 26 27  1  0  0  0
 27 28  1  0  0  0
 27 31  1  0  0  0
 28 29  1  0  0  0
 29 30  1  0  0  0
 16 23  1  0  0  0
 25 32  1  0  0  0
M  CHG 1  16   1
M  CHG 1  25   1
M  END
> <minimizedAffinity>
-6.00596

$$$$
862


 30 33  0  0  0  0  0  0  0  0999 V2000
    3.3582  -13.6554  -41.9566 Br  0  0  0  0  0  0  0  0  0  0  0  0
    3.0340  -13.2854  -40.1344 C   0  0  0  0  0  0  0  0  0  0  0  0
    2.1693  -14.1084  -39.4552 C   0  0  0  0  0  0  0  0  0  0  0  0
    1.8509  -13.9338  -38.0977 C   0  0  0  0  0  0  0  0  0  0  0  0
    2.4413  -12.8699  -37.4043 C   0  0  0  0  0  0  0  0  0  0  0  0
    3.3057  -12.0529  -38.0981 C   0  0  0  0  0  0  0  0  0  0  0  0
    3.6055  -12.2430  -39.4348 C   0  0  0  0  0  0  0  0  0  0  0  0
    4.5527  -11.3326  -40.1648 C   0  0  0  0  0  0  0  0  0  0  0  0
    4.1099  -10.6066  -37.1526 Br  0  0  0  0  0  0  0  0  0  0  0  0
    0.9243  -14.8310  -37.4343 C   0  0  0  0  0  0  0  0  0  0  0  0
    0.2275  -14.3330  -36.5152 O   0  0  0  0  0  0  0  0  0  0  0  0
    0.8888  -16.2308  -37.8986 C   0  0  0  0  0  0  0  0  0  0  0  0
    0.5740  -15.9906  -39.4436 C   0  0  0  0  0  0  0  0  0  0  0  0
    1.5291  -15.1868  -40.0379 O   0  0  0  0  0  0  0  0  0  0  0  0
   -0.1915  -17.0635  -37.4088 C   0  0  0  0  0  0  0  0  0  0  0  0
   -1.5528  -16.9489  -37.6420 N   0  0  0  0  0  0  0  0  0  0  0  0
   -2.4570  -16.4409  -36.6863 C   0  0  0  0  0  0  0  0  0  0  0  0
   -3.8705  -16.9910  -36.8261 C   0  0  0  0  0  0  0  0  0  0  0  0
   -3.9282  -18.4573  -36.5379 C   0  0  0  0  0  0  0  0  0  0  0  0
   -2.6498  -19.0795  -37.0086 C   0  0  0  0  0  0  0  0  0  0  0  0
   -2.0725  -18.2529  -38.1106 C   0  0  0  0  0  0  0  0  0  0  0  0
   -1.7486  -16.3568  -38.5539 H   0  0  0  0  0  0  0  0  0  0  0  0
    2.2430  -16.8251  -37.8180 C   0  0  0  0  0  0  0  0  0  0  0  0
    2.4247  -18.2155  -37.8521 N   0  0  0  0  0  0  0  0  0  0  0  0
    2.8419  -18.5911  -39.2098 C   0  0  0  0  0  0  0  0  0  0  0  0
    2.7797  -20.0881  -39.4315 C   0  0  0  0  0  0  0  0  0  0  0  0
    3.8363  -20.6884  -38.4904 C   0  0  0  0  0  0  0  0  0  0  0  0
    3.3706  -20.2937  -37.1077 C   0  0  0  0  0  0  0  0  0  0  0  0
    3.4717  -18.7622  -37.0049 C   0  0  0  0  0  0  0  0  0  0  0  0
    1.6024  -18.8277  -37.6743 H   0  0  0  0  0  0  0  0  0  0  0  0
  1  2  1  0  0  0
  2  3  2  0  0  0
  2  7  1  0  0  0
  3  4  1  0  0  0
  3 14  1  0  0  0
  4  5  2  0  0  0
  4 10  1  0  0  0
  5  6  1  0  0  0
  6  7  2  0  0  0
  6  9  1  0  0  0
  7  8  1  0  0  0
 10 11  2  0  0  0
 10 12  1  0  0  0
 12 13  1  0  0  0
 12 15  1  0  0  0
 12 23  1  0  0  0
 13 14  1  0  0  0
 15 16  1  0  0  0
 16 17  1  0  0  0
 16 21  1  0  0  0
 17 18  1  0  0  0
 18 19  1  0  0  0
 19 20  1  0  0  0
 20 21  1  0  0  0
 23 24  1  0  0  0
 24 25  1  0  0  0
 24 29  1  0  0  0
 25 26  1  0  0  0
 26 27  1  0  0  0
 27 28  1  0  0  0
 28 29  1  0  0  0
 16 22  1  0  0  0
 24 30  1  0  0  0
M  CHG 1  16   1
M  CHG 1  24   1
M  END
> <minimizedAffinity>
-6.49911

$$$$
865


 30 33  0  0  0  0  0  0  0  0999 V2000
    1.1022  -17.6715  -37.6448 C   0  0  0  0  0  0  0  0  0  0  0  0
    2.3375  -18.2135  -37.5683 N   0  0  0  0  0  0  0  0  0  0  0  0
    2.6174  -19.4678  -38.0013 C   0  0  0  0  0  0  0  0  0  0  0  0
    1.5992  -20.1604  -38.5156 N   0  0  0  0  0  0  0  0  0  0  0  0
    0.3459  -19.6863  -38.6231 C   0  0  0  0  0  0  0  0  0  0  0  0
    0.1327  -18.4359  -38.1767 N   0  0  0  0  0  0  0  0  0  0  0  0
   -0.6891  -20.4835  -39.1827 N   0  0  0  0  0  0  0  0  0  0  0  0
   -0.5458  -20.9652  -40.5432 C   0  0  0  0  0  0  0  0  0  0  0  0
   -1.7791  -21.7486  -40.9328 C   0  0  0  0  0  0  0  0  0  0  0  0
   -2.1603  -22.6917  -40.0212 O   0  0  0  0  0  0  0  0  0  0  0  0
   -2.0943  -22.3362  -38.7010 C   0  0  0  0  0  0  0  0  0  0  0  0
   -1.8842  -20.8475  -38.4813 C   0  0  0  0  0  0  0  0  0  0  0  0
    3.9373  -19.9889  -37.8971 N   0  0  0  0  0  0  0  0  0  0  0  0
    5.0155  -19.3316  -37.1958 C   0  0  0  0  0  0  0  0  0  0  0  0
    6.1300  -19.2425  -38.2367 C   0  0  0  0  0  0  0  0  0  0  0  0
    6.5769  -20.4825  -38.5085 O   0  0  0  0  0  0  0  0  0  0  0  0
    5.7113  -21.4779  -38.7383 C   0  0  0  0  0  0  0  0  0  0  0  0
    4.2688  -21.2516  -38.5147 C   0  0  0  0  0  0  0  0  0  0  0  0
    0.8817  -16.3566  -37.1741 N   0  0  0  0  0  0  0  0  0  0  0  0
    0.0443  -16.1581  -36.6020 H   0  0  0  0  0  0  0  0  0  0  0  0
    1.4175  -14.1644  -37.8601 C   0  0  0  0  0  0  0  0  0  0  0  0
    1.7742  -15.3369  -37.4739 N   0  0  0  0  0  0  0  0  0  0  0  0
    5.2696  -10.1979  -38.9630 F   0  0  0  0  0  0  0  0  0  0  0  0
    4.3404  -11.1612  -38.7119 C   0  0  0  0  0  0  0  0  0  0  0  0
    3.8987  -12.0193  -39.6976 C   0  0  0  0  0  0  0  0  0  0  0  0
    2.9561  -12.9877  -39.4215 C   0  0  0  0  0  0  0  0  0  0  0  0
    2.4134  -13.1431  -38.1568 C   0  0  0  0  0  0  0  0  0  0  0  0
    2.8610  -12.2811  -37.1781 C   0  0  0  0  0  0  0  0  0  0  0  0
    3.8090  -11.3047  -37.4515 C   0  0  0  0  0  0  0  0  0  0  0  0
    4.6305  -11.8277  -41.4515 Br  0  0  0  0  0  0  0  0  0  0  0  0
 23 24  1  0  0  0
 24 25  2  0  0  0
 24 29  1  0  0  0
 25 26  1  0  0  0
 25 30  1  0  0  0
 26 27  2  0  0  0
 27 28  1  0  0  0
 27 21  1  0  0  0
 28 29  2  0  0  0
 21 22  2  0  0  0
 22 19  1  0  0  0
 19  1  1  0  0  0
  1  2  2  0  0  0
  1  6  1  0  0  0
  2  3  1  0  0  0
  3  4  2  0  0  0
  3 13  1  0  0  0
  4  5  1  0  0  0
  5  6  2  0  0  0
  5  7  1  0  0  0
  7  8  1  0  0  0
  7 12  1  0  0  0
  8  9  1  0  0  0
  9 10  1  0  0  0
 10 11  1  0  0  0
 11 12  1  0  0  0
 13 14  1  0  0  0
 13 18  1  0  0  0
 14 15  1  0  0  0
 15 16  1  0  0  0
 16 17  1  0  0  0
 17 18  1  0  0  0
 19 20  1  0  0  0
M  END
> <minimizedAffinity>
-6.95875

$$$$
872


 32 35  0  0  0  0  0  0  0  0999 V2000
    0.8920  -15.9085  -37.2734 N   0  0  0  0  0  0  0  0  0  0  0  0
    1.0025  -15.8298  -35.9594 N   0  0  0  0  0  0  0  0  0  0  0  0
    1.8550  -16.7774  -35.6103 N   0  0  0  0  0  0  0  0  0  0  0  0
    2.2896  -17.4615  -36.6884 C   0  0  0  0  0  0  0  0  0  0  0  0
    1.6704  -16.8997  -37.7396 C   0  0  0  0  0  0  0  0  0  0  0  0
    2.1232  -17.6077  -38.8283 C   0  0  0  0  0  0  0  0  0  0  0  0
    1.7747  -17.3891  -40.0194 O   0  0  0  0  0  0  0  0  0  0  0  0
    2.9919  -18.5752  -38.4711 N   0  0  0  0  0  0  0  0  0  0  0  0
    3.1009  -18.4897  -37.1352 C   0  0  0  0  0  0  0  0  0  0  0  0
    3.8253  -19.2277  -36.4172 O   0  0  0  0  0  0  0  0  0  0  0  0
    0.5154  -15.1514  -35.3058 H   0  0  0  0  0  0  0  0  0  0  0  0
    2.1338  -16.9463  -34.6081 H   0  0  0  0  0  0  0  0  0  0  0  0
    3.6451  -19.4889  -39.3695 C   0  0  0  0  0  0  0  0  0  0  0  0
    4.8914  -19.1979  -39.8889 C   0  0  0  0  0  0  0  0  0  0  0  0
    5.5548  -20.0438  -40.7535 C   0  0  0  0  0  0  0  0  0  0  0  0
    4.9189  -21.2217  -41.0941 C   0  0  0  0  0  0  0  0  0  0  0  0
    3.6699  -21.5665  -40.6045 C   0  0  0  0  0  0  0  0  0  0  0  0
    3.0609  -20.6753  -39.7443 C   0  0  0  0  0  0  0  0  0  0  0  0
    5.8616  -22.3839  -42.2991 Br  0  0  0  0  0  0  0  0  0  0  0  0
    0.0479  -15.0304  -38.0538 C   0  0  0  0  0  0  0  0  0  0  0  0
    2.2283  -13.8713  -38.5017 N   0  0  0  0  0  0  0  0  0  0  0  0
    0.8397  -13.7964  -38.4369 C   0  0  0  0  0  0  0  0  0  0  0  0
    0.1901  -12.7727  -38.6731 O   0  0  0  0  0  0  0  0  0  0  0  0
    2.6560  -14.8326  -38.2705 H   0  0  0  0  0  0  0  0  0  0  0  0
    3.0576  -12.1859  -36.5581 F   0  0  0  0  0  0  0  0  0  0  0  0
    3.5032  -11.9395  -37.8211 C   0  0  0  0  0  0  0  0  0  0  0  0
    3.0801  -12.8085  -38.8404 C   0  0  0  0  0  0  0  0  0  0  0  0
    3.5232  -12.5669  -40.1033 C   0  0  0  0  0  0  0  0  0  0  0  0
    4.3793  -11.4921  -40.4253 C   0  0  0  0  0  0  0  0  0  0  0  0
    4.7711  -10.6640  -39.3987 C   0  0  0  0  0  0  0  0  0  0  0  0
    4.3356  -10.8891  -38.1095 C   0  0  0  0  0  0  0  0  0  0  0  0
    5.5916   -9.6158  -39.6414 F   0  0  0  0  0  0  0  0  0  0  0  0
 25 26  1  0  0  0
 26 27  2  0  0  0
 26 31  1  0  0  0
 27 28  1  0  0  0
 27 21  1  0  0  0
 28 29  2  0  0  0
 29 30  1  0  0  0
 30 31  2  0  0  0
 30 32  1  0  0  0
 21 22  1  0  0  0
 22 23  2  0  0  0
 22 20  1  0  0  0
 20  1  1  0  0  0
  1  2  1  0  0  0
  1  5  1  0  0  0
  2  3  1  0  0  0
  3  4  1  0  0  0
  4  5  2  0  0  0
  4  9  1  0  0  0
  5  6  1  0  0  0
  6  7  2  0  0  0
  6  8  1  0  0  0
  8  9  1  0  0  0
  8 13  1  0  0  0
  9 10  2  0  0  0
 13 14  2  0  0  0
 13 18  1  0  0  0
 14 15  1  0  0  0
 15 16  2  0  0  0
 16 17  1  0  0  0
 16 19  1  0  0  0
 17 18  2  0  0  0
 21 24  1  0  0  0
  2 11  1  0  0  0
  3 12  1  0  0  0
M  END
> <minimizedAffinity>
-7.41626

$$$$
873


 32 35  0  0  0  0  0  0  0  0999 V2000
    0.5497  -17.2291  -38.8468 C   0  0  0  0  0  0  0  0  0  0  0  0
    1.7527  -17.9536  -38.4683 N   0  0  0  0  0  0  0  0  0  0  0  0
    2.1015  -17.3028  -37.2283 C   0  0  0  0  0  0  0  0  0  0  0  0
    2.6773  -17.7902  -36.2199 O   0  0  0  0  0  0  0  0  0  0  0  0
    1.6615  -15.8806  -37.2974 C   0  0  0  0  0  0  0  0  0  0  0  0
    1.7401  -14.9495  -36.4979 O   0  0  0  0  0  0  0  0  0  0  0  0
    1.0534  -15.8139  -38.6587 C   0  0  0  0  0  0  0  0  0  0  0  0
    0.9916  -14.7670  -39.4446 C   0  0  0  0  0  0  0  0  0  0  0  0
    0.3651  -14.8870  -40.7017 O   0  0  0  0  0  0  0  0  0  0  0  0
   -0.2844  -19.7632  -37.7481 F   0  0  0  0  0  0  0  0  0  0  0  0
   -0.9643  -18.6649  -37.4569 C   0  0  0  0  0  0  0  0  0  0  0  0
   -0.5973  -17.4279  -37.9458 C   0  0  0  0  0  0  0  0  0  0  0  0
   -1.4003  -16.3849  -37.5562 C   0  0  0  0  0  0  0  0  0  0  0  0
   -2.5082  -16.5117  -36.7328 C   0  0  0  0  0  0  0  0  0  0  0  0
   -2.8396  -17.7524  -36.2688 C   0  0  0  0  0  0  0  0  0  0  0  0
   -2.0785  -18.8167  -36.6266 C   0  0  0  0  0  0  0  0  0  0  0  0
    1.5544  -13.4812  -39.0597 C   0  0  0  0  0  0  0  0  0  0  0  0
    2.8823  -13.2270  -39.3243 C   0  0  0  0  0  0  0  0  0  0  0  0
    3.4890  -12.0362  -38.9606 C   0  0  0  0  0  0  0  0  0  0  0  0
    2.7569  -11.0636  -38.3147 C   0  0  0  0  0  0  0  0  0  0  0  0
    1.4431  -11.2937  -38.0427 C   0  0  0  0  0  0  0  0  0  0  0  0
    0.8384  -12.5067  -38.4163 C   0  0  0  0  0  0  0  0  0  0  0  0
    3.5748   -9.3958  -37.7967 Br  0  0  0  0  0  0  0  0  0  0  0  0
    2.4879  -19.0020  -39.0335 C   0  0  0  0  0  0  0  0  0  0  0  0
    3.5903  -18.7217  -39.9906 C   0  0  0  0  0  0  0  0  0  0  0  0
    4.7724  -19.5071  -39.7753 N   0  0  0  0  0  0  0  0  0  0  0  0
    4.4956  -20.8805  -40.1423 C   0  0  0  0  0  0  0  0  0  0  0  0
    5.7521  -21.7268  -40.0439 C   0  0  0  0  0  0  0  0  0  0  0  0
    6.2265  -21.6804  -38.7469 O   0  0  0  0  0  0  0  0  0  0  0  0
    6.4609  -20.3646  -38.3583 C   0  0  0  0  0  0  0  0  0  0  0  0
    5.1431  -19.5773  -38.3471 C   0  0  0  0  0  0  0  0  0  0  0  0
    5.6292  -19.1208  -40.2222 H   0  0  0  0  0  0  0  0  0  0  0  0
 10 11  1  0  0  0
 11 12  2  0  0  0
 11 16  1  0  0  0
 12 13  1  0  0  0
 12  1  1  0  0  0
 13 14  2  0  0  0
 14 15  1  0  0  0
 15 16  2  0  0  0
  1  2  1  0  0  0
  1  7  1  0  0  0
  2  3  1  0  0  0
  2 24  1  0  0  0
  3  4  2  0  0  0
  3  5  1  0  0  0
  5  6  2  0  0  0
  5  7  1  0  0  0
  7  8  2  0  0  0
  8  9  1  0  0  0
  8 17  1  0  0  0
 17 18  2  0  0  0
 17 22  1  0  0  0
 18 19  1  0  0  0
 19 20  2  0  0  0
 20 21  1  0  0  0
 20 23  1  0  0  0
 21 22  2  0  0  0
 24 25  1  0  0  0
 25 26  1  0  0  0
 26 27  1  0  0  0
 26 31  1  0  0  0
 27 28  1  0  0  0
 28 29  1  0  0  0
 29 30  1  0  0  0
 30 31  1  0  0  0
 26 32  1  0  0  0
M  CHG 1   9  -1
M  CHG 1  26   1
M  END
> <minimizedAffinity>
-6.64720

$$$$
874


 31 34  0  0  0  0  0  0  0  0999 V2000
    0.9565  -16.0342  -37.1978 N   0  0  0  0  0  0  0  0  0  0  0  0
    1.0871  -16.0245  -35.8891 N   0  0  0  0  0  0  0  0  0  0  0  0
    1.9472  -16.9564  -35.5055 N   0  0  0  0  0  0  0  0  0  0  0  0
    2.3914  -17.5963  -36.6095 C   0  0  0  0  0  0  0  0  0  0  0  0
    1.7818  -17.0259  -37.6284 C   0  0  0  0  0  0  0  0  0  0  0  0
    2.2354  -17.6812  -38.7623 C   0  0  0  0  0  0  0  0  0  0  0  0
    1.8710  -17.4070  -39.9260 O   0  0  0  0  0  0  0  0  0  0  0  0
    3.1170  -18.6448  -38.4406 N   0  0  0  0  0  0  0  0  0  0  0  0
    3.2150  -18.5928  -37.0995 C   0  0  0  0  0  0  0  0  0  0  0  0
    3.9367  -19.3280  -36.3908 O   0  0  0  0  0  0  0  0  0  0  0  0
    0.5681  -15.3565  -35.2625 H   0  0  0  0  0  0  0  0  0  0  0  0
    2.2354  -17.1639  -34.5184 H   0  0  0  0  0  0  0  0  0  0  0  0
    3.7911  -19.5213  -39.3436 C   0  0  0  0  0  0  0  0  0  0  0  0
    5.0371  -19.2066  -39.8495 C   0  0  0  0  0  0  0  0  0  0  0  0
    5.7033  -20.0432  -40.7231 C   0  0  0  0  0  0  0  0  0  0  0  0
    5.1445  -21.2369  -41.1299 C   0  0  0  0  0  0  0  0  0  0  0  0
    3.9003  -21.5713  -40.6378 C   0  0  0  0  0  0  0  0  0  0  0  0
    3.2512  -20.7209  -39.7651 C   0  0  0  0  0  0  0  0  0  0  0  0
    6.0437  -22.4150  -42.3387 Br  0  0  0  0  0  0  0  0  0  0  0  0
    0.1242  -15.1896  -38.0344 C   0  0  0  0  0  0  0  0  0  0  0  0
    2.2418  -13.9252  -38.5144 N   0  0  0  0  0  0  0  0  0  0  0  0
    0.8584  -13.9361  -38.3661 C   0  0  0  0  0  0  0  0  0  0  0  0
    0.1647  -12.9149  -38.5002 O   0  0  0  0  0  0  0  0  0  0  0  0
    2.7291  -14.8712  -38.3742 H   0  0  0  0  0  0  0  0  0  0  0  0
    3.1018  -12.2351  -36.5256 F   0  0  0  0  0  0  0  0  0  0  0  0
    3.5099  -11.9652  -37.7994 C   0  0  0  0  0  0  0  0  0  0  0  0
    3.0809  -12.8184  -38.8284 C   0  0  0  0  0  0  0  0  0  0  0  0
    3.5172  -12.5062  -40.0906 C   0  0  0  0  0  0  0  0  0  0  0  0
    4.3324  -11.4079  -40.3102 C   0  0  0  0  0  0  0  0  0  0  0  0
    4.7471  -10.5820  -39.3069 C   0  0  0  0  0  0  0  0  0  0  0  0
    4.3179  -10.8822  -38.0351 C   0  0  0  0  0  0  0  0  0  0  0  0
 25 26  1  0  0  0
 26 27  2  0  0  0
 26 31  1  0  0  0
 27 28  1  0  0  0
 27 21  1  0  0  0
 28 29  2  0  0  0
 29 30  1  0  0  0
 30 31  2  0  0  0
 21 22  1  0  0  0
 22 23  2  0  0  0
 22 20  1  0  0  0
 20  1  1  0  0  0
  1  2  1  0  0  0
  1  5  1  0  0  0
  2  3  1  0  0  0
  3  4  1  0  0  0
  4  5  2  0  0  0
  4  9  1  0  0  0
  5  6  1  0  0  0
  6  7  2  0  0  0
  6  8  1  0  0  0
  8  9  1  0  0  0
  8 13  1  0  0  0
  9 10  2  0  0  0
 13 14  2  0  0  0
 13 18  1  0  0  0
 14 15  1  0  0  0
 15 16  2  0  0  0
 16 17  1  0  0  0
 16 19  1  0  0  0
 17 18  2  0  0  0
 21 24  1  0  0  0
  2 11  1  0  0  0
  3 12  1  0  0  0
M  END
> <minimizedAffinity>
-7.37708

$$$$
886


 31 34  0  0  0  0  0  0  0  0999 V2000
    3.1237  -18.5486  -38.2365 N   0  0  0  0  0  0  0  0  0  0  0  0
    2.2861  -17.5779  -38.6386 C   0  0  0  0  0  0  0  0  0  0  0  0
    2.0334  -17.3899  -39.8597 O   0  0  0  0  0  0  0  0  0  0  0  0
    1.7725  -16.8579  -37.5764 C   0  0  0  0  0  0  0  0  0  0  0  0
    2.3175  -17.4103  -36.4959 C   0  0  0  0  0  0  0  0  0  0  0  0
    1.8489  -16.7395  -35.4396 N   0  0  0  0  0  0  0  0  0  0  0  0
    1.0339  -15.7956  -35.8721 N   0  0  0  0  0  0  0  0  0  0  0  0
    0.9616  -15.8386  -37.1989 N   0  0  0  0  0  0  0  0  0  0  0  0
    3.1439  -18.4433  -36.8835 C   0  0  0  0  0  0  0  0  0  0  0  0
    3.8413  -19.2157  -36.1662 O   0  0  0  0  0  0  0  0  0  0  0  0
    2.1121  -16.9611  -34.4400 H   0  0  0  0  0  0  0  0  0  0  0  0
    0.5219  -15.1191  -35.2887 H   0  0  0  0  0  0  0  0  0  0  0  0
    5.8207  -22.3266  -41.3734 F   0  0  0  0  0  0  0  0  0  0  0  0
    5.1674  -21.4037  -40.6065 C   0  0  0  0  0  0  0  0  0  0  0  0
    5.7854  -20.2294  -40.2821 C   0  0  0  0  0  0  0  0  0  0  0  0
    5.1257  -19.2784  -39.4998 C   0  0  0  0  0  0  0  0  0  0  0  0
    3.8477  -19.4855  -39.0320 C   0  0  0  0  0  0  0  0  0  0  0  0
    3.2493  -20.6870  -39.3788 C   0  0  0  0  0  0  0  0  0  0  0  0
    3.8899  -21.6311  -40.1492 C   0  0  0  0  0  0  0  0  0  0  0  0
    0.2027  -15.0138  -38.0937 C   0  0  0  0  0  0  0  0  0  0  0  0
    0.9306  -13.8887  -38.6903 C   0  0  0  0  0  0  0  0  0  0  0  0
    0.2882  -13.1093  -39.4104 O   0  0  0  0  0  0  0  0  0  0  0  0
    2.2956  -13.7126  -38.4460 N   0  0  0  0  0  0  0  0  0  0  0  0
    2.7913  -14.4321  -37.8046 H   0  0  0  0  0  0  0  0  0  0  0  0
    3.1657  -12.7044  -38.9225 C   0  0  0  0  0  0  0  0  0  0  0  0
    3.6193  -11.6897  -38.1139 C   0  0  0  0  0  0  0  0  0  0  0  0
    4.4782  -10.6759  -38.5491 C   0  0  0  0  0  0  0  0  0  0  0  0
    4.8703  -10.7282  -39.8627 C   0  0  0  0  0  0  0  0  0  0  0  0
    4.4322  -11.7308  -40.6917 C   0  0  0  0  0  0  0  0  0  0  0  0
    3.5898  -12.7132  -40.2400 C   0  0  0  0  0  0  0  0  0  0  0  0
    6.0559   -9.3627  -40.5310 Br  0  0  0  0  0  0  0  0  0  0  0  0
 13 14  1  0  0  0
 14 15  2  0  0  0
 14 19  1  0  0  0
 15 16  1  0  0  0
 16 17  2  0  0  0
 17 18  1  0  0  0
 17  1  1  0  0  0
 18 19  2  0  0  0
  1  2  1  0  0  0
  1  9  1  0  0  0
  2  3  2  0  0  0
  2  4  1  0  0  0
  4  5  2  0  0  0
  4  8  1  0  0  0
  5  6  1  0  0  0
  5  9  1  0  0  0
  6  7  1  0  0  0
  7  8  1  0  0  0
  8 20  1  0  0  0
 20 21  1  0  0  0
 21 22  2  0  0  0
 21 23  1  0  0  0
 23 25  1  0  0  0
 25 26  2  0  0  0
 25 30  1  0  0  0
 26 27  1  0  0  0
 27 28  2  0  0  0
 28 29  1  0  0  0
 28 31  1  0  0  0
 29 30  2  0  0  0
  9 10  2  0  0  0
  6 11  1  0  0  0
  7 12  1  0  0  0
 23 24  1  0  0  0
M  END
> <minimizedAffinity>
-7.31129

$$$$
892


 27 30  0  0  0  0  0  0  0  0999 V2000
    0.1473  -14.6488  -38.6227 C   0  0  0  0  0  0  0  0  0  0  0  0
    0.5006  -15.4572  -37.4777 N   0  0  0  0  0  0  0  0  0  0  0  0
    1.3182  -16.6182  -37.6583 C   0  0  0  0  0  0  0  0  0  0  0  0
    2.3874  -17.4965  -36.6055 S   0  0  0  0  0  0  0  0  0  0  0  0
    2.9010  -18.7092  -37.6803 C   0  0  0  0  0  0  0  0  0  0  0  0
    2.2378  -18.4042  -38.8178 C   0  0  0  0  0  0  0  0  0  0  0  0
    1.4249  -17.3346  -38.8152 C   0  0  0  0  0  0  0  0  0  0  0  0
    0.5722  -16.7545  -39.8917 C   0  0  0  0  0  0  0  0  0  0  0  0
    0.5275  -17.2719  -41.0327 O   0  0  0  0  0  0  0  0  0  0  0  0
   -0.2129  -15.6042  -39.6568 N   0  0  0  0  0  0  0  0  0  0  0  0
    2.5127  -19.3500  -39.9807 C   0  0  0  0  0  0  0  0  0  0  0  0
    2.9979  -20.6483  -39.4229 C   0  0  0  0  0  0  0  0  0  0  0  0
    4.2620  -20.3361  -38.7374 N   0  0  0  0  0  0  0  0  0  0  0  0
    3.8403  -19.8305  -37.4481 C   0  0  0  0  0  0  0  0  0  0  0  0
    5.1014  -21.5053  -38.6258 C   0  0  0  0  0  0  0  0  0  0  0  0
    0.1863  -15.2407  -36.5060 H   0  0  0  0  0  0  0  0  0  0  0  0
   -1.0762  -15.4147  -40.2271 H   0  0  0  0  0  0  0  0  0  0  0  0
    4.7312  -19.5540  -39.2408 H   0  0  0  0  0  0  0  0  0  0  0  0
    4.1014  -10.9621  -37.3020 I   0  0  0  0  0  0  0  0  0  0  0  0
    3.1613  -12.3208  -38.6039 C   0  0  0  0  0  0  0  0  0  0  0  0
    2.0184  -13.0062  -38.1893 C   0  0  0  0  0  0  0  0  0  0  0  0
    1.3733  -13.9019  -39.0081 C   0  0  0  0  0  0  0  0  0  0  0  0
    1.9331  -14.0836  -40.2808 C   0  0  0  0  0  0  0  0  0  0  0  0
    3.0563  -13.4068  -40.6793 C   0  0  0  0  0  0  0  0  0  0  0  0
    3.6863  -12.5144  -39.8440 C   0  0  0  0  0  0  0  0  0  0  0  0
    3.7874  -13.6810  -42.4157 Br  0  0  0  0  0  0  0  0  0  0  0  0
    1.5293  -12.7749  -36.9228 O   0  0  0  0  0  0  0  0  0  0  0  0
 19 20  1  0  0  0
 20 21  2  0  0  0
 20 25  1  0  0  0
 21 22  1  0  0  0
 21 27  1  0  0  0
 22 23  2  0  0  0
 22  1  1  0  0  0
 23 24  1  0  0  0
 24 25  2  0  0  0
 24 26  1  0  0  0
  1  2  1  0  0  0
  1 10  1  0  0  0
  2  3  1  0  0  0
  3  4  1  0  0  0
  3  7  2  0  0  0
  4  5  1  0  0  0
  5  6  2  0  0  0
  5 14  1  0  0  0
  6  7  1  0  0  0
  6 11  1  0  0  0
  7  8  1  0  0  0
  8  9  2  0  0  0
  8 10  1  0  0  0
 11 12  1  0  0  0
 12 13  1  0  0  0
 13 14  1  0  0  0
 13 15  1  0  0  0
  2 16  1  0  0  0
 10 17  1  0  0  0
 13 18  1  0  0  0
M  CHG 1  13   1
M  CHG 1  27  -1
M  END
> <minimizedAffinity>
-6.23215

$$$$
895


 28 31  0  0  0  0  0  0  0  0999 V2000
    0.6909  -16.5133  -36.9306 C   0  0  0  0  0  0  0  0  0  0  0  0
    2.0270  -16.9928  -36.5764 N   0  0  0  0  0  0  0  0  0  0  0  0
    2.5909  -18.1667  -37.2126 C   0  0  0  0  0  0  0  0  0  0  0  0
    3.9427  -19.1608  -36.8397 S   0  0  0  0  0  0  0  0  0  0  0  0
    3.8221  -20.2669  -38.1193 C   0  0  0  0  0  0  0  0  0  0  0  0
    2.7244  -19.8341  -38.8135 C   0  0  0  0  0  0  0  0  0  0  0  0
    2.0898  -18.7414  -38.3363 C   0  0  0  0  0  0  0  0  0  0  0  0
    0.8814  -18.0769  -38.9039 C   0  0  0  0  0  0  0  0  0  0  0  0
    0.3145  -18.5135  -39.9509 O   0  0  0  0  0  0  0  0  0  0  0  0
    0.3576  -16.9374  -38.2627 N   0  0  0  0  0  0  0  0  0  0  0  0
    2.4391  -20.7118  -40.0271 C   0  0  0  0  0  0  0  0  0  0  0  0
    3.7039  -20.8804  -40.8266 C   0  0  0  0  0  0  0  0  0  0  0  0
    4.8579  -21.1575  -40.0386 N   0  0  0  0  0  0  0  0  0  0  0  0
    4.5278  -21.4877  -38.6564 C   0  0  0  0  0  0  0  0  0  0  0  0
    5.6413  -19.9143  -39.9646 C   0  0  0  0  0  0  0  0  0  0  0  0
    2.6092  -16.5130  -35.8658 H   0  0  0  0  0  0  0  0  0  0  0  0
   -0.3340  -16.3373  -38.7836 H   0  0  0  0  0  0  0  0  0  0  0  0
    5.4775  -21.9085  -40.4412 H   0  0  0  0  0  0  0  0  0  0  0  0
   -1.2980  -11.5697  -35.3549 I   0  0  0  0  0  0  0  0  0  0  0  0
    0.0605  -12.8302  -36.3621 C   0  0  0  0  0  0  0  0  0  0  0  0
    1.1001  -12.2778  -37.0826 C   0  0  0  0  0  0  0  0  0  0  0  0
    2.0054  -13.0984  -37.7537 C   0  0  0  0  0  0  0  0  0  0  0  0
    1.8204  -14.4453  -37.6660 C   0  0  0  0  0  0  0  0  0  0  0  0
    0.7838  -15.0277  -36.9480 C   0  0  0  0  0  0  0  0  0  0  0  0
   -0.0941  -14.2060  -36.2966 C   0  0  0  0  0  0  0  0  0  0  0  0
    1.2542  -10.9057  -37.1478 O   0  0  0  0  0  0  0  0  0  0  0  0
    3.0306  -12.4871  -38.4627 O   0  0  0  0  0  0  0  0  0  0  0  0
    3.2338  -12.8597  -39.8129 C   0  0  0  0  0  0  0  0  0  0  0  0
 19 20  1  0  0  0
 20 21  2  0  0  0
 20 25  1  0  0  0
 21 22  1  0  0  0
 21 26  1  0  0  0
 22 23  2  0  0  0
 22 27  1  0  0  0
 23 24  1  0  0  0
 24 25  2  0  0  0
 24  1  1  0  0  0
  1  2  1  0  0  0
  1 10  1  0  0  0
  2  3  1  0  0  0
  3  4  1  0  0  0
  3  7  2  0  0  0
  4  5  1  0  0  0
  5  6  2  0  0  0
  5 14  1  0  0  0
  6  7  1  0  0  0
  6 11  1  0  0  0
  7  8  1  0  0  0
  8  9  2  0  0  0
  8 10  1  0  0  0
 11 12  1  0  0  0
 12 13  1  0  0  0
 13 14  1  0  0  0
 13 15  1  0  0  0
 27 28  1  0  0  0
  2 16  1  0  0  0
 10 17  1  0  0  0
 13 18  1  0  0  0
M  CHG 1  13   1
M  CHG 1  26  -1
M  END
> <minimizedAffinity>
-6.72947

$$$$
906


 27 30  0  0  0  0  0  0  0  0999 V2000
    1.2222  -17.3110  -38.0066 C   0  0  0  0  0  0  0  0  0  0  0  0
    0.9560  -17.2731  -39.3069 N   0  0  0  0  0  0  0  0  0  0  0  0
    1.7257  -17.7864  -40.2812 C   0  0  0  0  0  0  0  0  0  0  0  0
    1.7112  -17.8895  -41.6158 N   0  0  0  0  0  0  0  0  0  0  0  0
    2.7715  -18.5178  -42.0346 O   0  0  0  0  0  0  0  0  0  0  0  0
    3.5131  -18.8469  -41.0155 N   0  0  0  0  0  0  0  0  0  0  0  0
    2.9128  -18.4182  -39.8950 C   0  0  0  0  0  0  0  0  0  0  0  0
    3.2289  -18.4847  -38.6145 N   0  0  0  0  0  0  0  0  0  0  0  0
    2.4306  -17.9584  -37.6821 C   0  0  0  0  0  0  0  0  0  0  0  0
    3.0133  -18.1858  -36.5161 N   0  0  0  0  0  0  0  0  0  0  0  0
    4.1656  -18.8491  -36.7152 N   0  0  0  0  0  0  0  0  0  0  0  0
    4.3248  -19.0488  -38.0316 C   0  0  0  0  0  0  0  0  0  0  0  0
    0.4231  -16.7754  -36.9759 N   0  0  0  0  0  0  0  0  0  0  0  0
   -0.0977  -17.4752  -36.3379 H   0  0  0  0  0  0  0  0  0  0  0  0
   -2.6921  -16.1826  -37.2934 I   0  0  0  0  0  0  0  0  0  0  0  0
   -1.1074  -14.9059  -36.7296 C   0  0  0  0  0  0  0  0  0  0  0  0
    0.2067  -15.4195  -36.6571 C   0  0  0  0  0  0  0  0  0  0  0  0
    1.2443  -14.6105  -36.2912 C   0  0  0  0  0  0  0  0  0  0  0  0
    0.9547  -13.2751  -35.9995 C   0  0  0  0  0  0  0  0  0  0  0  0
   -0.3060  -12.7510  -36.0601 C   0  0  0  0  0  0  0  0  0  0  0  0
   -1.3548  -13.5885  -36.4334 C   0  0  0  0  0  0  0  0  0  0  0  0
    5.4278  -19.7348  -38.7558 C   0  0  0  0  0  0  0  0  0  0  0  0
    5.2086  -21.1930  -38.9072 C   0  0  0  0  0  0  0  0  0  0  0  0
    4.4082  -21.8397  -38.1999 O   0  0  0  0  0  0  0  0  0  0  0  0
    5.9167  -21.8668  -39.8634 O   0  0  0  0  0  0  0  0  0  0  0  0
    5.6611  -21.8313  -41.2219 C   0  0  0  0  0  0  0  0  0  0  0  0
    4.3801  -22.4266  -41.6664 C   0  0  0  0  0  0  0  0  0  0  0  0
 15 16  1  0  0  0
 16 17  2  0  0  0
 16 21  1  0  0  0
 17 18  1  0  0  0
 17 13  1  0  0  0
 18 19  2  0  0  0
 19 20  1  0  0  0
 20 21  2  0  0  0
 13  1  1  0  0  0
  1  2  2  0  0  0
  1  9  1  0  0  0
  2  3  1  0  0  0
  3  4  2  0  0  0
  3  7  1  0  0  0
  4  5  1  0  0  0
  5  6  1  0  0  0
  6  7  2  0  0  0
  7  8  1  0  0  0
  8  9  1  0  0  0
  8 12  1  0  0  0
  9 10  2  0  0  0
 10 11  1  0  0  0
 11 12  2  0  0  0
 12 22  1  0  0  0
 22 23  1  0  0  0
 23 24  2  0  0  0
 23 25  1  0  0  0
 25 26  1  0  0  0
 26 27  1  0  0  0
 13 14  1  0  0  0
M  END
> <minimizedAffinity>
-5.82758

$$$$
908


 25 28  0  0  0  0  0  0  0  0999 V2000
    2.8462  -19.1432  -38.2498 N   0  0  0  0  0  0  0  0  0  0  0  0
    3.3970  -19.0560  -39.4736 C   0  0  0  0  0  0  0  0  0  0  0  0
    3.1514  -18.1469  -40.3223 O   0  0  0  0  0  0  0  0  0  0  0  0
    4.2789  -20.0919  -39.7045 C   0  0  0  0  0  0  0  0  0  0  0  0
    4.2645  -20.8216  -38.6009 C   0  0  0  0  0  0  0  0  0  0  0  0
    5.1336  -21.8315  -38.8413 N   0  0  0  0  0  0  0  0  0  0  0  0
    5.6559  -21.7166  -40.0486 N   0  0  0  0  0  0  0  0  0  0  0  0
    5.1413  -20.6480  -40.6002 N   0  0  0  0  0  0  0  0  0  0  0  0
    3.3852  -20.2454  -37.6978 C   0  0  0  0  0  0  0  0  0  0  0  0
    3.1420  -20.7065  -36.5354 O   0  0  0  0  0  0  0  0  0  0  0  0
    5.3727  -22.6018  -38.1820 H   0  0  0  0  0  0  0  0  0  0  0  0
    6.3488  -22.3581  -40.4847 H   0  0  0  0  0  0  0  0  0  0  0  0
   -0.0786  -19.9844  -39.1336 I   0  0  0  0  0  0  0  0  0  0  0  0
    0.5389  -18.4195  -37.8493 C   0  0  0  0  0  0  0  0  0  0  0  0
    1.8941  -18.2748  -37.6336 C   0  0  0  0  0  0  0  0  0  0  0  0
    2.2766  -17.2495  -36.7930 C   0  0  0  0  0  0  0  0  0  0  0  0
    1.3433  -16.4144  -36.2029 C   0  0  0  0  0  0  0  0  0  0  0  0
   -0.0087  -16.5689  -36.4256 C   0  0  0  0  0  0  0  0  0  0  0  0
   -0.3987  -17.5918  -37.2648 C   0  0  0  0  0  0  0  0  0  0  0  0
    5.3955  -20.1132  -41.8923 C   0  0  0  0  0  0  0  0  0  0  0  0
    4.9250  -20.7139  -43.0388 C   0  0  0  0  0  0  0  0  0  0  0  0
    5.1899  -20.1672  -44.2839 C   0  0  0  0  0  0  0  0  0  0  0  0
    5.9279  -19.0108  -44.4301 C   0  0  0  0  0  0  0  0  0  0  0  0
    6.3993  -18.4080  -43.2833 C   0  0  0  0  0  0  0  0  0  0  0  0
    6.1420  -18.9430  -42.0447 C   0  0  0  0  0  0  0  0  0  0  0  0
 13 14  1  0  0  0
 14 15  2  0  0  0
 14 19  1  0  0  0
 15 16  1  0  0  0
 15  1  1  0  0  0
 16 17  2  0  0  0
 17 18  1  0  0  0
 18 19  2  0  0  0
  1  2  1  0  0  0
  1  9  1  0  0  0
  2  3  2  0  0  0
  2  4  1  0  0  0
  4  5  2  0  0  0
  4  8  1  0  0  0
  5  6  1  0  0  0
  5  9  1  0  0  0
  6  7  1  0  0  0
  7  8  1  0  0  0
  8 20  1  0  0  0
 20 21  2  0  0  0
 20 25  1  0  0  0
 21 22  1  0  0  0
 22 23  2  0  0  0
 23 24  1  0  0  0
 24 25  2  0  0  0
  9 10  2  0  0  0
  6 11  1  0  0  0
  7 12  1  0  0  0
M  END
> <minimizedAffinity>
-5.86263

$$$$
910


 26 29  0  0  0  0  0  0  0  0999 V2000
    2.4014  -17.6027  -39.9749 C   0  0  0  0  0  0  0  0  0  0  0  0
    2.7369  -18.5350  -38.9660 C   0  0  0  0  0  0  0  0  0  0  0  0
    2.5753  -18.4984  -37.6484 N   0  0  0  0  0  0  0  0  0  0  0  0
    3.0522  -19.5974  -37.1482 O   0  0  0  0  0  0  0  0  0  0  0  0
    3.5184  -20.3486  -38.0795 N   0  0  0  0  0  0  0  0  0  0  0  0
    3.3409  -19.7165  -39.2470 C   0  0  0  0  0  0  0  0  0  0  0  0
    3.6443  -20.0366  -40.5516 C   0  0  0  0  0  0  0  0  0  0  0  0
    3.3335  -19.1541  -41.5537 C   0  0  0  0  0  0  0  0  0  0  0  0
    2.7184  -17.9477  -41.2815 C   0  0  0  0  0  0  0  0  0  0  0  0
    4.2753  -21.2648  -40.7997 N   0  0  0  0  0  0  0  0  0  0  0  0
    5.7072  -21.4767  -40.5840 C   0  0  0  0  0  0  0  0  0  0  0  0
    6.2564  -21.7978  -41.9591 C   0  0  0  0  0  0  0  0  0  0  0  0
    5.2891  -21.8342  -42.9504 O   0  0  0  0  0  0  0  0  0  0  0  0
    4.2149  -22.6600  -42.6951 C   0  0  0  0  0  0  0  0  0  0  0  0
    3.6620  -22.4772  -41.2926 C   0  0  0  0  0  0  0  0  0  0  0  0
    1.0587  -15.4123  -39.1065 C   0  0  0  0  0  0  0  0  0  0  0  0
   -0.0327  -14.9660  -39.6502 O   0  0  0  0  0  0  0  0  0  0  0  0
    1.7183  -16.4883  -39.5332 N   0  0  0  0  0  0  0  0  0  0  0  0
    0.9183  -16.5633  -40.6322 H   0  0  0  0  0  0  0  0  0  0  0  0
    3.0941  -12.6164  -39.8239 I   0  0  0  0  0  0  0  0  0  0  0  0
    2.2116  -13.4042  -38.0546 C   0  0  0  0  0  0  0  0  0  0  0  0
    1.4450  -14.5454  -37.9599 C   0  0  0  0  0  0  0  0  0  0  0  0
    1.0857  -14.6773  -36.6805 N   0  0  0  0  0  0  0  0  0  0  0  0
    1.6044  -13.6652  -35.9959 N   0  0  0  0  0  0  0  0  0  0  0  0
    2.3007  -12.8614  -36.7967 C   0  0  0  0  0  0  0  0  0  0  0  0
    0.2224  -15.7049  -36.0693 C   0  0  0  0  0  0  0  0  0  0  0  0
 20 21  1  0  0  0
 21 22  2  0  0  0
 21 25  1  0  0  0
 22 23  1  0  0  0
 22 16  1  0  0  0
 23 24  1  0  0  0
 23 26  1  0  0  0
 24 25  2  0  0  0
 16 17  2  0  0  0
 16 18  1  0  0  0
 18  1  1  0  0  0
  1  2  1  0  0  0
  1  9  2  0  0  0
  2  3  2  0  0  0
  2  6  1  0  0  0
  3  4  1  0  0  0
  4  5  1  0  0  0
  5  6  2  0  0  0
  6  7  1  0  0  0
  7  8  2  0  0  0
  7 10  1  0  0  0
  8  9  1  0  0  0
 10 11  1  0  0  0
 10 15  1  0  0  0
 11 12  1  0  0  0
 12 13  1  0  0  0
 13 14  1  0  0  0
 14 15  1  0  0  0
 18 19  1  0  0  0
M  END
> <minimizedAffinity>
-5.48322

$$$$
920


 24 27  0  0  0  0  0  0  0  0999 V2000
    1.4698  -16.1717  -37.0838 N   0  0  0  0  0  0  0  0  0  0  0  0
    1.7265  -16.6543  -38.2595 C   0  0  0  0  0  0  0  0  0  0  0  0
    1.3970  -16.3379  -40.0004 S   0  0  0  0  0  0  0  0  0  0  0  0
    2.3296  -17.7456  -40.5568 C   0  0  0  0  0  0  0  0  0  0  0  0
    2.8264  -18.3661  -39.5100 C   0  0  0  0  0  0  0  0  0  0  0  0
    2.5214  -17.8025  -38.2469 N   0  0  0  0  0  0  0  0  0  0  0  0
    2.8167  -18.0832  -36.8184 C   0  0  0  0  0  0  0  0  0  0  0  0
    2.0603  -17.0268  -36.0913 C   0  0  0  0  0  0  0  0  0  0  0  0
    3.6457  -19.5909  -39.7490 C   0  0  0  0  0  0  0  0  0  0  0  0
    3.2095  -20.6198  -40.5418 C   0  0  0  0  0  0  0  0  0  0  0  0
    3.9902  -21.7696  -40.7722 C   0  0  0  0  0  0  0  0  0  0  0  0
    5.2334  -21.8885  -40.1951 C   0  0  0  0  0  0  0  0  0  0  0  0
    5.6751  -20.8608  -39.3999 C   0  0  0  0  0  0  0  0  0  0  0  0
    4.8982  -19.7307  -39.1791 C   0  0  0  0  0  0  0  0  0  0  0  0
    0.6963  -15.0172  -36.8187 C   0  0  0  0  0  0  0  0  0  0  0  0
    1.2987  -13.7214  -36.6492 C   0  0  0  0  0  0  0  0  0  0  0  0
    0.8907  -13.1128  -35.5674 O   0  0  0  0  0  0  0  0  0  0  0  0
    5.3885  -10.4254  -40.2038 I   0  0  0  0  0  0  0  0  0  0  0  0
    4.0679  -11.4894  -38.9964 C   0  0  0  0  0  0  0  0  0  0  0  0
    3.9832  -11.3501  -37.6246 C   0  0  0  0  0  0  0  0  0  0  0  0
    3.1018  -12.0652  -36.8591 C   0  0  0  0  0  0  0  0  0  0  0  0
    2.2490  -12.9664  -37.4199 C   0  0  0  0  0  0  0  0  0  0  0  0
    2.3196  -13.1210  -38.8033 C   0  0  0  0  0  0  0  0  0  0  0  0
    3.1910  -12.4146  -39.5634 C   0  0  0  0  0  0  0  0  0  0  0  0
 18 19  1  0  0  0
 19 20  2  0  0  0
 19 24  1  0  0  0
 20 21  1  0  0  0
 21 22  2  0  0  0
 22 23  1  0  0  0
 22 16  1  0  0  0
 23 24  2  0  0  0
 16 17  2  0  0  0
 16 15  1  0  0  0
 15  1  1  0  0  0
  1  2  2  0  0  0
  1  8  1  0  0  0
  2  3  1  0  0  0
  2  6  1  0  0  0
  3  4  1  0  0  0
  4  5  2  0  0  0
  5  6  1  0  0  0
  5  9  1  0  0  0
  6  7  1  0  0  0
  7  8  1  0  0  0
  9 10  2  0  0  0
  9 14  1  0  0  0
 10 11  1  0  0  0
 11 12  2  0  0  0
 12 13  1  0  0  0
 13 14  2  0  0  0
M  END
> <minimizedAffinity>
-6.55347

$$$$
924


 29 32  0  0  0  0  0  0  0  0999 V2000
    2.0319  -17.7596  -36.9795 C   0  0  0  0  0  0  0  0  0  0  0  0
    3.1894  -18.3448  -37.3311 N   0  0  0  0  0  0  0  0  0  0  0  0
    3.2093  -19.4169  -38.1330 C   0  0  0  0  0  0  0  0  0  0  0  0
    2.0215  -19.8735  -38.5626 N   0  0  0  0  0  0  0  0  0  0  0  0
    0.8404  -19.3142  -38.2310 C   0  0  0  0  0  0  0  0  0  0  0  0
    0.8636  -18.2374  -37.4240 N   0  0  0  0  0  0  0  0  0  0  0  0
   -0.3726  -19.8617  -38.7290 N   0  0  0  0  0  0  0  0  0  0  0  0
   -1.2465  -20.5899  -37.8387 C   0  0  0  0  0  0  0  0  0  0  0  0
   -1.8600  -21.7067  -38.6951 C   0  0  0  0  0  0  0  0  0  0  0  0
   -2.6546  -21.1109  -39.6394 O   0  0  0  0  0  0  0  0  0  0  0  0
   -2.0288  -20.2766  -40.5227 C   0  0  0  0  0  0  0  0  0  0  0  0
   -0.7290  -19.6975  -40.0957 C   0  0  0  0  0  0  0  0  0  0  0  0
    4.4265  -20.0556  -38.5197 N   0  0  0  0  0  0  0  0  0  0  0  0
    4.5501  -21.4711  -38.6940 C   0  0  0  0  0  0  0  0  0  0  0  0
    6.0304  -21.7811  -38.9259 C   0  0  0  0  0  0  0  0  0  0  0  0
    6.8332  -21.1720  -37.9758 O   0  0  0  0  0  0  0  0  0  0  0  0
    6.8100  -19.8006  -38.0372 C   0  0  0  0  0  0  0  0  0  0  0  0
    5.6069  -19.2391  -38.7512 C   0  0  0  0  0  0  0  0  0  0  0  0
    2.0360  -16.6009  -36.1118 N   0  0  0  0  0  0  0  0  0  0  0  0
    2.9122  -16.3268  -35.6157 H   0  0  0  0  0  0  0  0  0  0  0  0
    0.6690  -14.7616  -36.4228 C   0  0  0  0  0  0  0  0  0  0  0  0
    0.8890  -15.9011  -35.9337 N   0  0  0  0  0  0  0  0  0  0  0  0
    4.5837  -10.9458  -39.6529 I   0  0  0  0  0  0  0  0  0  0  0  0
    3.2815  -12.2531  -38.6669 C   0  0  0  0  0  0  0  0  0  0  0  0
    2.6799  -13.3026  -39.2898 C   0  0  0  0  0  0  0  0  0  0  0  0
    1.8160  -14.1421  -38.5708 C   0  0  0  0  0  0  0  0  0  0  0  0
    1.5349  -13.9652  -37.2480 C   0  0  0  0  0  0  0  0  0  0  0  0
    2.1685  -12.8759  -36.6313 C   0  0  0  0  0  0  0  0  0  0  0  0
    3.0154  -12.0507  -37.3309 C   0  0  0  0  0  0  0  0  0  0  0  0
 23 24  1  0  0  0
 24 25  2  0  0  0
 24 29  1  0  0  0
 25 26  1  0  0  0
 26 27  2  0  0  0
 27 28  1  0  0  0
 27 21  1  0  0  0
 28 29  2  0  0  0
 21 22  2  0  0  0
 22 19  1  0  0  0
 19  1  1  0  0  0
  1  2  2  0  0  0
  1  6  1  0  0  0
  2  3  1  0  0  0
  3  4  2  0  0  0
  3 13  1  0  0  0
  4  5  1  0  0  0
  5  6  2  0  0  0
  5  7  1  0  0  0
  7  8  1  0  0  0
  7 12  1  0  0  0
  8  9  1  0  0  0
  9 10  1  0  0  0
 10 11  1  0  0  0
 11 12  1  0  0  0
 13 14  1  0  0  0
 13 18  1  0  0  0
 14 15  1  0  0  0
 15 16  1  0  0  0
 16 17  1  0  0  0
 17 18  1  0  0  0
 19 20  1  0  0  0
M  END
> <minimizedAffinity>
-7.10416

$$$$
935


 34 38  0  0  0  0  0  0  0  0999 V2000
    0.7292  -16.9125  -37.8821 N   0  0  0  0  0  0  0  0  0  0  0  0
    0.7395  -15.6012  -38.1781 C   0  0  0  0  0  0  0  0  0  0  0  0
   -0.3445  -14.7825  -37.9483 C   0  0  0  0  0  0  0  0  0  0  0  0
   -1.4525  -15.3898  -37.3903 C   0  0  0  0  0  0  0  0  0  0  0  0
   -2.5284  -14.7764  -37.1180 O   0  0  0  0  0  0  0  0  0  0  0  0
   -1.4755  -16.7242  -37.0842 N   0  0  0  0  0  0  0  0  0  0  0  0
   -0.3753  -17.4524  -37.3420 C   0  0  0  0  0  0  0  0  0  0  0  0
   -0.3494  -18.6814  -37.0783 O   0  0  0  0  0  0  0  0  0  0  0  0
    1.8605  -15.0354  -38.7286 O   0  0  0  0  0  0  0  0  0  0  0  0
   -2.3100  -17.1759  -36.6661 H   0  0  0  0  0  0  0  0  0  0  0  0
   -0.4153  -13.3657  -38.2547 C   0  0  0  0  0  0  0  0  0  0  0  0
   -1.0982  -12.5238  -37.3247 N   0  0  0  0  0  0  0  0  0  0  0  0
   -0.4854  -12.4431  -36.0270 C   0  0  0  0  0  0  0  0  0  0  0  0
    0.8920  -13.0697  -35.9744 C   0  0  0  0  0  0  0  0  0  0  0  0
    1.6613  -12.6314  -37.1978 C   0  0  0  0  0  0  0  0  0  0  0  0
    0.9641  -12.7704  -38.3711 C   0  0  0  0  0  0  0  0  0  0  0  0
    1.5231  -12.3810  -39.5646 C   0  0  0  0  0  0  0  0  0  0  0  0
    2.8048  -11.8509  -39.5235 C   0  0  0  0  0  0  0  0  0  0  0  0
    3.5195  -11.7055  -38.3525 C   0  0  0  0  0  0  0  0  0  0  0  0
    2.9140  -12.1128  -37.1644 C   0  0  0  0  0  0  0  0  0  0  0  0
    4.7529  -11.1509  -38.6563 O   0  0  0  0  0  0  0  0  0  0  0  0
    4.9859  -11.2783  -40.0684 C   0  0  0  0  0  0  0  0  0  0  0  0
    3.6513  -11.3647  -40.5318 O   0  0  0  0  0  0  0  0  0  0  0  0
   -0.9805  -11.1534  -37.8884 C   0  0  0  0  0  0  0  0  0  0  0  0
   -2.1248  -12.6299  -37.2717 H   0  0  0  0  0  0  0  0  0  0  0  0
    0.8209  -12.5218  -40.7277 O   0  0  0  0  0  0  0  0  0  0  0  0
    1.0449  -13.4518  -41.7389 C   0  0  0  0  0  0  0  0  0  0  0  0
    5.7670  -20.5903  -38.9744 I   0  0  0  0  0  0  0  0  0  0  0  0
    4.1031  -19.3696  -38.5923 C   0  0  0  0  0  0  0  0  0  0  0  0
    3.2132  -19.0661  -39.6173 C   0  0  0  0  0  0  0  0  0  0  0  0
    2.1290  -18.2734  -39.3774 C   0  0  0  0  0  0  0  0  0  0  0  0
    1.8576  -17.7369  -38.1289 C   0  0  0  0  0  0  0  0  0  0  0  0
    2.7440  -18.0364  -37.0998 C   0  0  0  0  0  0  0  0  0  0  0  0
    3.8371  -18.8384  -37.3522 C   0  0  0  0  0  0  0  0  0  0  0  0
 28 29  1  0  0  0
 29 30  2  0  0  0
 29 34  1  0  0  0
 30 31  1  0  0  0
 31 32  2  0  0  0
 32 33  1  0  0  0
 32  1  1  0  0  0
 33 34  2  0  0  0
  1  2  1  0  0  0
  1  7  1  0  0  0
  2  3  2  0  0  0
  2  9  1  0  0  0
  3  4  1  0  0  0
  3 11  1  0  0  0
  4  5  2  0  0  0
  4  6  1  0  0  0
  6  7  1  0  0  0
  7  8  2  0  0  0
 11 12  1  0  0  0
 11 16  1  0  0  0
 12 13  1  0  0  0
 12 24  1  0  0  0
 13 14  1  0  0  0
 14 15  1  0  0  0
 15 16  2  0  0  0
 15 20  1  0  0  0
 16 17  1  0  0  0
 17 18  2  0  0  0
 17 26  1  0  0  0
 18 19  1  0  0  0
 18 23  1  0  0  0
 19 20  2  0  0  0
 19 21  1  0  0  0
 21 22  1  0  0  0
 22 23  1  0  0  0
 26 27  1  0  0  0
  6 10  1  0  0  0
 12 25  1  0  0  0
M  CHG 1   9  -1
M  CHG 1  12   1
M  END
> <minimizedAffinity>
-6.33897

$$$$
937


 26 29  0  0  0  0  0  0  0  0999 V2000
    0.6295  -15.1347  -37.0896 N   0  0  0  0  0  0  0  0  0  0  0  0
    0.9374  -16.4441  -36.6410 C   0  0  0  0  0  0  0  0  0  0  0  0
    2.0630  -16.7813  -36.1908 O   0  0  0  0  0  0  0  0  0  0  0  0
   -0.2602  -17.3174  -36.7866 C   0  0  0  0  0  0  0  0  0  0  0  0
   -1.3882  -16.3116  -36.6317 C   0  0  0  0  0  0  0  0  0  0  0  0
   -0.7903  -15.0205  -37.0252 C   0  0  0  0  0  0  0  0  0  0  0  0
   -1.4147  -13.9484  -37.2756 O   0  0  0  0  0  0  0  0  0  0  0  0
    4.6426  -10.6407  -39.1397 I   0  0  0  0  0  0  0  0  0  0  0  0
    3.3104  -12.1365  -38.4681 C   0  0  0  0  0  0  0  0  0  0  0  0
    2.8101  -13.1054  -39.3122 C   0  0  0  0  0  0  0  0  0  0  0  0
    1.9402  -14.0707  -38.8463 C   0  0  0  0  0  0  0  0  0  0  0  0
    1.5374  -14.1061  -37.5278 C   0  0  0  0  0  0  0  0  0  0  0  0
    2.0473  -13.1319  -36.7031 C   0  0  0  0  0  0  0  0  0  0  0  0
    2.9189  -12.1567  -37.1471 C   0  0  0  0  0  0  0  0  0  0  0  0
   -0.2139  -17.9259  -38.0518 N   0  0  0  0  0  0  0  0  0  0  0  0
    0.6368  -17.4554  -39.0516 C   0  0  0  0  0  0  0  0  0  0  0  0
    0.9307  -18.6507  -39.9956 C   0  0  0  0  0  0  0  0  0  0  0  0
    1.3238  -19.7851  -39.1730 N   0  0  0  0  0  0  0  0  0  0  0  0
    0.3520  -20.2500  -38.2147 C   0  0  0  0  0  0  0  0  0  0  0  0
   -0.7679  -19.2139  -38.1675 C   0  0  0  0  0  0  0  0  0  0  0  0
    2.5926  -20.3841  -39.3106 C   0  0  0  0  0  0  0  0  0  0  0  0
    3.3870  -20.5860  -38.2242 N   0  0  0  0  0  0  0  0  0  0  0  0
    4.5887  -21.1549  -38.2893 C   0  0  0  0  0  0  0  0  0  0  0  0
    5.0953  -21.5776  -39.5109 C   0  0  0  0  0  0  0  0  0  0  0  0
    4.2832  -21.3695  -40.6120 C   0  0  0  0  0  0  0  0  0  0  0  0
    3.0788  -20.7931  -40.5007 N   0  0  0  0  0  0  0  0  0  0  0  0
  8  9  1  0  0  0
  9 10  2  0  0  0
  9 14  1  0  0  0
 10 11  1  0  0  0
 11 12  2  0  0  0
 12 13  1  0  0  0
 12  1  1  0  0  0
 13 14  2  0  0  0
  1  2  1  0  0  0
  1  6  1  0  0  0
  2  3  2  0  0  0
  2  4  1  0  0  0
  4  5  1  0  0  0
  4 15  1  0  0  0
  5  6  1  0  0  0
  6  7  2  0  0  0
 15 16  1  0  0  0
 15 20  1  0  0  0
 16 17  1  0  0  0
 17 18  1  0  0  0
 18 19  1  0  0  0
 18 21  1  0  0  0
 19 20  1  0  0  0
 21 22  2  0  0  0
 21 26  1  0  0  0
 22 23  1  0  0  0
 23 24  2  0  0  0
 24 25  1  0  0  0
 25 26  2  0  0  0
M  END
> <minimizedAffinity>
-6.86899

$$$$
950


 26 29  0  0  0  0  0  0  0  0999 V2000
    1.0966  -16.8052  -38.0054 C   0  0  0  0  0  0  0  0  0  0  0  0
    2.0204  -17.4136  -37.1500 C   0  0  0  0  0  0  0  0  0  0  0  0
    2.2394  -17.2736  -35.8310 N   0  0  0  0  0  0  0  0  0  0  0  0
    3.2171  -18.0606  -35.4902 O   0  0  0  0  0  0  0  0  0  0  0  0
    3.6524  -18.7119  -36.5239 N   0  0  0  0  0  0  0  0  0  0  0  0
    2.9285  -18.3376  -37.5963 C   0  0  0  0  0  0  0  0  0  0  0  0
    2.9475  -18.6923  -38.9279 C   0  0  0  0  0  0  0  0  0  0  0  0
    2.0361  -18.0897  -39.7582 C   0  0  0  0  0  0  0  0  0  0  0  0
    1.1048  -17.1435  -39.3118 C   0  0  0  0  0  0  0  0  0  0  0  0
    3.8946  -19.6500  -39.3705 N   0  0  0  0  0  0  0  0  0  0  0  0
    5.0770  -19.2370  -40.0981 C   0  0  0  0  0  0  0  0  0  0  0  0
    5.9264  -20.4311  -40.3616 C   0  0  0  0  0  0  0  0  0  0  0  0
    6.1518  -21.2240  -39.2534 O   0  0  0  0  0  0  0  0  0  0  0  0
    5.0334  -21.6853  -38.6346 C   0  0  0  0  0  0  0  0  0  0  0  0
    3.7479  -21.0719  -39.1303 C   0  0  0  0  0  0  0  0  0  0  0  0
    0.3683  -14.4887  -37.3693 C   0  0  0  0  0  0  0  0  0  0  0  0
    1.4194  -13.9469  -37.8583 O   0  0  0  0  0  0  0  0  0  0  0  0
    0.2067  -15.8658  -37.4344 N   0  0  0  0  0  0  0  0  0  0  0  0
   -0.6910  -16.2354  -36.9877 H   0  0  0  0  0  0  0  0  0  0  0  0
   -3.2823  -14.9814  -37.4283 I   0  0  0  0  0  0  0  0  0  0  0  0
   -1.9461  -13.5749  -36.6665 C   0  0  0  0  0  0  0  0  0  0  0  0
   -2.3275  -12.4366  -35.9561 C   0  0  0  0  0  0  0  0  0  0  0  0
   -1.2285  -11.7517  -35.6361 N   0  0  0  0  0  0  0  0  0  0  0  0
   -0.2059  -12.4076  -36.1108 N   0  0  0  0  0  0  0  0  0  0  0  0
   -0.5976  -13.5544  -36.7624 C   0  0  0  0  0  0  0  0  0  0  0  0
   -1.2158  -10.4899  -34.8832 C   0  0  0  0  0  0  0  0  0  0  0  0
 20 21  1  0  0  0
 21 22  2  0  0  0
 21 25  1  0  0  0
 22 23  1  0  0  0
 23 24  1  0  0  0
 23 26  1  0  0  0
 24 25  2  0  0  0
 25 16  1  0  0  0
 16 17  2  0  0  0
 16 18  1  0  0  0
 18  1  1  0  0  0
  1  2  1  0  0  0
  1  9  2  0  0  0
  2  3  2  0  0  0
  2  6  1  0  0  0
  3  4  1  0  0  0
  4  5  1  0  0  0
  5  6  2  0  0  0
  6  7  1  0  0  0
  7  8  2  0  0  0
  7 10  1  0  0  0
  8  9  1  0  0  0
 10 11  1  0  0  0
 10 15  1  0  0  0
 11 12  1  0  0  0
 12 13  1  0  0  0
 13 14  1  0  0  0
 14 15  1  0  0  0
 18 19  1  0  0  0
M  END
> <minimizedAffinity>
-5.72581

$$$$
956


 30 33  0  0  0  0  0  0  0  0999 V2000
    2.1097  -17.3412  -40.3902 I   0  0  0  0  0  0  0  0  0  0  0  0
    0.5014  -18.2176  -39.3467 C   0  0  0  0  0  0  0  0  0  0  0  0
    0.0223  -17.8340  -38.1290 C   0  0  0  0  0  0  0  0  0  0  0  0
   -1.0310  -18.7134  -37.8752 C   0  0  0  0  0  0  0  0  0  0  0  0
   -1.1969  -19.5864  -38.8696 N   0  0  0  0  0  0  0  0  0  0  0  0
   -0.2634  -19.2903  -39.7736 C   0  0  0  0  0  0  0  0  0  0  0  0
   -1.7007  -18.5649  -36.7199 N   0  0  0  0  0  0  0  0  0  0  0  0
   -1.3665  -17.6055  -35.8429 C   0  0  0  0  0  0  0  0  0  0  0  0
   -0.3571  -16.7651  -36.0893 N   0  0  0  0  0  0  0  0  0  0  0  0
    0.3783  -16.8451  -37.2414 C   0  0  0  0  0  0  0  0  0  0  0  0
   -2.1600  -20.6397  -38.9887 C   0  0  0  0  0  0  0  0  0  0  0  0
   -1.7047  -21.8679  -38.5247 O   0  0  0  0  0  0  0  0  0  0  0  0
   -2.7467  -22.7232  -38.8717 C   0  0  0  0  0  0  0  0  0  0  0  0
   -3.2266  -22.3004  -40.2406 C   0  0  0  0  0  0  0  0  0  0  0  0
   -2.4697  -20.9831  -40.4481 C   0  0  0  0  0  0  0  0  0  0  0  0
   -4.5829  -21.9719  -40.2339 O   0  0  0  0  0  0  0  0  0  0  0  0
   -5.0689  -22.8530  -40.1962 H   0  0  0  0  0  0  0  0  0  0  0  0
   -2.2165  -24.1557  -39.0257 C   0  0  0  0  0  0  0  0  0  0  0  0
   -2.1179  -24.7386  -37.7554 O   0  0  0  0  0  0  0  0  0  0  0  0
   -2.9456  -25.2758  -37.5439 H   0  0  0  0  0  0  0  0  0  0  0  0
    1.4426  -15.9228  -37.4508 N   0  0  0  0  0  0  0  0  0  0  0  0
    1.1279  -14.6103  -37.9070 C   0  0  0  0  0  0  0  0  0  0  0  0
   -0.0857  -14.3427  -38.0986 O   0  0  0  0  0  0  0  0  0  0  0  0
    2.4371  -16.1147  -37.3021 H   0  0  0  0  0  0  0  0  0  0  0  0
    2.1015  -13.5836  -38.1586 C   0  0  0  0  0  0  0  0  0  0  0  0
    2.6769  -13.4370  -39.3906 C   0  0  0  0  0  0  0  0  0  0  0  0
    3.6216  -12.4421  -39.6522 C   0  0  0  0  0  0  0  0  0  0  0  0
    3.9872  -11.5872  -38.6546 C   0  0  0  0  0  0  0  0  0  0  0  0
    3.4272  -11.7102  -37.4094 C   0  0  0  0  0  0  0  0  0  0  0  0
    2.4823  -12.7143  -37.1692 C   0  0  0  0  0  0  0  0  0  0  0  0
  1  2  1  0  0  0
  2  3  1  0  0  0
  2  6  2  0  0  0
  3  4  2  0  0  0
  3 10  1  0  0  0
  4  5  1  0  0  0
  4  7  1  0  0  0
  5  6  1  0  0  0
  5 11  1  0  0  0
 11 12  1  0  0  0
 11 15  1  0  0  0
 12 13  1  0  0  0
 13 14  1  0  0  0
 13 18  1  0  0  0
 14 15  1  0  0  0
 14 16  1  0  0  0
 18 19  1  0  0  0
  7  8  2  0  0  0
  8  9  1  0  0  0
  9 10  2  0  0  0
 10 21  1  0  0  0
 21 22  1  0  0  0
 22 23  2  0  0  0
 22 25  1  0  0  0
 25 26  2  0  0  0
 25 30  1  0  0  0
 26 27  1  0  0  0
 27 28  2  0  0  0
 28 29  1  0  0  0
 29 30  2  0  0  0
 16 17  1  0  0  0
 19 20  1  0  0  0
 21 24  1  0  0  0
M  END
> <minimizedAffinity>
-6.25179

$$$$
961


 29 33  0  0  0  0  0  0  0  0999 V2000
    0.3115  -16.8501  -37.6247 C   0  0  0  0  0  0  0  0  0  0  0  0
   -0.8951  -17.1641  -37.2180 N   0  0  0  0  0  0  0  0  0  0  0  0
   -1.7337  -16.1896  -36.7528 C   0  0  0  0  0  0  0  0  0  0  0  0
   -1.3982  -14.8726  -36.6812 C   0  0  0  0  0  0  0  0  0  0  0  0
   -0.1392  -14.5036  -37.1026 C   0  0  0  0  0  0  0  0  0  0  0  0
    0.5384  -13.3063  -37.1782 N   0  0  0  0  0  0  0  0  0  0  0  0
    1.7490  -13.5171  -37.6667 C   0  0  0  0  0  0  0  0  0  0  0  0
    1.8303  -14.8554  -37.9000 N   0  0  0  0  0  0  0  0  0  0  0  0
    0.6947  -15.4797  -37.5648 C   0  0  0  0  0  0  0  0  0  0  0  0
   -0.1033  -12.0870  -36.7761 C   0  0  0  0  0  0  0  0  0  0  0  0
   -1.4124  -18.4976  -37.3084 C   0  0  0  0  0  0  0  0  0  0  0  0
    2.8199  -12.5536  -37.9474 C   0  0  0  0  0  0  0  0  0  0  0  0
    3.4045  -11.7445  -37.0306 C   0  0  0  0  0  0  0  0  0  0  0  0
    4.4057  -10.8364  -37.4236 C   0  0  0  0  0  0  0  0  0  0  0  0
    4.7982  -10.7636  -38.7406 C   0  0  0  0  0  0  0  0  0  0  0  0
    4.2162  -11.5821  -39.6992 C   0  0  0  0  0  0  0  0  0  0  0  0
    3.2563  -12.4418  -39.2777 C   0  0  0  0  0  0  0  0  0  0  0  0
    1.9568  -17.9322  -39.1717 C   0  0  0  0  0  0  0  0  0  0  0  0
    1.3545  -17.7664  -38.0475 C   0  0  0  0  0  0  0  0  0  0  0  0
    3.3133  -17.4671  -42.0659 Br  0  0  0  0  0  0  0  0  0  0  0  0
    3.7259  -18.7682  -40.7361 C   0  0  0  0  0  0  0  0  0  0  0  0
    4.7765  -19.6767  -41.0185 C   0  0  0  0  0  0  0  0  0  0  0  0
    5.0989  -20.6684  -40.1322 C   0  0  0  0  0  0  0  0  0  0  0  0
    4.3792  -20.7642  -38.9615 C   0  0  0  0  0  0  0  0  0  0  0  0
    3.3607  -19.8768  -38.6971 C   0  0  0  0  0  0  0  0  0  0  0  0
    3.0022  -18.8372  -39.5918 C   0  0  0  0  0  0  0  0  0  0  0  0
    4.9039  -21.8512  -38.2428 O   0  0  0  0  0  0  0  0  0  0  0  0
    6.2148  -22.0468  -38.7320 C   0  0  0  0  0  0  0  0  0  0  0  0
    6.0476  -21.6953  -40.1048 O   0  0  0  0  0  0  0  0  0  0  0  0
 20 21  1  0  0  0
 21 22  2  0  0  0
 21 26  1  0  0  0
 22 23  1  0  0  0
 23 24  2  0  0  0
 23 29  1  0  0  0
 24 25  1  0  0  0
 24 27  1  0  0  0
 25 26  2  0  0  0
 26 18  1  0  0  0
 18 19  2  0  0  0
 19  1  1  0  0  0
  1  2  2  0  0  0
  1  9  1  0  0  0
  2  3  1  0  0  0
  2 11  1  0  0  0
  3  4  2  0  0  0
  4  5  1  0  0  0
  5  6  1  0  0  0
  5  9  2  0  0  0
  6  7  1  0  0  0
  6 10  1  0  0  0
  7  8  2  0  0  0
  7 12  1  0  0  0
  8  9  1  0  0  0
 12 13  2  0  0  0
 12 17  1  0  0  0
 13 14  1  0  0  0
 14 15  2  0  0  0
 15 16  1  0  0  0
 16 17  2  0  0  0
 27 28  1  0  0  0
 28 29  1  0  0  0
M  END
> <minimizedAffinity>
-7.89175

$$$$
969


 31 34  0  0  0  0  0  0  0  0999 V2000
   -4.6274  -16.5848  -39.3333 Br  0  0  0  0  0  0  0  0  0  0  0  0
   -3.1978  -15.3360  -39.2314 C   0  0  0  0  0  0  0  0  0  0  0  0
   -1.8826  -15.7008  -38.9580 C   0  0  0  0  0  0  0  0  0  0  0  0
   -0.8759  -14.7513  -38.8932 C   0  0  0  0  0  0  0  0  0  0  0  0
   -1.1679  -13.4187  -39.1014 C   0  0  0  0  0  0  0  0  0  0  0  0
   -2.4568  -13.0520  -39.3704 C   0  0  0  0  0  0  0  0  0  0  0  0
   -3.4489  -13.9976  -39.4330 C   0  0  0  0  0  0  0  0  0  0  0  0
   -4.7504  -13.5439  -39.7161 O   0  0  0  0  0  0  0  0  0  0  0  0
   -2.7937  -11.1828  -39.6518 Br  0  0  0  0  0  0  0  0  0  0  0  0
    0.4337  -15.0857  -38.6241 C   0  0  0  0  0  0  0  0  0  0  0  0
    0.7174  -16.4196  -38.4183 C   0  0  0  0  0  0  0  0  0  0  0  0
   -0.4104  -17.3552  -38.5049 C   0  0  0  0  0  0  0  0  0  0  0  0
   -0.1076  -18.7012  -38.2932 C   0  0  0  0  0  0  0  0  0  0  0  0
    1.1819  -19.0958  -38.0211 C   0  0  0  0  0  0  0  0  0  0  0  0
    1.4069  -20.3191  -37.8382 O   0  0  0  0  0  0  0  0  0  0  0  0
    2.2292  -18.1838  -37.9453 C   0  0  0  0  0  0  0  0  0  0  0  0
    2.0047  -16.8523  -38.1424 C   0  0  0  0  0  0  0  0  0  0  0  0
    3.9910  -18.8194  -37.5631 Br  0  0  0  0  0  0  0  0  0  0  0  0
   -1.5362  -19.9828  -38.3897 Br  0  0  0  0  0  0  0  0  0  0  0  0
   -1.6378  -16.9715  -38.7655 O   0  0  0  0  0  0  0  0  0  0  0  0
    1.4944  -14.0797  -38.5483 C   0  0  0  0  0  0  0  0  0  0  0  0
    1.7617  -13.4260  -37.3593 C   0  0  0  0  0  0  0  0  0  0  0  0
    2.7514  -12.4708  -37.2637 C   0  0  0  0  0  0  0  0  0  0  0  0
    3.4876  -12.1689  -38.3907 C   0  0  0  0  0  0  0  0  0  0  0  0
    3.2579  -12.7884  -39.5808 C   0  0  0  0  0  0  0  0  0  0  0  0
    2.2645  -13.7397  -39.6581 C   0  0  0  0  0  0  0  0  0  0  0  0
    4.2434  -12.3436  -40.9648 Cl  0  0  0  0  0  0  0  0  0  0  0  0
    0.8059  -13.8316  -35.9293 Cl  0  0  0  0  0  0  0  0  0  0  0  0
    2.0107  -14.3975  -40.9172 C   0  0  0  0  0  0  0  0  0  0  0  0
    2.6392  -15.4303  -41.2778 O   0  0  0  0  0  0  0  0  0  0  0  0
    1.0449  -13.9009  -41.7896 O   0  0  0  0  0  0  0  0  0  0  0  0
  1  2  1  0  0  0
  2  3  2  0  0  0
  2  7  1  0  0  0
  3  4  1  0  0  0
  3 20  1  0  0  0
  4  5  2  0  0  0
  4 10  1  0  0  0
  5  6  1  0  0  0
  6  7  2  0  0  0
  6  9  1  0  0  0
  7  8  1  0  0  0
 10 11  2  0  0  0
 10 21  1  0  0  0
 11 12  1  0  0  0
 11 17  1  0  0  0
 12 13  2  0  0  0
 12 20  1  0  0  0
 13 14  1  0  0  0
 13 19  1  0  0  0
 14 15  2  0  0  0
 14 16  1  0  0  0
 16 17  2  0  0  0
 16 18  1  0  0  0
 21 22  2  0  0  0
 21 26  1  0  0  0
 22 23  1  0  0  0
 22 28  1  0  0  0
 23 24  2  0  0  0
 24 25  1  0  0  0
 25 26  2  0  0  0
 25 27  1  0  0  0
 26 29  1  0  0  0
 29 30  2  0  0  0
 29 31  1  0  0  0
M  CHG 1   8  -1
M  END
> <minimizedAffinity>
-5.69997

$$$$
971


 29 33  0  0  0  0  0  0  0  0999 V2000
    3.4093  -22.4693  -41.3433 Br  0  0  0  0  0  0  0  0  0  0  0  0
    3.5294  -20.9712  -40.1690 C   0  0  0  0  0  0  0  0  0  0  0  0
    2.4194  -20.1425  -39.9205 C   0  0  0  0  0  0  0  0  0  0  0  0
    2.4642  -19.0629  -39.0889 C   0  0  0  0  0  0  0  0  0  0  0  0
    3.6799  -18.7819  -38.4615 C   0  0  0  0  0  0  0  0  0  0  0  0
    4.7552  -19.5845  -38.7026 C   0  0  0  0  0  0  0  0  0  0  0  0
    4.7161  -20.6788  -39.5424 C   0  0  0  0  0  0  0  0  0  0  0  0
    5.8651  -21.4622  -39.7432 O   0  0  0  0  0  0  0  0  0  0  0  0
    6.4197  -19.2080  -37.8495 Br  0  0  0  0  0  0  0  0  0  0  0  0
    1.2975  -18.2235  -38.8509 C   0  0  0  0  0  0  0  0  0  0  0  0
    0.9859  -18.3430  -37.4642 O   0  0  0  0  0  0  0  0  0  0  0  0
    1.0614  -17.1416  -36.8143 C   0  0  0  0  0  0  0  0  0  0  0  0
    0.8380  -16.9565  -35.5963 O   0  0  0  0  0  0  0  0  0  0  0  0
    1.4427  -16.1686  -37.8196 C   0  0  0  0  0  0  0  0  0  0  0  0
    1.5931  -16.7751  -39.0458 C   0  0  0  0  0  0  0  0  0  0  0  0
    1.9494  -16.0037  -40.1026 C   0  0  0  0  0  0  0  0  0  0  0  0
    2.1517  -14.6502  -39.9310 C   0  0  0  0  0  0  0  0  0  0  0  0
    2.0027  -14.0389  -38.7043 C   0  0  0  0  0  0  0  0  0  0  0  0
    1.6421  -14.8046  -37.6272 C   0  0  0  0  0  0  0  0  0  0  0  0
    0.1073  -18.6497  -39.5796 C   0  0  0  0  0  0  0  0  0  0  0  0
    0.1246  -19.7429  -40.4005 C   0  0  0  0  0  0  0  0  0  0  0  0
   -1.0354  -20.1399  -41.0968 C   0  0  0  0  0  0  0  0  0  0  0  0
   -2.1880  -19.4073  -40.9354 C   0  0  0  0  0  0  0  0  0  0  0  0
   -2.2136  -18.2970  -40.1041 C   0  0  0  0  0  0  0  0  0  0  0  0
   -1.0851  -17.9177  -39.4329 C   0  0  0  0  0  0  0  0  0  0  0  0
   -3.8028  -17.2723  -39.8706 Br  0  0  0  0  0  0  0  0  0  0  0  0
   -3.3217  -19.8089  -41.6255 O   0  0  0  0  0  0  0  0  0  0  0  0
   -0.9717  -21.6753  -42.2364 Br  0  0  0  0  0  0  0  0  0  0  0  0
    1.2580  -20.5185  -40.6000 O   0  0  0  0  0  0  0  0  0  0  0  0
  1  2  1  0  0  0
  2  3  2  0  0  0
  2  7  1  0  0  0
  3  4  1  0  0  0
  3 29  1  0  0  0
  4  5  2  0  0  0
  4 10  1  0  0  0
  5  6  1  0  0  0
  6  7  2  0  0  0
  6  9  1  0  0  0
  7  8  1  0  0  0
 10 11  1  0  0  0
 10 15  1  0  0  0
 10 20  1  0  0  0
 11 12  1  0  0  0
 12 13  2  0  0  0
 12 14  1  0  0  0
 14 15  2  0  0  0
 14 19  1  0  0  0
 15 16  1  0  0  0
 16 17  2  0  0  0
 17 18  1  0  0  0
 18 19  2  0  0  0
 20 21  2  0  0  0
 20 25  1  0  0  0
 21 22  1  0  0  0
 21 29  1  0  0  0
 22 23  2  0  0  0
 22 28  1  0  0  0
 23 24  1  0  0  0
 23 27  1  0  0  0
 24 25  2  0  0  0
 24 26  1  0  0  0
M  CHG 1   8  -1
M  CHG 1  27  -1
M  END
> <minimizedAffinity>
-6.71172

$$$$
978


 33 37  0  0  0  0  0  0  0  0999 V2000
   -1.5152  -21.4618  -42.7675 I   0  0  0  0  0  0  0  0  0  0  0  0
   -1.4989  -19.8684  -41.3816 C   0  0  0  0  0  0  0  0  0  0  0  0
   -0.3118  -19.6370  -40.6941 C   0  0  0  0  0  0  0  0  0  0  0  0
   -0.2711  -18.6199  -39.7972 C   0  0  0  0  0  0  0  0  0  0  0  0
   -1.4160  -17.8448  -39.5957 C   0  0  0  0  0  0  0  0  0  0  0  0
   -2.5957  -18.0663  -40.2718 C   0  0  0  0  0  0  0  0  0  0  0  0
   -2.6290  -19.1026  -41.1829 C   0  0  0  0  0  0  0  0  0  0  0  0
   -3.8068  -19.3442  -41.8748 O   0  0  0  0  0  0  0  0  0  0  0  0
   -4.3056  -16.8611  -39.9293 I   0  0  0  0  0  0  0  0  0  0  0  0
    0.9142  -18.2923  -39.0268 C   0  0  0  0  0  0  0  0  0  0  0  0
    0.6645  -18.3877  -37.6167 O   0  0  0  0  0  0  0  0  0  0  0  0
    0.9114  -17.2072  -36.9669 C   0  0  0  0  0  0  0  0  0  0  0  0
    0.8022  -16.9237  -35.7391 O   0  0  0  0  0  0  0  0  0  0  0  0
    1.3501  -16.2651  -37.9863 C   0  0  0  0  0  0  0  0  0  0  0  0
    1.3527  -16.8970  -39.1928 C   0  0  0  0  0  0  0  0  0  0  0  0
    1.7361  -16.2125  -40.3461 C   0  0  0  0  0  0  0  0  0  0  0  0
    2.1195  -14.8896  -40.2940 C   0  0  0  0  0  0  0  0  0  0  0  0
    2.1158  -14.2459  -39.0593 C   0  0  0  0  0  0  0  0  0  0  0  0
    1.7397  -14.9161  -37.9231 C   0  0  0  0  0  0  0  0  0  0  0  0
    1.7402  -14.1054  -36.4029 Cl  0  0  0  0  0  0  0  0  0  0  0  0
    2.5898  -12.5755  -38.9253 Cl  0  0  0  0  0  0  0  0  0  0  0  0
    2.5950  -14.0629  -41.7593 Cl  0  0  0  0  0  0  0  0  0  0  0  0
    1.7169  -17.0769  -41.8472 Cl  0  0  0  0  0  0  0  0  0  0  0  0
    2.0530  -19.1966  -39.3426 C   0  0  0  0  0  0  0  0  0  0  0  0
    1.9774  -20.2024  -40.2440 C   0  0  0  0  0  0  0  0  0  0  0  0
    3.1199  -20.9748  -40.4435 C   0  0  0  0  0  0  0  0  0  0  0  0
    4.2991  -20.7538  -39.7686 C   0  0  0  0  0  0  0  0  0  0  0  0
    4.3393  -19.7185  -38.8563 C   0  0  0  0  0  0  0  0  0  0  0  0
    3.2338  -18.9390  -38.6340 C   0  0  0  0  0  0  0  0  0  0  0  0
    6.1294  -19.3552  -37.8072 I   0  0  0  0  0  0  0  0  0  0  0  0
    5.4235  -21.5132  -39.9650 O   0  0  0  0  0  0  0  0  0  0  0  0
    3.0156  -22.5382  -41.8398 I   0  0  0  0  0  0  0  0  0  0  0  0
    0.8094  -20.4536  -40.9408 O   0  0  0  0  0  0  0  0  0  0  0  0
  1  2  1  0  0  0
  2  3  2  0  0  0
  2  7  1  0  0  0
  3  4  1  0  0  0
  3 33  1  0  0  0
  4  5  2  0  0  0
  4 10  1  0  0  0
  5  6  1  0  0  0
  6  7  2  0  0  0
  6  9  1  0  0  0
  7  8  1  0  0  0
 10 11  1  0  0  0
 10 15  1  0  0  0
 10 24  1  0  0  0
 11 12  1  0  0  0
 12 13  2  0  0  0
 12 14  1  0  0  0
 14 15  2  0  0  0
 14 19  1  0  0  0
 15 16  1  0  0  0
 16 17  2  0  0  0
 16 23  1  0  0  0
 17 18  1  0  0  0
 17 22  1  0  0  0
 18 19  2  0  0  0
 18 21  1  0  0  0
 19 20  1  0  0  0
 24 25  2  0  0  0
 24 29  1  0  0  0
 25 26  1  0  0  0
 25 33  1  0  0  0
 26 27  2  0  0  0
 26 32  1  0  0  0
 27 28  1  0  0  0
 27 31  1  0  0  0
 28 29  2  0  0  0
 28 30  1  0  0  0
M  CHG 1   8  -1
M  CHG 1  31  -1
M  END
> <minimizedAffinity>
-6.54061

$$$$
979


 29 33  0  0  0  0  0  0  0  0999 V2000
   -1.5451  -21.4466  -42.6681 I   0  0  0  0  0  0  0  0  0  0  0  0
   -1.5366  -19.8815  -41.2396 C   0  0  0  0  0  0  0  0  0  0  0  0
   -0.3187  -19.6528  -40.5769 C   0  0  0  0  0  0  0  0  0  0  0  0
   -0.2870  -18.6540  -39.6559 C   0  0  0  0  0  0  0  0  0  0  0  0
   -1.4535  -17.9075  -39.4108 C   0  0  0  0  0  0  0  0  0  0  0  0
   -2.6401  -18.1319  -40.0586 C   0  0  0  0  0  0  0  0  0  0  0  0
   -2.6715  -19.1439  -40.9926 C   0  0  0  0  0  0  0  0  0  0  0  0
   -3.8567  -19.3989  -41.6671 O   0  0  0  0  0  0  0  0  0  0  0  0
   -4.3609  -16.9669  -39.6408 I   0  0  0  0  0  0  0  0  0  0  0  0
    0.9373  -18.3379  -38.9105 C   0  0  0  0  0  0  0  0  0  0  0  0
    0.7145  -18.3291  -37.5135 O   0  0  0  0  0  0  0  0  0  0  0  0
    0.9749  -17.1079  -36.9497 C   0  0  0  0  0  0  0  0  0  0  0  0
    0.8814  -16.7579  -35.7432 O   0  0  0  0  0  0  0  0  0  0  0  0
    1.4026  -16.2230  -38.0244 C   0  0  0  0  0  0  0  0  0  0  0  0
    1.3828  -16.9354  -39.1794 C   0  0  0  0  0  0  0  0  0  0  0  0
    1.7592  -16.2903  -40.3634 C   0  0  0  0  0  0  0  0  0  0  0  0
    2.1367  -14.9675  -40.3420 C   0  0  0  0  0  0  0  0  0  0  0  0
    2.1563  -14.2416  -39.1700 C   0  0  0  0  0  0  0  0  0  0  0  0
    1.7897  -14.8645  -38.0016 C   0  0  0  0  0  0  0  0  0  0  0  0
    2.0767  -19.1994  -39.2699 C   0  0  0  0  0  0  0  0  0  0  0  0
    1.9817  -20.1786  -40.1978 C   0  0  0  0  0  0  0  0  0  0  0  0
    3.0996  -20.9550  -40.4857 C   0  0  0  0  0  0  0  0  0  0  0  0
    4.2856  -20.7361  -39.8434 C   0  0  0  0  0  0  0  0  0  0  0  0
    4.4184  -19.7484  -38.8953 C   0  0  0  0  0  0  0  0  0  0  0  0
    3.3055  -18.9994  -38.6286 C   0  0  0  0  0  0  0  0  0  0  0  0
    6.2565  -19.4144  -37.9047 I   0  0  0  0  0  0  0  0  0  0  0  0
    5.3865  -21.5252  -40.1513 O   0  0  0  0  0  0  0  0  0  0  0  0
    2.9407  -22.4922  -41.9458 I   0  0  0  0  0  0  0  0  0  0  0  0
    0.7877  -20.4474  -40.8867 O   0  0  0  0  0  0  0  0  0  0  0  0
  1  2  1  0  0  0
  2  3  2  0  0  0
  2  7  1  0  0  0
  3  4  1  0  0  0
  3 29  1  0  0  0
  4  5  2  0  0  0
  4 10  1  0  0  0
  5  6  1  0  0  0
  6  7  2  0  0  0
  6  9  1  0  0  0
  7  8  1  0  0  0
 10 11  1  0  0  0
 10 15  1  0  0  0
 10 20  1  0  0  0
 11 12  1  0  0  0
 12 13  2  0  0  0
 12 14  1  0  0  0
 14 15  2  0  0  0
 14 19  1  0  0  0
 15 16  1  0  0  0
 16 17  2  0  0  0
 17 18  1  0  0  0
 18 19  2  0  0  0
 20 21  2  0  0  0
 20 25  1  0  0  0
 21 22  1  0  0  0
 21 29  1  0  0  0
 22 23  2  0  0  0
 22 28  1  0  0  0
 23 24  1  0  0  0
 23 27  1  0  0  0
 24 25  2  0  0  0
 24 26  1  0  0  0
M  CHG 1   8  -1
M  CHG 1  27  -1
M  END
> <minimizedAffinity>
-6.13244

$$$$
980


 27 30  0  0  0  0  0  0  0  0999 V2000
    3.9987  -17.0224  -43.9034 I   0  0  0  0  0  0  0  0  0  0  0  0
    2.7444  -16.5850  -42.2679 C   0  0  0  0  0  0  0  0  0  0  0  0
    2.7715  -17.3134  -41.0953 C   0  0  0  0  0  0  0  0  0  0  0  0
    1.9524  -17.0310  -40.0232 C   0  0  0  0  0  0  0  0  0  0  0  0
    1.0758  -15.9696  -40.1519 C   0  0  0  0  0  0  0  0  0  0  0  0
    1.0413  -15.2325  -41.3261 C   0  0  0  0  0  0  0  0  0  0  0  0
    1.8701  -15.5249  -42.4021 C   0  0  0  0  0  0  0  0  0  0  0  0
    1.7943  -14.7516  -43.5577 O   0  0  0  0  0  0  0  0  0  0  0  0
    1.9655  -17.7464  -38.8431 C   0  0  0  0  0  0  0  0  0  0  0  0
    2.8727  -18.8003  -38.7854 C   0  0  0  0  0  0  0  0  0  0  0  0
    3.7228  -19.0677  -39.9421 C   0  0  0  0  0  0  0  0  0  0  0  0
    4.6014  -20.1241  -39.8239 C   0  0  0  0  0  0  0  0  0  0  0  0
    4.6926  -20.9011  -38.6889 C   0  0  0  0  0  0  0  0  0  0  0  0
    5.5062  -21.8677  -38.5996 O   0  0  0  0  0  0  0  0  0  0  0  0
    3.8886  -20.6491  -37.5945 C   0  0  0  0  0  0  0  0  0  0  0  0
    2.9982  -19.5973  -37.6809 C   0  0  0  0  0  0  0  0  0  0  0  0
    5.8672  -20.5863  -41.4370 I   0  0  0  0  0  0  0  0  0  0  0  0
    3.6132  -18.3116  -41.0068 O   0  0  0  0  0  0  0  0  0  0  0  0
    1.1001  -17.4506  -37.7065 C   0  0  0  0  0  0  0  0  0  0  0  0
   -0.1358  -18.0858  -37.6326 C   0  0  0  0  0  0  0  0  0  0  0  0
   -0.9821  -17.8405  -36.5838 C   0  0  0  0  0  0  0  0  0  0  0  0
   -0.6047  -16.9565  -35.5971 C   0  0  0  0  0  0  0  0  0  0  0  0
    0.6133  -16.3154  -35.6464 C   0  0  0  0  0  0  0  0  0  0  0  0
    1.4484  -16.5775  -36.7095 C   0  0  0  0  0  0  0  0  0  0  0  0
   -0.5462  -19.0245  -38.6728 C   0  0  0  0  0  0  0  0  0  0  0  0
   -1.1621  -18.6709  -39.7027 O   0  0  0  0  0  0  0  0  0  0  0  0
   -0.2627  -20.3775  -38.5533 O   0  0  0  0  0  0  0  0  0  0  0  0
  1  2  1  0  0  0
  2  3  2  0  0  0
  2  7  1  0  0  0
  3  4  1  0  0  0
  3 18  1  0  0  0
  4  5  2  0  0  0
  4  9  1  0  0  0
  5  6  1  0  0  0
  6  7  2  0  0  0
  7  8  1  0  0  0
  9 10  2  0  0  0
  9 19  1  0  0  0
 10 11  1  0  0  0
 10 16  1  0  0  0
 11 12  2  0  0  0
 11 18  1  0  0  0
 12 13  1  0  0  0
 12 17  1  0  0  0
 13 14  2  0  0  0
 13 15  1  0  0  0
 15 16  2  0  0  0
 19 20  2  0  0  0
 19 24  1  0  0  0
 20 21  1  0  0  0
 20 25  1  0  0  0
 21 22  2  0  0  0
 22 23  1  0  0  0
 23 24  2  0  0  0
 25 26  2  0  0  0
 25 27  1  0  0  0
M  CHG 1   8  -1
M  END
> <minimizedAffinity>
-6.35977

$$$$
983


 34 37  0  0  0  0  0  0  0  0999 V2000
    2.9354  -20.0297  -40.4738 C   0  0  0  0  0  0  0  0  0  0  0  0
    2.6347  -21.1975  -41.1878 C   0  0  0  0  0  0  0  0  0  0  0  0
    1.2767  -21.1339  -41.4087 C   0  0  0  0  0  0  0  0  0  0  0  0
    0.8074  -20.0038  -40.8616 N   0  0  0  0  0  0  0  0  0  0  0  0
    1.8065  -19.2818  -40.2683 C   0  0  0  0  0  0  0  0  0  0  0  0
    0.6672  -22.1725  -42.1078 C   0  0  0  0  0  0  0  0  0  0  0  0
    1.4257  -23.2194  -42.5544 C   0  0  0  0  0  0  0  0  0  0  0  0
    2.8046  -23.2891  -42.3323 C   0  0  0  0  0  0  0  0  0  0  0  0
    3.4128  -22.2441  -41.6300 C   0  0  0  0  0  0  0  0  0  0  0  0
    3.8019  -24.7703  -42.9781 Br  0  0  0  0  0  0  0  0  0  0  0  0
   -1.1987  -22.1123  -42.4263 Br  0  0  0  0  0  0  0  0  0  0  0  0
   -0.2046  -19.6911  -40.8762 H   0  0  0  0  0  0  0  0  0  0  0  0
    1.6384  -17.9864  -39.6201 C   0  0  0  0  0  0  0  0  0  0  0  0
    2.0753  -16.8228  -40.1749 N   0  0  0  0  0  0  0  0  0  0  0  0
    1.8110  -15.7829  -39.3685 C   0  0  0  0  0  0  0  0  0  0  0  0
    1.1794  -16.2462  -38.2353 C   0  0  0  0  0  0  0  0  0  0  0  0
    1.0905  -17.6295  -38.4281 C   0  0  0  0  0  0  0  0  0  0  0  0
    0.7812  -15.4035  -37.2177 C   0  0  0  0  0  0  0  0  0  0  0  0
    1.0100  -14.0392  -37.3058 C   0  0  0  0  0  0  0  0  0  0  0  0
    1.6441  -13.5574  -38.4398 C   0  0  0  0  0  0  0  0  0  0  0  0
    2.0343  -14.4155  -39.4469 C   0  0  0  0  0  0  0  0  0  0  0  0
    2.9024  -13.6859  -40.9797 Br  0  0  0  0  0  0  0  0  0  0  0  0
    0.4667  -12.8495  -35.9044 Br  0  0  0  0  0  0  0  0  0  0  0  0
    2.5525  -16.7170  -41.0972 H   0  0  0  0  0  0  0  0  0  0  0  0
    0.5156  -18.4706  -37.4927 O   0  0  0  0  0  0  0  0  0  0  0  0
   -0.9002  -19.3641  -37.8165 S   0  0  0  0  0  0  0  0  0  0  0  0
   -1.8082  -19.3826  -36.6215 O   0  0  0  0  0  0  0  0  0  0  0  0
   -0.5893  -20.7918  -38.1658 O   0  0  0  0  0  0  0  0  0  0  0  0
   -1.6853  -18.7054  -39.1697 O   0  0  0  0  0  0  0  0  0  0  0  0
    4.2233  -19.7187  -40.0521 O   0  0  0  0  0  0  0  0  0  0  0  0
    4.7712  -20.1432  -38.4862 S   0  0  0  0  0  0  0  0  0  0  0  0
    6.2412  -19.8290  -38.4456 O   0  0  0  0  0  0  0  0  0  0  0  0
    4.0653  -19.3300  -37.4294 O   0  0  0  0  0  0  0  0  0  0  0  0
    4.5873  -21.7904  -38.2044 O   0  0  0  0  0  0  0  0  0  0  0  0
 31 32  2  0  0  0
 31 33  2  0  0  0
 31 34  1  0  0  0
 31 30  1  0  0  0
 30  1  1  0  0  0
  1  2  1  0  0  0
  1  5  2  0  0  0
  2  3  2  0  0  0
  2  9  1  0  0  0
  3  4  1  0  0  0
  3  6  1  0  0  0
  4  5  1  0  0  0
  5 13  1  0  0  0
 13 14  1  0  0  0
 13 17  2  0  0  0
 14 15  1  0  0  0
 15 16  2  0  0  0
 15 21  1  0  0  0
 16 17  1  0  0  0
 16 18  1  0  0  0
 17 25  1  0  0  0
 25 26  1  0  0  0
 26 27  2  0  0  0
 26 28  2  0  0  0
 26 29  1  0  0  0
 18 19  2  0  0  0
 19 20  1  0  0  0
 19 23  1  0  0  0
 20 21  2  0  0  0
 21 22  1  0  0  0
  6  7  2  0  0  0
  6 11  1  0  0  0
  7  8  1  0  0  0
  8  9  2  0  0  0
  8 10  1  0  0  0
  4 12  1  0  0  0
 14 24  1  0  0  0
M  END
> <minimizedAffinity>
-6.23685

$$$$
985


 28 31  0  0  0  0  0  0  0  0999 V2000
    2.1950  -18.8046  -39.0980 N   0  0  0  0  0  0  0  0  0  0  0  0
    3.4235  -19.3282  -39.0101 C   0  0  0  0  0  0  0  0  0  0  0  0
    4.5551  -18.8894  -38.3939 N   0  0  0  0  0  0  0  0  0  0  0  0
    5.7040  -19.5591  -38.4155 C   0  0  0  0  0  0  0  0  0  0  0  0
    5.7525  -20.7280  -39.0798 N   0  0  0  0  0  0  0  0  0  0  0  0
    4.6678  -21.2214  -39.7120 C   0  0  0  0  0  0  0  0  0  0  0  0
    3.4752  -20.5286  -39.6909 C   0  0  0  0  0  0  0  0  0  0  0  0
    2.2468  -20.7195  -40.1938 N   0  0  0  0  0  0  0  0  0  0  0  0
    1.4724  -19.6699  -39.8316 C   0  0  0  0  0  0  0  0  0  0  0  0
   -0.3742  -19.4247  -40.2790 Br  0  0  0  0  0  0  0  0  0  0  0  0
    4.7130  -22.4305  -40.3998 O   0  0  0  0  0  0  0  0  0  0  0  0
    6.8627  -19.0575  -37.7550 N   0  0  0  0  0  0  0  0  0  0  0  0
    5.1826  -23.2078  -39.9116 H   0  0  0  0  0  0  0  0  0  0  0  0
    7.5603  -18.5613  -38.3502 H   0  0  0  0  0  0  0  0  0  0  0  0
    7.0183  -19.1755  -36.7225 H   0  0  0  0  0  0  0  0  0  0  0  0
    0.3798  -13.8892  -36.9249 P   0  0  0  0  0  0  0  0  0  0  0  0
    1.5684  -13.7886  -35.9946 O   0  0  0  0  0  0  0  0  0  0  0  0
    0.8560  -14.4400  -38.4685 O   0  0  0  0  0  0  0  0  0  0  0  0
    0.3439  -15.7286  -38.5984 C   0  0  0  0  0  0  0  0  0  0  0  0
    0.5334  -16.3944  -37.2299 C   0  0  0  0  0  0  0  0  0  0  0  0
    0.7695  -17.6993  -37.5860 O   0  0  0  0  0  0  0  0  0  0  0  0
    1.8207  -17.5514  -38.4905 C   0  0  0  0  0  0  0  0  0  0  0  0
    1.1935  -16.5954  -39.5035 C   0  0  0  0  0  0  0  0  0  0  0  0
    2.1305  -15.8877  -40.2134 O   0  0  0  0  0  0  0  0  0  0  0  0
   -0.6930  -16.1640  -36.4300 C   0  0  0  0  0  0  0  0  0  0  0  0
   -0.8772  -14.7839  -36.2935 O   0  0  0  0  0  0  0  0  0  0  0  0
   -0.1722  -12.2862  -37.1585 O   0  0  0  0  0  0  0  0  0  0  0  0
    1.8828  -15.8766  -41.1919 H   0  0  0  0  0  0  0  0  0  0  0  0
 16 17  2  0  0  0
 16 18  1  0  0  0
 16 26  1  0  0  0
 16 27  1  0  0  0
 18 19  1  0  0  0
 19 20  1  0  0  0
 19 23  1  0  0  0
 20 21  1  0  0  0
 20 25  1  0  0  0
 21 22  1  0  0  0
 22 23  1  0  0  0
 22  1  1  0  0  0
 23 24  1  0  0  0
  1  2  1  0  0  0
  1  9  1  0  0  0
  2  3  2  0  0  0
  2  7  1  0  0  0
  3  4  1  0  0  0
  4  5  2  0  0  0
  4 12  1  0  0  0
  5  6  1  0  0  0
  6  7  2  0  0  0
  6 11  1  0  0  0
  7  8  1  0  0  0
  8  9  2  0  0  0
  9 10  1  0  0  0
 25 26  1  0  0  0
 24 28  1  0  0  0
 11 13  1  0  0  0
 12 14  1  0  0  0
 12 15  1  0  0  0
M  END
> <minimizedAffinity>
-6.09186

$$$$
991


 34 39  0  0  0  0  0  0  0  0999 V2000
   -0.0071  -18.3992  -37.9739 N   0  0  0  0  0  0  0  0  0  0  0  0
    0.1723  -17.0572  -37.8878 C   0  0  0  0  0  0  0  0  0  0  0  0
   -1.0261  -16.4216  -37.6415 C   0  0  0  0  0  0  0  0  0  0  0  0
   -1.9432  -17.4096  -37.5791 N   0  0  0  0  0  0  0  0  0  0  0  0
   -1.3239  -18.5907  -37.7803 C   0  0  0  0  0  0  0  0  0  0  0  0
   -2.1267  -20.3266  -37.8005 Br  0  0  0  0  0  0  0  0  0  0  0  0
   -1.0549  -15.0468  -37.5198 C   0  0  0  0  0  0  0  0  0  0  0  0
   -2.1364  -14.4597  -37.2959 O   0  0  0  0  0  0  0  0  0  0  0  0
    0.0602  -14.2896  -37.6329 N   0  0  0  0  0  0  0  0  0  0  0  0
    1.2185  -14.9303  -37.8735 C   0  0  0  0  0  0  0  0  0  0  0  0
    2.1587  -13.9710  -37.9418 N   0  0  0  0  0  0  0  0  0  0  0  0
    1.6368  -12.7458  -37.7527 C   0  0  0  0  0  0  0  0  0  0  0  0
    0.2873  -12.9495  -37.5546 C   0  0  0  0  0  0  0  0  0  0  0  0
    1.2677  -16.2871  -37.9973 N   0  0  0  0  0  0  0  0  0  0  0  0
    2.1700  -16.7800  -38.1836 H   0  0  0  0  0  0  0  0  0  0  0  0
    4.9193  -20.9640  -39.6891 P   0  0  0  0  0  0  0  0  0  0  0  0
    5.9885  -21.2383  -41.0301 S   0  0  0  0  0  0  0  0  0  0  0  0
    3.3535  -20.7368  -40.3078 O   0  0  0  0  0  0  0  0  0  0  0  0
    2.8374  -19.6087  -39.6767 C   0  0  0  0  0  0  0  0  0  0  0  0
    3.2155  -19.7418  -38.1996 C   0  0  0  0  0  0  0  0  0  0  0  0
    2.1821  -19.1404  -37.5358 O   0  0  0  0  0  0  0  0  0  0  0  0
    1.0038  -19.4237  -38.2232 C   0  0  0  0  0  0  0  0  0  0  0  0
    1.3389  -19.5693  -39.6672 C   0  0  0  0  0  0  0  0  0  0  0  0
    0.8132  -20.7564  -40.1937 O   0  0  0  0  0  0  0  0  0  0  0  0
    4.5419  -19.0386  -38.0373 C   0  0  0  0  0  0  0  0  0  0  0  0
    5.4747  -19.5828  -38.8909 O   0  0  0  0  0  0  0  0  0  0  0  0
    4.9714  -22.2455  -38.5890 O   0  0  0  0  0  0  0  0  0  0  0  0
    1.2527  -21.5494  -39.8247 H   0  0  0  0  0  0  0  0  0  0  0  0
    2.3467  -11.4598  -37.7567 C   0  0  0  0  0  0  0  0  0  0  0  0
    3.6270  -11.3723  -37.2586 C   0  0  0  0  0  0  0  0  0  0  0  0
    4.3241  -10.1707  -37.2492 C   0  0  0  0  0  0  0  0  0  0  0  0
    3.7112   -9.0461  -37.7525 C   0  0  0  0  0  0  0  0  0  0  0  0
    2.4231   -9.0914  -38.2627 C   0  0  0  0  0  0  0  0  0  0  0  0
    1.7797  -10.3098  -38.2472 C   0  0  0  0  0  0  0  0  0  0  0  0
 16 17  2  0  0  0
 16 18  1  0  0  0
 16 26  1  0  0  0
 16 27  1  0  0  0
 18 19  1  0  0  0
 19 20  1  0  0  0
 19 23  1  0  0  0
 20 21  1  0  0  0
 20 25  1  0  0  0
 21 22  1  0  0  0
 22 23  1  0  0  0
 22  1  1  0  0  0
 23 24  1  0  0  0
  1  2  1  0  0  0
  1  5  1  0  0  0
  2  3  2  0  0  0
  2 14  1  0  0  0
  3  4  1  0  0  0
  3  7  1  0  0  0
  4  5  2  0  0  0
  5  6  1  0  0  0
  7  8  2  0  0  0
  7  9  1  0  0  0
  9 10  1  0  0  0
  9 13  1  0  0  0
 10 11  2  0  0  0
 10 14  1  0  0  0
 11 12  1  0  0  0
 12 13  2  0  0  0
 12 29  1  0  0  0
 29 30  2  0  0  0
 29 34  1  0  0  0
 30 31  1  0  0  0
 31 32  2  0  0  0
 32 33  1  0  0  0
 33 34  2  0  0  0
 25 26  1  0  0  0
 24 28  1  0  0  0
 14 15  1  0  0  0
M  END
> <minimizedAffinity>
-6.83307

$$$$
993


 26 29  0  0  0  0  0  0  0  0999 V2000
    0.6615  -14.8025  -37.0288 P   0  0  0  0  0  0  0  0  0  0  0  0
    0.6553  -13.9947  -38.5759 S   0  0  0  0  0  0  0  0  0  0  0  0
    1.9796  -15.8850  -36.9511 O   0  0  0  0  0  0  0  0  0  0  0  0
    1.6743  -16.9415  -37.7732 C   0  0  0  0  0  0  0  0  0  0  0  0
    0.4217  -17.6406  -37.2280 C   0  0  0  0  0  0  0  0  0  0  0  0
    0.4786  -18.8359  -37.9426 O   0  0  0  0  0  0  0  0  0  0  0  0
    1.7719  -19.2846  -37.8176 C   0  0  0  0  0  0  0  0  0  0  0  0
    2.6697  -18.0821  -37.6710 C   0  0  0  0  0  0  0  0  0  0  0  0
    3.1413  -18.0815  -36.3512 O   0  0  0  0  0  0  0  0  0  0  0  0
   -0.8131  -16.8444  -37.5137 C   0  0  0  0  0  0  0  0  0  0  0  0
   -0.7493  -15.6653  -36.7933 O   0  0  0  0  0  0  0  0  0  0  0  0
    0.8683  -13.6469  -35.8414 O   0  0  0  0  0  0  0  0  0  0  0  0
    4.1119  -18.0127  -36.2905 H   0  0  0  0  0  0  0  0  0  0  0  0
    2.2268  -20.0277  -38.9774 N   0  0  0  0  0  0  0  0  0  0  0  0
    3.4636  -20.5738  -39.0936 C   0  0  0  0  0  0  0  0  0  0  0  0
    4.5329  -20.5901  -38.2569 N   0  0  0  0  0  0  0  0  0  0  0  0
    5.6778  -21.2109  -38.6022 C   0  0  0  0  0  0  0  0  0  0  0  0
    5.7704  -21.8315  -39.8039 N   0  0  0  0  0  0  0  0  0  0  0  0
    4.7335  -21.8373  -40.6602 C   0  0  0  0  0  0  0  0  0  0  0  0
    3.5526  -21.2043  -40.3178 C   0  0  0  0  0  0  0  0  0  0  0  0
    2.3716  -21.0399  -40.9408 N   0  0  0  0  0  0  0  0  0  0  0  0
    1.5766  -20.3238  -40.1153 C   0  0  0  0  0  0  0  0  0  0  0  0
   -0.2316  -19.7675  -40.4427 Br  0  0  0  0  0  0  0  0  0  0  0  0
    4.8470  -22.4974  -41.9251 N   0  0  0  0  0  0  0  0  0  0  0  0
    5.5795  -23.2512  -42.0340 H   0  0  0  0  0  0  0  0  0  0  0  0
    4.2387  -22.2632  -42.7342 H   0  0  0  0  0  0  0  0  0  0  0  0
  1  2  2  0  0  0
  1  3  1  0  0  0
  1 11  1  0  0  0
  1 12  1  0  0  0
  3  4  1  0  0  0
  4  5  1  0  0  0
  4  8  1  0  0  0
  5  6  1  0  0  0
  5 10  1  0  0  0
  6  7  1  0  0  0
  7  8  1  0  0  0
  7 14  1  0  0  0
  8  9  1  0  0  0
 14 15  1  0  0  0
 14 22  1  0  0  0
 15 16  2  0  0  0
 15 20  1  0  0  0
 16 17  1  0  0  0
 17 18  2  0  0  0
 18 19  1  0  0  0
 19 20  2  0  0  0
 19 24  1  0  0  0
 20 21  1  0  0  0
 21 22  2  0  0  0
 22 23  1  0  0  0
 10 11  1  0  0  0
  9 13  1  0  0  0
 24 25  1  0  0  0
 24 26  1  0  0  0
M  END
> <minimizedAffinity>
-5.85319

$$$$
999


 35 38  0  0  0  0  0  0  0  0999 V2000
   -0.6074  -17.6054  -38.7902 N   0  0  0  0  0  0  0  0  0  0  0  0
   -1.6088  -16.9750  -38.0111 C   0  0  0  0  0  0  0  0  0  0  0  0
   -2.7105  -17.5680  -37.8625 O   0  0  0  0  0  0  0  0  0  0  0  0
    0.3031  -17.0915  -38.9002 H   0  0  0  0  0  0  0  0  0  0  0  0
    0.9992  -18.4594  -41.4814 S   0  0  0  0  0  0  0  0  0  0  0  0
    0.1251  -19.4626  -40.2822 C   0  0  0  0  0  0  0  0  0  0  0  0
    0.9510  -19.6004  -39.1249 N   0  0  0  0  0  0  0  0  0  0  0  0
    2.3597  -19.3956  -38.9848 C   0  0  0  0  0  0  0  0  0  0  0  0
    3.1044  -19.3020  -40.0410 C   0  0  0  0  0  0  0  0  0  0  0  0
    2.5706  -19.3976  -41.4776 C   0  0  0  0  0  0  0  0  0  0  0  0
   -0.2611  -19.9356  -38.4721 C   0  0  0  0  0  0  0  0  0  0  0  0
   -0.7730  -20.6591  -37.6101 O   0  0  0  0  0  0  0  0  0  0  0  0
   -0.8752  -18.8790  -39.3757 C   0  0  0  0  0  0  0  0  0  0  0  0
    2.8665  -19.3107  -37.5839 C   0  0  0  0  0  0  0  0  0  0  0  0
    3.2377  -20.2330  -36.8905 O   0  0  0  0  0  0  0  0  0  0  0  0
    2.9351  -18.0459  -36.9701 O   0  0  0  0  0  0  0  0  0  0  0  0
    4.5293  -19.0903  -40.0575 C   0  0  0  0  0  0  0  0  0  0  0  0
    5.4349  -20.0966  -40.0086 O   0  0  0  0  0  0  0  0  0  0  0  0
    6.0459  -20.5272  -38.8249 C   0  0  0  0  0  0  0  0  0  0  0  0
    6.0677  -21.7537  -38.6124 O   0  0  0  0  0  0  0  0  0  0  0  0
    6.6137  -19.4973  -37.9229 C   0  0  0  0  0  0  0  0  0  0  0  0
   -1.3986  -15.6677  -37.3815 C   0  0  0  0  0  0  0  0  0  0  0  0
   -0.3010  -15.1239  -36.9576 O   0  0  0  0  0  0  0  0  0  0  0  0
   -0.4943  -13.9487  -36.4527 C   0  0  0  0  0  0  0  0  0  0  0  0
   -1.8639  -13.6762  -36.5463 C   0  0  0  0  0  0  0  0  0  0  0  0
   -2.4208  -14.7782  -37.1374 C   0  0  0  0  0  0  0  0  0  0  0  0
    0.5241  -13.0060  -35.8609 C   0  0  0  0  0  0  0  0  0  0  0  0
    1.8250  -13.3737  -36.2407 O   0  0  0  0  0  0  0  0  0  0  0  0
    2.5400  -12.8472  -37.2781 C   0  0  0  0  0  0  0  0  0  0  0  0
    3.4103  -11.7662  -37.1689 C   0  0  0  0  0  0  0  0  0  0  0  0
    4.0838  -11.3172  -38.2828 C   0  0  0  0  0  0  0  0  0  0  0  0
    3.9476  -11.8827  -39.5291 C   0  0  0  0  0  0  0  0  0  0  0  0
    3.0843  -12.9586  -39.6468 C   0  0  0  0  0  0  0  0  0  0  0  0
    2.4022  -13.4170  -38.5273 C   0  0  0  0  0  0  0  0  0  0  0  0
    4.9080  -11.2174  -41.0369 Br  0  0  0  0  0  0  0  0  0  0  0  0
  5  6  1  0  0  0
  5 10  1  0  0  0
  6  7  1  0  0  0
  6 13  1  0  0  0
  7  8  1  0  0  0
  7 11  1  0  0  0
  8  9  2  0  0  0
  8 14  1  0  0  0
  9 10  1  0  0  0
  9 17  1  0  0  0
 17 18  1  0  0  0
 18 19  1  0  0  0
 19 20  2  0  0  0
 19 21  1  0  0  0
 14 15  2  0  0  0
 14 16  1  0  0  0
 11 12  2  0  0  0
 11 13  1  0  0  0
 13  1  1  0  0  0
  1  2  1  0  0  0
  2  3  2  0  0  0
  2 22  1  0  0  0
 22 23  1  0  0  0
 22 26  2  0  0  0
 23 24  1  0  0  0
 24 25  2  0  0  0
 24 27  1  0  0  0
 25 26  1  0  0  0
 27 28  1  0  0  0
 28 29  1  0  0  0
 29 30  2  0  0  0
 29 34  1  0  0  0
 30 31  1  0  0  0
 31 32  2  0  0  0
 32 33  1  0  0  0
 32 35  1  0  0  0
 33 34  2  0  0  0
  1  4  1  0  0  0
M  END
> <minimizedAffinity>
-6.46027

$$$$
1001


 26 29  0  0  0  0  0  0  0  0999 V2000
   -2.6259  -18.2219  -37.0159 P   0  0  0  0  0  0  0  0  0  0  0  0
   -3.1772  -18.0781  -35.5961 O   0  0  0  0  0  0  0  0  0  0  0  0
   -1.8125  -19.6880  -37.0955 O   0  0  0  0  0  0  0  0  0  0  0  0
   -0.5849  -19.5603  -37.6922 C   0  0  0  0  0  0  0  0  0  0  0  0
   -0.7298  -18.4719  -38.7645 C   0  0  0  0  0  0  0  0  0  0  0  0
    0.1902  -18.7601  -39.7279 O   0  0  0  0  0  0  0  0  0  0  0  0
    0.4798  -20.0964  -39.7136 C   0  0  0  0  0  0  0  0  0  0  0  0
   -0.1878  -20.7353  -38.5456 C   0  0  0  0  0  0  0  0  0  0  0  0
   -1.2984  -21.4851  -38.8788 O   0  0  0  0  0  0  0  0  0  0  0  0
   -0.5334  -17.1678  -38.0606 C   0  0  0  0  0  0  0  0  0  0  0  0
   -1.6529  -16.8985  -37.3104 O   0  0  0  0  0  0  0  0  0  0  0  0
   -3.9943  -18.2521  -38.0420 O   0  0  0  0  0  0  0  0  0  0  0  0
   -1.5079  -22.1855  -38.2398 H   0  0  0  0  0  0  0  0  0  0  0  0
    1.9298  -20.2363  -39.6799 N   0  0  0  0  0  0  0  0  0  0  0  0
    2.7523  -19.7349  -38.7287 C   0  0  0  0  0  0  0  0  0  0  0  0
    2.4871  -19.0177  -37.6236 N   0  0  0  0  0  0  0  0  0  0  0  0
    3.4987  -18.6340  -36.8281 C   0  0  0  0  0  0  0  0  0  0  0  0
    4.7628  -18.9701  -37.1439 N   0  0  0  0  0  0  0  0  0  0  0  0
    5.1018  -19.6835  -38.2284 C   0  0  0  0  0  0  0  0  0  0  0  0
    4.0487  -20.0784  -39.0498 C   0  0  0  0  0  0  0  0  0  0  0  0
    4.0177  -20.7788  -40.1802 N   0  0  0  0  0  0  0  0  0  0  0  0
    2.7286  -20.8687  -40.5540 C   0  0  0  0  0  0  0  0  0  0  0  0
    2.0409  -21.7662  -42.1164 Br  0  0  0  0  0  0  0  0  0  0  0  0
    6.4318  -20.0445  -38.5717 N   0  0  0  0  0  0  0  0  0  0  0  0
    6.9993  -19.3548  -39.1482 H   0  0  0  0  0  0  0  0  0  0  0  0
    6.8839  -20.9228  -38.3011 H   0  0  0  0  0  0  0  0  0  0  0  0
  1  2  2  0  0  0
  1  3  1  0  0  0
  1 11  1  0  0  0
  1 12  1  0  0  0
  3  4  1  0  0  0
  4  5  1  0  0  0
  4  8  1  0  0  0
  5  6  1  0  0  0
  5 10  1  0  0  0
  6  7  1  0  0  0
  7  8  1  0  0  0
  7 14  1  0  0  0
  8  9  1  0  0  0
 14 15  1  0  0  0
 14 22  1  0  0  0
 15 16  2  0  0  0
 15 20  1  0  0  0
 16 17  1  0  0  0
 17 18  2  0  0  0
 18 19  1  0  0  0
 19 20  2  0  0  0
 19 24  1  0  0  0
 20 21  1  0  0  0
 21 22  2  0  0  0
 22 23  1  0  0  0
 10 11  1  0  0  0
  9 13  1  0  0  0
 24 25  1  0  0  0
 24 26  1  0  0  0
M  END
> <minimizedAffinity>
-5.64526

$$$$
1008


 29 32  0  0  0  0  0  0  0  0999 V2000
    1.7684  -15.0310  -39.4343 C   0  0  0  0  0  0  0  0  0  0  0  0
    2.2510  -15.3686  -40.5431 O   0  0  0  0  0  0  0  0  0  0  0  0
    1.3260  -16.0291  -38.5163 N   0  0  0  0  0  0  0  0  0  0  0  0
    1.4251  -17.4335  -38.8510 C   0  0  0  0  0  0  0  0  0  0  0  0
    1.8534  -18.2857  -37.6972 C   0  0  0  0  0  0  0  0  0  0  0  0
    2.4317  -17.3419  -36.6396 C   0  0  0  0  0  0  0  0  0  0  0  0
    1.2549  -16.5443  -36.1208 C   0  0  0  0  0  0  0  0  0  0  0  0
    0.7702  -15.6601  -37.2407 C   0  0  0  0  0  0  0  0  0  0  0  0
    2.8530  -19.3343  -38.0779 C   0  0  0  0  0  0  0  0  0  0  0  0
    3.5909  -19.3711  -39.2183 N   0  0  0  0  0  0  0  0  0  0  0  0
    4.3797  -20.4495  -39.2243 C   0  0  0  0  0  0  0  0  0  0  0  0
    4.1109  -21.0888  -38.0464 N   0  0  0  0  0  0  0  0  0  0  0  0
    3.2000  -20.4190  -37.3677 N   0  0  0  0  0  0  0  0  0  0  0  0
    5.2119  -20.5360  -40.4600 C   0  0  0  0  0  0  0  0  0  0  0  0
    5.0503  -19.1638  -41.0370 C   0  0  0  0  0  0  0  0  0  0  0  0
    3.7831  -18.5979  -40.4321 C   0  0  0  0  0  0  0  0  0  0  0  0
    2.6727  -11.5957  -38.2449 C   0  0  0  0  0  0  0  0  0  0  0  0
    2.7498  -12.9324  -38.5613 C   0  0  0  0  0  0  0  0  0  0  0  0
    1.6713  -13.6232  -39.1043 C   0  0  0  0  0  0  0  0  0  0  0  0
    0.5056  -12.9215  -39.3193 C   0  0  0  0  0  0  0  0  0  0  0  0
    0.4193  -11.5665  -39.0007 C   0  0  0  0  0  0  0  0  0  0  0  0
    1.4973  -10.8991  -38.4636 C   0  0  0  0  0  0  0  0  0  0  0  0
   -1.0079  -13.7920  -40.0547 Br  0  0  0  0  0  0  0  0  0  0  0  0
    4.0573  -10.7907  -37.5684 S   0  0  0  0  0  0  0  0  0  0  0  0
    5.1672  -10.7795  -38.5992 O   0  0  0  0  0  0  0  0  0  0  0  0
    4.5540  -11.5193  -36.3438 O   0  0  0  0  0  0  0  0  0  0  0  0
    3.6819   -9.1557  -37.2129 N   0  0  0  0  0  0  0  0  0  0  0  0
    3.6068   -8.9893  -36.1803 H   0  0  0  0  0  0  0  0  0  0  0  0
    2.7877   -8.8765  -37.6882 H   0  0  0  0  0  0  0  0  0  0  0  0
 24 25  2  0  0  0
 24 26  2  0  0  0
 24 27  1  0  0  0
 24 17  1  0  0  0
 17 18  2  0  0  0
 17 22  1  0  0  0
 18 19  1  0  0  0
 19 20  2  0  0  0
 19  1  1  0  0  0
 20 21  1  0  0  0
 20 23  1  0  0  0
 21 22  2  0  0  0
  1  2  2  0  0  0
  1  3  1  0  0  0
  3  4  1  0  0  0
  3  8  1  0  0  0
  4  5  1  0  0  0
  5  6  1  0  0  0
  5  9  1  0  0  0
  6  7  1  0  0  0
  7  8  1  0  0  0
  9 10  1  0  0  0
  9 13  2  0  0  0
 10 11  1  0  0  0
 10 16  1  0  0  0
 11 12  2  0  0  0
 11 14  1  0  0  0
 12 13  1  0  0  0
 14 15  1  0  0  0
 15 16  1  0  0  0
 27 28  1  0  0  0
 27 29  1  0  0  0
M  END
> <minimizedAffinity>
-6.81046

$$$$
1011


 29 32  0  0  0  0  0  0  0  0999 V2000
    1.5652  -14.0425  -38.7306 C   0  0  0  0  0  0  0  0  0  0  0  0
    2.4341  -13.2331  -39.4689 C   0  0  0  0  0  0  0  0  0  0  0  0
    3.2299  -12.3026  -38.8373 C   0  0  0  0  0  0  0  0  0  0  0  0
    3.2132  -12.1213  -37.4659 C   0  0  0  0  0  0  0  0  0  0  0  0
    2.3676  -12.9081  -36.7352 C   0  0  0  0  0  0  0  0  0  0  0  0
    1.5567  -13.8553  -37.3696 C   0  0  0  0  0  0  0  0  0  0  0  0
    0.3656  -14.9476  -36.3378 Br  0  0  0  0  0  0  0  0  0  0  0  0
    4.1709  -11.0400  -37.1012 C   0  0  0  0  0  0  0  0  0  0  0  0
    4.3371  -10.3036  -38.4476 C   0  0  0  0  0  0  0  0  0  0  0  0
    4.1854  -11.3878  -39.4047 N   0  0  0  0  0  0  0  0  0  0  0  0
    4.8159  -11.5843  -40.6553 C   0  0  0  0  0  0  0  0  0  0  0  0
    4.6027  -12.5875  -41.3746 O   0  0  0  0  0  0  0  0  0  0  0  0
    5.7722  -10.5600  -41.1381 C   0  0  0  0  0  0  0  0  0  0  0  0
    6.7855  -11.0543  -42.0876 C   0  0  0  0  0  0  0  0  0  0  0  0
    7.1925  -10.5992  -40.7075 C   0  0  0  0  0  0  0  0  0  0  0  0
    0.5739  -15.2154  -39.5552 S   0  0  0  0  0  0  0  0  0  0  0  0
   -0.8930  -14.8116  -39.4605 O   0  0  0  0  0  0  0  0  0  0  0  0
    0.8868  -15.2883  -41.0113 O   0  0  0  0  0  0  0  0  0  0  0  0
    0.6848  -16.7527  -38.7864 N   0  0  0  0  0  0  0  0  0  0  0  0
    0.5905  -16.6072  -37.7622 H   0  0  0  0  0  0  0  0  0  0  0  0
    1.9166  -17.4481  -39.1006 C   0  0  0  0  0  0  0  0  0  0  0  0
    2.3762  -18.1061  -37.8082 C   0  0  0  0  0  0  0  0  0  0  0  0
    2.3547  -19.6064  -37.9307 C   0  0  0  0  0  0  0  0  0  0  0  0
    3.6800  -20.0721  -38.0993 N   0  0  0  0  0  0  0  0  0  0  0  0
    3.9756  -20.7151  -39.3295 C   0  0  0  0  0  0  0  0  0  0  0  0
    5.2174  -21.5694  -39.1380 C   0  0  0  0  0  0  0  0  0  0  0  0
    6.1775  -20.9100  -38.3968 O   0  0  0  0  0  0  0  0  0  0  0  0
    5.9909  -19.5338  -38.3450 C   0  0  0  0  0  0  0  0  0  0  0  0
    4.7155  -19.2886  -37.5336 C   0  0  0  0  0  0  0  0  0  0  0  0
 16 17  2  0  0  0
 16 18  2  0  0  0
 16 19  1  0  0  0
 16  1  1  0  0  0
 19 21  1  0  0  0
 21 22  1  0  0  0
 22 23  1  0  0  0
 23 24  1  0  0  0
 24 25  1  0  0  0
 24 29  1  0  0  0
 25 26  1  0  0  0
 26 27  1  0  0  0
 27 28  1  0  0  0
 28 29  1  0  0  0
  1  2  2  0  0  0
  1  6  1  0  0  0
  2  3  1  0  0  0
  3  4  2  0  0  0
  3 10  1  0  0  0
  4  5  1  0  0  0
  4  8  1  0  0  0
  5  6  2  0  0  0
  6  7  1  0  0  0
  8  9  1  0  0  0
  9 10  1  0  0  0
 10 11  1  0  0  0
 11 12  2  0  0  0
 11 13  1  0  0  0
 13 14  1  0  0  0
 13 15  1  0  0  0
 14 15  1  0  0  0
 19 20  1  0  0  0
M  END
> <minimizedAffinity>
-6.07421

$$$$
1027


 32 35  0  0  0  0  0  0  0  0999 V2000
   -1.2041  -14.9713  -37.6643 S   0  0  0  0  0  0  0  0  0  0  0  0
   -2.2180  -13.9949  -37.0673 O   0  0  0  0  0  0  0  0  0  0  0  0
   -1.8633  -15.4580  -38.9339 O   0  0  0  0  0  0  0  0  0  0  0  0
    0.2150  -14.0319  -38.0379 C   0  0  0  0  0  0  0  0  0  0  0  0
    0.9007  -14.3099  -39.2273 C   0  0  0  0  0  0  0  0  0  0  0  0
    2.0682  -13.6853  -39.6033 C   0  0  0  0  0  0  0  0  0  0  0  0
    2.6264  -12.7246  -38.7881 C   0  0  0  0  0  0  0  0  0  0  0  0
    1.9673  -12.4377  -37.6186 C   0  0  0  0  0  0  0  0  0  0  0  0
    0.7753  -13.0773  -37.2404 C   0  0  0  0  0  0  0  0  0  0  0  0
   -0.1069  -12.5180  -35.6320 Br  0  0  0  0  0  0  0  0  0  0  0  0
    3.8702  -12.1871  -39.3918 C   0  0  0  0  0  0  0  0  0  0  0  0
    3.7167  -12.6200  -40.8506 C   0  0  0  0  0  0  0  0  0  0  0  0
    2.9041  -13.8278  -40.7537 N   0  0  0  0  0  0  0  0  0  0  0  0
    2.9740  -14.9128  -41.6451 C   0  0  0  0  0  0  0  0  0  0  0  0
    3.7773  -14.8365  -42.6388 O   0  0  0  0  0  0  0  0  0  0  0  0
    2.1927  -16.1690  -41.5457 C   0  0  0  0  0  0  0  0  0  0  0  0
   -1.0170  -16.2331  -36.5771 N   0  0  0  0  0  0  0  0  0  0  0  0
    0.1555  -16.3957  -35.8444 C   0  0  0  0  0  0  0  0  0  0  0  0
    1.2272  -17.1638  -36.5164 C   0  0  0  0  0  0  0  0  0  0  0  0
    2.4343  -16.9735  -36.2327 O   0  0  0  0  0  0  0  0  0  0  0  0
    0.8071  -18.1161  -37.4872 N   0  0  0  0  0  0  0  0  0  0  0  0
   -0.5750  -18.4326  -37.5093 C   0  0  0  0  0  0  0  0  0  0  0  0
   -0.9194  -19.5663  -37.9469 O   0  0  0  0  0  0  0  0  0  0  0  0
   -1.6046  -17.4822  -37.0398 C   0  0  0  0  0  0  0  0  0  0  0  0
    1.7669  -18.7176  -38.3881 C   0  0  0  0  0  0  0  0  0  0  0  0
    2.3328  -20.0139  -37.9206 C   0  0  0  0  0  0  0  0  0  0  0  0
    3.7705  -20.1915  -38.1143 C   0  0  0  0  0  0  0  0  0  0  0  0
    4.2977  -21.3253  -38.6671 C   0  0  0  0  0  0  0  0  0  0  0  0
    5.6521  -21.4296  -38.8164 C   0  0  0  0  0  0  0  0  0  0  0  0
    6.5166  -20.4143  -38.4218 C   0  0  0  0  0  0  0  0  0  0  0  0
    5.9651  -19.2899  -37.8716 C   0  0  0  0  0  0  0  0  0  0  0  0
    4.6081  -19.1522  -37.7072 C   0  0  0  0  0  0  0  0  0  0  0  0
  1  2  2  0  0  0
  1  3  2  0  0  0
  1 17  1  0  0  0
  1  4  1  0  0  0
 17 18  1  0  0  0
 17 24  1  0  0  0
 18 19  1  0  0  0
 19 20  2  0  0  0
 19 21  1  0  0  0
 21 22  1  0  0  0
 21 25  1  0  0  0
 22 23  2  0  0  0
 22 24  1  0  0  0
 25 26  1  0  0  0
 26 27  1  0  0  0
 27 28  2  0  0  0
 27 32  1  0  0  0
 28 29  1  0  0  0
 29 30  2  0  0  0
 30 31  1  0  0  0
 31 32  2  0  0  0
  4  5  2  0  0  0
  4  9  1  0  0  0
  5  6  1  0  0  0
  6  7  2  0  0  0
  6 13  1  0  0  0
  7  8  1  0  0  0
  7 11  1  0  0  0
  8  9  2  0  0  0
  9 10  1  0  0  0
 11 12  1  0  0  0
 12 13  1  0  0  0
 13 14  1  0  0  0
 14 15  2  0  0  0
 14 16  1  0  0  0
M  END
> <minimizedAffinity>
-7.12441

$$$$
1028


 25 28  0  0  0  0  0  0  0  0999 V2000
    0.7496  -17.3147  -37.4647 N   0  0  0  0  0  0  0  0  0  0  0  0
    1.0151  -17.9512  -38.7051 C   0  0  0  0  0  0  0  0  0  0  0  0
    2.4736  -17.8587  -38.4781 C   0  0  0  0  0  0  0  0  0  0  0  0
    2.1230  -17.3843  -37.1113 C   0  0  0  0  0  0  0  0  0  0  0  0
    3.2074  -19.1094  -38.4665 N   0  0  0  0  0  0  0  0  0  0  0  0
    3.0991  -20.1081  -37.6295 N   0  0  0  0  0  0  0  0  0  0  0  0
    3.9557  -21.0853  -37.9565 N   0  0  0  0  0  0  0  0  0  0  0  0
    4.6448  -20.7055  -39.0466 C   0  0  0  0  0  0  0  0  0  0  0  0
    4.1555  -19.4446  -39.3571 C   0  0  0  0  0  0  0  0  0  0  0  0
    5.7118  -21.4697  -39.7758 C   0  0  0  0  0  0  0  0  0  0  0  0
    5.2808  -21.6279  -41.1528 N   0  0  0  0  0  0  0  0  0  0  0  0
    4.2424  -22.5030  -41.6074 C   0  0  0  0  0  0  0  0  0  0  0  0
    4.1106  -22.2588  -43.0836 C   0  0  0  0  0  0  0  0  0  0  0  0
    4.9093  -21.0457  -43.4352 C   0  0  0  0  0  0  0  0  0  0  0  0
    5.8385  -20.9243  -42.2584 C   0  0  0  0  0  0  0  0  0  0  0  0
    6.9125  -20.2971  -42.2965 O   0  0  0  0  0  0  0  0  0  0  0  0
    0.0736  -15.7678  -37.4486 S   0  0  0  0  0  0  0  0  0  0  0  0
   -0.5050  -15.5033  -36.0881 O   0  0  0  0  0  0  0  0  0  0  0  0
   -1.0663  -15.6350  -38.4303 O   0  0  0  0  0  0  0  0  0  0  0  0
    1.2387  -14.4838  -37.7637 C   0  0  0  0  0  0  0  0  0  0  0  0
    1.8354  -13.3107  -36.6650 S   0  0  0  0  0  0  0  0  0  0  0  0
    2.8860  -12.4636  -37.7116 C   0  0  0  0  0  0  0  0  0  0  0  0
    2.7342  -13.1323  -38.8986 C   0  0  0  0  0  0  0  0  0  0  0  0
    1.8901  -14.1656  -38.9181 C   0  0  0  0  0  0  0  0  0  0  0  0
    4.0151  -10.9456  -37.3485 Br  0  0  0  0  0  0  0  0  0  0  0  0
 17 18  2  0  0  0
 17 19  2  0  0  0
 17  1  1  0  0  0
 17 20  1  0  0  0
  1  2  1  0  0  0
  1  4  1  0  0  0
  2  3  1  0  0  0
  3  4  1  0  0  0
  3  5  1  0  0  0
  5  6  1  0  0  0
  5  9  1  0  0  0
  6  7  2  0  0  0
  7  8  1  0  0  0
  8  9  2  0  0  0
  8 10  1  0  0  0
 10 11  1  0  0  0
 11 12  1  0  0  0
 11 15  1  0  0  0
 12 13  1  0  0  0
 13 14  1  0  0  0
 14 15  1  0  0  0
 15 16  2  0  0  0
 20 21  1  0  0  0
 20 24  2  0  0  0
 21 22  1  0  0  0
 22 23  2  0  0  0
 22 25  1  0  0  0
 23 24  1  0  0  0
M  END
> <minimizedAffinity>
-5.70638

$$$$
1037


 31 34  0  0  0  0  0  0  0  0999 V2000
   -1.0641  -17.5282  -37.0829 N   0  0  0  0  0  0  0  0  0  0  0  0
   -0.1177  -17.2575  -36.0551 C   0  0  0  0  0  0  0  0  0  0  0  0
    0.7728  -16.1136  -36.2065 C   0  0  0  0  0  0  0  0  0  0  0  0
    0.4572  -15.1239  -37.2179 N   0  0  0  0  0  0  0  0  0  0  0  0
   -0.5284  -15.3911  -38.2199 C   0  0  0  0  0  0  0  0  0  0  0  0
   -1.5814  -16.3800  -37.7346 C   0  0  0  0  0  0  0  0  0  0  0  0
    1.1259  -13.8997  -37.1653 C   0  0  0  0  0  0  0  0  0  0  0  0
    1.8976  -13.8284  -36.0597 O   0  0  0  0  0  0  0  0  0  0  0  0
   -0.7201  -18.8456  -38.0914 S   0  0  0  0  0  0  0  0  0  0  0  0
   -1.6404  -18.8132  -39.2804 O   0  0  0  0  0  0  0  0  0  0  0  0
   -1.0055  -20.1530  -37.3723 O   0  0  0  0  0  0  0  0  0  0  0  0
    0.9081  -18.8551  -38.7362 C   0  0  0  0  0  0  0  0  0  0  0  0
    1.7590  -19.9257  -38.4651 C   0  0  0  0  0  0  0  0  0  0  0  0
    3.0541  -19.9848  -38.9322 C   0  0  0  0  0  0  0  0  0  0  0  0
    3.5728  -18.9681  -39.7021 C   0  0  0  0  0  0  0  0  0  0  0  0
    2.7375  -17.9067  -39.9739 C   0  0  0  0  0  0  0  0  0  0  0  0
    1.4302  -17.8398  -39.5059 C   0  0  0  0  0  0  0  0  0  0  0  0
    4.8967  -19.0184  -40.1819 O   0  0  0  0  0  0  0  0  0  0  0  0
    5.5355  -20.2945  -40.3634 C   0  0  0  0  0  0  0  0  0  0  0  0
    5.2424  -21.0732  -39.1324 C   0  0  0  0  0  0  0  0  0  0  0  0
    6.1246  -21.7150  -38.5180 O   0  0  0  0  0  0  0  0  0  0  0  0
    3.9183  -21.0933  -38.6299 N   0  0  0  0  0  0  0  0  0  0  0  0
    3.5212  -21.8498  -38.0541 H   0  0  0  0  0  0  0  0  0  0  0  0
    1.1637  -12.7425  -38.0115 C   0  0  0  0  0  0  0  0  0  0  0  0
    2.4272  -12.1177  -38.3956 C   0  0  0  0  0  0  0  0  0  0  0  0
    3.1076  -12.5113  -39.5218 C   0  0  0  0  0  0  0  0  0  0  0  0
    4.3096  -11.9025  -39.8809 C   0  0  0  0  0  0  0  0  0  0  0  0
    4.8137  -10.9017  -39.1035 C   0  0  0  0  0  0  0  0  0  0  0  0
    4.1255  -10.4949  -37.9591 C   0  0  0  0  0  0  0  0  0  0  0  0
    2.9551  -11.0909  -37.6116 C   0  0  0  0  0  0  0  0  0  0  0  0
    2.4219  -13.9205  -40.6261 Br  0  0  0  0  0  0  0  0  0  0  0  0
  9 10  2  0  0  0
  9 11  2  0  0  0
  9  1  1  0  0  0
  9 12  1  0  0  0
  1  2  1  0  0  0
  1  6  1  0  0  0
  2  3  1  0  0  0
  3  4  1  0  0  0
  4  5  1  0  0  0
  4  7  1  0  0  0
  5  6  1  0  0  0
  7  8  2  0  0  0
  7 24  1  0  0  0
 24 25  1  0  0  0
 25 26  2  0  0  0
 25 30  1  0  0  0
 26 27  1  0  0  0
 26 31  1  0  0  0
 27 28  2  0  0  0
 28 29  1  0  0  0
 29 30  2  0  0  0
 12 13  2  0  0  0
 12 17  1  0  0  0
 13 14  1  0  0  0
 14 15  2  0  0  0
 14 22  1  0  0  0
 15 16  1  0  0  0
 15 18  1  0  0  0
 16 17  2  0  0  0
 18 19  1  0  0  0
 19 20  1  0  0  0
 20 21  2  0  0  0
 20 22  1  0  0  0
 22 23  1  0  0  0
M  END
> <minimizedAffinity>
-6.94114

$$$$
1040


 34 38  0  0  0  0  0  0  0  0999 V2000
    1.9092  -19.7873  -38.3542 S   0  0  0  0  0  0  0  0  0  0  0  0
    0.5435  -20.3011  -38.1065 O   0  0  0  0  0  0  0  0  0  0  0  0
    2.6571  -20.0082  -37.0344 O   0  0  0  0  0  0  0  0  0  0  0  0
    2.8161  -20.6623  -39.5481 C   0  0  0  0  0  0  0  0  0  0  0  0
    4.1566  -21.0214  -39.3504 C   0  0  0  0  0  0  0  0  0  0  0  0
    4.8723  -21.7148  -40.3056 C   0  0  0  0  0  0  0  0  0  0  0  0
    4.2918  -22.0857  -41.5015 C   0  0  0  0  0  0  0  0  0  0  0  0
    2.9846  -21.7375  -41.7018 C   0  0  0  0  0  0  0  0  0  0  0  0
    2.2752  -21.0388  -40.7305 C   0  0  0  0  0  0  0  0  0  0  0  0
    0.8829  -20.7260  -41.0939 C   0  0  0  0  0  0  0  0  0  0  0  0
    0.1733  -21.9540  -41.6211 C   0  0  0  0  0  0  0  0  0  0  0  0
    0.9989  -22.6764  -42.5126 N   0  0  0  0  0  0  0  0  0  0  0  0
    2.2213  -22.0651  -42.9278 C   0  0  0  0  0  0  0  0  0  0  0  0
    1.0403  -24.0871  -42.3510 C   0  0  0  0  0  0  0  0  0  0  0  0
    6.1431  -21.9095  -39.8104 O   0  0  0  0  0  0  0  0  0  0  0  0
    6.2690  -21.2199  -38.5989 C   0  0  0  0  0  0  0  0  0  0  0  0
    4.9682  -20.7738  -38.2476 O   0  0  0  0  0  0  0  0  0  0  0  0
    5.0167  -22.7940  -42.4821 O   0  0  0  0  0  0  0  0  0  0  0  0
    5.9511  -22.0724  -43.2973 C   0  0  0  0  0  0  0  0  0  0  0  0
    1.9750  -18.0863  -38.6058 N   0  0  0  0  0  0  0  0  0  0  0  0
    2.3846  -17.3429  -37.4647 C   0  0  0  0  0  0  0  0  0  0  0  0
    1.2456  -16.9535  -36.5314 C   0  0  0  0  0  0  0  0  0  0  0  0
    0.2223  -16.3205  -37.2936 N   0  0  0  0  0  0  0  0  0  0  0  0
   -0.3238  -17.2226  -38.3583 C   0  0  0  0  0  0  0  0  0  0  0  0
    0.8213  -17.5595  -39.2521 C   0  0  0  0  0  0  0  0  0  0  0  0
   -0.3318  -15.0584  -37.2194 C   0  0  0  0  0  0  0  0  0  0  0  0
   -1.2744  -14.8142  -38.1080 O   0  0  0  0  0  0  0  0  0  0  0  0
   -0.0656  -13.9550  -36.3431 C   0  0  0  0  0  0  0  0  0  0  0  0
    0.7172  -12.8640  -36.7977 N   0  0  0  0  0  0  0  0  0  0  0  0
    0.2905  -11.6914  -37.2633 N   0  0  0  0  0  0  0  0  0  0  0  0
    1.3220  -10.8915  -37.5610 C   0  0  0  0  0  0  0  0  0  0  0  0
    2.4546  -11.6089  -37.2634 C   0  0  0  0  0  0  0  0  0  0  0  0
    2.0759  -12.8298  -36.7913 C   0  0  0  0  0  0  0  0  0  0  0  0
    4.2672  -10.9998  -37.4753 Br  0  0  0  0  0  0  0  0  0  0  0  0
  1  2  2  0  0  0
  1  3  2  0  0  0
  1 20  1  0  0  0
  1  4  1  0  0  0
 20 21  1  0  0  0
 20 25  1  0  0  0
 21 22  1  0  0  0
 22 23  1  0  0  0
 23 24  1  0  0  0
 23 26  1  0  0  0
 24 25  1  0  0  0
 26 27  2  0  0  0
 26 28  1  0  0  0
 28 29  1  0  0  0
 29 30  1  0  0  0
 29 33  1  0  0  0
 30 31  2  0  0  0
 31 32  1  0  0  0
 32 33  2  0  0  0
 32 34  1  0  0  0
  4  5  2  0  0  0
  4  9  1  0  0  0
  5  6  1  0  0  0
  5 17  1  0  0  0
  6  7  2  0  0  0
  6 15  1  0  0  0
  7  8  1  0  0  0
  7 18  1  0  0  0
  8  9  2  0  0  0
  8 13  1  0  0  0
  9 10  1  0  0  0
 10 11  1  0  0  0
 11 12  1  0  0  0
 12 13  1  0  0  0
 12 14  1  0  0  0
 18 19  1  0  0  0
 15 16  1  0  0  0
 16 17  1  0  0  0
M  END
> <minimizedAffinity>
-6.26274

$$$$
1042


 31 34  0  0  0  0  0  0  0  0999 V2000
    0.2423  -24.5414  -42.1649 N   0  0  0  0  0  0  0  0  0  0  0  0
    0.0783  -23.2498  -42.6384 C   0  0  0  0  0  0  0  0  0  0  0  0
    1.3651  -22.8530  -43.4126 C   0  0  0  0  0  0  0  0  0  0  0  0
    2.5172  -23.0981  -42.5905 N   0  0  0  0  0  0  0  0  0  0  0  0
    2.7135  -24.4545  -42.1327 C   0  0  0  0  0  0  0  0  0  0  0  0
    1.4625  -25.2260  -42.4924 C   0  0  0  0  0  0  0  0  0  0  0  0
    3.4402  -22.1013  -42.2210 C   0  0  0  0  0  0  0  0  0  0  0  0
    3.2643  -20.9282  -42.6211 O   0  0  0  0  0  0  0  0  0  0  0  0
   -0.9847  -25.4612  -41.5384 S   0  0  0  0  0  0  0  0  0  0  0  0
   -1.3484  -24.8990  -40.1576 O   0  0  0  0  0  0  0  0  0  0  0  0
   -2.2871  -25.2965  -42.3278 O   0  0  0  0  0  0  0  0  0  0  0  0
   -0.6954  -27.1542  -41.2832 C   0  0  0  0  0  0  0  0  0  0  0  0
   -0.7027  -28.1330  -42.2405 C   0  0  0  0  0  0  0  0  0  0  0  0
   -0.5076  -29.4815  -41.9209 C   0  0  0  0  0  0  0  0  0  0  0  0
   -0.2999  -29.8898  -40.6413 C   0  0  0  0  0  0  0  0  0  0  0  0
   -0.2842  -28.9349  -39.6606 C   0  0  0  0  0  0  0  0  0  0  0  0
   -0.4762  -27.6096  -39.9697 C   0  0  0  0  0  0  0  0  0  0  0  0
   -0.9154  -27.6460  -44.0618 Br  0  0  0  0  0  0  0  0  0  0  0  0
    4.5962  -22.4155  -41.3799 C   0  0  0  0  0  0  0  0  0  0  0  0
    5.0444  -21.2279  -40.6576 N   0  0  0  0  0  0  0  0  0  0  0  0
    5.8479  -20.1526  -41.0979 C   0  0  0  0  0  0  0  0  0  0  0  0
    6.3404  -20.0382  -42.2679 O   0  0  0  0  0  0  0  0  0  0  0  0
    5.9913  -19.2518  -40.0066 N   0  0  0  0  0  0  0  0  0  0  0  0
    4.9144  -19.5242  -39.0910 C   0  0  0  0  0  0  0  0  0  0  0  0
    3.6869  -18.7116  -39.3444 C   0  0  0  0  0  0  0  0  0  0  0  0
    2.9107  -18.9075  -38.0360 C   0  0  0  0  0  0  0  0  0  0  0  0
    3.9819  -18.9242  -36.9804 C   0  0  0  0  0  0  0  0  0  0  0  0
    5.2821  -19.1945  -37.6629 C   0  0  0  0  0  0  0  0  0  0  0  0
    4.6958  -20.9780  -39.2807 C   0  0  0  0  0  0  0  0  0  0  0  0
    4.2955  -21.7985  -38.4247 O   0  0  0  0  0  0  0  0  0  0  0  0
    6.7700  -18.5487  -39.9586 H   0  0  0  0  0  0  0  0  0  0  0  0
  9 10  2  0  0  0
  9 11  2  0  0  0
  9  1  1  0  0  0
  9 12  1  0  0  0
  1  2  1  0  0  0
  1  6  1  0  0  0
  2  3  1  0  0  0
  3  4  1  0  0  0
  4  5  1  0  0  0
  4  7  1  0  0  0
  5  6  1  0  0  0
  7  8  2  0  0  0
  7 19  1  0  0  0
 19 20  1  0  0  0
 20 21  1  0  0  0
 20 29  1  0  0  0
 21 22  2  0  0  0
 21 23  1  0  0  0
 23 24  1  0  0  0
 24 25  1  0  0  0
 24 28  1  0  0  0
 24 29  1  0  0  0
 25 26  1  0  0  0
 26 27  1  0  0  0
 27 28  1  0  0  0
 29 30  2  0  0  0
 12 13  2  0  0  0
 12 17  1  0  0  0
 13 14  1  0  0  0
 13 18  1  0  0  0
 14 15  2  0  0  0
 15 16  1  0  0  0
 16 17  2  0  0  0
 23 31  1  0  0  0
M  END
> <minimizedAffinity>
-6.87375

$$$$
1043


 31 34  0  0  0  0  0  0  0  0999 V2000
    0.9494  -14.9903  -37.6171 N   0  0  0  0  0  0  0  0  0  0  0  0
    0.3629  -15.7917  -36.5640 C   0  0  0  0  0  0  0  0  0  0  0  0
   -0.6607  -16.7528  -37.1152 C   0  0  0  0  0  0  0  0  0  0  0  0
   -0.0070  -17.4893  -38.2169 N   0  0  0  0  0  0  0  0  0  0  0  0
    0.5425  -16.6755  -39.2562 C   0  0  0  0  0  0  0  0  0  0  0  0
    0.2948  -15.2009  -38.8603 C   0  0  0  0  0  0  0  0  0  0  0  0
    0.0528  -18.8902  -38.2020 C   0  0  0  0  0  0  0  0  0  0  0  0
   -0.5024  -19.4499  -37.1458 O   0  0  0  0  0  0  0  0  0  0  0  0
    1.1447  -13.3508  -37.1845 S   0  0  0  0  0  0  0  0  0  0  0  0
    1.3452  -13.3096  -35.6804 O   0  0  0  0  0  0  0  0  0  0  0  0
   -0.1431  -12.6106  -37.4457 O   0  0  0  0  0  0  0  0  0  0  0  0
    2.4698  -12.5730  -38.0158 C   0  0  0  0  0  0  0  0  0  0  0  0
    2.7794  -12.8544  -39.3311 C   0  0  0  0  0  0  0  0  0  0  0  0
    3.8363  -12.2302  -39.9837 C   0  0  0  0  0  0  0  0  0  0  0  0
    4.6124  -11.3053  -39.3344 C   0  0  0  0  0  0  0  0  0  0  0  0
    4.3137  -11.0144  -38.0201 C   0  0  0  0  0  0  0  0  0  0  0  0
    3.2575  -11.6404  -37.3750 C   0  0  0  0  0  0  0  0  0  0  0  0
    6.0780  -10.4354  -40.2316 Br  0  0  0  0  0  0  0  0  0  0  0  0
    0.6049  -19.8557  -39.1180 C   0  0  0  0  0  0  0  0  0  0  0  0
    1.9203  -19.6818  -39.6484 N   0  0  0  0  0  0  0  0  0  0  0  0
    2.2882  -19.3948  -41.0219 C   0  0  0  0  0  0  0  0  0  0  0  0
    1.4332  -19.2435  -41.9386 O   0  0  0  0  0  0  0  0  0  0  0  0
    3.7033  -19.3289  -41.0866 N   0  0  0  0  0  0  0  0  0  0  0  0
    4.2123  -19.9810  -39.9280 C   0  0  0  0  0  0  0  0  0  0  0  0
    4.5436  -21.4365  -40.1552 C   0  0  0  0  0  0  0  0  0  0  0  0
    5.3446  -21.7611  -38.9088 C   0  0  0  0  0  0  0  0  0  0  0  0
    5.9969  -20.4678  -38.4835 C   0  0  0  0  0  0  0  0  0  0  0  0
    5.5541  -19.4257  -39.4826 C   0  0  0  0  0  0  0  0  0  0  0  0
    3.1661  -19.7789  -38.9270 C   0  0  0  0  0  0  0  0  0  0  0  0
    3.2852  -19.7000  -37.6776 O   0  0  0  0  0  0  0  0  0  0  0  0
    4.2132  -18.8620  -41.8863 H   0  0  0  0  0  0  0  0  0  0  0  0
  9 10  2  0  0  0
  9 11  2  0  0  0
  9  1  1  0  0  0
  9 12  1  0  0  0
  1  2  1  0  0  0
  1  6  1  0  0  0
  2  3  1  0  0  0
  3  4  1  0  0  0
  4  5  1  0  0  0
  4  7  1  0  0  0
  5  6  1  0  0  0
  7  8  2  0  0  0
  7 19  1  0  0  0
 19 20  1  0  0  0
 20 21  1  0  0  0
 20 29  1  0  0  0
 21 22  2  0  0  0
 21 23  1  0  0  0
 23 24  1  0  0  0
 24 25  1  0  0  0
 24 28  1  0  0  0
 24 29  1  0  0  0
 25 26  1  0  0  0
 26 27  1  0  0  0
 27 28  1  0  0  0
 29 30  2  0  0  0
 12 13  2  0  0  0
 12 17  1  0  0  0
 13 14  1  0  0  0
 14 15  2  0  0  0
 15 16  1  0  0  0
 15 18  1  0  0  0
 16 17  2  0  0  0
 23 31  1  0  0  0
M  END
> <minimizedAffinity>
-6.80891

$$$$
1044


 30 33  0  0  0  0  0  0  0  0999 V2000
   -0.0396  -17.0575  -36.5643 S   0  0  0  0  0  0  0  0  0  0  0  0
    0.3539  -16.8139  -35.1599 O   0  0  0  0  0  0  0  0  0  0  0  0
   -1.3914  -17.7599  -36.5304 O   0  0  0  0  0  0  0  0  0  0  0  0
    1.0561  -18.1844  -37.3559 C   0  0  0  0  0  0  0  0  0  0  0  0
    2.4211  -18.1137  -37.1677 C   0  0  0  0  0  0  0  0  0  0  0  0
    3.3059  -18.9825  -37.7732 C   0  0  0  0  0  0  0  0  0  0  0  0
    2.8431  -19.9771  -38.6100 C   0  0  0  0  0  0  0  0  0  0  0  0
    1.4718  -20.0515  -38.8009 C   0  0  0  0  0  0  0  0  0  0  0  0
    0.5932  -19.1799  -38.1922 C   0  0  0  0  0  0  0  0  0  0  0  0
    3.7117  -20.8692  -39.2362 O   0  0  0  0  0  0  0  0  0  0  0  0
    5.1158  -20.7041  -39.2911 C   0  0  0  0  0  0  0  0  0  0  0  0
    5.6165  -19.8136  -38.2138 C   0  0  0  0  0  0  0  0  0  0  0  0
    6.8333  -19.9043  -37.9112 O   0  0  0  0  0  0  0  0  0  0  0  0
    4.7132  -18.9123  -37.5835 N   0  0  0  0  0  0  0  0  0  0  0  0
    5.0789  -18.1665  -36.9543 H   0  0  0  0  0  0  0  0  0  0  0  0
   -0.2145  -15.6582  -37.4975 N   0  0  0  0  0  0  0  0  0  0  0  0
   -0.2866  -15.8074  -38.8834 C   0  0  0  0  0  0  0  0  0  0  0  0
    0.1284  -14.6420  -39.7097 C   0  0  0  0  0  0  0  0  0  0  0  0
    1.0666  -13.7669  -39.0812 N   0  0  0  0  0  0  0  0  0  0  0  0
    1.5298  -14.0763  -37.7459 C   0  0  0  0  0  0  0  0  0  0  0  0
    0.2803  -14.4592  -36.9556 C   0  0  0  0  0  0  0  0  0  0  0  0
    1.5628  -12.6031  -39.7163 C   0  0  0  0  0  0  0  0  0  0  0  0
    1.1843  -12.2908  -40.8906 O   0  0  0  0  0  0  0  0  0  0  0  0
    2.5191  -11.6993  -39.0903 C   0  0  0  0  0  0  0  0  0  0  0  0
    2.1263  -10.6672  -38.2585 C   0  0  0  0  0  0  0  0  0  0  0  0
    3.0199   -9.8083  -37.6616 C   0  0  0  0  0  0  0  0  0  0  0  0
    4.3700   -9.9968  -37.9134 C   0  0  0  0  0  0  0  0  0  0  0  0
    4.8185  -11.0068  -38.7316 C   0  0  0  0  0  0  0  0  0  0  0  0
    3.8834  -11.8394  -39.3058 C   0  0  0  0  0  0  0  0  0  0  0  0
    0.2509  -10.4680  -37.9571 Br  0  0  0  0  0  0  0  0  0  0  0  0
  1  2  2  0  0  0
  1  3  2  0  0  0
  1 16  1  0  0  0
  1  4  1  0  0  0
 16 17  1  0  0  0
 16 21  1  0  0  0
 17 18  1  0  0  0
 18 19  1  0  0  0
 19 20  1  0  0  0
 19 22  1  0  0  0
 20 21  1  0  0  0
 22 23  2  0  0  0
 22 24  1  0  0  0
 24 25  2  0  0  0
 24 29  1  0  0  0
 25 26  1  0  0  0
 25 30  1  0  0  0
 26 27  2  0  0  0
 27 28  1  0  0  0
 28 29  2  0  0  0
  4  5  2  0  0  0
  4  9  1  0  0  0
  5  6  1  0  0  0
  6  7  2  0  0  0
  6 14  1  0  0  0
  7  8  1  0  0  0
  7 10  1  0  0  0
  8  9  2  0  0  0
 10 11  1  0  0  0
 11 12  1  0  0  0
 12 13  2  0  0  0
 12 14  1  0  0  0
 14 15  1  0  0  0
M  END
> <minimizedAffinity>
-6.64995

$$$$
1051


 27 30  0  0  0  0  0  0  0  0999 V2000
    0.1254  -15.3405  -37.1819 N   0  0  0  0  0  0  0  0  0  0  0  0
    1.4340  -15.8159  -36.9220 C   0  0  0  0  0  0  0  0  0  0  0  0
    1.7693  -17.1708  -37.4448 C   0  0  0  0  0  0  0  0  0  0  0  0
    0.6651  -18.0927  -37.4347 N   0  0  0  0  0  0  0  0  0  0  0  0
   -0.5855  -17.5958  -36.9062 C   0  0  0  0  0  0  0  0  0  0  0  0
   -0.8264  -16.2936  -37.6418 C   0  0  0  0  0  0  0  0  0  0  0  0
    0.7321  -19.4203  -37.8967 C   0  0  0  0  0  0  0  0  0  0  0  0
   -0.2830  -20.1491  -37.8477 O   0  0  0  0  0  0  0  0  0  0  0  0
    1.9783  -19.9565  -38.4341 C   0  0  0  0  0  0  0  0  0  0  0  0
    2.2261  -20.2170  -39.7136 N   0  0  0  0  0  0  0  0  0  0  0  0
    3.4627  -20.6984  -39.8591 N   0  0  0  0  0  0  0  0  0  0  0  0
    4.0635  -20.7642  -38.6490 C   0  0  0  0  0  0  0  0  0  0  0  0
    3.1124  -20.2899  -37.7383 C   0  0  0  0  0  0  0  0  0  0  0  0
    5.3327  -21.2201  -38.5014 N   0  0  0  0  0  0  0  0  0  0  0  0
    6.0298  -21.6253  -39.6021 C   0  0  0  0  0  0  0  0  0  0  0  0
    5.4455  -21.5692  -40.8488 C   0  0  0  0  0  0  0  0  0  0  0  0
    4.1548  -21.0996  -40.9462 C   0  0  0  0  0  0  0  0  0  0  0  0
    6.4306  -22.1412  -42.3988 Br  0  0  0  0  0  0  0  0  0  0  0  0
    0.0712  -13.9673  -38.2193 S   0  0  0  0  0  0  0  0  0  0  0  0
   -0.9670  -13.0026  -37.7441 O   0  0  0  0  0  0  0  0  0  0  0  0
   -0.3450  -14.4802  -39.5914 O   0  0  0  0  0  0  0  0  0  0  0  0
    1.6120  -13.1509  -38.3051 C   0  0  0  0  0  0  0  0  0  0  0  0
    2.1725  -12.3235  -37.3590 C   0  0  0  0  0  0  0  0  0  0  0  0
    3.3594  -11.8910  -37.7864 N   0  0  0  0  0  0  0  0  0  0  0  0
    3.5894  -12.4096  -38.9770 N   0  0  0  0  0  0  0  0  0  0  0  0
    2.5433  -13.1935  -39.3425 C   0  0  0  0  0  0  0  0  0  0  0  0
    4.2667  -11.0104  -37.0995 C   0  0  0  0  0  0  0  0  0  0  0  0
 19 20  2  0  0  0
 19 21  2  0  0  0
 19  1  1  0  0  0
 19 22  1  0  0  0
  1  2  1  0  0  0
  1  6  1  0  0  0
  2  3  1  0  0  0
  3  4  1  0  0  0
  4  5  1  0  0  0
  4  7  1  0  0  0
  5  6  1  0  0  0
  7  8  2  0  0  0
  7  9  1  0  0  0
  9 10  2  0  0  0
  9 13  1  0  0  0
 10 11  1  0  0  0
 11 12  1  0  0  0
 11 17  1  0  0  0
 12 13  2  0  0  0
 12 14  1  0  0  0
 14 15  2  0  0  0
 15 16  1  0  0  0
 16 17  2  0  0  0
 16 18  1  0  0  0
 22 23  2  0  0  0
 22 26  1  0  0  0
 23 24  1  0  0  0
 24 25  1  0  0  0
 24 27  1  0  0  0
 25 26  2  0  0  0
M  END
> <minimizedAffinity>
-6.11078

$$$$
1056


 30 33  0  0  0  0  0  0  0  0999 V2000
   -0.0358  -13.5033  -38.0691 N   0  0  0  0  0  0  0  0  0  0  0  0
   -1.3021  -14.0762  -37.8144 C   0  0  0  0  0  0  0  0  0  0  0  0
   -1.3283  -15.4464  -37.2754 C   0  0  0  0  0  0  0  0  0  0  0  0
   -0.3244  -16.2789  -37.8681 N   0  0  0  0  0  0  0  0  0  0  0  0
    0.5049  -15.7467  -38.9109 C   0  0  0  0  0  0  0  0  0  0  0  0
    0.9430  -14.3362  -38.6680 C   0  0  0  0  0  0  0  0  0  0  0  0
   -0.1447  -17.6090  -37.4387 C   0  0  0  0  0  0  0  0  0  0  0  0
   -0.8771  -18.0557  -36.5268 O   0  0  0  0  0  0  0  0  0  0  0  0
    0.8548  -18.5113  -37.9960 C   0  0  0  0  0  0  0  0  0  0  0  0
    0.4797  -19.4641  -38.9254 C   0  0  0  0  0  0  0  0  0  0  0  0
    1.3990  -20.2954  -39.4401 N   0  0  0  0  0  0  0  0  0  0  0  0
    2.7016  -20.2439  -39.0869 C   0  0  0  0  0  0  0  0  0  0  0  0
    3.0998  -19.3294  -38.1859 N   0  0  0  0  0  0  0  0  0  0  0  0
    4.4132  -19.2738  -37.8263 C   0  0  0  0  0  0  0  0  0  0  0  0
    5.3521  -20.1325  -38.3601 C   0  0  0  0  0  0  0  0  0  0  0  0
    4.9645  -21.0832  -39.2900 C   0  0  0  0  0  0  0  0  0  0  0  0
    3.6327  -21.1184  -39.6367 C   0  0  0  0  0  0  0  0  0  0  0  0
    6.7899  -20.1028  -37.9936 C   0  0  0  0  0  0  0  0  0  0  0  0
    2.1898  -18.4747  -37.6478 C   0  0  0  0  0  0  0  0  0  0  0  0
    2.5587  -17.6309  -36.8170 O   0  0  0  0  0  0  0  0  0  0  0  0
    0.5259  -12.3797  -36.9360 S   0  0  0  0  0  0  0  0  0  0  0  0
   -0.5382  -11.3906  -36.6104 O   0  0  0  0  0  0  0  0  0  0  0  0
    0.8952  -13.1181  -35.6729 O   0  0  0  0  0  0  0  0  0  0  0  0
    1.9550  -11.5838  -37.5384 C   0  0  0  0  0  0  0  0  0  0  0  0
    1.8520  -10.6277  -38.5271 C   0  0  0  0  0  0  0  0  0  0  0  0
    3.0319  -10.0323  -38.9609 C   0  0  0  0  0  0  0  0  0  0  0  0
    4.2544  -10.3680  -38.4402 C   0  0  0  0  0  0  0  0  0  0  0  0
    4.3465  -11.3310  -37.4458 C   0  0  0  0  0  0  0  0  0  0  0  0
    3.1716  -11.9422  -36.9949 C   0  0  0  0  0  0  0  0  0  0  0  0
    2.9567   -8.7069  -40.3223 Br  0  0  0  0  0  0  0  0  0  0  0  0
 21 22  2  0  0  0
 21 23  2  0  0  0
 21  1  1  0  0  0
 21 24  1  0  0  0
  1  2  1  0  0  0
  1  6  1  0  0  0
  2  3  1  0  0  0
  3  4  1  0  0  0
  4  5  1  0  0  0
  4  7  1  0  0  0
  5  6  1  0  0  0
  7  8  2  0  0  0
  7  9  1  0  0  0
  9 10  2  0  0  0
  9 19  1  0  0  0
 10 11  1  0  0  0
 11 12  2  0  0  0
 12 13  1  0  0  0
 12 17  1  0  0  0
 13 14  1  0  0  0
 13 19  1  0  0  0
 14 15  2  0  0  0
 15 16  1  0  0  0
 15 18  1  0  0  0
 16 17  2  0  0  0
 19 20  2  0  0  0
 24 25  2  0  0  0
 24 29  1  0  0  0
 25 26  1  0  0  0
 26 27  2  0  0  0
 26 30  1  0  0  0
 27 28  1  0  0  0
 28 29  2  0  0  0
M  END
> <minimizedAffinity>
-6.97246

$$$$
1061


 30 34  0  0  0  0  0  0  0  0999 V2000
    0.8840  -15.2003  -36.3488 N   0  0  0  0  0  0  0  0  0  0  0  0
   -0.3319  -15.9512  -36.1784 C   0  0  0  0  0  0  0  0  0  0  0  0
   -0.2893  -17.2604  -36.9325 C   0  0  0  0  0  0  0  0  0  0  0  0
    0.0282  -17.0130  -38.3614 N   0  0  0  0  0  0  0  0  0  0  0  0
    1.3725  -16.4571  -38.4202 C   0  0  0  0  0  0  0  0  0  0  0  0
    1.8651  -15.9433  -37.0786 C   0  0  0  0  0  0  0  0  0  0  0  0
    0.7200  -13.5658  -36.6967 S   0  0  0  0  0  0  0  0  0  0  0  0
   -0.6339  -13.3630  -37.3649 O   0  0  0  0  0  0  0  0  0  0  0  0
    0.5848  -12.8211  -35.3678 O   0  0  0  0  0  0  0  0  0  0  0  0
    1.9879  -12.8124  -37.5764 C   0  0  0  0  0  0  0  0  0  0  0  0
    2.0521  -12.9139  -38.9449 C   0  0  0  0  0  0  0  0  0  0  0  0
    3.0823  -12.2850  -39.6208 C   0  0  0  0  0  0  0  0  0  0  0  0
    4.0594  -11.5529  -38.9712 C   0  0  0  0  0  0  0  0  0  0  0  0
    3.9906  -11.4536  -37.5974 C   0  0  0  0  0  0  0  0  0  0  0  0
    2.9548  -12.0859  -36.9188 C   0  0  0  0  0  0  0  0  0  0  0  0
    5.4811  -10.6873  -39.9010 Br  0  0  0  0  0  0  0  0  0  0  0  0
    0.0260  -18.3363  -38.9472 C   0  0  0  0  0  0  0  0  0  0  0  0
    0.6328  -19.4306  -38.1770 C   0  0  0  0  0  0  0  0  0  0  0  0
    1.9336  -19.8991  -38.5159 N   0  0  0  0  0  0  0  0  0  0  0  0
    3.1588  -19.8428  -37.7943 C   0  0  0  0  0  0  0  0  0  0  0  0
    3.4419  -19.0037  -36.9268 O   0  0  0  0  0  0  0  0  0  0  0  0
    4.0343  -20.9485  -38.2520 C   0  0  0  0  0  0  0  0  0  0  0  0
    3.5545  -21.0959  -39.7141 C   0  0  0  0  0  0  0  0  0  0  0  0
    4.5412  -20.3530  -40.5337 C   0  0  0  0  0  0  0  0  0  0  0  0
    5.1260  -19.3597  -39.5154 C   0  0  0  0  0  0  0  0  0  0  0  0
    5.4183  -20.4522  -38.4719 C   0  0  0  0  0  0  0  0  0  0  0  0
    6.0986  -21.4507  -39.3631 C   0  0  0  0  0  0  0  0  0  0  0  0
    5.7631  -21.2418  -40.6362 C   0  0  0  0  0  0  0  0  0  0  0  0
    2.1832  -20.6082  -39.7498 C   0  0  0  0  0  0  0  0  0  0  0  0
    1.3848  -20.7899  -40.7029 O   0  0  0  0  0  0  0  0  0  0  0  0
  7  8  2  0  0  0
  7  9  2  0  0  0
  7  1  1  0  0  0
  7 10  1  0  0  0
  1  2  1  0  0  0
  1  6  1  0  0  0
  2  3  1  0  0  0
  3  4  1  0  0  0
  4  5  1  0  0  0
  4 17  1  0  0  0
  5  6  1  0  0  0
 17 18  1  0  0  0
 18 19  1  0  0  0
 19 20  1  0  0  0
 19 29  1  0  0  0
 20 21  2  0  0  0
 20 22  1  0  0  0
 22 23  1  0  0  0
 22 26  1  0  0  0
 23 24  1  0  0  0
 23 29  1  0  0  0
 24 25  1  0  0  0
 24 28  1  0  0  0
 25 26  1  0  0  0
 26 27  1  0  0  0
 27 28  2  0  0  0
 29 30  2  0  0  0
 10 11  2  0  0  0
 10 15  1  0  0  0
 11 12  1  0  0  0
 12 13  2  0  0  0
 13 14  1  0  0  0
 13 16  1  0  0  0
 14 15  2  0  0  0
M  END
> <minimizedAffinity>
-7.34698

$$$$
1073


 28 31  0  0  0  0  0  0  0  0999 V2000
   -0.3739  -17.9693  -37.6779 N   0  0  0  0  0  0  0  0  0  0  0  0
    0.4204  -17.5102  -38.7439 C   0  0  0  0  0  0  0  0  0  0  0  0
    1.0167  -18.6191  -39.5660 C   0  0  0  0  0  0  0  0  0  0  0  0
    1.0763  -19.8728  -38.9040 N   0  0  0  0  0  0  0  0  0  0  0  0
   -0.2075  -20.2842  -38.4603 C   0  0  0  0  0  0  0  0  0  0  0  0
   -1.0149  -19.2213  -37.8129 C   0  0  0  0  0  0  0  0  0  0  0  0
   -1.0566  -16.8597  -36.6472 S   0  0  0  0  0  0  0  0  0  0  0  0
   -2.4811  -16.5645  -36.9766 O   0  0  0  0  0  0  0  0  0  0  0  0
   -0.9791  -17.3374  -35.2328 O   0  0  0  0  0  0  0  0  0  0  0  0
   -0.1630  -15.3293  -36.7650 C   0  0  0  0  0  0  0  0  0  0  0  0
   -0.5662  -13.9120  -37.6222 S   0  0  0  0  0  0  0  0  0  0  0  0
    0.7828  -12.9550  -37.2151 C   0  0  0  0  0  0  0  0  0  0  0  0
    1.5248  -13.7822  -36.4083 C   0  0  0  0  0  0  0  0  0  0  0  0
    1.0289  -15.0084  -36.1803 C   0  0  0  0  0  0  0  0  0  0  0  0
    1.1925  -11.1590  -37.7409 Br  0  0  0  0  0  0  0  0  0  0  0  0
    2.1513  -19.9424  -37.9862 C   0  0  0  0  0  0  0  0  0  0  0  0
    3.4481  -20.1801  -38.5230 N   0  0  0  0  0  0  0  0  0  0  0  0
    3.6097  -20.9577  -39.5738 N   0  0  0  0  0  0  0  0  0  0  0  0
    4.7950  -21.2378  -40.1374 C   0  0  0  0  0  0  0  0  0  0  0  0
    5.9041  -20.6631  -39.5632 C   0  0  0  0  0  0  0  0  0  0  0  0
    5.8017  -19.8402  -38.4618 C   0  0  0  0  0  0  0  0  0  0  0  0
    4.5273  -19.6161  -37.9579 C   0  0  0  0  0  0  0  0  0  0  0  0
    4.4358  -18.8505  -36.9358 O   0  0  0  0  0  0  0  0  0  0  0  0
    4.9383  -22.0885  -41.2808 N   0  0  0  0  0  0  0  0  0  0  0  0
    4.0201  -22.8675  -41.8617 C   0  0  0  0  0  0  0  0  0  0  0  0
    4.5889  -23.4934  -42.9086 N   0  0  0  0  0  0  0  0  0  0  0  0
    5.8768  -23.1175  -43.0028 C   0  0  0  0  0  0  0  0  0  0  0  0
    6.0825  -22.2300  -41.9680 C   0  0  0  0  0  0  0  0  0  0  0  0
  7  8  2  0  0  0
  7  9  2  0  0  0
  7  1  1  0  0  0
  7 10  1  0  0  0
  1  2  1  0  0  0
  1  6  1  0  0  0
  2  3  1  0  0  0
  3  4  1  0  0  0
  4  5  1  0  0  0
  4 16  1  0  0  0
  5  6  1  0  0  0
 16 17  1  0  0  0
 17 18  1  0  0  0
 17 22  1  0  0  0
 18 19  2  0  0  0
 19 20  1  0  0  0
 19 24  1  0  0  0
 20 21  2  0  0  0
 21 22  1  0  0  0
 22 23  2  0  0  0
 24 25  1  0  0  0
 24 28  1  0  0  0
 25 26  2  0  0  0
 26 27  1  0  0  0
 27 28  2  0  0  0
 10 11  1  0  0  0
 10 14  2  0  0  0
 11 12  1  0  0  0
 12 13  2  0  0  0
 12 15  1  0  0  0
 13 14  1  0  0  0
M  END
> <minimizedAffinity>
-6.26781

$$$$
1076


 29 32  0  0  0  0  0  0  0  0999 V2000
   -0.5640  -18.8521  -38.9663 N   0  0  0  0  0  0  0  0  0  0  0  0
   -1.7156  -18.9332  -39.8082 C   0  0  0  0  0  0  0  0  0  0  0  0
   -2.9299  -18.8022  -38.8726 C   0  0  0  0  0  0  0  0  0  0  0  0
   -2.6665  -19.3326  -37.6061 N   0  0  0  0  0  0  0  0  0  0  0  0
   -1.7496  -20.4387  -37.5575 C   0  0  0  0  0  0  0  0  0  0  0  0
   -0.4681  -20.1705  -38.3139 C   0  0  0  0  0  0  0  0  0  0  0  0
    0.9042  -18.6161  -39.8137 S   0  0  0  0  0  0  0  0  0  0  0  0
    1.0297  -17.2136  -40.3480 O   0  0  0  0  0  0  0  0  0  0  0  0
    0.8771  -19.5283  -41.0182 O   0  0  0  0  0  0  0  0  0  0  0  0
    2.3092  -18.9944  -38.8937 C   0  0  0  0  0  0  0  0  0  0  0  0
    3.2657  -19.9078  -39.2252 C   0  0  0  0  0  0  0  0  0  0  0  0
    4.3644  -20.1376  -38.4096 C   0  0  0  0  0  0  0  0  0  0  0  0
    4.5352  -19.4584  -37.2401 C   0  0  0  0  0  0  0  0  0  0  0  0
    3.5790  -18.5229  -36.8765 C   0  0  0  0  0  0  0  0  0  0  0  0
    2.4964  -18.3050  -37.6908 C   0  0  0  0  0  0  0  0  0  0  0  0
    5.6997  -21.4305  -38.8976 Br  0  0  0  0  0  0  0  0  0  0  0  0
   -2.7056  -18.5284  -36.4577 C   0  0  0  0  0  0  0  0  0  0  0  0
   -2.0507  -17.2605  -36.4899 N   0  0  0  0  0  0  0  0  0  0  0  0
   -0.6591  -17.1493  -36.2402 N   0  0  0  0  0  0  0  0  0  0  0  0
   -0.3542  -15.7631  -36.3678 C   0  0  0  0  0  0  0  0  0  0  0  0
    0.8687  -15.2742  -36.2009 C   0  0  0  0  0  0  0  0  0  0  0  0
    1.4570  -13.9176  -36.2713 C   0  0  0  0  0  0  0  0  0  0  0  0
    0.4251  -12.8636  -35.9484 C   0  0  0  0  0  0  0  0  0  0  0  0
   -0.5089  -12.8081  -37.1442 C   0  0  0  0  0  0  0  0  0  0  0  0
   -1.7490  -13.6179  -36.9196 C   0  0  0  0  0  0  0  0  0  0  0  0
   -1.5135  -15.0106  -36.6890 N   0  0  0  0  0  0  0  0  0  0  0  0
   -2.5676  -15.9658  -36.7604 C   0  0  0  0  0  0  0  0  0  0  0  0
   -3.7578  -15.6643  -37.0255 O   0  0  0  0  0  0  0  0  0  0  0  0
    0.0066  -17.9242  -36.0090 H   0  0  0  0  0  0  0  0  0  0  0  0
  7  8  2  0  0  0
  7  9  2  0  0  0
  7  1  1  0  0  0
  7 10  1  0  0  0
  1  2  1  0  0  0
  1  6  1  0  0  0
  2  3  1  0  0  0
  3  4  1  0  0  0
  4  5  1  0  0  0
  4 17  1  0  0  0
  5  6  1  0  0  0
 17 18  1  0  0  0
 18 19  1  0  0  0
 18 27  1  0  0  0
 19 20  1  0  0  0
 20 21  2  0  0  0
 20 26  1  0  0  0
 21 22  1  0  0  0
 22 23  1  0  0  0
 23 24  1  0  0  0
 24 25  1  0  0  0
 25 26  1  0  0  0
 26 27  1  0  0  0
 27 28  2  0  0  0
 10 11  2  0  0  0
 10 15  1  0  0  0
 11 12  1  0  0  0
 12 13  2  0  0  0
 12 16  1  0  0  0
 13 14  1  0  0  0
 14 15  2  0  0  0
 19 29  1  0  0  0
M  END
> <minimizedAffinity>
-6.14567

$$$$
1081


 27 30  0  0  0  0  0  0  0  0999 V2000
    0.3071  -17.2696  -37.1493 N   0  0  0  0  0  0  0  0  0  0  0  0
    1.6779  -17.2752  -36.8077 C   0  0  0  0  0  0  0  0  0  0  0  0
    2.6330  -17.7650  -37.8443 C   0  0  0  0  0  0  0  0  0  0  0  0
    2.0165  -18.1700  -39.0831 N   0  0  0  0  0  0  0  0  0  0  0  0
    0.7296  -18.7866  -39.0562 C   0  0  0  0  0  0  0  0  0  0  0  0
   -0.1818  -18.3004  -37.9841 C   0  0  0  0  0  0  0  0  0  0  0  0
    2.7511  -17.9341  -40.2929 C   0  0  0  0  0  0  0  0  0  0  0  0
    3.8555  -18.5927  -40.6835 N   0  0  0  0  0  0  0  0  0  0  0  0
    4.2041  -18.0364  -41.8496 N   0  0  0  0  0  0  0  0  0  0  0  0
    3.3538  -17.0825  -42.1593 N   0  0  0  0  0  0  0  0  0  0  0  0
    2.4378  -16.9884  -41.2186 N   0  0  0  0  0  0  0  0  0  0  0  0
    4.5007  -19.6590  -40.0020 C   0  0  0  0  0  0  0  0  0  0  0  0
    3.9990  -20.9399  -40.0402 C   0  0  0  0  0  0  0  0  0  0  0  0
    4.6560  -21.9652  -39.3612 C   0  0  0  0  0  0  0  0  0  0  0  0
    5.8083  -21.7263  -38.6448 C   0  0  0  0  0  0  0  0  0  0  0  0
    6.3188  -20.4225  -38.6059 C   0  0  0  0  0  0  0  0  0  0  0  0
    5.6476  -19.4088  -39.2915 C   0  0  0  0  0  0  0  0  0  0  0  0
   -0.4306  -15.7517  -37.3603 S   0  0  0  0  0  0  0  0  0  0  0  0
   -1.4380  -15.3999  -36.3393 O   0  0  0  0  0  0  0  0  0  0  0  0
   -1.1631  -15.7748  -38.6965 O   0  0  0  0  0  0  0  0  0  0  0  0
    0.7879  -14.5118  -37.4719 C   0  0  0  0  0  0  0  0  0  0  0  0
    1.4605  -14.2278  -38.6337 C   0  0  0  0  0  0  0  0  0  0  0  0
    2.4321  -13.2302  -38.7099 C   0  0  0  0  0  0  0  0  0  0  0  0
    2.7199  -12.5013  -37.5514 C   0  0  0  0  0  0  0  0  0  0  0  0
    2.0515  -12.7781  -36.3796 C   0  0  0  0  0  0  0  0  0  0  0  0
    1.1055  -13.7642  -36.3465 C   0  0  0  0  0  0  0  0  0  0  0  0
    4.0398  -11.1160  -37.5838 Br  0  0  0  0  0  0  0  0  0  0  0  0
 18 19  2  0  0  0
 18 20  2  0  0  0
 18  1  1  0  0  0
 18 21  1  0  0  0
  1  2  1  0  0  0
  1  6  1  0  0  0
  2  3  1  0  0  0
  3  4  1  0  0  0
  4  5  1  0  0  0
  4  7  1  0  0  0
  5  6  1  0  0  0
  7  8  1  0  0  0
  7 11  2  0  0  0
  8  9  1  0  0  0
  8 12  1  0  0  0
  9 10  2  0  0  0
 10 11  1  0  0  0
 12 13  2  0  0  0
 12 17  1  0  0  0
 13 14  1  0  0  0
 14 15  2  0  0  0
 15 16  1  0  0  0
 16 17  2  0  0  0
 21 22  2  0  0  0
 21 26  1  0  0  0
 22 23  1  0  0  0
 23 24  2  0  0  0
 24 25  1  0  0  0
 24 27  1  0  0  0
 25 26  2  0  0  0
M  END
> <minimizedAffinity>
-6.21816

$$$$
1084


 29 32  0  0  0  0  0  0  0  0999 V2000
    1.7800  -17.2707  -38.4188 N   0  0  0  0  0  0  0  0  0  0  0  0
    1.0573  -18.3280  -39.0425 C   0  0  0  0  0  0  0  0  0  0  0  0
    1.4468  -19.7019  -38.5410 C   0  0  0  0  0  0  0  0  0  0  0  0
    2.7993  -19.6233  -38.0714 N   0  0  0  0  0  0  0  0  0  0  0  0
    3.0935  -18.7592  -36.9665 C   0  0  0  0  0  0  0  0  0  0  0  0
    2.1946  -17.5524  -37.0650 C   0  0  0  0  0  0  0  0  0  0  0  0
    3.8063  -20.3835  -38.6895 C   0  0  0  0  0  0  0  0  0  0  0  0
    3.6050  -21.0637  -39.8302 N   0  0  0  0  0  0  0  0  0  0  0  0
    4.5087  -21.7951  -40.4579 C   0  0  0  0  0  0  0  0  0  0  0  0
    5.7735  -21.8695  -39.8992 C   0  0  0  0  0  0  0  0  0  0  0  0
    6.0294  -21.1888  -38.7303 C   0  0  0  0  0  0  0  0  0  0  0  0
    5.0496  -20.4671  -38.1567 N   0  0  0  0  0  0  0  0  0  0  0  0
    7.3751  -21.2438  -38.0981 C   0  0  0  0  0  0  0  0  0  0  0  0
    4.1691  -22.4665  -41.6572 N   0  0  0  0  0  0  0  0  0  0  0  0
    5.1482  -22.9716  -42.5974 C   0  0  0  0  0  0  0  0  0  0  0  0
    4.4516  -24.0810  -43.3839 C   0  0  0  0  0  0  0  0  0  0  0  0
    3.7089  -24.8263  -42.4657 O   0  0  0  0  0  0  0  0  0  0  0  0
    2.5675  -24.1853  -42.0407 C   0  0  0  0  0  0  0  0  0  0  0  0
    2.7741  -22.6680  -41.9752 C   0  0  0  0  0  0  0  0  0  0  0  0
    0.7529  -15.8806  -38.3561 S   0  0  0  0  0  0  0  0  0  0  0  0
   -0.0363  -15.8283  -39.6541 O   0  0  0  0  0  0  0  0  0  0  0  0
   -0.2235  -16.0428  -37.2274 O   0  0  0  0  0  0  0  0  0  0  0  0
    1.6741  -14.4117  -38.2066 C   0  0  0  0  0  0  0  0  0  0  0  0
    1.6901  -13.7578  -36.9820 C   0  0  0  0  0  0  0  0  0  0  0  0
    2.3966  -12.5912  -36.7898 C   0  0  0  0  0  0  0  0  0  0  0  0
    3.1084  -12.0476  -37.8311 C   0  0  0  0  0  0  0  0  0  0  0  0
    3.1173  -12.6683  -39.0661 C   0  0  0  0  0  0  0  0  0  0  0  0
    2.3935  -13.8467  -39.2275 C   0  0  0  0  0  0  0  0  0  0  0  0
    4.0806  -10.4331  -37.5481 Br  0  0  0  0  0  0  0  0  0  0  0  0
 20 21  2  0  0  0
 20 22  2  0  0  0
 20  1  1  0  0  0
 20 23  1  0  0  0
  1  2  1  0  0  0
  1  6  1  0  0  0
  2  3  1  0  0  0
  3  4  1  0  0  0
  4  5  1  0  0  0
  4  7  1  0  0  0
  5  6  1  0  0  0
  7  8  2  0  0  0
  7 12  1  0  0  0
  8  9  1  0  0  0
  9 10  2  0  0  0
  9 14  1  0  0  0
 10 11  1  0  0  0
 11 12  2  0  0  0
 11 13  1  0  0  0
 14 15  1  0  0  0
 14 19  1  0  0  0
 15 16  1  0  0  0
 16 17  1  0  0  0
 17 18  1  0  0  0
 18 19  1  0  0  0
 23 24  2  0  0  0
 23 28  1  0  0  0
 24 25  1  0  0  0
 25 26  2  0  0  0
 26 27  1  0  0  0
 26 29  1  0  0  0
 27 28  2  0  0  0
M  END
> <minimizedAffinity>
-7.25271

$$$$
1089


 25 28  0  0  0  0  0  0  0  0999 V2000
    4.8210  -19.5438  -39.1325 N   0  0  0  0  0  0  0  0  0  0  0  0
    4.9704  -18.9493  -40.4039 C   0  0  0  0  0  0  0  0  0  0  0  0
    5.4885  -19.8486  -41.4987 C   0  0  0  0  0  0  0  0  0  0  0  0
    5.8274  -21.1564  -41.0330 N   0  0  0  0  0  0  0  0  0  0  0  0
    6.2627  -21.4322  -39.6752 C   0  0  0  0  0  0  0  0  0  0  0  0
    5.9482  -20.2976  -38.7447 C   0  0  0  0  0  0  0  0  0  0  0  0
    5.7417  -22.2677  -41.9148 C   0  0  0  0  0  0  0  0  0  0  0  0
    6.8369  -22.6335  -42.6450 N   0  0  0  0  0  0  0  0  0  0  0  0
    6.7809  -23.6779  -43.4719 C   0  0  0  0  0  0  0  0  0  0  0  0
    5.6739  -24.4033  -43.6233 N   0  0  0  0  0  0  0  0  0  0  0  0
    4.5954  -24.0635  -42.9208 C   0  0  0  0  0  0  0  0  0  0  0  0
    3.3697  -24.5929  -42.8710 N   0  0  0  0  0  0  0  0  0  0  0  0
    2.6228  -23.8681  -41.9916 C   0  0  0  0  0  0  0  0  0  0  0  0
    3.3638  -22.8839  -41.4819 N   0  0  0  0  0  0  0  0  0  0  0  0
    4.5801  -22.9829  -42.0371 C   0  0  0  0  0  0  0  0  0  0  0  0
    3.0351  -22.1854  -40.7898 H   0  0  0  0  0  0  0  0  0  0  0  0
    3.3047  -20.0363  -38.6316 S   0  0  0  0  0  0  0  0  0  0  0  0
    3.4715  -21.1029  -37.5550 O   0  0  0  0  0  0  0  0  0  0  0  0
    2.4931  -20.6549  -39.7108 O   0  0  0  0  0  0  0  0  0  0  0  0
    2.3253  -18.7737  -37.8797 C   0  0  0  0  0  0  0  0  0  0  0  0
    0.6942  -18.3633  -38.1542 S   0  0  0  0  0  0  0  0  0  0  0  0
    0.5393  -17.0748  -37.0526 C   0  0  0  0  0  0  0  0  0  0  0  0
    1.7903  -16.9997  -36.4891 C   0  0  0  0  0  0  0  0  0  0  0  0
    2.7037  -17.8769  -36.9198 C   0  0  0  0  0  0  0  0  0  0  0  0
   -0.9841  -15.9877  -36.6737 Br  0  0  0  0  0  0  0  0  0  0  0  0
 17 18  2  0  0  0
 17 19  2  0  0  0
 17  1  1  0  0  0
 17 20  1  0  0  0
  1  2  1  0  0  0
  1  6  1  0  0  0
  2  3  1  0  0  0
  3  4  1  0  0  0
  4  5  1  0  0  0
  4  7  1  0  0  0
  5  6  1  0  0  0
  7  8  2  0  0  0
  7 15  1  0  0  0
  8  9  1  0  0  0
  9 10  2  0  0  0
 10 11  1  0  0  0
 11 12  1  0  0  0
 11 15  2  0  0  0
 12 13  2  0  0  0
 13 14  1  0  0  0
 14 15  1  0  0  0
 20 21  1  0  0  0
 20 24  2  0  0  0
 21 22  1  0  0  0
 22 23  2  0  0  0
 22 25  1  0  0  0
 23 24  1  0  0  0
 14 16  1  0  0  0
M  END
> <minimizedAffinity>
-6.04702

$$$$
1100


 26 29  0  0  0  0  0  0  0  0999 V2000
    1.4262  -17.0329  -38.3016 N   0  0  0  0  0  0  0  0  0  0  0  0
    1.1801  -18.2049  -37.5302 C   0  0  0  0  0  0  0  0  0  0  0  0
    0.9361  -19.4322  -38.3827 C   0  0  0  0  0  0  0  0  0  0  0  0
    1.7655  -19.3109  -39.5543 N   0  0  0  0  0  0  0  0  0  0  0  0
    1.4258  -18.2408  -40.4574 C   0  0  0  0  0  0  0  0  0  0  0  0
    1.0035  -17.0586  -39.6612 C   0  0  0  0  0  0  0  0  0  0  0  0
    2.8527  -20.1717  -39.8306 C   0  0  0  0  0  0  0  0  0  0  0  0
    2.7707  -21.1554  -40.7268 C   0  0  0  0  0  0  0  0  0  0  0  0
    3.8634  -22.0585  -41.0391 C   0  0  0  0  0  0  0  0  0  0  0  0
    3.7248  -23.0186  -41.9384 C   0  0  0  0  0  0  0  0  0  0  0  0
    5.0907  -21.8957  -40.3605 N   0  0  0  0  0  0  0  0  0  0  0  0
    5.1431  -20.8266  -39.4039 C   0  0  0  0  0  0  0  0  0  0  0  0
    4.1027  -20.0177  -39.1510 N   0  0  0  0  0  0  0  0  0  0  0  0
    4.4576  -19.1285  -38.2200 N   0  0  0  0  0  0  0  0  0  0  0  0
    5.7331  -19.3530  -37.8593 C   0  0  0  0  0  0  0  0  0  0  0  0
    6.1441  -20.4004  -38.5939 N   0  0  0  0  0  0  0  0  0  0  0  0
    5.9237  -22.4816  -40.5091 H   0  0  0  0  0  0  0  0  0  0  0  0
    0.8865  -15.6543  -37.4695 S   0  0  0  0  0  0  0  0  0  0  0  0
    0.8090  -15.8632  -35.9793 O   0  0  0  0  0  0  0  0  0  0  0  0
   -0.5354  -15.3634  -37.9269 O   0  0  0  0  0  0  0  0  0  0  0  0
    1.8299  -14.2167  -37.8569 C   0  0  0  0  0  0  0  0  0  0  0  0
    2.2186  -12.9441  -36.8017 S   0  0  0  0  0  0  0  0  0  0  0  0
    3.1159  -11.9646  -37.8656 C   0  0  0  0  0  0  0  0  0  0  0  0
    3.0889  -12.6691  -39.0393 C   0  0  0  0  0  0  0  0  0  0  0  0
    2.4169  -13.8450  -39.0318 C   0  0  0  0  0  0  0  0  0  0  0  0
    3.9791  -10.2683  -37.5405 Br  0  0  0  0  0  0  0  0  0  0  0  0
 18 19  2  0  0  0
 18 20  2  0  0  0
 18  1  1  0  0  0
 18 21  1  0  0  0
  1  2  1  0  0  0
  1  6  1  0  0  0
  2  3  1  0  0  0
  3  4  1  0  0  0
  4  5  1  0  0  0
  4  7  1  0  0  0
  5  6  1  0  0  0
  7  8  2  0  0  0
  7 13  1  0  0  0
  8  9  1  0  0  0
  9 10  2  0  0  0
  9 11  1  0  0  0
 11 12  1  0  0  0
 12 13  1  0  0  0
 12 16  2  0  0  0
 13 14  1  0  0  0
 14 15  2  0  0  0
 15 16  1  0  0  0
 21 22  1  0  0  0
 21 25  2  0  0  0
 22 23  1  0  0  0
 23 24  2  0  0  0
 23 26  1  0  0  0
 24 25  1  0  0  0
 11 17  1  0  0  0
M  END
> <minimizedAffinity>
-6.26587

$$$$
1101


 26 29  0  0  0  0  0  0  0  0999 V2000
   -2.5371  -18.9248  -38.0188 N   0  0  0  0  0  0  0  0  0  0  0  0
   -2.0673  -18.5490  -39.2984 C   0  0  0  0  0  0  0  0  0  0  0  0
   -0.5904  -18.4600  -39.4557 C   0  0  0  0  0  0  0  0  0  0  0  0
    0.0913  -19.5757  -38.7804 N   0  0  0  0  0  0  0  0  0  0  0  0
   -0.7901  -20.6203  -38.3040 C   0  0  0  0  0  0  0  0  0  0  0  0
   -1.7779  -19.9547  -37.3649 C   0  0  0  0  0  0  0  0  0  0  0  0
    1.4974  -19.5842  -38.6323 C   0  0  0  0  0  0  0  0  0  0  0  0
    2.2451  -20.4620  -39.4078 C   0  0  0  0  0  0  0  0  0  0  0  0
    3.6298  -20.4616  -39.2529 C   0  0  0  0  0  0  0  0  0  0  0  0
    4.2341  -19.6511  -38.3940 N   0  0  0  0  0  0  0  0  0  0  0  0
    5.5538  -19.8855  -38.4766 C   0  0  0  0  0  0  0  0  0  0  0  0
    5.7351  -20.8504  -39.3989 N   0  0  0  0  0  0  0  0  0  0  0  0
    4.5564  -21.2076  -39.8789 N   0  0  0  0  0  0  0  0  0  0  0  0
    6.6326  -19.2039  -37.6909 C   0  0  0  0  0  0  0  0  0  0  0  0
    3.5451  -18.8226  -37.6605 N   0  0  0  0  0  0  0  0  0  0  0  0
    2.1915  -18.7827  -37.7721 C   0  0  0  0  0  0  0  0  0  0  0  0
   -2.9657  -17.6433  -36.9844 S   0  0  0  0  0  0  0  0  0  0  0  0
   -3.1930  -18.2346  -35.5985 O   0  0  0  0  0  0  0  0  0  0  0  0
   -4.2747  -17.0392  -37.3976 O   0  0  0  0  0  0  0  0  0  0  0  0
   -1.7117  -16.4455  -36.8090 C   0  0  0  0  0  0  0  0  0  0  0  0
   -1.8613  -15.1540  -37.2957 C   0  0  0  0  0  0  0  0  0  0  0  0
   -0.8694  -14.2086  -37.1568 C   0  0  0  0  0  0  0  0  0  0  0  0
    0.3045  -14.5654  -36.5129 C   0  0  0  0  0  0  0  0  0  0  0  0
    0.5007  -15.8371  -36.0104 C   0  0  0  0  0  0  0  0  0  0  0  0
   -0.5148  -16.7510  -36.1706 C   0  0  0  0  0  0  0  0  0  0  0  0
    1.6736  -13.2380  -36.3281 Br  0  0  0  0  0  0  0  0  0  0  0  0
 17 18  2  0  0  0
 17 19  2  0  0  0
 17  1  1  0  0  0
 17 20  1  0  0  0
  1  2  1  0  0  0
  1  6  1  0  0  0
  2  3  1  0  0  0
  3  4  1  0  0  0
  4  5  1  0  0  0
  4  7  1  0  0  0
  5  6  1  0  0  0
  7  8  2  0  0  0
  7 16  1  0  0  0
  8  9  1  0  0  0
  9 10  1  0  0  0
  9 13  2  0  0  0
 10 11  1  0  0  0
 10 15  1  0  0  0
 11 12  2  0  0  0
 11 14  1  0  0  0
 12 13  1  0  0  0
 15 16  2  0  0  0
 20 21  2  0  0  0
 20 25  1  0  0  0
 21 22  1  0  0  0
 22 23  2  0  0  0
 23 24  1  0  0  0
 23 26  1  0  0  0
 24 25  2  0  0  0
M  END
> <minimizedAffinity>
-6.57067

$$$$
1105


 33 36  0  0  0  0  0  0  0  0999 V2000
    0.1113  -13.2020  -38.4671 N   0  0  0  0  0  0  0  0  0  0  0  0
   -0.3988  -12.2563  -39.4019 C   0  0  0  0  0  0  0  0  0  0  0  0
   -1.9036  -12.1099  -39.3973 C   0  0  0  0  0  0  0  0  0  0  0  0
   -2.4120  -12.0184  -38.0264 N   0  0  0  0  0  0  0  0  0  0  0  0
   -1.8545  -13.0226  -37.1481 C   0  0  0  0  0  0  0  0  0  0  0  0
   -2.1287  -13.0794  -35.9468 O   0  0  0  0  0  0  0  0  0  0  0  0
   -0.9269  -13.9571  -37.8681 C   0  0  0  0  0  0  0  0  0  0  0  0
   -3.0881  -11.3334  -37.6902 H   0  0  0  0  0  0  0  0  0  0  0  0
    1.1934  -12.4414  -37.4005 S   0  0  0  0  0  0  0  0  0  0  0  0
    1.6138  -13.2906  -36.2433 O   0  0  0  0  0  0  0  0  0  0  0  0
    0.5661  -11.1895  -36.7992 O   0  0  0  0  0  0  0  0  0  0  0  0
    2.6397  -11.8910  -38.2279 C   0  0  0  0  0  0  0  0  0  0  0  0
    3.4373  -10.8663  -37.7335 C   0  0  0  0  0  0  0  0  0  0  0  0
    4.5649  -10.4185  -38.3620 C   0  0  0  0  0  0  0  0  0  0  0  0
    4.9642  -10.9858  -39.5441 C   0  0  0  0  0  0  0  0  0  0  0  0
    4.1854  -12.0222  -40.0728 C   0  0  0  0  0  0  0  0  0  0  0  0
    3.0568  -12.4467  -39.4142 C   0  0  0  0  0  0  0  0  0  0  0  0
    6.5248  -10.4072  -40.4657 Br  0  0  0  0  0  0  0  0  0  0  0  0
   -0.5444  -15.1288  -37.0539 C   0  0  0  0  0  0  0  0  0  0  0  0
   -0.3322  -16.3000  -37.9377 C   0  0  0  0  0  0  0  0  0  0  0  0
   -1.2509  -16.5596  -38.7598 O   0  0  0  0  0  0  0  0  0  0  0  0
    0.8509  -17.0971  -37.8650 N   0  0  0  0  0  0  0  0  0  0  0  0
    1.8917  -16.7906  -36.9221 C   0  0  0  0  0  0  0  0  0  0  0  0
    2.6677  -17.9831  -36.4566 C   0  0  0  0  0  0  0  0  0  0  0  0
    2.7823  -19.0371  -37.4498 N   0  0  0  0  0  0  0  0  0  0  0  0
    1.5170  -19.4461  -38.0406 C   0  0  0  0  0  0  0  0  0  0  0  0
    0.9899  -18.2199  -38.7551 C   0  0  0  0  0  0  0  0  0  0  0  0
    3.9747  -19.6615  -37.8397 C   0  0  0  0  0  0  0  0  0  0  0  0
    5.1710  -18.9997  -37.6732 C   0  0  0  0  0  0  0  0  0  0  0  0
    6.3477  -19.6144  -38.0729 C   0  0  0  0  0  0  0  0  0  0  0  0
    6.3775  -20.8667  -38.6346 C   0  0  0  0  0  0  0  0  0  0  0  0
    5.1800  -21.5238  -38.7984 C   0  0  0  0  0  0  0  0  0  0  0  0
    3.9985  -20.9150  -38.4011 C   0  0  0  0  0  0  0  0  0  0  0  0
  9 10  2  0  0  0
  9 11  2  0  0  0
  9  1  1  0  0  0
  9 12  1  0  0  0
  1  2  1  0  0  0
  1  7  1  0  0  0
  2  3  1  0  0  0
  3  4  1  0  0  0
  4  5  1  0  0  0
  5  6  2  0  0  0
  5  7  1  0  0  0
  7 19  1  0  0  0
 19 20  1  0  0  0
 20 21  2  0  0  0
 20 22  1  0  0  0
 22 23  1  0  0  0
 22 27  1  0  0  0
 23 24  1  0  0  0
 24 25  1  0  0  0
 25 26  1  0  0  0
 25 28  1  0  0  0
 26 27  1  0  0  0
 28 29  2  0  0  0
 28 33  1  0  0  0
 29 30  1  0  0  0
 30 31  2  0  0  0
 31 32  1  0  0  0
 32 33  2  0  0  0
 12 13  2  0  0  0
 12 17  1  0  0  0
 13 14  1  0  0  0
 14 15  2  0  0  0
 15 16  1  0  0  0
 15 18  1  0  0  0
 16 17  2  0  0  0
  4  8  1  0  0  0
M  END
> <minimizedAffinity>
-7.13167

$$$$
1112


 32 35  0  0  0  0  0  0  0  0999 V2000
    2.2956  -17.6826  -36.7600 C   0  0  0  0  0  0  0  0  0  0  0  0
    4.4082  -19.8504  -39.8085 C   0  0  0  0  0  0  0  0  0  0  0  0
    3.3725  -19.0258  -40.1407 C   0  0  0  0  0  0  0  0  0  0  0  0
    2.6720  -18.3112  -39.1735 C   0  0  0  0  0  0  0  0  0  0  0  0
    2.9919  -18.4053  -37.8520 C   0  0  0  0  0  0  0  0  0  0  0  0
    4.0412  -19.2390  -37.5068 C   0  0  0  0  0  0  0  0  0  0  0  0
    4.7365  -19.9478  -38.4693 C   0  0  0  0  0  0  0  0  0  0  0  0
    5.3145  -20.7673  -41.0027 S   0  0  0  0  0  0  0  0  0  0  0  0
    6.3351  -19.9207  -41.6824 O   0  0  0  0  0  0  0  0  0  0  0  0
    6.0612  -21.8401  -40.2360 O   0  0  0  0  0  0  0  0  0  0  0  0
    4.2976  -21.5556  -42.1260 N   0  0  0  0  0  0  0  0  0  0  0  0
    3.6783  -22.7422  -41.5967 C   0  0  0  0  0  0  0  0  0  0  0  0
    3.2212  -23.5699  -42.8014 C   0  0  0  0  0  0  0  0  0  0  0  0
    4.3011  -24.1675  -43.4143 O   0  0  0  0  0  0  0  0  0  0  0  0
    5.4555  -23.4114  -43.1434 C   0  0  0  0  0  0  0  0  0  0  0  0
    5.0644  -21.9488  -43.2936 C   0  0  0  0  0  0  0  0  0  0  0  0
    0.9289  -17.4791  -37.0421 O   0  0  0  0  0  0  0  0  0  0  0  0
    0.1086  -16.6012  -36.3766 C   0  0  0  0  0  0  0  0  0  0  0  0
   -0.2165  -16.8450  -35.1980 O   0  0  0  0  0  0  0  0  0  0  0  0
   -0.3860  -15.3919  -37.0296 C   0  0  0  0  0  0  0  0  0  0  0  0
    0.6523  -14.4991  -37.4533 N   0  0  0  0  0  0  0  0  0  0  0  0
    1.1952  -14.5045  -38.7799 C   0  0  0  0  0  0  0  0  0  0  0  0
    0.8414  -15.2715  -39.7205 O   0  0  0  0  0  0  0  0  0  0  0  0
    2.2268  -13.4784  -38.8767 C   0  0  0  0  0  0  0  0  0  0  0  0
    2.3349  -12.8499  -37.6638 C   0  0  0  0  0  0  0  0  0  0  0  0
    3.2476  -11.8285  -37.4815 C   0  0  0  0  0  0  0  0  0  0  0  0
    4.0700  -11.4178  -38.5134 C   0  0  0  0  0  0  0  0  0  0  0  0
    3.9724  -12.0420  -39.7392 C   0  0  0  0  0  0  0  0  0  0  0  0
    3.0534  -13.0592  -39.8937 C   0  0  0  0  0  0  0  0  0  0  0  0
    5.0861  -11.5116  -41.1927 Br  0  0  0  0  0  0  0  0  0  0  0  0
    1.3536  -13.4791  -36.7628 C   0  0  0  0  0  0  0  0  0  0  0  0
    1.1467  -13.1814  -35.5656 O   0  0  0  0  0  0  0  0  0  0  0  0
  8  9  2  0  0  0
  8 10  2  0  0  0
  8 11  1  0  0  0
  8  2  1  0  0  0
 11 12  1  0  0  0
 11 16  1  0  0  0
 12 13  1  0  0  0
 13 14  1  0  0  0
 14 15  1  0  0  0
 15 16  1  0  0  0
  2  3  2  0  0  0
  2  7  1  0  0  0
  3  4  1  0  0  0
  4  5  2  0  0  0
  5  6  1  0  0  0
  5  1  1  0  0  0
  6  7  2  0  0  0
  1 17  1  0  0  0
 17 18  1  0  0  0
 18 19  2  0  0  0
 18 20  1  0  0  0
 20 21  1  0  0  0
 21 22  1  0  0  0
 21 31  1  0  0  0
 22 23  2  0  0  0
 22 24  1  0  0  0
 24 25  2  0  0  0
 24 29  1  0  0  0
 25 26  1  0  0  0
 25 31  1  0  0  0
 26 27  2  0  0  0
 27 28  1  0  0  0
 28 29  2  0  0  0
 28 30  1  0  0  0
 31 32  2  0  0  0
M  END
> <minimizedAffinity>
-7.06743

$$$$
1113


 28 31  0  0  0  0  0  0  0  0999 V2000
    3.3974  -19.4209  -39.0618 C   0  0  0  0  0  0  0  0  0  0  0  0
    3.0737  -18.4124  -39.8885 N   0  0  0  0  0  0  0  0  0  0  0  0
    2.0374  -17.7198  -39.3512 C   0  0  0  0  0  0  0  0  0  0  0  0
    1.6915  -18.2792  -38.1792 N   0  0  0  0  0  0  0  0  0  0  0  0
    2.5049  -19.3078  -37.9907 C   0  0  0  0  0  0  0  0  0  0  0  0
    4.6548  -20.6185  -39.2661 S   0  0  0  0  0  0  0  0  0  0  0  0
    5.9850  -19.9563  -38.9304 O   0  0  0  0  0  0  0  0  0  0  0  0
    4.4851  -21.7087  -38.2268 O   0  0  0  0  0  0  0  0  0  0  0  0
    4.7598  -21.2597  -40.8105 N   0  0  0  0  0  0  0  0  0  0  0  0
    5.9405  -21.0579  -41.5413 C   0  0  0  0  0  0  0  0  0  0  0  0
    6.3837  -22.3245  -42.2118 C   0  0  0  0  0  0  0  0  0  0  0  0
    5.3435  -22.7601  -43.0141 O   0  0  0  0  0  0  0  0  0  0  0  0
    4.2371  -23.1673  -42.2795 C   0  0  0  0  0  0  0  0  0  0  0  0
    3.8303  -22.2229  -41.2153 C   0  0  0  0  0  0  0  0  0  0  0  0
    0.6247  -17.8073  -37.3201 C   0  0  0  0  0  0  0  0  0  0  0  0
    0.6101  -16.3280  -37.2291 C   0  0  0  0  0  0  0  0  0  0  0  0
   -0.3699  -15.5243  -37.7197 N   0  0  0  0  0  0  0  0  0  0  0  0
   -0.0502  -14.2933  -37.4584 O   0  0  0  0  0  0  0  0  0  0  0  0
    1.0903  -14.2212  -36.8200 C   0  0  0  0  0  0  0  0  0  0  0  0
    1.5044  -15.5060  -36.6770 N   0  0  0  0  0  0  0  0  0  0  0  0
    1.8088  -13.0025  -36.3386 C   0  0  0  0  0  0  0  0  0  0  0  0
    2.6611  -12.5325  -37.4661 C   0  0  0  0  0  0  0  0  0  0  0  0
    3.5599  -11.5045  -37.2284 C   0  0  0  0  0  0  0  0  0  0  0  0
    4.3828  -11.0093  -38.2054 C   0  0  0  0  0  0  0  0  0  0  0  0
    4.3054  -11.5584  -39.4564 C   0  0  0  0  0  0  0  0  0  0  0  0
    3.4394  -12.5683  -39.7405 C   0  0  0  0  0  0  0  0  0  0  0  0
    2.6149  -13.0521  -38.7284 C   0  0  0  0  0  0  0  0  0  0  0  0
    5.4353  -10.8947  -40.8428 Br  0  0  0  0  0  0  0  0  0  0  0  0
  6  7  2  0  0  0
  6  8  2  0  0  0
  6  9  1  0  0  0
  6  1  1  0  0  0
  9 10  1  0  0  0
  9 14  1  0  0  0
 10 11  1  0  0  0
 11 12  1  0  0  0
 12 13  1  0  0  0
 13 14  1  0  0  0
  1  2  1  0  0  0
  1  5  2  0  0  0
  2  3  2  0  0  0
  3  4  1  0  0  0
  4  5  1  0  0  0
  4 15  1  0  0  0
 15 16  1  0  0  0
 16 17  2  0  0  0
 16 20  1  0  0  0
 17 18  1  0  0  0
 18 19  1  0  0  0
 19 20  2  0  0  0
 19 21  1  0  0  0
 21 22  1  0  0  0
 22 23  2  0  0  0
 22 27  1  0  0  0
 23 24  1  0  0  0
 24 25  2  0  0  0
 25 26  1  0  0  0
 25 28  1  0  0  0
 26 27  2  0  0  0
M  END
> <minimizedAffinity>
-6.78827

$$$$
1114


 27 30  0  0  0  0  0  0  0  0999 V2000
    2.3186  -18.7796  -37.8545 C   0  0  0  0  0  0  0  0  0  0  0  0
    1.1644  -18.9277  -38.5281 N   0  0  0  0  0  0  0  0  0  0  0  0
    0.3077  -17.9716  -38.1239 C   0  0  0  0  0  0  0  0  0  0  0  0
    0.8795  -17.1952  -37.1918 N   0  0  0  0  0  0  0  0  0  0  0  0
    2.1165  -17.6901  -37.0245 C   0  0  0  0  0  0  0  0  0  0  0  0
    3.7790  -19.7655  -38.0003 S   0  0  0  0  0  0  0  0  0  0  0  0
    4.9234  -18.9459  -37.4668 O   0  0  0  0  0  0  0  0  0  0  0  0
    3.6783  -20.9958  -37.1576 O   0  0  0  0  0  0  0  0  0  0  0  0
    4.1024  -20.1499  -39.6350 N   0  0  0  0  0  0  0  0  0  0  0  0
    4.6319  -21.4463  -39.8406 C   0  0  0  0  0  0  0  0  0  0  0  0
    5.6465  -21.5923  -40.9263 C   0  0  0  0  0  0  0  0  0  0  0  0
    5.2788  -20.7031  -41.9626 O   0  0  0  0  0  0  0  0  0  0  0  0
    5.6098  -19.4388  -41.4660 C   0  0  0  0  0  0  0  0  0  0  0  0
    4.6504  -19.0810  -40.3873 C   0  0  0  0  0  0  0  0  0  0  0  0
    0.2789  -16.0631  -36.5167 C   0  0  0  0  0  0  0  0  0  0  0  0
    1.0109  -14.7988  -36.7589 C   0  0  0  0  0  0  0  0  0  0  0  0
    0.9697  -13.7227  -35.9508 N   0  0  0  0  0  0  0  0  0  0  0  0
    1.7220  -12.7942  -36.4593 O   0  0  0  0  0  0  0  0  0  0  0  0
    2.2689  -13.1955  -37.5741 C   0  0  0  0  0  0  0  0  0  0  0  0
    1.8267  -14.4490  -37.7647 N   0  0  0  0  0  0  0  0  0  0  0  0
    3.1740  -12.4030  -38.4080 C   0  0  0  0  0  0  0  0  0  0  0  0
    3.4139  -12.7174  -39.7293 C   0  0  0  0  0  0  0  0  0  0  0  0
    4.2779  -11.9533  -40.5104 C   0  0  0  0  0  0  0  0  0  0  0  0
    4.9225  -10.8546  -39.9880 C   0  0  0  0  0  0  0  0  0  0  0  0
    4.6847  -10.5376  -38.6681 C   0  0  0  0  0  0  0  0  0  0  0  0
    3.8182  -11.3061  -37.8867 C   0  0  0  0  0  0  0  0  0  0  0  0
    4.5966  -12.4071  -42.3404 Br  0  0  0  0  0  0  0  0  0  0  0  0
  6  7  2  0  0  0
  6  8  2  0  0  0
  6  9  1  0  0  0
  6  1  1  0  0  0
  9 10  1  0  0  0
  9 14  1  0  0  0
 10 11  1  0  0  0
 11 12  1  0  0  0
 12 13  1  0  0  0
 13 14  1  0  0  0
  1  2  1  0  0  0
  1  5  2  0  0  0
  2  3  2  0  0  0
  3  4  1  0  0  0
  4  5  1  0  0  0
  4 15  1  0  0  0
 15 16  1  0  0  0
 16 17  2  0  0  0
 16 20  1  0  0  0
 17 18  1  0  0  0
 18 19  1  0  0  0
 19 20  2  0  0  0
 19 21  1  0  0  0
 21 22  2  0  0  0
 21 26  1  0  0  0
 22 23  1  0  0  0
 23 24  2  0  0  0
 23 27  1  0  0  0
 24 25  1  0  0  0
 25 26  2  0  0  0
M  END
> <minimizedAffinity>
-6.78466

$$$$
1130


 29 32  0  0  0  0  0  0  0  0999 V2000
    4.2786  -22.8229  -42.1187 C   0  0  0  0  0  0  0  0  0  0  0  0
    3.0336  -22.3280  -42.2260 N   0  0  0  0  0  0  0  0  0  0  0  0
    2.5176  -21.4462  -41.3849 N   0  0  0  0  0  0  0  0  0  0  0  0
    3.2353  -20.9816  -40.3400 C   0  0  0  0  0  0  0  0  0  0  0  0
    4.5169  -21.4762  -40.2088 C   0  0  0  0  0  0  0  0  0  0  0  0
    5.0275  -20.8769  -39.1146 N   0  0  0  0  0  0  0  0  0  0  0  0
    4.1363  -20.0393  -38.5602 C   0  0  0  0  0  0  0  0  0  0  0  0
    2.9846  -20.0839  -39.3160 C   0  0  0  0  0  0  0  0  0  0  0  0
    1.8603  -19.3304  -39.0142 C   0  0  0  0  0  0  0  0  0  0  0  0
    1.9357  -18.5136  -37.8998 C   0  0  0  0  0  0  0  0  0  0  0  0
    3.0759  -18.4512  -37.1251 C   0  0  0  0  0  0  0  0  0  0  0  0
    4.1789  -19.2062  -37.4431 C   0  0  0  0  0  0  0  0  0  0  0  0
    0.3844  -17.4747  -37.4829 Br  0  0  0  0  0  0  0  0  0  0  0  0
    6.3700  -21.1296  -38.6293 C   0  0  0  0  0  0  0  0  0  0  0  0
    5.0265  -22.3867  -41.0908 N   0  0  0  0  0  0  0  0  0  0  0  0
    4.9137  -24.0245  -43.3065 S   0  0  0  0  0  0  0  0  0  0  0  0
    6.6397  -23.6018  -43.6655 C   0  0  0  0  0  0  0  0  0  0  0  0
    7.4907  -24.7850  -43.3494 C   0  0  0  0  0  0  0  0  0  0  0  0
    7.0064  -25.9612  -43.3676 O   0  0  0  0  0  0  0  0  0  0  0  0
    8.8549  -24.6469  -43.0197 N   0  0  0  0  0  0  0  0  0  0  0  0
    9.2659  -23.6890  -43.0000 H   0  0  0  0  0  0  0  0  0  0  0  0
    9.6618  -25.7713  -42.7210 C   0  0  0  0  0  0  0  0  0  0  0  0
    9.8594  -26.3564  -41.5281 N   0  0  0  0  0  0  0  0  0  0  0  0
   10.6709  -27.3710  -41.6475 O   0  0  0  0  0  0  0  0  0  0  0  0
   11.0051  -27.4586  -42.8900 N   0  0  0  0  0  0  0  0  0  0  0  0
   10.4234  -26.5028  -43.6257 C   0  0  0  0  0  0  0  0  0  0  0  0
   10.5701  -26.3068  -45.0159 N   0  0  0  0  0  0  0  0  0  0  0  0
    9.7759  -25.9239  -45.5621 H   0  0  0  0  0  0  0  0  0  0  0  0
   11.4490  -26.5306  -45.5251 H   0  0  0  0  0  0  0  0  0  0  0  0
 16 17  1  0  0  0
 16  1  1  0  0  0
 17 18  1  0  0  0
 18 19  2  0  0  0
 18 20  1  0  0  0
 20 22  1  0  0  0
 22 23  2  0  0  0
 22 26  1  0  0  0
 23 24  1  0  0  0
 24 25  1  0  0  0
 25 26  2  0  0  0
 26 27  1  0  0  0
  1  2  2  0  0  0
  1 15  1  0  0  0
  2  3  1  0  0  0
  3  4  2  0  0  0
  4  5  1  0  0  0
  4  8  1  0  0  0
  5  6  1  0  0  0
  5 15  2  0  0  0
  6  7  1  0  0  0
  6 14  1  0  0  0
  7  8  2  0  0  0
  7 12  1  0  0  0
  8  9  1  0  0  0
  9 10  2  0  0  0
 10 11  1  0  0  0
 10 13  1  0  0  0
 11 12  2  0  0  0
 20 21  1  0  0  0
 27 28  1  0  0  0
 27 29  1  0  0  0
M  END
> <minimizedAffinity>
-6.84621

$$$$
1133


 35 38  0  0  0  0  0  0  0  0999 V2000
    2.1897  -17.9695  -37.1318 C   0  0  0  0  0  0  0  0  0  0  0  0
    1.7082  -18.9117  -37.9426 N   0  0  0  0  0  0  0  0  0  0  0  0
    2.7732  -19.6372  -38.3754 C   0  0  0  0  0  0  0  0  0  0  0  0
    3.0009  -20.6445  -39.2323 N   0  0  0  0  0  0  0  0  0  0  0  0
    4.1978  -21.1532  -39.5435 C   0  0  0  0  0  0  0  0  0  0  0  0
    5.3127  -20.6054  -38.9236 N   0  0  0  0  0  0  0  0  0  0  0  0
    5.1877  -19.6174  -38.0729 C   0  0  0  0  0  0  0  0  0  0  0  0
    3.9434  -19.1013  -37.7719 C   0  0  0  0  0  0  0  0  0  0  0  0
    3.5217  -18.0851  -37.0294 N   0  0  0  0  0  0  0  0  0  0  0  0
    6.2546  -19.0463  -37.4259 O   0  0  0  0  0  0  0  0  0  0  0  0
    4.4258  -22.1991  -40.5004 N   0  0  0  0  0  0  0  0  0  0  0  0
    6.4179  -19.1269  -36.4288 H   0  0  0  0  0  0  0  0  0  0  0  0
    4.7113  -23.1563  -40.3059 H   0  0  0  0  0  0  0  0  0  0  0  0
    4.3198  -21.9330  -41.5407 H   0  0  0  0  0  0  0  0  0  0  0  0
    0.3663  -19.2217  -38.3172 C   0  0  0  0  0  0  0  0  0  0  0  0
   -0.0147  -20.5533  -38.0408 O   0  0  0  0  0  0  0  0  0  0  0  0
   -1.2748  -20.5608  -38.6819 C   0  0  0  0  0  0  0  0  0  0  0  0
   -0.7827  -20.2019  -40.1083 C   0  0  0  0  0  0  0  0  0  0  0  0
   -0.0210  -18.9249  -39.7301 C   0  0  0  0  0  0  0  0  0  0  0  0
   -0.9584  -17.8622  -39.7954 O   0  0  0  0  0  0  0  0  0  0  0  0
   -1.8143  -19.9740  -40.9782 O   0  0  0  0  0  0  0  0  0  0  0  0
   -1.0043  -17.6421  -40.7525 H   0  0  0  0  0  0  0  0  0  0  0  0
   -1.6141  -20.3754  -41.8575 H   0  0  0  0  0  0  0  0  0  0  0  0
   -1.9282  -21.8893  -38.6295 C   0  0  0  0  0  0  0  0  0  0  0  0
   -1.6781  -22.6107  -39.8033 O   0  0  0  0  0  0  0  0  0  0  0  0
   -1.2325  -21.9789  -40.4473 H   0  0  0  0  0  0  0  0  0  0  0  0
    1.2393  -16.6579  -36.3513 S   0  0  0  0  0  0  0  0  0  0  0  0
    0.4671  -15.5746  -37.6315 C   0  0  0  0  0  0  0  0  0  0  0  0
    1.3267  -14.3913  -37.8626 C   0  0  0  0  0  0  0  0  0  0  0  0
    1.9837  -14.1296  -39.0397 C   0  0  0  0  0  0  0  0  0  0  0  0
    2.8650  -13.1125  -39.1650 C   0  0  0  0  0  0  0  0  0  0  0  0
    3.1508  -12.2634  -38.1022 C   0  0  0  0  0  0  0  0  0  0  0  0
    2.4998  -12.5038  -36.8841 C   0  0  0  0  0  0  0  0  0  0  0  0
    1.6041  -13.5490  -36.7689 C   0  0  0  0  0  0  0  0  0  0  0  0
    1.4737  -15.2088  -40.5342 Br  0  0  0  0  0  0  0  0  0  0  0  0
 27 28  1  0  0  0
 27  1  1  0  0  0
 28 29  1  0  0  0
 29 30  2  0  0  0
 29 34  1  0  0  0
 30 31  1  0  0  0
 30 35  1  0  0  0
 31 32  2  0  0  0
 32 33  1  0  0  0
 33 34  2  0  0  0
  1  2  1  0  0  0
  1  9  2  0  0  0
  2  3  1  0  0  0
  2 15  1  0  0  0
  3  4  2  0  0  0
  3  8  1  0  0  0
  4  5  1  0  0  0
  5  6  2  0  0  0
  5 11  1  0  0  0
  6  7  1  0  0  0
  7  8  2  0  0  0
  7 10  1  0  0  0
  8  9  1  0  0  0
 15 16  1  0  0  0
 15 19  1  0  0  0
 16 17  1  0  0  0
 17 18  1  0  0  0
 17 24  1  0  0  0
 18 19  1  0  0  0
 18 21  1  0  0  0
 19 20  1  0  0  0
 24 25  1  0  0  0
 10 12  1  0  0  0
 11 13  1  0  0  0
 11 14  1  0  0  0
 20 22  1  0  0  0
 21 23  1  0  0  0
 25 26  1  0  0  0
M  END
> <minimizedAffinity>
-6.83820

$$$$
1143


 33 37  0  0  0  0  0  0  0  0999 V2000
    0.7704  -15.1401  -38.9755 C   0  0  0  0  0  0  0  0  0  0  0  0
   -0.2652  -14.6361  -39.8671 N   0  0  0  0  0  0  0  0  0  0  0  0
    0.2781  -14.4360  -41.1995 C   0  0  0  0  0  0  0  0  0  0  0  0
    1.7826  -14.4757  -41.2637 C   0  0  0  0  0  0  0  0  0  0  0  0
    2.3202  -13.7129  -40.0811 C   0  0  0  0  0  0  0  0  0  0  0  0
    1.7427  -14.0697  -38.8392 C   0  0  0  0  0  0  0  0  0  0  0  0
    2.1423  -13.4203  -37.7043 C   0  0  0  0  0  0  0  0  0  0  0  0
    3.1134  -12.4296  -37.8303 C   0  0  0  0  0  0  0  0  0  0  0  0
    3.6612  -12.1020  -39.0481 C   0  0  0  0  0  0  0  0  0  0  0  0
    3.2663  -12.7482  -40.2047 C   0  0  0  0  0  0  0  0  0  0  0  0
    4.5857  -11.0967  -38.8536 O   0  0  0  0  0  0  0  0  0  0  0  0
    4.4241  -10.5806  -37.5554 C   0  0  0  0  0  0  0  0  0  0  0  0
    3.7041  -11.6223  -36.8964 O   0  0  0  0  0  0  0  0  0  0  0  0
   -0.8810  -13.4256  -39.4445 C   0  0  0  0  0  0  0  0  0  0  0  0
   -0.9894  -15.3815  -39.9343 H   0  0  0  0  0  0  0  0  0  0  0  0
    0.2743  -19.3953  -40.8662 S   0  0  0  0  0  0  0  0  0  0  0  0
    0.1267  -18.2248  -39.5250 C   0  0  0  0  0  0  0  0  0  0  0  0
   -0.8905  -17.4538  -39.3914 N   0  0  0  0  0  0  0  0  0  0  0  0
   -1.0764  -16.5038  -38.3554 C   0  0  0  0  0  0  0  0  0  0  0  0
   -2.1748  -16.1877  -37.8908 O   0  0  0  0  0  0  0  0  0  0  0  0
    0.2378  -15.8788  -37.8383 C   0  0  0  0  0  0  0  0  0  0  0  0
    0.9873  -17.1194  -37.4742 C   0  0  0  0  0  0  0  0  0  0  0  0
    1.4655  -17.3838  -36.3696 O   0  0  0  0  0  0  0  0  0  0  0  0
    1.1503  -18.0715  -38.5149 N   0  0  0  0  0  0  0  0  0  0  0  0
    2.3049  -18.8592  -38.5497 C   0  0  0  0  0  0  0  0  0  0  0  0
    3.3518  -18.4369  -39.3782 C   0  0  0  0  0  0  0  0  0  0  0  0
    4.5215  -19.1606  -39.4645 C   0  0  0  0  0  0  0  0  0  0  0  0
    4.6577  -20.3261  -38.7169 C   0  0  0  0  0  0  0  0  0  0  0  0
    3.6050  -20.7401  -37.8905 C   0  0  0  0  0  0  0  0  0  0  0  0
    2.4458  -20.0050  -37.8171 C   0  0  0  0  0  0  0  0  0  0  0  0
    6.2429  -21.3462  -38.8063 Br  0  0  0  0  0  0  0  0  0  0  0  0
    1.6035  -13.7234  -36.4618 O   0  0  0  0  0  0  0  0  0  0  0  0
    0.5676  -12.8967  -35.9427 C   0  0  0  0  0  0  0  0  0  0  0  0
 16 17  1  0  0  0
 17 18  2  0  0  0
 17 24  1  0  0  0
 18 19  1  0  0  0
 19 20  2  0  0  0
 19 21  1  0  0  0
 21 22  1  0  0  0
 21  1  1  0  0  0
 22 23  2  0  0  0
 22 24  1  0  0  0
 24 25  1  0  0  0
 25 26  2  0  0  0
 25 30  1  0  0  0
 26 27  1  0  0  0
 27 28  2  0  0  0
 28 29  1  0  0  0
 28 31  1  0  0  0
 29 30  2  0  0  0
  1  2  1  0  0  0
  1  6  1  0  0  0
  2  3  1  0  0  0
  2 14  1  0  0  0
  3  4  1  0  0  0
  4  5  1  0  0  0
  5  6  2  0  0  0
  5 10  1  0  0  0
  6  7  1  0  0  0
  7  8  2  0  0  0
  7 32  1  0  0  0
  8  9  1  0  0  0
  8 13  1  0  0  0
  9 10  2  0  0  0
  9 11  1  0  0  0
 11 12  1  0  0  0
 12 13  1  0  0  0
 32 33  1  0  0  0
  2 15  1  0  0  0
M  CHG 1   2   1
M  END
> <minimizedAffinity>
-6.72593

$$$$
1151


 24 27  0  0  0  0  0  0  0  0999 V2000
    5.0275  -20.4314  -38.6824 S   0  0  0  0  0  0  0  0  0  0  0  0
    6.5205  -20.3245  -38.7943 O   0  0  0  0  0  0  0  0  0  0  0  0
    4.6075  -21.7192  -38.0304 O   0  0  0  0  0  0  0  0  0  0  0  0
    4.3428  -19.0491  -37.7945 C   0  0  0  0  0  0  0  0  0  0  0  0
    2.9174  -18.9049  -38.2865 C   0  0  0  0  0  0  0  0  0  0  0  0
    2.9430  -18.4273  -39.6543 N   0  0  0  0  0  0  0  0  0  0  0  0
    3.9620  -18.8851  -40.5756 C   0  0  0  0  0  0  0  0  0  0  0  0
    4.2707  -20.3605  -40.3126 C   0  0  0  0  0  0  0  0  0  0  0  0
    1.8434  -17.5318  -39.7558 C   0  0  0  0  0  0  0  0  0  0  0  0
    1.3444  -17.0755  -40.8399 O   0  0  0  0  0  0  0  0  0  0  0  0
    1.3476  -17.1962  -38.4665 N   0  0  0  0  0  0  0  0  0  0  0  0
    2.1592  -17.8982  -37.5368 C   0  0  0  0  0  0  0  0  0  0  0  0
    2.2303  -17.7062  -36.2872 O   0  0  0  0  0  0  0  0  0  0  0  0
    0.2380  -16.3157  -38.1334 C   0  0  0  0  0  0  0  0  0  0  0  0
   -0.5764  -16.8706  -36.9777 C   0  0  0  0  0  0  0  0  0  0  0  0
   -1.7542  -15.9107  -36.7968 C   0  0  0  0  0  0  0  0  0  0  0  0
   -1.1977  -14.6874  -36.3496 O   0  0  0  0  0  0  0  0  0  0  0  0
    0.0144  -14.2318  -36.8558 C   0  0  0  0  0  0  0  0  0  0  0  0
    0.7441  -14.9920  -37.7249 C   0  0  0  0  0  0  0  0  0  0  0  0
    1.9361  -14.5444  -38.2227 C   0  0  0  0  0  0  0  0  0  0  0  0
    2.3920  -13.3087  -37.8307 C   0  0  0  0  0  0  0  0  0  0  0  0
    1.6481  -12.5561  -36.9575 C   0  0  0  0  0  0  0  0  0  0  0  0
    0.4394  -12.9805  -36.4359 C   0  0  0  0  0  0  0  0  0  0  0  0
   -0.5814  -11.9278  -35.2263 Br  0  0  0  0  0  0  0  0  0  0  0  0
  1  2  2  0  0  0
  1  3  2  0  0  0
  1  4  1  0  0  0
  1  8  1  0  0  0
  4  5  1  0  0  0
  5  6  1  0  0  0
  5 12  1  0  0  0
  6  7  1  0  0  0
  6  9  1  0  0  0
  7  8  1  0  0  0
  9 10  2  0  0  0
  9 11  1  0  0  0
 11 12  1  0  0  0
 11 14  1  0  0  0
 12 13  2  0  0  0
 14 15  1  0  0  0
 14 19  1  0  0  0
 15 16  1  0  0  0
 16 17  1  0  0  0
 17 18  1  0  0  0
 18 19  2  0  0  0
 18 23  1  0  0  0
 19 20  1  0  0  0
 20 21  2  0  0  0
 21 22  1  0  0  0
 22 23  2  0  0  0
 23 24  1  0  0  0
M  END
> <minimizedAffinity>
-6.33585

$$$$
1157


 24 27  0  0  0  0  0  0  0  0999 V2000
    1.4375  -16.6572  -36.5092 C   0  0  0  0  0  0  0  0  0  0  0  0
    2.3983  -17.8112  -36.6406 C   0  0  0  0  0  0  0  0  0  0  0  0
    1.9881  -18.3925  -37.9101 N   0  0  0  0  0  0  0  0  0  0  0  0
    0.5482  -18.4699  -37.8440 C   0  0  0  0  0  0  0  0  0  0  0  0
    0.1454  -17.2956  -36.9721 C   0  0  0  0  0  0  0  0  0  0  0  0
    2.8758  -18.7869  -38.9685 C   0  0  0  0  0  0  0  0  0  0  0  0
    2.9752  -18.0622  -40.0988 N   0  0  0  0  0  0  0  0  0  0  0  0
    3.8139  -18.4571  -41.0724 C   0  0  0  0  0  0  0  0  0  0  0  0
    4.5835  -19.5862  -40.9576 C   0  0  0  0  0  0  0  0  0  0  0  0
    4.4967  -20.3204  -39.8354 N   0  0  0  0  0  0  0  0  0  0  0  0
    3.6525  -19.9158  -38.8663 C   0  0  0  0  0  0  0  0  0  0  0  0
    3.7825  -20.8340  -37.8893 N   0  0  0  0  0  0  0  0  0  0  0  0
    4.6596  -21.7646  -38.2250 N   0  0  0  0  0  0  0  0  0  0  0  0
    5.1214  -21.4587  -39.4492 C   0  0  0  0  0  0  0  0  0  0  0  0
    1.5954  -14.2246  -37.0990 C   0  0  0  0  0  0  0  0  0  0  0  0
    1.1878  -13.8443  -35.9737 O   0  0  0  0  0  0  0  0  0  0  0  0
    1.7473  -15.5863  -37.4449 N   0  0  0  0  0  0  0  0  0  0  0  0
    2.0923  -15.8116  -38.4042 H   0  0  0  0  0  0  0  0  0  0  0  0
    1.3354  -11.5463  -38.1363 S   0  0  0  0  0  0  0  0  0  0  0  0
    1.9153  -13.1488  -38.0648 C   0  0  0  0  0  0  0  0  0  0  0  0
    2.7685  -13.2100  -39.1358 C   0  0  0  0  0  0  0  0  0  0  0  0
    2.9087  -12.1113  -39.8806 C   0  0  0  0  0  0  0  0  0  0  0  0
    2.1845  -11.0068  -39.5117 C   0  0  0  0  0  0  0  0  0  0  0  0
    4.0662  -12.0017  -41.4333 Br  0  0  0  0  0  0  0  0  0  0  0  0
 19 20  1  0  0  0
 19 23  1  0  0  0
 20 21  2  0  0  0
 20 15  1  0  0  0
 21 22  1  0  0  0
 22 23  2  0  0  0
 22 24  1  0  0  0
 15 16  2  0  0  0
 15 17  1  0  0  0
 17  1  1  0  0  0
  1  2  1  0  0  0
  1  5  1  0  0  0
  2  3  1  0  0  0
  3  4  1  0  0  0
  3  6  1  0  0  0
  4  5  1  0  0  0
  6  7  2  0  0  0
  6 11  1  0  0  0
  7  8  1  0  0  0
  8  9  2  0  0  0
  9 10  1  0  0  0
 10 11  1  0  0  0
 10 14  1  0  0  0
 11 12  2  0  0  0
 12 13  1  0  0  0
 13 14  2  0  0  0
 17 18  1  0  0  0
M  END
> <minimizedAffinity>
-5.83651

$$$$
1160


 25 28  0  0  0  0  0  0  0  0999 V2000
    1.2218  -15.0765  -36.4876 C   0  0  0  0  0  0  0  0  0  0  0  0
    2.0163  -15.9143  -37.1783 N   0  0  0  0  0  0  0  0  0  0  0  0
    1.5535  -17.1730  -37.0879 C   0  0  0  0  0  0  0  0  0  0  0  0
    0.4529  -17.0842  -36.3224 N   0  0  0  0  0  0  0  0  0  0  0  0
    0.2757  -15.8287  -35.9775 O   0  0  0  0  0  0  0  0  0  0  0  0
    2.1051  -18.3914  -37.6809 C   0  0  0  0  0  0  0  0  0  0  0  0
    3.3166  -18.9167  -37.4321 N   0  0  0  0  0  0  0  0  0  0  0  0
    3.4884  -20.0328  -38.1487 N   0  0  0  0  0  0  0  0  0  0  0  0
    2.3685  -20.2390  -38.8775 C   0  0  0  0  0  0  0  0  0  0  0  0
    1.5345  -19.2171  -38.5736 N   0  0  0  0  0  0  0  0  0  0  0  0
    4.6675  -20.8824  -38.1500 C   0  0  0  0  0  0  0  0  0  0  0  0
    5.8064  -20.1075  -38.6869 C   0  0  0  0  0  0  0  0  0  0  0  0
    6.1293  -20.2675  -39.8843 O   0  0  0  0  0  0  0  0  0  0  0  0
    6.5067  -19.2062  -37.8515 N   0  0  0  0  0  0  0  0  0  0  0  0
    6.7910  -18.2445  -38.1863 H   0  0  0  0  0  0  0  0  0  0  0  0
    6.7859  -19.4212  -36.8637 H   0  0  0  0  0  0  0  0  0  0  0  0
    0.8275  -12.7883  -37.5166 C   0  0  0  0  0  0  0  0  0  0  0  0
    1.3766  -13.5878  -36.3269 C   0  0  0  0  0  0  0  0  0  0  0  0
    0.1672  -12.7409  -36.2104 C   0  0  0  0  0  0  0  0  0  0  0  0
    2.6499   -9.4155  -38.2227 S   0  0  0  0  0  0  0  0  0  0  0  0
    3.6191  -10.6737  -38.8259 C   0  0  0  0  0  0  0  0  0  0  0  0
    2.8994  -11.8014  -38.5295 C   0  0  0  0  0  0  0  0  0  0  0  0
    1.7192  -11.6194  -37.8941 C   0  0  0  0  0  0  0  0  0  0  0  0
    1.3559  -10.3336  -37.6089 C   0  0  0  0  0  0  0  0  0  0  0  0
    5.3278  -10.5836  -39.7203 Br  0  0  0  0  0  0  0  0  0  0  0  0
 20 21  1  0  0  0
 20 24  1  0  0  0
 21 22  2  0  0  0
 21 25  1  0  0  0
 22 23  1  0  0  0
 23 24  2  0  0  0
 23 17  1  0  0  0
 17 18  1  0  0  0
 17 19  1  0  0  0
 18 19  1  0  0  0
 18  1  1  0  0  0
  1  2  2  0  0  0
  1  5  1  0  0  0
  2  3  1  0  0  0
  3  4  2  0  0  0
  3  6  1  0  0  0
  4  5  1  0  0  0
  6  7  2  0  0  0
  6 10  1  0  0  0
  7  8  1  0  0  0
  8  9  1  0  0  0
  8 11  1  0  0  0
  9 10  2  0  0  0
 11 12  1  0  0  0
 12 13  2  0  0  0
 12 14  1  0  0  0
 14 15  1  0  0  0
 14 16  1  0  0  0
M  END
> <minimizedAffinity>
-5.87815

$$$$
1161


 29 32  0  0  0  0  0  0  0  0999 V2000
    0.3687  -16.7192  -38.7747 N   0  0  0  0  0  0  0  0  0  0  0  0
   -0.2930  -17.7559  -38.2074 C   0  0  0  0  0  0  0  0  0  0  0  0
    0.1873  -18.9322  -38.6979 C   0  0  0  0  0  0  0  0  0  0  0  0
   -0.3337  -20.1379  -38.2644 C   0  0  0  0  0  0  0  0  0  0  0  0
   -1.3441  -20.1321  -37.3303 C   0  0  0  0  0  0  0  0  0  0  0  0
   -1.8444  -18.9615  -36.8202 C   0  0  0  0  0  0  0  0  0  0  0  0
   -1.3040  -17.7785  -37.2730 C   0  0  0  0  0  0  0  0  0  0  0  0
    1.1471  -18.6179  -39.5733 N   0  0  0  0  0  0  0  0  0  0  0  0
    1.2538  -17.2588  -39.6169 C   0  0  0  0  0  0  0  0  0  0  0  0
    2.1043  -16.7026  -40.3970 N   0  0  0  0  0  0  0  0  0  0  0  0
    2.2876  -15.7117  -40.5432 H   0  0  0  0  0  0  0  0  0  0  0  0
    0.1135  -15.3314  -38.4806 C   0  0  0  0  0  0  0  0  0  0  0  0
    1.0660  -14.7927  -37.4791 C   0  0  0  0  0  0  0  0  0  0  0  0
    1.1223  -15.2675  -36.3180 O   0  0  0  0  0  0  0  0  0  0  0  0
    2.6923  -13.2410  -39.2843 S   0  0  0  0  0  0  0  0  0  0  0  0
    3.5970  -11.8953  -38.7748 C   0  0  0  0  0  0  0  0  0  0  0  0
    3.3150  -11.8299  -37.4383 C   0  0  0  0  0  0  0  0  0  0  0  0
    2.4866  -12.7465  -36.9335 C   0  0  0  0  0  0  0  0  0  0  0  0
    1.9790  -13.6880  -37.7932 C   0  0  0  0  0  0  0  0  0  0  0  0
    4.7181  -10.7723  -39.8332 Br  0  0  0  0  0  0  0  0  0  0  0  0
    1.9352  -19.5866  -40.3223 C   0  0  0  0  0  0  0  0  0  0  0  0
    3.3501  -19.6168  -39.7247 C   0  0  0  0  0  0  0  0  0  0  0  0
    3.5078  -20.6770  -38.7714 N   0  0  0  0  0  0  0  0  0  0  0  0
    4.7952  -21.3393  -38.8326 C   0  0  0  0  0  0  0  0  0  0  0  0
    5.9344  -20.3614  -38.7734 C   0  0  0  0  0  0  0  0  0  0  0  0
    5.7972  -19.3584  -37.6779 C   0  0  0  0  0  0  0  0  0  0  0  0
    4.4075  -19.0438  -37.2534 C   0  0  0  0  0  0  0  0  0  0  0  0
    3.3987  -20.1196  -37.4452 C   0  0  0  0  0  0  0  0  0  0  0  0
    2.7965  -21.4224  -38.9338 H   0  0  0  0  0  0  0  0  0  0  0  0
 15 16  1  0  0  0
 15 19  1  0  0  0
 16 17  2  0  0  0
 16 20  1  0  0  0
 17 18  1  0  0  0
 18 19  2  0  0  0
 19 13  1  0  0  0
 13 14  2  0  0  0
 13 12  1  0  0  0
 12  1  1  0  0  0
  1  2  1  0  0  0
  1  9  1  0  0  0
  2  3  1  0  0  0
  2  7  2  0  0  0
  3  4  2  0  0  0
  3  8  1  0  0  0
  4  5  1  0  0  0
  5  6  2  0  0  0
  6  7  1  0  0  0
  8  9  1  0  0  0
  8 21  1  0  0  0
  9 10  2  0  0  0
 21 22  1  0  0  0
 22 23  1  0  0  0
 23 24  1  0  0  0
 23 28  1  0  0  0
 24 25  1  0  0  0
 25 26  1  0  0  0
 26 27  1  0  0  0
 27 28  1  0  0  0
 10 11  1  0  0  0
 23 29  1  0  0  0
M  CHG 1  23   1
M  END
> <minimizedAffinity>
-6.28054

$$$$
1177


 33 36  0  0  0  0  0  0  0  0999 V2000
    1.0385  -16.8014  -38.7054 C   0  0  0  0  0  0  0  0  0  0  0  0
    1.8215  -17.6795  -38.1086 C   0  0  0  0  0  0  0  0  0  0  0  0
    2.3437  -18.9797  -38.6459 C   0  0  0  0  0  0  0  0  0  0  0  0
    3.6241  -19.1150  -38.0245 N   0  0  0  0  0  0  0  0  0  0  0  0
    3.4469  -18.5256  -36.7062 C   0  0  0  0  0  0  0  0  0  0  0  0
    4.1945  -18.7998  -35.7284 O   0  0  0  0  0  0  0  0  0  0  0  0
    2.3134  -17.6191  -36.7383 C   0  0  0  0  0  0  0  0  0  0  0  0
    1.8467  -16.9224  -35.7768 O   0  0  0  0  0  0  0  0  0  0  0  0
    0.5937  -17.0662  -40.0210 O   0  0  0  0  0  0  0  0  0  0  0  0
   -0.7280  -15.3716  -37.0056 S   0  0  0  0  0  0  0  0  0  0  0  0
   -0.5639  -13.7060  -36.6769 C   0  0  0  0  0  0  0  0  0  0  0  0
    0.5163  -13.3906  -37.3660 N   0  0  0  0  0  0  0  0  0  0  0  0
    1.1387  -14.3007  -38.0556 C   0  0  0  0  0  0  0  0  0  0  0  0
    0.6294  -15.5725  -38.0289 C   0  0  0  0  0  0  0  0  0  0  0  0
    2.3602  -13.9214  -38.8830 C   0  0  0  0  0  0  0  0  0  0  0  0
   -1.4318  -12.8155  -35.8182 C   0  0  0  0  0  0  0  0  0  0  0  0
    2.2958  -19.0262  -40.1014 C   0  0  0  0  0  0  0  0  0  0  0  0
    3.1275  -18.1469  -40.8125 C   0  0  0  0  0  0  0  0  0  0  0  0
    3.1899  -18.1130  -42.1822 C   0  0  0  0  0  0  0  0  0  0  0  0
    2.4107  -18.9724  -42.9168 C   0  0  0  0  0  0  0  0  0  0  0  0
    1.5770  -19.8568  -42.2500 C   0  0  0  0  0  0  0  0  0  0  0  0
    1.5407  -19.8621  -40.8717 C   0  0  0  0  0  0  0  0  0  0  0  0
    4.3313  -16.9054  -43.1241 Br  0  0  0  0  0  0  0  0  0  0  0  0
    4.8386  -19.7322  -38.4689 C   0  0  0  0  0  0  0  0  0  0  0  0
    4.8006  -21.2148  -38.6515 C   0  0  0  0  0  0  0  0  0  0  0  0
    5.6713  -21.6386  -39.8444 C   0  0  0  0  0  0  0  0  0  0  0  0
    5.0376  -21.1948  -41.0398 N   0  0  0  0  0  0  0  0  0  0  0  0
    5.8593  -20.4833  -41.9660 C   0  0  0  0  0  0  0  0  0  0  0  0
    6.8002  -21.3734  -42.7428 C   0  0  0  0  0  0  0  0  0  0  0  0
    6.6161  -22.6861  -42.2533 O   0  0  0  0  0  0  0  0  0  0  0  0
    5.3108  -23.0372  -42.6523 C   0  0  0  0  0  0  0  0  0  0  0  0
    4.3694  -22.2738  -41.7439 C   0  0  0  0  0  0  0  0  0  0  0  0
    4.2615  -20.5266  -40.7487 H   0  0  0  0  0  0  0  0  0  0  0  0
 10 11  1  0  0  0
 10 14  1  0  0  0
 11 12  2  0  0  0
 11 16  1  0  0  0
 12 13  1  0  0  0
 13 14  2  0  0  0
 13 15  1  0  0  0
 14  1  1  0  0  0
  1  2  2  0  0  0
  1  9  1  0  0  0
  2  3  1  0  0  0
  2  7  1  0  0  0
  3  4  1  0  0  0
  3 17  1  0  0  0
  4  5  1  0  0  0
  4 24  1  0  0  0
  5  6  2  0  0  0
  5  7  1  0  0  0
  7  8  2  0  0  0
 24 25  1  0  0  0
 25 26  1  0  0  0
 26 27  1  0  0  0
 27 28  1  0  0  0
 27 32  1  0  0  0
 28 29  1  0  0  0
 29 30  1  0  0  0
 30 31  1  0  0  0
 31 32  1  0  0  0
 17 18  2  0  0  0
 17 22  1  0  0  0
 18 19  1  0  0  0
 19 20  2  0  0  0
 19 23  1  0  0  0
 20 21  1  0  0  0
 21 22  2  0  0  0
 27 33  1  0  0  0
M  CHG 1   9  -1
M  CHG 1  27   1
M  END
> <minimizedAffinity>
-6.03477

$$$$
1178


 33 36  0  0  0  0  0  0  0  0999 V2000
   -0.0834  -11.1330  -37.1334 C   0  0  0  0  0  0  0  0  0  0  0  0
    0.0117  -12.3852  -36.7965 C   0  0  0  0  0  0  0  0  0  0  0  0
    1.2852  -13.1686  -36.7336 C   0  0  0  0  0  0  0  0  0  0  0  0
    0.8603  -14.4886  -37.1172 N   0  0  0  0  0  0  0  0  0  0  0  0
   -0.4587  -14.6355  -36.5739 C   0  0  0  0  0  0  0  0  0  0  0  0
   -1.0323  -15.7110  -36.3243 O   0  0  0  0  0  0  0  0  0  0  0  0
   -1.0240  -13.3111  -36.3568 C   0  0  0  0  0  0  0  0  0  0  0  0
   -2.1421  -12.9545  -35.8950 O   0  0  0  0  0  0  0  0  0  0  0  0
    1.0807  -10.4194  -37.4657 O   0  0  0  0  0  0  0  0  0  0  0  0
   -2.5866  -10.4595  -38.4043 S   0  0  0  0  0  0  0  0  0  0  0  0
   -3.7755   -9.5225  -37.6230 C   0  0  0  0  0  0  0  0  0  0  0  0
   -3.2111   -9.2570  -36.4625 N   0  0  0  0  0  0  0  0  0  0  0  0
   -2.0227   -9.7087  -36.2009 C   0  0  0  0  0  0  0  0  0  0  0  0
   -1.3994  -10.4579  -37.1694 C   0  0  0  0  0  0  0  0  0  0  0  0
   -1.3560   -9.4583  -34.8508 C   0  0  0  0  0  0  0  0  0  0  0  0
   -5.1351   -9.0866  -38.0990 C   0  0  0  0  0  0  0  0  0  0  0  0
    2.3212  -12.5589  -37.5804 C   0  0  0  0  0  0  0  0  0  0  0  0
    2.3918  -12.6082  -38.9456 C   0  0  0  0  0  0  0  0  0  0  0  0
    3.3836  -12.0258  -39.7018 C   0  0  0  0  0  0  0  0  0  0  0  0
    4.3830  -11.3419  -39.0572 C   0  0  0  0  0  0  0  0  0  0  0  0
    4.3687  -11.2573  -37.6898 C   0  0  0  0  0  0  0  0  0  0  0  0
    3.3619  -11.8508  -36.9642 C   0  0  0  0  0  0  0  0  0  0  0  0
    5.7616  -10.5307  -40.1135 Br  0  0  0  0  0  0  0  0  0  0  0  0
    1.6421  -15.4275  -37.8648 C   0  0  0  0  0  0  0  0  0  0  0  0
    2.0019  -16.6646  -37.1532 C   0  0  0  0  0  0  0  0  0  0  0  0
    2.3607  -17.8242  -37.9279 C   0  0  0  0  0  0  0  0  0  0  0  0
    2.6083  -19.1231  -37.5155 N   0  0  0  0  0  0  0  0  0  0  0  0
    3.8927  -19.1950  -36.7244 C   0  0  0  0  0  0  0  0  0  0  0  0
    5.0484  -19.2068  -37.6694 C   0  0  0  0  0  0  0  0  0  0  0  0
    5.0154  -20.4200  -38.3477 O   0  0  0  0  0  0  0  0  0  0  0  0
    3.9010  -20.3332  -39.2123 C   0  0  0  0  0  0  0  0  0  0  0  0
    2.6247  -20.2141  -38.4264 C   0  0  0  0  0  0  0  0  0  0  0  0
    1.9235  -19.3958  -36.7695 H   0  0  0  0  0  0  0  0  0  0  0  0
 10 11  1  0  0  0
 10 14  1  0  0  0
 11 12  2  0  0  0
 11 16  1  0  0  0
 12 13  1  0  0  0
 13 14  2  0  0  0
 13 15  1  0  0  0
 14  1  1  0  0  0
  1  2  2  0  0  0
  1  9  1  0  0  0
  2  3  1  0  0  0
  2  7  1  0  0  0
  3  4  1  0  0  0
  3 17  1  0  0  0
  4  5  1  0  0  0
  4 24  1  0  0  0
  5  6  2  0  0  0
  5  7  1  0  0  0
  7  8  2  0  0  0
 24 25  1  0  0  0
 25 26  1  0  0  0
 26 27  1  0  0  0
 27 28  1  0  0  0
 27 32  1  0  0  0
 28 29  1  0  0  0
 29 30  1  0  0  0
 30 31  1  0  0  0
 31 32  1  0  0  0
 17 18  2  0  0  0
 17 22  1  0  0  0
 18 19  1  0  0  0
 19 20  2  0  0  0
 20 21  1  0  0  0
 20 23  1  0  0  0
 21 22  2  0  0  0
 27 33  1  0  0  0
M  CHG 1   9  -1
M  CHG 1  27   1
M  END
> <minimizedAffinity>
-6.41082

$$$$
1180


 32 35  0  0  0  0  0  0  0  0999 V2000
    2.4034  -20.4170  -40.3511 C   0  0  0  0  0  0  0  0  0  0  0  0
    2.5663  -20.1346  -39.0758 C   0  0  0  0  0  0  0  0  0  0  0  0
    1.5830  -19.5792  -38.0966 C   0  0  0  0  0  0  0  0  0  0  0  0
    2.3649  -18.5882  -37.4651 N   0  0  0  0  0  0  0  0  0  0  0  0
    3.6154  -19.3253  -37.1696 C   0  0  0  0  0  0  0  0  0  0  0  0
    4.4061  -19.1239  -36.2093 O   0  0  0  0  0  0  0  0  0  0  0  0
    3.7383  -20.3276  -38.2225 C   0  0  0  0  0  0  0  0  0  0  0  0
    4.6341  -21.2060  -38.4178 O   0  0  0  0  0  0  0  0  0  0  0  0
    1.1771  -20.2068  -40.9562 O   0  0  0  0  0  0  0  0  0  0  0  0
    3.8914  -22.5752  -41.5507 S   0  0  0  0  0  0  0  0  0  0  0  0
    5.3717  -22.3239  -42.3507 C   0  0  0  0  0  0  0  0  0  0  0  0
    5.5486  -21.0248  -42.2147 N   0  0  0  0  0  0  0  0  0  0  0  0
    4.6713  -20.3091  -41.5826 C   0  0  0  0  0  0  0  0  0  0  0  0
    3.5700  -20.9523  -41.0693 C   0  0  0  0  0  0  0  0  0  0  0  0
    4.8350  -18.8017  -41.4533 C   0  0  0  0  0  0  0  0  0  0  0  0
    6.2595  -23.3257  -43.0383 C   0  0  0  0  0  0  0  0  0  0  0  0
    0.2374  -19.4240  -38.5291 C   0  0  0  0  0  0  0  0  0  0  0  0
   -0.6663  -20.4701  -38.3220 C   0  0  0  0  0  0  0  0  0  0  0  0
   -1.9754  -20.4094  -38.7233 C   0  0  0  0  0  0  0  0  0  0  0  0
   -2.4059  -19.2621  -39.3557 C   0  0  0  0  0  0  0  0  0  0  0  0
   -1.5297  -18.2184  -39.5698 C   0  0  0  0  0  0  0  0  0  0  0  0
   -0.2195  -18.3028  -39.1583 C   0  0  0  0  0  0  0  0  0  0  0  0
   -4.2171  -19.0946  -39.9476 Br  0  0  0  0  0  0  0  0  0  0  0  0
    2.2864  -17.2446  -37.0019 C   0  0  0  0  0  0  0  0  0  0  0  0
    1.1663  -16.8180  -36.1542 C   0  0  0  0  0  0  0  0  0  0  0  0
    0.8359  -15.4637  -35.9705 N   0  0  0  0  0  0  0  0  0  0  0  0
    1.5616  -14.5424  -36.8192 C   0  0  0  0  0  0  0  0  0  0  0  0
    1.1628  -13.1414  -36.3668 C   0  0  0  0  0  0  0  0  0  0  0  0
    0.0051  -13.1790  -35.5898 O   0  0  0  0  0  0  0  0  0  0  0  0
   -0.9406  -13.8898  -36.3562 C   0  0  0  0  0  0  0  0  0  0  0  0
   -0.5703  -15.3402  -36.4771 C   0  0  0  0  0  0  0  0  0  0  0  0
    0.7960  -15.2055  -34.9792 H   0  0  0  0  0  0  0  0  0  0  0  0
 10 11  1  0  0  0
 10 14  1  0  0  0
 11 12  2  0  0  0
 11 16  1  0  0  0
 12 13  1  0  0  0
 13 14  2  0  0  0
 13 15  1  0  0  0
 14  1  1  0  0  0
  1  2  2  0  0  0
  1  9  1  0  0  0
  2  3  1  0  0  0
  2  7  1  0  0  0
  3  4  1  0  0  0
  3 17  1  0  0  0
  4  5  1  0  0  0
  4 24  1  0  0  0
  5  6  2  0  0  0
  5  7  1  0  0  0
  7  8  2  0  0  0
 24 25  1  0  0  0
 25 26  1  0  0  0
 26 27  1  0  0  0
 26 31  1  0  0  0
 27 28  1  0  0  0
 28 29  1  0  0  0
 29 30  1  0  0  0
 30 31  1  0  0  0
 17 18  2  0  0  0
 17 22  1  0  0  0
 18 19  1  0  0  0
 19 20  2  0  0  0
 20 21  1  0  0  0
 20 23  1  0  0  0
 21 22  2  0  0  0
 26 32  1  0  0  0
M  CHG 1   9  -1
M  CHG 1  26   1
M  END
> <minimizedAffinity>
-6.27264

$$$$
1192


 27 30  0  0  0  0  0  0  0  0999 V2000
    1.2608  -18.5393  -40.0665 S   0  0  0  0  0  0  0  0  0  0  0  0
    1.0785  -17.3605  -38.8304 C   0  0  0  0  0  0  0  0  0  0  0  0
    1.9152  -17.8254  -37.8520 C   0  0  0  0  0  0  0  0  0  0  0  0
    2.5851  -18.9622  -38.0977 C   0  0  0  0  0  0  0  0  0  0  0  0
    2.3794  -19.5674  -39.3082 C   0  0  0  0  0  0  0  0  0  0  0  0
    3.1382  -20.8370  -39.5633 C   0  0  0  0  0  0  0  0  0  0  0  0
    4.5574  -20.5612  -39.3505 N   0  0  0  0  0  0  0  0  0  0  0  0
    4.8365  -19.9842  -38.0721 C   0  0  0  0  0  0  0  0  0  0  0  0
    3.5772  -19.7416  -37.2475 C   0  0  0  0  0  0  0  0  0  0  0  0
    4.9243  -19.5759  -40.3678 C   0  0  0  0  0  0  0  0  0  0  0  0
    1.9552  -16.9786  -36.6274 C   0  0  0  0  0  0  0  0  0  0  0  0
    2.6901  -17.2958  -35.6459 O   0  0  0  0  0  0  0  0  0  0  0  0
    1.1546  -15.8082  -36.5804 N   0  0  0  0  0  0  0  0  0  0  0  0
    0.6517  -15.1187  -37.7323 C   0  0  0  0  0  0  0  0  0  0  0  0
    0.2972  -16.1485  -38.6961 N   0  0  0  0  0  0  0  0  0  0  0  0
    5.1220  -21.4082  -39.5632 H   0  0  0  0  0  0  0  0  0  0  0  0
    0.9213  -15.4320  -35.6176 H   0  0  0  0  0  0  0  0  0  0  0  0
   -0.5257  -16.0600  -39.3263 H   0  0  0  0  0  0  0  0  0  0  0  0
    1.6505  -14.2019  -38.3339 C   0  0  0  0  0  0  0  0  0  0  0  0
    2.0329  -14.3061  -39.6556 C   0  0  0  0  0  0  0  0  0  0  0  0
    2.9571  -13.4637  -40.2311 C   0  0  0  0  0  0  0  0  0  0  0  0
    3.5401  -12.4673  -39.4754 C   0  0  0  0  0  0  0  0  0  0  0  0
    3.1750  -12.3442  -38.1562 C   0  0  0  0  0  0  0  0  0  0  0  0
    2.2460  -13.1933  -37.5862 C   0  0  0  0  0  0  0  0  0  0  0  0
    4.0111  -10.9429  -37.1419 Br  0  0  0  0  0  0  0  0  0  0  0  0
    4.4725  -11.6148  -40.0492 O   0  0  0  0  0  0  0  0  0  0  0  0
    3.4737  -13.6167  -42.0484 Br  0  0  0  0  0  0  0  0  0  0  0  0
  1  2  1  0  0  0
  1  5  1  0  0  0
  2  3  2  0  0  0
  2 15  1  0  0  0
  3  4  1  0  0  0
  3 11  1  0  0  0
  4  5  2  0  0  0
  4  9  1  0  0  0
  5  6  1  0  0  0
  6  7  1  0  0  0
  7  8  1  0  0  0
  7 10  1  0  0  0
  8  9  1  0  0  0
 11 12  2  0  0  0
 11 13  1  0  0  0
 13 14  1  0  0  0
 14 15  1  0  0  0
 14 19  1  0  0  0
 19 20  2  0  0  0
 19 24  1  0  0  0
 20 21  1  0  0  0
 21 22  2  0  0  0
 21 27  1  0  0  0
 22 23  1  0  0  0
 22 26  1  0  0  0
 23 24  2  0  0  0
 23 25  1  0  0  0
  7 16  1  0  0  0
 13 17  1  0  0  0
 15 18  1  0  0  0
M  CHG 1   7   1
M  CHG 1  26  -1
M  END
> <minimizedAffinity>
-7.02418

$$$$
1193


 29 32  0  0  0  0  0  0  0  0999 V2000
    1.6665  -19.9627  -39.0549 S   0  0  0  0  0  0  0  0  0  0  0  0
    1.5396  -18.6937  -40.1893 C   0  0  0  0  0  0  0  0  0  0  0  0
    2.8229  -18.5536  -40.6390 C   0  0  0  0  0  0  0  0  0  0  0  0
    3.7560  -19.3844  -40.1095 C   0  0  0  0  0  0  0  0  0  0  0  0
    3.3252  -20.2880  -39.1702 C   0  0  0  0  0  0  0  0  0  0  0  0
    4.2539  -21.2536  -38.5122 C   0  0  0  0  0  0  0  0  0  0  0  0
    5.3353  -21.6749  -39.3347 N   0  0  0  0  0  0  0  0  0  0  0  0
    5.5722  -20.9126  -40.5130 C   0  0  0  0  0  0  0  0  0  0  0  0
    5.2553  -19.4529  -40.4233 C   0  0  0  0  0  0  0  0  0  0  0  0
    6.5524  -21.8502  -38.5515 C   0  0  0  0  0  0  0  0  0  0  0  0
    2.9819  -17.4847  -41.6726 C   0  0  0  0  0  0  0  0  0  0  0  0
    4.1328  -17.2570  -42.1690 O   0  0  0  0  0  0  0  0  0  0  0  0
    1.8568  -16.7363  -42.0891 N   0  0  0  0  0  0  0  0  0  0  0  0
    0.7317  -16.5368  -41.2024 C   0  0  0  0  0  0  0  0  0  0  0  0
    0.4445  -17.8684  -40.6703 N   0  0  0  0  0  0  0  0  0  0  0  0
    5.0951  -22.6621  -39.6625 H   0  0  0  0  0  0  0  0  0  0  0  0
    1.8331  -16.3211  -43.0470 H   0  0  0  0  0  0  0  0  0  0  0  0
   -0.4997  -18.2832  -40.6053 H   0  0  0  0  0  0  0  0  0  0  0  0
    1.1859  -15.6411  -40.1067 C   0  0  0  0  0  0  0  0  0  0  0  0
    1.9748  -14.5434  -40.3758 C   0  0  0  0  0  0  0  0  0  0  0  0
    2.4062  -13.7007  -39.3742 C   0  0  0  0  0  0  0  0  0  0  0  0
    2.0409  -13.9594  -38.0596 C   0  0  0  0  0  0  0  0  0  0  0  0
    1.2530  -15.0499  -37.7613 C   0  0  0  0  0  0  0  0  0  0  0  0
    0.8433  -15.8624  -38.7715 C   0  0  0  0  0  0  0  0  0  0  0  0
    2.4654  -13.1219  -37.0309 O   0  0  0  0  0  0  0  0  0  0  0  0
    3.4967  -12.1790  -39.7317 Br  0  0  0  0  0  0  0  0  0  0  0  0
    0.9167  -15.2637  -36.4374 O   0  0  0  0  0  0  0  0  0  0  0  0
    0.7959  -16.5027  -35.8132 C   0  0  0  0  0  0  0  0  0  0  0  0
   -0.6514  -16.9308  -35.7044 C   0  0  0  0  0  0  0  0  0  0  0  0
  1  2  1  0  0  0
  1  5  1  0  0  0
  2  3  2  0  0  0
  2 15  1  0  0  0
  3  4  1  0  0  0
  3 11  1  0  0  0
  4  5  2  0  0  0
  4  9  1  0  0  0
  5  6  1  0  0  0
  6  7  1  0  0  0
  7  8  1  0  0  0
  7 10  1  0  0  0
  8  9  1  0  0  0
 11 12  2  0  0  0
 11 13  1  0  0  0
 13 14  1  0  0  0
 14 15  1  0  0  0
 14 19  1  0  0  0
 19 20  2  0  0  0
 19 24  1  0  0  0
 20 21  1  0  0  0
 21 22  2  0  0  0
 21 26  1  0  0  0
 22 23  1  0  0  0
 22 25  1  0  0  0
 23 24  2  0  0  0
 23 27  1  0  0  0
 27 28  1  0  0  0
 28 29  1  0  0  0
  7 16  1  0  0  0
 13 17  1  0  0  0
 15 18  1  0  0  0
M  CHG 1   7   1
M  CHG 1  25  -1
M  END
> <minimizedAffinity>
-5.75710

$$$$
1206


 25 28  0  0  0  0  0  0  0  0999 V2000
   -2.1516  -17.9710  -36.6347 S   0  0  0  0  0  0  0  0  0  0  0  0
   -2.0628  -19.4764  -37.6387 C   0  0  0  0  0  0  0  0  0  0  0  0
   -0.5821  -19.7320  -37.5629 C   0  0  0  0  0  0  0  0  0  0  0  0
    0.1734  -18.5178  -37.5003 N   0  0  0  0  0  0  0  0  0  0  0  0
   -0.4937  -17.4422  -37.0512 C   0  0  0  0  0  0  0  0  0  0  0  0
    0.3188  -16.3792  -37.0690 N   0  0  0  0  0  0  0  0  0  0  0  0
    1.5268  -16.7691  -37.5335 C   0  0  0  0  0  0  0  0  0  0  0  0
    1.4530  -18.1138  -37.8086 C   0  0  0  0  0  0  0  0  0  0  0  0
   -2.4107  -19.1971  -39.0809 C   0  0  0  0  0  0  0  0  0  0  0  0
   -0.0093  -15.0532  -36.6711 C   0  0  0  0  0  0  0  0  0  0  0  0
   -1.2966  -14.5721  -36.7273 C   0  0  0  0  0  0  0  0  0  0  0  0
   -1.6411  -13.2920  -36.3476 C   0  0  0  0  0  0  0  0  0  0  0  0
   -0.6653  -12.4352  -35.8881 C   0  0  0  0  0  0  0  0  0  0  0  0
    0.6417  -12.8840  -35.8181 C   0  0  0  0  0  0  0  0  0  0  0  0
    0.9594  -14.1705  -36.2036 C   0  0  0  0  0  0  0  0  0  0  0  0
   -1.1053  -10.6517  -35.3531 Br  0  0  0  0  0  0  0  0  0  0  0  0
    2.5441  -18.8993  -38.3344 C   0  0  0  0  0  0  0  0  0  0  0  0
    3.0713  -19.9169  -37.5204 C   0  0  0  0  0  0  0  0  0  0  0  0
    4.0810  -20.7267  -37.9723 C   0  0  0  0  0  0  0  0  0  0  0  0
    4.6345  -20.6035  -39.2218 C   0  0  0  0  0  0  0  0  0  0  0  0
    4.1360  -19.6154  -40.0383 C   0  0  0  0  0  0  0  0  0  0  0  0
    3.1043  -18.7880  -39.5787 C   0  0  0  0  0  0  0  0  0  0  0  0
    5.6749  -21.4785  -39.6130 N   0  0  0  0  0  0  0  0  0  0  0  0
    5.8636  -21.7442  -40.8054 O   0  0  0  0  0  0  0  0  0  0  0  0
    6.4748  -22.0317  -38.6604 O   0  0  0  0  0  0  0  0  0  0  0  0
  1  2  1  0  0  0
  1  5  1  0  0  0
  2  3  1  0  0  0
  2  9  1  0  0  0
  3  4  1  0  0  0
  4  5  1  0  0  0
  4  8  1  0  0  0
  5  6  2  0  0  0
  6  7  1  0  0  0
  6 10  1  0  0  0
  7  8  2  0  0  0
  8 17  1  0  0  0
 17 18  2  0  0  0
 17 22  1  0  0  0
 18 19  1  0  0  0
 19 20  2  0  0  0
 20 21  1  0  0  0
 20 23  1  0  0  0
 21 22  2  0  0  0
 23 24  2  0  0  0
 23 25  1  0  0  0
 10 11  2  0  0  0
 10 15  1  0  0  0
 11 12  1  0  0  0
 12 13  2  0  0  0
 13 14  1  0  0  0
 13 16  1  0  0  0
 14 15  2  0  0  0
M  CHG 1  25  -1
M  END
> <minimizedAffinity>
-6.77668

$$$$
1209


 24 27  0  0  0  0  0  0  0  0999 V2000
   -1.9956  -14.2102  -37.0395 S   0  0  0  0  0  0  0  0  0  0  0  0
   -3.6378  -14.6620  -37.6667 C   0  0  0  0  0  0  0  0  0  0  0  0
   -3.6187  -16.1552  -37.9393 C   0  0  0  0  0  0  0  0  0  0  0  0
   -2.9587  -16.8875  -36.7894 C   0  0  0  0  0  0  0  0  0  0  0  0
   -1.5275  -16.8576  -37.0428 N   0  0  0  0  0  0  0  0  0  0  0  0
   -0.9601  -15.6564  -37.1791 C   0  0  0  0  0  0  0  0  0  0  0  0
    0.3883  -15.8291  -37.4121 N   0  0  0  0  0  0  0  0  0  0  0  0
    0.6577  -17.1241  -37.4207 C   0  0  0  0  0  0  0  0  0  0  0  0
   -0.5610  -17.7563  -37.1868 C   0  0  0  0  0  0  0  0  0  0  0  0
    1.2674  -14.7226  -37.5999 C   0  0  0  0  0  0  0  0  0  0  0  0
    1.7775  -14.4263  -38.8517 C   0  0  0  0  0  0  0  0  0  0  0  0
    2.6068  -13.3448  -39.0720 C   0  0  0  0  0  0  0  0  0  0  0  0
    2.9280  -12.5434  -37.9944 C   0  0  0  0  0  0  0  0  0  0  0  0
    2.4157  -12.8467  -36.7508 C   0  0  0  0  0  0  0  0  0  0  0  0
    1.5867  -13.9202  -36.5085 C   0  0  0  0  0  0  0  0  0  0  0  0
    4.0758  -11.0168  -38.2030 Br  0  0  0  0  0  0  0  0  0  0  0  0
    1.9095  -17.8369  -37.6202 C   0  0  0  0  0  0  0  0  0  0  0  0
    2.2492  -18.2785  -38.9073 C   0  0  0  0  0  0  0  0  0  0  0  0
    3.4118  -18.9539  -39.1561 C   0  0  0  0  0  0  0  0  0  0  0  0
    4.3293  -19.2487  -38.1735 C   0  0  0  0  0  0  0  0  0  0  0  0
    4.0062  -18.8214  -36.9114 C   0  0  0  0  0  0  0  0  0  0  0  0
    2.8194  -18.1278  -36.6334 C   0  0  0  0  0  0  0  0  0  0  0  0
    5.4993  -19.9360  -38.4652 O   0  0  0  0  0  0  0  0  0  0  0  0
    5.4596  -21.3186  -38.7658 C   0  0  0  0  0  0  0  0  0  0  0  0
  1  2  1  0  0  0
  1  6  1  0  0  0
  2  3  1  0  0  0
  3  4  1  0  0  0
  4  5  1  0  0  0
  5  6  2  0  0  0
  5  9  1  0  0  0
  6  7  1  0  0  0
  7  8  1  0  0  0
  7 10  1  0  0  0
  8  9  2  0  0  0
  8 17  1  0  0  0
 17 18  2  0  0  0
 17 22  1  0  0  0
 18 19  1  0  0  0
 19 20  2  0  0  0
 20 21  1  0  0  0
 20 23  1  0  0  0
 21 22  2  0  0  0
 23 24  1  0  0  0
 10 11  2  0  0  0
 10 15  1  0  0  0
 11 12  1  0  0  0
 12 13  2  0  0  0
 13 14  1  0  0  0
 13 16  1  0  0  0
 14 15  2  0  0  0
M  END
> <minimizedAffinity>
-6.58013

$$$$
1211


 26 29  0  0  0  0  0  0  0  0999 V2000
    2.0161  -15.1345  -39.8137 S   0  0  0  0  0  0  0  0  0  0  0  0
    1.9661  -15.5854  -41.5922 C   0  0  0  0  0  0  0  0  0  0  0  0
    0.5508  -16.1269  -41.8060 C   0  0  0  0  0  0  0  0  0  0  0  0
    0.4310  -17.4303  -41.0229 C   0  0  0  0  0  0  0  0  0  0  0  0
    0.1011  -17.0834  -39.6627 N   0  0  0  0  0  0  0  0  0  0  0  0
    0.7244  -16.1094  -39.0519 C   0  0  0  0  0  0  0  0  0  0  0  0
    0.1544  -16.0020  -37.7205 N   0  0  0  0  0  0  0  0  0  0  0  0
   -0.0971  -17.3916  -37.4055 C   0  0  0  0  0  0  0  0  0  0  0  0
   -0.8950  -17.6370  -38.7399 C   0  0  0  0  0  0  0  0  0  0  0  0
   -0.8677  -17.6247  -36.3111 O   0  0  0  0  0  0  0  0  0  0  0  0
   -0.7477  -18.5855  -36.0366 H   0  0  0  0  0  0  0  0  0  0  0  0
   -0.1304  -14.8172  -37.0116 C   0  0  0  0  0  0  0  0  0  0  0  0
   -1.4654  -14.3443  -37.0310 C   0  0  0  0  0  0  0  0  0  0  0  0
   -1.8298  -13.1626  -36.4093 C   0  0  0  0  0  0  0  0  0  0  0  0
   -0.9073  -12.3988  -35.7486 C   0  0  0  0  0  0  0  0  0  0  0  0
    0.4016  -12.8324  -35.7123 C   0  0  0  0  0  0  0  0  0  0  0  0
    0.7642  -14.0371  -36.3453 C   0  0  0  0  0  0  0  0  0  0  0  0
   -1.3582  -10.7515  -34.8936 Br  0  0  0  0  0  0  0  0  0  0  0  0
    1.1569  -18.1498  -37.4799 C   0  0  0  0  0  0  0  0  0  0  0  0
    2.3509  -17.6882  -36.9530 C   0  0  0  0  0  0  0  0  0  0  0  0
    3.5167  -18.4567  -37.0933 C   0  0  0  0  0  0  0  0  0  0  0  0
    3.5276  -19.6407  -37.7282 C   0  0  0  0  0  0  0  0  0  0  0  0
    2.3277  -20.1421  -38.2743 C   0  0  0  0  0  0  0  0  0  0  0  0
    1.2008  -19.3547  -38.1148 C   0  0  0  0  0  0  0  0  0  0  0  0
    4.6846  -20.4462  -37.8931 O   0  0  0  0  0  0  0  0  0  0  0  0
    4.7156  -21.4563  -38.8791 C   0  0  0  0  0  0  0  0  0  0  0  0
  1  2  1  0  0  0
  1  6  1  0  0  0
  2  3  1  0  0  0
  3  4  1  0  0  0
  4  5  1  0  0  0
  5  6  2  0  0  0
  5  9  1  0  0  0
  6  7  1  0  0  0
  7  8  1  0  0  0
  7 12  1  0  0  0
  8  9  1  0  0  0
  8 10  1  0  0  0
  8 19  1  0  0  0
 19 20  2  0  0  0
 19 24  1  0  0  0
 20 21  1  0  0  0
 21 22  2  0  0  0
 22 23  1  0  0  0
 22 25  1  0  0  0
 23 24  2  0  0  0
 25 26  1  0  0  0
 12 13  2  0  0  0
 12 17  1  0  0  0
 13 14  1  0  0  0
 14 15  2  0  0  0
 15 16  1  0  0  0
 15 18  1  0  0  0
 16 17  2  0  0  0
 10 11  1  0  0  0
M  END
> <minimizedAffinity>
-5.75352

$$$$
1217


 28 31  0  0  0  0  0  0  0  0999 V2000
   -1.4586  -18.0046  -39.1145 S   0  0  0  0  0  0  0  0  0  0  0  0
   -2.9403  -18.3534  -38.2000 C   0  0  0  0  0  0  0  0  0  0  0  0
   -2.9307  -17.5748  -36.8998 C   0  0  0  0  0  0  0  0  0  0  0  0
   -1.7279  -17.9941  -36.0732 C   0  0  0  0  0  0  0  0  0  0  0  0
   -0.5241  -17.4166  -36.6267 N   0  0  0  0  0  0  0  0  0  0  0  0
    0.4883  -16.5912  -36.0526 C   0  0  0  0  0  0  0  0  0  0  0  0
    1.6966  -17.0953  -36.8262 C   0  0  0  0  0  0  0  0  0  0  0  0
    1.1537  -17.3635  -38.1388 N   0  0  0  0  0  0  0  0  0  0  0  0
   -0.1046  -17.5927  -37.9915 C   0  0  0  0  0  0  0  0  0  0  0  0
    0.6179  -16.8598  -34.6939 O   0  0  0  0  0  0  0  0  0  0  0  0
    0.1702  -17.7072  -34.4704 H   0  0  0  0  0  0  0  0  0  0  0  0
    0.3624  -15.1451  -36.3197 C   0  0  0  0  0  0  0  0  0  0  0  0
   -0.7961  -14.4559  -36.4934 C   0  0  0  0  0  0  0  0  0  0  0  0
   -0.7970  -13.0890  -36.7789 C   0  0  0  0  0  0  0  0  0  0  0  0
    0.3818  -12.3830  -36.8980 C   0  0  0  0  0  0  0  0  0  0  0  0
    1.5477  -13.0636  -36.7259 C   0  0  0  0  0  0  0  0  0  0  0  0
    1.5484  -14.4017  -36.4464 C   0  0  0  0  0  0  0  0  0  0  0  0
    0.3646  -10.5072  -37.2969 Br  0  0  0  0  0  0  0  0  0  0  0  0
    1.8443  -17.3436  -39.3796 C   0  0  0  0  0  0  0  0  0  0  0  0
    2.4471  -18.5267  -39.7859 C   0  0  0  0  0  0  0  0  0  0  0  0
    3.1672  -18.5794  -40.9837 C   0  0  0  0  0  0  0  0  0  0  0  0
    3.2802  -17.4433  -41.7657 C   0  0  0  0  0  0  0  0  0  0  0  0
    2.6958  -16.2560  -41.3942 C   0  0  0  0  0  0  0  0  0  0  0  0
    1.9849  -16.2695  -40.1782 C   0  0  0  0  0  0  0  0  0  0  0  0
    2.7717  -15.0869  -42.1313 O   0  0  0  0  0  0  0  0  0  0  0  0
    3.1842  -13.8386  -41.6529 C   0  0  0  0  0  0  0  0  0  0  0  0
    2.3346  -19.6552  -39.0026 O   0  0  0  0  0  0  0  0  0  0  0  0
    3.4007  -20.2923  -38.3387 C   0  0  0  0  0  0  0  0  0  0  0  0
  1  2  1  0  0  0
  1  9  1  0  0  0
  2  3  1  0  0  0
  3  4  1  0  0  0
  4  5  1  0  0  0
  5  6  1  0  0  0
  5  9  1  0  0  0
  6  7  1  0  0  0
  6 10  1  0  0  0
  6 12  1  0  0  0
  7  8  1  0  0  0
  8  9  2  0  0  0
  8 19  1  0  0  0
 19 20  2  0  0  0
 19 24  1  0  0  0
 20 21  1  0  0  0
 20 27  1  0  0  0
 21 22  2  0  0  0
 22 23  1  0  0  0
 23 24  2  0  0  0
 23 25  1  0  0  0
 25 26  1  0  0  0
 27 28  1  0  0  0
 12 13  2  0  0  0
 12 17  1  0  0  0
 13 14  1  0  0  0
 14 15  2  0  0  0
 15 16  1  0  0  0
 15 18  1  0  0  0
 16 17  2  0  0  0
 10 11  1  0  0  0
M  END
> <minimizedAffinity>
-5.62736

$$$$
1219


 27 30  0  0  0  0  0  0  0  0999 V2000
   -1.0865  -14.1626  -39.3514 S   0  0  0  0  0  0  0  0  0  0  0  0
   -2.7546  -13.8297  -38.6480 C   0  0  0  0  0  0  0  0  0  0  0  0
   -2.8351  -14.4356  -37.2575 C   0  0  0  0  0  0  0  0  0  0  0  0
   -2.2754  -15.8344  -37.2421 C   0  0  0  0  0  0  0  0  0  0  0  0
   -0.8504  -15.7867  -37.1580 N   0  0  0  0  0  0  0  0  0  0  0  0
    0.1910  -16.4896  -36.4316 C   0  0  0  0  0  0  0  0  0  0  0  0
    1.2935  -15.4511  -36.3240 C   0  0  0  0  0  0  0  0  0  0  0  0
    1.0381  -14.6303  -37.5247 N   0  0  0  0  0  0  0  0  0  0  0  0
   -0.1431  -14.8261  -37.9583 C   0  0  0  0  0  0  0  0  0  0  0  0
   -0.2352  -16.9311  -35.1946 O   0  0  0  0  0  0  0  0  0  0  0  0
    0.1081  -16.4491  -34.4290 H   0  0  0  0  0  0  0  0  0  0  0  0
    1.9866  -13.7332  -38.0953 C   0  0  0  0  0  0  0  0  0  0  0  0
    2.4608  -13.7672  -39.3736 C   0  0  0  0  0  0  0  0  0  0  0  0
    3.3734  -12.8470  -39.8707 C   0  0  0  0  0  0  0  0  0  0  0  0
    3.8404  -11.8389  -39.0521 C   0  0  0  0  0  0  0  0  0  0  0  0
    3.3793  -11.7733  -37.7424 C   0  0  0  0  0  0  0  0  0  0  0  0
    2.4657  -12.7060  -37.2673 C   0  0  0  0  0  0  0  0  0  0  0  0
    5.1025  -10.5274  -39.6426 Br  0  0  0  0  0  0  0  0  0  0  0  0
    0.7218  -17.6359  -37.2070 C   0  0  0  0  0  0  0  0  0  0  0  0
    2.0865  -17.8012  -37.3392 C   0  0  0  0  0  0  0  0  0  0  0  0
    2.5417  -18.8940  -38.0769 C   0  0  0  0  0  0  0  0  0  0  0  0
    1.6710  -19.7711  -38.6495 C   0  0  0  0  0  0  0  0  0  0  0  0
    0.3021  -19.6186  -38.5244 C   0  0  0  0  0  0  0  0  0  0  0  0
   -0.1471  -18.5197  -37.7825 C   0  0  0  0  0  0  0  0  0  0  0  0
    3.9413  -19.0725  -38.2179 N   0  0  0  0  0  0  0  0  0  0  0  0
    4.7091  -19.0475  -37.2369 O   0  0  0  0  0  0  0  0  0  0  0  0
    4.5089  -19.2809  -39.4429 O   0  0  0  0  0  0  0  0  0  0  0  0
  1  2  1  0  0  0
  1  9  1  0  0  0
  2  3  1  0  0  0
  3  4  1  0  0  0
  4  5  1  0  0  0
  5  6  1  0  0  0
  5  9  1  0  0  0
  6  7  1  0  0  0
  6 10  1  0  0  0
  6 19  1  0  0  0
  7  8  1  0  0  0
  8  9  2  0  0  0
  8 12  1  0  0  0
 12 13  2  0  0  0
 12 17  1  0  0  0
 13 14  1  0  0  0
 14 15  2  0  0  0
 15 16  1  0  0  0
 15 18  1  0  0  0
 16 17  2  0  0  0
 19 20  2  0  0  0
 19 24  1  0  0  0
 20 21  1  0  0  0
 21 22  2  0  0  0
 21 25  1  0  0  0
 22 23  1  0  0  0
 23 24  2  0  0  0
 25 26  2  0  0  0
 25 27  1  0  0  0
 10 11  1  0  0  0
M  CHG 1  27  -1
M  END
> <minimizedAffinity>
-6.80618

$$$$
1220


 27 30  0  0  0  0  0  0  0  0999 V2000
   -2.4215  -17.0738  -37.6209 S   0  0  0  0  0  0  0  0  0  0  0  0
   -2.5273  -18.7282  -36.8267 C   0  0  0  0  0  0  0  0  0  0  0  0
   -1.3735  -19.5930  -37.1161 C   0  0  0  0  0  0  0  0  0  0  0  0
   -0.4110  -19.1975  -38.1596 C   0  0  0  0  0  0  0  0  0  0  0  0
    0.0991  -17.8882  -38.1374 N   0  0  0  0  0  0  0  0  0  0  0  0
    1.3251  -17.2866  -38.5659 C   0  0  0  0  0  0  0  0  0  0  0  0
    1.4848  -16.2027  -37.5226 C   0  0  0  0  0  0  0  0  0  0  0  0
    0.1094  -15.8229  -37.2799 N   0  0  0  0  0  0  0  0  0  0  0  0
   -0.6467  -16.7598  -37.6123 C   0  0  0  0  0  0  0  0  0  0  0  0
    1.1152  -16.6334  -39.7832 O   0  0  0  0  0  0  0  0  0  0  0  0
    1.5971  -15.7903  -39.7766 H   0  0  0  0  0  0  0  0  0  0  0  0
   -0.3123  -14.5581  -36.7560 C   0  0  0  0  0  0  0  0  0  0  0  0
    0.6416  -13.7274  -36.1850 C   0  0  0  0  0  0  0  0  0  0  0  0
    0.3019  -12.4927  -35.6367 C   0  0  0  0  0  0  0  0  0  0  0  0
   -1.0048  -12.0578  -35.6443 C   0  0  0  0  0  0  0  0  0  0  0  0
   -1.9605  -12.8691  -36.2063 C   0  0  0  0  0  0  0  0  0  0  0  0
   -1.5897  -14.1060  -36.7485 C   0  0  0  0  0  0  0  0  0  0  0  0
   -1.4696  -10.3592  -34.8698 Br  0  0  0  0  0  0  0  0  0  0  0  0
    2.5029  -18.1730  -38.6209 C   0  0  0  0  0  0  0  0  0  0  0  0
    3.1390  -18.4617  -37.4173 C   0  0  0  0  0  0  0  0  0  0  0  0
    4.2441  -19.2816  -37.3654 C   0  0  0  0  0  0  0  0  0  0  0  0
    4.7759  -19.8589  -38.5049 C   0  0  0  0  0  0  0  0  0  0  0  0
    4.1467  -19.5777  -39.7025 C   0  0  0  0  0  0  0  0  0  0  0  0
    3.0247  -18.7438  -39.7522 C   0  0  0  0  0  0  0  0  0  0  0  0
    5.9111  -20.7004  -38.4247 N   0  0  0  0  0  0  0  0  0  0  0  0
    5.9004  -21.8950  -38.7427 O   0  0  0  0  0  0  0  0  0  0  0  0
    7.0965  -20.1756  -37.9767 O   0  0  0  0  0  0  0  0  0  0  0  0
  1  2  1  0  0  0
  1  9  1  0  0  0
  2  3  1  0  0  0
  3  4  1  0  0  0
  4  5  1  0  0  0
  5  6  1  0  0  0
  5  9  1  0  0  0
  6  7  1  0  0  0
  6 10  1  0  0  0
  6 19  1  0  0  0
  7  8  1  0  0  0
  8  9  2  0  0  0
  8 12  1  0  0  0
 12 13  2  0  0  0
 12 17  1  0  0  0
 13 14  1  0  0  0
 14 15  2  0  0  0
 15 16  1  0  0  0
 15 18  1  0  0  0
 16 17  2  0  0  0
 19 20  2  0  0  0
 19 24  1  0  0  0
 20 21  1  0  0  0
 21 22  2  0  0  0
 22 23  1  0  0  0
 22 25  1  0  0  0
 23 24  2  0  0  0
 25 26  2  0  0  0
 25 27  1  0  0  0
 10 11  1  0  0  0
M  CHG 1  27  -1
M  END
> <minimizedAffinity>
-6.91129

$$$$
1222


 24 27  0  0  0  0  0  0  0  0999 V2000
   -1.3471  -14.8204  -39.4274 S   0  0  0  0  0  0  0  0  0  0  0  0
   -3.0935  -14.4963  -38.9144 C   0  0  0  0  0  0  0  0  0  0  0  0
   -3.3885  -15.1805  -37.6048 C   0  0  0  0  0  0  0  0  0  0  0  0
   -2.5659  -16.4285  -37.3679 C   0  0  0  0  0  0  0  0  0  0  0  0
   -1.2063  -16.1818  -37.0846 N   0  0  0  0  0  0  0  0  0  0  0  0
   -0.1082  -16.6829  -36.2397 C   0  0  0  0  0  0  0  0  0  0  0  0
    0.5428  -15.3536  -35.9401 C   0  0  0  0  0  0  0  0  0  0  0  0
    0.4870  -14.7064  -37.2425 N   0  0  0  0  0  0  0  0  0  0  0  0
   -0.5374  -15.1215  -37.8223 C   0  0  0  0  0  0  0  0  0  0  0  0
   -0.5408  -17.2757  -35.0933 O   0  0  0  0  0  0  0  0  0  0  0  0
   -1.2419  -17.9662  -35.1972 H   0  0  0  0  0  0  0  0  0  0  0  0
    1.4835  -13.8057  -37.7722 C   0  0  0  0  0  0  0  0  0  0  0  0
    2.0548  -13.9032  -39.0016 C   0  0  0  0  0  0  0  0  0  0  0  0
    3.0455  -13.0412  -39.4551 C   0  0  0  0  0  0  0  0  0  0  0  0
    3.4879  -12.0328  -38.6403 C   0  0  0  0  0  0  0  0  0  0  0  0
    2.9092  -11.9294  -37.3900 C   0  0  0  0  0  0  0  0  0  0  0  0
    1.9346  -12.7791  -36.9458 C   0  0  0  0  0  0  0  0  0  0  0  0
    4.8549  -10.7972  -39.1791 Br  0  0  0  0  0  0  0  0  0  0  0  0
    0.8328  -17.5310  -37.0440 C   0  0  0  0  0  0  0  0  0  0  0  0
    0.4131  -18.3354  -38.0861 C   0  0  0  0  0  0  0  0  0  0  0  0
    1.3514  -19.0842  -38.7845 C   0  0  0  0  0  0  0  0  0  0  0  0
    2.7068  -19.0605  -38.4825 C   0  0  0  0  0  0  0  0  0  0  0  0
    3.1300  -18.2656  -37.4522 C   0  0  0  0  0  0  0  0  0  0  0  0
    2.1902  -17.5150  -36.7470 C   0  0  0  0  0  0  0  0  0  0  0  0
  1  2  1  0  0  0
  1  9  1  0  0  0
  2  3  1  0  0  0
  3  4  1  0  0  0
  4  5  1  0  0  0
  5  6  1  0  0  0
  5  9  1  0  0  0
  6  7  1  0  0  0
  6 10  1  0  0  0
  6 19  1  0  0  0
  7  8  1  0  0  0
  8  9  2  0  0  0
  8 12  1  0  0  0
 12 13  2  0  0  0
 12 17  1  0  0  0
 13 14  1  0  0  0
 14 15  2  0  0  0
 15 16  1  0  0  0
 15 18  1  0  0  0
 16 17  2  0  0  0
 19 20  2  0  0  0
 19 24  1  0  0  0
 20 21  1  0  0  0
 21 22  2  0  0  0
 22 23  1  0  0  0
 23 24  2  0  0  0
 10 11  1  0  0  0
M  END
> <minimizedAffinity>
-6.26989

$$$$
1224


 26 29  0  0  0  0  0  0  0  0999 V2000
   -0.6410  -15.2469  -39.8943 S   0  0  0  0  0  0  0  0  0  0  0  0
   -2.4571  -15.5394  -39.8765 C   0  0  0  0  0  0  0  0  0  0  0  0
   -2.6445  -16.8394  -39.1081 C   0  0  0  0  0  0  0  0  0  0  0  0
   -2.3313  -16.6808  -37.6534 C   0  0  0  0  0  0  0  0  0  0  0  0
   -0.9685  -16.3566  -37.3638 N   0  0  0  0  0  0  0  0  0  0  0  0
    0.0134  -16.7596  -36.3526 C   0  0  0  0  0  0  0  0  0  0  0  0
    0.6051  -15.3595  -36.1025 C   0  0  0  0  0  0  0  0  0  0  0  0
    0.7079  -14.8453  -37.4559 N   0  0  0  0  0  0  0  0  0  0  0  0
   -0.1942  -15.4106  -38.1503 C   0  0  0  0  0  0  0  0  0  0  0  0
   -0.6332  -17.2346  -35.2361 O   0  0  0  0  0  0  0  0  0  0  0  0
   -0.7872  -16.5388  -34.5539 H   0  0  0  0  0  0  0  0  0  0  0  0
    1.0544  -17.6533  -36.8903 C   0  0  0  0  0  0  0  0  0  0  0  0
    2.3988  -17.5861  -36.5986 C   0  0  0  0  0  0  0  0  0  0  0  0
    3.2973  -18.4836  -37.1515 C   0  0  0  0  0  0  0  0  0  0  0  0
    2.8609  -19.4582  -38.0019 C   0  0  0  0  0  0  0  0  0  0  0  0
    1.5194  -19.5393  -38.3048 C   0  0  0  0  0  0  0  0  0  0  0  0
    0.6400  -18.6446  -37.7502 C   0  0  0  0  0  0  0  0  0  0  0  0
    4.0554  -20.7325  -38.8037 Br  0  0  0  0  0  0  0  0  0  0  0  0
    1.6969  -13.8649  -37.8440 C   0  0  0  0  0  0  0  0  0  0  0  0
    2.1311  -12.9177  -36.9212 C   0  0  0  0  0  0  0  0  0  0  0  0
    3.0699  -11.9687  -37.2615 C   0  0  0  0  0  0  0  0  0  0  0  0
    3.6300  -11.8981  -38.5191 C   0  0  0  0  0  0  0  0  0  0  0  0
    3.2060  -12.8291  -39.4366 C   0  0  0  0  0  0  0  0  0  0  0  0
    2.2487  -13.7945  -39.0861 C   0  0  0  0  0  0  0  0  0  0  0  0
    4.5770  -10.9270  -38.8254 O   0  0  0  0  0  0  0  0  0  0  0  0
    5.2491  -10.8032  -40.0464 C   0  0  0  0  0  0  0  0  0  0  0  0
  1  2  1  0  0  0
  1  9  1  0  0  0
  2  3  1  0  0  0
  3  4  1  0  0  0
  4  5  1  0  0  0
  5  6  1  0  0  0
  5  9  1  0  0  0
  6  7  1  0  0  0
  6 10  1  0  0  0
  6 12  1  0  0  0
  7  8  1  0  0  0
  8  9  2  0  0  0
  8 19  1  0  0  0
 19 20  2  0  0  0
 19 24  1  0  0  0
 20 21  1  0  0  0
 21 22  2  0  0  0
 22 23  1  0  0  0
 22 25  1  0  0  0
 23 24  2  0  0  0
 25 26  1  0  0  0
 12 13  2  0  0  0
 12 17  1  0  0  0
 13 14  1  0  0  0
 14 15  2  0  0  0
 15 16  1  0  0  0
 15 18  1  0  0  0
 16 17  2  0  0  0
 10 11  1  0  0  0
M  END
> <minimizedAffinity>
-6.49486

$$$$
1226


 24 27  0  0  0  0  0  0  0  0999 V2000
   -0.2423  -19.4557  -38.9974 S   0  0  0  0  0  0  0  0  0  0  0  0
   -1.9023  -19.4810  -38.2646 C   0  0  0  0  0  0  0  0  0  0  0  0
   -1.7450  -18.9530  -36.8352 C   0  0  0  0  0  0  0  0  0  0  0  0
   -1.3130  -17.4805  -36.9222 C   0  0  0  0  0  0  0  0  0  0  0  0
    0.1438  -17.4531  -37.1004 N   0  0  0  0  0  0  0  0  0  0  0  0
    1.1687  -16.6645  -36.5485 C   0  0  0  0  0  0  0  0  0  0  0  0
    2.4569  -17.4041  -36.8943 C   0  0  0  0  0  0  0  0  0  0  0  0
    2.0465  -18.4096  -37.8256 N   0  0  0  0  0  0  0  0  0  0  0  0
    0.7822  -18.3979  -37.9478 C   0  0  0  0  0  0  0  0  0  0  0  0
    1.0804  -16.7041  -35.1390 O   0  0  0  0  0  0  0  0  0  0  0  0
    0.2542  -16.2080  -34.9010 H   0  0  0  0  0  0  0  0  0  0  0  0
    1.2984  -15.2699  -36.9655 C   0  0  0  0  0  0  0  0  0  0  0  0
    0.8577  -14.3101  -36.0557 C   0  0  0  0  0  0  0  0  0  0  0  0
    0.9386  -12.9479  -36.2786 C   0  0  0  0  0  0  0  0  0  0  0  0
    1.4730  -12.4810  -37.4478 C   0  0  0  0  0  0  0  0  0  0  0  0
    1.9159  -13.4180  -38.3642 C   0  0  0  0  0  0  0  0  0  0  0  0
    1.8299  -14.7866  -38.1262 C   0  0  0  0  0  0  0  0  0  0  0  0
    1.6267  -10.5935  -37.8162 Br  0  0  0  0  0  0  0  0  0  0  0  0
    2.9839  -19.3001  -38.4524 C   0  0  0  0  0  0  0  0  0  0  0  0
    3.3986  -19.0381  -39.7180 C   0  0  0  0  0  0  0  0  0  0  0  0
    4.3295  -19.8991  -40.2905 C   0  0  0  0  0  0  0  0  0  0  0  0
    4.8404  -20.9936  -39.6297 C   0  0  0  0  0  0  0  0  0  0  0  0
    4.3868  -21.2200  -38.3463 C   0  0  0  0  0  0  0  0  0  0  0  0
    3.4685  -20.3904  -37.7504 C   0  0  0  0  0  0  0  0  0  0  0  0
  1  2  1  0  0  0
  1  9  1  0  0  0
  2  3  1  0  0  0
  3  4  1  0  0  0
  4  5  1  0  0  0
  5  6  1  0  0  0
  5  9  1  0  0  0
  6  7  1  0  0  0
  6 10  1  0  0  0
  6 12  1  0  0  0
  7  8  1  0  0  0
  8  9  2  0  0  0
  8 19  1  0  0  0
 19 20  2  0  0  0
 19 24  1  0  0  0
 20 21  1  0  0  0
 21 22  2  0  0  0
 22 23  1  0  0  0
 23 24  2  0  0  0
 12 13  2  0  0  0
 12 17  1  0  0  0
 13 14  1  0  0  0
 14 15  2  0  0  0
 15 16  1  0  0  0
 15 18  1  0  0  0
 16 17  2  0  0  0
 10 11  1  0  0  0
M  END
> <minimizedAffinity>
-7.08790

$$$$
1231


 37 40  0  0  0  0  0  0  0  0999 V2000
    2.7610  -18.2507  -37.4837 C   0  0  0  0  0  0  0  0  0  0  0  0
    3.7602  -19.0507  -37.0908 N   0  0  0  0  0  0  0  0  0  0  0  0
    3.9377  -18.7893  -35.7835 N   0  0  0  0  0  0  0  0  0  0  0  0
    3.1155  -17.8929  -35.3717 N   0  0  0  0  0  0  0  0  0  0  0  0
    2.3035  -17.4785  -36.4106 C   0  0  0  0  0  0  0  0  0  0  0  0
    4.5290  -20.0331  -37.7801 C   0  0  0  0  0  0  0  0  0  0  0  0
    4.1176  -21.2113  -38.2923 N   0  0  0  0  0  0  0  0  0  0  0  0
    5.0673  -21.8434  -38.8731 O   0  0  0  0  0  0  0  0  0  0  0  0
    6.1426  -21.1267  -38.7776 N   0  0  0  0  0  0  0  0  0  0  0  0
    5.8688  -19.9722  -38.0997 C   0  0  0  0  0  0  0  0  0  0  0  0
    6.7787  -18.9296  -37.8130 N   0  0  0  0  0  0  0  0  0  0  0  0
    7.6642  -19.1136  -38.3541 H   0  0  0  0  0  0  0  0  0  0  0  0
    6.9924  -18.8067  -36.8077 H   0  0  0  0  0  0  0  0  0  0  0  0
    6.3892  -18.0243  -38.1934 H   0  0  0  0  0  0  0  0  0  0  0  0
    1.2645  -16.4913  -36.2738 C   0  0  0  0  0  0  0  0  0  0  0  0
    0.3572  -16.7260  -35.3815 O   0  0  0  0  0  0  0  0  0  0  0  0
    1.0989  -15.3027  -36.9783 N   0  0  0  0  0  0  0  0  0  0  0  0
    1.6856  -14.9123  -37.7349 H   0  0  0  0  0  0  0  0  0  0  0  0
   -0.0177  -14.4460  -36.6811 N   0  0  0  0  0  0  0  0  0  0  0  0
    0.1359  -13.2132  -36.3990 C   0  0  0  0  0  0  0  0  0  0  0  0
   -0.9669  -12.3126  -36.0929 C   0  0  0  0  0  0  0  0  0  0  0  0
   -1.6741  -11.6707  -37.0843 C   0  0  0  0  0  0  0  0  0  0  0  0
   -2.7250  -10.8202  -36.8109 C   0  0  0  0  0  0  0  0  0  0  0  0
   -3.1131  -10.5751  -35.5188 C   0  0  0  0  0  0  0  0  0  0  0  0
   -2.4143  -11.2127  -34.4820 C   0  0  0  0  0  0  0  0  0  0  0  0
   -1.3687  -12.0570  -34.7882 C   0  0  0  0  0  0  0  0  0  0  0  0
   -4.1721   -9.7161  -35.2667 O   0  0  0  0  0  0  0  0  0  0  0  0
   -3.6771   -9.9520  -38.2225 Br  0  0  0  0  0  0  0  0  0  0  0  0
   -2.8548  -10.9228  -33.2118 O   0  0  0  0  0  0  0  0  0  0  0  0
   -3.6391  -11.7632  -32.4021 C   0  0  0  0  0  0  0  0  0  0  0  0
    2.1637  -18.1707  -38.8260 C   0  0  0  0  0  0  0  0  0  0  0  0
    0.7584  -19.2126  -39.1556 S   0  0  0  0  0  0  0  0  0  0  0  0
   -1.6832  -17.3177  -38.6130 S   0  0  0  0  0  0  0  0  0  0  0  0
   -2.7322  -17.3993  -37.1292 C   0  0  0  0  0  0  0  0  0  0  0  0
   -2.3374  -18.7462  -36.6142 C   0  0  0  0  0  0  0  0  0  0  0  0
   -1.2111  -19.2607  -37.2088 N   0  0  0  0  0  0  0  0  0  0  0  0
   -0.6841  -18.7494  -38.2055 C   0  0  0  0  0  0  0  0  0  0  0  0
 33 34  1  0  0  0
 33 37  1  0  0  0
 34 35  1  0  0  0
 35 36  1  0  0  0
 36 37  2  0  0  0
 37 32  1  0  0  0
 32 31  1  0  0  0
 31  1  1  0  0  0
  1  2  1  0  0  0
  1  5  2  0  0  0
  2  3  1  0  0  0
  2  6  1  0  0  0
  3  4  2  0  0  0
  4  5  1  0  0  0
  5 15  1  0  0  0
 15 16  2  0  0  0
 15 17  1  0  0  0
 17 19  1  0  0  0
 19 20  2  0  0  0
 20 21  1  0  0  0
 21 22  2  0  0  0
 21 26  1  0  0  0
 22 23  1  0  0  0
 23 24  2  0  0  0
 23 28  1  0  0  0
 24 25  1  0  0  0
 24 27  1  0  0  0
 25 26  2  0  0  0
 25 29  1  0  0  0
 29 30  1  0  0  0
  6  7  2  0  0  0
  6 10  1  0  0  0
  7  8  1  0  0  0
  8  9  1  0  0  0
  9 10  2  0  0  0
 10 11  1  0  0  0
 17 18  1  0  0  0
 11 12  1  0  0  0
 11 13  1  0  0  0
 11 14  1  0  0  0
M  CHG 1  11   1
M  CHG 1  27  -1
M  END
> <minimizedAffinity>
-6.57194

$$$$
1236


 30 34  0  0  0  0  0  0  0  0999 V2000
    0.6270  -18.2289  -38.6756 C   0  0  0  0  0  0  0  0  0  0  0  0
    3.1342  -20.8033  -42.0710 S   0  0  0  0  0  0  0  0  0  0  0  0
    4.6683  -21.0178  -41.0478 C   0  0  0  0  0  0  0  0  0  0  0  0
    4.2929  -20.0614  -39.9450 C   0  0  0  0  0  0  0  0  0  0  0  0
    2.9092  -20.2195  -39.5971 N   0  0  0  0  0  0  0  0  0  0  0  0
    2.0655  -20.6021  -40.6605 C   0  0  0  0  0  0  0  0  0  0  0  0
    0.8216  -20.7528  -40.4886 N   0  0  0  0  0  0  0  0  0  0  0  0
    0.1768  -20.5220  -39.2207 C   0  0  0  0  0  0  0  0  0  0  0  0
   -0.9284  -21.0319  -38.9117 O   0  0  0  0  0  0  0  0  0  0  0  0
    0.8784  -19.6340  -38.2537 C   0  0  0  0  0  0  0  0  0  0  0  0
    2.3117  -20.0048  -38.2919 C   0  0  0  0  0  0  0  0  0  0  0  0
    3.0443  -20.1475  -37.2832 O   0  0  0  0  0  0  0  0  0  0  0  0
    1.8117  -17.3135  -38.4890 C   0  0  0  0  0  0  0  0  0  0  0  0
    1.7676  -16.5075  -37.2582 C   0  0  0  0  0  0  0  0  0  0  0  0
    2.0418  -17.0495  -36.1306 O   0  0  0  0  0  0  0  0  0  0  0  0
    1.4129  -15.1032  -37.3166 N   0  0  0  0  0  0  0  0  0  0  0  0
    1.0989  -14.2521  -36.2026 C   0  0  0  0  0  0  0  0  0  0  0  0
    0.1154  -13.1826  -36.6081 C   0  0  0  0  0  0  0  0  0  0  0  0
    0.8835  -12.7812  -38.2469 S   0  0  0  0  0  0  0  0  0  0  0  0
    1.3875  -14.4681  -38.5779 C   0  0  0  0  0  0  0  0  0  0  0  0
    1.6655  -15.0755  -39.6658 N   0  0  0  0  0  0  0  0  0  0  0  0
    2.0266  -16.4656  -39.6881 C   0  0  0  0  0  0  0  0  0  0  0  0
    2.5242  -16.9262  -40.7461 O   0  0  0  0  0  0  0  0  0  0  0  0
   -0.5823  -17.7267  -37.9860 C   0  0  0  0  0  0  0  0  0  0  0  0
   -1.4029  -16.7797  -38.5859 C   0  0  0  0  0  0  0  0  0  0  0  0
   -2.5341  -16.3072  -37.9540 C   0  0  0  0  0  0  0  0  0  0  0  0
   -2.8776  -16.7696  -36.7031 C   0  0  0  0  0  0  0  0  0  0  0  0
   -2.0715  -17.6976  -36.1169 C   0  0  0  0  0  0  0  0  0  0  0  0
   -0.9366  -18.1797  -36.7361 C   0  0  0  0  0  0  0  0  0  0  0  0
   -3.6674  -15.0067  -38.7704 Br  0  0  0  0  0  0  0  0  0  0  0  0
  2  3  1  0  0  0
  2  6  1  0  0  0
  3  4  1  0  0  0
  4  5  1  0  0  0
  5  6  1  0  0  0
  5 11  1  0  0  0
  6  7  2  0  0  0
  7  8  1  0  0  0
  8  9  2  0  0  0
  8 10  1  0  0  0
 10 11  1  0  0  0
 10  1  1  0  0  0
 11 12  2  0  0  0
  1 13  1  0  0  0
  1 24  1  0  0  0
 13 14  1  0  0  0
 13 22  1  0  0  0
 14 15  2  0  0  0
 14 16  1  0  0  0
 16 17  1  0  0  0
 16 20  1  0  0  0
 17 18  1  0  0  0
 18 19  1  0  0  0
 19 20  1  0  0  0
 20 21  2  0  0  0
 21 22  1  0  0  0
 22 23  2  0  0  0
 24 25  2  0  0  0
 24 29  1  0  0  0
 25 26  1  0  0  0
 26 27  2  0  0  0
 26 30  1  0  0  0
 27 28  1  0  0  0
 28 29  2  0  0  0
M  END
> <minimizedAffinity>
-5.88377

$$$$
1237


 30 34  0  0  0  0  0  0  0  0999 V2000
    1.9699  -17.3879  -38.5279 C   0  0  0  0  0  0  0  0  0  0  0  0
    1.1280  -13.6086  -42.1752 S   0  0  0  0  0  0  0  0  0  0  0  0
    2.9717  -13.5766  -42.0891 C   0  0  0  0  0  0  0  0  0  0  0  0
    3.2335  -15.0451  -42.2062 C   0  0  0  0  0  0  0  0  0  0  0  0
    2.2607  -15.8079  -41.5194 N   0  0  0  0  0  0  0  0  0  0  0  0
    0.9753  -15.2395  -41.4006 C   0  0  0  0  0  0  0  0  0  0  0  0
   -0.0256  -15.8175  -40.8168 N   0  0  0  0  0  0  0  0  0  0  0  0
    0.1119  -17.1573  -40.2677 C   0  0  0  0  0  0  0  0  0  0  0  0
   -0.9774  -17.7786  -40.2113 O   0  0  0  0  0  0  0  0  0  0  0  0
    1.4309  -17.5745  -39.8833 C   0  0  0  0  0  0  0  0  0  0  0  0
    2.4183  -17.1203  -40.9330 C   0  0  0  0  0  0  0  0  0  0  0  0
    3.3553  -17.8544  -41.2956 O   0  0  0  0  0  0  0  0  0  0  0  0
    2.2378  -18.5226  -37.6348 C   0  0  0  0  0  0  0  0  0  0  0  0
    2.2168  -19.7894  -38.4901 C   0  0  0  0  0  0  0  0  0  0  0  0
    1.1223  -20.2899  -38.8354 O   0  0  0  0  0  0  0  0  0  0  0  0
    3.4584  -20.4077  -38.9002 N   0  0  0  0  0  0  0  0  0  0  0  0
    3.6480  -21.3616  -39.9376 C   0  0  0  0  0  0  0  0  0  0  0  0
    5.0246  -21.2483  -40.5442 C   0  0  0  0  0  0  0  0  0  0  0  0
    5.9488  -20.9504  -38.9636 S   0  0  0  0  0  0  0  0  0  0  0  0
    4.6243  -20.0458  -38.1827 C   0  0  0  0  0  0  0  0  0  0  0  0
    4.6379  -19.2229  -37.2100 N   0  0  0  0  0  0  0  0  0  0  0  0
    3.3925  -18.5956  -36.7801 C   0  0  0  0  0  0  0  0  0  0  0  0
    3.4076  -18.1383  -35.6232 O   0  0  0  0  0  0  0  0  0  0  0  0
    1.3575  -16.1971  -37.8222 C   0  0  0  0  0  0  0  0  0  0  0  0
    0.2685  -16.3470  -36.9976 C   0  0  0  0  0  0  0  0  0  0  0  0
   -0.2620  -15.2431  -36.3795 C   0  0  0  0  0  0  0  0  0  0  0  0
    0.2409  -13.9909  -36.5422 C   0  0  0  0  0  0  0  0  0  0  0  0
    1.3283  -13.8089  -37.3603 C   0  0  0  0  0  0  0  0  0  0  0  0
    1.8678  -14.9315  -37.9892 C   0  0  0  0  0  0  0  0  0  0  0  0
   -0.5080  -12.4529  -35.6734 Br  0  0  0  0  0  0  0  0  0  0  0  0
  2  3  1  0  0  0
  2  6  1  0  0  0
  3  4  1  0  0  0
  4  5  1  0  0  0
  5  6  1  0  0  0
  5 11  1  0  0  0
  6  7  2  0  0  0
  7  8  1  0  0  0
  8  9  2  0  0  0
  8 10  1  0  0  0
 10 11  1  0  0  0
 10  1  1  0  0  0
 11 12  2  0  0  0
  1 13  1  0  0  0
  1 24  1  0  0  0
 13 14  1  0  0  0
 13 22  1  0  0  0
 14 15  2  0  0  0
 14 16  1  0  0  0
 16 17  1  0  0  0
 16 20  1  0  0  0
 17 18  1  0  0  0
 18 19  1  0  0  0
 19 20  1  0  0  0
 20 21  2  0  0  0
 21 22  1  0  0  0
 22 23  2  0  0  0
 24 25  2  0  0  0
 24 29  1  0  0  0
 25 26  1  0  0  0
 26 27  2  0  0  0
 27 28  1  0  0  0
 27 30  1  0  0  0
 28 29  2  0  0  0
M  END
> <minimizedAffinity>
-6.42068

$$$$
1248


 21 24  0  0  0  0  0  0  0  0999 V2000
   -0.3151  -16.7846  -37.5938 S   0  0  0  0  0  0  0  0  0  0  0  0
    0.2067  -18.3940  -37.8894 C   0  0  0  0  0  0  0  0  0  0  0  0
    1.5261  -18.2281  -37.9683 N   0  0  0  0  0  0  0  0  0  0  0  0
    2.0079  -19.4949  -38.2062 C   0  0  0  0  0  0  0  0  0  0  0  0
    0.9912  -20.3540  -38.2608 N   0  0  0  0  0  0  0  0  0  0  0  0
   -0.1411  -19.7088  -38.0688 N   0  0  0  0  0  0  0  0  0  0  0  0
    2.0130  -17.0626  -37.8229 N   0  0  0  0  0  0  0  0  0  0  0  0
    1.2331  -16.0238  -37.5970 C   0  0  0  0  0  0  0  0  0  0  0  0
    1.5717  -14.6105  -37.4009 C   0  0  0  0  0  0  0  0  0  0  0  0
    1.4999  -13.9219  -36.2553 N   0  0  0  0  0  0  0  0  0  0  0  0
    1.8925  -12.6567  -36.4758 N   0  0  0  0  0  0  0  0  0  0  0  0
    2.2219  -12.5257  -37.7762 C   0  0  0  0  0  0  0  0  0  0  0  0
    2.0162  -13.7758  -38.3657 C   0  0  0  0  0  0  0  0  0  0  0  0
    2.3288  -14.1406  -40.1894 Br  0  0  0  0  0  0  0  0  0  0  0  0
    1.9296  -11.9103  -35.7447 H   0  0  0  0  0  0  0  0  0  0  0  0
    3.4272  -19.8667  -38.3779 C   0  0  0  0  0  0  0  0  0  0  0  0
    4.4104  -19.1334  -37.8240 N   0  0  0  0  0  0  0  0  0  0  0  0
    5.7054  -19.4839  -37.9888 C   0  0  0  0  0  0  0  0  0  0  0  0
    6.0342  -20.5911  -38.7212 C   0  0  0  0  0  0  0  0  0  0  0  0
    5.0490  -21.3089  -39.2628 N   0  0  0  0  0  0  0  0  0  0  0  0
    3.7468  -20.9810  -39.1149 C   0  0  0  0  0  0  0  0  0  0  0  0
  1  2  1  0  0  0
  1  8  1  0  0  0
  2  3  1  0  0  0
  2  6  2  0  0  0
  3  4  1  0  0  0
  3  7  1  0  0  0
  4  5  2  0  0  0
  4 16  1  0  0  0
  5  6  1  0  0  0
 16 17  2  0  0  0
 16 21  1  0  0  0
 17 18  1  0  0  0
 18 19  2  0  0  0
 19 20  1  0  0  0
 20 21  2  0  0  0
  7  8  2  0  0  0
  8  9  1  0  0  0
  9 10  2  0  0  0
  9 13  1  0  0  0
 10 11  1  0  0  0
 11 12  1  0  0  0
 12 13  2  0  0  0
 13 14  1  0  0  0
 11 15  1  0  0  0
M  END
> <minimizedAffinity>
-5.37056

$$$$
1255


 34 38  0  0  0  0  0  0  0  0999 V2000
    0.7905  -16.7581  -39.0440 C   0  0  0  0  0  0  0  0  0  0  0  0
    4.4534  -19.0238  -37.1375 S   0  0  0  0  0  0  0  0  0  0  0  0
    2.7693  -18.4328  -37.0994 C   0  0  0  0  0  0  0  0  0  0  0  0
    2.2350  -17.4325  -36.4779 N   0  0  0  0  0  0  0  0  0  0  0  0
    0.8199  -17.1728  -36.6248 C   0  0  0  0  0  0  0  0  0  0  0  0
    0.0961  -16.6462  -35.7813 O   0  0  0  0  0  0  0  0  0  0  0  0
    0.1913  -17.5971  -37.9511 C   0  0  0  0  0  0  0  0  0  0  0  0
    0.6098  -19.0318  -38.0360 C   0  0  0  0  0  0  0  0  0  0  0  0
   -0.2073  -19.9835  -38.1961 O   0  0  0  0  0  0  0  0  0  0  0  0
    2.0348  -19.3144  -37.9220 N   0  0  0  0  0  0  0  0  0  0  0  0
    2.7437  -20.3312  -38.5025 N   0  0  0  0  0  0  0  0  0  0  0  0
    4.1266  -20.4007  -38.2280 C   0  0  0  0  0  0  0  0  0  0  0  0
    5.0207  -21.2818  -38.6666 C   0  0  0  0  0  0  0  0  0  0  0  0
    2.3031  -21.0803  -39.1455 H   0  0  0  0  0  0  0  0  0  0  0  0
    0.2350  -16.9108  -40.4033 C   0  0  0  0  0  0  0  0  0  0  0  0
   -0.1086  -18.2510  -40.8541 C   0  0  0  0  0  0  0  0  0  0  0  0
   -1.3287  -18.6308  -40.8593 O   0  0  0  0  0  0  0  0  0  0  0  0
    0.9058  -19.1846  -41.3079 N   0  0  0  0  0  0  0  0  0  0  0  0
    0.8432  -20.5408  -41.3344 N   0  0  0  0  0  0  0  0  0  0  0  0
    1.9725  -21.2351  -41.8355 C   0  0  0  0  0  0  0  0  0  0  0  0
    2.1692  -22.5279  -41.9746 C   0  0  0  0  0  0  0  0  0  0  0  0
    3.1420  -19.9487  -42.2652 S   0  0  0  0  0  0  0  0  0  0  0  0
    2.0927  -18.5903  -41.7823 C   0  0  0  0  0  0  0  0  0  0  0  0
    2.2945  -17.3214  -41.8237 N   0  0  0  0  0  0  0  0  0  0  0  0
    1.2880  -16.4005  -41.3717 C   0  0  0  0  0  0  0  0  0  0  0  0
    1.2185  -15.2125  -41.7185 O   0  0  0  0  0  0  0  0  0  0  0  0
    0.0008  -21.1292  -41.0070 H   0  0  0  0  0  0  0  0  0  0  0  0
    0.8274  -15.3167  -38.6651 C   0  0  0  0  0  0  0  0  0  0  0  0
    2.0170  -14.6797  -38.3969 C   0  0  0  0  0  0  0  0  0  0  0  0
    2.0570  -13.3499  -38.0460 C   0  0  0  0  0  0  0  0  0  0  0  0
    0.8833  -12.6355  -37.9594 C   0  0  0  0  0  0  0  0  0  0  0  0
   -0.3459  -13.2437  -38.2232 C   0  0  0  0  0  0  0  0  0  0  0  0
   -0.3433  -14.5786  -38.5719 C   0  0  0  0  0  0  0  0  0  0  0  0
    0.9054  -10.7856  -37.4747 Br  0  0  0  0  0  0  0  0  0  0  0  0
  2  3  1  0  0  0
  2 12  1  0  0  0
  3  4  2  0  0  0
  3 10  1  0  0  0
  4  5  1  0  0  0
  5  6  2  0  0  0
  5  7  1  0  0  0
  7  8  1  0  0  0
  7  1  1  0  0  0
  8  9  2  0  0  0
  8 10  1  0  0  0
 10 11  1  0  0  0
 11 12  1  0  0  0
 12 13  2  0  0  0
  1 15  1  0  0  0
  1 28  1  0  0  0
 15 16  1  0  0  0
 15 25  1  0  0  0
 16 17  2  0  0  0
 16 18  1  0  0  0
 18 19  1  0  0  0
 18 23  1  0  0  0
 19 20  1  0  0  0
 20 21  2  0  0  0
 20 22  1  0  0  0
 22 23  1  0  0  0
 23 24  2  0  0  0
 24 25  1  0  0  0
 25 26  2  0  0  0
 28 29  2  0  0  0
 28 33  1  0  0  0
 29 30  1  0  0  0
 30 31  2  0  0  0
 31 32  1  0  0  0
 31 34  1  0  0  0
 32 33  2  0  0  0
 11 14  1  0  0  0
 19 27  1  0  0  0
M  END
> <minimizedAffinity>
-5.74089

$$$$
1256


 30 33  0  0  0  0  0  0  0  0999 V2000
    0.9862  -19.9002  -38.2542 S   0  0  0  0  0  0  0  0  0  0  0  0
   -0.1299  -18.8419  -37.5009 C   0  0  0  0  0  0  0  0  0  0  0  0
   -1.3926  -18.9891  -36.9914 N   0  0  0  0  0  0  0  0  0  0  0  0
   -2.0323  -17.9594  -36.4133 C   0  0  0  0  0  0  0  0  0  0  0  0
   -3.1766  -18.0004  -35.9234 O   0  0  0  0  0  0  0  0  0  0  0  0
   -1.3277  -16.7791  -36.3800 C   0  0  0  0  0  0  0  0  0  0  0  0
   -0.0706  -16.6240  -36.8855 C   0  0  0  0  0  0  0  0  0  0  0  0
    0.5575  -17.6963  -37.4692 N   0  0  0  0  0  0  0  0  0  0  0  0
    1.7379  -17.6966  -37.9553 N   0  0  0  0  0  0  0  0  0  0  0  0
    2.2721  -18.7673  -38.4708 C   0  0  0  0  0  0  0  0  0  0  0  0
    3.5841  -18.9738  -39.0453 N   0  0  0  0  0  0  0  0  0  0  0  0
    3.7960  -18.8052  -40.4317 C   0  0  0  0  0  0  0  0  0  0  0  0
    5.2172  -19.1681  -40.7930 C   0  0  0  0  0  0  0  0  0  0  0  0
    5.6118  -20.2950  -40.0671 O   0  0  0  0  0  0  0  0  0  0  0  0
    5.8184  -19.9565  -38.7243 C   0  0  0  0  0  0  0  0  0  0  0  0
    4.5932  -19.3493  -38.1139 C   0  0  0  0  0  0  0  0  0  0  0  0
    0.5548  -15.3084  -36.7646 C   0  0  0  0  0  0  0  0  0  0  0  0
    0.3491  -14.6098  -35.7053 O   0  0  0  0  0  0  0  0  0  0  0  0
    1.3838  -14.7201  -37.7416 N   0  0  0  0  0  0  0  0  0  0  0  0
    1.5885  -15.2003  -38.6384 H   0  0  0  0  0  0  0  0  0  0  0  0
    1.9635  -13.4037  -37.5017 C   0  0  0  0  0  0  0  0  0  0  0  0
    2.7746  -12.9676  -38.6649 C   0  0  0  0  0  0  0  0  0  0  0  0
    3.5872  -11.8516  -38.5408 C   0  0  0  0  0  0  0  0  0  0  0  0
    4.3097  -11.4155  -39.6232 C   0  0  0  0  0  0  0  0  0  0  0  0
    4.2580  -12.0475  -40.8380 C   0  0  0  0  0  0  0  0  0  0  0  0
    3.4506  -13.1616  -40.9702 C   0  0  0  0  0  0  0  0  0  0  0  0
    2.7236  -13.5996  -39.8753 C   0  0  0  0  0  0  0  0  0  0  0  0
    3.3261  -14.1036  -42.6258 Br  0  0  0  0  0  0  0  0  0  0  0  0
    3.6303  -11.2239  -37.3158 O   0  0  0  0  0  0  0  0  0  0  0  0
    4.0363   -9.8560  -37.2714 C   0  0  0  0  0  0  0  0  0  0  0  0
  1  2  1  0  0  0
  1 10  1  0  0  0
  2  3  2  0  0  0
  2  8  1  0  0  0
  3  4  1  0  0  0
  4  5  2  0  0  0
  4  6  1  0  0  0
  6  7  2  0  0  0
  7  8  1  0  0  0
  7 17  1  0  0  0
  8  9  1  0  0  0
  9 10  2  0  0  0
 10 11  1  0  0  0
 11 12  1  0  0  0
 11 16  1  0  0  0
 12 13  1  0  0  0
 13 14  1  0  0  0
 14 15  1  0  0  0
 15 16  1  0  0  0
 17 18  2  0  0  0
 17 19  1  0  0  0
 19 21  1  0  0  0
 21 22  1  0  0  0
 22 23  2  0  0  0
 22 27  1  0  0  0
 23 24  1  0  0  0
 23 29  1  0  0  0
 24 25  2  0  0  0
 25 26  1  0  0  0
 26 27  2  0  0  0
 26 28  1  0  0  0
 29 30  1  0  0  0
 19 20  1  0  0  0
M  END
> <minimizedAffinity>
-6.61807

$$$$
1265


 24 27  0  0  0  0  0  0  0  0999 V2000
    1.6853  -16.3557  -40.2457 S   0  0  0  0  0  0  0  0  0  0  0  0
    1.7145  -16.4694  -38.4616 C   0  0  0  0  0  0  0  0  0  0  0  0
    1.2661  -15.8977  -37.3918 N   0  0  0  0  0  0  0  0  0  0  0  0
    1.7110  -16.5564  -36.2214 C   0  0  0  0  0  0  0  0  0  0  0  0
    2.5467  -17.6893  -36.7204 C   0  0  0  0  0  0  0  0  0  0  0  0
    2.5154  -17.5955  -38.1993 N   0  0  0  0  0  0  0  0  0  0  0  0
    3.0282  -18.2670  -39.3153 C   0  0  0  0  0  0  0  0  0  0  0  0
    2.7210  -17.7895  -40.5003 C   0  0  0  0  0  0  0  0  0  0  0  0
    3.8875  -19.4941  -39.2458 C   0  0  0  0  0  0  0  0  0  0  0  0
    5.1539  -19.4556  -38.7071 C   0  0  0  0  0  0  0  0  0  0  0  0
    5.9862  -20.5514  -38.6223 C   0  0  0  0  0  0  0  0  0  0  0  0
    5.5644  -21.7737  -39.0925 C   0  0  0  0  0  0  0  0  0  0  0  0
    4.3110  -21.8376  -39.6329 C   0  0  0  0  0  0  0  0  0  0  0  0
    3.4693  -20.7126  -39.7148 C   0  0  0  0  0  0  0  0  0  0  0  0
    0.3911  -14.7139  -37.4632 C   0  0  0  0  0  0  0  0  0  0  0  0
    1.1119  -13.6061  -36.8047 C   0  0  0  0  0  0  0  0  0  0  0  0
    0.8649  -13.2804  -35.6260 O   0  0  0  0  0  0  0  0  0  0  0  0
    2.1343  -12.8670  -37.5310 C   0  0  0  0  0  0  0  0  0  0  0  0
    2.2379  -12.9596  -38.9203 C   0  0  0  0  0  0  0  0  0  0  0  0
    3.2040  -12.2753  -39.6340 C   0  0  0  0  0  0  0  0  0  0  0  0
    4.0748  -11.4871  -38.9295 C   0  0  0  0  0  0  0  0  0  0  0  0
    4.0133  -11.3614  -37.5538 C   0  0  0  0  0  0  0  0  0  0  0  0
    3.0281  -12.0627  -36.8555 C   0  0  0  0  0  0  0  0  0  0  0  0
    5.4108  -10.5410  -39.9292 Br  0  0  0  0  0  0  0  0  0  0  0  0
  1  2  1  0  0  0
  1  8  1  0  0  0
  2  3  2  0  0  0
  2  6  1  0  0  0
  3  4  1  0  0  0
  3 15  1  0  0  0
  4  5  1  0  0  0
  5  6  1  0  0  0
  6  7  1  0  0  0
  7  8  2  0  0  0
  7  9  1  0  0  0
  9 10  2  0  0  0
  9 14  1  0  0  0
 10 11  1  0  0  0
 11 12  2  0  0  0
 12 13  1  0  0  0
 13 14  2  0  0  0
 15 16  1  0  0  0
 16 17  2  0  0  0
 16 18  1  0  0  0
 18 19  2  0  0  0
 18 23  1  0  0  0
 19 20  1  0  0  0
 20 21  2  0  0  0
 21 22  1  0  0  0
 21 24  1  0  0  0
 22 23  2  0  0  0
M  END
> <minimizedAffinity>
-6.58069

$$$$
1266


 28 31  0  0  0  0  0  0  0  0999 V2000
   -2.0240  -16.2602  -37.5615 C   0  0  0  0  0  0  0  0  0  0  0  0
   -2.3587  -17.0432  -36.3782 N   0  0  0  0  0  0  0  0  0  0  0  0
   -2.0978  -18.4053  -36.3671 C   0  0  0  0  0  0  0  0  0  0  0  0
   -0.9987  -18.9583  -37.2496 C   0  0  0  0  0  0  0  0  0  0  0  0
   -0.7586  -18.1930  -38.3944 N   0  0  0  0  0  0  0  0  0  0  0  0
   -1.6443  -17.1068  -38.6871 C   0  0  0  0  0  0  0  0  0  0  0  0
    0.2988  -18.3785  -39.3219 C   0  0  0  0  0  0  0  0  0  0  0  0
    0.1698  -17.6010  -40.3721 O   0  0  0  0  0  0  0  0  0  0  0  0
   -2.0424  -16.5525  -35.5175 H   0  0  0  0  0  0  0  0  0  0  0  0
    1.4459  -19.2120  -39.3374 C   0  0  0  0  0  0  0  0  0  0  0  0
    1.4938  -20.2293  -40.3216 C   0  0  0  0  0  0  0  0  0  0  0  0
    2.5877  -20.9703  -40.4951 N   0  0  0  0  0  0  0  0  0  0  0  0
    3.6836  -20.7922  -39.7551 C   0  0  0  0  0  0  0  0  0  0  0  0
    3.6975  -19.8239  -38.7882 C   0  0  0  0  0  0  0  0  0  0  0  0
    2.5740  -19.0282  -38.5745 C   0  0  0  0  0  0  0  0  0  0  0  0
    4.8784  -19.6001  -38.0122 N   0  0  0  0  0  0  0  0  0  0  0  0
    6.0282  -20.4066  -38.2733 C   0  0  0  0  0  0  0  0  0  0  0  0
    7.2004  -20.0673  -38.0122 O   0  0  0  0  0  0  0  0  0  0  0  0
    5.7927  -21.7425  -38.9027 C   0  0  0  0  0  0  0  0  0  0  0  0
    4.8219  -21.5828  -39.9495 O   0  0  0  0  0  0  0  0  0  0  0  0
    4.9194  -18.8735  -37.2818 H   0  0  0  0  0  0  0  0  0  0  0  0
   -3.0139  -13.5745  -36.9602 Cl  0  0  0  0  0  0  0  0  0  0  0  0
   -1.3158  -14.0307  -36.7115 C   0  0  0  0  0  0  0  0  0  0  0  0
   -0.9379  -15.3265  -37.0980 C   0  0  0  0  0  0  0  0  0  0  0  0
    0.3678  -15.6732  -36.9085 C   0  0  0  0  0  0  0  0  0  0  0  0
    1.2605  -14.7701  -36.3588 C   0  0  0  0  0  0  0  0  0  0  0  0
    0.8906  -13.4919  -35.9774 C   0  0  0  0  0  0  0  0  0  0  0  0
   -0.4373  -13.1216  -36.1627 C   0  0  0  0  0  0  0  0  0  0  0  0
 22 23  1  0  0  0
 23 24  2  0  0  0
 23 28  1  0  0  0
 24 25  1  0  0  0
 24  1  1  0  0  0
 25 26  2  0  0  0
 26 27  1  0  0  0
 27 28  2  0  0  0
  1  2  1  0  0  0
  1  6  1  0  0  0
  2  3  1  0  0  0
  3  4  1  0  0  0
  4  5  1  0  0  0
  5  6  1  0  0  0
  5  7  1  0  0  0
  7  8  2  0  0  0
  7 10  1  0  0  0
 10 11  2  0  0  0
 10 15  1  0  0  0
 11 12  1  0  0  0
 12 13  2  0  0  0
 13 14  1  0  0  0
 13 20  1  0  0  0
 14 15  2  0  0  0
 14 16  1  0  0  0
 16 17  1  0  0  0
 17 18  2  0  0  0
 17 19  1  0  0  0
 19 20  1  0  0  0
  2  9  1  0  0  0
 16 21  1  0  0  0
M  END
> <minimizedAffinity>
-6.38514

$$$$
1271


 35 38  0  0  0  0  0  0  0  0999 V2000
    2.3720  -17.5095  -36.1876 C   0  0  0  0  0  0  0  0  0  0  0  0
    3.0678  -18.0471  -35.1771 N   0  0  0  0  0  0  0  0  0  0  0  0
    3.8889  -18.9155  -35.7096 N   0  0  0  0  0  0  0  0  0  0  0  0
    3.7383  -18.9497  -37.0311 N   0  0  0  0  0  0  0  0  0  0  0  0
    2.7997  -18.0889  -37.3924 C   0  0  0  0  0  0  0  0  0  0  0  0
    4.4711  -19.8116  -37.8811 C   0  0  0  0  0  0  0  0  0  0  0  0
    3.9026  -20.8558  -38.5463 N   0  0  0  0  0  0  0  0  0  0  0  0
    4.8371  -21.4406  -39.2269 O   0  0  0  0  0  0  0  0  0  0  0  0
    5.9727  -20.8649  -39.0584 N   0  0  0  0  0  0  0  0  0  0  0  0
    5.7916  -19.8355  -38.2201 C   0  0  0  0  0  0  0  0  0  0  0  0
    6.7595  -18.9313  -37.7576 N   0  0  0  0  0  0  0  0  0  0  0  0
    7.6372  -19.1773  -37.2495 H   0  0  0  0  0  0  0  0  0  0  0  0
    6.6103  -17.9124  -37.9235 H   0  0  0  0  0  0  0  0  0  0  0  0
    1.6266  -15.1084  -36.2067 N   0  0  0  0  0  0  0  0  0  0  0  0
    1.3571  -16.4852  -36.0240 C   0  0  0  0  0  0  0  0  0  0  0  0
    0.1980  -16.8402  -35.7102 O   0  0  0  0  0  0  0  0  0  0  0  0
    2.5845  -14.7509  -36.4663 H   0  0  0  0  0  0  0  0  0  0  0  0
    0.6412  -14.1330  -36.0535 N   0  0  0  0  0  0  0  0  0  0  0  0
    0.0065  -14.0449  -35.2420 H   0  0  0  0  0  0  0  0  0  0  0  0
    0.4836  -13.1570  -37.1055 C   0  0  0  0  0  0  0  0  0  0  0  0
   -0.7027  -12.6416  -37.3081 C   0  0  0  0  0  0  0  0  0  0  0  0
    3.1702  -13.7938  -41.6536 Br  0  0  0  0  0  0  0  0  0  0  0  0
    2.9107  -13.0291  -39.9314 C   0  0  0  0  0  0  0  0  0  0  0  0
    1.8246  -13.3671  -39.1619 C   0  0  0  0  0  0  0  0  0  0  0  0
    1.6434  -12.8031  -37.8998 C   0  0  0  0  0  0  0  0  0  0  0  0
    2.5881  -11.9123  -37.4810 C   0  0  0  0  0  0  0  0  0  0  0  0
    3.6937  -11.5664  -38.2585 C   0  0  0  0  0  0  0  0  0  0  0  0
    3.8597  -12.1237  -39.4889 C   0  0  0  0  0  0  0  0  0  0  0  0
    2.2110  -17.7496  -38.6677 C   0  0  0  0  0  0  0  0  0  0  0  0
    1.1575  -18.6251  -39.1432 N   0  0  0  0  0  0  0  0  0  0  0  0
   -0.1476  -17.9854  -39.0067 C   0  0  0  0  0  0  0  0  0  0  0  0
   -0.1404  -16.5694  -39.5389 C   0  0  0  0  0  0  0  0  0  0  0  0
    0.2998  -16.5652  -40.9919 C   0  0  0  0  0  0  0  0  0  0  0  0
    0.5679  -17.9618  -41.4760 C   0  0  0  0  0  0  0  0  0  0  0  0
    1.3263  -18.8520  -40.5755 C   0  0  0  0  0  0  0  0  0  0  0  0
 22 23  1  0  0  0
 23 24  2  0  0  0
 23 28  1  0  0  0
 24 25  1  0  0  0
 25 26  2  0  0  0
 25 20  1  0  0  0
 26 27  1  0  0  0
 27 28  2  0  0  0
 20 21  2  0  0  0
 20 18  1  0  0  0
 18 14  1  0  0  0
 14 15  1  0  0  0
 15 16  2  0  0  0
 15  1  1  0  0  0
  1  2  1  0  0  0
  1  5  2  0  0  0
  2  3  2  0  0  0
  3  4  1  0  0  0
  4  5  1  0  0  0
  4  6  1  0  0  0
  5 29  1  0  0  0
 29 30  1  0  0  0
 30 31  1  0  0  0
 30 35  1  0  0  0
 31 32  1  0  0  0
 32 33  1  0  0  0
 33 34  1  0  0  0
 34 35  1  0  0  0
  6  7  2  0  0  0
  6 10  1  0  0  0
  7  8  1  0  0  0
  8  9  1  0  0  0
  9 10  2  0  0  0
 10 11  1  0  0  0
 18 19  1  0  0  0
 14 17  1  0  0  0
 11 12  1  0  0  0
 11 13  1  0  0  0
M  END
> <minimizedAffinity>
-6.98095

$$$$
1280


 35 38  0  0  0  0  0  0  0  0999 V2000
    0.0837  -14.2122  -37.6786 C   0  0  0  0  0  0  0  0  0  0  0  0
   -0.7067  -14.1642  -38.8925 N   0  0  0  0  0  0  0  0  0  0  0  0
    0.1070  -14.6735  -39.9350 C   0  0  0  0  0  0  0  0  0  0  0  0
   -0.0058  -14.3938  -41.1329 O   0  0  0  0  0  0  0  0  0  0  0  0
    1.0819  -15.5771  -39.2998 C   0  0  0  0  0  0  0  0  0  0  0  0
    1.9851  -16.2455  -39.8586 O   0  0  0  0  0  0  0  0  0  0  0  0
    0.7698  -15.5327  -37.8768 C   0  0  0  0  0  0  0  0  0  0  0  0
    1.0249  -16.4958  -37.0027 C   0  0  0  0  0  0  0  0  0  0  0  0
    0.5864  -16.2482  -35.6805 O   0  0  0  0  0  0  0  0  0  0  0  0
    0.7437   -8.9263  -38.2626 Br  0  0  0  0  0  0  0  0  0  0  0  0
    1.4056  -10.6824  -37.8496 C   0  0  0  0  0  0  0  0  0  0  0  0
    0.5548  -11.7918  -37.9164 C   0  0  0  0  0  0  0  0  0  0  0  0
    1.0078  -13.0700  -37.6228 C   0  0  0  0  0  0  0  0  0  0  0  0
    2.3225  -13.1911  -37.2659 C   0  0  0  0  0  0  0  0  0  0  0  0
    3.1813  -12.1020  -37.1935 C   0  0  0  0  0  0  0  0  0  0  0  0
    2.7185  -10.8418  -37.4883 C   0  0  0  0  0  0  0  0  0  0  0  0
    1.7082  -17.7411  -37.3350 C   0  0  0  0  0  0  0  0  0  0  0  0
    1.1065  -18.8238  -37.9040 C   0  0  0  0  0  0  0  0  0  0  0  0
    1.8306  -20.0054  -38.1454 C   0  0  0  0  0  0  0  0  0  0  0  0
    3.1563  -20.1339  -37.8303 C   0  0  0  0  0  0  0  0  0  0  0  0
    3.7673  -19.0397  -37.2562 C   0  0  0  0  0  0  0  0  0  0  0  0
    3.0719  -17.8836  -37.0166 C   0  0  0  0  0  0  0  0  0  0  0  0
   -0.3130  -18.7595  -38.3238 C   0  0  0  0  0  0  0  0  0  0  0  0
    3.8793  -21.3028  -38.0687 O   0  0  0  0  0  0  0  0  0  0  0  0
    4.9960  -21.2925  -38.9201 C   0  0  0  0  0  0  0  0  0  0  0  0
   -2.0658  -13.6702  -38.9629 C   0  0  0  0  0  0  0  0  0  0  0  0
   -2.7982  -13.7383  -37.6599 C   0  0  0  0  0  0  0  0  0  0  0  0
   -3.4419  -12.4820  -37.2114 C   0  0  0  0  0  0  0  0  0  0  0  0
   -2.9280  -11.9214  -36.0128 N   0  0  0  0  0  0  0  0  0  0  0  0
   -2.3810  -10.5650  -36.1824 C   0  0  0  0  0  0  0  0  0  0  0  0
   -1.4059  -10.3765  -35.0184 C   0  0  0  0  0  0  0  0  0  0  0  0
   -1.5452  -11.3628  -34.0586 O   0  0  0  0  0  0  0  0  0  0  0  0
   -2.8797  -11.5034  -33.6768 C   0  0  0  0  0  0  0  0  0  0  0  0
   -3.7711  -11.8826  -34.8737 C   0  0  0  0  0  0  0  0  0  0  0  0
   -2.0808  -12.5076  -35.7405 H   0  0  0  0  0  0  0  0  0  0  0  0
 10 11  1  0  0  0
 11 12  2  0  0  0
 11 16  1  0  0  0
 12 13  1  0  0  0
 13 14  2  0  0  0
 13  1  1  0  0  0
 14 15  1  0  0  0
 15 16  2  0  0  0
  1  2  1  0  0  0
  1  7  1  0  0  0
  2  3  1  0  0  0
  2 26  1  0  0  0
  3  4  2  0  0  0
  3  5  1  0  0  0
  5  6  2  0  0  0
  5  7  1  0  0  0
  7  8  2  0  0  0
  8  9  1  0  0  0
  8 17  1  0  0  0
 17 18  2  0  0  0
 17 22  1  0  0  0
 18 19  1  0  0  0
 18 23  1  0  0  0
 19 20  2  0  0  0
 20 21  1  0  0  0
 20 24  1  0  0  0
 21 22  2  0  0  0
 24 25  1  0  0  0
 26 27  1  0  0  0
 27 28  1  0  0  0
 28 29  1  0  0  0
 29 30  1  0  0  0
 29 34  1  0  0  0
 30 31  1  0  0  0
 31 32  1  0  0  0
 32 33  1  0  0  0
 33 34  1  0  0  0
 29 35  1  0  0  0
M  CHG 1   9  -1
M  CHG 1  29   1
M  END
> <minimizedAffinity>
-6.43808

$$$$
1282


 30 33  0  0  0  0  0  0  0  0999 V2000
    3.2323  -20.9890  -39.6697 C   0  0  0  0  0  0  0  0  0  0  0  0
    3.0961  -19.5732  -40.1960 C   0  0  0  0  0  0  0  0  0  0  0  0
    2.6813  -18.8302  -39.0221 N   0  0  0  0  0  0  0  0  0  0  0  0
    2.7660  -19.6511  -37.8313 C   0  0  0  0  0  0  0  0  0  0  0  0
    3.7422  -20.7481  -38.2771 C   0  0  0  0  0  0  0  0  0  0  0  0
    3.3183  -18.8424  -36.7458 C   0  0  0  0  0  0  0  0  0  0  0  0
    4.3017  -19.2192  -36.0917 O   0  0  0  0  0  0  0  0  0  0  0  0
    2.6916  -17.6027  -36.4578 N   0  0  0  0  0  0  0  0  0  0  0  0
    1.9802  -16.9048  -37.5049 C   0  0  0  0  0  0  0  0  0  0  0  0
    2.2211  -17.4825  -38.8463 C   0  0  0  0  0  0  0  0  0  0  0  0
    2.0207  -16.7811  -39.8725 O   0  0  0  0  0  0  0  0  0  0  0  0
    2.7226  -17.1639  -35.5100 H   0  0  0  0  0  0  0  0  0  0  0  0
    3.6033  -22.5377  -41.5261 C   0  0  0  0  0  0  0  0  0  0  0  0
    2.3333  -22.5198  -41.7262 O   0  0  0  0  0  0  0  0  0  0  0  0
    4.1508  -21.7707  -40.4779 N   0  0  0  0  0  0  0  0  0  0  0  0
    5.1659  -21.7849  -40.3092 H   0  0  0  0  0  0  0  0  0  0  0  0
    8.2510  -23.1366  -44.0357 Br  0  0  0  0  0  0  0  0  0  0  0  0
    6.4892  -23.7149  -43.5634 C   0  0  0  0  0  0  0  0  0  0  0  0
    5.7082  -22.9451  -42.7466 C   0  0  0  0  0  0  0  0  0  0  0  0
    4.4275  -23.3569  -42.3986 C   0  0  0  0  0  0  0  0  0  0  0  0
    3.9803  -24.5427  -42.8914 C   0  0  0  0  0  0  0  0  0  0  0  0
    4.7800  -25.3160  -43.7183 C   0  0  0  0  0  0  0  0  0  0  0  0
    6.0447  -24.9061  -44.0617 C   0  0  0  0  0  0  0  0  0  0  0  0
    0.5035  -16.7583  -37.2056 C   0  0  0  0  0  0  0  0  0  0  0  0
    0.1240  -15.3928  -36.8071 C   0  0  0  0  0  0  0  0  0  0  0  0
    1.0923  -14.5135  -36.3573 C   0  0  0  0  0  0  0  0  0  0  0  0
    0.7458  -13.2357  -35.9830 C   0  0  0  0  0  0  0  0  0  0  0  0
   -0.5547  -12.7707  -36.0333 C   0  0  0  0  0  0  0  0  0  0  0  0
   -1.5222  -13.6447  -36.4810 C   0  0  0  0  0  0  0  0  0  0  0  0
   -1.1927  -14.9313  -36.8611 C   0  0  0  0  0  0  0  0  0  0  0  0
 17 18  1  0  0  0
 18 19  2  0  0  0
 18 23  1  0  0  0
 19 20  1  0  0  0
 20 21  2  0  0  0
 20 13  1  0  0  0
 21 22  1  0  0  0
 22 23  2  0  0  0
 13 14  2  0  0  0
 13 15  1  0  0  0
 15  1  1  0  0  0
  1  2  1  0  0  0
  1  5  1  0  0  0
  2  3  1  0  0  0
  3  4  1  0  0  0
  3 10  1  0  0  0
  4  5  1  0  0  0
  4  6  1  0  0  0
  6  7  2  0  0  0
  6  8  1  0  0  0
  8  9  1  0  0  0
  9 10  1  0  0  0
  9 24  1  0  0  0
 10 11  2  0  0  0
 24 25  1  0  0  0
 25 26  2  0  0  0
 25 30  1  0  0  0
 26 27  1  0  0  0
 27 28  2  0  0  0
 28 29  1  0  0  0
 29 30  2  0  0  0
 15 16  1  0  0  0
  8 12  1  0  0  0
M  END
> <minimizedAffinity>
-6.80265

$$$$
1284


 35 38  0  0  0  0  0  0  0  0999 V2000
    2.5541  -20.2361  -39.0073 C   0  0  0  0  0  0  0  0  0  0  0  0
    3.8249  -20.3961  -38.4059 N   0  0  0  0  0  0  0  0  0  0  0  0
    4.0194  -19.3913  -37.4242 C   0  0  0  0  0  0  0  0  0  0  0  0
    5.0951  -19.2068  -36.7741 O   0  0  0  0  0  0  0  0  0  0  0  0
    2.7942  -18.6329  -37.2931 C   0  0  0  0  0  0  0  0  0  0  0  0
    2.6943  -17.6704  -36.4851 O   0  0  0  0  0  0  0  0  0  0  0  0
    1.8360  -19.1965  -38.2245 C   0  0  0  0  0  0  0  0  0  0  0  0
    0.5930  -18.7910  -38.3525 C   0  0  0  0  0  0  0  0  0  0  0  0
   -0.2014  -19.3608  -39.3207 O   0  0  0  0  0  0  0  0  0  0  0  0
    1.8381  -21.9324  -44.0022 Br  0  0  0  0  0  0  0  0  0  0  0  0
    2.3585  -20.6117  -42.7256 C   0  0  0  0  0  0  0  0  0  0  0  0
    2.3169  -20.8008  -41.3780 C   0  0  0  0  0  0  0  0  0  0  0  0
    2.6839  -19.8700  -40.4214 C   0  0  0  0  0  0  0  0  0  0  0  0
    3.1353  -18.6339  -40.8764 C   0  0  0  0  0  0  0  0  0  0  0  0
    3.1915  -18.4082  -42.2383 C   0  0  0  0  0  0  0  0  0  0  0  0
    2.8161  -19.3604  -43.1698 C   0  0  0  0  0  0  0  0  0  0  0  0
    0.0474  -17.7690  -37.4943 C   0  0  0  0  0  0  0  0  0  0  0  0
    0.1555  -16.3903  -37.7484 C   0  0  0  0  0  0  0  0  0  0  0  0
   -0.4858  -15.7160  -36.7862 N   0  0  0  0  0  0  0  0  0  0  0  0
   -0.9830  -16.6107  -35.9523 N   0  0  0  0  0  0  0  0  0  0  0  0
   -0.6860  -17.8587  -36.3439 C   0  0  0  0  0  0  0  0  0  0  0  0
    0.8785  -15.8162  -38.9202 C   0  0  0  0  0  0  0  0  0  0  0  0
   -0.6296  -14.3073  -36.6723 C   0  0  0  0  0  0  0  0  0  0  0  0
    0.3821  -13.5798  -36.0599 C   0  0  0  0  0  0  0  0  0  0  0  0
    0.3139  -12.2075  -35.9242 C   0  0  0  0  0  0  0  0  0  0  0  0
   -0.7848  -11.4924  -36.4027 C   0  0  0  0  0  0  0  0  0  0  0  0
   -1.7929  -12.2173  -37.0128 C   0  0  0  0  0  0  0  0  0  0  0  0
   -1.7014  -13.5798  -37.1349 C   0  0  0  0  0  0  0  0  0  0  0  0
    4.8283  -21.4563  -38.7048 C   0  0  0  0  0  0  0  0  0  0  0  0
    5.7706  -20.9728  -39.7768 C   0  0  0  0  0  0  0  0  0  0  0  0
    5.7724  -21.8319  -41.0015 C   0  0  0  0  0  0  0  0  0  0  0  0
    5.9883  -21.1626  -42.2414 N   0  0  0  0  0  0  0  0  0  0  0  0
    6.5165  -19.8403  -42.1658 C   0  0  0  0  0  0  0  0  0  0  0  0
    6.8907  -21.9537  -43.0936 C   0  0  0  0  0  0  0  0  0  0  0  0
    5.0766  -21.1287  -42.7907 H   0  0  0  0  0  0  0  0  0  0  0  0
 10 11  1  0  0  0
 11 12  2  0  0  0
 11 16  1  0  0  0
 12 13  1  0  0  0
 13 14  2  0  0  0
 13  1  1  0  0  0
 14 15  1  0  0  0
 15 16  2  0  0  0
  1  2  1  0  0  0
  1  7  1  0  0  0
  2  3  1  0  0  0
  2 29  1  0  0  0
  3  4  2  0  0  0
  3  5  1  0  0  0
  5  6  2  0  0  0
  5  7  1  0  0  0
  7  8  2  0  0  0
  8  9  1  0  0  0
  8 17  1  0  0  0
 17 18  2  0  0  0
 17 21  1  0  0  0
 18 19  1  0  0  0
 18 22  1  0  0  0
 19 20  1  0  0  0
 19 23  1  0  0  0
 20 21  2  0  0  0
 23 24  2  0  0  0
 23 28  1  0  0  0
 24 25  1  0  0  0
 25 26  2  0  0  0
 26 27  1  0  0  0
 27 28  2  0  0  0
 29 30  1  0  0  0
 30 31  1  0  0  0
 31 32  1  0  0  0
 32 33  1  0  0  0
 32 34  1  0  0  0
 32 35  1  0  0  0
M  CHG 1   9  -1
M  CHG 1  32   1
M  END
> <minimizedAffinity>
-5.83735

$$$$
1285


 34 37  0  0  0  0  0  0  0  0999 V2000
    1.6255  -17.8080  -38.0818 C   0  0  0  0  0  0  0  0  0  0  0  0
    2.3270  -17.8502  -39.3500 N   0  0  0  0  0  0  0  0  0  0  0  0
    1.6147  -17.0050  -40.2797 C   0  0  0  0  0  0  0  0  0  0  0  0
    1.6141  -17.0674  -41.5147 O   0  0  0  0  0  0  0  0  0  0  0  0
    0.8921  -16.0571  -39.4368 C   0  0  0  0  0  0  0  0  0  0  0  0
    0.1202  -15.1166  -39.7907 O   0  0  0  0  0  0  0  0  0  0  0  0
    1.1967  -16.3633  -38.0488 C   0  0  0  0  0  0  0  0  0  0  0  0
    1.0824  -15.5817  -36.9874 C   0  0  0  0  0  0  0  0  0  0  0  0
    1.3895  -16.1473  -35.7171 O   0  0  0  0  0  0  0  0  0  0  0  0
    0.6734  -14.2037  -37.0983 C   0  0  0  0  0  0  0  0  0  0  0  0
    1.4399  -13.1179  -37.3342 N   0  0  0  0  0  0  0  0  0  0  0  0
    0.6347  -12.0289  -37.3929 C   0  0  0  0  0  0  0  0  0  0  0  0
   -0.6566  -12.4129  -37.1944 N   0  0  0  0  0  0  0  0  0  0  0  0
   -0.6195  -13.7542  -37.0135 C   0  0  0  0  0  0  0  0  0  0  0  0
   -1.8227  -14.5943  -36.7604 C   0  0  0  0  0  0  0  0  0  0  0  0
    1.0732  -10.7476  -37.6056 C   0  0  0  0  0  0  0  0  0  0  0  0
    2.4272  -10.5550  -37.7690 C   0  0  0  0  0  0  0  0  0  0  0  0
    3.2513  -11.6604  -37.7080 C   0  0  0  0  0  0  0  0  0  0  0  0
    2.7594  -12.9197  -37.4940 C   0  0  0  0  0  0  0  0  0  0  0  0
    0.1406   -9.5850  -37.6630 C   0  0  0  0  0  0  0  0  0  0  0  0
   -3.3559  -18.2850  -36.3774 Br  0  0  0  0  0  0  0  0  0  0  0  0
   -1.8035  -18.9740  -37.2519 C   0  0  0  0  0  0  0  0  0  0  0  0
   -0.6873  -18.2044  -37.3607 C   0  0  0  0  0  0  0  0  0  0  0  0
    0.4568  -18.6939  -37.9978 C   0  0  0  0  0  0  0  0  0  0  0  0
    0.4129  -19.9732  -38.5085 C   0  0  0  0  0  0  0  0  0  0  0  0
   -0.7273  -20.7593  -38.3975 C   0  0  0  0  0  0  0  0  0  0  0  0
   -1.8361  -20.2485  -37.7644 C   0  0  0  0  0  0  0  0  0  0  0  0
    3.5295  -18.6071  -39.6538 C   0  0  0  0  0  0  0  0  0  0  0  0
    4.1285  -19.3042  -38.4808 C   0  0  0  0  0  0  0  0  0  0  0  0
    4.0424  -20.8091  -38.5270 C   0  0  0  0  0  0  0  0  0  0  0  0
    5.3529  -21.3656  -38.7674 N   0  0  0  0  0  0  0  0  0  0  0  0
    5.5305  -21.6566  -40.1781 C   0  0  0  0  0  0  0  0  0  0  0  0
    6.3449  -20.3660  -38.4234 C   0  0  0  0  0  0  0  0  0  0  0  0
    5.5529  -22.1943  -38.1663 H   0  0  0  0  0  0  0  0  0  0  0  0
 21 22  1  0  0  0
 22 23  2  0  0  0
 22 27  1  0  0  0
 23 24  1  0  0  0
 24 25  2  0  0  0
 24  1  1  0  0  0
 25 26  1  0  0  0
 26 27  2  0  0  0
  1  2  1  0  0  0
  1  7  1  0  0  0
  2  3  1  0  0  0
  2 28  1  0  0  0
  3  4  2  0  0  0
  3  5  1  0  0  0
  5  6  2  0  0  0
  5  7  1  0  0  0
  7  8  2  0  0  0
  8  9  1  0  0  0
  8 10  1  0  0  0
 10 11  1  0  0  0
 10 14  2  0  0  0
 11 12  1  0  0  0
 11 19  1  0  0  0
 12 13  2  0  0  0
 12 16  1  0  0  0
 13 14  1  0  0  0
 14 15  1  0  0  0
 16 17  2  0  0  0
 16 20  1  0  0  0
 17 18  1  0  0  0
 18 19  2  0  0  0
 28 29  1  0  0  0
 29 30  1  0  0  0
 30 31  1  0  0  0
 31 32  1  0  0  0
 31 33  1  0  0  0
 31 34  1  0  0  0
M  CHG 1   9  -1
M  CHG 1  31   1
M  END
> <minimizedAffinity>
-6.22376

$$$$
1295


 26 29  0  0  0  0  0  0  0  0999 V2000
    1.3642  -18.9063  -37.7808 C   0  0  0  0  0  0  0  0  0  0  0  0
    0.4110  -19.3709  -38.7644 C   0  0  0  0  0  0  0  0  0  0  0  0
    0.7942  -20.1854  -39.7926 C   0  0  0  0  0  0  0  0  0  0  0  0
    2.1443  -20.6420  -39.9411 N   0  0  0  0  0  0  0  0  0  0  0  0
    3.0622  -20.1963  -38.9508 C   0  0  0  0  0  0  0  0  0  0  0  0
    2.7211  -19.4218  -37.9589 C   0  0  0  0  0  0  0  0  0  0  0  0
    3.9220  -19.1857  -37.0995 C   0  0  0  0  0  0  0  0  0  0  0  0
    3.8919  -18.4663  -36.0562 O   0  0  0  0  0  0  0  0  0  0  0  0
    4.9370  -19.8746  -37.6781 O   0  0  0  0  0  0  0  0  0  0  0  0
    4.5443  -20.5086  -38.8477 C   0  0  0  0  0  0  0  0  0  0  0  0
   -0.1382  -20.5954  -40.7121 N   0  0  0  0  0  0  0  0  0  0  0  0
   -1.4132  -20.2053  -40.6094 C   0  0  0  0  0  0  0  0  0  0  0  0
   -2.2550  -20.5950  -41.4676 O   0  0  0  0  0  0  0  0  0  0  0  0
   -1.7804  -19.4049  -39.5948 N   0  0  0  0  0  0  0  0  0  0  0  0
   -0.9393  -18.9631  -38.6627 C   0  0  0  0  0  0  0  0  0  0  0  0
   -1.2734  -18.2152  -37.7106 O   0  0  0  0  0  0  0  0  0  0  0  0
   -3.1864  -19.0040  -39.5238 C   0  0  0  0  0  0  0  0  0  0  0  0
    0.3327  -21.4609  -41.7834 C   0  0  0  0  0  0  0  0  0  0  0  0
    2.3940  -21.2572  -40.7359 H   0  0  0  0  0  0  0  0  0  0  0  0
    1.2565  -12.8315  -36.7236 Br  0  0  0  0  0  0  0  0  0  0  0  0
    1.2807  -14.7320  -37.0178 C   0  0  0  0  0  0  0  0  0  0  0  0
    0.9419  -15.6063  -36.0175 C   0  0  0  0  0  0  0  0  0  0  0  0
    0.9711  -16.9895  -36.2675 C   0  0  0  0  0  0  0  0  0  0  0  0
    1.3296  -17.4764  -37.4887 C   0  0  0  0  0  0  0  0  0  0  0  0
    1.6666  -16.5925  -38.4829 C   0  0  0  0  0  0  0  0  0  0  0  0
    1.6420  -15.2071  -38.2449 C   0  0  0  0  0  0  0  0  0  0  0  0
 20 21  1  0  0  0
 21 22  2  0  0  0
 21 26  1  0  0  0
 22 23  1  0  0  0
 23 24  2  0  0  0
 24 25  1  0  0  0
 24  1  1  0  0  0
 25 26  2  0  0  0
  1  2  1  0  0  0
  1  6  1  0  0  0
  2  3  2  0  0  0
  2 15  1  0  0  0
  3  4  1  0  0  0
  3 11  1  0  0  0
  4  5  1  0  0  0
  5  6  2  0  0  0
  5 10  1  0  0  0
  6  7  1  0  0  0
  7  8  2  0  0  0
  7  9  1  0  0  0
  9 10  1  0  0  0
 11 12  1  0  0  0
 11 18  1  0  0  0
 12 13  2  0  0  0
 12 14  1  0  0  0
 14 15  1  0  0  0
 14 17  1  0  0  0
 15 16  2  0  0  0
  4 19  1  0  0  0
M  END
> <minimizedAffinity>
-6.17673

$$$$
1299


 36 39  0  0  0  0  0  0  0  0999 V2000
    0.6528  -18.2484  -38.6300 C   0  0  0  0  0  0  0  0  0  0  0  0
   -0.6804  -18.3297  -38.3184 N   0  0  0  0  0  0  0  0  0  0  0  0
   -0.9825  -19.6093  -38.3893 N   0  0  0  0  0  0  0  0  0  0  0  0
    0.0406  -20.3286  -38.7150 N   0  0  0  0  0  0  0  0  0  0  0  0
    1.1182  -19.5108  -38.8827 C   0  0  0  0  0  0  0  0  0  0  0  0
   -1.5457  -17.2621  -37.9912 C   0  0  0  0  0  0  0  0  0  0  0  0
   -1.8461  -16.1438  -38.6972 N   0  0  0  0  0  0  0  0  0  0  0  0
   -2.6823  -15.4373  -38.0251 O   0  0  0  0  0  0  0  0  0  0  0  0
   -2.9914  -15.9841  -36.8926 N   0  0  0  0  0  0  0  0  0  0  0  0
   -2.2892  -17.1474  -36.8311 C   0  0  0  0  0  0  0  0  0  0  0  0
   -2.3427  -18.0560  -35.7442 N   0  0  0  0  0  0  0  0  0  0  0  0
   -2.2101  -19.0646  -35.9450 H   0  0  0  0  0  0  0  0  0  0  0  0
   -2.5053  -17.7729  -34.7604 H   0  0  0  0  0  0  0  0  0  0  0  0
    1.2900  -15.9947  -39.6813 N   0  0  0  0  0  0  0  0  0  0  0  0
    1.3304  -16.9581  -38.6487 C   0  0  0  0  0  0  0  0  0  0  0  0
    2.0566  -16.6102  -37.6412 O   0  0  0  0  0  0  0  0  0  0  0  0
    0.7630  -16.0780  -40.5786 H   0  0  0  0  0  0  0  0  0  0  0  0
    2.6227  -14.1844  -40.4269 C   0  0  0  0  0  0  0  0  0  0  0  0
    2.0463  -14.7940  -39.4654 N   0  0  0  0  0  0  0  0  0  0  0  0
    5.9511  -10.5061  -42.4168 Br  0  0  0  0  0  0  0  0  0  0  0  0
    4.8922  -11.2575  -41.0173 C   0  0  0  0  0  0  0  0  0  0  0  0
    4.8737  -10.6162  -39.7953 C   0  0  0  0  0  0  0  0  0  0  0  0
    4.1100  -11.1626  -38.7947 C   0  0  0  0  0  0  0  0  0  0  0  0
    3.3812  -12.3194  -39.0025 C   0  0  0  0  0  0  0  0  0  0  0  0
    3.3972  -12.9542  -40.2048 C   0  0  0  0  0  0  0  0  0  0  0  0
    4.1614  -12.4118  -41.2149 C   0  0  0  0  0  0  0  0  0  0  0  0
    4.0797  -10.2744  -37.0897 Br  0  0  0  0  0  0  0  0  0  0  0  0
    5.5919   -9.4549  -39.5490 O   0  0  0  0  0  0  0  0  0  0  0  0
    6.1688   -9.0056  -40.2378 H   0  0  0  0  0  0  0  0  0  0  0  0
    2.4821  -19.8766  -39.2625 C   0  0  0  0  0  0  0  0  0  0  0  0
    3.1450  -20.7616  -38.3169 N   0  0  0  0  0  0  0  0  0  0  0  0
    4.3018  -21.3898  -38.9429 C   0  0  0  0  0  0  0  0  0  0  0  0
    5.5562  -20.5913  -38.7274 C   0  0  0  0  0  0  0  0  0  0  0  0
    5.3348  -19.2549  -38.4506 O   0  0  0  0  0  0  0  0  0  0  0  0
    4.5544  -19.0210  -37.3286 C   0  0  0  0  0  0  0  0  0  0  0  0
    3.5337  -20.1014  -37.0950 C   0  0  0  0  0  0  0  0  0  0  0  0
 20 21  1  0  0  0
 21 22  2  0  0  0
 21 26  1  0  0  0
 22 23  1  0  0  0
 22 28  1  0  0  0
 23 24  2  0  0  0
 23 27  1  0  0  0
 24 25  1  0  0  0
 25 26  2  0  0  0
 25 18  1  0  0  0
 18 19  2  0  0  0
 19 14  1  0  0  0
 14 15  1  0  0  0
 15 16  2  0  0  0
 15  1  1  0  0  0
  1  2  1  0  0  0
  1  5  2  0  0  0
  2  3  1  0  0  0
  2  6  1  0  0  0
  3  4  2  0  0  0
  4  5  1  0  0  0
  5 30  1  0  0  0
 30 31  1  0  0  0
 31 32  1  0  0  0
 31 36  1  0  0  0
 32 33  1  0  0  0
 33 34  1  0  0  0
 34 35  1  0  0  0
 35 36  1  0  0  0
  6  7  2  0  0  0
  6 10  1  0  0  0
  7  8  1  0  0  0
  8  9  1  0  0  0
  9 10  2  0  0  0
 10 11  1  0  0  0
 14 17  1  0  0  0
 11 12  1  0  0  0
 11 13  1  0  0  0
 28 29  1  0  0  0
M  END
> <minimizedAffinity>
-6.17363

$$$$
1300


 22 25  0  0  0  0  0  0  0  0999 V2000
    2.4874  -18.8840  -38.4089 N   0  0  0  0  0  0  0  0  0  0  0  0
    3.0736  -18.7032  -39.6846 C   0  0  0  0  0  0  0  0  0  0  0  0
    2.5451  -18.1587  -40.6758 O   0  0  0  0  0  0  0  0  0  0  0  0
    4.4436  -19.2587  -39.7068 C   0  0  0  0  0  0  0  0  0  0  0  0
    4.3355  -20.6601  -40.2677 C   0  0  0  0  0  0  0  0  0  0  0  0
    3.7609  -21.3245  -39.1515 O   0  0  0  0  0  0  0  0  0  0  0  0
    4.8221  -21.0520  -38.2476 C   0  0  0  0  0  0  0  0  0  0  0  0
    4.7830  -19.5473  -38.2473 C   0  0  0  0  0  0  0  0  0  0  0  0
    3.5741  -19.1178  -37.5095 C   0  0  0  0  0  0  0  0  0  0  0  0
    3.5023  -18.9749  -36.2459 O   0  0  0  0  0  0  0  0  0  0  0  0
    5.9580  -21.5853  -39.0285 C   0  0  0  0  0  0  0  0  0  0  0  0
    5.6680  -21.3126  -40.2980 C   0  0  0  0  0  0  0  0  0  0  0  0
    1.5996  -16.1118  -37.5920 Br  0  0  0  0  0  0  0  0  0  0  0  0
    0.5224  -17.6956  -37.5812 C   0  0  0  0  0  0  0  0  0  0  0  0
    1.1287  -18.8581  -37.9989 C   0  0  0  0  0  0  0  0  0  0  0  0
    0.3368  -20.0075  -37.9908 C   0  0  0  0  0  0  0  0  0  0  0  0
   -0.9753  -19.9557  -37.5825 C   0  0  0  0  0  0  0  0  0  0  0  0
   -1.5846  -18.7850  -37.1624 C   0  0  0  0  0  0  0  0  0  0  0  0
   -0.8069  -17.6438  -37.1684 C   0  0  0  0  0  0  0  0  0  0  0  0
   -2.9436  -18.7635  -36.7436 N   0  0  0  0  0  0  0  0  0  0  0  0
   -3.2187  -18.2050  -35.6672 O   0  0  0  0  0  0  0  0  0  0  0  0
   -3.9763  -19.3180  -37.4488 O   0  0  0  0  0  0  0  0  0  0  0  0
 13 14  1  0  0  0
 14 15  2  0  0  0
 14 19  1  0  0  0
 15 16  1  0  0  0
 15  1  1  0  0  0
 16 17  2  0  0  0
 17 18  1  0  0  0
 18 19  2  0  0  0
 18 20  1  0  0  0
 20 21  2  0  0  0
 20 22  1  0  0  0
  1  2  1  0  0  0
  1  9  1  0  0  0
  2  3  2  0  0  0
  2  4  1  0  0  0
  4  5  1  0  0  0
  4  8  1  0  0  0
  5  6  1  0  0  0
  5 12  1  0  0  0
  6  7  1  0  0  0
  7  8  1  0  0  0
  7 11  1  0  0  0
  8  9  1  0  0  0
  9 10  2  0  0  0
 11 12  2  0  0  0
M  CHG 1  22  -1
M  END
> <minimizedAffinity>
-6.47052

$$$$
1301


 24 27  0  0  0  0  0  0  0  0999 V2000
    2.3547  -18.5764  -37.5091 N   0  0  0  0  0  0  0  0  0  0  0  0
    1.7899  -19.5146  -38.4176 C   0  0  0  0  0  0  0  0  0  0  0  0
    0.5983  -19.5928  -38.7872 O   0  0  0  0  0  0  0  0  0  0  0  0
    2.8572  -20.4430  -38.8995 C   0  0  0  0  0  0  0  0  0  0  0  0
    3.5742  -19.9041  -40.0920 C   0  0  0  0  0  0  0  0  0  0  0  0
    4.4598  -18.9515  -39.5289 O   0  0  0  0  0  0  0  0  0  0  0  0
    5.1043  -19.8483  -38.6395 C   0  0  0  0  0  0  0  0  0  0  0  0
    3.9402  -20.3188  -37.8305 C   0  0  0  0  0  0  0  0  0  0  0  0
    3.4676  -19.2427  -36.9276 C   0  0  0  0  0  0  0  0  0  0  0  0
    3.9750  -18.9650  -35.8209 O   0  0  0  0  0  0  0  0  0  0  0  0
    5.5241  -20.8945  -39.6199 C   0  0  0  0  0  0  0  0  0  0  0  0
    4.5559  -20.9218  -40.5528 C   0  0  0  0  0  0  0  0  0  0  0  0
    6.2058  -19.2300  -37.8896 C   0  0  0  0  0  0  0  0  0  0  0  0
    2.0386  -13.5684  -39.2181 Br  0  0  0  0  0  0  0  0  0  0  0  0
    1.6527  -14.9381  -37.9550 C   0  0  0  0  0  0  0  0  0  0  0  0
    0.9069  -14.6173  -36.8447 C   0  0  0  0  0  0  0  0  0  0  0  0
    0.6428  -15.6269  -35.9484 C   0  0  0  0  0  0  0  0  0  0  0  0
    1.1196  -16.9233  -36.1717 C   0  0  0  0  0  0  0  0  0  0  0  0
    1.8687  -17.2608  -37.2807 C   0  0  0  0  0  0  0  0  0  0  0  0
    2.1268  -16.2343  -38.1725 C   0  0  0  0  0  0  0  0  0  0  0  0
    0.3944  -13.2367  -36.6043 C   0  0  0  0  0  0  0  0  0  0  0  0
    2.7221  -19.3492  -41.1585 C   0  0  0  0  0  0  0  0  0  0  0  0
    1.8158  -20.2880  -41.6457 O   0  0  0  0  0  0  0  0  0  0  0  0
    2.1406  -20.7544  -42.4659 H   0  0  0  0  0  0  0  0  0  0  0  0
 14 15  1  0  0  0
 15 16  2  0  0  0
 15 20  1  0  0  0
 16 17  1  0  0  0
 16 21  1  0  0  0
 17 18  2  0  0  0
 18 19  1  0  0  0
 19 20  2  0  0  0
 19  1  1  0  0  0
  1  2  1  0  0  0
  1  9  1  0  0  0
  2  3  2  0  0  0
  2  4  1  0  0  0
  4  5  1  0  0  0
  4  8  1  0  0  0
  5  6  1  0  0  0
  5 12  1  0  0  0
  5 22  1  0  0  0
  6  7  1  0  0  0
  7  8  1  0  0  0
  7 11  1  0  0  0
  7 13  1  0  0  0
  8  9  1  0  0  0
  9 10  2  0  0  0
 11 12  2  0  0  0
 22 23  1  0  0  0
 23 24  1  0  0  0
M  END
> <minimizedAffinity>
-6.76795

$$$$
1310


 32 35  0  0  0  0  0  0  0  0999 V2000
    0.9910  -16.8036  -37.3196 C   0  0  0  0  0  0  0  0  0  0  0  0
   -0.3275  -17.0561  -37.8591 N   0  0  0  0  0  0  0  0  0  0  0  0
   -0.1864  -17.1394  -39.2663 C   0  0  0  0  0  0  0  0  0  0  0  0
   -1.0489  -16.8932  -40.1459 O   0  0  0  0  0  0  0  0  0  0  0  0
    1.1886  -17.5775  -39.5088 C   0  0  0  0  0  0  0  0  0  0  0  0
    1.7691  -17.7873  -40.5983 O   0  0  0  0  0  0  0  0  0  0  0  0
    1.7937  -17.7326  -38.1765 C   0  0  0  0  0  0  0  0  0  0  0  0
    2.8195  -18.5018  -37.8915 C   0  0  0  0  0  0  0  0  0  0  0  0
    3.2825  -18.4798  -36.5698 O   0  0  0  0  0  0  0  0  0  0  0  0
    3.4684  -19.3659  -38.8978 C   0  0  0  0  0  0  0  0  0  0  0  0
    3.0519  -20.4903  -39.3994 O   0  0  0  0  0  0  0  0  0  0  0  0
    3.9012  -20.9731  -40.2781 C   0  0  0  0  0  0  0  0  0  0  0  0
    4.9788  -20.1086  -40.3815 C   0  0  0  0  0  0  0  0  0  0  0  0
    4.6841  -19.0906  -39.4952 C   0  0  0  0  0  0  0  0  0  0  0  0
    6.0173  -20.3875  -41.2432 C   0  0  0  0  0  0  0  0  0  0  0  0
    6.0334  -21.5178  -42.0286 C   0  0  0  0  0  0  0  0  0  0  0  0
    4.9692  -22.3878  -41.9373 C   0  0  0  0  0  0  0  0  0  0  0  0
    3.9168  -22.1096  -41.0669 C   0  0  0  0  0  0  0  0  0  0  0  0
    3.2583  -12.7561  -40.0895 Br  0  0  0  0  0  0  0  0  0  0  0  0
    2.4119  -13.4881  -38.5246 C   0  0  0  0  0  0  0  0  0  0  0  0
    2.0270  -14.8300  -38.4938 C   0  0  0  0  0  0  0  0  0  0  0  0
    1.4215  -15.4049  -37.4056 C   0  0  0  0  0  0  0  0  0  0  0  0
    1.2053  -14.5600  -36.3039 C   0  0  0  0  0  0  0  0  0  0  0  0
    1.5786  -13.2362  -36.3210 C   0  0  0  0  0  0  0  0  0  0  0  0
    2.1855  -12.6853  -37.4278 C   0  0  0  0  0  0  0  0  0  0  0  0
   -1.6056  -17.2332  -37.1731 C   0  0  0  0  0  0  0  0  0  0  0  0
   -1.7336  -18.6503  -36.6473 C   0  0  0  0  0  0  0  0  0  0  0  0
   -2.3817  -19.5819  -37.6373 C   0  0  0  0  0  0  0  0  0  0  0  0
   -1.6205  -20.7859  -37.7347 N   0  0  0  0  0  0  0  0  0  0  0  0
   -2.2404  -21.7897  -38.5734 C   0  0  0  0  0  0  0  0  0  0  0  0
   -0.2685  -20.6224  -38.1761 C   0  0  0  0  0  0  0  0  0  0  0  0
   -1.5781  -21.2098  -36.7600 H   0  0  0  0  0  0  0  0  0  0  0  0
 19 20  1  0  0  0
 20 21  2  0  0  0
 20 25  1  0  0  0
 21 22  1  0  0  0
 22 23  2  0  0  0
 22  1  1  0  0  0
 23 24  1  0  0  0
 24 25  2  0  0  0
  1  2  1  0  0  0
  1  7  1  0  0  0
  2  3  1  0  0  0
  2 26  1  0  0  0
  3  4  2  0  0  0
  3  5  1  0  0  0
  5  6  2  0  0  0
  5  7  1  0  0  0
  7  8  2  0  0  0
  8  9  1  0  0  0
  8 10  1  0  0  0
 10 11  1  0  0  0
 10 14  2  0  0  0
 11 12  1  0  0  0
 12 13  2  0  0  0
 12 18  1  0  0  0
 13 14  1  0  0  0
 13 15  1  0  0  0
 15 16  2  0  0  0
 16 17  1  0  0  0
 17 18  2  0  0  0
 26 27  1  0  0  0
 27 28  1  0  0  0
 28 29  1  0  0  0
 29 30  1  0  0  0
 29 31  1  0  0  0
 29 32  1  0  0  0
M  CHG 1   9  -1
M  CHG 1  29   1
M  END
> <minimizedAffinity>
-6.75640

$$$$
1314


 32 35  0  0  0  0  0  0  0  0999 V2000
    1.1487  -14.9897  -36.4253 C   0  0  0  0  0  0  0  0  0  0  0  0
    1.6000  -13.7727  -36.4035 N   0  0  0  0  0  0  0  0  0  0  0  0
    0.6197  -12.9516  -36.2456 N   0  0  0  0  0  0  0  0  0  0  0  0
   -0.6014  -13.6054  -36.1481 N   0  0  0  0  0  0  0  0  0  0  0  0
   -0.3079  -14.8826  -36.2521 C   0  0  0  0  0  0  0  0  0  0  0  0
   -1.7414  -12.8112  -36.0339 C   0  0  0  0  0  0  0  0  0  0  0  0
   -2.8924  -13.0772  -36.7752 N   0  0  0  0  0  0  0  0  0  0  0  0
   -3.7298  -12.1411  -36.5653 O   0  0  0  0  0  0  0  0  0  0  0  0
   -3.2738  -11.2700  -35.7569 N   0  0  0  0  0  0  0  0  0  0  0  0
   -2.0181  -11.6677  -35.4064 C   0  0  0  0  0  0  0  0  0  0  0  0
   -1.2296  -10.8732  -34.5122 N   0  0  0  0  0  0  0  0  0  0  0  0
   -1.4641  -10.9223  -33.5106 H   0  0  0  0  0  0  0  0  0  0  0  0
   -0.5140  -10.2422  -34.8672 H   0  0  0  0  0  0  0  0  0  0  0  0
    2.2998  -17.2056  -35.7719 N   0  0  0  0  0  0  0  0  0  0  0  0
    1.7517  -16.2002  -36.8099 C   0  0  0  0  0  0  0  0  0  0  0  0
    1.9159  -16.5732  -37.9660 O   0  0  0  0  0  0  0  0  0  0  0  0
    2.1462  -16.9334  -34.8047 H   0  0  0  0  0  0  0  0  0  0  0  0
    3.7601  -18.8815  -36.8829 C   0  0  0  0  0  0  0  0  0  0  0  0
    2.8574  -18.1216  -36.4914 N   0  0  0  0  0  0  0  0  0  0  0  0
    6.0015  -19.9577  -38.6097 Br  0  0  0  0  0  0  0  0  0  0  0  0
    4.1610  -20.1397  -38.9876 C   0  0  0  0  0  0  0  0  0  0  0  0
    3.2296  -19.7340  -38.0623 C   0  0  0  0  0  0  0  0  0  0  0  0
    1.9177  -19.8088  -38.2896 C   0  0  0  0  0  0  0  0  0  0  0  0
    1.4297  -20.3186  -39.5328 C   0  0  0  0  0  0  0  0  0  0  0  0
    2.3238  -20.7011  -40.4752 C   0  0  0  0  0  0  0  0  0  0  0  0
    3.6954  -20.6180  -40.2165 C   0  0  0  0  0  0  0  0  0  0  0  0
   -1.0032  -16.1545  -36.0768 C   0  0  0  0  0  0  0  0  0  0  0  0
   -1.9001  -16.7843  -36.8433 N   0  0  0  0  0  0  0  0  0  0  0  0
   -1.3501  -18.0408  -37.3318 C   0  0  0  0  0  0  0  0  0  0  0  0
   -2.4026  -19.0884  -37.1246 C   0  0  0  0  0  0  0  0  0  0  0  0
   -3.5645  -18.3768  -36.4388 C   0  0  0  0  0  0  0  0  0  0  0  0
   -3.2610  -16.9058  -36.8162 C   0  0  0  0  0  0  0  0  0  0  0  0
 20 21  1  0  0  0
 21 22  2  0  0  0
 21 26  1  0  0  0
 22 23  1  0  0  0
 22 18  1  0  0  0
 23 24  2  0  0  0
 24 25  1  0  0  0
 25 26  2  0  0  0
 18 19  2  0  0  0
 19 14  1  0  0  0
 14 15  1  0  0  0
 15 16  2  0  0  0
 15  1  1  0  0  0
  1  2  1  0  0  0
  1  5  2  0  0  0
  2  3  2  0  0  0
  3  4  1  0  0  0
  4  5  1  0  0  0
  4  6  1  0  0  0
  5 27  1  0  0  0
 27 28  1  0  0  0
 28 29  1  0  0  0
 28 32  1  0  0  0
 29 30  1  0  0  0
 30 31  1  0  0  0
 31 32  1  0  0  0
  6  7  2  0  0  0
  6 10  1  0  0  0
  7  8  1  0  0  0
  8  9  1  0  0  0
  9 10  2  0  0  0
 10 11  1  0  0  0
 14 17  1  0  0  0
 11 12  1  0  0  0
 11 13  1  0  0  0
M  END
> <minimizedAffinity>
-6.10872

$$$$
1315


 30 33  0  0  0  0  0  0  0  0999 V2000
    1.6600  -15.4588  -39.9950 N   0  0  0  0  0  0  0  0  0  0  0  0
    1.4865  -15.6640  -38.6489 C   0  0  0  0  0  0  0  0  0  0  0  0
    1.6775  -16.9979  -38.4334 C   0  0  0  0  0  0  0  0  0  0  0  0
    1.5575  -17.5077  -37.1372 C   0  0  0  0  0  0  0  0  0  0  0  0
    1.2488  -16.6555  -36.0984 C   0  0  0  0  0  0  0  0  0  0  0  0
    1.0566  -15.3080  -36.3125 C   0  0  0  0  0  0  0  0  0  0  0  0
    1.1792  -14.8096  -37.6119 C   0  0  0  0  0  0  0  0  0  0  0  0
    1.9616  -17.5720  -39.6231 N   0  0  0  0  0  0  0  0  0  0  0  0
    1.9567  -16.6473  -40.5855 C   0  0  0  0  0  0  0  0  0  0  0  0
    2.2813  -16.8432  -41.8439 N   0  0  0  0  0  0  0  0  0  0  0  0
    2.4916  -17.7591  -42.2309 H   0  0  0  0  0  0  0  0  0  0  0  0
    2.3555  -16.0238  -42.4627 H   0  0  0  0  0  0  0  0  0  0  0  0
    1.6028  -14.1610  -40.6327 C   0  0  0  0  0  0  0  0  0  0  0  0
    2.9189  -13.5529  -40.8652 C   0  0  0  0  0  0  0  0  0  0  0  0
    3.5737  -13.9963  -41.9144 O   0  0  0  0  0  0  0  0  0  0  0  0
    6.6451   -9.6831  -40.6065 Br  0  0  0  0  0  0  0  0  0  0  0  0
    5.2399  -10.7881  -39.8639 C   0  0  0  0  0  0  0  0  0  0  0  0
    4.6246  -11.7441  -40.6198 C   0  0  0  0  0  0  0  0  0  0  0  0
    3.6262  -12.5365  -40.1302 C   0  0  0  0  0  0  0  0  0  0  0  0
    3.2604  -12.3144  -38.7934 C   0  0  0  0  0  0  0  0  0  0  0  0
    3.8536  -11.3673  -38.0053 C   0  0  0  0  0  0  0  0  0  0  0  0
    4.8539  -10.6009  -38.5560 C   0  0  0  0  0  0  0  0  0  0  0  0
    2.2618  -18.9888  -39.7366 C   0  0  0  0  0  0  0  0  0  0  0  0
    3.6351  -19.3886  -39.3840 C   0  0  0  0  0  0  0  0  0  0  0  0
    3.8652  -20.1154  -38.1877 N   0  0  0  0  0  0  0  0  0  0  0  0
    4.8349  -19.3965  -37.3220 C   0  0  0  0  0  0  0  0  0  0  0  0
    6.1209  -19.1188  -38.0286 C   0  0  0  0  0  0  0  0  0  0  0  0
    6.7418  -20.3504  -38.2435 O   0  0  0  0  0  0  0  0  0  0  0  0
    5.9494  -21.2009  -38.9734 C   0  0  0  0  0  0  0  0  0  0  0  0
    4.5564  -21.3915  -38.4366 C   0  0  0  0  0  0  0  0  0  0  0  0
 16 17  1  0  0  0
 17 18  2  0  0  0
 17 22  1  0  0  0
 18 19  1  0  0  0
 19 20  2  0  0  0
 19 14  1  0  0  0
 20 21  1  0  0  0
 21 22  2  0  0  0
 14 15  2  0  0  0
 14 13  1  0  0  0
 13  1  1  0  0  0
  1  2  1  0  0  0
  1  9  1  0  0  0
  2  3  1  0  0  0
  2  7  2  0  0  0
  3  4  2  0  0  0
  3  8  1  0  0  0
  4  5  1  0  0  0
  5  6  2  0  0  0
  6  7  1  0  0  0
  8  9  1  0  0  0
  8 23  1  0  0  0
  9 10  2  0  0  0
 23 24  1  0  0  0
 24 25  1  0  0  0
 25 26  1  0  0  0
 25 30  1  0  0  0
 26 27  1  0  0  0
 27 28  1  0  0  0
 28 29  1  0  0  0
 29 30  1  0  0  0
 10 11  1  0  0  0
 10 12  1  0  0  0
M  END
> <minimizedAffinity>
-6.45665

$$$$
1325


 31 34  0  0  0  0  0  0  0  0999 V2000
    1.8947  -19.4786  -38.1655 C   0  0  0  0  0  0  0  0  0  0  0  0
    3.2583  -19.6748  -37.7706 N   0  0  0  0  0  0  0  0  0  0  0  0
    3.4061  -18.8012  -36.6117 C   0  0  0  0  0  0  0  0  0  0  0  0
    4.2267  -18.9454  -35.6792 O   0  0  0  0  0  0  0  0  0  0  0  0
    2.4293  -17.7359  -36.7409 C   0  0  0  0  0  0  0  0  0  0  0  0
    2.2036  -16.7610  -35.9637 O   0  0  0  0  0  0  0  0  0  0  0  0
    1.7161  -18.0085  -37.9929 C   0  0  0  0  0  0  0  0  0  0  0  0
    1.0648  -17.1354  -38.7105 C   0  0  0  0  0  0  0  0  0  0  0  0
    0.3908  -17.5832  -39.8534 O   0  0  0  0  0  0  0  0  0  0  0  0
    1.0314  -15.7043  -38.3493 C   0  0  0  0  0  0  0  0  0  0  0  0
    0.1111  -15.1245  -37.5869 O   0  0  0  0  0  0  0  0  0  0  0  0
    0.3427  -13.8453  -37.4442 C   0  0  0  0  0  0  0  0  0  0  0  0
    1.4816  -13.4990  -38.1405 C   0  0  0  0  0  0  0  0  0  0  0  0
    1.8945  -14.6954  -38.7026 C   0  0  0  0  0  0  0  0  0  0  0  0
    1.9350  -12.1990  -38.1439 C   0  0  0  0  0  0  0  0  0  0  0  0
    1.2955  -11.1821  -37.4694 C   0  0  0  0  0  0  0  0  0  0  0  0
    0.1518  -11.5238  -36.7705 C   0  0  0  0  0  0  0  0  0  0  0  0
   -0.3145  -12.8199  -36.7569 C   0  0  0  0  0  0  0  0  0  0  0  0
   -0.3598  -21.7823  -43.4507 Br  0  0  0  0  0  0  0  0  0  0  0  0
    0.3524  -21.0706  -41.8208 C   0  0  0  0  0  0  0  0  0  0  0  0
   -0.3528  -21.1147  -40.6440 C   0  0  0  0  0  0  0  0  0  0  0  0
    0.1801  -20.5988  -39.4904 C   0  0  0  0  0  0  0  0  0  0  0  0
    1.4533  -20.0030  -39.4333 C   0  0  0  0  0  0  0  0  0  0  0  0
    2.1344  -19.9697  -40.6104 C   0  0  0  0  0  0  0  0  0  0  0  0
    1.5984  -20.4897  -41.7729 C   0  0  0  0  0  0  0  0  0  0  0  0
    4.3149  -20.5391  -38.2477 C   0  0  0  0  0  0  0  0  0  0  0  0
    5.5570  -19.9178  -38.7305 C   0  0  0  0  0  0  0  0  0  0  0  0
    5.9387  -20.1761  -40.0944 N   0  0  0  0  0  0  0  0  0  0  0  0
    5.6181  -21.5108  -40.5141 C   0  0  0  0  0  0  0  0  0  0  0  0
    5.5802  -19.1473  -41.0286 C   0  0  0  0  0  0  0  0  0  0  0  0
    7.0159  -20.1606  -40.0616 H   0  0  0  0  0  0  0  0  0  0  0  0
 19 20  1  0  0  0
 20 21  2  0  0  0
 20 25  1  0  0  0
 21 22  1  0  0  0
 22 23  2  0  0  0
 23 24  1  0  0  0
 23  1  1  0  0  0
 24 25  2  0  0  0
  1  2  1  0  0  0
  1  7  1  0  0  0
  2  3  1  0  0  0
  2 26  1  0  0  0
  3  4  2  0  0  0
  3  5  1  0  0  0
  5  6  2  0  0  0
  5  7  1  0  0  0
  7  8  2  0  0  0
  8  9  1  0  0  0
  8 10  1  0  0  0
 10 11  1  0  0  0
 10 14  2  0  0  0
 11 12  1  0  0  0
 12 13  2  0  0  0
 12 18  1  0  0  0
 13 14  1  0  0  0
 13 15  1  0  0  0
 15 16  2  0  0  0
 16 17  1  0  0  0
 17 18  2  0  0  0
 26 27  1  0  0  0
 27 28  1  0  0  0
 28 29  1  0  0  0
 28 30  1  0  0  0
 28 31  1  0  0  0
M  CHG 1   9  -1
M  CHG 1  28   1
M  END
> <minimizedAffinity>
-6.10405

$$$$
1329


 28 31  0  0  0  0  0  0  0  0999 V2000
    1.9605  -16.9565  -35.9636 C   0  0  0  0  0  0  0  0  0  0  0  0
    2.3626  -17.9330  -36.7791 C   0  0  0  0  0  0  0  0  0  0  0  0
    1.7761  -18.3188  -37.9828 O   0  0  0  0  0  0  0  0  0  0  0  0
    2.4686  -19.3539  -38.5484 C   0  0  0  0  0  0  0  0  0  0  0  0
    3.5484  -19.7063  -37.7461 C   0  0  0  0  0  0  0  0  0  0  0  0
    4.3701  -20.7390  -38.1690 C   0  0  0  0  0  0  0  0  0  0  0  0
    4.1126  -21.3880  -39.3550 C   0  0  0  0  0  0  0  0  0  0  0  0
    3.0179  -21.0066  -40.1348 C   0  0  0  0  0  0  0  0  0  0  0  0
    2.1887  -19.9904  -39.7397 C   0  0  0  0  0  0  0  0  0  0  0  0
    2.8437  -21.7214  -41.3098 O   0  0  0  0  0  0  0  0  0  0  0  0
    3.5171  -18.8057  -36.5810 C   0  0  0  0  0  0  0  0  0  0  0  0
    4.3423  -18.8317  -35.6315 O   0  0  0  0  0  0  0  0  0  0  0  0
   -3.2816  -16.7331  -36.9174 Br  0  0  0  0  0  0  0  0  0  0  0  0
   -1.5549  -15.9382  -36.7247 C   0  0  0  0  0  0  0  0  0  0  0  0
   -0.4484  -16.7224  -36.4096 C   0  0  0  0  0  0  0  0  0  0  0  0
    0.7975  -16.1504  -36.2776 C   0  0  0  0  0  0  0  0  0  0  0  0
    0.9626  -14.7986  -36.4557 C   0  0  0  0  0  0  0  0  0  0  0  0
   -0.1405  -14.0393  -36.7678 C   0  0  0  0  0  0  0  0  0  0  0  0
   -1.4021  -14.5725  -36.9067 C   0  0  0  0  0  0  0  0  0  0  0  0
    1.0104  -19.6828  -40.5521 C   0  0  0  0  0  0  0  0  0  0  0  0
   -0.0556  -20.6157  -40.4979 N   0  0  0  0  0  0  0  0  0  0  0  0
   -1.0821  -20.1901  -41.4352 C   0  0  0  0  0  0  0  0  0  0  0  0
   -2.4844  -20.3873  -40.9727 C   0  0  0  0  0  0  0  0  0  0  0  0
   -2.7697  -19.9051  -39.6672 N   0  0  0  0  0  0  0  0  0  0  0  0
   -1.5817  -19.6260  -38.9297 C   0  0  0  0  0  0  0  0  0  0  0  0
   -0.5785  -20.7064  -39.1555 C   0  0  0  0  0  0  0  0  0  0  0  0
   -3.6374  -20.8366  -38.9777 C   0  0  0  0  0  0  0  0  0  0  0  0
    0.2505  -21.6067  -40.7369 H   0  0  0  0  0  0  0  0  0  0  0  0
 13 14  1  0  0  0
 14 15  2  0  0  0
 14 19  1  0  0  0
 15 16  1  0  0  0
 16 17  2  0  0  0
 16  1  1  0  0  0
 17 18  1  0  0  0
 18 19  2  0  0  0
  1  2  2  0  0  0
  2  3  1  0  0  0
  2 11  1  0  0  0
  3  4  1  0  0  0
  4  5  2  0  0  0
  4  9  1  0  0  0
  5  6  1  0  0  0
  5 11  1  0  0  0
  6  7  2  0  0  0
  7  8  1  0  0  0
  8  9  2  0  0  0
  8 10  1  0  0  0
  9 20  1  0  0  0
 20 21  1  0  0  0
 21 22  1  0  0  0
 21 26  1  0  0  0
 22 23  1  0  0  0
 23 24  1  0  0  0
 24 25  1  0  0  0
 24 27  1  0  0  0
 25 26  1  0  0  0
 11 12  2  0  0  0
 21 28  1  0  0  0
M  CHG 1  10  -1
M  CHG 1  21   1
M  END
> <minimizedAffinity>
-6.35439

$$$$
1337


 32 35  0  0  0  0  0  0  0  0999 V2000
   -0.1465  -15.1240  -37.7236 N   0  0  0  0  0  0  0  0  0  0  0  0
    0.3960  -14.9096  -36.4321 C   0  0  0  0  0  0  0  0  0  0  0  0
    0.4730  -15.8996  -35.6555 O   0  0  0  0  0  0  0  0  0  0  0  0
   -0.2129  -14.3089  -38.3694 H   0  0  0  0  0  0  0  0  0  0  0  0
    0.8507  -13.5511  -36.0336 C   0  0  0  0  0  0  0  0  0  0  0  0
   -0.1620  -12.9184  -35.4164 O   0  0  0  0  0  0  0  0  0  0  0  0
   -0.2022  -11.5603  -35.4554 C   0  0  0  0  0  0  0  0  0  0  0  0
   -1.4905  -11.1605  -35.0715 O   0  0  0  0  0  0  0  0  0  0  0  0
   -2.2635  -11.1134  -36.2058 C   0  0  0  0  0  0  0  0  0  0  0  0
   -1.4454  -11.2660  -37.3074 O   0  0  0  0  0  0  0  0  0  0  0  0
   -0.1355  -10.9886  -36.8520 C   0  0  0  0  0  0  0  0  0  0  0  0
    0.8996  -11.6409  -37.6848 C   0  0  0  0  0  0  0  0  0  0  0  0
    1.9861  -10.7708  -37.9320 O   0  0  0  0  0  0  0  0  0  0  0  0
    3.1387  -11.5011  -37.7906 C   0  0  0  0  0  0  0  0  0  0  0  0
    2.8272  -12.4532  -36.8552 O   0  0  0  0  0  0  0  0  0  0  0  0
    1.5214  -12.8633  -37.1629 C   0  0  0  0  0  0  0  0  0  0  0  0
    4.2136  -10.5374  -37.2730 C   0  0  0  0  0  0  0  0  0  0  0  0
    3.6621  -12.0568  -39.0891 C   0  0  0  0  0  0  0  0  0  0  0  0
   -2.9613   -9.7619  -36.3644 C   0  0  0  0  0  0  0  0  0  0  0  0
   -3.3632  -12.1627  -36.2051 C   0  0  0  0  0  0  0  0  0  0  0  0
   -0.6086  -16.3977  -38.1888 C   0  0  0  0  0  0  0  0  0  0  0  0
    1.2125  -18.1207  -37.7958 N   0  0  0  0  0  0  0  0  0  0  0  0
    0.5243  -17.2409  -38.6503 C   0  0  0  0  0  0  0  0  0  0  0  0
    0.8433  -17.1328  -39.8510 O   0  0  0  0  0  0  0  0  0  0  0  0
    0.8591  -18.1373  -36.7839 H   0  0  0  0  0  0  0  0  0  0  0  0
    6.1106  -21.6533  -38.8498 Br  0  0  0  0  0  0  0  0  0  0  0  0
    4.5459  -20.5854  -38.5650 C   0  0  0  0  0  0  0  0  0  0  0  0
    4.6069  -19.5509  -37.6581 C   0  0  0  0  0  0  0  0  0  0  0  0
    3.4935  -18.7732  -37.4393 C   0  0  0  0  0  0  0  0  0  0  0  0
    2.2807  -18.9626  -38.0869 C   0  0  0  0  0  0  0  0  0  0  0  0
    2.2521  -20.0036  -38.9871 C   0  0  0  0  0  0  0  0  0  0  0  0
    3.3782  -20.8074  -39.2225 C   0  0  0  0  0  0  0  0  0  0  0  0
 26 27  1  0  0  0
 27 28  2  0  0  0
 27 32  1  0  0  0
 28 29  1  0  0  0
 29 30  2  0  0  0
 30 31  1  0  0  0
 30 22  1  0  0  0
 31 32  2  0  0  0
 22 23  1  0  0  0
 23 24  2  0  0  0
 23 21  1  0  0  0
 21  1  1  0  0  0
  1  2  1  0  0  0
  2  3  2  0  0  0
  2  5  1  0  0  0
  5  6  1  0  0  0
  5 16  1  0  0  0
  6  7  1  0  0  0
  7  8  1  0  0  0
  7 11  1  0  0  0
  8  9  1  0  0  0
  9 10  1  0  0  0
  9 19  1  0  0  0
  9 20  1  0  0  0
 10 11  1  0  0  0
 11 12  1  0  0  0
 12 13  1  0  0  0
 12 16  1  0  0  0
 13 14  1  0  0  0
 14 15  1  0  0  0
 14 17  1  0  0  0
 14 18  1  0  0  0
 15 16  1  0  0  0
 22 25  1  0  0  0
  1  4  1  0  0  0
M  END
> <minimizedAffinity>
-6.60100

$$$$
1341


 28 31  0  0  0  0  0  0  0  0999 V2000
    0.9405  -17.6379  -37.2950 C   0  0  0  0  0  0  0  0  0  0  0  0
   -0.3754  -17.8674  -37.0760 N   0  0  0  0  0  0  0  0  0  0  0  0
   -0.9653  -16.7016  -36.7402 C   0  0  0  0  0  0  0  0  0  0  0  0
   -0.0570  -15.7021  -36.7332 N   0  0  0  0  0  0  0  0  0  0  0  0
    1.1123  -16.2887  -37.0764 C   0  0  0  0  0  0  0  0  0  0  0  0
   -2.4131  -16.9243  -36.4953 C   0  0  0  0  0  0  0  0  0  0  0  0
   -2.6371  -18.3908  -36.6309 C   0  0  0  0  0  0  0  0  0  0  0  0
   -1.3382  -18.9462  -37.0845 C   0  0  0  0  0  0  0  0  0  0  0  0
    5.3837  -21.4457  -38.8364 Cl  0  0  0  0  0  0  0  0  0  0  0  0
    4.0890  -20.3414  -38.3921 C   0  0  0  0  0  0  0  0  0  0  0  0
    4.2570  -19.3970  -37.4028 C   0  0  0  0  0  0  0  0  0  0  0  0
    3.2347  -18.5316  -37.0567 C   0  0  0  0  0  0  0  0  0  0  0  0
    2.0025  -18.5661  -37.6793 C   0  0  0  0  0  0  0  0  0  0  0  0
    1.8320  -19.5092  -38.6710 C   0  0  0  0  0  0  0  0  0  0  0  0
    2.8639  -20.3871  -39.0237 C   0  0  0  0  0  0  0  0  0  0  0  0
   -0.2618  -14.3004  -36.4303 C   0  0  0  0  0  0  0  0  0  0  0  0
    0.5752  -13.4591  -37.3324 C   0  0  0  0  0  0  0  0  0  0  0  0
    0.0343  -12.9574  -38.3196 O   0  0  0  0  0  0  0  0  0  0  0  0
    1.9218  -13.2904  -37.0049 N   0  0  0  0  0  0  0  0  0  0  0  0
    2.3410  -13.7533  -36.1304 H   0  0  0  0  0  0  0  0  0  0  0  0
    2.8458  -12.5164  -37.7542 C   0  0  0  0  0  0  0  0  0  0  0  0
    3.0306  -12.8126  -39.1109 C   0  0  0  0  0  0  0  0  0  0  0  0
    3.9206  -12.1045  -39.8528 C   0  0  0  0  0  0  0  0  0  0  0  0
    4.6646  -11.0770  -39.2963 C   0  0  0  0  0  0  0  0  0  0  0  0
    4.4781  -10.7962  -37.9727 C   0  0  0  0  0  0  0  0  0  0  0  0
    3.5681  -11.5085  -37.1815 C   0  0  0  0  0  0  0  0  0  0  0  0
    5.6313  -10.3161  -40.1276 C   0  0  0  0  0  0  0  0  0  0  0  0
    6.0073  -11.1830  -41.3333 C   0  0  0  0  0  0  0  0  0  0  0  0
  9 10  1  0  0  0
 10 11  2  0  0  0
 10 15  1  0  0  0
 11 12  1  0  0  0
 12 13  2  0  0  0
 13 14  1  0  0  0
 13  1  1  0  0  0
 14 15  2  0  0  0
  1  2  1  0  0  0
  1  5  2  0  0  0
  2  3  1  0  0  0
  2  8  1  0  0  0
  3  4  2  0  0  0
  3  6  1  0  0  0
  4  5  1  0  0  0
  4 16  1  0  0  0
 16 17  1  0  0  0
 17 18  2  0  0  0
 17 19  1  0  0  0
 19 21  1  0  0  0
 21 22  2  0  0  0
 21 26  1  0  0  0
 22 23  1  0  0  0
 23 24  2  0  0  0
 24 25  1  0  0  0
 24 27  1  0  0  0
 25 26  2  0  0  0
 27 28  1  0  0  0
  6  7  1  0  0  0
  7  8  1  0  0  0
 19 20  1  0  0  0
M  END
> <minimizedAffinity>
-7.34602

$$$$
1343


 41 44  0  0  0  0  0  0  0  0999 V2000
    1.8060  -17.8967  -37.3877 C   0  0  0  0  0  0  0  0  0  0  0  0
    1.4819  -18.8594  -38.2889 N   0  0  0  0  0  0  0  0  0  0  0  0
    2.6020  -19.5641  -38.5939 C   0  0  0  0  0  0  0  0  0  0  0  0
    2.8619  -20.5981  -39.4023 N   0  0  0  0  0  0  0  0  0  0  0  0
    4.0959  -21.1211  -39.5225 C   0  0  0  0  0  0  0  0  0  0  0  0
    5.1057  -20.5841  -38.8036 N   0  0  0  0  0  0  0  0  0  0  0  0
    4.9216  -19.5571  -37.9815 C   0  0  0  0  0  0  0  0  0  0  0  0
    3.6528  -19.0255  -37.8619 C   0  0  0  0  0  0  0  0  0  0  0  0
    3.1296  -18.0353  -37.1593 N   0  0  0  0  0  0  0  0  0  0  0  0
    5.9460  -18.9801  -37.2238 O   0  0  0  0  0  0  0  0  0  0  0  0
    4.3566  -22.2308  -40.3946 N   0  0  0  0  0  0  0  0  0  0  0  0
    6.1174  -19.3973  -36.3167 H   0  0  0  0  0  0  0  0  0  0  0  0
    5.0251  -22.2122  -41.1717 H   0  0  0  0  0  0  0  0  0  0  0  0
    3.8186  -23.1028  -40.2062 H   0  0  0  0  0  0  0  0  0  0  0  0
    0.1760  -19.0892  -38.8252 C   0  0  0  0  0  0  0  0  0  0  0  0
   -0.4142  -17.9611  -39.3776 O   0  0  0  0  0  0  0  0  0  0  0  0
   -1.7675  -18.1409  -39.3923 C   0  0  0  0  0  0  0  0  0  0  0  0
   -2.1317  -19.3166  -38.5520 C   0  0  0  0  0  0  0  0  0  0  0  0
   -0.8250  -19.5895  -37.8043 C   0  0  0  0  0  0  0  0  0  0  0  0
   -0.6770  -20.9535  -37.5559 O   0  0  0  0  0  0  0  0  0  0  0  0
   -2.3384  -20.4516  -39.3626 O   0  0  0  0  0  0  0  0  0  0  0  0
   -0.3960  -21.0981  -36.6155 H   0  0  0  0  0  0  0  0  0  0  0  0
   -2.9396  -21.0962  -38.9315 H   0  0  0  0  0  0  0  0  0  0  0  0
   -2.4215  -16.9046  -38.7719 C   0  0  0  0  0  0  0  0  0  0  0  0
   -1.4813  -15.8747  -38.6564 O   0  0  0  0  0  0  0  0  0  0  0  0
   -0.5606  -16.2077  -38.8132 H   0  0  0  0  0  0  0  0  0  0  0  0
    0.9154  -16.9476  -36.8146 N   0  0  0  0  0  0  0  0  0  0  0  0
    0.2159  -17.2611  -36.1239 H   0  0  0  0  0  0  0  0  0  0  0  0
    1.2868  -14.6460  -36.4354 C   0  0  0  0  0  0  0  0  0  0  0  0
    1.0400  -15.6068  -37.2271 N   0  0  0  0  0  0  0  0  0  0  0  0
   -1.3640  -13.1010  -36.3359 Br  0  0  0  0  0  0  0  0  0  0  0  0
    0.3303  -12.4063  -36.8470 C   0  0  0  0  0  0  0  0  0  0  0  0
    1.4210  -13.2488  -36.8329 C   0  0  0  0  0  0  0  0  0  0  0  0
    2.6285  -12.7022  -37.2111 C   0  0  0  0  0  0  0  0  0  0  0  0
    2.7595  -11.3822  -37.5882 C   0  0  0  0  0  0  0  0  0  0  0  0
    1.6683  -10.5391  -37.6017 C   0  0  0  0  0  0  0  0  0  0  0  0
    0.4512  -11.0669  -37.2267 C   0  0  0  0  0  0  0  0  0  0  0  0
    3.9826  -10.8381  -37.9681 O   0  0  0  0  0  0  0  0  0  0  0  0
    4.5872  -11.0383  -39.2062 C   0  0  0  0  0  0  0  0  0  0  0  0
    1.8074   -9.2041  -37.9839 O   0  0  0  0  0  0  0  0  0  0  0  0
    1.4248   -8.7204  -39.2360 C   0  0  0  0  0  0  0  0  0  0  0  0
 31 32  1  0  0  0
 32 33  2  0  0  0
 32 37  1  0  0  0
 33 34  1  0  0  0
 33 29  1  0  0  0
 34 35  2  0  0  0
 35 36  1  0  0  0
 35 38  1  0  0  0
 36 37  2  0  0  0
 36 40  1  0  0  0
 40 41  1  0  0  0
 38 39  1  0  0  0
 29 30  2  0  0  0
 30 27  1  0  0  0
 27  1  1  0  0  0
  1  2  1  0  0  0
  1  9  2  0  0  0
  2  3  1  0  0  0
  2 15  1  0  0  0
  3  4  2  0  0  0
  3  8  1  0  0  0
  4  5  1  0  0  0
  5  6  2  0  0  0
  5 11  1  0  0  0
  6  7  1  0  0  0
  7  8  2  0  0  0
  7 10  1  0  0  0
  8  9  1  0  0  0
 15 16  1  0  0  0
 15 19  1  0  0  0
 16 17  1  0  0  0
 17 18  1  0  0  0
 17 24  1  0  0  0
 18 19  1  0  0  0
 18 21  1  0  0  0
 19 20  1  0  0  0
 24 25  1  0  0  0
 27 28  1  0  0  0
 10 12  1  0  0  0
 11 13  1  0  0  0
 11 14  1  0  0  0
 20 22  1  0  0  0
 21 23  1  0  0  0
 25 26  1  0  0  0
M  END
> <minimizedAffinity>
-6.51595

$$$$
1355


 27 30  0  0  0  0  0  0  0  0999 V2000
    2.1266  -12.8377  -36.9077 N   0  0  0  0  0  0  0  0  0  0  0  0
    2.3198  -12.6219  -38.2835 C   0  0  0  0  0  0  0  0  0  0  0  0
    1.3906  -12.8727  -39.0821 O   0  0  0  0  0  0  0  0  0  0  0  0
    2.9022  -12.6273  -36.2485 H   0  0  0  0  0  0  0  0  0  0  0  0
    3.6033  -12.1065  -38.7834 C   0  0  0  0  0  0  0  0  0  0  0  0
    3.6581  -12.0837  -40.2996 C   0  0  0  0  0  0  0  0  0  0  0  0
    4.8822  -11.3858  -40.7900 C   0  0  0  0  0  0  0  0  0  0  0  0
    4.7172   -9.9229  -41.0436 C   0  0  0  0  0  0  0  0  0  0  0  0
    3.6493   -9.2984  -40.1509 C   0  0  0  0  0  0  0  0  0  0  0  0
    3.9987   -9.6045  -38.7829 N   0  0  0  0  0  0  0  0  0  0  0  0
    4.3919   -8.7074  -37.9186 N   0  0  0  0  0  0  0  0  0  0  0  0
    4.6308   -9.3016  -36.7760 N   0  0  0  0  0  0  0  0  0  0  0  0
    4.3811  -10.5867  -36.9367 N   0  0  0  0  0  0  0  0  0  0  0  0
    3.9784  -10.8100  -38.1997 C   0  0  0  0  0  0  0  0  0  0  0  0
    0.8689  -13.3469  -36.3924 C   0  0  0  0  0  0  0  0  0  0  0  0
    1.4484  -16.9405  -36.8275 C   0  0  0  0  0  0  0  0  0  0  0  0
    0.4125  -16.9108  -35.9730 N   0  0  0  0  0  0  0  0  0  0  0  0
    0.0898  -15.6597  -35.7212 O   0  0  0  0  0  0  0  0  0  0  0  0
    0.8804  -14.8541  -36.3839 C   0  0  0  0  0  0  0  0  0  0  0  0
    1.7278  -15.6485  -37.0744 N   0  0  0  0  0  0  0  0  0  0  0  0
    0.0190  -18.4037  -39.0086 Cl  0  0  0  0  0  0  0  0  0  0  0  0
    1.5751  -18.8823  -38.3757 C   0  0  0  0  0  0  0  0  0  0  0  0
    2.1215  -18.1167  -37.3678 C   0  0  0  0  0  0  0  0  0  0  0  0
    3.3464  -18.5198  -36.8925 C   0  0  0  0  0  0  0  0  0  0  0  0
    4.0078  -19.6238  -37.3806 C   0  0  0  0  0  0  0  0  0  0  0  0
    3.4353  -20.3893  -38.4039 C   0  0  0  0  0  0  0  0  0  0  0  0
    2.2129  -20.0049  -38.8942 C   0  0  0  0  0  0  0  0  0  0  0  0
 21 22  1  0  0  0
 22 23  2  0  0  0
 22 27  1  0  0  0
 23 24  1  0  0  0
 23 16  1  0  0  0
 24 25  2  0  0  0
 25 26  1  0  0  0
 26 27  2  0  0  0
 16 17  2  0  0  0
 16 20  1  0  0  0
 17 18  1  0  0  0
 18 19  1  0  0  0
 19 20  2  0  0  0
 19 15  1  0  0  0
 15  1  1  0  0  0
  1  2  1  0  0  0
  2  3  2  0  0  0
  2  5  1  0  0  0
  5  6  1  0  0  0
  5 14  1  0  0  0
  6  7  1  0  0  0
  7  8  1  0  0  0
  8  9  1  0  0  0
  9 10  1  0  0  0
 10 11  1  0  0  0
 10 14  1  0  0  0
 11 12  2  0  0  0
 12 13  1  0  0  0
 13 14  2  0  0  0
  1  4  1  0  0  0
M  END
> <minimizedAffinity>
-6.83879

$$$$
1357


 24 27  0  0  0  0  0  0  0  0999 V2000
    1.6198  -19.9758  -38.9161 C   0  0  0  0  0  0  0  0  0  0  0  0
    0.8578  -19.1001  -38.1406 C   0  0  0  0  0  0  0  0  0  0  0  0
    0.6265  -17.6327  -38.0492 C   0  0  0  0  0  0  0  0  0  0  0  0
   -0.5916  -17.6574  -38.8974 N   0  0  0  0  0  0  0  0  0  0  0  0
   -0.3831  -18.4933  -39.8658 C   0  0  0  0  0  0  0  0  0  0  0  0
    0.9355  -19.0183  -39.6962 C   0  0  0  0  0  0  0  0  0  0  0  0
   -1.3226  -18.8209  -40.9139 N   0  0  0  0  0  0  0  0  0  0  0  0
    0.2593  -17.3318  -36.7329 O   0  0  0  0  0  0  0  0  0  0  0  0
    1.0620  -16.2870  -36.3179 C   0  0  0  0  0  0  0  0  0  0  0  0
    1.4364  -15.6243  -37.6329 C   0  0  0  0  0  0  0  0  0  0  0  0
    1.5832  -16.7829  -38.4354 O   0  0  0  0  0  0  0  0  0  0  0  0
   -1.9580  -18.1016  -41.3086 H   0  0  0  0  0  0  0  0  0  0  0  0
   -1.3791  -19.7847  -41.2921 H   0  0  0  0  0  0  0  0  0  0  0  0
    3.3326  -21.4817  -41.1447 Br  0  0  0  0  0  0  0  0  0  0  0  0
    3.9566  -20.5546  -39.5972 C   0  0  0  0  0  0  0  0  0  0  0  0
    3.0928  -19.9442  -38.7234 C   0  0  0  0  0  0  0  0  0  0  0  0
    3.5790  -19.2795  -37.6227 C   0  0  0  0  0  0  0  0  0  0  0  0
    4.9406  -19.2065  -37.3623 C   0  0  0  0  0  0  0  0  0  0  0  0
    5.8237  -19.8104  -38.2245 C   0  0  0  0  0  0  0  0  0  0  0  0
    5.3195  -20.4847  -39.3423 C   0  0  0  0  0  0  0  0  0  0  0  0
    1.8896  -18.0296  -40.2826 C   0  0  0  0  0  0  0  0  0  0  0  0
    2.6456  -17.2607  -40.7700 N   0  0  0  0  0  0  0  0  0  0  0  0
   -0.3910  -19.7505  -37.6045 C   0  0  0  0  0  0  0  0  0  0  0  0
   -1.3578  -20.2727  -37.1707 N   0  0  0  0  0  0  0  0  0  0  0  0
 14 15  1  0  0  0
 15 16  2  0  0  0
 15 20  1  0  0  0
 16 17  1  0  0  0
 16  1  1  0  0  0
 17 18  2  0  0  0
 18 19  1  0  0  0
 19 20  2  0  0  0
  1  2  1  0  0  0
  1  6  1  0  0  0
  2  3  1  0  0  0
  2  6  1  0  0  0
  2 23  1  0  0  0
  3  4  1  0  0  0
  3  8  1  0  0  0
  3 11  1  0  0  0
  4  5  2  0  0  0
  5  6  1  0  0  0
  5  7  1  0  0  0
  6 21  1  0  0  0
 21 22  3  0  0  0
  8  9  1  0  0  0
  9 10  1  0  0  0
 10 11  1  0  0  0
 23 24  3  0  0  0
  7 12  1  0  0  0
  7 13  1  0  0  0
M  END
> <minimizedAffinity>
-5.13145

$$$$
1360


 34 37  0  0  0  0  0  0  0  0999 V2000
    1.6419  -15.4151  -37.0678 C   0  0  0  0  0  0  0  0  0  0  0  0
    1.6036  -16.5255  -37.9836 N   0  0  0  0  0  0  0  0  0  0  0  0
    0.6110  -16.0516  -38.9751 C   0  0  0  0  0  0  0  0  0  0  0  0
    0.6105  -16.9909  -40.0288 N   0  0  0  0  0  0  0  0  0  0  0  0
    1.4635  -18.0743  -39.6475 C   0  0  0  0  0  0  0  0  0  0  0  0
    2.0470  -17.7712  -38.4156 C   0  0  0  0  0  0  0  0  0  0  0  0
    2.9125  -18.6839  -37.8499 C   0  0  0  0  0  0  0  0  0  0  0  0
    3.4253  -18.3888  -36.7399 O   0  0  0  0  0  0  0  0  0  0  0  0
    3.1733  -19.8313  -38.4869 N   0  0  0  0  0  0  0  0  0  0  0  0
    2.6064  -20.0920  -39.6527 C   0  0  0  0  0  0  0  0  0  0  0  0
    2.8789  -21.1849  -40.2198 O   0  0  0  0  0  0  0  0  0  0  0  0
    1.7400  -19.2269  -40.2641 N   0  0  0  0  0  0  0  0  0  0  0  0
    1.1868  -19.6329  -41.5364 C   0  0  0  0  0  0  0  0  0  0  0  0
    4.0996  -20.7733  -37.8495 C   0  0  0  0  0  0  0  0  0  0  0  0
   -0.1223  -16.9417  -41.2679 C   0  0  0  0  0  0  0  0  0  0  0  0
    0.9614  -14.6418  -39.2037 C   0  0  0  0  0  0  0  0  0  0  0  0
    1.9548  -14.3045  -38.0832 C   0  0  0  0  0  0  0  0  0  0  0  0
    0.3532  -15.1610  -36.4658 C   0  0  0  0  0  0  0  0  0  0  0  0
    0.3192  -14.0809  -35.7381 O   0  0  0  0  0  0  0  0  0  0  0  0
   -4.8305  -18.4290  -36.5550 Br  0  0  0  0  0  0  0  0  0  0  0  0
   -3.2217  -17.4080  -36.5419 C   0  0  0  0  0  0  0  0  0  0  0  0
   -3.1815  -16.1390  -37.0996 C   0  0  0  0  0  0  0  0  0  0  0  0
   -2.0329  -15.3870  -37.1007 C   0  0  0  0  0  0  0  0  0  0  0  0
   -0.8888  -15.8984  -36.5355 C   0  0  0  0  0  0  0  0  0  0  0  0
   -0.9112  -17.1753  -35.9689 C   0  0  0  0  0  0  0  0  0  0  0  0
   -2.0670  -17.9171  -35.9749 C   0  0  0  0  0  0  0  0  0  0  0  0
    1.7407  -12.9627  -37.5508 C   0  0  0  0  0  0  0  0  0  0  0  0
    2.5755  -12.4649  -36.7245 O   0  0  0  0  0  0  0  0  0  0  0  0
    0.6603  -12.2021  -37.9083 O   0  0  0  0  0  0  0  0  0  0  0  0
    0.4112  -10.9007  -37.3717 C   0  0  0  0  0  0  0  0  0  0  0  0
    1.4821  -14.2448  -40.5051 C   0  0  0  0  0  0  0  0  0  0  0  0
    0.7510  -13.6034  -41.3044 O   0  0  0  0  0  0  0  0  0  0  0  0
    2.7670  -14.5492  -40.8988 O   0  0  0  0  0  0  0  0  0  0  0  0
    3.0294  -15.1754  -42.1355 C   0  0  0  0  0  0  0  0  0  0  0  0
 20 21  1  0  0  0
 21 22  2  0  0  0
 21 26  1  0  0  0
 22 23  1  0  0  0
 23 24  2  0  0  0
 24 25  1  0  0  0
 24 18  1  0  0  0
 25 26  2  0  0  0
 18 19  2  0  0  0
 18  1  1  0  0  0
  1  2  1  0  0  0
  1 17  1  0  0  0
  2  3  1  0  0  0
  2  6  1  0  0  0
  3  4  1  0  0  0
  3 16  1  0  0  0
  4  5  1  0  0  0
  4 15  1  0  0  0
  5  6  2  0  0  0
  5 12  1  0  0  0
  6  7  1  0  0  0
  7  8  2  0  0  0
  7  9  1  0  0  0
  9 10  1  0  0  0
  9 14  1  0  0  0
 10 11  2  0  0  0
 10 12  1  0  0  0
 12 13  1  0  0  0
 16 17  1  0  0  0
 16 31  1  0  0  0
 17 27  1  0  0  0
 27 28  2  0  0  0
 27 29  1  0  0  0
 29 30  1  0  0  0
 31 32  2  0  0  0
 31 33  1  0  0  0
 33 34  1  0  0  0
M  END
> <minimizedAffinity>
-5.68708

$$$$
1372


 31 34  0  0  0  0  0  0  0  0999 V2000
    1.7465  -17.1709  -37.1599 C   0  0  0  0  0  0  0  0  0  0  0  0
    2.0004  -17.3593  -35.9522 O   0  0  0  0  0  0  0  0  0  0  0  0
    2.1176  -18.1258  -38.1130 N   0  0  0  0  0  0  0  0  0  0  0  0
    2.4701  -19.4971  -37.9633 C   0  0  0  0  0  0  0  0  0  0  0  0
    2.0092  -20.1521  -39.2746 C   0  0  0  0  0  0  0  0  0  0  0  0
    0.8143  -19.4484  -39.8693 C   0  0  0  0  0  0  0  0  0  0  0  0
    0.4010  -20.0677  -41.0990 N   0  0  0  0  0  0  0  0  0  0  0  0
   -0.6994  -19.2659  -41.6523 C   0  0  0  0  0  0  0  0  0  0  0  0
   -1.9262  -19.3393  -40.7978 C   0  0  0  0  0  0  0  0  0  0  0  0
   -1.6139  -19.4752  -39.3571 C   0  0  0  0  0  0  0  0  0  0  0  0
   -2.4267  -19.5583  -38.2994 N   0  0  0  0  0  0  0  0  0  0  0  0
   -1.6730  -19.6673  -37.1871 C   0  0  0  0  0  0  0  0  0  0  0  0
   -0.3897  -19.6490  -37.5726 N   0  0  0  0  0  0  0  0  0  0  0  0
   -0.2887  -19.5331  -38.9050 C   0  0  0  0  0  0  0  0  0  0  0  0
    1.1232  -17.9935  -40.2582 C   0  0  0  0  0  0  0  0  0  0  0  0
    2.3504  -17.6628  -39.5220 C   0  0  0  0  0  0  0  0  0  0  0  0
    1.1774  -19.9988  -41.7992 H   0  0  0  0  0  0  0  0  0  0  0  0
   -3.4695  -19.5495  -38.2526 H   0  0  0  0  0  0  0  0  0  0  0  0
    1.0307  -15.9119  -37.5315 C   0  0  0  0  0  0  0  0  0  0  0  0
   -0.0329  -15.6715  -36.4286 C   0  0  0  0  0  0  0  0  0  0  0  0
    2.0337  -13.9265  -38.6614 C   0  0  0  0  0  0  0  0  0  0  0  0
    1.4611  -14.2055  -39.7220 O   0  0  0  0  0  0  0  0  0  0  0  0
    1.8549  -14.7299  -37.4642 N   0  0  0  0  0  0  0  0  0  0  0  0
    2.3009  -14.4579  -36.5903 H   0  0  0  0  0  0  0  0  0  0  0  0
    5.4493  -10.8322  -41.3088 Br  0  0  0  0  0  0  0  0  0  0  0  0
    4.5363  -11.3226  -39.6804 C   0  0  0  0  0  0  0  0  0  0  0  0
    3.6487  -12.3696  -39.6785 C   0  0  0  0  0  0  0  0  0  0  0  0
    2.9444  -12.7763  -38.5331 C   0  0  0  0  0  0  0  0  0  0  0  0
    3.1680  -12.0933  -37.3765 C   0  0  0  0  0  0  0  0  0  0  0  0
    4.0645  -11.0298  -37.3656 C   0  0  0  0  0  0  0  0  0  0  0  0
    4.7476  -10.6401  -38.5057 C   0  0  0  0  0  0  0  0  0  0  0  0
 25 26  1  0  0  0
 26 27  2  0  0  0
 26 31  1  0  0  0
 27 28  1  0  0  0
 28 29  2  0  0  0
 28 21  1  0  0  0
 29 30  1  0  0  0
 30 31  2  0  0  0
 21 22  2  0  0  0
 21 23  1  0  0  0
 23 19  1  0  0  0
 19 20  1  0  0  0
 19  1  1  0  0  0
  1  2  2  0  0  0
  1  3  1  0  0  0
  3  4  1  0  0  0
  3 16  1  0  0  0
  4  5  1  0  0  0
  5  6  1  0  0  0
  6  7  1  0  0  0
  6 14  1  0  0  0
  6 15  1  0  0  0
  7  8  1  0  0  0
  8  9  1  0  0  0
  9 10  1  0  0  0
 10 11  1  0  0  0
 10 14  2  0  0  0
 11 12  1  0  0  0
 12 13  2  0  0  0
 13 14  1  0  0  0
 15 16  1  0  0  0
 23 24  1  0  0  0
  7 17  1  0  0  0
 11 18  1  0  0  0
M  END
> <minimizedAffinity>
-6.37718

$$$$
1381


 31 34  0  0  0  0  0  0  0  0999 V2000
    0.9345  -14.0178  -36.7314 C   0  0  0  0  0  0  0  0  0  0  0  0
    0.0690  -13.3674  -36.1603 O   0  0  0  0  0  0  0  0  0  0  0  0
    1.5928  -13.7805  -38.0015 C   0  0  0  0  0  0  0  0  0  0  0  0
    1.2326  -14.4902  -39.1124 N   0  0  0  0  0  0  0  0  0  0  0  0
    1.8165  -14.2925  -40.2810 N   0  0  0  0  0  0  0  0  0  0  0  0
    2.7940  -13.3828  -40.4314 C   0  0  0  0  0  0  0  0  0  0  0  0
    3.3514  -13.2014  -41.5654 O   0  0  0  0  0  0  0  0  0  0  0  0
    3.2157  -12.6279  -39.3626 C   0  0  0  0  0  0  0  0  0  0  0  0
    2.5815  -12.8562  -38.1387 C   0  0  0  0  0  0  0  0  0  0  0  0
    3.0330  -12.0796  -37.0998 C   0  0  0  0  0  0  0  0  0  0  0  0
    4.0457  -11.1407  -37.2660 C   0  0  0  0  0  0  0  0  0  0  0  0
    4.6488  -10.9423  -38.4856 C   0  0  0  0  0  0  0  0  0  0  0  0
    4.2137  -11.7065  -39.5390 C   0  0  0  0  0  0  0  0  0  0  0  0
    1.4261  -15.0515  -41.4511 C   0  0  0  0  0  0  0  0  0  0  0  0
    1.5289  -16.5383  -41.2336 C   0  0  0  0  0  0  0  0  0  0  0  0
    2.7533  -16.9187  -40.7160 O   0  0  0  0  0  0  0  0  0  0  0  0
    3.2447  -16.0970  -40.4799 H   0  0  0  0  0  0  0  0  0  0  0  0
    1.3010  -15.1652  -35.9759 O   0  0  0  0  0  0  0  0  0  0  0  0
    0.4185  -16.2543  -35.9743 C   0  0  0  0  0  0  0  0  0  0  0  0
    4.9288  -21.8315  -40.1282 Br  0  0  0  0  0  0  0  0  0  0  0  0
    4.1168  -20.4772  -39.0284 C   0  0  0  0  0  0  0  0  0  0  0  0
    2.7730  -20.1768  -39.1590 C   0  0  0  0  0  0  0  0  0  0  0  0
    2.1862  -19.2253  -38.3918 N   0  0  0  0  0  0  0  0  0  0  0  0
    2.8942  -18.5480  -37.4815 C   0  0  0  0  0  0  0  0  0  0  0  0
    2.3079  -17.6063  -36.7241 N   0  0  0  0  0  0  0  0  0  0  0  0
    1.0048  -17.2998  -36.8361 C   0  0  0  0  0  0  0  0  0  0  0  0
    0.2767  -17.9942  -37.7698 C   0  0  0  0  0  0  0  0  0  0  0  0
    0.8719  -18.9808  -38.5693 C   0  0  0  0  0  0  0  0  0  0  0  0
    0.1767  -19.5976  -39.4144 O   0  0  0  0  0  0  0  0  0  0  0  0
    4.2259  -18.8315  -37.3378 C   0  0  0  0  0  0  0  0  0  0  0  0
    4.8595  -19.7917  -38.0991 C   0  0  0  0  0  0  0  0  0  0  0  0
 20 21  1  0  0  0
 21 22  2  0  0  0
 21 31  1  0  0  0
 22 23  1  0  0  0
 23 24  1  0  0  0
 23 28  1  0  0  0
 24 25  2  0  0  0
 24 30  1  0  0  0
 25 26  1  0  0  0
 26 27  2  0  0  0
 26 19  1  0  0  0
 27 28  1  0  0  0
 28 29  2  0  0  0
 19 18  1  0  0  0
 18  1  1  0  0  0
  1  2  2  0  0  0
  1  3  1  0  0  0
  3  4  2  0  0  0
  3  9  1  0  0  0
  4  5  1  0  0  0
  5  6  1  0  0  0
  5 14  1  0  0  0
  6  7  2  0  0  0
  6  8  1  0  0  0
  8  9  2  0  0  0
  8 13  1  0  0  0
  9 10  1  0  0  0
 10 11  2  0  0  0
 11 12  1  0  0  0
 12 13  2  0  0  0
 14 15  1  0  0  0
 15 16  1  0  0  0
 30 31  2  0  0  0
 16 17  1  0  0  0
M  END
> <minimizedAffinity>
-6.77998

$$$$
1386


 33 36  0  0  0  0  0  0  0  0999 V2000
   -1.2644  -19.4321  -37.5353 C   0  0  0  0  0  0  0  0  0  0  0  0
   -1.2753  -20.5582  -36.9883 O   0  0  0  0  0  0  0  0  0  0  0  0
   -0.3995  -19.2181  -38.6714 N   0  0  0  0  0  0  0  0  0  0  0  0
    0.4188  -20.3045  -39.1366 C   0  0  0  0  0  0  0  0  0  0  0  0
    1.8599  -19.9320  -38.8560 C   0  0  0  0  0  0  0  0  0  0  0  0
    2.1253  -18.4724  -38.9408 C   0  0  0  0  0  0  0  0  0  0  0  0
    1.1293  -17.6815  -39.7068 C   0  0  0  0  0  0  0  0  0  0  0  0
   -0.2989  -17.9730  -39.3813 C   0  0  0  0  0  0  0  0  0  0  0  0
    2.2766  -17.8726  -37.6807 O   0  0  0  0  0  0  0  0  0  0  0  0
    3.4822  -18.2962  -39.6357 C   0  0  0  0  0  0  0  0  0  0  0  0
    1.7915  -18.4449  -37.0080 H   0  0  0  0  0  0  0  0  0  0  0  0
    2.6975  -20.7249  -39.7228 N   0  0  0  0  0  0  0  0  0  0  0  0
    2.3832  -20.8682  -41.0251 C   0  0  0  0  0  0  0  0  0  0  0  0
    3.1534  -21.6154  -41.8878 C   0  0  0  0  0  0  0  0  0  0  0  0
    4.2797  -22.2318  -41.3935 C   0  0  0  0  0  0  0  0  0  0  0  0
    5.0346  -22.9375  -42.1412 O   0  0  0  0  0  0  0  0  0  0  0  0
    4.5677  -22.0721  -40.0925 N   0  0  0  0  0  0  0  0  0  0  0  0
    3.8048  -21.3426  -39.2770 C   0  0  0  0  0  0  0  0  0  0  0  0
    4.1210  -21.2237  -38.0584 O   0  0  0  0  0  0  0  0  0  0  0  0
    5.4286  -22.5317  -39.6689 H   0  0  0  0  0  0  0  0  0  0  0  0
   -2.0964  -18.3189  -37.0649 C   0  0  0  0  0  0  0  0  0  0  0  0
   -1.5915  -17.5011  -35.9535 C   0  0  0  0  0  0  0  0  0  0  0  0
    3.5310  -11.8803  -36.9177 Cl  0  0  0  0  0  0  0  0  0  0  0  0
    1.9952  -12.7619  -36.9227 C   0  0  0  0  0  0  0  0  0  0  0  0
    1.9674  -14.0641  -36.4817 C   0  0  0  0  0  0  0  0  0  0  0  0
    0.7862  -14.7883  -36.4703 C   0  0  0  0  0  0  0  0  0  0  0  0
    0.4718  -16.0397  -36.1045 N   0  0  0  0  0  0  0  0  0  0  0  0
   -0.8769  -16.2471  -36.3039 C   0  0  0  0  0  0  0  0  0  0  0  0
   -1.3411  -15.1002  -36.7876 N   0  0  0  0  0  0  0  0  0  0  0  0
   -0.3565  -14.1631  -36.9124 C   0  0  0  0  0  0  0  0  0  0  0  0
   -0.3388  -12.8579  -37.3572 C   0  0  0  0  0  0  0  0  0  0  0  0
    0.8385  -12.1495  -37.3644 C   0  0  0  0  0  0  0  0  0  0  0  0
   -2.7156  -14.7742  -37.1239 C   0  0  0  0  0  0  0  0  0  0  0  0
 23 24  1  0  0  0
 24 25  2  0  0  0
 24 32  1  0  0  0
 25 26  1  0  0  0
 26 27  1  0  0  0
 26 30  2  0  0  0
 27 28  2  0  0  0
 28 29  1  0  0  0
 28 22  1  0  0  0
 29 30  1  0  0  0
 29 33  1  0  0  0
 30 31  1  0  0  0
 31 32  2  0  0  0
 22 21  1  0  0  0
 21  1  1  0  0  0
  1  2  2  0  0  0
  1  3  1  0  0  0
  3  4  1  0  0  0
  3  8  1  0  0  0
  4  5  1  0  0  0
  5  6  1  0  0  0
  5 12  1  0  0  0
  6  7  1  0  0  0
  6  9  1  0  0  0
  6 10  1  0  0  0
  7  8  1  0  0  0
 12 13  1  0  0  0
 12 18  1  0  0  0
 13 14  2  0  0  0
 14 15  1  0  0  0
 15 16  2  0  0  0
 15 17  1  0  0  0
 17 18  1  0  0  0
 18 19  2  0  0  0
  9 11  1  0  0  0
 17 20  1  0  0  0
M  END
> <minimizedAffinity>
-6.96365

$$$$
1388


 30 33  0  0  0  0  0  0  0  0999 V2000
   -0.2363  -16.5413  -37.3164 C   0  0  0  0  0  0  0  0  0  0  0  0
   -1.3505  -16.4582  -37.8893 O   0  0  0  0  0  0  0  0  0  0  0  0
    0.4728  -17.7515  -37.3648 N   0  0  0  0  0  0  0  0  0  0  0  0
    1.7566  -17.9231  -36.7314 C   0  0  0  0  0  0  0  0  0  0  0  0
    2.7599  -18.1779  -37.8353 C   0  0  0  0  0  0  0  0  0  0  0  0
    2.2566  -19.2808  -38.7357 C   0  0  0  0  0  0  0  0  0  0  0  0
    2.0627  -18.7250  -40.0581 N   0  0  0  0  0  0  0  0  0  0  0  0
    1.7081  -19.6696  -41.0589 C   0  0  0  0  0  0  0  0  0  0  0  0
    2.3820  -20.9917  -41.0115 C   0  0  0  0  0  0  0  0  0  0  0  0
    3.4233  -21.1169  -39.9702 C   0  0  0  0  0  0  0  0  0  0  0  0
    4.5142  -21.9339  -39.8484 N   0  0  0  0  0  0  0  0  0  0  0  0
    5.1065  -21.6122  -38.6920 C   0  0  0  0  0  0  0  0  0  0  0  0
    4.4149  -20.6241  -38.1013 N   0  0  0  0  0  0  0  0  0  0  0  0
    3.3516  -20.2875  -38.8738 C   0  0  0  0  0  0  0  0  0  0  0  0
    1.0090  -19.9496  -38.2556 C   0  0  0  0  0  0  0  0  0  0  0  0
   -0.0753  -18.8844  -38.0651 C   0  0  0  0  0  0  0  0  0  0  0  0
    1.2958  -18.0042  -40.0029 H   0  0  0  0  0  0  0  0  0  0  0  0
    4.7940  -22.6680  -40.5627 H   0  0  0  0  0  0  0  0  0  0  0  0
    0.2545  -15.3243  -36.6172 C   0  0  0  0  0  0  0  0  0  0  0  0
    1.7509  -13.3586  -37.0110 C   0  0  0  0  0  0  0  0  0  0  0  0
    1.3240  -12.8717  -35.9328 O   0  0  0  0  0  0  0  0  0  0  0  0
    1.2361  -14.6135  -37.4082 N   0  0  0  0  0  0  0  0  0  0  0  0
    1.5735  -15.0359  -38.2955 H   0  0  0  0  0  0  0  0  0  0  0  0
    4.1329  -12.4840  -41.6947 Br  0  0  0  0  0  0  0  0  0  0  0  0
    3.9012  -12.1239  -39.8499 C   0  0  0  0  0  0  0  0  0  0  0  0
    2.9561  -12.8385  -39.1361 C   0  0  0  0  0  0  0  0  0  0  0  0
    2.7379  -12.6230  -37.7883 C   0  0  0  0  0  0  0  0  0  0  0  0
    3.5044  -11.6556  -37.1544 C   0  0  0  0  0  0  0  0  0  0  0  0
    4.4418  -10.9489  -37.8699 C   0  0  0  0  0  0  0  0  0  0  0  0
    4.6720  -11.1503  -39.2127 C   0  0  0  0  0  0  0  0  0  0  0  0
 24 25  1  0  0  0
 25 26  2  0  0  0
 25 30  1  0  0  0
 26 27  1  0  0  0
 27 28  2  0  0  0
 27 20  1  0  0  0
 28 29  1  0  0  0
 29 30  2  0  0  0
 20 21  2  0  0  0
 20 22  1  0  0  0
 22 19  1  0  0  0
 19  1  1  0  0  0
  1  2  2  0  0  0
  1  3  1  0  0  0
  3  4  1  0  0  0
  3 16  1  0  0  0
  4  5  1  0  0  0
  5  6  1  0  0  0
  6  7  1  0  0  0
  6 14  1  0  0  0
  6 15  1  0  0  0
  7  8  1  0  0  0
  8  9  1  0  0  0
  9 10  1  0  0  0
 10 11  1  0  0  0
 10 14  2  0  0  0
 11 12  1  0  0  0
 12 13  2  0  0  0
 13 14  1  0  0  0
 15 16  1  0  0  0
 22 23  1  0  0  0
  7 17  1  0  0  0
 11 18  1  0  0  0
M  END
> <minimizedAffinity>
-7.51934

$$$$
1404


 26 29  0  0  0  0  0  0  0  0999 V2000
    1.6722  -12.7187  -39.3235 Br  0  0  0  0  0  0  0  0  0  0  0  0
    1.6481  -14.5257  -38.7125 C   0  0  0  0  0  0  0  0  0  0  0  0
    1.6420  -15.5832  -39.6023 C   0  0  0  0  0  0  0  0  0  0  0  0
    1.6247  -16.9050  -39.2104 C   0  0  0  0  0  0  0  0  0  0  0  0
    1.6144  -17.1307  -37.8309 C   0  0  0  0  0  0  0  0  0  0  0  0
    1.6206  -16.0799  -36.9467 C   0  0  0  0  0  0  0  0  0  0  0  0
    1.6381  -14.7619  -37.3539 C   0  0  0  0  0  0  0  0  0  0  0  0
    1.6439  -13.6604  -36.3495 C   0  0  0  0  0  0  0  0  0  0  0  0
    1.5991  -18.4720  -37.4745 O   0  0  0  0  0  0  0  0  0  0  0  0
    1.3809  -19.5377  -38.3797 C   0  0  0  0  0  0  0  0  0  0  0  0
    2.1859  -19.3043  -39.7013 C   0  0  0  0  0  0  0  0  0  0  0  0
    1.5996  -18.0177  -40.1494 C   0  0  0  0  0  0  0  0  0  0  0  0
    1.0770  -17.7736  -41.2509 O   0  0  0  0  0  0  0  0  0  0  0  0
    2.1257  -20.3496  -40.5698 N   0  0  0  0  0  0  0  0  0  0  0  0
    2.9574  -20.4951  -41.6867 C   0  0  0  0  0  0  0  0  0  0  0  0
    2.2168  -20.0871  -42.9422 C   0  0  0  0  0  0  0  0  0  0  0  0
    1.1905  -21.0478  -43.1040 O   0  0  0  0  0  0  0  0  0  0  0  0
    0.2646  -20.7350  -42.0935 C   0  0  0  0  0  0  0  0  0  0  0  0
    0.9226  -21.0353  -40.7446 C   0  0  0  0  0  0  0  0  0  0  0  0
    3.5724  -19.0835  -39.2114 C   0  0  0  0  0  0  0  0  0  0  0  0
    4.0876  -19.9608  -38.2071 N   0  0  0  0  0  0  0  0  0  0  0  0
    4.6418  -21.1976  -38.6092 C   0  0  0  0  0  0  0  0  0  0  0  0
    6.0393  -20.9928  -39.2126 C   0  0  0  0  0  0  0  0  0  0  0  0
    6.8400  -20.5452  -38.1566 O   0  0  0  0  0  0  0  0  0  0  0  0
    6.4152  -19.2473  -37.8494 C   0  0  0  0  0  0  0  0  0  0  0  0
    5.0037  -19.2065  -37.3497 C   0  0  0  0  0  0  0  0  0  0  0  0
  1  2  1  0  0  0
  2  3  2  0  0  0
  2  7  1  0  0  0
  3  4  1  0  0  0
  4  5  2  0  0  0
  4 12  1  0  0  0
  5  6  1  0  0  0
  5  9  1  0  0  0
  6  7  2  0  0  0
  7  8  1  0  0  0
  9 10  1  0  0  0
 10 11  1  0  0  0
 11 12  1  0  0  0
 11 14  1  0  0  0
 11 20  1  0  0  0
 12 13  2  0  0  0
 14 15  1  0  0  0
 14 19  1  0  0  0
 15 16  1  0  0  0
 16 17  1  0  0  0
 17 18  1  0  0  0
 18 19  1  0  0  0
 20 21  1  0  0  0
 21 22  1  0  0  0
 21 26  1  0  0  0
 22 23  1  0  0  0
 23 24  1  0  0  0
 24 25  1  0  0  0
 25 26  1  0  0  0
M  END
> <minimizedAffinity>
-5.82131

$$$$
1405


 27 30  0  0  0  0  0  0  0  0999 V2000
    2.7673  -12.2447  -37.6046 Br  0  0  0  0  0  0  0  0  0  0  0  0
    1.7553  -13.8667  -37.3608 C   0  0  0  0  0  0  0  0  0  0  0  0
    2.0139  -14.9810  -38.1146 C   0  0  0  0  0  0  0  0  0  0  0  0
    1.2771  -16.1307  -37.9217 C   0  0  0  0  0  0  0  0  0  0  0  0
    0.2991  -16.1057  -36.9647 C   0  0  0  0  0  0  0  0  0  0  0  0
    0.0345  -14.9584  -36.1896 C   0  0  0  0  0  0  0  0  0  0  0  0
    0.7762  -13.8256  -36.3944 C   0  0  0  0  0  0  0  0  0  0  0  0
   -0.3711  -17.3600  -36.8837 N   0  0  0  0  0  0  0  0  0  0  0  0
    0.2049  -18.2177  -37.8292 C   0  0  0  0  0  0  0  0  0  0  0  0
   -0.1458  -19.4199  -38.0345 O   0  0  0  0  0  0  0  0  0  0  0  0
    1.2977  -17.4744  -38.5500 C   0  0  0  0  0  0  0  0  0  0  0  0
    2.5265  -18.2129  -38.2822 C   0  0  0  0  0  0  0  0  0  0  0  0
    3.2240  -18.8100  -39.2858 C   0  0  0  0  0  0  0  0  0  0  0  0
    4.3068  -19.4072  -38.7062 N   0  0  0  0  0  0  0  0  0  0  0  0
    4.2978  -19.2021  -37.4058 N   0  0  0  0  0  0  0  0  0  0  0  0
    3.2253  -18.4751  -37.1004 C   0  0  0  0  0  0  0  0  0  0  0  0
    2.7670  -17.9795  -35.7649 C   0  0  0  0  0  0  0  0  0  0  0  0
    2.8202  -18.7582  -40.6244 O   0  0  0  0  0  0  0  0  0  0  0  0
    1.6475  -18.0535  -40.8756 C   0  0  0  0  0  0  0  0  0  0  0  0
    0.9343  -17.4597  -39.9546 C   0  0  0  0  0  0  0  0  0  0  0  0
    1.1771  -17.9650  -42.2503 N   0  0  0  0  0  0  0  0  0  0  0  0
   -1.4741  -17.7064  -35.9745 C   0  0  0  0  0  0  0  0  0  0  0  0
    4.9914  -19.5315  -36.6858 H   0  0  0  0  0  0  0  0  0  0  0  0
    0.5514  -18.7409  -42.5455 H   0  0  0  0  0  0  0  0  0  0  0  0
    1.4324  -17.2103  -42.8839 H   0  0  0  0  0  0  0  0  0  0  0  0
   -0.2806  -16.7576  -40.4038 C   0  0  0  0  0  0  0  0  0  0  0  0
   -1.2400  -16.2090  -40.7814 N   0  0  0  0  0  0  0  0  0  0  0  0
  1  2  1  0  0  0
  2  3  2  0  0  0
  2  7  1  0  0  0
  3  4  1  0  0  0
  4  5  2  0  0  0
  4 11  1  0  0  0
  5  6  1  0  0  0
  5  8  1  0  0  0
  6  7  2  0  0  0
  8  9  1  0  0  0
  8 22  1  0  0  0
  9 10  2  0  0  0
  9 11  1  0  0  0
 11 12  1  0  0  0
 11 20  1  0  0  0
 12 13  1  0  0  0
 12 16  2  0  0  0
 13 14  2  0  0  0
 13 18  1  0  0  0
 14 15  1  0  0  0
 15 16  1  0  0  0
 16 17  1  0  0  0
 18 19  1  0  0  0
 19 20  2  0  0  0
 19 21  1  0  0  0
 20 26  1  0  0  0
 26 27  3  0  0  0
 15 23  1  0  0  0
 21 24  1  0  0  0
 21 25  1  0  0  0
M  END
> <minimizedAffinity>
-5.75959

$$$$
1413


 24 27  0  0  0  0  0  0  0  0999 V2000
    0.7173  -16.4530  -36.0383 C   0  0  0  0  0  0  0  0  0  0  0  0
    0.5083  -20.0242  -39.9397 Br  0  0  0  0  0  0  0  0  0  0  0  0
    1.4317  -19.1028  -38.5666 C   0  0  0  0  0  0  0  0  0  0  0  0
    2.7320  -19.4015  -38.3400 C   0  0  0  0  0  0  0  0  0  0  0  0
    3.5644  -20.2813  -38.9307 N   0  0  0  0  0  0  0  0  0  0  0  0
    4.7178  -20.1320  -38.2863 N   0  0  0  0  0  0  0  0  0  0  0  0
    4.6486  -19.2272  -37.3499 N   0  0  0  0  0  0  0  0  0  0  0  0
    3.3879  -18.7210  -37.3388 C   0  0  0  0  0  0  0  0  0  0  0  0
    2.7332  -17.7550  -36.5819 C   0  0  0  0  0  0  0  0  0  0  0  0
    1.4422  -17.4547  -36.8024 N   0  0  0  0  0  0  0  0  0  0  0  0
    0.8095  -18.1284  -37.7873 C   0  0  0  0  0  0  0  0  0  0  0  0
    3.3668  -21.1956  -39.9909 C   0  0  0  0  0  0  0  0  0  0  0  0
    0.3688  -15.2553  -36.7968 C   0  0  0  0  0  0  0  0  0  0  0  0
   -0.8504  -14.9057  -36.7669 O   0  0  0  0  0  0  0  0  0  0  0  0
    1.2832  -14.4297  -37.5799 C   0  0  0  0  0  0  0  0  0  0  0  0
    1.9718  -13.4287  -36.9548 C   0  0  0  0  0  0  0  0  0  0  0  0
    2.8324  -12.6337  -37.6659 C   0  0  0  0  0  0  0  0  0  0  0  0
    3.0381  -12.8061  -39.0226 C   0  0  0  0  0  0  0  0  0  0  0  0
    2.3204  -13.8341  -39.6293 C   0  0  0  0  0  0  0  0  0  0  0  0
    1.4611  -14.6303  -38.9233 C   0  0  0  0  0  0  0  0  0  0  0  0
    3.8990  -12.0194  -39.7593 C   0  0  0  0  0  0  0  0  0  0  0  0
    4.5763  -11.0200  -39.0942 C   0  0  0  0  0  0  0  0  0  0  0  0
    4.3792  -10.8384  -37.7410 C   0  0  0  0  0  0  0  0  0  0  0  0
    3.5196  -11.6269  -37.0116 C   0  0  0  0  0  0  0  0  0  0  0  0
  2  3  1  0  0  0
  3  4  2  0  0  0
  3 11  1  0  0  0
  4  5  1  0  0  0
  4  8  1  0  0  0
  5  6  1  0  0  0
  5 12  1  0  0  0
  6  7  2  0  0  0
  7  8  1  0  0  0
  8  9  2  0  0  0
  9 10  1  0  0  0
 10 11  2  0  0  0
 10  1  1  0  0  0
  1 13  1  0  0  0
 13 14  2  0  0  0
 13 15  1  0  0  0
 15 16  2  0  0  0
 15 20  1  0  0  0
 16 17  1  0  0  0
 17 18  2  0  0  0
 17 24  1  0  0  0
 18 19  1  0  0  0
 18 21  1  0  0  0
 19 20  2  0  0  0
 21 22  2  0  0  0
 22 23  1  0  0  0
 23 24  2  0  0  0
M  END
> <minimizedAffinity>
-7.45364

$$$$
1415


 32 35  0  0  0  0  0  0  0  0999 V2000
   -0.1942  -13.4818  -41.1865 Br  0  0  0  0  0  0  0  0  0  0  0  0
    0.3240  -14.0323  -39.4254 C   0  0  0  0  0  0  0  0  0  0  0  0
    0.9253  -15.2543  -39.2399 C   0  0  0  0  0  0  0  0  0  0  0  0
    1.3204  -15.6959  -37.9662 C   0  0  0  0  0  0  0  0  0  0  0  0
    1.0732  -14.8396  -36.9156 C   0  0  0  0  0  0  0  0  0  0  0  0
    0.4713  -13.6099  -37.0738 C   0  0  0  0  0  0  0  0  0  0  0  0
    0.0937  -13.1991  -38.3317 C   0  0  0  0  0  0  0  0  0  0  0  0
   -0.5602  -11.8932  -38.6049 C   0  0  0  0  0  0  0  0  0  0  0  0
    0.1419  -12.4445  -35.5994 Br  0  0  0  0  0  0  0  0  0  0  0  0
    1.9481  -16.9924  -37.8162 C   0  0  0  0  0  0  0  0  0  0  0  0
    2.3921  -17.3450  -36.7184 O   0  0  0  0  0  0  0  0  0  0  0  0
    2.0528  -17.8864  -38.9830 C   0  0  0  0  0  0  0  0  0  0  0  0
    2.2294  -17.0096  -40.2032 C   0  0  0  0  0  0  0  0  0  0  0  0
    1.1589  -16.0914  -40.3267 O   0  0  0  0  0  0  0  0  0  0  0  0
    3.1496  -18.9010  -38.8680 C   0  0  0  0  0  0  0  0  0  0  0  0
    3.7744  -19.2795  -40.0765 N   0  0  0  0  0  0  0  0  0  0  0  0
    5.1941  -19.1194  -39.9652 C   0  0  0  0  0  0  0  0  0  0  0  0
    5.8753  -20.1008  -39.0802 C   0  0  0  0  0  0  0  0  0  0  0  0
    5.0633  -21.2403  -38.5992 C   0  0  0  0  0  0  0  0  0  0  0  0
    3.8747  -21.5968  -39.4036 C   0  0  0  0  0  0  0  0  0  0  0  0
    3.5422  -20.6317  -40.5033 C   0  0  0  0  0  0  0  0  0  0  0  0
    6.3829  -19.3404  -37.8495 C   0  0  0  0  0  0  0  0  0  0  0  0
    3.4528  -18.6546  -40.8586 H   0  0  0  0  0  0  0  0  0  0  0  0
    0.7123  -18.5829  -39.0958 C   0  0  0  0  0  0  0  0  0  0  0  0
    0.1981  -19.1143  -37.8799 N   0  0  0  0  0  0  0  0  0  0  0  0
   -0.1761  -20.5160  -38.0580 C   0  0  0  0  0  0  0  0  0  0  0  0
   -1.6543  -20.6995  -38.2406 C   0  0  0  0  0  0  0  0  0  0  0  0
   -2.1903  -19.6179  -39.1509 C   0  0  0  0  0  0  0  0  0  0  0  0
   -2.0644  -18.3109  -38.4314 C   0  0  0  0  0  0  0  0  0  0  0  0
   -0.9821  -18.4375  -37.3879 C   0  0  0  0  0  0  0  0  0  0  0  0
   -1.8524  -22.0265  -38.9855 C   0  0  0  0  0  0  0  0  0  0  0  0
    0.9119  -19.0966  -37.1466 H   0  0  0  0  0  0  0  0  0  0  0  0
  1  2  1  0  0  0
  2  3  2  0  0  0
  2  7  1  0  0  0
  3  4  1  0  0  0
  3 14  1  0  0  0
  4  5  2  0  0  0
  4 10  1  0  0  0
  5  6  1  0  0  0
  6  7  2  0  0  0
  6  9  1  0  0  0
  7  8  1  0  0  0
 10 11  2  0  0  0
 10 12  1  0  0  0
 12 13  1  0  0  0
 12 15  1  0  0  0
 12 24  1  0  0  0
 13 14  1  0  0  0
 15 16  1  0  0  0
 16 17  1  0  0  0
 16 21  1  0  0  0
 17 18  1  0  0  0
 18 19  1  0  0  0
 18 22  1  0  0  0
 19 20  1  0  0  0
 20 21  1  0  0  0
 24 25  1  0  0  0
 25 26  1  0  0  0
 25 30  1  0  0  0
 26 27  1  0  0  0
 27 28  1  0  0  0
 27 31  1  0  0  0
 28 29  1  0  0  0
 29 30  1  0  0  0
 16 23  1  0  0  0
 25 32  1  0  0  0
M  CHG 1  16   1
M  CHG 1  25   1
M  END
> <minimizedAffinity>
-6.00596

$$$$
1428


 37 40  0  0  0  0  0  0  0  0999 V2000
   -1.9709  -15.8494  -39.4351 Cl  0  0  0  0  0  0  0  0  0  0  0  0
   -0.6448  -16.2923  -38.3646 C   0  0  0  0  0  0  0  0  0  0  0  0
    0.2789  -17.2435  -38.7068 C   0  0  0  0  0  0  0  0  0  0  0  0
    1.2960  -17.5524  -37.8323 C   0  0  0  0  0  0  0  0  0  0  0  0
    1.3470  -16.8874  -36.6353 C   0  0  0  0  0  0  0  0  0  0  0  0
    0.4029  -15.9167  -36.2888 C   0  0  0  0  0  0  0  0  0  0  0  0
   -0.6008  -15.6192  -37.1633 C   0  0  0  0  0  0  0  0  0  0  0  0
    2.4531  -17.2939  -35.8376 N   0  0  0  0  0  0  0  0  0  0  0  0
    3.1316  -18.2684  -36.5805 C   0  0  0  0  0  0  0  0  0  0  0  0
    4.1904  -18.8299  -36.1454 O   0  0  0  0  0  0  0  0  0  0  0  0
    2.4378  -18.4971  -37.8556 C   0  0  0  0  0  0  0  0  0  0  0  0
    3.3611  -18.2084  -38.9168 N   0  0  0  0  0  0  0  0  0  0  0  0
    3.6900  -19.4259  -39.5903 C   0  0  0  0  0  0  0  0  0  0  0  0
    3.1989  -20.5528  -38.7395 C   0  0  0  0  0  0  0  0  0  0  0  0
    2.0694  -19.9116  -37.9823 C   0  0  0  0  0  0  0  0  0  0  0  0
    2.7152  -16.9374  -34.8804 H   0  0  0  0  0  0  0  0  0  0  0  0
    2.9946  -17.4605  -39.5428 H   0  0  0  0  0  0  0  0  0  0  0  0
    0.7401  -20.1969  -38.5810 C   0  0  0  0  0  0  0  0  0  0  0  0
    0.6567  -20.0602  -39.8255 O   0  0  0  0  0  0  0  0  0  0  0  0
   -0.3782  -20.5948  -37.8396 N   0  0  0  0  0  0  0  0  0  0  0  0
   -0.1984  -20.6921  -36.7932 H   0  0  0  0  0  0  0  0  0  0  0  0
   -1.6686  -20.8841  -38.2859 C   0  0  0  0  0  0  0  0  0  0  0  0
   -2.6915  -19.9809  -38.0346 C   0  0  0  0  0  0  0  0  0  0  0  0
   -3.9896  -20.2012  -38.4480 C   0  0  0  0  0  0  0  0  0  0  0  0
   -4.3327  -21.3389  -39.1345 C   0  0  0  0  0  0  0  0  0  0  0  0
   -3.3474  -22.2467  -39.3961 C   0  0  0  0  0  0  0  0  0  0  0  0
   -2.0411  -22.0115  -38.9738 C   0  0  0  0  0  0  0  0  0  0  0  0
   -2.4247  -18.8099  -37.3473 O   0  0  0  0  0  0  0  0  0  0  0  0
   -3.2204  -18.3072  -36.3181 C   0  0  0  0  0  0  0  0  0  0  0  0
   -3.6515  -23.4059  -40.0865 O   0  0  0  0  0  0  0  0  0  0  0  0
   -2.9754  -24.6298  -39.8622 C   0  0  0  0  0  0  0  0  0  0  0  0
    5.1799  -19.5302  -39.8721 C   0  0  0  0  0  0  0  0  0  0  0  0
    5.9378  -19.9439  -38.6827 C   0  0  0  0  0  0  0  0  0  0  0  0
    6.1306  -21.1474  -38.4491 O   0  0  0  0  0  0  0  0  0  0  0  0
    6.4471  -18.9689  -37.8050 N   0  0  0  0  0  0  0  0  0  0  0  0
    7.4404  -19.0512  -37.5000 H   0  0  0  0  0  0  0  0  0  0  0  0
    5.8944  -18.1588  -37.4326 H   0  0  0  0  0  0  0  0  0  0  0  0
  1  2  1  0  0  0
  2  3  2  0  0  0
  2  7  1  0  0  0
  3  4  1  0  0  0
  4  5  2  0  0  0
  4 11  1  0  0  0
  5  6  1  0  0  0
  5  8  1  0  0  0
  6  7  2  0  0  0
  8  9  1  0  0  0
  9 10  2  0  0  0
  9 11  1  0  0  0
 11 12  1  0  0  0
 11 15  1  0  0  0
 12 13  1  0  0  0
 13 14  1  0  0  0
 13 32  1  0  0  0
 14 15  1  0  0  0
 15 18  1  0  0  0
 18 19  2  0  0  0
 18 20  1  0  0  0
 20 22  1  0  0  0
 22 23  2  0  0  0
 22 27  1  0  0  0
 23 24  1  0  0  0
 23 28  1  0  0  0
 24 25  2  0  0  0
 25 26  1  0  0  0
 26 27  2  0  0  0
 26 30  1  0  0  0
 30 31  1  0  0  0
 28 29  1  0  0  0
 32 33  1  0  0  0
 33 34  2  0  0  0
 33 35  1  0  0  0
  8 16  1  0  0  0
 12 17  1  0  0  0
 20 21  1  0  0  0
 35 36  1  0  0  0
 35 37  1  0  0  0
M  END
> <minimizedAffinity>
-6.61149

$$$$
1432


 21 24  0  0  0  0  0  0  0  0999 V2000
    1.1263  -17.3304  -36.7400 C   0  0  0  0  0  0  0  0  0  0  0  0
    0.6234  -18.0606  -37.7490 N   0  0  0  0  0  0  0  0  0  0  0  0
    1.5849  -18.8085  -38.3160 N   0  0  0  0  0  0  0  0  0  0  0  0
    2.7261  -18.5502  -37.6528 C   0  0  0  0  0  0  0  0  0  0  0  0
    2.4377  -17.6493  -36.6951 N   0  0  0  0  0  0  0  0  0  0  0  0
    3.8693  -19.2110  -38.0598 C   0  0  0  0  0  0  0  0  0  0  0  0
    3.8655  -20.1107  -39.1090 C   0  0  0  0  0  0  0  0  0  0  0  0
    5.1052  -20.6111  -39.3002 N   0  0  0  0  0  0  0  0  0  0  0  0
    5.8700  -20.0386  -38.3897 N   0  0  0  0  0  0  0  0  0  0  0  0
    5.1715  -19.1858  -37.6185 C   0  0  0  0  0  0  0  0  0  0  0  0
    5.4887  -21.5885  -40.3165 C   0  0  0  0  0  0  0  0  0  0  0  0
    2.6894  -20.3202  -39.7254 N   0  0  0  0  0  0  0  0  0  0  0  0
    1.5716  -19.6839  -39.3389 C   0  0  0  0  0  0  0  0  0  0  0  0
    0.4220  -16.3708  -35.8457 C   0  0  0  0  0  0  0  0  0  0  0  0
   -0.3253  -11.1243  -37.0820 Br  0  0  0  0  0  0  0  0  0  0  0  0
    0.4228  -12.8440  -36.7432 C   0  0  0  0  0  0  0  0  0  0  0  0
   -0.2379  -14.0085  -36.3592 C   0  0  0  0  0  0  0  0  0  0  0  0
    0.6755  -14.9917  -36.2303 N   0  0  0  0  0  0  0  0  0  0  0  0
    1.8729  -14.4809  -36.5182 N   0  0  0  0  0  0  0  0  0  0  0  0
    1.7576  -13.1765  -36.8350 C   0  0  0  0  0  0  0  0  0  0  0  0
    2.8180  -12.2152  -37.2194 C   0  0  0  0  0  0  0  0  0  0  0  0
 15 16  1  0  0  0
 16 17  2  0  0  0
 16 20  1  0  0  0
 17 18  1  0  0  0
 18 19  1  0  0  0
 18 14  1  0  0  0
 19 20  2  0  0  0
 20 21  1  0  0  0
 14  1  1  0  0  0
  1  2  2  0  0  0
  1  5  1  0  0  0
  2  3  1  0  0  0
  3  4  1  0  0  0
  3 13  1  0  0  0
  4  5  2  0  0  0
  4  6  1  0  0  0
  6  7  2  0  0  0
  6 10  1  0  0  0
  7  8  1  0  0  0
  7 12  1  0  0  0
  8  9  1  0  0  0
  8 11  1  0  0  0
  9 10  2  0  0  0
 12 13  2  0  0  0
M  END
> <minimizedAffinity>
-5.84947

$$$$
1433


 28 31  0  0  0  0  0  0  0  0999 V2000
    1.1385  -16.8049  -39.9031 Br  0  0  0  0  0  0  0  0  0  0  0  0
    2.3021  -18.0399  -39.0563 C   0  0  0  0  0  0  0  0  0  0  0  0
    2.9388  -19.0254  -39.8175 C   0  0  0  0  0  0  0  0  0  0  0  0
    3.7970  -19.9286  -39.2401 C   0  0  0  0  0  0  0  0  0  0  0  0
    4.0069  -19.8302  -37.8854 C   0  0  0  0  0  0  0  0  0  0  0  0
    3.3853  -18.8586  -37.1029 C   0  0  0  0  0  0  0  0  0  0  0  0
    2.5167  -17.9438  -37.7050 C   0  0  0  0  0  0  0  0  0  0  0  0
    1.8511  -16.8978  -36.8803 C   0  0  0  0  0  0  0  0  0  0  0  0
    3.6288  -18.8068  -35.6368 C   0  0  0  0  0  0  0  0  0  0  0  0
    4.5471  -20.9849  -39.9788 C   0  0  0  0  0  0  0  0  0  0  0  0
    4.1347  -21.1560  -41.4085 C   0  0  0  0  0  0  0  0  0  0  0  0
    2.7461  -20.5710  -41.5898 C   0  0  0  0  0  0  0  0  0  0  0  0
    2.7571  -19.1773  -41.1853 O   0  0  0  0  0  0  0  0  0  0  0  0
    4.3542  -22.2076  -39.2636 O   0  0  0  0  0  0  0  0  0  0  0  0
    4.9360  -22.1647  -38.4651 H   0  0  0  0  0  0  0  0  0  0  0  0
    4.0461  -22.5821  -41.6384 N   0  0  0  0  0  0  0  0  0  0  0  0
    5.0279  -23.0790  -42.5436 C   0  0  0  0  0  0  0  0  0  0  0  0
    4.7495  -24.4378  -43.1198 C   0  0  0  0  0  0  0  0  0  0  0  0
    3.4342  -24.6986  -43.3940 O   0  0  0  0  0  0  0  0  0  0  0  0
    2.7072  -24.5372  -42.2072 C   0  0  0  0  0  0  0  0  0  0  0  0
    2.7192  -23.0030  -41.9787 C   0  0  0  0  0  0  0  0  0  0  0  0
    4.9677  -20.4574  -42.4147 C   0  0  0  0  0  0  0  0  0  0  0  0
    6.0468  -19.6396  -42.0996 N   0  0  0  0  0  0  0  0  0  0  0  0
    7.2280  -20.0220  -42.9470 C   0  0  0  0  0  0  0  0  0  0  0  0
    6.8909  -19.9732  -44.3913 C   0  0  0  0  0  0  0  0  0  0  0  0
    5.9580  -19.0327  -44.7369 O   0  0  0  0  0  0  0  0  0  0  0  0
    5.8473  -17.9619  -43.8986 C   0  0  0  0  0  0  0  0  0  0  0  0
    5.9838  -18.2289  -42.4344 C   0  0  0  0  0  0  0  0  0  0  0  0
  1  2  1  0  0  0
  2  3  2  0  0  0
  2  7  1  0  0  0
  3  4  1  0  0  0
  3 13  1  0  0  0
  4  5  2  0  0  0
  4 10  1  0  0  0
  5  6  1  0  0  0
  6  7  2  0  0  0
  6  9  1  0  0  0
  7  8  1  0  0  0
 10 11  1  0  0  0
 10 14  1  0  0  0
 11 12  1  0  0  0
 11 16  1  0  0  0
 11 22  1  0  0  0
 12 13  1  0  0  0
 16 17  1  0  0  0
 16 21  1  0  0  0
 17 18  1  0  0  0
 18 19  1  0  0  0
 19 20  1  0  0  0
 20 21  1  0  0  0
 22 23  1  0  0  0
 23 24  1  0  0  0
 23 28  1  0  0  0
 24 25  1  0  0  0
 25 26  1  0  0  0
 26 27  1  0  0  0
 27 28  1  0  0  0
 14 15  1  0  0  0
M  END
> <minimizedAffinity>
-5.87307

$$$$
1434


 28 31  0  0  0  0  0  0  0  0999 V2000
    2.5040  -18.2620  -38.0654 C   0  0  0  0  0  0  0  0  0  0  0  0
    3.1144  -17.9238  -36.9349 O   0  0  0  0  0  0  0  0  0  0  0  0
    2.6110  -19.6040  -38.3942 N   0  0  0  0  0  0  0  0  0  0  0  0
    2.0797  -20.2741  -39.5272 C   0  0  0  0  0  0  0  0  0  0  0  0
    3.2101  -20.6491  -40.4865 C   0  0  0  0  0  0  0  0  0  0  0  0
    4.4719  -20.9472  -39.6942 C   0  0  0  0  0  0  0  0  0  0  0  0
    5.1507  -22.0051  -40.4233 N   0  0  0  0  0  0  0  0  0  0  0  0
    6.0144  -21.3513  -41.3760 C   0  0  0  0  0  0  0  0  0  0  0  0
    6.5241  -21.8807  -42.3948 O   0  0  0  0  0  0  0  0  0  0  0  0
    6.1766  -19.9890  -40.9379 N   0  0  0  0  0  0  0  0  0  0  0  0
    5.4255  -19.8194  -39.7421 C   0  0  0  0  0  0  0  0  0  0  0  0
    5.5749  -18.8851  -38.9207 O   0  0  0  0  0  0  0  0  0  0  0  0
    4.1832  -21.4362  -38.3100 C   0  0  0  0  0  0  0  0  0  0  0  0
    3.3752  -20.4902  -37.4827 C   0  0  0  0  0  0  0  0  0  0  0  0
    5.0452  -23.0330  -40.2948 H   0  0  0  0  0  0  0  0  0  0  0  0
    6.7396  -19.2688  -41.4118 H   0  0  0  0  0  0  0  0  0  0  0  0
    1.8654  -17.1221  -38.6928 C   0  0  0  0  0  0  0  0  0  0  0  0
   -3.2418  -16.1595  -37.1129 Br  0  0  0  0  0  0  0  0  0  0  0  0
   -1.3599  -16.0984  -37.4428 C   0  0  0  0  0  0  0  0  0  0  0  0
   -0.5550  -15.0770  -37.0035 C   0  0  0  0  0  0  0  0  0  0  0  0
    0.7178  -15.3680  -37.4214 C   0  0  0  0  0  0  0  0  0  0  0  0
    0.7037  -16.5491  -38.1081 N   0  0  0  0  0  0  0  0  0  0  0  0
   -0.5758  -16.9916  -38.1181 C   0  0  0  0  0  0  0  0  0  0  0  0
   -1.0379  -18.2422  -38.7618 C   0  0  0  0  0  0  0  0  0  0  0  0
    1.7574  -14.4912  -37.1102 C   0  0  0  0  0  0  0  0  0  0  0  0
    1.5118  -13.3327  -36.3844 C   0  0  0  0  0  0  0  0  0  0  0  0
    0.2356  -13.0602  -35.9770 C   0  0  0  0  0  0  0  0  0  0  0  0
   -0.7957  -13.9192  -36.2796 C   0  0  0  0  0  0  0  0  0  0  0  0
 18 19  1  0  0  0
 19 20  1  0  0  0
 19 23  2  0  0  0
 20 21  2  0  0  0
 20 28  1  0  0  0
 21 22  1  0  0  0
 21 25  1  0  0  0
 22 23  1  0  0  0
 22 17  1  0  0  0
 23 24  1  0  0  0
 17  1  1  0  0  0
  1  2  2  0  0  0
  1  3  1  0  0  0
  3  4  1  0  0  0
  3 14  1  0  0  0
  4  5  1  0  0  0
  5  6  1  0  0  0
  6  7  1  0  0  0
  6 11  1  0  0  0
  6 13  1  0  0  0
  7  8  1  0  0  0
  8  9  2  0  0  0
  8 10  1  0  0  0
 10 11  1  0  0  0
 11 12  2  0  0  0
 13 14  1  0  0  0
 25 26  2  0  0  0
 26 27  1  0  0  0
 27 28  2  0  0  0
  7 15  1  0  0  0
 10 16  1  0  0  0
M  END
> <minimizedAffinity>
-6.80944

$$$$
1435


 32 35  0  0  0  0  0  0  0  0999 V2000
    0.9461  -16.4012  -37.8400 C   0  0  0  0  0  0  0  0  0  0  0  0
    0.3972  -15.0817  -38.3654 C   0  0  0  0  0  0  0  0  0  0  0  0
    0.9708  -15.6830  -41.5999 Br  0  0  0  0  0  0  0  0  0  0  0  0
    1.7723  -14.4463  -40.3855 C   0  0  0  0  0  0  0  0  0  0  0  0
    1.4052  -14.3407  -39.0851 N   0  0  0  0  0  0  0  0  0  0  0  0
    2.1987  -13.3700  -38.5797 C   0  0  0  0  0  0  0  0  0  0  0  0
    3.0487  -12.8747  -39.5464 C   0  0  0  0  0  0  0  0  0  0  0  0
    2.7555  -13.5727  -40.6688 N   0  0  0  0  0  0  0  0  0  0  0  0
    3.9452  -11.8937  -39.2956 N   0  0  0  0  0  0  0  0  0  0  0  0
    3.9940  -11.3935  -38.0480 C   0  0  0  0  0  0  0  0  0  0  0  0
    4.8029  -10.4784  -37.7397 O   0  0  0  0  0  0  0  0  0  0  0  0
    3.1707  -11.8564  -37.0678 N   0  0  0  0  0  0  0  0  0  0  0  0
    2.2785  -12.8285  -37.3077 C   0  0  0  0  0  0  0  0  0  0  0  0
    1.5011  -13.2877  -36.4415 O   0  0  0  0  0  0  0  0  0  0  0  0
    4.8326  -11.3855  -40.3248 C   0  0  0  0  0  0  0  0  0  0  0  0
    3.2380  -11.4415  -36.1088 H   0  0  0  0  0  0  0  0  0  0  0  0
    0.2480  -17.5711  -38.4812 C   0  0  0  0  0  0  0  0  0  0  0  0
    0.5558  -18.9025  -37.8636 C   0  0  0  0  0  0  0  0  0  0  0  0
    1.6250  -19.5394  -38.5576 N   0  0  0  0  0  0  0  0  0  0  0  0
    2.9316  -19.5735  -38.3026 C   0  0  0  0  0  0  0  0  0  0  0  0
    3.5541  -20.3667  -39.2599 C   0  0  0  0  0  0  0  0  0  0  0  0
    2.5841  -20.7854  -40.0674 N   0  0  0  0  0  0  0  0  0  0  0  0
    1.4106  -20.2971  -39.6627 C   0  0  0  0  0  0  0  0  0  0  0  0
   -0.2506  -20.6429  -40.5321 Br  0  0  0  0  0  0  0  0  0  0  0  0
    4.8756  -20.5614  -39.2332 N   0  0  0  0  0  0  0  0  0  0  0  0
    5.6404  -19.9944  -38.2804 C   0  0  0  0  0  0  0  0  0  0  0  0
    6.8823  -20.1827  -38.2621 O   0  0  0  0  0  0  0  0  0  0  0  0
    5.0551  -19.2284  -37.3545 N   0  0  0  0  0  0  0  0  0  0  0  0
    3.7320  -19.0076  -37.3450 C   0  0  0  0  0  0  0  0  0  0  0  0
    3.2040  -18.2878  -36.4743 O   0  0  0  0  0  0  0  0  0  0  0  0
    5.5541  -21.3893  -40.2246 C   0  0  0  0  0  0  0  0  0  0  0  0
    5.6200  -18.7635  -36.5875 H   0  0  0  0  0  0  0  0  0  0  0  0
  3  4  1  0  0  0
  4  5  1  0  0  0
  4  8  2  0  0  0
  5  6  1  0  0  0
  5  2  1  0  0  0
  6  7  2  0  0  0
  6 13  1  0  0  0
  7  8  1  0  0  0
  7  9  1  0  0  0
  9 10  1  0  0  0
  9 15  1  0  0  0
 10 11  2  0  0  0
 10 12  1  0  0  0
 12 13  1  0  0  0
 13 14  2  0  0  0
  2  1  1  0  0  0
  1 17  1  0  0  0
 17 18  1  0  0  0
 18 19  1  0  0  0
 19 20  1  0  0  0
 19 23  1  0  0  0
 20 21  2  0  0  0
 20 29  1  0  0  0
 21 22  1  0  0  0
 21 25  1  0  0  0
 22 23  2  0  0  0
 23 24  1  0  0  0
 25 26  1  0  0  0
 25 31  1  0  0  0
 26 27  2  0  0  0
 26 28  1  0  0  0
 28 29  1  0  0  0
 29 30  2  0  0  0
 12 16  1  0  0  0
 28 32  1  0  0  0
M  END
> <minimizedAffinity>
-6.21886

$$$$
1436


 33 36  0  0  0  0  0  0  0  0999 V2000
   -1.4901  -18.9591  -38.0027 O   0  0  0  0  0  0  0  0  0  0  0  0
   -2.1483  -18.8581  -36.8220 C   0  0  0  0  0  0  0  0  0  0  0  0
   -2.2936  -17.5801  -36.1058 C   0  0  0  0  0  0  0  0  0  0  0  0
   -4.4882  -16.1343  -38.3622 Br  0  0  0  0  0  0  0  0  0  0  0  0
   -2.7642  -15.6753  -37.6735 C   0  0  0  0  0  0  0  0  0  0  0  0
   -2.0271  -16.3722  -36.8112 N   0  0  0  0  0  0  0  0  0  0  0  0
   -0.8671  -15.6739  -36.6643 C   0  0  0  0  0  0  0  0  0  0  0  0
   -0.9512  -14.5523  -37.4604 C   0  0  0  0  0  0  0  0  0  0  0  0
   -2.1229  -14.5556  -38.0814 N   0  0  0  0  0  0  0  0  0  0  0  0
    0.0983  -13.6845  -37.4919 N   0  0  0  0  0  0  0  0  0  0  0  0
    1.1749  -13.9469  -36.7534 C   0  0  0  0  0  0  0  0  0  0  0  0
    2.1331  -13.1225  -36.8029 O   0  0  0  0  0  0  0  0  0  0  0  0
    1.2671  -15.0366  -35.9748 N   0  0  0  0  0  0  0  0  0  0  0  0
    0.2510  -15.9426  -35.9001 C   0  0  0  0  0  0  0  0  0  0  0  0
    0.3484  -16.9608  -35.1704 O   0  0  0  0  0  0  0  0  0  0  0  0
    0.0487  -12.4939  -38.3152 C   0  0  0  0  0  0  0  0  0  0  0  0
    2.1166  -15.2293  -35.4023 H   0  0  0  0  0  0  0  0  0  0  0  0
   -0.2098  -19.4586  -37.8288 C   0  0  0  0  0  0  0  0  0  0  0  0
    0.7507  -18.6432  -38.6420 C   0  0  0  0  0  0  0  0  0  0  0  0
    1.7964  -19.4413  -39.1990 N   0  0  0  0  0  0  0  0  0  0  0  0
    3.0533  -19.5173  -38.7415 C   0  0  0  0  0  0  0  0  0  0  0  0
    3.7369  -20.3749  -39.5460 C   0  0  0  0  0  0  0  0  0  0  0  0
    2.8815  -20.7989  -40.4725 N   0  0  0  0  0  0  0  0  0  0  0  0
    1.6717  -20.2442  -40.2907 C   0  0  0  0  0  0  0  0  0  0  0  0
    0.0748  -20.4733  -41.2929 Br  0  0  0  0  0  0  0  0  0  0  0  0
    5.0333  -20.6358  -39.3051 N   0  0  0  0  0  0  0  0  0  0  0  0
    5.6316  -20.0459  -38.2730 C   0  0  0  0  0  0  0  0  0  0  0  0
    6.8468  -20.3000  -38.0588 O   0  0  0  0  0  0  0  0  0  0  0  0
    4.9823  -19.2066  -37.4758 N   0  0  0  0  0  0  0  0  0  0  0  0
    3.6941  -18.9165  -37.6761 C   0  0  0  0  0  0  0  0  0  0  0  0
    3.1076  -18.1068  -36.8888 O   0  0  0  0  0  0  0  0  0  0  0  0
    5.7775  -21.5456  -40.1507 C   0  0  0  0  0  0  0  0  0  0  0  0
    5.4690  -18.7540  -36.6718 H   0  0  0  0  0  0  0  0  0  0  0  0
  4  5  1  0  0  0
  5  6  1  0  0  0
  5  9  2  0  0  0
  6  7  1  0  0  0
  6  3  1  0  0  0
  7  8  2  0  0  0
  7 14  1  0  0  0
  8  9  1  0  0  0
  8 10  1  0  0  0
 10 11  1  0  0  0
 10 16  1  0  0  0
 11 12  2  0  0  0
 11 13  1  0  0  0
 13 14  1  0  0  0
 14 15  2  0  0  0
  3  2  1  0  0  0
  2  1  1  0  0  0
  1 18  1  0  0  0
 18 19  1  0  0  0
 19 20  1  0  0  0
 20 21  1  0  0  0
 20 24  1  0  0  0
 21 22  2  0  0  0
 21 30  1  0  0  0
 22 23  1  0  0  0
 22 26  1  0  0  0
 23 24  2  0  0  0
 24 25  1  0  0  0
 26 27  1  0  0  0
 26 32  1  0  0  0
 27 28  2  0  0  0
 27 29  1  0  0  0
 29 30  1  0  0  0
 30 31  2  0  0  0
 13 17  1  0  0  0
 29 33  1  0  0  0
M  END
> <minimizedAffinity>
-5.86173

$$$$
1444


 33 36  0  0  0  0  0  0  0  0999 V2000
    1.0959  -15.4060  -36.0933 N   0  0  0  0  0  0  0  0  0  0  0  0
    1.5320  -16.4857  -36.7929 C   0  0  0  0  0  0  0  0  0  0  0  0
    2.3003  -17.2486  -35.9455 O   0  0  0  0  0  0  0  0  0  0  0  0
    1.4532  -15.4242  -35.0275 H   0  0  0  0  0  0  0  0  0  0  0  0
    0.9455  -13.0016  -36.6137 N   0  0  0  0  0  0  0  0  0  0  0  0
   -0.0429  -12.1447  -36.8365 N   0  0  0  0  0  0  0  0  0  0  0  0
   -1.2230  -12.7291  -36.7189 C   0  0  0  0  0  0  0  0  0  0  0  0
   -0.9622  -14.0688  -36.3948 C   0  0  0  0  0  0  0  0  0  0  0  0
    0.4039  -14.2246  -36.3316 C   0  0  0  0  0  0  0  0  0  0  0  0
    2.3377  -12.7182  -36.6507 C   0  0  0  0  0  0  0  0  0  0  0  0
    4.2751  -10.3945  -37.1640 Cl  0  0  0  0  0  0  0  0  0  0  0  0
    3.7583  -11.5613  -38.3593 C   0  0  0  0  0  0  0  0  0  0  0  0
    2.8905  -12.5529  -38.0078 C   0  0  0  0  0  0  0  0  0  0  0  0
    2.5170  -13.4442  -38.9889 C   0  0  0  0  0  0  0  0  0  0  0  0
    2.9863  -13.3569  -40.2743 C   0  0  0  0  0  0  0  0  0  0  0  0
    3.8634  -12.3505  -40.6185 C   0  0  0  0  0  0  0  0  0  0  0  0
    4.2413  -11.4560  -39.6430 C   0  0  0  0  0  0  0  0  0  0  0  0
    1.4703  -17.1121  -38.1034 C   0  0  0  0  0  0  0  0  0  0  0  0
    0.9864  -18.3936  -38.3902 N   0  0  0  0  0  0  0  0  0  0  0  0
   -0.2914  -18.9163  -37.8369 C   0  0  0  0  0  0  0  0  0  0  0  0
   -0.2372  -20.4069  -38.0991 C   0  0  0  0  0  0  0  0  0  0  0  0
   -0.2373  -20.6342  -39.5878 C   0  0  0  0  0  0  0  0  0  0  0  0
    1.0733  -20.1483  -40.1694 C   0  0  0  0  0  0  0  0  0  0  0  0
    1.7832  -19.2911  -39.1762 C   0  0  0  0  0  0  0  0  0  0  0  0
    3.0939  -19.4424  -38.9727 C   0  0  0  0  0  0  0  0  0  0  0  0
    3.8771  -20.3381  -39.7794 N   0  0  0  0  0  0  0  0  0  0  0  0
    5.2028  -20.3501  -39.3089 N   0  0  0  0  0  0  0  0  0  0  0  0
    5.2831  -19.4720  -38.2087 C   0  0  0  0  0  0  0  0  0  0  0  0
    6.2678  -19.1795  -37.4930 O   0  0  0  0  0  0  0  0  0  0  0  0
    3.9658  -18.9243  -38.0202 N   0  0  0  0  0  0  0  0  0  0  0  0
    3.6246  -20.9266  -40.5967 H   0  0  0  0  0  0  0  0  0  0  0  0
    6.0150  -20.9000  -39.6841 H   0  0  0  0  0  0  0  0  0  0  0  0
    3.7186  -18.2635  -37.2654 H   0  0  0  0  0  0  0  0  0  0  0  0
 11 12  1  0  0  0
 12 13  2  0  0  0
 12 17  1  0  0  0
 13 14  1  0  0  0
 13 10  1  0  0  0
 14 15  2  0  0  0
 15 16  1  0  0  0
 16 17  2  0  0  0
 10  5  1  0  0  0
  5  6  1  0  0  0
  5  9  1  0  0  0
  6  7  2  0  0  0
  7  8  1  0  0  0
  8  9  2  0  0  0
  9  1  1  0  0  0
  1  2  1  0  0  0
  2  3  2  0  0  0
  2 18  1  0  0  0
 18 19  1  0  0  0
 19 20  1  0  0  0
 19 24  1  0  0  0
 20 21  1  0  0  0
 21 22  1  0  0  0
 22 23  1  0  0  0
 23 24  1  0  0  0
 24 25  2  0  0  0
 25 26  1  0  0  0
 25 30  1  0  0  0
 26 27  1  0  0  0
 27 28  1  0  0  0
 28 29  2  0  0  0
 28 30  1  0  0  0
  1  4  1  0  0  0
 26 31  1  0  0  0
 27 32  1  0  0  0
 30 33  1  0  0  0
M  END
> <minimizedAffinity>
-7.38205

$$$$
1447


 38 41  0  0  0  0  0  0  0  0999 V2000
    2.3556  -17.4408  -36.3096 C   0  0  0  0  0  0  0  0  0  0  0  0
    3.1243  -17.9482  -35.2920 N   0  0  0  0  0  0  0  0  0  0  0  0
    3.8919  -18.8935  -35.7591 N   0  0  0  0  0  0  0  0  0  0  0  0
    3.7015  -19.0743  -37.0546 N   0  0  0  0  0  0  0  0  0  0  0  0
    2.7565  -18.1916  -37.4199 C   0  0  0  0  0  0  0  0  0  0  0  0
    4.4185  -20.0118  -37.8381 C   0  0  0  0  0  0  0  0  0  0  0  0
    3.9882  -21.1535  -38.4161 N   0  0  0  0  0  0  0  0  0  0  0  0
    4.9722  -21.7204  -39.0626 O   0  0  0  0  0  0  0  0  0  0  0  0
    6.0637  -21.0075  -38.9483 N   0  0  0  0  0  0  0  0  0  0  0  0
    5.7565  -19.9387  -38.1945 C   0  0  0  0  0  0  0  0  0  0  0  0
    6.6738  -18.9250  -37.8428 N   0  0  0  0  0  0  0  0  0  0  0  0
    7.0032  -18.2717  -38.5765 H   0  0  0  0  0  0  0  0  0  0  0  0
    7.0324  -18.8064  -36.8782 H   0  0  0  0  0  0  0  0  0  0  0  0
    1.5138  -15.0240  -36.4417 N   0  0  0  0  0  0  0  0  0  0  0  0
    1.3777  -16.3785  -36.1697 C   0  0  0  0  0  0  0  0  0  0  0  0
    0.2301  -16.7650  -35.7297 O   0  0  0  0  0  0  0  0  0  0  0  0
    2.3659  -14.5300  -36.7987 H   0  0  0  0  0  0  0  0  0  0  0  0
    0.5261  -12.9190  -36.1104 C   0  0  0  0  0  0  0  0  0  0  0  0
    0.3670  -14.1907  -36.2097 N   0  0  0  0  0  0  0  0  0  0  0  0
   -2.2145   -8.7072  -37.8116 Br  0  0  0  0  0  0  0  0  0  0  0  0
   -1.8878  -10.0797  -36.5472 C   0  0  0  0  0  0  0  0  0  0  0  0
   -2.6705  -10.1832  -35.4346 C   0  0  0  0  0  0  0  0  0  0  0  0
   -2.4049  -11.2017  -34.5229 C   0  0  0  0  0  0  0  0  0  0  0  0
   -1.3562  -12.0838  -34.7635 C   0  0  0  0  0  0  0  0  0  0  0  0
   -0.5660  -11.9866  -35.8774 C   0  0  0  0  0  0  0  0  0  0  0  0
   -0.8401  -10.9745  -36.7702 C   0  0  0  0  0  0  0  0  0  0  0  0
   -0.0338  -10.8858  -37.8945 O   0  0  0  0  0  0  0  0  0  0  0  0
   -3.4742  -11.3737  -32.9672 Br  0  0  0  0  0  0  0  0  0  0  0  0
   -3.7208   -9.3146  -35.1763 O   0  0  0  0  0  0  0  0  0  0  0  0
   -0.1947  -10.1591  -38.5806 H   0  0  0  0  0  0  0  0  0  0  0  0
   -4.2834   -9.4119  -34.3469 H   0  0  0  0  0  0  0  0  0  0  0  0
    2.2239  -17.9798  -38.7692 C   0  0  0  0  0  0  0  0  0  0  0  0
    1.4013  -19.0826  -39.2734 N   0  0  0  0  0  0  0  0  0  0  0  0
    0.5879  -18.5826  -40.3991 C   0  0  0  0  0  0  0  0  0  0  0  0
   -0.0453  -17.2873  -40.0279 C   0  0  0  0  0  0  0  0  0  0  0  0
   -0.7448  -17.4344  -38.8553 O   0  0  0  0  0  0  0  0  0  0  0  0
   -0.8681  -18.7305  -38.4283 C   0  0  0  0  0  0  0  0  0  0  0  0
    0.4350  -19.4552  -38.2130 C   0  0  0  0  0  0  0  0  0  0  0  0
 20 21  1  0  0  0
 21 22  2  0  0  0
 21 26  1  0  0  0
 22 23  1  0  0  0
 22 29  1  0  0  0
 23 24  2  0  0  0
 23 28  1  0  0  0
 24 25  1  0  0  0
 25 26  2  0  0  0
 25 18  1  0  0  0
 26 27  1  0  0  0
 18 19  2  0  0  0
 19 14  1  0  0  0
 14 15  1  0  0  0
 15 16  2  0  0  0
 15  1  1  0  0  0
  1  2  1  0  0  0
  1  5  2  0  0  0
  2  3  2  0  0  0
  3  4  1  0  0  0
  4  5  1  0  0  0
  4  6  1  0  0  0
  5 32  1  0  0  0
 32 33  1  0  0  0
 33 34  1  0  0  0
 33 38  1  0  0  0
 34 35  1  0  0  0
 35 36  1  0  0  0
 36 37  1  0  0  0
 37 38  1  0  0  0
  6  7  2  0  0  0
  6 10  1  0  0  0
  7  8  1  0  0  0
  8  9  1  0  0  0
  9 10  2  0  0  0
 10 11  1  0  0  0
 27 30  1  0  0  0
 14 17  1  0  0  0
 11 12  1  0  0  0
 11 13  1  0  0  0
 29 31  1  0  0  0
M  END
> <minimizedAffinity>
-7.03641

$$$$
1466


 29 32  0  0  0  0  0  0  0  0999 V2000
    1.1029  -17.4973  -37.1622 N   0  0  0  0  0  0  0  0  0  0  0  0
    2.1653  -17.2903  -36.4023 N   0  0  0  0  0  0  0  0  0  0  0  0
    3.1196  -18.1649  -36.6898 N   0  0  0  0  0  0  0  0  0  0  0  0
    2.6929  -18.9815  -37.6658 C   0  0  0  0  0  0  0  0  0  0  0  0
    1.4191  -18.5535  -37.9580 C   0  0  0  0  0  0  0  0  0  0  0  0
    3.4145  -20.0800  -38.2826 C   0  0  0  0  0  0  0  0  0  0  0  0
    3.5337  -20.3382  -39.5973 N   0  0  0  0  0  0  0  0  0  0  0  0
    4.2783  -21.4427  -39.7677 C   0  0  0  0  0  0  0  0  0  0  0  0
    4.6104  -21.8517  -38.5330 N   0  0  0  0  0  0  0  0  0  0  0  0
    4.0852  -21.0264  -37.6802 O   0  0  0  0  0  0  0  0  0  0  0  0
    4.6544  -22.0775  -41.0494 C   0  0  0  0  0  0  0  0  0  0  0  0
    5.9365  -21.9424  -41.5292 C   0  0  0  0  0  0  0  0  0  0  0  0
    6.2905  -22.5166  -42.6949 N   0  0  0  0  0  0  0  0  0  0  0  0
    5.4362  -23.2405  -43.4463 C   0  0  0  0  0  0  0  0  0  0  0  0
    4.1514  -23.3708  -42.9556 C   0  0  0  0  0  0  0  0  0  0  0  0
    3.7496  -22.8034  -41.7745 C   0  0  0  0  0  0  0  0  0  0  0  0
   -0.1660  -16.7604  -37.1686 C   0  0  0  0  0  0  0  0  0  0  0  0
    0.1382  -15.3986  -36.5856 C   0  0  0  0  0  0  0  0  0  0  0  0
    1.6586  -13.4840  -36.9013 C   0  0  0  0  0  0  0  0  0  0  0  0
    1.3000  -13.0585  -35.7536 O   0  0  0  0  0  0  0  0  0  0  0  0
    1.1055  -14.6895  -37.4090 N   0  0  0  0  0  0  0  0  0  0  0  0
    1.3885  -15.0489  -38.3421 H   0  0  0  0  0  0  0  0  0  0  0  0
    4.1787  -12.2698  -41.4849 Br  0  0  0  0  0  0  0  0  0  0  0  0
    3.8171  -12.0704  -39.6203 C   0  0  0  0  0  0  0  0  0  0  0  0
    4.5178  -11.1204  -38.9115 C   0  0  0  0  0  0  0  0  0  0  0  0
    4.2852  -10.9555  -37.5885 N   0  0  0  0  0  0  0  0  0  0  0  0
    3.3619  -11.7356  -36.9964 C   0  0  0  0  0  0  0  0  0  0  0  0
    2.6336  -12.6950  -37.6396 C   0  0  0  0  0  0  0  0  0  0  0  0
    2.8641  -12.8709  -38.9900 C   0  0  0  0  0  0  0  0  0  0  0  0
 23 24  1  0  0  0
 24 25  2  0  0  0
 24 29  1  0  0  0
 25 26  1  0  0  0
 26 27  2  0  0  0
 27 28  1  0  0  0
 28 29  2  0  0  0
 28 19  1  0  0  0
 19 20  2  0  0  0
 19 21  1  0  0  0
 21 18  1  0  0  0
 18 17  1  0  0  0
 17  1  1  0  0  0
  1  2  1  0  0  0
  1  5  1  0  0  0
  2  3  2  0  0  0
  3  4  1  0  0  0
  4  5  2  0  0  0
  4  6  1  0  0  0
  6  7  2  0  0  0
  6 10  1  0  0  0
  7  8  1  0  0  0
  8  9  2  0  0  0
  8 11  1  0  0  0
  9 10  1  0  0  0
 11 12  2  0  0  0
 11 16  1  0  0  0
 12 13  1  0  0  0
 13 14  2  0  0  0
 14 15  1  0  0  0
 15 16  2  0  0  0
 21 22  1  0  0  0
M  END
> <minimizedAffinity>
-6.94358

$$$$
1471


 31 34  0  0  0  0  0  0  0  0999 V2000
    2.7346  -20.1813  -39.3386 C   0  0  0  0  0  0  0  0  0  0  0  0
    2.9370  -21.1176  -40.3147 C   0  0  0  0  0  0  0  0  0  0  0  0
    4.1512  -21.6793  -40.6023 N   0  0  0  0  0  0  0  0  0  0  0  0
    5.1932  -21.2813  -39.8797 C   0  0  0  0  0  0  0  0  0  0  0  0
    5.0897  -20.3494  -38.8807 C   0  0  0  0  0  0  0  0  0  0  0  0
    3.7945  -19.7644  -38.5884 C   0  0  0  0  0  0  0  0  0  0  0  0
    3.9970  -18.8984  -37.5778 N   0  0  0  0  0  0  0  0  0  0  0  0
    5.2729  -18.8994  -37.2307 N   0  0  0  0  0  0  0  0  0  0  0  0
    5.9669  -19.7582  -37.9887 C   0  0  0  0  0  0  0  0  0  0  0  0
    7.2039  -20.0391  -37.9599 O   0  0  0  0  0  0  0  0  0  0  0  0
    5.7390  -18.3277  -36.4718 H   0  0  0  0  0  0  0  0  0  0  0  0
    1.0759  -16.0183  -39.5098 N   0  0  0  0  0  0  0  0  0  0  0  0
   -0.2817  -16.4777  -39.6422 C   0  0  0  0  0  0  0  0  0  0  0  0
   -0.4072  -17.9805  -39.6208 C   0  0  0  0  0  0  0  0  0  0  0  0
    0.8992  -18.5428  -39.8337 N   0  0  0  0  0  0  0  0  0  0  0  0
    1.7212  -17.9510  -40.8578 C   0  0  0  0  0  0  0  0  0  0  0  0
    2.1713  -16.5910  -40.3060 C   0  0  0  0  0  0  0  0  0  0  0  0
    1.4086  -19.6352  -39.0979 C   0  0  0  0  0  0  0  0  0  0  0  0
    0.7249  -20.1901  -38.1882 O   0  0  0  0  0  0  0  0  0  0  0  0
    0.9142  -16.7559  -36.5959 Cl  0  0  0  0  0  0  0  0  0  0  0  0
    1.3945  -15.1841  -37.2431 C   0  0  0  0  0  0  0  0  0  0  0  0
    1.4206  -14.9936  -38.6073 C   0  0  0  0  0  0  0  0  0  0  0  0
    1.7961  -13.7662  -39.0814 C   0  0  0  0  0  0  0  0  0  0  0  0
    2.1470  -12.7155  -38.2475 C   0  0  0  0  0  0  0  0  0  0  0  0
    2.1070  -12.9490  -36.8687 C   0  0  0  0  0  0  0  0  0  0  0  0
    1.7333  -14.1723  -36.3701 C   0  0  0  0  0  0  0  0  0  0  0  0
    4.2599  -22.6405  -41.6889 C   0  0  0  0  0  0  0  0  0  0  0  0
    3.0307  -23.3481  -42.0492 C   0  0  0  0  0  0  0  0  0  0  0  0
    2.9745  -24.5013  -42.9494 C   0  0  0  0  0  0  0  0  0  0  0  0
    1.9659  -25.3874  -42.9136 O   0  0  0  0  0  0  0  0  0  0  0  0
    1.1004  -25.4862  -41.9026 C   0  0  0  0  0  0  0  0  0  0  0  0
 20 21  1  0  0  0
 21 22  2  0  0  0
 21 26  1  0  0  0
 22 23  1  0  0  0
 22 12  1  0  0  0
 23 24  2  0  0  0
 24 25  1  0  0  0
 25 26  2  0  0  0
 12 13  1  0  0  0
 12 17  1  0  0  0
 13 14  1  0  0  0
 14 15  1  0  0  0
 15 16  1  0  0  0
 15 18  1  0  0  0
 16 17  1  0  0  0
 18 19  2  0  0  0
 18  1  1  0  0  0
  1  2  2  0  0  0
  1  6  1  0  0  0
  2  3  1  0  0  0
  3  4  1  0  0  0
  3 27  1  0  0  0
  4  5  2  0  0  0
  5  6  1  0  0  0
  5  9  1  0  0  0
  6  7  2  0  0  0
  7  8  1  0  0  0
  8  9  1  0  0  0
  9 10  2  0  0  0
 27 28  1  0  0  0
 28 29  1  0  0  0
 29 30  1  0  0  0
 30 31  1  0  0  0
  8 11  1  0  0  0
M  END
> <minimizedAffinity>
-6.07190

$$$$
1477


 35 39  0  0  0  0  0  0  0  0999 V2000
    1.9476  -19.1511  -38.6752 C   0  0  0  0  0  0  0  0  0  0  0  0
    3.0827  -19.6735  -38.0513 N   0  0  0  0  0  0  0  0  0  0  0  0
    3.2766  -18.9194  -36.8164 C   0  0  0  0  0  0  0  0  0  0  0  0
    4.0977  -19.1542  -35.8945 O   0  0  0  0  0  0  0  0  0  0  0  0
    2.3534  -17.7958  -36.7796 C   0  0  0  0  0  0  0  0  0  0  0  0
    2.2456  -16.9344  -35.8439 O   0  0  0  0  0  0  0  0  0  0  0  0
    1.5935  -17.8611  -37.9994 C   0  0  0  0  0  0  0  0  0  0  0  0
    0.7164  -16.9650  -38.4024 C   0  0  0  0  0  0  0  0  0  0  0  0
    0.0425  -17.2819  -39.6053 O   0  0  0  0  0  0  0  0  0  0  0  0
    0.3977  -15.7145  -37.7391 C   0  0  0  0  0  0  0  0  0  0  0  0
    0.9881  -14.5092  -37.7360 N   0  0  0  0  0  0  0  0  0  0  0  0
    0.3697  -13.6330  -36.9300 C   0  0  0  0  0  0  0  0  0  0  0  0
   -0.6704  -14.3031  -36.3859 N   0  0  0  0  0  0  0  0  0  0  0  0
   -0.6863  -15.5557  -36.8481 C   0  0  0  0  0  0  0  0  0  0  0  0
   -1.6517  -16.6101  -36.5082 C   0  0  0  0  0  0  0  0  0  0  0  0
    0.7996  -12.3275  -36.7875 C   0  0  0  0  0  0  0  0  0  0  0  0
    1.8975  -11.9123  -37.4919 C   0  0  0  0  0  0  0  0  0  0  0  0
    2.5344  -12.8143  -38.3228 C   0  0  0  0  0  0  0  0  0  0  0  0
    2.0795  -14.1067  -38.4420 C   0  0  0  0  0  0  0  0  0  0  0  0
   -0.7430  -21.9678  -42.3054 Br  0  0  0  0  0  0  0  0  0  0  0  0
   -0.4978  -21.2621  -40.5610 C   0  0  0  0  0  0  0  0  0  0  0  0
    0.5870  -20.4640  -40.2713 C   0  0  0  0  0  0  0  0  0  0  0  0
    0.7738  -19.9434  -38.9838 C   0  0  0  0  0  0  0  0  0  0  0  0
   -0.1950  -20.2917  -38.0685 C   0  0  0  0  0  0  0  0  0  0  0  0
   -1.2840  -21.0767  -38.3128 C   0  0  0  0  0  0  0  0  0  0  0  0
   -1.4340  -21.5731  -39.5952 C   0  0  0  0  0  0  0  0  0  0  0  0
    3.9887  -20.6628  -38.5085 C   0  0  0  0  0  0  0  0  0  0  0  0
    4.9005  -20.4092  -39.6216 C   0  0  0  0  0  0  0  0  0  0  0  0
    4.4246  -20.4061  -40.9737 N   0  0  0  0  0  0  0  0  0  0  0  0
    5.5167  -19.8932  -41.8012 C   0  0  0  0  0  0  0  0  0  0  0  0
    6.4362  -20.9699  -42.2808 C   0  0  0  0  0  0  0  0  0  0  0  0
    6.1990  -22.1741  -41.6004 O   0  0  0  0  0  0  0  0  0  0  0  0
    4.9331  -22.5638  -41.9767 C   0  0  0  0  0  0  0  0  0  0  0  0
    3.9051  -21.6603  -41.4036 C   0  0  0  0  0  0  0  0  0  0  0  0
    3.6643  -19.6774  -41.1203 H   0  0  0  0  0  0  0  0  0  0  0  0
 20 21  1  0  0  0
 21 22  2  0  0  0
 21 26  1  0  0  0
 22 23  1  0  0  0
 23 24  2  0  0  0
 23  1  1  0  0  0
 24 25  1  0  0  0
 25 26  2  0  0  0
  1  2  1  0  0  0
  1  7  1  0  0  0
  2  3  1  0  0  0
  2 27  1  0  0  0
  3  4  2  0  0  0
  3  5  1  0  0  0
  5  6  2  0  0  0
  5  7  1  0  0  0
  7  8  2  0  0  0
  8  9  1  0  0  0
  8 10  1  0  0  0
 10 11  1  0  0  0
 10 14  2  0  0  0
 11 12  1  0  0  0
 11 19  1  0  0  0
 12 13  2  0  0  0
 12 16  1  0  0  0
 13 14  1  0  0  0
 14 15  1  0  0  0
 16 17  2  0  0  0
 17 18  1  0  0  0
 18 19  2  0  0  0
 27 28  1  0  0  0
 28 29  1  0  0  0
 29 30  1  0  0  0
 29 34  1  0  0  0
 30 31  1  0  0  0
 31 32  1  0  0  0
 32 33  1  0  0  0
 33 34  1  0  0  0
 29 35  1  0  0  0
M  CHG 1   9  -1
M  CHG 1  29   1
M  END
> <minimizedAffinity>
-6.96678

$$$$
1486


 31 34  0  0  0  0  0  0  0  0999 V2000
    1.0860  -16.3667  -37.8532 N   0  0  0  0  0  0  0  0  0  0  0  0
    2.1374  -16.7328  -37.1561 N   0  0  0  0  0  0  0  0  0  0  0  0
    2.3529  -18.0504  -37.2841 C   0  0  0  0  0  0  0  0  0  0  0  0
    1.3958  -18.5254  -38.0945 N   0  0  0  0  0  0  0  0  0  0  0  0
    0.6078  -17.4666  -38.4448 C   0  0  0  0  0  0  0  0  0  0  0  0
   -0.5616  -17.5170  -39.3206 C   0  0  0  0  0  0  0  0  0  0  0  0
   -1.6317  -18.4602  -38.8236 C   0  0  0  0  0  0  0  0  0  0  0  0
   -1.2306  -19.9091  -38.9913 C   0  0  0  0  0  0  0  0  0  0  0  0
   -0.1506  -20.3355  -38.0457 C   0  0  0  0  0  0  0  0  0  0  0  0
    1.2312  -19.9028  -38.5151 C   0  0  0  0  0  0  0  0  0  0  0  0
    0.5465  -15.0443  -37.9636 C   0  0  0  0  0  0  0  0  0  0  0  0
    1.3644  -14.0491  -37.2207 C   0  0  0  0  0  0  0  0  0  0  0  0
    1.1952  -13.9701  -35.9749 O   0  0  0  0  0  0  0  0  0  0  0  0
    5.4754  -10.3871  -40.0137 Br  0  0  0  0  0  0  0  0  0  0  0  0
    4.1927  -11.5329  -39.1505 C   0  0  0  0  0  0  0  0  0  0  0  0
    3.8972  -11.3495  -37.8106 C   0  0  0  0  0  0  0  0  0  0  0  0
    2.9708  -12.1749  -37.1804 C   0  0  0  0  0  0  0  0  0  0  0  0
    2.3300  -13.1833  -37.8622 C   0  0  0  0  0  0  0  0  0  0  0  0
    2.6479  -13.3381  -39.1930 C   0  0  0  0  0  0  0  0  0  0  0  0
    3.5580  -12.5384  -39.8400 C   0  0  0  0  0  0  0  0  0  0  0  0
    3.4200  -18.8534  -36.6713 C   0  0  0  0  0  0  0  0  0  0  0  0
    4.6302  -18.8348  -37.4345 N   0  0  0  0  0  0  0  0  0  0  0  0
    5.3843  -18.1759  -37.1921 H   0  0  0  0  0  0  0  0  0  0  0  0
    4.8611  -19.6982  -38.5435 C   0  0  0  0  0  0  0  0  0  0  0  0
    4.9599  -19.2281  -39.8334 C   0  0  0  0  0  0  0  0  0  0  0  0
    5.1874  -20.0685  -40.8925 C   0  0  0  0  0  0  0  0  0  0  0  0
    5.3201  -21.4037  -40.6738 C   0  0  0  0  0  0  0  0  0  0  0  0
    5.2213  -21.8782  -39.3844 C   0  0  0  0  0  0  0  0  0  0  0  0
    4.9935  -21.0420  -38.3111 C   0  0  0  0  0  0  0  0  0  0  0  0
    5.5479  -22.2701  -41.7162 O   0  0  0  0  0  0  0  0  0  0  0  0
    4.5120  -22.9124  -42.4173 C   0  0  0  0  0  0  0  0  0  0  0  0
 14 15  1  0  0  0
 15 16  2  0  0  0
 15 20  1  0  0  0
 16 17  1  0  0  0
 17 18  2  0  0  0
 18 19  1  0  0  0
 18 12  1  0  0  0
 19 20  2  0  0  0
 12 13  2  0  0  0
 12 11  1  0  0  0
 11  1  1  0  0  0
  1  2  1  0  0  0
  1  5  2  0  0  0
  2  3  2  0  0  0
  3  4  1  0  0  0
  3 21  1  0  0  0
  4  5  1  0  0  0
  4 10  1  0  0  0
  5  6  1  0  0  0
  6  7  1  0  0  0
  7  8  1  0  0  0
  8  9  1  0  0  0
  9 10  1  0  0  0
 21 22  1  0  0  0
 22 24  1  0  0  0
 24 25  2  0  0  0
 24 29  1  0  0  0
 25 26  1  0  0  0
 26 27  2  0  0  0
 27 28  1  0  0  0
 27 30  1  0  0  0
 28 29  2  0  0  0
 30 31  1  0  0  0
 22 23  1  0  0  0
M  END
> <minimizedAffinity>
-7.01553

$$$$
1487


 29 32  0  0  0  0  0  0  0  0999 V2000
    1.3963  -17.1781  -36.7082 N   0  0  0  0  0  0  0  0  0  0  0  0
    2.6535  -17.7935  -37.0526 C   0  0  0  0  0  0  0  0  0  0  0  0
    2.4596  -18.9916  -37.8834 C   0  0  0  0  0  0  0  0  0  0  0  0
    1.0321  -19.0967  -37.9918 N   0  0  0  0  0  0  0  0  0  0  0  0
    0.1580  -20.2078  -38.2857 C   0  0  0  0  0  0  0  0  0  0  0  0
   -0.6892  -20.0418  -39.5060 C   0  0  0  0  0  0  0  0  0  0  0  0
   -0.6879  -18.6763  -40.0992 C   0  0  0  0  0  0  0  0  0  0  0  0
   -1.5562  -17.7658  -39.2017 C   0  0  0  0  0  0  0  0  0  0  0  0
   -0.5738  -17.2107  -38.1859 C   0  0  0  0  0  0  0  0  0  0  0  0
    0.4993  -17.7791  -37.6856 C   0  0  0  0  0  0  0  0  0  0  0  0
    2.8916  -20.1406  -37.1642 O   0  0  0  0  0  0  0  0  0  0  0  0
    1.0057  -17.3857  -35.7956 H   0  0  0  0  0  0  0  0  0  0  0  0
    3.5329  -19.7902  -36.4618 H   0  0  0  0  0  0  0  0  0  0  0  0
    2.7181  -13.0629  -39.5792 Cl  0  0  0  0  0  0  0  0  0  0  0  0
    1.9404  -13.7884  -38.1804 C   0  0  0  0  0  0  0  0  0  0  0  0
    1.9323  -15.1706  -38.0119 C   0  0  0  0  0  0  0  0  0  0  0  0
    1.3145  -15.7808  -36.9482 C   0  0  0  0  0  0  0  0  0  0  0  0
    0.6893  -14.9281  -36.0306 C   0  0  0  0  0  0  0  0  0  0  0  0
    0.6853  -13.5459  -36.1807 C   0  0  0  0  0  0  0  0  0  0  0  0
    1.3106  -12.9774  -37.2582 C   0  0  0  0  0  0  0  0  0  0  0  0
    3.1611  -19.0479  -39.1429 C   0  0  0  0  0  0  0  0  0  0  0  0
    4.0916  -20.0377  -39.4597 C   0  0  0  0  0  0  0  0  0  0  0  0
    4.7456  -20.1010  -40.6825 C   0  0  0  0  0  0  0  0  0  0  0  0
    4.4599  -19.1306  -41.6430 C   0  0  0  0  0  0  0  0  0  0  0  0
    3.5567  -18.1435  -41.3728 C   0  0  0  0  0  0  0  0  0  0  0  0
    2.9157  -18.1137  -40.1241 C   0  0  0  0  0  0  0  0  0  0  0  0
    5.6775  -21.1333  -40.9348 N   0  0  0  0  0  0  0  0  0  0  0  0
    6.0449  -21.8929  -39.9848 O   0  0  0  0  0  0  0  0  0  0  0  0
    6.2175  -21.3666  -42.1439 O   0  0  0  0  0  0  0  0  0  0  0  0
 14 15  1  0  0  0
 15 16  2  0  0  0
 15 20  1  0  0  0
 16 17  1  0  0  0
 17 18  2  0  0  0
 17  1  1  0  0  0
 18 19  1  0  0  0
 19 20  2  0  0  0
  1  2  1  0  0  0
  1 10  1  0  0  0
  2  3  1  0  0  0
  3  4  1  0  0  0
  3 11  1  0  0  0
  3 21  1  0  0  0
  4  5  1  0  0  0
  4 10  1  0  0  0
  5  6  1  0  0  0
  6  7  1  0  0  0
  7  8  1  0  0  0
  8  9  1  0  0  0
  9 10  2  0  0  0
 21 22  2  0  0  0
 21 26  1  0  0  0
 22 23  1  0  0  0
 23 24  2  0  0  0
 23 27  1  0  0  0
 24 25  1  0  0  0
 25 26  2  0  0  0
 27 28  2  0  0  0
 27 29  1  0  0  0
  1 12  1  0  0  0
 11 13  1  0  0  0
M  CHG 1   1   1
M  CHG 1  29  -1
M  END
> <minimizedAffinity>
-6.52121

$$$$
1491


 34 38  0  0  0  0  0  0  0  0999 V2000
   -1.2065  -20.9921  -41.7618 F   0  0  0  0  0  0  0  0  0  0  0  0
    0.1032  -21.0814  -41.4690 C   0  0  0  0  0  0  0  0  0  0  0  0
    0.7882  -22.0375  -42.2132 C   0  0  0  0  0  0  0  0  0  0  0  0
    2.1384  -22.2338  -42.0254 C   0  0  0  0  0  0  0  0  0  0  0  0
    2.7802  -21.4594  -41.0884 C   0  0  0  0  0  0  0  0  0  0  0  0
    2.0780  -20.5080  -40.3555 C   0  0  0  0  0  0  0  0  0  0  0  0
    0.7357  -20.3043  -40.5317 C   0  0  0  0  0  0  0  0  0  0  0  0
    4.1018  -21.6682  -40.9227 N   0  0  0  0  0  0  0  0  0  0  0  0
    4.7856  -22.5861  -41.6292 C   0  0  0  0  0  0  0  0  0  0  0  0
    4.1718  -23.3778  -42.5747 C   0  0  0  0  0  0  0  0  0  0  0  0
    2.8237  -23.1984  -42.7768 C   0  0  0  0  0  0  0  0  0  0  0  0
    2.2038  -23.8852  -43.6229 O   0  0  0  0  0  0  0  0  0  0  0  0
    0.0649  -19.3474  -39.7707 N   0  0  0  0  0  0  0  0  0  0  0  0
    0.3271  -17.9750  -40.1218 C   0  0  0  0  0  0  0  0  0  0  0  0
   -0.5919  -17.0393  -39.3012 C   0  0  0  0  0  0  0  0  0  0  0  0
   -0.2172  -17.2279  -37.9554 N   0  0  0  0  0  0  0  0  0  0  0  0
   -0.6155  -18.6141  -37.4929 C   0  0  0  0  0  0  0  0  0  0  0  0
    0.2196  -19.5039  -38.3617 C   0  0  0  0  0  0  0  0  0  0  0  0
    0.4458  -16.4629  -37.0564 C   0  0  0  0  0  0  0  0  0  0  0  0
    0.5373  -16.9673  -35.8493 O   0  0  0  0  0  0  0  0  0  0  0  0
   -0.9742  -19.4894  -39.9654 H   0  0  0  0  0  0  0  0  0  0  0  0
    1.0758  -15.1785  -37.1851 C   0  0  0  0  0  0  0  0  0  0  0  0
    1.7830  -14.7775  -38.2720 C   0  0  0  0  0  0  0  0  0  0  0  0
    2.3288  -13.5043  -38.3758 C   0  0  0  0  0  0  0  0  0  0  0  0
    2.1538  -12.6157  -37.3466 C   0  0  0  0  0  0  0  0  0  0  0  0
    1.4520  -12.9688  -36.2289 C   0  0  0  0  0  0  0  0  0  0  0  0
    0.9279  -14.2238  -36.1574 C   0  0  0  0  0  0  0  0  0  0  0  0
    3.2389  -13.0269  -39.8109 Cl  0  0  0  0  0  0  0  0  0  0  0  0
    4.9362  -24.3806  -43.3406 C   0  0  0  0  0  0  0  0  0  0  0  0
    4.9639  -25.5808  -43.0258 O   0  0  0  0  0  0  0  0  0  0  0  0
    5.6383  -23.9527  -44.4444 O   0  0  0  0  0  0  0  0  0  0  0  0
    4.7699  -20.8327  -39.9180 C   0  0  0  0  0  0  0  0  0  0  0  0
    6.0236  -21.2617  -39.2907 C   0  0  0  0  0  0  0  0  0  0  0  0
    4.8148  -21.4837  -38.4959 C   0  0  0  0  0  0  0  0  0  0  0  0
  1  2  1  0  0  0
  2  3  2  0  0  0
  2  7  1  0  0  0
  3  4  1  0  0  0
  4  5  2  0  0  0
  4 11  1  0  0  0
  5  6  1  0  0  0
  5  8  1  0  0  0
  6  7  2  0  0  0
  7 13  1  0  0  0
 13 14  1  0  0  0
 13 18  1  0  0  0
 14 15  1  0  0  0
 15 16  1  0  0  0
 16 17  1  0  0  0
 16 19  1  0  0  0
 17 18  1  0  0  0
 19 20  2  0  0  0
 19 22  1  0  0  0
 22 23  2  0  0  0
 22 27  1  0  0  0
 23 24  1  0  0  0
 24 25  2  0  0  0
 24 28  1  0  0  0
 25 26  1  0  0  0
 26 27  2  0  0  0
  8  9  1  0  0  0
  8 32  1  0  0  0
  9 10  2  0  0  0
 10 11  1  0  0  0
 10 29  1  0  0  0
 11 12  2  0  0  0
 29 30  2  0  0  0
 29 31  1  0  0  0
 32 33  1  0  0  0
 32 34  1  0  0  0
 33 34  1  0  0  0
 13 21  1  0  0  0
M  CHG 1  13   1
M  END
> <minimizedAffinity>
-7.00049

$$$$
1506


 32 35  0  0  0  0  0  0  0  0999 V2000
   -2.1452  -14.3135  -36.4207 N   0  0  0  0  0  0  0  0  0  0  0  0
   -1.5710  -15.1641  -37.4332 C   0  0  0  0  0  0  0  0  0  0  0  0
   -0.9102  -14.6508  -38.3496 O   0  0  0  0  0  0  0  0  0  0  0  0
   -2.6479  -14.8043  -35.6856 H   0  0  0  0  0  0  0  0  0  0  0  0
   -1.7512  -16.6348  -37.4039 C   0  0  0  0  0  0  0  0  0  0  0  0
   -0.8849  -17.1904  -36.2957 C   0  0  0  0  0  0  0  0  0  0  0  0
    0.5526  -17.0734  -36.7507 C   0  0  0  0  0  0  0  0  0  0  0  0
    0.7059  -18.0530  -37.8224 N   0  0  0  0  0  0  0  0  0  0  0  0
   -0.3735  -18.3063  -38.7151 C   0  0  0  0  0  0  0  0  0  0  0  0
   -1.4650  -17.2988  -38.6998 C   0  0  0  0  0  0  0  0  0  0  0  0
    1.9495  -18.7183  -37.9252 C   0  0  0  0  0  0  0  0  0  0  0  0
    2.1819  -19.7022  -38.8150 N   0  0  0  0  0  0  0  0  0  0  0  0
    3.3357  -20.3341  -38.9224 N   0  0  0  0  0  0  0  0  0  0  0  0
    3.7415  -21.3115  -39.7261 N   0  0  0  0  0  0  0  0  0  0  0  0
    4.9830  -21.6281  -39.4732 N   0  0  0  0  0  0  0  0  0  0  0  0
    5.4065  -20.8554  -38.4956 N   0  0  0  0  0  0  0  0  0  0  0  0
    4.3854  -20.0455  -38.1450 C   0  0  0  0  0  0  0  0  0  0  0  0
    4.2097  -19.0425  -37.2085 C   0  0  0  0  0  0  0  0  0  0  0  0
    3.0040  -18.3803  -37.0949 C   0  0  0  0  0  0  0  0  0  0  0  0
   -1.9146  -12.9278  -36.5366 C   0  0  0  0  0  0  0  0  0  0  0  0
   -0.7547  -12.2729  -35.9104 C   0  0  0  0  0  0  0  0  0  0  0  0
    1.5893  -12.6832  -36.8342 C   0  0  0  0  0  0  0  0  0  0  0  0
    1.8311  -13.7335  -36.2021 O   0  0  0  0  0  0  0  0  0  0  0  0
    0.3847  -12.0083  -36.7030 N   0  0  0  0  0  0  0  0  0  0  0  0
    0.3486  -11.1008  -37.3445 H   0  0  0  0  0  0  0  0  0  0  0  0
    5.9355  -10.8202  -40.5546 Cl  0  0  0  0  0  0  0  0  0  0  0  0
    4.6740  -11.3544  -39.4558 C   0  0  0  0  0  0  0  0  0  0  0  0
    3.7659  -12.3156  -39.8679 C   0  0  0  0  0  0  0  0  0  0  0  0
    2.7823  -12.7287  -39.0005 C   0  0  0  0  0  0  0  0  0  0  0  0
    2.6731  -12.2115  -37.7279 C   0  0  0  0  0  0  0  0  0  0  0  0
    3.5821  -11.2613  -37.3428 C   0  0  0  0  0  0  0  0  0  0  0  0
    4.5941  -10.8188  -38.1979 C   0  0  0  0  0  0  0  0  0  0  0  0
 26 27  1  0  0  0
 27 28  2  0  0  0
 27 32  1  0  0  0
 28 29  1  0  0  0
 29 30  2  0  0  0
 30 31  1  0  0  0
 30 22  1  0  0  0
 31 32  2  0  0  0
 22 23  2  0  0  0
 22 24  1  0  0  0
 24 21  1  0  0  0
 21 20  1  0  0  0
 20  1  1  0  0  0
  1  2  1  0  0  0
  2  3  2  0  0  0
  2  5  1  0  0  0
  5  6  1  0  0  0
  5 10  1  0  0  0
  6  7  1  0  0  0
  7  8  1  0  0  0
  8  9  1  0  0  0
  8 11  1  0  0  0
  9 10  1  0  0  0
 11 12  2  0  0  0
 11 19  1  0  0  0
 12 13  1  0  0  0
 13 14  1  0  0  0
 13 17  1  0  0  0
 14 15  2  0  0  0
 15 16  1  0  0  0
 16 17  2  0  0  0
 17 18  1  0  0  0
 18 19  2  0  0  0
 24 25  1  0  0  0
  1  4  1  0  0  0
M  END
> <minimizedAffinity>
-6.99616

$$$$
1507


 32 35  0  0  0  0  0  0  0  0999 V2000
    0.9668  -17.1063  -38.6853 C   0  0  0  0  0  0  0  0  0  0  0  0
    1.6762  -17.9494  -37.9632 C   0  0  0  0  0  0  0  0  0  0  0  0
    1.9357  -19.4098  -38.1793 C   0  0  0  0  0  0  0  0  0  0  0  0
    3.3098  -19.5174  -37.8467 N   0  0  0  0  0  0  0  0  0  0  0  0
    3.4324  -18.7178  -36.6310 C   0  0  0  0  0  0  0  0  0  0  0  0
    4.2666  -18.8584  -35.6994 O   0  0  0  0  0  0  0  0  0  0  0  0
    2.3826  -17.7082  -36.7055 C   0  0  0  0  0  0  0  0  0  0  0  0
    2.0790  -16.7762  -35.8886 O   0  0  0  0  0  0  0  0  0  0  0  0
    0.3063  -17.4990  -39.8362 O   0  0  0  0  0  0  0  0  0  0  0  0
    0.4882  -11.1315  -37.2037 Br  0  0  0  0  0  0  0  0  0  0  0  0
    0.6466  -12.9927  -37.6603 C   0  0  0  0  0  0  0  0  0  0  0  0
   -0.3102  -13.9090  -37.2890 C   0  0  0  0  0  0  0  0  0  0  0  0
   -0.2487  -15.2417  -37.5857 C   0  0  0  0  0  0  0  0  0  0  0  0
    0.8389  -15.7054  -38.3022 C   0  0  0  0  0  0  0  0  0  0  0  0
    1.8100  -14.8097  -38.6867 C   0  0  0  0  0  0  0  0  0  0  0  0
    1.7343  -13.4485  -38.3765 C   0  0  0  0  0  0  0  0  0  0  0  0
    1.3809  -19.9379  -39.3805 C   0  0  0  0  0  0  0  0  0  0  0  0
    0.1481  -20.5432  -39.3403 C   0  0  0  0  0  0  0  0  0  0  0  0
   -0.4599  -21.0611  -40.4584 C   0  0  0  0  0  0  0  0  0  0  0  0
    0.1643  -20.9887  -41.6953 C   0  0  0  0  0  0  0  0  0  0  0  0
    1.4021  -20.3770  -41.7151 C   0  0  0  0  0  0  0  0  0  0  0  0
    2.0043  -19.8605  -40.5895 C   0  0  0  0  0  0  0  0  0  0  0  0
   -0.5971  -21.6421  -43.1242 Cl  0  0  0  0  0  0  0  0  0  0  0  0
    4.4371  -20.2403  -38.4030 C   0  0  0  0  0  0  0  0  0  0  0  0
    5.3554  -19.4952  -39.2912 C   0  0  0  0  0  0  0  0  0  0  0  0
    6.1450  -20.3469  -40.1875 N   0  0  0  0  0  0  0  0  0  0  0  0
    6.1326  -19.8193  -41.5088 C   0  0  0  0  0  0  0  0  0  0  0  0
    5.4693  -20.6469  -42.5532 C   0  0  0  0  0  0  0  0  0  0  0  0
    5.4676  -22.0095  -42.3240 O   0  0  0  0  0  0  0  0  0  0  0  0
    4.7536  -22.1746  -41.1150 C   0  0  0  0  0  0  0  0  0  0  0  0
    5.6569  -21.6865  -40.0378 C   0  0  0  0  0  0  0  0  0  0  0  0
    7.1312  -20.3111  -39.7836 H   0  0  0  0  0  0  0  0  0  0  0  0
 10 11  1  0  0  0
 11 12  2  0  0  0
 11 16  1  0  0  0
 12 13  1  0  0  0
 13 14  2  0  0  0
 14 15  1  0  0  0
 14  1  1  0  0  0
 15 16  2  0  0  0
  1  2  2  0  0  0
  1  9  1  0  0  0
  2  3  1  0  0  0
  2  7  1  0  0  0
  3  4  1  0  0  0
  3 17  1  0  0  0
  4  5  1  0  0  0
  4 24  1  0  0  0
  5  6  2  0  0  0
  5  7  1  0  0  0
  7  8  2  0  0  0
 24 25  1  0  0  0
 25 26  1  0  0  0
 26 27  1  0  0  0
 26 31  1  0  0  0
 27 28  1  0  0  0
 28 29  1  0  0  0
 29 30  1  0  0  0
 30 31  1  0  0  0
 17 18  2  0  0  0
 17 22  1  0  0  0
 18 19  1  0  0  0
 19 20  2  0  0  0
 20 21  1  0  0  0
 20 23  1  0  0  0
 21 22  2  0  0  0
 26 32  1  0  0  0
M  CHG 1   9  -1
M  CHG 1  26   1
M  END
> <minimizedAffinity>
-6.16370

$$$$
1511


 34 37  0  0  0  0  0  0  0  0999 V2000
    2.9154  -18.5197  -38.5330 N   0  0  0  0  0  0  0  0  0  0  0  0
    2.0296  -17.5509  -38.8160 C   0  0  0  0  0  0  0  0  0  0  0  0
    1.6460  -17.3082  -39.9889 O   0  0  0  0  0  0  0  0  0  0  0  0
    1.6235  -16.8928  -37.6670 C   0  0  0  0  0  0  0  0  0  0  0  0
    2.2754  -17.4737  -36.6679 C   0  0  0  0  0  0  0  0  0  0  0  0
    1.8820  -16.8354  -35.5550 N   0  0  0  0  0  0  0  0  0  0  0  0
    1.0133  -15.8903  -35.8664 N   0  0  0  0  0  0  0  0  0  0  0  0
    0.8403  -15.9096  -37.1611 N   0  0  0  0  0  0  0  0  0  0  0  0
    3.0704  -18.4719  -37.1911 C   0  0  0  0  0  0  0  0  0  0  0  0
    3.8355  -19.2366  -36.5148 O   0  0  0  0  0  0  0  0  0  0  0  0
    2.1911  -17.0261  -34.5811 H   0  0  0  0  0  0  0  0  0  0  0  0
    0.5254  -15.2191  -35.2016 H   0  0  0  0  0  0  0  0  0  0  0  0
    5.9180  -22.3780  -42.2817 Br  0  0  0  0  0  0  0  0  0  0  0  0
    4.9727  -21.1886  -41.1158 C   0  0  0  0  0  0  0  0  0  0  0  0
    3.7131  -21.4987  -40.6423 C   0  0  0  0  0  0  0  0  0  0  0  0
    3.0308  -20.6310  -39.7947 C   0  0  0  0  0  0  0  0  0  0  0  0
    3.5833  -19.4309  -39.3979 C   0  0  0  0  0  0  0  0  0  0  0  0
    4.8398  -19.1268  -39.8738 C   0  0  0  0  0  0  0  0  0  0  0  0
    5.5184  -19.9862  -40.7132 C   0  0  0  0  0  0  0  0  0  0  0  0
   -0.0171  -15.0568  -37.9492 C   0  0  0  0  0  0  0  0  0  0  0  0
    0.7759  -13.8622  -38.4256 C   0  0  0  0  0  0  0  0  0  0  0  0
    0.1676  -12.8279  -38.7796 O   0  0  0  0  0  0  0  0  0  0  0  0
    2.1766  -13.9191  -38.4680 N   0  0  0  0  0  0  0  0  0  0  0  0
    2.6296  -14.8366  -38.1494 H   0  0  0  0  0  0  0  0  0  0  0  0
    3.0331  -12.8802  -38.8834 C   0  0  0  0  0  0  0  0  0  0  0  0
    3.4692  -11.8366  -38.1070 C   0  0  0  0  0  0  0  0  0  0  0  0
    4.2958  -10.8385  -38.5799 C   0  0  0  0  0  0  0  0  0  0  0  0
    4.6990  -10.9009  -39.8972 C   0  0  0  0  0  0  0  0  0  0  0  0
    4.2819  -11.9388  -40.7148 C   0  0  0  0  0  0  0  0  0  0  0  0
    3.4607  -12.9172  -40.2246 C   0  0  0  0  0  0  0  0  0  0  0  0
    5.5339   -9.9039  -40.3946 O   0  0  0  0  0  0  0  0  0  0  0  0
    6.9152  -10.1690  -40.5376 C   0  0  0  0  0  0  0  0  0  0  0  0
    4.7226   -9.7908  -37.7672 O   0  0  0  0  0  0  0  0  0  0  0  0
    3.8089   -8.7083  -37.5472 C   0  0  0  0  0  0  0  0  0  0  0  0
 13 14  1  0  0  0
 14 15  2  0  0  0
 14 19  1  0  0  0
 15 16  1  0  0  0
 16 17  2  0  0  0
 17 18  1  0  0  0
 17  1  1  0  0  0
 18 19  2  0  0  0
  1  2  1  0  0  0
  1  9  1  0  0  0
  2  3  2  0  0  0
  2  4  1  0  0  0
  4  5  2  0  0  0
  4  8  1  0  0  0
  5  6  1  0  0  0
  5  9  1  0  0  0
  6  7  1  0  0  0
  7  8  1  0  0  0
  8 20  1  0  0  0
 20 21  1  0  0  0
 21 22  2  0  0  0
 21 23  1  0  0  0
 23 25  1  0  0  0
 25 26  2  0  0  0
 25 30  1  0  0  0
 26 27  1  0  0  0
 27 28  2  0  0  0
 27 33  1  0  0  0
 28 29  1  0  0  0
 28 31  1  0  0  0
 29 30  2  0  0  0
 31 32  1  0  0  0
 33 34  1  0  0  0
  9 10  2  0  0  0
  6 11  1  0  0  0
  7 12  1  0  0  0
 23 24  1  0  0  0
M  END
> <minimizedAffinity>
-6.96416

$$$$
1516


 30 33  0  0  0  0  0  0  0  0999 V2000
    0.1328  -17.3320  -36.8018 C   0  0  0  0  0  0  0  0  0  0  0  0
   -1.1539  -17.5277  -36.9787 O   0  0  0  0  0  0  0  0  0  0  0  0
    0.9379  -18.0031  -37.7112 N   0  0  0  0  0  0  0  0  0  0  0  0
    2.3611  -17.9225  -37.7444 C   0  0  0  0  0  0  0  0  0  0  0  0
    2.8414  -18.5309  -39.0821 C   0  0  0  0  0  0  0  0  0  0  0  0
    2.5519  -20.0177  -39.0028 C   0  0  0  0  0  0  0  0  0  0  0  0
    3.2649  -20.5721  -37.9265 N   0  0  0  0  0  0  0  0  0  0  0  0
    4.5935  -20.9839  -38.0824 C   0  0  0  0  0  0  0  0  0  0  0  0
    4.9756  -21.6032  -39.3738 C   0  0  0  0  0  0  0  0  0  0  0  0
    4.0109  -21.3495  -40.4643 C   0  0  0  0  0  0  0  0  0  0  0  0
    4.0702  -21.7760  -41.7408 N   0  0  0  0  0  0  0  0  0  0  0  0
    2.9923  -21.3154  -42.3827 C   0  0  0  0  0  0  0  0  0  0  0  0
    2.2537  -20.5974  -41.5065 N   0  0  0  0  0  0  0  0  0  0  0  0
    2.8721  -20.6082  -40.3110 C   0  0  0  0  0  0  0  0  0  0  0  0
    1.0532  -20.1804  -38.6967 C   0  0  0  0  0  0  0  0  0  0  0  0
    0.3235  -18.8666  -38.7324 C   0  0  0  0  0  0  0  0  0  0  0  0
    2.8751  -20.5195  -36.9930 H   0  0  0  0  0  0  0  0  0  0  0  0
    1.3615  -20.1195  -41.7280 H   0  0  0  0  0  0  0  0  0  0  0  0
    0.4522  -16.4449  -35.6846 C   0  0  0  0  0  0  0  0  0  0  0  0
    1.1260  -13.8659  -36.2478 C   0  0  0  0  0  0  0  0  0  0  0  0
    0.9027  -12.8473  -35.5430 O   0  0  0  0  0  0  0  0  0  0  0  0
    0.7913  -15.1485  -35.9683 N   0  0  0  0  0  0  0  0  0  0  0  0
    0.1582  -14.7557  -34.8107 H   0  0  0  0  0  0  0  0  0  0  0  0
    4.0092  -12.7508  -41.3705 Cl  0  0  0  0  0  0  0  0  0  0  0  0
    3.1601  -13.0894  -39.8689 C   0  0  0  0  0  0  0  0  0  0  0  0
    3.3513  -12.2510  -38.8064 C   0  0  0  0  0  0  0  0  0  0  0  0
    2.6736  -12.5152  -37.6117 C   0  0  0  0  0  0  0  0  0  0  0  0
    1.8455  -13.5958  -37.5355 C   0  0  0  0  0  0  0  0  0  0  0  0
    1.6528  -14.4288  -38.5847 C   0  0  0  0  0  0  0  0  0  0  0  0
    2.3306  -14.1700  -39.7927 C   0  0  0  0  0  0  0  0  0  0  0  0
 24 25  1  0  0  0
 25 26  2  0  0  0
 25 30  1  0  0  0
 26 27  1  0  0  0
 27 28  2  0  0  0
 28 29  1  0  0  0
 28 20  1  0  0  0
 29 30  2  0  0  0
 20 21  2  0  0  0
 20 22  1  0  0  0
 22 19  1  0  0  0
 19  1  1  0  0  0
  1  2  2  0  0  0
  1  3  1  0  0  0
  3  4  1  0  0  0
  3 16  1  0  0  0
  4  5  1  0  0  0
  5  6  1  0  0  0
  6  7  1  0  0  0
  6 14  1  0  0  0
  6 15  1  0  0  0
  7  8  1  0  0  0
  8  9  1  0  0  0
  9 10  1  0  0  0
 10 11  1  0  0  0
 10 14  2  0  0  0
 11 12  2  0  0  0
 12 13  1  0  0  0
 13 14  1  0  0  0
 15 16  1  0  0  0
 22 23  1  0  0  0
  7 17  1  0  0  0
 13 18  1  0  0  0
M  END
> <minimizedAffinity>
-7.35987

$$$$
1518


 31 34  0  0  0  0  0  0  0  0999 V2000
    1.9595  -17.4328  -36.1858 C   0  0  0  0  0  0  0  0  0  0  0  0
    2.4009  -17.2545  -35.0243 O   0  0  0  0  0  0  0  0  0  0  0  0
    2.6608  -18.2548  -37.0987 N   0  0  0  0  0  0  0  0  0  0  0  0
    2.2045  -18.4986  -38.4522 C   0  0  0  0  0  0  0  0  0  0  0  0
    2.6269  -19.9093  -38.8350 C   0  0  0  0  0  0  0  0  0  0  0  0
    4.1511  -20.0197  -38.8564 C   0  0  0  0  0  0  0  0  0  0  0  0
    4.4755  -21.3466  -38.4193 N   0  0  0  0  0  0  0  0  0  0  0  0
    5.8024  -21.7468  -38.8362 C   0  0  0  0  0  0  0  0  0  0  0  0
    5.7883  -21.9757  -40.3459 C   0  0  0  0  0  0  0  0  0  0  0  0
    5.4040  -20.6725  -40.9608 C   0  0  0  0  0  0  0  0  0  0  0  0
    5.6715  -20.1321  -42.1873 N   0  0  0  0  0  0  0  0  0  0  0  0
    5.0870  -18.9223  -42.2410 C   0  0  0  0  0  0  0  0  0  0  0  0
    4.4650  -18.7106  -41.0674 N   0  0  0  0  0  0  0  0  0  0  0  0
    4.6398  -19.7831  -40.2399 C   0  0  0  0  0  0  0  0  0  0  0  0
    4.7739  -19.0186  -37.9068 C   0  0  0  0  0  0  0  0  0  0  0  0
    3.8959  -18.8987  -36.6963 C   0  0  0  0  0  0  0  0  0  0  0  0
    4.3765  -21.4489  -37.3902 H   0  0  0  0  0  0  0  0  0  0  0  0
    6.2405  -20.6409  -42.9005 H   0  0  0  0  0  0  0  0  0  0  0  0
    0.6962  -16.7612  -36.5646 C   0  0  0  0  0  0  0  0  0  0  0  0
    0.6692  -15.3162  -36.1783 C   0  0  0  0  0  0  0  0  0  0  0  0
    1.7484  -13.1975  -36.9874 C   0  0  0  0  0  0  0  0  0  0  0  0
    0.9326  -12.4952  -36.3379 O   0  0  0  0  0  0  0  0  0  0  0  0
    1.6634  -14.5894  -36.9434 N   0  0  0  0  0  0  0  0  0  0  0  0
    2.3375  -15.1884  -37.4775 H   0  0  0  0  0  0  0  0  0  0  0  0
    5.9481  -10.2675  -40.1262 Cl  0  0  0  0  0  0  0  0  0  0  0  0
    4.7327  -11.1006  -39.1776 C   0  0  0  0  0  0  0  0  0  0  0  0
    3.9544  -12.0686  -39.7966 C   0  0  0  0  0  0  0  0  0  0  0  0
    2.9756  -12.7661  -39.1050 C   0  0  0  0  0  0  0  0  0  0  0  0
    2.7629  -12.4975  -37.7710 C   0  0  0  0  0  0  0  0  0  0  0  0
    3.5590  -11.5203  -37.1749 C   0  0  0  0  0  0  0  0  0  0  0  0
    4.5294  -10.8237  -37.8419 C   0  0  0  0  0  0  0  0  0  0  0  0
 25 26  1  0  0  0
 26 27  2  0  0  0
 26 31  1  0  0  0
 27 28  1  0  0  0
 28 29  2  0  0  0
 29 30  1  0  0  0
 29 21  1  0  0  0
 30 31  2  0  0  0
 21 22  2  0  0  0
 21 23  1  0  0  0
 23 20  1  0  0  0
 20 19  1  0  0  0
 19  1  1  0  0  0
  1  2  2  0  0  0
  1  3  1  0  0  0
  3  4  1  0  0  0
  3 16  1  0  0  0
  4  5  1  0  0  0
  5  6  1  0  0  0
  6  7  1  0  0  0
  6 14  1  0  0  0
  6 15  1  0  0  0
  7  8  1  0  0  0
  8  9  1  0  0  0
  9 10  1  0  0  0
 10 11  1  0  0  0
 10 14  2  0  0  0
 11 12  1  0  0  0
 12 13  2  0  0  0
 13 14  1  0  0  0
 15 16  1  0  0  0
 23 24  1  0  0  0
  7 17  1  0  0  0
 11 18  1  0  0  0
M  END
> <minimizedAffinity>
-7.88696

$$$$
1521


 24 27  0  0  0  0  0  0  0  0999 V2000
    1.8708  -13.0188  -38.0762 Cl  0  0  0  0  0  0  0  0  0  0  0  0
    1.5189  -14.6795  -37.6458 C   0  0  0  0  0  0  0  0  0  0  0  0
    1.6953  -15.6713  -38.5797 C   0  0  0  0  0  0  0  0  0  0  0  0
    2.1060  -15.7003  -39.8587 N   0  0  0  0  0  0  0  0  0  0  0  0
    2.1057  -16.9541  -40.3496 C   0  0  0  0  0  0  0  0  0  0  0  0
    1.6677  -17.7545  -39.3159 C   0  0  0  0  0  0  0  0  0  0  0  0
    1.4081  -16.9745  -38.2098 C   0  0  0  0  0  0  0  0  0  0  0  0
    0.9602  -17.2318  -36.9301 C   0  0  0  0  0  0  0  0  0  0  0  0
    0.7760  -16.2594  -35.9787 C   0  0  0  0  0  0  0  0  0  0  0  0
    1.0650  -14.9517  -36.3548 C   0  0  0  0  0  0  0  0  0  0  0  0
    1.5836  -19.2051  -39.6173 C   0  0  0  0  0  0  0  0  0  0  0  0
    2.8737  -19.5411  -40.1758 N   0  0  0  0  0  0  0  0  0  0  0  0
    3.1455  -18.9608  -41.4328 C   0  0  0  0  0  0  0  0  0  0  0  0
    2.4244  -17.6448  -41.6169 C   0  0  0  0  0  0  0  0  0  0  0  0
    2.4022  -14.8705  -40.4458 H   0  0  0  0  0  0  0  0  0  0  0  0
    3.3046  -20.8501  -39.9247 C   0  0  0  0  0  0  0  0  0  0  0  0
    4.4982  -20.9160  -39.0214 C   0  0  0  0  0  0  0  0  0  0  0  0
    5.7474  -20.3994  -39.6469 C   0  0  0  0  0  0  0  0  0  0  0  0
    6.3071  -19.3601  -38.8533 N   0  0  0  0  0  0  0  0  0  0  0  0
    5.4516  -19.1061  -37.7401 C   0  0  0  0  0  0  0  0  0  0  0  0
    4.2633  -20.0003  -37.8502 C   0  0  0  0  0  0  0  0  0  0  0  0
    4.6632  -22.2047  -38.4983 O   0  0  0  0  0  0  0  0  0  0  0  0
    7.2999  -19.5317  -38.5669 H   0  0  0  0  0  0  0  0  0  0  0  0
    5.6266  -22.2826  -38.2680 H   0  0  0  0  0  0  0  0  0  0  0  0
  1  2  1  0  0  0
  2  3  2  0  0  0
  2 10  1  0  0  0
  3  4  1  0  0  0
  3  7  1  0  0  0
  4  5  1  0  0  0
  5  6  2  0  0  0
  5 14  1  0  0  0
  6  7  1  0  0  0
  6 11  1  0  0  0
  7  8  2  0  0  0
  8  9  1  0  0  0
  9 10  2  0  0  0
 11 12  1  0  0  0
 12 13  1  0  0  0
 12 16  1  0  0  0
 13 14  1  0  0  0
 16 17  1  0  0  0
 17 18  1  0  0  0
 17 21  1  0  0  0
 17 22  1  0  0  0
 18 19  1  0  0  0
 19 20  1  0  0  0
 20 21  1  0  0  0
  4 15  1  0  0  0
 19 23  1  0  0  0
 22 24  1  0  0  0
M  END
> <minimizedAffinity>
-6.20325

$$$$
1523


 25 28  0  0  0  0  0  0  0  0999 V2000
    0.6900  -16.5566  -36.5663 C   0  0  0  0  0  0  0  0  0  0  0  0
    0.6501  -16.6968  -35.2938 O   0  0  0  0  0  0  0  0  0  0  0  0
    0.3509  -15.3385  -37.1564 N   0  0  0  0  0  0  0  0  0  0  0  0
   -0.0526  -14.2345  -36.3298 C   0  0  0  0  0  0  0  0  0  0  0  0
    0.9922  -13.1579  -36.4315 C   0  0  0  0  0  0  0  0  0  0  0  0
    1.3624  -12.9796  -37.8064 N   0  0  0  0  0  0  0  0  0  0  0  0
    0.4343  -13.5621  -38.7952 C   0  0  0  0  0  0  0  0  0  0  0  0
    0.3638  -15.0672  -38.5770 C   0  0  0  0  0  0  0  0  0  0  0  0
    2.4897  -12.3321  -38.3120 C   0  0  0  0  0  0  0  0  0  0  0  0
    2.5586  -12.2842  -39.6073 O   0  0  0  0  0  0  0  0  0  0  0  0
    2.3764  -19.2981  -38.3124 N   0  0  0  0  0  0  0  0  0  0  0  0
    1.0830  -19.6141  -38.4363 N   0  0  0  0  0  0  0  0  0  0  0  0
    0.3305  -18.7102  -37.8499 N   0  0  0  0  0  0  0  0  0  0  0  0
    1.1134  -17.7610  -37.3173 C   0  0  0  0  0  0  0  0  0  0  0  0
    2.3982  -18.1481  -37.6181 C   0  0  0  0  0  0  0  0  0  0  0  0
    4.2207  -22.6672  -41.9640 Br  0  0  0  0  0  0  0  0  0  0  0  0
    4.4130  -21.5626  -40.4223 C   0  0  0  0  0  0  0  0  0  0  0  0
    3.3187  -20.8342  -39.9335 C   0  0  0  0  0  0  0  0  0  0  0  0
    3.4702  -20.0421  -38.8212 C   0  0  0  0  0  0  0  0  0  0  0  0
    4.6960  -19.9810  -38.2121 C   0  0  0  0  0  0  0  0  0  0  0  0
    5.7948  -20.7047  -38.6924 C   0  0  0  0  0  0  0  0  0  0  0  0
    5.6334  -21.4945  -39.8049 C   0  0  0  0  0  0  0  0  0  0  0  0
    3.6060  -11.6978  -37.6211 C   0  0  0  0  0  0  0  0  0  0  0  0
    4.6994  -10.9925  -38.2900 C   0  0  0  0  0  0  0  0  0  0  0  0
    3.7272  -10.2379  -37.3876 C   0  0  0  0  0  0  0  0  0  0  0  0
 16 17  1  0  0  0
 17 18  2  0  0  0
 17 22  1  0  0  0
 18 19  1  0  0  0
 19 20  2  0  0  0
 19 11  1  0  0  0
 20 21  1  0  0  0
 21 22  2  0  0  0
 11 12  1  0  0  0
 11 15  1  0  0  0
 12 13  2  0  0  0
 13 14  1  0  0  0
 14 15  2  0  0  0
 14  1  1  0  0  0
  1  2  2  0  0  0
  1  3  1  0  0  0
  3  4  1  0  0  0
  3  8  1  0  0  0
  4  5  1  0  0  0
  5  6  1  0  0  0
  6  7  1  0  0  0
  6  9  1  0  0  0
  7  8  1  0  0  0
  9 10  2  0  0  0
  9 23  1  0  0  0
 23 24  1  0  0  0
 23 25  1  0  0  0
 24 25  1  0  0  0
M  END
> <minimizedAffinity>
-6.59003

$$$$
1525


 26 29  0  0  0  0  0  0  0  0999 V2000
    2.4688  -18.3833  -37.6252 N   0  0  0  0  0  0  0  0  0  0  0  0
    2.1956  -19.2002  -38.7569 C   0  0  0  0  0  0  0  0  0  0  0  0
    1.1372  -19.1219  -39.4264 O   0  0  0  0  0  0  0  0  0  0  0  0
    3.3474  -20.0765  -38.9335 C   0  0  0  0  0  0  0  0  0  0  0  0
    3.8698  -20.2445  -37.5221 C   0  0  0  0  0  0  0  0  0  0  0  0
    3.4438  -19.0312  -36.7990 C   0  0  0  0  0  0  0  0  0  0  0  0
    3.8442  -18.6258  -35.6759 O   0  0  0  0  0  0  0  0  0  0  0  0
    1.7620  -13.2513  -38.9682 Br  0  0  0  0  0  0  0  0  0  0  0  0
    1.4570  -14.7912  -37.8924 C   0  0  0  0  0  0  0  0  0  0  0  0
    2.0813  -16.0047  -38.1678 C   0  0  0  0  0  0  0  0  0  0  0  0
    1.8556  -17.1162  -37.3836 C   0  0  0  0  0  0  0  0  0  0  0  0
    0.9780  -16.9510  -36.3178 C   0  0  0  0  0  0  0  0  0  0  0  0
    0.3556  -15.7669  -36.0307 C   0  0  0  0  0  0  0  0  0  0  0  0
    0.5938  -14.6717  -36.8249 C   0  0  0  0  0  0  0  0  0  0  0  0
    4.3357  -19.6462  -39.8389 N   0  0  0  0  0  0  0  0  0  0  0  0
    3.9184  -19.0167  -41.0259 C   0  0  0  0  0  0  0  0  0  0  0  0
    3.8939  -20.0604  -42.1512 C   0  0  0  0  0  0  0  0  0  0  0  0
    4.6721  -21.2244  -41.7585 N   0  0  0  0  0  0  0  0  0  0  0  0
    5.8750  -21.1096  -40.9580 C   0  0  0  0  0  0  0  0  0  0  0  0
    5.6259  -20.1747  -39.7980 C   0  0  0  0  0  0  0  0  0  0  0  0
    4.2632  -22.5463  -42.1359 C   0  0  0  0  0  0  0  0  0  0  0  0
    3.0218  -22.9962  -41.8566 N   0  0  0  0  0  0  0  0  0  0  0  0
    2.6384  -24.2331  -42.2289 C   0  0  0  0  0  0  0  0  0  0  0  0
    3.4990  -25.0860  -42.9103 C   0  0  0  0  0  0  0  0  0  0  0  0
    4.7697  -24.6177  -43.1941 C   0  0  0  0  0  0  0  0  0  0  0  0
    5.0924  -23.3743  -42.7964 N   0  0  0  0  0  0  0  0  0  0  0  0
  8  9  1  0  0  0
  9 10  2  0  0  0
  9 14  1  0  0  0
 10 11  1  0  0  0
 11 12  2  0  0  0
 11  1  1  0  0  0
 12 13  1  0  0  0
 13 14  2  0  0  0
  1  2  1  0  0  0
  1  6  1  0  0  0
  2  3  2  0  0  0
  2  4  1  0  0  0
  4  5  1  0  0  0
  4 15  1  0  0  0
  5  6  1  0  0  0
  6  7  2  0  0  0
 15 16  1  0  0  0
 15 20  1  0  0  0
 16 17  1  0  0  0
 17 18  1  0  0  0
 18 19  1  0  0  0
 18 21  1  0  0  0
 19 20  1  0  0  0
 21 22  2  0  0  0
 21 26  1  0  0  0
 22 23  1  0  0  0
 23 24  2  0  0  0
 24 25  1  0  0  0
 25 26  2  0  0  0
M  END
> <minimizedAffinity>
-6.39787

$$$$
1531


 27 30  0  0  0  0  0  0  0  0999 V2000
    0.9729  -16.7921  -36.7394 N   0  0  0  0  0  0  0  0  0  0  0  0
   -0.0142  -17.6987  -37.0236 C   0  0  0  0  0  0  0  0  0  0  0  0
    0.5711  -18.6916  -37.6976 N   0  0  0  0  0  0  0  0  0  0  0  0
    1.8869  -18.4822  -37.8700 C   0  0  0  0  0  0  0  0  0  0  0  0
    2.1386  -17.2680  -37.2566 C   0  0  0  0  0  0  0  0  0  0  0  0
   -0.4100  -19.7133  -38.0481 C   0  0  0  0  0  0  0  0  0  0  0  0
   -1.7303  -19.1675  -37.5887 C   0  0  0  0  0  0  0  0  0  0  0  0
   -1.4673  -17.9190  -36.8253 C   0  0  0  0  0  0  0  0  0  0  0  0
    2.8790  -19.3164  -38.5466 C   0  0  0  0  0  0  0  0  0  0  0  0
    3.2687  -19.1634  -39.8526 C   0  0  0  0  0  0  0  0  0  0  0  0
    4.2297  -20.0041  -40.4323 C   0  0  0  0  0  0  0  0  0  0  0  0
    4.8282  -21.0221  -39.7239 C   0  0  0  0  0  0  0  0  0  0  0  0
    4.4427  -21.1846  -38.4111 C   0  0  0  0  0  0  0  0  0  0  0  0
    3.4977  -20.3557  -37.8431 C   0  0  0  0  0  0  0  0  0  0  0  0
    5.7805  -21.8616  -40.2849 O   0  0  0  0  0  0  0  0  0  0  0  0
    5.9711  -21.8955  -41.6880 C   0  0  0  0  0  0  0  0  0  0  0  0
    0.8196  -15.5899  -35.9929 C   0  0  0  0  0  0  0  0  0  0  0  0
    0.7765  -14.2990  -36.6387 C   0  0  0  0  0  0  0  0  0  0  0  0
   -0.3084  -13.5968  -36.3754 O   0  0  0  0  0  0  0  0  0  0  0  0
    4.2865  -10.5599  -37.1096 Cl  0  0  0  0  0  0  0  0  0  0  0  0
    3.3716  -11.8762  -37.7945 C   0  0  0  0  0  0  0  0  0  0  0  0
    3.5759  -12.2043  -39.1153 C   0  0  0  0  0  0  0  0  0  0  0  0
    2.8474  -13.2430  -39.6410 C   0  0  0  0  0  0  0  0  0  0  0  0
    1.9323  -13.9287  -38.8286 C   0  0  0  0  0  0  0  0  0  0  0  0
    1.7007  -13.6363  -37.5189 C   0  0  0  0  0  0  0  0  0  0  0  0
    2.4798  -12.5568  -37.0327 C   0  0  0  0  0  0  0  0  0  0  0  0
    4.7182  -11.3466  -40.1233 Cl  0  0  0  0  0  0  0  0  0  0  0  0
 20 21  1  0  0  0
 21 22  2  0  0  0
 21 26  1  0  0  0
 22 23  1  0  0  0
 22 27  1  0  0  0
 23 24  2  0  0  0
 24 25  1  0  0  0
 25 26  2  0  0  0
 25 18  1  0  0  0
 18 19  2  0  0  0
 18 17  1  0  0  0
 17  1  1  0  0  0
  1  2  1  0  0  0
  1  5  1  0  0  0
  2  3  2  0  0  0
  2  8  1  0  0  0
  3  4  1  0  0  0
  3  6  1  0  0  0
  4  5  2  0  0  0
  4  9  1  0  0  0
  9 10  2  0  0  0
  9 14  1  0  0  0
 10 11  1  0  0  0
 11 12  2  0  0  0
 12 13  1  0  0  0
 12 15  1  0  0  0
 13 14  2  0  0  0
 15 16  1  0  0  0
  6  7  1  0  0  0
  7  8  1  0  0  0
M  END
> <minimizedAffinity>
-7.33175

$$$$
1533


 28 31  0  0  0  0  0  0  0  0999 V2000
    1.4452  -18.1253  -37.6492 C   0  0  0  0  0  0  0  0  0  0  0  0
    0.1187  -18.3666  -37.4856 N   0  0  0  0  0  0  0  0  0  0  0  0
   -0.5043  -17.2253  -37.1734 C   0  0  0  0  0  0  0  0  0  0  0  0
    0.3990  -16.1987  -37.1262 N   0  0  0  0  0  0  0  0  0  0  0  0
    1.5821  -16.7641  -37.4181 C   0  0  0  0  0  0  0  0  0  0  0  0
   -1.9539  -17.4489  -36.9750 C   0  0  0  0  0  0  0  0  0  0  0  0
   -2.1700  -18.7272  -37.7364 C   0  0  0  0  0  0  0  0  0  0  0  0
   -0.8589  -19.4541  -37.5456 C   0  0  0  0  0  0  0  0  0  0  0  0
    3.4649  -21.8990  -40.6454 Cl  0  0  0  0  0  0  0  0  0  0  0  0
    3.5393  -20.7716  -39.3085 C   0  0  0  0  0  0  0  0  0  0  0  0
    4.6638  -20.7503  -38.5368 C   0  0  0  0  0  0  0  0  0  0  0  0
    4.7492  -19.8742  -37.4797 C   0  0  0  0  0  0  0  0  0  0  0  0
    3.6753  -19.0197  -37.2174 C   0  0  0  0  0  0  0  0  0  0  0  0
    2.5374  -19.0359  -37.9922 C   0  0  0  0  0  0  0  0  0  0  0  0
    2.4782  -19.9142  -39.0346 C   0  0  0  0  0  0  0  0  0  0  0  0
    6.0307  -21.8214  -38.8503 Cl  0  0  0  0  0  0  0  0  0  0  0  0
    0.1314  -14.8324  -36.7828 C   0  0  0  0  0  0  0  0  0  0  0  0
    1.1358  -13.8064  -36.8492 C   0  0  0  0  0  0  0  0  0  0  0  0
    1.3005  -13.1623  -35.6977 O   0  0  0  0  0  0  0  0  0  0  0  0
    2.0064  -13.3198  -37.8893 C   0  0  0  0  0  0  0  0  0  0  0  0
    2.8969  -12.2566  -37.6172 C   0  0  0  0  0  0  0  0  0  0  0  0
    3.7623  -11.7279  -38.5388 C   0  0  0  0  0  0  0  0  0  0  0  0
    3.7403  -12.2881  -39.7999 C   0  0  0  0  0  0  0  0  0  0  0  0
    2.8820  -13.3251  -40.0902 C   0  0  0  0  0  0  0  0  0  0  0  0
    2.0022  -13.8593  -39.1469 C   0  0  0  0  0  0  0  0  0  0  0  0
    4.6460  -10.6621  -38.2457 N   0  0  0  0  0  0  0  0  0  0  0  0
    5.6216  -10.4661  -38.9783 O   0  0  0  0  0  0  0  0  0  0  0  0
    4.4526   -9.8402  -37.1737 O   0  0  0  0  0  0  0  0  0  0  0  0
  9 10  1  0  0  0
 10 11  2  0  0  0
 10 15  1  0  0  0
 11 12  1  0  0  0
 11 16  1  0  0  0
 12 13  2  0  0  0
 13 14  1  0  0  0
 14 15  2  0  0  0
 14  1  1  0  0  0
  1  2  1  0  0  0
  1  5  2  0  0  0
  2  3  2  0  0  0
  2  8  1  0  0  0
  3  4  1  0  0  0
  3  6  1  0  0  0
  4  5  1  0  0  0
  4 17  1  0  0  0
 17 18  1  0  0  0
 18 19  2  0  0  0
 18 20  1  0  0  0
 20 21  2  0  0  0
 20 25  1  0  0  0
 21 22  1  0  0  0
 22 23  2  0  0  0
 22 26  1  0  0  0
 23 24  1  0  0  0
 24 25  2  0  0  0
 26 27  2  0  0  0
 26 28  1  0  0  0
  6  7  1  0  0  0
  7  8  1  0  0  0
M  CHG 1  28  -1
M  END
> <minimizedAffinity>
-7.59641

$$$$
1535


 28 31  0  0  0  0  0  0  0  0999 V2000
    1.3817  -18.4785  -37.9544 C   0  0  0  0  0  0  0  0  0  0  0  0
    0.1140  -18.4669  -37.5121 N   0  0  0  0  0  0  0  0  0  0  0  0
   -0.1059  -17.3394  -36.8040 C   0  0  0  0  0  0  0  0  0  0  0  0
    1.0336  -16.6250  -36.7970 N   0  0  0  0  0  0  0  0  0  0  0  0
    1.9876  -17.2960  -37.5022 C   0  0  0  0  0  0  0  0  0  0  0  0
   -1.4988  -17.3203  -36.3000 C   0  0  0  0  0  0  0  0  0  0  0  0
   -2.1711  -18.1225  -37.3846 C   0  0  0  0  0  0  0  0  0  0  0  0
   -1.1303  -19.2451  -37.5368 C   0  0  0  0  0  0  0  0  0  0  0  0
    5.4074  -21.7006  -38.5925 Cl  0  0  0  0  0  0  0  0  0  0  0  0
    3.9339  -20.9954  -39.1782 C   0  0  0  0  0  0  0  0  0  0  0  0
    3.4334  -21.3383  -40.4053 C   0  0  0  0  0  0  0  0  0  0  0  0
    2.2634  -20.7465  -40.8170 C   0  0  0  0  0  0  0  0  0  0  0  0
    1.6203  -19.8405  -40.0163 C   0  0  0  0  0  0  0  0  0  0  0  0
    2.1019  -19.4679  -38.7576 C   0  0  0  0  0  0  0  0  0  0  0  0
    3.2576  -20.0606  -38.3699 C   0  0  0  0  0  0  0  0  0  0  0  0
    4.2468  -22.4950  -41.4363 Cl  0  0  0  0  0  0  0  0  0  0  0  0
    1.2404  -15.3920  -36.1310 C   0  0  0  0  0  0  0  0  0  0  0  0
    1.1960  -14.1190  -36.7909 C   0  0  0  0  0  0  0  0  0  0  0  0
    0.1560  -13.4052  -36.4088 O   0  0  0  0  0  0  0  0  0  0  0  0
    2.0508  -13.4894  -37.7694 C   0  0  0  0  0  0  0  0  0  0  0  0
    2.8985  -12.4448  -37.5181 C   0  0  0  0  0  0  0  0  0  0  0  0
    3.6995  -11.8855  -38.5182 C   0  0  0  0  0  0  0  0  0  0  0  0
    3.6523  -12.3752  -39.7837 C   0  0  0  0  0  0  0  0  0  0  0  0
    2.8076  -13.4268  -40.0649 C   0  0  0  0  0  0  0  0  0  0  0  0
    2.0194  -13.9821  -39.0939 C   0  0  0  0  0  0  0  0  0  0  0  0
    4.5637  -10.7962  -38.1898 N   0  0  0  0  0  0  0  0  0  0  0  0
    4.3931  -10.1806  -37.1232 O   0  0  0  0  0  0  0  0  0  0  0  0
    5.5733  -10.4073  -39.0106 O   0  0  0  0  0  0  0  0  0  0  0  0
  9 10  1  0  0  0
 10 11  2  0  0  0
 10 15  1  0  0  0
 11 12  1  0  0  0
 11 16  1  0  0  0
 12 13  2  0  0  0
 13 14  1  0  0  0
 14 15  2  0  0  0
 14  1  1  0  0  0
  1  2  1  0  0  0
  1  5  2  0  0  0
  2  3  1  0  0  0
  2  8  1  0  0  0
  3  4  2  0  0  0
  3  6  1  0  0  0
  4  5  1  0  0  0
  4 17  1  0  0  0
 17 18  1  0  0  0
 18 19  2  0  0  0
 18 20  1  0  0  0
 20 21  2  0  0  0
 20 25  1  0  0  0
 21 22  1  0  0  0
 22 23  2  0  0  0
 22 26  1  0  0  0
 23 24  1  0  0  0
 24 25  2  0  0  0
 26 27  2  0  0  0
 26 28  1  0  0  0
  6  7  1  0  0  0
  7  8  1  0  0  0
M  CHG 1  28  -1
M  END
> <minimizedAffinity>
-7.37838

$$$$
1536


 31 34  0  0  0  0  0  0  0  0999 V2000
    1.2103  -16.1956  -38.8734 S   0  0  0  0  0  0  0  0  0  0  0  0
   -0.2653  -16.0011  -39.2374 O   0  0  0  0  0  0  0  0  0  0  0  0
    1.8578  -16.5325  -40.2187 O   0  0  0  0  0  0  0  0  0  0  0  0
    1.7610  -14.6418  -38.3179 C   0  0  0  0  0  0  0  0  0  0  0  0
    2.5787  -13.8650  -39.1564 C   0  0  0  0  0  0  0  0  0  0  0  0
    3.0923  -12.6545  -38.7701 C   0  0  0  0  0  0  0  0  0  0  0  0
    2.8105  -12.1681  -37.5307 C   0  0  0  0  0  0  0  0  0  0  0  0
    2.0169  -12.8814  -36.6689 C   0  0  0  0  0  0  0  0  0  0  0  0
    1.5049  -14.1111  -37.0873 C   0  0  0  0  0  0  0  0  0  0  0  0
    0.4327  -14.9441  -35.9745 Cl  0  0  0  0  0  0  0  0  0  0  0  0
    3.3625  -10.8986  -37.1411 N   0  0  0  0  0  0  0  0  0  0  0  0
    4.1834  -10.1856  -38.0500 C   0  0  0  0  0  0  0  0  0  0  0  0
    4.3741   -8.9569  -37.9367 O   0  0  0  0  0  0  0  0  0  0  0  0
    4.8154  -10.9565  -39.1525 C   0  0  0  0  0  0  0  0  0  0  0  0
    3.9043  -11.9084  -39.6340 O   0  0  0  0  0  0  0  0  0  0  0  0
    3.1520  -10.5191  -36.1968 H   0  0  0  0  0  0  0  0  0  0  0  0
    1.3283  -17.4936  -37.8568 N   0  0  0  0  0  0  0  0  0  0  0  0
    2.3783  -17.7065  -36.9710 C   0  0  0  0  0  0  0  0  0  0  0  0
    3.5191  -18.5352  -37.4674 C   0  0  0  0  0  0  0  0  0  0  0  0
    3.0325  -19.4125  -38.6187 C   0  0  0  0  0  0  0  0  0  0  0  0
    1.6549  -19.9003  -38.1414 C   0  0  0  0  0  0  0  0  0  0  0  0
    0.7214  -18.7201  -38.3599 C   0  0  0  0  0  0  0  0  0  0  0  0
    3.9358  -20.5175  -38.8903 C   0  0  0  0  0  0  0  0  0  0  0  0
    4.2148  -21.3323  -37.9720 O   0  0  0  0  0  0  0  0  0  0  0  0
    4.5067  -20.7048  -40.1533 N   0  0  0  0  0  0  0  0  0  0  0  0
    5.3912  -21.8314  -40.4717 C   0  0  0  0  0  0  0  0  0  0  0  0
    5.9511  -21.5564  -41.8514 C   0  0  0  0  0  0  0  0  0  0  0  0
    4.8824  -21.5181  -42.8310 N   0  0  0  0  0  0  0  0  0  0  0  0
    3.9141  -20.4825  -42.5169 C   0  0  0  0  0  0  0  0  0  0  0  0
    4.2724  -19.7746  -41.2219 C   0  0  0  0  0  0  0  0  0  0  0  0
    5.4084  -21.3399  -44.1671 C   0  0  0  0  0  0  0  0  0  0  0  0
  1  2  2  0  0  0
  1  3  2  0  0  0
  1 17  1  0  0  0
  1  4  1  0  0  0
 17 18  1  0  0  0
 17 22  1  0  0  0
 18 19  1  0  0  0
 19 20  1  0  0  0
 20 21  1  0  0  0
 20 23  1  0  0  0
 21 22  1  0  0  0
 23 24  2  0  0  0
 23 25  1  0  0  0
 25 26  1  0  0  0
 25 30  1  0  0  0
 26 27  1  0  0  0
 27 28  1  0  0  0
 28 29  1  0  0  0
 28 31  1  0  0  0
 29 30  1  0  0  0
  4  5  2  0  0  0
  4  9  1  0  0  0
  5  6  1  0  0  0
  6  7  2  0  0  0
  6 15  1  0  0  0
  7  8  1  0  0  0
  7 11  1  0  0  0
  8  9  2  0  0  0
  9 10  1  0  0  0
 11 12  1  0  0  0
 12 13  2  0  0  0
 12 14  1  0  0  0
 14 15  1  0  0  0
 11 16  1  0  0  0
M  END
> <minimizedAffinity>
-7.22345

$$$$
1539


 34 37  0  0  0  0  0  0  0  0999 V2000
    0.8759  -18.5210  -37.4852 C   0  0  0  0  0  0  0  0  0  0  0  0
    0.0802  -18.7756  -38.6931 N   0  0  0  0  0  0  0  0  0  0  0  0
    0.5929  -17.8768  -39.6662 C   0  0  0  0  0  0  0  0  0  0  0  0
    0.5847  -18.0299  -40.8986 O   0  0  0  0  0  0  0  0  0  0  0  0
    1.1299  -16.7386  -38.9272 C   0  0  0  0  0  0  0  0  0  0  0  0
    1.6937  -15.6825  -39.3410 O   0  0  0  0  0  0  0  0  0  0  0  0
    0.8998  -17.0296  -37.5045 C   0  0  0  0  0  0  0  0  0  0  0  0
    0.7824  -16.1497  -36.5294 C   0  0  0  0  0  0  0  0  0  0  0  0
    0.6078  -16.6226  -35.2259 O   0  0  0  0  0  0  0  0  0  0  0  0
    6.4080  -20.7662  -38.5992 Cl  0  0  0  0  0  0  0  0  0  0  0  0
    4.8014  -20.1165  -38.2778 C   0  0  0  0  0  0  0  0  0  0  0  0
    4.6156  -19.0675  -37.3958 C   0  0  0  0  0  0  0  0  0  0  0  0
    3.3524  -18.5709  -37.1549 C   0  0  0  0  0  0  0  0  0  0  0  0
    2.2232  -19.0755  -37.7635 C   0  0  0  0  0  0  0  0  0  0  0  0
    2.4308  -20.1369  -38.6534 C   0  0  0  0  0  0  0  0  0  0  0  0
    3.6903  -20.6346  -38.8959 C   0  0  0  0  0  0  0  0  0  0  0  0
    0.8219  -14.7116  -36.7501 C   0  0  0  0  0  0  0  0  0  0  0  0
    2.0130  -14.0094  -36.8336 C   0  0  0  0  0  0  0  0  0  0  0  0
    2.0450  -12.6426  -37.0163 C   0  0  0  0  0  0  0  0  0  0  0  0
    0.8691  -11.9137  -37.1241 C   0  0  0  0  0  0  0  0  0  0  0  0
   -0.3212  -12.5993  -37.0425 C   0  0  0  0  0  0  0  0  0  0  0  0
   -0.3412  -13.9849  -36.8570 C   0  0  0  0  0  0  0  0  0  0  0  0
    3.3417  -11.9346  -37.0992 C   0  0  0  0  0  0  0  0  0  0  0  0
    0.8844  -10.5338  -37.3097 O   0  0  0  0  0  0  0  0  0  0  0  0
   -0.2896   -9.8041  -37.0861 C   0  0  0  0  0  0  0  0  0  0  0  0
   -1.0005  -19.7499  -38.8486 C   0  0  0  0  0  0  0  0  0  0  0  0
   -2.2809  -18.9563  -38.9688 C   0  0  0  0  0  0  0  0  0  0  0  0
   -3.2096  -19.2425  -37.9088 N   0  0  0  0  0  0  0  0  0  0  0  0
   -4.4914  -18.6808  -38.1857 C   0  0  0  0  0  0  0  0  0  0  0  0
   -4.7743  -17.3534  -37.5649 C   0  0  0  0  0  0  0  0  0  0  0  0
   -4.1829  -17.1385  -36.3493 O   0  0  0  0  0  0  0  0  0  0  0  0
   -2.8135  -17.3694  -36.3563 C   0  0  0  0  0  0  0  0  0  0  0  0
   -2.6223  -18.8315  -36.6642 C   0  0  0  0  0  0  0  0  0  0  0  0
   -3.3202  -20.2963  -37.9067 H   0  0  0  0  0  0  0  0  0  0  0  0
 10 11  1  0  0  0
 11 12  2  0  0  0
 11 16  1  0  0  0
 12 13  1  0  0  0
 13 14  2  0  0  0
 14 15  1  0  0  0
 14  1  1  0  0  0
 15 16  2  0  0  0
  1  2  1  0  0  0
  1  7  1  0  0  0
  2  3  1  0  0  0
  2 26  1  0  0  0
  3  4  2  0  0  0
  3  5  1  0  0  0
  5  6  2  0  0  0
  5  7  1  0  0  0
  7  8  2  0  0  0
  8  9  1  0  0  0
  8 17  1  0  0  0
 17 18  2  0  0  0
 17 22  1  0  0  0
 18 19  1  0  0  0
 19 20  2  0  0  0
 19 23  1  0  0  0
 20 21  1  0  0  0
 20 24  1  0  0  0
 21 22  2  0  0  0
 24 25  1  0  0  0
 26 27  1  0  0  0
 27 28  1  0  0  0
 28 29  1  0  0  0
 28 33  1  0  0  0
 29 30  1  0  0  0
 30 31  1  0  0  0
 31 32  1  0  0  0
 32 33  1  0  0  0
 28 34  1  0  0  0
M  CHG 1   9  -1
M  CHG 1  28   1
M  END
> <minimizedAffinity>
-6.69012

$$$$
1548


 24 27  0  0  0  0  0  0  0  0999 V2000
   -1.5652  -16.8117  -36.7118 Cl  0  0  0  0  0  0  0  0  0  0  0  0
    0.0720  -17.4034  -36.9534 C   0  0  0  0  0  0  0  0  0  0  0  0
    0.3608  -18.4236  -37.8333 C   0  0  0  0  0  0  0  0  0  0  0  0
    1.6336  -18.8817  -38.0187 N   0  0  0  0  0  0  0  0  0  0  0  0
    2.6736  -18.3546  -37.3473 C   0  0  0  0  0  0  0  0  0  0  0  0
    3.9390  -18.8083  -37.5297 N   0  0  0  0  0  0  0  0  0  0  0  0
    4.2144  -19.8084  -38.3938 C   0  0  0  0  0  0  0  0  0  0  0  0
    3.1830  -20.3659  -39.0921 C   0  0  0  0  0  0  0  0  0  0  0  0
    3.4322  -21.4782  -40.0646 C   0  0  0  0  0  0  0  0  0  0  0  0
    4.8171  -21.2743  -40.5239 N   0  0  0  0  0  0  0  0  0  0  0  0
    5.7964  -21.3659  -39.4787 C   0  0  0  0  0  0  0  0  0  0  0  0
    5.6409  -20.2128  -38.5028 C   0  0  0  0  0  0  0  0  0  0  0  0
    5.0206  -21.0217  -41.8774 C   0  0  0  0  0  0  0  0  0  0  0  0
    4.0033  -20.9860  -42.6532 O   0  0  0  0  0  0  0  0  0  0  0  0
    1.9002  -19.8785  -38.8815 C   0  0  0  0  0  0  0  0  0  0  0  0
    0.9515  -20.3817  -39.5149 O   0  0  0  0  0  0  0  0  0  0  0  0
    2.3919  -17.3275  -36.4595 C   0  0  0  0  0  0  0  0  0  0  0  0
    1.1177  -16.8445  -36.2512 C   0  0  0  0  0  0  0  0  0  0  0  0
    6.3185  -20.7863  -42.5210 C   0  0  0  0  0  0  0  0  0  0  0  0
    6.8776  -19.5744  -42.5830 N   0  0  0  0  0  0  0  0  0  0  0  0
    8.0598  -19.3690  -43.1712 C   0  0  0  0  0  0  0  0  0  0  0  0
    8.7723  -20.3990  -43.7497 C   0  0  0  0  0  0  0  0  0  0  0  0
    8.1950  -21.6109  -43.6776 N   0  0  0  0  0  0  0  0  0  0  0  0
    7.0171  -21.8419  -43.0973 C   0  0  0  0  0  0  0  0  0  0  0  0
  1  2  1  0  0  0
  2  3  2  0  0  0
  2 18  1  0  0  0
  3  4  1  0  0  0
  4  5  1  0  0  0
  4 15  1  0  0  0
  5  6  2  0  0  0
  5 17  1  0  0  0
  6  7  1  0  0  0
  7  8  2  0  0  0
  7 12  1  0  0  0
  8  9  1  0  0  0
  8 15  1  0  0  0
  9 10  1  0  0  0
 10 11  1  0  0  0
 10 13  1  0  0  0
 11 12  1  0  0  0
 13 14  2  0  0  0
 13 19  1  0  0  0
 19 20  2  0  0  0
 19 24  1  0  0  0
 20 21  1  0  0  0
 21 22  2  0  0  0
 22 23  1  0  0  0
 23 24  2  0  0  0
 15 16  2  0  0  0
 17 18  2  0  0  0
M  END
> <minimizedAffinity>
-6.25242

$$$$
1553


 29 32  0  0  0  0  0  0  0  0999 V2000
    1.4426  -18.0058  -37.3755 C   0  0  0  0  0  0  0  0  0  0  0  0
    0.2094  -18.5823  -37.7579 N   0  0  0  0  0  0  0  0  0  0  0  0
    0.2402  -19.9442  -38.2052 C   0  0  0  0  0  0  0  0  0  0  0  0
    1.2651  -20.0729  -39.3448 C   0  0  0  0  0  0  0  0  0  0  0  0
    2.5541  -19.7677  -38.6950 C   0  0  0  0  0  0  0  0  0  0  0  0
    3.8135  -20.3259  -38.8448 C   0  0  0  0  0  0  0  0  0  0  0  0
    4.6438  -19.6534  -37.9758 C   0  0  0  0  0  0  0  0  0  0  0  0
    3.9407  -18.7211  -37.3146 N   0  0  0  0  0  0  0  0  0  0  0  0
    2.6418  -18.7873  -37.7567 C   0  0  0  0  0  0  0  0  0  0  0  0
    5.9739  -20.0299  -37.9331 C   0  0  0  0  0  0  0  0  0  0  0  0
    6.4040  -21.0455  -38.7505 C   0  0  0  0  0  0  0  0  0  0  0  0
    5.5717  -21.7161  -39.6180 C   0  0  0  0  0  0  0  0  0  0  0  0
    4.2293  -21.3474  -39.6714 C   0  0  0  0  0  0  0  0  0  0  0  0
   -0.4374  -18.5521  -36.9061 H   0  0  0  0  0  0  0  0  0  0  0  0
   -0.3114  -18.0413  -38.4930 H   0  0  0  0  0  0  0  0  0  0  0  0
    4.2680  -18.0375  -36.5841 H   0  0  0  0  0  0  0  0  0  0  0  0
    1.6912  -12.6301  -36.9073 Br  0  0  0  0  0  0  0  0  0  0  0  0
    1.7112  -14.2432  -37.9353 C   0  0  0  0  0  0  0  0  0  0  0  0
    1.5722  -15.4819  -37.3011 C   0  0  0  0  0  0  0  0  0  0  0  0
    1.5818  -16.6555  -38.0335 C   0  0  0  0  0  0  0  0  0  0  0  0
    1.7320  -16.5576  -39.4018 C   0  0  0  0  0  0  0  0  0  0  0  0
    1.8687  -15.3233  -40.0238 C   0  0  0  0  0  0  0  0  0  0  0  0
    1.8585  -14.1581  -39.2929 C   0  0  0  0  0  0  0  0  0  0  0  0
    2.0718  -15.2462  -41.9373 Br  0  0  0  0  0  0  0  0  0  0  0  0
    1.4296  -15.4511  -35.9389 O   0  0  0  0  0  0  0  0  0  0  0  0
    1.3161  -16.2225  -35.3401 H   0  0  0  0  0  0  0  0  0  0  0  0
   -1.1042  -20.3529  -38.6600 C   0  0  0  0  0  0  0  0  0  0  0  0
   -1.4584  -21.5515  -38.5155 O   0  0  0  0  0  0  0  0  0  0  0  0
   -1.9451  -19.4145  -39.2350 O   0  0  0  0  0  0  0  0  0  0  0  0
 17 18  1  0  0  0
 18 19  2  0  0  0
 18 23  1  0  0  0
 19 20  1  0  0  0
 19 25  1  0  0  0
 20 21  2  0  0  0
 20  1  1  0  0  0
 21 22  1  0  0  0
 22 23  2  0  0  0
 22 24  1  0  0  0
  1  2  1  0  0  0
  1  9  1  0  0  0
  2  3  1  0  0  0
  3  4  1  0  0  0
  3 27  1  0  0  0
  4  5  1  0  0  0
  5  6  1  0  0  0
  5  9  2  0  0  0
  6  7  2  0  0  0
  6 13  1  0  0  0
  7  8  1  0  0  0
  7 10  1  0  0  0
  8  9  1  0  0  0
 10 11  2  0  0  0
 11 12  1  0  0  0
 12 13  2  0  0  0
 27 28  2  0  0  0
 27 29  1  0  0  0
  2 14  1  0  0  0
  2 15  1  0  0  0
  8 16  1  0  0  0
 25 26  1  0  0  0
M  CHG 1   2   1
M  END
> <minimizedAffinity>
-7.05286

$$$$
1571


 28 31  0  0  0  0  0  0  0  0999 V2000
    0.8241  -17.1876  -39.9352 O   0  0  0  0  0  0  0  0  0  0  0  0
    1.7841  -17.9199  -40.5947 C   0  0  0  0  0  0  0  0  0  0  0  0
    2.7388  -17.2576  -41.0920 O   0  0  0  0  0  0  0  0  0  0  0  0
    1.7202  -19.4004  -40.7247 C   0  0  0  0  0  0  0  0  0  0  0  0
    2.6438  -20.0604  -39.8002 N   0  0  0  0  0  0  0  0  0  0  0  0
    3.9068  -20.6433  -40.1094 C   0  0  0  0  0  0  0  0  0  0  0  0
    4.5299  -20.5354  -41.1949 O   0  0  0  0  0  0  0  0  0  0  0  0
    4.3592  -21.4018  -38.9200 C   0  0  0  0  0  0  0  0  0  0  0  0
    3.7427  -20.5738  -37.8169 C   0  0  0  0  0  0  0  0  0  0  0  0
    4.4959  -19.2839  -37.5564 C   0  0  0  0  0  0  0  0  0  0  0  0
    5.7902  -19.1916  -38.3204 C   0  0  0  0  0  0  0  0  0  0  0  0
    6.5787  -20.4655  -38.2073 C   0  0  0  0  0  0  0  0  0  0  0  0
    5.8181  -21.5869  -38.8208 C   0  0  0  0  0  0  0  0  0  0  0  0
    2.4272  -20.2436  -38.4121 C   0  0  0  0  0  0  0  0  0  0  0  0
    1.3094  -20.1394  -37.8167 O   0  0  0  0  0  0  0  0  0  0  0  0
    0.7997  -16.9293  -38.5592 C   0  0  0  0  0  0  0  0  0  0  0  0
    3.9477   -9.2655  -37.6811 Br  0  0  0  0  0  0  0  0  0  0  0  0
    3.3433  -11.0396  -38.1297 C   0  0  0  0  0  0  0  0  0  0  0  0
    2.5667  -11.7646  -37.2574 C   0  0  0  0  0  0  0  0  0  0  0  0
    2.1306  -13.0001  -37.5400 N   0  0  0  0  0  0  0  0  0  0  0  0
    2.4418  -13.5954  -38.7196 C   0  0  0  0  0  0  0  0  0  0  0  0
    2.0313  -14.8223  -39.0489 N   0  0  0  0  0  0  0  0  0  0  0  0
    1.2701  -15.5649  -38.2215 C   0  0  0  0  0  0  0  0  0  0  0  0
    0.9334  -14.9927  -37.0122 C   0  0  0  0  0  0  0  0  0  0  0  0
    1.3639  -13.7228  -36.6835 C   0  0  0  0  0  0  0  0  0  0  0  0
    1.0783  -13.1624  -35.5887 O   0  0  0  0  0  0  0  0  0  0  0  0
    3.2267  -12.8912  -39.6304 C   0  0  0  0  0  0  0  0  0  0  0  0
    3.6698  -11.6213  -39.3279 C   0  0  0  0  0  0  0  0  0  0  0  0
 17 18  1  0  0  0
 18 19  2  0  0  0
 18 28  1  0  0  0
 19 20  1  0  0  0
 20 21  1  0  0  0
 20 25  1  0  0  0
 21 22  2  0  0  0
 21 27  1  0  0  0
 22 23  1  0  0  0
 23 24  2  0  0  0
 23 16  1  0  0  0
 24 25  1  0  0  0
 25 26  2  0  0  0
 16  1  1  0  0  0
  1  2  1  0  0  0
  2  3  2  0  0  0
  2  4  1  0  0  0
  4  5  1  0  0  0
  5  6  1  0  0  0
  5 14  1  0  0  0
  6  7  2  0  0  0
  6  8  1  0  0  0
  8  9  1  0  0  0
  8 13  1  0  0  0
  9 10  1  0  0  0
  9 14  1  0  0  0
 10 11  1  0  0  0
 11 12  1  0  0  0
 12 13  1  0  0  0
 14 15  2  0  0  0
 27 28  2  0  0  0
M  END
> <minimizedAffinity>
-6.82878

$$$$
1576


 30 33  0  0  0  0  0  0  0  0999 V2000
    1.2428  -12.7444  -37.7510 N   0  0  0  0  0  0  0  0  0  0  0  0
   -0.1801  -12.6667  -38.0023 C   0  0  0  0  0  0  0  0  0  0  0  0
   -0.9115  -13.3645  -36.8582 C   0  0  0  0  0  0  0  0  0  0  0  0
   -0.1937  -14.5756  -36.4941 N   0  0  0  0  0  0  0  0  0  0  0  0
    1.1905  -14.4627  -36.0983 C   0  0  0  0  0  0  0  0  0  0  0  0
    1.6388  -13.0458  -36.3664 C   0  0  0  0  0  0  0  0  0  0  0  0
   -0.8213  -15.8522  -36.5187 C   0  0  0  0  0  0  0  0  0  0  0  0
   -2.0414  -15.9140  -36.8668 O   0  0  0  0  0  0  0  0  0  0  0  0
    1.4672  -14.7789  -39.9802 Cl  0  0  0  0  0  0  0  0  0  0  0  0
    2.4818  -13.3975  -39.7696 C   0  0  0  0  0  0  0  0  0  0  0  0
    2.2523  -12.5617  -38.6980 C   0  0  0  0  0  0  0  0  0  0  0  0
    3.1072  -11.4676  -38.5852 C   0  0  0  0  0  0  0  0  0  0  0  0
    4.1189  -11.2436  -39.4981 C   0  0  0  0  0  0  0  0  0  0  0  0
    4.3090  -12.1022  -40.5486 C   0  0  0  0  0  0  0  0  0  0  0  0
    3.4916  -13.1800  -40.6866 C   0  0  0  0  0  0  0  0  0  0  0  0
   -0.1470  -17.1066  -36.1653 C   0  0  0  0  0  0  0  0  0  0  0  0
    0.4361  -17.7976  -37.3138 N   0  0  0  0  0  0  0  0  0  0  0  0
    1.5997  -17.6061  -37.9023 N   0  0  0  0  0  0  0  0  0  0  0  0
    1.8026  -18.4300  -38.9327 C   0  0  0  0  0  0  0  0  0  0  0  0
    0.6739  -19.2248  -39.0196 C   0  0  0  0  0  0  0  0  0  0  0  0
   -0.1576  -18.8108  -38.0031 C   0  0  0  0  0  0  0  0  0  0  0  0
   -1.4883  -19.3856  -37.7149 C   0  0  0  0  0  0  0  0  0  0  0  0
    2.9924  -18.4839  -39.8016 C   0  0  0  0  0  0  0  0  0  0  0  0
    3.1125  -17.6827  -40.7499 O   0  0  0  0  0  0  0  0  0  0  0  0
    3.9862  -19.4520  -39.5386 N   0  0  0  0  0  0  0  0  0  0  0  0
    3.9151  -20.4041  -38.4663 C   0  0  0  0  0  0  0  0  0  0  0  0
    5.1139  -21.3442  -38.6443 C   0  0  0  0  0  0  0  0  0  0  0  0
    5.1473  -21.8721  -39.9161 O   0  0  0  0  0  0  0  0  0  0  0  0
    5.2898  -20.9338  -40.9108 C   0  0  0  0  0  0  0  0  0  0  0  0
    5.1747  -19.5149  -40.3944 C   0  0  0  0  0  0  0  0  0  0  0  0
  9 10  1  0  0  0
 10 11  2  0  0  0
 10 15  1  0  0  0
 11 12  1  0  0  0
 11  1  1  0  0  0
 12 13  2  0  0  0
 13 14  1  0  0  0
 14 15  2  0  0  0
  1  2  1  0  0  0
  1  6  1  0  0  0
  2  3  1  0  0  0
  3  4  1  0  0  0
  4  5  1  0  0  0
  4  7  1  0  0  0
  5  6  1  0  0  0
  7  8  2  0  0  0
  7 16  1  0  0  0
 16 17  1  0  0  0
 17 18  1  0  0  0
 17 21  1  0  0  0
 18 19  2  0  0  0
 19 20  1  0  0  0
 19 23  1  0  0  0
 20 21  2  0  0  0
 21 22  1  0  0  0
 23 24  2  0  0  0
 23 25  1  0  0  0
 25 26  1  0  0  0
 25 30  1  0  0  0
 26 27  1  0  0  0
 27 28  1  0  0  0
 28 29  1  0  0  0
 29 30  1  0  0  0
M  END
> <minimizedAffinity>
-6.42634

$$$$
1581


 27 30  0  0  0  0  0  0  0  0999 V2000
    0.4065  -17.5298  -37.6126 N   0  0  0  0  0  0  0  0  0  0  0  0
   -0.3071  -18.7186  -37.8280 C   0  0  0  0  0  0  0  0  0  0  0  0
    0.4356  -19.8072  -38.5289 C   0  0  0  0  0  0  0  0  0  0  0  0
    1.8705  -19.7309  -38.2957 N   0  0  0  0  0  0  0  0  0  0  0  0
    2.7847  -20.5951  -38.7340 N   0  0  0  0  0  0  0  0  0  0  0  0
    3.9943  -20.2010  -38.3253 C   0  0  0  0  0  0  0  0  0  0  0  0
    3.8181  -19.0459  -37.6057 C   0  0  0  0  0  0  0  0  0  0  0  0
    2.4518  -18.7485  -37.5897 C   0  0  0  0  0  0  0  0  0  0  0  0
    1.6718  -17.6431  -36.9793 C   0  0  0  0  0  0  0  0  0  0  0  0
    5.2898  -20.8953  -38.6056 C   0  0  0  0  0  0  0  0  0  0  0  0
    5.0434  -22.2780  -38.5961 O   0  0  0  0  0  0  0  0  0  0  0  0
    4.0607  -22.4601  -38.5442 H   0  0  0  0  0  0  0  0  0  0  0  0
    5.7612  -20.5683  -40.0202 C   0  0  0  0  0  0  0  0  0  0  0  0
    5.4499  -21.7587  -40.9151 C   0  0  0  0  0  0  0  0  0  0  0  0
    0.2285  -16.4666  -38.5108 C   0  0  0  0  0  0  0  0  0  0  0  0
    4.2402   -9.5041  -37.4278 Cl  0  0  0  0  0  0  0  0  0  0  0  0
    3.5031  -11.0310  -37.8915 C   0  0  0  0  0  0  0  0  0  0  0  0
    2.5859  -11.5865  -37.0287 C   0  0  0  0  0  0  0  0  0  0  0  0
    2.0190  -12.7650  -37.3900 N   0  0  0  0  0  0  0  0  0  0  0  0
    2.3260  -13.3828  -38.5417 C   0  0  0  0  0  0  0  0  0  0  0  0
    1.7677  -14.5515  -38.9080 N   0  0  0  0  0  0  0  0  0  0  0  0
    0.8596  -15.1902  -38.1481 C   0  0  0  0  0  0  0  0  0  0  0  0
    0.5425  -14.5543  -36.9604 C   0  0  0  0  0  0  0  0  0  0  0  0
    1.1140  -13.3594  -36.5864 C   0  0  0  0  0  0  0  0  0  0  0  0
    0.7924  -12.8111  -35.4867 O   0  0  0  0  0  0  0  0  0  0  0  0
    3.2566  -12.8225  -39.4226 C   0  0  0  0  0  0  0  0  0  0  0  0
    3.8481  -11.6306  -39.0851 C   0  0  0  0  0  0  0  0  0  0  0  0
 16 17  1  0  0  0
 17 18  2  0  0  0
 17 27  1  0  0  0
 18 19  1  0  0  0
 19 20  1  0  0  0
 19 24  1  0  0  0
 20 21  2  0  0  0
 20 26  1  0  0  0
 21 22  1  0  0  0
 22 23  2  0  0  0
 22 15  1  0  0  0
 23 24  1  0  0  0
 24 25  2  0  0  0
 15  1  1  0  0  0
  1  2  1  0  0  0
  1  9  1  0  0  0
  2  3  1  0  0  0
  3  4  1  0  0  0
  4  5  1  0  0  0
  4  8  1  0  0  0
  5  6  2  0  0  0
  6  7  1  0  0  0
  6 10  1  0  0  0
  7  8  2  0  0  0
  8  9  1  0  0  0
 10 11  1  0  0  0
 10 13  1  0  0  0
 13 14  1  0  0  0
 26 27  2  0  0  0
 11 12  1  0  0  0
M  END
> <minimizedAffinity>
-6.86976

$$$$
1586


 29 32  0  0  0  0  0  0  0  0999 V2000
    0.7679  -15.3971  -38.4875 C   0  0  0  0  0  0  0  0  0  0  0  0
   -0.4706  -15.0734  -38.8241 O   0  0  0  0  0  0  0  0  0  0  0  0
    1.0282  -16.7735  -38.3815 N   0  0  0  0  0  0  0  0  0  0  0  0
    2.2767  -17.3354  -38.0068 C   0  0  0  0  0  0  0  0  0  0  0  0
    2.0959  -18.8472  -37.7880 C   0  0  0  0  0  0  0  0  0  0  0  0
    1.6012  -19.3610  -39.0390 N   0  0  0  0  0  0  0  0  0  0  0  0
    0.3553  -18.8560  -39.5101 C   0  0  0  0  0  0  0  0  0  0  0  0
   -0.0932  -17.6569  -38.7002 C   0  0  0  0  0  0  0  0  0  0  0  0
    2.3262  -20.3231  -39.7630 C   0  0  0  0  0  0  0  0  0  0  0  0
    1.7293  -21.0187  -40.6038 O   0  0  0  0  0  0  0  0  0  0  0  0
    3.7722  -20.4739  -39.5000 C   0  0  0  0  0  0  0  0  0  0  0  0
    3.9329  -20.5177  -38.0764 N   0  0  0  0  0  0  0  0  0  0  0  0
    3.3151  -19.4977  -37.3117 C   0  0  0  0  0  0  0  0  0  0  0  0
    3.7942  -19.1189  -36.1971 O   0  0  0  0  0  0  0  0  0  0  0  0
    4.4858  -21.2679  -37.5922 H   0  0  0  0  0  0  0  0  0  0  0  0
    4.2592  -10.6112  -37.3118 Cl  0  0  0  0  0  0  0  0  0  0  0  0
    3.2410  -12.0063  -37.6992 C   0  0  0  0  0  0  0  0  0  0  0  0
    3.2108  -12.5215  -38.9543 C   0  0  0  0  0  0  0  0  0  0  0  0
    2.3974  -13.6221  -39.2272 C   0  0  0  0  0  0  0  0  0  0  0  0
    1.6030  -14.2441  -38.2959 C   0  0  0  0  0  0  0  0  0  0  0  0
    1.6737  -13.6674  -37.0155 C   0  0  0  0  0  0  0  0  0  0  0  0
    2.4695  -12.5799  -36.7223 C   0  0  0  0  0  0  0  0  0  0  0  0
    4.4091  -21.5865  -40.2411 C   0  0  0  0  0  0  0  0  0  0  0  0
    5.4155  -21.0601  -41.1774 C   0  0  0  0  0  0  0  0  0  0  0  0
    6.0850  -21.7078  -42.1338 N   0  0  0  0  0  0  0  0  0  0  0  0
    6.9220  -20.8343  -42.7671 C   0  0  0  0  0  0  0  0  0  0  0  0
    6.7832  -19.6298  -42.2091 N   0  0  0  0  0  0  0  0  0  0  0  0
    5.8710  -19.7422  -41.2382 C   0  0  0  0  0  0  0  0  0  0  0  0
    7.2812  -18.7749  -42.4717 H   0  0  0  0  0  0  0  0  0  0  0  0
 16 17  1  0  0  0
 17 18  2  0  0  0
 17 22  1  0  0  0
 18 19  1  0  0  0
 19 20  2  0  0  0
 20 21  1  0  0  0
 20  1  1  0  0  0
 21 22  2  0  0  0
  1  2  2  0  0  0
  1  3  1  0  0  0
  3  4  1  0  0  0
  3  8  1  0  0  0
  4  5  1  0  0  0
  5  6  1  0  0  0
  5 13  1  0  0  0
  6  7  1  0  0  0
  6  9  1  0  0  0
  7  8  1  0  0  0
  9 10  2  0  0  0
  9 11  1  0  0  0
 11 12  1  0  0  0
 11 23  1  0  0  0
 12 13  1  0  0  0
 13 14  2  0  0  0
 23 24  1  0  0  0
 24 25  1  0  0  0
 24 28  2  0  0  0
 25 26  2  0  0  0
 26 27  1  0  0  0
 27 28  1  0  0  0
 12 15  1  0  0  0
 27 29  1  0  0  0
M  END
> <minimizedAffinity>
-6.94746

$$$$
1591


 26 29  0  0  0  0  0  0  0  0999 V2000
    2.7862  -18.0061  -40.0261 Cl  0  0  0  0  0  0  0  0  0  0  0  0
    2.4392  -17.5500  -38.3733 C   0  0  0  0  0  0  0  0  0  0  0  0
    2.9826  -18.2535  -37.3359 C   0  0  0  0  0  0  0  0  0  0  0  0
    2.6240  -17.8082  -36.0607 C   0  0  0  0  0  0  0  0  0  0  0  0
    1.8018  -16.7589  -35.9045 N   0  0  0  0  0  0  0  0  0  0  0  0
    1.2689  -16.0691  -36.8877 N   0  0  0  0  0  0  0  0  0  0  0  0
    1.5852  -16.4607  -38.1290 C   0  0  0  0  0  0  0  0  0  0  0  0
    1.1260  -15.8636  -39.1358 O   0  0  0  0  0  0  0  0  0  0  0  0
    0.4042  -14.9663  -36.6340 C   0  0  0  0  0  0  0  0  0  0  0  0
   -0.9635  -15.0353  -36.8094 C   0  0  0  0  0  0  0  0  0  0  0  0
   -1.7914  -13.9617  -36.5599 C   0  0  0  0  0  0  0  0  0  0  0  0
   -1.2714  -12.7610  -36.1200 C   0  0  0  0  0  0  0  0  0  0  0  0
    0.0939  -12.6858  -35.9424 C   0  0  0  0  0  0  0  0  0  0  0  0
    0.9201  -13.7647  -36.1936 C   0  0  0  0  0  0  0  0  0  0  0  0
    3.8666  -19.3446  -37.5101 N   0  0  0  0  0  0  0  0  0  0  0  0
    5.2919  -19.2552  -37.2402 C   0  0  0  0  0  0  0  0  0  0  0  0
    6.1090  -19.4704  -38.4878 C   0  0  0  0  0  0  0  0  0  0  0  0
    5.4774  -20.5412  -39.2195 N   0  0  0  0  0  0  0  0  0  0  0  0
    4.6465  -21.4609  -38.4867 C   0  0  0  0  0  0  0  0  0  0  0  0
    3.4275  -20.6462  -38.0015 C   0  0  0  0  0  0  0  0  0  0  0  0
    5.6661  -20.6884  -40.6147 C   0  0  0  0  0  0  0  0  0  0  0  0
    5.6966  -19.7005  -41.5547 N   0  0  0  0  0  0  0  0  0  0  0  0
    5.8946  -20.2358  -42.7427 N   0  0  0  0  0  0  0  0  0  0  0  0
    5.9917  -21.5497  -42.5843 C   0  0  0  0  0  0  0  0  0  0  0  0
    5.8524  -21.7959  -41.3082 O   0  0  0  0  0  0  0  0  0  0  0  0
    6.2164  -22.6087  -43.6210 C   0  0  0  0  0  0  0  0  0  0  0  0
  1  2  1  0  0  0
  2  3  2  0  0  0
  2  7  1  0  0  0
  3  4  1  0  0  0
  3 15  1  0  0  0
  4  5  2  0  0  0
  5  6  1  0  0  0
  6  7  1  0  0  0
  6  9  1  0  0  0
  7  8  2  0  0  0
  9 10  2  0  0  0
  9 14  1  0  0  0
 10 11  1  0  0  0
 11 12  2  0  0  0
 12 13  1  0  0  0
 13 14  2  0  0  0
 15 16  1  0  0  0
 15 20  1  0  0  0
 16 17  1  0  0  0
 17 18  1  0  0  0
 18 19  1  0  0  0
 18 21  1  0  0  0
 19 20  1  0  0  0
 21 22  2  0  0  0
 21 25  1  0  0  0
 22 23  1  0  0  0
 23 24  2  0  0  0
 24 25  1  0  0  0
 24 26  1  0  0  0
M  END
> <minimizedAffinity>
-6.19049

$$$$
1594


 27 30  0  0  0  0  0  0  0  0999 V2000
    4.5109  -21.1217  -39.3325 C   0  0  0  0  0  0  0  0  0  0  0  0
    4.6234  -21.7951  -38.2427 O   0  0  0  0  0  0  0  0  0  0  0  0
    4.3446  -19.7567  -39.2006 N   0  0  0  0  0  0  0  0  0  0  0  0
    4.2104  -18.8499  -40.3152 C   0  0  0  0  0  0  0  0  0  0  0  0
    2.8092  -18.2805  -40.3839 C   0  0  0  0  0  0  0  0  0  0  0  0
    2.2997  -18.0417  -38.9913 C   0  0  0  0  0  0  0  0  0  0  0  0
    2.9552  -18.4056  -37.8471 C   0  0  0  0  0  0  0  0  0  0  0  0
    2.1524  -18.0061  -36.8270 N   0  0  0  0  0  0  0  0  0  0  0  0
    1.0642  -17.4302  -37.2852 N   0  0  0  0  0  0  0  0  0  0  0  0
    1.0957  -17.4211  -38.6237 C   0  0  0  0  0  0  0  0  0  0  0  0
    0.2287  -16.9537  -39.4302 O   0  0  0  0  0  0  0  0  0  0  0  0
    4.2781  -19.0936  -37.8755 C   0  0  0  0  0  0  0  0  0  0  0  0
    2.4136  -18.1613  -35.8233 H   0  0  0  0  0  0  0  0  0  0  0  0
    6.3545  -24.6688  -45.7973 Cl  0  0  0  0  0  0  0  0  0  0  0  0
    5.4670  -24.0271  -44.4275 C   0  0  0  0  0  0  0  0  0  0  0  0
    6.1061  -23.2919  -43.4553 C   0  0  0  0  0  0  0  0  0  0  0  0
    5.3851  -22.8089  -42.4056 N   0  0  0  0  0  0  0  0  0  0  0  0
    4.0724  -23.0565  -42.3386 C   0  0  0  0  0  0  0  0  0  0  0  0
    3.5817  -22.4854  -41.2271 N   0  0  0  0  0  0  0  0  0  0  0  0
    4.5690  -21.8699  -40.5764 C   0  0  0  0  0  0  0  0  0  0  0  0
    5.7305  -22.0791  -41.3366 C   0  0  0  0  0  0  0  0  0  0  0  0
    3.3938  -23.8039  -43.3169 C   0  0  0  0  0  0  0  0  0  0  0  0
    4.1091  -24.2886  -44.3678 C   0  0  0  0  0  0  0  0  0  0  0  0
   -0.0497  -16.8647  -36.5103 C   0  0  0  0  0  0  0  0  0  0  0  0
    0.1558  -15.3858  -36.2771 C   0  0  0  0  0  0  0  0  0  0  0  0
    1.4826  -15.0749  -36.0045 O   0  0  0  0  0  0  0  0  0  0  0  0
    1.5656  -14.3474  -35.3185 H   0  0  0  0  0  0  0  0  0  0  0  0
 14 15  1  0  0  0
 15 16  2  0  0  0
 15 23  1  0  0  0
 16 17  1  0  0  0
 17 18  1  0  0  0
 17 21  1  0  0  0
 18 19  2  0  0  0
 18 22  1  0  0  0
 19 20  1  0  0  0
 20 21  2  0  0  0
 20  1  1  0  0  0
  1  2  2  0  0  0
  1  3  1  0  0  0
  3  4  1  0  0  0
  3 12  1  0  0  0
  4  5  1  0  0  0
  5  6  1  0  0  0
  6  7  2  0  0  0
  6 10  1  0  0  0
  7  8  1  0  0  0
  7 12  1  0  0  0
  8  9  1  0  0  0
  9 10  1  0  0  0
  9 24  1  0  0  0
 10 11  2  0  0  0
 24 25  1  0  0  0
 25 26  1  0  0  0
 22 23  2  0  0  0
  8 13  1  0  0  0
 26 27  1  0  0  0
M  END
> <minimizedAffinity>
-5.75093

$$$$
1599


 30 33  0  0  0  0  0  0  0  0999 V2000
    1.9309  -17.9052  -37.5111 C   0  0  0  0  0  0  0  0  0  0  0  0
    2.7201  -17.4095  -36.6316 O   0  0  0  0  0  0  0  0  0  0  0  0
    2.0472  -19.2378  -37.9285 N   0  0  0  0  0  0  0  0  0  0  0  0
    1.1890  -19.8226  -38.9086 C   0  0  0  0  0  0  0  0  0  0  0  0
    1.9017  -20.8086  -39.7903 C   0  0  0  0  0  0  0  0  0  0  0  0
    3.4035  -20.6361  -39.8522 C   0  0  0  0  0  0  0  0  0  0  0  0
    3.8653  -21.8545  -40.5033 N   0  0  0  0  0  0  0  0  0  0  0  0
    5.2251  -21.8793  -40.8857 C   0  0  0  0  0  0  0  0  0  0  0  0
    5.9464  -20.5848  -40.9763 C   0  0  0  0  0  0  0  0  0  0  0  0
    5.0172  -19.4535  -41.2846 C   0  0  0  0  0  0  0  0  0  0  0  0
    5.1655  -18.3591  -42.0299 N   0  0  0  0  0  0  0  0  0  0  0  0
    3.9941  -17.6945  -41.9445 C   0  0  0  0  0  0  0  0  0  0  0  0
    3.1299  -18.3684  -41.1544 N   0  0  0  0  0  0  0  0  0  0  0  0
    3.7665  -19.4953  -40.7226 C   0  0  0  0  0  0  0  0  0  0  0  0
    4.0567  -20.4815  -38.5029 C   0  0  0  0  0  0  0  0  0  0  0  0
    3.0816  -20.1185  -37.3979 C   0  0  0  0  0  0  0  0  0  0  0  0
    3.6411  -22.6169  -39.8011 H   0  0  0  0  0  0  0  0  0  0  0  0
    2.1658  -18.0736  -40.9255 H   0  0  0  0  0  0  0  0  0  0  0  0
    0.8971  -16.9424  -38.0366 C   0  0  0  0  0  0  0  0  0  0  0  0
    1.2769  -14.4443  -37.0603 C   0  0  0  0  0  0  0  0  0  0  0  0
    0.7937  -13.9203  -35.9955 O   0  0  0  0  0  0  0  0  0  0  0  0
    1.0913  -15.6641  -37.5373 N   0  0  0  0  0  0  0  0  0  0  0  0
    0.2566  -15.9667  -36.4762 H   0  0  0  0  0  0  0  0  0  0  0  0
    3.6575  -13.1935  -41.6719 Br  0  0  0  0  0  0  0  0  0  0  0  0
    3.2959  -12.8657  -39.8492 C   0  0  0  0  0  0  0  0  0  0  0  0
    2.4507  -13.7188  -39.1561 C   0  0  0  0  0  0  0  0  0  0  0  0
    2.1644  -13.5056  -37.8338 C   0  0  0  0  0  0  0  0  0  0  0  0
    2.6867  -12.4586  -37.1354 C   0  0  0  0  0  0  0  0  0  0  0  0
    3.5409  -11.5939  -37.8268 C   0  0  0  0  0  0  0  0  0  0  0  0
    3.8330  -11.8059  -39.1611 C   0  0  0  0  0  0  0  0  0  0  0  0
 24 25  1  0  0  0
 25 26  2  0  0  0
 25 30  1  0  0  0
 26 27  1  0  0  0
 27 28  2  0  0  0
 27 20  1  0  0  0
 28 29  1  0  0  0
 29 30  2  0  0  0
 20 21  2  0  0  0
 20 22  1  0  0  0
 22 19  1  0  0  0
 19  1  1  0  0  0
  1  2  2  0  0  0
  1  3  1  0  0  0
  3  4  1  0  0  0
  3 16  1  0  0  0
  4  5  1  0  0  0
  5  6  1  0  0  0
  6  7  1  0  0  0
  6 14  1  0  0  0
  6 15  1  0  0  0
  7  8  1  0  0  0
  8  9  1  0  0  0
  9 10  1  0  0  0
 10 11  1  0  0  0
 10 14  2  0  0  0
 11 12  2  0  0  0
 12 13  1  0  0  0
 13 14  1  0  0  0
 15 16  1  0  0  0
 22 23  1  0  0  0
  7 17  1  0  0  0
 13 18  1  0  0  0
M  END
> <minimizedAffinity>
-7.07538

$$$$
1609


 26 29  0  0  0  0  0  0  0  0999 V2000
    0.0170  -15.9361  -37.4157 N   0  0  0  0  0  0  0  0  0  0  0  0
    0.1449  -16.5575  -38.7069 C   0  0  0  0  0  0  0  0  0  0  0  0
   -0.6865  -17.8112  -38.5216 C   0  0  0  0  0  0  0  0  0  0  0  0
   -0.2612  -18.2204  -37.2284 O   0  0  0  0  0  0  0  0  0  0  0  0
   -0.1889  -17.0115  -36.5067 C   0  0  0  0  0  0  0  0  0  0  0  0
   -0.2974  -16.9503  -35.2412 O   0  0  0  0  0  0  0  0  0  0  0  0
   -0.1463  -18.6329  -39.6346 C   0  0  0  0  0  0  0  0  0  0  0  0
    1.3092  -18.5235  -39.3844 N   0  0  0  0  0  0  0  0  0  0  0  0
    1.5304  -17.2083  -38.8681 C   0  0  0  0  0  0  0  0  0  0  0  0
    2.1626  -19.5970  -39.6546 C   0  0  0  0  0  0  0  0  0  0  0  0
    1.6758  -20.7060  -40.1237 O   0  0  0  0  0  0  0  0  0  0  0  0
    3.6008  -19.6210  -39.4623 C   0  0  0  0  0  0  0  0  0  0  0  0
    4.2674  -19.6615  -38.2770 N   0  0  0  0  0  0  0  0  0  0  0  0
    5.5748  -19.6779  -38.5251 C   0  0  0  0  0  0  0  0  0  0  0  0
    5.7652  -19.6489  -39.8456 N   0  0  0  0  0  0  0  0  0  0  0  0
    4.5515  -19.6141  -40.4398 C   0  0  0  0  0  0  0  0  0  0  0  0
    3.6405  -19.6820  -36.9813 C   0  0  0  0  0  0  0  0  0  0  0  0
    0.0720  -14.5490  -37.0157 C   0  0  0  0  0  0  0  0  0  0  0  0
    1.3902  -14.1454  -36.4136 C   0  0  0  0  0  0  0  0  0  0  0  0
    4.2667   -9.8484  -37.0998 Cl  0  0  0  0  0  0  0  0  0  0  0  0
    3.5316  -11.3305  -37.7180 C   0  0  0  0  0  0  0  0  0  0  0  0
    2.7858  -12.1228  -36.8785 C   0  0  0  0  0  0  0  0  0  0  0  0
    2.1898  -13.3002  -37.3306 C   0  0  0  0  0  0  0  0  0  0  0  0
    2.3899  -13.6209  -38.6581 C   0  0  0  0  0  0  0  0  0  0  0  0
    3.1417  -12.8168  -39.4953 C   0  0  0  0  0  0  0  0  0  0  0  0
    3.7290  -11.6541  -39.0434 C   0  0  0  0  0  0  0  0  0  0  0  0
 20 21  1  0  0  0
 21 22  2  0  0  0
 21 26  1  0  0  0
 22 23  1  0  0  0
 23 24  2  0  0  0
 23 19  1  0  0  0
 24 25  1  0  0  0
 25 26  2  0  0  0
 19 18  1  0  0  0
 18  1  1  0  0  0
  1  2  1  0  0  0
  1  5  1  0  0  0
  2  3  1  0  0  0
  2  9  1  0  0  0
  3  4  1  0  0  0
  3  7  1  0  0  0
  4  5  1  0  0  0
  5  6  2  0  0  0
  7  8  1  0  0  0
  8  9  1  0  0  0
  8 10  1  0  0  0
 10 11  2  0  0  0
 10 12  1  0  0  0
 12 13  1  0  0  0
 12 16  2  0  0  0
 13 14  1  0  0  0
 13 17  1  0  0  0
 14 15  2  0  0  0
 15 16  1  0  0  0
M  END
> <minimizedAffinity>
-6.43705

$$$$
1612


 31 34  0  0  0  0  0  0  0  0999 V2000
    2.1505  -19.4994  -38.3836 N   0  0  0  0  0  0  0  0  0  0  0  0
    3.3072  -19.9947  -38.8700 C   0  0  0  0  0  0  0  0  0  0  0  0
    2.9794  -20.8267  -39.9144 C   0  0  0  0  0  0  0  0  0  0  0  0
    1.6661  -20.8133  -40.0291 N   0  0  0  0  0  0  0  0  0  0  0  0
    1.1300  -19.9946  -39.0900 C   0  0  0  0  0  0  0  0  0  0  0  0
    3.9953  -21.4509  -40.5743 N   0  0  0  0  0  0  0  0  0  0  0  0
    5.2753  -21.2696  -40.2291 C   0  0  0  0  0  0  0  0  0  0  0  0
    6.1804  -21.8701  -40.8728 O   0  0  0  0  0  0  0  0  0  0  0  0
    5.6378  -20.4682  -39.2193 N   0  0  0  0  0  0  0  0  0  0  0  0
    4.6497  -19.8339  -38.5444 C   0  0  0  0  0  0  0  0  0  0  0  0
    4.9825  -19.0833  -37.6011 O   0  0  0  0  0  0  0  0  0  0  0  0
    3.6684  -22.3350  -41.6907 C   0  0  0  0  0  0  0  0  0  0  0  0
    6.6488  -20.3545  -38.9834 H   0  0  0  0  0  0  0  0  0  0  0  0
   -0.2704  -19.6985  -38.9783 N   0  0  0  0  0  0  0  0  0  0  0  0
   -1.0038  -20.2672  -37.8291 C   0  0  0  0  0  0  0  0  0  0  0  0
   -1.6808  -19.2069  -37.0220 C   0  0  0  0  0  0  0  0  0  0  0  0
   -1.9208  -18.0207  -37.8110 N   0  0  0  0  0  0  0  0  0  0  0  0
   -2.1910  -18.2037  -39.2218 C   0  0  0  0  0  0  0  0  0  0  0  0
   -1.0088  -18.8915  -39.8817 C   0  0  0  0  0  0  0  0  0  0  0  0
   -1.8990  -16.7313  -37.2147 C   0  0  0  0  0  0  0  0  0  0  0  0
   -1.6847  -16.6046  -35.9895 O   0  0  0  0  0  0  0  0  0  0  0  0
   -2.1266  -15.5072  -38.0190 C   0  0  0  0  0  0  0  0  0  0  0  0
   -2.1738  -14.3312  -37.0470 C   0  0  0  0  0  0  0  0  0  0  0  0
    2.1021  -18.5515  -37.3167 C   0  0  0  0  0  0  0  0  0  0  0  0
    1.2626  -13.5899  -36.0390 Cl  0  0  0  0  0  0  0  0  0  0  0  0
    1.5045  -14.8488  -37.2493 C   0  0  0  0  0  0  0  0  0  0  0  0
    1.7193  -16.1437  -36.7950 C   0  0  0  0  0  0  0  0  0  0  0  0
    1.9123  -17.1361  -37.7136 C   0  0  0  0  0  0  0  0  0  0  0  0
    1.8870  -16.8115  -39.0841 C   0  0  0  0  0  0  0  0  0  0  0  0
    1.6733  -15.5295  -39.5022 C   0  0  0  0  0  0  0  0  0  0  0  0
    1.4767  -14.5121  -38.5846 C   0  0  0  0  0  0  0  0  0  0  0  0
 25 26  1  0  0  0
 26 27  2  0  0  0
 26 31  1  0  0  0
 27 28  1  0  0  0
 28 29  2  0  0  0
 28 24  1  0  0  0
 29 30  1  0  0  0
 30 31  2  0  0  0
 24  1  1  0  0  0
  1  2  1  0  0  0
  1  5  1  0  0  0
  2  3  2  0  0  0
  2 10  1  0  0  0
  3  4  1  0  0  0
  3  6  1  0  0  0
  4  5  2  0  0  0
  5 14  1  0  0  0
 14 15  1  0  0  0
 14 19  1  0  0  0
 15 16  1  0  0  0
 16 17  1  0  0  0
 17 18  1  0  0  0
 17 20  1  0  0  0
 18 19  1  0  0  0
 20 21  2  0  0  0
 20 22  1  0  0  0
 22 23  1  0  0  0
  6  7  1  0  0  0
  6 12  1  0  0  0
  7  8  2  0  0  0
  7  9  1  0  0  0
  9 10  1  0  0  0
 10 11  2  0  0  0
  9 13  1  0  0  0
M  END
> <minimizedAffinity>
-6.28886

$$$$
1622


 28 31  0  0  0  0  0  0  0  0999 V2000
    0.9470  -17.5172  -38.1722 C   0  0  0  0  0  0  0  0  0  0  0  0
   -0.0510  -17.7224  -38.9098 O   0  0  0  0  0  0  0  0  0  0  0  0
    1.8365  -18.5576  -37.7907 N   0  0  0  0  0  0  0  0  0  0  0  0
    1.5833  -19.8987  -38.2700 C   0  0  0  0  0  0  0  0  0  0  0  0
    2.9216  -20.6131  -38.3080 C   0  0  0  0  0  0  0  0  0  0  0  0
    4.0493  -19.6820  -38.6962 C   0  0  0  0  0  0  0  0  0  0  0  0
    5.2198  -20.4998  -38.9175 N   0  0  0  0  0  0  0  0  0  0  0  0
    5.2007  -20.9506  -40.2635 C   0  0  0  0  0  0  0  0  0  0  0  0
    5.8229  -21.9378  -40.7678 O   0  0  0  0  0  0  0  0  0  0  0  0
    4.3262  -20.0599  -40.9625 N   0  0  0  0  0  0  0  0  0  0  0  0
    3.8303  -19.0888  -40.0400 C   0  0  0  0  0  0  0  0  0  0  0  0
    3.3217  -17.9762  -40.3460 O   0  0  0  0  0  0  0  0  0  0  0  0
    3.9667  -20.0934  -42.3821 C   0  0  0  0  0  0  0  0  0  0  0  0
    4.2795  -18.6106  -37.6718 C   0  0  0  0  0  0  0  0  0  0  0  0
    2.9927  -18.3627  -36.9459 C   0  0  0  0  0  0  0  0  0  0  0  0
    5.9374  -20.7083  -38.1982 H   0  0  0  0  0  0  0  0  0  0  0  0
   -0.3980  -16.8285  -35.5998 Cl  0  0  0  0  0  0  0  0  0  0  0  0
    0.5718  -15.6942  -36.5496 C   0  0  0  0  0  0  0  0  0  0  0  0
    1.1424  -16.1351  -37.7238 C   0  0  0  0  0  0  0  0  0  0  0  0
    1.8997  -15.2615  -38.4728 C   0  0  0  0  0  0  0  0  0  0  0  0
    2.0938  -13.9585  -38.0659 C   0  0  0  0  0  0  0  0  0  0  0  0
    1.5007  -13.5589  -36.8791 C   0  0  0  0  0  0  0  0  0  0  0  0
    0.7378  -14.3993  -36.1028 C   0  0  0  0  0  0  0  0  0  0  0  0
    2.8739  -13.0356  -38.8243 N   0  0  0  0  0  0  0  0  0  0  0  0
    3.4780  -11.9467  -38.4164 N   0  0  0  0  0  0  0  0  0  0  0  0
    4.1159  -11.3546  -39.4680 C   0  0  0  0  0  0  0  0  0  0  0  0
    3.8922  -12.1232  -40.5888 C   0  0  0  0  0  0  0  0  0  0  0  0
    3.0988  -13.1834  -40.1414 C   0  0  0  0  0  0  0  0  0  0  0  0
 17 18  1  0  0  0
 18 19  2  0  0  0
 18 23  1  0  0  0
 19 20  1  0  0  0
 19  1  1  0  0  0
 20 21  2  0  0  0
 21 22  1  0  0  0
 21 24  1  0  0  0
 22 23  2  0  0  0
 24 25  1  0  0  0
 24 28  1  0  0  0
 25 26  2  0  0  0
 26 27  1  0  0  0
 27 28  2  0  0  0
  1  2  2  0  0  0
  1  3  1  0  0  0
  3  4  1  0  0  0
  3 15  1  0  0  0
  4  5  1  0  0  0
  5  6  1  0  0  0
  6  7  1  0  0  0
  6 11  1  0  0  0
  6 14  1  0  0  0
  7  8  1  0  0  0
  8  9  2  0  0  0
  8 10  1  0  0  0
 10 11  1  0  0  0
 10 13  1  0  0  0
 11 12  2  0  0  0
 14 15  1  0  0  0
  7 16  1  0  0  0
M  END
> <minimizedAffinity>
-6.99280

$$$$
1624


 32 35  0  0  0  0  0  0  0  0999 V2000
    0.9515  -16.6562  -36.9940 C   0  0  0  0  0  0  0  0  0  0  0  0
   -0.1806  -16.9733  -37.8837 N   0  0  0  0  0  0  0  0  0  0  0  0
    0.3425  -17.3516  -39.1501 C   0  0  0  0  0  0  0  0  0  0  0  0
   -0.2440  -17.3451  -40.2343 O   0  0  0  0  0  0  0  0  0  0  0  0
    1.7434  -17.7657  -38.9384 C   0  0  0  0  0  0  0  0  0  0  0  0
    2.5786  -18.1733  -39.8083 O   0  0  0  0  0  0  0  0  0  0  0  0
    1.9863  -17.6094  -37.5136 C   0  0  0  0  0  0  0  0  0  0  0  0
    2.9635  -18.1930  -36.8654 C   0  0  0  0  0  0  0  0  0  0  0  0
    3.1035  -17.9164  -35.5086 O   0  0  0  0  0  0  0  0  0  0  0  0
    2.4495  -10.8772  -37.5824 Cl  0  0  0  0  0  0  0  0  0  0  0  0
    2.0297  -12.5616  -37.4399 C   0  0  0  0  0  0  0  0  0  0  0  0
    2.2779  -13.4473  -38.4466 C   0  0  0  0  0  0  0  0  0  0  0  0
    1.9226  -14.7782  -38.2822 C   0  0  0  0  0  0  0  0  0  0  0  0
    1.3303  -15.2586  -37.1584 C   0  0  0  0  0  0  0  0  0  0  0  0
    1.0782  -14.3496  -36.1311 C   0  0  0  0  0  0  0  0  0  0  0  0
    1.4214  -13.0242  -36.2707 C   0  0  0  0  0  0  0  0  0  0  0  0
    3.9333  -19.1228  -37.4345 C   0  0  0  0  0  0  0  0  0  0  0  0
    3.4604  -20.3956  -37.7328 C   0  0  0  0  0  0  0  0  0  0  0  0
    4.3063  -21.3111  -38.2924 C   0  0  0  0  0  0  0  0  0  0  0  0
    5.6235  -20.9971  -38.5667 C   0  0  0  0  0  0  0  0  0  0  0  0
    6.0872  -19.7335  -38.2691 C   0  0  0  0  0  0  0  0  0  0  0  0
    5.2231  -18.8171  -37.7049 C   0  0  0  0  0  0  0  0  0  0  0  0
    6.6592  -22.1916  -39.2762 Cl  0  0  0  0  0  0  0  0  0  0  0  0
   -1.5436  -16.8881  -37.4251 C   0  0  0  0  0  0  0  0  0  0  0  0
   -1.9672  -17.9261  -36.4572 C   0  0  0  0  0  0  0  0  0  0  0  0
   -2.4553  -19.1612  -36.9477 N   0  0  0  0  0  0  0  0  0  0  0  0
   -1.4184  -20.1096  -37.2954 C   0  0  0  0  0  0  0  0  0  0  0  0
   -1.5059  -20.6102  -38.7172 C   0  0  0  0  0  0  0  0  0  0  0  0
   -2.7512  -21.0341  -39.1028 O   0  0  0  0  0  0  0  0  0  0  0  0
   -3.7652  -20.1583  -38.7630 C   0  0  0  0  0  0  0  0  0  0  0  0
   -3.1689  -18.8971  -38.2150 C   0  0  0  0  0  0  0  0  0  0  0  0
   -3.1766  -19.5902  -36.3450 H   0  0  0  0  0  0  0  0  0  0  0  0
 10 11  1  0  0  0
 11 12  2  0  0  0
 11 16  1  0  0  0
 12 13  1  0  0  0
 13 14  2  0  0  0
 14 15  1  0  0  0
 14  1  1  0  0  0
 15 16  2  0  0  0
  1  2  1  0  0  0
  1  7  1  0  0  0
  2  3  1  0  0  0
  2 24  1  0  0  0
  3  4  2  0  0  0
  3  5  1  0  0  0
  5  6  2  0  0  0
  5  7  1  0  0  0
  7  8  2  0  0  0
  8  9  1  0  0  0
  8 17  1  0  0  0
 17 18  2  0  0  0
 17 22  1  0  0  0
 18 19  1  0  0  0
 19 20  2  0  0  0
 20 21  1  0  0  0
 20 23  1  0  0  0
 21 22  2  0  0  0
 24 25  1  0  0  0
 25 26  1  0  0  0
 26 27  1  0  0  0
 26 31  1  0  0  0
 27 28  1  0  0  0
 28 29  1  0  0  0
 29 30  1  0  0  0
 30 31  1  0  0  0
 26 32  1  0  0  0
M  CHG 1   9  -1
M  CHG 1  26   1
M  END
> <minimizedAffinity>
-7.32219

$$$$
1630


 39 43  0  0  0  0  0  0  0  0999 V2000
    3.5208  -12.0173  -39.9588 Cl  0  0  0  0  0  0  0  0  0  0  0  0
    2.6059  -13.4116  -39.3650 C   0  0  0  0  0  0  0  0  0  0  0  0
    2.3195  -13.5270  -38.0266 C   0  0  0  0  0  0  0  0  0  0  0  0
    1.6014  -14.6194  -37.5582 C   0  0  0  0  0  0  0  0  0  0  0  0
    1.1452  -15.6216  -38.3706 C   0  0  0  0  0  0  0  0  0  0  0  0
    1.4516  -15.4772  -39.7328 C   0  0  0  0  0  0  0  0  0  0  0  0
    2.1633  -14.3978  -40.2081 C   0  0  0  0  0  0  0  0  0  0  0  0
    0.4375  -16.6092  -37.5723 C   0  0  0  0  0  0  0  0  0  0  0  0
   -0.9519  -16.6351  -38.0210 N   0  0  0  0  0  0  0  0  0  0  0  0
   -1.0189  -17.8383  -38.8045 C   0  0  0  0  0  0  0  0  0  0  0  0
   -0.2585  -18.8178  -37.9396 C   0  0  0  0  0  0  0  0  0  0  0  0
    0.9726  -17.9979  -37.6201 C   0  0  0  0  0  0  0  0  0  0  0  0
    1.9085  -18.3167  -38.6792 C   0  0  0  0  0  0  0  0  0  0  0  0
    2.9413  -17.6799  -38.9832 O   0  0  0  0  0  0  0  0  0  0  0  0
    1.4728  -19.4933  -39.3462 N   0  0  0  0  0  0  0  0  0  0  0  0
    0.2673  -19.9561  -38.7348 C   0  0  0  0  0  0  0  0  0  0  0  0
   -0.2905  -21.0766  -38.8095 O   0  0  0  0  0  0  0  0  0  0  0  0
    0.5017  -16.0981  -36.1825 C   0  0  0  0  0  0  0  0  0  0  0  0
    0.0139  -16.6238  -35.1385 O   0  0  0  0  0  0  0  0  0  0  0  0
    1.2219  -14.8863  -36.2137 N   0  0  0  0  0  0  0  0  0  0  0  0
    2.7950  -12.4618  -37.1009 C   0  0  0  0  0  0  0  0  0  0  0  0
   -1.1668  -15.7616  -38.5471 H   0  0  0  0  0  0  0  0  0  0  0  0
    1.4332  -14.2901  -35.3689 H   0  0  0  0  0  0  0  0  0  0  0  0
    2.0851  -20.1835  -40.4658 C   0  0  0  0  0  0  0  0  0  0  0  0
    3.4426  -20.6625  -40.1498 C   0  0  0  0  0  0  0  0  0  0  0  0
    4.3923  -20.6132  -41.1477 C   0  0  0  0  0  0  0  0  0  0  0  0
    5.6688  -21.0662  -40.8439 C   0  0  0  0  0  0  0  0  0  0  0  0
    5.9815  -21.5448  -39.6029 C   0  0  0  0  0  0  0  0  0  0  0  0
    5.0066  -21.5767  -38.6341 C   0  0  0  0  0  0  0  0  0  0  0  0
    3.7214  -21.1424  -38.8734 C   0  0  0  0  0  0  0  0  0  0  0  0
    4.0537  -20.1260  -42.3926 O   0  0  0  0  0  0  0  0  0  0  0  0
    4.9581  -19.6303  -43.3289 C   0  0  0  0  0  0  0  0  0  0  0  0
   -2.4497  -18.2722  -39.0320 C   0  0  0  0  0  0  0  0  0  0  0  0
   -3.3033  -17.4890  -38.0568 C   0  0  0  0  0  0  0  0  0  0  0  0
   -3.6064  -18.2758  -36.8356 C   0  0  0  0  0  0  0  0  0  0  0  0
   -4.6253  -19.0234  -36.8164 O   0  0  0  0  0  0  0  0  0  0  0  0
   -2.7168  -18.1422  -35.7359 N   0  0  0  0  0  0  0  0  0  0  0  0
   -1.7071  -18.0422  -35.9335 H   0  0  0  0  0  0  0  0  0  0  0  0
   -3.1413  -18.1539  -34.7742 H   0  0  0  0  0  0  0  0  0  0  0  0
  1  2  1  0  0  0
  2  3  2  0  0  0
  2  7  1  0  0  0
  3  4  1  0  0  0
  3 21  1  0  0  0
  4  5  2  0  0  0
  4 20  1  0  0  0
  5  6  1  0  0  0
  5  8  1  0  0  0
  6  7  2  0  0  0
  8  9  1  0  0  0
  8 12  1  0  0  0
  8 18  1  0  0  0
  9 10  1  0  0  0
 10 11  1  0  0  0
 10 33  1  0  0  0
 11 12  1  0  0  0
 11 16  1  0  0  0
 12 13  1  0  0  0
 13 14  2  0  0  0
 13 15  1  0  0  0
 15 16  1  0  0  0
 15 24  1  0  0  0
 16 17  2  0  0  0
 24 25  1  0  0  0
 25 26  2  0  0  0
 25 30  1  0  0  0
 26 27  1  0  0  0
 26 31  1  0  0  0
 27 28  2  0  0  0
 28 29  1  0  0  0
 29 30  2  0  0  0
 31 32  1  0  0  0
 33 34  1  0  0  0
 34 35  1  0  0  0
 35 36  2  0  0  0
 35 37  1  0  0  0
 18 19  2  0  0  0
 18 20  1  0  0  0
  9 22  1  0  0  0
 37 38  1  0  0  0
 37 39  1  0  0  0
 20 23  1  0  0  0
M  END
> <minimizedAffinity>
-6.75051

$$$$
1631


 29 32  0  0  0  0  0  0  0  0999 V2000
    0.8610  -17.3352  -37.0999 C   0  0  0  0  0  0  0  0  0  0  0  0
   -0.2555  -17.6975  -37.9256 N   0  0  0  0  0  0  0  0  0  0  0  0
    0.1913  -18.2226  -39.1716 C   0  0  0  0  0  0  0  0  0  0  0  0
   -0.4885  -18.3809  -40.2269 O   0  0  0  0  0  0  0  0  0  0  0  0
    1.6223  -18.5621  -39.0256 C   0  0  0  0  0  0  0  0  0  0  0  0
    2.3430  -19.0454  -39.9277 O   0  0  0  0  0  0  0  0  0  0  0  0
    1.9550  -18.2077  -37.6521 C   0  0  0  0  0  0  0  0  0  0  0  0
    3.0616  -18.5817  -37.0458 C   0  0  0  0  0  0  0  0  0  0  0  0
    3.2601  -18.1129  -35.7309 O   0  0  0  0  0  0  0  0  0  0  0  0
    2.9022  -13.3591  -39.8434 Cl  0  0  0  0  0  0  0  0  0  0  0  0
    2.1563  -14.0185  -38.4043 C   0  0  0  0  0  0  0  0  0  0  0  0
    1.8118  -15.3451  -38.2981 C   0  0  0  0  0  0  0  0  0  0  0  0
    1.2165  -15.8956  -37.1702 C   0  0  0  0  0  0  0  0  0  0  0  0
    0.9693  -15.0318  -36.1078 C   0  0  0  0  0  0  0  0  0  0  0  0
    1.3038  -13.6989  -36.1874 C   0  0  0  0  0  0  0  0  0  0  0  0
    1.8935  -13.1980  -37.3293 C   0  0  0  0  0  0  0  0  0  0  0  0
   -1.6146  -17.5567  -37.5704 C   0  0  0  0  0  0  0  0  0  0  0  0
   -2.3307  -16.6618  -38.3013 N   0  0  0  0  0  0  0  0  0  0  0  0
   -3.6227  -16.4381  -38.0654 C   0  0  0  0  0  0  0  0  0  0  0  0
   -4.2288  -17.1443  -37.0519 C   0  0  0  0  0  0  0  0  0  0  0  0
   -3.4830  -18.0477  -36.3245 C   0  0  0  0  0  0  0  0  0  0  0  0
   -2.1789  -18.2660  -36.5684 N   0  0  0  0  0  0  0  0  0  0  0  0
   -1.8741  -16.1173  -39.0840 H   0  0  0  0  0  0  0  0  0  0  0  0
    4.0763  -19.4415  -37.6393 C   0  0  0  0  0  0  0  0  0  0  0  0
    5.3620  -18.9333  -37.8735 C   0  0  0  0  0  0  0  0  0  0  0  0
    6.3499  -19.7317  -38.4068 C   0  0  0  0  0  0  0  0  0  0  0  0
    6.1327  -21.0540  -38.7332 C   0  0  0  0  0  0  0  0  0  0  0  0
    4.8773  -21.5725  -38.5100 C   0  0  0  0  0  0  0  0  0  0  0  0
    3.8777  -20.7619  -37.9702 C   0  0  0  0  0  0  0  0  0  0  0  0
 10 11  1  0  0  0
 11 12  2  0  0  0
 11 16  1  0  0  0
 12 13  1  0  0  0
 13 14  2  0  0  0
 13  1  1  0  0  0
 14 15  1  0  0  0
 15 16  2  0  0  0
  1  2  1  0  0  0
  1  7  1  0  0  0
  2  3  1  0  0  0
  2 17  1  0  0  0
  3  4  2  0  0  0
  3  5  1  0  0  0
  5  6  2  0  0  0
  5  7  1  0  0  0
  7  8  2  0  0  0
  8  9  1  0  0  0
  8 24  1  0  0  0
 24 25  2  0  0  0
 24 29  1  0  0  0
 25 26  1  0  0  0
 26 27  2  0  0  0
 27 28  1  0  0  0
 28 29  2  0  0  0
 17 18  2  0  0  0
 17 22  1  0  0  0
 18 19  1  0  0  0
 19 20  2  0  0  0
 20 21  1  0  0  0
 21 22  2  0  0  0
 18 23  1  0  0  0
M  CHG 1   9  -1
M  END
> <minimizedAffinity>
-7.77207

$$$$
1637


 29 32  0  0  0  0  0  0  0  0999 V2000
   -2.3092  -17.5864  -36.7175 C   0  0  0  0  0  0  0  0  0  0  0  0
   -1.6923  -17.8800  -37.8677 N   0  0  0  0  0  0  0  0  0  0  0  0
   -0.3723  -17.9077  -38.0258 C   0  0  0  0  0  0  0  0  0  0  0  0
    0.4124  -17.5968  -36.9036 C   0  0  0  0  0  0  0  0  0  0  0  0
   -0.2151  -17.3015  -35.7457 C   0  0  0  0  0  0  0  0  0  0  0  0
   -1.5749  -17.3009  -35.6578 N   0  0  0  0  0  0  0  0  0  0  0  0
    0.5578  -17.0070  -34.6323 O   0  0  0  0  0  0  0  0  0  0  0  0
    1.8513  -17.5023  -37.1628 C   0  0  0  0  0  0  0  0  0  0  0  0
    1.9817  -16.6435  -38.2993 N   0  0  0  0  0  0  0  0  0  0  0  0
    1.6678  -17.5835  -39.4646 C   0  0  0  0  0  0  0  0  0  0  0  0
    0.3297  -18.2133  -39.3002 C   0  0  0  0  0  0  0  0  0  0  0  0
    1.4395  -17.4790  -34.4077 H   0  0  0  0  0  0  0  0  0  0  0  0
   -4.0803  -17.4967  -36.7112 S   0  0  0  0  0  0  0  0  0  0  0  0
   -4.5634  -16.1415  -36.5656 O   0  0  0  0  0  0  0  0  0  0  0  0
   -4.5461  -18.3827  -35.5953 O   0  0  0  0  0  0  0  0  0  0  0  0
   -4.6032  -18.2689  -38.2623 C   0  0  0  0  0  0  0  0  0  0  0  0
    0.9016  -15.6120  -38.5050 C   0  0  0  0  0  0  0  0  0  0  0  0
    1.7405  -14.3457  -38.3125 C   0  0  0  0  0  0  0  0  0  0  0  0
    2.4924  -13.7521  -39.2498 C   0  0  0  0  0  0  0  0  0  0  0  0
    3.2542  -12.5733  -39.0264 C   0  0  0  0  0  0  0  0  0  0  0  0
    3.1571  -12.0604  -37.7295 C   0  0  0  0  0  0  0  0  0  0  0  0
    3.8674  -10.9286  -37.4556 C   0  0  0  0  0  0  0  0  0  0  0  0
    4.6836  -10.2551  -38.3913 C   0  0  0  0  0  0  0  0  0  0  0  0
    4.7443  -10.8065  -39.6842 C   0  0  0  0  0  0  0  0  0  0  0  0
    4.0278  -11.9415  -39.9397 C   0  0  0  0  0  0  0  0  0  0  0  0
    2.4277  -12.6175  -36.8252 O   0  0  0  0  0  0  0  0  0  0  0  0
    1.7205  -13.7331  -37.0617 C   0  0  0  0  0  0  0  0  0  0  0  0
    1.0037  -14.2856  -36.1417 O   0  0  0  0  0  0  0  0  0  0  0  0
    2.4928  -14.4236  -40.8453 Cl  0  0  0  0  0  0  0  0  0  0  0  0
 13 14  2  0  0  0
 13 15  2  0  0  0
 13 16  1  0  0  0
 13  1  1  0  0  0
  1  2  2  0  0  0
  1  6  1  0  0  0
  2  3  1  0  0  0
  3  4  2  0  0  0
  3 11  1  0  0  0
  4  5  1  0  0  0
  4  8  1  0  0  0
  5  6  2  0  0  0
  5  7  1  0  0  0
  8  9  1  0  0  0
  9 10  1  0  0  0
  9 17  1  0  0  0
 10 11  1  0  0  0
 17 18  1  0  0  0
 18 19  2  0  0  0
 18 27  1  0  0  0
 19 20  1  0  0  0
 19 29  1  0  0  0
 20 21  2  0  0  0
 20 25  1  0  0  0
 21 22  1  0  0  0
 21 26  1  0  0  0
 22 23  2  0  0  0
 23 24  1  0  0  0
 24 25  2  0  0  0
 26 27  1  0  0  0
 27 28  2  0  0  0
  7 12  1  0  0  0
M  END
> <minimizedAffinity>
-6.66266

$$$$
1638


 38 41  0  0  0  0  0  0  0  0999 V2000
    3.6513  -20.1835  -39.3080 C   0  0  0  0  0  0  0  0  0  0  0  0
    4.1415  -19.3380  -38.3215 C   0  0  0  0  0  0  0  0  0  0  0  0
    3.2896  -18.5085  -37.6606 N   0  0  0  0  0  0  0  0  0  0  0  0
    1.9755  -18.4647  -37.9181 C   0  0  0  0  0  0  0  0  0  0  0  0
    1.4946  -19.2803  -38.8727 N   0  0  0  0  0  0  0  0  0  0  0  0
    2.2964  -20.1175  -39.5524 C   0  0  0  0  0  0  0  0  0  0  0  0
    5.5216  -19.3885  -38.0544 N   0  0  0  0  0  0  0  0  0  0  0  0
    6.1556  -18.5671  -38.1363 H   0  0  0  0  0  0  0  0  0  0  0  0
    5.9468  -20.2908  -37.7572 H   0  0  0  0  0  0  0  0  0  0  0  0
    1.0833  -17.5978  -37.2213 N   0  0  0  0  0  0  0  0  0  0  0  0
    1.5032  -16.8134  -36.0857 C   0  0  0  0  0  0  0  0  0  0  0  0
    1.2295  -15.3407  -36.2147 C   0  0  0  0  0  0  0  0  0  0  0  0
    0.0826  -15.0510  -37.1689 C   0  0  0  0  0  0  0  0  0  0  0  0
   -0.8618  -16.2487  -36.9691 C   0  0  0  0  0  0  0  0  0  0  0  0
   -0.3049  -17.4674  -37.6257 C   0  0  0  0  0  0  0  0  0  0  0  0
    0.4330  -14.9704  -38.5055 N   0  0  0  0  0  0  0  0  0  0  0  0
    1.6737  -14.4447  -38.9240 C   0  0  0  0  0  0  0  0  0  0  0  0
    2.0759  -15.1923  -40.2066 C   0  0  0  0  0  0  0  0  0  0  0  0
    0.8223  -15.7313  -40.8404 C   0  0  0  0  0  0  0  0  0  0  0  0
   -0.3320  -14.7658  -40.7505 C   0  0  0  0  0  0  0  0  0  0  0  0
   -0.5793  -14.3446  -39.3114 C   0  0  0  0  0  0  0  0  0  0  0  0
   -0.6497  -13.8732  -36.6504 C   0  0  0  0  0  0  0  0  0  0  0  0
   -1.9237  -13.8855  -36.5599 O   0  0  0  0  0  0  0  0  0  0  0  0
   -0.0193  -12.6956  -36.2336 N   0  0  0  0  0  0  0  0  0  0  0  0
   -0.0741  -11.8502  -36.8651 H   0  0  0  0  0  0  0  0  0  0  0  0
    0.5049  -12.5499  -35.3479 H   0  0  0  0  0  0  0  0  0  0  0  0
    4.7084  -21.2706  -40.1844 S   0  0  0  0  0  0  0  0  0  0  0  0
    5.7543  -21.8617  -39.2963 O   0  0  0  0  0  0  0  0  0  0  0  0
    3.8425  -22.3305  -40.8166 O   0  0  0  0  0  0  0  0  0  0  0  0
    5.4645  -20.3474  -41.4916 C   0  0  0  0  0  0  0  0  0  0  0  0
    6.4028  -20.9466  -42.3071 C   0  0  0  0  0  0  0  0  0  0  0  0
    6.9656  -20.1895  -43.3129 C   0  0  0  0  0  0  0  0  0  0  0  0
    6.6091  -18.8597  -43.5124 C   0  0  0  0  0  0  0  0  0  0  0  0
    5.6680  -18.2975  -42.6773 C   0  0  0  0  0  0  0  0  0  0  0  0
    5.0869  -19.0291  -41.6617 C   0  0  0  0  0  0  0  0  0  0  0  0
    5.2027  -16.6077  -42.9163 Cl  0  0  0  0  0  0  0  0  0  0  0  0
    6.7286  -22.2549  -42.0803 O   0  0  0  0  0  0  0  0  0  0  0  0
    6.9665  -23.2160  -43.0705 C   0  0  0  0  0  0  0  0  0  0  0  0
 27 28  2  0  0  0
 27 29  2  0  0  0
 27  1  1  0  0  0
 27 30  1  0  0  0
  1  2  2  0  0  0
  1  6  1  0  0  0
  2  3  1  0  0  0
  2  7  1  0  0  0
  3  4  2  0  0  0
  4  5  1  0  0  0
  4 10  1  0  0  0
  5  6  2  0  0  0
 10 11  1  0  0  0
 10 15  1  0  0  0
 11 12  1  0  0  0
 12 13  1  0  0  0
 13 14  1  0  0  0
 13 16  1  0  0  0
 13 22  1  0  0  0
 14 15  1  0  0  0
 16 17  1  0  0  0
 16 21  1  0  0  0
 17 18  1  0  0  0
 18 19  1  0  0  0
 19 20  1  0  0  0
 20 21  1  0  0  0
 22 23  2  0  0  0
 22 24  1  0  0  0
 30 31  2  0  0  0
 30 35  1  0  0  0
 31 32  1  0  0  0
 31 37  1  0  0  0
 32 33  2  0  0  0
 33 34  1  0  0  0
 34 35  2  0  0  0
 34 36  1  0  0  0
 37 38  1  0  0  0
 24 25  1  0  0  0
 24 26  1  0  0  0
  7  8  1  0  0  0
  7  9  1  0  0  0
M  END
> <minimizedAffinity>
-5.78180

$$$$
1651


 23 26  0  0  0  0  0  0  0  0999 V2000
    1.4999  -13.5923  -36.0927 Cl  0  0  0  0  0  0  0  0  0  0  0  0
    0.9325  -15.1989  -36.5569 C   0  0  0  0  0  0  0  0  0  0  0  0
    1.6596  -16.0065  -37.3967 C   0  0  0  0  0  0  0  0  0  0  0  0
    1.1871  -17.2796  -37.7509 C   0  0  0  0  0  0  0  0  0  0  0  0
   -0.0021  -17.7557  -37.2763 C   0  0  0  0  0  0  0  0  0  0  0  0
   -0.7528  -16.9345  -36.4153 C   0  0  0  0  0  0  0  0  0  0  0  0
   -0.2613  -15.6943  -36.0894 C   0  0  0  0  0  0  0  0  0  0  0  0
   -0.2880  -19.0593  -37.7567 N   0  0  0  0  0  0  0  0  0  0  0  0
    0.7972  -19.4254  -38.5910 C   0  0  0  0  0  0  0  0  0  0  0  0
    0.8779  -20.5350  -39.1947 O   0  0  0  0  0  0  0  0  0  0  0  0
    1.7801  -18.3201  -38.6258 C   0  0  0  0  0  0  0  0  0  0  0  0
    1.8620  -17.8547  -40.0643 C   0  0  0  0  0  0  0  0  0  0  0  0
    2.5759  -18.9577  -40.7916 C   0  0  0  0  0  0  0  0  0  0  0  0
    2.1195  -19.5117  -41.8084 O   0  0  0  0  0  0  0  0  0  0  0  0
    3.8402  -19.3567  -40.2485 N   0  0  0  0  0  0  0  0  0  0  0  0
    4.0754  -19.2223  -38.8530 C   0  0  0  0  0  0  0  0  0  0  0  0
    5.1483  -19.4996  -38.0635 N   0  0  0  0  0  0  0  0  0  0  0  0
    4.8424  -19.1791  -36.8298 N   0  0  0  0  0  0  0  0  0  0  0  0
    3.5940  -18.6920  -36.7532 C   0  0  0  0  0  0  0  0  0  0  0  0
    3.0812  -18.7135  -38.0564 C   0  0  0  0  0  0  0  0  0  0  0  0
   -1.4793  -19.8535  -37.4405 C   0  0  0  0  0  0  0  0  0  0  0  0
    4.5915  -19.7442  -40.8606 H   0  0  0  0  0  0  0  0  0  0  0  0
    6.0405  -19.8999  -38.4358 H   0  0  0  0  0  0  0  0  0  0  0  0
  1  2  1  0  0  0
  2  3  2  0  0  0
  2  7  1  0  0  0
  3  4  1  0  0  0
  4  5  2  0  0  0
  4 11  1  0  0  0
  5  6  1  0  0  0
  5  8  1  0  0  0
  6  7  2  0  0  0
  8  9  1  0  0  0
  8 21  1  0  0  0
  9 10  2  0  0  0
  9 11  1  0  0  0
 11 12  1  0  0  0
 11 20  1  0  0  0
 12 13  1  0  0  0
 13 14  2  0  0  0
 13 15  1  0  0  0
 15 16  1  0  0  0
 16 17  1  0  0  0
 16 20  2  0  0  0
 17 18  1  0  0  0
 18 19  2  0  0  0
 19 20  1  0  0  0
 15 22  1  0  0  0
 17 23  1  0  0  0
M  END
> <minimizedAffinity>
-6.37779

$$$$
1657


 33 36  0  0  0  0  0  0  0  0999 V2000
    3.5179   -9.2359  -38.0651 Cl  0  0  0  0  0  0  0  0  0  0  0  0
    3.1120  -10.9319  -38.3578 C   0  0  0  0  0  0  0  0  0  0  0  0
    2.4534  -11.6636  -37.3933 C   0  0  0  0  0  0  0  0  0  0  0  0
    2.1416  -12.9643  -37.6222 C   0  0  0  0  0  0  0  0  0  0  0  0
    2.4868  -13.5737  -38.8361 C   0  0  0  0  0  0  0  0  0  0  0  0
    3.1436  -12.8250  -39.7831 C   0  0  0  0  0  0  0  0  0  0  0  0
    3.4694  -11.4926  -39.5656 C   0  0  0  0  0  0  0  0  0  0  0  0
    2.1622  -14.9377  -39.0840 N   0  0  0  0  0  0  0  0  0  0  0  0
    1.0255  -15.5274  -38.3928 C   0  0  0  0  0  0  0  0  0  0  0  0
    1.1672  -15.1724  -37.0000 N   0  0  0  0  0  0  0  0  0  0  0  0
    1.4467  -13.8227  -36.6657 C   0  0  0  0  0  0  0  0  0  0  0  0
    1.1231  -13.3061  -35.5651 O   0  0  0  0  0  0  0  0  0  0  0  0
    1.0886  -17.0089  -38.5569 C   0  0  0  0  0  0  0  0  0  0  0  0
    0.4252  -17.5017  -39.8224 C   0  0  0  0  0  0  0  0  0  0  0  0
    0.8330  -16.7369  -40.9824 N   0  0  0  0  0  0  0  0  0  0  0  0
    0.5905  -15.3144  -41.1154 C   0  0  0  0  0  0  0  0  0  0  0  0
    1.1274  -14.7730  -42.1090 O   0  0  0  0  0  0  0  0  0  0  0  0
   -0.1894  -14.4025  -40.2626 C   0  0  0  0  0  0  0  0  0  0  0  0
   -0.2796  -14.9113  -38.8550 C   0  0  0  0  0  0  0  0  0  0  0  0
    2.7652  -15.4526  -39.7588 H   0  0  0  0  0  0  0  0  0  0  0  0
    1.0740  -15.8580  -36.2250 H   0  0  0  0  0  0  0  0  0  0  0  0
    1.5189  -17.3445  -42.0488 C   0  0  0  0  0  0  0  0  0  0  0  0
    2.9155  -17.7065  -41.9632 C   0  0  0  0  0  0  0  0  0  0  0  0
    3.6984  -16.6783  -42.2926 O   0  0  0  0  0  0  0  0  0  0  0  0
    3.5243  -18.8890  -41.6080 N   0  0  0  0  0  0  0  0  0  0  0  0
    5.0087  -18.9532  -41.6187 C   0  0  0  0  0  0  0  0  0  0  0  0
    5.3599  -19.6586  -40.2991 C   0  0  0  0  0  0  0  0  0  0  0  0
    4.3007  -19.5497  -39.3528 N   0  0  0  0  0  0  0  0  0  0  0  0
    3.1027  -20.2683  -39.6698 C   0  0  0  0  0  0  0  0  0  0  0  0
    2.9005  -20.0860  -41.2008 C   0  0  0  0  0  0  0  0  0  0  0  0
    4.6778  -19.5933  -37.9809 C   0  0  0  0  0  0  0  0  0  0  0  0
    6.0845  -19.0959  -37.7184 C   0  0  0  0  0  0  0  0  0  0  0  0
    3.7218  -18.8720  -37.0703 C   0  0  0  0  0  0  0  0  0  0  0  0
  1  2  1  0  0  0
  2  3  2  0  0  0
  2  7  1  0  0  0
  3  4  1  0  0  0
  4  5  2  0  0  0
  4 11  1  0  0  0
  5  6  1  0  0  0
  5  8  1  0  0  0
  6  7  2  0  0  0
  8  9  1  0  0  0
  9 10  1  0  0  0
  9 13  1  0  0  0
  9 19  1  0  0  0
 10 11  1  0  0  0
 11 12  2  0  0  0
 13 14  1  0  0  0
 14 15  1  0  0  0
 15 16  1  0  0  0
 15 22  1  0  0  0
 16 17  2  0  0  0
 16 18  1  0  0  0
 18 19  1  0  0  0
 22 23  1  0  0  0
 23 24  2  0  0  0
 23 25  1  0  0  0
 25 26  1  0  0  0
 25 30  1  0  0  0
 26 27  1  0  0  0
 27 28  1  0  0  0
 28 29  1  0  0  0
 28 31  1  0  0  0
 29 30  1  0  0  0
 31 32  1  0  0  0
 31 33  1  0  0  0
  8 20  1  0  0  0
 10 21  1  0  0  0
M  END
> <minimizedAffinity>
-6.28331

$$$$
1660


 31 34  0  0  0  0  0  0  0  0999 V2000
    3.7315  -22.2207  -41.2472 N   0  0  0  0  0  0  0  0  0  0  0  0
    2.7235  -22.8672  -41.7673 N   0  0  0  0  0  0  0  0  0  0  0  0
    3.0797  -23.6221  -42.8122 C   0  0  0  0  0  0  0  0  0  0  0  0
    4.4463  -23.4466  -42.9832 C   0  0  0  0  0  0  0  0  0  0  0  0
    4.8177  -22.5580  -41.9793 C   0  0  0  0  0  0  0  0  0  0  0  0
    6.1095  -22.2212  -41.9358 N   0  0  0  0  0  0  0  0  0  0  0  0
    7.0029  -22.7190  -42.8187 C   0  0  0  0  0  0  0  0  0  0  0  0
    6.6747  -23.5772  -43.7972 N   0  0  0  0  0  0  0  0  0  0  0  0
    5.3689  -23.9430  -43.8742 C   0  0  0  0  0  0  0  0  0  0  0  0
    5.0141  -24.7437  -44.7751 O   0  0  0  0  0  0  0  0  0  0  0  0
    3.3040  -18.4100  -36.6643 Cl  0  0  0  0  0  0  0  0  0  0  0  0
    3.4800  -19.5408  -37.9674 C   0  0  0  0  0  0  0  0  0  0  0  0
    4.3358  -20.6184  -37.9412 C   0  0  0  0  0  0  0  0  0  0  0  0
    4.4583  -21.5104  -38.9886 C   0  0  0  0  0  0  0  0  0  0  0  0
    3.7108  -21.3511  -40.1265 C   0  0  0  0  0  0  0  0  0  0  0  0
    2.8544  -20.2630  -40.1410 C   0  0  0  0  0  0  0  0  0  0  0  0
    2.7176  -19.3626  -39.1071 C   0  0  0  0  0  0  0  0  0  0  0  0
    7.6428  -24.1315  -44.7486 C   0  0  0  0  0  0  0  0  0  0  0  0
    8.3958  -25.2618  -44.1770 C   0  0  0  0  0  0  0  0  0  0  0  0
    7.7199  -26.0058  -43.3821 O   0  0  0  0  0  0  0  0  0  0  0  0
    9.7290  -25.5886  -44.4131 N   0  0  0  0  0  0  0  0  0  0  0  0
   10.3685  -26.7172  -43.7188 C   0  0  0  0  0  0  0  0  0  0  0  0
   11.4452  -26.0589  -42.8457 C   0  0  0  0  0  0  0  0  0  0  0  0
   12.2744  -25.1927  -43.6416 N   0  0  0  0  0  0  0  0  0  0  0  0
   12.0163  -25.1452  -45.0686 C   0  0  0  0  0  0  0  0  0  0  0  0
   10.5616  -24.8805  -45.3598 C   0  0  0  0  0  0  0  0  0  0  0  0
   13.2848  -24.3989  -43.0561 C   0  0  0  0  0  0  0  0  0  0  0  0
   13.4141  -24.4531  -41.7769 O   0  0  0  0  0  0  0  0  0  0  0  0
   14.1552  -23.5666  -43.7230 O   0  0  0  0  0  0  0  0  0  0  0  0
   14.1957  -22.1560  -43.4333 C   0  0  0  0  0  0  0  0  0  0  0  0
   12.9136  -21.5713  -43.9985 C   0  0  0  0  0  0  0  0  0  0  0  0
 11 12  1  0  0  0
 12 13  2  0  0  0
 12 17  1  0  0  0
 13 14  1  0  0  0
 14 15  2  0  0  0
 15 16  1  0  0  0
 15  1  1  0  0  0
 16 17  2  0  0  0
  1  2  1  0  0  0
  1  5  1  0  0  0
  2  3  2  0  0  0
  3  4  1  0  0  0
  4  5  2  0  0  0
  4  9  1  0  0  0
  5  6  1  0  0  0
  6  7  2  0  0  0
  7  8  1  0  0  0
  8  9  1  0  0  0
  8 18  1  0  0  0
  9 10  2  0  0  0
 18 19  1  0  0  0
 19 20  2  0  0  0
 19 21  1  0  0  0
 21 22  1  0  0  0
 21 26  1  0  0  0
 22 23  1  0  0  0
 23 24  1  0  0  0
 24 25  1  0  0  0
 24 27  1  0  0  0
 25 26  1  0  0  0
 27 28  2  0  0  0
 27 29  1  0  0  0
 29 30  1  0  0  0
 30 31  1  0  0  0
M  END
> <minimizedAffinity>
-6.40874

$$$$
1666


 30 34  0  0  0  0  0  0  0  0999 V2000
    0.8840  -15.2003  -36.3488 N   0  0  0  0  0  0  0  0  0  0  0  0
   -0.3319  -15.9512  -36.1784 C   0  0  0  0  0  0  0  0  0  0  0  0
   -0.2893  -17.2604  -36.9325 C   0  0  0  0  0  0  0  0  0  0  0  0
    0.0282  -17.0130  -38.3614 N   0  0  0  0  0  0  0  0  0  0  0  0
    1.3725  -16.4571  -38.4202 C   0  0  0  0  0  0  0  0  0  0  0  0
    1.8651  -15.9433  -37.0786 C   0  0  0  0  0  0  0  0  0  0  0  0
    0.7200  -13.5658  -36.6967 S   0  0  0  0  0  0  0  0  0  0  0  0
   -0.6339  -13.3630  -37.3649 O   0  0  0  0  0  0  0  0  0  0  0  0
    0.5848  -12.8211  -35.3678 O   0  0  0  0  0  0  0  0  0  0  0  0
    1.9879  -12.8124  -37.5764 C   0  0  0  0  0  0  0  0  0  0  0  0
    2.0521  -12.9139  -38.9449 C   0  0  0  0  0  0  0  0  0  0  0  0
    3.0823  -12.2850  -39.6208 C   0  0  0  0  0  0  0  0  0  0  0  0
    4.0594  -11.5529  -38.9712 C   0  0  0  0  0  0  0  0  0  0  0  0
    3.9906  -11.4536  -37.5974 C   0  0  0  0  0  0  0  0  0  0  0  0
    2.9548  -12.0859  -36.9188 C   0  0  0  0  0  0  0  0  0  0  0  0
    5.4811  -10.6873  -39.9010 Br  0  0  0  0  0  0  0  0  0  0  0  0
    0.0260  -18.3363  -38.9472 C   0  0  0  0  0  0  0  0  0  0  0  0
    0.6328  -19.4306  -38.1770 C   0  0  0  0  0  0  0  0  0  0  0  0
    1.9336  -19.8991  -38.5159 N   0  0  0  0  0  0  0  0  0  0  0  0
    3.1588  -19.8428  -37.7943 C   0  0  0  0  0  0  0  0  0  0  0  0
    3.4419  -19.0037  -36.9268 O   0  0  0  0  0  0  0  0  0  0  0  0
    4.0343  -20.9485  -38.2520 C   0  0  0  0  0  0  0  0  0  0  0  0
    3.5545  -21.0959  -39.7141 C   0  0  0  0  0  0  0  0  0  0  0  0
    4.5412  -20.3530  -40.5337 C   0  0  0  0  0  0  0  0  0  0  0  0
    5.1260  -19.3597  -39.5154 C   0  0  0  0  0  0  0  0  0  0  0  0
    5.4183  -20.4522  -38.4719 C   0  0  0  0  0  0  0  0  0  0  0  0
    6.0986  -21.4507  -39.3631 C   0  0  0  0  0  0  0  0  0  0  0  0
    5.7631  -21.2418  -40.6362 C   0  0  0  0  0  0  0  0  0  0  0  0
    2.1832  -20.6082  -39.7498 C   0  0  0  0  0  0  0  0  0  0  0  0
    1.3848  -20.7899  -40.7029 O   0  0  0  0  0  0  0  0  0  0  0  0
  7  8  2  0  0  0
  7  9  2  0  0  0
  7  1  1  0  0  0
  7 10  1  0  0  0
  1  2  1  0  0  0
  1  6  1  0  0  0
  2  3  1  0  0  0
  3  4  1  0  0  0
  4  5  1  0  0  0
  4 17  1  0  0  0
  5  6  1  0  0  0
 17 18  1  0  0  0
 18 19  1  0  0  0
 19 20  1  0  0  0
 19 29  1  0  0  0
 20 21  2  0  0  0
 20 22  1  0  0  0
 22 23  1  0  0  0
 22 26  1  0  0  0
 23 24  1  0  0  0
 23 29  1  0  0  0
 24 25  1  0  0  0
 24 28  1  0  0  0
 25 26  1  0  0  0
 26 27  1  0  0  0
 27 28  2  0  0  0
 29 30  2  0  0  0
 10 11  2  0  0  0
 10 15  1  0  0  0
 11 12  1  0  0  0
 12 13  2  0  0  0
 13 14  1  0  0  0
 13 16  1  0  0  0
 14 15  2  0  0  0
M  END
> <minimizedAffinity>
-7.34698

$$$$
1673


 35 38  0  0  0  0  0  0  0  0999 V2000
    0.4867  -16.8042  -37.3896 C   0  0  0  0  0  0  0  0  0  0  0  0
    0.7585  -18.2437  -37.7349 C   0  0  0  0  0  0  0  0  0  0  0  0
   -0.3423  -18.7074  -38.4548 N   0  0  0  0  0  0  0  0  0  0  0  0
   -1.4686  -18.0736  -37.7274 C   0  0  0  0  0  0  0  0  0  0  0  0
   -2.6247  -18.5461  -37.5568 O   0  0  0  0  0  0  0  0  0  0  0  0
   -0.9861  -16.7896  -37.2449 C   0  0  0  0  0  0  0  0  0  0  0  0
   -1.7073  -15.8561  -36.7917 O   0  0  0  0  0  0  0  0  0  0  0  0
    2.1401  -18.5879  -37.9584 C   0  0  0  0  0  0  0  0  0  0  0  0
    2.6953  -18.9009  -39.1589 C   0  0  0  0  0  0  0  0  0  0  0  0
    4.0441  -19.1999  -39.2713 C   0  0  0  0  0  0  0  0  0  0  0  0
    4.8470  -19.1795  -38.1208 C   0  0  0  0  0  0  0  0  0  0  0  0
    4.2875  -18.8650  -36.9155 C   0  0  0  0  0  0  0  0  0  0  0  0
    2.9644  -18.5703  -36.8070 C   0  0  0  0  0  0  0  0  0  0  0  0
    6.1956  -19.4702  -38.1771 O   0  0  0  0  0  0  0  0  0  0  0  0
    4.6283  -19.5136  -40.4563 O   0  0  0  0  0  0  0  0  0  0  0  0
    4.4102  -20.7005  -41.1474 C   0  0  0  0  0  0  0  0  0  0  0  0
    5.4220  -21.7871  -40.8299 C   0  0  0  0  0  0  0  0  0  0  0  0
    0.9303  -15.8355  -38.3920 C   0  0  0  0  0  0  0  0  0  0  0  0
    0.6781  -16.0485  -39.6284 O   0  0  0  0  0  0  0  0  0  0  0  0
    3.9722  -10.5356  -37.4297 Br  0  0  0  0  0  0  0  0  0  0  0  0
    3.0333  -12.1923  -37.7298 C   0  0  0  0  0  0  0  0  0  0  0  0
    2.3670  -12.8272  -36.7139 C   0  0  0  0  0  0  0  0  0  0  0  0
    1.6752  -14.0229  -36.8761 C   0  0  0  0  0  0  0  0  0  0  0  0
    1.6561  -14.6019  -38.1248 C   0  0  0  0  0  0  0  0  0  0  0  0
    2.3335  -13.9503  -39.1441 C   0  0  0  0  0  0  0  0  0  0  0  0
    3.0177  -12.7685  -38.9826 C   0  0  0  0  0  0  0  0  0  0  0  0
   -0.7032  -19.6195  -39.4947 C   0  0  0  0  0  0  0  0  0  0  0  0
   -0.9843  -21.0204  -39.1024 C   0  0  0  0  0  0  0  0  0  0  0  0
   -2.2843  -21.4926  -38.8806 N   0  0  0  0  0  0  0  0  0  0  0  0
   -3.2141  -21.1374  -39.9607 C   0  0  0  0  0  0  0  0  0  0  0  0
   -2.8466  -21.7577  -41.2667 C   0  0  0  0  0  0  0  0  0  0  0  0
   -1.8263  -22.6626  -41.0816 O   0  0  0  0  0  0  0  0  0  0  0  0
   -2.2457  -23.5875  -40.1110 C   0  0  0  0  0  0  0  0  0  0  0  0
   -2.2628  -22.9590  -38.7336 C   0  0  0  0  0  0  0  0  0  0  0  0
   -2.6931  -21.1343  -38.0211 H   0  0  0  0  0  0  0  0  0  0  0  0
 20 21  1  0  0  0
 21 22  2  0  0  0
 21 26  1  0  0  0
 22 23  1  0  0  0
 23 24  2  0  0  0
 24 25  1  0  0  0
 24 18  1  0  0  0
 25 26  2  0  0  0
 18 19  2  0  0  0
 18  1  1  0  0  0
  1  2  1  0  0  0
  1  6  1  0  0  0
  2  3  1  0  0  0
  2  8  1  0  0  0
  3  4  1  0  0  0
  3 27  1  0  0  0
  4  5  2  0  0  0
  4  6  1  0  0  0
  6  7  2  0  0  0
 27 28  1  0  0  0
 28 29  1  0  0  0
 29 30  1  0  0  0
 29 34  1  0  0  0
 30 31  1  0  0  0
 31 32  1  0  0  0
 32 33  1  0  0  0
 33 34  1  0  0  0
  8  9  2  0  0  0
  8 13  1  0  0  0
  9 10  1  0  0  0
 10 11  2  0  0  0
 10 15  1  0  0  0
 11 12  1  0  0  0
 11 14  1  0  0  0
 12 13  2  0  0  0
 15 16  1  0  0  0
 16 17  1  0  0  0
 29 35  1  0  0  0
M  CHG 1  14  -1
M  CHG 1  29   1
M  END
> <minimizedAffinity>
-6.39600

$$$$
1676


 25 28  0  0  0  0  0  0  0  0999 V2000
    2.1349  -13.9352  -38.4044 C   0  0  0  0  0  0  0  0  0  0  0  0
    1.6825  -13.5813  -37.2987 O   0  0  0  0  0  0  0  0  0  0  0  0
    1.8707  -15.2509  -38.8616 N   0  0  0  0  0  0  0  0  0  0  0  0
    2.2400  -15.5575  -39.7764 H   0  0  0  0  0  0  0  0  0  0  0  0
    3.8899  -12.3016  -43.1575 Br  0  0  0  0  0  0  0  0  0  0  0  0
    3.7513  -12.1694  -41.2554 C   0  0  0  0  0  0  0  0  0  0  0  0
    4.3945  -11.1581  -40.5745 C   0  0  0  0  0  0  0  0  0  0  0  0
    4.3075  -11.0449  -39.2064 C   0  0  0  0  0  0  0  0  0  0  0  0
    4.8167  -10.1802  -38.2962 N   0  0  0  0  0  0  0  0  0  0  0  0
    4.3947  -10.5645  -37.1054 N   0  0  0  0  0  0  0  0  0  0  0  0
    3.6420  -11.6265  -37.1835 N   0  0  0  0  0  0  0  0  0  0  0  0
    3.5650  -11.9594  -38.5002 C   0  0  0  0  0  0  0  0  0  0  0  0
    2.9176  -12.9777  -39.1781 C   0  0  0  0  0  0  0  0  0  0  0  0
    3.0087  -13.0857  -40.5579 C   0  0  0  0  0  0  0  0  0  0  0  0
    3.1521  -12.1837  -36.4539 H   0  0  0  0  0  0  0  0  0  0  0  0
    1.0939  -16.1767  -38.0744 C   0  0  0  0  0  0  0  0  0  0  0  0
    2.0004  -17.2651  -37.5674 C   0  0  0  0  0  0  0  0  0  0  0  0
    2.5316  -18.2724  -38.2787 N   0  0  0  0  0  0  0  0  0  0  0  0
    3.2971  -19.0596  -37.4927 C   0  0  0  0  0  0  0  0  0  0  0  0
    3.2371  -18.5251  -36.2668 N   0  0  0  0  0  0  0  0  0  0  0  0
    2.4515  -17.4381  -36.3094 N   0  0  0  0  0  0  0  0  0  0  0  0
    3.9504  -20.2207  -38.1570 C   0  0  0  0  0  0  0  0  0  0  0  0
    4.7148  -19.6117  -39.3414 C   0  0  0  0  0  0  0  0  0  0  0  0
    3.8398  -18.7836  -40.2243 C   0  0  0  0  0  0  0  0  0  0  0  0
    2.4375  -18.6515  -39.6709 C   0  0  0  0  0  0  0  0  0  0  0  0
  5  6  1  0  0  0
  6  7  2  0  0  0
  6 14  1  0  0  0
  7  8  1  0  0  0
  8  9  1  0  0  0
  8 12  2  0  0  0
  9 10  2  0  0  0
 10 11  1  0  0  0
 11 12  1  0  0  0
 12 13  1  0  0  0
 13 14  2  0  0  0
 13  1  1  0  0  0
  1  2  2  0  0  0
  1  3  1  0  0  0
  3 16  1  0  0  0
 16 17  1  0  0  0
 17 18  1  0  0  0
 17 21  2  0  0  0
 18 19  1  0  0  0
 18 25  1  0  0  0
 19 20  2  0  0  0
 19 22  1  0  0  0
 20 21  1  0  0  0
 22 23  1  0  0  0
 23 24  1  0  0  0
 24 25  1  0  0  0
 11 15  1  0  0  0
  3  4  1  0  0  0
M  END
> <minimizedAffinity>
-5.98497

$$$$
1687


 27 30  0  0  0  0  0  0  0  0999 V2000
    1.3206  -17.3680  -36.7804 N   0  0  0  0  0  0  0  0  0  0  0  0
    2.6308  -17.7013  -36.8038 C   0  0  0  0  0  0  0  0  0  0  0  0
    3.1010  -18.7767  -37.5248 C   0  0  0  0  0  0  0  0  0  0  0  0
    2.1670  -19.5906  -38.2930 C   0  0  0  0  0  0  0  0  0  0  0  0
    2.8986  -20.5478  -38.8808 N   0  0  0  0  0  0  0  0  0  0  0  0
    4.1936  -20.4105  -38.5557 N   0  0  0  0  0  0  0  0  0  0  0  0
    4.3343  -19.3521  -37.7425 C   0  0  0  0  0  0  0  0  0  0  0  0
    5.4289  -18.9711  -37.2693 O   0  0  0  0  0  0  0  0  0  0  0  0
    0.8331  -19.2212  -38.2460 C   0  0  0  0  0  0  0  0  0  0  0  0
    0.4833  -18.1330  -37.4955 C   0  0  0  0  0  0  0  0  0  0  0  0
    4.9359  -21.0629  -38.9146 H   0  0  0  0  0  0  0  0  0  0  0  0
   -0.1313  -20.0121  -39.0023 C   0  0  0  0  0  0  0  0  0  0  0  0
   -0.3422  -19.7277  -40.2085 O   0  0  0  0  0  0  0  0  0  0  0  0
   -0.8130  -21.0546  -38.4328 O   0  0  0  0  0  0  0  0  0  0  0  0
   -1.8583  -21.7235  -39.1199 C   0  0  0  0  0  0  0  0  0  0  0  0
    0.8571  -16.2222  -36.0058 C   0  0  0  0  0  0  0  0  0  0  0  0
    0.3175  -15.1929  -36.9747 C   0  0  0  0  0  0  0  0  0  0  0  0
    4.5161  -12.3100  -41.7995 Cl  0  0  0  0  0  0  0  0  0  0  0  0
    3.5344  -12.8819  -40.4511 C   0  0  0  0  0  0  0  0  0  0  0  0
    3.5620  -12.2716  -39.2148 C   0  0  0  0  0  0  0  0  0  0  0  0
    2.7716  -12.7626  -38.1949 C   0  0  0  0  0  0  0  0  0  0  0  0
    2.5837  -12.3893  -36.8998 N   0  0  0  0  0  0  0  0  0  0  0  0
    1.6893  -13.2172  -36.3319 C   0  0  0  0  0  0  0  0  0  0  0  0
    1.2763  -14.1387  -37.2276 N   0  0  0  0  0  0  0  0  0  0  0  0
    1.9419  -13.8534  -38.3610 C   0  0  0  0  0  0  0  0  0  0  0  0
    1.9067  -14.4685  -39.5906 C   0  0  0  0  0  0  0  0  0  0  0  0
    2.7000  -13.9723  -40.6052 C   0  0  0  0  0  0  0  0  0  0  0  0
 18 19  1  0  0  0
 19 20  2  0  0  0
 19 27  1  0  0  0
 20 21  1  0  0  0
 21 22  1  0  0  0
 21 25  2  0  0  0
 22 23  2  0  0  0
 23 24  1  0  0  0
 24 25  1  0  0  0
 24 17  1  0  0  0
 25 26  1  0  0  0
 26 27  2  0  0  0
 17 16  1  0  0  0
 16  1  1  0  0  0
  1  2  1  0  0  0
  1 10  1  0  0  0
  2  3  2  0  0  0
  3  4  1  0  0  0
  3  7  1  0  0  0
  4  5  2  0  0  0
  4  9  1  0  0  0
  5  6  1  0  0  0
  6  7  1  0  0  0
  7  8  2  0  0  0
  9 10  2  0  0  0
  9 12  1  0  0  0
 12 13  2  0  0  0
 12 14  1  0  0  0
 14 15  1  0  0  0
  6 11  1  0  0  0
M  END
> <minimizedAffinity>
-6.26844

$$$$
1689


 32 35  0  0  0  0  0  0  0  0999 V2000
   -2.0459  -17.6666  -36.5391 C   0  0  0  0  0  0  0  0  0  0  0  0
   -2.7742  -18.0557  -35.5935 O   0  0  0  0  0  0  0  0  0  0  0  0
   -1.8228  -18.5455  -37.6199 N   0  0  0  0  0  0  0  0  0  0  0  0
   -1.0354  -18.3818  -38.8245 C   0  0  0  0  0  0  0  0  0  0  0  0
   -0.4083  -19.6915  -39.0022 C   0  0  0  0  0  0  0  0  0  0  0  0
   -1.0979  -20.6585  -38.0371 C   0  0  0  0  0  0  0  0  0  0  0  0
   -2.3863  -19.8655  -37.7322 C   0  0  0  0  0  0  0  0  0  0  0  0
   -1.3928  -21.8714  -38.6075 O   0  0  0  0  0  0  0  0  0  0  0  0
   -2.2984  -21.8150  -39.0035 H   0  0  0  0  0  0  0  0  0  0  0  0
    0.9935  -19.8512  -38.9792 N   0  0  0  0  0  0  0  0  0  0  0  0
    1.6695  -19.3097  -37.9300 C   0  0  0  0  0  0  0  0  0  0  0  0
    3.0374  -19.4137  -37.8148 C   0  0  0  0  0  0  0  0  0  0  0  0
    3.7648  -20.0797  -38.7732 C   0  0  0  0  0  0  0  0  0  0  0  0
    5.0251  -20.1904  -38.6917 O   0  0  0  0  0  0  0  0  0  0  0  0
    3.0981  -20.6141  -39.8077 N   0  0  0  0  0  0  0  0  0  0  0  0
    1.7708  -20.4811  -39.8657 C   0  0  0  0  0  0  0  0  0  0  0  0
    1.2026  -20.9997  -40.8482 O   0  0  0  0  0  0  0  0  0  0  0  0
    3.7682  -18.8122  -36.6515 C   0  0  0  0  0  0  0  0  0  0  0  0
    3.6384  -21.1341  -40.5664 H   0  0  0  0  0  0  0  0  0  0  0  0
   -1.4637  -16.3106  -36.4629 C   0  0  0  0  0  0  0  0  0  0  0  0
   -0.0368  -16.3782  -36.0103 C   0  0  0  0  0  0  0  0  0  0  0  0
    4.3195  -10.3810  -37.9649 Cl  0  0  0  0  0  0  0  0  0  0  0  0
    3.3934  -11.8591  -38.0665 C   0  0  0  0  0  0  0  0  0  0  0  0
    2.7825  -12.3754  -36.9315 C   0  0  0  0  0  0  0  0  0  0  0  0
    2.0431  -13.5445  -36.9952 C   0  0  0  0  0  0  0  0  0  0  0  0
    1.3548  -14.2763  -36.1053 N   0  0  0  0  0  0  0  0  0  0  0  0
    0.7942  -15.3687  -36.6934 C   0  0  0  0  0  0  0  0  0  0  0  0
    1.1685  -15.2817  -37.9976 N   0  0  0  0  0  0  0  0  0  0  0  0
    1.9204  -14.1924  -38.2006 C   0  0  0  0  0  0  0  0  0  0  0  0
    2.5292  -13.6751  -39.3239 C   0  0  0  0  0  0  0  0  0  0  0  0
    3.2731  -12.5049  -39.2777 C   0  0  0  0  0  0  0  0  0  0  0  0
    1.2913  -13.9937  -35.0959 H   0  0  0  0  0  0  0  0  0  0  0  0
 22 23  1  0  0  0
 23 24  2  0  0  0
 23 31  1  0  0  0
 24 25  1  0  0  0
 25 26  1  0  0  0
 25 29  2  0  0  0
 26 27  1  0  0  0
 27 28  2  0  0  0
 27 21  1  0  0  0
 28 29  1  0  0  0
 29 30  1  0  0  0
 30 31  2  0  0  0
 21 20  1  0  0  0
 20  1  1  0  0  0
  1  2  2  0  0  0
  1  3  1  0  0  0
  3  4  1  0  0  0
  3  7  1  0  0  0
  4  5  1  0  0  0
  5  6  1  0  0  0
  5 10  1  0  0  0
  6  7  1  0  0  0
  6  8  1  0  0  0
 10 11  1  0  0  0
 10 16  1  0  0  0
 11 12  2  0  0  0
 12 13  1  0  0  0
 12 18  1  0  0  0
 13 14  2  0  0  0
 13 15  1  0  0  0
 15 16  1  0  0  0
 16 17  2  0  0  0
 26 32  1  0  0  0
  8  9  1  0  0  0
 15 19  1  0  0  0
M  END
> <minimizedAffinity>
-7.47913

$$$$
1690


 34 37  0  0  0  0  0  0  0  0999 V2000
    5.9031  -21.8287  -42.9714 C   0  0  0  0  0  0  0  0  0  0  0  0
    5.9395  -21.1754  -44.0453 O   0  0  0  0  0  0  0  0  0  0  0  0
    5.9695  -21.1670  -41.7090 N   0  0  0  0  0  0  0  0  0  0  0  0
    5.9341  -21.8515  -40.4359 C   0  0  0  0  0  0  0  0  0  0  0  0
    5.1420  -21.0270  -39.4067 C   0  0  0  0  0  0  0  0  0  0  0  0
    4.1814  -20.1946  -40.1846 C   0  0  0  0  0  0  0  0  0  0  0  0
    4.9383  -19.1013  -40.9033 C   0  0  0  0  0  0  0  0  0  0  0  0
    6.0784  -19.7240  -41.6823 C   0  0  0  0  0  0  0  0  0  0  0  0
    4.4967  -21.9741  -38.5978 O   0  0  0  0  0  0  0  0  0  0  0  0
    6.1429  -20.2648  -38.5971 C   0  0  0  0  0  0  0  0  0  0  0  0
    5.1001  -22.2035  -37.8206 H   0  0  0  0  0  0  0  0  0  0  0  0
    3.0444  -19.7237  -39.4755 N   0  0  0  0  0  0  0  0  0  0  0  0
    3.1029  -18.8037  -38.5014 C   0  0  0  0  0  0  0  0  0  0  0  0
    1.9686  -18.3667  -37.8289 C   0  0  0  0  0  0  0  0  0  0  0  0
    0.7448  -18.8929  -38.1715 C   0  0  0  0  0  0  0  0  0  0  0  0
   -0.2958  -18.4961  -37.5598 O   0  0  0  0  0  0  0  0  0  0  0  0
    0.6892  -19.8127  -39.1450 N   0  0  0  0  0  0  0  0  0  0  0  0
    1.8159  -20.2019  -39.7661 C   0  0  0  0  0  0  0  0  0  0  0  0
    1.7582  -21.0815  -40.6961 O   0  0  0  0  0  0  0  0  0  0  0  0
    2.0973  -17.3316  -36.7460 C   0  0  0  0  0  0  0  0  0  0  0  0
   -0.2312  -20.2181  -39.4139 H   0  0  0  0  0  0  0  0  0  0  0  0
    5.7933  -23.2976  -42.9879 C   0  0  0  0  0  0  0  0  0  0  0  0
    6.3978  -23.8312  -44.2545 C   0  0  0  0  0  0  0  0  0  0  0  0
   12.2144  -28.8393  -44.2686 Cl  0  0  0  0  0  0  0  0  0  0  0  0
   11.0305  -27.6671  -43.7374 C   0  0  0  0  0  0  0  0  0  0  0  0
   10.1018  -27.1093  -44.5987 C   0  0  0  0  0  0  0  0  0  0  0  0
    9.1747  -26.1886  -44.1718 C   0  0  0  0  0  0  0  0  0  0  0  0
    8.1936  -25.5165  -44.7879 N   0  0  0  0  0  0  0  0  0  0  0  0
    7.5439  -24.7056  -43.9085 C   0  0  0  0  0  0  0  0  0  0  0  0
    8.1541  -24.9031  -42.7496 N   0  0  0  0  0  0  0  0  0  0  0  0
    9.1473  -25.7904  -42.8579 C   0  0  0  0  0  0  0  0  0  0  0  0
   10.0615  -26.3307  -41.9811 C   0  0  0  0  0  0  0  0  0  0  0  0
   10.9970  -27.2618  -42.4150 C   0  0  0  0  0  0  0  0  0  0  0  0
    7.9329  -25.5820  -45.8099 H   0  0  0  0  0  0  0  0  0  0  0  0
 24 25  1  0  0  0
 25 26  2  0  0  0
 25 33  1  0  0  0
 26 27  1  0  0  0
 27 28  1  0  0  0
 27 31  2  0  0  0
 28 29  1  0  0  0
 29 30  2  0  0  0
 29 23  1  0  0  0
 30 31  1  0  0  0
 31 32  1  0  0  0
 32 33  2  0  0  0
 23 22  1  0  0  0
 22  1  1  0  0  0
  1  2  2  0  0  0
  1  3  1  0  0  0
  3  4  1  0  0  0
  3  8  1  0  0  0
  4  5  1  0  0  0
  5  6  1  0  0  0
  5  9  1  0  0  0
  5 10  1  0  0  0
  6  7  1  0  0  0
  6 12  1  0  0  0
  7  8  1  0  0  0
 12 13  1  0  0  0
 12 18  1  0  0  0
 13 14  2  0  0  0
 14 15  1  0  0  0
 14 20  1  0  0  0
 15 16  2  0  0  0
 15 17  1  0  0  0
 17 18  1  0  0  0
 18 19  2  0  0  0
 28 34  1  0  0  0
 17 21  1  0  0  0
  9 11  1  0  0  0
M  END
> <minimizedAffinity>
-7.13998

$$$$
1691


 35 39  0  0  0  0  0  0  0  0999 V2000
   -0.3990  -16.4522  -36.4053 C   0  0  0  0  0  0  0  0  0  0  0  0
   -0.2395  -16.8915  -35.2504 O   0  0  0  0  0  0  0  0  0  0  0  0
   -0.5676  -17.3395  -37.4804 N   0  0  0  0  0  0  0  0  0  0  0  0
   -0.5887  -18.7666  -37.5410 C   0  0  0  0  0  0  0  0  0  0  0  0
    0.2118  -19.1105  -38.8202 C   0  0  0  0  0  0  0  0  0  0  0  0
   -0.1813  -17.9611  -39.6791 C   0  0  0  0  0  0  0  0  0  0  0  0
   -0.7944  -16.8910  -38.8407 C   0  0  0  0  0  0  0  0  0  0  0  0
   -1.1171  -18.2970  -40.6568 O   0  0  0  0  0  0  0  0  0  0  0  0
   -1.4632  -19.2249  -40.5308 H   0  0  0  0  0  0  0  0  0  0  0  0
    1.6076  -19.1557  -38.4889 N   0  0  0  0  0  0  0  0  0  0  0  0
    2.5771  -19.8717  -39.0823 C   0  0  0  0  0  0  0  0  0  0  0  0
    3.7974  -19.6057  -38.4282 C   0  0  0  0  0  0  0  0  0  0  0  0
    3.5108  -18.7293  -37.4520 N   0  0  0  0  0  0  0  0  0  0  0  0
    2.2098  -18.4502  -37.4741 C   0  0  0  0  0  0  0  0  0  0  0  0
    4.9688  -20.2078  -38.8290 C   0  0  0  0  0  0  0  0  0  0  0  0
    6.0440  -19.9498  -38.2245 O   0  0  0  0  0  0  0  0  0  0  0  0
    4.9099  -21.0539  -39.8638 N   0  0  0  0  0  0  0  0  0  0  0  0
    3.7514  -21.2997  -40.4772 C   0  0  0  0  0  0  0  0  0  0  0  0
    3.7129  -22.0996  -41.4492 O   0  0  0  0  0  0  0  0  0  0  0  0
    2.5594  -20.7308  -40.1207 N   0  0  0  0  0  0  0  0  0  0  0  0
    1.3548  -21.0420  -40.8229 C   0  0  0  0  0  0  0  0  0  0  0  0
    6.1397  -21.7097  -40.3142 C   0  0  0  0  0  0  0  0  0  0  0  0
   -0.4081  -14.9983  -36.6295 C   0  0  0  0  0  0  0  0  0  0  0  0
    0.7932  -14.3542  -35.9745 C   0  0  0  0  0  0  0  0  0  0  0  0
    5.6202   -9.9469  -40.0264 Cl  0  0  0  0  0  0  0  0  0  0  0  0
    4.4700  -11.1982  -39.5711 C   0  0  0  0  0  0  0  0  0  0  0  0
    3.9824  -11.2995  -38.2891 C   0  0  0  0  0  0  0  0  0  0  0  0
    3.0715  -12.3066  -37.9683 C   0  0  0  0  0  0  0  0  0  0  0  0
    2.4357  -12.6489  -36.8355 N   0  0  0  0  0  0  0  0  0  0  0  0
    1.6417  -13.7158  -37.0337 C   0  0  0  0  0  0  0  0  0  0  0  0
    1.7862  -14.0450  -38.3177 N   0  0  0  0  0  0  0  0  0  0  0  0
    2.6518  -13.2065  -38.9241 C   0  0  0  0  0  0  0  0  0  0  0  0
    3.1420  -13.1052  -40.2087 C   0  0  0  0  0  0  0  0  0  0  0  0
    4.0520  -12.0935  -40.5160 C   0  0  0  0  0  0  0  0  0  0  0  0
    2.5664  -12.1279  -35.9272 H   0  0  0  0  0  0  0  0  0  0  0  0
 25 26  1  0  0  0
 26 27  2  0  0  0
 26 34  1  0  0  0
 27 28  1  0  0  0
 28 29  1  0  0  0
 28 32  2  0  0  0
 29 30  1  0  0  0
 30 31  2  0  0  0
 30 24  1  0  0  0
 31 32  1  0  0  0
 32 33  1  0  0  0
 33 34  2  0  0  0
 24 23  1  0  0  0
 23  1  1  0  0  0
  1  2  2  0  0  0
  1  3  1  0  0  0
  3  4  1  0  0  0
  3  7  1  0  0  0
  4  5  1  0  0  0
  5  6  1  0  0  0
  5 10  1  0  0  0
  6  7  1  0  0  0
  6  8  1  0  0  0
 10 11  1  0  0  0
 10 14  1  0  0  0
 11 12  2  0  0  0
 11 20  1  0  0  0
 12 13  1  0  0  0
 12 15  1  0  0  0
 13 14  2  0  0  0
 15 16  2  0  0  0
 15 17  1  0  0  0
 17 18  1  0  0  0
 17 22  1  0  0  0
 18 19  2  0  0  0
 18 20  1  0  0  0
 20 21  1  0  0  0
 29 35  1  0  0  0
  8  9  1  0  0  0
M  END
> <minimizedAffinity>
-7.30520

$$$$
1699


 31 34  0  0  0  0  0  0  0  0999 V2000
    3.9595  -22.8507  -41.8197 Cl  0  0  0  0  0  0  0  0  0  0  0  0
    4.0536  -21.6927  -40.5330 C   0  0  0  0  0  0  0  0  0  0  0  0
    2.9368  -20.9671  -40.1445 C   0  0  0  0  0  0  0  0  0  0  0  0
    2.9962  -20.0422  -39.1220 C   0  0  0  0  0  0  0  0  0  0  0  0
    4.1960  -19.8559  -38.4939 C   0  0  0  0  0  0  0  0  0  0  0  0
    5.3438  -20.5680  -38.8551 C   0  0  0  0  0  0  0  0  0  0  0  0
    5.2489  -21.4837  -39.8795 C   0  0  0  0  0  0  0  0  0  0  0  0
    4.0631  -18.8570  -37.4914 N   0  0  0  0  0  0  0  0  0  0  0  0
    2.7194  -18.3999  -37.4997 C   0  0  0  0  0  0  0  0  0  0  0  0
    2.3314  -17.4730  -36.7172 O   0  0  0  0  0  0  0  0  0  0  0  0
    1.9989  -19.1700  -38.5051 C   0  0  0  0  0  0  0  0  0  0  0  0
    0.8914  -19.9339  -37.9245 N   0  0  0  0  0  0  0  0  0  0  0  0
   -0.0861  -18.8901  -37.7130 C   0  0  0  0  0  0  0  0  0  0  0  0
   -0.0020  -17.9884  -38.9016 C   0  0  0  0  0  0  0  0  0  0  0  0
    1.2899  -18.3836  -39.5510 C   0  0  0  0  0  0  0  0  0  0  0  0
    1.9849  -17.1422  -39.9718 C   0  0  0  0  0  0  0  0  0  0  0  0
    3.0392  -17.1834  -40.6581 O   0  0  0  0  0  0  0  0  0  0  0  0
    1.2463  -16.0426  -39.4651 N   0  0  0  0  0  0  0  0  0  0  0  0
    0.2890  -16.5646  -38.5362 C   0  0  0  0  0  0  0  0  0  0  0  0
   -0.2381  -15.9835  -37.5822 O   0  0  0  0  0  0  0  0  0  0  0  0
    4.8308  -18.5103  -36.8431 H   0  0  0  0  0  0  0  0  0  0  0  0
    0.5416  -20.5427  -38.6982 H   0  0  0  0  0  0  0  0  0  0  0  0
   -1.4717  -19.4362  -37.4817 C   0  0  0  0  0  0  0  0  0  0  0  0
   -1.3432  -20.7580  -37.0737 O   0  0  0  0  0  0  0  0  0  0  0  0
   -2.2414  -18.6478  -36.4536 C   0  0  0  0  0  0  0  0  0  0  0  0
   -1.4837  -20.8727  -36.0993 H   0  0  0  0  0  0  0  0  0  0  0  0
    1.4115  -14.6818  -39.8110 C   0  0  0  0  0  0  0  0  0  0  0  0
    2.3408  -13.8442  -39.0241 C   0  0  0  0  0  0  0  0  0  0  0  0
    1.7593  -12.8590  -38.0850 C   0  0  0  0  0  0  0  0  0  0  0  0
    2.1338  -12.9874  -36.7562 O   0  0  0  0  0  0  0  0  0  0  0  0
    0.9527  -13.1934  -36.0031 C   0  0  0  0  0  0  0  0  0  0  0  0
  1  2  1  0  0  0
  2  3  2  0  0  0
  2  7  1  0  0  0
  3  4  1  0  0  0
  4  5  2  0  0  0
  4 11  1  0  0  0
  5  6  1  0  0  0
  5  8  1  0  0  0
  6  7  2  0  0  0
  8  9  1  0  0  0
  9 10  2  0  0  0
  9 11  1  0  0  0
 11 12  1  0  0  0
 11 15  1  0  0  0
 12 13  1  0  0  0
 13 14  1  0  0  0
 13 23  1  0  0  0
 14 15  1  0  0  0
 14 19  1  0  0  0
 15 16  1  0  0  0
 16 17  2  0  0  0
 16 18  1  0  0  0
 18 19  1  0  0  0
 18 27  1  0  0  0
 19 20  2  0  0  0
 27 28  1  0  0  0
 28 29  1  0  0  0
 29 30  1  0  0  0
 30 31  1  0  0  0
 23 24  1  0  0  0
 23 25  1  0  0  0
  8 21  1  0  0  0
 12 22  1  0  0  0
 24 26  1  0  0  0
M  END
> <minimizedAffinity>
-6.21183

$$$$
1706


 25 28  0  0  0  0  0  0  0  0999 V2000
    3.1867  -21.6869  -40.0359 F   0  0  0  0  0  0  0  0  0  0  0  0
    3.1965  -20.5628  -39.2437 C   0  0  0  0  0  0  0  0  0  0  0  0
    2.0966  -19.6972  -39.2950 C   0  0  0  0  0  0  0  0  0  0  0  0
    2.0867  -18.5786  -38.5184 C   0  0  0  0  0  0  0  0  0  0  0  0
    3.1690  -18.2955  -37.6738 C   0  0  0  0  0  0  0  0  0  0  0  0
    4.2299  -19.1580  -37.6432 C   0  0  0  0  0  0  0  0  0  0  0  0
    4.2609  -20.2919  -38.4187 C   0  0  0  0  0  0  0  0  0  0  0  0
    5.6356  -21.4039  -38.3747 Cl  0  0  0  0  0  0  0  0  0  0  0  0
    0.8175  -17.8439  -38.7612 C   0  0  0  0  0  0  0  0  0  0  0  0
    1.1156  -16.5284  -39.2328 N   0  0  0  0  0  0  0  0  0  0  0  0
    1.3443  -15.4663  -38.3330 C   0  0  0  0  0  0  0  0  0  0  0  0
    1.9443  -14.3105  -38.7193 N   0  0  0  0  0  0  0  0  0  0  0  0
    2.1846  -13.2756  -37.9081 C   0  0  0  0  0  0  0  0  0  0  0  0
    1.8038  -13.3591  -36.5733 C   0  0  0  0  0  0  0  0  0  0  0  0
    1.1941  -14.4883  -36.1033 C   0  0  0  0  0  0  0  0  0  0  0  0
    0.9777  -15.5161  -36.9955 C   0  0  0  0  0  0  0  0  0  0  0  0
    0.3314  -16.7684  -36.5913 C   0  0  0  0  0  0  0  0  0  0  0  0
   -0.0232  -16.8592  -35.3668 O   0  0  0  0  0  0  0  0  0  0  0  0
    0.1062  -17.8224  -37.4950 N   0  0  0  0  0  0  0  0  0  0  0  0
    0.1077  -18.6559  -39.7559 C   0  0  0  0  0  0  0  0  0  0  0  0
   -1.0432  -18.4151  -40.2765 O   0  0  0  0  0  0  0  0  0  0  0  0
    0.8929  -19.7769  -40.0700 N   0  0  0  0  0  0  0  0  0  0  0  0
    1.1717  -16.3165  -40.2590 H   0  0  0  0  0  0  0  0  0  0  0  0
   -0.5765  -18.5625  -37.2116 H   0  0  0  0  0  0  0  0  0  0  0  0
    0.6923  -20.5649  -40.7413 H   0  0  0  0  0  0  0  0  0  0  0  0
  1  2  1  0  0  0
  2  3  2  0  0  0
  2  7  1  0  0  0
  3  4  1  0  0  0
  3 22  1  0  0  0
  4  5  2  0  0  0
  4  9  1  0  0  0
  5  6  1  0  0  0
  6  7  2  0  0  0
  7  8  1  0  0  0
  9 10  1  0  0  0
  9 19  1  0  0  0
  9 20  1  0  0  0
 10 11  1  0  0  0
 11 12  2  0  0  0
 11 16  1  0  0  0
 12 13  1  0  0  0
 13 14  2  0  0  0
 14 15  1  0  0  0
 15 16  2  0  0  0
 16 17  1  0  0  0
 17 18  2  0  0  0
 17 19  1  0  0  0
 20 21  2  0  0  0
 20 22  1  0  0  0
 10 23  1  0  0  0
 19 24  1  0  0  0
 22 25  1  0  0  0
M  END
> <minimizedAffinity>
-6.55120

$$$$
1711


 30 33  0  0  0  0  0  0  0  0999 V2000
   -0.3207  -13.9865  -37.4811 N   0  0  0  0  0  0  0  0  0  0  0  0
   -0.2740  -14.0248  -38.9007 C   0  0  0  0  0  0  0  0  0  0  0  0
   -0.7727  -15.3244  -39.4805 C   0  0  0  0  0  0  0  0  0  0  0  0
   -0.4945  -16.4515  -38.6290 N   0  0  0  0  0  0  0  0  0  0  0  0
   -0.8456  -16.3842  -37.2308 C   0  0  0  0  0  0  0  0  0  0  0  0
   -1.1578  -14.9614  -36.8841 C   0  0  0  0  0  0  0  0  0  0  0  0
    0.1153  -17.6342  -39.1150 C   0  0  0  0  0  0  0  0  0  0  0  0
    0.4216  -17.7010  -40.3212 O   0  0  0  0  0  0  0  0  0  0  0  0
    1.1061  -13.5958  -36.6877 S   0  0  0  0  0  0  0  0  0  0  0  0
    0.7635  -12.7890  -35.4427 O   0  0  0  0  0  0  0  0  0  0  0  0
    1.7326  -14.8752  -36.1667 O   0  0  0  0  0  0  0  0  0  0  0  0
    2.2932  -12.7823  -37.6344 C   0  0  0  0  0  0  0  0  0  0  0  0
    2.9822  -11.7066  -37.0994 C   0  0  0  0  0  0  0  0  0  0  0  0
    3.9431  -11.0201  -37.8136 C   0  0  0  0  0  0  0  0  0  0  0  0
    4.2117  -11.4377  -39.1044 C   0  0  0  0  0  0  0  0  0  0  0  0
    3.5170  -12.5105  -39.6245 C   0  0  0  0  0  0  0  0  0  0  0  0
    2.5546  -13.2060  -38.9220 C   0  0  0  0  0  0  0  0  0  0  0  0
    5.5413  -10.5243  -40.1570 Br  0  0  0  0  0  0  0  0  0  0  0  0
    0.3979  -18.7890  -38.2336 C   0  0  0  0  0  0  0  0  0  0  0  0
    1.7663  -19.2033  -38.3427 N   0  0  0  0  0  0  0  0  0  0  0  0
    2.3600  -20.1587  -39.2115 C   0  0  0  0  0  0  0  0  0  0  0  0
    1.7291  -20.8198  -40.0651 O   0  0  0  0  0  0  0  0  0  0  0  0
    3.7844  -20.2143  -38.9277 C   0  0  0  0  0  0  0  0  0  0  0  0
    4.0757  -19.3275  -37.9183 C   0  0  0  0  0  0  0  0  0  0  0  0
    5.3856  -19.2063  -37.4741 C   0  0  0  0  0  0  0  0  0  0  0  0
    6.3980  -19.9487  -38.0162 C   0  0  0  0  0  0  0  0  0  0  0  0
    6.1168  -20.8519  -39.0408 C   0  0  0  0  0  0  0  0  0  0  0  0
    4.8022  -20.9574  -39.4700 C   0  0  0  0  0  0  0  0  0  0  0  0
    2.8271  -18.6813  -37.5344 C   0  0  0  0  0  0  0  0  0  0  0  0
    2.7678  -17.8106  -36.6271 O   0  0  0  0  0  0  0  0  0  0  0  0
  9 10  2  0  0  0
  9 11  2  0  0  0
  9  1  1  0  0  0
  9 12  1  0  0  0
  1  2  1  0  0  0
  1  6  1  0  0  0
  2  3  1  0  0  0
  3  4  1  0  0  0
  4  5  1  0  0  0
  4  7  1  0  0  0
  5  6  1  0  0  0
  7  8  2  0  0  0
  7 19  1  0  0  0
 19 20  1  0  0  0
 20 21  1  0  0  0
 20 29  1  0  0  0
 21 22  2  0  0  0
 21 23  1  0  0  0
 23 24  2  0  0  0
 23 28  1  0  0  0
 24 25  1  0  0  0
 24 29  1  0  0  0
 25 26  2  0  0  0
 26 27  1  0  0  0
 27 28  2  0  0  0
 29 30  2  0  0  0
 12 13  2  0  0  0
 12 17  1  0  0  0
 13 14  1  0  0  0
 14 15  2  0  0  0
 15 16  1  0  0  0
 15 18  1  0  0  0
 16 17  2  0  0  0
M  END
> <minimizedAffinity>
-7.49549

$$$$
1718


 34 38  0  0  0  0  0  0  0  0999 V2000
   -1.3355  -22.2725  -42.7384 Cl  0  0  0  0  0  0  0  0  0  0  0  0
    0.2587  -21.5880  -42.5172 C   0  0  0  0  0  0  0  0  0  0  0  0
    0.5551  -21.0576  -41.2610 C   0  0  0  0  0  0  0  0  0  0  0  0
    1.8002  -20.5094  -41.0471 C   0  0  0  0  0  0  0  0  0  0  0  0
    2.7088  -20.5121  -42.1071 C   0  0  0  0  0  0  0  0  0  0  0  0
    2.4067  -21.0379  -43.3447 C   0  0  0  0  0  0  0  0  0  0  0  0
    1.1599  -21.5875  -43.5577 C   0  0  0  0  0  0  0  0  0  0  0  0
    1.9185  -20.0071  -39.6783 C   0  0  0  0  0  0  0  0  0  0  0  0
    3.0286  -20.5970  -38.9541 N   0  0  0  0  0  0  0  0  0  0  0  0
    3.3223  -19.6604  -37.8777 C   0  0  0  0  0  0  0  0  0  0  0  0
    3.0225  -18.2895  -38.4185 C   0  0  0  0  0  0  0  0  0  0  0  0
    2.1280  -18.5108  -39.6131 C   0  0  0  0  0  0  0  0  0  0  0  0
    0.8636  -17.7934  -39.3123 C   0  0  0  0  0  0  0  0  0  0  0  0
   -0.1482  -17.8945  -40.0605 O   0  0  0  0  0  0  0  0  0  0  0  0
    1.0174  -17.0410  -38.1207 N   0  0  0  0  0  0  0  0  0  0  0  0
    2.1435  -17.5677  -37.4350 C   0  0  0  0  0  0  0  0  0  0  0  0
    2.4255  -17.4834  -36.2063 O   0  0  0  0  0  0  0  0  0  0  0  0
    0.6186  -20.3084  -39.0579 C   0  0  0  0  0  0  0  0  0  0  0  0
    0.2525  -20.0580  -37.8517 O   0  0  0  0  0  0  0  0  0  0  0  0
   -0.1758  -20.9392  -40.0473 N   0  0  0  0  0  0  0  0  0  0  0  0
    3.8606  -20.7473  -39.5678 H   0  0  0  0  0  0  0  0  0  0  0  0
   -1.1678  -21.2767  -39.9152 H   0  0  0  0  0  0  0  0  0  0  0  0
    0.2022  -15.9617  -37.6959 C   0  0  0  0  0  0  0  0  0  0  0  0
    0.8155  -14.6183  -37.6653 C   0  0  0  0  0  0  0  0  0  0  0  0
    1.9731  -14.4786  -38.4154 O   0  0  0  0  0  0  0  0  0  0  0  0
    2.2227  -13.1136  -38.2690 C   0  0  0  0  0  0  0  0  0  0  0  0
    2.0175  -12.8377  -36.7741 C   0  0  0  0  0  0  0  0  0  0  0  0
    1.2094  -14.0731  -36.3423 C   0  0  0  0  0  0  0  0  0  0  0  0
    4.7595  -19.8149  -37.4756 C   0  0  0  0  0  0  0  0  0  0  0  0
    5.4816  -20.4099  -38.6451 C   0  0  0  0  0  0  0  0  0  0  0  0
    5.7035  -21.6471  -38.5994 O   0  0  0  0  0  0  0  0  0  0  0  0
    5.9026  -19.6371  -39.7570 N   0  0  0  0  0  0  0  0  0  0  0  0
    5.1797  -19.3149  -40.4298 H   0  0  0  0  0  0  0  0  0  0  0  0
    6.8897  -19.3710  -39.9421 H   0  0  0  0  0  0  0  0  0  0  0  0
  1  2  1  0  0  0
  2  3  2  0  0  0
  2  7  1  0  0  0
  3  4  1  0  0  0
  3 20  1  0  0  0
  4  5  2  0  0  0
  4  8  1  0  0  0
  5  6  1  0  0  0
  6  7  2  0  0  0
  8  9  1  0  0  0
  8 12  1  0  0  0
  8 18  1  0  0  0
  9 10  1  0  0  0
 10 11  1  0  0  0
 10 29  1  0  0  0
 11 12  1  0  0  0
 11 16  1  0  0  0
 12 13  1  0  0  0
 13 14  2  0  0  0
 13 15  1  0  0  0
 15 16  1  0  0  0
 15 23  1  0  0  0
 16 17  2  0  0  0
 23 24  1  0  0  0
 24 25  1  0  0  0
 24 28  1  0  0  0
 25 26  1  0  0  0
 26 27  1  0  0  0
 27 28  1  0  0  0
 29 30  1  0  0  0
 30 31  2  0  0  0
 30 32  1  0  0  0
 18 19  2  0  0  0
 18 20  1  0  0  0
  9 21  1  0  0  0
 32 33  1  0  0  0
 32 34  1  0  0  0
 20 22  1  0  0  0
M  END
> <minimizedAffinity>
-6.12708

$$$$
1721


 28 31  0  0  0  0  0  0  0  0999 V2000
    1.9821  -18.3257  -38.7913 C   0  0  0  0  0  0  0  0  0  0  0  0
    1.8248  -17.4148  -37.6683 C   0  0  0  0  0  0  0  0  0  0  0  0
    2.6124  -17.7494  -36.6231 O   0  0  0  0  0  0  0  0  0  0  0  0
    1.0403  -16.3100  -37.4854 N   0  0  0  0  0  0  0  0  0  0  0  0
    0.0398  -15.7823  -38.3489 C   0  0  0  0  0  0  0  0  0  0  0  0
    0.4132  -14.3960  -38.8692 C   0  0  0  0  0  0  0  0  0  0  0  0
    1.1944  -13.7943  -37.8271 N   0  0  0  0  0  0  0  0  0  0  0  0
    0.8412  -14.0915  -36.4695 C   0  0  0  0  0  0  0  0  0  0  0  0
    1.2829  -15.5356  -36.2091 C   0  0  0  0  0  0  0  0  0  0  0  0
    2.2754  -12.9339  -38.0892 C   0  0  0  0  0  0  0  0  0  0  0  0
    2.8239  -12.1499  -37.1158 N   0  0  0  0  0  0  0  0  0  0  0  0
    3.8371  -11.3212  -37.2955 C   0  0  0  0  0  0  0  0  0  0  0  0
    4.4370  -11.1769  -38.5149 C   0  0  0  0  0  0  0  0  0  0  0  0
    3.9279  -11.9457  -39.5512 C   0  0  0  0  0  0  0  0  0  0  0  0
    2.8646  -12.8092  -39.3385 C   0  0  0  0  0  0  0  0  0  0  0  0
    2.2478  -19.6769  -38.4688 N   0  0  0  0  0  0  0  0  0  0  0  0
    1.6460  -20.1941  -37.8219 H   0  0  0  0  0  0  0  0  0  0  0  0
    4.2162  -22.9286  -41.9008 Cl  0  0  0  0  0  0  0  0  0  0  0  0
    4.3693  -21.7947  -40.5846 C   0  0  0  0  0  0  0  0  0  0  0  0
    5.5498  -21.4831  -40.0663 N   0  0  0  0  0  0  0  0  0  0  0  0
    5.7564  -20.6264  -39.0607 C   0  0  0  0  0  0  0  0  0  0  0  0
    6.8288  -20.1714  -38.3930 N   0  0  0  0  0  0  0  0  0  0  0  0
    6.4274  -19.2985  -37.4537 C   0  0  0  0  0  0  0  0  0  0  0  0
    5.0869  -19.2196  -37.5505 N   0  0  0  0  0  0  0  0  0  0  0  0
    4.6248  -20.0181  -38.5241 C   0  0  0  0  0  0  0  0  0  0  0  0
    3.3967  -20.3334  -39.0541 C   0  0  0  0  0  0  0  0  0  0  0  0
    3.2699  -21.2038  -40.0646 N   0  0  0  0  0  0  0  0  0  0  0  0
    4.4368  -18.6289  -36.9664 H   0  0  0  0  0  0  0  0  0  0  0  0
 18 19  1  0  0  0
 19 20  2  0  0  0
 19 27  1  0  0  0
 20 21  1  0  0  0
 21 22  1  0  0  0
 21 25  2  0  0  0
 22 23  2  0  0  0
 23 24  1  0  0  0
 24 25  1  0  0  0
 25 26  1  0  0  0
 26 27  2  0  0  0
 26 16  1  0  0  0
 16  1  1  0  0  0
  1  2  1  0  0  0
  2  3  2  0  0  0
  2  4  1  0  0  0
  4  5  1  0  0  0
  4  9  1  0  0  0
  5  6  1  0  0  0
  6  7  1  0  0  0
  7  8  1  0  0  0
  7 10  1  0  0  0
  8  9  1  0  0  0
 10 11  2  0  0  0
 10 15  1  0  0  0
 11 12  1  0  0  0
 12 13  2  0  0  0
 13 14  1  0  0  0
 14 15  2  0  0  0
 24 28  1  0  0  0
 16 17  1  0  0  0
M  END
> <minimizedAffinity>
-6.66478

$$$$
1726


 30 33  0  0  0  0  0  0  0  0999 V2000
    1.0990  -16.9104  -40.6795 C   0  0  0  0  0  0  0  0  0  0  0  0
    1.0827  -17.7369  -39.4884 N   0  0  0  0  0  0  0  0  0  0  0  0
    0.2354  -18.8497  -39.7592 C   0  0  0  0  0  0  0  0  0  0  0  0
    0.8220  -20.1909  -39.4508 C   0  0  0  0  0  0  0  0  0  0  0  0
    1.8757  -20.6378  -40.4010 C   0  0  0  0  0  0  0  0  0  0  0  0
    3.1955  -20.7317  -39.8427 N   0  0  0  0  0  0  0  0  0  0  0  0
    3.6121  -20.0669  -38.7487 C   0  0  0  0  0  0  0  0  0  0  0  0
    4.8668  -20.1552  -38.2180 C   0  0  0  0  0  0  0  0  0  0  0  0
    5.7875  -20.9802  -38.8313 C   0  0  0  0  0  0  0  0  0  0  0  0
    5.3702  -21.6630  -39.9489 C   0  0  0  0  0  0  0  0  0  0  0  0
    4.0983  -21.5497  -40.4568 C   0  0  0  0  0  0  0  0  0  0  0  0
    3.7519  -22.1906  -41.4831 O   0  0  0  0  0  0  0  0  0  0  0  0
    2.5568  -19.1807  -38.1262 C   0  0  0  0  0  0  0  0  0  0  0  0
    2.3854  -18.0185  -39.0216 C   0  0  0  0  0  0  0  0  0  0  0  0
    1.3479  -20.0773  -38.0148 C   0  0  0  0  0  0  0  0  0  0  0  0
    0.5974  -17.1428  -38.7490 H   0  0  0  0  0  0  0  0  0  0  0  0
   -0.1122  -16.0481  -40.8354 C   0  0  0  0  0  0  0  0  0  0  0  0
   -0.1589  -15.5262  -42.1269 O   0  0  0  0  0  0  0  0  0  0  0  0
    0.4947  -14.7706  -42.1404 H   0  0  0  0  0  0  0  0  0  0  0  0
    0.0034  -14.9381  -39.7913 C   0  0  0  0  0  0  0  0  0  0  0  0
    1.3332  -14.9320  -39.3594 O   0  0  0  0  0  0  0  0  0  0  0  0
    3.0166  -13.5687  -41.4493 Br  0  0  0  0  0  0  0  0  0  0  0  0
    2.8650  -13.1404  -39.5993 C   0  0  0  0  0  0  0  0  0  0  0  0
    2.0272  -13.9029  -38.8170 C   0  0  0  0  0  0  0  0  0  0  0  0
    1.9288  -13.5808  -37.4817 C   0  0  0  0  0  0  0  0  0  0  0  0
    2.6558  -12.5149  -36.9424 C   0  0  0  0  0  0  0  0  0  0  0  0
    3.4881  -11.7683  -37.7541 C   0  0  0  0  0  0  0  0  0  0  0  0
    3.5962  -12.0748  -39.0788 C   0  0  0  0  0  0  0  0  0  0  0  0
    4.2762  -10.6230  -37.2018 C   0  0  0  0  0  0  0  0  0  0  0  0
    0.7795  -14.6156  -36.3725 Br  0  0  0  0  0  0  0  0  0  0  0  0
 22 23  1  0  0  0
 23 24  2  0  0  0
 23 28  1  0  0  0
 24 25  1  0  0  0
 24 21  1  0  0  0
 25 26  2  0  0  0
 25 30  1  0  0  0
 26 27  1  0  0  0
 27 28  2  0  0  0
 27 29  1  0  0  0
 21 20  1  0  0  0
 20 17  1  0  0  0
 17 18  1  0  0  0
 17  1  1  0  0  0
  1  2  1  0  0  0
  2  3  1  0  0  0
  2 14  1  0  0  0
  3  4  1  0  0  0
  4  5  1  0  0  0
  4 15  1  0  0  0
  5  6  1  0  0  0
  6  7  1  0  0  0
  6 11  1  0  0  0
  7  8  2  0  0  0
  7 13  1  0  0  0
  8  9  1  0  0  0
  9 10  2  0  0  0
 10 11  1  0  0  0
 11 12  2  0  0  0
 13 14  1  0  0  0
 13 15  1  0  0  0
 18 19  1  0  0  0
  2 16  1  0  0  0
M  CHG 1   2   1
M  END
> <minimizedAffinity>
-6.34329

$$$$
1732


 28 31  0  0  0  0  0  0  0  0999 V2000
    0.9449  -16.1681  -37.2349 N   0  0  0  0  0  0  0  0  0  0  0  0
    1.2730  -16.5067  -35.9989 N   0  0  0  0  0  0  0  0  0  0  0  0
    2.1348  -17.5173  -36.0205 N   0  0  0  0  0  0  0  0  0  0  0  0
    2.3697  -17.8408  -37.3096 C   0  0  0  0  0  0  0  0  0  0  0  0
    1.6189  -16.9869  -38.0246 N   0  0  0  0  0  0  0  0  0  0  0  0
    3.2492  -18.8900  -37.8038 C   0  0  0  0  0  0  0  0  0  0  0  0
    2.6883  -19.9174  -38.5262 C   0  0  0  0  0  0  0  0  0  0  0  0
    3.5259  -20.9155  -38.9956 C   0  0  0  0  0  0  0  0  0  0  0  0
    4.8777  -20.9055  -38.7616 C   0  0  0  0  0  0  0  0  0  0  0  0
    5.4424  -19.8756  -38.0365 C   0  0  0  0  0  0  0  0  0  0  0  0
    4.6040  -18.8790  -37.5687 C   0  0  0  0  0  0  0  0  0  0  0  0
    1.2922  -19.9969  -38.8102 N   0  0  0  0  0  0  0  0  0  0  0  0
    0.3681  -20.3115  -37.9114 N   0  0  0  0  0  0  0  0  0  0  0  0
   -0.8106  -20.2964  -38.4931 N   0  0  0  0  0  0  0  0  0  0  0  0
   -0.6344  -19.9705  -39.7715 N   0  0  0  0  0  0  0  0  0  0  0  0
    0.6871  -19.7826  -39.9696 C   0  0  0  0  0  0  0  0  0  0  0  0
    0.0215  -15.0995  -37.6490 C   0  0  0  0  0  0  0  0  0  0  0  0
    2.1523  -13.8034  -37.9767 N   0  0  0  0  0  0  0  0  0  0  0  0
    0.7603  -13.8324  -37.8912 C   0  0  0  0  0  0  0  0  0  0  0  0
    0.0755  -12.8000  -38.0125 O   0  0  0  0  0  0  0  0  0  0  0  0
    2.6390  -14.7416  -37.8578 H   0  0  0  0  0  0  0  0  0  0  0  0
    2.9732  -13.5699  -40.8932 Br  0  0  0  0  0  0  0  0  0  0  0  0
    3.4868  -12.4226  -39.4775 C   0  0  0  0  0  0  0  0  0  0  0  0
    3.0018  -12.6989  -38.1985 C   0  0  0  0  0  0  0  0  0  0  0  0
    3.4172  -11.8201  -37.2157 C   0  0  0  0  0  0  0  0  0  0  0  0
    4.2597  -10.7371  -37.4777 C   0  0  0  0  0  0  0  0  0  0  0  0
    4.7043  -10.5174  -38.7572 C   0  0  0  0  0  0  0  0  0  0  0  0
    4.3153  -11.3668  -39.7689 C   0  0  0  0  0  0  0  0  0  0  0  0
 22 23  1  0  0  0
 23 24  2  0  0  0
 23 28  1  0  0  0
 24 25  1  0  0  0
 24 18  1  0  0  0
 25 26  2  0  0  0
 26 27  1  0  0  0
 27 28  2  0  0  0
 18 19  1  0  0  0
 19 20  2  0  0  0
 19 17  1  0  0  0
 17  1  1  0  0  0
  1  2  1  0  0  0
  1  5  1  0  0  0
  2  3  2  0  0  0
  3  4  1  0  0  0
  4  5  2  0  0  0
  4  6  1  0  0  0
  6  7  1  0  0  0
  6 11  2  0  0  0
  7  8  2  0  0  0
  7 12  1  0  0  0
  8  9  1  0  0  0
  9 10  2  0  0  0
 10 11  1  0  0  0
 12 13  1  0  0  0
 12 16  1  0  0  0
 13 14  2  0  0  0
 14 15  1  0  0  0
 15 16  2  0  0  0
 18 21  1  0  0  0
M  END
> <minimizedAffinity>
-6.60516

$$$$
1736


 35 39  0  0  0  0  0  0  0  0999 V2000
    3.5201  -15.1581  -42.3459 Cl  0  0  0  0  0  0  0  0  0  0  0  0
    3.6035  -16.9125  -42.5742 C   0  0  0  0  0  0  0  0  0  0  0  0
    3.8613  -17.7495  -41.5173 C   0  0  0  0  0  0  0  0  0  0  0  0
    3.9237  -19.1049  -41.7026 C   0  0  0  0  0  0  0  0  0  0  0  0
    3.7264  -19.6215  -42.9583 C   0  0  0  0  0  0  0  0  0  0  0  0
    3.4622  -18.7963  -44.0513 C   0  0  0  0  0  0  0  0  0  0  0  0
    3.4058  -17.4382  -43.8321 C   0  0  0  0  0  0  0  0  0  0  0  0
    3.8315  -21.0330  -42.9534 N   0  0  0  0  0  0  0  0  0  0  0  0
    4.1112  -21.4128  -41.6141 C   0  0  0  0  0  0  0  0  0  0  0  0
    4.2786  -22.5832  -41.2093 O   0  0  0  0  0  0  0  0  0  0  0  0
    4.1780  -20.2147  -40.7560 C   0  0  0  0  0  0  0  0  0  0  0  0
    5.4485  -20.0843  -40.0855 N   0  0  0  0  0  0  0  0  0  0  0  0
    5.2012  -19.5511  -38.7826 C   0  0  0  0  0  0  0  0  0  0  0  0
    3.8547  -20.0760  -38.3417 C   0  0  0  0  0  0  0  0  0  0  0  0
    3.1741  -20.3132  -39.6656 C   0  0  0  0  0  0  0  0  0  0  0  0
    2.0720  -19.3240  -39.7547 C   0  0  0  0  0  0  0  0  0  0  0  0
    1.4657  -18.9035  -40.7723 O   0  0  0  0  0  0  0  0  0  0  0  0
    1.8052  -18.9107  -38.3988 N   0  0  0  0  0  0  0  0  0  0  0  0
    3.0276  -19.0564  -37.6471 C   0  0  0  0  0  0  0  0  0  0  0  0
    3.3538  -18.4457  -36.5963 O   0  0  0  0  0  0  0  0  0  0  0  0
    3.7301  -21.7133  -43.7625 H   0  0  0  0  0  0  0  0  0  0  0  0
    6.0848  -19.5002  -40.6371 H   0  0  0  0  0  0  0  0  0  0  0  0
    6.2945  -19.9232  -37.8043 C   0  0  0  0  0  0  0  0  0  0  0  0
    7.2357  -18.8977  -37.8160 O   0  0  0  0  0  0  0  0  0  0  0  0
    6.9911  -21.1517  -38.3802 C   0  0  0  0  0  0  0  0  0  0  0  0
    7.7916  -18.9696  -38.6246 H   0  0  0  0  0  0  0  0  0  0  0  0
    0.5463  -18.4332  -37.8673 C   0  0  0  0  0  0  0  0  0  0  0  0
    0.6508  -16.9821  -37.5289 C   0  0  0  0  0  0  0  0  0  0  0  0
   -0.0055  -16.4636  -36.4328 C   0  0  0  0  0  0  0  0  0  0  0  0
    0.1076  -15.1152  -36.1399 C   0  0  0  0  0  0  0  0  0  0  0  0
    0.8647  -14.2592  -36.9156 C   0  0  0  0  0  0  0  0  0  0  0  0
    1.5241  -14.7669  -38.0131 C   0  0  0  0  0  0  0  0  0  0  0  0
    1.4039  -16.1086  -38.2932 C   0  0  0  0  0  0  0  0  0  0  0  0
   -0.7716  -17.3318  -35.6485 O   0  0  0  0  0  0  0  0  0  0  0  0
   -2.1382  -17.5499  -36.0148 C   0  0  0  0  0  0  0  0  0  0  0  0
  1  2  1  0  0  0
  2  3  2  0  0  0
  2  7  1  0  0  0
  3  4  1  0  0  0
  4  5  2  0  0  0
  4 11  1  0  0  0
  5  6  1  0  0  0
  5  8  1  0  0  0
  6  7  2  0  0  0
  8  9  1  0  0  0
  9 10  2  0  0  0
  9 11  1  0  0  0
 11 12  1  0  0  0
 11 15  1  0  0  0
 12 13  1  0  0  0
 13 14  1  0  0  0
 13 23  1  0  0  0
 14 15  1  0  0  0
 14 19  1  0  0  0
 15 16  1  0  0  0
 16 17  2  0  0  0
 16 18  1  0  0  0
 18 19  1  0  0  0
 18 27  1  0  0  0
 19 20  2  0  0  0
 27 28  1  0  0  0
 28 29  2  0  0  0
 28 33  1  0  0  0
 29 30  1  0  0  0
 29 34  1  0  0  0
 30 31  2  0  0  0
 31 32  1  0  0  0
 32 33  2  0  0  0
 34 35  1  0  0  0
 23 24  1  0  0  0
 23 25  1  0  0  0
  8 21  1  0  0  0
 12 22  1  0  0  0
 24 26  1  0  0  0
M  END
> <minimizedAffinity>
-7.00875

$$$$
1741


 28 31  0  0  0  0  0  0  0  0999 V2000
    0.1793  -14.7963  -36.4701 C   0  0  0  0  0  0  0  0  0  0  0  0
   -0.9724  -14.3853  -36.7132 O   0  0  0  0  0  0  0  0  0  0  0  0
    0.4066  -16.1552  -36.2085 N   0  0  0  0  0  0  0  0  0  0  0  0
   -0.6421  -17.1513  -36.2076 C   0  0  0  0  0  0  0  0  0  0  0  0
   -0.1885  -18.2709  -37.1297 C   0  0  0  0  0  0  0  0  0  0  0  0
    0.9917  -17.9371  -37.8116 N   0  0  0  0  0  0  0  0  0  0  0  0
    2.1412  -17.5680  -37.0928 C   0  0  0  0  0  0  0  0  0  0  0  0
    1.7477  -16.6828  -35.9154 C   0  0  0  0  0  0  0  0  0  0  0  0
    1.3107  -13.8075  -36.4638 C   0  0  0  0  0  0  0  0  0  0  0  0
    5.9989   -9.8149  -40.0561 Br  0  0  0  0  0  0  0  0  0  0  0  0
    4.6969  -10.9802  -39.2654 C   0  0  0  0  0  0  0  0  0  0  0  0
    4.0244  -11.9107  -40.0607 C   0  0  0  0  0  0  0  0  0  0  0  0
    3.0849  -12.7457  -39.4643 C   0  0  0  0  0  0  0  0  0  0  0  0
    2.8016  -12.6800  -38.1202 C   0  0  0  0  0  0  0  0  0  0  0  0
    1.8507  -13.6011  -37.7909 N   0  0  0  0  0  0  0  0  0  0  0  0
    1.5508  -14.2312  -38.9330 C   0  0  0  0  0  0  0  0  0  0  0  0
    2.2866  -13.7376  -39.9913 C   0  0  0  0  0  0  0  0  0  0  0  0
    3.4606  -11.7663  -37.3308 C   0  0  0  0  0  0  0  0  0  0  0  0
    4.4010  -10.9280  -37.9203 C   0  0  0  0  0  0  0  0  0  0  0  0
    0.9741  -17.8052  -39.2092 C   0  0  0  0  0  0  0  0  0  0  0  0
    2.3021  -17.9635  -39.8587 C   0  0  0  0  0  0  0  0  0  0  0  0
    2.7274  -16.9791  -40.5138 O   0  0  0  0  0  0  0  0  0  0  0  0
    3.0788  -19.1291  -39.7762 N   0  0  0  0  0  0  0  0  0  0  0  0
    4.3607  -19.2044  -40.4483 C   0  0  0  0  0  0  0  0  0  0  0  0
    5.3860  -19.6060  -39.4086 C   0  0  0  0  0  0  0  0  0  0  0  0
    5.0364  -20.9082  -39.0224 O   0  0  0  0  0  0  0  0  0  0  0  0
    3.8432  -20.9331  -38.3407 C   0  0  0  0  0  0  0  0  0  0  0  0
    2.6843  -20.3149  -39.0423 C   0  0  0  0  0  0  0  0  0  0  0  0
 10 11  1  0  0  0
 11 12  2  0  0  0
 11 19  1  0  0  0
 12 13  1  0  0  0
 13 14  2  0  0  0
 13 17  1  0  0  0
 14 15  1  0  0  0
 14 18  1  0  0  0
 15 16  1  0  0  0
 15  9  1  0  0  0
 16 17  2  0  0  0
  9  1  1  0  0  0
  1  2  2  0  0  0
  1  3  1  0  0  0
  3  4  1  0  0  0
  3  8  1  0  0  0
  4  5  1  0  0  0
  5  6  1  0  0  0
  6  7  1  0  0  0
  6 20  1  0  0  0
  7  8  1  0  0  0
 20 21  1  0  0  0
 21 22  2  0  0  0
 21 23  1  0  0  0
 23 24  1  0  0  0
 23 28  1  0  0  0
 24 25  1  0  0  0
 25 26  1  0  0  0
 26 27  1  0  0  0
 27 28  1  0  0  0
 18 19  2  0  0  0
M  END
> <minimizedAffinity>
-6.83244

$$$$
1744


 34 37  0  0  0  0  0  0  0  0999 V2000
    1.4028  -18.3186  -38.0616 N   0  0  0  0  0  0  0  0  0  0  0  0
    0.1076  -18.5983  -38.5906 C   0  0  0  0  0  0  0  0  0  0  0  0
   -0.0862  -19.2385  -39.6528 O   0  0  0  0  0  0  0  0  0  0  0  0
   -1.0302  -18.1264  -37.8723 N   0  0  0  0  0  0  0  0  0  0  0  0
   -0.8392  -17.3919  -36.6533 C   0  0  0  0  0  0  0  0  0  0  0  0
   -1.8856  -17.2102  -35.9454 O   0  0  0  0  0  0  0  0  0  0  0  0
    0.4764  -16.8746  -36.2346 C   0  0  0  0  0  0  0  0  0  0  0  0
    1.6135  -17.5982  -36.8545 C   0  0  0  0  0  0  0  0  0  0  0  0
    2.7323  -17.5468  -36.2871 O   0  0  0  0  0  0  0  0  0  0  0  0
   -2.0141  -18.2967  -38.2055 H   0  0  0  0  0  0  0  0  0  0  0  0
    5.1426  -21.8350  -38.6019 Cl  0  0  0  0  0  0  0  0  0  0  0  0
    4.2949  -20.4041  -39.1241 C   0  0  0  0  0  0  0  0  0  0  0  0
    3.2189  -19.9193  -38.4230 C   0  0  0  0  0  0  0  0  0  0  0  0
    2.5240  -18.7843  -38.8038 C   0  0  0  0  0  0  0  0  0  0  0  0
    2.9347  -18.1269  -39.9233 C   0  0  0  0  0  0  0  0  0  0  0  0
    4.0193  -18.5767  -40.6703 C   0  0  0  0  0  0  0  0  0  0  0  0
    4.6850  -19.7129  -40.2572 C   0  0  0  0  0  0  0  0  0  0  0  0
    0.5839  -15.3972  -36.5304 C   0  0  0  0  0  0  0  0  0  0  0  0
   -0.1320  -14.7717  -37.4469 C   0  0  0  0  0  0  0  0  0  0  0  0
    0.3065  -13.3597  -37.3860 C   0  0  0  0  0  0  0  0  0  0  0  0
    0.7237  -13.2352  -36.0009 N   0  0  0  0  0  0  0  0  0  0  0  0
    1.4297  -14.4565  -35.8696 N   0  0  0  0  0  0  0  0  0  0  0  0
    1.2817  -12.4054  -35.7845 H   0  0  0  0  0  0  0  0  0  0  0  0
    2.3196  -14.6920  -35.4305 H   0  0  0  0  0  0  0  0  0  0  0  0
    1.4548  -13.1235  -38.3052 C   0  0  0  0  0  0  0  0  0  0  0  0
    1.7205  -13.8497  -39.4308 C   0  0  0  0  0  0  0  0  0  0  0  0
    2.7780  -13.5647  -40.2718 C   0  0  0  0  0  0  0  0  0  0  0  0
    3.6251  -12.5074  -39.9943 C   0  0  0  0  0  0  0  0  0  0  0  0
    3.3467  -11.7647  -38.8354 C   0  0  0  0  0  0  0  0  0  0  0  0
    2.2896  -12.0635  -38.0084 C   0  0  0  0  0  0  0  0  0  0  0  0
    3.0092  -14.3451  -41.4184 O   0  0  0  0  0  0  0  0  0  0  0  0
    2.3764  -15.1158  -41.6058 H   0  0  0  0  0  0  0  0  0  0  0  0
    4.6842  -12.1911  -40.8104 O   0  0  0  0  0  0  0  0  0  0  0  0
    5.4320  -11.0054  -40.6365 C   0  0  0  0  0  0  0  0  0  0  0  0
 11 12  1  0  0  0
 12 13  2  0  0  0
 12 17  1  0  0  0
 13 14  1  0  0  0
 14 15  2  0  0  0
 14  1  1  0  0  0
 15 16  1  0  0  0
 16 17  2  0  0  0
  1  2  1  0  0  0
  1  8  1  0  0  0
  2  3  2  0  0  0
  2  4  1  0  0  0
  4  5  1  0  0  0
  5  6  2  0  0  0
  5  7  1  0  0  0
  7  8  1  0  0  0
  7 18  1  0  0  0
  8  9  2  0  0  0
 18 19  2  0  0  0
 18 22  1  0  0  0
 19 20  1  0  0  0
 20 21  1  0  0  0
 20 25  1  0  0  0
 21 22  1  0  0  0
 25 26  2  0  0  0
 25 30  1  0  0  0
 26 27  1  0  0  0
 27 28  2  0  0  0
 27 31  1  0  0  0
 28 29  1  0  0  0
 28 33  1  0  0  0
 29 30  2  0  0  0
 33 34  1  0  0  0
  4 10  1  0  0  0
 21 23  1  0  0  0
 22 24  1  0  0  0
 31 32  1  0  0  0
M  END
> <minimizedAffinity>
-6.78834

$$$$
1745


 34 37  0  0  0  0  0  0  0  0999 V2000
    2.1247  -19.1235  -38.0815 N   0  0  0  0  0  0  0  0  0  0  0  0
    0.8029  -19.4841  -38.4486 C   0  0  0  0  0  0  0  0  0  0  0  0
    0.5830  -20.3707  -39.2848 O   0  0  0  0  0  0  0  0  0  0  0  0
   -0.3153  -18.8144  -37.8485 N   0  0  0  0  0  0  0  0  0  0  0  0
   -0.1212  -17.7869  -36.8785 C   0  0  0  0  0  0  0  0  0  0  0  0
   -0.9932  -17.4859  -36.0452 O   0  0  0  0  0  0  0  0  0  0  0  0
    1.1915  -17.0484  -36.8766 C   0  0  0  0  0  0  0  0  0  0  0  0
    2.2358  -18.0707  -37.0993 C   0  0  0  0  0  0  0  0  0  0  0  0
    3.3191  -18.0680  -36.4106 O   0  0  0  0  0  0  0  0  0  0  0  0
   -1.2648  -19.0904  -38.1294 H   0  0  0  0  0  0  0  0  0  0  0  0
    5.7637  -18.8784  -41.6382 Cl  0  0  0  0  0  0  0  0  0  0  0  0
    5.0596  -19.6816  -40.2610 C   0  0  0  0  0  0  0  0  0  0  0  0
    3.9240  -19.1512  -39.6900 C   0  0  0  0  0  0  0  0  0  0  0  0
    3.3004  -19.7425  -38.5848 C   0  0  0  0  0  0  0  0  0  0  0  0
    3.8847  -20.8828  -38.1003 C   0  0  0  0  0  0  0  0  0  0  0  0
    5.0215  -21.4200  -38.6650 C   0  0  0  0  0  0  0  0  0  0  0  0
    5.6356  -20.8228  -39.7693 C   0  0  0  0  0  0  0  0  0  0  0  0
    1.1637  -15.9964  -37.9364 C   0  0  0  0  0  0  0  0  0  0  0  0
    0.4254  -14.9078  -38.0064 C   0  0  0  0  0  0  0  0  0  0  0  0
    0.7678  -14.1809  -39.2598 C   0  0  0  0  0  0  0  0  0  0  0  0
    1.3037  -15.2948  -40.0831 N   0  0  0  0  0  0  0  0  0  0  0  0
    1.9789  -16.0491  -39.1148 N   0  0  0  0  0  0  0  0  0  0  0  0
    0.5193  -15.8154  -40.5234 H   0  0  0  0  0  0  0  0  0  0  0  0
    2.8615  -16.5414  -39.2025 H   0  0  0  0  0  0  0  0  0  0  0  0
    1.9272  -13.2851  -38.9994 C   0  0  0  0  0  0  0  0  0  0  0  0
    2.8375  -12.9423  -40.0219 C   0  0  0  0  0  0  0  0  0  0  0  0
    3.8909  -12.1008  -39.8399 C   0  0  0  0  0  0  0  0  0  0  0  0
    4.1032  -11.5364  -38.5962 C   0  0  0  0  0  0  0  0  0  0  0  0
    3.2355  -11.8491  -37.5753 C   0  0  0  0  0  0  0  0  0  0  0  0
    2.1732  -12.7030  -37.7741 C   0  0  0  0  0  0  0  0  0  0  0  0
    5.1744  -10.6725  -38.3927 O   0  0  0  0  0  0  0  0  0  0  0  0
    5.7903  -10.4643  -39.1675 H   0  0  0  0  0  0  0  0  0  0  0  0
    4.7686  -11.7968  -40.8905 O   0  0  0  0  0  0  0  0  0  0  0  0
    4.6270  -12.4623  -42.1265 C   0  0  0  0  0  0  0  0  0  0  0  0
 11 12  1  0  0  0
 12 13  2  0  0  0
 12 17  1  0  0  0
 13 14  1  0  0  0
 14 15  2  0  0  0
 14  1  1  0  0  0
 15 16  1  0  0  0
 16 17  2  0  0  0
  1  2  1  0  0  0
  1  8  1  0  0  0
  2  3  2  0  0  0
  2  4  1  0  0  0
  4  5  1  0  0  0
  5  6  2  0  0  0
  5  7  1  0  0  0
  7  8  1  0  0  0
  7 18  1  0  0  0
  8  9  2  0  0  0
 18 19  2  0  0  0
 18 22  1  0  0  0
 19 20  1  0  0  0
 20 21  1  0  0  0
 20 25  1  0  0  0
 21 22  1  0  0  0
 25 26  2  0  0  0
 25 30  1  0  0  0
 26 27  1  0  0  0
 27 28  2  0  0  0
 27 33  1  0  0  0
 28 29  1  0  0  0
 28 31  1  0  0  0
 29 30  2  0  0  0
 33 34  1  0  0  0
  4 10  1  0  0  0
 21 23  1  0  0  0
 22 24  1  0  0  0
 31 32  1  0  0  0
M  END
> <minimizedAffinity>
-7.20025

$$$$
1750


 27 30  0  0  0  0  0  0  0  0999 V2000
   -0.2217  -12.3204  -36.9236 N   0  0  0  0  0  0  0  0  0  0  0  0
    0.5887  -13.0643  -36.0085 C   0  0  0  0  0  0  0  0  0  0  0  0
    0.8893  -14.4663  -36.5029 C   0  0  0  0  0  0  0  0  0  0  0  0
   -0.3350  -15.0785  -36.9453 N   0  0  0  0  0  0  0  0  0  0  0  0
   -1.5742  -14.3576  -36.7328 C   0  0  0  0  0  0  0  0  0  0  0  0
   -1.4069  -12.9850  -37.3472 C   0  0  0  0  0  0  0  0  0  0  0  0
   -0.3773  -16.3539  -37.5785 C   0  0  0  0  0  0  0  0  0  0  0  0
   -1.4569  -16.8651  -37.9561 O   0  0  0  0  0  0  0  0  0  0  0  0
    0.8543  -17.1127  -37.8084 C   0  0  0  0  0  0  0  0  0  0  0  0
    1.7105  -17.5701  -36.8540 N   0  0  0  0  0  0  0  0  0  0  0  0
    2.7226  -18.2189  -37.4506 C   0  0  0  0  0  0  0  0  0  0  0  0
    2.5032  -18.1677  -38.7641 N   0  0  0  0  0  0  0  0  0  0  0  0
    1.3691  -17.4976  -39.0093 C   0  0  0  0  0  0  0  0  0  0  0  0
    3.3888  -18.7539  -39.5927 C   0  0  0  0  0  0  0  0  0  0  0  0
    4.5139  -19.4077  -39.1721 C   0  0  0  0  0  0  0  0  0  0  0  0
    4.7600  -19.4712  -37.8052 C   0  0  0  0  0  0  0  0  0  0  0  0
    3.8481  -18.8684  -36.9682 C   0  0  0  0  0  0  0  0  0  0  0  0
    5.6505  -20.1626  -40.2844 Cl  0  0  0  0  0  0  0  0  0  0  0  0
    0.6156  -11.4990  -38.1401 S   0  0  0  0  0  0  0  0  0  0  0  0
    0.9636  -12.4408  -39.2466 O   0  0  0  0  0  0  0  0  0  0  0  0
   -0.2765  -10.4242  -38.6948 O   0  0  0  0  0  0  0  0  0  0  0  0
    2.0586  -10.7386  -37.6006 N   0  0  0  0  0  0  0  0  0  0  0  0
    2.2095   -9.3981  -38.1354 C   0  0  0  0  0  0  0  0  0  0  0  0
    3.6823   -9.0662  -38.0995 C   0  0  0  0  0  0  0  0  0  0  0  0
    4.3152   -9.6504  -37.0075 O   0  0  0  0  0  0  0  0  0  0  0  0
    4.3710  -11.0394  -37.0990 C   0  0  0  0  0  0  0  0  0  0  0  0
    3.2396  -11.4774  -38.0073 C   0  0  0  0  0  0  0  0  0  0  0  0
 19 20  2  0  0  0
 19 21  2  0  0  0
 19  1  1  0  0  0
 19 22  1  0  0  0
  1  2  1  0  0  0
  1  6  1  0  0  0
  2  3  1  0  0  0
  3  4  1  0  0  0
  4  5  1  0  0  0
  4  7  1  0  0  0
  5  6  1  0  0  0
  7  8  2  0  0  0
  7  9  1  0  0  0
  9 10  1  0  0  0
  9 13  2  0  0  0
 10 11  2  0  0  0
 11 12  1  0  0  0
 11 17  1  0  0  0
 12 13  1  0  0  0
 12 14  1  0  0  0
 14 15  2  0  0  0
 15 16  1  0  0  0
 15 18  1  0  0  0
 16 17  2  0  0  0
 22 23  1  0  0  0
 22 27  1  0  0  0
 23 24  1  0  0  0
 24 25  1  0  0  0
 25 26  1  0  0  0
 26 27  1  0  0  0
M  END
> <minimizedAffinity>
-6.04466

$$$$
1758


 28 32  0  0  0  0  0  0  0  0999 V2000
    4.8936  -21.0548  -40.0199 N   0  0  0  0  0  0  0  0  0  0  0  0
    5.9852  -20.6138  -39.4218 N   0  0  0  0  0  0  0  0  0  0  0  0
    5.6957  -19.7654  -38.4146 C   0  0  0  0  0  0  0  0  0  0  0  0
    6.5100  -19.1338  -37.6029 C   0  0  0  0  0  0  0  0  0  0  0  0
    4.3191  -19.6633  -38.3745 C   0  0  0  0  0  0  0  0  0  0  0  0
    3.6046  -18.9188  -37.5172 C   0  0  0  0  0  0  0  0  0  0  0  0
    3.8587  -20.4783  -39.3856 C   0  0  0  0  0  0  0  0  0  0  0  0
    2.6498  -20.6607  -39.6787 O   0  0  0  0  0  0  0  0  0  0  0  0
    6.9655  -20.8768  -39.6808 H   0  0  0  0  0  0  0  0  0  0  0  0
    4.9472  -25.0062  -44.9628 I   0  0  0  0  0  0  0  0  0  0  0  0
    4.8939  -23.7004  -43.3120 C   0  0  0  0  0  0  0  0  0  0  0  0
    3.7521  -23.5358  -42.5547 C   0  0  0  0  0  0  0  0  0  0  0  0
    3.7133  -22.6708  -41.4600 C   0  0  0  0  0  0  0  0  0  0  0  0
    4.8302  -21.9717  -41.1301 C   0  0  0  0  0  0  0  0  0  0  0  0
    5.9686  -22.1448  -41.8967 C   0  0  0  0  0  0  0  0  0  0  0  0
    6.0273  -22.9935  -42.9807 C   0  0  0  0  0  0  0  0  0  0  0  0
    2.1912  -18.9686  -37.6628 N   0  0  0  0  0  0  0  0  0  0  0  0
    1.6535  -19.8414  -37.8316 H   0  0  0  0  0  0  0  0  0  0  0  0
    1.4372  -17.7287  -37.5720 C   0  0  0  0  0  0  0  0  0  0  0  0
    1.8545  -16.9580  -36.3286 C   0  0  0  0  0  0  0  0  0  0  0  0
    1.1436  -15.7100  -36.2880 N   0  0  0  0  0  0  0  0  0  0  0  0
   -0.2804  -16.0219  -36.2255 C   0  0  0  0  0  0  0  0  0  0  0  0
   -0.7218  -16.7125  -37.4046 N   0  0  0  0  0  0  0  0  0  0  0  0
   -0.4057  -15.9481  -38.5907 C   0  0  0  0  0  0  0  0  0  0  0  0
    0.9981  -15.6478  -38.6835 N   0  0  0  0  0  0  0  0  0  0  0  0
    1.4606  -14.9603  -37.4822 C   0  0  0  0  0  0  0  0  0  0  0  0
    1.7394  -16.8832  -38.7897 C   0  0  0  0  0  0  0  0  0  0  0  0
   -0.0379  -17.9789  -37.4770 C   0  0  0  0  0  0  0  0  0  0  0  0
 10 11  1  0  0  0
 11 12  2  0  0  0
 11 16  1  0  0  0
 12 13  1  0  0  0
 13 14  2  0  0  0
 14 15  1  0  0  0
 14  1  1  0  0  0
 15 16  2  0  0  0
  1  2  1  0  0  0
  1  7  1  0  0  0
  2  3  1  0  0  0
  3  4  2  0  0  0
  3  5  1  0  0  0
  5  6  2  0  0  0
  5  7  1  0  0  0
  6 17  1  0  0  0
 17 19  1  0  0  0
 19 20  1  0  0  0
 19 27  1  0  0  0
 19 28  1  0  0  0
 20 21  1  0  0  0
 21 22  1  0  0  0
 21 26  1  0  0  0
 22 23  1  0  0  0
 23 24  1  0  0  0
 23 28  1  0  0  0
 24 25  1  0  0  0
 25 26  1  0  0  0
 25 27  1  0  0  0
  7  8  2  0  0  0
  2  9  1  0  0  0
 17 18  1  0  0  0
M  END
> <minimizedAffinity>
-6.35672

$$$$
1764


 34 37  0  0  0  0  0  0  0  0999 V2000
    0.5316  -15.9636  -37.9230 N   0  0  0  0  0  0  0  0  0  0  0  0
    1.7287  -16.4389  -37.4236 C   0  0  0  0  0  0  0  0  0  0  0  0
    1.6049  -16.3407  -35.8966 C   0  0  0  0  0  0  0  0  0  0  0  0
    0.1483  -16.6920  -35.6874 C   0  0  0  0  0  0  0  0  0  0  0  0
   -0.5291  -16.2369  -36.9576 C   0  0  0  0  0  0  0  0  0  0  0  0
    1.8575  -17.9061  -37.7963 C   0  0  0  0  0  0  0  0  0  0  0  0
    2.7031  -18.5496  -37.1608 O   0  0  0  0  0  0  0  0  0  0  0  0
    1.0383  -18.4393  -38.8065 N   0  0  0  0  0  0  0  0  0  0  0  0
    0.3464  -17.8666  -39.3309 H   0  0  0  0  0  0  0  0  0  0  0  0
    1.1408  -19.8328  -39.1650 C   0  0  0  0  0  0  0  0  0  0  0  0
    1.9917  -20.1351  -40.3383 C   0  0  0  0  0  0  0  0  0  0  0  0
    3.2852  -20.6545  -40.0677 N   0  0  0  0  0  0  0  0  0  0  0  0
    4.3500  -19.7051  -40.0818 C   0  0  0  0  0  0  0  0  0  0  0  0
    5.3017  -20.0589  -38.9566 C   0  0  0  0  0  0  0  0  0  0  0  0
    5.6765  -21.5218  -39.0759 C   0  0  0  0  0  0  0  0  0  0  0  0
    6.0327  -21.8041  -40.5107 C   0  0  0  0  0  0  0  0  0  0  0  0
    4.8693  -21.9972  -41.4100 C   0  0  0  0  0  0  0  0  0  0  0  0
    3.5316  -21.8612  -40.7861 C   0  0  0  0  0  0  0  0  0  0  0  0
    0.3289  -14.5497  -38.7693 S   0  0  0  0  0  0  0  0  0  0  0  0
   -0.9765  -13.8366  -38.4219 O   0  0  0  0  0  0  0  0  0  0  0  0
    0.1636  -14.8944  -40.2508 O   0  0  0  0  0  0  0  0  0  0  0  0
    1.6430  -13.4172  -38.6530 C   0  0  0  0  0  0  0  0  0  0  0  0
    2.4140  -13.1573  -39.7985 C   0  0  0  0  0  0  0  0  0  0  0  0
    3.5044  -12.3353  -39.8100 C   0  0  0  0  0  0  0  0  0  0  0  0
    3.8534  -11.7330  -38.6148 C   0  0  0  0  0  0  0  0  0  0  0  0
    3.1498  -11.9397  -37.4665 C   0  0  0  0  0  0  0  0  0  0  0  0
    2.0478  -12.7856  -37.5112 C   0  0  0  0  0  0  0  0  0  0  0  0
    1.1363  -12.9173  -36.0236 Cl  0  0  0  0  0  0  0  0  0  0  0  0
    4.9946  -10.8616  -38.6140 N   0  0  0  0  0  0  0  0  0  0  0  0
    5.7171  -10.6490  -39.8244 C   0  0  0  0  0  0  0  0  0  0  0  0
    6.9089  -10.2956  -39.7854 O   0  0  0  0  0  0  0  0  0  0  0  0
    4.9880  -10.8661  -41.0988 C   0  0  0  0  0  0  0  0  0  0  0  0
    4.2612  -12.0821  -40.9436 O   0  0  0  0  0  0  0  0  0  0  0  0
    5.2715  -10.3975  -37.7139 H   0  0  0  0  0  0  0  0  0  0  0  0
 19 20  2  0  0  0
 19 21  2  0  0  0
 19  1  1  0  0  0
 19 22  1  0  0  0
  1  2  1  0  0  0
  1  5  1  0  0  0
  2  3  1  0  0  0
  2  6  1  0  0  0
  3  4  1  0  0  0
  4  5  1  0  0  0
  6  7  2  0  0  0
  6  8  1  0  0  0
  8 10  1  0  0  0
 10 11  1  0  0  0
 11 12  1  0  0  0
 12 13  1  0  0  0
 12 18  1  0  0  0
 13 14  1  0  0  0
 14 15  1  0  0  0
 15 16  1  0  0  0
 16 17  1  0  0  0
 17 18  1  0  0  0
 22 23  2  0  0  0
 22 27  1  0  0  0
 23 24  1  0  0  0
 24 25  2  0  0  0
 24 33  1  0  0  0
 25 26  1  0  0  0
 25 29  1  0  0  0
 26 27  2  0  0  0
 27 28  1  0  0  0
 29 30  1  0  0  0
 30 31  2  0  0  0
 30 32  1  0  0  0
 32 33  1  0  0  0
  8  9  1  0  0  0
 29 34  1  0  0  0
M  END
> <minimizedAffinity>
-6.70327

$$$$
1781


 24 27  0  0  0  0  0  0  0  0999 V2000
    2.3683  -17.7959  -36.7565 C   0  0  0  0  0  0  0  0  0  0  0  0
    2.8563  -17.5658  -35.5631 O   0  0  0  0  0  0  0  0  0  0  0  0
    1.2627  -17.0283  -37.0900 N   0  0  0  0  0  0  0  0  0  0  0  0
    0.4318  -17.0259  -38.2474 C   0  0  0  0  0  0  0  0  0  0  0  0
    0.9211  -15.8281  -39.0865 C   0  0  0  0  0  0  0  0  0  0  0  0
    1.1863  -14.7233  -38.1465 N   0  0  0  0  0  0  0  0  0  0  0  0
    0.4782  -14.7213  -36.8988 C   0  0  0  0  0  0  0  0  0  0  0  0
    0.8659  -15.9598  -36.1127 C   0  0  0  0  0  0  0  0  0  0  0  0
    2.1195  -13.7076  -38.5056 C   0  0  0  0  0  0  0  0  0  0  0  0
    2.5575  -12.8078  -37.5973 N   0  0  0  0  0  0  0  0  0  0  0  0
    3.4196  -11.8520  -37.8944 N   0  0  0  0  0  0  0  0  0  0  0  0
    3.9291  -11.7008  -39.1249 C   0  0  0  0  0  0  0  0  0  0  0  0
    4.7841  -10.6490  -39.1533 N   0  0  0  0  0  0  0  0  0  0  0  0
    4.8091  -10.1417  -37.9347 N   0  0  0  0  0  0  0  0  0  0  0  0
    3.9842  -10.8588  -37.1510 C   0  0  0  0  0  0  0  0  0  0  0  0
    3.5290  -12.5850  -40.1121 C   0  0  0  0  0  0  0  0  0  0  0  0
    2.6303  -13.5705  -39.7768 C   0  0  0  0  0  0  0  0  0  0  0  0
    5.6353  -21.8530  -39.8376 Cl  0  0  0  0  0  0  0  0  0  0  0  0
    4.6565  -20.6856  -38.9379 C   0  0  0  0  0  0  0  0  0  0  0  0
    5.2451  -19.7454  -38.1290 C   0  0  0  0  0  0  0  0  0  0  0  0
    4.4808  -18.8399  -37.4301 C   0  0  0  0  0  0  0  0  0  0  0  0
    3.0825  -18.8048  -37.4860 C   0  0  0  0  0  0  0  0  0  0  0  0
    2.5198  -19.7575  -38.3044 C   0  0  0  0  0  0  0  0  0  0  0  0
    3.2890  -20.6896  -39.0242 C   0  0  0  0  0  0  0  0  0  0  0  0
 18 19  1  0  0  0
 19 20  2  0  0  0
 19 24  1  0  0  0
 20 21  1  0  0  0
 21 22  2  0  0  0
 22 23  1  0  0  0
 22  1  1  0  0  0
 23 24  2  0  0  0
  1  2  2  0  0  0
  1  3  1  0  0  0
  3  4  1  0  0  0
  3  8  1  0  0  0
  4  5  1  0  0  0
  5  6  1  0  0  0
  6  7  1  0  0  0
  6  9  1  0  0  0
  7  8  1  0  0  0
  9 10  2  0  0  0
  9 17  1  0  0  0
 10 11  1  0  0  0
 11 12  1  0  0  0
 11 15  1  0  0  0
 12 13  2  0  0  0
 12 16  1  0  0  0
 13 14  1  0  0  0
 14 15  2  0  0  0
 16 17  2  0  0  0
M  END
> <minimizedAffinity>
-7.19928

$$$$
1788


 30 33  0  0  0  0  0  0  0  0999 V2000
    0.9207  -16.4174  -37.8075 N   0  0  0  0  0  0  0  0  0  0  0  0
   -0.3042  -16.7419  -38.0256 N   0  0  0  0  0  0  0  0  0  0  0  0
   -0.4570  -18.1159  -38.1211 C   0  0  0  0  0  0  0  0  0  0  0  0
    0.7472  -18.6284  -37.9515 N   0  0  0  0  0  0  0  0  0  0  0  0
    1.5993  -17.5658  -37.7538 C   0  0  0  0  0  0  0  0  0  0  0  0
    2.8259  -17.7005  -37.5572 O   0  0  0  0  0  0  0  0  0  0  0  0
    3.0320  -10.8183  -37.2483 Cl  0  0  0  0  0  0  0  0  0  0  0  0
    2.4168  -12.4512  -37.4195 C   0  0  0  0  0  0  0  0  0  0  0  0
    2.5041  -13.1625  -38.6014 C   0  0  0  0  0  0  0  0  0  0  0  0
    2.0170  -14.4523  -38.7262 C   0  0  0  0  0  0  0  0  0  0  0  0
    1.4151  -15.0902  -37.6596 C   0  0  0  0  0  0  0  0  0  0  0  0
    1.3220  -14.3908  -36.4747 C   0  0  0  0  0  0  0  0  0  0  0  0
    1.8126  -13.0937  -36.3500 C   0  0  0  0  0  0  0  0  0  0  0  0
   -1.7729  -18.6904  -38.3937 C   0  0  0  0  0  0  0  0  0  0  0  0
   -2.7301  -18.6562  -37.3716 C   0  0  0  0  0  0  0  0  0  0  0  0
   -3.9761  -19.2106  -37.4732 C   0  0  0  0  0  0  0  0  0  0  0  0
   -4.3666  -19.8583  -38.6377 C   0  0  0  0  0  0  0  0  0  0  0  0
   -3.4400  -19.8998  -39.6414 C   0  0  0  0  0  0  0  0  0  0  0  0
   -2.1675  -19.3318  -39.5316 C   0  0  0  0  0  0  0  0  0  0  0  0
    1.1792  -19.9869  -38.0519 C   0  0  0  0  0  0  0  0  0  0  0  0
    2.0184  -20.2994  -39.2243 C   0  0  0  0  0  0  0  0  0  0  0  0
    1.3714  -20.2242  -40.3505 O   0  0  0  0  0  0  0  0  0  0  0  0
    3.3460  -20.6505  -39.3257 N   0  0  0  0  0  0  0  0  0  0  0  0
    4.2494  -20.8388  -38.2223 C   0  0  0  0  0  0  0  0  0  0  0  0
    5.6492  -21.2815  -38.6841 C   0  0  0  0  0  0  0  0  0  0  0  0
    6.1421  -20.3334  -39.6878 N   0  0  0  0  0  0  0  0  0  0  0  0
    5.1630  -20.0172  -40.7013 C   0  0  0  0  0  0  0  0  0  0  0  0
    5.3808  -19.1008  -41.5262 O   0  0  0  0  0  0  0  0  0  0  0  0
    3.9359  -20.8484  -40.6612 C   0  0  0  0  0  0  0  0  0  0  0  0
    7.0837  -19.9325  -39.6762 H   0  0  0  0  0  0  0  0  0  0  0  0
  7  8  1  0  0  0
  8  9  2  0  0  0
  8 13  1  0  0  0
  9 10  1  0  0  0
 10 11  2  0  0  0
 11 12  1  0  0  0
 11  1  1  0  0  0
 12 13  2  0  0  0
  1  2  1  0  0  0
  1  5  1  0  0  0
  2  3  2  0  0  0
  3  4  1  0  0  0
  3 14  1  0  0  0
  4  5  1  0  0  0
  4 20  1  0  0  0
  5  6  2  0  0  0
 20 21  1  0  0  0
 21 22  2  0  0  0
 21 23  1  0  0  0
 23 24  1  0  0  0
 23 29  1  0  0  0
 24 25  1  0  0  0
 25 26  1  0  0  0
 26 27  1  0  0  0
 27 28  2  0  0  0
 27 29  1  0  0  0
 14 15  2  0  0  0
 14 19  1  0  0  0
 15 16  1  0  0  0
 16 17  2  0  0  0
 17 18  1  0  0  0
 18 19  2  0  0  0
 26 30  1  0  0  0
M  END
> <minimizedAffinity>
-6.37332

$$$$
1789


 29 32  0  0  0  0  0  0  0  0999 V2000
   -0.6711  -16.2857  -36.9757 N   0  0  0  0  0  0  0  0  0  0  0  0
   -1.7706  -16.7033  -36.3947 N   0  0  0  0  0  0  0  0  0  0  0  0
   -1.8271  -18.0178  -36.5853 N   0  0  0  0  0  0  0  0  0  0  0  0
   -0.7621  -18.4465  -37.2894 C   0  0  0  0  0  0  0  0  0  0  0  0
   -0.0457  -17.3425  -37.5253 C   0  0  0  0  0  0  0  0  0  0  0  0
    1.0525  -17.7802  -38.2518 C   0  0  0  0  0  0  0  0  0  0  0  0
    1.9632  -17.0261  -38.6622 O   0  0  0  0  0  0  0  0  0  0  0  0
    1.0200  -19.1054  -38.4580 N   0  0  0  0  0  0  0  0  0  0  0  0
   -0.1109  -19.5218  -37.8585 C   0  0  0  0  0  0  0  0  0  0  0  0
   -0.5175  -20.7214  -37.8216 O   0  0  0  0  0  0  0  0  0  0  0  0
   -2.4830  -16.1125  -35.8719 H   0  0  0  0  0  0  0  0  0  0  0  0
   -2.6099  -18.6128  -36.2224 H   0  0  0  0  0  0  0  0  0  0  0  0
    1.1518  -10.6149  -37.1856 Cl  0  0  0  0  0  0  0  0  0  0  0  0
    0.6276  -12.2987  -37.1112 C   0  0  0  0  0  0  0  0  0  0  0  0
    1.3005  -13.2498  -36.3981 C   0  0  0  0  0  0  0  0  0  0  0  0
    0.9222  -14.5738  -36.3162 C   0  0  0  0  0  0  0  0  0  0  0  0
   -0.2227  -14.9479  -37.0128 C   0  0  0  0  0  0  0  0  0  0  0  0
   -0.9178  -13.9780  -37.7467 C   0  0  0  0  0  0  0  0  0  0  0  0
   -0.5009  -12.6778  -37.7957 C   0  0  0  0  0  0  0  0  0  0  0  0
    1.9514  -19.9318  -39.1500 C   0  0  0  0  0  0  0  0  0  0  0  0
    3.1027  -20.4202  -38.5638 C   0  0  0  0  0  0  0  0  0  0  0  0
    3.9991  -21.2208  -39.2406 C   0  0  0  0  0  0  0  0  0  0  0  0
    3.7821  -21.5727  -40.5566 C   0  0  0  0  0  0  0  0  0  0  0  0
    2.6367  -21.0923  -41.1556 C   0  0  0  0  0  0  0  0  0  0  0  0
    1.7432  -20.2908  -40.4681 C   0  0  0  0  0  0  0  0  0  0  0  0
    4.6933  -22.3810  -41.2317 O   0  0  0  0  0  0  0  0  0  0  0  0
    4.3740  -23.1280  -42.3652 C   0  0  0  0  0  0  0  0  0  0  0  0
    5.1589  -21.7122  -38.6497 O   0  0  0  0  0  0  0  0  0  0  0  0
    6.2639  -20.8323  -38.5559 C   0  0  0  0  0  0  0  0  0  0  0  0
 13 14  1  0  0  0
 14 15  2  0  0  0
 14 19  1  0  0  0
 15 16  1  0  0  0
 16 17  2  0  0  0
 17 18  1  0  0  0
 17  1  1  0  0  0
 18 19  2  0  0  0
  1  2  1  0  0  0
  1  5  1  0  0  0
  2  3  1  0  0  0
  3  4  1  0  0  0
  4  5  2  0  0  0
  4  9  1  0  0  0
  5  6  1  0  0  0
  6  7  2  0  0  0
  6  8  1  0  0  0
  8  9  1  0  0  0
  8 20  1  0  0  0
  9 10  2  0  0  0
 20 21  2  0  0  0
 20 25  1  0  0  0
 21 22  1  0  0  0
 22 23  2  0  0  0
 22 28  1  0  0  0
 23 24  1  0  0  0
 23 26  1  0  0  0
 24 25  2  0  0  0
 26 27  1  0  0  0
 28 29  1  0  0  0
  2 11  1  0  0  0
  3 12  1  0  0  0
M  END
> <minimizedAffinity>
-5.99722

$$$$
1790


 29 32  0  0  0  0  0  0  0  0999 V2000
    3.8620  -21.2624  -40.0262 N   0  0  0  0  0  0  0  0  0  0  0  0
    4.8811  -21.8292  -39.4117 N   0  0  0  0  0  0  0  0  0  0  0  0
    4.9583  -21.2494  -38.2205 N   0  0  0  0  0  0  0  0  0  0  0  0
    4.0022  -20.3179  -38.0638 C   0  0  0  0  0  0  0  0  0  0  0  0
    3.3125  -20.3351  -39.2168 C   0  0  0  0  0  0  0  0  0  0  0  0
    2.3305  -19.3766  -39.0529 C   0  0  0  0  0  0  0  0  0  0  0  0
    1.4804  -19.1157  -39.9553 O   0  0  0  0  0  0  0  0  0  0  0  0
    2.4025  -18.7853  -37.8488 N   0  0  0  0  0  0  0  0  0  0  0  0
    3.4427  -19.3706  -37.2319 C   0  0  0  0  0  0  0  0  0  0  0  0
    3.8321  -19.0777  -36.0622 O   0  0  0  0  0  0  0  0  0  0  0  0
    5.4926  -22.5839  -39.8054 H   0  0  0  0  0  0  0  0  0  0  0  0
    5.6700  -21.4836  -37.4951 H   0  0  0  0  0  0  0  0  0  0  0  0
    1.9242  -22.6037  -45.5386 Cl  0  0  0  0  0  0  0  0  0  0  0  0
    2.4890  -22.2309  -43.9048 C   0  0  0  0  0  0  0  0  0  0  0  0
    3.0520  -21.0006  -43.6342 C   0  0  0  0  0  0  0  0  0  0  0  0
    3.5018  -20.6694  -42.3831 C   0  0  0  0  0  0  0  0  0  0  0  0
    3.4070  -21.5697  -41.3329 C   0  0  0  0  0  0  0  0  0  0  0  0
    2.8392  -22.7994  -41.6228 C   0  0  0  0  0  0  0  0  0  0  0  0
    2.3852  -23.1360  -42.8810 C   0  0  0  0  0  0  0  0  0  0  0  0
    1.5310  -17.7596  -37.3783 C   0  0  0  0  0  0  0  0  0  0  0  0
    1.8979  -16.4291  -37.3667 C   0  0  0  0  0  0  0  0  0  0  0  0
    1.0721  -15.4192  -36.9170 C   0  0  0  0  0  0  0  0  0  0  0  0
   -0.1825  -15.7573  -36.4550 C   0  0  0  0  0  0  0  0  0  0  0  0
   -0.6023  -17.0715  -36.4429 C   0  0  0  0  0  0  0  0  0  0  0  0
    0.2665  -18.0549  -36.9062 C   0  0  0  0  0  0  0  0  0  0  0  0
   -1.8727  -17.3732  -35.9700 O   0  0  0  0  0  0  0  0  0  0  0  0
   -2.6010  -18.4712  -36.4469 C   0  0  0  0  0  0  0  0  0  0  0  0
    1.4949  -14.0759  -36.9263 O   0  0  0  0  0  0  0  0  0  0  0  0
    0.8963  -13.1653  -36.0335 C   0  0  0  0  0  0  0  0  0  0  0  0
 13 14  1  0  0  0
 14 15  2  0  0  0
 14 19  1  0  0  0
 15 16  1  0  0  0
 16 17  2  0  0  0
 17 18  1  0  0  0
 17  1  1  0  0  0
 18 19  2  0  0  0
  1  2  1  0  0  0
  1  5  1  0  0  0
  2  3  1  0  0  0
  3  4  1  0  0  0
  4  5  2  0  0  0
  4  9  1  0  0  0
  5  6  1  0  0  0
  6  7  2  0  0  0
  6  8  1  0  0  0
  8  9  1  0  0  0
  8 20  1  0  0  0
  9 10  2  0  0  0
 20 21  2  0  0  0
 20 25  1  0  0  0
 21 22  1  0  0  0
 22 23  2  0  0  0
 22 28  1  0  0  0
 23 24  1  0  0  0
 24 25  2  0  0  0
 24 26  1  0  0  0
 26 27  1  0  0  0
 28 29  1  0  0  0
  2 11  1  0  0  0
  3 12  1  0  0  0
M  END
> <minimizedAffinity>
-5.95615

$$$$
1801


 26 29  0  0  0  0  0  0  0  0999 V2000
   -0.5167  -21.4114  -42.1842 Cl  0  0  0  0  0  0  0  0  0  0  0  0
    0.9468  -21.0624  -41.2644 C   0  0  0  0  0  0  0  0  0  0  0  0
    0.9108  -20.1748  -40.2036 C   0  0  0  0  0  0  0  0  0  0  0  0
    2.0386  -19.8959  -39.4819 C   0  0  0  0  0  0  0  0  0  0  0  0
    3.1951  -20.5345  -39.8607 C   0  0  0  0  0  0  0  0  0  0  0  0
    3.2580  -21.4180  -40.9063 C   0  0  0  0  0  0  0  0  0  0  0  0
    2.1084  -21.6915  -41.6286 C   0  0  0  0  0  0  0  0  0  0  0  0
    4.4325  -20.2576  -39.1045 C   0  0  0  0  0  0  0  0  0  0  0  0
    5.6405  -20.6869  -39.2119 N   0  0  0  0  0  0  0  0  0  0  0  0
    6.5094  -20.1144  -38.2244 C   0  0  0  0  0  0  0  0  0  0  0  0
    5.6333  -19.2065  -37.4250 C   0  0  0  0  0  0  0  0  0  0  0  0
    4.3290  -19.3391  -38.0297 N   0  0  0  0  0  0  0  0  0  0  0  0
    3.0938  -18.6999  -37.6771 C   0  0  0  0  0  0  0  0  0  0  0  0
    2.7672  -17.8170  -36.7219 N   0  0  0  0  0  0  0  0  0  0  0  0
    1.4822  -17.5190  -36.7990 N   0  0  0  0  0  0  0  0  0  0  0  0
    1.0058  -18.2374  -37.8303 C   0  0  0  0  0  0  0  0  0  0  0  0
   -0.1909  -18.2127  -38.2072 O   0  0  0  0  0  0  0  0  0  0  0  0
    1.9927  -18.9832  -38.3956 N   0  0  0  0  0  0  0  0  0  0  0  0
    0.7159  -16.6060  -35.9570 C   0  0  0  0  0  0  0  0  0  0  0  0
    0.7111  -15.2641  -36.5857 C   0  0  0  0  0  0  0  0  0  0  0  0
   -0.3078  -14.5309  -36.4445 O   0  0  0  0  0  0  0  0  0  0  0  0
    1.8047  -14.7658  -37.3413 N   0  0  0  0  0  0  0  0  0  0  0  0
    2.6354  -15.3829  -37.4470 H   0  0  0  0  0  0  0  0  0  0  0  0
    1.7534  -13.4496  -37.9367 C   0  0  0  0  0  0  0  0  0  0  0  0
    2.5864  -12.4579  -37.1200 C   0  0  0  0  0  0  0  0  0  0  0  0
    2.4447  -13.5554  -39.2891 C   0  0  0  0  0  0  0  0  0  0  0  0
  1  2  1  0  0  0
  2  3  2  0  0  0
  2  7  1  0  0  0
  3  4  1  0  0  0
  4  5  2  0  0  0
  4 18  1  0  0  0
  5  6  1  0  0  0
  5  8  1  0  0  0
  6  7  2  0  0  0
  8  9  2  0  0  0
  8 12  1  0  0  0
  9 10  1  0  0  0
 10 11  1  0  0  0
 11 12  1  0  0  0
 12 13  1  0  0  0
 13 14  2  0  0  0
 13 18  1  0  0  0
 14 15  1  0  0  0
 15 16  1  0  0  0
 15 19  1  0  0  0
 16 17  2  0  0  0
 16 18  1  0  0  0
 19 20  1  0  0  0
 20 21  2  0  0  0
 20 22  1  0  0  0
 22 24  1  0  0  0
 24 25  1  0  0  0
 24 26  1  0  0  0
 22 23  1  0  0  0
M  END
> <minimizedAffinity>
-6.05622

$$$$
1802


 27 30  0  0  0  0  0  0  0  0999 V2000
    4.4872  -13.6622  -43.4310 Cl  0  0  0  0  0  0  0  0  0  0  0  0
    3.7364  -13.5764  -41.8353 C   0  0  0  0  0  0  0  0  0  0  0  0
    2.9764  -14.6665  -41.4036 C   0  0  0  0  0  0  0  0  0  0  0  0
    2.3686  -14.6698  -40.1645 C   0  0  0  0  0  0  0  0  0  0  0  0
    2.5501  -13.5458  -39.3832 C   0  0  0  0  0  0  0  0  0  0  0  0
    3.2783  -12.4676  -39.7634 C   0  0  0  0  0  0  0  0  0  0  0  0
    3.8930  -12.4745  -41.0249 C   0  0  0  0  0  0  0  0  0  0  0  0
    1.8924  -13.5688  -38.0518 C   0  0  0  0  0  0  0  0  0  0  0  0
    1.8630  -12.6927  -37.0938 N   0  0  0  0  0  0  0  0  0  0  0  0
    1.0805  -13.1822  -35.9824 C   0  0  0  0  0  0  0  0  0  0  0  0
    0.5970  -14.5600  -36.3617 C   0  0  0  0  0  0  0  0  0  0  0  0
    1.1506  -14.7071  -37.6979 N   0  0  0  0  0  0  0  0  0  0  0  0
    1.0103  -15.8309  -38.5651 C   0  0  0  0  0  0  0  0  0  0  0  0
    0.3627  -17.0058  -38.4206 N   0  0  0  0  0  0  0  0  0  0  0  0
    0.5396  -17.7377  -39.5185 N   0  0  0  0  0  0  0  0  0  0  0  0
    1.2982  -16.9930  -40.3195 C   0  0  0  0  0  0  0  0  0  0  0  0
    1.6932  -17.3379  -41.4681 O   0  0  0  0  0  0  0  0  0  0  0  0
    1.6081  -15.7939  -39.7526 N   0  0  0  0  0  0  0  0  0  0  0  0
    0.0147  -19.0840  -39.7632 C   0  0  0  0  0  0  0  0  0  0  0  0
    0.5145  -19.8763  -38.5155 C   0  0  0  0  0  0  0  0  0  0  0  0
   -0.5134  -20.3432  -37.9099 O   0  0  0  0  0  0  0  0  0  0  0  0
    1.8225  -19.9662  -38.2388 N   0  0  0  0  0  0  0  0  0  0  0  0
    1.5481  -20.7977  -37.2013 H   0  0  0  0  0  0  0  0  0  0  0  0
    3.1671  -20.0586  -37.9539 C   0  0  0  0  0  0  0  0  0  0  0  0
    3.9287  -20.9030  -38.9826 C   0  0  0  0  0  0  0  0  0  0  0  0
    4.7260  -21.8415  -38.3721 O   0  0  0  0  0  0  0  0  0  0  0  0
    6.0489  -21.7949  -38.7047 C   0  0  0  0  0  0  0  0  0  0  0  0
  1  2  1  0  0  0
  2  3  2  0  0  0
  2  7  1  0  0  0
  3  4  1  0  0  0
  4  5  2  0  0  0
  4 18  1  0  0  0
  5  6  1  0  0  0
  5  8  1  0  0  0
  6  7  2  0  0  0
  8  9  2  0  0  0
  8 12  1  0  0  0
  9 10  1  0  0  0
 10 11  1  0  0  0
 11 12  1  0  0  0
 12 13  1  0  0  0
 13 14  2  0  0  0
 13 18  1  0  0  0
 14 15  1  0  0  0
 15 16  1  0  0  0
 15 19  1  0  0  0
 16 17  2  0  0  0
 16 18  1  0  0  0
 19 20  1  0  0  0
 20 21  2  0  0  0
 20 22  1  0  0  0
 22 24  1  0  0  0
 24 25  1  0  0  0
 25 26  1  0  0  0
 26 27  1  0  0  0
 22 23  1  0  0  0
M  END
> <minimizedAffinity>
-5.44739

$$$$
1804


 26 30  0  0  0  0  0  0  0  0999 V2000
    6.6381  -19.2649  -37.4730 Cl  0  0  0  0  0  0  0  0  0  0  0  0
    5.0584  -19.5510  -38.1701 C   0  0  0  0  0  0  0  0  0  0  0  0
    3.9187  -18.8832  -37.7537 C   0  0  0  0  0  0  0  0  0  0  0  0
    2.6831  -19.1168  -38.3102 C   0  0  0  0  0  0  0  0  0  0  0  0
    2.6257  -20.0549  -39.3122 C   0  0  0  0  0  0  0  0  0  0  0  0
    3.7239  -20.7473  -39.7651 C   0  0  0  0  0  0  0  0  0  0  0  0
    4.9647  -20.4868  -39.1787 C   0  0  0  0  0  0  0  0  0  0  0  0
    1.3160  -20.3328  -39.9325 C   0  0  0  0  0  0  0  0  0  0  0  0
    0.9717  -21.1399  -40.8687 N   0  0  0  0  0  0  0  0  0  0  0  0
   -0.4370  -21.0719  -41.1515 C   0  0  0  0  0  0  0  0  0  0  0  0
   -0.9577  -20.0431  -40.1994 C   0  0  0  0  0  0  0  0  0  0  0  0
    0.1975  -19.6135  -39.4562 N   0  0  0  0  0  0  0  0  0  0  0  0
    0.3181  -18.6383  -38.4001 C   0  0  0  0  0  0  0  0  0  0  0  0
   -0.5867  -17.8464  -37.7927 N   0  0  0  0  0  0  0  0  0  0  0  0
    0.0187  -17.1158  -36.8719 N   0  0  0  0  0  0  0  0  0  0  0  0
    1.3126  -17.4727  -36.9229 C   0  0  0  0  0  0  0  0  0  0  0  0
    2.1918  -16.9666  -36.1688 O   0  0  0  0  0  0  0  0  0  0  0  0
    1.5292  -18.4177  -37.8629 N   0  0  0  0  0  0  0  0  0  0  0  0
   -0.5860  -16.1202  -35.9746 C   0  0  0  0  0  0  0  0  0  0  0  0
   -0.8536  -14.8895  -36.7643 C   0  0  0  0  0  0  0  0  0  0  0  0
   -1.9064  -14.8782  -37.4506 O   0  0  0  0  0  0  0  0  0  0  0  0
    0.0317  -13.7784  -36.7513 N   0  0  0  0  0  0  0  0  0  0  0  0
   -0.1748  -12.5537  -37.5005 C   0  0  0  0  0  0  0  0  0  0  0  0
    1.0853  -11.7449  -37.3471 C   0  0  0  0  0  0  0  0  0  0  0  0
    2.0975  -12.8082  -36.9734 C   0  0  0  0  0  0  0  0  0  0  0  0
    1.2654  -13.6613  -36.0101 C   0  0  0  0  0  0  0  0  0  0  0  0
  1  2  1  0  0  0
  2  3  2  0  0  0
  2  7  1  0  0  0
  3  4  1  0  0  0
  4  5  2  0  0  0
  4 18  1  0  0  0
  5  6  1  0  0  0
  5  8  1  0  0  0
  6  7  2  0  0  0
  8  9  2  0  0  0
  8 12  1  0  0  0
  9 10  1  0  0  0
 10 11  1  0  0  0
 11 12  1  0  0  0
 12 13  1  0  0  0
 13 14  2  0  0  0
 13 18  1  0  0  0
 14 15  1  0  0  0
 15 16  1  0  0  0
 15 19  1  0  0  0
 16 17  2  0  0  0
 16 18  1  0  0  0
 19 20  1  0  0  0
 20 21  2  0  0  0
 20 22  1  0  0  0
 22 23  1  0  0  0
 22 26  1  0  0  0
 23 24  1  0  0  0
 24 25  1  0  0  0
 25 26  1  0  0  0
M  END
> <minimizedAffinity>
-6.24784

$$$$
1806


 32 35  0  0  0  0  0  0  0  0999 V2000
   -0.2772  -15.1984  -37.2478 N   0  0  0  0  0  0  0  0  0  0  0  0
    0.6506  -15.1295  -36.1378 C   0  0  0  0  0  0  0  0  0  0  0  0
    1.5066  -13.8685  -36.3390 C   0  0  0  0  0  0  0  0  0  0  0  0
    1.2680  -13.2560  -37.6006 N   0  0  0  0  0  0  0  0  0  0  0  0
   -0.1012  -12.7801  -37.7914 C   0  0  0  0  0  0  0  0  0  0  0  0
   -0.9895  -13.9866  -37.6037 C   0  0  0  0  0  0  0  0  0  0  0  0
    5.4169  -21.8915  -38.7364 Cl  0  0  0  0  0  0  0  0  0  0  0  0
    4.2586  -20.5908  -38.4656 C   0  0  0  0  0  0  0  0  0  0  0  0
    2.9857  -20.6309  -38.9454 C   0  0  0  0  0  0  0  0  0  0  0  0
    2.1122  -19.5877  -38.7083 C   0  0  0  0  0  0  0  0  0  0  0  0
    2.5113  -18.4932  -37.9845 C   0  0  0  0  0  0  0  0  0  0  0  0
    3.7940  -18.4549  -37.5025 C   0  0  0  0  0  0  0  0  0  0  0  0
    4.6718  -19.4982  -37.7379 C   0  0  0  0  0  0  0  0  0  0  0  0
    1.6252  -17.3824  -37.7176 N   0  0  0  0  0  0  0  0  0  0  0  0
    0.2942  -17.3799  -38.1956 C   0  0  0  0  0  0  0  0  0  0  0  0
   -0.5399  -16.3914  -37.9739 C   0  0  0  0  0  0  0  0  0  0  0  0
   -0.1475  -18.5239  -38.9604 N   0  0  0  0  0  0  0  0  0  0  0  0
    0.7443  -19.5962  -39.2065 C   0  0  0  0  0  0  0  0  0  0  0  0
    0.3764  -20.6186  -39.8804 O   0  0  0  0  0  0  0  0  0  0  0  0
    1.9809  -16.5829  -37.1651 H   0  0  0  0  0  0  0  0  0  0  0  0
   -1.1190  -18.5560  -39.3280 H   0  0  0  0  0  0  0  0  0  0  0  0
    2.1586  -13.0647  -38.6861 C   0  0  0  0  0  0  0  0  0  0  0  0
    2.0110  -13.8739  -39.7998 N   0  0  0  0  0  0  0  0  0  0  0  0
    2.7900  -13.8043  -40.8773 C   0  0  0  0  0  0  0  0  0  0  0  0
    3.7965  -12.8792  -40.8876 C   0  0  0  0  0  0  0  0  0  0  0  0
    3.9720  -12.0625  -39.8063 C   0  0  0  0  0  0  0  0  0  0  0  0
    3.1504  -12.1303  -38.6633 C   0  0  0  0  0  0  0  0  0  0  0  0
    3.3432  -11.2381  -37.5610 C   0  0  0  0  0  0  0  0  0  0  0  0
    4.1330  -11.4024  -36.6338 O   0  0  0  0  0  0  0  0  0  0  0  0
    2.5648  -10.0490  -37.5084 N   0  0  0  0  0  0  0  0  0  0  0  0
    2.7127   -9.2829  -38.2033 H   0  0  0  0  0  0  0  0  0  0  0  0
    1.8227   -9.8756  -36.7951 H   0  0  0  0  0  0  0  0  0  0  0  0
  7  8  1  0  0  0
  8  9  2  0  0  0
  8 13  1  0  0  0
  9 10  1  0  0  0
 10 11  2  0  0  0
 10 18  1  0  0  0
 11 12  1  0  0  0
 11 14  1  0  0  0
 12 13  2  0  0  0
 14 15  1  0  0  0
 15 16  2  0  0  0
 15 17  1  0  0  0
 16  1  1  0  0  0
  1  2  1  0  0  0
  1  6  1  0  0  0
  2  3  1  0  0  0
  3  4  1  0  0  0
  4  5  1  0  0  0
  4 22  1  0  0  0
  5  6  1  0  0  0
 22 23  2  0  0  0
 22 27  1  0  0  0
 23 24  1  0  0  0
 24 25  2  0  0  0
 25 26  1  0  0  0
 26 27  2  0  0  0
 27 28  1  0  0  0
 28 29  2  0  0  0
 28 30  1  0  0  0
 17 18  1  0  0  0
 18 19  2  0  0  0
 14 20  1  0  0  0
 30 31  1  0  0  0
 30 32  1  0  0  0
 17 21  1  0  0  0
M  END
> <minimizedAffinity>
-6.85247

$$$$
1808


 24 28  0  0  0  0  0  0  0  0999 V2000
    1.2556  -16.7688  -37.8769 N   0  0  0  0  0  0  0  0  0  0  0  0
    1.9128  -17.7399  -37.0778 C   0  0  0  0  0  0  0  0  0  0  0  0
    2.5737  -17.4724  -36.0455 O   0  0  0  0  0  0  0  0  0  0  0  0
    1.6841  -19.0878  -37.6640 C   0  0  0  0  0  0  0  0  0  0  0  0
    2.7972  -19.5050  -38.5749 C   0  0  0  0  0  0  0  0  0  0  0  0
    2.0849  -20.2986  -39.5014 O   0  0  0  0  0  0  0  0  0  0  0  0
    1.2019  -19.2845  -39.9506 C   0  0  0  0  0  0  0  0  0  0  0  0
    0.5516  -18.8838  -38.6714 C   0  0  0  0  0  0  0  0  0  0  0  0
    0.2672  -17.4236  -38.6715 C   0  0  0  0  0  0  0  0  0  0  0  0
   -0.6727  -16.8898  -39.2665 O   0  0  0  0  0  0  0  0  0  0  0  0
    2.1967  -18.2441  -40.3197 C   0  0  0  0  0  0  0  0  0  0  0  0
    3.1617  -18.3506  -39.4112 C   0  0  0  0  0  0  0  0  0  0  0  0
    2.6715  -10.8442  -37.7475 Br  0  0  0  0  0  0  0  0  0  0  0  0
    2.2289  -12.6884  -37.7778 C   0  0  0  0  0  0  0  0  0  0  0  0
    1.7180  -13.2806  -36.6484 C   0  0  0  0  0  0  0  0  0  0  0  0
    1.4043  -14.6209  -36.6991 C   0  0  0  0  0  0  0  0  0  0  0  0
    1.5883  -15.3753  -37.8368 C   0  0  0  0  0  0  0  0  0  0  0  0
    2.1038  -14.7781  -38.9790 C   0  0  0  0  0  0  0  0  0  0  0  0
    2.4196  -13.4190  -38.9239 C   0  0  0  0  0  0  0  0  0  0  0  0
    3.9047  -20.2263  -37.9356 C   0  0  0  0  0  0  0  0  0  0  0  0
    5.1056  -19.5743  -38.0003 O   0  0  0  0  0  0  0  0  0  0  0  0
    5.9369  -20.2630  -38.8477 C   0  0  0  0  0  0  0  0  0  0  0  0
    5.1631  -21.4457  -39.3300 C   0  0  0  0  0  0  0  0  0  0  0  0
    4.0723  -21.4914  -38.4692 O   0  0  0  0  0  0  0  0  0  0  0  0
 13 14  1  0  0  0
 14 15  2  0  0  0
 14 19  1  0  0  0
 15 16  1  0  0  0
 16 17  2  0  0  0
 17 18  1  0  0  0
 17  1  1  0  0  0
 18 19  2  0  0  0
  1  2  1  0  0  0
  1  9  1  0  0  0
  2  3  2  0  0  0
  2  4  1  0  0  0
  4  5  1  0  0  0
  4  8  1  0  0  0
  5  6  1  0  0  0
  5 12  1  0  0  0
  5 20  1  0  0  0
  6  7  1  0  0  0
  7  8  1  0  0  0
  7 11  1  0  0  0
  8  9  1  0  0  0
  9 10  2  0  0  0
 11 12  2  0  0  0
 20 21  1  0  0  0
 20 24  1  0  0  0
 21 22  1  0  0  0
 22 23  1  0  0  0
 23 24  1  0  0  0
M  END
> <minimizedAffinity>
-6.72135

$$$$
1810


 32 35  0  0  0  0  0  0  0  0999 V2000
    3.5770  -19.5949  -39.4170 N   0  0  0  0  0  0  0  0  0  0  0  0
    4.2022  -19.4957  -38.1223 C   0  0  0  0  0  0  0  0  0  0  0  0
    3.2026  -18.8763  -37.1739 C   0  0  0  0  0  0  0  0  0  0  0  0
    1.9026  -18.8592  -37.7935 N   0  0  0  0  0  0  0  0  0  0  0  0
    1.4075  -19.9937  -38.5646 C   0  0  0  0  0  0  0  0  0  0  0  0
    2.5646  -20.6285  -39.3394 C   0  0  0  0  0  0  0  0  0  0  0  0
    1.0835  -17.7227  -37.6689 C   0  0  0  0  0  0  0  0  0  0  0  0
   -0.0847  -17.7403  -38.1915 O   0  0  0  0  0  0  0  0  0  0  0  0
    1.5676  -16.5163  -36.9443 C   0  0  0  0  0  0  0  0  0  0  0  0
    1.9234  -15.3872  -37.8681 C   0  0  0  0  0  0  0  0  0  0  0  0
    0.8179  -14.4393  -37.7695 N   0  0  0  0  0  0  0  0  0  0  0  0
   -0.1851  -14.9619  -36.9184 C   0  0  0  0  0  0  0  0  0  0  0  0
   -1.3905  -14.6152  -36.9421 O   0  0  0  0  0  0  0  0  0  0  0  0
    0.4975  -15.9481  -36.0536 C   0  0  0  0  0  0  0  0  0  0  0  0
    0.7667  -13.1652  -38.4494 C   0  0  0  0  0  0  0  0  0  0  0  0
    2.0789  -12.4762  -38.4293 C   0  0  0  0  0  0  0  0  0  0  0  0
    2.8131  -12.3856  -39.6025 C   0  0  0  0  0  0  0  0  0  0  0  0
    4.0463  -11.7588  -39.6608 C   0  0  0  0  0  0  0  0  0  0  0  0
    4.5337  -11.2161  -38.4894 C   0  0  0  0  0  0  0  0  0  0  0  0
    3.8272  -11.2884  -37.3013 C   0  0  0  0  0  0  0  0  0  0  0  0
    2.5875  -11.9255  -37.2724 C   0  0  0  0  0  0  0  0  0  0  0  0
    2.1435  -13.0916  -41.0481 Cl  0  0  0  0  0  0  0  0  0  0  0  0
    4.7337  -19.9129  -40.6483 S   0  0  0  0  0  0  0  0  0  0  0  0
    4.4740  -21.2280  -41.3264 O   0  0  0  0  0  0  0  0  0  0  0  0
    6.0732  -20.0615  -39.9586 O   0  0  0  0  0  0  0  0  0  0  0  0
    4.8328  -18.6058  -41.7886 C   0  0  0  0  0  0  0  0  0  0  0  0
    4.0078  -17.5224  -41.9914 C   0  0  0  0  0  0  0  0  0  0  0  0
    4.5303  -16.7931  -43.0245 N   0  0  0  0  0  0  0  0  0  0  0  0
    5.5924  -17.3866  -43.4204 O   0  0  0  0  0  0  0  0  0  0  0  0
    5.8358  -18.4749  -42.7301 C   0  0  0  0  0  0  0  0  0  0  0  0
    6.9997  -19.3546  -42.9747 C   0  0  0  0  0  0  0  0  0  0  0  0
    2.7907  -17.2218  -41.2138 C   0  0  0  0  0  0  0  0  0  0  0  0
 23 24  2  0  0  0
 23 25  2  0  0  0
 23  1  1  0  0  0
 23 26  1  0  0  0
  1  2  1  0  0  0
  1  6  1  0  0  0
  2  3  1  0  0  0
  3  4  1  0  0  0
  4  5  1  0  0  0
  4  7  1  0  0  0
  5  6  1  0  0  0
  7  8  2  0  0  0
  7  9  1  0  0  0
  9 10  1  0  0  0
  9 14  1  0  0  0
 10 11  1  0  0  0
 11 12  1  0  0  0
 11 15  1  0  0  0
 12 13  2  0  0  0
 12 14  1  0  0  0
 15 16  1  0  0  0
 16 17  2  0  0  0
 16 21  1  0  0  0
 17 18  1  0  0  0
 17 22  1  0  0  0
 18 19  2  0  0  0
 19 20  1  0  0  0
 20 21  2  0  0  0
 26 27  1  0  0  0
 26 30  2  0  0  0
 27 28  2  0  0  0
 27 32  1  0  0  0
 28 29  1  0  0  0
 29 30  1  0  0  0
 30 31  1  0  0  0
M  END
> <minimizedAffinity>
-6.27244

$$$$
1816


 36 39  0  0  0  0  0  0  0  0999 V2000
    1.4903  -17.3765  -37.5982 C   0  0  0  0  0  0  0  0  0  0  0  0
    2.3334  -17.1715  -36.6581 O   0  0  0  0  0  0  0  0  0  0  0  0
    1.4193  -18.6517  -38.1303 N   0  0  0  0  0  0  0  0  0  0  0  0
    2.2363  -19.7366  -37.6835 C   0  0  0  0  0  0  0  0  0  0  0  0
    3.0548  -20.2309  -38.8780 C   0  0  0  0  0  0  0  0  0  0  0  0
    2.1770  -20.5683  -39.9470 N   0  0  0  0  0  0  0  0  0  0  0  0
    0.7337  -20.3516  -39.7105 C   0  0  0  0  0  0  0  0  0  0  0  0
    0.4874  -18.9519  -39.1929 C   0  0  0  0  0  0  0  0  0  0  0  0
    2.5678  -21.0802  -41.2023 C   0  0  0  0  0  0  0  0  0  0  0  0
    1.5447  -21.3199  -42.0160 O   0  0  0  0  0  0  0  0  0  0  0  0
    3.8540  -21.3853  -41.7526 C   0  0  0  0  0  0  0  0  0  0  0  0
    4.1242  -22.7040  -42.1984 C   0  0  0  0  0  0  0  0  0  0  0  0
    5.3431  -23.0376  -42.7257 C   0  0  0  0  0  0  0  0  0  0  0  0
    5.5572  -24.2160  -43.1141 O   0  0  0  0  0  0  0  0  0  0  0  0
    6.3427  -22.1548  -42.8514 N   0  0  0  0  0  0  0  0  0  0  0  0
    6.0891  -20.9145  -42.4320 C   0  0  0  0  0  0  0  0  0  0  0  0
    7.0079  -20.0366  -42.5294 O   0  0  0  0  0  0  0  0  0  0  0  0
    4.8730  -20.5455  -41.8967 N   0  0  0  0  0  0  0  0  0  0  0  0
    7.6228  -22.5268  -43.4083 C   0  0  0  0  0  0  0  0  0  0  0  0
    4.7763  -19.5535  -41.6041 H   0  0  0  0  0  0  0  0  0  0  0  0
    0.6605  -16.2198  -38.0350 C   0  0  0  0  0  0  0  0  0  0  0  0
    4.2999   -9.5069  -36.9408 Cl  0  0  0  0  0  0  0  0  0  0  0  0
    3.8268  -10.8814  -37.9131 C   0  0  0  0  0  0  0  0  0  0  0  0
    3.0271  -11.9031  -37.4102 C   0  0  0  0  0  0  0  0  0  0  0  0
    2.6586  -12.9828  -38.1757 C   0  0  0  0  0  0  0  0  0  0  0  0
    3.0970  -13.0467  -39.4780 C   0  0  0  0  0  0  0  0  0  0  0  0
    3.9014  -12.0155  -39.9809 C   0  0  0  0  0  0  0  0  0  0  0  0
    4.2716  -10.9346  -39.2140 C   0  0  0  0  0  0  0  0  0  0  0  0
    2.7522  -14.0708  -40.2204 O   0  0  0  0  0  0  0  0  0  0  0  0
    2.0021  -15.0497  -39.7764 C   0  0  0  0  0  0  0  0  0  0  0  0
    1.6874  -16.0305  -40.5303 O   0  0  0  0  0  0  0  0  0  0  0  0
    1.5043  -15.0856  -38.4750 C   0  0  0  0  0  0  0  0  0  0  0  0
    1.8561  -14.0164  -37.6826 C   0  0  0  0  0  0  0  0  0  0  0  0
    1.3927  -13.9377  -36.3009 C   0  0  0  0  0  0  0  0  0  0  0  0
    5.0804   -9.9040  -39.7276 O   0  0  0  0  0  0  0  0  0  0  0  0
    6.3214  -10.1648  -40.3355 C   0  0  0  0  0  0  0  0  0  0  0  0
 22 23  1  0  0  0
 23 24  2  0  0  0
 23 28  1  0  0  0
 24 25  1  0  0  0
 25 26  2  0  0  0
 25 33  1  0  0  0
 26 27  1  0  0  0
 26 29  1  0  0  0
 27 28  2  0  0  0
 28 35  1  0  0  0
 35 36  1  0  0  0
 29 30  1  0  0  0
 30 31  2  0  0  0
 30 32  1  0  0  0
 32 33  2  0  0  0
 32 21  1  0  0  0
 33 34  1  0  0  0
 21  1  1  0  0  0
  1  2  2  0  0  0
  1  3  1  0  0  0
  3  4  1  0  0  0
  3  8  1  0  0  0
  4  5  1  0  0  0
  5  6  1  0  0  0
  6  7  1  0  0  0
  6  9  1  0  0  0
  7  8  1  0  0  0
  9 10  2  0  0  0
  9 11  1  0  0  0
 11 12  2  0  0  0
 11 18  1  0  0  0
 12 13  1  0  0  0
 13 14  2  0  0  0
 13 15  1  0  0  0
 15 16  1  0  0  0
 15 19  1  0  0  0
 16 17  2  0  0  0
 16 18  1  0  0  0
 18 20  1  0  0  0
M  END
> <minimizedAffinity>
-7.42995

$$$$
1822


 24 27  0  0  0  0  0  0  0  0999 V2000
   -0.6105  -11.6854  -35.5426 Cl  0  0  0  0  0  0  0  0  0  0  0  0
   -0.4789  -13.2891  -36.2571 C   0  0  0  0  0  0  0  0  0  0  0  0
   -1.6311  -13.9160  -36.6754 C   0  0  0  0  0  0  0  0  0  0  0  0
   -1.5193  -15.1382  -37.2189 N   0  0  0  0  0  0  0  0  0  0  0  0
   -0.3250  -15.7684  -37.3691 C   0  0  0  0  0  0  0  0  0  0  0  0
    0.8060  -15.1658  -36.9653 N   0  0  0  0  0  0  0  0  0  0  0  0
    1.8326  -15.9732  -37.2146 N   0  0  0  0  0  0  0  0  0  0  0  0
    1.3973  -17.1148  -37.7847 C   0  0  0  0  0  0  0  0  0  0  0  0
    0.0521  -16.9592  -37.8683 N   0  0  0  0  0  0  0  0  0  0  0  0
    0.7300  -13.9310  -36.4111 C   0  0  0  0  0  0  0  0  0  0  0  0
    1.7992  -13.3585  -36.0285 O   0  0  0  0  0  0  0  0  0  0  0  0
   -2.9596  -13.2332  -36.5162 C   0  0  0  0  0  0  0  0  0  0  0  0
   -2.3925  -15.6207  -37.5385 H   0  0  0  0  0  0  0  0  0  0  0  0
    2.1724  -18.2346  -38.2041 N   0  0  0  0  0  0  0  0  0  0  0  0
    2.1659  -18.8136  -39.5017 C   0  0  0  0  0  0  0  0  0  0  0  0
    1.7798  -18.2984  -40.5827 O   0  0  0  0  0  0  0  0  0  0  0  0
    2.7142  -20.2102  -39.4195 C   0  0  0  0  0  0  0  0  0  0  0  0
    3.3279  -20.3203  -38.0696 C   0  0  0  0  0  0  0  0  0  0  0  0
    4.8318  -20.5291  -38.0783 C   0  0  0  0  0  0  0  0  0  0  0  0
    5.3991  -19.4885  -38.9948 C   0  0  0  0  0  0  0  0  0  0  0  0
    4.8505  -19.4345  -40.1950 C   0  0  0  0  0  0  0  0  0  0  0  0
    3.7577  -20.3883  -40.5013 C   0  0  0  0  0  0  0  0  0  0  0  0
    3.0959  -19.0027  -37.4483 C   0  0  0  0  0  0  0  0  0  0  0  0
    3.6434  -18.5918  -36.3738 O   0  0  0  0  0  0  0  0  0  0  0  0
  1  2  1  0  0  0
  2  3  2  0  0  0
  2 10  1  0  0  0
  3  4  1  0  0  0
  3 12  1  0  0  0
  4  5  1  0  0  0
  5  6  1  0  0  0
  5  9  2  0  0  0
  6  7  1  0  0  0
  6 10  1  0  0  0
  7  8  2  0  0  0
  8  9  1  0  0  0
  8 14  1  0  0  0
 14 15  1  0  0  0
 14 23  1  0  0  0
 15 16  2  0  0  0
 15 17  1  0  0  0
 17 18  1  0  0  0
 17 22  1  0  0  0
 18 19  1  0  0  0
 18 23  1  0  0  0
 19 20  1  0  0  0
 20 21  2  0  0  0
 21 22  1  0  0  0
 23 24  2  0  0  0
 10 11  2  0  0  0
  4 13  1  0  0  0
M  END
> <minimizedAffinity>
-6.15411

$$$$
1825


 29 32  0  0  0  0  0  0  0  0999 V2000
    0.6485  -14.6971  -36.4779 N   0  0  0  0  0  0  0  0  0  0  0  0
   -0.4951  -15.3050  -36.9138 C   0  0  0  0  0  0  0  0  0  0  0  0
   -0.2061  -16.5574  -37.3044 N   0  0  0  0  0  0  0  0  0  0  0  0
    1.0991  -16.8075  -37.1403 C   0  0  0  0  0  0  0  0  0  0  0  0
    1.6109  -15.6114  -36.6159 C   0  0  0  0  0  0  0  0  0  0  0  0
   -1.4346  -17.1948  -37.7778 C   0  0  0  0  0  0  0  0  0  0  0  0
   -2.4104  -16.0558  -38.0049 C   0  0  0  0  0  0  0  0  0  0  0  0
   -1.9409  -15.0026  -37.0658 C   0  0  0  0  0  0  0  0  0  0  0  0
    1.9135  -17.9817  -37.4081 C   0  0  0  0  0  0  0  0  0  0  0  0
    3.0970  -18.2226  -36.7668 C   0  0  0  0  0  0  0  0  0  0  0  0
    3.8721  -19.3444  -36.9967 C   0  0  0  0  0  0  0  0  0  0  0  0
    3.4754  -20.3034  -37.9161 C   0  0  0  0  0  0  0  0  0  0  0  0
    2.2861  -20.0635  -38.5608 C   0  0  0  0  0  0  0  0  0  0  0  0
    1.5118  -18.9431  -38.3313 C   0  0  0  0  0  0  0  0  0  0  0  0
    4.2257  -21.4385  -38.1729 O   0  0  0  0  0  0  0  0  0  0  0  0
    5.4962  -21.3940  -38.7958 C   0  0  0  0  0  0  0  0  0  0  0  0
    0.7298  -13.3120  -35.9921 C   0  0  0  0  0  0  0  0  0  0  0  0
    2.7242  -12.7833  -37.4625 N   0  0  0  0  0  0  0  0  0  0  0  0
    1.4394  -12.4807  -37.0409 C   0  0  0  0  0  0  0  0  0  0  0  0
    0.7880  -11.5255  -37.4771 O   0  0  0  0  0  0  0  0  0  0  0  0
    3.1809  -13.6350  -37.0145 H   0  0  0  0  0  0  0  0  0  0  0  0
    4.2202  -12.4839  -42.3849 Cl  0  0  0  0  0  0  0  0  0  0  0  0
    4.2023  -11.9072  -40.7318 C   0  0  0  0  0  0  0  0  0  0  0  0
    3.4859  -12.5494  -39.7476 C   0  0  0  0  0  0  0  0  0  0  0  0
    3.4756  -12.0722  -38.4188 C   0  0  0  0  0  0  0  0  0  0  0  0
    4.2144  -10.9503  -38.1803 C   0  0  0  0  0  0  0  0  0  0  0  0
    4.9498  -10.2901  -39.1852 C   0  0  0  0  0  0  0  0  0  0  0  0
    4.9391  -10.7763  -40.4672 C   0  0  0  0  0  0  0  0  0  0  0  0
    2.7187  -13.7589  -40.0928 C   0  0  0  0  0  0  0  0  0  0  0  0
 22 23  1  0  0  0
 23 24  2  0  0  0
 23 28  1  0  0  0
 24 25  1  0  0  0
 24 29  1  0  0  0
 25 26  2  0  0  0
 25 18  1  0  0  0
 26 27  1  0  0  0
 27 28  2  0  0  0
 18 19  1  0  0  0
 19 20  2  0  0  0
 19 17  1  0  0  0
 17  1  1  0  0  0
  1  2  1  0  0  0
  1  5  1  0  0  0
  2  3  2  0  0  0
  2  8  1  0  0  0
  3  4  1  0  0  0
  3  6  1  0  0  0
  4  5  2  0  0  0
  4  9  1  0  0  0
  9 10  2  0  0  0
  9 14  1  0  0  0
 10 11  1  0  0  0
 11 12  2  0  0  0
 12 13  1  0  0  0
 12 15  1  0  0  0
 13 14  2  0  0  0
 15 16  1  0  0  0
  6  7  1  0  0  0
  7  8  1  0  0  0
 18 21  1  0  0  0
M  END
> <minimizedAffinity>
-7.20688

$$$$
1835


 36 39  0  0  0  0  0  0  0  0999 V2000
    1.1773  -20.1393  -39.4281 C   0  0  0  0  0  0  0  0  0  0  0  0
    2.1720  -20.3941  -40.2926 N   0  0  0  0  0  0  0  0  0  0  0  0
    1.5794  -20.7405  -41.4484 C   0  0  0  0  0  0  0  0  0  0  0  0
    2.0640  -21.1012  -42.6614 N   0  0  0  0  0  0  0  0  0  0  0  0
    1.2490  -21.4095  -43.6889 C   0  0  0  0  0  0  0  0  0  0  0  0
   -0.0911  -21.3642  -43.5272 N   0  0  0  0  0  0  0  0  0  0  0  0
   -0.6487  -21.0156  -42.3525 C   0  0  0  0  0  0  0  0  0  0  0  0
    0.2078  -20.7037  -41.3147 C   0  0  0  0  0  0  0  0  0  0  0  0
   -0.0187  -20.3236  -40.0355 N   0  0  0  0  0  0  0  0  0  0  0  0
   -2.0551  -20.9781  -42.2141 N   0  0  0  0  0  0  0  0  0  0  0  0
   -2.6431  -20.3405  -42.7783 H   0  0  0  0  0  0  0  0  0  0  0  0
   -2.5099  -21.6057  -41.5275 H   0  0  0  0  0  0  0  0  0  0  0  0
    3.5933  -20.3365  -40.1117 C   0  0  0  0  0  0  0  0  0  0  0  0
    3.9753  -19.4027  -39.1520 O   0  0  0  0  0  0  0  0  0  0  0  0
    5.3022  -19.7673  -38.9268 C   0  0  0  0  0  0  0  0  0  0  0  0
    5.1412  -21.2399  -38.5805 C   0  0  0  0  0  0  0  0  0  0  0  0
    4.1411  -21.6699  -39.6340 C   0  0  0  0  0  0  0  0  0  0  0  0
    4.8611  -22.3152  -40.6418 O   0  0  0  0  0  0  0  0  0  0  0  0
    6.3398  -21.9306  -38.6908 O   0  0  0  0  0  0  0  0  0  0  0  0
    5.0360  -21.7278  -41.4041 H   0  0  0  0  0  0  0  0  0  0  0  0
    6.9927  -21.3236  -39.1327 H   0  0  0  0  0  0  0  0  0  0  0  0
    5.9342  -18.9933  -37.8017 C   0  0  0  0  0  0  0  0  0  0  0  0
    7.3036  -19.0910  -37.7821 O   0  0  0  0  0  0  0  0  0  0  0  0
    7.6263  -19.8655  -38.2922 H   0  0  0  0  0  0  0  0  0  0  0  0
    1.3411  -19.7357  -38.0763 N   0  0  0  0  0  0  0  0  0  0  0  0
    1.2005  -20.4107  -37.2873 H   0  0  0  0  0  0  0  0  0  0  0  0
    0.9079  -17.4728  -38.0591 C   0  0  0  0  0  0  0  0  0  0  0  0
    1.6925  -18.4303  -37.7250 N   0  0  0  0  0  0  0  0  0  0  0  0
    0.2203  -16.6215  -35.2885 Cl  0  0  0  0  0  0  0  0  0  0  0  0
    0.9263  -15.5583  -36.4833 C   0  0  0  0  0  0  0  0  0  0  0  0
    1.1985  -16.0738  -37.7320 C   0  0  0  0  0  0  0  0  0  0  0  0
    1.7547  -15.2319  -38.6707 C   0  0  0  0  0  0  0  0  0  0  0  0
    2.0384  -13.9045  -38.3806 C   0  0  0  0  0  0  0  0  0  0  0  0
    1.7687  -13.3802  -37.1332 C   0  0  0  0  0  0  0  0  0  0  0  0
    1.2125  -14.2221  -36.1945 C   0  0  0  0  0  0  0  0  0  0  0  0
    2.1045  -15.8849  -40.2671 Cl  0  0  0  0  0  0  0  0  0  0  0  0
 29 30  1  0  0  0
 30 31  2  0  0  0
 30 35  1  0  0  0
 31 32  1  0  0  0
 31 27  1  0  0  0
 32 33  2  0  0  0
 32 36  1  0  0  0
 33 34  1  0  0  0
 34 35  2  0  0  0
 27 28  2  0  0  0
 28 25  1  0  0  0
 25  1  1  0  0  0
  1  2  1  0  0  0
  1  9  2  0  0  0
  2  3  1  0  0  0
  2 13  1  0  0  0
  3  4  2  0  0  0
  3  8  1  0  0  0
  4  5  1  0  0  0
  5  6  2  0  0  0
  6  7  1  0  0  0
  7  8  2  0  0  0
  7 10  1  0  0  0
  8  9  1  0  0  0
 13 14  1  0  0  0
 13 17  1  0  0  0
 14 15  1  0  0  0
 15 16  1  0  0  0
 15 22  1  0  0  0
 16 17  1  0  0  0
 16 19  1  0  0  0
 17 18  1  0  0  0
 22 23  1  0  0  0
 25 26  1  0  0  0
 10 11  1  0  0  0
 10 12  1  0  0  0
 18 20  1  0  0  0
 19 21  1  0  0  0
 23 24  1  0  0  0
M  END
> <minimizedAffinity>
-6.90330

$$$$
1837


 29 32  0  0  0  0  0  0  0  0999 V2000
   -0.3786  -18.0307  -37.4895 N   0  0  0  0  0  0  0  0  0  0  0  0
   -1.3358  -19.0972  -37.1285 C   0  0  0  0  0  0  0  0  0  0  0  0
   -0.7334  -20.3285  -37.8366 C   0  0  0  0  0  0  0  0  0  0  0  0
   -0.1940  -19.7610  -39.0817 N   0  0  0  0  0  0  0  0  0  0  0  0
   -1.0037  -18.7490  -39.6835 C   0  0  0  0  0  0  0  0  0  0  0  0
   -0.8661  -17.5072  -38.7878 C   0  0  0  0  0  0  0  0  0  0  0  0
    1.0395  -20.2288  -39.5568 C   0  0  0  0  0  0  0  0  0  0  0  0
    1.1117  -20.9019  -40.7459 N   0  0  0  0  0  0  0  0  0  0  0  0
    2.2424  -21.3878  -41.2566 C   0  0  0  0  0  0  0  0  0  0  0  0
    3.3898  -21.2237  -40.5891 N   0  0  0  0  0  0  0  0  0  0  0  0
    3.4479  -20.5861  -39.4245 C   0  0  0  0  0  0  0  0  0  0  0  0
    4.4428  -20.2915  -38.5640 N   0  0  0  0  0  0  0  0  0  0  0  0
    3.8947  -19.6418  -37.5685 N   0  0  0  0  0  0  0  0  0  0  0  0
    2.5909  -19.5109  -37.7588 N   0  0  0  0  0  0  0  0  0  0  0  0
    2.2536  -20.0819  -38.8998 C   0  0  0  0  0  0  0  0  0  0  0  0
    5.8542  -20.6090  -38.6698 C   0  0  0  0  0  0  0  0  0  0  0  0
    6.6996  -19.6303  -37.8844 C   0  0  0  0  0  0  0  0  0  0  0  0
   -0.4162  -16.9581  -36.5121 C   0  0  0  0  0  0  0  0  0  0  0  0
    0.6035  -14.7690  -37.3129 N   0  0  0  0  0  0  0  0  0  0  0  0
    0.7648  -16.0651  -36.8145 C   0  0  0  0  0  0  0  0  0  0  0  0
    1.9193  -16.5182  -36.6087 O   0  0  0  0  0  0  0  0  0  0  0  0
   -0.4013  -14.4615  -37.5038 H   0  0  0  0  0  0  0  0  0  0  0  0
    4.8183  -10.7809  -38.7909 Cl  0  0  0  0  0  0  0  0  0  0  0  0
    3.5888  -11.9509  -38.3609 C   0  0  0  0  0  0  0  0  0  0  0  0
    3.1057  -12.8659  -39.2853 C   0  0  0  0  0  0  0  0  0  0  0  0
    2.1421  -13.7707  -38.9225 C   0  0  0  0  0  0  0  0  0  0  0  0
    1.6014  -13.8233  -37.6290 C   0  0  0  0  0  0  0  0  0  0  0  0
    2.0917  -12.9114  -36.7368 C   0  0  0  0  0  0  0  0  0  0  0  0
    3.0689  -11.9891  -37.0902 C   0  0  0  0  0  0  0  0  0  0  0  0
 23 24  1  0  0  0
 24 25  2  0  0  0
 24 29  1  0  0  0
 25 26  1  0  0  0
 26 27  2  0  0  0
 27 28  1  0  0  0
 27 19  1  0  0  0
 28 29  2  0  0  0
 19 20  1  0  0  0
 20 21  2  0  0  0
 20 18  1  0  0  0
 18  1  1  0  0  0
  1  2  1  0  0  0
  1  6  1  0  0  0
  2  3  1  0  0  0
  3  4  1  0  0  0
  4  5  1  0  0  0
  4  7  1  0  0  0
  5  6  1  0  0  0
  7  8  2  0  0  0
  7 15  1  0  0  0
  8  9  1  0  0  0
  9 10  2  0  0  0
 10 11  1  0  0  0
 11 12  1  0  0  0
 11 15  2  0  0  0
 12 13  1  0  0  0
 12 16  1  0  0  0
 13 14  2  0  0  0
 14 15  1  0  0  0
 16 17  1  0  0  0
 19 22  1  0  0  0
M  END
> <minimizedAffinity>
-6.65868

$$$$
1846


 31 34  0  0  0  0  0  0  0  0999 V2000
    0.7247  -17.4503  -36.7718 N   0  0  0  0  0  0  0  0  0  0  0  0
    0.0031  -18.0133  -37.7658 C   0  0  0  0  0  0  0  0  0  0  0  0
    0.5704  -18.9100  -38.5998 N   0  0  0  0  0  0  0  0  0  0  0  0
    1.8495  -19.2893  -38.4974 C   0  0  0  0  0  0  0  0  0  0  0  0
    2.4232  -20.1810  -39.3219 N   0  0  0  0  0  0  0  0  0  0  0  0
    3.7043  -20.5785  -39.2413 C   0  0  0  0  0  0  0  0  0  0  0  0
    4.4483  -20.0233  -38.2462 N   0  0  0  0  0  0  0  0  0  0  0  0
    3.9147  -19.1283  -37.3998 C   0  0  0  0  0  0  0  0  0  0  0  0
    2.5984  -18.7275  -37.4920 C   0  0  0  0  0  0  0  0  0  0  0  0
    2.0315  -17.8091  -36.6322 C   0  0  0  0  0  0  0  0  0  0  0  0
    2.7671  -17.3310  -35.7337 O   0  0  0  0  0  0  0  0  0  0  0  0
    4.2716  -21.5208  -40.1315 N   0  0  0  0  0  0  0  0  0  0  0  0
    3.3996  -22.2064  -41.0565 C   0  0  0  0  0  0  0  0  0  0  0  0
    4.1097  -22.3299  -42.4032 C   0  0  0  0  0  0  0  0  0  0  0  0
    5.4048  -22.8231  -42.2604 O   0  0  0  0  0  0  0  0  0  0  0  0
    6.1418  -21.8275  -41.6186 C   0  0  0  0  0  0  0  0  0  0  0  0
    5.6820  -21.8314  -40.1604 C   0  0  0  0  0  0  0  0  0  0  0  0
    0.2014  -16.4942  -35.8481 C   0  0  0  0  0  0  0  0  0  0  0  0
    1.3998  -14.2851  -36.1629 N   0  0  0  0  0  0  0  0  0  0  0  0
    0.2683  -15.0883  -36.3765 C   0  0  0  0  0  0  0  0  0  0  0  0
   -0.7270  -14.6940  -37.0040 O   0  0  0  0  0  0  0  0  0  0  0  0
    2.2210  -14.7024  -35.6083 H   0  0  0  0  0  0  0  0  0  0  0  0
    4.5884  -10.8142  -38.1400 Cl  0  0  0  0  0  0  0  0  0  0  0  0
    2.9842  -11.2491  -37.5881 C   0  0  0  0  0  0  0  0  0  0  0  0
    1.9599  -10.3349  -37.6443 C   0  0  0  0  0  0  0  0  0  0  0  0
    0.7344  -10.7562  -37.1906 C   0  0  0  0  0  0  0  0  0  0  0  0
    0.5004  -12.0393  -36.6917 C   0  0  0  0  0  0  0  0  0  0  0  0
    1.5157  -12.9584  -36.6317 C   0  0  0  0  0  0  0  0  0  0  0  0
    2.7660  -12.5126  -37.0994 C   0  0  0  0  0  0  0  0  0  0  0  0
    2.1567   -9.0381  -38.1384 O   0  0  0  0  0  0  0  0  0  0  0  0
    1.9550   -8.7703  -39.5070 C   0  0  0  0  0  0  0  0  0  0  0  0
 23 24  1  0  0  0
 24 25  2  0  0  0
 24 29  1  0  0  0
 25 26  1  0  0  0
 25 30  1  0  0  0
 26 27  2  0  0  0
 27 28  1  0  0  0
 28 29  2  0  0  0
 28 19  1  0  0  0
 19 20  1  0  0  0
 20 21  2  0  0  0
 20 18  1  0  0  0
 18  1  1  0  0  0
  1  2  1  0  0  0
  1 10  1  0  0  0
  2  3  2  0  0  0
  3  4  1  0  0  0
  4  5  2  0  0  0
  4  9  1  0  0  0
  5  6  1  0  0  0
  6  7  2  0  0  0
  6 12  1  0  0  0
  7  8  1  0  0  0
  8  9  2  0  0  0
  9 10  1  0  0  0
 10 11  2  0  0  0
 12 13  1  0  0  0
 12 17  1  0  0  0
 13 14  1  0  0  0
 14 15  1  0  0  0
 15 16  1  0  0  0
 16 17  1  0  0  0
 30 31  1  0  0  0
 19 22  1  0  0  0
M  END
> <minimizedAffinity>
-6.77114

$$$$
1850


 24 27  0  0  0  0  0  0  0  0999 V2000
    4.6903  -11.6623  -41.3090 Cl  0  0  0  0  0  0  0  0  0  0  0  0
    4.0999  -11.8053  -39.6592 C   0  0  0  0  0  0  0  0  0  0  0  0
    3.1438  -12.7476  -39.3369 C   0  0  0  0  0  0  0  0  0  0  0  0
    2.6842  -12.8597  -38.0549 C   0  0  0  0  0  0  0  0  0  0  0  0
    3.1971  -12.0118  -37.0996 C   0  0  0  0  0  0  0  0  0  0  0  0
    4.1511  -11.0640  -37.3996 C   0  0  0  0  0  0  0  0  0  0  0  0
    4.6089  -10.9594  -38.6975 C   0  0  0  0  0  0  0  0  0  0  0  0
    1.6610  -13.8450  -37.6309 C   0  0  0  0  0  0  0  0  0  0  0  0
    1.4314  -14.7283  -38.7481 N   0  0  0  0  0  0  0  0  0  0  0  0
    1.2651  -14.1097  -40.0423 C   0  0  0  0  0  0  0  0  0  0  0  0
    2.6575  -13.6133  -40.4497 C   0  0  0  0  0  0  0  0  0  0  0  0
    1.3686  -16.1348  -38.6121 C   0  0  0  0  0  0  0  0  0  0  0  0
    1.1654  -16.8498  -39.6284 O   0  0  0  0  0  0  0  0  0  0  0  0
    1.5301  -16.8355  -37.3164 C   0  0  0  0  0  0  0  0  0  0  0  0
    1.5702  -18.2206  -37.4672 O   0  0  0  0  0  0  0  0  0  0  0  0
    2.7145  -18.9361  -37.7942 C   0  0  0  0  0  0  0  0  0  0  0  0
    2.6821  -19.7875  -38.8373 N   0  0  0  0  0  0  0  0  0  0  0  0
    3.7439  -20.5018  -39.2011 N   0  0  0  0  0  0  0  0  0  0  0  0
    4.9154  -20.4224  -38.5565 C   0  0  0  0  0  0  0  0  0  0  0  0
    5.7999  -21.2524  -39.1433 N   0  0  0  0  0  0  0  0  0  0  0  0
    5.1720  -21.8328  -40.1368 N   0  0  0  0  0  0  0  0  0  0  0  0
    3.9049  -21.3909  -40.1980 C   0  0  0  0  0  0  0  0  0  0  0  0
    4.9863  -19.5530  -37.4738 C   0  0  0  0  0  0  0  0  0  0  0  0
    3.8906  -18.8146  -37.0968 C   0  0  0  0  0  0  0  0  0  0  0  0
  1  2  1  0  0  0
  2  3  2  0  0  0
  2  7  1  0  0  0
  3  4  1  0  0  0
  3 11  1  0  0  0
  4  5  2  0  0  0
  4  8  1  0  0  0
  5  6  1  0  0  0
  6  7  2  0  0  0
  8  9  1  0  0  0
  9 10  1  0  0  0
  9 12  1  0  0  0
 10 11  1  0  0  0
 12 13  2  0  0  0
 12 14  1  0  0  0
 14 15  1  0  0  0
 15 16  1  0  0  0
 16 17  2  0  0  0
 16 24  1  0  0  0
 17 18  1  0  0  0
 18 19  1  0  0  0
 18 22  1  0  0  0
 19 20  2  0  0  0
 19 23  1  0  0  0
 20 21  1  0  0  0
 21 22  2  0  0  0
 23 24  2  0  0  0
M  END
> <minimizedAffinity>
-7.12144

$$$$
1852


 26 29  0  0  0  0  0  0  0  0999 V2000
    0.8607  -13.9624  -37.8313 S   0  0  0  0  0  0  0  0  0  0  0  0
   -0.2866  -13.1820  -37.2853 O   0  0  0  0  0  0  0  0  0  0  0  0
    0.4465  -14.5832  -39.1396 O   0  0  0  0  0  0  0  0  0  0  0  0
    2.2178  -12.8982  -38.1176 C   0  0  0  0  0  0  0  0  0  0  0  0
    2.7350  -12.7512  -39.3893 C   0  0  0  0  0  0  0  0  0  0  0  0
    3.8079  -11.9224  -39.6692 C   0  0  0  0  0  0  0  0  0  0  0  0
    4.4025  -11.2006  -38.6504 C   0  0  0  0  0  0  0  0  0  0  0  0
    3.8828  -11.3512  -37.3904 C   0  0  0  0  0  0  0  0  0  0  0  0
    2.8148  -12.1754  -37.1078 C   0  0  0  0  0  0  0  0  0  0  0  0
    5.4726  -10.3820  -38.9750 O   0  0  0  0  0  0  0  0  0  0  0  0
    6.3074  -10.5974  -40.0991 C   0  0  0  0  0  0  0  0  0  0  0  0
    5.5953  -11.2617  -41.2474 C   0  0  0  0  0  0  0  0  0  0  0  0
    4.3315  -11.7679  -40.9319 O   0  0  0  0  0  0  0  0  0  0  0  0
    1.2704  -15.2431  -36.7564 N   0  0  0  0  0  0  0  0  0  0  0  0
    1.8976  -16.3407  -37.4228 C   0  0  0  0  0  0  0  0  0  0  0  0
    1.1870  -17.6099  -36.9851 C   0  0  0  0  0  0  0  0  0  0  0  0
   -0.1963  -17.0895  -36.6530 C   0  0  0  0  0  0  0  0  0  0  0  0
    0.1507  -15.7371  -36.0195 C   0  0  0  0  0  0  0  0  0  0  0  0
    1.0829  -18.4562  -38.1176 O   0  0  0  0  0  0  0  0  0  0  0  0
    2.1341  -19.2557  -38.5369 C   0  0  0  0  0  0  0  0  0  0  0  0
    2.3275  -19.3260  -39.8857 N   0  0  0  0  0  0  0  0  0  0  0  0
    3.3399  -20.0932  -40.3221 C   0  0  0  0  0  0  0  0  0  0  0  0
    4.1648  -20.7925  -39.4641 C   0  0  0  0  0  0  0  0  0  0  0  0
    3.9214  -20.6836  -38.1083 C   0  0  0  0  0  0  0  0  0  0  0  0
    2.9040  -19.9113  -37.6703 N   0  0  0  0  0  0  0  0  0  0  0  0
    5.4810  -21.7903  -40.0476 Cl  0  0  0  0  0  0  0  0  0  0  0  0
  1  2  2  0  0  0
  1  3  2  0  0  0
  1 14  1  0  0  0
  1  4  1  0  0  0
 14 15  1  0  0  0
 14 18  1  0  0  0
 15 16  1  0  0  0
 16 17  1  0  0  0
 16 19  1  0  0  0
 17 18  1  0  0  0
 19 20  1  0  0  0
 20 21  2  0  0  0
 20 25  1  0  0  0
 21 22  1  0  0  0
 22 23  2  0  0  0
 23 24  1  0  0  0
 23 26  1  0  0  0
 24 25  2  0  0  0
  4  5  2  0  0  0
  4  9  1  0  0  0
  5  6  1  0  0  0
  6  7  2  0  0  0
  6 13  1  0  0  0
  7  8  1  0  0  0
  7 10  1  0  0  0
  8  9  2  0  0  0
 10 11  1  0  0  0
 11 12  1  0  0  0
 12 13  1  0  0  0
M  END
> <minimizedAffinity>
-6.11806

$$$$
1856


 31 34  0  0  0  0  0  0  0  0999 V2000
    1.1271  -18.0939  -37.4801 C   0  0  0  0  0  0  0  0  0  0  0  0
    0.1693  -18.7877  -38.1142 N   0  0  0  0  0  0  0  0  0  0  0  0
    0.4068  -19.8949  -38.8658 C   0  0  0  0  0  0  0  0  0  0  0  0
    1.7116  -20.2696  -38.9398 N   0  0  0  0  0  0  0  0  0  0  0  0
    2.7118  -19.6161  -38.3288 C   0  0  0  0  0  0  0  0  0  0  0  0
    2.3986  -18.5441  -37.6124 N   0  0  0  0  0  0  0  0  0  0  0  0
    4.0481  -20.0629  -38.4492 N   0  0  0  0  0  0  0  0  0  0  0  0
    5.1655  -19.1691  -38.6757 C   0  0  0  0  0  0  0  0  0  0  0  0
    6.4173  -19.7469  -38.0518 C   0  0  0  0  0  0  0  0  0  0  0  0
    6.7268  -21.0035  -38.4990 O   0  0  0  0  0  0  0  0  0  0  0  0
    5.6819  -21.6362  -39.1602 C   0  0  0  0  0  0  0  0  0  0  0  0
    4.3972  -21.4836  -38.3509 C   0  0  0  0  0  0  0  0  0  0  0  0
   -0.6220  -20.6005  -39.5180 N   0  0  0  0  0  0  0  0  0  0  0  0
   -0.6016  -20.7695  -40.9401 C   0  0  0  0  0  0  0  0  0  0  0  0
   -0.7377  -22.2574  -41.2160 C   0  0  0  0  0  0  0  0  0  0  0  0
   -1.9449  -22.6703  -40.6319 O   0  0  0  0  0  0  0  0  0  0  0  0
   -1.8479  -22.6210  -39.2411 C   0  0  0  0  0  0  0  0  0  0  0  0
   -1.7111  -21.1647  -38.7800 C   0  0  0  0  0  0  0  0  0  0  0  0
    0.8275  -16.9418  -36.7057 N   0  0  0  0  0  0  0  0  0  0  0  0
    0.0528  -16.9455  -36.0133 H   0  0  0  0  0  0  0  0  0  0  0  0
    1.3825  -15.0603  -37.9423 C   0  0  0  0  0  0  0  0  0  0  0  0
    1.5626  -15.7646  -36.8460 N   0  0  0  0  0  0  0  0  0  0  0  0
    4.2446  -12.0518  -41.2527 Br  0  0  0  0  0  0  0  0  0  0  0  0
    3.4293  -12.4124  -39.5663 C   0  0  0  0  0  0  0  0  0  0  0  0
    2.7263  -13.5638  -39.3723 C   0  0  0  0  0  0  0  0  0  0  0  0
    2.1286  -13.8259  -38.1298 C   0  0  0  0  0  0  0  0  0  0  0  0
    2.2667  -12.9041  -37.1278 C   0  0  0  0  0  0  0  0  0  0  0  0
    2.9920  -11.7195  -37.3347 C   0  0  0  0  0  0  0  0  0  0  0  0
    3.5677  -11.4855  -38.5574 C   0  0  0  0  0  0  0  0  0  0  0  0
    1.7000  -13.1090  -35.8853 O   0  0  0  0  0  0  0  0  0  0  0  0
    1.1650  -13.9134  -35.6298 H   0  0  0  0  0  0  0  0  0  0  0  0
 23 24  1  0  0  0
 24 25  2  0  0  0
 24 29  1  0  0  0
 25 26  1  0  0  0
 26 27  2  0  0  0
 26 21  1  0  0  0
 27 28  1  0  0  0
 27 30  1  0  0  0
 28 29  2  0  0  0
 21 22  2  0  0  0
 22 19  1  0  0  0
 19  1  1  0  0  0
  1  2  2  0  0  0
  1  6  1  0  0  0
  2  3  1  0  0  0
  3  4  2  0  0  0
  3 13  1  0  0  0
  4  5  1  0  0  0
  5  6  2  0  0  0
  5  7  1  0  0  0
  7  8  1  0  0  0
  7 12  1  0  0  0
  8  9  1  0  0  0
  9 10  1  0  0  0
 10 11  1  0  0  0
 11 12  1  0  0  0
 13 14  1  0  0  0
 13 18  1  0  0  0
 14 15  1  0  0  0
 15 16  1  0  0  0
 16 17  1  0  0  0
 17 18  1  0  0  0
 30 31  1  0  0  0
 19 20  1  0  0  0
M  END
> <minimizedAffinity>
-6.64965

$$$$
1863


 33 36  0  0  0  0  0  0  0  0999 V2000
    1.7247  -19.1971  -38.4688 N   0  0  0  0  0  0  0  0  0  0  0  0
    2.9444  -19.7553  -38.7011 C   0  0  0  0  0  0  0  0  0  0  0  0
    2.8145  -20.6055  -39.7675 C   0  0  0  0  0  0  0  0  0  0  0  0
    1.5376  -20.5364  -40.1417 N   0  0  0  0  0  0  0  0  0  0  0  0
    0.8438  -19.6732  -39.3524 C   0  0  0  0  0  0  0  0  0  0  0  0
    3.8967  -21.2905  -40.1758 N   0  0  0  0  0  0  0  0  0  0  0  0
    5.1006  -21.1585  -39.5565 C   0  0  0  0  0  0  0  0  0  0  0  0
    6.1295  -21.8022  -39.9353 O   0  0  0  0  0  0  0  0  0  0  0  0
    5.2581  -20.3334  -38.5077 N   0  0  0  0  0  0  0  0  0  0  0  0
    4.1899  -19.6417  -38.0877 C   0  0  0  0  0  0  0  0  0  0  0  0
    4.3691  -18.8840  -37.1082 O   0  0  0  0  0  0  0  0  0  0  0  0
    3.8099  -22.1993  -41.2886 C   0  0  0  0  0  0  0  0  0  0  0  0
    6.2023  -20.2324  -38.0263 H   0  0  0  0  0  0  0  0  0  0  0  0
   -0.5698  -19.4124  -39.4766 N   0  0  0  0  0  0  0  0  0  0  0  0
   -1.4289  -20.5524  -39.2542 C   0  0  0  0  0  0  0  0  0  0  0  0
   -2.8989  -20.2234  -39.3072 C   0  0  0  0  0  0  0  0  0  0  0  0
   -3.1130  -19.0566  -38.5313 N   0  0  0  0  0  0  0  0  0  0  0  0
   -2.4640  -17.9147  -39.0834 C   0  0  0  0  0  0  0  0  0  0  0  0
   -1.1663  -18.1607  -39.7950 C   0  0  0  0  0  0  0  0  0  0  0  0
   -2.8163  -19.2965  -37.1541 C   0  0  0  0  0  0  0  0  0  0  0  0
   -2.9113  -18.0826  -36.2913 C   0  0  0  0  0  0  0  0  0  0  0  0
   -3.9529  -17.4319  -36.1129 O   0  0  0  0  0  0  0  0  0  0  0  0
   -1.6852  -17.6930  -35.6564 N   0  0  0  0  0  0  0  0  0  0  0  0
   -0.9633  -17.1263  -36.1560 H   0  0  0  0  0  0  0  0  0  0  0  0
   -1.5220  -17.9804  -34.6939 H   0  0  0  0  0  0  0  0  0  0  0  0
    1.4881  -18.2351  -37.4449 C   0  0  0  0  0  0  0  0  0  0  0  0
    1.1983  -13.2367  -35.9415 Cl  0  0  0  0  0  0  0  0  0  0  0  0
    1.4464  -14.4853  -37.1590 C   0  0  0  0  0  0  0  0  0  0  0  0
    1.3840  -15.8232  -36.8884 C   0  0  0  0  0  0  0  0  0  0  0  0
    1.5902  -16.8119  -37.8625 C   0  0  0  0  0  0  0  0  0  0  0  0
    1.8613  -16.3939  -39.1298 C   0  0  0  0  0  0  0  0  0  0  0  0
    1.9249  -15.0368  -39.4096 C   0  0  0  0  0  0  0  0  0  0  0  0
    1.7208  -14.0712  -38.4446 C   0  0  0  0  0  0  0  0  0  0  0  0
 27 28  1  0  0  0
 28 29  2  0  0  0
 28 33  1  0  0  0
 29 30  1  0  0  0
 30 31  2  0  0  0
 30 26  1  0  0  0
 31 32  1  0  0  0
 32 33  2  0  0  0
 26  1  1  0  0  0
  1  2  1  0  0  0
  1  5  1  0  0  0
  2  3  2  0  0  0
  2 10  1  0  0  0
  3  4  1  0  0  0
  3  6  1  0  0  0
  4  5  2  0  0  0
  5 14  1  0  0  0
 14 15  1  0  0  0
 14 19  1  0  0  0
 15 16  1  0  0  0
 16 17  1  0  0  0
 17 18  1  0  0  0
 17 20  1  0  0  0
 18 19  1  0  0  0
 20 21  1  0  0  0
 21 22  2  0  0  0
 21 23  1  0  0  0
  6  7  1  0  0  0
  6 12  1  0  0  0
  7  8  2  0  0  0
  7  9  1  0  0  0
  9 10  1  0  0  0
 10 11  2  0  0  0
 23 24  1  0  0  0
 23 25  1  0  0  0
  9 13  1  0  0  0
M  END
> <minimizedAffinity>
-6.51507

$$$$
1865


 29 32  0  0  0  0  0  0  0  0999 V2000
   -0.2817  -17.4127  -36.9360 N   0  0  0  0  0  0  0  0  0  0  0  0
   -1.6159  -17.8798  -36.6852 C   0  0  0  0  0  0  0  0  0  0  0  0
   -2.2594  -17.6923  -35.6003 O   0  0  0  0  0  0  0  0  0  0  0  0
   -2.0892  -18.5743  -37.8362 N   0  0  0  0  0  0  0  0  0  0  0  0
   -0.9056  -18.9648  -38.5692 C   0  0  0  0  0  0  0  0  0  0  0  0
   -0.3461  -20.1959  -37.8812 C   0  0  0  0  0  0  0  0  0  0  0  0
    1.0942  -20.3306  -38.3620 C   0  0  0  0  0  0  0  0  0  0  0  0
    1.1492  -20.2080  -39.8063 N   0  0  0  0  0  0  0  0  0  0  0  0
   -0.0726  -20.1268  -40.5623 C   0  0  0  0  0  0  0  0  0  0  0  0
   -1.1133  -19.2142  -40.0013 C   0  0  0  0  0  0  0  0  0  0  0  0
    2.4063  -20.1744  -40.4637 C   0  0  0  0  0  0  0  0  0  0  0  0
    2.4479  -20.0619  -41.7307 O   0  0  0  0  0  0  0  0  0  0  0  0
    0.0205  -17.8472  -38.2591 C   0  0  0  0  0  0  0  0  0  0  0  0
    0.9232  -17.3264  -38.9681 O   0  0  0  0  0  0  0  0  0  0  0  0
   -3.0750  -18.7637  -38.0971 H   0  0  0  0  0  0  0  0  0  0  0  0
    3.6784  -20.2633  -39.7676 C   0  0  0  0  0  0  0  0  0  0  0  0
    4.2776  -19.1939  -39.2080 N   0  0  0  0  0  0  0  0  0  0  0  0
    5.4556  -19.3485  -38.5788 C   0  0  0  0  0  0  0  0  0  0  0  0
    6.0863  -20.5702  -38.4790 C   0  0  0  0  0  0  0  0  0  0  0  0
    5.4931  -21.6373  -39.0349 N   0  0  0  0  0  0  0  0  0  0  0  0
    4.3009  -21.4860  -39.6726 C   0  0  0  0  0  0  0  0  0  0  0  0
    0.5826  -16.6637  -36.0540 C   0  0  0  0  0  0  0  0  0  0  0  0
    3.1448  -12.2017  -37.0456 Cl  0  0  0  0  0  0  0  0  0  0  0  0
    1.6800  -13.1218  -36.7649 C   0  0  0  0  0  0  0  0  0  0  0  0
    1.6831  -14.4806  -36.5274 C   0  0  0  0  0  0  0  0  0  0  0  0
    0.5360  -15.2078  -36.3063 C   0  0  0  0  0  0  0  0  0  0  0  0
   -0.6837  -14.5711  -36.3188 C   0  0  0  0  0  0  0  0  0  0  0  0
   -0.7062  -13.2079  -36.5560 C   0  0  0  0  0  0  0  0  0  0  0  0
    0.4518  -12.4909  -36.7761 C   0  0  0  0  0  0  0  0  0  0  0  0
 23 24  1  0  0  0
 24 25  2  0  0  0
 24 29  1  0  0  0
 25 26  1  0  0  0
 26 27  2  0  0  0
 26 22  1  0  0  0
 27 28  1  0  0  0
 28 29  2  0  0  0
 22  1  1  0  0  0
  1  2  1  0  0  0
  1 13  1  0  0  0
  2  3  2  0  0  0
  2  4  1  0  0  0
  4  5  1  0  0  0
  5  6  1  0  0  0
  5 10  1  0  0  0
  5 13  1  0  0  0
  6  7  1  0  0  0
  7  8  1  0  0  0
  8  9  1  0  0  0
  8 11  1  0  0  0
  9 10  1  0  0  0
 11 12  2  0  0  0
 11 16  1  0  0  0
 16 17  2  0  0  0
 16 21  1  0  0  0
 17 18  1  0  0  0
 18 19  2  0  0  0
 19 20  1  0  0  0
 20 21  2  0  0  0
 13 14  2  0  0  0
  4 15  1  0  0  0
M  END
> <minimizedAffinity>
-6.65197

$$$$
1871


 28 31  0  0  0  0  0  0  0  0999 V2000
    0.5874  -16.0804  -36.7146 C   0  0  0  0  0  0  0  0  0  0  0  0
    0.6000  -17.3407  -37.3481 N   0  0  0  0  0  0  0  0  0  0  0  0
   -0.4557  -17.4435  -38.2644 C   0  0  0  0  0  0  0  0  0  0  0  0
   -1.0430  -18.3039  -39.0593 C   0  0  0  0  0  0  0  0  0  0  0  0
   -2.1933  -17.9263  -39.8881 C   0  0  0  0  0  0  0  0  0  0  0  0
   -2.5019  -16.5213  -40.1236 C   0  0  0  0  0  0  0  0  0  0  0  0
   -1.6545  -15.5356  -39.3583 C   0  0  0  0  0  0  0  0  0  0  0  0
   -1.0840  -16.1318  -38.2034 N   0  0  0  0  0  0  0  0  0  0  0  0
   -0.9182  -15.7757  -36.8000 C   0  0  0  0  0  0  0  0  0  0  0  0
   -1.3025  -14.3760  -36.5606 C   0  0  0  0  0  0  0  0  0  0  0  0
    0.8545  -16.2263  -35.3727 O   0  0  0  0  0  0  0  0  0  0  0  0
    0.2030  -17.9972  -36.5343 H   0  0  0  0  0  0  0  0  0  0  0  0
    1.2849  -15.4762  -34.9229 H   0  0  0  0  0  0  0  0  0  0  0  0
    3.6190  -11.5393  -39.1859 Cl  0  0  0  0  0  0  0  0  0  0  0  0
    2.7403  -12.8522  -38.4248 C   0  0  0  0  0  0  0  0  0  0  0  0
    2.4382  -12.8420  -37.0702 C   0  0  0  0  0  0  0  0  0  0  0  0
    1.7351  -13.9228  -36.5413 C   0  0  0  0  0  0  0  0  0  0  0  0
    1.3405  -14.9821  -37.3156 C   0  0  0  0  0  0  0  0  0  0  0  0
    1.6400  -14.9972  -38.6668 C   0  0  0  0  0  0  0  0  0  0  0  0
    2.3364  -13.9274  -39.1918 C   0  0  0  0  0  0  0  0  0  0  0  0
    1.8311  -17.9521  -37.5624 C   0  0  0  0  0  0  0  0  0  0  0  0
    2.1180  -18.3589  -38.8551 C   0  0  0  0  0  0  0  0  0  0  0  0
    3.2924  -18.9844  -39.1973 C   0  0  0  0  0  0  0  0  0  0  0  0
    4.2876  -19.2535  -38.2521 C   0  0  0  0  0  0  0  0  0  0  0  0
    3.9766  -18.8411  -36.9801 C   0  0  0  0  0  0  0  0  0  0  0  0
    2.8005  -18.2163  -36.6459 C   0  0  0  0  0  0  0  0  0  0  0  0
    5.4665  -19.8795  -38.6083 O   0  0  0  0  0  0  0  0  0  0  0  0
    5.4697  -21.2624  -38.8584 C   0  0  0  0  0  0  0  0  0  0  0  0
 14 15  1  0  0  0
 15 16  2  0  0  0
 15 20  1  0  0  0
 16 17  1  0  0  0
 17 18  2  0  0  0
 18 19  1  0  0  0
 18  1  1  0  0  0
 19 20  2  0  0  0
  1  2  1  0  0  0
  1  9  1  0  0  0
  1 11  1  0  0  0
  2  3  1  0  0  0
  2 21  1  0  0  0
  3  4  2  0  0  0
  3  8  1  0  0  0
  4  5  1  0  0  0
  5  6  1  0  0  0
  6  7  1  0  0  0
  7  8  1  0  0  0
  8  9  1  0  0  0
  9 10  1  0  0  0
 21 22  2  0  0  0
 21 26  1  0  0  0
 22 23  1  0  0  0
 23 24  2  0  0  0
 24 25  1  0  0  0
 24 27  1  0  0  0
 25 26  2  0  0  0
 27 28  1  0  0  0
  2 12  1  0  0  0
 11 13  1  0  0  0
M  CHG 1   2   1
M  END
> <minimizedAffinity>
-6.87542

$$$$
1893


 28 31  0  0  0  0  0  0  0  0999 V2000
    3.1421  -18.6944  -38.5144 N   0  0  0  0  0  0  0  0  0  0  0  0
    2.5239  -17.5344  -38.8379 C   0  0  0  0  0  0  0  0  0  0  0  0
    2.3693  -17.1261  -40.0187 O   0  0  0  0  0  0  0  0  0  0  0  0
    2.0920  -16.8693  -37.7026 C   0  0  0  0  0  0  0  0  0  0  0  0
    2.4493  -17.6274  -36.6782 C   0  0  0  0  0  0  0  0  0  0  0  0
    2.0269  -16.9763  -35.5737 N   0  0  0  0  0  0  0  0  0  0  0  0
    1.4247  -15.8388  -35.9464 N   0  0  0  0  0  0  0  0  0  0  0  0
    1.4606  -15.7644  -37.2669 N   0  0  0  0  0  0  0  0  0  0  0  0
    3.0913  -18.7439  -37.1721 C   0  0  0  0  0  0  0  0  0  0  0  0
    3.5495  -19.6557  -36.4488 O   0  0  0  0  0  0  0  0  0  0  0  0
    2.1533  -17.3085  -34.5999 H   0  0  0  0  0  0  0  0  0  0  0  0
    0.9903  -15.1112  -35.3401 H   0  0  0  0  0  0  0  0  0  0  0  0
    5.5797  -22.6259  -42.2749 Cl  0  0  0  0  0  0  0  0  0  0  0  0
    4.8286  -21.4765  -41.1619 C   0  0  0  0  0  0  0  0  0  0  0  0
    3.5103  -21.6174  -40.7816 C   0  0  0  0  0  0  0  0  0  0  0  0
    2.9780  -20.6868  -39.9081 C   0  0  0  0  0  0  0  0  0  0  0  0
    3.7088  -19.6305  -39.4056 C   0  0  0  0  0  0  0  0  0  0  0  0
    5.0247  -19.5237  -39.8091 C   0  0  0  0  0  0  0  0  0  0  0  0
    5.6020  -20.4370  -40.6866 C   0  0  0  0  0  0  0  0  0  0  0  0
    0.9237  -14.7027  -38.0915 C   0  0  0  0  0  0  0  0  0  0  0  0
    1.9479  -13.7086  -38.4980 C   0  0  0  0  0  0  0  0  0  0  0  0
    2.4790  -12.7575  -37.6557 C   0  0  0  0  0  0  0  0  0  0  0  0
    3.4326  -11.8351  -38.0377 C   0  0  0  0  0  0  0  0  0  0  0  0
    3.8886  -11.8537  -39.3336 C   0  0  0  0  0  0  0  0  0  0  0  0
    3.3856  -12.7871  -40.2094 C   0  0  0  0  0  0  0  0  0  0  0  0
    2.4290  -13.7011  -39.7995 C   0  0  0  0  0  0  0  0  0  0  0  0
    3.9061  -10.9090  -37.0999 O   0  0  0  0  0  0  0  0  0  0  0  0
    4.0209   -9.5354  -37.4119 C   0  0  0  0  0  0  0  0  0  0  0  0
 13 14  1  0  0  0
 14 15  2  0  0  0
 14 19  1  0  0  0
 15 16  1  0  0  0
 16 17  2  0  0  0
 17 18  1  0  0  0
 17  1  1  0  0  0
 18 19  2  0  0  0
  1  2  1  0  0  0
  1  9  1  0  0  0
  2  3  2  0  0  0
  2  4  1  0  0  0
  4  5  2  0  0  0
  4  8  1  0  0  0
  5  6  1  0  0  0
  5  9  1  0  0  0
  6  7  1  0  0  0
  7  8  1  0  0  0
  8 20  1  0  0  0
 20 21  1  0  0  0
 21 22  2  0  0  0
 21 26  1  0  0  0
 22 23  1  0  0  0
 23 24  2  0  0  0
 23 27  1  0  0  0
 24 25  1  0  0  0
 25 26  2  0  0  0
 27 28  1  0  0  0
  9 10  2  0  0  0
  6 11  1  0  0  0
  7 12  1  0  0  0
M  END
> <minimizedAffinity>
-6.96848

$$$$
1894


 26 29  0  0  0  0  0  0  0  0999 V2000
    3.1078  -18.7063  -38.5968 N   0  0  0  0  0  0  0  0  0  0  0  0
    2.5201  -17.5280  -38.9040 C   0  0  0  0  0  0  0  0  0  0  0  0
    2.3800  -17.0984  -40.0683 O   0  0  0  0  0  0  0  0  0  0  0  0
    2.0998  -16.8703  -37.7603 C   0  0  0  0  0  0  0  0  0  0  0  0
    2.4388  -17.6663  -36.7359 C   0  0  0  0  0  0  0  0  0  0  0  0
    2.0247  -17.0200  -35.6317 N   0  0  0  0  0  0  0  0  0  0  0  0
    1.4574  -15.8775  -35.9733 N   0  0  0  0  0  0  0  0  0  0  0  0
    1.4956  -15.7694  -37.2840 N   0  0  0  0  0  0  0  0  0  0  0  0
    3.0531  -18.7832  -37.2614 C   0  0  0  0  0  0  0  0  0  0  0  0
    3.5013  -19.7436  -36.5770 O   0  0  0  0  0  0  0  0  0  0  0  0
    2.1194  -17.3402  -34.6459 H   0  0  0  0  0  0  0  0  0  0  0  0
    1.0386  -15.1606  -35.3100 H   0  0  0  0  0  0  0  0  0  0  0  0
    5.4788  -22.7154  -42.3959 Cl  0  0  0  0  0  0  0  0  0  0  0  0
    4.7779  -21.5436  -41.2828 C   0  0  0  0  0  0  0  0  0  0  0  0
    5.5294  -20.5054  -40.7744 C   0  0  0  0  0  0  0  0  0  0  0  0
    4.9816  -19.5850  -39.9010 C   0  0  0  0  0  0  0  0  0  0  0  0
    3.6649  -19.6604  -39.4988 C   0  0  0  0  0  0  0  0  0  0  0  0
    2.9190  -20.7045  -40.0146 C   0  0  0  0  0  0  0  0  0  0  0  0
    3.4586  -21.6292  -40.8878 C   0  0  0  0  0  0  0  0  0  0  0  0
    0.9927  -14.6766  -38.0830 C   0  0  0  0  0  0  0  0  0  0  0  0
    2.0087  -13.6475  -38.3918 C   0  0  0  0  0  0  0  0  0  0  0  0
    2.5553  -13.5876  -39.6502 C   0  0  0  0  0  0  0  0  0  0  0  0
    3.5015  -12.6246  -39.9150 C   0  0  0  0  0  0  0  0  0  0  0  0
    3.9074  -11.7249  -38.9458 C   0  0  0  0  0  0  0  0  0  0  0  0
    3.3607  -11.7843  -37.6840 C   0  0  0  0  0  0  0  0  0  0  0  0
    2.4213  -12.7469  -37.4372 C   0  0  0  0  0  0  0  0  0  0  0  0
 13 14  1  0  0  0
 14 15  2  0  0  0
 14 19  1  0  0  0
 15 16  1  0  0  0
 16 17  2  0  0  0
 17 18  1  0  0  0
 17  1  1  0  0  0
 18 19  2  0  0  0
  1  2  1  0  0  0
  1  9  1  0  0  0
  2  3  2  0  0  0
  2  4  1  0  0  0
  4  5  2  0  0  0
  4  8  1  0  0  0
  5  6  1  0  0  0
  5  9  1  0  0  0
  6  7  1  0  0  0
  7  8  1  0  0  0
  8 20  1  0  0  0
 20 21  1  0  0  0
 21 22  2  0  0  0
 21 26  1  0  0  0
 22 23  1  0  0  0
 23 24  2  0  0  0
 24 25  1  0  0  0
 25 26  2  0  0  0
  9 10  2  0  0  0
  6 11  1  0  0  0
  7 12  1  0  0  0
M  END
> <minimizedAffinity>
-7.01088

$$$$
1895


 32 35  0  0  0  0  0  0  0  0999 V2000
    2.1200  -16.0603  -42.5229 N   0  0  0  0  0  0  0  0  0  0  0  0
    1.2935  -16.4596  -41.4512 C   0  0  0  0  0  0  0  0  0  0  0  0
    1.3254  -18.0013  -41.3959 C   0  0  0  0  0  0  0  0  0  0  0  0
    2.6676  -18.2899  -40.9593 N   0  0  0  0  0  0  0  0  0  0  0  0
    3.6793  -17.9071  -41.9684 C   0  0  0  0  0  0  0  0  0  0  0  0
    3.3862  -16.6448  -42.6694 C   0  0  0  0  0  0  0  0  0  0  0  0
    3.1082  -18.8562  -39.7646 C   0  0  0  0  0  0  0  0  0  0  0  0
    4.4212  -18.9650  -39.7012 O   0  0  0  0  0  0  0  0  0  0  0  0
    2.0269  -14.4024  -42.9208 S   0  0  0  0  0  0  0  0  0  0  0  0
    3.0153  -13.9567  -43.9245 O   0  0  0  0  0  0  0  0  0  0  0  0
    0.6407  -14.1262  -43.4522 O   0  0  0  0  0  0  0  0  0  0  0  0
    2.2405  -13.4887  -41.4176 C   0  0  0  0  0  0  0  0  0  0  0  0
    1.1020  -12.6168  -40.4990 S   0  0  0  0  0  0  0  0  0  0  0  0
    2.1207  -12.0655  -39.2515 C   0  0  0  0  0  0  0  0  0  0  0  0
    3.3420  -12.5857  -39.5918 C   0  0  0  0  0  0  0  0  0  0  0  0
    3.3976  -13.3222  -40.7154 C   0  0  0  0  0  0  0  0  0  0  0  0
    1.7044  -11.0627  -37.8531 Cl  0  0  0  0  0  0  0  0  0  0  0  0
    2.4596  -19.3495  -38.5772 C   0  0  0  0  0  0  0  0  0  0  0  0
    2.0563  -18.4066  -37.5788 N   0  0  0  0  0  0  0  0  0  0  0  0
    2.8274  -18.0181  -36.4407 C   0  0  0  0  0  0  0  0  0  0  0  0
    3.9822  -18.4955  -36.1734 O   0  0  0  0  0  0  0  0  0  0  0  0
    2.0914  -17.0549  -35.7175 N   0  0  0  0  0  0  0  0  0  0  0  0
    1.0459  -16.5367  -36.5860 C   0  0  0  0  0  0  0  0  0  0  0  0
   -0.2376  -16.2450  -35.8909 C   0  0  0  0  0  0  0  0  0  0  0  0
   -0.8799  -15.0429  -36.5918 C   0  0  0  0  0  0  0  0  0  0  0  0
   -0.0638  -13.8333  -36.1783 C   0  0  0  0  0  0  0  0  0  0  0  0
    1.4029  -14.1408  -36.3562 C   0  0  0  0  0  0  0  0  0  0  0  0
    1.6187  -15.3255  -37.2867 C   0  0  0  0  0  0  0  0  0  0  0  0
   -1.2500  -17.3644  -35.9673 C   0  0  0  0  0  0  0  0  0  0  0  0
    0.8344  -17.6660  -37.5404 C   0  0  0  0  0  0  0  0  0  0  0  0
   -0.2035  -17.9178  -38.1826 O   0  0  0  0  0  0  0  0  0  0  0  0
    2.2475  -16.7534  -34.7435 H   0  0  0  0  0  0  0  0  0  0  0  0
  9 10  2  0  0  0
  9 11  2  0  0  0
  9  1  1  0  0  0
  9 12  1  0  0  0
  1  2  1  0  0  0
  1  6  1  0  0  0
  2  3  1  0  0  0
  3  4  1  0  0  0
  4  5  1  0  0  0
  4  7  1  0  0  0
  5  6  1  0  0  0
  7  8  2  0  0  0
  7 18  1  0  0  0
 18 19  1  0  0  0
 19 20  1  0  0  0
 19 30  1  0  0  0
 20 21  2  0  0  0
 20 22  1  0  0  0
 22 23  1  0  0  0
 23 24  1  0  0  0
 23 28  1  0  0  0
 23 30  1  0  0  0
 24 25  1  0  0  0
 24 29  1  0  0  0
 25 26  1  0  0  0
 26 27  1  0  0  0
 27 28  1  0  0  0
 30 31  2  0  0  0
 12 13  1  0  0  0
 12 16  2  0  0  0
 13 14  1  0  0  0
 14 15  2  0  0  0
 14 17  1  0  0  0
 15 16  1  0  0  0
 22 32  1  0  0  0
M  END
> <minimizedAffinity>
-6.09822

$$$$
1906


 33 36  0  0  0  0  0  0  0  0999 V2000
    1.4837  -16.2946  -39.6643 C   0  0  0  0  0  0  0  0  0  0  0  0
    0.0833  -16.2381  -39.7148 O   0  0  0  0  0  0  0  0  0  0  0  0
   -0.4546  -16.5339  -40.9373 C   0  0  0  0  0  0  0  0  0  0  0  0
   -0.3368  -17.9930  -41.3288 C   0  0  0  0  0  0  0  0  0  0  0  0
    1.0104  -18.3845  -40.8397 N   0  0  0  0  0  0  0  0  0  0  0  0
    1.9276  -17.3170  -40.7268 C   0  0  0  0  0  0  0  0  0  0  0  0
    1.2362  -19.7141  -40.5503 C   0  0  0  0  0  0  0  0  0  0  0  0
    0.2876  -20.5890  -40.7078 O   0  0  0  0  0  0  0  0  0  0  0  0
    2.4722  -20.2528  -40.0706 C   0  0  0  0  0  0  0  0  0  0  0  0
    2.8462  -20.2259  -38.7913 N   0  0  0  0  0  0  0  0  0  0  0  0
    4.0080  -20.7317  -38.3324 C   0  0  0  0  0  0  0  0  0  0  0  0
    4.8900  -21.3236  -39.2224 C   0  0  0  0  0  0  0  0  0  0  0  0
    4.5521  -21.3695  -40.5008 N   0  0  0  0  0  0  0  0  0  0  0  0
    3.3888  -20.8587  -40.9366 C   0  0  0  0  0  0  0  0  0  0  0  0
    6.1535  -21.8632  -38.6623 C   0  0  0  0  0  0  0  0  0  0  0  0
    1.9651  -14.9601  -40.1576 C   0  0  0  0  0  0  0  0  0  0  0  0
    2.2118  -13.9743  -39.3250 O   0  0  0  0  0  0  0  0  0  0  0  0
    5.6108  -10.2988  -40.2200 Cl  0  0  0  0  0  0  0  0  0  0  0  0
    4.4968  -11.1938  -39.1863 C   0  0  0  0  0  0  0  0  0  0  0  0
    3.7946  -12.2466  -39.7067 C   0  0  0  0  0  0  0  0  0  0  0  0
    2.9214  -12.9598  -38.9261 C   0  0  0  0  0  0  0  0  0  0  0  0
    2.7795  -12.5632  -37.5817 C   0  0  0  0  0  0  0  0  0  0  0  0
    3.4835  -11.5175  -37.0834 C   0  0  0  0  0  0  0  0  0  0  0  0
    4.3564  -10.8080  -37.8662 C   0  0  0  0  0  0  0  0  0  0  0  0
    1.8810  -16.6833  -38.3143 C   0  0  0  0  0  0  0  0  0  0  0  0
    0.9400  -16.4607  -37.2149 C   0  0  0  0  0  0  0  0  0  0  0  0
    0.9023  -15.3705  -36.6138 O   0  0  0  0  0  0  0  0  0  0  0  0
    0.0369  -17.4782  -36.7934 N   0  0  0  0  0  0  0  0  0  0  0  0
    0.0100  -18.7873  -37.4368 C   0  0  0  0  0  0  0  0  0  0  0  0
   -1.4408  -19.1112  -37.7242 C   0  0  0  0  0  0  0  0  0  0  0  0
   -2.1555  -19.0842  -36.5226 O   0  0  0  0  0  0  0  0  0  0  0  0
   -2.2505  -17.7614  -36.0924 C   0  0  0  0  0  0  0  0  0  0  0  0
   -0.8951  -17.2649  -35.7059 C   0  0  0  0  0  0  0  0  0  0  0  0
 18 19  1  0  0  0
 19 20  2  0  0  0
 19 24  1  0  0  0
 20 21  1  0  0  0
 21 22  2  0  0  0
 21 17  1  0  0  0
 22 23  1  0  0  0
 23 24  2  0  0  0
 17 16  1  0  0  0
 16  1  1  0  0  0
  1  2  1  0  0  0
  1  6  1  0  0  0
  1 25  1  0  0  0
  2  3  1  0  0  0
  3  4  1  0  0  0
  4  5  1  0  0  0
  5  6  1  0  0  0
  5  7  1  0  0  0
  7  8  2  0  0  0
  7  9  1  0  0  0
  9 10  2  0  0  0
  9 14  1  0  0  0
 10 11  1  0  0  0
 11 12  2  0  0  0
 12 13  1  0  0  0
 12 15  1  0  0  0
 13 14  2  0  0  0
 25 26  1  0  0  0
 26 27  2  0  0  0
 26 28  1  0  0  0
 28 29  1  0  0  0
 28 33  1  0  0  0
 29 30  1  0  0  0
 30 31  1  0  0  0
 31 32  1  0  0  0
 32 33  1  0  0  0
M  END
> <minimizedAffinity>
-6.51925

$$$$
1913


 29 32  0  0  0  0  0  0  0  0999 V2000
    1.6569  -17.8457  -37.7699 N   0  0  0  0  0  0  0  0  0  0  0  0
    2.3306  -17.2521  -36.6378 C   0  0  0  0  0  0  0  0  0  0  0  0
    1.4246  -17.0171  -35.4592 C   0  0  0  0  0  0  0  0  0  0  0  0
    0.1489  -16.4073  -35.9268 C   0  0  0  0  0  0  0  0  0  0  0  0
   -0.5745  -17.3637  -36.8110 C   0  0  0  0  0  0  0  0  0  0  0  0
    0.2466  -18.0801  -37.8193 C   0  0  0  0  0  0  0  0  0  0  0  0
    3.1380  -16.8451  -42.5238 Cl  0  0  0  0  0  0  0  0  0  0  0  0
    3.1656  -17.8212  -41.0919 C   0  0  0  0  0  0  0  0  0  0  0  0
    3.9108  -18.9275  -41.0535 N   0  0  0  0  0  0  0  0  0  0  0  0
    3.9680  -19.7157  -39.9763 C   0  0  0  0  0  0  0  0  0  0  0  0
    4.6302  -20.8353  -39.7127 N   0  0  0  0  0  0  0  0  0  0  0  0
    4.2945  -21.1607  -38.4576 C   0  0  0  0  0  0  0  0  0  0  0  0
    3.4413  -20.2778  -37.9224 N   0  0  0  0  0  0  0  0  0  0  0  0
    3.2078  -19.3435  -38.8582 C   0  0  0  0  0  0  0  0  0  0  0  0
    2.4390  -18.2105  -38.8851 C   0  0  0  0  0  0  0  0  0  0  0  0
    2.4395  -17.4639  -40.0286 N   0  0  0  0  0  0  0  0  0  0  0  0
    3.0172  -20.2727  -36.9651 H   0  0  0  0  0  0  0  0  0  0  0  0
    0.3318  -15.0668  -36.4856 C   0  0  0  0  0  0  0  0  0  0  0  0
   -0.4831  -14.6629  -37.3508 O   0  0  0  0  0  0  0  0  0  0  0  0
    1.3800  -14.2059  -36.1002 N   0  0  0  0  0  0  0  0  0  0  0  0
    2.0688  -14.5465  -35.3680 H   0  0  0  0  0  0  0  0  0  0  0  0
    1.5726  -12.8812  -36.6432 C   0  0  0  0  0  0  0  0  0  0  0  0
    2.0806  -12.8768  -38.0563 C   0  0  0  0  0  0  0  0  0  0  0  0
    3.4341  -12.3554  -38.1230 N   0  0  0  0  0  0  0  0  0  0  0  0
    3.7613  -11.5102  -37.0246 C   0  0  0  0  0  0  0  0  0  0  0  0
    3.8648  -10.0678  -37.4779 C   0  0  0  0  0  0  0  0  0  0  0  0
    4.9066   -9.9813  -38.3674 O   0  0  0  0  0  0  0  0  0  0  0  0
    4.8630  -10.8383  -39.4347 C   0  0  0  0  0  0  0  0  0  0  0  0
    3.7875  -11.8681  -39.4077 C   0  0  0  0  0  0  0  0  0  0  0  0
  7  8  1  0  0  0
  8  9  2  0  0  0
  8 16  1  0  0  0
  9 10  1  0  0  0
 10 11  1  0  0  0
 10 14  2  0  0  0
 11 12  2  0  0  0
 12 13  1  0  0  0
 13 14  1  0  0  0
 14 15  1  0  0  0
 15 16  2  0  0  0
 15  1  1  0  0  0
  1  2  1  0  0  0
  1  6  1  0  0  0
  2  3  1  0  0  0
  3  4  1  0  0  0
  4  5  1  0  0  0
  4 18  1  0  0  0
  5  6  1  0  0  0
 18 19  2  0  0  0
 18 20  1  0  0  0
 20 22  1  0  0  0
 22 23  1  0  0  0
 23 24  1  0  0  0
 24 25  1  0  0  0
 24 29  1  0  0  0
 25 26  1  0  0  0
 26 27  1  0  0  0
 27 28  1  0  0  0
 28 29  1  0  0  0
 13 17  1  0  0  0
 20 21  1  0  0  0
M  END
> <minimizedAffinity>
-5.99447

$$$$
1927


 36 39  0  0  0  0  0  0  0  0999 V2000
   -1.3969  -18.0988  -37.1474 C   0  0  0  0  0  0  0  0  0  0  0  0
    1.4147  -13.6947  -37.0366 C   0  0  0  0  0  0  0  0  0  0  0  0
    1.6578  -15.1765  -37.3132 C   0  0  0  0  0  0  0  0  0  0  0  0
    0.7671  -15.8820  -36.3114 C   0  0  0  0  0  0  0  0  0  0  0  0
   -0.6003  -15.6720  -36.6336 N   0  0  0  0  0  0  0  0  0  0  0  0
   -1.0393  -14.2535  -36.7008 C   0  0  0  0  0  0  0  0  0  0  0  0
   -0.0066  -13.3275  -37.2474 C   0  0  0  0  0  0  0  0  0  0  0  0
   -1.5426  -16.6563  -36.9009 C   0  0  0  0  0  0  0  0  0  0  0  0
   -2.7888  -16.2599  -36.9374 O   0  0  0  0  0  0  0  0  0  0  0  0
    1.6633  -13.5815  -35.6314 O   0  0  0  0  0  0  0  0  0  0  0  0
    1.0053  -12.9288  -35.2853 H   0  0  0  0  0  0  0  0  0  0  0  0
    5.5846  -10.5739  -40.1620 Cl  0  0  0  0  0  0  0  0  0  0  0  0
    4.3543  -11.4621  -39.2257 C   0  0  0  0  0  0  0  0  0  0  0  0
    3.5904  -12.4423  -39.8117 C   0  0  0  0  0  0  0  0  0  0  0  0
    2.6341  -13.1407  -39.0747 C   0  0  0  0  0  0  0  0  0  0  0  0
    2.4081  -12.8829  -37.7162 C   0  0  0  0  0  0  0  0  0  0  0  0
    3.1909  -11.8971  -37.1648 C   0  0  0  0  0  0  0  0  0  0  0  0
    4.1410  -11.1968  -37.8829 C   0  0  0  0  0  0  0  0  0  0  0  0
   -0.2166  -18.5451  -37.7462 N   0  0  0  0  0  0  0  0  0  0  0  0
    0.0558  -19.8982  -38.1154 C   0  0  0  0  0  0  0  0  0  0  0  0
   -0.8590  -20.7184  -37.8392 O   0  0  0  0  0  0  0  0  0  0  0  0
    0.5411  -17.8706  -38.0362 H   0  0  0  0  0  0  0  0  0  0  0  0
    1.2894  -20.2616  -38.7570 C   0  0  0  0  0  0  0  0  0  0  0  0
    2.5161  -19.9839  -38.4607 C   0  0  0  0  0  0  0  0  0  0  0  0
    2.8906  -19.1811  -37.3388 N   0  0  0  0  0  0  0  0  0  0  0  0
    4.2394  -18.9126  -37.0255 N   0  0  0  0  0  0  0  0  0  0  0  0
    5.2853  -19.4323  -37.8144 C   0  0  0  0  0  0  0  0  0  0  0  0
    6.4818  -19.1692  -37.4965 O   0  0  0  0  0  0  0  0  0  0  0  0
    4.9504  -20.2529  -38.9619 C   0  0  0  0  0  0  0  0  0  0  0  0
    3.6370  -20.5191  -39.2741 C   0  0  0  0  0  0  0  0  0  0  0  0
    3.4046  -21.3223  -40.3536 C   0  0  0  0  0  0  0  0  0  0  0  0
    4.4333  -21.8694  -41.1295 C   0  0  0  0  0  0  0  0  0  0  0  0
    5.7220  -21.5751  -40.7781 C   0  0  0  0  0  0  0  0  0  0  0  0
    6.0097  -20.7599  -39.6863 C   0  0  0  0  0  0  0  0  0  0  0  0
    2.1640  -18.7625  -36.7100 H   0  0  0  0  0  0  0  0  0  0  0  0
    4.4813  -18.3251  -36.1937 H   0  0  0  0  0  0  0  0  0  0  0  0
 12 13  1  0  0  0
 13 14  2  0  0  0
 13 18  1  0  0  0
 14 15  1  0  0  0
 15 16  2  0  0  0
 16 17  1  0  0  0
 16  2  1  0  0  0
 17 18  2  0  0  0
  2  3  1  0  0  0
  2  7  1  0  0  0
  2 10  1  0  0  0
  3  4  1  0  0  0
  4  5  1  0  0  0
  5  6  1  0  0  0
  5  8  1  0  0  0
  6  7  1  0  0  0
  8  9  2  0  0  0
  8  1  1  0  0  0
  1 19  1  0  0  0
 19 20  1  0  0  0
 20 21  2  0  0  0
 20 23  1  0  0  0
 23 24  2  0  0  0
 24 25  1  0  0  0
 24 30  1  0  0  0
 25 26  1  0  0  0
 26 27  1  0  0  0
 27 28  2  0  0  0
 27 29  1  0  0  0
 29 30  2  0  0  0
 29 34  1  0  0  0
 30 31  1  0  0  0
 31 32  2  0  0  0
 32 33  1  0  0  0
 33 34  2  0  0  0
 19 22  1  0  0  0
 25 35  1  0  0  0
 26 36  1  0  0  0
 10 11  1  0  0  0
M  END
> <minimizedAffinity>
-8.84220

$$$$
1928


 28 31  0  0  0  0  0  0  0  0999 V2000
    0.6941  -17.1499  -37.3857 N   0  0  0  0  0  0  0  0  0  0  0  0
    0.0994  -17.8269  -38.3898 C   0  0  0  0  0  0  0  0  0  0  0  0
    0.7302  -18.8833  -38.9962 C   0  0  0  0  0  0  0  0  0  0  0  0
    2.0684  -19.2758  -38.5405 C   0  0  0  0  0  0  0  0  0  0  0  0
    2.4390  -20.3278  -39.3021 N   0  0  0  0  0  0  0  0  0  0  0  0
    1.4780  -20.6070  -40.1589 N   0  0  0  0  0  0  0  0  0  0  0  0
    0.4326  -19.7781  -40.0224 C   0  0  0  0  0  0  0  0  0  0  0  0
   -0.6366  -19.7736  -40.6784 O   0  0  0  0  0  0  0  0  0  0  0  0
    2.6354  -18.5546  -37.5110 C   0  0  0  0  0  0  0  0  0  0  0  0
    1.9088  -17.5219  -36.9870 C   0  0  0  0  0  0  0  0  0  0  0  0
    1.5261  -21.3759  -40.8523 H   0  0  0  0  0  0  0  0  0  0  0  0
    3.9684  -18.9165  -37.0300 C   0  0  0  0  0  0  0  0  0  0  0  0
    4.2310  -18.9009  -35.8194 O   0  0  0  0  0  0  0  0  0  0  0  0
    4.9706  -19.2842  -37.9120 O   0  0  0  0  0  0  0  0  0  0  0  0
    6.3415  -19.2542  -37.5929 C   0  0  0  0  0  0  0  0  0  0  0  0
   -0.0258  -16.0304  -36.7759 C   0  0  0  0  0  0  0  0  0  0  0  0
    2.1742  -13.2306  -37.4797 C   0  0  0  0  0  0  0  0  0  0  0  0
    1.6735  -12.9603  -36.2648 N   0  0  0  0  0  0  0  0  0  0  0  0
    0.8587  -13.9023  -35.8951 O   0  0  0  0  0  0  0  0  0  0  0  0
    0.7995  -14.8084  -36.8401 C   0  0  0  0  0  0  0  0  0  0  0  0
    1.6222  -14.3974  -37.8418 N   0  0  0  0  0  0  0  0  0  0  0  0
    6.0866   -9.7762  -40.4915 Cl  0  0  0  0  0  0  0  0  0  0  0  0
    4.9461  -10.7865  -39.6195 C   0  0  0  0  0  0  0  0  0  0  0  0
    4.2662  -11.8112  -40.2524 C   0  0  0  0  0  0  0  0  0  0  0  0
    3.3718  -12.5953  -39.5485 C   0  0  0  0  0  0  0  0  0  0  0  0
    3.1189  -12.3983  -38.2112 C   0  0  0  0  0  0  0  0  0  0  0  0
    3.7937  -11.3767  -37.5746 C   0  0  0  0  0  0  0  0  0  0  0  0
    4.6932  -10.5844  -38.2702 C   0  0  0  0  0  0  0  0  0  0  0  0
 22 23  1  0  0  0
 23 24  2  0  0  0
 23 28  1  0  0  0
 24 25  1  0  0  0
 25 26  2  0  0  0
 26 27  1  0  0  0
 26 17  1  0  0  0
 27 28  2  0  0  0
 17 18  2  0  0  0
 17 21  1  0  0  0
 18 19  1  0  0  0
 19 20  1  0  0  0
 20 21  2  0  0  0
 20 16  1  0  0  0
 16  1  1  0  0  0
  1  2  1  0  0  0
  1 10  1  0  0  0
  2  3  2  0  0  0
  3  4  1  0  0  0
  3  7  1  0  0  0
  4  5  2  0  0  0
  4  9  1  0  0  0
  5  6  1  0  0  0
  6  7  1  0  0  0
  7  8  2  0  0  0
  9 10  2  0  0  0
  9 12  1  0  0  0
 12 13  2  0  0  0
 12 14  1  0  0  0
 14 15  1  0  0  0
  6 11  1  0  0  0
M  END
> <minimizedAffinity>
-6.87019

$$$$
1930


 34 37  0  0  0  0  0  0  0  0999 V2000
    1.5672  -18.9710  -39.5219 C   0  0  0  0  0  0  0  0  0  0  0  0
    1.1416  -18.8873  -40.7025 O   0  0  0  0  0  0  0  0  0  0  0  0
    2.9455  -19.1322  -39.2895 N   0  0  0  0  0  0  0  0  0  0  0  0
    3.9222  -19.2074  -40.3765 C   0  0  0  0  0  0  0  0  0  0  0  0
    4.5008  -20.6063  -40.3002 C   0  0  0  0  0  0  0  0  0  0  0  0
    5.0681  -20.8816  -38.9274 C   0  0  0  0  0  0  0  0  0  0  0  0
    4.9734  -19.6281  -38.0496 C   0  0  0  0  0  0  0  0  0  0  0  0
    3.5088  -19.2351  -37.9545 C   0  0  0  0  0  0  0  0  0  0  0  0
    4.3137  -21.8536  -38.2259 O   0  0  0  0  0  0  0  0  0  0  0  0
    6.4791  -21.3866  -38.9457 C   0  0  0  0  0  0  0  0  0  0  0  0
    4.8556  -22.0943  -37.4349 H   0  0  0  0  0  0  0  0  0  0  0  0
    5.3606  -20.9492  -41.3774 N   0  0  0  0  0  0  0  0  0  0  0  0
    6.3332  -20.0970  -41.8158 C   0  0  0  0  0  0  0  0  0  0  0  0
    7.1681  -20.4277  -42.8619 C   0  0  0  0  0  0  0  0  0  0  0  0
    7.0239  -21.6472  -43.4855 C   0  0  0  0  0  0  0  0  0  0  0  0
    7.7774  -21.9914  -44.4585 O   0  0  0  0  0  0  0  0  0  0  0  0
    6.0638  -22.4806  -43.0486 N   0  0  0  0  0  0  0  0  0  0  0  0
    5.2612  -22.1091  -42.0095 C   0  0  0  0  0  0  0  0  0  0  0  0
    4.3855  -22.9259  -41.6463 O   0  0  0  0  0  0  0  0  0  0  0  0
    8.2349  -19.5254  -43.3624 C   0  0  0  0  0  0  0  0  0  0  0  0
    5.9519  -23.4000  -43.5147 H   0  0  0  0  0  0  0  0  0  0  0  0
    0.5964  -18.8982  -38.4031 C   0  0  0  0  0  0  0  0  0  0  0  0
   -0.2731  -17.6842  -38.4436 C   0  0  0  0  0  0  0  0  0  0  0  0
    3.8216  -11.1473  -38.6762 Cl  0  0  0  0  0  0  0  0  0  0  0  0
    2.8467  -12.5096  -38.1461 C   0  0  0  0  0  0  0  0  0  0  0  0
    2.4420  -13.5113  -38.9912 C   0  0  0  0  0  0  0  0  0  0  0  0
    1.6728  -14.5829  -38.5647 C   0  0  0  0  0  0  0  0  0  0  0  0
    1.1433  -15.6750  -39.1408 N   0  0  0  0  0  0  0  0  0  0  0  0
    0.4627  -16.4110  -38.2457 C   0  0  0  0  0  0  0  0  0  0  0  0
    0.5832  -15.7339  -37.0673 N   0  0  0  0  0  0  0  0  0  0  0  0
    1.3115  -14.6238  -37.2342 C   0  0  0  0  0  0  0  0  0  0  0  0
    1.6969  -13.6378  -36.3507 C   0  0  0  0  0  0  0  0  0  0  0  0
    2.4679  -12.5807  -36.8222 C   0  0  0  0  0  0  0  0  0  0  0  0
   -0.0282  -16.2188  -35.8313 C   0  0  0  0  0  0  0  0  0  0  0  0
 24 25  1  0  0  0
 25 26  2  0  0  0
 25 33  1  0  0  0
 26 27  1  0  0  0
 27 28  1  0  0  0
 27 31  2  0  0  0
 28 29  2  0  0  0
 29 30  1  0  0  0
 29 23  1  0  0  0
 30 31  1  0  0  0
 30 34  1  0  0  0
 31 32  1  0  0  0
 32 33  2  0  0  0
 23 22  1  0  0  0
 22  1  1  0  0  0
  1  2  2  0  0  0
  1  3  1  0  0  0
  3  4  1  0  0  0
  3  8  1  0  0  0
  4  5  1  0  0  0
  5  6  1  0  0  0
  5 12  1  0  0  0
  6  7  1  0  0  0
  6  9  1  0  0  0
  6 10  1  0  0  0
  7  8  1  0  0  0
 12 13  1  0  0  0
 12 18  1  0  0  0
 13 14  2  0  0  0
 14 15  1  0  0  0
 14 20  1  0  0  0
 15 16  2  0  0  0
 15 17  1  0  0  0
 17 18  1  0  0  0
 18 19  2  0  0  0
  9 11  1  0  0  0
 17 21  1  0  0  0
M  END
> <minimizedAffinity>
-7.16768

$$$$
1936


 25 28  0  0  0  0  0  0  0  0999 V2000
    1.5224  -14.6794  -37.3812 N   0  0  0  0  0  0  0  0  0  0  0  0
    1.5774  -13.3920  -36.8138 C   0  0  0  0  0  0  0  0  0  0  0  0
    1.2680  -13.2756  -35.6157 O   0  0  0  0  0  0  0  0  0  0  0  0
    1.7783  -14.8000  -38.3890 H   0  0  0  0  0  0  0  0  0  0  0  0
    1.9814  -12.1978  -37.5760 C   0  0  0  0  0  0  0  0  0  0  0  0
    3.3549  -11.7040  -37.3387 C   0  0  0  0  0  0  0  0  0  0  0  0
    3.1414  -12.4450  -38.5991 C   0  0  0  0  0  0  0  0  0  0  0  0
    0.9802  -11.3356  -38.1290 N   0  0  0  0  0  0  0  0  0  0  0  0
    0.7874  -10.0997  -37.4794 C   0  0  0  0  0  0  0  0  0  0  0  0
   -0.4011  -10.2515  -36.5378 C   0  0  0  0  0  0  0  0  0  0  0  0
   -1.5611  -10.3923  -37.2619 O   0  0  0  0  0  0  0  0  0  0  0  0
   -1.4140  -11.0057  -38.4811 C   0  0  0  0  0  0  0  0  0  0  0  0
   -0.2235  -11.9420  -38.5258 C   0  0  0  0  0  0  0  0  0  0  0  0
    1.1219  -15.8533  -36.6274 C   0  0  0  0  0  0  0  0  0  0  0  0
    3.7460  -21.8879  -40.6887 Cl  0  0  0  0  0  0  0  0  0  0  0  0
    3.5181  -20.7063  -39.4013 C   0  0  0  0  0  0  0  0  0  0  0  0
    2.6016  -19.6734  -39.5043 C   0  0  0  0  0  0  0  0  0  0  0  0
    2.3932  -18.7292  -38.5227 C   0  0  0  0  0  0  0  0  0  0  0  0
    1.5959  -17.6573  -38.3683 N   0  0  0  0  0  0  0  0  0  0  0  0
    1.8109  -17.0722  -37.1750 C   0  0  0  0  0  0  0  0  0  0  0  0
    2.7669  -17.8041  -36.5807 N   0  0  0  0  0  0  0  0  0  0  0  0
    3.1604  -18.8318  -37.3586 C   0  0  0  0  0  0  0  0  0  0  0  0
    4.0748  -19.8527  -37.2430 C   0  0  0  0  0  0  0  0  0  0  0  0
    4.2679  -20.7836  -38.2315 C   0  0  0  0  0  0  0  0  0  0  0  0
    3.1539  -17.5998  -35.6315 H   0  0  0  0  0  0  0  0  0  0  0  0
 15 16  1  0  0  0
 16 17  2  0  0  0
 16 24  1  0  0  0
 17 18  1  0  0  0
 18 19  1  0  0  0
 18 22  2  0  0  0
 19 20  2  0  0  0
 20 21  1  0  0  0
 20 14  1  0  0  0
 21 22  1  0  0  0
 22 23  1  0  0  0
 23 24  2  0  0  0
 14  1  1  0  0  0
  1  2  1  0  0  0
  2  3  2  0  0  0
  2  5  1  0  0  0
  5  6  1  0  0  0
  5  7  1  0  0  0
  5  8  1  0  0  0
  6  7  1  0  0  0
  8  9  1  0  0  0
  8 13  1  0  0  0
  9 10  1  0  0  0
 10 11  1  0  0  0
 11 12  1  0  0  0
 12 13  1  0  0  0
 21 25  1  0  0  0
  1  4  1  0  0  0
M  END
> <minimizedAffinity>
-5.71143

$$$$
1937


 31 34  0  0  0  0  0  0  0  0999 V2000
    0.9381  -18.5561  -38.0485 N   0  0  0  0  0  0  0  0  0  0  0  0
    0.5532  -19.8787  -38.2255 C   0  0  0  0  0  0  0  0  0  0  0  0
    1.3478  -20.4323  -39.4835 C   0  0  0  0  0  0  0  0  0  0  0  0
    2.5451  -19.6377  -39.4112 N   0  0  0  0  0  0  0  0  0  0  0  0
    2.3241  -18.2947  -40.0226 C   0  0  0  0  0  0  0  0  0  0  0  0
    1.0371  -17.8599  -39.3797 C   0  0  0  0  0  0  0  0  0  0  0  0
    3.7501  -20.0635  -38.9382 C   0  0  0  0  0  0  0  0  0  0  0  0
    4.5612  -19.1774  -38.5003 O   0  0  0  0  0  0  0  0  0  0  0  0
    4.2747  -21.4643  -38.8828 C   0  0  0  0  0  0  0  0  0  0  0  0
    4.1103  -21.9581  -40.2525 O   0  0  0  0  0  0  0  0  0  0  0  0
    4.3582  -20.9114  -41.1875 C   0  0  0  0  0  0  0  0  0  0  0  0
    5.3202  -19.9922  -40.8619 C   0  0  0  0  0  0  0  0  0  0  0  0
    5.6271  -18.9311  -41.7068 C   0  0  0  0  0  0  0  0  0  0  0  0
    4.9069  -18.8594  -42.8936 C   0  0  0  0  0  0  0  0  0  0  0  0
    3.9401  -19.7716  -43.2551 C   0  0  0  0  0  0  0  0  0  0  0  0
    3.6668  -20.8123  -42.3898 C   0  0  0  0  0  0  0  0  0  0  0  0
    6.0092  -20.1249  -39.6512 O   0  0  0  0  0  0  0  0  0  0  0  0
    5.8149  -21.2847  -38.8032 C   0  0  0  0  0  0  0  0  0  0  0  0
    0.2482  -17.6444  -37.1677 C   0  0  0  0  0  0  0  0  0  0  0  0
    1.0184  -15.3067  -37.6305 N   0  0  0  0  0  0  0  0  0  0  0  0
    1.2084  -16.4808  -36.8987 C   0  0  0  0  0  0  0  0  0  0  0  0
    2.0734  -16.6024  -36.0711 O   0  0  0  0  0  0  0  0  0  0  0  0
    0.3742  -15.4162  -38.4925 H   0  0  0  0  0  0  0  0  0  0  0  0
    1.6471  -14.0520  -37.4267 C   0  0  0  0  0  0  0  0  0  0  0  0
    3.3356  -11.6921  -36.9671 Cl  0  0  0  0  0  0  0  0  0  0  0  0
    3.1939  -12.4735  -38.5235 C   0  0  0  0  0  0  0  0  0  0  0  0
    2.2789  -13.5112  -38.6587 C   0  0  0  0  0  0  0  0  0  0  0  0
    2.1597  -14.0612  -39.9076 C   0  0  0  0  0  0  0  0  0  0  0  0
    2.9280  -13.6057  -40.9725 C   0  0  0  0  0  0  0  0  0  0  0  0
    3.8569  -12.5533  -40.8389 C   0  0  0  0  0  0  0  0  0  0  0  0
    3.9324  -12.0209  -39.5676 C   0  0  0  0  0  0  0  0  0  0  0  0
 25 26  1  0  0  0
 26 27  2  0  0  0
 26 31  1  0  0  0
 27 28  1  0  0  0
 27 24  1  0  0  0
 28 29  2  0  0  0
 29 30  1  0  0  0
 30 31  2  0  0  0
 24 20  1  0  0  0
 20 21  1  0  0  0
 21 22  2  0  0  0
 21 19  1  0  0  0
 19  1  1  0  0  0
  1  2  1  0  0  0
  1  6  1  0  0  0
  2  3  1  0  0  0
  3  4  1  0  0  0
  4  5  1  0  0  0
  4  7  1  0  0  0
  5  6  1  0  0  0
  7  8  2  0  0  0
  7  9  1  0  0  0
  9 10  1  0  0  0
  9 18  1  0  0  0
 10 11  1  0  0  0
 11 12  2  0  0  0
 11 16  1  0  0  0
 12 13  1  0  0  0
 12 17  1  0  0  0
 13 14  2  0  0  0
 14 15  1  0  0  0
 15 16  2  0  0  0
 17 18  1  0  0  0
 20 23  1  0  0  0
M  END
> <minimizedAffinity>
-6.62447

$$$$
1939


 28 31  0  0  0  0  0  0  0  0999 V2000
   -0.0755  -13.9863  -36.4188 N   0  0  0  0  0  0  0  0  0  0  0  0
   -0.3894  -15.3173  -36.4335 C   0  0  0  0  0  0  0  0  0  0  0  0
   -1.7268  -15.4783  -36.6702 C   0  0  0  0  0  0  0  0  0  0  0  0
   -2.1923  -14.2424  -36.7927 N   0  0  0  0  0  0  0  0  0  0  0  0
   -1.2006  -13.3057  -36.6426 C   0  0  0  0  0  0  0  0  0  0  0  0
   -2.2933  -16.6977  -36.7268 N   0  0  0  0  0  0  0  0  0  0  0  0
   -1.5277  -17.8054  -36.5445 C   0  0  0  0  0  0  0  0  0  0  0  0
   -2.0976  -18.9180  -36.6063 O   0  0  0  0  0  0  0  0  0  0  0  0
   -0.2089  -17.6987  -36.3090 N   0  0  0  0  0  0  0  0  0  0  0  0
    0.3448  -16.4781  -36.2541 C   0  0  0  0  0  0  0  0  0  0  0  0
    1.5746  -16.4318  -36.0306 O   0  0  0  0  0  0  0  0  0  0  0  0
   -3.7204  -16.7769  -36.9839 C   0  0  0  0  0  0  0  0  0  0  0  0
    0.3326  -18.5782  -36.1765 H   0  0  0  0  0  0  0  0  0  0  0  0
   -1.4503  -11.9178  -36.7187 N   0  0  0  0  0  0  0  0  0  0  0  0
   -1.5503  -11.1776  -35.4680 C   0  0  0  0  0  0  0  0  0  0  0  0
   -0.9124   -9.8179  -35.8066 C   0  0  0  0  0  0  0  0  0  0  0  0
    0.1533   -9.9562  -36.7739 N   0  0  0  0  0  0  0  0  0  0  0  0
   -0.2930  -10.3799  -38.0836 C   0  0  0  0  0  0  0  0  0  0  0  0
   -1.6135  -11.1046  -37.8670 C   0  0  0  0  0  0  0  0  0  0  0  0
    0.5835   -9.0220  -36.8779 H   0  0  0  0  0  0  0  0  0  0  0  0
    1.2618  -13.5070  -36.1895 C   0  0  0  0  0  0  0  0  0  0  0  0
    4.6376  -11.8949  -40.9139 Cl  0  0  0  0  0  0  0  0  0  0  0  0
    3.6604  -12.3306  -39.5290 C   0  0  0  0  0  0  0  0  0  0  0  0
    2.7539  -13.3397  -39.6600 C   0  0  0  0  0  0  0  0  0  0  0  0
    1.9544  -13.7178  -38.5768 C   0  0  0  0  0  0  0  0  0  0  0  0
    2.0352  -13.1150  -37.3649 C   0  0  0  0  0  0  0  0  0  0  0  0
    2.9786  -12.0809  -37.2639 C   0  0  0  0  0  0  0  0  0  0  0  0
    3.7749  -11.6921  -38.3157 C   0  0  0  0  0  0  0  0  0  0  0  0
 22 23  1  0  0  0
 23 24  2  0  0  0
 23 28  1  0  0  0
 24 25  1  0  0  0
 25 26  2  0  0  0
 26 27  1  0  0  0
 26 21  1  0  0  0
 27 28  2  0  0  0
 21  1  1  0  0  0
  1  2  1  0  0  0
  1  5  1  0  0  0
  2  3  2  0  0  0
  2 10  1  0  0  0
  3  4  1  0  0  0
  3  6  1  0  0  0
  4  5  2  0  0  0
  5 14  1  0  0  0
 14 15  1  0  0  0
 14 19  1  0  0  0
 15 16  1  0  0  0
 16 17  1  0  0  0
 17 18  1  0  0  0
 18 19  1  0  0  0
  6  7  1  0  0  0
  6 12  1  0  0  0
  7  8  2  0  0  0
  7  9  1  0  0  0
  9 10  1  0  0  0
 10 11  2  0  0  0
 17 20  1  0  0  0
  9 13  1  0  0  0
M  END
> <minimizedAffinity>
-6.13912

$$$$
1940


 30 33  0  0  0  0  0  0  0  0999 V2000
    0.3892  -18.5797  -37.7798 C   0  0  0  0  0  0  0  0  0  0  0  0
    0.6180  -18.8548  -39.2040 N   0  0  0  0  0  0  0  0  0  0  0  0
    0.0020  -17.7851  -39.8977 C   0  0  0  0  0  0  0  0  0  0  0  0
   -0.4872  -17.8243  -41.0515 O   0  0  0  0  0  0  0  0  0  0  0  0
    0.0445  -16.6130  -39.0031 C   0  0  0  0  0  0  0  0  0  0  0  0
   -0.3929  -15.4612  -39.2255 O   0  0  0  0  0  0  0  0  0  0  0  0
    0.7068  -17.0937  -37.7985 C   0  0  0  0  0  0  0  0  0  0  0  0
    1.4047  -16.4063  -36.9629 C   0  0  0  0  0  0  0  0  0  0  0  0
    1.9959  -17.0076  -35.8531 O   0  0  0  0  0  0  0  0  0  0  0  0
   -5.4682  -18.8725  -36.3731 Cl  0  0  0  0  0  0  0  0  0  0  0  0
   -3.7815  -18.8152  -36.8202 C   0  0  0  0  0  0  0  0  0  0  0  0
   -3.2706  -19.5376  -37.8770 C   0  0  0  0  0  0  0  0  0  0  0  0
   -1.9247  -19.4471  -38.1744 C   0  0  0  0  0  0  0  0  0  0  0  0
   -1.0575  -18.6607  -37.4589 C   0  0  0  0  0  0  0  0  0  0  0  0
   -1.5918  -17.9366  -36.3928 C   0  0  0  0  0  0  0  0  0  0  0  0
   -2.9330  -18.0225  -36.0907 C   0  0  0  0  0  0  0  0  0  0  0  0
    1.5962  -14.9718  -37.1522 C   0  0  0  0  0  0  0  0  0  0  0  0
    2.2049  -14.2962  -38.0606 O   0  0  0  0  0  0  0  0  0  0  0  0
    2.1216  -13.0178  -37.8271 C   0  0  0  0  0  0  0  0  0  0  0  0
    1.4032  -12.8140  -36.6767 C   0  0  0  0  0  0  0  0  0  0  0  0
    1.0602  -14.0605  -36.2325 C   0  0  0  0  0  0  0  0  0  0  0  0
    1.3250  -20.0020  -39.7552 C   0  0  0  0  0  0  0  0  0  0  0  0
    2.8166  -19.8711  -39.7401 C   0  0  0  0  0  0  0  0  0  0  0  0
    3.5193  -20.7832  -38.9045 N   0  0  0  0  0  0  0  0  0  0  0  0
    4.9018  -20.9890  -39.1950 C   0  0  0  0  0  0  0  0  0  0  0  0
    5.7523  -19.7524  -39.0143 C   0  0  0  0  0  0  0  0  0  0  0  0
    5.6316  -19.2527  -37.7221 O   0  0  0  0  0  0  0  0  0  0  0  0
    4.3026  -19.0896  -37.3453 C   0  0  0  0  0  0  0  0  0  0  0  0
    3.4841  -20.3455  -37.4937 C   0  0  0  0  0  0  0  0  0  0  0  0
    3.0431  -21.7102  -38.9585 H   0  0  0  0  0  0  0  0  0  0  0  0
 10 11  1  0  0  0
 11 12  2  0  0  0
 11 16  1  0  0  0
 12 13  1  0  0  0
 13 14  2  0  0  0
 14 15  1  0  0  0
 14  1  1  0  0  0
 15 16  2  0  0  0
  1  2  1  0  0  0
  1  7  1  0  0  0
  2  3  1  0  0  0
  2 22  1  0  0  0
  3  4  2  0  0  0
  3  5  1  0  0  0
  5  6  2  0  0  0
  5  7  1  0  0  0
  7  8  2  0  0  0
  8  9  1  0  0  0
  8 17  1  0  0  0
 17 18  1  0  0  0
 17 21  2  0  0  0
 18 19  1  0  0  0
 19 20  2  0  0  0
 20 21  1  0  0  0
 22 23  1  0  0  0
 23 24  1  0  0  0
 24 25  1  0  0  0
 24 29  1  0  0  0
 25 26  1  0  0  0
 26 27  1  0  0  0
 27 28  1  0  0  0
 28 29  1  0  0  0
 24 30  1  0  0  0
M  CHG 1   9  -1
M  CHG 1  24   1
M  END
> <minimizedAffinity>
-6.12470

$$$$
1941


 22 25  0  0  0  0  0  0  0  0999 V2000
    2.6103  -18.2591  -37.7527 N   0  0  0  0  0  0  0  0  0  0  0  0
    2.3878  -17.4260  -36.6057 C   0  0  0  0  0  0  0  0  0  0  0  0
    2.8259  -17.7438  -35.4464 O   0  0  0  0  0  0  0  0  0  0  0  0
    1.6195  -16.2359  -37.0052 C   0  0  0  0  0  0  0  0  0  0  0  0
    0.9848  -16.6637  -38.3064 C   0  0  0  0  0  0  0  0  0  0  0  0
   -0.5192  -16.6777  -38.1387 C   0  0  0  0  0  0  0  0  0  0  0  0
   -0.9217  -15.2069  -37.9566 C   0  0  0  0  0  0  0  0  0  0  0  0
   -0.2825  -14.7791  -36.6670 C   0  0  0  0  0  0  0  0  0  0  0  0
   -0.4913  -13.6854  -36.2160 O   0  0  0  0  0  0  0  0  0  0  0  0
    0.6130  -15.7879  -36.0015 C   0  0  0  0  0  0  0  0  0  0  0  0
   -0.3044  -16.9512  -35.6081 C   0  0  0  0  0  0  0  0  0  0  0  0
   -0.9395  -17.4079  -36.8931 C   0  0  0  0  0  0  0  0  0  0  0  0
   -1.7341  -18.3073  -36.8834 O   0  0  0  0  0  0  0  0  0  0  0  0
    1.5627  -17.9581  -38.6641 C   0  0  0  0  0  0  0  0  0  0  0  0
    1.1953  -18.6818  -39.6170 O   0  0  0  0  0  0  0  0  0  0  0  0
    7.1363  -22.1108  -38.5977 Cl  0  0  0  0  0  0  0  0  0  0  0  0
    5.8029  -20.9891  -38.3522 C   0  0  0  0  0  0  0  0  0  0  0  0
    6.0264  -19.6605  -38.0869 C   0  0  0  0  0  0  0  0  0  0  0  0
    4.9779  -18.7895  -37.8960 C   0  0  0  0  0  0  0  0  0  0  0  0
    3.6588  -19.1983  -37.9593 C   0  0  0  0  0  0  0  0  0  0  0  0
    3.4548  -20.5339  -38.2271 C   0  0  0  0  0  0  0  0  0  0  0  0
    4.4885  -21.4210  -38.4208 C   0  0  0  0  0  0  0  0  0  0  0  0
 16 17  1  0  0  0
 17 18  2  0  0  0
 17 22  1  0  0  0
 18 19  1  0  0  0
 19 20  2  0  0  0
 20 21  1  0  0  0
 20  1  1  0  0  0
 21 22  2  0  0  0
  1  2  1  0  0  0
  1 14  1  0  0  0
  2  3  2  0  0  0
  2  4  1  0  0  0
  4  5  1  0  0  0
  4 10  1  0  0  0
  5  6  1  0  0  0
  5 14  1  0  0  0
  6  7  1  0  0  0
  6 12  1  0  0  0
  7  8  1  0  0  0
  8  9  2  0  0  0
  8 10  1  0  0  0
 10 11  1  0  0  0
 11 12  1  0  0  0
 12 13  2  0  0  0
 14 15  2  0  0  0
M  END
> <minimizedAffinity>
-6.53135

$$$$
1943


 34 38  0  0  0  0  0  0  0  0999 V2000
    0.6881  -15.6268  -36.8252 N   0  0  0  0  0  0  0  0  0  0  0  0
    1.5067  -15.9773  -37.9624 C   0  0  0  0  0  0  0  0  0  0  0  0
    1.8112  -15.2280  -38.8950 O   0  0  0  0  0  0  0  0  0  0  0  0
    1.9345  -17.3775  -37.8460 C   0  0  0  0  0  0  0  0  0  0  0  0
    1.7748  -18.2155  -39.0922 C   0  0  0  0  0  0  0  0  0  0  0  0
    0.4831  -18.8558  -39.0303 N   0  0  0  0  0  0  0  0  0  0  0  0
   -0.2504  -18.1887  -37.9731 C   0  0  0  0  0  0  0  0  0  0  0  0
    0.8514  -17.9485  -36.9609 C   0  0  0  0  0  0  0  0  0  0  0  0
    0.5779  -16.8274  -36.0429 C   0  0  0  0  0  0  0  0  0  0  0  0
    0.3147  -16.9656  -34.8456 O   0  0  0  0  0  0  0  0  0  0  0  0
    2.8929  -19.2193  -39.0267 C   0  0  0  0  0  0  0  0  0  0  0  0
    3.7857  -18.9075  -40.0126 C   0  0  0  0  0  0  0  0  0  0  0  0
    4.9812  -19.6239  -40.1803 C   0  0  0  0  0  0  0  0  0  0  0  0
    5.2813  -20.6762  -39.3406 C   0  0  0  0  0  0  0  0  0  0  0  0
    4.3858  -20.9915  -38.3540 C   0  0  0  0  0  0  0  0  0  0  0  0
    3.2160  -20.2768  -38.2017 C   0  0  0  0  0  0  0  0  0  0  0  0
    3.2913  -17.8632  -40.8355 N   0  0  0  0  0  0  0  0  0  0  0  0
    2.0111  -17.5093  -40.3351 C   0  0  0  0  0  0  0  0  0  0  0  0
    1.2445  -16.7117  -40.9151 O   0  0  0  0  0  0  0  0  0  0  0  0
    0.0193  -18.7271  -39.9608 H   0  0  0  0  0  0  0  0  0  0  0  0
    3.7869  -17.4271  -41.6723 H   0  0  0  0  0  0  0  0  0  0  0  0
   -1.7119  -10.3522  -35.4009 Cl  0  0  0  0  0  0  0  0  0  0  0  0
   -1.0007  -11.8990  -35.8259 C   0  0  0  0  0  0  0  0  0  0  0  0
   -1.7922  -12.8956  -36.3431 C   0  0  0  0  0  0  0  0  0  0  0  0
   -1.2190  -14.1195  -36.6684 C   0  0  0  0  0  0  0  0  0  0  0  0
    0.1106  -14.3944  -36.5018 C   0  0  0  0  0  0  0  0  0  0  0  0
    0.8769  -13.3787  -35.9842 C   0  0  0  0  0  0  0  0  0  0  0  0
    0.3273  -12.1373  -35.6478 C   0  0  0  0  0  0  0  0  0  0  0  0
   -1.3406  -19.0553  -37.3990 C   0  0  0  0  0  0  0  0  0  0  0  0
   -1.7804  -20.1306  -38.2827 C   0  0  0  0  0  0  0  0  0  0  0  0
   -2.5455  -19.8939  -39.2369 O   0  0  0  0  0  0  0  0  0  0  0  0
   -1.3381  -21.4552  -38.0589 N   0  0  0  0  0  0  0  0  0  0  0  0
   -0.7429  -21.7515  -37.2482 H   0  0  0  0  0  0  0  0  0  0  0  0
   -1.5829  -22.2599  -38.7068 H   0  0  0  0  0  0  0  0  0  0  0  0
 22 23  1  0  0  0
 23 24  2  0  0  0
 23 28  1  0  0  0
 24 25  1  0  0  0
 25 26  2  0  0  0
 26 27  1  0  0  0
 26  1  1  0  0  0
 27 28  2  0  0  0
  1  2  1  0  0  0
  1  9  1  0  0  0
  2  3  2  0  0  0
  2  4  1  0  0  0
  4  5  1  0  0  0
  4  8  1  0  0  0
  5  6  1  0  0  0
  5 11  1  0  0  0
  5 18  1  0  0  0
  6  7  1  0  0  0
  7  8  1  0  0  0
  7 29  1  0  0  0
  8  9  1  0  0  0
  9 10  2  0  0  0
 29 30  1  0  0  0
 30 31  2  0  0  0
 30 32  1  0  0  0
 11 12  1  0  0  0
 11 16  2  0  0  0
 12 13  2  0  0  0
 12 17  1  0  0  0
 13 14  1  0  0  0
 14 15  2  0  0  0
 15 16  1  0  0  0
 17 18  1  0  0  0
 18 19  2  0  0  0
  6 20  1  0  0  0
 32 33  1  0  0  0
 32 34  1  0  0  0
 17 21  1  0  0  0
M  END
> <minimizedAffinity>
-6.86560

$$$$
1945


 24 27  0  0  0  0  0  0  0  0999 V2000
   -0.2053  -21.7453  -42.2129 Cl  0  0  0  0  0  0  0  0  0  0  0  0
    1.2002  -21.2875  -41.2717 C   0  0  0  0  0  0  0  0  0  0  0  0
    1.1019  -20.4632  -40.1744 C   0  0  0  0  0  0  0  0  0  0  0  0
    2.2311  -20.1051  -39.4328 C   0  0  0  0  0  0  0  0  0  0  0  0
    3.4624  -20.6047  -39.8306 C   0  0  0  0  0  0  0  0  0  0  0  0
    3.5766  -21.4294  -40.9242 C   0  0  0  0  0  0  0  0  0  0  0  0
    2.4609  -21.7719  -41.6445 C   0  0  0  0  0  0  0  0  0  0  0  0
    4.6807  -20.2553  -39.0784 C   0  0  0  0  0  0  0  0  0  0  0  0
    5.9213  -20.5738  -39.2275 N   0  0  0  0  0  0  0  0  0  0  0  0
    6.7663  -19.9801  -38.2279 C   0  0  0  0  0  0  0  0  0  0  0  0
    5.8245  -19.1921  -37.3710 C   0  0  0  0  0  0  0  0  0  0  0  0
    4.5288  -19.4061  -37.9579 N   0  0  0  0  0  0  0  0  0  0  0  0
    3.2523  -18.9103  -37.5751 C   0  0  0  0  0  0  0  0  0  0  0  0
    3.0948  -18.1518  -36.5771 O   0  0  0  0  0  0  0  0  0  0  0  0
    2.0611  -19.2502  -38.3081 N   0  0  0  0  0  0  0  0  0  0  0  0
    0.7641  -18.7309  -37.8971 C   0  0  0  0  0  0  0  0  0  0  0  0
    0.6779  -17.2697  -38.1213 C   0  0  0  0  0  0  0  0  0  0  0  0
    0.7660  -16.8451  -39.2993 O   0  0  0  0  0  0  0  0  0  0  0  0
    0.5005  -16.3350  -37.0734 N   0  0  0  0  0  0  0  0  0  0  0  0
    0.4282  -16.7027  -36.1033 H   0  0  0  0  0  0  0  0  0  0  0  0
    0.4189  -14.9154  -37.3193 C   0  0  0  0  0  0  0  0  0  0  0  0
    1.1491  -14.1618  -36.2395 C   0  0  0  0  0  0  0  0  0  0  0  0
    0.6655  -12.8149  -35.8326 C   0  0  0  0  0  0  0  0  0  0  0  0
    1.8925  -12.9270  -36.6544 C   0  0  0  0  0  0  0  0  0  0  0  0
  1  2  1  0  0  0
  2  3  2  0  0  0
  2  7  1  0  0  0
  3  4  1  0  0  0
  4  5  2  0  0  0
  4 15  1  0  0  0
  5  6  1  0  0  0
  5  8  1  0  0  0
  6  7  2  0  0  0
  8  9  2  0  0  0
  8 12  1  0  0  0
  9 10  1  0  0  0
 10 11  1  0  0  0
 11 12  1  0  0  0
 12 13  1  0  0  0
 13 14  2  0  0  0
 13 15  1  0  0  0
 15 16  1  0  0  0
 16 17  1  0  0  0
 17 18  2  0  0  0
 17 19  1  0  0  0
 19 21  1  0  0  0
 21 22  1  0  0  0
 22 23  1  0  0  0
 22 24  1  0  0  0
 23 24  1  0  0  0
 19 20  1  0  0  0
M  END
> <minimizedAffinity>
-5.41687

$$$$
1956


 35 38  0  0  0  0  0  0  0  0999 V2000
    2.5949  -18.4379  -37.7206 C   0  0  0  0  0  0  0  0  0  0  0  0
    1.3527  -18.0868  -38.0087 C   0  0  0  0  0  0  0  0  0  0  0  0
    0.4748  -17.2050  -37.1567 C   0  0  0  0  0  0  0  0  0  0  0  0
   -0.8505  -17.3603  -37.6829 N   0  0  0  0  0  0  0  0  0  0  0  0
   -0.8187  -18.0354  -38.9319 C   0  0  0  0  0  0  0  0  0  0  0  0
   -1.7676  -18.2114  -39.7099 O   0  0  0  0  0  0  0  0  0  0  0  0
    0.5749  -18.4955  -39.1346 C   0  0  0  0  0  0  0  0  0  0  0  0
    0.9679  -19.1364  -40.1376 O   0  0  0  0  0  0  0  0  0  0  0  0
    3.1150  -17.9354  -36.5042 O   0  0  0  0  0  0  0  0  0  0  0  0
    6.0116  -22.0548  -41.1223 Cl  0  0  0  0  0  0  0  0  0  0  0  0
    5.0048  -21.0298  -40.1253 C   0  0  0  0  0  0  0  0  0  0  0  0
    4.3532  -21.4845  -39.0039 C   0  0  0  0  0  0  0  0  0  0  0  0
    3.5700  -20.6339  -38.2518 C   0  0  0  0  0  0  0  0  0  0  0  0
    3.3944  -19.2824  -38.5799 C   0  0  0  0  0  0  0  0  0  0  0  0
    4.0594  -18.8556  -39.7048 C   0  0  0  0  0  0  0  0  0  0  0  0
    4.8558  -19.7171  -40.4714 C   0  0  0  0  0  0  0  0  0  0  0  0
    1.0128  -15.8234  -37.2868 C   0  0  0  0  0  0  0  0  0  0  0  0
    1.4778  -15.3818  -38.4920 C   0  0  0  0  0  0  0  0  0  0  0  0
    1.9577  -14.1083  -38.6053 C   0  0  0  0  0  0  0  0  0  0  0  0
    1.9884  -13.2456  -37.5312 C   0  0  0  0  0  0  0  0  0  0  0  0
    1.5183  -13.6911  -36.3097 C   0  0  0  0  0  0  0  0  0  0  0  0
    1.0315  -14.9852  -36.2003 C   0  0  0  0  0  0  0  0  0  0  0  0
    2.4793  -11.9499  -37.6548 O   0  0  0  0  0  0  0  0  0  0  0  0
    3.2813  -11.6375  -38.8029 C   0  0  0  0  0  0  0  0  0  0  0  0
    4.5582  -10.9446  -38.3339 C   0  0  0  0  0  0  0  0  0  0  0  0
    4.1897  -10.1180  -37.1101 C   0  0  0  0  0  0  0  0  0  0  0  0
   -2.0734  -16.9065  -37.0287 C   0  0  0  0  0  0  0  0  0  0  0  0
   -2.6900  -15.8065  -37.8219 C   0  0  0  0  0  0  0  0  0  0  0  0
   -2.4007  -14.4890  -37.2324 N   0  0  0  0  0  0  0  0  0  0  0  0
   -3.6235  -13.9600  -36.7118 C   0  0  0  0  0  0  0  0  0  0  0  0
   -3.5254  -12.4608  -36.4398 C   0  0  0  0  0  0  0  0  0  0  0  0
   -3.1757  -11.8639  -37.6646 O   0  0  0  0  0  0  0  0  0  0  0  0
   -1.8696  -12.2167  -37.9324 C   0  0  0  0  0  0  0  0  0  0  0  0
   -1.8200  -13.6889  -38.2885 C   0  0  0  0  0  0  0  0  0  0  0  0
   -1.7025  -14.5834  -36.4492 H   0  0  0  0  0  0  0  0  0  0  0  0
 10 11  1  0  0  0
 11 12  2  0  0  0
 11 16  1  0  0  0
 12 13  1  0  0  0
 13 14  2  0  0  0
 14 15  1  0  0  0
 14  1  1  0  0  0
 15 16  2  0  0  0
  1  2  2  0  0  0
  1  9  1  0  0  0
  2  3  1  0  0  0
  2  7  1  0  0  0
  3  4  1  0  0  0
  3 17  1  0  0  0
  4  5  1  0  0  0
  4 27  1  0  0  0
  5  6  2  0  0  0
  5  7  1  0  0  0
  7  8  2  0  0  0
 27 28  1  0  0  0
 28 29  1  0  0  0
 29 30  1  0  0  0
 29 34  1  0  0  0
 30 31  1  0  0  0
 31 32  1  0  0  0
 32 33  1  0  0  0
 33 34  1  0  0  0
 17 18  2  0  0  0
 17 22  1  0  0  0
 18 19  1  0  0  0
 19 20  2  0  0  0
 20 21  1  0  0  0
 20 23  1  0  0  0
 21 22  2  0  0  0
 23 24  1  0  0  0
 24 25  1  0  0  0
 25 26  1  0  0  0
 29 35  1  0  0  0
M  CHG 1   9  -1
M  CHG 1  29   1
M  END
> <minimizedAffinity>
-6.31338

$$$$
1957


 36 40  0  0  0  0  0  0  0  0999 V2000
    0.5981  -15.8046  -37.1415 C   0  0  0  0  0  0  0  0  0  0  0  0
    1.5966  -14.9505  -37.7716 N   0  0  0  0  0  0  0  0  0  0  0  0
    1.1058  -13.5906  -37.6699 C   0  0  0  0  0  0  0  0  0  0  0  0
    0.3679  -13.6065  -36.3624 C   0  0  0  0  0  0  0  0  0  0  0  0
   -0.2674  -14.9586  -36.2854 C   0  0  0  0  0  0  0  0  0  0  0  0
   -1.6466  -14.7928  -36.8212 C   0  0  0  0  0  0  0  0  0  0  0  0
   -2.4273  -15.7091  -37.1720 O   0  0  0  0  0  0  0  0  0  0  0  0
   -1.9025  -13.3714  -36.8543 N   0  0  0  0  0  0  0  0  0  0  0  0
   -0.7895  -12.6966  -36.3058 C   0  0  0  0  0  0  0  0  0  0  0  0
   -0.7617  -11.5290  -35.8457 O   0  0  0  0  0  0  0  0  0  0  0  0
    2.2093  -12.5996  -37.6642 C   0  0  0  0  0  0  0  0  0  0  0  0
    2.0336  -11.8068  -38.7736 C   0  0  0  0  0  0  0  0  0  0  0  0
    2.9370  -10.7806  -39.0139 C   0  0  0  0  0  0  0  0  0  0  0  0
    3.9792  -10.5841  -38.1390 C   0  0  0  0  0  0  0  0  0  0  0  0
    4.1642  -11.3762  -37.0186 C   0  0  0  0  0  0  0  0  0  0  0  0
    3.2599  -12.3927  -36.7925 C   0  0  0  0  0  0  0  0  0  0  0  0
    0.8780  -12.2197  -39.5255 N   0  0  0  0  0  0  0  0  0  0  0  0
    0.3041  -13.3247  -38.8513 C   0  0  0  0  0  0  0  0  0  0  0  0
   -0.7080  -13.9263  -39.2460 O   0  0  0  0  0  0  0  0  0  0  0  0
    1.7506  -15.2322  -38.7458 H   0  0  0  0  0  0  0  0  0  0  0  0
    0.5695  -11.7453  -40.4046 H   0  0  0  0  0  0  0  0  0  0  0  0
    1.3721  -16.8602  -36.3984 C   0  0  0  0  0  0  0  0  0  0  0  0
    2.4043  -16.3674  -35.6433 O   0  0  0  0  0  0  0  0  0  0  0  0
    2.0159  -15.8582  -34.8866 H   0  0  0  0  0  0  0  0  0  0  0  0
    3.5857  -21.2024  -40.0150 Cl  0  0  0  0  0  0  0  0  0  0  0  0
    2.9478  -19.9508  -38.9620 C   0  0  0  0  0  0  0  0  0  0  0  0
    3.6863  -19.4186  -37.9231 C   0  0  0  0  0  0  0  0  0  0  0  0
    3.1787  -18.4418  -37.1069 C   0  0  0  0  0  0  0  0  0  0  0  0
    1.8914  -17.9382  -37.2871 C   0  0  0  0  0  0  0  0  0  0  0  0
    1.1473  -18.4591  -38.3172 C   0  0  0  0  0  0  0  0  0  0  0  0
    1.6798  -19.4383  -39.1214 C   0  0  0  0  0  0  0  0  0  0  0  0
   -3.0898  -12.7589  -37.3734 C   0  0  0  0  0  0  0  0  0  0  0  0
   -4.2648  -12.7482  -36.4692 C   0  0  0  0  0  0  0  0  0  0  0  0
   -4.3131  -11.6695  -35.4448 C   0  0  0  0  0  0  0  0  0  0  0  0
   -4.2356  -12.1433  -34.1418 O   0  0  0  0  0  0  0  0  0  0  0  0
   -3.2751  -11.3947  -33.4297 C   0  0  0  0  0  0  0  0  0  0  0  0
 25 26  1  0  0  0
 26 27  2  0  0  0
 26 31  1  0  0  0
 27 28  1  0  0  0
 28 29  2  0  0  0
 29 30  1  0  0  0
 29 22  1  0  0  0
 30 31  2  0  0  0
 22 23  1  0  0  0
 22  1  1  0  0  0
  1  2  1  0  0  0
  1  5  1  0  0  0
  2  3  1  0  0  0
  3  4  1  0  0  0
  3 11  1  0  0  0
  3 18  1  0  0  0
  4  5  1  0  0  0
  4  9  1  0  0  0
  5  6  1  0  0  0
  6  7  2  0  0  0
  6  8  1  0  0  0
  8  9  1  0  0  0
  8 32  1  0  0  0
  9 10  2  0  0  0
 32 33  1  0  0  0
 33 34  1  0  0  0
 34 35  1  0  0  0
 35 36  1  0  0  0
 11 12  1  0  0  0
 11 16  2  0  0  0
 12 13  2  0  0  0
 12 17  1  0  0  0
 13 14  1  0  0  0
 14 15  2  0  0  0
 15 16  1  0  0  0
 17 18  1  0  0  0
 18 19  2  0  0  0
 23 24  1  0  0  0
  2 20  1  0  0  0
 17 21  1  0  0  0
M  END
> <minimizedAffinity>
-6.34571

$$$$
1958


 28 31  0  0  0  0  0  0  0  0999 V2000
    1.4122  -14.5085  -38.4516 C   0  0  0  0  0  0  0  0  0  0  0  0
    1.3160  -14.4257  -39.7250 O   0  0  0  0  0  0  0  0  0  0  0  0
    1.2467  -15.7249  -37.7741 N   0  0  0  0  0  0  0  0  0  0  0  0
    1.3529  -15.8246  -36.3531 C   0  0  0  0  0  0  0  0  0  0  0  0
    1.7747  -17.1786  -35.8560 C   0  0  0  0  0  0  0  0  0  0  0  0
    2.5298  -17.8975  -36.9104 C   0  0  0  0  0  0  0  0  0  0  0  0
    2.1570  -17.8000  -38.2381 C   0  0  0  0  0  0  0  0  0  0  0  0
    2.8279  -18.4495  -39.1960 N   0  0  0  0  0  0  0  0  0  0  0  0
    3.8977  -19.2310  -38.9364 C   0  0  0  0  0  0  0  0  0  0  0  0
    4.2670  -19.3294  -37.6367 N   0  0  0  0  0  0  0  0  0  0  0  0
    3.6250  -18.6969  -36.6395 C   0  0  0  0  0  0  0  0  0  0  0  0
    4.0296  -18.8193  -35.3181 O   0  0  0  0  0  0  0  0  0  0  0  0
    0.9636  -16.9185  -38.5216 C   0  0  0  0  0  0  0  0  0  0  0  0
    4.9269  -18.4547  -34.9878 H   0  0  0  0  0  0  0  0  0  0  0  0
    4.5697  -19.8901  -39.9799 N   0  0  0  0  0  0  0  0  0  0  0  0
    4.9033  -21.2794  -39.8725 C   0  0  0  0  0  0  0  0  0  0  0  0
    5.0674  -21.7939  -41.3100 C   0  0  0  0  0  0  0  0  0  0  0  0
    6.0992  -21.1549  -41.9509 O   0  0  0  0  0  0  0  0  0  0  0  0
    6.1250  -19.7910  -41.8417 C   0  0  0  0  0  0  0  0  0  0  0  0
    4.9307  -19.1745  -41.1674 C   0  0  0  0  0  0  0  0  0  0  0  0
    1.7116  -13.2361  -37.7195 C   0  0  0  0  0  0  0  0  0  0  0  0
    6.2692  -10.1553  -40.1931 Cl  0  0  0  0  0  0  0  0  0  0  0  0
    4.9449  -11.0540  -39.4852 C   0  0  0  0  0  0  0  0  0  0  0  0
    4.2000  -11.9427  -40.2537 C   0  0  0  0  0  0  0  0  0  0  0  0
    3.1598  -12.6445  -39.6844 C   0  0  0  0  0  0  0  0  0  0  0  0
    2.8149  -12.5006  -38.3576 C   0  0  0  0  0  0  0  0  0  0  0  0
    3.5481  -11.6225  -37.5899 C   0  0  0  0  0  0  0  0  0  0  0  0
    4.5882  -10.9208  -38.1568 C   0  0  0  0  0  0  0  0  0  0  0  0
 22 23  1  0  0  0
 23 24  2  0  0  0
 23 28  1  0  0  0
 24 25  1  0  0  0
 25 26  2  0  0  0
 26 27  1  0  0  0
 26 21  1  0  0  0
 27 28  2  0  0  0
 21  1  1  0  0  0
  1  2  2  0  0  0
  1  3  1  0  0  0
  3  4  1  0  0  0
  3 13  1  0  0  0
  4  5  1  0  0  0
  5  6  1  0  0  0
  6  7  2  0  0  0
  6 11  1  0  0  0
  7  8  1  0  0  0
  7 13  1  0  0  0
  8  9  2  0  0  0
  9 10  1  0  0  0
  9 15  1  0  0  0
 10 11  2  0  0  0
 11 12  1  0  0  0
 15 16  1  0  0  0
 15 20  1  0  0  0
 16 17  1  0  0  0
 17 18  1  0  0  0
 18 19  1  0  0  0
 19 20  1  0  0  0
 12 14  1  0  0  0
M  END
> <minimizedAffinity>
-7.77874

$$$$
1960


 28 31  0  0  0  0  0  0  0  0999 V2000
    5.3870  -21.0657  -39.7938 C   0  0  0  0  0  0  0  0  0  0  0  0
    6.5026  -21.0256  -39.2112 O   0  0  0  0  0  0  0  0  0  0  0  0
    5.3273  -20.7346  -41.1567 N   0  0  0  0  0  0  0  0  0  0  0  0
    6.5396  -20.3454  -41.8984 C   0  0  0  0  0  0  0  0  0  0  0  0
    6.4477  -20.9368  -43.2968 C   0  0  0  0  0  0  0  0  0  0  0  0
    5.6238  -22.1243  -43.1927 N   0  0  0  0  0  0  0  0  0  0  0  0
    4.2059  -21.8816  -42.9881 C   0  0  0  0  0  0  0  0  0  0  0  0
    4.1114  -20.7431  -41.9578 C   0  0  0  0  0  0  0  0  0  0  0  0
    6.1721  -23.4307  -43.2704 C   0  0  0  0  0  0  0  0  0  0  0  0
    5.3392  -24.5239  -43.4232 C   0  0  0  0  0  0  0  0  0  0  0  0
    5.8918  -25.7706  -43.4821 N   0  0  0  0  0  0  0  0  0  0  0  0
    7.1903  -25.9846  -43.3985 N   0  0  0  0  0  0  0  0  0  0  0  0
    8.0726  -24.9489  -43.2469 C   0  0  0  0  0  0  0  0  0  0  0  0
    7.5166  -23.7069  -43.1889 C   0  0  0  0  0  0  0  0  0  0  0  0
    9.4499  -25.2499  -43.1615 N   0  0  0  0  0  0  0  0  0  0  0  0
   10.3809  -24.7778  -44.1694 C   0  0  0  0  0  0  0  0  0  0  0  0
   11.3412  -25.8965  -44.5761 C   0  0  0  0  0  0  0  0  0  0  0  0
   11.8633  -26.5447  -43.4745 O   0  0  0  0  0  0  0  0  0  0  0  0
   10.8154  -27.1454  -42.7936 C   0  0  0  0  0  0  0  0  0  0  0  0
   10.0115  -26.0355  -42.0931 C   0  0  0  0  0  0  0  0  0  0  0  0
    4.2143  -21.4629  -38.9916 C   0  0  0  0  0  0  0  0  0  0  0  0
    1.3479  -16.6875  -36.6768 Cl  0  0  0  0  0  0  0  0  0  0  0  0
    2.1806  -18.0610  -37.3381 C   0  0  0  0  0  0  0  0  0  0  0  0
    1.6181  -18.8054  -38.3764 C   0  0  0  0  0  0  0  0  0  0  0  0
    2.2866  -19.8979  -38.8977 C   0  0  0  0  0  0  0  0  0  0  0  0
    3.5308  -20.2803  -38.4030 C   0  0  0  0  0  0  0  0  0  0  0  0
    4.0853  -19.5541  -37.3857 C   0  0  0  0  0  0  0  0  0  0  0  0
    3.4100  -18.4521  -36.8617 C   0  0  0  0  0  0  0  0  0  0  0  0
 22 23  1  0  0  0
 23 24  2  0  0  0
 23 28  1  0  0  0
 24 25  1  0  0  0
 25 26  2  0  0  0
 26 27  1  0  0  0
 26 21  1  0  0  0
 27 28  2  0  0  0
 21  1  1  0  0  0
  1  2  2  0  0  0
  1  3  1  0  0  0
  3  4  1  0  0  0
  3  8  1  0  0  0
  4  5  1  0  0  0
  5  6  1  0  0  0
  6  7  1  0  0  0
  6  9  1  0  0  0
  7  8  1  0  0  0
  9 10  2  0  0  0
  9 14  1  0  0  0
 10 11  1  0  0  0
 11 12  2  0  0  0
 12 13  1  0  0  0
 13 14  2  0  0  0
 13 15  1  0  0  0
 15 16  1  0  0  0
 15 20  1  0  0  0
 16 17  1  0  0  0
 17 18  1  0  0  0
 18 19  1  0  0  0
 19 20  1  0  0  0
M  END
> <minimizedAffinity>
-6.79300

$$$$
1966


 27 30  0  0  0  0  0  0  0  0999 V2000
    3.4072  -18.5727  -36.5692 C   0  0  0  0  0  0  0  0  0  0  0  0
    4.0714  -18.9531  -35.5280 O   0  0  0  0  0  0  0  0  0  0  0  0
    2.4911  -17.5513  -36.5674 N   0  0  0  0  0  0  0  0  0  0  0  0
    2.7032  -17.3441  -35.2328 H   0  0  0  0  0  0  0  0  0  0  0  0
    6.2158  -19.1822  -37.8101 F   0  0  0  0  0  0  0  0  0  0  0  0
    5.0276  -19.6463  -38.2684 C   0  0  0  0  0  0  0  0  0  0  0  0
    4.9400  -20.4597  -39.3650 N   0  0  0  0  0  0  0  0  0  0  0  0
    3.6296  -20.7081  -39.5179 C   0  0  0  0  0  0  0  0  0  0  0  0
    2.9406  -20.0733  -38.5556 N   0  0  0  0  0  0  0  0  0  0  0  0
    3.7818  -19.3956  -37.7505 C   0  0  0  0  0  0  0  0  0  0  0  0
    3.2610  -21.5141  -40.5671 C   0  0  0  0  0  0  0  0  0  0  0  0
    4.1900  -22.0655  -41.4514 C   0  0  0  0  0  0  0  0  0  0  0  0
    5.5179  -21.7900  -41.2630 C   0  0  0  0  0  0  0  0  0  0  0  0
    5.8647  -20.9710  -40.1944 C   0  0  0  0  0  0  0  0  0  0  0  0
    6.7466  -22.4566  -42.3382 Cl  0  0  0  0  0  0  0  0  0  0  0  0
    1.5796  -16.5367  -36.5652 C   0  0  0  0  0  0  0  0  0  0  0  0
    0.7621  -16.3912  -37.8242 C   0  0  0  0  0  0  0  0  0  0  0  0
    0.7778  -15.3398  -38.6473 N   0  0  0  0  0  0  0  0  0  0  0  0
   -0.0661  -15.5878  -39.6344 N   0  0  0  0  0  0  0  0  0  0  0  0
   -0.6203  -16.7690  -39.4659 N   0  0  0  0  0  0  0  0  0  0  0  0
   -0.1008  -17.2605  -38.3406 N   0  0  0  0  0  0  0  0  0  0  0  0
    1.6045  -14.1955  -38.4263 C   0  0  0  0  0  0  0  0  0  0  0  0
    2.4386  -13.7814  -39.4593 C   0  0  0  0  0  0  0  0  0  0  0  0
    3.2805  -12.6870  -39.3031 C   0  0  0  0  0  0  0  0  0  0  0  0
    3.3164  -11.9774  -38.1198 C   0  0  0  0  0  0  0  0  0  0  0  0
    2.4865  -12.3933  -37.1007 C   0  0  0  0  0  0  0  0  0  0  0  0
    1.6477  -13.4829  -37.2525 C   0  0  0  0  0  0  0  0  0  0  0  0
  5  6  1  0  0  0
  6  7  1  0  0  0
  6 10  2  0  0  0
  7  8  1  0  0  0
  7 14  1  0  0  0
  8  9  2  0  0  0
  8 11  1  0  0  0
  9 10  1  0  0  0
 10  1  1  0  0  0
  1  2  2  0  0  0
  1  3  1  0  0  0
  3 16  1  0  0  0
 16 17  1  0  0  0
 17 18  1  0  0  0
 17 21  2  0  0  0
 18 19  1  0  0  0
 18 22  1  0  0  0
 19 20  2  0  0  0
 20 21  1  0  0  0
 22 23  2  0  0  0
 22 27  1  0  0  0
 23 24  1  0  0  0
 24 25  2  0  0  0
 25 26  1  0  0  0
 26 27  2  0  0  0
 11 12  2  0  0  0
 12 13  1  0  0  0
 13 14  2  0  0  0
 13 15  1  0  0  0
  3  4  1  0  0  0
M  END
> <minimizedAffinity>
-7.08484

$$$$
1969


 26 29  0  0  0  0  0  0  0  0999 V2000
    3.0840  -19.6699  -38.3093 C   0  0  0  0  0  0  0  0  0  0  0  0
    3.3376  -20.4197  -37.1651 O   0  0  0  0  0  0  0  0  0  0  0  0
    4.1837  -19.5957  -39.0967 N   0  0  0  0  0  0  0  0  0  0  0  0
    4.3934  -19.0320  -40.3972 C   0  0  0  0  0  0  0  0  0  0  0  0
    5.5757  -19.7514  -41.0787 C   0  0  0  0  0  0  0  0  0  0  0  0
    5.4941  -21.1253  -40.5631 N   0  0  0  0  0  0  0  0  0  0  0  0
    5.8437  -21.3698  -39.2031 C   0  0  0  0  0  0  0  0  0  0  0  0
    5.4360  -20.1307  -38.4727 C   0  0  0  0  0  0  0  0  0  0  0  0
    4.9710  -22.1295  -41.3696 C   0  0  0  0  0  0  0  0  0  0  0  0
    3.6237  -22.4975  -41.2787 N   0  0  0  0  0  0  0  0  0  0  0  0
    3.0343  -23.3909  -41.9923 C   0  0  0  0  0  0  0  0  0  0  0  0
    3.7128  -24.1113  -42.9876 C   0  0  0  0  0  0  0  0  0  0  0  0
    5.0526  -23.7579  -43.0806 C   0  0  0  0  0  0  0  0  0  0  0  0
    5.5833  -22.8617  -42.3368 N   0  0  0  0  0  0  0  0  0  0  0  0
    0.8828  -17.1086  -37.4177 N   0  0  0  0  0  0  0  0  0  0  0  0
   -0.0525  -18.0066  -37.6413 N   0  0  0  0  0  0  0  0  0  0  0  0
    0.5287  -18.9841  -37.9756 N   0  0  0  0  0  0  0  0  0  0  0  0
    1.6929  -19.2959  -38.1268 C   0  0  0  0  0  0  0  0  0  0  0  0
    2.0194  -17.7096  -37.6495 C   0  0  0  0  0  0  0  0  0  0  0  0
   -2.5480  -13.2818  -36.3701 Cl  0  0  0  0  0  0  0  0  0  0  0  0
   -0.9649  -13.9845  -36.4825 C   0  0  0  0  0  0  0  0  0  0  0  0
   -0.7178  -15.2815  -36.9138 C   0  0  0  0  0  0  0  0  0  0  0  0
    0.5401  -15.7704  -36.9896 C   0  0  0  0  0  0  0  0  0  0  0  0
    1.5588  -14.9168  -36.6169 C   0  0  0  0  0  0  0  0  0  0  0  0
    1.3799  -13.6447  -36.1894 C   0  0  0  0  0  0  0  0  0  0  0  0
    0.1292  -13.1375  -36.1114 C   0  0  0  0  0  0  0  0  0  0  0  0
 20 21  1  0  0  0
 21 22  2  0  0  0
 21 26  1  0  0  0
 22 23  1  0  0  0
 23 24  2  0  0  0
 23 15  1  0  0  0
 24 25  1  0  0  0
 25 26  2  0  0  0
 15 16  1  0  0  0
 15 19  1  0  0  0
 16 17  2  0  0  0
 17 18  1  0  0  0
 18 19  2  0  0  0
 18  1  1  0  0  0
  1  2  2  0  0  0
  1  3  1  0  0  0
  3  4  1  0  0  0
  3  8  1  0  0  0
  4  5  1  0  0  0
  5  6  1  0  0  0
  6  7  1  0  0  0
  6  9  1  0  0  0
  7  8  1  0  0  0
  9 10  2  0  0  0
  9 14  1  0  0  0
 10 11  1  0  0  0
 11 12  2  0  0  0
 12 13  1  0  0  0
 13 14  2  0  0  0
M  END
> <minimizedAffinity>
-6.78179

$$$$
1971


 22 25  0  0  0  0  0  0  0  0999 V2000
    2.2817  -18.8109  -37.8690 N   0  0  0  0  0  0  0  0  0  0  0  0
    3.5006  -19.3175  -37.2941 C   0  0  0  0  0  0  0  0  0  0  0  0
    4.0571  -18.8456  -36.2747 O   0  0  0  0  0  0  0  0  0  0  0  0
    3.9796  -20.4534  -38.0770 C   0  0  0  0  0  0  0  0  0  0  0  0
    5.1920  -20.1906  -38.9078 C   0  0  0  0  0  0  0  0  0  0  0  0
    5.0056  -21.1531  -39.9321 O   0  0  0  0  0  0  0  0  0  0  0  0
    3.7743  -20.6388  -40.4145 C   0  0  0  0  0  0  0  0  0  0  0  0
    2.9259  -20.7016  -39.1685 C   0  0  0  0  0  0  0  0  0  0  0  0
    2.0554  -19.5275  -39.0775 C   0  0  0  0  0  0  0  0  0  0  0  0
    1.2113  -19.1799  -39.9392 O   0  0  0  0  0  0  0  0  0  0  0  0
    4.1410  -19.2250  -40.6404 C   0  0  0  0  0  0  0  0  0  0  0  0
    5.0739  -18.9470  -39.7010 C   0  0  0  0  0  0  0  0  0  0  0  0
    1.6469  -13.8889  -36.3421 Cl  0  0  0  0  0  0  0  0  0  0  0  0
    1.0581  -15.5095  -36.6417 C   0  0  0  0  0  0  0  0  0  0  0  0
    1.8846  -16.5005  -37.1268 C   0  0  0  0  0  0  0  0  0  0  0  0
    1.4306  -17.7875  -37.3673 C   0  0  0  0  0  0  0  0  0  0  0  0
    0.0999  -18.0406  -37.0994 C   0  0  0  0  0  0  0  0  0  0  0  0
   -0.7335  -17.0429  -36.6108 C   0  0  0  0  0  0  0  0  0  0  0  0
   -0.2715  -15.7642  -36.3732 C   0  0  0  0  0  0  0  0  0  0  0  0
    6.4932  -20.3679  -38.2085 C   0  0  0  0  0  0  0  0  0  0  0  0
    6.9294  -19.1401  -37.7274 O   0  0  0  0  0  0  0  0  0  0  0  0
    6.2978  -18.4285  -37.9828 H   0  0  0  0  0  0  0  0  0  0  0  0
 13 14  1  0  0  0
 14 15  2  0  0  0
 14 19  1  0  0  0
 15 16  1  0  0  0
 16 17  2  0  0  0
 16  1  1  0  0  0
 17 18  1  0  0  0
 18 19  2  0  0  0
  1  2  1  0  0  0
  1  9  1  0  0  0
  2  3  2  0  0  0
  2  4  1  0  0  0
  4  5  1  0  0  0
  4  8  1  0  0  0
  5  6  1  0  0  0
  5 12  1  0  0  0
  5 20  1  0  0  0
  6  7  1  0  0  0
  7  8  1  0  0  0
  7 11  1  0  0  0
  8  9  1  0  0  0
  9 10  2  0  0  0
 11 12  2  0  0  0
 20 21  1  0  0  0
 21 22  1  0  0  0
M  END
> <minimizedAffinity>
-6.67045

$$$$
1973


 24 27  0  0  0  0  0  0  0  0999 V2000
    5.0864  -22.2077  -41.2160 Cl  0  0  0  0  0  0  0  0  0  0  0  0
    4.4103  -21.1562  -39.9726 C   0  0  0  0  0  0  0  0  0  0  0  0
    3.6742  -20.0323  -40.2867 C   0  0  0  0  0  0  0  0  0  0  0  0
    3.1461  -19.2127  -39.3460 N   0  0  0  0  0  0  0  0  0  0  0  0
    3.3113  -19.4489  -38.0312 C   0  0  0  0  0  0  0  0  0  0  0  0
    2.7897  -18.6383  -37.0733 N   0  0  0  0  0  0  0  0  0  0  0  0
    2.0710  -17.5405  -37.3709 C   0  0  0  0  0  0  0  0  0  0  0  0
    1.8912  -17.2820  -38.7259 C   0  0  0  0  0  0  0  0  0  0  0  0
    1.0979  -16.0694  -39.0566 C   0  0  0  0  0  0  0  0  0  0  0  0
    1.6200  -15.0164  -38.1779 N   0  0  0  0  0  0  0  0  0  0  0  0
    1.4869  -15.2068  -36.7612 C   0  0  0  0  0  0  0  0  0  0  0  0
    1.4936  -16.6475  -36.3339 C   0  0  0  0  0  0  0  0  0  0  0  0
    2.2356  -13.8669  -38.7200 C   0  0  0  0  0  0  0  0  0  0  0  0
    2.3183  -13.8008  -39.9931 O   0  0  0  0  0  0  0  0  0  0  0  0
    2.4314  -18.1216  -39.6749 C   0  0  0  0  0  0  0  0  0  0  0  0
    2.2522  -17.8627  -40.9088 O   0  0  0  0  0  0  0  0  0  0  0  0
    4.0482  -20.5725  -37.6945 C   0  0  0  0  0  0  0  0  0  0  0  0
    4.5955  -21.4226  -38.6328 C   0  0  0  0  0  0  0  0  0  0  0  0
    2.7693  -12.7695  -37.8830 C   0  0  0  0  0  0  0  0  0  0  0  0
    1.6825  -12.0669  -37.0994 C   0  0  0  0  0  0  0  0  0  0  0  0
    0.5113  -11.9151  -38.0614 C   0  0  0  0  0  0  0  0  0  0  0  0
    0.9766  -11.6188  -39.3414 O   0  0  0  0  0  0  0  0  0  0  0  0
    2.1641  -10.8757  -39.2957 C   0  0  0  0  0  0  0  0  0  0  0  0
    3.3457  -11.7033  -38.8265 C   0  0  0  0  0  0  0  0  0  0  0  0
  1  2  1  0  0  0
  2  3  2  0  0  0
  2 18  1  0  0  0
  3  4  1  0  0  0
  4  5  1  0  0  0
  4 15  1  0  0  0
  5  6  2  0  0  0
  5 17  1  0  0  0
  6  7  1  0  0  0
  7  8  2  0  0  0
  7 12  1  0  0  0
  8  9  1  0  0  0
  8 15  1  0  0  0
  9 10  1  0  0  0
 10 11  1  0  0  0
 10 13  1  0  0  0
 11 12  1  0  0  0
 13 14  2  0  0  0
 13 19  1  0  0  0
 19 20  1  0  0  0
 19 24  1  0  0  0
 20 21  1  0  0  0
 21 22  1  0  0  0
 22 23  1  0  0  0
 23 24  1  0  0  0
 15 16  2  0  0  0
 17 18  2  0  0  0
M  END
> <minimizedAffinity>
-6.60686

$$$$
1974


 26 29  0  0  0  0  0  0  0  0999 V2000
    1.8821  -15.6165  -40.8535 F   0  0  0  0  0  0  0  0  0  0  0  0
    2.1897  -14.5900  -40.0247 C   0  0  0  0  0  0  0  0  0  0  0  0
    1.5813  -14.5429  -38.7796 C   0  0  0  0  0  0  0  0  0  0  0  0
    1.8449  -13.5295  -37.8847 C   0  0  0  0  0  0  0  0  0  0  0  0
    2.7437  -12.5496  -38.2707 C   0  0  0  0  0  0  0  0  0  0  0  0
    3.3483  -12.5950  -39.5050 C   0  0  0  0  0  0  0  0  0  0  0  0
    3.0805  -13.6098  -40.3941 C   0  0  0  0  0  0  0  0  0  0  0  0
    3.0829  -11.2563  -37.1344 Cl  0  0  0  0  0  0  0  0  0  0  0  0
    1.0912  -13.6999  -36.6596 C   0  0  0  0  0  0  0  0  0  0  0  0
    1.0855  -12.9730  -35.6401 O   0  0  0  0  0  0  0  0  0  0  0  0
    0.3161  -14.9194  -36.8482 C   0  0  0  0  0  0  0  0  0  0  0  0
   -0.4819  -15.4215  -35.9962 O   0  0  0  0  0  0  0  0  0  0  0  0
    0.6267  -15.4164  -38.1405 N   0  0  0  0  0  0  0  0  0  0  0  0
    0.0925  -16.6091  -38.7649 C   0  0  0  0  0  0  0  0  0  0  0  0
    0.4625  -17.8303  -38.0811 N   0  0  0  0  0  0  0  0  0  0  0  0
    0.1560  -18.9725  -38.8720 C   0  0  0  0  0  0  0  0  0  0  0  0
    1.2071  -20.0249  -38.9168 C   0  0  0  0  0  0  0  0  0  0  0  0
    2.5476  -19.5025  -38.9707 N   0  0  0  0  0  0  0  0  0  0  0  0
    2.7661  -18.1242  -38.5982 C   0  0  0  0  0  0  0  0  0  0  0  0
    1.7654  -17.8038  -37.5083 C   0  0  0  0  0  0  0  0  0  0  0  0
    3.6517  -20.2882  -39.3720 C   0  0  0  0  0  0  0  0  0  0  0  0
    4.0966  -20.2742  -40.6395 N   0  0  0  0  0  0  0  0  0  0  0  0
    5.1462  -21.0144  -41.0470 C   0  0  0  0  0  0  0  0  0  0  0  0
    5.8145  -21.8303  -40.1543 C   0  0  0  0  0  0  0  0  0  0  0  0
    5.3752  -21.8480  -38.8857 N   0  0  0  0  0  0  0  0  0  0  0  0
    4.3261  -21.1092  -38.4770 C   0  0  0  0  0  0  0  0  0  0  0  0
  1  2  1  0  0  0
  2  3  2  0  0  0
  2  7  1  0  0  0
  3  4  1  0  0  0
  3 13  1  0  0  0
  4  5  2  0  0  0
  4  9  1  0  0  0
  5  6  1  0  0  0
  5  8  1  0  0  0
  6  7  2  0  0  0
  9 10  2  0  0  0
  9 11  1  0  0  0
 11 12  2  0  0  0
 11 13  1  0  0  0
 13 14  1  0  0  0
 14 15  1  0  0  0
 15 16  1  0  0  0
 15 20  1  0  0  0
 16 17  1  0  0  0
 17 18  1  0  0  0
 18 19  1  0  0  0
 18 21  1  0  0  0
 19 20  1  0  0  0
 21 22  2  0  0  0
 21 26  1  0  0  0
 22 23  1  0  0  0
 23 24  2  0  0  0
 24 25  1  0  0  0
 25 26  2  0  0  0
M  END
> <minimizedAffinity>
-6.12494

$$$$
1976


 26 29  0  0  0  0  0  0  0  0999 V2000
    1.7792  -17.5693  -37.8349 C   0  0  0  0  0  0  0  0  0  0  0  0
    0.9530  -17.2023  -38.7412 O   0  0  0  0  0  0  0  0  0  0  0  0
    2.7758  -18.5490  -38.0852 N   0  0  0  0  0  0  0  0  0  0  0  0
    3.6685  -18.9139  -37.0423 C   0  0  0  0  0  0  0  0  0  0  0  0
    5.0948  -18.8822  -37.6056 C   0  0  0  0  0  0  0  0  0  0  0  0
    5.0607  -19.9729  -38.6549 C   0  0  0  0  0  0  0  0  0  0  0  0
    3.9617  -20.0820  -39.4817 C   0  0  0  0  0  0  0  0  0  0  0  0
    3.9460  -21.0795  -40.4114 N   0  0  0  0  0  0  0  0  0  0  0  0
    4.9535  -21.9550  -40.5531 C   0  0  0  0  0  0  0  0  0  0  0  0
    6.0169  -21.8344  -39.7386 N   0  0  0  0  0  0  0  0  0  0  0  0
    6.0929  -20.8562  -38.7878 C   0  0  0  0  0  0  0  0  0  0  0  0
    7.1852  -20.7302  -37.9490 O   0  0  0  0  0  0  0  0  0  0  0  0
    2.8307  -19.1391  -39.3799 C   0  0  0  0  0  0  0  0  0  0  0  0
    7.7708  -19.9097  -38.0507 H   0  0  0  0  0  0  0  0  0  0  0  0
    1.6534  -16.9196  -36.4905 C   0  0  0  0  0  0  0  0  0  0  0  0
   -1.2849  -16.9888  -35.8498 Cl  0  0  0  0  0  0  0  0  0  0  0  0
   -0.4505  -15.5372  -36.3360 C   0  0  0  0  0  0  0  0  0  0  0  0
   -1.1113  -14.3242  -36.4500 C   0  0  0  0  0  0  0  0  0  0  0  0
   -0.4648  -13.1645  -36.8351 C   0  0  0  0  0  0  0  0  0  0  0  0
    0.8878  -13.2450  -37.1076 C   0  0  0  0  0  0  0  0  0  0  0  0
    1.5307  -14.4628  -36.9885 C   0  0  0  0  0  0  0  0  0  0  0  0
    0.9007  -15.6336  -36.6051 C   0  0  0  0  0  0  0  0  0  0  0  0
    1.5325  -12.0872  -37.4906 O   0  0  0  0  0  0  0  0  0  0  0  0
    1.0463  -10.7788  -37.2697 C   0  0  0  0  0  0  0  0  0  0  0  0
   -0.4046  -10.7077  -36.9485 C   0  0  0  0  0  0  0  0  0  0  0  0
   -1.0721  -11.9404  -36.9631 O   0  0  0  0  0  0  0  0  0  0  0  0
 16 17  1  0  0  0
 17 18  2  0  0  0
 17 22  1  0  0  0
 18 19  1  0  0  0
 19 20  2  0  0  0
 19 26  1  0  0  0
 20 21  1  0  0  0
 20 23  1  0  0  0
 21 22  2  0  0  0
 22 15  1  0  0  0
 15  1  1  0  0  0
  1  2  2  0  0  0
  1  3  1  0  0  0
  3  4  1  0  0  0
  3 13  1  0  0  0
  4  5  1  0  0  0
  5  6  1  0  0  0
  6  7  2  0  0  0
  6 11  1  0  0  0
  7  8  1  0  0  0
  7 13  1  0  0  0
  8  9  2  0  0  0
  9 10  1  0  0  0
 10 11  2  0  0  0
 11 12  1  0  0  0
 23 24  1  0  0  0
 24 25  1  0  0  0
 25 26  1  0  0  0
 12 14  1  0  0  0
M  END
> <minimizedAffinity>
-6.75032

$$$$
1982


 25 28  0  0  0  0  0  0  0  0999 V2000
    2.5112  -12.8255  -37.3288 Cl  0  0  0  0  0  0  0  0  0  0  0  0
    1.3692  -14.1461  -37.1997 C   0  0  0  0  0  0  0  0  0  0  0  0
    1.6577  -15.4254  -37.6272 C   0  0  0  0  0  0  0  0  0  0  0  0
    0.7669  -16.4752  -37.5324 C   0  0  0  0  0  0  0  0  0  0  0  0
   -0.4716  -16.2138  -36.9785 C   0  0  0  0  0  0  0  0  0  0  0  0
   -0.7719  -14.9385  -36.5467 C   0  0  0  0  0  0  0  0  0  0  0  0
    0.1190  -13.8889  -36.6424 C   0  0  0  0  0  0  0  0  0  0  0  0
   -1.4427  -17.3238  -36.8654 C   0  0  0  0  0  0  0  0  0  0  0  0
   -2.6223  -17.3534  -36.4058 N   0  0  0  0  0  0  0  0  0  0  0  0
   -3.2408  -18.6601  -36.4815 C   0  0  0  0  0  0  0  0  0  0  0  0
   -2.2060  -19.5377  -37.1060 C   0  0  0  0  0  0  0  0  0  0  0  0
   -1.0992  -18.6252  -37.3204 N   0  0  0  0  0  0  0  0  0  0  0  0
    0.2013  -18.8105  -37.8797 C   0  0  0  0  0  0  0  0  0  0  0  0
    0.7920  -19.9094  -38.3825 N   0  0  0  0  0  0  0  0  0  0  0  0
    2.0165  -19.6381  -38.8005 N   0  0  0  0  0  0  0  0  0  0  0  0
    2.1906  -18.3178  -38.5462 C   0  0  0  0  0  0  0  0  0  0  0  0
    3.2460  -17.7034  -38.8137 O   0  0  0  0  0  0  0  0  0  0  0  0
    1.0918  -17.7898  -37.9821 N   0  0  0  0  0  0  0  0  0  0  0  0
    2.9649  -20.5566  -39.4008 C   0  0  0  0  0  0  0  0  0  0  0  0
    3.9551  -21.0320  -38.3283 C   0  0  0  0  0  0  0  0  0  0  0  0
    5.3493  -20.8394  -38.8002 C   0  0  0  0  0  0  0  0  0  0  0  0
    6.2037  -21.7572  -38.8819 O   0  0  0  0  0  0  0  0  0  0  0  0
    5.7444  -19.5325  -39.1846 N   0  0  0  0  0  0  0  0  0  0  0  0
    5.4329  -18.6729  -38.6970 H   0  0  0  0  0  0  0  0  0  0  0  0
    6.3814  -19.4392  -40.0026 H   0  0  0  0  0  0  0  0  0  0  0  0
  1  2  1  0  0  0
  2  3  2  0  0  0
  2  7  1  0  0  0
  3  4  1  0  0  0
  4  5  2  0  0  0
  4 18  1  0  0  0
  5  6  1  0  0  0
  5  8  1  0  0  0
  6  7  2  0  0  0
  8  9  2  0  0  0
  8 12  1  0  0  0
  9 10  1  0  0  0
 10 11  1  0  0  0
 11 12  1  0  0  0
 12 13  1  0  0  0
 13 14  2  0  0  0
 13 18  1  0  0  0
 14 15  1  0  0  0
 15 16  1  0  0  0
 15 19  1  0  0  0
 16 17  2  0  0  0
 16 18  1  0  0  0
 19 20  1  0  0  0
 20 21  1  0  0  0
 21 22  2  0  0  0
 21 23  1  0  0  0
 23 24  1  0  0  0
 23 25  1  0  0  0
M  END
> <minimizedAffinity>
-5.52013

$$$$
1986


 30 33  0  0  0  0  0  0  0  0999 V2000
    6.5170  -19.0812  -37.4745 Cl  0  0  0  0  0  0  0  0  0  0  0  0
    4.9666  -19.5594  -38.1433 C   0  0  0  0  0  0  0  0  0  0  0  0
    3.8019  -18.9242  -37.7615 C   0  0  0  0  0  0  0  0  0  0  0  0
    2.5638  -19.3059  -38.2943 C   0  0  0  0  0  0  0  0  0  0  0  0
    2.5743  -20.3315  -39.2043 C   0  0  0  0  0  0  0  0  0  0  0  0
    3.7592  -20.9741  -39.5890 C   0  0  0  0  0  0  0  0  0  0  0  0
    4.9720  -20.5912  -39.0592 C   0  0  0  0  0  0  0  0  0  0  0  0
    1.3568  -20.7291  -39.7495 O   0  0  0  0  0  0  0  0  0  0  0  0
    0.1480  -20.1421  -39.4169 C   0  0  0  0  0  0  0  0  0  0  0  0
    0.1392  -19.1057  -38.4966 C   0  0  0  0  0  0  0  0  0  0  0  0
    1.3510  -18.5931  -37.8475 C   0  0  0  0  0  0  0  0  0  0  0  0
   -1.0899  -18.5515  -38.1991 C   0  0  0  0  0  0  0  0  0  0  0  0
   -1.1603  -17.5968  -37.3615 O   0  0  0  0  0  0  0  0  0  0  0  0
   -2.2521  -18.9520  -38.7382 N   0  0  0  0  0  0  0  0  0  0  0  0
   -2.1945  -19.9682  -39.6332 C   0  0  0  0  0  0  0  0  0  0  0  0
   -3.2969  -20.3285  -40.1269 O   0  0  0  0  0  0  0  0  0  0  0  0
   -1.0186  -20.5386  -39.9536 N   0  0  0  0  0  0  0  0  0  0  0  0
   -1.0405  -21.6200  -40.9179 C   0  0  0  0  0  0  0  0  0  0  0  0
   -3.5285  -18.3278  -38.3888 C   0  0  0  0  0  0  0  0  0  0  0  0
    1.5020  -17.1348  -38.1629 C   0  0  0  0  0  0  0  0  0  0  0  0
    1.5065  -16.1917  -37.1589 C   0  0  0  0  0  0  0  0  0  0  0  0
    1.6424  -14.8710  -37.4580 N   0  0  0  0  0  0  0  0  0  0  0  0
    1.7735  -14.4676  -38.7466 C   0  0  0  0  0  0  0  0  0  0  0  0
    1.8966  -13.2337  -38.9866 O   0  0  0  0  0  0  0  0  0  0  0  0
    1.7723  -15.3636  -39.7462 N   0  0  0  0  0  0  0  0  0  0  0  0
    1.6383  -16.6715  -39.4562 C   0  0  0  0  0  0  0  0  0  0  0  0
    1.6392  -17.4864  -40.3900 O   0  0  0  0  0  0  0  0  0  0  0  0
    1.9144  -14.8948  -41.1213 C   0  0  0  0  0  0  0  0  0  0  0  0
    1.6420  -13.9217  -36.3495 C   0  0  0  0  0  0  0  0  0  0  0  0
    1.3752  -16.5939  -35.8590 O   0  0  0  0  0  0  0  0  0  0  0  0
  1  2  1  0  0  0
  2  3  2  0  0  0
  2  7  1  0  0  0
  3  4  1  0  0  0
  4  5  2  0  0  0
  4 11  1  0  0  0
  5  6  1  0  0  0
  5  8  1  0  0  0
  6  7  2  0  0  0
  8  9  1  0  0  0
  9 10  2  0  0  0
  9 17  1  0  0  0
 10 11  1  0  0  0
 10 12  1  0  0  0
 11 20  1  0  0  0
 20 21  2  0  0  0
 20 26  1  0  0  0
 21 22  1  0  0  0
 21 30  1  0  0  0
 22 23  1  0  0  0
 22 29  1  0  0  0
 23 24  2  0  0  0
 23 25  1  0  0  0
 25 26  1  0  0  0
 25 28  1  0  0  0
 26 27  2  0  0  0
 12 13  2  0  0  0
 12 14  1  0  0  0
 14 15  1  0  0  0
 14 19  1  0  0  0
 15 16  2  0  0  0
 15 17  1  0  0  0
 17 18  1  0  0  0
M  CHG 1  30  -1
M  END
> <minimizedAffinity>
-6.76906

$$$$
1991


 31 34  0  0  0  0  0  0  0  0999 V2000
    5.6520  -19.7585  -40.1103 Cl  0  0  0  0  0  0  0  0  0  0  0  0
    4.2529  -19.1400  -39.2663 C   0  0  0  0  0  0  0  0  0  0  0  0
    3.2752  -18.4373  -39.9344 C   0  0  0  0  0  0  0  0  0  0  0  0
    2.1847  -17.9589  -39.2560 C   0  0  0  0  0  0  0  0  0  0  0  0
    2.0700  -18.1897  -37.8798 C   0  0  0  0  0  0  0  0  0  0  0  0
    3.0492  -18.8954  -37.1992 C   0  0  0  0  0  0  0  0  0  0  0  0
    4.1221  -19.3555  -37.9121 C   0  0  0  0  0  0  0  0  0  0  0  0
    1.0363  -17.7746  -37.0546 O   0  0  0  0  0  0  0  0  0  0  0  0
   -0.2863  -17.4599  -37.4202 C   0  0  0  0  0  0  0  0  0  0  0  0
   -0.3626  -16.2570  -38.3033 C   0  0  0  0  0  0  0  0  0  0  0  0
    0.6519  -16.1694  -39.3097 N   0  0  0  0  0  0  0  0  0  0  0  0
    1.2185  -17.2232  -40.1110 C   0  0  0  0  0  0  0  0  0  0  0  0
    1.2084  -14.8738  -39.5868 C   0  0  0  0  0  0  0  0  0  0  0  0
    2.0937  -14.8155  -40.4757 O   0  0  0  0  0  0  0  0  0  0  0  0
   -0.9478  -18.6826  -38.0365 C   0  0  0  0  0  0  0  0  0  0  0  0
   -1.6576  -19.4919  -36.9655 C   0  0  0  0  0  0  0  0  0  0  0  0
   -2.7364  -18.8207  -36.4239 O   0  0  0  0  0  0  0  0  0  0  0  0
   -2.5497  -17.4448  -36.4900 C   0  0  0  0  0  0  0  0  0  0  0  0
   -1.1005  -17.1403  -36.1638 C   0  0  0  0  0  0  0  0  0  0  0  0
    0.7674  -13.6786  -38.8700 C   0  0  0  0  0  0  0  0  0  0  0  0
    1.7373  -12.9575  -38.1304 N   0  0  0  0  0  0  0  0  0  0  0  0
    2.0349  -13.6002  -36.8476 C   0  0  0  0  0  0  0  0  0  0  0  0
    0.7865  -13.6443  -36.0488 C   0  0  0  0  0  0  0  0  0  0  0  0
   -0.0115  -12.3851  -35.9871 C   0  0  0  0  0  0  0  0  0  0  0  0
    0.3347  -11.3166  -36.9472 C   0  0  0  0  0  0  0  0  0  0  0  0
    1.4514  -11.5650  -37.8886 C   0  0  0  0  0  0  0  0  0  0  0  0
   -1.4689  -12.6615  -36.0034 C   0  0  0  0  0  0  0  0  0  0  0  0
   -1.8824  -13.7361  -36.4837 O   0  0  0  0  0  0  0  0  0  0  0  0
   -2.3738  -11.7127  -35.4806 N   0  0  0  0  0  0  0  0  0  0  0  0
   -2.8021  -11.9567  -34.5394 H   0  0  0  0  0  0  0  0  0  0  0  0
   -2.6505  -10.8257  -35.9179 H   0  0  0  0  0  0  0  0  0  0  0  0
  1  2  1  0  0  0
  2  3  2  0  0  0
  2  7  1  0  0  0
  3  4  1  0  0  0
  4  5  2  0  0  0
  4 12  1  0  0  0
  5  6  1  0  0  0
  5  8  1  0  0  0
  6  7  2  0  0  0
  8  9  1  0  0  0
  9 10  1  0  0  0
  9 15  1  0  0  0
  9 19  1  0  0  0
 10 11  1  0  0  0
 11 12  1  0  0  0
 11 13  1  0  0  0
 13 14  2  0  0  0
 13 20  1  0  0  0
 20 21  1  0  0  0
 21 22  1  0  0  0
 21 26  1  0  0  0
 22 23  1  0  0  0
 23 24  1  0  0  0
 24 25  1  0  0  0
 24 27  1  0  0  0
 25 26  1  0  0  0
 27 28  2  0  0  0
 27 29  1  0  0  0
 15 16  1  0  0  0
 16 17  1  0  0  0
 17 18  1  0  0  0
 18 19  1  0  0  0
 29 30  1  0  0  0
 29 31  1  0  0  0
M  END
> <minimizedAffinity>
-6.30015

$$$$
2003


 28 31  0  0  0  0  0  0  0  0999 V2000
    1.8206  -15.1211  -37.8364 N   0  0  0  0  0  0  0  0  0  0  0  0
    1.6516  -16.0113  -38.9437 C   0  0  0  0  0  0  0  0  0  0  0  0
    2.4597  -17.2760  -38.8215 C   0  0  0  0  0  0  0  0  0  0  0  0
    2.5422  -17.7464  -37.4579 N   0  0  0  0  0  0  0  0  0  0  0  0
    1.8929  -17.0950  -36.3515 C   0  0  0  0  0  0  0  0  0  0  0  0
    1.5433  -15.6703  -36.5573 C   0  0  0  0  0  0  0  0  0  0  0  0
    3.3046  -18.9172  -37.1975 C   0  0  0  0  0  0  0  0  0  0  0  0
    3.4158  -19.3837  -36.0148 O   0  0  0  0  0  0  0  0  0  0  0  0
    3.9882  -19.6251  -38.2797 C   0  0  0  0  0  0  0  0  0  0  0  0
    5.3420  -19.5073  -38.5236 C   0  0  0  0  0  0  0  0  0  0  0  0
    5.9039  -20.1908  -39.5379 N   0  0  0  0  0  0  0  0  0  0  0  0
    5.2119  -21.0063  -40.3541 C   0  0  0  0  0  0  0  0  0  0  0  0
    3.8913  -21.1327  -40.1291 N   0  0  0  0  0  0  0  0  0  0  0  0
    3.1806  -21.9459  -40.9359 C   0  0  0  0  0  0  0  0  0  0  0  0
    3.7631  -22.6433  -41.9748 C   0  0  0  0  0  0  0  0  0  0  0  0
    5.1165  -22.5354  -42.2315 C   0  0  0  0  0  0  0  0  0  0  0  0
    5.8268  -21.6960  -41.3911 C   0  0  0  0  0  0  0  0  0  0  0  0
    3.2916  -20.4656  -39.1247 C   0  0  0  0  0  0  0  0  0  0  0  0
    2.0594  -20.5830  -38.9146 O   0  0  0  0  0  0  0  0  0  0  0  0
    1.2372  -13.5529  -38.0954 S   0  0  0  0  0  0  0  0  0  0  0  0
    0.3305  -13.5041  -39.2647 O   0  0  0  0  0  0  0  0  0  0  0  0
    0.4988  -13.0991  -36.8562 O   0  0  0  0  0  0  0  0  0  0  0  0
    2.6151  -12.4696  -38.3552 C   0  0  0  0  0  0  0  0  0  0  0  0
    3.5150  -12.1827  -39.7741 S   0  0  0  0  0  0  0  0  0  0  0  0
    4.6211  -11.0366  -39.1653 C   0  0  0  0  0  0  0  0  0  0  0  0
    4.2481  -10.9121  -37.8557 C   0  0  0  0  0  0  0  0  0  0  0  0
    3.2156  -11.6489  -37.4350 C   0  0  0  0  0  0  0  0  0  0  0  0
    5.9446  -10.1884  -39.9905 Cl  0  0  0  0  0  0  0  0  0  0  0  0
 20 21  2  0  0  0
 20 22  2  0  0  0
 20  1  1  0  0  0
 20 23  1  0  0  0
  1  2  1  0  0  0
  1  6  1  0  0  0
  2  3  1  0  0  0
  3  4  1  0  0  0
  4  5  1  0  0  0
  4  7  1  0  0  0
  5  6  1  0  0  0
  7  8  2  0  0  0
  7  9  1  0  0  0
  9 10  2  0  0  0
  9 18  1  0  0  0
 10 11  1  0  0  0
 11 12  2  0  0  0
 12 13  1  0  0  0
 12 17  1  0  0  0
 13 14  1  0  0  0
 13 18  1  0  0  0
 14 15  2  0  0  0
 15 16  1  0  0  0
 16 17  2  0  0  0
 18 19  2  0  0  0
 23 24  1  0  0  0
 23 27  2  0  0  0
 24 25  1  0  0  0
 25 26  2  0  0  0
 25 28  1  0  0  0
 26 27  1  0  0  0
M  END
> <minimizedAffinity>
-6.60568

$$$$
2004


 29 32  0  0  0  0  0  0  0  0999 V2000
    0.3716  -15.8356  -38.8776 S   0  0  0  0  0  0  0  0  0  0  0  0
    0.0694  -15.8339  -40.3685 O   0  0  0  0  0  0  0  0  0  0  0  0
   -0.9195  -16.3474  -38.2411 O   0  0  0  0  0  0  0  0  0  0  0  0
    1.5940  -17.0498  -38.5713 C   0  0  0  0  0  0  0  0  0  0  0  0
    2.2045  -17.6873  -39.6699 C   0  0  0  0  0  0  0  0  0  0  0  0
    3.1293  -18.6913  -39.4933 C   0  0  0  0  0  0  0  0  0  0  0  0
    3.5126  -19.1335  -38.2476 C   0  0  0  0  0  0  0  0  0  0  0  0
    2.9224  -18.5141  -37.1740 C   0  0  0  0  0  0  0  0  0  0  0  0
    1.9789  -17.4884  -37.3326 C   0  0  0  0  0  0  0  0  0  0  0  0
    1.3307  -16.6994  -35.9148 Cl  0  0  0  0  0  0  0  0  0  0  0  0
    4.4673  -20.1725  -38.1346 N   0  0  0  0  0  0  0  0  0  0  0  0
    5.0567  -20.7914  -39.2711 C   0  0  0  0  0  0  0  0  0  0  0  0
    6.0708  -21.5148  -39.2448 O   0  0  0  0  0  0  0  0  0  0  0  0
    4.3884  -20.5363  -40.5744 C   0  0  0  0  0  0  0  0  0  0  0  0
    3.7192  -19.3057  -40.5984 O   0  0  0  0  0  0  0  0  0  0  0  0
    3.3877  -21.6262  -40.8858 C   0  0  0  0  0  0  0  0  0  0  0  0
    4.7551  -20.5041  -37.1846 H   0  0  0  0  0  0  0  0  0  0  0  0
    0.6876  -14.2921  -38.3126 N   0  0  0  0  0  0  0  0  0  0  0  0
   -0.0868  -13.2369  -38.8001 C   0  0  0  0  0  0  0  0  0  0  0  0
    0.1157  -11.9344  -38.0123 C   0  0  0  0  0  0  0  0  0  0  0  0
    1.4851  -11.7569  -37.6314 N   0  0  0  0  0  0  0  0  0  0  0  0
    2.1950  -12.8969  -37.0939 C   0  0  0  0  0  0  0  0  0  0  0  0
    2.0896  -13.9989  -38.1298 C   0  0  0  0  0  0  0  0  0  0  0  0
    2.1080  -10.5120  -37.7793 C   0  0  0  0  0  0  0  0  0  0  0  0
    1.4710   -9.5356  -38.2496 O   0  0  0  0  0  0  0  0  0  0  0  0
    3.5358  -10.2786  -37.3950 C   0  0  0  0  0  0  0  0  0  0  0  0
    4.0356   -8.8941  -37.7342 C   0  0  0  0  0  0  0  0  0  0  0  0
    4.4909   -9.4598  -39.0773 C   0  0  0  0  0  0  0  0  0  0  0  0
    4.4894  -10.8422  -38.4181 C   0  0  0  0  0  0  0  0  0  0  0  0
  1  2  2  0  0  0
  1  3  2  0  0  0
  1 18  1  0  0  0
  1  4  1  0  0  0
 18 19  1  0  0  0
 18 23  1  0  0  0
 19 20  1  0  0  0
 20 21  1  0  0  0
 21 22  1  0  0  0
 21 24  1  0  0  0
 22 23  1  0  0  0
 24 25  2  0  0  0
 24 26  1  0  0  0
 26 27  1  0  0  0
 26 29  1  0  0  0
 27 28  1  0  0  0
 28 29  1  0  0  0
  4  5  2  0  0  0
  4  9  1  0  0  0
  5  6  1  0  0  0
  6  7  2  0  0  0
  6 15  1  0  0  0
  7  8  1  0  0  0
  7 11  1  0  0  0
  8  9  2  0  0  0
  9 10  1  0  0  0
 11 12  1  0  0  0
 12 13  2  0  0  0
 12 14  1  0  0  0
 14 15  1  0  0  0
 14 16  1  0  0  0
 11 17  1  0  0  0
M  END
> <minimizedAffinity>
-6.35388

$$$$
2012


 25 28  0  0  0  0  0  0  0  0999 V2000
    2.8914  -18.4205  -37.6341 N   0  0  0  0  0  0  0  0  0  0  0  0
    4.0301  -18.7690  -36.8548 C   0  0  0  0  0  0  0  0  0  0  0  0
    4.0047  -18.9866  -35.6317 O   0  0  0  0  0  0  0  0  0  0  0  0
    5.2158  -18.8243  -37.7262 C   0  0  0  0  0  0  0  0  0  0  0  0
    6.1582  -19.7665  -37.4658 O   0  0  0  0  0  0  0  0  0  0  0  0
    6.5890  -20.1185  -38.7317 N   0  0  0  0  0  0  0  0  0  0  0  0
    5.4512  -20.1391  -39.5975 C   0  0  0  0  0  0  0  0  0  0  0  0
    4.5830  -19.3426  -38.9841 C   0  0  0  0  0  0  0  0  0  0  0  0
    3.2395  -18.7834  -38.9958 C   0  0  0  0  0  0  0  0  0  0  0  0
    2.5455  -18.6584  -40.0367 O   0  0  0  0  0  0  0  0  0  0  0  0
    7.5745  -20.3149  -38.9696 H   0  0  0  0  0  0  0  0  0  0  0  0
   -2.2980  -18.5433  -37.5601 Cl  0  0  0  0  0  0  0  0  0  0  0  0
   -0.7336  -17.8310  -37.1762 C   0  0  0  0  0  0  0  0  0  0  0  0
    0.4426  -18.4543  -37.5840 C   0  0  0  0  0  0  0  0  0  0  0  0
    1.6391  -17.8569  -37.2634 C   0  0  0  0  0  0  0  0  0  0  0  0
    1.6733  -16.6522  -36.5436 C   0  0  0  0  0  0  0  0  0  0  0  0
    0.5180  -16.0478  -36.1474 C   0  0  0  0  0  0  0  0  0  0  0  0
   -0.6879  -16.6463  -36.4717 C   0  0  0  0  0  0  0  0  0  0  0  0
    5.2901  -20.8158  -40.8691 C   0  0  0  0  0  0  0  0  0  0  0  0
    4.7225  -22.0902  -40.9570 C   0  0  0  0  0  0  0  0  0  0  0  0
    4.7042  -22.4875  -42.2377 N   0  0  0  0  0  0  0  0  0  0  0  0
    5.2403  -21.5151  -42.9775 N   0  0  0  0  0  0  0  0  0  0  0  0
    5.5993  -20.4983  -42.1599 C   0  0  0  0  0  0  0  0  0  0  0  0
    6.2481  -19.2340  -42.5894 C   0  0  0  0  0  0  0  0  0  0  0  0
    4.2109  -23.7373  -42.8060 C   0  0  0  0  0  0  0  0  0  0  0  0
 12 13  1  0  0  0
 13 14  2  0  0  0
 13 18  1  0  0  0
 14 15  1  0  0  0
 15 16  2  0  0  0
 15  1  1  0  0  0
 16 17  1  0  0  0
 17 18  2  0  0  0
  1  2  1  0  0  0
  1  9  1  0  0  0
  2  3  2  0  0  0
  2  4  1  0  0  0
  4  5  1  0  0  0
  4  8  1  0  0  0
  5  6  1  0  0  0
  6  7  1  0  0  0
  7  8  2  0  0  0
  7 19  1  0  0  0
  8  9  1  0  0  0
  9 10  2  0  0  0
 19 20  2  0  0  0
 19 23  1  0  0  0
 20 21  1  0  0  0
 21 22  1  0  0  0
 21 25  1  0  0  0
 22 23  2  0  0  0
 23 24  1  0  0  0
  6 11  1  0  0  0
M  END
> <minimizedAffinity>
-6.19321

$$$$
2014


 26 29  0  0  0  0  0  0  0  0999 V2000
    2.0720  -17.3387  -36.8109 C   0  0  0  0  0  0  0  0  0  0  0  0
    2.2884  -18.2264  -37.7773 N   0  0  0  0  0  0  0  0  0  0  0  0
    3.2197  -19.1383  -37.3715 C   0  0  0  0  0  0  0  0  0  0  0  0
    3.5546  -18.7655  -36.1142 N   0  0  0  0  0  0  0  0  0  0  0  0
    2.8829  -17.7011  -35.7684 N   0  0  0  0  0  0  0  0  0  0  0  0
    3.4474  -20.0433  -38.3355 N   0  0  0  0  0  0  0  0  0  0  0  0
    2.6836  -19.7573  -39.3832 C   0  0  0  0  0  0  0  0  0  0  0  0
    1.9496  -18.6117  -39.0334 C   0  0  0  0  0  0  0  0  0  0  0  0
    1.0748  -18.0964  -39.9067 N   0  0  0  0  0  0  0  0  0  0  0  0
    0.9371  -18.7122  -41.1119 C   0  0  0  0  0  0  0  0  0  0  0  0
    0.1019  -18.2005  -41.9209 O   0  0  0  0  0  0  0  0  0  0  0  0
    1.6086  -19.7958  -41.4922 N   0  0  0  0  0  0  0  0  0  0  0  0
    2.4791  -20.3140  -40.6241 C   0  0  0  0  0  0  0  0  0  0  0  0
    3.1407  -21.3386  -40.9325 O   0  0  0  0  0  0  0  0  0  0  0  0
    1.4011  -20.4020  -42.8189 C   0  0  0  0  0  0  0  0  0  0  0  0
    0.2662  -16.9521  -39.6013 C   0  0  0  0  0  0  0  0  0  0  0  0
    4.3697  -21.1586  -38.2707 C   0  0  0  0  0  0  0  0  0  0  0  0
    1.4289  -12.0741  -37.4152 Br  0  0  0  0  0  0  0  0  0  0  0  0
    0.8054  -13.8360  -36.9830 C   0  0  0  0  0  0  0  0  0  0  0  0
    1.6591  -14.9042  -37.0168 C   0  0  0  0  0  0  0  0  0  0  0  0
    1.1945  -16.1783  -36.7008 C   0  0  0  0  0  0  0  0  0  0  0  0
   -0.1381  -16.2897  -36.3624 C   0  0  0  0  0  0  0  0  0  0  0  0
   -0.9804  -15.2179  -36.3315 C   0  0  0  0  0  0  0  0  0  0  0  0
   -0.5315  -13.9453  -36.6435 C   0  0  0  0  0  0  0  0  0  0  0  0
   -0.5831  -17.5928  -36.0469 O   0  0  0  0  0  0  0  0  0  0  0  0
   -1.9469  -17.9469  -36.1832 C   0  0  0  0  0  0  0  0  0  0  0  0
 18 19  1  0  0  0
 19 20  2  0  0  0
 19 24  1  0  0  0
 20 21  1  0  0  0
 21 22  2  0  0  0
 21  1  1  0  0  0
 22 23  1  0  0  0
 22 25  1  0  0  0
 23 24  2  0  0  0
 25 26  1  0  0  0
  1  2  1  0  0  0
  1  5  2  0  0  0
  2  3  1  0  0  0
  2  8  1  0  0  0
  3  4  2  0  0  0
  3  6  1  0  0  0
  4  5  1  0  0  0
  6  7  1  0  0  0
  6 17  1  0  0  0
  7  8  2  0  0  0
  7 13  1  0  0  0
  8  9  1  0  0  0
  9 10  1  0  0  0
  9 16  1  0  0  0
 10 11  2  0  0  0
 10 12  1  0  0  0
 12 13  1  0  0  0
 12 15  1  0  0  0
 13 14  2  0  0  0
M  END
> <minimizedAffinity>
-5.83453

$$$$
2017


 24 27  0  0  0  0  0  0  0  0999 V2000
    3.9654   -9.6878  -37.9628 Cl  0  0  0  0  0  0  0  0  0  0  0  0
    3.3630  -11.3037  -38.2916 C   0  0  0  0  0  0  0  0  0  0  0  0
    2.6137  -12.0147  -37.3739 C   0  0  0  0  0  0  0  0  0  0  0  0
    2.1526  -13.2650  -37.6384 N   0  0  0  0  0  0  0  0  0  0  0  0
    2.3914  -13.8918  -38.8032 C   0  0  0  0  0  0  0  0  0  0  0  0
    1.9392  -15.1302  -39.0745 N   0  0  0  0  0  0  0  0  0  0  0  0
    1.2100  -15.8297  -38.1869 C   0  0  0  0  0  0  0  0  0  0  0  0
    0.9558  -15.1864  -36.9744 C   0  0  0  0  0  0  0  0  0  0  0  0
    1.4246  -13.9181  -36.7075 C   0  0  0  0  0  0  0  0  0  0  0  0
    1.1906  -13.3364  -35.5995 O   0  0  0  0  0  0  0  0  0  0  0  0
    3.1423  -13.1993  -39.7441 C   0  0  0  0  0  0  0  0  0  0  0  0
    3.6196  -11.9284  -39.4940 C   0  0  0  0  0  0  0  0  0  0  0  0
    0.6886  -17.1978  -38.4402 C   0  0  0  0  0  0  0  0  0  0  0  0
    1.3416  -18.1135  -37.5800 N   0  0  0  0  0  0  0  0  0  0  0  0
    2.5527  -17.7037  -36.9750 C   0  0  0  0  0  0  0  0  0  0  0  0
    3.5174  -18.8392  -36.6702 C   0  0  0  0  0  0  0  0  0  0  0  0
    3.6215  -19.6328  -37.9234 C   0  0  0  0  0  0  0  0  0  0  0  0
    2.4255  -19.9617  -38.5265 C   0  0  0  0  0  0  0  0  0  0  0  0
    2.4684  -20.6765  -39.6608 N   0  0  0  0  0  0  0  0  0  0  0  0
    3.6690  -21.0610  -40.1934 C   0  0  0  0  0  0  0  0  0  0  0  0
    4.8231  -20.7187  -39.5731 N   0  0  0  0  0  0  0  0  0  0  0  0
    4.8474  -20.0000  -38.4288 C   0  0  0  0  0  0  0  0  0  0  0  0
    3.7294  -21.8523  -41.4497 C   0  0  0  0  0  0  0  0  0  0  0  0
    1.1797  -19.4981  -37.8684 C   0  0  0  0  0  0  0  0  0  0  0  0
  1  2  1  0  0  0
  2  3  2  0  0  0
  2 12  1  0  0  0
  3  4  1  0  0  0
  4  5  1  0  0  0
  4  9  1  0  0  0
  5  6  2  0  0  0
  5 11  1  0  0  0
  6  7  1  0  0  0
  7  8  2  0  0  0
  7 13  1  0  0  0
  8  9  1  0  0  0
  9 10  2  0  0  0
 13 14  1  0  0  0
 14 15  1  0  0  0
 14 24  1  0  0  0
 15 16  1  0  0  0
 16 17  1  0  0  0
 17 18  2  0  0  0
 17 22  1  0  0  0
 18 19  1  0  0  0
 18 24  1  0  0  0
 19 20  2  0  0  0
 20 21  1  0  0  0
 20 23  1  0  0  0
 21 22  2  0  0  0
 11 12  2  0  0  0
M  END
> <minimizedAffinity>
-6.71136

$$$$
2020


 22 24  0  0  0  0  0  0  0  0999 V2000
    0.9154  -15.6672  -36.0901 C   0  0  0  0  0  0  0  0  0  0  0  0
    1.8933  -16.2635  -37.1402 C   0  0  0  0  0  0  0  0  0  0  0  0
    1.1957  -15.7179  -38.4012 C   0  0  0  0  0  0  0  0  0  0  0  0
    1.7780  -15.1450  -39.3041 O   0  0  0  0  0  0  0  0  0  0  0  0
   -0.2245  -15.9848  -38.3515 N   0  0  0  0  0  0  0  0  0  0  0  0
   -0.5997  -17.0577  -37.4120 C   0  0  0  0  0  0  0  0  0  0  0  0
    0.3719  -18.1190  -37.7111 N   0  0  0  0  0  0  0  0  0  0  0  0
    1.7060  -17.7356  -37.3221 C   0  0  0  0  0  0  0  0  0  0  0  0
    2.6339  -18.5470  -37.1505 O   0  0  0  0  0  0  0  0  0  0  0  0
   -0.2114  -16.5497  -35.9970 C   0  0  0  0  0  0  0  0  0  0  0  0
   -1.9959  -17.4967  -37.4729 C   0  0  0  0  0  0  0  0  0  0  0  0
   -0.9214  -15.4718  -38.8977 H   0  0  0  0  0  0  0  0  0  0  0  0
    0.1155  -19.0124  -38.1462 H   0  0  0  0  0  0  0  0  0  0  0  0
    3.6596  -11.3690  -37.4901 Br  0  0  0  0  0  0  0  0  0  0  0  0
    2.0138  -12.2462  -37.1163 C   0  0  0  0  0  0  0  0  0  0  0  0
    2.0036  -13.6053  -36.7951 C   0  0  0  0  0  0  0  0  0  0  0  0
    0.8067  -14.2738  -36.5072 C   0  0  0  0  0  0  0  0  0  0  0  0
   -0.3433  -13.5065  -36.5650 C   0  0  0  0  0  0  0  0  0  0  0  0
   -0.3114  -12.1602  -36.8848 C   0  0  0  0  0  0  0  0  0  0  0  0
    0.8649  -11.5233  -37.1641 C   0  0  0  0  0  0  0  0  0  0  0  0
   -1.5025  -14.1752  -36.2923 O   0  0  0  0  0  0  0  0  0  0  0  0
   -2.6954  -13.7943  -36.9228 C   0  0  0  0  0  0  0  0  0  0  0  0
 14 15  1  0  0  0
 15 16  2  0  0  0
 15 20  1  0  0  0
 16 17  1  0  0  0
 17 18  2  0  0  0
 17  1  1  0  0  0
 18 19  1  0  0  0
 18 21  1  0  0  0
 19 20  2  0  0  0
 21 22  1  0  0  0
  1  2  1  0  0  0
  1 10  1  0  0  0
  2  3  1  0  0  0
  2  8  1  0  0  0
  3  4  2  0  0  0
  3  5  1  0  0  0
  5  6  1  0  0  0
  6  7  1  0  0  0
  6 10  1  0  0  0
  6 11  1  0  0  0
  7  8  1  0  0  0
  8  9  2  0  0  0
  5 12  1  0  0  0
  7 13  1  0  0  0
M  END
> <minimizedAffinity>
-5.14039

$$$$
2028


 31 34  0  0  0  0  0  0  0  0999 V2000
    3.1606  -12.5515  -40.5288 Cl  0  0  0  0  0  0  0  0  0  0  0  0
    2.3898  -13.7111  -39.4497 C   0  0  0  0  0  0  0  0  0  0  0  0
    2.1853  -15.0202  -39.9224 C   0  0  0  0  0  0  0  0  0  0  0  0
    1.5934  -15.9161  -39.0825 C   0  0  0  0  0  0  0  0  0  0  0  0
    1.1916  -15.5654  -37.8011 C   0  0  0  0  0  0  0  0  0  0  0  0
    1.4029  -14.2767  -37.3675 C   0  0  0  0  0  0  0  0  0  0  0  0
    2.0020  -13.3413  -38.1811 C   0  0  0  0  0  0  0  0  0  0  0  0
    0.9572  -13.9234  -35.9740 C   0  0  0  0  0  0  0  0  0  0  0  0
    1.6122  -17.2432  -39.7714 C   0  0  0  0  0  0  0  0  0  0  0  0
    0.4731  -18.0438  -39.5605 N   0  0  0  0  0  0  0  0  0  0  0  0
    0.7263  -18.8231  -38.3820 C   0  0  0  0  0  0  0  0  0  0  0  0
    2.1429  -18.6793  -37.9995 C   0  0  0  0  0  0  0  0  0  0  0  0
    2.7457  -18.0854  -39.2753 C   0  0  0  0  0  0  0  0  0  0  0  0
    2.9706  -19.2866  -40.0582 C   0  0  0  0  0  0  0  0  0  0  0  0
    2.8598  -19.5544  -41.2748 O   0  0  0  0  0  0  0  0  0  0  0  0
    3.4065  -20.2796  -39.0927 N   0  0  0  0  0  0  0  0  0  0  0  0
    2.9232  -19.8966  -37.8140 C   0  0  0  0  0  0  0  0  0  0  0  0
    3.1411  -20.5040  -36.7565 O   0  0  0  0  0  0  0  0  0  0  0  0
    1.8770  -16.8954  -41.1656 C   0  0  0  0  0  0  0  0  0  0  0  0
    1.7193  -17.5585  -42.2388 O   0  0  0  0  0  0  0  0  0  0  0  0
    2.3867  -15.5832  -41.2131 N   0  0  0  0  0  0  0  0  0  0  0  0
   -0.4113  -17.4873  -39.4725 H   0  0  0  0  0  0  0  0  0  0  0  0
    2.8372  -15.0656  -42.0096 H   0  0  0  0  0  0  0  0  0  0  0  0
    0.2238  -20.2482  -38.5178 C   0  0  0  0  0  0  0  0  0  0  0  0
   -0.5295  -20.6997  -37.4752 O   0  0  0  0  0  0  0  0  0  0  0  0
   -0.3492  -20.4412  -39.8831 C   0  0  0  0  0  0  0  0  0  0  0  0
   -1.3397  -21.2057  -37.7388 H   0  0  0  0  0  0  0  0  0  0  0  0
    4.1997  -21.4569  -39.3292 C   0  0  0  0  0  0  0  0  0  0  0  0
    5.6609  -21.3007  -39.1273 C   0  0  0  0  0  0  0  0  0  0  0  0
    6.1658  -20.0364  -39.0809 O   0  0  0  0  0  0  0  0  0  0  0  0
    6.6421  -19.6371  -37.8493 C   0  0  0  0  0  0  0  0  0  0  0  0
  1  2  1  0  0  0
  2  3  2  0  0  0
  2  7  1  0  0  0
  3  4  1  0  0  0
  3 21  1  0  0  0
  4  5  2  0  0  0
  4  9  1  0  0  0
  5  6  1  0  0  0
  6  7  2  0  0  0
  6  8  1  0  0  0
  9 10  1  0  0  0
  9 13  1  0  0  0
  9 19  1  0  0  0
 10 11  1  0  0  0
 11 12  1  0  0  0
 11 24  1  0  0  0
 12 13  1  0  0  0
 12 17  1  0  0  0
 13 14  1  0  0  0
 14 15  2  0  0  0
 14 16  1  0  0  0
 16 17  1  0  0  0
 16 28  1  0  0  0
 17 18  2  0  0  0
 28 29  1  0  0  0
 29 30  1  0  0  0
 30 31  1  0  0  0
 24 25  1  0  0  0
 24 26  1  0  0  0
 19 20  2  0  0  0
 19 21  1  0  0  0
 10 22  1  0  0  0
 25 27  1  0  0  0
 21 23  1  0  0  0
M  END
> <minimizedAffinity>
-6.27461

$$$$
2032


 31 34  0  0  0  0  0  0  0  0999 V2000
    2.6139  -12.2906  -37.7104 C   0  0  0  0  0  0  0  0  0  0  0  0
    2.0186  -13.4195  -37.4977 C   0  0  0  0  0  0  0  0  0  0  0  0
    2.1076  -14.5477  -38.2639 O   0  0  0  0  0  0  0  0  0  0  0  0
    1.3239  -15.5485  -37.6929 C   0  0  0  0  0  0  0  0  0  0  0  0
    0.7005  -15.1286  -36.5620 C   0  0  0  0  0  0  0  0  0  0  0  0
   -0.1210  -15.9896  -35.8255 C   0  0  0  0  0  0  0  0  0  0  0  0
   -0.3415  -17.2884  -36.2035 C   0  0  0  0  0  0  0  0  0  0  0  0
    0.3208  -17.6742  -37.3829 C   0  0  0  0  0  0  0  0  0  0  0  0
    1.1252  -16.8684  -38.1140 C   0  0  0  0  0  0  0  0  0  0  0  0
    0.0475  -19.0120  -37.7380 O   0  0  0  0  0  0  0  0  0  0  0  0
    1.1202  -13.7340  -36.3856 C   0  0  0  0  0  0  0  0  0  0  0  0
    0.7708  -12.9591  -35.4482 O   0  0  0  0  0  0  0  0  0  0  0  0
    4.2675  -13.3230  -42.6875 Br  0  0  0  0  0  0  0  0  0  0  0  0
    4.3322  -12.3832  -41.0399 C   0  0  0  0  0  0  0  0  0  0  0  0
    3.4435  -12.6649  -39.9868 C   0  0  0  0  0  0  0  0  0  0  0  0
    3.5109  -11.9654  -38.8101 C   0  0  0  0  0  0  0  0  0  0  0  0
    4.4609  -10.9818  -38.6603 C   0  0  0  0  0  0  0  0  0  0  0  0
    5.3471  -10.7037  -39.7118 C   0  0  0  0  0  0  0  0  0  0  0  0
    5.2772  -11.3947  -40.8780 C   0  0  0  0  0  0  0  0  0  0  0  0
    4.4812  -10.3292  -37.4764 O   0  0  0  0  0  0  0  0  0  0  0  0
    4.1594   -9.0028  -37.2359 C   0  0  0  0  0  0  0  0  0  0  0  0
    1.7798  -17.2550  -39.3780 C   0  0  0  0  0  0  0  0  0  0  0  0
    2.3046  -18.5985  -39.3145 N   0  0  0  0  0  0  0  0  0  0  0  0
    3.4255  -18.6311  -38.3921 C   0  0  0  0  0  0  0  0  0  0  0  0
    4.5502  -19.4801  -38.8100 C   0  0  0  0  0  0  0  0  0  0  0  0
    4.2198  -20.6249  -39.5973 N   0  0  0  0  0  0  0  0  0  0  0  0
    2.9159  -20.7438  -40.0701 C   0  0  0  0  0  0  0  0  0  0  0  0
    2.3767  -19.3461  -40.4744 C   0  0  0  0  0  0  0  0  0  0  0  0
    1.4992  -19.1001  -38.7175 H   0  0  0  0  0  0  0  0  0  0  0  0
    5.2630  -21.1964  -40.3606 C   0  0  0  0  0  0  0  0  0  0  0  0
    4.8326  -22.0250  -41.5194 C   0  0  0  0  0  0  0  0  0  0  0  0
 13 14  1  0  0  0
 14 15  2  0  0  0
 14 19  1  0  0  0
 15 16  1  0  0  0
 16 17  2  0  0  0
 16  1  1  0  0  0
 17 18  1  0  0  0
 17 20  1  0  0  0
 18 19  2  0  0  0
 20 21  1  0  0  0
  1  2  2  0  0  0
  2  3  1  0  0  0
  2 11  1  0  0  0
  3  4  1  0  0  0
  4  5  2  0  0  0
  4  9  1  0  0  0
  5  6  1  0  0  0
  5 11  1  0  0  0
  6  7  2  0  0  0
  7  8  1  0  0  0
  8  9  2  0  0  0
  8 10  1  0  0  0
  9 22  1  0  0  0
 22 23  1  0  0  0
 23 24  1  0  0  0
 23 28  1  0  0  0
 24 25  1  0  0  0
 25 26  1  0  0  0
 26 27  1  0  0  0
 26 30  1  0  0  0
 27 28  1  0  0  0
 30 31  1  0  0  0
 11 12  2  0  0  0
 23 29  1  0  0  0
M  CHG 1  10  -1
M  CHG 1  23   1
M  END
> <minimizedAffinity>
-7.11862

$$$$
2033


 29 32  0  0  0  0  0  0  0  0999 V2000
    1.9553  -16.7542  -36.0021 C   0  0  0  0  0  0  0  0  0  0  0  0
    2.4020  -17.7084  -36.7709 C   0  0  0  0  0  0  0  0  0  0  0  0
    1.9861  -17.9254  -38.0752 O   0  0  0  0  0  0  0  0  0  0  0  0
    2.6279  -19.0082  -38.6469 C   0  0  0  0  0  0  0  0  0  0  0  0
    3.5080  -19.5754  -37.7537 C   0  0  0  0  0  0  0  0  0  0  0  0
    4.2555  -20.6745  -38.1210 C   0  0  0  0  0  0  0  0  0  0  0  0
    4.1116  -21.1990  -39.3879 C   0  0  0  0  0  0  0  0  0  0  0  0
    3.2033  -20.6001  -40.2830 C   0  0  0  0  0  0  0  0  0  0  0  0
    2.4564  -19.5142  -39.9433 C   0  0  0  0  0  0  0  0  0  0  0  0
    3.1624  -21.2405  -41.5317 O   0  0  0  0  0  0  0  0  0  0  0  0
    3.3904  -18.7656  -36.5365 C   0  0  0  0  0  0  0  0  0  0  0  0
    4.0201  -18.9357  -35.4692 O   0  0  0  0  0  0  0  0  0  0  0  0
    0.7638  -11.6974  -37.4417 Br  0  0  0  0  0  0  0  0  0  0  0  0
    0.3556  -13.5036  -36.9951 C   0  0  0  0  0  0  0  0  0  0  0  0
    1.2778  -14.4579  -36.6750 C   0  0  0  0  0  0  0  0  0  0  0  0
    0.9571  -15.7588  -36.3548 C   0  0  0  0  0  0  0  0  0  0  0  0
   -0.3997  -16.0962  -36.3644 C   0  0  0  0  0  0  0  0  0  0  0  0
   -1.3675  -15.1820  -36.6780 C   0  0  0  0  0  0  0  0  0  0  0  0
   -0.9833  -13.8840  -36.9930 C   0  0  0  0  0  0  0  0  0  0  0  0
   -0.7487  -17.3932  -36.0420 O   0  0  0  0  0  0  0  0  0  0  0  0
   -2.0961  -17.7859  -36.0398 C   0  0  0  0  0  0  0  0  0  0  0  0
    1.5305  -18.8511  -40.8198 C   0  0  0  0  0  0  0  0  0  0  0  0
    0.3270  -19.4394  -41.2451 N   0  0  0  0  0  0  0  0  0  0  0  0
   -0.3657  -20.2293  -40.2638 C   0  0  0  0  0  0  0  0  0  0  0  0
   -1.2125  -19.4235  -39.3099 C   0  0  0  0  0  0  0  0  0  0  0  0
   -1.0769  -18.0514  -39.4706 O   0  0  0  0  0  0  0  0  0  0  0  0
   -1.4468  -17.7726  -40.7818 C   0  0  0  0  0  0  0  0  0  0  0  0
   -0.6099  -18.4536  -41.8143 C   0  0  0  0  0  0  0  0  0  0  0  0
    0.5188  -20.0567  -42.0608 H   0  0  0  0  0  0  0  0  0  0  0  0
 13 14  1  0  0  0
 14 15  2  0  0  0
 14 19  1  0  0  0
 15 16  1  0  0  0
 16 17  2  0  0  0
 16  1  1  0  0  0
 17 18  1  0  0  0
 17 20  1  0  0  0
 18 19  2  0  0  0
 20 21  1  0  0  0
  1  2  2  0  0  0
  2  3  1  0  0  0
  2 11  1  0  0  0
  3  4  1  0  0  0
  4  5  2  0  0  0
  4  9  1  0  0  0
  5  6  1  0  0  0
  5 11  1  0  0  0
  6  7  2  0  0  0
  7  8  1  0  0  0
  8  9  2  0  0  0
  8 10  1  0  0  0
  9 22  1  0  0  0
 22 23  1  0  0  0
 23 24  1  0  0  0
 23 28  1  0  0  0
 24 25  1  0  0  0
 25 26  1  0  0  0
 26 27  1  0  0  0
 27 28  1  0  0  0
 11 12  2  0  0  0
 23 29  1  0  0  0
M  CHG 1  10  -1
M  CHG 1  23   1
M  END
> <minimizedAffinity>
-6.24539

$$$$
2041


 30 33  0  0  0  0  0  0  0  0999 V2000
    4.6918  -20.7903  -40.6331 N   0  0  0  0  0  0  0  0  0  0  0  0
    3.9321  -22.0059  -40.8444 C   0  0  0  0  0  0  0  0  0  0  0  0
    3.9900  -22.4191  -42.3096 C   0  0  0  0  0  0  0  0  0  0  0  0
    5.3926  -22.6563  -42.6497 N   0  0  0  0  0  0  0  0  0  0  0  0
    6.3368  -22.2155  -41.6663 C   0  0  0  0  0  0  0  0  0  0  0  0
    5.9713  -20.8078  -41.2748 C   0  0  0  0  0  0  0  0  0  0  0  0
    5.7062  -23.2862  -43.8582 C   0  0  0  0  0  0  0  0  0  0  0  0
    4.7372  -23.6486  -44.6421 O   0  0  0  0  0  0  0  0  0  0  0  0
    4.8500  -20.4798  -38.9492 S   0  0  0  0  0  0  0  0  0  0  0  0
    4.5322  -21.7726  -38.2343 O   0  0  0  0  0  0  0  0  0  0  0  0
    6.2431  -20.1035  -38.5739 O   0  0  0  0  0  0  0  0  0  0  0  0
    3.7148  -19.2369  -38.4735 C   0  0  0  0  0  0  0  0  0  0  0  0
    2.8892  -18.5663  -39.3468 C   0  0  0  0  0  0  0  0  0  0  0  0
    2.0237  -17.5917  -38.9122 C   0  0  0  0  0  0  0  0  0  0  0  0
    1.9656  -17.2617  -37.5583 C   0  0  0  0  0  0  0  0  0  0  0  0
    2.7997  -17.9349  -36.6590 C   0  0  0  0  0  0  0  0  0  0  0  0
    3.6587  -18.9087  -37.1190 C   0  0  0  0  0  0  0  0  0  0  0  0
    0.8618  -16.0233  -37.0213 Cl  0  0  0  0  0  0  0  0  0  0  0  0
    7.0281  -23.6186  -44.3987 C   0  0  0  0  0  0  0  0  0  0  0  0
    7.4875  -25.3384  -44.2306 S   0  0  0  0  0  0  0  0  0  0  0  0
    9.0870  -25.5982  -43.4846 C   0  0  0  0  0  0  0  0  0  0  0  0
    9.2134  -26.2402  -42.3304 N   0  0  0  0  0  0  0  0  0  0  0  0
   10.3880  -26.4763  -41.7399 C   0  0  0  0  0  0  0  0  0  0  0  0
   11.5238  -26.0293  -42.3601 N   0  0  0  0  0  0  0  0  0  0  0  0
   11.4310  -25.3782  -43.5242 C   0  0  0  0  0  0  0  0  0  0  0  0
   12.3903  -24.8476  -44.3373 N   0  0  0  0  0  0  0  0  0  0  0  0
   11.7961  -24.3107  -45.3831 N   0  0  0  0  0  0  0  0  0  0  0  0
   10.4730  -24.4649  -45.2966 C   0  0  0  0  0  0  0  0  0  0  0  0
   10.2127  -25.1362  -44.1315 C   0  0  0  0  0  0  0  0  0  0  0  0
   13.8023  -24.8822  -44.0930 C   0  0  0  0  0  0  0  0  0  0  0  0
  9 10  2  0  0  0
  9 11  2  0  0  0
  9  1  1  0  0  0
  9 12  1  0  0  0
  1  2  1  0  0  0
  1  6  1  0  0  0
  2  3  1  0  0  0
  3  4  1  0  0  0
  4  5  1  0  0  0
  4  7  1  0  0  0
  5  6  1  0  0  0
  7  8  2  0  0  0
  7 19  1  0  0  0
 19 20  1  0  0  0
 20 21  1  0  0  0
 21 22  2  0  0  0
 21 29  1  0  0  0
 22 23  1  0  0  0
 23 24  2  0  0  0
 24 25  1  0  0  0
 25 26  1  0  0  0
 25 29  2  0  0  0
 26 27  1  0  0  0
 26 30  1  0  0  0
 27 28  2  0  0  0
 28 29  1  0  0  0
 12 13  2  0  0  0
 12 17  1  0  0  0
 13 14  1  0  0  0
 14 15  2  0  0  0
 15 16  1  0  0  0
 15 18  1  0  0  0
 16 17  2  0  0  0
M  END
> <minimizedAffinity>
-6.90775

$$$$
2043


 32 35  0  0  0  0  0  0  0  0999 V2000
   -0.3589  -14.7258  -37.1997 N   0  0  0  0  0  0  0  0  0  0  0  0
    0.6887  -15.0722  -36.2711 C   0  0  0  0  0  0  0  0  0  0  0  0
    0.4194  -16.4897  -35.7703 C   0  0  0  0  0  0  0  0  0  0  0  0
   -0.0025  -17.3009  -36.8491 N   0  0  0  0  0  0  0  0  0  0  0  0
   -1.4454  -16.9622  -37.2296 C   0  0  0  0  0  0  0  0  0  0  0  0
   -1.5496  -15.4851  -37.0976 C   0  0  0  0  0  0  0  0  0  0  0  0
    0.6392  -18.2421  -37.6001 C   0  0  0  0  0  0  0  0  0  0  0  0
   -0.2677  -18.8735  -38.4222 O   0  0  0  0  0  0  0  0  0  0  0  0
    1.9202  -18.7897  -37.8178 C   0  0  0  0  0  0  0  0  0  0  0  0
    2.5407  -19.6327  -38.5751 C   0  0  0  0  0  0  0  0  0  0  0  0
    1.9210  -20.3773  -39.5898 N   0  0  0  0  0  0  0  0  0  0  0  0
    2.5921  -21.2581  -40.4672 N   0  0  0  0  0  0  0  0  0  0  0  0
    3.9749  -21.4202  -40.3364 C   0  0  0  0  0  0  0  0  0  0  0  0
    4.5856  -22.2021  -41.1109 O   0  0  0  0  0  0  0  0  0  0  0  0
    4.6814  -20.6651  -39.2866 C   0  0  0  0  0  0  0  0  0  0  0  0
    4.0182  -19.8042  -38.4319 C   0  0  0  0  0  0  0  0  0  0  0  0
    4.7460  -19.1468  -37.4929 C   0  0  0  0  0  0  0  0  0  0  0  0
    6.1273  -19.3498  -37.4109 C   0  0  0  0  0  0  0  0  0  0  0  0
    6.7910  -20.2033  -38.2558 C   0  0  0  0  0  0  0  0  0  0  0  0
    6.0480  -20.8682  -39.2072 C   0  0  0  0  0  0  0  0  0  0  0  0
    0.9076  -20.3440  -39.7201 H   0  0  0  0  0  0  0  0  0  0  0  0
    2.0131  -21.7675  -41.1991 H   0  0  0  0  0  0  0  0  0  0  0  0
    0.1534  -14.2914  -38.7391 S   0  0  0  0  0  0  0  0  0  0  0  0
    0.3108  -15.5687  -39.5539 O   0  0  0  0  0  0  0  0  0  0  0  0
   -0.9818  -13.5384  -39.4231 O   0  0  0  0  0  0  0  0  0  0  0  0
    1.5602  -13.3058  -38.8105 C   0  0  0  0  0  0  0  0  0  0  0  0
    2.4768  -13.4382  -39.8231 C   0  0  0  0  0  0  0  0  0  0  0  0
    3.6012  -12.6334  -39.8596 C   0  0  0  0  0  0  0  0  0  0  0  0
    3.8471  -11.6810  -38.8961 C   0  0  0  0  0  0  0  0  0  0  0  0
    2.9257  -11.5428  -37.8705 C   0  0  0  0  0  0  0  0  0  0  0  0
    1.7970  -12.3593  -37.8465 C   0  0  0  0  0  0  0  0  0  0  0  0
    5.2876  -10.6876  -38.9876 Cl  0  0  0  0  0  0  0  0  0  0  0  0
 23 24  2  0  0  0
 23 25  2  0  0  0
 23  1  1  0  0  0
 23 26  1  0  0  0
  1  2  1  0  0  0
  1  6  1  0  0  0
  2  3  1  0  0  0
  3  4  1  0  0  0
  4  5  1  0  0  0
  4  7  1  0  0  0
  5  6  1  0  0  0
  7  8  2  0  0  0
  7  9  1  0  0  0
  9 10  2  0  0  0
 10 11  1  0  0  0
 10 16  1  0  0  0
 11 12  1  0  0  0
 12 13  1  0  0  0
 13 14  2  0  0  0
 13 15  1  0  0  0
 15 16  2  0  0  0
 15 20  1  0  0  0
 16 17  1  0  0  0
 17 18  2  0  0  0
 18 19  1  0  0  0
 19 20  2  0  0  0
 26 27  2  0  0  0
 26 31  1  0  0  0
 27 28  1  0  0  0
 28 29  2  0  0  0
 29 30  1  0  0  0
 29 32  1  0  0  0
 30 31  2  0  0  0
 11 21  1  0  0  0
 12 22  1  0  0  0
M  END
> <minimizedAffinity>
-7.46258

$$$$
2046


 26 29  0  0  0  0  0  0  0  0999 V2000
    0.3111  -12.9098  -35.7778 Cl  0  0  0  0  0  0  0  0  0  0  0  0
    0.8312  -14.2998  -36.6789 C   0  0  0  0  0  0  0  0  0  0  0  0
    1.1250  -14.2108  -38.0155 C   0  0  0  0  0  0  0  0  0  0  0  0
    1.5314  -15.3491  -38.6746 C   0  0  0  0  0  0  0  0  0  0  0  0
    1.6593  -16.5760  -38.0603 C   0  0  0  0  0  0  0  0  0  0  0  0
    1.3604  -16.6474  -36.7187 C   0  0  0  0  0  0  0  0  0  0  0  0
    0.9520  -15.5132  -36.0505 C   0  0  0  0  0  0  0  0  0  0  0  0
    1.0170  -13.0075  -38.7346 N   0  0  0  0  0  0  0  0  0  0  0  0
   -0.0996  -12.5488  -39.2625 N   0  0  0  0  0  0  0  0  0  0  0  0
    0.1222  -11.3945  -39.8623 N   0  0  0  0  0  0  0  0  0  0  0  0
    1.4041  -11.1339  -39.7033 N   0  0  0  0  0  0  0  0  0  0  0  0
    1.9895  -12.1427  -38.9908 C   0  0  0  0  0  0  0  0  0  0  0  0
    3.4135  -12.1471  -38.6596 C   0  0  0  0  0  0  0  0  0  0  0  0
    4.2747  -10.9729  -38.5903 C   0  0  0  0  0  0  0  0  0  0  0  0
    3.7576  -11.5518  -37.2627 C   0  0  0  0  0  0  0  0  0  0  0  0
    2.0902  -17.7580  -38.7803 N   0  0  0  0  0  0  0  0  0  0  0  0
    2.5634  -17.6868  -39.6861 H   0  0  0  0  0  0  0  0  0  0  0  0
    1.8213  -19.0091  -38.1614 C   0  0  0  0  0  0  0  0  0  0  0  0
    2.8863  -20.0068  -38.1187 C   0  0  0  0  0  0  0  0  0  0  0  0
    3.3022  -20.2420  -36.8985 O   0  0  0  0  0  0  0  0  0  0  0  0
    3.5159  -20.7275  -39.1025 N   0  0  0  0  0  0  0  0  0  0  0  0
    3.1853  -20.7334  -40.4917 C   0  0  0  0  0  0  0  0  0  0  0  0
    4.4110  -20.2795  -41.2795 C   0  0  0  0  0  0  0  0  0  0  0  0
    5.3812  -21.2768  -41.0378 O   0  0  0  0  0  0  0  0  0  0  0  0
    5.7987  -21.1651  -39.7294 C   0  0  0  0  0  0  0  0  0  0  0  0
    4.6814  -21.5729  -38.7629 C   0  0  0  0  0  0  0  0  0  0  0  0
  1  2  1  0  0  0
  2  3  2  0  0  0
  2  7  1  0  0  0
  3  4  1  0  0  0
  3  8  1  0  0  0
  4  5  2  0  0  0
  5  6  1  0  0  0
  5 16  1  0  0  0
  6  7  2  0  0  0
 16 18  1  0  0  0
 18 19  1  0  0  0
 19 20  2  0  0  0
 19 21  1  0  0  0
 21 22  1  0  0  0
 21 26  1  0  0  0
 22 23  1  0  0  0
 23 24  1  0  0  0
 24 25  1  0  0  0
 25 26  1  0  0  0
  8  9  1  0  0  0
  8 12  1  0  0  0
  9 10  2  0  0  0
 10 11  1  0  0  0
 11 12  2  0  0  0
 12 13  1  0  0  0
 13 14  1  0  0  0
 13 15  1  0  0  0
 14 15  1  0  0  0
 16 17  1  0  0  0
M  END
> <minimizedAffinity>
-5.96811

$$$$
2063


 34 37  0  0  0  0  0  0  0  0999 V2000
    1.5141  -16.4562  -37.8666 C   0  0  0  0  0  0  0  0  0  0  0  0
    1.4066  -16.6536  -39.2401 C   0  0  0  0  0  0  0  0  0  0  0  0
    1.9410  -17.6857  -39.8489 O   0  0  0  0  0  0  0  0  0  0  0  0
    2.6192  -18.6131  -39.2152 C   0  0  0  0  0  0  0  0  0  0  0  0
    2.7790  -18.5035  -37.8538 C   0  0  0  0  0  0  0  0  0  0  0  0
    3.4952  -19.4967  -37.2317 C   0  0  0  0  0  0  0  0  0  0  0  0
    4.0427  -20.5634  -37.8981 C   0  0  0  0  0  0  0  0  0  0  0  0
    3.8900  -20.6954  -39.2933 C   0  0  0  0  0  0  0  0  0  0  0  0
    3.1723  -19.6973  -39.9089 C   0  0  0  0  0  0  0  0  0  0  0  0
    2.2304  -17.4317  -37.1833 C   0  0  0  0  0  0  0  0  0  0  0  0
    2.3759  -17.3299  -35.9360 O   0  0  0  0  0  0  0  0  0  0  0  0
   -1.2137  -11.6494  -35.1059 Br  0  0  0  0  0  0  0  0  0  0  0  0
   -0.3513  -13.1284  -35.9589 C   0  0  0  0  0  0  0  0  0  0  0  0
    1.0072  -13.1469  -36.1746 C   0  0  0  0  0  0  0  0  0  0  0  0
    1.6441  -14.2162  -36.7933 C   0  0  0  0  0  0  0  0  0  0  0  0
    0.9162  -15.3089  -37.2160 C   0  0  0  0  0  0  0  0  0  0  0  0
   -0.4508  -15.2882  -36.9974 C   0  0  0  0  0  0  0  0  0  0  0  0
   -1.0841  -14.2274  -36.3830 C   0  0  0  0  0  0  0  0  0  0  0  0
    4.4555  -21.7829  -39.9262 O   0  0  0  0  0  0  0  0  0  0  0  0
    5.1511  -21.7707  -41.0993 C   0  0  0  0  0  0  0  0  0  0  0  0
    5.4292  -20.4602  -41.5723 O   0  0  0  0  0  0  0  0  0  0  0  0
    6.5232  -20.5926  -42.3993 C   0  0  0  0  0  0  0  0  0  0  0  0
    6.2803  -21.4202  -43.6230 C   0  0  0  0  0  0  0  0  0  0  0  0
    5.4902  -22.6718  -43.3253 C   0  0  0  0  0  0  0  0  0  0  0  0
    4.4375  -22.4355  -42.2622 C   0  0  0  0  0  0  0  0  0  0  0  0
    3.9068  -23.6684  -41.9024 O   0  0  0  0  0  0  0  0  0  0  0  0
    4.9515  -23.1728  -44.5032 O   0  0  0  0  0  0  0  0  0  0  0  0
    7.5345  -21.8414  -44.0937 O   0  0  0  0  0  0  0  0  0  0  0  0
    3.0308  -23.8128  -42.3315 H   0  0  0  0  0  0  0  0  0  0  0  0
    5.3399  -22.7267  -45.3172 H   0  0  0  0  0  0  0  0  0  0  0  0
    8.0962  -22.1681  -43.3472 H   0  0  0  0  0  0  0  0  0  0  0  0
    7.1303  -19.2688  -42.7902 C   0  0  0  0  0  0  0  0  0  0  0  0
    8.5226  -19.3028  -42.7610 O   0  0  0  0  0  0  0  0  0  0  0  0
    8.8185  -18.4352  -43.1801 H   0  0  0  0  0  0  0  0  0  0  0  0
 12 13  1  0  0  0
 13 14  2  0  0  0
 13 18  1  0  0  0
 14 15  1  0  0  0
 15 16  2  0  0  0
 16 17  1  0  0  0
 16  1  1  0  0  0
 17 18  2  0  0  0
  1  2  2  0  0  0
  1 10  1  0  0  0
  2  3  1  0  0  0
  3  4  1  0  0  0
  4  5  2  0  0  0
  4  9  1  0  0  0
  5  6  1  0  0  0
  5 10  1  0  0  0
  6  7  2  0  0  0
  7  8  1  0  0  0
  8  9  2  0  0  0
  8 19  1  0  0  0
 19 20  1  0  0  0
 20 21  1  0  0  0
 20 25  1  0  0  0
 21 22  1  0  0  0
 22 23  1  0  0  0
 22 32  1  0  0  0
 23 24  1  0  0  0
 23 28  1  0  0  0
 24 25  1  0  0  0
 24 27  1  0  0  0
 25 26  1  0  0  0
 32 33  1  0  0  0
 10 11  2  0  0  0
 26 29  1  0  0  0
 27 30  1  0  0  0
 28 31  1  0  0  0
 33 34  1  0  0  0
M  END
> <minimizedAffinity>
-7.39603

$$$$
2072


 27 30  0  0  0  0  0  0  0  0999 V2000
    4.5829  -20.6964  -40.6379 N   0  0  0  0  0  0  0  0  0  0  0  0
    4.2910  -22.0453  -40.9606 C   0  0  0  0  0  0  0  0  0  0  0  0
    5.0471  -22.6659  -42.1006 C   0  0  0  0  0  0  0  0  0  0  0  0
    6.3554  -22.1022  -42.1568 N   0  0  0  0  0  0  0  0  0  0  0  0
    6.1739  -20.6953  -42.5131 C   0  0  0  0  0  0  0  0  0  0  0  0
    5.5636  -19.9969  -41.3561 C   0  0  0  0  0  0  0  0  0  0  0  0
    4.8914  -20.5711  -38.9476 S   0  0  0  0  0  0  0  0  0  0  0  0
    4.6801  -21.9311  -38.3209 O   0  0  0  0  0  0  0  0  0  0  0  0
    6.2872  -20.1550  -38.6701 O   0  0  0  0  0  0  0  0  0  0  0  0
    3.8104  -19.3753  -38.2167 C   0  0  0  0  0  0  0  0  0  0  0  0
    2.5513  -18.4765  -38.9328 S   0  0  0  0  0  0  0  0  0  0  0  0
    2.0365  -17.5908  -37.5733 C   0  0  0  0  0  0  0  0  0  0  0  0
    2.8744  -18.0281  -36.5825 C   0  0  0  0  0  0  0  0  0  0  0  0
    3.7885  -18.9477  -36.9141 C   0  0  0  0  0  0  0  0  0  0  0  0
    0.6250  -16.2865  -37.4268 Br  0  0  0  0  0  0  0  0  0  0  0  0
    7.2571  -22.7479  -43.0482 C   0  0  0  0  0  0  0  0  0  0  0  0
    6.7869  -24.1100  -43.4291 C   0  0  0  0  0  0  0  0  0  0  0  0
    7.8787  -25.0480  -43.5842 N   0  0  0  0  0  0  0  0  0  0  0  0
    8.7484  -25.4367  -42.6527 N   0  0  0  0  0  0  0  0  0  0  0  0
    9.6110  -26.3276  -43.1613 C   0  0  0  0  0  0  0  0  0  0  0  0
    9.2812  -26.5078  -44.4460 N   0  0  0  0  0  0  0  0  0  0  0  0
    9.9769  -27.3594  -45.2374 C   0  0  0  0  0  0  0  0  0  0  0  0
   11.0516  -28.0813  -44.7694 C   0  0  0  0  0  0  0  0  0  0  0  0
   11.4141  -27.9149  -43.4472 C   0  0  0  0  0  0  0  0  0  0  0  0
   10.6873  -27.0418  -42.6675 C   0  0  0  0  0  0  0  0  0  0  0  0
    8.2040  -25.7074  -44.6972 C   0  0  0  0  0  0  0  0  0  0  0  0
    7.6717  -25.6642  -45.8318 O   0  0  0  0  0  0  0  0  0  0  0  0
  7  8  2  0  0  0
  7  9  2  0  0  0
  7  1  1  0  0  0
  7 10  1  0  0  0
  1  2  1  0  0  0
  1  6  1  0  0  0
  2  3  1  0  0  0
  3  4  1  0  0  0
  4  5  1  0  0  0
  4 16  1  0  0  0
  5  6  1  0  0  0
 16 17  1  0  0  0
 17 18  1  0  0  0
 18 19  1  0  0  0
 18 26  1  0  0  0
 19 20  2  0  0  0
 20 21  1  0  0  0
 20 25  1  0  0  0
 21 22  1  0  0  0
 21 26  1  0  0  0
 22 23  2  0  0  0
 23 24  1  0  0  0
 24 25  2  0  0  0
 26 27  2  0  0  0
 10 11  1  0  0  0
 10 14  2  0  0  0
 11 12  1  0  0  0
 12 13  2  0  0  0
 12 15  1  0  0  0
 13 14  1  0  0  0
M  END
> <minimizedAffinity>
-6.46680

$$$$
2079


 31 34  0  0  0  0  0  0  0  0999 V2000
    1.5897  -16.3458  -37.7869 C   0  0  0  0  0  0  0  0  0  0  0  0
    2.1532  -17.3212  -36.9968 C   0  0  0  0  0  0  0  0  0  0  0  0
    2.7543  -18.4260  -37.6161 C   0  0  0  0  0  0  0  0  0  0  0  0
    2.7849  -18.5518  -38.9875 C   0  0  0  0  0  0  0  0  0  0  0  0
    3.3602  -19.6094  -39.6928 C   0  0  0  0  0  0  0  0  0  0  0  0
    3.9495  -20.5889  -38.8543 C   0  0  0  0  0  0  0  0  0  0  0  0
    3.9438  -20.4960  -37.4657 C   0  0  0  0  0  0  0  0  0  0  0  0
    3.3439  -19.4050  -36.8575 C   0  0  0  0  0  0  0  0  0  0  0  0
    4.5774  -21.7160  -39.3469 O   0  0  0  0  0  0  0  0  0  0  0  0
    2.2515  -17.6270  -39.6783 O   0  0  0  0  0  0  0  0  0  0  0  0
    1.6590  -16.5373  -39.1823 C   0  0  0  0  0  0  0  0  0  0  0  0
    1.1538  -15.6795  -39.9158 O   0  0  0  0  0  0  0  0  0  0  0  0
   -0.8606  -11.4384  -35.1739 Cl  0  0  0  0  0  0  0  0  0  0  0  0
   -0.1599  -12.8431  -36.0144 C   0  0  0  0  0  0  0  0  0  0  0  0
   -0.9099  -13.9599  -36.3640 C   0  0  0  0  0  0  0  0  0  0  0  0
   -0.3379  -15.0738  -36.9521 C   0  0  0  0  0  0  0  0  0  0  0  0
    1.0459  -15.0999  -37.2106 C   0  0  0  0  0  0  0  0  0  0  0  0
    1.7467  -13.9995  -36.8674 C   0  0  0  0  0  0  0  0  0  0  0  0
    1.1983  -12.8752  -36.2769 C   0  0  0  0  0  0  0  0  0  0  0  0
    3.5717  -19.7274  -41.0927 C   0  0  0  0  0  0  0  0  0  0  0  0
    4.0937  -18.6828  -41.9360 N   0  0  0  0  0  0  0  0  0  0  0  0
    5.5822  -18.6384  -41.8956 C   0  0  0  0  0  0  0  0  0  0  0  0
    6.1296  -20.0212  -41.8887 C   0  0  0  0  0  0  0  0  0  0  0  0
    5.7910  -20.8257  -43.0403 N   0  0  0  0  0  0  0  0  0  0  0  0
    4.5475  -20.4608  -43.6292 C   0  0  0  0  0  0  0  0  0  0  0  0
    3.9476  -19.1647  -43.3474 C   0  0  0  0  0  0  0  0  0  0  0  0
    3.6843  -17.7770  -41.9314 H   0  0  0  0  0  0  0  0  0  0  0  0
    5.7858  -22.2518  -42.6804 C   0  0  0  0  0  0  0  0  0  0  0  0
    4.4186  -22.8750  -42.8429 C   0  0  0  0  0  0  0  0  0  0  0  0
    3.8394  -23.2194  -41.6307 O   0  0  0  0  0  0  0  0  0  0  0  0
    3.3010  -22.4299  -41.3054 H   0  0  0  0  0  0  0  0  0  0  0  0
 13 14  1  0  0  0
 14 15  2  0  0  0
 14 19  1  0  0  0
 15 16  1  0  0  0
 16 17  2  0  0  0
 17 18  1  0  0  0
 17  1  1  0  0  0
 18 19  2  0  0  0
  1  2  2  0  0  0
  1 11  1  0  0  0
  2  3  1  0  0  0
  3  4  2  0  0  0
  3  8  1  0  0  0
  4  5  1  0  0  0
  4 10  1  0  0  0
  5  6  2  0  0  0
  5 20  1  0  0  0
  6  7  1  0  0  0
  6  9  1  0  0  0
  7  8  2  0  0  0
 20 21  1  0  0  0
 21 22  1  0  0  0
 21 26  1  0  0  0
 22 23  1  0  0  0
 23 24  1  0  0  0
 24 25  1  0  0  0
 24 28  1  0  0  0
 25 26  1  0  0  0
 28 29  1  0  0  0
 29 30  1  0  0  0
 10 11  1  0  0  0
 11 12  2  0  0  0
 21 27  1  0  0  0
 30 31  1  0  0  0
M  CHG 1   9  -1
M  CHG 1  21   1
M  END
> <minimizedAffinity>
-6.43562

$$$$
2087


 32 35  0  0  0  0  0  0  0  0999 V2000
    1.0362  -18.5113  -38.1121 N   0  0  0  0  0  0  0  0  0  0  0  0
    2.2811  -19.0888  -38.0693 C   0  0  0  0  0  0  0  0  0  0  0  0
    2.4338  -19.9364  -39.1485 C   0  0  0  0  0  0  0  0  0  0  0  0
    1.2822  -19.8596  -39.8222 N   0  0  0  0  0  0  0  0  0  0  0  0
    0.4245  -18.9943  -39.1937 C   0  0  0  0  0  0  0  0  0  0  0  0
    3.5732  -20.6321  -39.3291 N   0  0  0  0  0  0  0  0  0  0  0  0
    4.5572  -20.4817  -38.4312 C   0  0  0  0  0  0  0  0  0  0  0  0
    5.6153  -21.1358  -38.6098 O   0  0  0  0  0  0  0  0  0  0  0  0
    4.4458  -19.6724  -37.3724 N   0  0  0  0  0  0  0  0  0  0  0  0
    3.3056  -18.9501  -37.1569 C   0  0  0  0  0  0  0  0  0  0  0  0
    3.2317  -18.2021  -36.1525 O   0  0  0  0  0  0  0  0  0  0  0  0
    3.6942  -21.5073  -40.4806 C   0  0  0  0  0  0  0  0  0  0  0  0
    5.2275  -19.5684  -36.6762 H   0  0  0  0  0  0  0  0  0  0  0  0
   -0.8926  -18.8059  -39.6421 N   0  0  0  0  0  0  0  0  0  0  0  0
   -1.5235  -17.6439  -40.1578 C   0  0  0  0  0  0  0  0  0  0  0  0
   -3.0331  -17.6379  -39.8932 C   0  0  0  0  0  0  0  0  0  0  0  0
   -3.4626  -18.4101  -38.8011 N   0  0  0  0  0  0  0  0  0  0  0  0
   -2.9556  -19.7211  -38.6923 C   0  0  0  0  0  0  0  0  0  0  0  0
   -1.7802  -20.0002  -39.6009 C   0  0  0  0  0  0  0  0  0  0  0  0
   -3.9992  -17.7883  -37.6621 C   0  0  0  0  0  0  0  0  0  0  0  0
   -3.0529  -17.2411  -36.6782 C   0  0  0  0  0  0  0  0  0  0  0  0
   -2.6694  -17.8907  -35.6692 O   0  0  0  0  0  0  0  0  0  0  0  0
   -2.5520  -15.9679  -36.8451 O   0  0  0  0  0  0  0  0  0  0  0  0
   -3.3345  -14.9023  -37.3095 C   0  0  0  0  0  0  0  0  0  0  0  0
    0.5622  -17.5497  -37.1499 C   0  0  0  0  0  0  0  0  0  0  0  0
    2.7342  -11.8833  -38.2960 Br  0  0  0  0  0  0  0  0  0  0  0  0
    2.0509  -13.6283  -37.9415 C   0  0  0  0  0  0  0  0  0  0  0  0
    1.6558  -13.9927  -36.6736 C   0  0  0  0  0  0  0  0  0  0  0  0
    1.1593  -15.2744  -36.4321 C   0  0  0  0  0  0  0  0  0  0  0  0
    1.0724  -16.1562  -37.4689 C   0  0  0  0  0  0  0  0  0  0  0  0
    1.4598  -15.8109  -38.7314 C   0  0  0  0  0  0  0  0  0  0  0  0
    1.9480  -14.5497  -38.9702 C   0  0  0  0  0  0  0  0  0  0  0  0
 26 27  1  0  0  0
 27 28  2  0  0  0
 27 32  1  0  0  0
 28 29  1  0  0  0
 29 30  2  0  0  0
 30 31  1  0  0  0
 30 25  1  0  0  0
 31 32  2  0  0  0
 25  1  1  0  0  0
  1  2  1  0  0  0
  1  5  1  0  0  0
  2  3  2  0  0  0
  2 10  1  0  0  0
  3  4  1  0  0  0
  3  6  1  0  0  0
  4  5  2  0  0  0
  5 14  1  0  0  0
 14 15  1  0  0  0
 14 19  1  0  0  0
 15 16  1  0  0  0
 16 17  1  0  0  0
 17 18  1  0  0  0
 17 20  1  0  0  0
 18 19  1  0  0  0
 20 21  1  0  0  0
 21 22  2  0  0  0
 21 23  1  0  0  0
 23 24  1  0  0  0
  6  7  1  0  0  0
  6 12  1  0  0  0
  7  8  2  0  0  0
  7  9  1  0  0  0
  9 10  1  0  0  0
 10 11  2  0  0  0
  9 13  1  0  0  0
M  END
> <minimizedAffinity>
-5.94905

$$$$
2091


 28 31  0  0  0  0  0  0  0  0999 V2000
    0.1999  -13.9823  -36.4159 N   0  0  0  0  0  0  0  0  0  0  0  0
   -0.1812  -15.2677  -36.4436 C   0  0  0  0  0  0  0  0  0  0  0  0
   -1.5426  -15.3258  -36.6427 C   0  0  0  0  0  0  0  0  0  0  0  0
   -1.9495  -14.0688  -36.7304 N   0  0  0  0  0  0  0  0  0  0  0  0
   -0.9132  -13.2290  -36.5974 C   0  0  0  0  0  0  0  0  0  0  0  0
   -2.2401  -16.4861  -36.7297 N   0  0  0  0  0  0  0  0  0  0  0  0
   -1.5389  -17.6254  -36.6147 C   0  0  0  0  0  0  0  0  0  0  0  0
   -2.2009  -18.6907  -36.6962 O   0  0  0  0  0  0  0  0  0  0  0  0
   -0.2083  -17.6349  -36.4231 N   0  0  0  0  0  0  0  0  0  0  0  0
    0.4931  -16.4895  -36.3345 C   0  0  0  0  0  0  0  0  0  0  0  0
    1.7192  -16.4635  -36.1609 O   0  0  0  0  0  0  0  0  0  0  0  0
   -3.6724  -16.4482  -36.9367 C   0  0  0  0  0  0  0  0  0  0  0  0
    0.3282  -18.5249  -36.3377 H   0  0  0  0  0  0  0  0  0  0  0  0
   -0.9563  -11.7963  -36.6340 N   0  0  0  0  0  0  0  0  0  0  0  0
   -1.1894  -11.0976  -35.3894 C   0  0  0  0  0  0  0  0  0  0  0  0
   -2.5262  -10.3797  -35.5029 C   0  0  0  0  0  0  0  0  0  0  0  0
   -2.9062  -10.1235  -36.8520 N   0  0  0  0  0  0  0  0  0  0  0  0
   -1.8407   -9.9068  -37.7734 C   0  0  0  0  0  0  0  0  0  0  0  0
   -0.8004  -10.9965  -37.8198 C   0  0  0  0  0  0  0  0  0  0  0  0
   -4.0607  -10.7748  -37.3428 C   0  0  0  0  0  0  0  0  0  0  0  0
    1.5393  -13.4836  -36.2195 C   0  0  0  0  0  0  0  0  0  0  0  0
    4.8319  -11.4038  -41.0081 Br  0  0  0  0  0  0  0  0  0  0  0  0
    3.8076  -12.1036  -39.5611 C   0  0  0  0  0  0  0  0  0  0  0  0
    2.9532  -13.1895  -39.7234 C   0  0  0  0  0  0  0  0  0  0  0  0
    2.2231  -13.6477  -38.6281 C   0  0  0  0  0  0  0  0  0  0  0  0
    2.2962  -13.0884  -37.3903 C   0  0  0  0  0  0  0  0  0  0  0  0
    3.1739  -11.9931  -37.2744 C   0  0  0  0  0  0  0  0  0  0  0  0
    3.9131  -11.5061  -38.3269 C   0  0  0  0  0  0  0  0  0  0  0  0
 22 23  1  0  0  0
 23 24  2  0  0  0
 23 28  1  0  0  0
 24 25  1  0  0  0
 25 26  2  0  0  0
 26 27  1  0  0  0
 26 21  1  0  0  0
 27 28  2  0  0  0
 21  1  1  0  0  0
  1  2  1  0  0  0
  1  5  1  0  0  0
  2  3  2  0  0  0
  2 10  1  0  0  0
  3  4  1  0  0  0
  3  6  1  0  0  0
  4  5  2  0  0  0
  5 14  1  0  0  0
 14 15  1  0  0  0
 14 19  1  0  0  0
 15 16  1  0  0  0
 16 17  1  0  0  0
 17 18  1  0  0  0
 17 20  1  0  0  0
 18 19  1  0  0  0
  6  7  1  0  0  0
  6 12  1  0  0  0
  7  8  2  0  0  0
  7  9  1  0  0  0
  9 10  1  0  0  0
 10 11  2  0  0  0
  9 13  1  0  0  0
M  END
> <minimizedAffinity>
-5.99344

$$$$
2103


 29 32  0  0  0  0  0  0  0  0999 V2000
    2.6174  -18.7183  -37.8027 C   0  0  0  0  0  0  0  0  0  0  0  0
    1.4339  -18.9687  -38.5842 C   0  0  0  0  0  0  0  0  0  0  0  0
    1.4692  -19.8660  -39.5876 C   0  0  0  0  0  0  0  0  0  0  0  0
    2.6482  -20.5710  -39.8913 C   0  0  0  0  0  0  0  0  0  0  0  0
    3.7869  -20.3431  -39.1575 C   0  0  0  0  0  0  0  0  0  0  0  0
    3.7627  -19.4077  -38.1106 C   0  0  0  0  0  0  0  0  0  0  0  0
    5.0077  -19.0797  -37.3694 C   0  0  0  0  0  0  0  0  0  0  0  0
    6.2809  -19.4974  -38.0975 C   0  0  0  0  0  0  0  0  0  0  0  0
    6.1835  -20.8419  -38.6155 N   0  0  0  0  0  0  0  0  0  0  0  0
    5.0199  -21.0790  -39.4200 C   0  0  0  0  0  0  0  0  0  0  0  0
    5.1342  -21.9294  -40.3267 O   0  0  0  0  0  0  0  0  0  0  0  0
    7.1750  -21.8605  -38.3441 C   0  0  0  0  0  0  0  0  0  0  0  0
    2.6018  -21.4511  -40.9075 O   0  0  0  0  0  0  0  0  0  0  0  0
    0.1886  -19.8960  -40.1609 O   0  0  0  0  0  0  0  0  0  0  0  0
   -0.7204  -19.1915  -39.3419 C   0  0  0  0  0  0  0  0  0  0  0  0
    0.1438  -18.4340  -38.5181 O   0  0  0  0  0  0  0  0  0  0  0  0
    3.2715  -22.0296  -41.2837 H   0  0  0  0  0  0  0  0  0  0  0  0
    2.3689  -17.7349  -36.7702 C   0  0  0  0  0  0  0  0  0  0  0  0
    0.8362  -15.9323  -36.2082 C   0  0  0  0  0  0  0  0  0  0  0  0
    0.2762  -16.7297  -35.4375 O   0  0  0  0  0  0  0  0  0  0  0  0
    2.0026  -16.4037  -36.9828 N   0  0  0  0  0  0  0  0  0  0  0  0
    2.4032  -15.6450  -37.5534 H   0  0  0  0  0  0  0  0  0  0  0  0
   -3.1589  -12.4229  -36.6031 Br  0  0  0  0  0  0  0  0  0  0  0  0
   -1.3126  -12.9051  -36.5244 C   0  0  0  0  0  0  0  0  0  0  0  0
   -0.3461  -11.9522  -36.5898 C   0  0  0  0  0  0  0  0  0  0  0  0
    0.9456  -12.2738  -36.5360 N   0  0  0  0  0  0  0  0  0  0  0  0
    1.3058  -13.5597  -36.4153 C   0  0  0  0  0  0  0  0  0  0  0  0
    0.3598  -14.5762  -36.3438 C   0  0  0  0  0  0  0  0  0  0  0  0
   -0.9765  -14.2523  -36.3982 C   0  0  0  0  0  0  0  0  0  0  0  0
 23 24  1  0  0  0
 24 25  2  0  0  0
 24 29  1  0  0  0
 25 26  1  0  0  0
 26 27  2  0  0  0
 27 28  1  0  0  0
 28 29  2  0  0  0
 28 19  1  0  0  0
 19 20  2  0  0  0
 19 21  1  0  0  0
 21 18  1  0  0  0
 18  1  1  0  0  0
  1  2  2  0  0  0
  1  6  1  0  0  0
  2  3  1  0  0  0
  2 16  1  0  0  0
  3  4  2  0  0  0
  3 14  1  0  0  0
  4  5  1  0  0  0
  4 13  1  0  0  0
  5  6  2  0  0  0
  5 10  1  0  0  0
  6  7  1  0  0  0
  7  8  1  0  0  0
  8  9  1  0  0  0
  9 10  1  0  0  0
  9 12  1  0  0  0
 10 11  2  0  0  0
 14 15  1  0  0  0
 15 16  1  0  0  0
 21 22  1  0  0  0
 13 17  1  0  0  0
M  END
> <minimizedAffinity>
-6.56181

$$$$
2105


 29 32  0  0  0  0  0  0  0  0999 V2000
    3.7408  -20.0346  -41.0986 Cl  0  0  0  0  0  0  0  0  0  0  0  0
    3.3470  -19.3064  -39.5554 C   0  0  0  0  0  0  0  0  0  0  0  0
    2.1590  -18.5944  -39.3887 C   0  0  0  0  0  0  0  0  0  0  0  0
    1.8160  -18.0124  -38.2044 C   0  0  0  0  0  0  0  0  0  0  0  0
    2.7143  -18.1637  -37.1568 C   0  0  0  0  0  0  0  0  0  0  0  0
    3.8920  -18.8640  -37.3015 C   0  0  0  0  0  0  0  0  0  0  0  0
    4.2208  -19.4440  -38.5060 C   0  0  0  0  0  0  0  0  0  0  0  0
    0.5096  -17.3403  -38.3596 C   0  0  0  0  0  0  0  0  0  0  0  0
    0.6588  -15.8549  -38.1479 C   0  0  0  0  0  0  0  0  0  0  0  0
   -0.0278  -15.1814  -37.2676 C   0  0  0  0  0  0  0  0  0  0  0  0
   -0.9882  -15.8111  -36.4224 N   0  0  0  0  0  0  0  0  0  0  0  0
   -1.1915  -17.2064  -36.5549 C   0  0  0  0  0  0  0  0  0  0  0  0
   -0.5060  -17.8950  -37.4390 C   0  0  0  0  0  0  0  0  0  0  0  0
   -2.1381  -17.9084  -35.7436 N   0  0  0  0  0  0  0  0  0  0  0  0
    0.3723  -13.7612  -37.3343 C   0  0  0  0  0  0  0  0  0  0  0  0
    1.3320  -13.6876  -38.3146 O   0  0  0  0  0  0  0  0  0  0  0  0
    1.5483  -14.9369  -38.8481 C   0  0  0  0  0  0  0  0  0  0  0  0
    2.3645  -15.2647  -39.7787 O   0  0  0  0  0  0  0  0  0  0  0  0
    0.8440  -13.3176  -35.9674 C   0  0  0  0  0  0  0  0  0  0  0  0
   -0.7876  -12.8652  -37.7291 C   0  0  0  0  0  0  0  0  0  0  0  0
    0.1290  -17.5959  -39.7686 C   0  0  0  0  0  0  0  0  0  0  0  0
   -0.9401  -17.1976  -40.3555 O   0  0  0  0  0  0  0  0  0  0  0  0
    1.1552  -18.3591  -40.3616 N   0  0  0  0  0  0  0  0  0  0  0  0
   -1.5399  -15.2790  -35.7166 H   0  0  0  0  0  0  0  0  0  0  0  0
   -2.1317  -17.8069  -34.7201 H   0  0  0  0  0  0  0  0  0  0  0  0
   -2.8238  -18.5161  -36.2075 H   0  0  0  0  0  0  0  0  0  0  0  0
    1.1393  -18.6861  -41.3753 H   0  0  0  0  0  0  0  0  0  0  0  0
   -0.7462  -19.3276  -37.5422 C   0  0  0  0  0  0  0  0  0  0  0  0
   -0.9538  -20.4628  -37.6237 N   0  0  0  0  0  0  0  0  0  0  0  0
  1  2  1  0  0  0
  2  3  2  0  0  0
  2  7  1  0  0  0
  3  4  1  0  0  0
  3 23  1  0  0  0
  4  5  2  0  0  0
  4  8  1  0  0  0
  5  6  1  0  0  0
  6  7  2  0  0  0
  8  9  1  0  0  0
  8 13  1  0  0  0
  8 21  1  0  0  0
  9 10  2  0  0  0
  9 17  1  0  0  0
 10 11  1  0  0  0
 10 15  1  0  0  0
 11 12  1  0  0  0
 12 13  2  0  0  0
 12 14  1  0  0  0
 13 28  1  0  0  0
 28 29  3  0  0  0
 15 16  1  0  0  0
 15 19  1  0  0  0
 15 20  1  0  0  0
 16 17  1  0  0  0
 17 18  2  0  0  0
 21 22  2  0  0  0
 21 23  1  0  0  0
 11 24  1  0  0  0
 14 25  1  0  0  0
 14 26  1  0  0  0
 23 27  1  0  0  0
M  END
> <minimizedAffinity>
-6.02059

$$$$
2109


 21 24  0  0  0  0  0  0  0  0999 V2000
    1.8189  -17.6059  -37.5945 N   0  0  0  0  0  0  0  0  0  0  0  0
    1.0482  -18.5278  -38.3793 C   0  0  0  0  0  0  0  0  0  0  0  0
    0.0389  -18.2484  -39.0729 O   0  0  0  0  0  0  0  0  0  0  0  0
    1.6156  -19.8902  -38.2578 C   0  0  0  0  0  0  0  0  0  0  0  0
    1.8410  -20.4877  -39.4929 O   0  0  0  0  0  0  0  0  0  0  0  0
    2.7979  -19.8119  -40.1072 N   0  0  0  0  0  0  0  0  0  0  0  0
    3.6090  -19.1362  -39.1935 C   0  0  0  0  0  0  0  0  0  0  0  0
    3.0453  -19.5652  -37.8379 C   0  0  0  0  0  0  0  0  0  0  0  0
    2.8205  -18.3959  -36.9549 C   0  0  0  0  0  0  0  0  0  0  0  0
    3.3681  -18.0979  -35.8515 O   0  0  0  0  0  0  0  0  0  0  0  0
    5.0688  -19.2816  -39.2772 C   0  0  0  0  0  0  0  0  0  0  0  0
    5.6251  -20.0935  -40.3799 C   0  0  0  0  0  0  0  0  0  0  0  0
    4.7423  -19.9312  -41.5977 C   0  0  0  0  0  0  0  0  0  0  0  0
    3.3826  -20.4527  -41.2114 C   0  0  0  0  0  0  0  0  0  0  0  0
    1.0916  -11.6574  -37.1286 Cl  0  0  0  0  0  0  0  0  0  0  0  0
    1.3033  -13.3942  -37.2627 C   0  0  0  0  0  0  0  0  0  0  0  0
    0.9908  -14.2243  -36.2062 C   0  0  0  0  0  0  0  0  0  0  0  0
    1.1616  -15.5939  -36.3213 C   0  0  0  0  0  0  0  0  0  0  0  0
    1.6395  -16.1944  -37.4662 C   0  0  0  0  0  0  0  0  0  0  0  0
    1.9510  -15.3512  -38.5232 C   0  0  0  0  0  0  0  0  0  0  0  0
    1.7823  -13.9839  -38.4139 C   0  0  0  0  0  0  0  0  0  0  0  0
 15 16  1  0  0  0
 16 17  2  0  0  0
 16 21  1  0  0  0
 17 18  1  0  0  0
 18 19  2  0  0  0
 19 20  1  0  0  0
 19  1  1  0  0  0
 20 21  2  0  0  0
  1  2  1  0  0  0
  1  9  1  0  0  0
  2  3  2  0  0  0
  2  4  1  0  0  0
  4  5  1  0  0  0
  4  8  1  0  0  0
  5  6  1  0  0  0
  6  7  1  0  0  0
  6 14  1  0  0  0
  7  8  1  0  0  0
  7 11  1  0  0  0
  8  9  1  0  0  0
  9 10  2  0  0  0
 11 12  1  0  0  0
 12 13  1  0  0  0
 13 14  1  0  0  0
M  END
> <minimizedAffinity>
-6.01961

$$$$
2116


 33 36  0  0  0  0  0  0  0  0999 V2000
    0.8871  -17.9816  -37.6887 C   0  0  0  0  0  0  0  0  0  0  0  0
    2.1150  -18.4743  -37.7206 N   0  0  0  0  0  0  0  0  0  0  0  0
    2.4545  -19.6249  -38.3276 C   0  0  0  0  0  0  0  0  0  0  0  0
    1.4590  -20.3038  -38.9383 N   0  0  0  0  0  0  0  0  0  0  0  0
    0.1775  -19.8487  -38.9408 C   0  0  0  0  0  0  0  0  0  0  0  0
   -0.0888  -18.6792  -38.3078 N   0  0  0  0  0  0  0  0  0  0  0  0
   -0.8543  -20.5753  -39.5684 N   0  0  0  0  0  0  0  0  0  0  0  0
   -0.7734  -20.9441  -40.9584 C   0  0  0  0  0  0  0  0  0  0  0  0
   -1.0147  -22.4604  -40.9898 C   0  0  0  0  0  0  0  0  0  0  0  0
   -2.1894  -22.7414  -40.3223 O   0  0  0  0  0  0  0  0  0  0  0  0
   -2.0375  -22.5240  -38.9535 C   0  0  0  0  0  0  0  0  0  0  0  0
   -2.0106  -20.9867  -38.8135 C   0  0  0  0  0  0  0  0  0  0  0  0
    3.8028  -20.1224  -38.3317 N   0  0  0  0  0  0  0  0  0  0  0  0
    4.1577  -21.3135  -39.0493 C   0  0  0  0  0  0  0  0  0  0  0  0
    5.6020  -21.5948  -39.1978 C   0  0  0  0  0  0  0  0  0  0  0  0
    6.4205  -20.8869  -38.3288 O   0  0  0  0  0  0  0  0  0  0  0  0
    6.1168  -19.5325  -38.3106 C   0  0  0  0  0  0  0  0  0  0  0  0
    4.7945  -19.3937  -37.5966 C   0  0  0  0  0  0  0  0  0  0  0  0
    0.6169  -16.7710  -36.9930 N   0  0  0  0  0  0  0  0  0  0  0  0
   -0.2067  -16.7136  -36.3824 H   0  0  0  0  0  0  0  0  0  0  0  0
    1.3032  -14.7647  -38.0352 C   0  0  0  0  0  0  0  0  0  0  0  0
    1.4524  -15.6760  -37.1362 N   0  0  0  0  0  0  0  0  0  0  0  0
    4.5194  -11.6646  -41.0075 Br  0  0  0  0  0  0  0  0  0  0  0  0
    3.6754  -12.1525  -39.3752 C   0  0  0  0  0  0  0  0  0  0  0  0
    3.9300  -11.3827  -38.2512 C   0  0  0  0  0  0  0  0  0  0  0  0
    3.3095  -11.7604  -37.0757 C   0  0  0  0  0  0  0  0  0  0  0  0
    2.4800  -12.8508  -37.0294 C   0  0  0  0  0  0  0  0  0  0  0  0
    2.2072  -13.6385  -38.1473 C   0  0  0  0  0  0  0  0  0  0  0  0
    2.8347  -13.2474  -39.3098 C   0  0  0  0  0  0  0  0  0  0  0  0
    1.8563  -13.2284  -35.8356 O   0  0  0  0  0  0  0  0  0  0  0  0
    4.7719  -10.2731  -38.2866 O   0  0  0  0  0  0  0  0  0  0  0  0
    2.0364  -12.6747  -35.0034 H   0  0  0  0  0  0  0  0  0  0  0  0
    5.2431   -9.9536  -39.1194 H   0  0  0  0  0  0  0  0  0  0  0  0
 23 24  1  0  0  0
 24 25  2  0  0  0
 24 29  1  0  0  0
 25 26  1  0  0  0
 25 31  1  0  0  0
 26 27  2  0  0  0
 27 28  1  0  0  0
 27 30  1  0  0  0
 28 29  2  0  0  0
 28 21  1  0  0  0
 21 22  2  0  0  0
 22 19  1  0  0  0
 19  1  1  0  0  0
  1  2  2  0  0  0
  1  6  1  0  0  0
  2  3  1  0  0  0
  3  4  2  0  0  0
  3 13  1  0  0  0
  4  5  1  0  0  0
  5  6  2  0  0  0
  5  7  1  0  0  0
  7  8  1  0  0  0
  7 12  1  0  0  0
  8  9  1  0  0  0
  9 10  1  0  0  0
 10 11  1  0  0  0
 11 12  1  0  0  0
 13 14  1  0  0  0
 13 18  1  0  0  0
 14 15  1  0  0  0
 15 16  1  0  0  0
 16 17  1  0  0  0
 17 18  1  0  0  0
 19 20  1  0  0  0
 30 32  1  0  0  0
 31 33  1  0  0  0
M  END
> <minimizedAffinity>
-7.04807

$$$$
2121


 31 34  0  0  0  0  0  0  0  0999 V2000
    0.6904  -15.0163  -36.4907 C   0  0  0  0  0  0  0  0  0  0  0  0
   -0.5085  -14.4953  -36.1972 O   0  0  0  0  0  0  0  0  0  0  0  0
    0.7784  -16.3645  -36.2168 N   0  0  0  0  0  0  0  0  0  0  0  0
   -0.5130  -16.8999  -35.7012 C   0  0  0  0  0  0  0  0  0  0  0  0
   -1.3526  -17.3742  -36.8716 C   0  0  0  0  0  0  0  0  0  0  0  0
   -0.4403  -17.6358  -38.0084 C   0  0  0  0  0  0  0  0  0  0  0  0
    0.5781  -18.6718  -37.6586 C   0  0  0  0  0  0  0  0  0  0  0  0
    1.9400  -17.9567  -37.6944 C   0  0  0  0  0  0  0  0  0  0  0  0
    1.9571  -17.1415  -36.3876 C   0  0  0  0  0  0  0  0  0  0  0  0
    0.5703  -19.7814  -38.5014 O   0  0  0  0  0  0  0  0  0  0  0  0
   -0.3943  -19.9008  -38.7820 H   0  0  0  0  0  0  0  0  0  0  0  0
    5.1199  -10.8031  -41.0054 Cl  0  0  0  0  0  0  0  0  0  0  0  0
    4.2881  -11.4019  -39.5677 C   0  0  0  0  0  0  0  0  0  0  0  0
    3.4985  -12.4996  -39.6881 C   0  0  0  0  0  0  0  0  0  0  0  0
    2.8508  -12.9487  -38.5319 C   0  0  0  0  0  0  0  0  0  0  0  0
    2.9913  -12.3320  -37.3376 C   0  0  0  0  0  0  0  0  0  0  0  0
    2.2254  -13.0202  -36.4371 N   0  0  0  0  0  0  0  0  0  0  0  0
    1.6084  -14.0478  -37.0249 C   0  0  0  0  0  0  0  0  0  0  0  0
    1.9953  -14.0197  -38.3637 C   0  0  0  0  0  0  0  0  0  0  0  0
    3.7911  -11.2264  -37.2328 C   0  0  0  0  0  0  0  0  0  0  0  0
    4.4476  -10.7546  -38.3594 C   0  0  0  0  0  0  0  0  0  0  0  0
    2.1938  -12.7334  -35.4505 H   0  0  0  0  0  0  0  0  0  0  0  0
   -1.0170  -17.9162  -39.2847 N   0  0  0  0  0  0  0  0  0  0  0  0
   -0.5028  -17.1232  -40.3727 C   0  0  0  0  0  0  0  0  0  0  0  0
   -0.8147  -15.6846  -40.2052 C   0  0  0  0  0  0  0  0  0  0  0  0
   -2.2712  -15.5875  -40.0576 N   0  0  0  0  0  0  0  0  0  0  0  0
   -2.9937  -16.8302  -40.1405 C   0  0  0  0  0  0  0  0  0  0  0  0
   -2.4547  -17.9325  -39.2781 C   0  0  0  0  0  0  0  0  0  0  0  0
   -2.8859  -14.3128  -39.8662 C   0  0  0  0  0  0  0  0  0  0  0  0
   -4.1144  -14.2433  -39.7290 O   0  0  0  0  0  0  0  0  0  0  0  0
   -2.0124  -13.0974  -39.8400 C   0  0  0  0  0  0  0  0  0  0  0  0
 12 13  1  0  0  0
 13 14  2  0  0  0
 13 21  1  0  0  0
 14 15  1  0  0  0
 15 16  2  0  0  0
 15 19  1  0  0  0
 16 17  1  0  0  0
 16 20  1  0  0  0
 17 18  1  0  0  0
 18 19  2  0  0  0
 18  1  1  0  0  0
  1  2  2  0  0  0
  1  3  1  0  0  0
  3  4  1  0  0  0
  3  9  1  0  0  0
  4  5  1  0  0  0
  5  6  1  0  0  0
  6  7  1  0  0  0
  6 23  1  0  0  0
  7  8  1  0  0  0
  7 10  1  0  0  0
  8  9  1  0  0  0
 23 24  1  0  0  0
 23 28  1  0  0  0
 24 25  1  0  0  0
 25 26  1  0  0  0
 26 27  1  0  0  0
 26 29  1  0  0  0
 27 28  1  0  0  0
 29 30  2  0  0  0
 29 31  1  0  0  0
 20 21  2  0  0  0
 17 22  1  0  0  0
 10 11  1  0  0  0
M  END
> <minimizedAffinity>
-6.57936

$$$$
2122


 29 32  0  0  0  0  0  0  0  0999 V2000
    1.6403  -16.6008  -38.6042 C   0  0  0  0  0  0  0  0  0  0  0  0
    2.0124  -17.2994  -39.6906 N   0  0  0  0  0  0  0  0  0  0  0  0
    2.7518  -18.3158  -39.3481 O   0  0  0  0  0  0  0  0  0  0  0  0
    2.8683  -18.2860  -38.0358 C   0  0  0  0  0  0  0  0  0  0  0  0
    2.1907  -17.2368  -37.5616 N   0  0  0  0  0  0  0  0  0  0  0  0
    3.6609  -19.3253  -37.2967 C   0  0  0  0  0  0  0  0  0  0  0  0
    3.7637  -19.0164  -36.0592 O   0  0  0  0  0  0  0  0  0  0  0  0
    4.1483  -20.3989  -37.9447 N   0  0  0  0  0  0  0  0  0  0  0  0
    4.6317  -20.8855  -36.7565 H   0  0  0  0  0  0  0  0  0  0  0  0
    4.6557  -21.5080  -38.5945 C   0  0  0  0  0  0  0  0  0  0  0  0
    4.3170  -21.5466  -40.0895 C   0  0  0  0  0  0  0  0  0  0  0  0
    5.3942  -21.2589  -40.9512 N   0  0  0  0  0  0  0  0  0  0  0  0
    5.5125  -19.8721  -41.1799 C   0  0  0  0  0  0  0  0  0  0  0  0
    6.1577  -19.5416  -42.4836 C   0  0  0  0  0  0  0  0  0  0  0  0
    7.2072  -20.3989  -42.6927 O   0  0  0  0  0  0  0  0  0  0  0  0
    6.8290  -21.7137  -42.8869 C   0  0  0  0  0  0  0  0  0  0  0  0
    5.7182  -22.1575  -41.9818 C   0  0  0  0  0  0  0  0  0  0  0  0
    0.7658  -15.3961  -38.6123 C   0  0  0  0  0  0  0  0  0  0  0  0
    4.6222  -11.9322  -41.2256 Cl  0  0  0  0  0  0  0  0  0  0  0  0
    3.8287  -12.1814  -39.6784 C   0  0  0  0  0  0  0  0  0  0  0  0
    2.9195  -13.2282  -39.5575 C   0  0  0  0  0  0  0  0  0  0  0  0
    2.2959  -13.4217  -38.3327 C   0  0  0  0  0  0  0  0  0  0  0  0
    2.6137  -12.5554  -37.2839 C   0  0  0  0  0  0  0  0  0  0  0  0
    3.5074  -11.5330  -37.4193 C   0  0  0  0  0  0  0  0  0  0  0  0
    4.1203  -11.3407  -38.6193 C   0  0  0  0  0  0  0  0  0  0  0  0
    1.8892  -12.9753  -36.2927 O   0  0  0  0  0  0  0  0  0  0  0  0
    1.1580  -14.0089  -36.6240 C   0  0  0  0  0  0  0  0  0  0  0  0
    0.3721  -14.5929  -35.8308 O   0  0  0  0  0  0  0  0  0  0  0  0
    1.3961  -14.3148  -37.9116 N   0  0  0  0  0  0  0  0  0  0  0  0
 19 20  1  0  0  0
 20 21  2  0  0  0
 20 25  1  0  0  0
 21 22  1  0  0  0
 22 23  2  0  0  0
 22 29  1  0  0  0
 23 24  1  0  0  0
 23 26  1  0  0  0
 24 25  2  0  0  0
 26 27  1  0  0  0
 27 28  2  0  0  0
 27 29  1  0  0  0
 29 18  1  0  0  0
 18  1  1  0  0  0
  1  2  2  0  0  0
  1  5  1  0  0  0
  2  3  1  0  0  0
  3  4  1  0  0  0
  4  5  2  0  0  0
  4  6  1  0  0  0
  6  7  2  0  0  0
  6  8  1  0  0  0
  8 10  1  0  0  0
 10 11  1  0  0  0
 11 12  1  0  0  0
 12 13  1  0  0  0
 12 17  1  0  0  0
 13 14  1  0  0  0
 14 15  1  0  0  0
 15 16  1  0  0  0
 16 17  1  0  0  0
  8  9  1  0  0  0
M  END
> <minimizedAffinity>
-6.49859

$$$$
2124


 25 29  0  0  0  0  0  0  0  0999 V2000
    1.7023  -16.6707  -38.0877 N   0  0  0  0  0  0  0  0  0  0  0  0
    2.5649  -17.6555  -37.5377 C   0  0  0  0  0  0  0  0  0  0  0  0
    2.7494  -17.8553  -36.3079 O   0  0  0  0  0  0  0  0  0  0  0  0
    3.2360  -18.4352  -38.6306 C   0  0  0  0  0  0  0  0  0  0  0  0
    2.9630  -19.8958  -38.4956 C   0  0  0  0  0  0  0  0  0  0  0  0
    2.5068  -20.2938  -39.7766 O   0  0  0  0  0  0  0  0  0  0  0  0
    1.4835  -19.3177  -39.8880 C   0  0  0  0  0  0  0  0  0  0  0  0
    2.3655  -18.0739  -39.8431 C   0  0  0  0  0  0  0  0  0  0  0  0
    1.6490  -16.8553  -39.4967 C   0  0  0  0  0  0  0  0  0  0  0  0
    1.0818  -16.1039  -40.3308 O   0  0  0  0  0  0  0  0  0  0  0  0
    0.7623  -19.5381  -38.6120 C   0  0  0  0  0  0  0  0  0  0  0  0
    1.6728  -20.0298  -37.7465 C   0  0  0  0  0  0  0  0  0  0  0  0
    0.6617  -19.4388  -41.1026 C   0  0  0  0  0  0  0  0  0  0  0  0
   -1.2748  -12.2376  -35.3286 Cl  0  0  0  0  0  0  0  0  0  0  0  0
   -0.4230  -13.5552  -36.1402 C   0  0  0  0  0  0  0  0  0  0  0  0
   -1.0955  -14.6380  -36.6533 C   0  0  0  0  0  0  0  0  0  0  0  0
   -0.3967  -15.6506  -37.2868 C   0  0  0  0  0  0  0  0  0  0  0  0
    0.9693  -15.6313  -37.4334 C   0  0  0  0  0  0  0  0  0  0  0  0
    1.6481  -14.5422  -36.9187 C   0  0  0  0  0  0  0  0  0  0  0  0
    0.9461  -13.5214  -36.2814 C   0  0  0  0  0  0  0  0  0  0  0  0
    4.0515  -20.7362  -37.9814 C   0  0  0  0  0  0  0  0  0  0  0  0
    4.2431  -21.8020  -38.8629 O   0  0  0  0  0  0  0  0  0  0  0  0
    5.1322  -21.4045  -39.8296 C   0  0  0  0  0  0  0  0  0  0  0  0
    5.9457  -20.3541  -39.1209 C   0  0  0  0  0  0  0  0  0  0  0  0
    5.2440  -20.0121  -37.9867 O   0  0  0  0  0  0  0  0  0  0  0  0
 14 15  1  0  0  0
 15 16  2  0  0  0
 15 20  1  0  0  0
 16 17  1  0  0  0
 17 18  2  0  0  0
 18 19  1  0  0  0
 18  1  1  0  0  0
 19 20  2  0  0  0
  1  2  1  0  0  0
  1  9  1  0  0  0
  2  3  2  0  0  0
  2  4  1  0  0  0
  4  5  1  0  0  0
  4  8  1  0  0  0
  5  6  1  0  0  0
  5 12  1  0  0  0
  5 21  1  0  0  0
  6  7  1  0  0  0
  7  8  1  0  0  0
  7 11  1  0  0  0
  7 13  1  0  0  0
  8  9  1  0  0  0
  9 10  2  0  0  0
 11 12  2  0  0  0
 21 22  1  0  0  0
 21 25  1  0  0  0
 22 23  1  0  0  0
 23 24  1  0  0  0
 24 25  1  0  0  0
M  END
> <minimizedAffinity>
-6.39702

$$$$
2134


 36 39  0  0  0  0  0  0  0  0999 V2000
    6.5677  -23.2545  -42.9672 C   0  0  0  0  0  0  0  0  0  0  0  0
    7.7616  -23.7954  -42.9793 N   0  0  0  0  0  0  0  0  0  0  0  0
    7.7584  -25.0691  -43.4884 N   0  0  0  0  0  0  0  0  0  0  0  0
    6.4003  -25.3454  -43.8334 C   0  0  0  0  0  0  0  0  0  0  0  0
    5.8145  -26.3839  -44.3516 N   0  0  0  0  0  0  0  0  0  0  0  0
    4.4168  -26.4096  -44.5999 N   0  0  0  0  0  0  0  0  0  0  0  0
    3.5867  -25.3145  -44.2997 C   0  0  0  0  0  0  0  0  0  0  0  0
    2.2785  -25.3270  -44.5180 C   0  0  0  0  0  0  0  0  0  0  0  0
    4.2247  -24.1379  -43.7195 C   0  0  0  0  0  0  0  0  0  0  0  0
    3.5148  -23.1642  -43.4491 O   0  0  0  0  0  0  0  0  0  0  0  0
    5.6355  -24.1880  -43.5009 N   0  0  0  0  0  0  0  0  0  0  0  0
    4.0481  -27.2931  -45.0188 H   0  0  0  0  0  0  0  0  0  0  0  0
    8.8805  -25.9407  -43.5924 C   0  0  0  0  0  0  0  0  0  0  0  0
    9.6464  -26.2566  -42.4972 C   0  0  0  0  0  0  0  0  0  0  0  0
   10.7236  -27.1316  -42.5347 C   0  0  0  0  0  0  0  0  0  0  0  0
   11.0748  -27.7383  -43.7239 C   0  0  0  0  0  0  0  0  0  0  0  0
   10.3223  -27.4342  -44.8387 C   0  0  0  0  0  0  0  0  0  0  0  0
    9.2457  -26.5509  -44.7708 C   0  0  0  0  0  0  0  0  0  0  0  0
   12.2033  -28.7155  -43.8015 C   0  0  0  0  0  0  0  0  0  0  0  0
    5.4150  -21.7584  -41.3696 N   0  0  0  0  0  0  0  0  0  0  0  0
    6.2725  -21.9201  -42.4838 C   0  0  0  0  0  0  0  0  0  0  0  0
    6.7634  -20.8892  -43.0454 O   0  0  0  0  0  0  0  0  0  0  0  0
    5.0051  -22.5550  -40.8599 H   0  0  0  0  0  0  0  0  0  0  0  0
    3.8313  -18.7555  -39.6868 N   0  0  0  0  0  0  0  0  0  0  0  0
    4.0706  -20.0821  -40.0857 C   0  0  0  0  0  0  0  0  0  0  0  0
    3.2949  -20.9740  -39.6467 O   0  0  0  0  0  0  0  0  0  0  0  0
    5.1223  -20.4694  -40.9385 N   0  0  0  0  0  0  0  0  0  0  0  0
    4.4556  -17.9890  -40.0422 H   0  0  0  0  0  0  0  0  0  0  0  0
    5.7865  -19.7240  -41.3279 H   0  0  0  0  0  0  0  0  0  0  0  0
   -0.4703  -16.9848  -36.0087 Cl  0  0  0  0  0  0  0  0  0  0  0  0
    0.7772  -17.5078  -37.1476 C   0  0  0  0  0  0  0  0  0  0  0  0
    0.4791  -17.6880  -38.4735 C   0  0  0  0  0  0  0  0  0  0  0  0
    1.5042  -18.1012  -39.2953 C   0  0  0  0  0  0  0  0  0  0  0  0
    2.7910  -18.3289  -38.8133 C   0  0  0  0  0  0  0  0  0  0  0  0
    3.0431  -18.1325  -37.4631 C   0  0  0  0  0  0  0  0  0  0  0  0
    2.0270  -17.7205  -36.6310 C   0  0  0  0  0  0  0  0  0  0  0  0
 30 31  1  0  0  0
 31 32  2  0  0  0
 31 36  1  0  0  0
 32 33  1  0  0  0
 33 34  2  0  0  0
 34 35  1  0  0  0
 34 24  1  0  0  0
 35 36  2  0  0  0
 24 25  1  0  0  0
 25 26  2  0  0  0
 25 27  1  0  0  0
 27 20  1  0  0  0
 20 21  1  0  0  0
 21 22  2  0  0  0
 21  1  1  0  0  0
  1  2  2  0  0  0
  1 11  1  0  0  0
  2  3  1  0  0  0
  3  4  1  0  0  0
  3 13  1  0  0  0
  4  5  2  0  0  0
  4 11  1  0  0  0
  5  6  1  0  0  0
  6  7  1  0  0  0
  7  8  2  0  0  0
  7  9  1  0  0  0
  9 10  2  0  0  0
  9 11  1  0  0  0
 13 14  2  0  0  0
 13 18  1  0  0  0
 14 15  1  0  0  0
 15 16  2  0  0  0
 16 17  1  0  0  0
 16 19  1  0  0  0
 17 18  2  0  0  0
 24 28  1  0  0  0
 27 29  1  0  0  0
 20 23  1  0  0  0
  6 12  1  0  0  0
M  END
> <minimizedAffinity>
-6.64532

$$$$
2136


 33 37  0  0  0  0  0  0  0  0999 V2000
    1.9173  -20.6038  -40.2992 Cl  0  0  0  0  0  0  0  0  0  0  0  0
    2.2781  -19.6061  -38.9060 C   0  0  0  0  0  0  0  0  0  0  0  0
    1.6787  -18.3821  -38.6901 C   0  0  0  0  0  0  0  0  0  0  0  0
    1.9891  -17.6148  -37.5727 C   0  0  0  0  0  0  0  0  0  0  0  0
    2.9116  -18.1354  -36.7074 C   0  0  0  0  0  0  0  0  0  0  0  0
    3.5186  -19.3527  -36.9052 C   0  0  0  0  0  0  0  0  0  0  0  0
    3.2116  -20.1015  -38.0016 C   0  0  0  0  0  0  0  0  0  0  0  0
    1.1928  -16.3832  -37.6312 C   0  0  0  0  0  0  0  0  0  0  0  0
    2.0170  -15.1880  -37.6395 N   0  0  0  0  0  0  0  0  0  0  0  0
    1.0402  -14.1445  -37.3182 C   0  0  0  0  0  0  0  0  0  0  0  0
    0.0807  -14.7378  -36.3581 C   0  0  0  0  0  0  0  0  0  0  0  0
    0.3846  -16.2018  -36.3738 C   0  0  0  0  0  0  0  0  0  0  0  0
   -0.8810  -16.9407  -36.3907 C   0  0  0  0  0  0  0  0  0  0  0  0
   -0.9792  -18.1690  -36.1445 O   0  0  0  0  0  0  0  0  0  0  0  0
   -1.8979  -16.0051  -36.7265 N   0  0  0  0  0  0  0  0  0  0  0  0
   -1.3333  -14.7109  -36.8880 C   0  0  0  0  0  0  0  0  0  0  0  0
   -1.8585  -13.6739  -37.3774 O   0  0  0  0  0  0  0  0  0  0  0  0
    0.3875  -16.4602  -38.8606 C   0  0  0  0  0  0  0  0  0  0  0  0
   -0.4249  -15.6389  -39.3094 O   0  0  0  0  0  0  0  0  0  0  0  0
    0.7141  -17.6980  -39.4759 N   0  0  0  0  0  0  0  0  0  0  0  0
    2.4536  -15.0177  -38.5866 H   0  0  0  0  0  0  0  0  0  0  0  0
    0.3176  -18.0775  -40.3775 H   0  0  0  0  0  0  0  0  0  0  0  0
   -3.3115  -16.3395  -36.8801 C   0  0  0  0  0  0  0  0  0  0  0  0
   -3.5304  -16.7962  -38.3152 C   0  0  0  0  0  0  0  0  0  0  0  0
   -3.6933  -18.1710  -38.3770 O   0  0  0  0  0  0  0  0  0  0  0  0
   -2.7664  -18.7054  -39.2505 C   0  0  0  0  0  0  0  0  0  0  0  0
    1.7099  -12.9315  -36.7460 C   0  0  0  0  0  0  0  0  0  0  0  0
    2.6944  -12.2965  -37.6375 C   0  0  0  0  0  0  0  0  0  0  0  0
    3.6977  -11.5294  -37.0491 C   0  0  0  0  0  0  0  0  0  0  0  0
    4.6420  -10.9423  -37.8509 C   0  0  0  0  0  0  0  0  0  0  0  0
    4.6471  -11.0751  -39.2190 C   0  0  0  0  0  0  0  0  0  0  0  0
    3.6390  -11.8413  -39.7627 C   0  0  0  0  0  0  0  0  0  0  0  0
    2.6649  -12.4543  -39.0030 C   0  0  0  0  0  0  0  0  0  0  0  0
  1  2  1  0  0  0
  2  3  2  0  0  0
  2  7  1  0  0  0
  3  4  1  0  0  0
  3 20  1  0  0  0
  4  5  2  0  0  0
  4  8  1  0  0  0
  5  6  1  0  0  0
  6  7  2  0  0  0
  8  9  1  0  0  0
  8 12  1  0  0  0
  8 18  1  0  0  0
  9 10  1  0  0  0
 10 11  1  0  0  0
 10 27  1  0  0  0
 11 12  1  0  0  0
 11 16  1  0  0  0
 12 13  1  0  0  0
 13 14  2  0  0  0
 13 15  1  0  0  0
 15 16  1  0  0  0
 15 23  1  0  0  0
 16 17  2  0  0  0
 23 24  1  0  0  0
 24 25  1  0  0  0
 25 26  1  0  0  0
 27 28  1  0  0  0
 28 29  2  0  0  0
 28 33  1  0  0  0
 29 30  1  0  0  0
 30 31  2  0  0  0
 31 32  1  0  0  0
 32 33  2  0  0  0
 18 19  2  0  0  0
 18 20  1  0  0  0
  9 21  1  0  0  0
 20 22  1  0  0  0
M  END
> <minimizedAffinity>
-7.08676

$$$$
2139


 27 30  0  0  0  0  0  0  0  0999 V2000
    0.8368  -17.4706  -38.3095 N   0  0  0  0  0  0  0  0  0  0  0  0
    0.9294  -17.2662  -39.7000 C   0  0  0  0  0  0  0  0  0  0  0  0
    1.9330  -18.1115  -40.4364 C   0  0  0  0  0  0  0  0  0  0  0  0
    2.1647  -19.3066  -39.5834 N   0  0  0  0  0  0  0  0  0  0  0  0
    0.9956  -19.7950  -38.9563 C   0  0  0  0  0  0  0  0  0  0  0  0
    0.6237  -18.8180  -37.8620 C   0  0  0  0  0  0  0  0  0  0  0  0
    3.4848  -19.8030  -39.5394 C   0  0  0  0  0  0  0  0  0  0  0  0
    4.3853  -19.2263  -38.6876 N   0  0  0  0  0  0  0  0  0  0  0  0
    5.6611  -19.5735  -38.5758 C   0  0  0  0  0  0  0  0  0  0  0  0
    6.1241  -20.5684  -39.3513 N   0  0  0  0  0  0  0  0  0  0  0  0
    5.2793  -21.1779  -40.2133 C   0  0  0  0  0  0  0  0  0  0  0  0
    5.4518  -22.1883  -41.0855 N   0  0  0  0  0  0  0  0  0  0  0  0
    4.2970  -22.4368  -41.7036 C   0  0  0  0  0  0  0  0  0  0  0  0
    3.3461  -21.5996  -41.2523 N   0  0  0  0  0  0  0  0  0  0  0  0
    3.9361  -20.8167  -40.3351 C   0  0  0  0  0  0  0  0  0  0  0  0
    6.5588  -18.9209  -37.6533 N   0  0  0  0  0  0  0  0  0  0  0  0
    2.3565  -21.6082  -41.5796 H   0  0  0  0  0  0  0  0  0  0  0  0
    7.3955  -18.4132  -37.9718 H   0  0  0  0  0  0  0  0  0  0  0  0
    6.3639  -18.9572  -36.6330 H   0  0  0  0  0  0  0  0  0  0  0  0
    1.6151  -16.6490  -37.4651 C   0  0  0  0  0  0  0  0  0  0  0  0
   -0.9637  -11.6424  -35.4170 Cl  0  0  0  0  0  0  0  0  0  0  0  0
   -0.2002  -13.1011  -36.0152 C   0  0  0  0  0  0  0  0  0  0  0  0
    1.1747  -13.1706  -36.0931 C   0  0  0  0  0  0  0  0  0  0  0  0
    1.7225  -14.3543  -36.5749 C   0  0  0  0  0  0  0  0  0  0  0  0
    0.9724  -15.4338  -36.9682 C   0  0  0  0  0  0  0  0  0  0  0  0
   -0.3939  -15.3440  -36.8813 C   0  0  0  0  0  0  0  0  0  0  0  0
   -0.9551  -14.1830  -36.4076 C   0  0  0  0  0  0  0  0  0  0  0  0
 21 22  1  0  0  0
 22 23  2  0  0  0
 22 27  1  0  0  0
 23 24  1  0  0  0
 24 25  2  0  0  0
 25 26  1  0  0  0
 25 20  1  0  0  0
 26 27  2  0  0  0
 20  1  1  0  0  0
  1  2  1  0  0  0
  1  6  1  0  0  0
  2  3  1  0  0  0
  3  4  1  0  0  0
  4  5  1  0  0  0
  4  7  1  0  0  0
  5  6  1  0  0  0
  7  8  2  0  0  0
  7 15  1  0  0  0
  8  9  1  0  0  0
  9 10  2  0  0  0
  9 16  1  0  0  0
 10 11  1  0  0  0
 11 12  1  0  0  0
 11 15  2  0  0  0
 12 13  2  0  0  0
 13 14  1  0  0  0
 14 15  1  0  0  0
 14 17  1  0  0  0
 16 18  1  0  0  0
 16 19  1  0  0  0
M  END
> <minimizedAffinity>
-6.33583

$$$$
2149


 24 27  0  0  0  0  0  0  0  0999 V2000
    1.0218  -16.9521  -38.3099 N   0  0  0  0  0  0  0  0  0  0  0  0
    0.8260  -17.4717  -39.5071 N   0  0  0  0  0  0  0  0  0  0  0  0
    1.6023  -18.5212  -39.7047 N   0  0  0  0  0  0  0  0  0  0  0  0
    2.3408  -18.7140  -38.6122 C   0  0  0  0  0  0  0  0  0  0  0  0
    1.9751  -17.7225  -37.7279 C   0  0  0  0  0  0  0  0  0  0  0  0
    2.5823  -17.6947  -36.5327 N   0  0  0  0  0  0  0  0  0  0  0  0
    3.5163  -18.6060  -36.2103 C   0  0  0  0  0  0  0  0  0  0  0  0
    3.8569  -19.5644  -37.0901 N   0  0  0  0  0  0  0  0  0  0  0  0
    3.3003  -19.6771  -38.3246 C   0  0  0  0  0  0  0  0  0  0  0  0
    3.6527  -20.6777  -39.2477 N   0  0  0  0  0  0  0  0  0  0  0  0
    2.9494  -21.0224  -40.4545 C   0  0  0  0  0  0  0  0  0  0  0  0
    3.8720  -20.8381  -41.6015 C   0  0  0  0  0  0  0  0  0  0  0  0
    5.2475  -20.7627  -41.3412 N   0  0  0  0  0  0  0  0  0  0  0  0
    5.7726  -21.2514  -40.1382 C   0  0  0  0  0  0  0  0  0  0  0  0
    4.8308  -21.4760  -39.0155 C   0  0  0  0  0  0  0  0  0  0  0  0
    5.7003  -19.3984  -41.5465 C   0  0  0  0  0  0  0  0  0  0  0  0
    0.3731  -15.7937  -37.6985 C   0  0  0  0  0  0  0  0  0  0  0  0
    4.0994  -11.0797  -37.9551 Cl  0  0  0  0  0  0  0  0  0  0  0  0
    3.0122  -12.4632  -37.9007 C   0  0  0  0  0  0  0  0  0  0  0  0
    2.3938  -12.8036  -36.7241 C   0  0  0  0  0  0  0  0  0  0  0  0
    1.5413  -13.8954  -36.6991 C   0  0  0  0  0  0  0  0  0  0  0  0
    1.3019  -14.6409  -37.8205 C   0  0  0  0  0  0  0  0  0  0  0  0
    1.9194  -14.3022  -39.0010 C   0  0  0  0  0  0  0  0  0  0  0  0
    2.7642  -13.2216  -39.0268 C   0  0  0  0  0  0  0  0  0  0  0  0
 18 19  1  0  0  0
 19 20  2  0  0  0
 19 24  1  0  0  0
 20 21  1  0  0  0
 21 22  2  0  0  0
 22 23  1  0  0  0
 22 17  1  0  0  0
 23 24  2  0  0  0
 17  1  1  0  0  0
  1  2  1  0  0  0
  1  5  1  0  0  0
  2  3  2  0  0  0
  3  4  1  0  0  0
  4  5  2  0  0  0
  4  9  1  0  0  0
  5  6  1  0  0  0
  6  7  2  0  0  0
  7  8  1  0  0  0
  8  9  2  0  0  0
  9 10  1  0  0  0
 10 11  1  0  0  0
 10 15  1  0  0  0
 11 12  1  0  0  0
 12 13  1  0  0  0
 13 14  1  0  0  0
 13 16  1  0  0  0
 14 15  1  0  0  0
M  END
> <minimizedAffinity>
-6.42111

$$$$
2163


 31 34  0  0  0  0  0  0  0  0999 V2000
    1.5206  -17.5716  -39.6925 C   0  0  0  0  0  0  0  0  0  0  0  0
    2.6915  -18.1511  -39.3501 N   0  0  0  0  0  0  0  0  0  0  0  0
    2.7330  -19.3251  -38.7097 C   0  0  0  0  0  0  0  0  0  0  0  0
    1.5736  -19.9294  -38.4067 N   0  0  0  0  0  0  0  0  0  0  0  0
    0.3593  -19.4041  -38.7212 C   0  0  0  0  0  0  0  0  0  0  0  0
    0.3941  -18.2083  -39.3712 N   0  0  0  0  0  0  0  0  0  0  0  0
    3.9648  -19.9343  -38.3486 N   0  0  0  0  0  0  0  0  0  0  0  0
    4.9678  -19.2486  -37.5641 C   0  0  0  0  0  0  0  0  0  0  0  0
    6.3648  -19.5083  -38.1074 C   0  0  0  0  0  0  0  0  0  0  0  0
    6.5332  -20.8669  -38.3977 O   0  0  0  0  0  0  0  0  0  0  0  0
    5.6497  -21.2953  -39.3594 C   0  0  0  0  0  0  0  0  0  0  0  0
    4.2584  -21.2878  -38.7638 C   0  0  0  0  0  0  0  0  0  0  0  0
   -0.8524  -20.0424  -38.4006 N   0  0  0  0  0  0  0  0  0  0  0  0
   -1.3595  -21.1219  -39.1942 C   0  0  0  0  0  0  0  0  0  0  0  0
   -2.7923  -20.7586  -39.5783 C   0  0  0  0  0  0  0  0  0  0  0  0
   -3.4796  -20.5217  -38.4005 O   0  0  0  0  0  0  0  0  0  0  0  0
   -3.0440  -19.3971  -37.7402 C   0  0  0  0  0  0  0  0  0  0  0  0
   -1.6085  -19.6138  -37.2607 C   0  0  0  0  0  0  0  0  0  0  0  0
    1.4402  -16.3255  -40.3736 N   0  0  0  0  0  0  0  0  0  0  0  0
    0.7759  -16.1908  -41.1834 H   0  0  0  0  0  0  0  0  0  0  0  0
    1.8639  -14.3390  -39.1674 C   0  0  0  0  0  0  0  0  0  0  0  0
    2.2193  -15.2219  -40.0225 N   0  0  0  0  0  0  0  0  0  0  0  0
    5.4405  -10.6708  -40.6575 Br  0  0  0  0  0  0  0  0  0  0  0  0
    4.2944  -11.5059  -39.3839 C   0  0  0  0  0  0  0  0  0  0  0  0
    3.5171  -12.5886  -39.7305 C   0  0  0  0  0  0  0  0  0  0  0  0
    2.6915  -13.1915  -38.8127 C   0  0  0  0  0  0  0  0  0  0  0  0
    2.6628  -12.6818  -37.5328 C   0  0  0  0  0  0  0  0  0  0  0  0
    3.4456  -11.5836  -37.1681 C   0  0  0  0  0  0  0  0  0  0  0  0
    4.2766  -10.9803  -38.0981 C   0  0  0  0  0  0  0  0  0  0  0  0
    1.8186  -13.3100  -36.6246 O   0  0  0  0  0  0  0  0  0  0  0  0
    0.6369  -12.7307  -36.1224 C   0  0  0  0  0  0  0  0  0  0  0  0
 23 24  1  0  0  0
 24 25  2  0  0  0
 24 29  1  0  0  0
 25 26  1  0  0  0
 26 27  2  0  0  0
 26 21  1  0  0  0
 27 28  1  0  0  0
 27 30  1  0  0  0
 28 29  2  0  0  0
 30 31  1  0  0  0
 21 22  2  0  0  0
 22 19  1  0  0  0
 19  1  1  0  0  0
  1  2  2  0  0  0
  1  6  1  0  0  0
  2  3  1  0  0  0
  3  4  2  0  0  0
  3  7  1  0  0  0
  4  5  1  0  0  0
  5  6  2  0  0  0
  5 13  1  0  0  0
 13 14  1  0  0  0
 13 18  1  0  0  0
 14 15  1  0  0  0
 15 16  1  0  0  0
 16 17  1  0  0  0
 17 18  1  0  0  0
  7  8  1  0  0  0
  7 12  1  0  0  0
  8  9  1  0  0  0
  9 10  1  0  0  0
 10 11  1  0  0  0
 11 12  1  0  0  0
 19 20  1  0  0  0
M  END
> <minimizedAffinity>
-6.45926

$$$$
2164


 25 28  0  0  0  0  0  0  0  0999 V2000
    0.6926  -16.7222  -36.1728 C   0  0  0  0  0  0  0  0  0  0  0  0
    2.1026  -17.2181  -36.3620 C   0  0  0  0  0  0  0  0  0  0  0  0
    1.7405  -17.8477  -37.6405 N   0  0  0  0  0  0  0  0  0  0  0  0
    0.3595  -17.7614  -37.2029 C   0  0  0  0  0  0  0  0  0  0  0  0
    2.4908  -18.3072  -38.7576 C   0  0  0  0  0  0  0  0  0  0  0  0
    2.5028  -17.6427  -39.9423 N   0  0  0  0  0  0  0  0  0  0  0  0
    3.2323  -18.1048  -40.9998 C   0  0  0  0  0  0  0  0  0  0  0  0
    3.9572  -19.2237  -40.9049 N   0  0  0  0  0  0  0  0  0  0  0  0
    3.9909  -19.9263  -39.7713 C   0  0  0  0  0  0  0  0  0  0  0  0
    4.6294  -21.0629  -39.4284 N   0  0  0  0  0  0  0  0  0  0  0  0
    4.3050  -21.3076  -38.1774 N   0  0  0  0  0  0  0  0  0  0  0  0
    3.4797  -20.3623  -37.7137 N   0  0  0  0  0  0  0  0  0  0  0  0
    3.2527  -19.4576  -38.7037 C   0  0  0  0  0  0  0  0  0  0  0  0
    5.5124  -21.8841  -40.2526 C   0  0  0  0  0  0  0  0  0  0  0  0
    1.4522  -14.3372  -36.3242 N   0  0  0  0  0  0  0  0  0  0  0  0
    0.4798  -15.3033  -36.6255 C   0  0  0  0  0  0  0  0  0  0  0  0
   -0.5740  -15.1019  -37.2465 O   0  0  0  0  0  0  0  0  0  0  0  0
    2.3343  -14.6438  -35.7710 H   0  0  0  0  0  0  0  0  0  0  0  0
    4.1269  -10.2224  -38.2869 Br  0  0  0  0  0  0  0  0  0  0  0  0
    2.5523  -11.0294  -37.5798 C   0  0  0  0  0  0  0  0  0  0  0  0
    2.5289  -12.3526  -37.2056 C   0  0  0  0  0  0  0  0  0  0  0  0
    1.3868  -12.9766  -36.6816 C   0  0  0  0  0  0  0  0  0  0  0  0
    0.2747  -12.1919  -36.5581 C   0  0  0  0  0  0  0  0  0  0  0  0
    0.3084  -10.8486  -36.9403 C   0  0  0  0  0  0  0  0  0  0  0  0
    1.4286  -10.2696  -37.4451 C   0  0  0  0  0  0  0  0  0  0  0  0
 19 20  1  0  0  0
 20 21  2  0  0  0
 20 25  1  0  0  0
 21 22  1  0  0  0
 22 23  2  0  0  0
 22 15  1  0  0  0
 23 24  1  0  0  0
 24 25  2  0  0  0
 15 16  1  0  0  0
 16 17  2  0  0  0
 16  1  1  0  0  0
  1  2  1  0  0  0
  1  4  1  0  0  0
  2  3  1  0  0  0
  3  4  1  0  0  0
  3  5  1  0  0  0
  5  6  2  0  0  0
  5 13  1  0  0  0
  6  7  1  0  0  0
  7  8  2  0  0  0
  8  9  1  0  0  0
  9 10  1  0  0  0
  9 13  2  0  0  0
 10 11  1  0  0  0
 10 14  1  0  0  0
 11 12  2  0  0  0
 12 13  1  0  0  0
 15 18  1  0  0  0
M  END
> <minimizedAffinity>
-6.30069

$$$$
2170


 32 36  0  0  0  0  0  0  0  0999 V2000
   -0.5590  -15.5149  -37.7993 N   0  0  0  0  0  0  0  0  0  0  0  0
   -0.4989  -14.2151  -37.6024 N   0  0  0  0  0  0  0  0  0  0  0  0
   -1.6554  -13.7289  -37.1295 C   0  0  0  0  0  0  0  0  0  0  0  0
   -1.5736  -12.4030  -36.9371 N   0  0  0  0  0  0  0  0  0  0  0  0
   -0.3382  -11.9850  -37.2882 C   0  0  0  0  0  0  0  0  0  0  0  0
    0.3295  -13.1413  -37.7064 C   0  0  0  0  0  0  0  0  0  0  0  0
    1.6289  -12.9474  -38.1249 C   0  0  0  0  0  0  0  0  0  0  0  0
    2.2734  -13.9663  -38.5166 O   0  0  0  0  0  0  0  0  0  0  0  0
    2.2439  -11.7348  -38.1387 N   0  0  0  0  0  0  0  0  0  0  0  0
    1.5352  -10.6754  -37.7200 C   0  0  0  0  0  0  0  0  0  0  0  0
    2.1298   -9.5476  -37.7407 O   0  0  0  0  0  0  0  0  0  0  0  0
    0.2668  -10.7857  -37.3011 N   0  0  0  0  0  0  0  0  0  0  0  0
   -0.4380   -9.6099  -36.8665 C   0  0  0  0  0  0  0  0  0  0  0  0
    3.6114  -11.6173  -38.5910 C   0  0  0  0  0  0  0  0  0  0  0  0
   -2.4780  -14.8040  -37.0333 N   0  0  0  0  0  0  0  0  0  0  0  0
   -1.8221  -15.8992  -37.4397 C   0  0  0  0  0  0  0  0  0  0  0  0
   -2.2983  -17.2402  -37.5067 N   0  0  0  0  0  0  0  0  0  0  0  0
   -2.0926  -18.1809  -36.4185 C   0  0  0  0  0  0  0  0  0  0  0  0
   -1.7851  -19.5267  -37.0278 C   0  0  0  0  0  0  0  0  0  0  0  0
   -2.8121  -19.9009  -37.9091 O   0  0  0  0  0  0  0  0  0  0  0  0
   -2.8306  -19.1111  -39.0375 C   0  0  0  0  0  0  0  0  0  0  0  0
   -3.0084  -17.6779  -38.6793 C   0  0  0  0  0  0  0  0  0  0  0  0
    0.4414  -16.4315  -38.2951 C   0  0  0  0  0  0  0  0  0  0  0  0
    1.3288  -16.9631  -37.2458 C   0  0  0  0  0  0  0  0  0  0  0  0
    1.3898  -16.4686  -36.0980 O   0  0  0  0  0  0  0  0  0  0  0  0
    4.8360  -21.6960  -38.5511 Cl  0  0  0  0  0  0  0  0  0  0  0  0
    3.8071  -20.3228  -38.1804 C   0  0  0  0  0  0  0  0  0  0  0  0
    2.6543  -20.0624  -38.9091 C   0  0  0  0  0  0  0  0  0  0  0  0
    1.8587  -18.9770  -38.6015 C   0  0  0  0  0  0  0  0  0  0  0  0
    2.1646  -18.1109  -37.5733 C   0  0  0  0  0  0  0  0  0  0  0  0
    3.3295  -18.3864  -36.8472 C   0  0  0  0  0  0  0  0  0  0  0  0
    4.1299  -19.4684  -37.1468 C   0  0  0  0  0  0  0  0  0  0  0  0
 26 27  1  0  0  0
 27 28  2  0  0  0
 27 32  1  0  0  0
 28 29  1  0  0  0
 29 30  2  0  0  0
 30 31  1  0  0  0
 30 24  1  0  0  0
 31 32  2  0  0  0
 24 25  2  0  0  0
 24 23  1  0  0  0
 23  1  1  0  0  0
  1  2  1  0  0  0
  1 16  1  0  0  0
  2  3  1  0  0  0
  2  6  1  0  0  0
  3  4  2  0  0  0
  3 15  1  0  0  0
  4  5  1  0  0  0
  5  6  2  0  0  0
  5 12  1  0  0  0
  6  7  1  0  0  0
  7  8  2  0  0  0
  7  9  1  0  0  0
  9 10  1  0  0  0
  9 14  1  0  0  0
 10 11  2  0  0  0
 10 12  1  0  0  0
 12 13  1  0  0  0
 15 16  2  0  0  0
 16 17  1  0  0  0
 17 18  1  0  0  0
 17 22  1  0  0  0
 18 19  1  0  0  0
 19 20  1  0  0  0
 20 21  1  0  0  0
 21 22  1  0  0  0
M  END
> <minimizedAffinity>
-6.34420

$$$$
2177


 31 35  0  0  0  0  0  0  0  0999 V2000
    4.0260  -20.1383  -39.7465 N   0  0  0  0  0  0  0  0  0  0  0  0
    3.8503  -20.5078  -38.3621 C   0  0  0  0  0  0  0  0  0  0  0  0
    3.5581  -19.2569  -37.5748 C   0  0  0  0  0  0  0  0  0  0  0  0
    2.5906  -18.3888  -38.2163 N   0  0  0  0  0  0  0  0  0  0  0  0
    2.7668  -18.0625  -39.6173 C   0  0  0  0  0  0  0  0  0  0  0  0
    2.9986  -19.3418  -40.3783 C   0  0  0  0  0  0  0  0  0  0  0  0
    4.4613  -27.0146  -45.3492 Cl  0  0  0  0  0  0  0  0  0  0  0  0
    4.3099  -25.6586  -44.2272 C   0  0  0  0  0  0  0  0  0  0  0  0
    5.4212  -24.9069  -43.9161 C   0  0  0  0  0  0  0  0  0  0  0  0
    5.3373  -23.8461  -43.0471 C   0  0  0  0  0  0  0  0  0  0  0  0
    4.1387  -23.4975  -42.4582 C   0  0  0  0  0  0  0  0  0  0  0  0
    3.0371  -24.2615  -42.7809 C   0  0  0  0  0  0  0  0  0  0  0  0
    3.1055  -25.3268  -43.6492 C   0  0  0  0  0  0  0  0  0  0  0  0
    4.1150  -22.3916  -41.5691 N   0  0  0  0  0  0  0  0  0  0  0  0
    5.2549  -21.6054  -41.2374 C   0  0  0  0  0  0  0  0  0  0  0  0
    5.1993  -20.5870  -40.4109 C   0  0  0  0  0  0  0  0  0  0  0  0
    6.4917  -21.9559  -41.8395 N   0  0  0  0  0  0  0  0  0  0  0  0
    6.5381  -23.0495  -42.7247 C   0  0  0  0  0  0  0  0  0  0  0  0
    7.6119  -23.4219  -43.3007 O   0  0  0  0  0  0  0  0  0  0  0  0
    3.2146  -22.1212  -41.1195 H   0  0  0  0  0  0  0  0  0  0  0  0
    7.3725  -21.4274  -41.6469 H   0  0  0  0  0  0  0  0  0  0  0  0
    1.4894  -17.8715  -37.4667 C   0  0  0  0  0  0  0  0  0  0  0  0
    1.6790  -16.7759  -36.7055 N   0  0  0  0  0  0  0  0  0  0  0  0
    0.6565  -16.2495  -35.9747 C   0  0  0  0  0  0  0  0  0  0  0  0
   -0.5701  -16.8158  -35.9967 N   0  0  0  0  0  0  0  0  0  0  0  0
   -0.8199  -17.9038  -36.7327 C   0  0  0  0  0  0  0  0  0  0  0  0
   -1.9194  -18.6526  -36.9334 N   0  0  0  0  0  0  0  0  0  0  0  0
   -1.5901  -19.6213  -37.7692 N   0  0  0  0  0  0  0  0  0  0  0  0
   -0.2772  -19.5115  -38.1185 C   0  0  0  0  0  0  0  0  0  0  0  0
    0.2385  -18.4301  -37.4753 C   0  0  0  0  0  0  0  0  0  0  0  0
   -3.2500  -18.4571  -36.3495 C   0  0  0  0  0  0  0  0  0  0  0  0
  7  8  1  0  0  0
  8  9  2  0  0  0
  8 13  1  0  0  0
  9 10  1  0  0  0
 10 11  2  0  0  0
 10 18  1  0  0  0
 11 12  1  0  0  0
 11 14  1  0  0  0
 12 13  2  0  0  0
 14 15  1  0  0  0
 15 16  2  0  0  0
 15 17  1  0  0  0
 16  1  1  0  0  0
  1  2  1  0  0  0
  1  6  1  0  0  0
  2  3  1  0  0  0
  3  4  1  0  0  0
  4  5  1  0  0  0
  4 22  1  0  0  0
  5  6  1  0  0  0
 22 23  2  0  0  0
 22 30  1  0  0  0
 23 24  1  0  0  0
 24 25  2  0  0  0
 25 26  1  0  0  0
 26 27  1  0  0  0
 26 30  2  0  0  0
 27 28  1  0  0  0
 27 31  1  0  0  0
 28 29  2  0  0  0
 29 30  1  0  0  0
 17 18  1  0  0  0
 18 19  2  0  0  0
 14 20  1  0  0  0
 17 21  1  0  0  0
M  END
> <minimizedAffinity>
-6.55578

$$$$
2184


 29 32  0  0  0  0  0  0  0  0999 V2000
    0.1673  -15.1092  -36.3408 N   0  0  0  0  0  0  0  0  0  0  0  0
    0.4489  -16.3926  -35.9125 C   0  0  0  0  0  0  0  0  0  0  0  0
    0.0602  -17.4378  -37.0145 C   0  0  0  0  0  0  0  0  0  0  0  0
    1.1839  -17.1135  -38.0177 N   0  0  0  0  0  0  0  0  0  0  0  0
    1.0165  -15.8680  -38.5890 C   0  0  0  0  0  0  0  0  0  0  0  0
   -0.1198  -15.1763  -37.8034 C   0  0  0  0  0  0  0  0  0  0  0  0
   -0.7977  -14.8494  -35.9554 H   0  0  0  0  0  0  0  0  0  0  0  0
    2.1651  -18.1269  -38.0741 C   0  0  0  0  0  0  0  0  0  0  0  0
    3.0956  -18.4007  -37.1336 C   0  0  0  0  0  0  0  0  0  0  0  0
    3.8729  -19.5937  -37.1715 C   0  0  0  0  0  0  0  0  0  0  0  0
    3.7133  -20.5218  -38.1655 C   0  0  0  0  0  0  0  0  0  0  0  0
    2.7634  -20.2453  -39.1438 C   0  0  0  0  0  0  0  0  0  0  0  0
    2.0145  -19.0788  -39.1005 C   0  0  0  0  0  0  0  0  0  0  0  0
    4.4966  -21.6691  -38.1607 O   0  0  0  0  0  0  0  0  0  0  0  0
    5.7581  -21.7045  -38.8459 C   0  0  0  0  0  0  0  0  0  0  0  0
    0.9730  -13.9865  -36.1341 C   0  0  0  0  0  0  0  0  0  0  0  0
    4.1273  -11.8844  -39.6401 Cl  0  0  0  0  0  0  0  0  0  0  0  0
    2.7169  -11.3917  -38.6963 C   0  0  0  0  0  0  0  0  0  0  0  0
    2.0896  -12.2021  -37.7882 C   0  0  0  0  0  0  0  0  0  0  0  0
    1.0447  -11.7539  -37.0584 C   0  0  0  0  0  0  0  0  0  0  0  0
    0.5794  -10.4761  -37.2009 C   0  0  0  0  0  0  0  0  0  0  0  0
    1.2235   -9.6363  -38.1409 C   0  0  0  0  0  0  0  0  0  0  0  0
    2.2782  -10.0775  -38.8896 C   0  0  0  0  0  0  0  0  0  0  0  0
    2.8837   -9.2212  -39.8365 O   0  0  0  0  0  0  0  0  0  0  0  0
   -0.4084  -10.0012  -36.4968 O   0  0  0  0  0  0  0  0  0  0  0  0
   -1.0094  -10.7659  -35.5923 C   0  0  0  0  0  0  0  0  0  0  0  0
   -1.9451  -10.2938  -34.9346 O   0  0  0  0  0  0  0  0  0  0  0  0
   -0.5893  -12.0949  -35.3819 C   0  0  0  0  0  0  0  0  0  0  0  0
    0.4301  -12.6187  -36.0981 C   0  0  0  0  0  0  0  0  0  0  0  0
 17 18  1  0  0  0
 18 19  2  0  0  0
 18 23  1  0  0  0
 19 20  1  0  0  0
 20 21  2  0  0  0
 20 29  1  0  0  0
 21 22  1  0  0  0
 21 25  1  0  0  0
 22 23  2  0  0  0
 23 24  1  0  0  0
 25 26  1  0  0  0
 26 27  2  0  0  0
 26 28  1  0  0  0
 28 29  2  0  0  0
 29 16  1  0  0  0
 16  1  1  0  0  0
  1  2  1  0  0  0
  1  6  1  0  0  0
  2  3  1  0  0  0
  3  4  1  0  0  0
  4  5  1  0  0  0
  4  8  1  0  0  0
  5  6  1  0  0  0
  8  9  2  0  0  0
  8 13  1  0  0  0
  9 10  1  0  0  0
 10 11  2  0  0  0
 11 12  1  0  0  0
 11 14  1  0  0  0
 12 13  2  0  0  0
 14 15  1  0  0  0
  1  7  1  0  0  0
M  CHG 1   1   1
M  CHG 1  24  -1
M  END
> <minimizedAffinity>
-7.17250

$$$$
2195


 29 32  0  0  0  0  0  0  0  0999 V2000
    3.5316  -21.3919  -41.1168 C   0  0  0  0  0  0  0  0  0  0  0  0
    2.7313  -20.5890  -40.4184 N   0  0  0  0  0  0  0  0  0  0  0  0
    3.0297  -20.2042  -39.1654 C   0  0  0  0  0  0  0  0  0  0  0  0
    2.4069  -19.4115  -38.2505 N   0  0  0  0  0  0  0  0  0  0  0  0
    3.1777  -19.3989  -37.1836 N   0  0  0  0  0  0  0  0  0  0  0  0
    4.2580  -20.1359  -37.3597 N   0  0  0  0  0  0  0  0  0  0  0  0
    4.2073  -20.6609  -38.5889 C   0  0  0  0  0  0  0  0  0  0  0  0
    5.0489  -21.4960  -39.3036 C   0  0  0  0  0  0  0  0  0  0  0  0
    4.6602  -21.8210  -40.5439 N   0  0  0  0  0  0  0  0  0  0  0  0
    6.2303  -21.9630  -38.7449 O   0  0  0  0  0  0  0  0  0  0  0  0
    6.9477  -21.3130  -38.4617 H   0  0  0  0  0  0  0  0  0  0  0  0
    4.2815  -23.8947  -43.4278 N   0  0  0  0  0  0  0  0  0  0  0  0
    4.3345  -22.5236  -43.1880 C   0  0  0  0  0  0  0  0  0  0  0  0
    3.2375  -21.8323  -42.5080 C   0  0  0  0  0  0  0  0  0  0  0  0
    1.9895  -22.6765  -42.4887 C   0  0  0  0  0  0  0  0  0  0  0  0
    2.3297  -24.0134  -41.9343 C   0  0  0  0  0  0  0  0  0  0  0  0
    3.3203  -24.6984  -42.8309 C   0  0  0  0  0  0  0  0  0  0  0  0
    5.7706  -24.6028  -43.8192 S   0  0  0  0  0  0  0  0  0  0  0  0
    5.9726  -24.7790  -45.2834 O   0  0  0  0  0  0  0  0  0  0  0  0
    5.8585  -25.9365  -43.1056 O   0  0  0  0  0  0  0  0  0  0  0  0
    7.1370  -23.6289  -43.1702 C   0  0  0  0  0  0  0  0  0  0  0  0
    1.1613  -18.7321  -38.4254 C   0  0  0  0  0  0  0  0  0  0  0  0
    1.1512  -17.3567  -37.8711 C   0  0  0  0  0  0  0  0  0  0  0  0
    1.6173  -16.3316  -38.6550 C   0  0  0  0  0  0  0  0  0  0  0  0
    1.6432  -15.0111  -38.2122 C   0  0  0  0  0  0  0  0  0  0  0  0
    1.1906  -14.7008  -36.9478 C   0  0  0  0  0  0  0  0  0  0  0  0
    0.7207  -15.7243  -36.1554 C   0  0  0  0  0  0  0  0  0  0  0  0
    0.6996  -17.0415  -36.6089 C   0  0  0  0  0  0  0  0  0  0  0  0
    2.2072  -16.6568  -40.2715 Cl  0  0  0  0  0  0  0  0  0  0  0  0
 18 19  2  0  0  0
 18 20  2  0  0  0
 18 12  1  0  0  0
 18 21  1  0  0  0
 12 13  1  0  0  0
 12 17  1  0  0  0
 13 14  1  0  0  0
 14 15  1  0  0  0
 14  1  1  0  0  0
 15 16  1  0  0  0
 16 17  1  0  0  0
  1  2  2  0  0  0
  1  9  1  0  0  0
  2  3  1  0  0  0
  3  4  1  0  0  0
  3  7  2  0  0  0
  4  5  1  0  0  0
  4 22  1  0  0  0
  5  6  2  0  0  0
  6  7  1  0  0  0
  7  8  1  0  0  0
  8  9  2  0  0  0
  8 10  1  0  0  0
 22 23  1  0  0  0
 23 24  2  0  0  0
 23 28  1  0  0  0
 24 25  1  0  0  0
 24 29  1  0  0  0
 25 26  2  0  0  0
 26 27  1  0  0  0
 27 28  2  0  0  0
 10 11  1  0  0  0
M  END
> <minimizedAffinity>
-6.47503

$$$$
2197


 28 31  0  0  0  0  0  0  0  0999 V2000
    4.2874  -21.5610  -39.0243 N   0  0  0  0  0  0  0  0  0  0  0  0
    3.5156  -20.7467  -38.0632 C   0  0  0  0  0  0  0  0  0  0  0  0
    3.9336  -19.3351  -38.2484 C   0  0  0  0  0  0  0  0  0  0  0  0
    5.2469  -19.0487  -38.3090 O   0  0  0  0  0  0  0  0  0  0  0  0
    6.1421  -20.0201  -38.5411 C   0  0  0  0  0  0  0  0  0  0  0  0
    5.6350  -21.4189  -38.6119 C   0  0  0  0  0  0  0  0  0  0  0  0
    3.3144  -18.5477  -37.1420 C   0  0  0  0  0  0  0  0  0  0  0  0
    3.8227  -18.6703  -35.9957 O   0  0  0  0  0  0  0  0  0  0  0  0
    2.2122  -17.6852  -37.2881 N   0  0  0  0  0  0  0  0  0  0  0  0
    1.5244  -17.4442  -38.5425 C   0  0  0  0  0  0  0  0  0  0  0  0
    0.3341  -16.5565  -38.2381 C   0  0  0  0  0  0  0  0  0  0  0  0
    0.7206  -15.2735  -37.6815 N   0  0  0  0  0  0  0  0  0  0  0  0
    1.6416  -15.4783  -36.6092 C   0  0  0  0  0  0  0  0  0  0  0  0
    1.6601  -16.9406  -36.1463 C   0  0  0  0  0  0  0  0  0  0  0  0
    1.1953  -14.4480  -38.7446 C   0  0  0  0  0  0  0  0  0  0  0  0
    2.3779  -13.5961  -38.3730 C   0  0  0  0  0  0  0  0  0  0  0  0
    2.1191  -12.1004  -38.5478 C   0  0  0  0  0  0  0  0  0  0  0  0
    3.1419  -12.8312  -39.3605 C   0  0  0  0  0  0  0  0  0  0  0  0
    3.8671  -21.2050  -40.6152 S   0  0  0  0  0  0  0  0  0  0  0  0
    2.4136  -20.7128  -40.6048 O   0  0  0  0  0  0  0  0  0  0  0  0
    4.6400  -20.0472  -41.1983 O   0  0  0  0  0  0  0  0  0  0  0  0
    3.8843  -22.5812  -41.6711 C   0  0  0  0  0  0  0  0  0  0  0  0
    5.0242  -22.9716  -42.3390 C   0  0  0  0  0  0  0  0  0  0  0  0
    5.0327  -24.0308  -43.2264 C   0  0  0  0  0  0  0  0  0  0  0  0
    3.8740  -24.7288  -43.4579 C   0  0  0  0  0  0  0  0  0  0  0  0
    2.7168  -24.3517  -42.7925 C   0  0  0  0  0  0  0  0  0  0  0  0
    2.7142  -23.3021  -41.9175 C   0  0  0  0  0  0  0  0  0  0  0  0
    6.5763  -22.1735  -42.0213 Cl  0  0  0  0  0  0  0  0  0  0  0  0
 19 20  2  0  0  0
 19 21  2  0  0  0
 19  1  1  0  0  0
 19 22  1  0  0  0
  1  2  1  0  0  0
  1  6  1  0  0  0
  2  3  1  0  0  0
  3  4  1  0  0  0
  3  7  1  0  0  0
  4  5  1  0  0  0
  5  6  1  0  0  0
  7  8  2  0  0  0
  7  9  1  0  0  0
  9 10  1  0  0  0
  9 14  1  0  0  0
 10 11  1  0  0  0
 11 12  1  0  0  0
 12 13  1  0  0  0
 12 15  1  0  0  0
 13 14  1  0  0  0
 15 16  1  0  0  0
 16 17  1  0  0  0
 16 18  1  0  0  0
 17 18  1  0  0  0
 22 23  2  0  0  0
 22 27  1  0  0  0
 23 24  1  0  0  0
 23 28  1  0  0  0
 24 25  2  0  0  0
 25 26  1  0  0  0
 26 27  2  0  0  0
M  END
> <minimizedAffinity>
-6.49627

$$$$
2210


 33 36  0  0  0  0  0  0  0  0999 V2000
    1.8711  -16.9607  -35.9421 C   0  0  0  0  0  0  0  0  0  0  0  0
    2.4476  -17.6409  -36.9414 C   0  0  0  0  0  0  0  0  0  0  0  0
    2.2027  -17.4011  -38.2886 O   0  0  0  0  0  0  0  0  0  0  0  0
    2.9943  -18.2710  -39.0511 C   0  0  0  0  0  0  0  0  0  0  0  0
    3.7583  -19.0903  -38.2781 C   0  0  0  0  0  0  0  0  0  0  0  0
    4.6265  -20.0063  -38.8247 C   0  0  0  0  0  0  0  0  0  0  0  0
    4.7403  -20.1118  -40.2068 C   0  0  0  0  0  0  0  0  0  0  0  0
    3.9523  -19.2701  -40.9938 C   0  0  0  0  0  0  0  0  0  0  0  0
    3.0946  -18.3698  -40.4494 C   0  0  0  0  0  0  0  0  0  0  0  0
    4.1238  -19.4386  -42.3675 O   0  0  0  0  0  0  0  0  0  0  0  0
    3.4222  -18.7094  -36.8746 C   0  0  0  0  0  0  0  0  0  0  0  0
    3.8839  -19.2141  -35.8427 O   0  0  0  0  0  0  0  0  0  0  0  0
    1.1489  -11.8794  -37.2769 Br  0  0  0  0  0  0  0  0  0  0  0  0
    0.5066  -13.6377  -36.9231 C   0  0  0  0  0  0  0  0  0  0  0  0
    1.4175  -14.6616  -36.6117 C   0  0  0  0  0  0  0  0  0  0  0  0
    0.9410  -15.8997  -36.3658 C   0  0  0  0  0  0  0  0  0  0  0  0
   -0.4064  -16.1806  -36.4079 C   0  0  0  0  0  0  0  0  0  0  0  0
   -1.2977  -15.1429  -36.7171 C   0  0  0  0  0  0  0  0  0  0  0  0
   -0.8459  -13.8650  -36.9798 C   0  0  0  0  0  0  0  0  0  0  0  0
   -0.8585  -17.4649  -36.1423 O   0  0  0  0  0  0  0  0  0  0  0  0
   -2.1780  -17.8605  -35.9986 C   0  0  0  0  0  0  0  0  0  0  0  0
    2.0981  -17.5876  -41.2117 C   0  0  0  0  0  0  0  0  0  0  0  0
    0.7840  -17.9486  -40.9544 N   0  0  0  0  0  0  0  0  0  0  0  0
    0.3091  -19.0378  -41.8648 C   0  0  0  0  0  0  0  0  0  0  0  0
   -0.3417  -20.0678  -40.9080 C   0  0  0  0  0  0  0  0  0  0  0  0
   -0.5710  -19.4535  -39.6387 N   0  0  0  0  0  0  0  0  0  0  0  0
   -1.1881  -18.1860  -39.6764 C   0  0  0  0  0  0  0  0  0  0  0  0
   -0.3198  -17.2004  -40.5739 C   0  0  0  0  0  0  0  0  0  0  0  0
    0.9887  -18.6166  -40.0448 H   0  0  0  0  0  0  0  0  0  0  0  0
   -0.1745  -20.1066  -38.4931 C   0  0  0  0  0  0  0  0  0  0  0  0
   -1.1766  -20.8100  -37.6344 C   0  0  0  0  0  0  0  0  0  0  0  0
   -1.6552  -21.9696  -38.2654 O   0  0  0  0  0  0  0  0  0  0  0  0
   -1.7082  -22.7133  -37.5796 H   0  0  0  0  0  0  0  0  0  0  0  0
 13 14  1  0  0  0
 14 15  2  0  0  0
 14 19  1  0  0  0
 15 16  1  0  0  0
 16 17  2  0  0  0
 16  1  1  0  0  0
 17 18  1  0  0  0
 17 20  1  0  0  0
 18 19  2  0  0  0
 20 21  1  0  0  0
  1  2  2  0  0  0
  2  3  1  0  0  0
  2 11  1  0  0  0
  3  4  1  0  0  0
  4  5  2  0  0  0
  4  9  1  0  0  0
  5  6  1  0  0  0
  5 11  1  0  0  0
  6  7  2  0  0  0
  7  8  1  0  0  0
  8  9  2  0  0  0
  8 10  1  0  0  0
  9 22  1  0  0  0
 22 23  1  0  0  0
 23 24  1  0  0  0
 23 28  1  0  0  0
 24 25  1  0  0  0
 25 26  1  0  0  0
 26 27  1  0  0  0
 26 30  1  0  0  0
 27 28  1  0  0  0
 30 31  1  0  0  0
 31 32  1  0  0  0
 11 12  2  0  0  0
 23 29  1  0  0  0
 32 33  1  0  0  0
M  CHG 1  10  -1
M  CHG 1  23   1
M  END
> <minimizedAffinity>
-6.01470

$$$$
2213


 31 34  0  0  0  0  0  0  0  0999 V2000
    3.8803  -22.2228  -40.8226 Cl  0  0  0  0  0  0  0  0  0  0  0  0
    3.8904  -20.9233  -39.6506 C   0  0  0  0  0  0  0  0  0  0  0  0
    2.6701  -20.3075  -39.3354 C   0  0  0  0  0  0  0  0  0  0  0  0
    2.6454  -19.2863  -38.4220 C   0  0  0  0  0  0  0  0  0  0  0  0
    3.8654  -18.9136  -37.8468 C   0  0  0  0  0  0  0  0  0  0  0  0
    5.0575  -19.5254  -38.1645 C   0  0  0  0  0  0  0  0  0  0  0  0
    5.0873  -20.5562  -39.0858 C   0  0  0  0  0  0  0  0  0  0  0  0
    6.5787  -19.0382  -37.4275 Cl  0  0  0  0  0  0  0  0  0  0  0  0
    1.4132  -18.5845  -38.0318 C   0  0  0  0  0  0  0  0  0  0  0  0
    0.2457  -19.1268  -38.7470 C   0  0  0  0  0  0  0  0  0  0  0  0
    0.2920  -20.1413  -39.6507 C   0  0  0  0  0  0  0  0  0  0  0  0
   -0.8222  -20.6070  -40.2869 N   0  0  0  0  0  0  0  0  0  0  0  0
   -1.9845  -20.0289  -39.9944 C   0  0  0  0  0  0  0  0  0  0  0  0
   -3.0498  -20.4285  -40.5621 O   0  0  0  0  0  0  0  0  0  0  0  0
   -2.0764  -19.0199  -39.1046 N   0  0  0  0  0  0  0  0  0  0  0  0
   -0.9914  -18.5564  -38.4746 C   0  0  0  0  0  0  0  0  0  0  0  0
   -1.0761  -17.6155  -37.6445 O   0  0  0  0  0  0  0  0  0  0  0  0
   -3.3785  -18.4304  -38.8259 C   0  0  0  0  0  0  0  0  0  0  0  0
   -0.7375  -21.6886  -41.2446 C   0  0  0  0  0  0  0  0  0  0  0  0
    1.4971  -20.7224  -39.9377 O   0  0  0  0  0  0  0  0  0  0  0  0
    1.5413  -17.1026  -38.2315 C   0  0  0  0  0  0  0  0  0  0  0  0
    1.6813  -16.5465  -39.4797 C   0  0  0  0  0  0  0  0  0  0  0  0
    1.8085  -15.2268  -39.6891 N   0  0  0  0  0  0  0  0  0  0  0  0
    1.7988  -14.4108  -38.6175 C   0  0  0  0  0  0  0  0  0  0  0  0
    1.9206  -13.1682  -38.8261 O   0  0  0  0  0  0  0  0  0  0  0  0
    1.6646  -14.9122  -37.3771 N   0  0  0  0  0  0  0  0  0  0  0  0
    1.5350  -16.2263  -37.1474 C   0  0  0  0  0  0  0  0  0  0  0  0
    1.4077  -16.7229  -36.0027 O   0  0  0  0  0  0  0  0  0  0  0  0
    1.6616  -13.9956  -36.2603 C   0  0  0  0  0  0  0  0  0  0  0  0
    1.9506  -14.6695  -41.0207 C   0  0  0  0  0  0  0  0  0  0  0  0
    1.6916  -17.3838  -40.5765 O   0  0  0  0  0  0  0  0  0  0  0  0
  1  2  1  0  0  0
  2  3  2  0  0  0
  2  7  1  0  0  0
  3  4  1  0  0  0
  3 20  1  0  0  0
  4  5  2  0  0  0
  4  9  1  0  0  0
  5  6  1  0  0  0
  6  7  2  0  0  0
  6  8  1  0  0  0
  9 10  1  0  0  0
  9 21  1  0  0  0
 10 11  2  0  0  0
 10 16  1  0  0  0
 11 12  1  0  0  0
 11 20  1  0  0  0
 12 13  1  0  0  0
 12 19  1  0  0  0
 13 14  2  0  0  0
 13 15  1  0  0  0
 15 16  1  0  0  0
 15 18  1  0  0  0
 16 17  2  0  0  0
 21 22  2  0  0  0
 21 27  1  0  0  0
 22 23  1  0  0  0
 22 31  1  0  0  0
 23 24  1  0  0  0
 23 30  1  0  0  0
 24 25  2  0  0  0
 24 26  1  0  0  0
 26 27  1  0  0  0
 26 29  1  0  0  0
 27 28  2  0  0  0
M  CHG 1  31  -1
M  END
> <minimizedAffinity>
-6.83447

$$$$
2214


 34 38  0  0  0  0  0  0  0  0999 V2000
   -3.1112  -12.3379  -37.5206 Cl  0  0  0  0  0  0  0  0  0  0  0  0
   -1.6833  -13.2363  -37.0529 C   0  0  0  0  0  0  0  0  0  0  0  0
   -1.5253  -14.5632  -37.3476 C   0  0  0  0  0  0  0  0  0  0  0  0
   -0.3689  -15.2421  -36.9547 C   0  0  0  0  0  0  0  0  0  0  0  0
    0.5841  -14.5428  -36.2759 C   0  0  0  0  0  0  0  0  0  0  0  0
    0.4246  -13.1807  -35.9720 C   0  0  0  0  0  0  0  0  0  0  0  0
   -0.7061  -12.5172  -36.3557 C   0  0  0  0  0  0  0  0  0  0  0  0
    1.6650  -15.4197  -35.9744 N   0  0  0  0  0  0  0  0  0  0  0  0
    1.3836  -16.7033  -36.4776 C   0  0  0  0  0  0  0  0  0  0  0  0
    2.1636  -17.7007  -36.3594 O   0  0  0  0  0  0  0  0  0  0  0  0
    0.0711  -16.6367  -37.1282 C   0  0  0  0  0  0  0  0  0  0  0  0
   -0.9143  -17.4680  -36.4732 N   0  0  0  0  0  0  0  0  0  0  0  0
   -1.3409  -18.5081  -37.3546 C   0  0  0  0  0  0  0  0  0  0  0  0
   -0.4254  -18.4476  -38.5123 C   0  0  0  0  0  0  0  0  0  0  0  0
    0.1188  -17.0476  -38.5806 C   0  0  0  0  0  0  0  0  0  0  0  0
    1.4986  -17.2612  -39.0694 C   0  0  0  0  0  0  0  0  0  0  0  0
    2.2736  -16.4315  -39.6076 O   0  0  0  0  0  0  0  0  0  0  0  0
    1.8894  -18.6323  -38.8433 N   0  0  0  0  0  0  0  0  0  0  0  0
    0.7958  -19.2658  -38.1901 C   0  0  0  0  0  0  0  0  0  0  0  0
    0.8787  -20.3040  -37.4928 O   0  0  0  0  0  0  0  0  0  0  0  0
    2.5572  -15.1663  -35.4522 H   0  0  0  0  0  0  0  0  0  0  0  0
   -1.7618  -16.9373  -36.1729 H   0  0  0  0  0  0  0  0  0  0  0  0
    3.1570  -19.2246  -39.2151 C   0  0  0  0  0  0  0  0  0  0  0  0
    3.9777  -19.6590  -38.0314 C   0  0  0  0  0  0  0  0  0  0  0  0
    3.9839  -21.0492  -37.9534 O   0  0  0  0  0  0  0  0  0  0  0  0
    5.0806  -21.4919  -38.6573 C   0  0  0  0  0  0  0  0  0  0  0  0
    6.1353  -20.4080  -38.6140 C   0  0  0  0  0  0  0  0  0  0  0  0
    5.3950  -19.2065  -38.0600 C   0  0  0  0  0  0  0  0  0  0  0  0
   -2.8014  -18.4134  -37.7070 C   0  0  0  0  0  0  0  0  0  0  0  0
   -3.6449  -17.8435  -36.6731 C   0  0  0  0  0  0  0  0  0  0  0  0
   -3.8238  -18.4566  -35.5995 O   0  0  0  0  0  0  0  0  0  0  0  0
   -4.2774  -16.5941  -36.8563 N   0  0  0  0  0  0  0  0  0  0  0  0
   -4.1588  -15.8482  -36.1315 H   0  0  0  0  0  0  0  0  0  0  0  0
   -4.8667  -16.3515  -37.6746 H   0  0  0  0  0  0  0  0  0  0  0  0
  1  2  1  0  0  0
  2  3  2  0  0  0
  2  7  1  0  0  0
  3  4  1  0  0  0
  4  5  2  0  0  0
  4 11  1  0  0  0
  5  6  1  0  0  0
  5  8  1  0  0  0
  6  7  2  0  0  0
  8  9  1  0  0  0
  9 10  2  0  0  0
  9 11  1  0  0  0
 11 12  1  0  0  0
 11 15  1  0  0  0
 12 13  1  0  0  0
 13 14  1  0  0  0
 13 29  1  0  0  0
 14 15  1  0  0  0
 14 19  1  0  0  0
 15 16  1  0  0  0
 16 17  2  0  0  0
 16 18  1  0  0  0
 18 19  1  0  0  0
 18 23  1  0  0  0
 19 20  2  0  0  0
 23 24  1  0  0  0
 24 25  1  0  0  0
 24 28  1  0  0  0
 25 26  1  0  0  0
 26 27  1  0  0  0
 27 28  1  0  0  0
 29 30  1  0  0  0
 30 31  2  0  0  0
 30 32  1  0  0  0
  8 21  1  0  0  0
 12 22  1  0  0  0
 32 33  1  0  0  0
 32 34  1  0  0  0
M  END
> <minimizedAffinity>
-6.57774

$$$$
2225


 29 32  0  0  0  0  0  0  0  0999 V2000
   -0.1587  -16.2844  -36.3461 C   0  0  0  0  0  0  0  0  0  0  0  0
   -0.3403  -16.9553  -35.2425 O   0  0  0  0  0  0  0  0  0  0  0  0
   -0.2812  -17.0096  -37.5205 N   0  0  0  0  0  0  0  0  0  0  0  0
   -0.5883  -18.4683  -37.4044 C   0  0  0  0  0  0  0  0  0  0  0  0
    0.2656  -19.1524  -38.4420 C   0  0  0  0  0  0  0  0  0  0  0  0
    1.4021  -18.3531  -38.8627 N   0  0  0  0  0  0  0  0  0  0  0  0
    1.1214  -17.0927  -39.4963 C   0  0  0  0  0  0  0  0  0  0  0  0
   -0.1673  -16.5670  -38.8852 C   0  0  0  0  0  0  0  0  0  0  0  0
    2.7159  -18.8177  -38.6421 C   0  0  0  0  0  0  0  0  0  0  0  0
    3.4559  -19.3510  -39.6536 N   0  0  0  0  0  0  0  0  0  0  0  0
    4.6944  -19.7975  -39.4967 C   0  0  0  0  0  0  0  0  0  0  0  0
    5.2359  -19.7106  -38.2542 N   0  0  0  0  0  0  0  0  0  0  0  0
    4.5816  -19.2065  -37.2239 C   0  0  0  0  0  0  0  0  0  0  0  0
    3.2821  -18.7400  -37.3953 C   0  0  0  0  0  0  0  0  0  0  0  0
    5.4766  -20.3550  -40.5379 N   0  0  0  0  0  0  0  0  0  0  0  0
    6.0329  -19.4897  -41.5723 C   0  0  0  0  0  0  0  0  0  0  0  0
    5.5852  -20.1126  -42.8981 C   0  0  0  0  0  0  0  0  0  0  0  0
    6.0774  -21.3856  -43.0092 O   0  0  0  0  0  0  0  0  0  0  0  0
    5.6165  -22.2699  -42.0635 C   0  0  0  0  0  0  0  0  0  0  0  0
    5.7658  -21.7636  -40.6464 C   0  0  0  0  0  0  0  0  0  0  0  0
    0.1463  -14.8563  -36.1323 C   0  0  0  0  0  0  0  0  0  0  0  0
    1.0093  -14.1879  -36.8093 O   0  0  0  0  0  0  0  0  0  0  0  0
    4.9907  -10.9143  -39.6360 Cl  0  0  0  0  0  0  0  0  0  0  0  0
    3.8053  -11.8953  -38.8115 C   0  0  0  0  0  0  0  0  0  0  0  0
    3.1149  -12.8937  -39.4590 C   0  0  0  0  0  0  0  0  0  0  0  0
    2.1888  -13.6671  -38.8276 C   0  0  0  0  0  0  0  0  0  0  0  0
    1.8789  -13.4869  -37.4620 C   0  0  0  0  0  0  0  0  0  0  0  0
    2.5967  -12.4585  -36.8156 C   0  0  0  0  0  0  0  0  0  0  0  0
    3.5179  -11.7042  -37.4792 C   0  0  0  0  0  0  0  0  0  0  0  0
 23 24  1  0  0  0
 24 25  2  0  0  0
 24 29  1  0  0  0
 25 26  1  0  0  0
 26 27  2  0  0  0
 27 28  1  0  0  0
 27 22  1  0  0  0
 28 29  2  0  0  0
 22 21  1  0  0  0
 21  1  1  0  0  0
  1  2  2  0  0  0
  1  3  1  0  0  0
  3  4  1  0  0  0
  3  8  1  0  0  0
  4  5  1  0  0  0
  5  6  1  0  0  0
  6  7  1  0  0  0
  6  9  1  0  0  0
  7  8  1  0  0  0
  9 10  2  0  0  0
  9 14  1  0  0  0
 10 11  1  0  0  0
 11 12  2  0  0  0
 11 15  1  0  0  0
 12 13  1  0  0  0
 13 14  2  0  0  0
 15 16  1  0  0  0
 15 20  1  0  0  0
 16 17  1  0  0  0
 17 18  1  0  0  0
 18 19  1  0  0  0
 19 20  1  0  0  0
M  END
> <minimizedAffinity>
-6.58655

$$$$
2231


 27 31  0  0  0  0  0  0  0  0999 V2000
    1.1013  -16.9092  -37.0649 N   0  0  0  0  0  0  0  0  0  0  0  0
    0.1137  -16.8917  -36.1873 N   0  0  0  0  0  0  0  0  0  0  0  0
   -0.4266  -15.6931  -36.0833 N   0  0  0  0  0  0  0  0  0  0  0  0
    0.2065  -14.8501  -36.9169 C   0  0  0  0  0  0  0  0  0  0  0  0
    1.1655  -15.6344  -37.5259 C   0  0  0  0  0  0  0  0  0  0  0  0
    1.9743  -15.0454  -38.4353 N   0  0  0  0  0  0  0  0  0  0  0  0
    1.8174  -13.7370  -38.7094 C   0  0  0  0  0  0  0  0  0  0  0  0
    0.8739  -12.9717  -38.1072 N   0  0  0  0  0  0  0  0  0  0  0  0
    0.0428  -13.5079  -37.1946 C   0  0  0  0  0  0  0  0  0  0  0  0
   -0.9570  -12.7176  -36.5513 N   0  0  0  0  0  0  0  0  0  0  0  0
   -0.5908  -12.1190  -35.2817 C   0  0  0  0  0  0  0  0  0  0  0  0
   -1.4397  -10.8820  -34.9980 C   0  0  0  0  0  0  0  0  0  0  0  0
   -2.7691  -11.0466  -35.4649 N   0  0  0  0  0  0  0  0  0  0  0  0
   -2.8488  -11.2184  -36.9483 C   0  0  0  0  0  0  0  0  0  0  0  0
   -2.2238  -12.5781  -37.1985 C   0  0  0  0  0  0  0  0  0  0  0  0
   -3.9199  -11.0665  -34.6958 C   0  0  0  0  0  0  0  0  0  0  0  0
   -5.0319  -11.2342  -35.3914 O   0  0  0  0  0  0  0  0  0  0  0  0
   -4.1584  -10.9415  -33.2659 C   0  0  0  0  0  0  0  0  0  0  0  0
   -5.0440  -11.9264  -32.6025 C   0  0  0  0  0  0  0  0  0  0  0  0
   -3.5988  -11.7589  -32.1947 C   0  0  0  0  0  0  0  0  0  0  0  0
    4.6244  -21.4835  -38.4782 Cl  0  0  0  0  0  0  0  0  0  0  0  0
    3.5893  -20.1498  -38.0709 C   0  0  0  0  0  0  0  0  0  0  0  0
    2.3905  -19.9927  -38.7196 C   0  0  0  0  0  0  0  0  0  0  0  0
    1.5669  -18.9362  -38.4008 C   0  0  0  0  0  0  0  0  0  0  0  0
    1.9083  -18.0163  -37.4369 C   0  0  0  0  0  0  0  0  0  0  0  0
    3.1171  -18.1996  -36.8033 C   0  0  0  0  0  0  0  0  0  0  0  0
    3.9575  -19.2535  -37.1100 C   0  0  0  0  0  0  0  0  0  0  0  0
 21 22  1  0  0  0
 22 23  2  0  0  0
 22 27  1  0  0  0
 23 24  1  0  0  0
 24 25  2  0  0  0
 25 26  1  0  0  0
 25  1  1  0  0  0
 26 27  2  0  0  0
  1  2  1  0  0  0
  1  5  1  0  0  0
  2  3  2  0  0  0
  3  4  1  0  0  0
  4  5  2  0  0  0
  4  9  1  0  0  0
  5  6  1  0  0  0
  6  7  2  0  0  0
  7  8  1  0  0  0
  8  9  2  0  0  0
  9 10  1  0  0  0
 10 11  1  0  0  0
 10 15  1  0  0  0
 11 12  1  0  0  0
 12 13  1  0  0  0
 13 14  1  0  0  0
 13 16  1  0  0  0
 14 15  1  0  0  0
 16 17  2  0  0  0
 16 18  1  0  0  0
 18 19  1  0  0  0
 18 20  1  0  0  0
 19 20  1  0  0  0
M  END
> <minimizedAffinity>
-6.50134

$$$$
2242


 32 35  0  0  0  0  0  0  0  0999 V2000
    4.4161  -22.2065  -40.4486 N   0  0  0  0  0  0  0  0  0  0  0  0
    5.0163  -22.0136  -41.6952 C   0  0  0  0  0  0  0  0  0  0  0  0
    5.2687  -20.8920  -42.1582 O   0  0  0  0  0  0  0  0  0  0  0  0
    4.2354  -23.2121  -40.1348 H   0  0  0  0  0  0  0  0  0  0  0  0
    6.5167  -21.5456  -38.5168 Cl  0  0  0  0  0  0  0  0  0  0  0  0
    4.9500  -20.7704  -38.6068 C   0  0  0  0  0  0  0  0  0  0  0  0
    4.6647  -19.7735  -37.7171 C   0  0  0  0  0  0  0  0  0  0  0  0
    3.4629  -19.1229  -37.7264 C   0  0  0  0  0  0  0  0  0  0  0  0
    2.5343  -19.4971  -38.6609 C   0  0  0  0  0  0  0  0  0  0  0  0
    2.8330  -20.5234  -39.5736 C   0  0  0  0  0  0  0  0  0  0  0  0
    4.0302  -21.1826  -39.5748 C   0  0  0  0  0  0  0  0  0  0  0  0
    1.2853  -18.8869  -38.7387 O   0  0  0  0  0  0  0  0  0  0  0  0
    1.0148  -17.6160  -38.1289 C   0  0  0  0  0  0  0  0  0  0  0  0
    1.8645  -17.4467  -36.9132 C   0  0  0  0  0  0  0  0  0  0  0  0
    1.4276  -16.7416  -35.9745 O   0  0  0  0  0  0  0  0  0  0  0  0
    3.1420  -18.0677  -36.8123 N   0  0  0  0  0  0  0  0  0  0  0  0
    3.8261  -17.7637  -36.0921 H   0  0  0  0  0  0  0  0  0  0  0  0
    5.3898  -23.1799  -42.5425 C   0  0  0  0  0  0  0  0  0  0  0  0
    6.6469  -23.4576  -42.6984 N   0  0  0  0  0  0  0  0  0  0  0  0
    7.0817  -24.5302  -43.4744 N   0  0  0  0  0  0  0  0  0  0  0  0
    6.1233  -25.3441  -44.1122 C   0  0  0  0  0  0  0  0  0  0  0  0
    6.5647  -26.3661  -44.7394 O   0  0  0  0  0  0  0  0  0  0  0  0
    4.6759  -25.0524  -44.0731 C   0  0  0  0  0  0  0  0  0  0  0  0
    4.4084  -23.9844  -43.1747 N   0  0  0  0  0  0  0  0  0  0  0  0
    3.4050  -23.7562  -42.9503 H   0  0  0  0  0  0  0  0  0  0  0  0
    8.4949  -24.8068  -43.6300 C   0  0  0  0  0  0  0  0  0  0  0  0
    9.1442  -25.7086  -42.8226 C   0  0  0  0  0  0  0  0  0  0  0  0
   10.5089  -25.9616  -42.9956 C   0  0  0  0  0  0  0  0  0  0  0  0
   11.2306  -25.3116  -43.9761 C   0  0  0  0  0  0  0  0  0  0  0  0
   10.5662  -24.4105  -44.7758 C   0  0  0  0  0  0  0  0  0  0  0  0
    9.2356  -24.1694  -44.6020 C   0  0  0  0  0  0  0  0  0  0  0  0
   12.6874  -25.5485  -44.2043 C   0  0  0  0  0  0  0  0  0  0  0  0
  5  6  1  0  0  0
  6  7  2  0  0  0
  6 11  1  0  0  0
  7  8  1  0  0  0
  8  9  2  0  0  0
  8 16  1  0  0  0
  9 10  1  0  0  0
  9 12  1  0  0  0
 10 11  2  0  0  0
 11  1  1  0  0  0
  1  2  1  0  0  0
  2  3  2  0  0  0
  2 18  1  0  0  0
 18 19  2  0  0  0
 18 24  1  0  0  0
 19 20  1  0  0  0
 20 21  1  0  0  0
 20 26  1  0  0  0
 21 22  2  0  0  0
 21 23  1  0  0  0
 23 24  1  0  0  0
 26 27  2  0  0  0
 26 31  1  0  0  0
 27 28  1  0  0  0
 28 29  2  0  0  0
 29 30  1  0  0  0
 29 32  1  0  0  0
 30 31  2  0  0  0
 12 13  1  0  0  0
 13 14  1  0  0  0
 14 15  2  0  0  0
 14 16  1  0  0  0
  1  4  1  0  0  0
 24 25  1  0  0  0
 16 17  1  0  0  0
M  END
> <minimizedAffinity>
-6.73951

$$$$
2266


 27 30  0  0  0  0  0  0  0  0999 V2000
    1.4646  -18.1309  -38.3144 N   0  0  0  0  0  0  0  0  0  0  0  0
    2.7266  -18.1248  -37.6907 C   0  0  0  0  0  0  0  0  0  0  0  0
    3.2748  -19.5079  -37.3993 C   0  0  0  0  0  0  0  0  0  0  0  0
    3.2111  -20.2561  -38.6904 C   0  0  0  0  0  0  0  0  0  0  0  0
    2.0297  -20.1678  -39.3973 C   0  0  0  0  0  0  0  0  0  0  0  0
    1.9089  -20.8129  -40.5577 N   0  0  0  0  0  0  0  0  0  0  0  0
    2.9579  -21.5348  -41.0012 C   0  0  0  0  0  0  0  0  0  0  0  0
    4.1197  -21.6365  -40.3322 N   0  0  0  0  0  0  0  0  0  0  0  0
    4.9786  -22.4186  -41.0125 N   0  0  0  0  0  0  0  0  0  0  0  0
    4.4068  -22.8515  -42.1455 C   0  0  0  0  0  0  0  0  0  0  0  0
    3.1437  -22.3086  -42.1550 C   0  0  0  0  0  0  0  0  0  0  0  0
    4.2770  -20.9960  -39.1525 C   0  0  0  0  0  0  0  0  0  0  0  0
    5.3387  -21.0534  -38.4809 O   0  0  0  0  0  0  0  0  0  0  0  0
    0.9508  -19.3432  -38.8025 C   0  0  0  0  0  0  0  0  0  0  0  0
    5.9454  -22.6384  -40.6807 H   0  0  0  0  0  0  0  0  0  0  0  0
    0.8838  -16.6838  -38.9329 S   0  0  0  0  0  0  0  0  0  0  0  0
    1.3770  -16.4326  -40.3507 O   0  0  0  0  0  0  0  0  0  0  0  0
   -0.6293  -16.8110  -39.0793 O   0  0  0  0  0  0  0  0  0  0  0  0
    1.2185  -15.2630  -38.0202 C   0  0  0  0  0  0  0  0  0  0  0  0
    0.6127  -15.0501  -36.7841 C   0  0  0  0  0  0  0  0  0  0  0  0
    0.9007  -13.9008  -36.0812 C   0  0  0  0  0  0  0  0  0  0  0  0
    1.7595  -12.9608  -36.5497 C   0  0  0  0  0  0  0  0  0  0  0  0
    2.3702  -13.1404  -37.7590 C   0  0  0  0  0  0  0  0  0  0  0  0
    2.0825  -14.2903  -38.4639 C   0  0  0  0  0  0  0  0  0  0  0  0
    3.4934  -11.9326  -38.3932 Cl  0  0  0  0  0  0  0  0  0  0  0  0
   -0.2691  -15.9521  -36.2371 O   0  0  0  0  0  0  0  0  0  0  0  0
    0.1800  -16.8212  -35.2223 C   0  0  0  0  0  0  0  0  0  0  0  0
 16 17  2  0  0  0
 16 18  2  0  0  0
 16  1  1  0  0  0
 16 19  1  0  0  0
  1  2  1  0  0  0
  1 14  1  0  0  0
  2  3  1  0  0  0
  3  4  1  0  0  0
  4  5  2  0  0  0
  4 12  1  0  0  0
  5  6  1  0  0  0
  5 14  1  0  0  0
  6  7  2  0  0  0
  7  8  1  0  0  0
  7 11  1  0  0  0
  8  9  1  0  0  0
  8 12  1  0  0  0
  9 10  1  0  0  0
 10 11  2  0  0  0
 12 13  2  0  0  0
 19 20  2  0  0  0
 19 24  1  0  0  0
 20 21  1  0  0  0
 20 26  1  0  0  0
 21 22  2  0  0  0
 22 23  1  0  0  0
 23 24  2  0  0  0
 23 25  1  0  0  0
 26 27  1  0  0  0
  9 15  1  0  0  0
M  END
> <minimizedAffinity>
-6.64426

$$$$
2267


 27 30  0  0  0  0  0  0  0  0999 V2000
    1.5838  -18.1337  -37.5203 N   0  0  0  0  0  0  0  0  0  0  0  0
    2.6890  -17.7903  -36.7440 C   0  0  0  0  0  0  0  0  0  0  0  0
    3.7849  -18.8302  -36.7522 C   0  0  0  0  0  0  0  0  0  0  0  0
    3.8191  -19.6448  -37.9892 C   0  0  0  0  0  0  0  0  0  0  0  0
    2.6098  -19.9653  -38.5570 C   0  0  0  0  0  0  0  0  0  0  0  0
    2.5428  -20.6988  -39.6742 N   0  0  0  0  0  0  0  0  0  0  0  0
    3.7040  -21.1372  -40.2617 C   0  0  0  0  0  0  0  0  0  0  0  0
    4.8818  -20.8126  -39.6898 N   0  0  0  0  0  0  0  0  0  0  0  0
    5.8439  -21.3520  -40.4432 N   0  0  0  0  0  0  0  0  0  0  0  0
    5.3131  -22.0048  -41.4696 C   0  0  0  0  0  0  0  0  0  0  0  0
    3.9261  -21.8924  -41.3931 C   0  0  0  0  0  0  0  0  0  0  0  0
    5.0070  -20.0827  -38.5740 C   0  0  0  0  0  0  0  0  0  0  0  0
    6.1034  -19.7813  -38.0435 O   0  0  0  0  0  0  0  0  0  0  0  0
    1.3805  -19.4794  -37.9088 C   0  0  0  0  0  0  0  0  0  0  0  0
    6.8713  -21.2788  -40.2632 H   0  0  0  0  0  0  0  0  0  0  0  0
    0.7730  -16.9443  -38.3633 S   0  0  0  0  0  0  0  0  0  0  0  0
    0.8670  -17.2249  -39.8458 O   0  0  0  0  0  0  0  0  0  0  0  0
   -0.6868  -16.9274  -38.0191 O   0  0  0  0  0  0  0  0  0  0  0  0
    1.3971  -15.3279  -38.1197 C   0  0  0  0  0  0  0  0  0  0  0  0
    2.0882  -14.6342  -39.0981 C   0  0  0  0  0  0  0  0  0  0  0  0
    2.5608  -13.3547  -38.8493 C   0  0  0  0  0  0  0  0  0  0  0  0
    2.3698  -12.7220  -37.6426 C   0  0  0  0  0  0  0  0  0  0  0  0
    1.6816  -13.4117  -36.6678 C   0  0  0  0  0  0  0  0  0  0  0  0
    1.2122  -14.6827  -36.9149 C   0  0  0  0  0  0  0  0  0  0  0  0
    3.4341  -12.4911  -40.0994 Cl  0  0  0  0  0  0  0  0  0  0  0  0
    2.8566  -11.4251  -37.4126 O   0  0  0  0  0  0  0  0  0  0  0  0
    4.1785  -11.2468  -36.9400 C   0  0  0  0  0  0  0  0  0  0  0  0
 16 17  2  0  0  0
 16 18  2  0  0  0
 16  1  1  0  0  0
 16 19  1  0  0  0
  1  2  1  0  0  0
  1 14  1  0  0  0
  2  3  1  0  0  0
  3  4  1  0  0  0
  4  5  2  0  0  0
  4 12  1  0  0  0
  5  6  1  0  0  0
  5 14  1  0  0  0
  6  7  2  0  0  0
  7  8  1  0  0  0
  7 11  1  0  0  0
  8  9  1  0  0  0
  8 12  1  0  0  0
  9 10  1  0  0  0
 10 11  2  0  0  0
 12 13  2  0  0  0
 19 20  2  0  0  0
 19 24  1  0  0  0
 20 21  1  0  0  0
 21 22  2  0  0  0
 21 25  1  0  0  0
 22 23  1  0  0  0
 22 26  1  0  0  0
 23 24  2  0  0  0
 26 27  1  0  0  0
  9 15  1  0  0  0
M  END
> <minimizedAffinity>
-7.04062

$$$$
2270


 22 24  0  0  0  0  0  0  0  0999 V2000
    1.6421  -17.8106  -37.8621 C   0  0  0  0  0  0  0  0  0  0  0  0
    0.7012  -18.3816  -38.4827 O   0  0  0  0  0  0  0  0  0  0  0  0
    2.7853  -18.5391  -37.4110 N   0  0  0  0  0  0  0  0  0  0  0  0
    3.5184  -18.0337  -36.9146 H   0  0  0  0  0  0  0  0  0  0  0  0
    1.3515  -11.8617  -37.1514 Cl  0  0  0  0  0  0  0  0  0  0  0  0
    1.4294  -13.6129  -37.3276 C   0  0  0  0  0  0  0  0  0  0  0  0
    1.6818  -14.1571  -38.5688 C   0  0  0  0  0  0  0  0  0  0  0  0
    1.7390  -15.5274  -38.6866 C   0  0  0  0  0  0  0  0  0  0  0  0
    1.5538  -16.3955  -37.6055 C   0  0  0  0  0  0  0  0  0  0  0  0
    1.3047  -15.8475  -36.3806 C   0  0  0  0  0  0  0  0  0  0  0  0
    1.2429  -14.4561  -36.2419 C   0  0  0  0  0  0  0  0  0  0  0  0
    1.8703  -13.3206  -39.6604 O   0  0  0  0  0  0  0  0  0  0  0  0
    3.1402  -13.1740  -40.2659 C   0  0  0  0  0  0  0  0  0  0  0  0
    2.8357  -19.9445  -37.6866 C   0  0  0  0  0  0  0  0  0  0  0  0
    4.1011  -20.4824  -38.2246 C   0  0  0  0  0  0  0  0  0  0  0  0
    5.1159  -19.5412  -38.5867 N   0  0  0  0  0  0  0  0  0  0  0  0
    6.3950  -20.1868  -38.2032 C   0  0  0  0  0  0  0  0  0  0  0  0
    6.2671  -21.6117  -38.7561 C   0  0  0  0  0  0  0  0  0  0  0  0
    5.3174  -21.6903  -39.8476 N   0  0  0  0  0  0  0  0  0  0  0  0
    3.9461  -21.4317  -39.4016 C   0  0  0  0  0  0  0  0  0  0  0  0
    5.6328  -20.6020  -40.7566 C   0  0  0  0  0  0  0  0  0  0  0  0
    5.2679  -19.3242  -40.0110 C   0  0  0  0  0  0  0  0  0  0  0  0
  5  6  1  0  0  0
  6  7  2  0  0  0
  6 11  1  0  0  0
  7  8  1  0  0  0
  7 12  1  0  0  0
  8  9  2  0  0  0
  9 10  1  0  0  0
  9  1  1  0  0  0
 10 11  2  0  0  0
  1  2  2  0  0  0
  1  3  1  0  0  0
  3 14  1  0  0  0
 14 15  1  0  0  0
 15 16  1  0  0  0
 15 20  1  0  0  0
 16 17  1  0  0  0
 16 22  1  0  0  0
 17 18  1  0  0  0
 18 19  1  0  0  0
 19 20  1  0  0  0
 19 21  1  0  0  0
 21 22  1  0  0  0
 12 13  1  0  0  0
  3  4  1  0  0  0
M  END
> <minimizedAffinity>
-5.67521

$$$$
2271


 27 30  0  0  0  0  0  0  0  0999 V2000
    1.0148  -16.4542  -36.5977 C   0  0  0  0  0  0  0  0  0  0  0  0
    1.0459  -17.6407  -37.2959 N   0  0  0  0  0  0  0  0  0  0  0  0
   -0.0149  -17.5281  -38.2754 C   0  0  0  0  0  0  0  0  0  0  0  0
   -0.1550  -17.8136  -39.5291 C   0  0  0  0  0  0  0  0  0  0  0  0
   -1.3937  -17.5821  -40.2940 C   0  0  0  0  0  0  0  0  0  0  0  0
   -2.5138  -16.9626  -39.5366 C   0  0  0  0  0  0  0  0  0  0  0  0
   -2.4306  -17.1295  -38.0569 C   0  0  0  0  0  0  0  0  0  0  0  0
   -1.0868  -16.9533  -37.5492 N   0  0  0  0  0  0  0  0  0  0  0  0
   -0.5166  -16.2787  -36.3864 C   0  0  0  0  0  0  0  0  0  0  0  0
    1.4909  -16.6105  -35.2651 O   0  0  0  0  0  0  0  0  0  0  0  0
    0.6285  -18.3904  -36.6313 H   0  0  0  0  0  0  0  0  0  0  0  0
    0.8717  -17.2563  -34.8370 H   0  0  0  0  0  0  0  0  0  0  0  0
    2.8253  -11.1498  -38.7345 Cl  0  0  0  0  0  0  0  0  0  0  0  0
    2.3031  -12.6896  -38.0996 C   0  0  0  0  0  0  0  0  0  0  0  0
    1.9563  -12.8801  -36.7680 C   0  0  0  0  0  0  0  0  0  0  0  0
    1.5509  -14.0920  -36.2920 C   0  0  0  0  0  0  0  0  0  0  0  0
    1.4708  -15.1866  -37.1311 C   0  0  0  0  0  0  0  0  0  0  0  0
    1.8116  -15.0053  -38.4482 C   0  0  0  0  0  0  0  0  0  0  0  0
    2.2232  -13.7743  -38.9290 C   0  0  0  0  0  0  0  0  0  0  0  0
    2.1972  -18.2214  -37.8050 C   0  0  0  0  0  0  0  0  0  0  0  0
    2.4775  -18.4781  -39.1040 C   0  0  0  0  0  0  0  0  0  0  0  0
    3.6925  -19.0592  -39.4632 C   0  0  0  0  0  0  0  0  0  0  0  0
    4.6593  -19.3978  -38.5318 C   0  0  0  0  0  0  0  0  0  0  0  0
    4.3456  -19.1243  -37.2170 C   0  0  0  0  0  0  0  0  0  0  0  0
    3.1611  -18.5548  -36.8319 C   0  0  0  0  0  0  0  0  0  0  0  0
    5.8538  -19.9746  -38.9317 O   0  0  0  0  0  0  0  0  0  0  0  0
    5.9119  -21.3616  -39.1442 C   0  0  0  0  0  0  0  0  0  0  0  0
 13 14  1  0  0  0
 14 15  2  0  0  0
 14 19  1  0  0  0
 15 16  1  0  0  0
 16 17  2  0  0  0
 17 18  1  0  0  0
 17  1  1  0  0  0
 18 19  2  0  0  0
  1  2  1  0  0  0
  1  9  1  0  0  0
  1 10  1  0  0  0
  2  3  1  0  0  0
  2 20  1  0  0  0
  3  4  2  0  0  0
  3  8  1  0  0  0
  4  5  1  0  0  0
  5  6  1  0  0  0
  6  7  1  0  0  0
  7  8  1  0  0  0
  8  9  1  0  0  0
 20 21  2  0  0  0
 20 25  1  0  0  0
 21 22  1  0  0  0
 22 23  2  0  0  0
 23 24  1  0  0  0
 23 26  1  0  0  0
 24 25  2  0  0  0
 26 27  1  0  0  0
  2 11  1  0  0  0
 10 12  1  0  0  0
M  CHG 1   2   1
M  END
> <minimizedAffinity>
-6.92354

$$$$
2272


 29 32  0  0  0  0  0  0  0  0999 V2000
   -0.0053  -16.7187  -36.3711 C   0  0  0  0  0  0  0  0  0  0  0  0
   -0.9832  -17.3028  -35.7651 O   0  0  0  0  0  0  0  0  0  0  0  0
    0.6370  -17.4781  -37.3510 N   0  0  0  0  0  0  0  0  0  0  0  0
    1.8996  -17.0954  -38.0105 C   0  0  0  0  0  0  0  0  0  0  0  0
    2.8329  -18.1663  -37.3632 C   0  0  0  0  0  0  0  0  0  0  0  0
    2.4193  -19.4690  -37.8656 N   0  0  0  0  0  0  0  0  0  0  0  0
    1.1500  -19.6784  -38.3021 C   0  0  0  0  0  0  0  0  0  0  0  0
    0.0928  -18.7060  -37.8620 C   0  0  0  0  0  0  0  0  0  0  0  0
    0.2451  -15.3630  -35.9459 C   0  0  0  0  0  0  0  0  0  0  0  0
   -0.2047  -14.2093  -36.7196 C   0  0  0  0  0  0  0  0  0  0  0  0
    5.3230  -10.7127  -39.3226 Cl  0  0  0  0  0  0  0  0  0  0  0  0
    3.9132  -11.6194  -38.8330 C   0  0  0  0  0  0  0  0  0  0  0  0
    3.1187  -12.2265  -39.7660 C   0  0  0  0  0  0  0  0  0  0  0  0
    2.0011  -12.9578  -39.3434 C   0  0  0  0  0  0  0  0  0  0  0  0
    1.6706  -13.0881  -38.0152 C   0  0  0  0  0  0  0  0  0  0  0  0
    2.4800  -12.4707  -37.0452 C   0  0  0  0  0  0  0  0  0  0  0  0
    3.5763  -11.7560  -37.4988 C   0  0  0  0  0  0  0  0  0  0  0  0
    0.5801  -13.8387  -37.8845 N   0  0  0  0  0  0  0  0  0  0  0  0
    0.2258  -14.1795  -39.1695 C   0  0  0  0  0  0  0  0  0  0  0  0
   -0.7702  -14.8923  -39.4850 O   0  0  0  0  0  0  0  0  0  0  0  0
    1.0919  -13.6383  -39.9900 O   0  0  0  0  0  0  0  0  0  0  0  0
    3.3269  -20.4100  -37.4073 C   0  0  0  0  0  0  0  0  0  0  0  0
    4.3041  -20.8409  -38.5020 C   0  0  0  0  0  0  0  0  0  0  0  0
    4.8261  -22.0025  -38.2952 O   0  0  0  0  0  0  0  0  0  0  0  0
    4.5658  -20.0585  -39.5425 N   0  0  0  0  0  0  0  0  0  0  0  0
    5.2716  -21.0436  -40.1557 H   0  0  0  0  0  0  0  0  0  0  0  0
    4.8444  -19.2249  -40.6494 C   0  0  0  0  0  0  0  0  0  0  0  0
    3.6514  -18.2910  -41.0854 C   0  0  0  0  0  0  0  0  0  0  0  0
    4.0309  -19.4215  -41.9115 C   0  0  0  0  0  0  0  0  0  0  0  0
 11 12  1  0  0  0
 12 13  2  0  0  0
 12 17  1  0  0  0
 13 14  1  0  0  0
 14 15  2  0  0  0
 14 21  1  0  0  0
 15 16  1  0  0  0
 15 18  1  0  0  0
 16 17  2  0  0  0
 18 19  1  0  0  0
 18 10  1  0  0  0
 19 20  2  0  0  0
 19 21  1  0  0  0
 10  9  1  0  0  0
  9  1  1  0  0  0
  1  2  2  0  0  0
  1  3  1  0  0  0
  3  4  1  0  0  0
  3  8  1  0  0  0
  4  5  1  0  0  0
  5  6  1  0  0  0
  6  7  1  0  0  0
  6 22  1  0  0  0
  7  8  1  0  0  0
 22 23  1  0  0  0
 23 24  2  0  0  0
 23 25  1  0  0  0
 25 27  1  0  0  0
 27 28  1  0  0  0
 27 29  1  0  0  0
 28 29  1  0  0  0
 25 26  1  0  0  0
M  END
> <minimizedAffinity>
-6.18639

$$$$
2275


 21 23  0  0  0  0  0  0  0  0999 V2000
    0.7207  -15.4021  -40.3346 Cl  0  0  0  0  0  0  0  0  0  0  0  0
    1.6105  -16.5389  -39.3457 C   0  0  0  0  0  0  0  0  0  0  0  0
    1.6002  -16.4158  -37.9717 C   0  0  0  0  0  0  0  0  0  0  0  0
    2.3185  -17.3486  -37.2569 C   0  0  0  0  0  0  0  0  0  0  0  0
    2.3763  -17.3281  -35.9893 O   0  0  0  0  0  0  0  0  0  0  0  0
    2.9861  -18.3178  -37.9004 N   0  0  0  0  0  0  0  0  0  0  0  0
    3.0232  -18.4732  -39.2091 N   0  0  0  0  0  0  0  0  0  0  0  0
    3.7600  -19.5401  -39.8656 C   0  0  0  0  0  0  0  0  0  0  0  0
    5.2576  -19.3234  -39.8136 C   0  0  0  0  0  0  0  0  0  0  0  0
    5.8144  -19.7792  -38.4760 C   0  0  0  0  0  0  0  0  0  0  0  0
    5.2066  -18.9992  -37.3329 C   0  0  0  0  0  0  0  0  0  0  0  0
    3.7475  -19.3022  -37.1158 C   0  0  0  0  0  0  0  0  0  0  0  0
    3.4546  -20.6283  -37.7218 C   0  0  0  0  0  0  0  0  0  0  0  0
    3.4958  -20.7778  -39.0411 C   0  0  0  0  0  0  0  0  0  0  0  0
    2.3187  -17.5604  -39.9414 C   0  0  0  0  0  0  0  0  0  0  0  0
    2.3363  -17.6854  -41.2126 O   0  0  0  0  0  0  0  0  0  0  0  0
    0.8949  -15.3841  -37.2883 N   0  0  0  0  0  0  0  0  0  0  0  0
   -0.1529  -15.5545  -37.2077 H   0  0  0  0  0  0  0  0  0  0  0  0
    1.5049  -14.2034  -36.7400 C   0  0  0  0  0  0  0  0  0  0  0  0
    2.1797  -13.3639  -37.8111 C   0  0  0  0  0  0  0  0  0  0  0  0
    0.5719  -13.3198  -35.9815 C   0  0  0  0  0  0  0  0  0  0  0  0
  1  2  1  0  0  0
  2  3  2  0  0  0
  2 15  1  0  0  0
  3  4  1  0  0  0
  3 17  1  0  0  0
  4  5  2  0  0  0
  4  6  1  0  0  0
  6  7  1  0  0  0
  6 12  1  0  0  0
  7  8  1  0  0  0
  7 15  1  0  0  0
  8  9  1  0  0  0
  8 14  1  0  0  0
  9 10  1  0  0  0
 10 11  1  0  0  0
 11 12  1  0  0  0
 12 13  1  0  0  0
 13 14  2  0  0  0
 15 16  2  0  0  0
 17 19  1  0  0  0
 19 20  1  0  0  0
 19 21  1  0  0  0
 17 18  1  0  0  0
M  END
> <minimizedAffinity>
-5.80321

$$$$
2276


 21 24  0  0  0  0  0  0  0  0999 V2000
    2.5297  -20.9006  -40.4467 Cl  0  0  0  0  0  0  0  0  0  0  0  0
    2.2754  -19.6264  -39.2706 C   0  0  0  0  0  0  0  0  0  0  0  0
    3.1290  -19.5648  -38.1891 C   0  0  0  0  0  0  0  0  0  0  0  0
    2.8643  -18.5262  -37.2874 C   0  0  0  0  0  0  0  0  0  0  0  0
    3.6056  -18.4237  -36.2909 O   0  0  0  0  0  0  0  0  0  0  0  0
    1.8528  -17.6728  -37.4871 N   0  0  0  0  0  0  0  0  0  0  0  0
    1.0369  -17.7381  -38.5281 N   0  0  0  0  0  0  0  0  0  0  0  0
   -0.0088  -16.7273  -38.5965 C   0  0  0  0  0  0  0  0  0  0  0  0
   -0.8014  -16.8398  -37.3072 C   0  0  0  0  0  0  0  0  0  0  0  0
    0.0920  -16.8172  -36.1432 C   0  0  0  0  0  0  0  0  0  0  0  0
    1.5520  -16.5838  -36.5547 C   0  0  0  0  0  0  0  0  0  0  0  0
    1.5406  -15.3535  -37.4186 C   0  0  0  0  0  0  0  0  0  0  0  0
    0.7405  -15.4211  -38.4690 C   0  0  0  0  0  0  0  0  0  0  0  0
   -0.9029  -15.6757  -36.3941 C   0  0  0  0  0  0  0  0  0  0  0  0
    1.2417  -18.7057  -39.4157 C   0  0  0  0  0  0  0  0  0  0  0  0
    0.4724  -18.7761  -40.4080 O   0  0  0  0  0  0  0  0  0  0  0  0
    4.2125  -20.4628  -37.9661 N   0  0  0  0  0  0  0  0  0  0  0  0
    4.0260  -21.2200  -37.2751 H   0  0  0  0  0  0  0  0  0  0  0  0
    5.4796  -20.3956  -38.5975 C   0  0  0  0  0  0  0  0  0  0  0  0
    6.4840  -19.5147  -37.9009 C   0  0  0  0  0  0  0  0  0  0  0  0
    6.1406  -21.7571  -38.7621 C   0  0  0  0  0  0  0  0  0  0  0  0
  1  2  1  0  0  0
  2  3  2  0  0  0
  2 15  1  0  0  0
  3  4  1  0  0  0
  3 17  1  0  0  0
  4  5  2  0  0  0
  4  6  1  0  0  0
  6  7  1  0  0  0
  6 11  1  0  0  0
  7  8  1  0  0  0
  7 15  1  0  0  0
  8  9  1  0  0  0
  8 13  1  0  0  0
  9 10  1  0  0  0
  9 14  1  0  0  0
 10 11  1  0  0  0
 10 14  1  0  0  0
 11 12  1  0  0  0
 12 13  2  0  0  0
 15 16  2  0  0  0
 17 19  1  0  0  0
 19 20  1  0  0  0
 19 21  1  0  0  0
 17 18  1  0  0  0
M  END
> <minimizedAffinity>
-5.73358

$$$$
2281


 34 37  0  0  0  0  0  0  0  0999 V2000
   -1.5200  -16.2157  -36.6960 N   0  0  0  0  0  0  0  0  0  0  0  0
   -1.8802  -17.3381  -35.9376 C   0  0  0  0  0  0  0  0  0  0  0  0
   -1.8049  -18.5831  -36.8957 C   0  0  0  0  0  0  0  0  0  0  0  0
   -1.2022  -18.4030  -38.1210 N   0  0  0  0  0  0  0  0  0  0  0  0
   -1.2039  -17.0984  -38.7247 C   0  0  0  0  0  0  0  0  0  0  0  0
   -2.2677  -16.1909  -38.0245 C   0  0  0  0  0  0  0  0  0  0  0  0
   -2.3560  -13.2799  -36.4262 Cl  0  0  0  0  0  0  0  0  0  0  0  0
   -0.6897  -13.9334  -36.6926 C   0  0  0  0  0  0  0  0  0  0  0  0
   -0.5326  -15.2469  -36.6068 C   0  0  0  0  0  0  0  0  0  0  0  0
    0.8619  -15.7203  -36.7834 C   0  0  0  0  0  0  0  0  0  0  0  0
    1.7623  -14.8433  -37.0240 N   0  0  0  0  0  0  0  0  0  0  0  0
    1.5545  -13.5039  -37.1214 N   0  0  0  0  0  0  0  0  0  0  0  0
    0.3472  -13.0378  -36.9571 C   0  0  0  0  0  0  0  0  0  0  0  0
    0.0432  -11.7996  -37.0400 O   0  0  0  0  0  0  0  0  0  0  0  0
    2.6510  -12.7065  -37.6684 C   0  0  0  0  0  0  0  0  0  0  0  0
    2.9377  -12.6622  -38.9948 C   0  0  0  0  0  0  0  0  0  0  0  0
    3.8978  -11.8086  -39.4934 C   0  0  0  0  0  0  0  0  0  0  0  0
    4.6051  -10.9597  -38.6437 C   0  0  0  0  0  0  0  0  0  0  0  0
    4.2950  -11.0332  -37.2859 C   0  0  0  0  0  0  0  0  0  0  0  0
    3.3573  -11.8714  -36.8218 C   0  0  0  0  0  0  0  0  0  0  0  0
   -1.7428  -19.2599  -39.2287 C   0  0  0  0  0  0  0  0  0  0  0  0
   -0.6453  -19.7579  -40.0445 C   0  0  0  0  0  0  0  0  0  0  0  0
   -0.3557  -19.6902  -41.1213 O   0  0  0  0  0  0  0  0  0  0  0  0
    0.4399  -20.6499  -39.0725 N   0  0  0  0  0  0  0  0  0  0  0  0
    1.5381  -20.6638  -40.1021 C   0  0  0  0  0  0  0  0  0  0  0  0
    1.3816  -20.6774  -41.2920 O   0  0  0  0  0  0  0  0  0  0  0  0
    2.8290  -20.6411  -39.4536 N   0  0  0  0  0  0  0  0  0  0  0  0
   -0.1284  -20.6414  -38.5479 H   0  0  0  0  0  0  0  0  0  0  0  0
    2.8000  -20.6677  -38.3802 H   0  0  0  0  0  0  0  0  0  0  0  0
    4.1028  -20.6130  -40.0672 C   0  0  0  0  0  0  0  0  0  0  0  0
    4.8732  -19.3568  -40.0962 C   0  0  0  0  0  0  0  0  0  0  0  0
    5.7691  -19.3388  -38.8535 C   0  0  0  0  0  0  0  0  0  0  0  0
    6.0880  -20.8077  -38.7013 C   0  0  0  0  0  0  0  0  0  0  0  0
    4.9650  -21.5833  -39.2332 C   0  0  0  0  0  0  0  0  0  0  0  0
  7  8  1  0  0  0
  8  9  2  0  0  0
  8 13  1  0  0  0
  9 10  1  0  0  0
  9  1  1  0  0  0
 10 11  2  0  0  0
 11 12  1  0  0  0
 12 13  1  0  0  0
 12 15  1  0  0  0
 13 14  2  0  0  0
 15 16  2  0  0  0
 15 20  1  0  0  0
 16 17  1  0  0  0
 17 18  2  0  0  0
 18 19  1  0  0  0
 19 20  2  0  0  0
  1  2  1  0  0  0
  1  6  1  0  0  0
  2  3  1  0  0  0
  3  4  1  0  0  0
  4  5  1  0  0  0
  4 21  1  0  0  0
  5  6  1  0  0  0
 21 22  1  0  0  0
 22 23  2  0  0  0
 22 24  1  0  0  0
 24 25  1  0  0  0
 25 26  2  0  0  0
 25 27  1  0  0  0
 27 30  1  0  0  0
 30 31  1  0  0  0
 30 34  1  0  0  0
 31 32  1  0  0  0
 32 33  1  0  0  0
 33 34  1  0  0  0
 24 28  1  0  0  0
 27 29  1  0  0  0
M  END
> <minimizedAffinity>
-6.77226

$$$$
2282


 31 34  0  0  0  0  0  0  0  0999 V2000
   -1.4942  -16.4813  -37.6366 N   0  0  0  0  0  0  0  0  0  0  0  0
   -1.8917  -16.9949  -36.3477 C   0  0  0  0  0  0  0  0  0  0  0  0
   -2.0541  -18.4811  -36.4182 C   0  0  0  0  0  0  0  0  0  0  0  0
   -1.4931  -18.9155  -37.6733 N   0  0  0  0  0  0  0  0  0  0  0  0
   -2.3324  -18.4734  -38.7278 C   0  0  0  0  0  0  0  0  0  0  0  0
   -2.1735  -16.9525  -38.8173 C   0  0  0  0  0  0  0  0  0  0  0  0
   -2.3926  -13.6598  -37.6983 Cl  0  0  0  0  0  0  0  0  0  0  0  0
   -0.7195  -14.1570  -37.8351 C   0  0  0  0  0  0  0  0  0  0  0  0
   -0.4584  -15.5236  -37.7923 C   0  0  0  0  0  0  0  0  0  0  0  0
    0.8685  -15.8798  -37.9036 C   0  0  0  0  0  0  0  0  0  0  0  0
    1.8189  -14.9389  -38.0425 N   0  0  0  0  0  0  0  0  0  0  0  0
    1.5921  -13.6378  -38.0860 N   0  0  0  0  0  0  0  0  0  0  0  0
    0.3083  -13.2460  -37.9806 C   0  0  0  0  0  0  0  0  0  0  0  0
    0.0655  -12.0071  -38.0196 O   0  0  0  0  0  0  0  0  0  0  0  0
    2.6587  -12.6914  -38.2335 C   0  0  0  0  0  0  0  0  0  0  0  0
    3.1508  -12.0287  -37.1328 C   0  0  0  0  0  0  0  0  0  0  0  0
    4.1920  -11.1032  -37.2649 C   0  0  0  0  0  0  0  0  0  0  0  0
    4.7531  -10.8283  -38.4910 C   0  0  0  0  0  0  0  0  0  0  0  0
    4.2671  -11.4879  -39.5984 C   0  0  0  0  0  0  0  0  0  0  0  0
    3.2313  -12.4050  -39.4543 C   0  0  0  0  0  0  0  0  0  0  0  0
   -0.9911  -20.2304  -37.7141 C   0  0  0  0  0  0  0  0  0  0  0  0
    0.1927  -20.4111  -38.5609 C   0  0  0  0  0  0  0  0  0  0  0  0
   -0.0177  -20.9089  -39.7186 O   0  0  0  0  0  0  0  0  0  0  0  0
    1.5269  -20.0858  -38.2163 N   0  0  0  0  0  0  0  0  0  0  0  0
    1.6926  -19.6712  -37.2771 H   0  0  0  0  0  0  0  0  0  0  0  0
    2.6597  -20.2814  -39.0853 C   0  0  0  0  0  0  0  0  0  0  0  0
    3.9103  -20.3668  -38.2660 C   0  0  0  0  0  0  0  0  0  0  0  0
    4.3981  -21.6456  -38.3113 O   0  0  0  0  0  0  0  0  0  0  0  0
    5.6809  -21.6644  -38.7860 C   0  0  0  0  0  0  0  0  0  0  0  0
    6.2193  -20.3055  -38.3910 C   0  0  0  0  0  0  0  0  0  0  0  0
    5.0047  -19.4585  -38.8082 C   0  0  0  0  0  0  0  0  0  0  0  0
  7  8  1  0  0  0
  8  9  2  0  0  0
  8 13  1  0  0  0
  9 10  1  0  0  0
  9  1  1  0  0  0
 10 11  2  0  0  0
 11 12  1  0  0  0
 12 13  1  0  0  0
 12 15  1  0  0  0
 13 14  2  0  0  0
 15 16  2  0  0  0
 15 20  1  0  0  0
 16 17  1  0  0  0
 17 18  2  0  0  0
 18 19  1  0  0  0
 19 20  2  0  0  0
  1  2  1  0  0  0
  1  6  1  0  0  0
  2  3  1  0  0  0
  3  4  1  0  0  0
  4  5  1  0  0  0
  4 21  1  0  0  0
  5  6  1  0  0  0
 21 22  1  0  0  0
 22 23  2  0  0  0
 22 24  1  0  0  0
 24 26  1  0  0  0
 26 27  1  0  0  0
 27 28  1  0  0  0
 27 31  1  0  0  0
 28 29  1  0  0  0
 29 30  1  0  0  0
 30 31  1  0  0  0
 24 25  1  0  0  0
M  END
> <minimizedAffinity>
-6.90019

$$$$
2284


 33 37  0  0  0  0  0  0  0  0999 V2000
    3.5414  -20.2975  -38.7730 C   0  0  0  0  0  0  0  0  0  0  0  0
    3.9433  -20.0516  -37.4751 C   0  0  0  0  0  0  0  0  0  0  0  0
    3.5359  -18.9797  -36.7227 C   0  0  0  0  0  0  0  0  0  0  0  0
    3.9763  -18.8590  -35.5325 O   0  0  0  0  0  0  0  0  0  0  0  0
    2.6708  -18.0695  -37.2609 N   0  0  0  0  0  0  0  0  0  0  0  0
    2.2171  -17.0357  -36.6718 N   0  0  0  0  0  0  0  0  0  0  0  0
    1.3934  -16.2086  -37.2444 C   0  0  0  0  0  0  0  0  0  0  0  0
    1.2415  -16.9726  -38.7860 S   0  0  0  0  0  0  0  0  0  0  0  0
    2.2839  -18.3100  -38.5152 C   0  0  0  0  0  0  0  0  0  0  0  0
    2.6884  -19.3670  -39.2534 N   0  0  0  0  0  0  0  0  0  0  0  0
    0.7522  -14.9761  -36.7709 C   0  0  0  0  0  0  0  0  0  0  0  0
   -0.6232  -14.8923  -36.8012 C   0  0  0  0  0  0  0  0  0  0  0  0
   -1.2894  -13.7545  -36.3673 C   0  0  0  0  0  0  0  0  0  0  0  0
   -0.5686  -12.6785  -35.8922 C   0  0  0  0  0  0  0  0  0  0  0  0
    0.8139  -12.7397  -35.8522 C   0  0  0  0  0  0  0  0  0  0  0  0
    1.4291  -13.8886  -36.2939 C   0  0  0  0  0  0  0  0  0  0  0  0
   -1.3871  -11.2506  -35.3466 Cl  0  0  0  0  0  0  0  0  0  0  0  0
    4.0134  -21.4729  -39.5434 C   0  0  0  0  0  0  0  0  0  0  0  0
    5.7739  -20.4450  -43.1546 N   0  0  0  0  0  0  0  0  0  0  0  0
    4.3828  -20.3549  -43.0553 C   0  0  0  0  0  0  0  0  0  0  0  0
    3.8572  -21.2700  -41.9445 C   0  0  0  0  0  0  0  0  0  0  0  0
    4.5896  -21.0184  -40.7682 N   0  0  0  0  0  0  0  0  0  0  0  0
    5.9859  -21.1974  -40.8937 C   0  0  0  0  0  0  0  0  0  0  0  0
    6.3513  -21.4323  -42.3422 C   0  0  0  0  0  0  0  0  0  0  0  0
    6.6833  -19.1861  -43.7384 S   0  0  0  0  0  0  0  0  0  0  0  0
    6.6732  -18.0604  -42.7090 O   0  0  0  0  0  0  0  0  0  0  0  0
    6.1765  -18.6682  -45.0596 O   0  0  0  0  0  0  0  0  0  0  0  0
    8.3634  -19.6435  -43.9088 C   0  0  0  0  0  0  0  0  0  0  0  0
    9.4146  -19.1718  -43.1824 N   0  0  0  0  0  0  0  0  0  0  0  0
   10.5502  -19.7411  -43.5903 C   0  0  0  0  0  0  0  0  0  0  0  0
   10.2882  -20.5984  -44.5866 N   0  0  0  0  0  0  0  0  0  0  0  0
    8.9422  -20.5351  -44.7793 C   0  0  0  0  0  0  0  0  0  0  0  0
   10.9695  -21.1825  -45.0985 H   0  0  0  0  0  0  0  0  0  0  0  0
 25 26  2  0  0  0
 25 27  2  0  0  0
 25 19  1  0  0  0
 25 28  1  0  0  0
 19 20  1  0  0  0
 19 24  1  0  0  0
 20 21  1  0  0  0
 21 22  1  0  0  0
 22 23  1  0  0  0
 22 18  1  0  0  0
 23 24  1  0  0  0
 18  1  1  0  0  0
  1  2  2  0  0  0
  1 10  1  0  0  0
  2  3  1  0  0  0
  3  4  2  0  0  0
  3  5  1  0  0  0
  5  6  1  0  0  0
  5  9  1  0  0  0
  6  7  2  0  0  0
  7  8  1  0  0  0
  7 11  1  0  0  0
  8  9  1  0  0  0
  9 10  2  0  0  0
 11 12  2  0  0  0
 11 16  1  0  0  0
 12 13  1  0  0  0
 13 14  2  0  0  0
 14 15  1  0  0  0
 14 17  1  0  0  0
 15 16  2  0  0  0
 28 29  1  0  0  0
 28 32  2  0  0  0
 29 30  2  0  0  0
 30 31  1  0  0  0
 31 32  1  0  0  0
 31 33  1  0  0  0
M  END
> <minimizedAffinity>
-6.67550

$$$$
2285


 32 35  0  0  0  0  0  0  0  0999 V2000
    5.6139  -21.2380  -40.5019 N   0  0  0  0  0  0  0  0  0  0  0  0
    5.6232  -19.8172  -40.3184 C   0  0  0  0  0  0  0  0  0  0  0  0
    5.5800  -19.3744  -38.8442 C   0  0  0  0  0  0  0  0  0  0  0  0
    4.4247  -19.9891  -38.2692 N   0  0  0  0  0  0  0  0  0  0  0  0
    4.6591  -21.4055  -38.2171 C   0  0  0  0  0  0  0  0  0  0  0  0
    4.5381  -21.8533  -39.6476 C   0  0  0  0  0  0  0  0  0  0  0  0
    4.9786  -21.5010  -42.1431 S   0  0  0  0  0  0  0  0  0  0  0  0
    3.4728  -21.6349  -42.0173 O   0  0  0  0  0  0  0  0  0  0  0  0
    5.3092  -20.3122  -42.9733 O   0  0  0  0  0  0  0  0  0  0  0  0
    5.6070  -22.9340  -42.8567 C   0  0  0  0  0  0  0  0  0  0  0  0
    6.9727  -22.8938  -43.1682 C   0  0  0  0  0  0  0  0  0  0  0  0
    7.6813  -23.9915  -43.6636 C   0  0  0  0  0  0  0  0  0  0  0  0
    6.9911  -25.1847  -43.8553 C   0  0  0  0  0  0  0  0  0  0  0  0
    5.6427  -25.2062  -43.5493 C   0  0  0  0  0  0  0  0  0  0  0  0
    4.9496  -24.1093  -43.0538 C   0  0  0  0  0  0  0  0  0  0  0  0
    7.7542  -26.2299  -44.3416 O   0  0  0  0  0  0  0  0  0  0  0  0
    9.1093  -26.3590  -43.8330 C   0  0  0  0  0  0  0  0  0  0  0  0
    9.8220  -25.0514  -43.7314 C   0  0  0  0  0  0  0  0  0  0  0  0
    9.0303  -23.9123  -43.9648 O   0  0  0  0  0  0  0  0  0  0  0  0
    3.6991  -19.3074  -37.3082 C   0  0  0  0  0  0  0  0  0  0  0  0
    2.7059  -18.3352  -37.7702 C   0  0  0  0  0  0  0  0  0  0  0  0
    2.2601  -18.6023  -38.9720 O   0  0  0  0  0  0  0  0  0  0  0  0
    2.1642  -17.2279  -37.1833 N   0  0  0  0  0  0  0  0  0  0  0  0
    2.4505  -16.8507  -36.2197 H   0  0  0  0  0  0  0  0  0  0  0  0
    1.0823  -16.4212  -37.7523 C   0  0  0  0  0  0  0  0  0  0  0  0
    1.4714  -14.9972  -37.7102 C   0  0  0  0  0  0  0  0  0  0  0  0
    2.0728  -14.3739  -38.8278 C   0  0  0  0  0  0  0  0  0  0  0  0
    2.5659  -13.1261  -38.7889 C   0  0  0  0  0  0  0  0  0  0  0  0
    2.4965  -12.3584  -37.5842 C   0  0  0  0  0  0  0  0  0  0  0  0
    1.9395  -12.9360  -36.5153 C   0  0  0  0  0  0  0  0  0  0  0  0
    1.4213  -14.2368  -36.5275 C   0  0  0  0  0  0  0  0  0  0  0  0
    2.1523  -15.2936  -40.3510 Cl  0  0  0  0  0  0  0  0  0  0  0  0
  7  8  2  0  0  0
  7  9  2  0  0  0
  7  1  1  0  0  0
  7 10  1  0  0  0
  1  2  1  0  0  0
  1  6  1  0  0  0
  2  3  1  0  0  0
  3  4  1  0  0  0
  4  5  1  0  0  0
  4 20  1  0  0  0
  5  6  1  0  0  0
 20 21  1  0  0  0
 21 22  2  0  0  0
 21 23  1  0  0  0
 23 25  1  0  0  0
 25 26  1  0  0  0
 26 27  2  0  0  0
 26 31  1  0  0  0
 27 28  1  0  0  0
 27 32  1  0  0  0
 28 29  2  0  0  0
 29 30  1  0  0  0
 30 31  2  0  0  0
 10 11  2  0  0  0
 10 15  1  0  0  0
 11 12  1  0  0  0
 12 13  2  0  0  0
 12 19  1  0  0  0
 13 14  1  0  0  0
 13 16  1  0  0  0
 14 15  2  0  0  0
 16 17  1  0  0  0
 17 18  1  0  0  0
 18 19  1  0  0  0
 23 24  1  0  0  0
M  END
> <minimizedAffinity>
-6.83804

$$$$
2286


 31 34  0  0  0  0  0  0  0  0999 V2000
    0.5681  -14.9995  -37.9061 N   0  0  0  0  0  0  0  0  0  0  0  0
   -0.7874  -15.3714  -38.0917 C   0  0  0  0  0  0  0  0  0  0  0  0
   -0.9801  -16.7871  -38.5669 C   0  0  0  0  0  0  0  0  0  0  0  0
   -0.0564  -17.7060  -37.9359 N   0  0  0  0  0  0  0  0  0  0  0  0
    0.6860  -17.1886  -36.8021 C   0  0  0  0  0  0  0  0  0  0  0  0
    1.3648  -15.8816  -37.1300 C   0  0  0  0  0  0  0  0  0  0  0  0
    0.0758  -19.0092  -38.4311 C   0  0  0  0  0  0  0  0  0  0  0  0
   -0.6136  -19.3601  -39.4180 O   0  0  0  0  0  0  0  0  0  0  0  0
    1.3469  -14.3946  -39.3044 S   0  0  0  0  0  0  0  0  0  0  0  0
    0.3126  -13.9789  -40.3050 O   0  0  0  0  0  0  0  0  0  0  0  0
    2.2174  -15.4379  -39.9400 O   0  0  0  0  0  0  0  0  0  0  0  0
    2.4013  -13.0234  -38.9211 C   0  0  0  0  0  0  0  0  0  0  0  0
    2.2953  -11.9327  -37.6228 S   0  0  0  0  0  0  0  0  0  0  0  0
    3.6408  -10.9537  -37.9730 C   0  0  0  0  0  0  0  0  0  0  0  0
    4.1495  -11.5117  -39.1154 C   0  0  0  0  0  0  0  0  0  0  0  0
    3.5024  -12.5918  -39.6091 C   0  0  0  0  0  0  0  0  0  0  0  0
    4.2657   -9.5412  -37.0947 Cl  0  0  0  0  0  0  0  0  0  0  0  0
    1.0054  -19.9995  -37.8289 C   0  0  0  0  0  0  0  0  0  0  0  0
    2.3083  -19.9559  -38.4326 N   0  0  0  0  0  0  0  0  0  0  0  0
    3.4810  -19.4934  -37.7801 C   0  0  0  0  0  0  0  0  0  0  0  0
    3.5213  -19.0594  -36.5797 O   0  0  0  0  0  0  0  0  0  0  0  0
    4.6183  -19.5691  -38.6299 N   0  0  0  0  0  0  0  0  0  0  0  0
    4.1274  -19.8860  -39.9581 C   0  0  0  0  0  0  0  0  0  0  0  0
    4.8822  -21.0202  -40.5889 C   0  0  0  0  0  0  0  0  0  0  0  0
    6.1427  -20.5969  -41.2836 C   0  0  0  0  0  0  0  0  0  0  0  0
    5.9538  -19.4492  -42.2314 C   0  0  0  0  0  0  0  0  0  0  0  0
    4.5423  -18.9047  -42.2070 C   0  0  0  0  0  0  0  0  0  0  0  0
    4.1852  -18.6117  -40.7666 C   0  0  0  0  0  0  0  0  0  0  0  0
    2.7302  -20.3349  -39.7359 C   0  0  0  0  0  0  0  0  0  0  0  0
    2.0013  -20.9538  -40.5470 O   0  0  0  0  0  0  0  0  0  0  0  0
    6.0066  -19.3644  -38.2176 C   0  0  0  0  0  0  0  0  0  0  0  0
  9 10  2  0  0  0
  9 11  2  0  0  0
  9  1  1  0  0  0
  9 12  1  0  0  0
  1  2  1  0  0  0
  1  6  1  0  0  0
  2  3  1  0  0  0
  3  4  1  0  0  0
  4  5  1  0  0  0
  4  7  1  0  0  0
  5  6  1  0  0  0
  7  8  2  0  0  0
  7 18  1  0  0  0
 18 19  1  0  0  0
 19 20  1  0  0  0
 19 29  1  0  0  0
 20 21  2  0  0  0
 20 22  1  0  0  0
 22 23  1  0  0  0
 22 31  1  0  0  0
 23 24  1  0  0  0
 23 28  1  0  0  0
 23 29  1  0  0  0
 24 25  1  0  0  0
 25 26  1  0  0  0
 26 27  1  0  0  0
 27 28  1  0  0  0
 29 30  2  0  0  0
 12 13  1  0  0  0
 12 16  2  0  0  0
 13 14  1  0  0  0
 14 15  2  0  0  0
 14 17  1  0  0  0
 15 16  1  0  0  0
M  END
> <minimizedAffinity>
-6.29731

$$$$
2298


 34 37  0  0  0  0  0  0  0  0999 V2000
    0.0285  -17.9197  -38.6614 C   0  0  0  0  0  0  0  0  0  0  0  0
    0.2980  -15.2386  -36.4107 N   0  0  0  0  0  0  0  0  0  0  0  0
    1.3805  -16.0058  -36.0343 C   0  0  0  0  0  0  0  0  0  0  0  0
    1.5322  -17.1960  -36.9427 C   0  0  0  0  0  0  0  0  0  0  0  0
    0.3340  -17.8866  -37.2607 N   0  0  0  0  0  0  0  0  0  0  0  0
   -0.7641  -17.4209  -36.4762 C   0  0  0  0  0  0  0  0  0  0  0  0
   -0.9118  -15.9090  -36.6194 C   0  0  0  0  0  0  0  0  0  0  0  0
    0.3703  -13.5920  -36.6259 S   0  0  0  0  0  0  0  0  0  0  0  0
   -0.9192  -12.9870  -37.1241 O   0  0  0  0  0  0  0  0  0  0  0  0
    0.7214  -12.8185  -35.3747 O   0  0  0  0  0  0  0  0  0  0  0  0
    1.5822  -13.2006  -37.8424 C   0  0  0  0  0  0  0  0  0  0  0  0
    1.6037  -13.8356  -39.0532 C   0  0  0  0  0  0  0  0  0  0  0  0
    2.5442  -13.5346  -40.0029 C   0  0  0  0  0  0  0  0  0  0  0  0
    3.4880  -12.5703  -39.7242 C   0  0  0  0  0  0  0  0  0  0  0  0
    3.4695  -11.9269  -38.5012 C   0  0  0  0  0  0  0  0  0  0  0  0
    2.5226  -12.2359  -37.5582 C   0  0  0  0  0  0  0  0  0  0  0  0
    4.6790  -12.2080  -40.9607 Cl  0  0  0  0  0  0  0  0  0  0  0  0
    0.6835  -19.0936  -39.3310 C   0  0  0  0  0  0  0  0  0  0  0  0
    0.2442  -20.2276  -39.0411 O   0  0  0  0  0  0  0  0  0  0  0  0
    1.7495  -18.9189  -40.2491 N   0  0  0  0  0  0  0  0  0  0  0  0
    2.0705  -17.9344  -40.4512 H   0  0  0  0  0  0  0  0  0  0  0  0
    2.3158  -20.0962  -40.8403 C   0  0  0  0  0  0  0  0  0  0  0  0
    3.7381  -20.3735  -40.5385 C   0  0  0  0  0  0  0  0  0  0  0  0
    3.8318  -21.2250  -39.2961 C   0  0  0  0  0  0  0  0  0  0  0  0
    3.9638  -20.3806  -38.0246 C   0  0  0  0  0  0  0  0  0  0  0  0
    5.3034  -19.6716  -38.0048 C   0  0  0  0  0  0  0  0  0  0  0  0
    5.6755  -19.3685  -39.4446 C   0  0  0  0  0  0  0  0  0  0  0  0
    4.3790  -19.0270  -40.1484 C   0  0  0  0  0  0  0  0  0  0  0  0
    4.5438  -20.9112  -41.5662 N   0  0  0  0  0  0  0  0  0  0  0  0
    4.7241  -22.3186  -41.6173 C   0  0  0  0  0  0  0  0  0  0  0  0
    5.9528  -22.5548  -42.5146 C   0  0  0  0  0  0  0  0  0  0  0  0
    5.6996  -22.1065  -43.7886 O   0  0  0  0  0  0  0  0  0  0  0  0
    4.4662  -21.5284  -43.9528 C   0  0  0  0  0  0  0  0  0  0  0  0
    4.1860  -20.4613  -42.8940 C   0  0  0  0  0  0  0  0  0  0  0  0
  8  9  2  0  0  0
  8 10  2  0  0  0
  8  2  1  0  0  0
  8 11  1  0  0  0
  2  3  1  0  0  0
  2  7  1  0  0  0
  3  4  1  0  0  0
  4  5  1  0  0  0
  5  6  1  0  0  0
  5  1  1  0  0  0
  6  7  1  0  0  0
  1 18  1  0  0  0
 18 19  2  0  0  0
 18 20  1  0  0  0
 20 22  1  0  0  0
 22 23  1  0  0  0
 23 24  1  0  0  0
 23 28  1  0  0  0
 23 29  1  0  0  0
 24 25  1  0  0  0
 25 26  1  0  0  0
 26 27  1  0  0  0
 27 28  1  0  0  0
 29 30  1  0  0  0
 29 34  1  0  0  0
 30 31  1  0  0  0
 31 32  1  0  0  0
 32 33  1  0  0  0
 33 34  1  0  0  0
 11 12  2  0  0  0
 11 16  1  0  0  0
 12 13  1  0  0  0
 13 14  2  0  0  0
 14 15  1  0  0  0
 14 17  1  0  0  0
 15 16  2  0  0  0
 20 21  1  0  0  0
M  END
> <minimizedAffinity>
-6.28313

$$$$
2301


 24 27  0  0  0  0  0  0  0  0999 V2000
    1.0508  -17.2631  -37.9976 C   0  0  0  0  0  0  0  0  0  0  0  0
    1.0434  -16.0306  -38.8400 C   0  0  0  0  0  0  0  0  0  0  0  0
    1.9642  -14.9574  -38.2333 C   0  0  0  0  0  0  0  0  0  0  0  0
    1.2977  -14.6413  -36.9617 N   0  0  0  0  0  0  0  0  0  0  0  0
    1.2920  -15.7103  -36.0138 C   0  0  0  0  0  0  0  0  0  0  0  0
    0.7657  -17.0030  -36.5659 C   0  0  0  0  0  0  0  0  0  0  0  0
   -0.0024  -18.0723  -38.4958 O   0  0  0  0  0  0  0  0  0  0  0  0
   -0.8462  -17.7508  -38.0508 H   0  0  0  0  0  0  0  0  0  0  0  0
    0.7359  -13.3535  -36.7879 C   0  0  0  0  0  0  0  0  0  0  0  0
    0.0448  -13.0771  -35.6688 N   0  0  0  0  0  0  0  0  0  0  0  0
   -0.5143  -11.9168  -35.3863 N   0  0  0  0  0  0  0  0  0  0  0  0
   -1.2227  -11.4326  -34.3628 N   0  0  0  0  0  0  0  0  0  0  0  0
   -1.5505  -10.1784  -34.5792 N   0  0  0  0  0  0  0  0  0  0  0  0
   -1.0568   -9.8402  -35.7387 N   0  0  0  0  0  0  0  0  0  0  0  0
   -0.4084  -10.9131  -36.2550 C   0  0  0  0  0  0  0  0  0  0  0  0
    0.2898  -11.1225  -37.4319 C   0  0  0  0  0  0  0  0  0  0  0  0
    0.8675  -12.3430  -37.7108 C   0  0  0  0  0  0  0  0  0  0  0  0
    6.1294  -20.4410  -38.6963 Cl  0  0  0  0  0  0  0  0  0  0  0  0
    4.6483  -19.5239  -38.5137 C   0  0  0  0  0  0  0  0  0  0  0  0
    3.8870  -19.1250  -39.6042 C   0  0  0  0  0  0  0  0  0  0  0  0
    2.7313  -18.4018  -39.5009 C   0  0  0  0  0  0  0  0  0  0  0  0
    2.2734  -18.0373  -38.2677 C   0  0  0  0  0  0  0  0  0  0  0  0
    3.0145  -18.4249  -37.1524 C   0  0  0  0  0  0  0  0  0  0  0  0
    4.1808  -19.1547  -37.2773 C   0  0  0  0  0  0  0  0  0  0  0  0
 18 19  1  0  0  0
 19 20  2  0  0  0
 19 24  1  0  0  0
 20 21  1  0  0  0
 21 22  2  0  0  0
 22 23  1  0  0  0
 22  1  1  0  0  0
 23 24  2  0  0  0
  1  2  1  0  0  0
  1  6  1  0  0  0
  1  7  1  0  0  0
  2  3  1  0  0  0
  3  4  1  0  0  0
  4  5  1  0  0  0
  4  9  1  0  0  0
  5  6  1  0  0  0
  9 10  2  0  0  0
  9 17  1  0  0  0
 10 11  1  0  0  0
 11 12  1  0  0  0
 11 15  1  0  0  0
 12 13  2  0  0  0
 13 14  1  0  0  0
 14 15  2  0  0  0
 15 16  1  0  0  0
 16 17  2  0  0  0
  7  8  1  0  0  0
M  END
> <minimizedAffinity>
-6.36790

$$$$
2304


 28 31  0  0  0  0  0  0  0  0999 V2000
    1.2549  -18.1206  -37.5960 N   0  0  0  0  0  0  0  0  0  0  0  0
    2.5453  -18.0827  -37.0202 C   0  0  0  0  0  0  0  0  0  0  0  0
    3.5916  -18.8812  -37.7521 C   0  0  0  0  0  0  0  0  0  0  0  0
    3.5171  -18.7356  -39.1789 N   0  0  0  0  0  0  0  0  0  0  0  0
    2.3370  -18.1010  -39.7104 C   0  0  0  0  0  0  0  0  0  0  0  0
    1.1522  -18.6409  -38.9142 C   0  0  0  0  0  0  0  0  0  0  0  0
    4.5616  -19.2065  -39.9914 C   0  0  0  0  0  0  0  0  0  0  0  0
    5.5403  -19.7580  -39.4129 O   0  0  0  0  0  0  0  0  0  0  0  0
    4.5842  -19.0954  -41.4759 C   0  0  0  0  0  0  0  0  0  0  0  0
    4.0201  -20.2362  -42.0986 N   0  0  0  0  0  0  0  0  0  0  0  0
    4.9152  -21.3054  -42.4009 C   0  0  0  0  0  0  0  0  0  0  0  0
    6.4687  -20.4455  -42.7241 S   0  0  0  0  0  0  0  0  0  0  0  0
    5.9606  -18.8319  -42.0094 C   0  0  0  0  0  0  0  0  0  0  0  0
    4.3969  -21.8079  -43.7347 C   0  0  0  0  0  0  0  0  0  0  0  0
    2.9013  -21.8770  -43.3989 C   0  0  0  0  0  0  0  0  0  0  0  0
    2.7274  -20.6971  -42.5556 C   0  0  0  0  0  0  0  0  0  0  0  0
    1.5983  -20.1857  -42.2891 O   0  0  0  0  0  0  0  0  0  0  0  0
    5.0183  -22.3797  -41.3933 C   0  0  0  0  0  0  0  0  0  0  0  0
    0.2508  -16.7985  -37.2456 S   0  0  0  0  0  0  0  0  0  0  0  0
   -0.9792  -16.8182  -38.0977 O   0  0  0  0  0  0  0  0  0  0  0  0
   -0.2122  -16.9193  -35.8147 O   0  0  0  0  0  0  0  0  0  0  0  0
    1.0808  -15.2505  -37.3750 C   0  0  0  0  0  0  0  0  0  0  0  0
    1.1842  -14.4190  -36.2821 C   0  0  0  0  0  0  0  0  0  0  0  0
    1.8240  -13.2036  -36.3495 C   0  0  0  0  0  0  0  0  0  0  0  0
    2.3975  -12.7579  -37.5268 C   0  0  0  0  0  0  0  0  0  0  0  0
    2.2770  -13.6157  -38.6074 C   0  0  0  0  0  0  0  0  0  0  0  0
    1.6420  -14.8314  -38.5546 C   0  0  0  0  0  0  0  0  0  0  0  0
    3.2193  -11.2164  -37.6482 Cl  0  0  0  0  0  0  0  0  0  0  0  0
 19 20  2  0  0  0
 19 21  2  0  0  0
 19  1  1  0  0  0
 19 22  1  0  0  0
  1  2  1  0  0  0
  1  6  1  0  0  0
  2  3  1  0  0  0
  3  4  1  0  0  0
  4  5  1  0  0  0
  4  7  1  0  0  0
  5  6  1  0  0  0
  7  8  2  0  0  0
  7  9  1  0  0  0
  9 10  1  0  0  0
  9 13  1  0  0  0
 10 11  1  0  0  0
 10 16  1  0  0  0
 11 12  1  0  0  0
 11 14  1  0  0  0
 11 18  1  0  0  0
 12 13  1  0  0  0
 14 15  1  0  0  0
 15 16  1  0  0  0
 16 17  2  0  0  0
 22 23  2  0  0  0
 22 27  1  0  0  0
 23 24  1  0  0  0
 24 25  2  0  0  0
 25 26  1  0  0  0
 25 28  1  0  0  0
 26 27  2  0  0  0
M  END
> <minimizedAffinity>
-6.08768

$$$$
2319


 33 36  0  0  0  0  0  0  0  0999 V2000
    4.2653  -19.2022  -39.2794 N   0  0  0  0  0  0  0  0  0  0  0  0
    4.7190  -19.1525  -37.9426 C   0  0  0  0  0  0  0  0  0  0  0  0
    5.9413  -19.1248  -37.6894 O   0  0  0  0  0  0  0  0  0  0  0  0
    3.2629  -19.2275  -39.5638 H   0  0  0  0  0  0  0  0  0  0  0  0
    7.1071  -24.0140  -44.2111 Br  0  0  0  0  0  0  0  0  0  0  0  0
    7.1871  -22.2115  -43.5722 C   0  0  0  0  0  0  0  0  0  0  0  0
    6.3782  -21.7697  -42.5453 C   0  0  0  0  0  0  0  0  0  0  0  0
    6.4289  -20.4691  -42.0733 C   0  0  0  0  0  0  0  0  0  0  0  0
    7.3338  -19.6286  -42.6844 C   0  0  0  0  0  0  0  0  0  0  0  0
    8.1563  -20.0324  -43.7119 C   0  0  0  0  0  0  0  0  0  0  0  0
    8.0937  -21.3375  -44.1722 C   0  0  0  0  0  0  0  0  0  0  0  0
    9.3914  -18.8151  -44.5162 Br  0  0  0  0  0  0  0  0  0  0  0  0
    5.4782  -20.2680  -40.9900 C   0  0  0  0  0  0  0  0  0  0  0  0
    5.2230  -19.2218  -40.2977 N   0  0  0  0  0  0  0  0  0  0  0  0
    4.8091  -21.5605  -40.8059 C   0  0  0  0  0  0  0  0  0  0  0  0
    3.9124  -21.7708  -39.9457 O   0  0  0  0  0  0  0  0  0  0  0  0
    5.3859  -22.4259  -41.7635 N   0  0  0  0  0  0  0  0  0  0  0  0
    5.1204  -23.4179  -41.8844 H   0  0  0  0  0  0  0  0  0  0  0  0
    3.7782  -19.1308  -36.7780 C   0  0  0  0  0  0  0  0  0  0  0  0
    2.9340  -17.9680  -36.7905 N   0  0  0  0  0  0  0  0  0  0  0  0
    1.6852  -17.9278  -37.4683 C   0  0  0  0  0  0  0  0  0  0  0  0
    1.3083  -18.9517  -38.0788 O   0  0  0  0  0  0  0  0  0  0  0  0
    3.2105  -17.0903  -36.2909 H   0  0  0  0  0  0  0  0  0  0  0  0
    0.7986  -16.7260  -37.4925 C   0  0  0  0  0  0  0  0  0  0  0  0
    1.1709  -15.8228  -38.4908 O   0  0  0  0  0  0  0  0  0  0  0  0
    1.7460  -14.5747  -38.2615 C   0  0  0  0  0  0  0  0  0  0  0  0
    1.6045  -14.0471  -37.0052 C   0  0  0  0  0  0  0  0  0  0  0  0
    2.1695  -12.7980  -36.7473 C   0  0  0  0  0  0  0  0  0  0  0  0
    2.8560  -12.0855  -37.7039 C   0  0  0  0  0  0  0  0  0  0  0  0
    2.9780  -12.6496  -38.9590 C   0  0  0  0  0  0  0  0  0  0  0  0
    2.4234  -13.8809  -39.2190 C   0  0  0  0  0  0  0  0  0  0  0  0
    0.9238  -14.7469  -36.0476 O   0  0  0  0  0  0  0  0  0  0  0  0
    0.6295  -16.1129  -36.1468 C   0  0  0  0  0  0  0  0  0  0  0  0
  5  6  1  0  0  0
  6  7  2  0  0  0
  6 11  1  0  0  0
  7  8  1  0  0  0
  7 17  1  0  0  0
  8  9  2  0  0  0
  8 13  1  0  0  0
  9 10  1  0  0  0
 10 11  2  0  0  0
 10 12  1  0  0  0
 13 14  2  0  0  0
 13 15  1  0  0  0
 14  1  1  0  0  0
  1  2  1  0  0  0
  2  3  2  0  0  0
  2 19  1  0  0  0
 19 20  1  0  0  0
 20 21  1  0  0  0
 21 22  2  0  0  0
 21 24  1  0  0  0
 24 25  1  0  0  0
 24 33  1  0  0  0
 25 26  1  0  0  0
 26 27  2  0  0  0
 26 31  1  0  0  0
 27 28  1  0  0  0
 27 32  1  0  0  0
 28 29  2  0  0  0
 29 30  1  0  0  0
 30 31  2  0  0  0
 32 33  1  0  0  0
 15 16  2  0  0  0
 15 17  1  0  0  0
  1  4  1  0  0  0
 20 23  1  0  0  0
 17 18  1  0  0  0
M  END
> <minimizedAffinity>
-7.17206

$$$$
2330


 28 31  0  0  0  0  0  0  0  0999 V2000
    1.3381  -16.6934  -36.4474 C   0  0  0  0  0  0  0  0  0  0  0  0
    0.8962  -16.8475  -35.2858 O   0  0  0  0  0  0  0  0  0  0  0  0
    1.4977  -15.4021  -36.9533 N   0  0  0  0  0  0  0  0  0  0  0  0
    1.8960  -15.3818  -37.9594 H   0  0  0  0  0  0  0  0  0  0  0  0
   -0.9748  -18.1287  -37.6809 Cl  0  0  0  0  0  0  0  0  0  0  0  0
    0.6910  -18.6684  -37.8296 C   0  0  0  0  0  0  0  0  0  0  0  0
    1.6645  -17.9120  -37.2107 C   0  0  0  0  0  0  0  0  0  0  0  0
    2.9645  -18.3524  -37.3391 C   0  0  0  0  0  0  0  0  0  0  0  0
    3.3349  -19.4747  -38.0328 C   0  0  0  0  0  0  0  0  0  0  0  0
    2.3106  -20.2079  -38.6423 C   0  0  0  0  0  0  0  0  0  0  0  0
    0.9999  -19.8199  -38.5499 C   0  0  0  0  0  0  0  0  0  0  0  0
    4.7148  -19.9224  -38.1553 C   0  0  0  0  0  0  0  0  0  0  0  0
    5.8480  -19.2666  -37.8882 N   0  0  0  0  0  0  0  0  0  0  0  0
    6.8901  -20.0729  -38.1470 N   0  0  0  0  0  0  0  0  0  0  0  0
    6.4191  -21.2307  -38.5754 N   0  0  0  0  0  0  0  0  0  0  0  0
    5.0874  -21.1400  -38.5795 N   0  0  0  0  0  0  0  0  0  0  0  0
    7.9048  -19.8445  -38.0367 H   0  0  0  0  0  0  0  0  0  0  0  0
    1.2313  -14.1442  -36.3851 C   0  0  0  0  0  0  0  0  0  0  0  0
    1.9069  -12.9337  -36.8698 C   0  0  0  0  0  0  0  0  0  0  0  0
    2.4491  -12.9028  -38.2255 C   0  0  0  0  0  0  0  0  0  0  0  0
    3.4157  -12.1113  -38.7024 N   0  0  0  0  0  0  0  0  0  0  0  0
    3.6337  -12.4364  -39.9667 C   0  0  0  0  0  0  0  0  0  0  0  0
    2.7984  -13.4356  -40.2802 N   0  0  0  0  0  0  0  0  0  0  0  0
    2.0839  -13.7146  -39.2241 N   0  0  0  0  0  0  0  0  0  0  0  0
    4.5777  -11.7992  -40.7436 C   0  0  0  0  0  0  0  0  0  0  0  0
    5.3086  -10.7859  -40.1509 C   0  0  0  0  0  0  0  0  0  0  0  0
    5.0758  -10.4567  -38.8433 C   0  0  0  0  0  0  0  0  0  0  0  0
    4.1284  -11.1243  -38.1247 C   0  0  0  0  0  0  0  0  0  0  0  0
  5  6  1  0  0  0
  6  7  2  0  0  0
  6 11  1  0  0  0
  7  8  1  0  0  0
  7  1  1  0  0  0
  8  9  2  0  0  0
  9 10  1  0  0  0
  9 12  1  0  0  0
 10 11  2  0  0  0
 12 13  2  0  0  0
 12 16  1  0  0  0
 13 14  1  0  0  0
 14 15  1  0  0  0
 15 16  2  0  0  0
  1  2  2  0  0  0
  1  3  1  0  0  0
  3 18  1  0  0  0
 18 19  1  0  0  0
 19 20  1  0  0  0
 20 21  1  0  0  0
 20 24  2  0  0  0
 21 22  1  0  0  0
 21 28  1  0  0  0
 22 23  2  0  0  0
 22 25  1  0  0  0
 23 24  1  0  0  0
 25 26  2  0  0  0
 26 27  1  0  0  0
 27 28  2  0  0  0
 14 17  1  0  0  0
  3  4  1  0  0  0
M  END
> <minimizedAffinity>
-7.13937

$$$$
2334


 30 33  0  0  0  0  0  0  0  0999 V2000
    0.0921  -15.9655  -39.6144 S   0  0  0  0  0  0  0  0  0  0  0  0
    0.7725  -15.6010  -40.9361 O   0  0  0  0  0  0  0  0  0  0  0  0
   -1.3874  -15.6460  -39.8586 O   0  0  0  0  0  0  0  0  0  0  0  0
    0.6554  -14.9371  -38.3657 C   0  0  0  0  0  0  0  0  0  0  0  0
    0.2029  -15.0233  -37.0719 C   0  0  0  0  0  0  0  0  0  0  0  0
    0.7459  -14.2058  -36.0919 C   0  0  0  0  0  0  0  0  0  0  0  0
    1.7523  -13.2828  -36.3895 C   0  0  0  0  0  0  0  0  0  0  0  0
    2.2132  -13.1838  -37.6831 C   0  0  0  0  0  0  0  0  0  0  0  0
    1.6626  -14.0033  -38.6401 C   0  0  0  0  0  0  0  0  0  0  0  0
   -1.1083  -16.0726  -36.5775 Cl  0  0  0  0  0  0  0  0  0  0  0  0
    3.2601  -12.2290  -38.0213 C   0  0  0  0  0  0  0  0  0  0  0  0
    3.8633  -11.3805  -37.1718 N   0  0  0  0  0  0  0  0  0  0  0  0
    4.7519  -10.6700  -37.8100 O   0  0  0  0  0  0  0  0  0  0  0  0
    4.7568  -11.0249  -39.0674 C   0  0  0  0  0  0  0  0  0  0  0  0
    3.8329  -11.9938  -39.2128 N   0  0  0  0  0  0  0  0  0  0  0  0
    5.6251  -10.4640  -40.1601 C   0  0  0  0  0  0  0  0  0  0  0  0
    0.3010  -17.6343  -39.4091 N   0  0  0  0  0  0  0  0  0  0  0  0
    1.1759  -18.0452  -38.3693 C   0  0  0  0  0  0  0  0  0  0  0  0
    1.2791  -19.5465  -38.2338 C   0  0  0  0  0  0  0  0  0  0  0  0
   -0.0718  -20.1465  -38.0467 C   0  0  0  0  0  0  0  0  0  0  0  0
   -1.0570  -19.6510  -39.0913 C   0  0  0  0  0  0  0  0  0  0  0  0
   -1.0436  -18.1623  -39.0983 C   0  0  0  0  0  0  0  0  0  0  0  0
    2.1114  -20.1913  -39.2694 C   0  0  0  0  0  0  0  0  0  0  0  0
    1.5227  -20.3891  -40.3959 O   0  0  0  0  0  0  0  0  0  0  0  0
    3.4347  -20.5955  -39.1616 N   0  0  0  0  0  0  0  0  0  0  0  0
    4.1373  -21.1772  -40.2621 C   0  0  0  0  0  0  0  0  0  0  0  0
    5.5879  -20.7880  -40.3276 C   0  0  0  0  0  0  0  0  0  0  0  0
    6.1467  -20.4061  -39.1482 O   0  0  0  0  0  0  0  0  0  0  0  0
    5.3808  -19.6038  -38.3281 C   0  0  0  0  0  0  0  0  0  0  0  0
    4.1725  -20.4672  -37.9287 C   0  0  0  0  0  0  0  0  0  0  0  0
  1  2  2  0  0  0
  1  3  2  0  0  0
  1 17  1  0  0  0
  1  4  1  0  0  0
 17 18  1  0  0  0
 17 22  1  0  0  0
 18 19  1  0  0  0
 19 20  1  0  0  0
 19 23  1  0  0  0
 20 21  1  0  0  0
 21 22  1  0  0  0
 23 24  2  0  0  0
 23 25  1  0  0  0
 25 26  1  0  0  0
 25 30  1  0  0  0
 26 27  1  0  0  0
 27 28  1  0  0  0
 28 29  1  0  0  0
 29 30  1  0  0  0
  4  5  2  0  0  0
  4  9  1  0  0  0
  5  6  1  0  0  0
  5 10  1  0  0  0
  6  7  2  0  0  0
  7  8  1  0  0  0
  8  9  2  0  0  0
  8 11  1  0  0  0
 11 12  2  0  0  0
 11 15  1  0  0  0
 12 13  1  0  0  0
 13 14  1  0  0  0
 14 15  2  0  0  0
 14 16  1  0  0  0
M  END
> <minimizedAffinity>
-6.94749

$$$$
2335


 35 38  0  0  0  0  0  0  0  0999 V2000
   -1.7948  -19.5824  -38.9968 N   0  0  0  0  0  0  0  0  0  0  0  0
   -2.1981  -20.8238  -38.4664 C   0  0  0  0  0  0  0  0  0  0  0  0
   -1.5943  -22.0136  -39.1806 C   0  0  0  0  0  0  0  0  0  0  0  0
   -1.2533  -21.7613  -40.5992 C   0  0  0  0  0  0  0  0  0  0  0  0
   -1.8644  -20.5688  -41.2395 C   0  0  0  0  0  0  0  0  0  0  0  0
   -2.0005  -19.3532  -40.3584 C   0  0  0  0  0  0  0  0  0  0  0  0
   -2.4779  -23.2024  -39.0707 C   0  0  0  0  0  0  0  0  0  0  0  0
   -3.5446  -23.2067  -39.7325 O   0  0  0  0  0  0  0  0  0  0  0  0
   -2.1074  -24.3142  -38.2247 N   0  0  0  0  0  0  0  0  0  0  0  0
   -1.2229  -24.2051  -37.7222 H   0  0  0  0  0  0  0  0  0  0  0  0
   -2.9973  -25.4161  -38.1697 C   0  0  0  0  0  0  0  0  0  0  0  0
   -2.6593  -26.6506  -38.9158 C   0  0  0  0  0  0  0  0  0  0  0  0
   -1.6925  -26.5922  -39.9482 N   0  0  0  0  0  0  0  0  0  0  0  0
   -2.1327  -26.4773  -41.2612 C   0  0  0  0  0  0  0  0  0  0  0  0
   -1.8553  -27.6409  -42.1686 C   0  0  0  0  0  0  0  0  0  0  0  0
   -0.6032  -28.1977  -41.9542 O   0  0  0  0  0  0  0  0  0  0  0  0
   -0.6113  -28.6982  -40.6525 C   0  0  0  0  0  0  0  0  0  0  0  0
   -0.5958  -27.5053  -39.7247 C   0  0  0  0  0  0  0  0  0  0  0  0
   -1.0342  -18.4700  -38.0241 S   0  0  0  0  0  0  0  0  0  0  0  0
   -1.7015  -18.4856  -36.6500 O   0  0  0  0  0  0  0  0  0  0  0  0
   -1.3441  -17.0749  -38.5529 O   0  0  0  0  0  0  0  0  0  0  0  0
    0.6765  -18.6181  -37.8596 C   0  0  0  0  0  0  0  0  0  0  0  0
    1.3668  -19.5775  -38.5846 C   0  0  0  0  0  0  0  0  0  0  0  0
    2.7298  -19.7275  -38.5002 C   0  0  0  0  0  0  0  0  0  0  0  0
    3.4505  -18.8812  -37.6492 C   0  0  0  0  0  0  0  0  0  0  0  0
    2.7663  -17.9464  -36.9441 C   0  0  0  0  0  0  0  0  0  0  0  0
    1.3921  -17.7961  -37.0310 C   0  0  0  0  0  0  0  0  0  0  0  0
    0.5272  -16.4320  -35.9746 Br  0  0  0  0  0  0  0  0  0  0  0  0
    4.9015  -19.2073  -37.7025 C   0  0  0  0  0  0  0  0  0  0  0  0
    4.8749  -20.6294  -38.2242 C   0  0  0  0  0  0  0  0  0  0  0  0
    3.6980  -20.5772  -39.0993 N   0  0  0  0  0  0  0  0  0  0  0  0
    3.6106  -21.2683  -40.3060 C   0  0  0  0  0  0  0  0  0  0  0  0
    4.6088  -21.9553  -40.7164 O   0  0  0  0  0  0  0  0  0  0  0  0
    2.4293  -21.2671  -41.1663 C   0  0  0  0  0  0  0  0  0  0  0  0
    2.3203  -22.5476  -41.9905 C   0  0  0  0  0  0  0  0  0  0  0  0
 19 20  2  0  0  0
 19 21  2  0  0  0
 19  1  1  0  0  0
 19 22  1  0  0  0
  1  2  1  0  0  0
  1  6  1  0  0  0
  2  3  1  0  0  0
  3  4  1  0  0  0
  3  7  1  0  0  0
  4  5  1  0  0  0
  5  6  1  0  0  0
  7  8  2  0  0  0
  7  9  1  0  0  0
  9 11  1  0  0  0
 11 12  1  0  0  0
 12 13  1  0  0  0
 13 14  1  0  0  0
 13 18  1  0  0  0
 14 15  1  0  0  0
 15 16  1  0  0  0
 16 17  1  0  0  0
 17 18  1  0  0  0
 22 23  2  0  0  0
 22 27  1  0  0  0
 23 24  1  0  0  0
 24 25  2  0  0  0
 24 31  1  0  0  0
 25 26  1  0  0  0
 25 29  1  0  0  0
 26 27  2  0  0  0
 27 28  1  0  0  0
 29 30  1  0  0  0
 30 31  1  0  0  0
 31 32  1  0  0  0
 32 33  2  0  0  0
 32 34  1  0  0  0
 34 35  1  0  0  0
  9 10  1  0  0  0
M  END
> <minimizedAffinity>
-6.10396

$$$$
2345


 27 30  0  0  0  0  0  0  0  0999 V2000
    2.1447  -17.7977  -36.8570 C   0  0  0  0  0  0  0  0  0  0  0  0
    2.8430  -17.5744  -35.7986 O   0  0  0  0  0  0  0  0  0  0  0  0
    2.4496  -18.9666  -37.5623 N   0  0  0  0  0  0  0  0  0  0  0  0
    3.5112  -19.8458  -37.0995 C   0  0  0  0  0  0  0  0  0  0  0  0
    4.5586  -20.0409  -38.1913 C   0  0  0  0  0  0  0  0  0  0  0  0
    3.9067  -20.0440  -39.4675 N   0  0  0  0  0  0  0  0  0  0  0  0
    2.5338  -20.4423  -39.5378 C   0  0  0  0  0  0  0  0  0  0  0  0
    1.7495  -19.3675  -38.7595 C   0  0  0  0  0  0  0  0  0  0  0  0
    1.6077  -14.5207  -37.6133 N   0  0  0  0  0  0  0  0  0  0  0  0
    1.5119  -15.8221  -38.2633 C   0  0  0  0  0  0  0  0  0  0  0  0
    1.1191  -16.8031  -37.1942 C   0  0  0  0  0  0  0  0  0  0  0  0
    0.5811  -16.0126  -36.0485 C   0  0  0  0  0  0  0  0  0  0  0  0
    0.7268  -14.6003  -36.4717 C   0  0  0  0  0  0  0  0  0  0  0  0
    0.2051  -13.5475  -35.9788 O   0  0  0  0  0  0  0  0  0  0  0  0
    4.9001   -9.7926  -39.2800 Cl  0  0  0  0  0  0  0  0  0  0  0  0
    3.9337  -11.1816  -38.7840 C   0  0  0  0  0  0  0  0  0  0  0  0
    3.5678  -11.3496  -37.4750 C   0  0  0  0  0  0  0  0  0  0  0  0
    2.8097  -12.4433  -37.0996 C   0  0  0  0  0  0  0  0  0  0  0  0
    2.3920  -13.3975  -38.0022 C   0  0  0  0  0  0  0  0  0  0  0  0
    2.7670  -13.2148  -39.3164 C   0  0  0  0  0  0  0  0  0  0  0  0
    3.5364  -12.1093  -39.7067 C   0  0  0  0  0  0  0  0  0  0  0  0
    4.5968  -19.6549  -40.6353 C   0  0  0  0  0  0  0  0  0  0  0  0
    5.4270  -20.4298  -41.3868 N   0  0  0  0  0  0  0  0  0  0  0  0
    5.8838  -19.7061  -42.4175 C   0  0  0  0  0  0  0  0  0  0  0  0
    5.3429  -18.4451  -42.3304 C   0  0  0  0  0  0  0  0  0  0  0  0
    4.5802  -18.4565  -41.2515 N   0  0  0  0  0  0  0  0  0  0  0  0
    5.7670  -21.8313  -41.1077 C   0  0  0  0  0  0  0  0  0  0  0  0
 15 16  1  0  0  0
 16 17  2  0  0  0
 16 21  1  0  0  0
 17 18  1  0  0  0
 18 19  2  0  0  0
 19 20  1  0  0  0
 19  9  1  0  0  0
 20 21  2  0  0  0
  9 10  1  0  0  0
  9 13  1  0  0  0
 10 11  1  0  0  0
 11 12  1  0  0  0
 11  1  1  0  0  0
 12 13  1  0  0  0
 13 14  2  0  0  0
  1  2  2  0  0  0
  1  3  1  0  0  0
  3  4  1  0  0  0
  3  8  1  0  0  0
  4  5  1  0  0  0
  5  6  1  0  0  0
  6  7  1  0  0  0
  6 22  1  0  0  0
  7  8  1  0  0  0
 22 23  1  0  0  0
 22 26  2  0  0  0
 23 24  1  0  0  0
 23 27  1  0  0  0
 24 25  2  0  0  0
 25 26  1  0  0  0
M  END
> <minimizedAffinity>
-7.18812

$$$$
2349


 28 31  0  0  0  0  0  0  0  0999 V2000
    1.0383  -17.8788  -37.9219 N   0  0  0  0  0  0  0  0  0  0  0  0
   -0.0513  -18.8109  -37.8651 C   0  0  0  0  0  0  0  0  0  0  0  0
    0.2043  -20.0478  -37.8906 O   0  0  0  0  0  0  0  0  0  0  0  0
   -1.3559  -18.2641  -37.7825 N   0  0  0  0  0  0  0  0  0  0  0  0
   -1.6302  -17.0354  -37.7646 C   0  0  0  0  0  0  0  0  0  0  0  0
   -0.6324  -15.9127  -37.8346 C   0  0  0  0  0  0  0  0  0  0  0  0
   -0.9170  -15.2363  -39.1459 C   0  0  0  0  0  0  0  0  0  0  0  0
   -0.5331  -13.8842  -39.2769 N   0  0  0  0  0  0  0  0  0  0  0  0
   -0.7522  -13.0601  -38.1479 C   0  0  0  0  0  0  0  0  0  0  0  0
   -0.9002  -13.6156  -36.9178 C   0  0  0  0  0  0  0  0  0  0  0  0
   -1.1125  -12.7722  -35.8305 C   0  0  0  0  0  0  0  0  0  0  0  0
   -1.1693  -11.4062  -36.0190 C   0  0  0  0  0  0  0  0  0  0  0  0
   -1.0189  -10.8401  -37.2759 C   0  0  0  0  0  0  0  0  0  0  0  0
   -0.8067  -11.6958  -38.3554 C   0  0  0  0  0  0  0  0  0  0  0  0
   -1.4069  -10.4737  -34.8717 C   0  0  0  0  0  0  0  0  0  0  0  0
   -0.8473  -15.0672  -36.6387 C   0  0  0  0  0  0  0  0  0  0  0  0
    0.8087  -13.6618  -39.7931 C   0  0  0  0  0  0  0  0  0  0  0  0
    0.7302  -16.4970  -37.8804 C   0  0  0  0  0  0  0  0  0  0  0  0
    1.7627  -15.7349  -37.8821 O   0  0  0  0  0  0  0  0  0  0  0  0
   -2.9682  -16.6086  -37.6731 O   0  0  0  0  0  0  0  0  0  0  0  0
   -1.1638  -13.4616  -40.0318 H   0  0  0  0  0  0  0  0  0  0  0  0
    6.5847  -20.1783  -38.3569 Cl  0  0  0  0  0  0  0  0  0  0  0  0
    4.9697  -19.5019  -38.2600 C   0  0  0  0  0  0  0  0  0  0  0  0
    4.4214  -19.1377  -37.0298 C   0  0  0  0  0  0  0  0  0  0  0  0
    3.1596  -18.6158  -36.9346 C   0  0  0  0  0  0  0  0  0  0  0  0
    2.3407  -18.4137  -38.0474 C   0  0  0  0  0  0  0  0  0  0  0  0
    2.8949  -18.7773  -39.2638 C   0  0  0  0  0  0  0  0  0  0  0  0
    4.1613  -19.3018  -39.3619 C   0  0  0  0  0  0  0  0  0  0  0  0
 22 23  1  0  0  0
 23 24  2  0  0  0
 23 28  1  0  0  0
 24 25  1  0  0  0
 25 26  2  0  0  0
 26 27  1  0  0  0
 26  1  1  0  0  0
 27 28  2  0  0  0
  1  2  1  0  0  0
  1 18  1  0  0  0
  2  3  2  0  0  0
  2  4  1  0  0  0
  4  5  2  0  0  0
  5  6  1  0  0  0
  5 20  1  0  0  0
  6  7  1  0  0  0
  6 16  1  0  0  0
  6 18  1  0  0  0
  7  8  1  0  0  0
  8  9  1  0  0  0
  8 17  1  0  0  0
  9 10  2  0  0  0
  9 14  1  0  0  0
 10 11  1  0  0  0
 10 16  1  0  0  0
 11 12  2  0  0  0
 12 13  1  0  0  0
 12 15  1  0  0  0
 13 14  2  0  0  0
 18 19  2  0  0  0
  8 21  1  0  0  0
M  CHG 1   8   1
M  CHG 1  20  -1
M  END
> <minimizedAffinity>
-6.46384

$$$$
2350


 23 26  0  0  0  0  0  0  0  0999 V2000
    2.8579  -18.8937  -37.8258 N   0  0  0  0  0  0  0  0  0  0  0  0
    2.4100  -20.0437  -38.5617 C   0  0  0  0  0  0  0  0  0  0  0  0
    1.2606  -20.1395  -39.0603 O   0  0  0  0  0  0  0  0  0  0  0  0
    3.4811  -21.0683  -38.6384 C   0  0  0  0  0  0  0  0  0  0  0  0
    3.9669  -21.3289  -40.0273 C   0  0  0  0  0  0  0  0  0  0  0  0
    3.8116  -20.0415  -40.8093 C   0  0  0  0  0  0  0  0  0  0  0  0
    4.8065  -19.1299  -40.0927 C   0  0  0  0  0  0  0  0  0  0  0  0
    5.5225  -20.0022  -39.0880 C   0  0  0  0  0  0  0  0  0  0  0  0
    4.6638  -20.3978  -37.9282 C   0  0  0  0  0  0  0  0  0  0  0  0
    4.0734  -19.2554  -37.1897 C   0  0  0  0  0  0  0  0  0  0  0  0
    4.5901  -18.7250  -36.1759 O   0  0  0  0  0  0  0  0  0  0  0  0
    5.4976  -21.3303  -39.8782 C   0  0  0  0  0  0  0  0  0  0  0  0
    5.7855  -18.6721  -40.9722 O   0  0  0  0  0  0  0  0  0  0  0  0
    4.2903  -20.2604  -42.0830 O   0  0  0  0  0  0  0  0  0  0  0  0
    5.4656  -17.7942  -41.3400 H   0  0  0  0  0  0  0  0  0  0  0  0
    3.9982  -21.1039  -42.5000 H   0  0  0  0  0  0  0  0  0  0  0  0
    0.3326  -13.4696  -37.4465 Cl  0  0  0  0  0  0  0  0  0  0  0  0
    1.0680  -15.0684  -37.5434 C   0  0  0  0  0  0  0  0  0  0  0  0
    1.5097  -15.5642  -38.7554 C   0  0  0  0  0  0  0  0  0  0  0  0
    2.0888  -16.8067  -38.8534 C   0  0  0  0  0  0  0  0  0  0  0  0
    2.2507  -17.6133  -37.7204 C   0  0  0  0  0  0  0  0  0  0  0  0
    1.7997  -17.0870  -36.5326 C   0  0  0  0  0  0  0  0  0  0  0  0
    1.2175  -15.8483  -36.4055 C   0  0  0  0  0  0  0  0  0  0  0  0
 17 18  1  0  0  0
 18 19  2  0  0  0
 18 23  1  0  0  0
 19 20  1  0  0  0
 20 21  2  0  0  0
 21 22  1  0  0  0
 21  1  1  0  0  0
 22 23  2  0  0  0
  1  2  1  0  0  0
  1 10  1  0  0  0
  2  3  2  0  0  0
  2  4  1  0  0  0
  4  5  1  0  0  0
  4  9  1  0  0  0
  5  6  1  0  0  0
  5 12  1  0  0  0
  6  7  1  0  0  0
  6 14  1  0  0  0
  7  8  1  0  0  0
  7 13  1  0  0  0
  8  9  1  0  0  0
  8 12  1  0  0  0
  9 10  1  0  0  0
 10 11  2  0  0  0
 13 15  1  0  0  0
 14 16  1  0  0  0
M  END
> <minimizedAffinity>
-6.08831

$$$$
2357


 36 39  0  0  0  0  0  0  0  0999 V2000
   -0.2514  -14.1713  -36.5934 C   0  0  0  0  0  0  0  0  0  0  0  0
    1.0296  -14.2637  -36.2944 C   0  0  0  0  0  0  0  0  0  0  0  0
    1.6321  -12.9092  -36.2174 C   0  0  0  0  0  0  0  0  0  0  0  0
    0.4846  -12.0618  -36.0497 N   0  0  0  0  0  0  0  0  0  0  0  0
   -0.5252  -12.7792  -36.7090 N   0  0  0  0  0  0  0  0  0  0  0  0
    0.5982  -11.1033  -36.3752 H   0  0  0  0  0  0  0  0  0  0  0  0
   -1.3346  -12.3462  -37.1967 H   0  0  0  0  0  0  0  0  0  0  0  0
    0.0077  -17.0807  -38.0654 N   0  0  0  0  0  0  0  0  0  0  0  0
   -0.5510  -16.5721  -39.2683 C   0  0  0  0  0  0  0  0  0  0  0  0
   -0.0992  -17.0492  -40.3673 O   0  0  0  0  0  0  0  0  0  0  0  0
   -1.5501  -15.5943  -39.2381 N   0  0  0  0  0  0  0  0  0  0  0  0
   -2.0289  -15.0876  -38.0083 C   0  0  0  0  0  0  0  0  0  0  0  0
   -3.1096  -14.4696  -37.9532 O   0  0  0  0  0  0  0  0  0  0  0  0
   -1.2413  -15.2894  -36.7715 C   0  0  0  0  0  0  0  0  0  0  0  0
   -0.4831  -16.5616  -36.8384 C   0  0  0  0  0  0  0  0  0  0  0  0
   -0.2753  -17.1880  -35.7848 O   0  0  0  0  0  0  0  0  0  0  0  0
   -1.9329  -15.2515  -40.1664 H   0  0  0  0  0  0  0  0  0  0  0  0
    4.3212  -21.2224  -38.2585 Cl  0  0  0  0  0  0  0  0  0  0  0  0
    3.0465  -19.9975  -38.2020 C   0  0  0  0  0  0  0  0  0  0  0  0
    3.3340  -18.6946  -37.8810 C   0  0  0  0  0  0  0  0  0  0  0  0
    2.3267  -17.7520  -37.8421 C   0  0  0  0  0  0  0  0  0  0  0  0
    1.0226  -18.0739  -38.1175 C   0  0  0  0  0  0  0  0  0  0  0  0
    0.7364  -19.3719  -38.4366 C   0  0  0  0  0  0  0  0  0  0  0  0
    1.7459  -20.3425  -38.4819 C   0  0  0  0  0  0  0  0  0  0  0  0
    2.3969  -12.6677  -37.4353 C   0  0  0  0  0  0  0  0  0  0  0  0
    3.2701  -11.6015  -37.4619 C   0  0  0  0  0  0  0  0  0  0  0  0
    4.0404  -11.2914  -38.5644 C   0  0  0  0  0  0  0  0  0  0  0  0
    3.9151  -12.1067  -39.6969 C   0  0  0  0  0  0  0  0  0  0  0  0
    3.0550  -13.1829  -39.7189 C   0  0  0  0  0  0  0  0  0  0  0  0
    2.3168  -13.4321  -38.5791 C   0  0  0  0  0  0  0  0  0  0  0  0
    4.6621  -11.8385  -40.8217 O   0  0  0  0  0  0  0  0  0  0  0  0
    5.2995  -11.0540  -40.8271 H   0  0  0  0  0  0  0  0  0  0  0  0
    2.9697  -13.9435  -40.8467 O   0  0  0  0  0  0  0  0  0  0  0  0
    1.8021  -14.3006  -41.5274 C   0  0  0  0  0  0  0  0  0  0  0  0
    4.9236  -10.2202  -38.6010 O   0  0  0  0  0  0  0  0  0  0  0  0
    4.3595   -8.9336  -38.7527 C   0  0  0  0  0  0  0  0  0  0  0  0
 18 19  1  0  0  0
 19 20  2  0  0  0
 19 24  1  0  0  0
 20 21  1  0  0  0
 21 22  2  0  0  0
 22 23  1  0  0  0
 22  8  1  0  0  0
 23 24  2  0  0  0
  8  9  1  0  0  0
  8 15  1  0  0  0
  9 10  2  0  0  0
  9 11  1  0  0  0
 11 12  1  0  0  0
 12 13  2  0  0  0
 12 14  1  0  0  0
 14 15  1  0  0  0
 14  1  1  0  0  0
 15 16  2  0  0  0
  1  2  2  0  0  0
  1  5  1  0  0  0
  2  3  1  0  0  0
  3  4  1  0  0  0
  3 25  1  0  0  0
  4  5  1  0  0  0
 25 26  2  0  0  0
 25 30  1  0  0  0
 26 27  1  0  0  0
 27 28  2  0  0  0
 27 35  1  0  0  0
 28 29  1  0  0  0
 28 31  1  0  0  0
 29 30  2  0  0  0
 29 33  1  0  0  0
 33 34  1  0  0  0
 35 36  1  0  0  0
 11 17  1  0  0  0
  4  6  1  0  0  0
  5  7  1  0  0  0
 31 32  1  0  0  0
M  END
> <minimizedAffinity>
-6.70436

$$$$
2358


 34 37  0  0  0  0  0  0  0  0999 V2000
   -0.2570  -12.0631  -37.0034 N   0  0  0  0  0  0  0  0  0  0  0  0
   -0.2947  -11.8197  -38.4027 C   0  0  0  0  0  0  0  0  0  0  0  0
   -1.2443  -11.1200  -38.8627 O   0  0  0  0  0  0  0  0  0  0  0  0
    0.6928  -12.3375  -39.2708 N   0  0  0  0  0  0  0  0  0  0  0  0
    1.7564  -13.1201  -38.7641 C   0  0  0  0  0  0  0  0  0  0  0  0
    2.7532  -13.4464  -39.4987 O   0  0  0  0  0  0  0  0  0  0  0  0
    1.7679  -13.5914  -37.3797 C   0  0  0  0  0  0  0  0  0  0  0  0
    0.8245  -12.8529  -36.5305 C   0  0  0  0  0  0  0  0  0  0  0  0
    0.9585  -12.9020  -35.2590 O   0  0  0  0  0  0  0  0  0  0  0  0
    0.6464  -12.1459  -40.3054 H   0  0  0  0  0  0  0  0  0  0  0  0
   -4.3259   -9.8764  -33.2274 Cl  0  0  0  0  0  0  0  0  0  0  0  0
   -3.1405  -10.5351  -34.3396 C   0  0  0  0  0  0  0  0  0  0  0  0
   -3.3032  -11.7963  -34.8937 C   0  0  0  0  0  0  0  0  0  0  0  0
   -2.3645  -12.2804  -35.7540 C   0  0  0  0  0  0  0  0  0  0  0  0
   -1.2339  -11.5530  -36.1056 C   0  0  0  0  0  0  0  0  0  0  0  0
   -1.0764  -10.3014  -35.5531 C   0  0  0  0  0  0  0  0  0  0  0  0
   -2.0246   -9.7828  -34.6684 C   0  0  0  0  0  0  0  0  0  0  0  0
    1.5341  -15.0653  -37.3335 C   0  0  0  0  0  0  0  0  0  0  0  0
    1.2160  -15.8648  -38.3165 C   0  0  0  0  0  0  0  0  0  0  0  0
    1.0989  -17.2309  -37.7501 C   0  0  0  0  0  0  0  0  0  0  0  0
    0.9501  -17.0075  -36.3279 N   0  0  0  0  0  0  0  0  0  0  0  0
    1.6421  -15.8084  -36.1242 N   0  0  0  0  0  0  0  0  0  0  0  0
   -0.0582  -16.9222  -36.0566 H   0  0  0  0  0  0  0  0  0  0  0  0
    2.1303  -15.5602  -35.2250 H   0  0  0  0  0  0  0  0  0  0  0  0
    2.3321  -18.0199  -38.0224 C   0  0  0  0  0  0  0  0  0  0  0  0
    2.7269  -18.3501  -39.2987 C   0  0  0  0  0  0  0  0  0  0  0  0
    3.8692  -19.0832  -39.5621 C   0  0  0  0  0  0  0  0  0  0  0  0
    4.6645  -19.5136  -38.5245 C   0  0  0  0  0  0  0  0  0  0  0  0
    4.2881  -19.1936  -37.2435 C   0  0  0  0  0  0  0  0  0  0  0  0
    3.1479  -18.4629  -36.9919 C   0  0  0  0  0  0  0  0  0  0  0  0
    4.2141  -19.3840  -40.8658 O   0  0  0  0  0  0  0  0  0  0  0  0
    3.6509  -19.0820  -41.6357 H   0  0  0  0  0  0  0  0  0  0  0  0
    5.8094  -20.2467  -38.7650 O   0  0  0  0  0  0  0  0  0  0  0  0
    5.7433  -21.6541  -38.7889 C   0  0  0  0  0  0  0  0  0  0  0  0
 11 12  1  0  0  0
 12 13  2  0  0  0
 12 17  1  0  0  0
 13 14  1  0  0  0
 14 15  2  0  0  0
 15 16  1  0  0  0
 15  1  1  0  0  0
 16 17  2  0  0  0
  1  2  1  0  0  0
  1  8  1  0  0  0
  2  3  2  0  0  0
  2  4  1  0  0  0
  4  5  1  0  0  0
  5  6  2  0  0  0
  5  7  1  0  0  0
  7  8  1  0  0  0
  7 18  1  0  0  0
  8  9  2  0  0  0
 18 19  2  0  0  0
 18 22  1  0  0  0
 19 20  1  0  0  0
 20 21  1  0  0  0
 20 25  1  0  0  0
 21 22  1  0  0  0
 25 26  2  0  0  0
 25 30  1  0  0  0
 26 27  1  0  0  0
 27 28  2  0  0  0
 27 31  1  0  0  0
 28 29  1  0  0  0
 28 33  1  0  0  0
 29 30  2  0  0  0
 33 34  1  0  0  0
  4 10  1  0  0  0
 21 23  1  0  0  0
 22 24  1  0  0  0
 31 32  1  0  0  0
M  END
> <minimizedAffinity>
-7.06651

$$$$
2359


 32 35  0  0  0  0  0  0  0  0999 V2000
    3.8314  -20.1031  -39.5236 N   0  0  0  0  0  0  0  0  0  0  0  0
    3.9515  -20.6768  -38.2121 C   0  0  0  0  0  0  0  0  0  0  0  0
    4.4722  -21.8211  -38.0356 O   0  0  0  0  0  0  0  0  0  0  0  0
    3.4604  -19.9015  -37.1290 N   0  0  0  0  0  0  0  0  0  0  0  0
    2.8720  -18.6015  -37.3590 C   0  0  0  0  0  0  0  0  0  0  0  0
    2.8821  -17.8096  -36.4081 O   0  0  0  0  0  0  0  0  0  0  0  0
    2.3120  -18.2946  -38.6609 C   0  0  0  0  0  0  0  0  0  0  0  0
    3.2473  -18.8220  -39.6993 C   0  0  0  0  0  0  0  0  0  0  0  0
    3.5597  -18.1945  -40.7431 O   0  0  0  0  0  0  0  0  0  0  0  0
    3.5380  -20.2974  -36.1756 H   0  0  0  0  0  0  0  0  0  0  0  0
    5.8159  -23.4000  -44.1233 Cl  0  0  0  0  0  0  0  0  0  0  0  0
    5.2840  -22.4252  -42.7843 C   0  0  0  0  0  0  0  0  0  0  0  0
    3.9484  -22.4939  -42.4127 C   0  0  0  0  0  0  0  0  0  0  0  0
    3.5028  -21.7286  -41.3514 C   0  0  0  0  0  0  0  0  0  0  0  0
    4.3288  -20.8878  -40.6310 C   0  0  0  0  0  0  0  0  0  0  0  0
    5.6544  -20.8338  -41.0157 C   0  0  0  0  0  0  0  0  0  0  0  0
    6.1362  -21.5847  -42.0725 C   0  0  0  0  0  0  0  0  0  0  0  0
    1.8937  -16.9351  -38.9154 C   0  0  0  0  0  0  0  0  0  0  0  0
    1.8577  -15.9096  -38.0958 C   0  0  0  0  0  0  0  0  0  0  0  0
    1.3583  -14.6908  -38.7786 C   0  0  0  0  0  0  0  0  0  0  0  0
    1.3645  -15.0807  -40.1696 N   0  0  0  0  0  0  0  0  0  0  0  0
    1.4106  -16.4728  -40.1942 N   0  0  0  0  0  0  0  0  0  0  0  0
    2.1327  -14.6324  -40.7138 H   0  0  0  0  0  0  0  0  0  0  0  0
    1.1280  -17.0309  -41.0270 H   0  0  0  0  0  0  0  0  0  0  0  0
    2.2544  -13.5380  -38.6316 C   0  0  0  0  0  0  0  0  0  0  0  0
    2.9921  -13.1383  -39.7355 C   0  0  0  0  0  0  0  0  0  0  0  0
    3.8404  -12.0611  -39.6318 C   0  0  0  0  0  0  0  0  0  0  0  0
    3.9799  -11.3620  -38.4556 C   0  0  0  0  0  0  0  0  0  0  0  0
    3.2559  -11.7460  -37.3514 C   0  0  0  0  0  0  0  0  0  0  0  0
    2.3968  -12.8399  -37.4606 C   0  0  0  0  0  0  0  0  0  0  0  0
    4.5905  -11.6465  -40.7402 O   0  0  0  0  0  0  0  0  0  0  0  0
    4.4995  -12.1460  -41.6075 H   0  0  0  0  0  0  0  0  0  0  0  0
 11 12  1  0  0  0
 12 13  2  0  0  0
 12 17  1  0  0  0
 13 14  1  0  0  0
 14 15  2  0  0  0
 15 16  1  0  0  0
 15  1  1  0  0  0
 16 17  2  0  0  0
  1  2  1  0  0  0
  1  8  1  0  0  0
  2  3  2  0  0  0
  2  4  1  0  0  0
  4  5  1  0  0  0
  5  6  2  0  0  0
  5  7  1  0  0  0
  7  8  1  0  0  0
  7 18  1  0  0  0
  8  9  2  0  0  0
 18 19  2  0  0  0
 18 22  1  0  0  0
 19 20  1  0  0  0
 20 21  1  0  0  0
 20 25  1  0  0  0
 21 22  1  0  0  0
 25 26  2  0  0  0
 25 30  1  0  0  0
 26 27  1  0  0  0
 27 28  2  0  0  0
 27 31  1  0  0  0
 28 29  1  0  0  0
 29 30  2  0  0  0
  4 10  1  0  0  0
 21 23  1  0  0  0
 22 24  1  0  0  0
 31 32  1  0  0  0
M  END
> <minimizedAffinity>
-7.38553

$$$$
2361


 30 33  0  0  0  0  0  0  0  0999 V2000
    0.4955  -15.5073  -37.4699 N   0  0  0  0  0  0  0  0  0  0  0  0
   -0.8576  -15.4288  -37.8793 C   0  0  0  0  0  0  0  0  0  0  0  0
   -1.2961  -14.3814  -38.4168 O   0  0  0  0  0  0  0  0  0  0  0  0
   -1.7137  -16.5655  -37.6703 N   0  0  0  0  0  0  0  0  0  0  0  0
   -1.2200  -17.7513  -37.0628 C   0  0  0  0  0  0  0  0  0  0  0  0
   -2.0302  -18.5849  -36.5863 O   0  0  0  0  0  0  0  0  0  0  0  0
    0.2323  -17.9819  -37.0024 C   0  0  0  0  0  0  0  0  0  0  0  0
    0.9539  -16.7048  -36.8669 C   0  0  0  0  0  0  0  0  0  0  0  0
    2.0357  -16.6584  -36.1851 O   0  0  0  0  0  0  0  0  0  0  0  0
   -2.7163  -16.5513  -37.9562 H   0  0  0  0  0  0  0  0  0  0  0  0
    4.2285  -10.8568  -38.3063 Cl  0  0  0  0  0  0  0  0  0  0  0  0
    3.1387  -12.2097  -38.0555 C   0  0  0  0  0  0  0  0  0  0  0  0
    2.5233  -12.4165  -36.8392 C   0  0  0  0  0  0  0  0  0  0  0  0
    1.6620  -13.4899  -36.6444 C   0  0  0  0  0  0  0  0  0  0  0  0
    1.3910  -14.3850  -37.6566 C   0  0  0  0  0  0  0  0  0  0  0  0
    2.0071  -14.1748  -38.8704 C   0  0  0  0  0  0  0  0  0  0  0  0
    2.8640  -13.1070  -39.0653 C   0  0  0  0  0  0  0  0  0  0  0  0
    0.7086  -18.7161  -38.2224 C   0  0  0  0  0  0  0  0  0  0  0  0
    0.9943  -19.9860  -38.3465 C   0  0  0  0  0  0  0  0  0  0  0  0
    1.4243  -20.2529  -39.7280 C   0  0  0  0  0  0  0  0  0  0  0  0
    1.0119  -19.0840  -40.4522 N   0  0  0  0  0  0  0  0  0  0  0  0
    0.9145  -18.0820  -39.4739 N   0  0  0  0  0  0  0  0  0  0  0  0
    0.1259  -19.2187  -40.9484 H   0  0  0  0  0  0  0  0  0  0  0  0
    0.9904  -17.0656  -39.7070 H   0  0  0  0  0  0  0  0  0  0  0  0
    2.9067  -20.3488  -39.7116 C   0  0  0  0  0  0  0  0  0  0  0  0
    3.6339  -20.0255  -40.8321 C   0  0  0  0  0  0  0  0  0  0  0  0
    4.9928  -20.1118  -40.8238 N   0  0  0  0  0  0  0  0  0  0  0  0
    5.6840  -20.5095  -39.7436 C   0  0  0  0  0  0  0  0  0  0  0  0
    4.9868  -20.8412  -38.6040 C   0  0  0  0  0  0  0  0  0  0  0  0
    3.5869  -20.7578  -38.5956 C   0  0  0  0  0  0  0  0  0  0  0  0
 11 12  1  0  0  0
 12 13  2  0  0  0
 12 17  1  0  0  0
 13 14  1  0  0  0
 14 15  2  0  0  0
 15 16  1  0  0  0
 15  1  1  0  0  0
 16 17  2  0  0  0
  1  2  1  0  0  0
  1  8  1  0  0  0
  2  3  2  0  0  0
  2  4  1  0  0  0
  4  5  1  0  0  0
  5  6  2  0  0  0
  5  7  1  0  0  0
  7  8  1  0  0  0
  7 18  1  0  0  0
  8  9  2  0  0  0
 18 19  2  0  0  0
 18 22  1  0  0  0
 19 20  1  0  0  0
 20 21  1  0  0  0
 20 25  1  0  0  0
 21 22  1  0  0  0
 25 26  2  0  0  0
 25 30  1  0  0  0
 26 27  1  0  0  0
 27 28  2  0  0  0
 28 29  1  0  0  0
 29 30  2  0  0  0
  4 10  1  0  0  0
 21 23  1  0  0  0
 22 24  1  0  0  0
M  END
> <minimizedAffinity>
-6.53797

$$$$
2363


 33 36  0  0  0  0  0  0  0  0999 V2000
    0.0803  -14.3024  -37.4760 N   0  0  0  0  0  0  0  0  0  0  0  0
    0.2327  -15.6239  -36.9810 C   0  0  0  0  0  0  0  0  0  0  0  0
   -1.0087  -16.3729  -36.8553 C   0  0  0  0  0  0  0  0  0  0  0  0
   -2.2304  -15.8218  -37.0987 C   0  0  0  0  0  0  0  0  0  0  0  0
   -3.3919  -16.6002  -36.9350 C   0  0  0  0  0  0  0  0  0  0  0  0
   -3.3580  -17.9123  -36.5356 C   0  0  0  0  0  0  0  0  0  0  0  0
   -2.1072  -18.4562  -36.2933 C   0  0  0  0  0  0  0  0  0  0  0  0
   -0.9834  -17.7112  -36.4487 C   0  0  0  0  0  0  0  0  0  0  0  0
   -2.3806  -14.4648  -37.5462 N   0  0  0  0  0  0  0  0  0  0  0  0
   -1.1808  -13.7381  -37.7204 C   0  0  0  0  0  0  0  0  0  0  0  0
   -1.2284  -12.5271  -38.1129 O   0  0  0  0  0  0  0  0  0  0  0  0
    0.7485  -15.4452  -35.6487 O   0  0  0  0  0  0  0  0  0  0  0  0
   -3.3258  -14.0790  -37.7183 H   0  0  0  0  0  0  0  0  0  0  0  0
    1.3174  -16.2222  -35.4084 H   0  0  0  0  0  0  0  0  0  0  0  0
    4.9570  -10.9988  -38.6595 Cl  0  0  0  0  0  0  0  0  0  0  0  0
    3.5214  -11.9728  -38.3199 C   0  0  0  0  0  0  0  0  0  0  0  0
    3.0685  -12.0683  -37.0235 C   0  0  0  0  0  0  0  0  0  0  0  0
    1.9391  -12.8335  -36.7495 C   0  0  0  0  0  0  0  0  0  0  0  0
    1.2737  -13.4907  -37.7500 C   0  0  0  0  0  0  0  0  0  0  0  0
    1.7510  -13.3766  -39.0373 C   0  0  0  0  0  0  0  0  0  0  0  0
    2.8707  -12.6242  -39.3451 C   0  0  0  0  0  0  0  0  0  0  0  0
    1.2843  -16.3825  -37.7056 C   0  0  0  0  0  0  0  0  0  0  0  0
    2.3222  -16.7085  -37.1266 O   0  0  0  0  0  0  0  0  0  0  0  0
    1.0511  -16.7079  -39.0549 N   0  0  0  0  0  0  0  0  0  0  0  0
    0.1635  -16.4324  -39.5599 H   0  0  0  0  0  0  0  0  0  0  0  0
    2.0174  -17.4524  -39.8633 C   0  0  0  0  0  0  0  0  0  0  0  0
    1.7066  -18.8980  -39.9361 C   0  0  0  0  0  0  0  0  0  0  0  0
    2.6833  -19.7998  -39.4618 N   0  0  0  0  0  0  0  0  0  0  0  0
    3.0332  -20.9022  -40.2588 C   0  0  0  0  0  0  0  0  0  0  0  0
    4.2836  -21.5567  -39.6645 C   0  0  0  0  0  0  0  0  0  0  0  0
    4.2670  -21.4543  -38.2619 O   0  0  0  0  0  0  0  0  0  0  0  0
    4.4945  -20.1438  -37.8483 C   0  0  0  0  0  0  0  0  0  0  0  0
    3.8084  -19.2159  -38.8136 C   0  0  0  0  0  0  0  0  0  0  0  0
 15 16  1  0  0  0
 16 17  2  0  0  0
 16 21  1  0  0  0
 17 18  1  0  0  0
 18 19  2  0  0  0
 19 20  1  0  0  0
 19  1  1  0  0  0
 20 21  2  0  0  0
  1  2  1  0  0  0
  1 10  1  0  0  0
  2  3  1  0  0  0
  2 12  1  0  0  0
  2 22  1  0  0  0
  3  4  1  0  0  0
  3  8  2  0  0  0
  4  5  2  0  0  0
  4  9  1  0  0  0
  5  6  1  0  0  0
  6  7  2  0  0  0
  7  8  1  0  0  0
  9 10  1  0  0  0
 10 11  2  0  0  0
 22 23  2  0  0  0
 22 24  1  0  0  0
 24 26  1  0  0  0
 26 27  1  0  0  0
 27 28  1  0  0  0
 28 29  1  0  0  0
 28 33  1  0  0  0
 29 30  1  0  0  0
 30 31  1  0  0  0
 31 32  1  0  0  0
 32 33  1  0  0  0
  9 13  1  0  0  0
 12 14  1  0  0  0
 24 25  1  0  0  0
M  END
> <minimizedAffinity>
-6.58211

$$$$
2364


 33 37  0  0  0  0  0  0  0  0999 V2000
    0.5366  -15.4750  -36.8933 N   0  0  0  0  0  0  0  0  0  0  0  0
   -0.8152  -15.3712  -37.3227 C   0  0  0  0  0  0  0  0  0  0  0  0
   -1.4487  -14.2835  -37.1333 O   0  0  0  0  0  0  0  0  0  0  0  0
   -1.5372  -16.4625  -37.9847 C   0  0  0  0  0  0  0  0  0  0  0  0
   -0.8728  -17.7235  -37.9643 N   0  0  0  0  0  0  0  0  0  0  0  0
    0.5530  -17.6927  -38.0065 C   0  0  0  0  0  0  0  0  0  0  0  0
    1.1729  -17.6667  -39.3823 C   0  0  0  0  0  0  0  0  0  0  0  0
    1.6691  -18.9893  -39.1784 N   0  0  0  0  0  0  0  0  0  0  0  0
    1.0947  -19.1081  -37.8970 C   0  0  0  0  0  0  0  0  0  0  0  0
    1.1645  -16.7430  -37.0409 C   0  0  0  0  0  0  0  0  0  0  0  0
    2.1911  -17.0109  -36.3663 O   0  0  0  0  0  0  0  0  0  0  0  0
   -1.3025  -18.4390  -36.7975 C   0  0  0  0  0  0  0  0  0  0  0  0
   -2.3362  -17.6052  -36.0942 C   0  0  0  0  0  0  0  0  0  0  0  0
   -2.8249  -16.6902  -37.1803 C   0  0  0  0  0  0  0  0  0  0  0  0
   -3.3563  -18.3642  -35.5369 O   0  0  0  0  0  0  0  0  0  0  0  0
   -3.0806  -18.5962  -34.6170 H   0  0  0  0  0  0  0  0  0  0  0  0
    1.2566  -14.3490  -36.3254 C   0  0  0  0  0  0  0  0  0  0  0  0
    4.3641  -10.3806  -37.7048 Cl  0  0  0  0  0  0  0  0  0  0  0  0
    3.4465  -11.8171  -38.0999 C   0  0  0  0  0  0  0  0  0  0  0  0
    2.7440  -12.4963  -37.1256 C   0  0  0  0  0  0  0  0  0  0  0  0
    2.0140  -13.6290  -37.4070 C   0  0  0  0  0  0  0  0  0  0  0  0
    1.9974  -14.0804  -38.7082 C   0  0  0  0  0  0  0  0  0  0  0  0
    2.6937  -13.4018  -39.6582 C   0  0  0  0  0  0  0  0  0  0  0  0
    3.4295  -12.2681  -39.3982 C   0  0  0  0  0  0  0  0  0  0  0  0
    1.4508  -19.9755  -40.1728 C   0  0  0  0  0  0  0  0  0  0  0  0
    2.6290  -20.7434  -40.5918 C   0  0  0  0  0  0  0  0  0  0  0  0
    3.7010  -20.8751  -39.7440 C   0  0  0  0  0  0  0  0  0  0  0  0
    4.8357  -21.6008  -40.1174 C   0  0  0  0  0  0  0  0  0  0  0  0
    4.8726  -22.1914  -41.3597 C   0  0  0  0  0  0  0  0  0  0  0  0
    3.8133  -22.0761  -42.2275 C   0  0  0  0  0  0  0  0  0  0  0  0
    2.6976  -21.3457  -41.8235 C   0  0  0  0  0  0  0  0  0  0  0  0
    5.9157  -21.7351  -39.2677 O   0  0  0  0  0  0  0  0  0  0  0  0
    6.3363  -20.6056  -38.5255 C   0  0  0  0  0  0  0  0  0  0  0  0
 18 19  1  0  0  0
 19 20  2  0  0  0
 19 24  1  0  0  0
 20 21  1  0  0  0
 21 22  2  0  0  0
 21 17  1  0  0  0
 22 23  1  0  0  0
 23 24  2  0  0  0
 17  1  1  0  0  0
  1  2  1  0  0  0
  1 10  1  0  0  0
  2  3  2  0  0  0
  2  4  1  0  0  0
  4  5  1  0  0  0
  4 14  1  0  0  0
  5  6  1  0  0  0
  5 12  1  0  0  0
  6  7  1  0  0  0
  6  9  1  0  0  0
  6 10  1  0  0  0
  7  8  1  0  0  0
  8  9  1  0  0  0
  8 25  1  0  0  0
 25 26  1  0  0  0
 26 27  2  0  0  0
 26 31  1  0  0  0
 27 28  1  0  0  0
 28 29  2  0  0  0
 28 32  1  0  0  0
 29 30  1  0  0  0
 30 31  2  0  0  0
 32 33  1  0  0  0
 10 11  2  0  0  0
 12 13  1  0  0  0
 13 14  1  0  0  0
 13 15  1  0  0  0
 15 16  1  0  0  0
M  END
> <minimizedAffinity>
-7.49263

$$$$
2365


 32 36  0  0  0  0  0  0  0  0999 V2000
    1.5461  -14.8846  -38.1445 N   0  0  0  0  0  0  0  0  0  0  0  0
    2.0901  -14.0710  -39.1498 C   0  0  0  0  0  0  0  0  0  0  0  0
    2.1780  -14.5439  -40.3236 O   0  0  0  0  0  0  0  0  0  0  0  0
    1.4658  -14.5074  -37.1691 H   0  0  0  0  0  0  0  0  0  0  0  0
    2.5742  -12.6873  -38.9351 C   0  0  0  0  0  0  0  0  0  0  0  0
    3.8507  -12.4404  -39.7135 C   0  0  0  0  0  0  0  0  0  0  0  0
    4.3525  -11.0421  -39.4891 C   0  0  0  0  0  0  0  0  0  0  0  0
    3.2879  -10.0902  -40.0383 C   0  0  0  0  0  0  0  0  0  0  0  0
    1.9999  -10.3060  -39.3103 C   0  0  0  0  0  0  0  0  0  0  0  0
    1.5303  -11.7331  -39.4735 C   0  0  0  0  0  0  0  0  0  0  0  0
    2.2064  -10.0104  -37.8427 C   0  0  0  0  0  0  0  0  0  0  0  0
    3.2551  -10.9647  -37.3206 C   0  0  0  0  0  0  0  0  0  0  0  0
    4.5550  -10.7166  -38.0420 C   0  0  0  0  0  0  0  0  0  0  0  0
    2.7878  -12.3882  -37.4677 C   0  0  0  0  0  0  0  0  0  0  0  0
    5.5671  -10.8911  -40.2659 N   0  0  0  0  0  0  0  0  0  0  0  0
    6.7013  -10.2858  -39.9606 N   0  0  0  0  0  0  0  0  0  0  0  0
    7.5691  -10.3620  -40.9246 N   0  0  0  0  0  0  0  0  0  0  0  0
    7.0151  -11.0361  -41.9168 C   0  0  0  0  0  0  0  0  0  0  0  0
    5.7597  -11.3696  -41.5062 N   0  0  0  0  0  0  0  0  0  0  0  0
    1.3862  -17.2936  -37.6038 C   0  0  0  0  0  0  0  0  0  0  0  0
    2.0651  -17.1906  -36.5510 O   0  0  0  0  0  0  0  0  0  0  0  0
    1.1135  -16.1640  -38.4116 N   0  0  0  0  0  0  0  0  0  0  0  0
    0.5350  -16.3315  -39.2822 H   0  0  0  0  0  0  0  0  0  0  0  0
    0.8880  -18.6568  -37.9478 C   0  0  0  0  0  0  0  0  0  0  0  0
   -0.5795  -18.8004  -37.7245 C   0  0  0  0  0  0  0  0  0  0  0  0
    1.2730  -18.9800  -39.3732 C   0  0  0  0  0  0  0  0  0  0  0  0
    6.0140  -21.6279  -38.8431 Br  0  0  0  0  0  0  0  0  0  0  0  0
    4.6250  -20.4099  -39.3118 C   0  0  0  0  0  0  0  0  0  0  0  0
    3.2980  -20.4104  -38.9313 C   0  0  0  0  0  0  0  0  0  0  0  0
    2.6612  -19.3557  -39.5019 N   0  0  0  0  0  0  0  0  0  0  0  0
    3.5466  -18.7143  -40.2145 N   0  0  0  0  0  0  0  0  0  0  0  0
    4.7575  -19.2967  -40.1453 C   0  0  0  0  0  0  0  0  0  0  0  0
 27 28  1  0  0  0
 28 29  2  0  0  0
 28 32  1  0  0  0
 29 30  1  0  0  0
 30 31  1  0  0  0
 30 26  1  0  0  0
 31 32  2  0  0  0
 26 24  1  0  0  0
 24 25  1  0  0  0
 24 20  1  0  0  0
 20 21  2  0  0  0
 20 22  1  0  0  0
 22  1  1  0  0  0
  1  2  1  0  0  0
  2  3  2  0  0  0
  2  5  1  0  0  0
  5  6  1  0  0  0
  5 10  1  0  0  0
  5 14  1  0  0  0
  6  7  1  0  0  0
  7  8  1  0  0  0
  7 13  1  0  0  0
  7 15  1  0  0  0
  8  9  1  0  0  0
  9 10  1  0  0  0
  9 11  1  0  0  0
 11 12  1  0  0  0
 12 13  1  0  0  0
 12 14  1  0  0  0
 15 16  1  0  0  0
 15 19  1  0  0  0
 16 17  2  0  0  0
 17 18  1  0  0  0
 18 19  2  0  0  0
 22 23  1  0  0  0
  1  4  1  0  0  0
M  END
> <minimizedAffinity>
-6.20001

$$$$
2373


 28 31  0  0  0  0  0  0  0  0999 V2000
    0.5012  -14.8044  -36.5967 N   0  0  0  0  0  0  0  0  0  0  0  0
   -0.3018  -13.7680  -36.7626 C   0  0  0  0  0  0  0  0  0  0  0  0
    0.3820  -12.6946  -37.2424 N   0  0  0  0  0  0  0  0  0  0  0  0
    1.6404  -13.0502  -37.3793 C   0  0  0  0  0  0  0  0  0  0  0  0
    1.7133  -14.3980  -36.9688 C   0  0  0  0  0  0  0  0  0  0  0  0
   -0.2322  -11.4387  -37.5694 C   0  0  0  0  0  0  0  0  0  0  0  0
   -0.5748  -10.6665  -36.2972 C   0  0  0  0  0  0  0  0  0  0  0  0
   -0.9958  -11.7421  -35.2902 C   0  0  0  0  0  0  0  0  0  0  0  0
   -2.1934  -12.4579  -35.8511 C   0  0  0  0  0  0  0  0  0  0  0  0
   -1.7587  -13.8143  -36.4280 C   0  0  0  0  0  0  0  0  0  0  0  0
    2.7982  -12.2987  -37.8731 C   0  0  0  0  0  0  0  0  0  0  0  0
    3.5311  -11.4008  -37.1665 C   0  0  0  0  0  0  0  0  0  0  0  0
    4.5803  -10.6658  -37.7172 C   0  0  0  0  0  0  0  0  0  0  0  0
    4.9243  -10.8278  -39.0311 C   0  0  0  0  0  0  0  0  0  0  0  0
    4.2032  -11.7313  -39.7734 C   0  0  0  0  0  0  0  0  0  0  0  0
    3.1680  -12.4486  -39.2143 C   0  0  0  0  0  0  0  0  0  0  0  0
    5.9773  -10.1002  -39.6120 O   0  0  0  0  0  0  0  0  0  0  0  0
    6.7050  -10.5699  -40.7150 C   0  0  0  0  0  0  0  0  0  0  0  0
    0.2409  -16.1621  -36.1079 C   0  0  0  0  0  0  0  0  0  0  0  0
    0.2670  -17.0812  -37.2659 C   0  0  0  0  0  0  0  0  0  0  0  0
   -0.7003  -17.0004  -38.0941 O   0  0  0  0  0  0  0  0  0  0  0  0
    4.5006  -21.2109  -38.3395 Cl  0  0  0  0  0  0  0  0  0  0  0  0
    3.2480  -20.0313  -38.0505 C   0  0  0  0  0  0  0  0  0  0  0  0
    1.9779  -20.1206  -38.5631 C   0  0  0  0  0  0  0  0  0  0  0  0
    1.0283  -19.1641  -38.3045 C   0  0  0  0  0  0  0  0  0  0  0  0
    1.3132  -18.0510  -37.5047 C   0  0  0  0  0  0  0  0  0  0  0  0
    2.5744  -17.9613  -36.9943 C   0  0  0  0  0  0  0  0  0  0  0  0
    3.5201  -18.9259  -37.2599 C   0  0  0  0  0  0  0  0  0  0  0  0
 22 23  1  0  0  0
 23 24  2  0  0  0
 23 28  1  0  0  0
 24 25  1  0  0  0
 25 26  2  0  0  0
 26 27  1  0  0  0
 26 20  1  0  0  0
 27 28  2  0  0  0
 20 21  2  0  0  0
 20 19  1  0  0  0
 19  1  1  0  0  0
  1  2  2  0  0  0
  1  5  1  0  0  0
  2  3  1  0  0  0
  2 10  1  0  0  0
  3  4  1  0  0  0
  3  6  1  0  0  0
  4  5  2  0  0  0
  4 11  1  0  0  0
 11 12  2  0  0  0
 11 16  1  0  0  0
 12 13  1  0  0  0
 13 14  2  0  0  0
 14 15  1  0  0  0
 14 17  1  0  0  0
 15 16  2  0  0  0
 17 18  1  0  0  0
  6  7  1  0  0  0
  7  8  1  0  0  0
  8  9  1  0  0  0
  9 10  1  0  0  0
M  END
> <minimizedAffinity>
-7.50840

$$$$
2375


 37 40  0  0  0  0  0  0  0  0999 V2000
   -2.2308  -17.9914  -38.1181 C   0  0  0  0  0  0  0  0  0  0  0  0
   -3.6450  -18.0938  -38.3288 C   0  0  0  0  0  0  0  0  0  0  0  0
    1.4448  -14.8483  -37.8424 C   0  0  0  0  0  0  0  0  0  0  0  0
    1.2230  -14.9768  -36.3945 C   0  0  0  0  0  0  0  0  0  0  0  0
   -0.0733  -15.6012  -35.9421 C   0  0  0  0  0  0  0  0  0  0  0  0
   -0.8867  -16.1564  -36.9737 N   0  0  0  0  0  0  0  0  0  0  0  0
   -1.0471  -15.2785  -38.1499 C   0  0  0  0  0  0  0  0  0  0  0  0
    0.2147  -14.8478  -38.7159 C   0  0  0  0  0  0  0  0  0  0  0  0
   -1.7391  -17.2811  -36.8645 C   0  0  0  0  0  0  0  0  0  0  0  0
   -2.1005  -17.7010  -35.7681 O   0  0  0  0  0  0  0  0  0  0  0  0
    2.2440  -15.9622  -38.2408 O   0  0  0  0  0  0  0  0  0  0  0  0
    3.0751  -15.6740  -38.6542 H   0  0  0  0  0  0  0  0  0  0  0  0
    4.5781   -9.7827  -39.0367 Cl  0  0  0  0  0  0  0  0  0  0  0  0
    3.6454  -11.2660  -38.7232 C   0  0  0  0  0  0  0  0  0  0  0  0
    3.1199  -11.5099  -37.4757 C   0  0  0  0  0  0  0  0  0  0  0  0
    2.4000  -12.6904  -37.2393 C   0  0  0  0  0  0  0  0  0  0  0  0
    2.1935  -13.6327  -38.2360 C   0  0  0  0  0  0  0  0  0  0  0  0
    2.7198  -13.3658  -39.4581 C   0  0  0  0  0  0  0  0  0  0  0  0
    3.4403  -12.2067  -39.7176 C   0  0  0  0  0  0  0  0  0  0  0  0
   -1.3156  -19.0547  -38.4594 N   0  0  0  0  0  0  0  0  0  0  0  0
   -0.4650  -19.0577  -39.5637 C   0  0  0  0  0  0  0  0  0  0  0  0
   -0.6843  -17.9184  -40.3125 O   0  0  0  0  0  0  0  0  0  0  0  0
   -1.4268  -19.8783  -37.7771 H   0  0  0  0  0  0  0  0  0  0  0  0
    0.5416  -19.8299  -40.1229 C   0  0  0  0  0  0  0  0  0  0  0  0
    1.7427  -20.3231  -40.0649 C   0  0  0  0  0  0  0  0  0  0  0  0
    2.2110  -21.1954  -41.1502 N   0  0  0  0  0  0  0  0  0  0  0  0
    3.4980  -21.6907  -41.2228 N   0  0  0  0  0  0  0  0  0  0  0  0
    4.4554  -21.3989  -40.2645 C   0  0  0  0  0  0  0  0  0  0  0  0
    5.6351  -21.8323  -40.2870 O   0  0  0  0  0  0  0  0  0  0  0  0
    4.0767  -20.5247  -39.1285 C   0  0  0  0  0  0  0  0  0  0  0  0
    2.7868  -20.0508  -39.0965 C   0  0  0  0  0  0  0  0  0  0  0  0
    2.5054  -19.1502  -38.0631 C   0  0  0  0  0  0  0  0  0  0  0  0
    3.4754  -18.7870  -37.1398 C   0  0  0  0  0  0  0  0  0  0  0  0
    4.7470  -19.2934  -37.2056 C   0  0  0  0  0  0  0  0  0  0  0  0
    5.0477  -20.1751  -38.2218 C   0  0  0  0  0  0  0  0  0  0  0  0
    1.4932  -21.4254  -41.8902 H   0  0  0  0  0  0  0  0  0  0  0  0
    3.7653  -22.3142  -42.0338 H   0  0  0  0  0  0  0  0  0  0  0  0
 13 14  1  0  0  0
 14 15  2  0  0  0
 14 19  1  0  0  0
 15 16  1  0  0  0
 16 17  2  0  0  0
 17 18  1  0  0  0
 17  3  1  0  0  0
 18 19  2  0  0  0
  3  4  1  0  0  0
  3  8  1  0  0  0
  3 11  1  0  0  0
  4  5  1  0  0  0
  5  6  1  0  0  0
  6  7  1  0  0  0
  6  9  1  0  0  0
  7  8  1  0  0  0
  9 10  2  0  0  0
  9  1  1  0  0  0
  1 20  1  0  0  0
  1  2  1  0  0  0
 20 21  1  0  0  0
 21 22  2  0  0  0
 21 24  1  0  0  0
 24 25  2  0  0  0
 25 26  1  0  0  0
 25 31  1  0  0  0
 26 27  1  0  0  0
 27 28  1  0  0  0
 28 29  2  0  0  0
 28 30  1  0  0  0
 30 31  2  0  0  0
 30 35  1  0  0  0
 31 32  1  0  0  0
 32 33  2  0  0  0
 33 34  1  0  0  0
 34 35  2  0  0  0
 20 23  1  0  0  0
 26 36  1  0  0  0
 27 37  1  0  0  0
 11 12  1  0  0  0
M  END
> <minimizedAffinity>
-7.50623

$$$$
2377


 33 36  0  0  0  0  0  0  0  0999 V2000
   -1.5174  -16.4113  -37.2408 N   0  0  0  0  0  0  0  0  0  0  0  0
   -2.6615  -16.5062  -38.1421 C   0  0  0  0  0  0  0  0  0  0  0  0
   -2.7879  -17.8822  -38.7558 C   0  0  0  0  0  0  0  0  0  0  0  0
   -2.0133  -18.7981  -37.9541 N   0  0  0  0  0  0  0  0  0  0  0  0
   -2.1565  -18.6557  -36.5164 C   0  0  0  0  0  0  0  0  0  0  0  0
   -1.4347  -17.3664  -36.1269 C   0  0  0  0  0  0  0  0  0  0  0  0
   -1.1579  -19.7866  -38.4825 C   0  0  0  0  0  0  0  0  0  0  0  0
   -0.5310  -20.5308  -37.6970 O   0  0  0  0  0  0  0  0  0  0  0  0
   -2.1304  -13.5898  -36.4084 Cl  0  0  0  0  0  0  0  0  0  0  0  0
   -0.6291  -14.1232  -37.1218 C   0  0  0  0  0  0  0  0  0  0  0  0
   -0.5140  -15.4514  -37.4715 C   0  0  0  0  0  0  0  0  0  0  0  0
    0.7165  -15.7883  -38.0531 C   0  0  0  0  0  0  0  0  0  0  0  0
    1.6817  -14.8689  -38.2396 N   0  0  0  0  0  0  0  0  0  0  0  0
    1.5790  -13.5993  -37.9081 N   0  0  0  0  0  0  0  0  0  0  0  0
    0.4208  -13.2289  -37.3481 C   0  0  0  0  0  0  0  0  0  0  0  0
    0.2419  -12.0342  -37.0025 O   0  0  0  0  0  0  0  0  0  0  0  0
    2.6526  -12.6927  -38.1421 C   0  0  0  0  0  0  0  0  0  0  0  0
    3.2500  -11.9774  -37.1156 C   0  0  0  0  0  0  0  0  0  0  0  0
    4.2907  -11.0956  -37.3247 C   0  0  0  0  0  0  0  0  0  0  0  0
    4.7501  -10.9244  -38.6141 C   0  0  0  0  0  0  0  0  0  0  0  0
    4.1765  -11.6214  -39.6617 C   0  0  0  0  0  0  0  0  0  0  0  0
    3.1223  -12.5089  -39.4171 C   0  0  0  0  0  0  0  0  0  0  0  0
   -0.9559  -19.9980  -39.9364 C   0  0  0  0  0  0  0  0  0  0  0  0
    0.3527  -20.7066  -40.1993 C   0  0  0  0  0  0  0  0  0  0  0  0
    1.4987  -19.7531  -40.3637 C   0  0  0  0  0  0  0  0  0  0  0  0
    2.6389  -20.0560  -39.5274 N   0  0  0  0  0  0  0  0  0  0  0  0
    3.6989  -20.9388  -39.8474 C   0  0  0  0  0  0  0  0  0  0  0  0
    3.8251  -21.6150  -40.9232 O   0  0  0  0  0  0  0  0  0  0  0  0
    4.6498  -20.9982  -38.8069 N   0  0  0  0  0  0  0  0  0  0  0  0
    4.2062  -20.1313  -37.7379 C   0  0  0  0  0  0  0  0  0  0  0  0
    2.9406  -19.5402  -38.2263 C   0  0  0  0  0  0  0  0  0  0  0  0
    2.2340  -18.7167  -37.6071 O   0  0  0  0  0  0  0  0  0  0  0  0
    5.8656  -21.7860  -38.7953 C   0  0  0  0  0  0  0  0  0  0  0  0
  9 10  1  0  0  0
 10 11  2  0  0  0
 10 15  1  0  0  0
 11 12  1  0  0  0
 11  1  1  0  0  0
 12 13  2  0  0  0
 13 14  1  0  0  0
 14 15  1  0  0  0
 14 17  1  0  0  0
 15 16  2  0  0  0
 17 18  2  0  0  0
 17 22  1  0  0  0
 18 19  1  0  0  0
 19 20  2  0  0  0
 20 21  1  0  0  0
 21 22  2  0  0  0
  1  2  1  0  0  0
  1  6  1  0  0  0
  2  3  1  0  0  0
  3  4  1  0  0  0
  4  5  1  0  0  0
  4  7  1  0  0  0
  5  6  1  0  0  0
  7  8  2  0  0  0
  7 23  1  0  0  0
 23 24  1  0  0  0
 24 25  1  0  0  0
 25 26  1  0  0  0
 26 27  1  0  0  0
 26 31  1  0  0  0
 27 28  2  0  0  0
 27 29  1  0  0  0
 29 30  1  0  0  0
 29 33  1  0  0  0
 30 31  1  0  0  0
 31 32  2  0  0  0
M  END
> <minimizedAffinity>
-6.71849

$$$$
2380


 27 30  0  0  0  0  0  0  0  0999 V2000
    2.8356  -18.1355  -39.9840 Cl  0  0  0  0  0  0  0  0  0  0  0  0
    2.4562  -17.6069  -38.3481 C   0  0  0  0  0  0  0  0  0  0  0  0
    3.0353  -18.2898  -37.3052 C   0  0  0  0  0  0  0  0  0  0  0  0
    2.7152  -17.8494  -36.0309 C   0  0  0  0  0  0  0  0  0  0  0  0
    1.8806  -16.8081  -35.8667 N   0  0  0  0  0  0  0  0  0  0  0  0
    1.3172  -16.1424  -36.8613 N   0  0  0  0  0  0  0  0  0  0  0  0
    1.6062  -16.5444  -38.1115 C   0  0  0  0  0  0  0  0  0  0  0  0
    1.1054  -15.9557  -39.1117 O   0  0  0  0  0  0  0  0  0  0  0  0
    3.9001  -19.3734  -37.5681 N   0  0  0  0  0  0  0  0  0  0  0  0
    5.3503  -19.2268  -37.5173 C   0  0  0  0  0  0  0  0  0  0  0  0
    5.8162  -19.3983  -38.9762 C   0  0  0  0  0  0  0  0  0  0  0  0
    5.2972  -20.6122  -39.5244 N   0  0  0  0  0  0  0  0  0  0  0  0
    4.5359  -21.4898  -38.6105 C   0  0  0  0  0  0  0  0  0  0  0  0
    3.4441  -20.7093  -37.9068 C   0  0  0  0  0  0  0  0  0  0  0  0
    5.4788  -21.0057  -40.8759 C   0  0  0  0  0  0  0  0  0  0  0  0
    4.9994  -22.0927  -41.3176 O   0  0  0  0  0  0  0  0  0  0  0  0
    6.2268  -20.1924  -41.8507 C   0  0  0  0  0  0  0  0  0  0  0  0
    6.9092  -20.9795  -42.7267 O   0  0  0  0  0  0  0  0  0  0  0  0
    6.9739  -20.3208  -43.9480 C   0  0  0  0  0  0  0  0  0  0  0  0
    5.5568  -19.7773  -44.0630 C   0  0  0  0  0  0  0  0  0  0  0  0
    5.3231  -19.2818  -42.6512 C   0  0  0  0  0  0  0  0  0  0  0  0
    0.4334  -15.0371  -36.6208 C   0  0  0  0  0  0  0  0  0  0  0  0
    0.9371  -13.8223  -36.2038 C   0  0  0  0  0  0  0  0  0  0  0  0
    0.0884  -12.7374  -35.9661 C   0  0  0  0  0  0  0  0  0  0  0  0
   -1.2657  -12.8657  -36.1446 C   0  0  0  0  0  0  0  0  0  0  0  0
   -1.7805  -14.0679  -36.5579 C   0  0  0  0  0  0  0  0  0  0  0  0
   -0.9331  -15.1242  -36.7880 C   0  0  0  0  0  0  0  0  0  0  0  0
  1  2  1  0  0  0
  2  3  2  0  0  0
  2  7  1  0  0  0
  3  4  1  0  0  0
  3  9  1  0  0  0
  4  5  2  0  0  0
  5  6  1  0  0  0
  6  7  1  0  0  0
  6 22  1  0  0  0
  7  8  2  0  0  0
 22 23  2  0  0  0
 22 27  1  0  0  0
 23 24  1  0  0  0
 24 25  2  0  0  0
 25 26  1  0  0  0
 26 27  2  0  0  0
  9 10  1  0  0  0
  9 14  1  0  0  0
 10 11  1  0  0  0
 11 12  1  0  0  0
 12 13  1  0  0  0
 12 15  1  0  0  0
 13 14  1  0  0  0
 15 16  2  0  0  0
 15 17  1  0  0  0
 17 18  1  0  0  0
 17 21  1  0  0  0
 18 19  1  0  0  0
 19 20  1  0  0  0
 20 21  1  0  0  0
M  END
> <minimizedAffinity>
-6.20069

$$$$
2381


 30 33  0  0  0  0  0  0  0  0999 V2000
    0.4182  -15.4647  -36.7056 N   0  0  0  0  0  0  0  0  0  0  0  0
   -0.9618  -15.8426  -36.5782 C   0  0  0  0  0  0  0  0  0  0  0  0
   -1.8830  -14.7649  -37.1052 C   0  0  0  0  0  0  0  0  0  0  0  0
   -1.3537  -13.4437  -36.8757 N   0  0  0  0  0  0  0  0  0  0  0  0
   -0.2462  -13.2896  -35.9640 C   0  0  0  0  0  0  0  0  0  0  0  0
    0.8996  -14.1146  -36.4911 C   0  0  0  0  0  0  0  0  0  0  0  0
   -1.9179  -12.3240  -37.5382 C   0  0  0  0  0  0  0  0  0  0  0  0
   -2.8946  -12.4536  -38.3443 O   0  0  0  0  0  0  0  0  0  0  0  0
    0.7416  -16.0028  -39.6513 Cl  0  0  0  0  0  0  0  0  0  0  0  0
    1.6158  -16.8196  -38.3759 C   0  0  0  0  0  0  0  0  0  0  0  0
    1.3678  -16.4700  -37.0637 C   0  0  0  0  0  0  0  0  0  0  0  0
    2.0943  -17.1527  -36.1044 C   0  0  0  0  0  0  0  0  0  0  0  0
    2.9910  -18.1021  -36.4307 N   0  0  0  0  0  0  0  0  0  0  0  0
    3.2409  -18.4500  -37.6827 N   0  0  0  0  0  0  0  0  0  0  0  0
    2.5522  -17.8063  -38.6425 C   0  0  0  0  0  0  0  0  0  0  0  0
    2.7812  -18.1289  -39.8270 O   0  0  0  0  0  0  0  0  0  0  0  0
    4.1949  -19.4611  -38.0200 C   0  0  0  0  0  0  0  0  0  0  0  0
    3.7846  -20.7273  -38.3839 C   0  0  0  0  0  0  0  0  0  0  0  0
    4.6982  -21.7089  -38.7106 C   0  0  0  0  0  0  0  0  0  0  0  0
    6.0576  -21.4737  -38.6892 C   0  0  0  0  0  0  0  0  0  0  0  0
    6.4740  -20.2098  -38.3272 C   0  0  0  0  0  0  0  0  0  0  0  0
    5.5587  -19.2350  -38.0018 C   0  0  0  0  0  0  0  0  0  0  0  0
   -1.4109  -10.9412  -37.3365 C   0  0  0  0  0  0  0  0  0  0  0  0
   -0.5783  -10.5297  -38.3865 O   0  0  0  0  0  0  0  0  0  0  0  0
    0.7464  -10.9198  -38.4274 C   0  0  0  0  0  0  0  0  0  0  0  0
    1.3637  -11.7729  -39.2521 N   0  0  0  0  0  0  0  0  0  0  0  0
    2.6182  -11.8600  -38.9517 O   0  0  0  0  0  0  0  0  0  0  0  0
    2.9221  -11.0886  -37.9285 C   0  0  0  0  0  0  0  0  0  0  0  0
    1.7410  -10.4715  -37.5696 C   0  0  0  0  0  0  0  0  0  0  0  0
    4.2781  -10.9787  -37.3607 C   0  0  0  0  0  0  0  0  0  0  0  0
  9 10  1  0  0  0
 10 11  2  0  0  0
 10 15  1  0  0  0
 11 12  1  0  0  0
 11  1  1  0  0  0
 12 13  2  0  0  0
 13 14  1  0  0  0
 14 15  1  0  0  0
 14 17  1  0  0  0
 15 16  2  0  0  0
 17 18  2  0  0  0
 17 22  1  0  0  0
 18 19  1  0  0  0
 19 20  2  0  0  0
 20 21  1  0  0  0
 21 22  2  0  0  0
  1  2  1  0  0  0
  1  6  1  0  0  0
  2  3  1  0  0  0
  3  4  1  0  0  0
  4  5  1  0  0  0
  4  7  1  0  0  0
  5  6  1  0  0  0
  7  8  2  0  0  0
  7 23  1  0  0  0
 23 24  1  0  0  0
 24 25  1  0  0  0
 25 26  2  0  0  0
 25 29  1  0  0  0
 26 27  1  0  0  0
 27 28  1  0  0  0
 28 29  2  0  0  0
 28 30  1  0  0  0
M  END
> <minimizedAffinity>
-6.31291

$$$$
2386


 30 33  0  0  0  0  0  0  0  0999 V2000
    4.0388  -14.2507  -42.4626 Cl  0  0  0  0  0  0  0  0  0  0  0  0
    3.1410  -13.8865  -40.9926 C   0  0  0  0  0  0  0  0  0  0  0  0
    2.2526  -14.8569  -40.5345 C   0  0  0  0  0  0  0  0  0  0  0  0
    1.5426  -14.5870  -39.3863 C   0  0  0  0  0  0  0  0  0  0  0  0
    1.7193  -13.3819  -38.7194 C   0  0  0  0  0  0  0  0  0  0  0  0
    2.6074  -12.4191  -39.1832 C   0  0  0  0  0  0  0  0  0  0  0  0
    3.3198  -12.6908  -40.3374 C   0  0  0  0  0  0  0  0  0  0  0  0
    1.0434  -13.0374  -37.5610 O   0  0  0  0  0  0  0  0  0  0  0  0
   -0.2202  -13.4346  -37.1056 C   0  0  0  0  0  0  0  0  0  0  0  0
   -0.4068  -14.8909  -36.8811 C   0  0  0  0  0  0  0  0  0  0  0  0
    0.4585  -15.7682  -37.6008 N   0  0  0  0  0  0  0  0  0  0  0  0
    0.6544  -15.7334  -39.0563 C   0  0  0  0  0  0  0  0  0  0  0  0
    1.1853  -16.7574  -36.8831 C   0  0  0  0  0  0  0  0  0  0  0  0
    1.0110  -16.8002  -35.6437 O   0  0  0  0  0  0  0  0  0  0  0  0
   -0.5036  -12.6922  -35.7859 C   0  0  0  0  0  0  0  0  0  0  0  0
   -0.2280  -11.2367  -36.0500 C   0  0  0  0  0  0  0  0  0  0  0  0
    0.0473  -10.9791  -37.3813 O   0  0  0  0  0  0  0  0  0  0  0  0
   -0.9643  -11.3975  -38.2276 C   0  0  0  0  0  0  0  0  0  0  0  0
   -1.2819  -12.8677  -38.0616 C   0  0  0  0  0  0  0  0  0  0  0  0
    2.0906  -17.6903  -37.5361 C   0  0  0  0  0  0  0  0  0  0  0  0
    3.1400  -18.3316  -36.7237 C   0  0  0  0  0  0  0  0  0  0  0  0
    3.6005  -19.6886  -37.0595 C   0  0  0  0  0  0  0  0  0  0  0  0
    4.3680  -19.9178  -38.2263 N   0  0  0  0  0  0  0  0  0  0  0  0
    5.7337  -19.5823  -38.3944 C   0  0  0  0  0  0  0  0  0  0  0  0
    6.5205  -19.0371  -37.5647 O   0  0  0  0  0  0  0  0  0  0  0  0
    6.1012  -19.9755  -39.7050 N   0  0  0  0  0  0  0  0  0  0  0  0
    5.0844  -20.8882  -40.2227 C   0  0  0  0  0  0  0  0  0  0  0  0
    3.9006  -20.5102  -39.4222 C   0  0  0  0  0  0  0  0  0  0  0  0
    2.6809  -20.6980  -39.7750 O   0  0  0  0  0  0  0  0  0  0  0  0
    6.9415  -19.6874  -40.2440 H   0  0  0  0  0  0  0  0  0  0  0  0
  1  2  1  0  0  0
  2  3  2  0  0  0
  2  7  1  0  0  0
  3  4  1  0  0  0
  4  5  2  0  0  0
  4 12  1  0  0  0
  5  6  1  0  0  0
  5  8  1  0  0  0
  6  7  2  0  0  0
  8  9  1  0  0  0
  9 10  1  0  0  0
  9 15  1  0  0  0
  9 19  1  0  0  0
 10 11  1  0  0  0
 11 12  1  0  0  0
 11 13  1  0  0  0
 13 14  2  0  0  0
 13 20  1  0  0  0
 20 21  1  0  0  0
 21 22  1  0  0  0
 22 23  1  0  0  0
 23 24  1  0  0  0
 23 28  1  0  0  0
 24 25  2  0  0  0
 24 26  1  0  0  0
 26 27  1  0  0  0
 27 28  1  0  0  0
 28 29  2  0  0  0
 15 16  1  0  0  0
 16 17  1  0  0  0
 17 18  1  0  0  0
 18 19  1  0  0  0
 26 30  1  0  0  0
M  END
> <minimizedAffinity>
-6.60113

$$$$
2402


 33 36  0  0  0  0  0  0  0  0999 V2000
    1.6029  -18.8889  -38.9495 C   0  0  0  0  0  0  0  0  0  0  0  0
    2.7744  -19.3311  -38.2538 N   0  0  0  0  0  0  0  0  0  0  0  0
    2.9598  -18.5849  -37.0609 C   0  0  0  0  0  0  0  0  0  0  0  0
    3.7414  -18.7681  -36.0967 O   0  0  0  0  0  0  0  0  0  0  0  0
    2.0232  -17.4373  -37.0841 C   0  0  0  0  0  0  0  0  0  0  0  0
    1.8928  -16.5524  -36.2017 O   0  0  0  0  0  0  0  0  0  0  0  0
    1.3018  -17.5661  -38.3363 C   0  0  0  0  0  0  0  0  0  0  0  0
    0.4855  -16.6141  -38.8054 C   0  0  0  0  0  0  0  0  0  0  0  0
   -0.1442  -16.9384  -40.0139 O   0  0  0  0  0  0  0  0  0  0  0  0
    0.2637  -15.3402  -38.1310 C   0  0  0  0  0  0  0  0  0  0  0  0
    0.9410  -14.2445  -38.1528 O   0  0  0  0  0  0  0  0  0  0  0  0
    0.4526  -13.2895  -37.4190 C   0  0  0  0  0  0  0  0  0  0  0  0
   -0.6984  -13.7716  -36.8143 C   0  0  0  0  0  0  0  0  0  0  0  0
   -0.7967  -15.0823  -37.2852 C   0  0  0  0  0  0  0  0  0  0  0  0
   -1.4204  -12.9572  -35.9746 C   0  0  0  0  0  0  0  0  0  0  0  0
   -1.0159  -11.6662  -35.7248 C   0  0  0  0  0  0  0  0  0  0  0  0
    0.1358  -11.1748  -36.3264 C   0  0  0  0  0  0  0  0  0  0  0  0
    0.8412  -11.9878  -37.1559 C   0  0  0  0  0  0  0  0  0  0  0  0
    1.9888  -11.5302  -37.7692 O   0  0  0  0  0  0  0  0  0  0  0  0
    3.3029  -11.7097  -37.2589 C   0  0  0  0  0  0  0  0  0  0  0  0
   -3.0087  -22.9672  -39.3547 Br  0  0  0  0  0  0  0  0  0  0  0  0
   -1.6018  -21.6890  -39.1479 C   0  0  0  0  0  0  0  0  0  0  0  0
   -0.8168  -21.4209  -40.2318 C   0  0  0  0  0  0  0  0  0  0  0  0
    0.1968  -20.5156  -40.1215 C   0  0  0  0  0  0  0  0  0  0  0  0
    0.4956  -19.8300  -38.9594 C   0  0  0  0  0  0  0  0  0  0  0  0
   -0.3125  -20.1189  -37.8808 C   0  0  0  0  0  0  0  0  0  0  0  0
   -1.3558  -21.0395  -37.9617 C   0  0  0  0  0  0  0  0  0  0  0  0
    3.6616  -20.3812  -38.6735 C   0  0  0  0  0  0  0  0  0  0  0  0
    4.8202  -19.8389  -39.4905 C   0  0  0  0  0  0  0  0  0  0  0  0
    6.0969  -20.1498  -38.9458 N   0  0  0  0  0  0  0  0  0  0  0  0
    6.5253  -19.3352  -37.8500 C   0  0  0  0  0  0  0  0  0  0  0  0
    6.1863  -21.5622  -38.6004 C   0  0  0  0  0  0  0  0  0  0  0  0
    6.8124  -20.0024  -39.7190 H   0  0  0  0  0  0  0  0  0  0  0  0
 21 22  1  0  0  0
 22 23  2  0  0  0
 22 27  1  0  0  0
 23 24  1  0  0  0
 24 25  2  0  0  0
 25 26  1  0  0  0
 25  1  1  0  0  0
 26 27  2  0  0  0
  1  2  1  0  0  0
  1  7  1  0  0  0
  2  3  1  0  0  0
  2 28  1  0  0  0
  3  4  2  0  0  0
  3  5  1  0  0  0
  5  6  2  0  0  0
  5  7  1  0  0  0
  7  8  2  0  0  0
  8  9  1  0  0  0
  8 10  1  0  0  0
 10 11  1  0  0  0
 10 14  2  0  0  0
 11 12  1  0  0  0
 12 13  2  0  0  0
 12 18  1  0  0  0
 13 14  1  0  0  0
 13 15  1  0  0  0
 15 16  2  0  0  0
 16 17  1  0  0  0
 17 18  2  0  0  0
 18 19  1  0  0  0
 19 20  1  0  0  0
 28 29  1  0  0  0
 29 30  1  0  0  0
 30 31  1  0  0  0
 30 32  1  0  0  0
 30 33  1  0  0  0
M  CHG 1   9  -1
M  CHG 1  30   1
M  END
> <minimizedAffinity>
-6.41215

$$$$
2403


 26 29  0  0  0  0  0  0  0  0999 V2000
    0.9187  -17.6120  -37.4813 C   0  0  0  0  0  0  0  0  0  0  0  0
    2.1134  -18.4193  -37.6308 N   0  0  0  0  0  0  0  0  0  0  0  0
    2.4261  -19.3442  -38.5498 C   0  0  0  0  0  0  0  0  0  0  0  0
    3.6780  -19.8933  -38.2945 C   0  0  0  0  0  0  0  0  0  0  0  0
    4.1168  -19.2635  -37.1790 N   0  0  0  0  0  0  0  0  0  0  0  0
    3.1907  -18.3872  -36.7821 C   0  0  0  0  0  0  0  0  0  0  0  0
    4.2452  -20.8454  -39.0634 N   0  0  0  0  0  0  0  0  0  0  0  0
    3.5295  -21.2580  -40.1262 C   0  0  0  0  0  0  0  0  0  0  0  0
    4.0442  -22.1484  -40.8568 O   0  0  0  0  0  0  0  0  0  0  0  0
    2.3180  -20.7604  -40.4178 N   0  0  0  0  0  0  0  0  0  0  0  0
    1.7480  -19.8086  -39.6498 C   0  0  0  0  0  0  0  0  0  0  0  0
    0.6249  -19.3325  -39.9056 O   0  0  0  0  0  0  0  0  0  0  0  0
    1.5492  -21.2082  -41.5657 C   0  0  0  0  0  0  0  0  0  0  0  0
    5.5551  -21.3783  -38.7412 C   0  0  0  0  0  0  0  0  0  0  0  0
    3.0346   -9.7616  -38.8332 Br  0  0  0  0  0  0  0  0  0  0  0  0
    2.6470  -11.6267  -38.7865 C   0  0  0  0  0  0  0  0  0  0  0  0
    2.0809  -12.1394  -37.6512 C   0  0  0  0  0  0  0  0  0  0  0  0
    1.7980  -13.4579  -37.5968 N   0  0  0  0  0  0  0  0  0  0  0  0
    2.0640  -14.2627  -38.6365 C   0  0  0  0  0  0  0  0  0  0  0  0
    1.7774  -15.5964  -38.5809 N   0  0  0  0  0  0  0  0  0  0  0  0
    1.2212  -16.1414  -37.4842 C   0  0  0  0  0  0  0  0  0  0  0  0
    0.9571  -15.3001  -36.4321 C   0  0  0  0  0  0  0  0  0  0  0  0
    1.2338  -13.9507  -36.4562 C   0  0  0  0  0  0  0  0  0  0  0  0
    1.0040  -13.1718  -35.5185 O   0  0  0  0  0  0  0  0  0  0  0  0
    2.6367  -13.7521  -39.7903 C   0  0  0  0  0  0  0  0  0  0  0  0
    2.9368  -12.4155  -39.8760 C   0  0  0  0  0  0  0  0  0  0  0  0
 15 16  1  0  0  0
 16 17  2  0  0  0
 16 26  1  0  0  0
 17 18  1  0  0  0
 18 19  1  0  0  0
 18 23  1  0  0  0
 19 20  2  0  0  0
 19 25  1  0  0  0
 20 21  1  0  0  0
 21 22  2  0  0  0
 21  1  1  0  0  0
 22 23  1  0  0  0
 23 24  2  0  0  0
  1  2  1  0  0  0
  2  3  1  0  0  0
  2  6  1  0  0  0
  3  4  2  0  0  0
  3 11  1  0  0  0
  4  5  1  0  0  0
  4  7  1  0  0  0
  5  6  2  0  0  0
  7  8  1  0  0  0
  7 14  1  0  0  0
  8  9  2  0  0  0
  8 10  1  0  0  0
 10 11  1  0  0  0
 10 13  1  0  0  0
 11 12  2  0  0  0
 25 26  2  0  0  0
M  END
> <minimizedAffinity>
-6.74167

$$$$
2416


 34 37  0  0  0  0  0  0  0  0999 V2000
    4.0221  -20.1980  -38.2870 N   0  0  0  0  0  0  0  0  0  0  0  0
    2.8668  -20.4115  -39.0325 C   0  0  0  0  0  0  0  0  0  0  0  0
    1.6632  -19.8622  -38.2549 C   0  0  0  0  0  0  0  0  0  0  0  0
    2.0268  -18.5905  -37.6279 N   0  0  0  0  0  0  0  0  0  0  0  0
    3.1601  -18.6252  -36.7246 C   0  0  0  0  0  0  0  0  0  0  0  0
    3.8179  -20.0002  -36.9125 C   0  0  0  0  0  0  0  0  0  0  0  0
    1.2980  -17.4061  -37.9289 C   0  0  0  0  0  0  0  0  0  0  0  0
    0.3503  -17.5021  -38.7433 O   0  0  0  0  0  0  0  0  0  0  0  0
    5.5367  -20.4733  -38.9014 S   0  0  0  0  0  0  0  0  0  0  0  0
    6.5221  -19.5505  -38.2080 O   0  0  0  0  0  0  0  0  0  0  0  0
    6.0573  -21.8749  -38.6600 O   0  0  0  0  0  0  0  0  0  0  0  0
    5.6803  -20.1417  -40.6311 C   0  0  0  0  0  0  0  0  0  0  0  0
    6.0793  -21.1126  -41.5203 C   0  0  0  0  0  0  0  0  0  0  0  0
    6.1813  -20.8049  -42.8594 C   0  0  0  0  0  0  0  0  0  0  0  0
    5.8995  -19.5525  -43.3727 C   0  0  0  0  0  0  0  0  0  0  0  0
    5.4964  -18.5737  -42.4725 C   0  0  0  0  0  0  0  0  0  0  0  0
    5.3967  -18.8862  -41.1357 C   0  0  0  0  0  0  0  0  0  0  0  0
    6.0230  -19.1574  -45.0553 Cl  0  0  0  0  0  0  0  0  0  0  0  0
    1.6526  -16.1309  -37.3068 C   0  0  0  0  0  0  0  0  0  0  0  0
    0.8838  -14.9370  -37.8537 C   0  0  0  0  0  0  0  0  0  0  0  0
    1.2286  -14.6037  -39.2107 N   0  0  0  0  0  0  0  0  0  0  0  0
    1.9178  -13.4998  -39.7800 C   0  0  0  0  0  0  0  0  0  0  0  0
    1.7610  -13.2176  -40.9973 O   0  0  0  0  0  0  0  0  0  0  0  0
    2.8499  -12.5806  -39.0916 C   0  0  0  0  0  0  0  0  0  0  0  0
    2.8829  -12.2903  -37.7232 C   0  0  0  0  0  0  0  0  0  0  0  0
    3.8190  -11.4192  -37.2427 C   0  0  0  0  0  0  0  0  0  0  0  0
    4.7605  -10.7968  -38.0645 C   0  0  0  0  0  0  0  0  0  0  0  0
    4.7032  -11.1079  -39.4235 C   0  0  0  0  0  0  0  0  0  0  0  0
    3.7636  -11.9836  -39.9217 C   0  0  0  0  0  0  0  0  0  0  0  0
    2.0126  -12.8254  -36.7375 N   0  0  0  0  0  0  0  0  0  0  0  0
    0.9880  -13.8108  -36.9014 C   0  0  0  0  0  0  0  0  0  0  0  0
    0.0259  -13.6549  -36.0692 O   0  0  0  0  0  0  0  0  0  0  0  0
    0.9281  -15.2906  -39.9715 H   0  0  0  0  0  0  0  0  0  0  0  0
    2.1465  -12.4542  -35.7973 H   0  0  0  0  0  0  0  0  0  0  0  0
  9 10  2  0  0  0
  9 11  2  0  0  0
  9  1  1  0  0  0
  9 12  1  0  0  0
  1  2  1  0  0  0
  1  6  1  0  0  0
  2  3  1  0  0  0
  3  4  1  0  0  0
  4  5  1  0  0  0
  4  7  1  0  0  0
  5  6  1  0  0  0
  7  8  2  0  0  0
  7 19  1  0  0  0
 19 20  1  0  0  0
 20 21  1  0  0  0
 20 31  1  0  0  0
 21 22  1  0  0  0
 22 23  2  0  0  0
 22 24  1  0  0  0
 24 25  2  0  0  0
 24 29  1  0  0  0
 25 26  1  0  0  0
 25 30  1  0  0  0
 26 27  2  0  0  0
 27 28  1  0  0  0
 28 29  2  0  0  0
 30 31  1  0  0  0
 31 32  2  0  0  0
 12 13  2  0  0  0
 12 17  1  0  0  0
 13 14  1  0  0  0
 14 15  2  0  0  0
 15 16  1  0  0  0
 15 18  1  0  0  0
 16 17  2  0  0  0
 21 33  1  0  0  0
 30 34  1  0  0  0
M  END
> <minimizedAffinity>
-7.53181

$$$$
2417


 27 30  0  0  0  0  0  0  0  0999 V2000
    3.7936  -18.8383  -38.9093 N   0  0  0  0  0  0  0  0  0  0  0  0
    4.3649  -19.4997  -40.1053 C   0  0  0  0  0  0  0  0  0  0  0  0
    4.4293  -20.8998  -39.6970 C   0  0  0  0  0  0  0  0  0  0  0  0
    5.1554  -20.7732  -38.3672 C   0  0  0  0  0  0  0  0  0  0  0  0
    4.2735  -19.5727  -37.8182 C   0  0  0  0  0  0  0  0  0  0  0  0
    6.5157  -20.1613  -38.5389 C   0  0  0  0  0  0  0  0  0  0  0  0
    6.6667  -19.0945  -37.6144 O   0  0  0  0  0  0  0  0  0  0  0  0
    6.6027  -19.5346  -36.6817 H   0  0  0  0  0  0  0  0  0  0  0  0
    2.3418  -18.7748  -39.1363 C   0  0  0  0  0  0  0  0  0  0  0  0
   -0.0827  -20.6105  -38.9275 Cl  0  0  0  0  0  0  0  0  0  0  0  0
   -0.5474  -19.3373  -37.8042 C   0  0  0  0  0  0  0  0  0  0  0  0
    0.2906  -18.2541  -37.6876 C   0  0  0  0  0  0  0  0  0  0  0  0
   -0.1231  -17.2163  -36.8851 C   0  0  0  0  0  0  0  0  0  0  0  0
    0.9051  -16.3398  -36.8924 N   0  0  0  0  0  0  0  0  0  0  0  0
    1.8787  -16.8110  -37.6249 N   0  0  0  0  0  0  0  0  0  0  0  0
    1.5610  -18.0396  -38.1735 C   0  0  0  0  0  0  0  0  0  0  0  0
    0.8588  -15.0082  -36.2637 C   0  0  0  0  0  0  0  0  0  0  0  0
   -1.3046  -17.2330  -36.2084 C   0  0  0  0  0  0  0  0  0  0  0  0
   -2.1420  -18.3455  -36.3344 C   0  0  0  0  0  0  0  0  0  0  0  0
   -1.7442  -19.4051  -37.1432 C   0  0  0  0  0  0  0  0  0  0  0  0
    5.1863  -21.8213  -40.6209 C   0  0  0  0  0  0  0  0  0  0  0  0
    4.3758  -22.0746  -41.7704 N   0  0  0  0  0  0  0  0  0  0  0  0
    4.9927  -22.9897  -42.7075 C   0  0  0  0  0  0  0  0  0  0  0  0
    4.1682  -24.2270  -42.9774 C   0  0  0  0  0  0  0  0  0  0  0  0
    2.8763  -23.9643  -43.3717 O   0  0  0  0  0  0  0  0  0  0  0  0
    2.3352  -22.8479  -42.7406 C   0  0  0  0  0  0  0  0  0  0  0  0
    3.0671  -22.6001  -41.4571 C   0  0  0  0  0  0  0  0  0  0  0  0
 10 11  1  0  0  0
 11 12  2  0  0  0
 11 20  1  0  0  0
 12 13  1  0  0  0
 12 16  1  0  0  0
 13 14  1  0  0  0
 13 18  2  0  0  0
 14 15  1  0  0  0
 14 17  1  0  0  0
 15 16  2  0  0  0
 16  9  1  0  0  0
  9  1  1  0  0  0
  1  2  1  0  0  0
  1  5  1  0  0  0
  2  3  1  0  0  0
  3  4  1  0  0  0
  3 21  1  0  0  0
  4  5  1  0  0  0
  4  6  1  0  0  0
  6  7  1  0  0  0
 21 22  1  0  0  0
 22 23  1  0  0  0
 22 27  1  0  0  0
 23 24  1  0  0  0
 24 25  1  0  0  0
 25 26  1  0  0  0
 26 27  1  0  0  0
 18 19  1  0  0  0
 19 20  2  0  0  0
  7  8  1  0  0  0
M  END
> <minimizedAffinity>
-6.04480

$$$$
2419


 32 36  0  0  0  0  0  0  0  0999 V2000
    0.4394  -14.9762  -37.2016 C   0  0  0  0  0  0  0  0  0  0  0  0
   -0.9366  -14.7506  -37.3716 C   0  0  0  0  0  0  0  0  0  0  0  0
   -1.5557  -15.8557  -36.9762 N   0  0  0  0  0  0  0  0  0  0  0  0
   -2.8277  -16.3479  -36.8675 C   0  0  0  0  0  0  0  0  0  0  0  0
   -2.6827  -17.6178  -36.3685 C   0  0  0  0  0  0  0  0  0  0  0  0
   -1.3863  -17.8321  -36.2037 N   0  0  0  0  0  0  0  0  0  0  0  0
   -0.6672  -16.7359  -36.5800 C   0  0  0  0  0  0  0  0  0  0  0  0
    0.5873  -16.2112  -36.7095 N   0  0  0  0  0  0  0  0  0  0  0  0
   -3.7901  -18.4353  -36.1248 C   0  0  0  0  0  0  0  0  0  0  0  0
   -5.0577  -17.9622  -36.3870 C   0  0  0  0  0  0  0  0  0  0  0  0
   -5.1761  -16.6852  -36.8865 C   0  0  0  0  0  0  0  0  0  0  0  0
   -4.0801  -15.8665  -37.1327 C   0  0  0  0  0  0  0  0  0  0  0  0
   -1.0046  -18.7282  -35.8461 H   0  0  0  0  0  0  0  0  0  0  0  0
    4.6977  -10.8505  -38.9373 Br  0  0  0  0  0  0  0  0  0  0  0  0
    3.3733  -12.1318  -38.3774 C   0  0  0  0  0  0  0  0  0  0  0  0
    2.8488  -13.0411  -39.2438 C   0  0  0  0  0  0  0  0  0  0  0  0
    1.9104  -13.9475  -38.8417 C   0  0  0  0  0  0  0  0  0  0  0  0
    1.4430  -13.9920  -37.5437 C   0  0  0  0  0  0  0  0  0  0  0  0
    1.9634  -13.0884  -36.6808 C   0  0  0  0  0  0  0  0  0  0  0  0
    2.9373  -12.1419  -37.0822 C   0  0  0  0  0  0  0  0  0  0  0  0
    1.7502  -16.9689  -36.3614 C   0  0  0  0  0  0  0  0  0  0  0  0
    2.4143  -17.7277  -37.4382 C   0  0  0  0  0  0  0  0  0  0  0  0
    3.4687  -18.7109  -37.0778 C   0  0  0  0  0  0  0  0  0  0  0  0
    3.0437  -20.0728  -37.3148 N   0  0  0  0  0  0  0  0  0  0  0  0
    2.8552  -20.6393  -36.4916 H   0  0  0  0  0  0  0  0  0  0  0  0
    2.0719  -19.9848  -37.7887 H   0  0  0  0  0  0  0  0  0  0  0  0
    3.8552  -20.7603  -38.2752 C   0  0  0  0  0  0  0  0  0  0  0  0
    3.3765  -20.6659  -39.6964 C   0  0  0  0  0  0  0  0  0  0  0  0
    4.0517  -21.8209  -40.4509 C   0  0  0  0  0  0  0  0  0  0  0  0
    5.5264  -21.6170  -40.4075 C   0  0  0  0  0  0  0  0  0  0  0  0
    6.0735  -21.4151  -39.0135 C   0  0  0  0  0  0  0  0  0  0  0  0
    5.3075  -20.3010  -38.2910 C   0  0  0  0  0  0  0  0  0  0  0  0
 14 15  1  0  0  0
 15 16  2  0  0  0
 15 20  1  0  0  0
 16 17  1  0  0  0
 17 18  2  0  0  0
 18 19  1  0  0  0
 18  1  1  0  0  0
 19 20  2  0  0  0
  1  2  2  0  0  0
  1  8  1  0  0  0
  2  3  1  0  0  0
  3  4  1  0  0  0
  3  7  1  0  0  0
  4  5  2  0  0  0
  4 12  1  0  0  0
  5  6  1  0  0  0
  5  9  1  0  0  0
  6  7  2  0  0  0
  7  8  1  0  0  0
  8 21  1  0  0  0
 21 22  1  0  0  0
 22 23  1  0  0  0
 23 24  1  0  0  0
 24 27  1  0  0  0
 27 28  1  0  0  0
 27 32  1  0  0  0
 28 29  1  0  0  0
 29 30  1  0  0  0
 30 31  1  0  0  0
 31 32  1  0  0  0
  9 10  2  0  0  0
 10 11  1  0  0  0
 11 12  2  0  0  0
  6 13  1  0  0  0
 24 25  1  0  0  0
 24 26  1  0  0  0
M  CHG 1  24   1
M  END
> <minimizedAffinity>
-7.20901

$$$$
2420


 29 32  0  0  0  0  0  0  0  0999 V2000
    0.3055  -16.3541  -37.6338 N   0  0  0  0  0  0  0  0  0  0  0  0
    0.1134  -16.7835  -39.0177 C   0  0  0  0  0  0  0  0  0  0  0  0
    0.4156  -18.2642  -38.9583 C   0  0  0  0  0  0  0  0  0  0  0  0
   -0.2895  -18.6844  -37.6740 C   0  0  0  0  0  0  0  0  0  0  0  0
   -0.2400  -17.4226  -36.8546 C   0  0  0  0  0  0  0  0  0  0  0  0
   -0.6215  -17.3120  -35.6515 O   0  0  0  0  0  0  0  0  0  0  0  0
    4.4092  -11.0707  -39.9106 Br  0  0  0  0  0  0  0  0  0  0  0  0
    3.3001  -12.4039  -39.1266 C   0  0  0  0  0  0  0  0  0  0  0  0
    2.8916  -12.3006  -37.8157 C   0  0  0  0  0  0  0  0  0  0  0  0
    2.0971  -13.2458  -37.2383 C   0  0  0  0  0  0  0  0  0  0  0  0
    1.5438  -13.4203  -36.0047 N   0  0  0  0  0  0  0  0  0  0  0  0
    0.8415  -14.5429  -35.9901 N   0  0  0  0  0  0  0  0  0  0  0  0
    0.8981  -15.1464  -37.1846 C   0  0  0  0  0  0  0  0  0  0  0  0
    1.6926  -14.3288  -37.9794 C   0  0  0  0  0  0  0  0  0  0  0  0
    2.0902  -14.4580  -39.3044 C   0  0  0  0  0  0  0  0  0  0  0  0
    2.8923  -13.5022  -39.8860 C   0  0  0  0  0  0  0  0  0  0  0  0
    1.7116  -12.7102  -35.2492 H   0  0  0  0  0  0  0  0  0  0  0  0
    1.8708  -18.5279  -38.8560 C   0  0  0  0  0  0  0  0  0  0  0  0
    2.6462  -17.8658  -39.5895 O   0  0  0  0  0  0  0  0  0  0  0  0
    2.4103  -19.4893  -37.9716 N   0  0  0  0  0  0  0  0  0  0  0  0
    1.7301  -20.0256  -37.3746 H   0  0  0  0  0  0  0  0  0  0  0  0
    3.8228  -19.7501  -37.8666 C   0  0  0  0  0  0  0  0  0  0  0  0
    4.1253  -21.1265  -38.4200 C   0  0  0  0  0  0  0  0  0  0  0  0
    5.1117  -21.1050  -39.4720 N   0  0  0  0  0  0  0  0  0  0  0  0
    4.5109  -21.7291  -40.6456 C   0  0  0  0  0  0  0  0  0  0  0  0
    3.6845  -20.7086  -41.4236 C   0  0  0  0  0  0  0  0  0  0  0  0
    4.4590  -19.7333  -42.0067 O   0  0  0  0  0  0  0  0  0  0  0  0
    5.6594  -19.6413  -41.3415 C   0  0  0  0  0  0  0  0  0  0  0  0
    5.4936  -19.7606  -39.8402 C   0  0  0  0  0  0  0  0  0  0  0  0
  7  8  1  0  0  0
  8  9  2  0  0  0
  8 16  1  0  0  0
  9 10  1  0  0  0
 10 11  1  0  0  0
 10 14  2  0  0  0
 11 12  1  0  0  0
 12 13  2  0  0  0
 13 14  1  0  0  0
 13  1  1  0  0  0
 14 15  1  0  0  0
 15 16  2  0  0  0
  1  2  1  0  0  0
  1  5  1  0  0  0
  2  3  1  0  0  0
  3  4  1  0  0  0
  3 18  1  0  0  0
  4  5  1  0  0  0
  5  6  2  0  0  0
 18 19  2  0  0  0
 18 20  1  0  0  0
 20 22  1  0  0  0
 22 23  1  0  0  0
 23 24  1  0  0  0
 24 25  1  0  0  0
 24 29  1  0  0  0
 25 26  1  0  0  0
 26 27  1  0  0  0
 27 28  1  0  0  0
 28 29  1  0  0  0
 11 17  1  0  0  0
 20 21  1  0  0  0
M  END
> <minimizedAffinity>
-6.19140

$$$$
2432


 26 29  0  0  0  0  0  0  0  0999 V2000
   -0.6424  -16.8110  -36.4342 C   0  0  0  0  0  0  0  0  0  0  0  0
   -0.5869  -17.3315  -35.2222 O   0  0  0  0  0  0  0  0  0  0  0  0
   -1.1177  -17.6282  -37.4475 N   0  0  0  0  0  0  0  0  0  0  0  0
   -1.4793  -19.0235  -37.0983 C   0  0  0  0  0  0  0  0  0  0  0  0
   -0.5764  -19.9037  -37.9205 C   0  0  0  0  0  0  0  0  0  0  0  0
    0.2307  -19.2087  -38.8726 N   0  0  0  0  0  0  0  0  0  0  0  0
   -0.1742  -17.9877  -39.5534 C   0  0  0  0  0  0  0  0  0  0  0  0
   -1.3335  -17.3355  -38.8157 C   0  0  0  0  0  0  0  0  0  0  0  0
    1.5204  -19.7071  -39.2034 C   0  0  0  0  0  0  0  0  0  0  0  0
    1.7048  -20.5061  -40.2711 N   0  0  0  0  0  0  0  0  0  0  0  0
    2.9254  -20.9916  -40.5995 C   0  0  0  0  0  0  0  0  0  0  0  0
    4.0021  -20.6830  -39.8564 N   0  0  0  0  0  0  0  0  0  0  0  0
    3.9019  -19.8921  -38.7759 C   0  0  0  0  0  0  0  0  0  0  0  0
    4.8039  -19.4407  -37.8847 N   0  0  0  0  0  0  0  0  0  0  0  0
    4.1517  -18.6897  -37.0200 N   0  0  0  0  0  0  0  0  0  0  0  0
    2.8348  -18.6392  -37.3287 C   0  0  0  0  0  0  0  0  0  0  0  0
    2.6334  -19.3990  -38.4508 C   0  0  0  0  0  0  0  0  0  0  0  0
    6.2416  -19.7108  -37.8494 C   0  0  0  0  0  0  0  0  0  0  0  0
   -0.4108  -11.5216  -36.3140 Cl  0  0  0  0  0  0  0  0  0  0  0  0
   -0.0065  -13.2216  -36.4156 C   0  0  0  0  0  0  0  0  0  0  0  0
   -0.8426  -14.2948  -36.3495 N   0  0  0  0  0  0  0  0  0  0  0  0
   -0.1810  -15.4475  -36.4637 C   0  0  0  0  0  0  0  0  0  0  0  0
    1.1556  -15.0544  -36.6109 C   0  0  0  0  0  0  0  0  0  0  0  0
    1.2704  -13.6847  -36.5819 C   0  0  0  0  0  0  0  0  0  0  0  0
    2.7233  -12.7186  -36.7246 Cl  0  0  0  0  0  0  0  0  0  0  0  0
   -1.8614  -14.1234  -36.2343 H   0  0  0  0  0  0  0  0  0  0  0  0
 19 20  1  0  0  0
 20 21  1  0  0  0
 20 24  2  0  0  0
 21 22  1  0  0  0
 22 23  2  0  0  0
 22  1  1  0  0  0
 23 24  1  0  0  0
 24 25  1  0  0  0
  1  2  2  0  0  0
  1  3  1  0  0  0
  3  4  1  0  0  0
  3  8  1  0  0  0
  4  5  1  0  0  0
  5  6  1  0  0  0
  6  7  1  0  0  0
  6  9  1  0  0  0
  7  8  1  0  0  0
  9 10  2  0  0  0
  9 17  1  0  0  0
 10 11  1  0  0  0
 11 12  2  0  0  0
 12 13  1  0  0  0
 13 14  1  0  0  0
 13 17  2  0  0  0
 14 15  1  0  0  0
 14 18  1  0  0  0
 15 16  2  0  0  0
 16 17  1  0  0  0
 21 26  1  0  0  0
M  END
> <minimizedAffinity>
-6.27465

$$$$
2439


 30 34  0  0  0  0  0  0  0  0999 V2000
    0.4868  -15.0121  -37.1468 C   0  0  0  0  0  0  0  0  0  0  0  0
   -0.8897  -14.7732  -37.3091 C   0  0  0  0  0  0  0  0  0  0  0  0
   -1.5640  -15.8648  -36.9543 N   0  0  0  0  0  0  0  0  0  0  0  0
   -2.8211  -16.3691  -36.8502 C   0  0  0  0  0  0  0  0  0  0  0  0
   -2.6949  -17.6361  -36.3930 C   0  0  0  0  0  0  0  0  0  0  0  0
   -1.3844  -17.8702  -36.2318 N   0  0  0  0  0  0  0  0  0  0  0  0
   -0.6671  -16.7772  -36.5759 C   0  0  0  0  0  0  0  0  0  0  0  0
    0.6028  -16.2664  -36.6881 N   0  0  0  0  0  0  0  0  0  0  0  0
   -3.8132  -18.4226  -36.1799 C   0  0  0  0  0  0  0  0  0  0  0  0
   -5.0832  -17.9294  -36.4315 C   0  0  0  0  0  0  0  0  0  0  0  0
   -5.2124  -16.6288  -36.9003 C   0  0  0  0  0  0  0  0  0  0  0  0
   -4.0778  -15.8749  -37.1001 C   0  0  0  0  0  0  0  0  0  0  0  0
   -0.9623  -18.7748  -35.8961 H   0  0  0  0  0  0  0  0  0  0  0  0
    4.6957  -10.8149  -38.9162 Br  0  0  0  0  0  0  0  0  0  0  0  0
    3.4116  -12.0966  -38.3630 C   0  0  0  0  0  0  0  0  0  0  0  0
    2.8890  -13.0110  -39.2303 C   0  0  0  0  0  0  0  0  0  0  0  0
    1.9555  -13.9299  -38.7924 C   0  0  0  0  0  0  0  0  0  0  0  0
    1.4906  -13.9951  -37.4795 C   0  0  0  0  0  0  0  0  0  0  0  0
    2.0193  -13.0789  -36.6241 C   0  0  0  0  0  0  0  0  0  0  0  0
    2.9758  -12.1336  -37.0672 C   0  0  0  0  0  0  0  0  0  0  0  0
    1.7846  -17.0022  -36.3822 C   0  0  0  0  0  0  0  0  0  0  0  0
    2.5720  -17.4929  -37.5699 C   0  0  0  0  0  0  0  0  0  0  0  0
    2.4634  -18.9145  -37.8993 C   0  0  0  0  0  0  0  0  0  0  0  0
    3.5154  -19.8129  -37.5239 N   0  0  0  0  0  0  0  0  0  0  0  0
    3.6787  -20.9031  -38.4688 C   0  0  0  0  0  0  0  0  0  0  0  0
    4.5807  -20.6538  -39.6018 C   0  0  0  0  0  0  0  0  0  0  0  0
    5.4288  -19.4390  -39.5272 C   0  0  0  0  0  0  0  0  0  0  0  0
    5.8225  -19.1415  -38.1239 C   0  0  0  0  0  0  0  0  0  0  0  0
    4.7283  -19.1926  -37.1243 C   0  0  0  0  0  0  0  0  0  0  0  0
    3.1446  -20.3101  -36.6832 H   0  0  0  0  0  0  0  0  0  0  0  0
 14 15  1  0  0  0
 15 16  2  0  0  0
 15 20  1  0  0  0
 16 17  1  0  0  0
 17 18  2  0  0  0
 18 19  1  0  0  0
 18  1  1  0  0  0
 19 20  2  0  0  0
  1  2  2  0  0  0
  1  8  1  0  0  0
  2  3  1  0  0  0
  3  4  1  0  0  0
  3  7  1  0  0  0
  4  5  2  0  0  0
  4 12  1  0  0  0
  5  6  1  0  0  0
  5  9  1  0  0  0
  6  7  2  0  0  0
  7  8  1  0  0  0
  8 21  1  0  0  0
 21 22  1  0  0  0
 22 23  1  0  0  0
 23 24  1  0  0  0
 24 25  1  0  0  0
 24 29  1  0  0  0
 25 26  1  0  0  0
 26 27  1  0  0  0
 27 28  1  0  0  0
 28 29  1  0  0  0
  9 10  2  0  0  0
 10 11  1  0  0  0
 11 12  2  0  0  0
  6 13  1  0  0  0
 24 30  1  0  0  0
M  CHG 1  24   1
M  END
> <minimizedAffinity>
-6.94820

$$$$
2440


 33 36  0  0  0  0  0  0  0  0999 V2000
   -2.0070  -12.8450  -35.6918 Cl  0  0  0  0  0  0  0  0  0  0  0  0
   -0.4056  -13.3238  -36.2460 C   0  0  0  0  0  0  0  0  0  0  0  0
   -0.1809  -14.6934  -36.4500 C   0  0  0  0  0  0  0  0  0  0  0  0
    1.0645  -15.0609  -36.8809 C   0  0  0  0  0  0  0  0  0  0  0  0
    2.0764  -14.1047  -37.1087 C   0  0  0  0  0  0  0  0  0  0  0  0
    1.8449  -12.7679  -36.9053 C   0  0  0  0  0  0  0  0  0  0  0  0
    0.5888  -12.4033  -36.4719 C   0  0  0  0  0  0  0  0  0  0  0  0
    1.0734  -16.5216  -37.0387 C   0  0  0  0  0  0  0  0  0  0  0  0
    2.1345  -17.1831  -36.3676 N   0  0  0  0  0  0  0  0  0  0  0  0
    2.4981  -18.3647  -37.0172 C   0  0  0  0  0  0  0  0  0  0  0  0
    1.9170  -18.2423  -38.4090 C   0  0  0  0  0  0  0  0  0  0  0  0
    1.2629  -16.9027  -38.5057 C   0  0  0  0  0  0  0  0  0  0  0  0
   -0.0331  -17.0851  -39.2105 C   0  0  0  0  0  0  0  0  0  0  0  0
   -0.7854  -16.1415  -39.5485 O   0  0  0  0  0  0  0  0  0  0  0  0
   -0.2306  -18.4854  -39.4102 N   0  0  0  0  0  0  0  0  0  0  0  0
    0.7784  -19.1577  -38.6419 C   0  0  0  0  0  0  0  0  0  0  0  0
    0.6905  -20.3298  -38.2433 O   0  0  0  0  0  0  0  0  0  0  0  0
   -0.2602  -16.9662  -36.6236 C   0  0  0  0  0  0  0  0  0  0  0  0
   -0.7229  -18.1476  -36.5578 O   0  0  0  0  0  0  0  0  0  0  0  0
   -1.0242  -15.8262  -36.2801 N   0  0  0  0  0  0  0  0  0  0  0  0
    2.0826  -17.1942  -35.3357 H   0  0  0  0  0  0  0  0  0  0  0  0
   -2.0197  -15.7751  -35.9592 H   0  0  0  0  0  0  0  0  0  0  0  0
   -1.2219  -19.1306  -40.2151 C   0  0  0  0  0  0  0  0  0  0  0  0
   -2.5851  -19.2167  -39.6286 C   0  0  0  0  0  0  0  0  0  0  0  0
   -2.8191  -20.3078  -38.6450 C   0  0  0  0  0  0  0  0  0  0  0  0
   -2.3900  -21.6650  -39.1908 C   0  0  0  0  0  0  0  0  0  0  0  0
    3.9150  -18.7894  -37.0098 C   0  0  0  0  0  0  0  0  0  0  0  0
    4.4530  -19.4603  -38.2098 C   0  0  0  0  0  0  0  0  0  0  0  0
    5.8888  -19.7578  -38.2344 C   0  0  0  0  0  0  0  0  0  0  0  0
    6.3010  -20.8556  -38.6529 O   0  0  0  0  0  0  0  0  0  0  0  0
    6.8784  -18.8316  -37.7937 N   0  0  0  0  0  0  0  0  0  0  0  0
    7.0944  -17.9476  -38.2874 H   0  0  0  0  0  0  0  0  0  0  0  0
    7.4113  -19.0489  -36.9348 H   0  0  0  0  0  0  0  0  0  0  0  0
  1  2  1  0  0  0
  2  3  2  0  0  0
  2  7  1  0  0  0
  3  4  1  0  0  0
  3 20  1  0  0  0
  4  5  2  0  0  0
  4  8  1  0  0  0
  5  6  1  0  0  0
  6  7  2  0  0  0
  8  9  1  0  0  0
  8 12  1  0  0  0
  8 18  1  0  0  0
  9 10  1  0  0  0
 10 11  1  0  0  0
 10 27  1  0  0  0
 11 12  1  0  0  0
 11 16  1  0  0  0
 12 13  1  0  0  0
 13 14  2  0  0  0
 13 15  1  0  0  0
 15 16  1  0  0  0
 15 23  1  0  0  0
 16 17  2  0  0  0
 23 24  1  0  0  0
 24 25  1  0  0  0
 25 26  1  0  0  0
 27 28  1  0  0  0
 28 29  1  0  0  0
 29 30  2  0  0  0
 29 31  1  0  0  0
 18 19  2  0  0  0
 18 20  1  0  0  0
  9 21  1  0  0  0
 31 32  1  0  0  0
 31 33  1  0  0  0
 20 22  1  0  0  0
M  END
> <minimizedAffinity>
-6.42499

$$$$
2447


 33 36  0  0  0  0  0  0  0  0999 V2000
   -0.0372  -17.7432  -39.8531 C   0  0  0  0  0  0  0  0  0  0  0  0
   -0.7655  -17.2744  -41.0674 C   0  0  0  0  0  0  0  0  0  0  0  0
   -0.8387  -17.9569  -42.1170 O   0  0  0  0  0  0  0  0  0  0  0  0
   -1.3490  -16.0185  -40.9225 O   0  0  0  0  0  0  0  0  0  0  0  0
   -1.7820  -15.4872  -39.7257 C   0  0  0  0  0  0  0  0  0  0  0  0
   -1.6314  -16.2372  -38.6122 C   0  0  0  0  0  0  0  0  0  0  0  0
   -1.0308  -17.5477  -38.7371 C   0  0  0  0  0  0  0  0  0  0  0  0
   -1.3087  -18.4860  -37.9716 O   0  0  0  0  0  0  0  0  0  0  0  0
    0.4114  -19.1585  -39.9464 C   0  0  0  0  0  0  0  0  0  0  0  0
    3.9858  -20.9425  -38.9185 N   0  0  0  0  0  0  0  0  0  0  0  0
    3.3354  -20.8017  -40.1778 C   0  0  0  0  0  0  0  0  0  0  0  0
    2.7935  -19.3901  -40.2894 C   0  0  0  0  0  0  0  0  0  0  0  0
    1.6988  -19.2772  -39.3576 N   0  0  0  0  0  0  0  0  0  0  0  0
    1.8172  -20.0607  -38.1844 C   0  0  0  0  0  0  0  0  0  0  0  0
    3.3059  -20.2361  -37.8814 C   0  0  0  0  0  0  0  0  0  0  0  0
    5.6696  -20.7180  -38.9583 S   0  0  0  0  0  0  0  0  0  0  0  0
    6.4482  -21.9483  -38.5445 O   0  0  0  0  0  0  0  0  0  0  0  0
    6.0726  -20.4373  -40.3999 O   0  0  0  0  0  0  0  0  0  0  0  0
    6.2282  -19.3656  -37.9922 C   0  0  0  0  0  0  0  0  0  0  0  0
   -2.0833  -15.7486  -37.3023 C   0  0  0  0  0  0  0  0  0  0  0  0
   -1.1113  -15.0828  -36.5373 N   0  0  0  0  0  0  0  0  0  0  0  0
   -1.0221  -13.6856  -36.5371 C   0  0  0  0  0  0  0  0  0  0  0  0
    0.3874  -13.2358  -36.0903 C   0  0  0  0  0  0  0  0  0  0  0  0
    1.2957  -14.0375  -36.8696 N   0  0  0  0  0  0  0  0  0  0  0  0
    1.3141  -15.4472  -36.5063 C   0  0  0  0  0  0  0  0  0  0  0  0
   -0.0561  -15.8429  -35.9730 C   0  0  0  0  0  0  0  0  0  0  0  0
    2.0889  -13.5039  -37.9041 C   0  0  0  0  0  0  0  0  0  0  0  0
    2.9215  -12.4190  -37.7492 C   0  0  0  0  0  0  0  0  0  0  0  0
    3.6776  -11.9412  -38.7940 C   0  0  0  0  0  0  0  0  0  0  0  0
    3.6470  -12.5136  -40.0441 C   0  0  0  0  0  0  0  0  0  0  0  0
    2.8269  -13.5962  -40.2298 C   0  0  0  0  0  0  0  0  0  0  0  0
    2.0625  -14.0806  -39.1784 C   0  0  0  0  0  0  0  0  0  0  0  0
    4.7124  -10.5627  -38.5355 Cl  0  0  0  0  0  0  0  0  0  0  0  0
 16 17  2  0  0  0
 16 18  2  0  0  0
 16 10  1  0  0  0
 16 19  1  0  0  0
 10 11  1  0  0  0
 10 15  1  0  0  0
 11 12  1  0  0  0
 12 13  1  0  0  0
 13 14  1  0  0  0
 13  9  1  0  0  0
 14 15  1  0  0  0
  9  1  1  0  0  0
  1  2  1  0  0  0
  1  7  1  0  0  0
  2  3  2  0  0  0
  2  4  1  0  0  0
  4  5  1  0  0  0
  5  6  2  0  0  0
  6  7  1  0  0  0
  6 20  1  0  0  0
  7  8  2  0  0  0
 20 21  1  0  0  0
 21 22  1  0  0  0
 21 26  1  0  0  0
 22 23  1  0  0  0
 23 24  1  0  0  0
 24 25  1  0  0  0
 24 27  1  0  0  0
 25 26  1  0  0  0
 27 28  2  0  0  0
 27 32  1  0  0  0
 28 29  1  0  0  0
 29 30  2  0  0  0
 29 33  1  0  0  0
 30 31  1  0  0  0
 31 32  2  0  0  0
M  END
> <minimizedAffinity>
-6.47489

$$$$
