3


 38 41  0  0  0  0  0  0  0  0999 V2000
    2.3556  -17.4408  -36.3096 C   0  0  0  0  0  0  0  0  0  0  0  0
    3.1243  -17.9482  -35.2920 N   0  0  0  0  0  0  0  0  0  0  0  0
    3.8919  -18.8935  -35.7591 N   0  0  0  0  0  0  0  0  0  0  0  0
    3.7015  -19.0743  -37.0546 N   0  0  0  0  0  0  0  0  0  0  0  0
    2.7565  -18.1916  -37.4199 C   0  0  0  0  0  0  0  0  0  0  0  0
    4.4185  -20.0118  -37.8381 C   0  0  0  0  0  0  0  0  0  0  0  0
    3.9882  -21.1535  -38.4161 N   0  0  0  0  0  0  0  0  0  0  0  0
    4.9722  -21.7204  -39.0626 O   0  0  0  0  0  0  0  0  0  0  0  0
    6.0637  -21.0075  -38.9483 N   0  0  0  0  0  0  0  0  0  0  0  0
    5.7565  -19.9387  -38.1945 C   0  0  0  0  0  0  0  0  0  0  0  0
    6.6738  -18.9250  -37.8428 N   0  0  0  0  0  0  0  0  0  0  0  0
    7.0032  -18.2717  -38.5765 H   0  0  0  0  0  0  0  0  0  0  0  0
    7.0324  -18.8064  -36.8782 H   0  0  0  0  0  0  0  0  0  0  0  0
    1.5138  -15.0240  -36.4417 N   0  0  0  0  0  0  0  0  0  0  0  0
    1.3777  -16.3785  -36.1697 C   0  0  0  0  0  0  0  0  0  0  0  0
    0.2301  -16.7650  -35.7297 O   0  0  0  0  0  0  0  0  0  0  0  0
    2.3659  -14.5300  -36.7987 H   0  0  0  0  0  0  0  0  0  0  0  0
    0.5261  -12.9190  -36.1104 C   0  0  0  0  0  0  0  0  0  0  0  0
    0.3670  -14.1907  -36.2097 N   0  0  0  0  0  0  0  0  0  0  0  0
   -2.2145   -8.7072  -37.8116 Br  0  0  0  0  0  0  0  0  0  0  0  0
   -1.8878  -10.0797  -36.5472 C   0  0  0  0  0  0  0  0  0  0  0  0
   -2.6705  -10.1832  -35.4346 C   0  0  0  0  0  0  0  0  0  0  0  0
   -2.4049  -11.2017  -34.5229 C   0  0  0  0  0  0  0  0  0  0  0  0
   -1.3562  -12.0838  -34.7635 C   0  0  0  0  0  0  0  0  0  0  0  0
   -0.5660  -11.9866  -35.8774 C   0  0  0  0  0  0  0  0  0  0  0  0
   -0.8401  -10.9745  -36.7702 C   0  0  0  0  0  0  0  0  0  0  0  0
   -0.0338  -10.8858  -37.8945 O   0  0  0  0  0  0  0  0  0  0  0  0
   -3.4742  -11.3737  -32.9672 Br  0  0  0  0  0  0  0  0  0  0  0  0
   -3.7208   -9.3146  -35.1763 O   0  0  0  0  0  0  0  0  0  0  0  0
   -0.1947  -10.1591  -38.5806 H   0  0  0  0  0  0  0  0  0  0  0  0
   -4.2834   -9.4119  -34.3469 H   0  0  0  0  0  0  0  0  0  0  0  0
    2.2239  -17.9798  -38.7692 C   0  0  0  0  0  0  0  0  0  0  0  0
    1.4013  -19.0826  -39.2734 N   0  0  0  0  0  0  0  0  0  0  0  0
    0.5879  -18.5826  -40.3991 C   0  0  0  0  0  0  0  0  0  0  0  0
   -0.0453  -17.2873  -40.0279 C   0  0  0  0  0  0  0  0  0  0  0  0
   -0.7448  -17.4344  -38.8553 O   0  0  0  0  0  0  0  0  0  0  0  0
   -0.8681  -18.7305  -38.4283 C   0  0  0  0  0  0  0  0  0  0  0  0
    0.4350  -19.4552  -38.2130 C   0  0  0  0  0  0  0  0  0  0  0  0
 20 21  1  0  0  0
 21 22  2  0  0  0
 21 26  1  0  0  0
 22 23  1  0  0  0
 22 29  1  0  0  0
 23 24  2  0  0  0
 23 28  1  0  0  0
 24 25  1  0  0  0
 25 26  2  0  0  0
 25 18  1  0  0  0
 26 27  1  0  0  0
 18 19  2  0  0  0
 19 14  1  0  0  0
 14 15  1  0  0  0
 15 16  2  0  0  0
 15  1  1  0  0  0
  1  2  1  0  0  0
  1  5  2  0  0  0
  2  3  2  0  0  0
  3  4  1  0  0  0
  4  5  1  0  0  0
  4  6  1  0  0  0
  5 32  1  0  0  0
 32 33  1  0  0  0
 33 34  1  0  0  0
 33 38  1  0  0  0
 34 35  1  0  0  0
 35 36  1  0  0  0
 36 37  1  0  0  0
 37 38  1  0  0  0
  6  7  2  0  0  0
  6 10  1  0  0  0
  7  8  1  0  0  0
  8  9  1  0  0  0
  9 10  2  0  0  0
 10 11  1  0  0  0
 27 30  1  0  0  0
 14 17  1  0  0  0
 11 12  1  0  0  0
 11 13  1  0  0  0
 29 31  1  0  0  0
M  END
> <minimizedAffinity>
-7.03641

$$$$
708


 31 34  0  0  0  0  0  0  0  0999 V2000
    1.6104  -16.3867  -37.4000 C   0  0  0  0  0  0  0  0  0  0  0  0
    0.9056  -17.7077  -37.2982 C   0  0  0  0  0  0  0  0  0  0  0  0
   -1.1343  -18.3813  -39.7420 Br  0  0  0  0  0  0  0  0  0  0  0  0
    0.5959  -19.0790  -39.3613 C   0  0  0  0  0  0  0  0  0  0  0  0
    1.3360  -18.6797  -38.2821 N   0  0  0  0  0  0  0  0  0  0  0  0
    2.4754  -19.3947  -38.3657 C   0  0  0  0  0  0  0  0  0  0  0  0
    2.4572  -20.2265  -39.4735 C   0  0  0  0  0  0  0  0  0  0  0  0
    1.2664  -19.9999  -40.0689 N   0  0  0  0  0  0  0  0  0  0  0  0
    3.4562  -21.0609  -39.8091 N   0  0  0  0  0  0  0  0  0  0  0  0
    4.5296  -21.0698  -38.9986 C   0  0  0  0  0  0  0  0  0  0  0  0
    5.5061  -21.8447  -39.2750 O   0  0  0  0  0  0  0  0  0  0  0  0
    4.5887  -20.2790  -37.9113 N   0  0  0  0  0  0  0  0  0  0  0  0
    3.5780  -19.4324  -37.5685 C   0  0  0  0  0  0  0  0  0  0  0  0
    3.6477  -18.7067  -36.5552 O   0  0  0  0  0  0  0  0  0  0  0  0
    3.4292  -21.9255  -40.9695 C   0  0  0  0  0  0  0  0  0  0  0  0
    5.4130  -20.2737  -37.2734 H   0  0  0  0  0  0  0  0  0  0  0  0
    0.8435  -15.3226  -38.1314 C   0  0  0  0  0  0  0  0  0  0  0  0
    1.7619  -14.4539  -38.8547 N   0  0  0  0  0  0  0  0  0  0  0  0
    2.4276  -13.3689  -38.3976 C   0  0  0  0  0  0  0  0  0  0  0  0
    3.1982  -12.8253  -39.3990 C   0  0  0  0  0  0  0  0  0  0  0  0
    2.9884  -13.6019  -40.4785 N   0  0  0  0  0  0  0  0  0  0  0  0
    2.1212  -14.5809  -40.1421 C   0  0  0  0  0  0  0  0  0  0  0  0
    1.4668  -15.9686  -41.2792 Br  0  0  0  0  0  0  0  0  0  0  0  0
    3.9718  -11.7358  -39.2374 N   0  0  0  0  0  0  0  0  0  0  0  0
    3.9670  -11.1681  -38.0063 C   0  0  0  0  0  0  0  0  0  0  0  0
    4.6960  -10.1413  -37.8495 O   0  0  0  0  0  0  0  0  0  0  0  0
    3.2257  -11.6694  -36.9961 N   0  0  0  0  0  0  0  0  0  0  0  0
    2.4542  -12.7621  -37.1695 C   0  0  0  0  0  0  0  0  0  0  0  0
    1.7537  -13.2529  -36.2512 O   0  0  0  0  0  0  0  0  0  0  0  0
    4.7739  -11.1933  -40.3312 C   0  0  0  0  0  0  0  0  0  0  0  0
    3.2627  -11.1924  -36.0735 H   0  0  0  0  0  0  0  0  0  0  0  0
  3  4  1  0  0  0
  4  5  1  0  0  0
  4  8  2  0  0  0
  5  6  1  0  0  0
  5  2  1  0  0  0
  6  7  2  0  0  0
  6 13  1  0  0  0
  7  8  1  0  0  0
  7  9  1  0  0  0
  9 10  1  0  0  0
  9 15  1  0  0  0
 10 11  2  0  0  0
 10 12  1  0  0  0
 12 13  1  0  0  0
 13 14  2  0  0  0
  2  1  1  0  0  0
  1 17  1  0  0  0
 17 18  1  0  0  0
 18 19  1  0  0  0
 18 22  1  0  0  0
 19 20  2  0  0  0
 19 28  1  0  0  0
 20 21  1  0  0  0
 20 24  1  0  0  0
 21 22  2  0  0  0
 22 23  1  0  0  0
 24 25  1  0  0  0
 24 30  1  0  0  0
 25 26  2  0  0  0
 25 27  1  0  0  0
 27 28  1  0  0  0
 28 29  2  0  0  0
 12 16  1  0  0  0
 27 31  1  0  0  0
M  END
> <minimizedAffinity>
-6.46582

$$$$
1808


 24 28  0  0  0  0  0  0  0  0999 V2000
    1.2556  -16.7688  -37.8769 N   0  0  0  0  0  0  0  0  0  0  0  0
    1.9128  -17.7399  -37.0778 C   0  0  0  0  0  0  0  0  0  0  0  0
    2.5737  -17.4724  -36.0455 O   0  0  0  0  0  0  0  0  0  0  0  0
    1.6841  -19.0878  -37.6640 C   0  0  0  0  0  0  0  0  0  0  0  0
    2.7972  -19.5050  -38.5749 C   0  0  0  0  0  0  0  0  0  0  0  0
    2.0849  -20.2986  -39.5014 O   0  0  0  0  0  0  0  0  0  0  0  0
    1.2019  -19.2845  -39.9506 C   0  0  0  0  0  0  0  0  0  0  0  0
    0.5516  -18.8838  -38.6714 C   0  0  0  0  0  0  0  0  0  0  0  0
    0.2672  -17.4236  -38.6715 C   0  0  0  0  0  0  0  0  0  0  0  0
   -0.6727  -16.8898  -39.2665 O   0  0  0  0  0  0  0  0  0  0  0  0
    2.1967  -18.2441  -40.3197 C   0  0  0  0  0  0  0  0  0  0  0  0
    3.1617  -18.3506  -39.4112 C   0  0  0  0  0  0  0  0  0  0  0  0
    2.6715  -10.8442  -37.7475 Br  0  0  0  0  0  0  0  0  0  0  0  0
    2.2289  -12.6884  -37.7778 C   0  0  0  0  0  0  0  0  0  0  0  0
    1.7180  -13.2806  -36.6484 C   0  0  0  0  0  0  0  0  0  0  0  0
    1.4043  -14.6209  -36.6991 C   0  0  0  0  0  0  0  0  0  0  0  0
    1.5883  -15.3753  -37.8368 C   0  0  0  0  0  0  0  0  0  0  0  0
    2.1038  -14.7781  -38.9790 C   0  0  0  0  0  0  0  0  0  0  0  0
    2.4196  -13.4190  -38.9239 C   0  0  0  0  0  0  0  0  0  0  0  0
    3.9047  -20.2263  -37.9356 C   0  0  0  0  0  0  0  0  0  0  0  0
    5.1056  -19.5743  -38.0003 O   0  0  0  0  0  0  0  0  0  0  0  0
    5.9369  -20.2630  -38.8477 C   0  0  0  0  0  0  0  0  0  0  0  0
    5.1631  -21.4457  -39.3300 C   0  0  0  0  0  0  0  0  0  0  0  0
    4.0723  -21.4914  -38.4692 O   0  0  0  0  0  0  0  0  0  0  0  0
 13 14  1  0  0  0
 14 15  2  0  0  0
 14 19  1  0  0  0
 15 16  1  0  0  0
 16 17  2  0  0  0
 17 18  1  0  0  0
 17  1  1  0  0  0
 18 19  2  0  0  0
  1  2  1  0  0  0
  1  9  1  0  0  0
  2  3  2  0  0  0
  2  4  1  0  0  0
  4  5  1  0  0  0
  4  8  1  0  0  0
  5  6  1  0  0  0
  5 12  1  0  0  0
  5 20  1  0  0  0
  6  7  1  0  0  0
  7  8  1  0  0  0
  7 11  1  0  0  0
  8  9  1  0  0  0
  9 10  2  0  0  0
 11 12  2  0  0  0
 20 21  1  0  0  0
 20 24  1  0  0  0
 21 22  1  0  0  0
 22 23  1  0  0  0
 23 24  1  0  0  0
M  END
> <minimizedAffinity>
-6.72135

$$$$
