# created with PyMOL 2.5.2
@<TRIPOS>MOLECULE
predictions
57 59 1                 
SMALL
USER_CHARGES
@<TRIPOS>ATOM
1	   C	11.078	-0.087	8.648	C.2	1	UNK0	0.000	
2	   C	11.721	-1.039	7.837	C.2	1	UNK0	0.000	
3	   H	11.156	-1.841	7.385	 H	1	UNK0	0.000	
4	   C	13.096	-0.936	7.622	C.2	1	UNK0	0.000	
5	   H	13.606	-1.665	7.010	 H	1	UNK0	0.000	
6	   C	11.791	0.960	9.235	C.2	1	UNK0	0.000	
7	   H	11.283	1.683	9.856	 H	1	UNK0	0.000	
8	   C	13.156	1.066	9.014	C.2	1	UNK0	0.000	
9	   C	13.810	0.119	8.204	C.2	1	UNK0	0.000	
10	   C	14.126	1.982	9.460	C.3	1	UNK0	0.000	
11	   C	15.328	1.542	8.880	C.2	1	UNK0	0.000	
12	   C	13.824	3.100	10.283	C.3	1	UNK0	0.000	
13	   H	14.664	3.782	10.152	 H	1	UNK0	0.000	
14	   H	13.828	2.710	11.301	 H	1	UNK0	0.000	
15	   C	12.684	3.912	10.211	C.2	1	UNK0	0.000	
16	   C	11.724	3.983	11.238	C.2	1	UNK0	0.000	
17	   C	10.741	4.876	10.835	C.2	1	UNK0	0.000	
18	   C	11.140	5.326	9.580	C.2	1	UNK0	0.000	
19	   C	11.757	3.207	12.562	C.3	1	UNK0	0.000	
20	   H	12.651	2.584	12.596	 H	1	UNK0	0.000	
21	   H	10.871	2.576	12.635	 H	1	UNK0	0.000	
22	   H	11.772	3.910	13.395	 H	1	UNK0	0.000	
23	   C	10.443	6.345	8.680	C.3	1	UNK0	0.000	
24	   H	9.530	6.694	9.163	 H	1	UNK0	0.000	
25	   H	10.193	5.878	7.727	 H	1	UNK0	0.000	
26	   H	11.108	7.191	8.506	 H	1	UNK0	0.000	
27	   C	9.467	5.363	11.617	C.2	1	UNK0	0.000	
28	   C	8.474	6.115	13.771	C.3	1	UNK0	0.000	
29	   H	7.604	5.466	13.670	 H	1	UNK0	0.000	
30	   H	8.783	6.148	14.816	 H	1	UNK0	0.000	
31	   C	8.137	7.543	13.270	C.3	1	UNK0	0.000	
32	   H	8.626	7.684	12.306	 H	1	UNK0	0.000	
33	   H	8.541	8.255	13.989	 H	1	UNK0	0.000	
34	   C	6.392	8.419	11.760	C.3	1	UNK0	0.000	
35	   H	7.226	8.200	11.093	 H	1	UNK0	0.000	
36	   H	6.282	9.499	11.862	 H	1	UNK0	0.000	
37	   C	6.102	8.664	14.184	C.3	1	UNK0	0.000	
38	   H	6.336	9.714	14.012	 H	1	UNK0	0.000	
39	   H	6.521	8.350	15.140	 H	1	UNK0	0.000	
40	   N	15.112	0.452	8.157	N.pl3	1	UNK0	0.000	
41	   N	12.281	4.738	9.232	N.pl3	1	UNK0	0.000	
42	   H	12.771	4.891	8.362	 H	1	UNK0	0.000	
43	   N	9.588	5.615	12.923	N.pl3	1	UNK0	0.000	
44	   H	10.485	5.456	13.358	 H	1	UNK0	0.000	
45	   N	6.686	7.842	13.095	N.3	1	UNK0	0.000	
46	   H	6.226	6.944	13.153	 H	1	UNK0	0.000	
47	   O	16.459	2.033	8.994	O.2	1	UNK0	0.000	
48	   O	8.421	5.556	11.007	O.2	1	UNK0	0.000	
49	   C	4.575	8.477	14.209	C.3	1	UNK0	0.000	
50	   H	4.148	9.081	15.010	 H	1	UNK0	0.000	
51	   H	4.340	7.427	14.382	 H	1	UNK0	0.000	
52	   H	4.155	8.791	13.253	 H	1	UNK0	0.000	
53	   C	5.103	7.848	11.142	C.3	1	UNK0	0.000	
54	   H	4.935	8.304	10.166	 H	1	UNK0	0.000	
55	   H	4.259	8.067	11.796	 H	1	UNK0	0.000	
56	   H	5.203	6.769	11.027	 H	1	UNK0	0.000	
57	   C	9.385	-0.207	8.960	C.3	1	UNK0	0.000	
@<TRIPOS>BOND
1 1 57 1
2 1 6 1
3 1 2 2
4 2 3 1
5 2 4 1
6 4 9 2
7 4 5 1
8 6 7 1
9 6 8 2
10 8 10 1
11 8 9 1
12 10 12 1
13 11 47 2
14 10 11 1
15 12 14 1
16 12 13 1
17 12 15 1
18 15 16 2
19 16 19 1
20 16 17 1
21 17 27 1
22 17 18 2
23 19 20 1
24 19 21 1
25 19 22 1
26 23 24 1
27 18 23 1
28 23 25 1
29 23 26 1
30 27 43 1
31 28 30 1
32 28 29 1
33 28 31 1
34 31 33 1
35 31 32 1
36 34 36 1
37 34 45 1
38 34 35 1
39 37 49 1
40 37 39 1
41 37 38 1
42 9 40 1
43 11 40 1
44 18 41 1
45 15 41 1
46 41 42 1
47 43 44 1
48 28 43 1
49 45 46 1
50 31 45 1
51 37 45 1
52 27 48 2
53 49 51 1
54 49 50 1
55 49 52 1
56 34 53 1
57 53 55 1
58 53 54 1
59 53 56 1
@<TRIPOS>SUBSTRUCTURE
1	UNK0	1	GROUP	1 ****	UNK
