
 OpenBabel03112211313D

 57 59  0  0  1  0  0  0  0  0999 V2000
   11.2000   -0.4130    8.5510 C   0  0  0  0  0  0  0  0  0  0  0  0
   11.8360   -1.0260    7.4560 C   0  0  0  0  0  0  0  0  0  0  0  0
   11.2820   -1.6780    6.7970 H   0  0  0  0  0  0  0  0  0  0  0  0
   13.1920   -0.7830    7.2310 C   0  0  0  0  0  0  0  0  0  0  0  0
   13.6970   -1.2540    6.4010 H   0  0  0  0  0  0  0  0  0  0  0  0
   11.9000    0.4360    9.4090 C   0  0  0  0  0  0  0  0  0  0  0  0
   11.3980    0.8990   10.2450 H   0  0  0  0  0  0  0  0  0  0  0  0
   13.2450    0.6830    9.1800 C   0  0  0  0  0  0  0  0  0  0  0  0
   13.8930    0.0760    8.0880 C   0  0  0  0  0  0  0  0  0  0  0  0
   14.2000    1.4670    9.8520 C   0  0  1  0  0  0  0  0  0  0  0  0
   15.3850    1.3000    9.1170 C   0  0  0  0  0  0  0  0  0  0  0  0
   13.8970    2.2530   10.9980 C   0  0  0  0  0  0  0  0  0  0  0  0
   14.8630    2.4810   11.4470 H   0  0  0  0  0  0  0  0  0  0  0  0
   13.3380    1.5880   11.6560 H   0  0  0  0  0  0  0  0  0  0  0  0
   13.1910    3.4640   11.0220 C   0  0  0  0  0  0  0  0  0  0  0  0
   11.8260    3.5650   10.6960 C   0  0  0  0  0  0  0  0  0  0  0  0
   11.4590    4.8970   10.8270 C   0  0  0  0  0  0  0  0  0  0  0  0
   12.6110    5.5620   11.2370 C   0  0  0  0  0  0  0  0  0  0  0  0
   10.9100    2.4100   10.2670 C   0  0  0  0  0  0  0  0  0  0  0  0
   11.4790    1.4810   10.2560 H   0  0  0  0  0  0  0  0  0  0  0  0
   10.5190    2.6090    9.2690 H   0  0  0  0  0  0  0  0  0  0  0  0
   10.0830    2.3220   10.9710 H   0  0  0  0  0  0  0  0  0  0  0  0
   12.7790    7.0460   11.5580 C   0  0  0  0  0  0  0  0  0  0  0  0
   11.8290    7.5600   11.4080 H   0  0  0  0  0  0  0  0  0  0  0  0
   13.5330    7.4770   10.9000 H   0  0  0  0  0  0  0  0  0  0  0  0
   13.0940    7.1600   12.5950 H   0  0  0  0  0  0  0  0  0  0  0  0
   10.0450    5.5570   10.6330 C   0  0  0  0  0  0  0  0  0  0  0  0
    7.6650    5.6910   11.3450 C   0  0  0  0  0  0  0  0  0  0  0  0
    7.3710    5.8640   10.3100 H   0  0  0  0  0  0  0  0  0  0  0  0
    6.9590    5.0040   11.8130 H   0  0  0  0  0  0  0  0  0  0  0  0
    7.6990    7.0320   12.1230 C   0  0  0  0  0  0  0  0  0  0  0  0
    8.6680    7.4980   11.9440 H   0  0  0  0  0  0  0  0  0  0  0  0
    7.5950    6.8070   13.1840 H   0  0  0  0  0  0  0  0  0  0  0  0
    6.4530    9.0480   12.8090 C   0  0  0  0  0  0  0  0  0  0  0  0
    6.5400   10.0350   12.3530 H   0  0  0  0  0  0  0  0  0  0  0  0
    7.2320    8.9270   13.5620 H   0  0  0  0  0  0  0  0  0  0  0  0
    5.3510    7.4030   11.3590 C   0  0  0  0  0  0  0  0  0  0  0  0
    4.7850    7.1380   12.2510 H   0  0  0  0  0  0  0  0  0  0  0  0
    5.5430    6.5060   10.7700 H   0  0  0  0  0  0  0  0  0  0  0  0
   15.1740    0.4800    8.0960 N   0  0  0  0  0  0  0  0  0  0  0  0
   13.6180    4.6980   11.3370 N   0  0  0  0  0  0  0  0  0  0  0  0
   14.5610    4.9350   11.6080 H   0  0  0  0  0  0  0  0  0  0  0  0
    9.0400    5.1280   11.4000 N   0  0  0  0  0  0  0  0  0  0  0  0
    9.2240    4.3790   12.0530 H   0  0  0  0  0  0  0  0  0  0  0  0
    6.6430    8.0190   11.7580 N   0  0  0  0  0  4  0  0  0  0  0  0
    6.9910    8.4810   10.9300 H   0  0  0  0  0  0  0  0  0  0  0  0
   16.4990    1.7940    9.3350 O   0  0  0  0  0  0  0  0  0  0  0  0
    9.9130    6.4800    9.8360 O   0  0  0  0  0  0  0  0  0  0  0  0
    4.5410    8.4040   10.5180 C   0  0  0  0  0  0  0  0  0  0  0  0
    3.5940    7.9500   10.2260 H   0  0  0  0  0  0  0  0  0  0  0  0
    5.1070    8.6700    9.6250 H   0  0  0  0  0  0  0  0  0  0  0  0
    4.3480    9.3010   11.1060 H   0  0  0  0  0  0  0  0  0  0  0  0
    5.0810    8.9420   13.4970 C   0  0  0  0  0  0  0  0  0  0  0  0
    4.9940    9.7180   14.2580 H   0  0  0  0  0  0  0  0  0  0  0  0
    4.9840    7.9620   13.9650 H   0  0  0  0  0  0  0  0  0  0  0  0
    4.2920    9.0700   12.7560 H   0  0  0  0  0  0  0  0  0  0  0  0
    9.5330   -0.7210    8.8750 C   0  0  0  0  0  0  0  0  0  0  0  0
  1 57  1  0  0  0  0
  1  6  1  0  0  0  0
  2  1  2  0  0  0  0
  3  2  1  0  0  0  0
  4  2  1  0  0  0  0
  4  9  2  0  0  0  0
  5  4  1  0  0  0  0
  6  7  1  0  0  0  0
  8  6  2  0  0  0  0
  8 10  1  0  0  0  0
  9 40  1  0  0  0  0
  9  8  1  0  0  0  0
 10 12  1  6  0  0  0
 11 47  2  0  0  0  0
 11 10  1  0  0  0  0
 12 15  1  0  0  0  0
 12 13  1  0  0  0  0
 12 14  1  0  0  0  0
 15 41  1  0  0  0  0
 16 17  1  0  0  0  0
 16 15  2  0  0  0  0
 17 18  2  0  0  0  0
 18 41  1  0  0  0  0
 18 23  1  0  0  0  0
 19 16  1  0  0  0  0
 19 22  1  0  0  0  0
 20 19  1  0  0  0  0
 21 19  1  0  0  0  0
 23 26  1  0  0  0  0
 24 23  1  0  0  0  0
 25 23  1  0  0  0  0
 27 17  1  0  0  0  0
 27 43  1  0  0  0  0
 28 43  1  0  0  0  0
 28 30  1  0  0  0  0
 28 31  1  0  0  0  0
 29 28  1  0  0  0  0
 31 33  1  0  0  0  0
 32 31  1  0  0  0  0
 34 53  1  0  0  0  0
 34 36  1  0  0  0  0
 35 34  1  0  0  0  0
 37 45  1  0  0  0  0
 37 38  1  0  0  0  0
 39 37  1  0  0  0  0
 40 11  1  0  0  0  0
 41 42  1  0  0  0  0
 43 44  1  0  0  0  0
 45 31  1  0  0  0  0
 45 34  1  0  0  0  0
 46 45  1  0  0  0  0
 48 27  2  0  0  0  0
 49 52  1  0  0  0  0
 49 37  1  0  0  0  0
 50 49  1  0  0  0  0
 51 49  1  0  0  0  0
 53 55  1  0  0  0  0
 53 54  1  0  0  0  0
 56 53  1  0  0  0  0
M  END
>  <Pose>
1

>  <Score>
-7.82

$$$$

 OpenBabel03112211313D

 57 59  0  0  1  0  0  0  0  0999 V2000
   11.1780    0.1410    8.7220 C   0  0  0  0  0  0  0  0  0  0  0  0
   11.7280   -0.6710    7.7130 C   0  0  0  0  0  0  0  0  0  0  0  0
   11.1030   -1.3650    7.1700 H   0  0  0  0  0  0  0  0  0  0  0  0
   13.0890   -0.5720    7.4220 C   0  0  0  0  0  0  0  0  0  0  0  0
   13.5280   -1.1960    6.6580 H   0  0  0  0  0  0  0  0  0  0  0  0
   11.9710    1.0470    9.4290 C   0  0  0  0  0  0  0  0  0  0  0  0
   11.5340    1.6630   10.2010 H   0  0  0  0  0  0  0  0  0  0  0  0
   13.3220    1.1490    9.1340 C   0  0  0  0  0  0  0  0  0  0  0  0
   13.8820    0.3420    8.1270 C   0  0  0  0  0  0  0  0  0  0  0  0
   14.3550    1.9440    9.6620 C   0  0  1  0  0  0  0  0  0  0  0  0
   15.4980    1.5790    8.9310 C   0  0  0  0  0  0  0  0  0  0  0  0
   14.1530    2.9080   10.6870 C   0  0  0  0  0  0  0  0  0  0  0  0
   15.0490    3.5290   10.6710 H   0  0  0  0  0  0  0  0  0  0  0  0
   14.1260    2.3330   11.6130 H   0  0  0  0  0  0  0  0  0  0  0  0
   13.0880    3.8120   10.7900 C   0  0  0  0  0  0  0  0  0  0  0  0
   12.8820    4.6330   11.9140 C   0  0  0  0  0  0  0  0  0  0  0  0
   11.7470    5.3960   11.6780 C   0  0  0  0  0  0  0  0  0  0  0  0
   11.3050    5.0210   10.4120 C   0  0  0  0  0  0  0  0  0  0  0  0
   13.7520    4.6720   13.1780 C   0  0  0  0  0  0  0  0  0  0  0  0
   14.5730    3.9620   13.0760 H   0  0  0  0  0  0  0  0  0  0  0  0
   13.1470    4.4050   14.0440 H   0  0  0  0  0  0  0  0  0  0  0  0
   14.1550    5.6760   13.3110 H   0  0  0  0  0  0  0  0  0  0  0  0
   10.1050    5.5610    9.6350 C   0  0  0  0  0  0  0  0  0  0  0  0
    9.5960    6.3180   10.2320 H   0  0  0  0  0  0  0  0  0  0  0  0
    9.4160    4.7450    9.4180 H   0  0  0  0  0  0  0  0  0  0  0  0
   10.4480    6.0060    8.7000 H   0  0  0  0  0  0  0  0  0  0  0  0
   11.0960    6.5080   12.5790 C   0  0  0  0  0  0  0  0  0  0  0  0
   10.8430    7.5050   14.8450 C   0  0  0  0  0  0  0  0  0  0  0  0
   11.4630    7.5270   15.7410 H   0  0  0  0  0  0  0  0  0  0  0  0
   10.8380    8.4910   14.3820 H   0  0  0  0  0  0  0  0  0  0  0  0
    9.3970    7.0770   15.2070 C   0  0  0  0  0  0  0  0  0  0  0  0
    9.4420    6.0800   15.6440 H   0  0  0  0  0  0  0  0  0  0  0  0
    8.8170    7.0440   14.2850 H   0  0  0  0  0  0  0  0  0  0  0  0
    7.6720    7.2280   16.9650 C   0  0  0  0  0  0  0  0  0  0  0  0
    7.3830    6.3290   16.4200 H   0  0  0  0  0  0  0  0  0  0  0  0
    6.7990    7.8660   17.1020 H   0  0  0  0  0  0  0  0  0  0  0  0
    8.0990    9.1840   15.5460 C   0  0  0  0  0  0  0  0  0  0  0  0
    7.0180    9.1780   15.6800 H   0  0  0  0  0  0  0  0  0  0  0  0
    8.3330    9.1950   14.4810 H   0  0  0  0  0  0  0  0  0  0  0  0
   15.1900    0.6400    8.0460 N   0  0  0  0  0  0  0  0  0  0  0  0
   12.1060    4.0830    9.9150 N   0  0  0  0  0  0  0  0  0  0  0  0
   11.9930    3.6400    9.0140 H   0  0  0  0  0  0  0  0  0  0  0  0
   11.3620    6.4920   13.8880 N   0  0  0  0  0  0  0  0  0  0  0  0
   11.9480    5.7520   14.2470 H   0  0  0  0  0  0  0  0  0  0  0  0
    8.6810    7.9660   16.1670 N   0  0  0  0  0  4  0  0  0  0  0  0
    9.3950    8.2980   16.7990 H   0  0  0  0  0  0  0  0  0  0  0  0
   16.6530    2.0090    9.0480 O   0  0  0  0  0  0  0  0  0  0  0  0
   10.4180    7.3870   12.0580 O   0  0  0  0  0  0  0  0  0  0  0  0
    8.6920   10.4360   16.2130 C   0  0  0  0  0  0  0  0  0  0  0  0
    8.2640   11.3280   15.7560 H   0  0  0  0  0  0  0  0  0  0  0  0
    9.7740   10.4420   16.0780 H   0  0  0  0  0  0  0  0  0  0  0  0
    8.4590   10.4260   17.2780 H   0  0  0  0  0  0  0  0  0  0  0  0
    8.2030    6.8160   18.3500 C   0  0  0  0  0  0  0  0  0  0  0  0
    7.4250    6.2790   18.8920 H   0  0  0  0  0  0  0  0  0  0  0  0
    8.4880    7.7060   18.9090 H   0  0  0  0  0  0  0  0  0  0  0  0
    9.0730    6.1700   18.2270 H   0  0  0  0  0  0  0  0  0  0  0  0
    9.5060    0.0170    9.1270 C   0  0  0  0  0  0  0  0  0  0  0  0
  1 57  1  0  0  0  0
  1  6  1  0  0  0  0
  2  1  2  0  0  0  0
  3  2  1  0  0  0  0
  4  2  1  0  0  0  0
  4  9  2  0  0  0  0
  5  4  1  0  0  0  0
  6  7  1  0  0  0  0
  8  6  2  0  0  0  0
  8 10  1  0  0  0  0
  9  8  1  0  0  0  0
 10 12  1  6  0  0  0
 11 47  2  0  0  0  0
 11 10  1  0  0  0  0
 12 15  1  0  0  0  0
 12 14  1  0  0  0  0
 13 12  1  0  0  0  0
 15 16  2  0  0  0  0
 16 19  1  0  0  0  0
 17 16  1  0  0  0  0
 17 27  1  0  0  0  0
 18 17  2  0  0  0  0
 19 22  1  0  0  0  0
 19 21  1  0  0  0  0
 20 19  1  0  0  0  0
 23 24  1  0  0  0  0
 23 18  1  0  0  0  0
 25 23  1  0  0  0  0
 26 23  1  0  0  0  0
 27 43  1  0  0  0  0
 28 31  1  0  0  0  0
 28 29  1  0  0  0  0
 30 28  1  0  0  0  0
 31 32  1  0  0  0  0
 31 45  1  0  0  0  0
 33 31  1  0  0  0  0
 34 36  1  0  0  0  0
 34 53  1  0  0  0  0
 35 34  1  0  0  0  0
 37 38  1  0  0  0  0
 37 45  1  0  0  0  0
 37 49  1  0  0  0  0
 39 37  1  0  0  0  0
 40  9  1  0  0  0  0
 40 11  1  0  0  0  0
 41 18  1  0  0  0  0
 41 15  1  0  0  0  0
 42 41  1  0  0  0  0
 43 44  1  0  0  0  0
 43 28  1  0  0  0  0
 45 46  1  0  0  0  0
 45 34  1  0  0  0  0
 48 27  2  0  0  0  0
 49 52  1  0  0  0  0
 50 49  1  0  0  0  0
 51 49  1  0  0  0  0
 53 54  1  0  0  0  0
 53 55  1  0  0  0  0
 56 53  1  0  0  0  0
M  END
>  <Pose>
1

>  <Score>
-7.49

$$$$

 OpenBabel03112211313D

 57 59  0  0  1  0  0  0  0  0999 V2000
   11.3620    0.0100    8.7540 C   0  0  0  0  0  0  0  0  0  0  0  0
   11.9370   -0.7930    7.7510 C   0  0  0  0  0  0  0  0  0  0  0  0
   11.3280   -1.4870    7.1920 H   0  0  0  0  0  0  0  0  0  0  0  0
   13.3030   -0.6820    7.4880 C   0  0  0  0  0  0  0  0  0  0  0  0
   13.7620   -1.2980    6.7290 H   0  0  0  0  0  0  0  0  0  0  0  0
   12.1340    0.9170    9.4820 C   0  0  0  0  0  0  0  0  0  0  0  0
   11.6780    1.5260   10.2490 H   0  0  0  0  0  0  0  0  0  0  0  0
   13.4900    1.0310    9.2140 C   0  0  0  0  0  0  0  0  0  0  0  0
   14.0760    0.2340    8.2140 C   0  0  0  0  0  0  0  0  0  0  0  0
   14.5070    1.8300    9.7670 C   0  0  1  0  0  0  0  0  0  0  0  0
   15.6670    1.4770    9.0560 C   0  0  0  0  0  0  0  0  0  0  0  0
   14.2780    2.7860   10.7930 C   0  0  0  0  0  0  0  0  0  0  0  0
   14.7340    3.7070   10.4280 H   0  0  0  0  0  0  0  0  0  0  0  0
   14.8400    2.4180   11.6520 H   0  0  0  0  0  0  0  0  0  0  0  0
   13.0370    3.1780   11.3130 C   0  0  0  0  0  0  0  0  0  0  0  0
   12.7730    4.4820   11.7720 C   0  0  0  0  0  0  0  0  0  0  0  0
   11.4570    4.5160   12.2120 C   0  0  0  0  0  0  0  0  0  0  0  0
   10.9600    3.2340   11.9960 C   0  0  0  0  0  0  0  0  0  0  0  0
   13.7650    5.6530   11.7900 C   0  0  0  0  0  0  0  0  0  0  0  0
   14.7210    5.3260   11.3820 H   0  0  0  0  0  0  0  0  0  0  0  0
   13.9050    5.9950   12.8160 H   0  0  0  0  0  0  0  0  0  0  0  0
   13.3730    6.4710   11.1850 H   0  0  0  0  0  0  0  0  0  0  0  0
    9.5520    2.7100   12.2740 C   0  0  0  0  0  0  0  0  0  0  0  0
    8.9450    3.5080   12.6990 H   0  0  0  0  0  0  0  0  0  0  0  0
    9.6060    1.8800   12.9790 H   0  0  0  0  0  0  0  0  0  0  0  0
    9.1020    2.3670   11.3430 H   0  0  0  0  0  0  0  0  0  0  0  0
   10.6330    5.7310   12.7760 C   0  0  0  0  0  0  0  0  0  0  0  0
    9.8500    7.0050   14.7640 C   0  0  0  0  0  0  0  0  0  0  0  0
    9.3350    7.6140   14.0210 H   0  0  0  0  0  0  0  0  0  0  0  0
    9.1270    6.6190   15.4830 H   0  0  0  0  0  0  0  0  0  0  0  0
   10.9270    7.8510   15.4930 C   0  0  0  0  0  0  0  0  0  0  0  0
   10.4150    8.5140   16.1910 H   0  0  0  0  0  0  0  0  0  0  0  0
   11.4490    8.4450   14.7430 H   0  0  0  0  0  0  0  0  0  0  0  0
   11.6090    6.9820   17.7000 C   0  0  0  0  0  0  0  0  0  0  0  0
   10.5540    6.7240   17.7950 H   0  0  0  0  0  0  0  0  0  0  0  0
   11.7890    7.9500   18.1670 H   0  0  0  0  0  0  0  0  0  0  0  0
   13.3400    7.5510   16.0570 C   0  0  0  0  0  0  0  0  0  0  0  0
   14.0040    7.0280   16.7450 H   0  0  0  0  0  0  0  0  0  0  0  0
   13.3910    8.6230   16.2480 H   0  0  0  0  0  0  0  0  0  0  0  0
   15.3830    0.5420    8.1600 N   0  0  0  0  0  0  0  0  0  0  0  0
   11.9120    2.4640   11.4740 N   0  0  0  0  0  0  0  0  0  0  0  0
   11.8030    1.4890   11.2350 H   0  0  0  0  0  0  0  0  0  0  0  0
   10.5640    5.8820   14.1010 N   0  0  0  0  0  0  0  0  0  0  0  0
   11.0200    5.1950   14.6850 H   0  0  0  0  0  0  0  0  0  0  0  0
   11.9470    7.0790   16.2590 N   0  0  0  0  0  4  0  0  0  0  0  0
   11.9160    6.1470   15.8700 H   0  0  0  0  0  0  0  0  0  0  0  0
   16.8160    1.9150    9.1980 O   0  0  0  0  0  0  0  0  0  0  0  0
   10.1310    6.5340   11.9970 O   0  0  0  0  0  0  0  0  0  0  0  0
   13.7760    7.2680   14.6090 C   0  0  0  0  0  0  0  0  0  0  0  0
   14.7990    7.6150   14.4630 H   0  0  0  0  0  0  0  0  0  0  0  0
   13.1130    7.7910   13.9210 H   0  0  0  0  0  0  0  0  0  0  0  0
   13.7260    6.1960   14.4180 H   0  0  0  0  0  0  0  0  0  0  0  0
   12.4450    5.9180   18.4320 C   0  0  0  0  0  0  0  0  0  0  0  0
   12.1570    5.8890   19.4820 H   0  0  0  0  0  0  0  0  0  0  0  0
   13.5030    6.1690   18.3510 H   0  0  0  0  0  0  0  0  0  0  0  0
   12.2680    4.9420   17.9790 H   0  0  0  0  0  0  0  0  0  0  0  0
    9.6830   -0.1280    9.1260 C   0  0  0  0  0  0  0  0  0  0  0  0
  1 57  1  0  0  0  0
  1  6  1  0  0  0  0
  2  1  2  0  0  0  0
  3  2  1  0  0  0  0
  4  2  1  0  0  0  0
  4  9  2  0  0  0  0
  5  4  1  0  0  0  0
  6  7  1  0  0  0  0
  8  6  2  0  0  0  0
  8 10  1  0  0  0  0
  9  8  1  0  0  0  0
 10 12  1  6  0  0  0
 11 47  2  0  0  0  0
 11 10  1  0  0  0  0
 12 15  1  0  0  0  0
 12 14  1  0  0  0  0
 13 12  1  0  0  0  0
 15 41  1  0  0  0  0
 15 16  2  0  0  0  0
 16 19  1  0  0  0  0
 16 17  1  0  0  0  0
 17 27  1  0  0  0  0
 18 17  2  0  0  0  0
 18 23  1  0  0  0  0
 19 21  1  0  0  0  0
 20 19  1  0  0  0  0
 22 19  1  0  0  0  0
 23 24  1  0  0  0  0
 23 25  1  0  0  0  0
 26 23  1  0  0  0  0
 27 43  1  0  0  0  0
 28 30  1  0  0  0  0
 28 31  1  0  0  0  0
 29 28  1  0  0  0  0
 31 32  1  0  0  0  0
 31 45  1  0  0  0  0
 33 31  1  0  0  0  0
 34 35  1  0  0  0  0
 34 36  1  0  0  0  0
 34 53  1  0  0  0  0
 37 39  1  0  0  0  0
 37 45  1  0  0  0  0
 37 38  1  0  0  0  0
 40  9  1  0  0  0  0
 40 11  1  0  0  0  0
 41 18  1  0  0  0  0
 42 41  1  0  0  0  0
 43 44  1  0  0  0  0
 43 28  1  0  0  0  0
 45 34  1  0  0  0  0
 46 45  1  0  0  0  0
 48 27  2  0  0  0  0
 49 37  1  0  0  0  0
 50 49  1  0  0  0  0
 51 49  1  0  0  0  0
 52 49  1  0  0  0  0
 53 54  1  0  0  0  0
 55 53  1  0  0  0  0
 56 53  1  0  0  0  0
M  END
>  <Pose>
1

>  <Score>
-7.44

$$$$

 OpenBabel03112211313D

 57 59  0  0  1  0  0  0  0  0999 V2000
   11.2590   -0.2090    8.7130 C   0  0  0  0  0  0  0  0  0  0  0  0
   11.8630   -0.9940    7.7140 C   0  0  0  0  0  0  0  0  0  0  0  0
   11.2860   -1.7310    7.1750 H   0  0  0  0  0  0  0  0  0  0  0  0
   13.2170   -0.8100    7.4270 C   0  0  0  0  0  0  0  0  0  0  0  0
   13.6980   -1.4120    6.6700 H   0  0  0  0  0  0  0  0  0  0  0  0
   11.9890    0.7530    9.4140 C   0  0  0  0  0  0  0  0  0  0  0  0
   11.5110    1.3470   10.1780 H   0  0  0  0  0  0  0  0  0  0  0  0
   13.3320    0.9390    9.1230 C   0  0  0  0  0  0  0  0  0  0  0  0
   13.9470    0.1600    8.1250 C   0  0  0  0  0  0  0  0  0  0  0  0
   14.3110    1.8030    9.6460 C   0  0  1  0  0  0  0  0  0  0  0  0
   15.4780    1.5050    8.9220 C   0  0  0  0  0  0  0  0  0  0  0  0
   14.0440    2.7620   10.6610 C   0  0  0  0  0  0  0  0  0  0  0  0
   14.8930    3.4440   10.6360 H   0  0  0  0  0  0  0  0  0  0  0  0
   14.0590    2.1970   11.5930 H   0  0  0  0  0  0  0  0  0  0  0  0
   12.9170    3.5900   10.7570 C   0  0  0  0  0  0  0  0  0  0  0  0
   12.3880    4.0290   11.9850 C   0  0  0  0  0  0  0  0  0  0  0  0
   11.2860    4.8260   11.7090 C   0  0  0  0  0  0  0  0  0  0  0  0
   11.1860    4.8530   10.3210 C   0  0  0  0  0  0  0  0  0  0  0  0
   12.9300    3.6830   13.3790 C   0  0  0  0  0  0  0  0  0  0  0  0
   13.8040    3.0400   13.2800 H   0  0  0  0  0  0  0  0  0  0  0  0
   12.1600    3.1640   13.9490 H   0  0  0  0  0  0  0  0  0  0  0  0
   13.2100    4.6000   13.8970 H   0  0  0  0  0  0  0  0  0  0  0  0
   10.1660    5.6010    9.4640 C   0  0  0  0  0  0  0  0  0  0  0  0
    9.4730    6.1390   10.1110 H   0  0  0  0  0  0  0  0  0  0  0  0
    9.6130    4.8890    8.8520 H   0  0  0  0  0  0  0  0  0  0  0  0
   10.6840    6.3100    8.8180 H   0  0  0  0  0  0  0  0  0  0  0  0
   10.3560    5.6090   12.7060 C   0  0  0  0  0  0  0  0  0  0  0  0
   10.0720    6.6490   14.9480 C   0  0  0  0  0  0  0  0  0  0  0  0
   10.2040    6.1950   15.9300 H   0  0  0  0  0  0  0  0  0  0  0  0
   10.4170    7.6830   14.9770 H   0  0  0  0  0  0  0  0  0  0  0  0
    8.5790    6.5970   14.5320 C   0  0  0  0  0  0  0  0  0  0  0  0
    8.1300    5.7250   15.0070 H   0  0  0  0  0  0  0  0  0  0  0  0
    8.5380    6.4810   13.4490 H   0  0  0  0  0  0  0  0  0  0  0  0
    6.5870    7.4290   15.7270 C   0  0  0  0  0  0  0  0  0  0  0  0
    6.0530    8.3410   15.9920 H   0  0  0  0  0  0  0  0  0  0  0  0
    6.9360    6.9360   16.6340 H   0  0  0  0  0  0  0  0  0  0  0  0
    7.3740    8.6350   13.7390 C   0  0  0  0  0  0  0  0  0  0  0  0
    6.2910    8.6100   13.6190 H   0  0  0  0  0  0  0  0  0  0  0  0
    7.8490    8.2520   12.8360 H   0  0  0  0  0  0  0  0  0  0  0  0
   15.2340    0.5400    8.0460 N   0  0  0  0  0  0  0  0  0  0  0  0
   12.1520    4.1120    9.7850 N   0  0  0  0  0  0  0  0  0  0  0  0
   12.2890    3.9640    8.7950 H   0  0  0  0  0  0  0  0  0  0  0  0
   10.8310    5.8840   13.9240 N   0  0  0  0  0  0  0  0  0  0  0  0
   11.7550    5.5550   14.1620 H   0  0  0  0  0  0  0  0  0  0  0  0
    7.7630    7.7900   14.8970 N   0  0  0  0  0  4  0  0  0  0  0  0
    8.3750    8.3630   15.4600 H   0  0  0  0  0  0  0  0  0  0  0  0
   16.6020    2.0090    9.0390 O   0  0  0  0  0  0  0  0  0  0  0  0
    9.2560    5.9970   12.3280 O   0  0  0  0  0  0  0  0  0  0  0  0
    7.8300   10.0840   13.9830 C   0  0  0  0  0  0  0  0  0  0  0  0
    7.5440   10.7020   13.1320 H   0  0  0  0  0  0  0  0  0  0  0  0
    8.9130   10.1090   14.1020 H   0  0  0  0  0  0  0  0  0  0  0  0
    7.3550   10.4670   14.8860 H   0  0  0  0  0  0  0  0  0  0  0  0
    5.6170    6.4850   14.9940 C   0  0  0  0  0  0  0  0  0  0  0  0
    4.7750    6.2520   15.6460 H   0  0  0  0  0  0  0  0  0  0  0  0
    6.1370    5.5640   14.7300 H   0  0  0  0  0  0  0  0  0  0  0  0
    5.2530    6.9690   14.0880 H   0  0  0  0  0  0  0  0  0  0  0  0
    9.5960   -0.4360    9.1140 C   0  0  0  0  0  0  0  0  0  0  0  0
  1 57  1  0  0  0  0
  1  6  1  0  0  0  0
  2  1  2  0  0  0  0
  3  2  1  0  0  0  0
  4  2  1  0  0  0  0
  4  9  2  0  0  0  0
  5  4  1  0  0  0  0
  6  7  1  0  0  0  0
  8  6  2  0  0  0  0
  8 10  1  0  0  0  0
  9  8  1  0  0  0  0
 10 12  1  6  0  0  0
 11 47  2  0  0  0  0
 11 10  1  0  0  0  0
 12 15  1  0  0  0  0
 12 14  1  0  0  0  0
 13 12  1  0  0  0  0
 15 16  2  0  0  0  0
 16 19  1  0  0  0  0
 17 16  1  0  0  0  0
 17 27  1  0  0  0  0
 18 17  2  0  0  0  0
 19 22  1  0  0  0  0
 19 21  1  0  0  0  0
 20 19  1  0  0  0  0
 23 24  1  0  0  0  0
 23 18  1  0  0  0  0
 25 23  1  0  0  0  0
 26 23  1  0  0  0  0
 27 43  1  0  0  0  0
 28 30  1  0  0  0  0
 28 29  1  0  0  0  0
 31 45  1  0  0  0  0
 31 28  1  0  0  0  0
 31 32  1  0  0  0  0
 33 31  1  0  0  0  0
 34 35  1  0  0  0  0
 34 36  1  0  0  0  0
 37 49  1  0  0  0  0
 37 45  1  0  0  0  0
 38 37  1  0  0  0  0
 39 37  1  0  0  0  0
 40  9  1  0  0  0  0
 40 11  1  0  0  0  0
 41 18  1  0  0  0  0
 41 15  1  0  0  0  0
 42 41  1  0  0  0  0
 43 44  1  0  0  0  0
 43 28  1  0  0  0  0
 45 46  1  0  0  0  0
 45 34  1  0  0  0  0
 48 27  2  0  0  0  0
 49 51  1  0  0  0  0
 49 52  1  0  0  0  0
 50 49  1  0  0  0  0
 53 54  1  0  0  0  0
 53 34  1  0  0  0  0
 55 53  1  0  0  0  0
 56 53  1  0  0  0  0
M  END
>  <Pose>
1

>  <Score>
-7.33

$$$$

 OpenBabel03112211313D

 57 59  0  0  1  0  0  0  0  0999 V2000
   10.9790   -0.0620    8.6970 C   0  0  0  0  0  0  0  0  0  0  0  0
   11.5250   -0.9450    7.7480 C   0  0  0  0  0  0  0  0  0  0  0  0
   10.9020   -1.6870    7.2710 H   0  0  0  0  0  0  0  0  0  0  0  0
   12.8800   -0.8510    7.4290 C   0  0  0  0  0  0  0  0  0  0  0  0
   13.3170   -1.5280    6.7100 H   0  0  0  0  0  0  0  0  0  0  0  0
   11.7680    0.9080    9.3180 C   0  0  0  0  0  0  0  0  0  0  0  0
   11.3350    1.5780   10.0450 H   0  0  0  0  0  0  0  0  0  0  0  0
   13.1130    1.0040    8.9950 C   0  0  0  0  0  0  0  0  0  0  0  0
   13.6710    0.1270    8.0470 C   0  0  0  0  0  0  0  0  0  0  0  0
   14.1430    1.8510    9.4420 C   0  0  1  0  0  0  0  0  0  0  0  0
   15.2810    1.4440    8.7250 C   0  0  0  0  0  0  0  0  0  0  0  0
   13.9420    2.8910   10.3900 C   0  0  0  0  0  0  0  0  0  0  0  0
   13.3210    2.4480   11.1680 H   0  0  0  0  0  0  0  0  0  0  0  0
   13.3710    3.6520    9.8580 H   0  0  0  0  0  0  0  0  0  0  0  0
   14.9350    3.6010   11.0800 C   0  0  0  0  0  0  0  0  0  0  0  0
   14.6530    4.6860   11.9310 C   0  0  0  0  0  0  0  0  0  0  0  0
   15.8590    5.1440   12.4430 C   0  0  0  0  0  0  0  0  0  0  0  0
   16.8340    4.3160   11.8950 C   0  0  0  0  0  0  0  0  0  0  0  0
   13.2630    5.2630   12.2320 C   0  0  0  0  0  0  0  0  0  0  0  0
   12.5090    4.6970   11.6860 H   0  0  0  0  0  0  0  0  0  0  0  0
   13.2290    6.3070   11.9220 H   0  0  0  0  0  0  0  0  0  0  0  0
   13.0650    5.1940   13.3020 H   0  0  0  0  0  0  0  0  0  0  0  0
   18.3430    4.3490   12.1350 C   0  0  0  0  0  0  0  0  0  0  0  0
   18.5830    5.1580   12.8250 H   0  0  0  0  0  0  0  0  0  0  0  0
   18.8580    4.5130   11.1890 H   0  0  0  0  0  0  0  0  0  0  0  0
   18.6640    3.4000   12.5640 H   0  0  0  0  0  0  0  0  0  0  0  0
   16.1200    6.3000   13.4770 C   0  0  0  0  0  0  0  0  0  0  0  0
   15.2610    8.3290   14.6320 C   0  0  0  0  0  0  0  0  0  0  0  0
   14.5850    8.1620   15.4700 H   0  0  0  0  0  0  0  0  0  0  0  0
   16.2830    8.4150   15.0010 H   0  0  0  0  0  0  0  0  0  0  0  0
   14.8580    9.6190   13.8710 C   0  0  0  0  0  0  0  0  0  0  0  0
   13.9920   10.0480   14.3750 H   0  0  0  0  0  0  0  0  0  0  0  0
   14.5830    9.3360   12.8550 H   0  0  0  0  0  0  0  0  0  0  0  0
   17.1340   10.1880   13.1050 C   0  0  0  0  0  0  0  0  0  0  0  0
   16.8450    9.4810   12.3270 H   0  0  0  0  0  0  0  0  0  0  0  0
   17.7640    9.6850   13.8380 H   0  0  0  0  0  0  0  0  0  0  0  0
   16.2260   11.3190   15.0850 C   0  0  0  0  0  0  0  0  0  0  0  0
   17.1920   10.9620   15.4410 H   0  0  0  0  0  0  0  0  0  0  0  0
   15.4550   11.0670   15.8130 H   0  0  0  0  0  0  0  0  0  0  0  0
   14.9730    0.4340    7.9220 N   0  0  0  0  0  0  0  0  0  0  0  0
   16.2660    3.4210   11.0910 N   0  0  0  0  0  0  0  0  0  0  0  0
   16.7610    2.7140   10.5670 H   0  0  0  0  0  0  0  0  0  0  0  0
   15.1590    7.2080   13.6600 N   0  0  0  0  0  0  0  0  0  0  0  0
   14.3160    7.1300   13.1080 H   0  0  0  0  0  0  0  0  0  0  0  0
   15.9080   10.6740   13.7860 N   0  0  0  0  0  4  0  0  0  0  0  0
   15.5020   11.4010   13.2130 H   0  0  0  0  0  0  0  0  0  0  0  0
   16.4310    1.8970    8.7890 O   0  0  0  0  0  0  0  0  0  0  0  0
   17.1600    6.3060   14.1270 O   0  0  0  0  0  0  0  0  0  0  0  0
   16.2790   12.8450   14.9040 C   0  0  0  0  0  0  0  0  0  0  0  0
   16.5130   13.3170   15.8590 H   0  0  0  0  0  0  0  0  0  0  0  0
   15.3130   13.2030   14.5480 H   0  0  0  0  0  0  0  0  0  0  0  0
   17.0500   13.0980   14.1760 H   0  0  0  0  0  0  0  0  0  0  0  0
   17.9410   11.3290   12.4600 C   0  0  0  0  0  0  0  0  0  0  0  0
   18.8270   10.9180   11.9760 H   0  0  0  0  0  0  0  0  0  0  0  0
   18.2430   12.0400   13.2290 H   0  0  0  0  0  0  0  0  0  0  0  0
   17.3240   11.8360   11.7190 H   0  0  0  0  0  0  0  0  0  0  0  0
    9.3140   -0.1750    9.1370 C   0  0  0  0  0  0  0  0  0  0  0  0
  1 57  1  0  0  0  0
  1  6  1  0  0  0  0
  2  1  2  0  0  0  0
  3  2  1  0  0  0  0
  4  2  1  0  0  0  0
  4  9  2  0  0  0  0
  5  4  1  0  0  0  0
  6  7  1  0  0  0  0
  8  6  2  0  0  0  0
  8 10  1  0  0  0  0
  9  8  1  0  0  0  0
 10 12  1  6  0  0  0
 11 47  2  0  0  0  0
 11 10  1  0  0  0  0
 12 15  1  0  0  0  0
 12 13  1  0  0  0  0
 14 12  1  0  0  0  0
 15 41  1  0  0  0  0
 15 16  2  0  0  0  0
 16 19  1  0  0  0  0
 16 17  1  0  0  0  0
 17 27  1  0  0  0  0
 18 23  1  0  0  0  0
 18 17  2  0  0  0  0
 19 22  1  0  0  0  0
 20 19  1  0  0  0  0
 21 19  1  0  0  0  0
 23 26  1  0  0  0  0
 23 24  1  0  0  0  0
 25 23  1  0  0  0  0
 27 43  1  0  0  0  0
 27 48  2  0  0  0  0
 28 30  1  0  0  0  0
 28 29  1  0  0  0  0
 31 32  1  0  0  0  0
 31 28  1  0  0  0  0
 33 31  1  0  0  0  0
 34 45  1  0  0  0  0
 34 36  1  0  0  0  0
 35 34  1  0  0  0  0
 37 38  1  0  0  0  0
 37 39  1  0  0  0  0
 40  9  1  0  0  0  0
 40 11  1  0  0  0  0
 41 18  1  0  0  0  0
 42 41  1  0  0  0  0
 43 28  1  0  0  0  0
 44 43  1  0  0  0  0
 45 31  1  0  0  0  0
 45 37  1  0  0  0  0
 46 45  1  0  0  0  0
 49 37  1  0  0  0  0
 49 50  1  0  0  0  0
 51 49  1  0  0  0  0
 52 49  1  0  0  0  0
 53 34  1  0  0  0  0
 53 55  1  0  0  0  0
 54 53  1  0  0  0  0
 56 53  1  0  0  0  0
M  END
>  <Pose>
1

>  <Score>
-7.26

$$$$

 OpenBabel03112211313D

 57 59  0  0  1  0  0  0  0  0999 V2000
   11.1550   -0.2820    8.4960 C   0  0  0  0  0  0  0  0  0  0  0  0
   11.8670   -1.1260    7.6260 C   0  0  0  0  0  0  0  0  0  0  0  0
   11.3640   -1.9360    7.1170 H   0  0  0  0  0  0  0  0  0  0  0  0
   13.2300   -0.9070    7.4260 C   0  0  0  0  0  0  0  0  0  0  0  0
   13.7940   -1.5530    6.7680 H   0  0  0  0  0  0  0  0  0  0  0  0
   11.7880    0.7720    9.1570 C   0  0  0  0  0  0  0  0  0  0  0  0
   11.2270    1.4110    9.8230 H   0  0  0  0  0  0  0  0  0  0  0  0
   13.1410    0.9930    8.9510 C   0  0  0  0  0  0  0  0  0  0  0  0
   13.8640    0.1560    8.0820 C   0  0  0  0  0  0  0  0  0  0  0  0
   14.0400    1.9470    9.4630 C   0  0  1  0  0  0  0  0  0  0  0  0
   15.2720    1.6380    8.8620 C   0  0  0  0  0  0  0  0  0  0  0  0
   13.6550    2.9810   10.3590 C   0  0  0  0  0  0  0  0  0  0  0  0
   12.9620    2.5080   11.0550 H   0  0  0  0  0  0  0  0  0  0  0  0
   13.1160    3.7010    9.7440 H   0  0  0  0  0  0  0  0  0  0  0  0
   14.5040    3.7540   11.1630 C   0  0  0  0  0  0  0  0  0  0  0  0
   14.0340    4.7330   12.0580 C   0  0  0  0  0  0  0  0  0  0  0  0
   15.1370    5.2960   12.6840 C   0  0  0  0  0  0  0  0  0  0  0  0
   16.2420    4.6350   12.1560 C   0  0  0  0  0  0  0  0  0  0  0  0
   12.5660    5.1130   12.2950 C   0  0  0  0  0  0  0  0  0  0  0  0
   11.9250    4.5000   11.6610 H   0  0  0  0  0  0  0  0  0  0  0  0
   12.4190    6.1650   12.0500 H   0  0  0  0  0  0  0  0  0  0  0  0
   12.3110    4.9440   13.3410 H   0  0  0  0  0  0  0  0  0  0  0  0
   17.7160    4.8340   12.5050 C   0  0  0  0  0  0  0  0  0  0  0  0
   17.8080    5.6150   13.2600 H   0  0  0  0  0  0  0  0  0  0  0  0
   18.2650    5.1280   11.6110 H   0  0  0  0  0  0  0  0  0  0  0  0
   18.1270    3.9020   12.8940 H   0  0  0  0  0  0  0  0  0  0  0  0
   15.1840    6.3980   13.8050 C   0  0  0  0  0  0  0  0  0  0  0  0
   15.1020    6.9410   16.2320 C   0  0  0  0  0  0  0  0  0  0  0  0
   16.1170    7.3190   16.3560 H   0  0  0  0  0  0  0  0  0  0  0  0
   14.4200    7.7760   16.0780 H   0  0  0  0  0  0  0  0  0  0  0  0
   14.6780    6.1290   17.4830 C   0  0  0  0  0  0  0  0  0  0  0  0
   15.5710    5.9380   18.0770 H   0  0  0  0  0  0  0  0  0  0  0  0
   14.2600    5.1820   17.1410 H   0  0  0  0  0  0  0  0  0  0  0  0
   13.9850    6.5960   19.8050 C   0  0  0  0  0  0  0  0  0  0  0  0
   14.4020    5.5980   19.9450 H   0  0  0  0  0  0  0  0  0  0  0  0
   13.0630    6.6880   20.3800 H   0  0  0  0  0  0  0  0  0  0  0  0
   12.2650    6.4080   18.0640 C   0  0  0  0  0  0  0  0  0  0  0  0
   12.2130    5.9740   17.0650 H   0  0  0  0  0  0  0  0  0  0  0  0
   11.6350    7.2960   18.1080 H   0  0  0  0  0  0  0  0  0  0  0  0
   15.1370    0.5870    8.0650 N   0  0  0  0  0  0  0  0  0  0  0  0
   15.8430    3.7380   11.2570 N   0  0  0  0  0  0  0  0  0  0  0  0
   16.4560    3.1360   10.7260 H   0  0  0  0  0  0  0  0  0  0  0  0
   15.0410    6.0090   15.0750 N   0  0  0  0  0  0  0  0  0  0  0  0
   14.8830    5.0290   15.2590 H   0  0  0  0  0  0  0  0  0  0  0  0
   13.6700    6.7820   18.3670 N   0  0  0  0  0  4  0  0  0  0  0  0
   13.7400    7.7680   18.1590 H   0  0  0  0  0  0  0  0  0  0  0  0
   16.3630    2.2030    9.0140 O   0  0  0  0  0  0  0  0  0  0  0  0
   15.4080    7.5640   13.4980 O   0  0  0  0  0  0  0  0  0  0  0  0
   11.7720    5.3790   19.0950 C   0  0  0  0  0  0  0  0  0  0  0  0
   10.7410    5.1050   18.8710 H   0  0  0  0  0  0  0  0  0  0  0  0
   11.8240    5.8120   20.0940 H   0  0  0  0  0  0  0  0  0  0  0  0
   12.4010    4.4900   19.0510 H   0  0  0  0  0  0  0  0  0  0  0  0
   14.9970    7.6320   20.3260 C   0  0  0  0  0  0  0  0  0  0  0  0
   15.1920    7.4500   21.3830 H   0  0  0  0  0  0  0  0  0  0  0  0
   14.5880    8.6340   20.1990 H   0  0  0  0  0  0  0  0  0  0  0  0
   15.9270    7.5440   19.7640 H   0  0  0  0  0  0  0  0  0  0  0  0
    9.4750   -0.5490    8.7900 C   0  0  0  0  0  0  0  0  0  0  0  0
  1 57  1  0  0  0  0
  1  6  1  0  0  0  0
  2  1  2  0  0  0  0
  3  2  1  0  0  0  0
  4  2  1  0  0  0  0
  4  9  2  0  0  0  0
  5  4  1  0  0  0  0
  6  7  1  0  0  0  0
  8  6  2  0  0  0  0
  8 10  1  0  0  0  0
  9  8  1  0  0  0  0
 10 12  1  6  0  0  0
 11 47  2  0  0  0  0
 11 10  1  0  0  0  0
 12 13  1  0  0  0  0
 12 15  1  0  0  0  0
 14 12  1  0  0  0  0
 15 41  1  0  0  0  0
 15 16  2  0  0  0  0
 16 19  1  0  0  0  0
 16 17  1  0  0  0  0
 17 27  1  0  0  0  0
 18 23  1  0  0  0  0
 18 17  2  0  0  0  0
 19 22  1  0  0  0  0
 20 19  1  0  0  0  0
 21 19  1  0  0  0  0
 23 26  1  0  0  0  0
 23 24  1  0  0  0  0
 25 23  1  0  0  0  0
 27 43  1  0  0  0  0
 28 29  1  0  0  0  0
 28 31  1  0  0  0  0
 30 28  1  0  0  0  0
 31 32  1  0  0  0  0
 31 45  1  0  0  0  0
 33 31  1  0  0  0  0
 34 35  1  0  0  0  0
 34 53  1  0  0  0  0
 34 36  1  0  0  0  0
 37 39  1  0  0  0  0
 37 45  1  0  0  0  0
 37 49  1  0  0  0  0
 38 37  1  0  0  0  0
 40  9  1  0  0  0  0
 40 11  1  0  0  0  0
 41 18  1  0  0  0  0
 42 41  1  0  0  0  0
 43 44  1  0  0  0  0
 43 28  1  0  0  0  0
 45 34  1  0  0  0  0
 46 45  1  0  0  0  0
 48 27  2  0  0  0  0
 49 51  1  0  0  0  0
 50 49  1  0  0  0  0
 52 49  1  0  0  0  0
 53 54  1  0  0  0  0
 55 53  1  0  0  0  0
 56 53  1  0  0  0  0
M  END
>  <Pose>
1

>  <Score>
-7.17

$$$$

 OpenBabel03112211313D

 57 59  0  0  1  0  0  0  0  0999 V2000
   11.1050   -0.1670    8.6280 C   0  0  0  0  0  0  0  0  0  0  0  0
   11.7100   -1.0190    7.6870 C   0  0  0  0  0  0  0  0  0  0  0  0
   11.1260   -1.7690    7.1750 H   0  0  0  0  0  0  0  0  0  0  0  0
   13.0740   -0.8860    7.4230 C   0  0  0  0  0  0  0  0  0  0  0  0
   13.5560   -1.5400    6.7120 H   0  0  0  0  0  0  0  0  0  0  0  0
   11.8440    0.8120    9.2950 C   0  0  0  0  0  0  0  0  0  0  0  0
   11.3650    1.4580   10.0150 H   0  0  0  0  0  0  0  0  0  0  0  0
   13.1980    0.9480    9.0270 C   0  0  0  0  0  0  0  0  0  0  0  0
   13.8140    0.1010    8.0870 C   0  0  0  0  0  0  0  0  0  0  0  0
   14.1870    1.8140    9.5270 C   0  0  1  0  0  0  0  0  0  0  0  0
   15.3620    1.4470    8.8480 C   0  0  0  0  0  0  0  0  0  0  0  0
   13.9220    2.8320   10.4830 C   0  0  0  0  0  0  0  0  0  0  0  0
   13.4730    2.3130   11.3300 H   0  0  0  0  0  0  0  0  0  0  0  0
   13.1770    3.4740   10.0130 H   0  0  0  0  0  0  0  0  0  0  0  0
   14.8530    3.7130   11.0500 C   0  0  0  0  0  0  0  0  0  0  0  0
   14.5050    4.6950   11.9950 C   0  0  0  0  0  0  0  0  0  0  0  0
   15.6630    5.3780   12.3390 C   0  0  0  0  0  0  0  0  0  0  0  0
   16.6800    4.7830   11.5990 C   0  0  0  0  0  0  0  0  0  0  0  0
   13.0970    4.9660   12.5420 C   0  0  0  0  0  0  0  0  0  0  0  0
   12.3910    4.2700   12.0890 H   0  0  0  0  0  0  0  0  0  0  0  0
   12.8050    5.9880   12.3030 H   0  0  0  0  0  0  0  0  0  0  0  0
   13.0950    4.8310   13.6240 H   0  0  0  0  0  0  0  0  0  0  0  0
   18.1700    5.1200   11.6020 C   0  0  0  0  0  0  0  0  0  0  0  0
   18.3550    5.9440   12.2920 H   0  0  0  0  0  0  0  0  0  0  0  0
   18.4800    5.4100   10.5980 H   0  0  0  0  0  0  0  0  0  0  0  0
   18.7400    4.2470   11.9200 H   0  0  0  0  0  0  0  0  0  0  0  0
   15.8550    6.5370   13.3850 C   0  0  0  0  0  0  0  0  0  0  0  0
   17.2150    8.4690   14.1650 C   0  0  0  0  0  0  0  0  0  0  0  0
   16.4510    8.5380   14.9400 H   0  0  0  0  0  0  0  0  0  0  0  0
   18.1940    8.3520   14.6300 H   0  0  0  0  0  0  0  0  0  0  0  0
   17.1940    9.7420   13.2800 C   0  0  0  0  0  0  0  0  0  0  0  0
   16.9360    9.4390   12.2650 H   0  0  0  0  0  0  0  0  0  0  0  0
   18.1950   10.1720   13.2880 H   0  0  0  0  0  0  0  0  0  0  0  0
   16.8430   12.1580   13.6410 C   0  0  0  0  0  0  0  0  0  0  0  0
   16.9110   12.5530   14.6550 H   0  0  0  0  0  0  0  0  0  0  0  0
   16.2020   12.8040   13.0420 H   0  0  0  0  0  0  0  0  0  0  0  0
   15.5860   10.5540   15.0100 C   0  0  0  0  0  0  0  0  0  0  0  0
   16.0300   11.2030   15.7640 H   0  0  0  0  0  0  0  0  0  0  0  0
   15.7350    9.5120   15.2940 H   0  0  0  0  0  0  0  0  0  0  0  0
   15.1120    0.4440    8.0180 N   0  0  0  0  0  0  0  0  0  0  0  0
   16.1760    3.8110   10.8420 N   0  0  0  0  0  0  0  0  0  0  0  0
   16.7090    3.2340   10.2070 H   0  0  0  0  0  0  0  0  0  0  0  0
   16.9320    7.3180   13.2680 N   0  0  0  0  0  0  0  0  0  0  0  0
   17.5910    7.1150   12.5300 H   0  0  0  0  0  0  0  0  0  0  0  0
   16.2350   10.8050   13.6980 N   0  0  0  0  0  4  0  0  0  0  0  0
   15.4920   10.7700   13.0150 H   0  0  0  0  0  0  0  0  0  0  0  0
   16.4960    1.9280    8.9650 O   0  0  0  0  0  0  0  0  0  0  0  0
   14.9930    6.7330   14.2350 O   0  0  0  0  0  0  0  0  0  0  0  0
   14.0800   10.8460   14.9050 C   0  0  0  0  0  0  0  0  0  0  0  0
   13.6060   10.6610   15.8680 H   0  0  0  0  0  0  0  0  0  0  0  0
   13.6360   10.1970   14.1500 H   0  0  0  0  0  0  0  0  0  0  0  0
   13.9310   11.8880   14.6200 H   0  0  0  0  0  0  0  0  0  0  0  0
   18.2510   12.1460   13.0200 C   0  0  0  0  0  0  0  0  0  0  0  0
   18.6490   13.1600   13.0030 H   0  0  0  0  0  0  0  0  0  0  0  0
   18.1950   11.7600   12.0020 H   0  0  0  0  0  0  0  0  0  0  0  0
   18.9050   11.5080   13.6150 H   0  0  0  0  0  0  0  0  0  0  0  0
    9.4280   -0.3300    9.0010 C   0  0  0  0  0  0  0  0  0  0  0  0
  1 57  1  0  0  0  0
  1  6  1  0  0  0  0
  2  1  2  0  0  0  0
  3  2  1  0  0  0  0
  4  2  1  0  0  0  0
  4  9  2  0  0  0  0
  5  4  1  0  0  0  0
  6  7  1  0  0  0  0
  8  6  2  0  0  0  0
  8 10  1  0  0  0  0
  9  8  1  0  0  0  0
 10 12  1  6  0  0  0
 11 47  2  0  0  0  0
 11 10  1  0  0  0  0
 12 15  1  0  0  0  0
 12 13  1  0  0  0  0
 14 12  1  0  0  0  0
 15 16  2  0  0  0  0
 16 17  1  0  0  0  0
 16 19  1  0  0  0  0
 17 27  1  0  0  0  0
 18 23  1  0  0  0  0
 18 17  2  0  0  0  0
 19 22  1  0  0  0  0
 20 19  1  0  0  0  0
 21 19  1  0  0  0  0
 23 26  1  0  0  0  0
 23 24  1  0  0  0  0
 25 23  1  0  0  0  0
 27 48  2  0  0  0  0
 28 30  1  0  0  0  0
 28 29  1  0  0  0  0
 31 33  1  0  0  0  0
 31 45  1  0  0  0  0
 31 28  1  0  0  0  0
 32 31  1  0  0  0  0
 34 45  1  0  0  0  0
 34 35  1  0  0  0  0
 36 34  1  0  0  0  0
 37 39  1  0  0  0  0
 37 38  1  0  0  0  0
 40  9  1  0  0  0  0
 40 11  1  0  0  0  0
 41 15  1  0  0  0  0
 41 18  1  0  0  0  0
 42 41  1  0  0  0  0
 43 27  1  0  0  0  0
 43 28  1  0  0  0  0
 44 43  1  0  0  0  0
 45 37  1  0  0  0  0
 46 45  1  0  0  0  0
 49 37  1  0  0  0  0
 49 50  1  0  0  0  0
 51 49  1  0  0  0  0
 52 49  1  0  0  0  0
 53 56  1  0  0  0  0
 53 34  1  0  0  0  0
 54 53  1  0  0  0  0
 55 53  1  0  0  0  0
M  END
>  <Pose>
1

>  <Score>
-7.06

$$$$

 OpenBabel03112211313D

 57 59  0  0  1  0  0  0  0  0999 V2000
   11.1770   -0.0020    8.7230 C   0  0  0  0  0  0  0  0  0  0  0  0
   11.7160   -0.8830    7.7680 C   0  0  0  0  0  0  0  0  0  0  0  0
   11.0850   -1.6110    7.2790 H   0  0  0  0  0  0  0  0  0  0  0  0
   13.0750   -0.8070    7.4590 C   0  0  0  0  0  0  0  0  0  0  0  0
   13.5060   -1.4830    6.7360 H   0  0  0  0  0  0  0  0  0  0  0  0
   11.9770    0.9480    9.3590 C   0  0  0  0  0  0  0  0  0  0  0  0
   11.5490    1.6170   10.0910 H   0  0  0  0  0  0  0  0  0  0  0  0
   13.3260    1.0280    9.0460 C   0  0  0  0  0  0  0  0  0  0  0  0
   13.8760    0.1520    8.0920 C   0  0  0  0  0  0  0  0  0  0  0  0
   14.3660    1.8540    9.5090 C   0  0  1  0  0  0  0  0  0  0  0  0
   15.5010    1.4370    8.7950 C   0  0  0  0  0  0  0  0  0  0  0  0
   14.1740    2.8870   10.4670 C   0  0  0  0  0  0  0  0  0  0  0  0
   13.7050    2.3970   11.3200 H   0  0  0  0  0  0  0  0  0  0  0  0
   13.4630    3.5720   10.0050 H   0  0  0  0  0  0  0  0  0  0  0  0
   15.1630    3.7110   11.0210 C   0  0  0  0  0  0  0  0  0  0  0  0
   14.8730    4.8020   11.8620 C   0  0  0  0  0  0  0  0  0  0  0  0
   16.0770    5.3880   12.2240 C   0  0  0  0  0  0  0  0  0  0  0  0
   17.0620    4.6280   11.5990 C   0  0  0  0  0  0  0  0  0  0  0  0
   13.4740    5.2630   12.2940 C   0  0  0  0  0  0  0  0  0  0  0  0
   12.7230    4.6090   11.8530 H   0  0  0  0  0  0  0  0  0  0  0  0
   13.3090    6.2860   11.9570 H   0  0  0  0  0  0  0  0  0  0  0  0
   13.3980    5.2230   13.3810 H   0  0  0  0  0  0  0  0  0  0  0  0
   18.5780    4.8080   11.6710 C   0  0  0  0  0  0  0  0  0  0  0  0
   18.8130    5.6640   12.3030 H   0  0  0  0  0  0  0  0  0  0  0  0
   18.9720    4.9770   10.6690 H   0  0  0  0  0  0  0  0  0  0  0  0
   19.0310    3.9100   12.0920 H   0  0  0  0  0  0  0  0  0  0  0  0
   16.3370    6.6050   13.1850 C   0  0  0  0  0  0  0  0  0  0  0  0
   17.2150    8.9150   13.4710 C   0  0  0  0  0  0  0  0  0  0  0  0
   16.4360    9.6560   13.2910 H   0  0  0  0  0  0  0  0  0  0  0  0
   17.2530    8.6800   14.5350 H   0  0  0  0  0  0  0  0  0  0  0  0
   18.5870    9.4570   12.9950 C   0  0  0  0  0  0  0  0  0  0  0  0
   18.7040    9.1960   11.9430 H   0  0  0  0  0  0  0  0  0  0  0  0
   19.3640    8.9640   13.5810 H   0  0  0  0  0  0  0  0  0  0  0  0
   17.7140   11.6970   12.4370 C   0  0  0  0  0  0  0  0  0  0  0  0
   17.0860   11.0010   11.8820 H   0  0  0  0  0  0  0  0  0  0  0  0
   18.1780   12.4000   11.7450 H   0  0  0  0  0  0  0  0  0  0  0  0
   20.1330   11.4000   12.7260 C   0  0  0  0  0  0  0  0  0  0  0  0
   20.8900   10.7890   13.2190 H   0  0  0  0  0  0  0  0  0  0  0  0
   20.2570   12.4410   13.0220 H   0  0  0  0  0  0  0  0  0  0  0  0
   15.1840    0.4410    7.9790 N   0  0  0  0  0  0  0  0  0  0  0  0
   16.4980    3.6530   10.8910 N   0  0  0  0  0  0  0  0  0  0  0  0
   16.9990    2.9720   10.3390 H   0  0  0  0  0  0  0  0  0  0  0  0
   16.9430    7.6840   12.6830 N   0  0  0  0  0  0  0  0  0  0  0  0
   17.2340    7.6620   11.7160 H   0  0  0  0  0  0  0  0  0  0  0  0
   18.7820   10.9300   13.1250 N   0  0  0  0  0  4  0  0  0  0  0  0
   18.7100   11.1170   14.1150 H   0  0  0  0  0  0  0  0  0  0  0  0
   16.6580    1.8720    8.8710 O   0  0  0  0  0  0  0  0  0  0  0  0
   15.9270    6.5600   14.3400 O   0  0  0  0  0  0  0  0  0  0  0  0
   20.2920   11.2790   11.2010 C   0  0  0  0  0  0  0  0  0  0  0  0
   21.2840   11.6240   10.9100 H   0  0  0  0  0  0  0  0  0  0  0  0
   19.5350   11.8890   10.7070 H   0  0  0  0  0  0  0  0  0  0  0  0
   20.1680   10.2370   10.9040 H   0  0  0  0  0  0  0  0  0  0  0  0
   16.8290   12.4850   13.4200 C   0  0  0  0  0  0  0  0  0  0  0  0
   16.0650   13.0280   12.8640 H   0  0  0  0  0  0  0  0  0  0  0  0
   17.4450   13.1910   13.9770 H   0  0  0  0  0  0  0  0  0  0  0  0
   16.3520   11.7930   14.1140 H   0  0  0  0  0  0  0  0  0  0  0  0
    9.5080   -0.0940    9.1510 C   0  0  0  0  0  0  0  0  0  0  0  0
  1 57  1  0  0  0  0
  1  6  1  0  0  0  0
  2  1  2  0  0  0  0
  3  2  1  0  0  0  0
  4  2  1  0  0  0  0
  4  9  2  0  0  0  0
  5  4  1  0  0  0  0
  6  7  1  0  0  0  0
  8  6  2  0  0  0  0
  8 10  1  0  0  0  0
  9  8  1  0  0  0  0
 10 12  1  6  0  0  0
 11 47  2  0  0  0  0
 11 10  1  0  0  0  0
 12 15  1  0  0  0  0
 12 13  1  0  0  0  0
 14 12  1  0  0  0  0
 15 16  2  0  0  0  0
 16 17  1  0  0  0  0
 16 19  1  0  0  0  0
 17 27  1  0  0  0  0
 18 23  1  0  0  0  0
 18 17  2  0  0  0  0
 19 22  1  0  0  0  0
 20 19  1  0  0  0  0
 21 19  1  0  0  0  0
 23 26  1  0  0  0  0
 23 24  1  0  0  0  0
 25 23  1  0  0  0  0
 27 48  2  0  0  0  0
 28 30  1  0  0  0  0
 29 28  1  0  0  0  0
 31 45  1  0  0  0  0
 31 28  1  0  0  0  0
 31 33  1  0  0  0  0
 32 31  1  0  0  0  0
 34 45  1  0  0  0  0
 34 53  1  0  0  0  0
 35 34  1  0  0  0  0
 36 34  1  0  0  0  0
 37 39  1  0  0  0  0
 37 45  1  0  0  0  0
 37 38  1  0  0  0  0
 40  9  1  0  0  0  0
 40 11  1  0  0  0  0
 41 15  1  0  0  0  0
 41 18  1  0  0  0  0
 42 41  1  0  0  0  0
 43 27  1  0  0  0  0
 43 28  1  0  0  0  0
 44 43  1  0  0  0  0
 45 46  1  0  0  0  0
 49 37  1  0  0  0  0
 50 49  1  0  0  0  0
 51 49  1  0  0  0  0
 52 49  1  0  0  0  0
 53 55  1  0  0  0  0
 53 56  1  0  0  0  0
 54 53  1  0  0  0  0
M  END
>  <Pose>
1

>  <Score>
-6.63

$$$$

 OpenBabel03112211313D

 57 59  0  0  1  0  0  0  0  0999 V2000
   15.7330    2.8400   10.4150 C   0  0  0  0  0  0  0  0  0  0  0  0
   15.3470    1.8080    9.5400 C   0  0  0  0  0  0  0  0  0  0  0  0
   16.0930    1.2050    9.0440 H   0  0  0  0  0  0  0  0  0  0  0  0
   13.9890    1.5730    9.3200 C   0  0  0  0  0  0  0  0  0  0  0  0
   13.6770    0.7920    8.6430 H   0  0  0  0  0  0  0  0  0  0  0  0
   14.7820    3.6250   11.0680 C   0  0  0  0  0  0  0  0  0  0  0  0
   15.0940    4.4140   11.7370 H   0  0  0  0  0  0  0  0  0  0  0  0
   13.4330    3.3850   10.8540 C   0  0  0  0  0  0  0  0  0  0  0  0
   13.0350    2.3560    9.9810 C   0  0  0  0  0  0  0  0  0  0  0  0
   12.2650    3.9930   11.3490 C   0  0  1  0  0  0  0  0  0  0  0  0
   11.2100    3.2850   10.7510 C   0  0  0  0  0  0  0  0  0  0  0  0
   12.2790    5.0620   12.2860 C   0  0  0  0  0  0  0  0  0  0  0  0
   12.9110    5.8260   11.8330 H   0  0  0  0  0  0  0  0  0  0  0  0
   12.7740    4.6570   13.1690 H   0  0  0  0  0  0  0  0  0  0  0  0
   11.1680    5.7580   12.7810 C   0  0  0  0  0  0  0  0  0  0  0  0
   10.3160    6.5250   11.9660 C   0  0  0  0  0  0  0  0  0  0  0  0
    9.3300    7.0680   12.7790 C   0  0  0  0  0  0  0  0  0  0  0  0
    9.6090    6.6050   14.0610 C   0  0  0  0  0  0  0  0  0  0  0  0
   10.4560    6.7310   10.4510 C   0  0  0  0  0  0  0  0  0  0  0  0
   11.3240    6.1810   10.0890 H   0  0  0  0  0  0  0  0  0  0  0  0
   10.5820    7.7920   10.2390 H   0  0  0  0  0  0  0  0  0  0  0  0
    9.5590    6.3640    9.9510 H   0  0  0  0  0  0  0  0  0  0  0  0
    8.8310    6.8690   15.3490 C   0  0  0  0  0  0  0  0  0  0  0  0
    7.9800    7.5150   15.1330 H   0  0  0  0  0  0  0  0  0  0  0  0
    9.4830    7.3570   16.0740 H   0  0  0  0  0  0  0  0  0  0  0  0
    8.4750    5.9240   15.7590 H   0  0  0  0  0  0  0  0  0  0  0  0
    8.1000    7.9620   12.3800 C   0  0  0  0  0  0  0  0  0  0  0  0
    6.4270    9.6730   13.0630 C   0  0  0  0  0  0  0  0  0  0  0  0
    6.5480   10.5880   13.6440 H   0  0  0  0  0  0  0  0  0  0  0  0
    6.3730    9.9210   12.0030 H   0  0  0  0  0  0  0  0  0  0  0  0
    5.1420    8.9260   13.5030 C   0  0  0  0  0  0  0  0  0  0  0  0
    5.2150    7.8980   13.1500 H   0  0  0  0  0  0  0  0  0  0  0  0
    4.2910    9.4140   13.0270 H   0  0  0  0  0  0  0  0  0  0  0  0
    3.7090    8.0520   15.3120 C   0  0  0  0  0  0  0  0  0  0  0  0
    3.3600    7.5550   14.4070 H   0  0  0  0  0  0  0  0  0  0  0  0
    2.9200    8.6990   15.6980 H   0  0  0  0  0  0  0  0  0  0  0  0
    4.8030   10.2300   15.6050 C   0  0  0  0  0  0  0  0  0  0  0  0
    4.0000   10.2340   16.3420 H   0  0  0  0  0  0  0  0  0  0  0  0
    4.5990   10.9800   14.8420 H   0  0  0  0  0  0  0  0  0  0  0  0
   11.6910    2.3380    9.9560 N   0  0  0  0  0  0  0  0  0  0  0  0
   10.7000    5.8430   14.0370 N   0  0  0  0  0  0  0  0  0  0  0  0
   11.1140    5.3960   14.8430 H   0  0  0  0  0  0  0  0  0  0  0  0
    7.5670    8.7520   13.3150 N   0  0  0  0  0  0  0  0  0  0  0  0
    7.9590    8.7220   14.2460 H   0  0  0  0  0  0  0  0  0  0  0  0
    4.8860    8.8890   14.9720 N   0  0  0  0  0  4  0  0  0  0  0  0
    5.7040    8.4500   15.3690 H   0  0  0  0  0  0  0  0  0  0  0  0
    9.9920    3.4660   10.8830 O   0  0  0  0  0  0  0  0  0  0  0  0
    7.7010    7.9590   11.2200 O   0  0  0  0  0  0  0  0  0  0  0  0
    6.1360   10.5550   16.3000 C   0  0  0  0  0  0  0  0  0  0  0  0
    6.0730   11.5390   16.7650 H   0  0  0  0  0  0  0  0  0  0  0  0
    6.9400   10.5510   15.5640 H   0  0  0  0  0  0  0  0  0  0  0  0
    6.3400    9.8050   17.0640 H   0  0  0  0  0  0  0  0  0  0  0  0
    4.0330    6.9830   16.3700 C   0  0  0  0  0  0  0  0  0  0  0  0
    3.1370    6.3990   16.5830 H   0  0  0  0  0  0  0  0  0  0  0  0
    4.3750    7.4690   17.2840 H   0  0  0  0  0  0  0  0  0  0  0  0
    4.8150    6.3250   15.9940 H   0  0  0  0  0  0  0  0  0  0  0  0
   17.4040    3.1780   10.6820 C   0  0  0  0  0  0  0  0  0  0  0  0
  1 57  1  0  0  0  0
  1  6  1  0  0  0  0
  2  1  2  0  0  0  0
  3  2  1  0  0  0  0
  4  2  1  0  0  0  0
  4  9  2  0  0  0  0
  5  4  1  0  0  0  0
  6  7  1  0  0  0  0
  8  6  2  0  0  0  0
  8 10  1  0  0  0  0
  9  8  1  0  0  0  0
 10 12  1  1  0  0  0
 11 47  2  0  0  0  0
 11 10  1  0  0  0  0
 12 15  1  0  0  0  0
 12 14  1  0  0  0  0
 13 12  1  0  0  0  0
 15 41  1  0  0  0  0
 16 17  1  0  0  0  0
 16 15  2  0  0  0  0
 17 18  2  0  0  0  0
 18 23  1  0  0  0  0
 19 16  1  0  0  0  0
 20 19  1  0  0  0  0
 21 19  1  0  0  0  0
 22 19  1  0  0  0  0
 23 26  1  0  0  0  0
 23 25  1  0  0  0  0
 24 23  1  0  0  0  0
 27 17  1  0  0  0  0
 27 43  1  0  0  0  0
 28 43  1  0  0  0  0
 28 31  1  0  0  0  0
 28 29  1  0  0  0  0
 30 28  1  0  0  0  0
 31 45  1  0  0  0  0
 32 31  1  0  0  0  0
 33 31  1  0  0  0  0
 34 36  1  0  0  0  0
 34 53  1  0  0  0  0
 35 34  1  0  0  0  0
 37 49  1  0  0  0  0
 37 38  1  0  0  0  0
 39 37  1  0  0  0  0
 40  9  1  0  0  0  0
 40 11  1  0  0  0  0
 41 18  1  0  0  0  0
 41 42  1  0  0  0  0
 43 44  1  0  0  0  0
 45 34  1  0  0  0  0
 45 46  1  0  0  0  0
 45 37  1  0  0  0  0
 48 27  2  0  0  0  0
 49 50  1  0  0  0  0
 49 52  1  0  0  0  0
 51 49  1  0  0  0  0
 53 54  1  0  0  0  0
 53 55  1  0  0  0  0
 56 53  1  0  0  0  0
M  END
>  <Pose>
1

>  <Score>
-6.54

$$$$

 OpenBabel03112211313D

 57 59  0  0  1  0  0  0  0  0999 V2000
    3.9920    8.6420   14.6130 C   0  0  0  0  0  0  0  0  0  0  0  0
    3.7060    7.8130   15.7130 C   0  0  0  0  0  0  0  0  0  0  0  0
    2.7560    7.8900   16.2210 H   0  0  0  0  0  0  0  0  0  0  0  0
    4.6620    6.8910   16.1400 C   0  0  0  0  0  0  0  0  0  0  0  0
    4.4620    6.2550   16.9890 H   0  0  0  0  0  0  0  0  0  0  0  0
    5.2120    8.5520   13.9410 C   0  0  0  0  0  0  0  0  0  0  0  0
    5.4180    9.1960   13.0980 H   0  0  0  0  0  0  0  0  0  0  0  0
    6.1590    7.6300   14.3620 C   0  0  0  0  0  0  0  0  0  0  0  0
    5.8830    6.7950   15.4600 C   0  0  0  0  0  0  0  0  0  0  0  0
    7.4500    7.3120   13.9040 C   0  0  1  0  0  0  0  0  0  0  0  0
    7.8890    6.2830   14.7530 C   0  0  0  0  0  0  0  0  0  0  0  0
    8.0570    7.9400   12.7820 C   0  0  0  0  0  0  0  0  0  0  0  0
    8.1320    8.9930   13.0540 H   0  0  0  0  0  0  0  0  0  0  0  0
    7.3380    7.8240   11.9710 H   0  0  0  0  0  0  0  0  0  0  0  0
    9.2990    7.6240   12.2140 C   0  0  0  0  0  0  0  0  0  0  0  0
    9.5310    6.4440   11.4830 C   0  0  0  0  0  0  0  0  0  0  0  0
   10.8560    6.4580   11.0700 C   0  0  0  0  0  0  0  0  0  0  0  0
   11.3840    7.6510   11.5560 C   0  0  0  0  0  0  0  0  0  0  0  0
    8.5060    5.3380   11.1990 C   0  0  0  0  0  0  0  0  0  0  0  0
    7.5500    5.6050   11.6490 H   0  0  0  0  0  0  0  0  0  0  0  0
    8.8580    4.3980   11.6240 H   0  0  0  0  0  0  0  0  0  0  0  0
    8.3810    5.2260   10.1220 H   0  0  0  0  0  0  0  0  0  0  0  0
   12.8000    8.1980   11.3760 C   0  0  0  0  0  0  0  0  0  0  0  0
   13.3910    7.4920   10.7930 H   0  0  0  0  0  0  0  0  0  0  0  0
   13.2620    8.3380   12.3530 H   0  0  0  0  0  0  0  0  0  0  0  0
   12.7570    9.1540   10.8540 H   0  0  0  0  0  0  0  0  0  0  0  0
   11.6290    5.4130   10.1850 C   0  0  0  0  0  0  0  0  0  0  0  0
   13.0910    3.4020   10.0900 C   0  0  0  0  0  0  0  0  0  0  0  0
   13.0770    3.5880    9.0160 H   0  0  0  0  0  0  0  0  0  0  0  0
   14.1230    3.3660   10.4400 H   0  0  0  0  0  0  0  0  0  0  0  0
   12.3730    2.0650   10.4100 C   0  0  0  0  0  0  0  0  0  0  0  0
   11.3360    2.1570   10.0880 H   0  0  0  0  0  0  0  0  0  0  0  0
   12.4070    1.9170   11.4890 H   0  0  0  0  0  0  0  0  0  0  0  0
   14.3700    1.0390    9.3860 C   0  0  0  0  0  0  0  0  0  0  0  0
   14.9710    0.2890    9.9010 H   0  0  0  0  0  0  0  0  0  0  0  0
   14.6860    2.0350    9.6980 H   0  0  0  0  0  0  0  0  0  0  0  0
   12.1460    0.3360    8.6230 C   0  0  0  0  0  0  0  0  0  0  0  0
   12.8150   -0.0060    7.8340 H   0  0  0  0  0  0  0  0  0  0  0  0
   11.5080    1.1330    8.2390 H   0  0  0  0  0  0  0  0  0  0  0  0
    6.9540    6.0060   15.6520 N   0  0  0  0  0  0  0  0  0  0  0  0
   10.4500    8.3150   12.2320 N   0  0  0  0  0  0  0  0  0  0  0  0
   10.5860    9.2050   12.6900 H   0  0  0  0  0  0  0  0  0  0  0  0
   12.3450    4.4710   10.8050 N   0  0  0  0  0  0  0  0  0  0  0  0
   12.3820    4.4870   11.8140 H   0  0  0  0  0  0  0  0  0  0  0  0
   12.9470    0.8510    9.7620 N   0  0  0  0  0  4  0  0  0  0  0  0
   12.9060    0.1330   10.4710 H   0  0  0  0  0  0  0  0  0  0  0  0
    8.9740    5.6870   14.7390 O   0  0  0  0  0  0  0  0  0  0  0  0
   11.5080    5.4480    8.9650 O   0  0  0  0  0  0  0  0  0  0  0  0
   11.2710   -0.8370    9.0970 C   0  0  0  0  0  0  0  0  0  0  0  0
   10.6830   -1.2130    8.2590 H   0  0  0  0  0  0  0  0  0  0  0  0
   10.6010   -0.4950    9.8860 H   0  0  0  0  0  0  0  0  0  0  0  0
   11.9080   -1.6330    9.4810 H   0  0  0  0  0  0  0  0  0  0  0  0
   14.6020    0.9010    7.8710 C   0  0  0  0  0  0  0  0  0  0  0  0
   15.6590    1.0470    7.6500 H   0  0  0  0  0  0  0  0  0  0  0  0
   14.0120    1.6510    7.3430 H   0  0  0  0  0  0  0  0  0  0  0  0
   14.2970   -0.0940    7.5460 H   0  0  0  0  0  0  0  0  0  0  0  0
    2.8440    9.8160   14.0830 C   0  0  0  0  0  0  0  0  0  0  0  0
  1  2  1  0  0  0  0
  2  4  2  0  0  0  0
  2  3  1  0  0  0  0
  4  5  1  0  0  0  0
  6  8  1  0  0  0  0
  6  1  2  0  0  0  0
  7  6  1  0  0  0  0
  8  9  2  0  0  0  0
  9 40  1  0  0  0  0
  9  4  1  0  0  0  0
 10 12  1  6  0  0  0
 10  8  1  0  0  0  0
 10 11  1  0  0  0  0
 11 40  1  0  0  0  0
 12 13  1  0  0  0  0
 14 12  1  0  0  0  0
 15 41  1  0  0  0  0
 15 12  1  0  0  0  0
 16 15  2  0  0  0  0
 17 16  1  0  0  0  0
 17 18  2  0  0  0  0
 18 41  1  0  0  0  0
 19 16  1  0  0  0  0
 19 21  1  0  0  0  0
 19 20  1  0  0  0  0
 22 19  1  0  0  0  0
 23 18  1  0  0  0  0
 23 25  1  0  0  0  0
 24 23  1  0  0  0  0
 26 23  1  0  0  0  0
 27 43  1  0  0  0  0
 27 17  1  0  0  0  0
 28 31  1  0  0  0  0
 28 30  1  0  0  0  0
 28 43  1  0  0  0  0
 29 28  1  0  0  0  0
 31 33  1  0  0  0  0
 32 31  1  0  0  0  0
 34 36  1  0  0  0  0
 34 45  1  0  0  0  0
 34 35  1  0  0  0  0
 37 49  1  0  0  0  0
 37 45  1  0  0  0  0
 38 37  1  0  0  0  0
 39 37  1  0  0  0  0
 41 42  1  0  0  0  0
 43 44  1  0  0  0  0
 45 31  1  0  0  0  0
 45 46  1  0  0  0  0
 47 11  2  0  0  0  0
 48 27  2  0  0  0  0
 49 52  1  0  0  0  0
 49 51  1  0  0  0  0
 50 49  1  0  0  0  0
 53 34  1  0  0  0  0
 54 53  1  0  0  0  0
 55 53  1  0  0  0  0
 56 53  1  0  0  0  0
 57  1  1  0  0  0  0
M  END
>  <Pose>
1

>  <Score>
-6.37

$$$$
