
 OpenBabel03112215073D

 57 59  0  0  1  0  0  0  0  0999 V2000
   10.7900   -0.0180    8.7510 C   0  0  0  0  0  0  0  0  0  0  0  0
   11.3270   -0.9450    7.8390 C   0  0  0  0  0  0  0  0  0  0  0  0
   10.7010   -1.7110    7.4070 H   0  0  0  0  0  0  0  0  0  0  0  0
   12.6780   -0.8630    7.5000 C   0  0  0  0  0  0  0  0  0  0  0  0
   13.1090   -1.5740    6.8100 H   0  0  0  0  0  0  0  0  0  0  0  0
   11.5840    0.9820    9.3150 C   0  0  0  0  0  0  0  0  0  0  0  0
   11.1570    1.6860   10.0140 H   0  0  0  0  0  0  0  0  0  0  0  0
   12.9250    1.0660    8.9710 C   0  0  0  0  0  0  0  0  0  0  0  0
   13.4730    0.1450    8.0600 C   0  0  0  0  0  0  0  0  0  0  0  0
   13.9570    1.9360    9.3640 C   0  0  1  0  0  0  0  0  0  0  0  0
   15.0870    1.4970    8.6540 C   0  0  0  0  0  0  0  0  0  0  0  0
   13.7650    3.0210   10.2630 C   0  0  0  0  0  0  0  0  0  0  0  0
   13.1310    2.6210   11.0550 H   0  0  0  0  0  0  0  0  0  0  0  0
   13.2080    3.7640    9.6930 H   0  0  0  0  0  0  0  0  0  0  0  0
   14.7620    3.7460   10.9280 C   0  0  0  0  0  0  0  0  0  0  0  0
   14.4940    4.6170   12.0000 C   0  0  0  0  0  0  0  0  0  0  0  0
   15.7020    5.1610   12.4150 C   0  0  0  0  0  0  0  0  0  0  0  0
   16.6670    4.5950   11.5880 C   0  0  0  0  0  0  0  0  0  0  0  0
   13.1120    4.9180   12.5980 C   0  0  0  0  0  0  0  0  0  0  0  0
   12.3540    4.3430   12.0670 H   0  0  0  0  0  0  0  0  0  0  0  0
   12.8980    5.9820   12.5000 H   0  0  0  0  0  0  0  0  0  0  0  0
   13.1050    4.6410   13.6530 H   0  0  0  0  0  0  0  0  0  0  0  0
   18.1790    4.8160   11.6140 C   0  0  0  0  0  0  0  0  0  0  0  0
   18.4280    5.5250   12.4040 H   0  0  0  0  0  0  0  0  0  0  0  0
   18.5050    5.2130   10.6530 H   0  0  0  0  0  0  0  0  0  0  0  0
   18.6820    3.8680   11.8050 H   0  0  0  0  0  0  0  0  0  0  0  0
   15.9850    6.1530   13.6020 C   0  0  0  0  0  0  0  0  0  0  0  0
   15.8250    6.6240   16.0400 C   0  0  0  0  0  0  0  0  0  0  0  0
   16.7330    7.2160   15.9190 H   0  0  0  0  0  0  0  0  0  0  0  0
   14.9790    7.2890   16.2130 H   0  0  0  0  0  0  0  0  0  0  0  0
   15.9820    5.6400   17.2270 C   0  0  0  0  0  0  0  0  0  0  0  0
   15.8920    4.6270   16.8360 H   0  0  0  0  0  0  0  0  0  0  0  0
   15.1710    5.8310   17.9300 H   0  0  0  0  0  0  0  0  0  0  0  0
   17.1000    6.3780   19.3000 C   0  0  0  0  0  0  0  0  0  0  0  0
   16.5770    7.3240   19.1620 H   0  0  0  0  0  0  0  0  0  0  0  0
   18.0860    6.5660   19.7250 H   0  0  0  0  0  0  0  0  0  0  0  0
   18.3770    6.3470   17.2040 C   0  0  0  0  0  0  0  0  0  0  0  0
   19.2280    6.5160   17.8630 H   0  0  0  0  0  0  0  0  0  0  0  0
   18.0440    7.2990   16.7900 H   0  0  0  0  0  0  0  0  0  0  0  0
   14.7730    0.4490    7.9050 N   0  0  0  0  0  0  0  0  0  0  0  0
   16.0880    3.7720   10.7170 N   0  0  0  0  0  0  0  0  0  0  0  0
   16.5730    3.2470   10.0030 H   0  0  0  0  0  0  0  0  0  0  0  0
   15.5870    5.7980   14.8260 N   0  0  0  0  0  0  0  0  0  0  0  0
   15.0970    4.9220   14.9340 H   0  0  0  0  0  0  0  0  0  0  0  0
   17.2690    5.7290   17.9760 N   0  0  0  0  0  4  0  0  0  0  0  0
   17.5470    4.7710   18.1330 H   0  0  0  0  0  0  0  0  0  0  0  0
   16.2370    1.9550    8.6820 O   0  0  0  0  0  0  0  0  0  0  0  0
   16.6110    7.1860   13.3890 O   0  0  0  0  0  0  0  0  0  0  0  0
   18.7930    5.4090   16.0580 C   0  0  0  0  0  0  0  0  0  0  0  0
   19.6060    5.8640   15.4930 H   0  0  0  0  0  0  0  0  0  0  0  0
   17.9420    5.2400   15.3990 H   0  0  0  0  0  0  0  0  0  0  0  0
   19.1260    4.4570   16.4720 H   0  0  0  0  0  0  0  0  0  0  0  0
   16.2970    5.5090   20.2830 C   0  0  0  0  0  0  0  0  0  0  0  0
   16.2030    6.0300   21.2360 H   0  0  0  0  0  0  0  0  0  0  0  0
   16.8130    4.5610   20.4360 H   0  0  0  0  0  0  0  0  0  0  0  0
   15.3040    5.3190   19.8730 H   0  0  0  0  0  0  0  0  0  0  0  0
    9.1310   -0.1130    9.2160 C   0  0  0  0  0  0  0  0  0  0  0  0
  1 57  1  0  0  0  0
  1  6  1  0  0  0  0
  2  1  2  0  0  0  0
  3  2  1  0  0  0  0
  4  2  1  0  0  0  0
  4  9  2  0  0  0  0
  5  4  1  0  0  0  0
  6  7  1  0  0  0  0
  8  6  2  0  0  0  0
  8 10  1  0  0  0  0
  9  8  1  0  0  0  0
 10 12  1  6  0  0  0
 11 47  2  0  0  0  0
 11 10  1  0  0  0  0
 12 15  1  0  0  0  0
 12 13  1  0  0  0  0
 14 12  1  0  0  0  0
 15 16  2  0  0  0  0
 16 17  1  0  0  0  0
 16 19  1  0  0  0  0
 17 27  1  0  0  0  0
 18 23  1  0  0  0  0
 18 17  2  0  0  0  0
 19 22  1  0  0  0  0
 20 19  1  0  0  0  0
 21 19  1  0  0  0  0
 23 26  1  0  0  0  0
 23 24  1  0  0  0  0
 25 23  1  0  0  0  0
 27 43  1  0  0  0  0
 28 30  1  0  0  0  0
 28 31  1  0  0  0  0
 29 28  1  0  0  0  0
 31 33  1  0  0  0  0
 31 45  1  0  0  0  0
 32 31  1  0  0  0  0
 34 36  1  0  0  0  0
 34 53  1  0  0  0  0
 35 34  1  0  0  0  0
 37 38  1  0  0  0  0
 37 45  1  0  0  0  0
 39 37  1  0  0  0  0
 40  9  1  0  0  0  0
 40 11  1  0  0  0  0
 41 15  1  0  0  0  0
 41 18  1  0  0  0  0
 42 41  1  0  0  0  0
 43 44  1  0  0  0  0
 43 28  1  0  0  0  0
 45 46  1  0  0  0  0
 45 34  1  0  0  0  0
 48 27  2  0  0  0  0
 49 52  1  0  0  0  0
 49 37  1  0  0  0  0
 50 49  1  0  0  0  0
 51 49  1  0  0  0  0
 53 55  1  0  0  0  0
 53 54  1  0  0  0  0
 56 53  1  0  0  0  0
M  END
>  <Pose>
2

>  <Score>
-7.84

$$$$

 OpenBabel03112215073D

 57 59  0  0  1  0  0  0  0  0999 V2000
   11.2350   -0.1880    8.6400 C   0  0  0  0  0  0  0  0  0  0  0  0
   11.9300   -1.0160    7.7410 C   0  0  0  0  0  0  0  0  0  0  0  0
   11.4240   -1.8320    7.2460 H   0  0  0  0  0  0  0  0  0  0  0  0
   13.2820   -0.7720    7.4940 C   0  0  0  0  0  0  0  0  0  0  0  0
   13.8330   -1.4050    6.8140 H   0  0  0  0  0  0  0  0  0  0  0  0
   11.8730    0.8740    9.2830 C   0  0  0  0  0  0  0  0  0  0  0  0
   11.3250    1.5000    9.9720 H   0  0  0  0  0  0  0  0  0  0  0  0
   13.2140    1.1200    9.0310 C   0  0  0  0  0  0  0  0  0  0  0  0
   13.9200    0.2990    8.1330 C   0  0  0  0  0  0  0  0  0  0  0  0
   14.1140    2.0860    9.5160 C   0  0  1  0  0  0  0  0  0  0  0  0
   15.3290    1.8020    8.8700 C   0  0  0  0  0  0  0  0  0  0  0  0
   13.7430    3.1100   10.4310 C   0  0  0  0  0  0  0  0  0  0  0  0
   14.5920    3.7930   10.4490 H   0  0  0  0  0  0  0  0  0  0  0  0
   13.6590    2.6090   11.3950 H   0  0  0  0  0  0  0  0  0  0  0  0
   12.6140    3.9360   10.3520 C   0  0  0  0  0  0  0  0  0  0  0  0
   12.1930    4.7660   11.4080 C   0  0  0  0  0  0  0  0  0  0  0  0
   11.0550    5.4390   10.9870 C   0  0  0  0  0  0  0  0  0  0  0  0
   10.8250    5.0040    9.6850 C   0  0  0  0  0  0  0  0  0  0  0  0
   12.8690    4.8970   12.7800 C   0  0  0  0  0  0  0  0  0  0  0  0
   13.7430    4.2460   12.8180 H   0  0  0  0  0  0  0  0  0  0  0  0
   12.1650    4.6070   13.5600 H   0  0  0  0  0  0  0  0  0  0  0  0
   13.1780    5.9310   12.9350 H   0  0  0  0  0  0  0  0  0  0  0  0
    9.7150    5.4370    8.7290 C   0  0  0  0  0  0  0  0  0  0  0  0
    9.0750    6.1680    9.2220 H   0  0  0  0  0  0  0  0  0  0  0  0
    9.1220    4.5690    8.4430 H   0  0  0  0  0  0  0  0  0  0  0  0
   10.1570    5.8840    7.8380 H   0  0  0  0  0  0  0  0  0  0  0  0
   10.2070    6.5210   11.7500 C   0  0  0  0  0  0  0  0  0  0  0  0
    7.9570    7.4080   12.3380 C   0  0  0  0  0  0  0  0  0  0  0  0
    7.8660    7.1320   13.3890 H   0  0  0  0  0  0  0  0  0  0  0  0
    8.3320    8.4280   12.2610 H   0  0  0  0  0  0  0  0  0  0  0  0
    6.5810    7.2910   11.6340 C   0  0  0  0  0  0  0  0  0  0  0  0
    6.5020    6.2860   11.2180 H   0  0  0  0  0  0  0  0  0  0  0  0
    6.5540    8.0220   10.8270 H   0  0  0  0  0  0  0  0  0  0  0  0
    4.3110    8.2480   11.7860 C   0  0  0  0  0  0  0  0  0  0  0  0
    4.2020    9.2370   12.2290 H   0  0  0  0  0  0  0  0  0  0  0  0
    3.3790    7.6940   11.9020 H   0  0  0  0  0  0  0  0  0  0  0  0
    5.7030    8.1590   13.8050 C   0  0  0  0  0  0  0  0  0  0  0  0
    5.0980    9.0570   13.9250 H   0  0  0  0  0  0  0  0  0  0  0  0
    6.7600    8.4260   13.8330 H   0  0  0  0  0  0  0  0  0  0  0  0
   15.1840    0.7520    8.0730 N   0  0  0  0  0  0  0  0  0  0  0  0
   11.7520    4.1150    9.3370 N   0  0  0  0  0  0  0  0  0  0  0  0
   11.7990    3.6440    8.4450 H   0  0  0  0  0  0  0  0  0  0  0  0
    8.8770    6.4700   11.6410 N   0  0  0  0  0  0  0  0  0  0  0  0
    8.4730    5.7550   11.0520 H   0  0  0  0  0  0  0  0  0  0  0  0
    5.3890    7.5210   12.5010 N   0  0  0  0  0  4  0  0  0  0  0  0
    5.0460    6.5980   12.7250 H   0  0  0  0  0  0  0  0  0  0  0  0
   16.4140    2.3850    8.9870 O   0  0  0  0  0  0  0  0  0  0  0  0
   10.7750    7.3390   12.4660 O   0  0  0  0  0  0  0  0  0  0  0  0
    5.3930    7.1770   14.9470 C   0  0  0  0  0  0  0  0  0  0  0  0
    5.6240    7.6460   15.9030 H   0  0  0  0  0  0  0  0  0  0  0  0
    5.9980    6.2780   14.8280 H   0  0  0  0  0  0  0  0  0  0  0  0
    4.3360    6.9100   14.9200 H   0  0  0  0  0  0  0  0  0  0  0  0
    4.6050    8.4090   10.2840 C   0  0  0  0  0  0  0  0  0  0  0  0
    3.7850    8.9470    9.8090 H   0  0  0  0  0  0  0  0  0  0  0  0
    4.7080    7.4250    9.8260 H   0  0  0  0  0  0  0  0  0  0  0  0
    5.5310    8.9690   10.1540 H   0  0  0  0  0  0  0  0  0  0  0  0
    9.5720   -0.4860    8.9920 C   0  0  0  0  0  0  0  0  0  0  0  0
  1 57  1  0  0  0  0
  1  6  1  0  0  0  0
  2  1  2  0  0  0  0
  3  2  1  0  0  0  0
  4  2  1  0  0  0  0
  4  9  2  0  0  0  0
  5  4  1  0  0  0  0
  6  7  1  0  0  0  0
  8  6  2  0  0  0  0
  8 10  1  0  0  0  0
  9  8  1  0  0  0  0
 10 12  1  6  0  0  0
 11 47  2  0  0  0  0
 11 10  1  0  0  0  0
 12 13  1  0  0  0  0
 12 14  1  0  0  0  0
 15 12  1  0  0  0  0
 15 16  2  0  0  0  0
 16 19  1  0  0  0  0
 17 16  1  0  0  0  0
 17 27  1  0  0  0  0
 18 17  2  0  0  0  0
 19 20  1  0  0  0  0
 19 22  1  0  0  0  0
 19 21  1  0  0  0  0
 23 24  1  0  0  0  0
 23 18  1  0  0  0  0
 25 23  1  0  0  0  0
 26 23  1  0  0  0  0
 27 48  2  0  0  0  0
 28 29  1  0  0  0  0
 30 28  1  0  0  0  0
 31 28  1  0  0  0  0
 31 45  1  0  0  0  0
 32 31  1  0  0  0  0
 33 31  1  0  0  0  0
 34 36  1  0  0  0  0
 34 35  1  0  0  0  0
 34 45  1  0  0  0  0
 37 39  1  0  0  0  0
 37 38  1  0  0  0  0
 37 49  1  0  0  0  0
 40  9  1  0  0  0  0
 40 11  1  0  0  0  0
 41 18  1  0  0  0  0
 41 15  1  0  0  0  0
 42 41  1  0  0  0  0
 43 27  1  0  0  0  0
 43 28  1  0  0  0  0
 44 43  1  0  0  0  0
 45 46  1  0  0  0  0
 45 37  1  0  0  0  0
 49 50  1  0  0  0  0
 51 49  1  0  0  0  0
 52 49  1  0  0  0  0
 53 34  1  0  0  0  0
 54 53  1  0  0  0  0
 55 53  1  0  0  0  0
 56 53  1  0  0  0  0
M  END
>  <Pose>
1

>  <Score>
-7.67

$$$$

 OpenBabel03112215073D

 57 59  0  0  1  0  0  0  0  0999 V2000
   11.2090   -0.2350    8.6020 C   0  0  0  0  0  0  0  0  0  0  0  0
   11.8560   -1.1160    7.7180 C   0  0  0  0  0  0  0  0  0  0  0  0
   11.3110   -1.9280    7.2600 H   0  0  0  0  0  0  0  0  0  0  0  0
   13.2110   -0.9300    7.4390 C   0  0  0  0  0  0  0  0  0  0  0  0
   13.7250   -1.6050    6.7700 H   0  0  0  0  0  0  0  0  0  0  0  0
   11.8970    0.8230    9.1980 C   0  0  0  0  0  0  0  0  0  0  0  0
   11.3860    1.4910    9.8760 H   0  0  0  0  0  0  0  0  0  0  0  0
   13.2420    1.0110    8.9150 C   0  0  0  0  0  0  0  0  0  0  0  0
   13.9000    0.1360    8.0310 C   0  0  0  0  0  0  0  0  0  0  0  0
   14.1850    1.9590    9.3510 C   0  0  1  0  0  0  0  0  0  0  0  0
   15.3760    1.6090    8.6920 C   0  0  0  0  0  0  0  0  0  0  0  0
   13.8690    3.0240   10.2380 C   0  0  0  0  0  0  0  0  0  0  0  0
   13.1510    2.6020   10.9400 H   0  0  0  0  0  0  0  0  0  0  0  0
   13.3750    3.7710    9.6170 H   0  0  0  0  0  0  0  0  0  0  0  0
   14.7680    3.7500   11.0300 C   0  0  0  0  0  0  0  0  0  0  0  0
   14.3640    4.7610   11.9220 C   0  0  0  0  0  0  0  0  0  0  0  0
   15.5030    5.2610   12.5370 C   0  0  0  0  0  0  0  0  0  0  0  0
   16.5630    4.5310   12.0070 C   0  0  0  0  0  0  0  0  0  0  0  0
   12.9230    5.2310   12.1640 C   0  0  0  0  0  0  0  0  0  0  0  0
   12.2430    4.6530   11.5380 H   0  0  0  0  0  0  0  0  0  0  0  0
   12.8380    6.2880   11.9130 H   0  0  0  0  0  0  0  0  0  0  0  0
   12.6650    5.0840   13.2130 H   0  0  0  0  0  0  0  0  0  0  0  0
   18.0480    4.6440   12.3460 C   0  0  0  0  0  0  0  0  0  0  0  0
   18.1920    5.4220   13.0950 H   0  0  0  0  0  0  0  0  0  0  0  0
   18.6080    4.8970   11.4460 H   0  0  0  0  0  0  0  0  0  0  0  0
   18.4040    3.6910   12.7400 H   0  0  0  0  0  0  0  0  0  0  0  0
   15.6230    6.3660   13.6500 C   0  0  0  0  0  0  0  0  0  0  0  0
   14.6670    7.4090   15.6960 C   0  0  0  0  0  0  0  0  0  0  0  0
   15.6800    7.7720   15.8710 H   0  0  0  0  0  0  0  0  0  0  0  0
   14.0130    8.2520   15.4710 H   0  0  0  0  0  0  0  0  0  0  0  0
   14.1480    6.6500   16.9450 C   0  0  0  0  0  0  0  0  0  0  0  0
   13.9060    5.6320   16.6410 H   0  0  0  0  0  0  0  0  0  0  0  0
   13.2440    7.1510   17.2900 H   0  0  0  0  0  0  0  0  0  0  0  0
   16.1600    5.5630   17.8740 C   0  0  0  0  0  0  0  0  0  0  0  0
   15.6920    4.6000   17.6710 H   0  0  0  0  0  0  0  0  0  0  0  0
   16.7650    5.4900   18.7770 H   0  0  0  0  0  0  0  0  0  0  0  0
   14.4350    6.3890   19.4120 C   0  0  0  0  0  0  0  0  0  0  0  0
   14.1700    5.3390   19.5410 H   0  0  0  0  0  0  0  0  0  0  0  0
   13.5320    6.9990   19.4530 H   0  0  0  0  0  0  0  0  0  0  0  0
   15.1780    0.5400    7.9330 N   0  0  0  0  0  0  0  0  0  0  0  0
   16.1050    3.6540   11.1170 N   0  0  0  0  0  0  0  0  0  0  0  0
   16.6770    3.0120   10.5870 H   0  0  0  0  0  0  0  0  0  0  0  0
   14.6580    6.4390   14.5700 N   0  0  0  0  0  0  0  0  0  0  0  0
   13.8790    5.8000   14.4970 H   0  0  0  0  0  0  0  0  0  0  0  0
   15.0950    6.5730   18.0940 N   0  0  0  0  0  4  0  0  0  0  0  0
   15.5340    7.4820   18.1340 H   0  0  0  0  0  0  0  0  0  0  0  0
   16.4840    2.1550    8.7710 O   0  0  0  0  0  0  0  0  0  0  0  0
   16.6160    7.0840   13.6830 O   0  0  0  0  0  0  0  0  0  0  0  0
   15.3950    6.8170   20.5340 C   0  0  0  0  0  0  0  0  0  0  0  0
   14.9080    6.6810   21.5000 H   0  0  0  0  0  0  0  0  0  0  0  0
   15.6590    7.8670   20.4050 H   0  0  0  0  0  0  0  0  0  0  0  0
   16.2970    6.2070   20.4930 H   0  0  0  0  0  0  0  0  0  0  0  0
   17.0780    5.9230   16.6920 C   0  0  0  0  0  0  0  0  0  0  0  0
   17.8380    5.1520   16.5740 H   0  0  0  0  0  0  0  0  0  0  0  0
   17.5590    6.8820   16.8860 H   0  0  0  0  0  0  0  0  0  0  0  0
   16.4850    5.9920   15.7800 H   0  0  0  0  0  0  0  0  0  0  0  0
    9.5430   -0.4590    8.9930 C   0  0  0  0  0  0  0  0  0  0  0  0
  1 57  1  0  0  0  0
  1  6  1  0  0  0  0
  2  1  2  0  0  0  0
  3  2  1  0  0  0  0
  4  2  1  0  0  0  0
  4  9  2  0  0  0  0
  5  4  1  0  0  0  0
  6  7  1  0  0  0  0
  8  6  2  0  0  0  0
  8 10  1  0  0  0  0
  9  8  1  0  0  0  0
 10 12  1  6  0  0  0
 11 47  2  0  0  0  0
 11 10  1  0  0  0  0
 12 13  1  0  0  0  0
 12 15  1  0  0  0  0
 14 12  1  0  0  0  0
 15 41  1  0  0  0  0
 15 16  2  0  0  0  0
 16 19  1  0  0  0  0
 16 17  1  0  0  0  0
 17 27  1  0  0  0  0
 18 23  1  0  0  0  0
 18 17  2  0  0  0  0
 19 22  1  0  0  0  0
 20 19  1  0  0  0  0
 21 19  1  0  0  0  0
 23 26  1  0  0  0  0
 23 24  1  0  0  0  0
 25 23  1  0  0  0  0
 27 48  2  0  0  0  0
 27 43  1  0  0  0  0
 28 29  1  0  0  0  0
 28 31  1  0  0  0  0
 30 28  1  0  0  0  0
 31 33  1  0  0  0  0
 31 45  1  0  0  0  0
 32 31  1  0  0  0  0
 34 45  1  0  0  0  0
 34 36  1  0  0  0  0
 35 34  1  0  0  0  0
 37 39  1  0  0  0  0
 37 38  1  0  0  0  0
 37 49  1  0  0  0  0
 40  9  1  0  0  0  0
 40 11  1  0  0  0  0
 41 18  1  0  0  0  0
 42 41  1  0  0  0  0
 43 28  1  0  0  0  0
 44 43  1  0  0  0  0
 45 46  1  0  0  0  0
 45 37  1  0  0  0  0
 49 50  1  0  0  0  0
 51 49  1  0  0  0  0
 52 49  1  0  0  0  0
 53 55  1  0  0  0  0
 53 34  1  0  0  0  0
 54 53  1  0  0  0  0
 56 53  1  0  0  0  0
M  END
>  <Pose>
1

>  <Score>
-7.53

$$$$

 OpenBabel03112215073D

 57 57  0  0  0  0  0  0  0  0999 V2000
   11.4630   -0.2580    8.5130 C   0  0  0  0  0  0  0  0  0  0  0  0
   12.1410   -0.8700    7.4430 C   0  0  0  0  0  0  0  0  0  0  0  0
   11.6210   -1.5490    6.7840 H   0  0  0  0  0  0  0  0  0  0  0  0
   13.4930   -0.5890    7.2420 C   0  0  0  0  0  0  0  0  0  0  0  0
   14.0310   -1.0580    6.4320 H   0  0  0  0  0  0  0  0  0  0  0  0
   12.1180    0.6270    9.3700 C   0  0  0  0  0  0  0  0  0  0  0  0
   11.5840    1.0880   10.1880 H   0  0  0  0  0  0  0  0  0  0  0  0
   13.4600    0.9100    9.1650 C   0  0  0  0  0  0  0  0  0  0  0  0
   14.1490    0.3050    8.0980 C   0  0  0  0  0  0  0  0  0  0  0  0
   14.3750    1.7350    9.8440 C   0  0  0  0  0  0  0  0  0  0  0  0
   15.5810    1.5920    9.1380 C   0  0  0  0  0  0  0  0  0  0  0  0
   14.0240    2.5310   10.9690 C   0  0  0  0  0  0  0  0  0  0  0  0
   14.9730    2.8890   11.3680 H   0  0  0  0  0  0  0  0  0  0  0  0
   13.5720    1.8350   11.6760 H   0  0  0  0  0  0  0  0  0  0  0  0
   13.1820    3.6510   10.9740 C   0  0  0  0  0  0  0  0  0  0  0  0
   11.8090    3.5820   10.6750 C   0  0  0  0  0  0  0  0  0  0  0  0
   11.2900    4.8650   10.7760 C   0  0  0  0  0  0  0  0  0  0  0  0
   12.3630    5.6720   11.1430 C   0  0  0  0  0  0  0  0  0  0  0  0
   11.0270    2.3150   10.2980 C   0  0  0  0  0  0  0  0  0  0  0  0
   11.7010    1.4580   10.3010 H   0  0  0  0  0  0  0  0  0  0  0  0
   10.5970    2.4360    9.3040 H   0  0  0  0  0  0  0  0  0  0  0  0
   10.2290    2.1520   11.0220 H   0  0  0  0  0  0  0  0  0  0  0  0
   12.3610    7.1750   11.4190 C   0  0  0  0  0  0  0  0  0  0  0  0
   11.3550    7.5690   11.2740 H   0  0  0  0  0  0  0  0  0  0  0  0
   13.0470    7.6710   10.7330 H   0  0  0  0  0  0  0  0  0  0  0  0
   12.6780    7.3560   12.4450 H   0  0  0  0  0  0  0  0  0  0  0  0
    9.8040    5.3490   10.5940 C   0  0  0  0  0  0  0  0  0  0  0  0
    7.7210    6.2030   11.6520 C   0  0  0  0  0  0  0  0  0  0  0  0
    7.7110    7.2540   11.3610 H   0  0  0  0  0  0  0  0  0  0  0  0
    7.1280    5.6250   10.9430 H   0  0  0  0  0  0  0  0  0  0  0  0
    7.1500    6.0400   13.0840 C   0  0  0  0  0  0  0  0  0  0  0  0
    7.6640    5.2020   13.5560 H   0  0  0  0  0  0  0  0  0  0  0  0
    6.0880    5.8110   12.9970 H   0  0  0  0  0  0  0  0  0  0  0  0
    8.2570    6.9840   15.0780 C   0  0  0  0  0  0  0  0  0  0  0  0
    7.9660    6.0750   15.6040 H   0  0  0  0  0  0  0  0  0  0  0  0
    8.2220    7.8290   15.7650 H   0  0  0  0  0  0  0  0  0  0  0  0
    6.0030    7.7560   14.4890 C   0  0  0  0  0  0  0  0  0  0  0  0
    6.1910    8.4020   15.3460 H   0  0  0  0  0  0  0  0  0  0  0  0
    5.3640    6.9260   14.7920 H   0  0  0  0  0  0  0  0  0  0  0  0
   15.4170    0.7490    8.1270 N   0  0  0  0  0  0  0  0  0  0  0  0
   13.4660    4.9350   11.2450 N   0  0  0  0  0  0  0  0  0  0  0  0
   14.3800    5.2890   11.4900 H   0  0  0  0  0  0  0  0  0  0  0  0
    9.1170    5.6940   11.6860 N   0  0  0  0  0  0  0  0  0  0  0  0
    9.5710    5.6040   12.5830 H   0  0  0  0  0  0  0  0  0  0  0  0
    7.2920    7.2260   13.9760 N   0  0  0  0  0  4  0  0  0  0  0  0
    7.6700    7.9530   13.3860 H   0  0  0  0  0  0  0  0  0  0  0  0
   16.6740    2.1230    9.3710 O   0  0  0  0  0  0  0  0  0  0  0  0
    9.3380    5.4550    9.4640 O   0  0  0  0  0  0  0  0  0  0  0  0
    5.3020    8.5630   13.3830 C   0  0  0  0  0  0  0  0  0  0  0  0
    4.3560    8.9510   13.7610 H   0  0  0  0  0  0  0  0  0  0  0  0
    5.1130    7.9180   12.5250 H   0  0  0  0  0  0  0  0  0  0  0  0
    5.9390    9.3940   13.0800 H   0  0  0  0  0  0  0  0  0  0  0  0
    9.7000    6.8190   14.5700 C   0  0  0  0  0  0  0  0  0  0  0  0
   10.3650    6.6450   15.4160 H   0  0  0  0  0  0  0  0  0  0  0  0
   10.0070    7.7250   14.0480 H   0  0  0  0  0  0  0  0  0  0  0  0
    9.7510    5.9710   13.8870 H   0  0  0  0  0  0  0  0  0  0  0  0
    9.7990   -0.6110    8.8070 C   0  0  0  0  0  0  0  0  0  0  0  0
  1 57  1  0  0  0  0
  2  1  1  0  0  0  0
  3  2  1  0  0  0  0
  4  2  2  0  0  0  0
  4  9  1  0  0  0  0
  5  4  1  0  0  0  0
  6  7  1  0  0  0  0
  8 10  2  0  0  0  0
  9 40  2  0  0  0  0
  9  8  1  0  0  0  0
 10 12  1  0  0  0  0
 11 47  2  0  0  0  0
 11 10  1  0  0  0  0
 12 15  1  0  0  0  0
 12 13  1  0  0  0  0
 12 14  1  0  0  0  0
 15 41  1  0  0  0  0
 16 17  1  0  0  0  0
 16 15  2  0  0  0  0
 17 18  2  0  0  0  0
 18 41  1  0  0  0  0
 18 23  1  0  0  0  0
 19 20  1  0  0  0  0
 19 16  1  0  0  0  0
 19 22  1  0  0  0  0
 21 19  1  0  0  0  0
 23 26  1  0  0  0  0
 24 23  1  0  0  0  0
 25 23  1  0  0  0  0
 27 17  1  0  0  0  0
 27 43  1  0  0  0  0
 28 43  1  0  0  0  0
 28 31  1  0  0  0  0
 29 28  1  0  0  0  0
 30 28  1  0  0  0  0
 31 32  1  0  0  0  0
 31 45  1  0  0  0  0
 33 31  1  0  0  0  0
 34 35  1  0  0  0  0
 34 36  1  0  0  0  0
 37 39  1  0  0  0  0
 37 38  1  0  0  0  0
 40 11  1  0  0  0  0
 41 42  1  0  0  0  0
 43 44  1  0  0  0  0
 45 37  1  0  0  0  0
 45 34  1  0  0  0  0
 46 45  1  0  0  0  0
 48 27  2  0  0  0  0
 49 50  1  0  0  0  0
 49 37  1  0  0  0  0
 51 49  1  0  0  0  0
 52 49  1  0  0  0  0
 53 34  1  0  0  0  0
 53 54  1  0  0  0  0
 55 53  1  0  0  0  0
 56 53  1  0  0  0  0
M  END
>  <Pose>
1

>  <Score>
-7.52

$$$$

 OpenBabel03112215073D

 57 59  0  0  1  0  0  0  0  0999 V2000
   11.3960   -0.2340    8.7570 C   0  0  0  0  0  0  0  0  0  0  0  0
   12.0550   -0.8100    7.6560 C   0  0  0  0  0  0  0  0  0  0  0  0
   11.5300   -1.4860    6.9970 H   0  0  0  0  0  0  0  0  0  0  0  0
   13.3950   -0.4980    7.4230 C   0  0  0  0  0  0  0  0  0  0  0  0
   13.9190   -0.9400    6.5880 H   0  0  0  0  0  0  0  0  0  0  0  0
   12.0580    0.6460    9.6140 C   0  0  0  0  0  0  0  0  0  0  0  0
   11.5390    1.0790   10.4560 H   0  0  0  0  0  0  0  0  0  0  0  0
   13.3880    0.9600    9.3780 C   0  0  0  0  0  0  0  0  0  0  0  0
   14.0580    0.3910    8.2790 C   0  0  0  0  0  0  0  0  0  0  0  0
   14.3060    1.7890   10.0480 C   0  0  1  0  0  0  0  0  0  0  0  0
   15.4940    1.6840    9.3050 C   0  0  0  0  0  0  0  0  0  0  0  0
   13.9720    2.5540   11.1990 C   0  0  0  0  0  0  0  0  0  0  0  0
   14.9280    2.8810   11.6080 H   0  0  0  0  0  0  0  0  0  0  0  0
   13.5060    1.8450   11.8830 H   0  0  0  0  0  0  0  0  0  0  0  0
   13.1520    3.6900   11.2410 C   0  0  0  0  0  0  0  0  0  0  0  0
   13.6390    4.9790   11.5290 C   0  0  0  0  0  0  0  0  0  0  0  0
   12.5640    5.8550   11.4850 C   0  0  0  0  0  0  0  0  0  0  0  0
   11.4600    5.0730   11.1620 C   0  0  0  0  0  0  0  0  0  0  0  0
   15.0960    5.3470   11.8420 C   0  0  0  0  0  0  0  0  0  0  0  0
   15.7140    4.4490   11.8030 H   0  0  0  0  0  0  0  0  0  0  0  0
   15.1540    5.7850   12.8380 H   0  0  0  0  0  0  0  0  0  0  0  0
   15.4550    6.0670   11.1060 H   0  0  0  0  0  0  0  0  0  0  0  0
   10.0130    5.5220   10.9570 C   0  0  0  0  0  0  0  0  0  0  0  0
    9.9420    6.5980   11.1140 H   0  0  0  0  0  0  0  0  0  0  0  0
    9.3680    5.0080   11.6700 H   0  0  0  0  0  0  0  0  0  0  0  0
    9.6980    5.2810    9.9420 H   0  0  0  0  0  0  0  0  0  0  0  0
   12.5510    7.4160   11.6810 C   0  0  0  0  0  0  0  0  0  0  0  0
   11.9770    9.3530   13.1330 C   0  0  0  0  0  0  0  0  0  0  0  0
   12.3360    9.9400   12.2870 H   0  0  0  0  0  0  0  0  0  0  0  0
   10.9580    9.6530   13.3760 H   0  0  0  0  0  0  0  0  0  0  0  0
   12.9030    9.5630   14.3590 C   0  0  0  0  0  0  0  0  0  0  0  0
   12.9520    8.6210   14.9060 H   0  0  0  0  0  0  0  0  0  0  0  0
   12.4520   10.3280   14.9910 H   0  0  0  0  0  0  0  0  0  0  0  0
   15.2150    8.8290   13.9050 C   0  0  0  0  0  0  0  0  0  0  0  0
   14.7010    8.0430   13.3520 H   0  0  0  0  0  0  0  0  0  0  0  0
   15.4760    8.4620   14.8980 H   0  0  0  0  0  0  0  0  0  0  0  0
   14.8450   10.9990   14.9900 C   0  0  0  0  0  0  0  0  0  0  0  0
   15.9060   11.1470   14.7880 H   0  0  0  0  0  0  0  0  0  0  0  0
   14.7170   10.6500   16.0150 H   0  0  0  0  0  0  0  0  0  0  0  0
   15.3180    0.8590    8.2820 N   0  0  0  0  0  0  0  0  0  0  0  0
   11.8300    3.8020   11.0320 N   0  0  0  0  0  0  0  0  0  0  0  0
   11.2110    3.0360   10.8090 H   0  0  0  0  0  0  0  0  0  0  0  0
   12.0200    7.9040   12.8050 N   0  0  0  0  0  0  0  0  0  0  0  0
   11.6270    7.2520   13.4690 H   0  0  0  0  0  0  0  0  0  0  0  0
   14.2990    9.9870   14.0510 N   0  0  0  0  0  4  0  0  0  0  0  0
   14.2400   10.4500   13.1550 H   0  0  0  0  0  0  0  0  0  0  0  0
   16.5830    2.2320    9.5180 O   0  0  0  0  0  0  0  0  0  0  0  0
   13.0740    8.1350   10.8370 O   0  0  0  0  0  0  0  0  0  0  0  0
   14.0980   12.3310   14.8060 C   0  0  0  0  0  0  0  0  0  0  0  0
   14.5000   13.0720   15.4960 H   0  0  0  0  0  0  0  0  0  0  0  0
   13.0370   12.1830   15.0090 H   0  0  0  0  0  0  0  0  0  0  0  0
   14.2260   12.6800   13.7810 H   0  0  0  0  0  0  0  0  0  0  0  0
   16.5100    9.1930   13.1570 C   0  0  0  0  0  0  0  0  0  0  0  0
   17.1440    8.3100   13.0780 H   0  0  0  0  0  0  0  0  0  0  0  0
   17.0390    9.9730   13.7050 H   0  0  0  0  0  0  0  0  0  0  0  0
   16.2640    9.5530   12.1590 H   0  0  0  0  0  0  0  0  0  0  0  0
    9.7490   -0.6260    9.0900 C   0  0  0  0  0  0  0  0  0  0  0  0
  1 57  1  0  0  0  0
  1  6  1  0  0  0  0
  2  1  2  0  0  0  0
  3  2  1  0  0  0  0
  4  2  1  0  0  0  0
  4  9  2  0  0  0  0
  5  4  1  0  0  0  0
  6  7  1  0  0  0  0
  8  6  2  0  0  0  0
  8 10  1  0  0  0  0
  9 40  1  0  0  0  0
  9  8  1  0  0  0  0
 10 12  1  6  0  0  0
 11 47  2  0  0  0  0
 11 10  1  0  0  0  0
 12 15  1  0  0  0  0
 12 13  1  0  0  0  0
 12 14  1  0  0  0  0
 15 16  2  0  0  0  0
 16 19  1  0  0  0  0
 17 16  1  0  0  0  0
 17 27  1  0  0  0  0
 18 17  2  0  0  0  0
 19 21  1  0  0  0  0
 20 19  1  0  0  0  0
 22 19  1  0  0  0  0
 23 24  1  0  0  0  0
 23 18  1  0  0  0  0
 23 25  1  0  0  0  0
 26 23  1  0  0  0  0
 27 43  1  0  0  0  0
 28 30  1  0  0  0  0
 28 31  1  0  0  0  0
 29 28  1  0  0  0  0
 31 32  1  0  0  0  0
 31 33  1  0  0  0  0
 34 45  1  0  0  0  0
 34 36  1  0  0  0  0
 35 34  1  0  0  0  0
 37 39  1  0  0  0  0
 38 37  1  0  0  0  0
 40 11  1  0  0  0  0
 41 18  1  0  0  0  0
 41 15  1  0  0  0  0
 42 41  1  0  0  0  0
 43 28  1  0  0  0  0
 43 44  1  0  0  0  0
 45 31  1  0  0  0  0
 45 37  1  0  0  0  0
 46 45  1  0  0  0  0
 48 27  2  0  0  0  0
 49 37  1  0  0  0  0
 49 51  1  0  0  0  0
 49 50  1  0  0  0  0
 52 49  1  0  0  0  0
 53 55  1  0  0  0  0
 53 34  1  0  0  0  0
 54 53  1  0  0  0  0
 56 53  1  0  0  0  0
M  END
>  <Pose>
1

>  <Score>
-7.40

$$$$

 OpenBabel03112215073D

 57 59  0  0  1  0  0  0  0  0999 V2000
   11.1740   -0.4470    8.6080 C   0  0  0  0  0  0  0  0  0  0  0  0
   11.8720   -1.1970    7.6440 C   0  0  0  0  0  0  0  0  0  0  0  0
   11.3650   -1.9650    7.0780 H   0  0  0  0  0  0  0  0  0  0  0  0
   13.2260   -0.9390    7.4270 C   0  0  0  0  0  0  0  0  0  0  0  0
   13.7790   -1.5130    6.6980 H   0  0  0  0  0  0  0  0  0  0  0  0
   11.8120    0.5530    9.3430 C   0  0  0  0  0  0  0  0  0  0  0  0
   11.2620    1.1200   10.0800 H   0  0  0  0  0  0  0  0  0  0  0  0
   13.1560    0.8140    9.1220 C   0  0  0  0  0  0  0  0  0  0  0  0
   13.8640    0.0700    8.1600 C   0  0  0  0  0  0  0  0  0  0  0  0
   14.0560    1.7310    9.6930 C   0  0  1  0  0  0  0  0  0  0  0  0
   15.2740    1.4980    9.0320 C   0  0  0  0  0  0  0  0  0  0  0  0
   13.6840    2.6730   10.6900 C   0  0  0  0  0  0  0  0  0  0  0  0
   13.5000    2.0790   11.5850 H   0  0  0  0  0  0  0  0  0  0  0  0
   12.7440    3.1000   10.3380 H   0  0  0  0  0  0  0  0  0  0  0  0
   14.4360    3.7700   11.1310 C   0  0  0  0  0  0  0  0  0  0  0  0
   13.8790    4.8500   11.8400 C   0  0  0  0  0  0  0  0  0  0  0  0
   14.9020    5.7460   12.1170 C   0  0  0  0  0  0  0  0  0  0  0  0
   16.0510    5.1770   11.5760 C   0  0  0  0  0  0  0  0  0  0  0  0
   12.4030    5.0100   12.2310 C   0  0  0  0  0  0  0  0  0  0  0  0
   11.8380    4.1480   11.8790 H   0  0  0  0  0  0  0  0  0  0  0  0
   12.0040    5.9170   11.7770 H   0  0  0  0  0  0  0  0  0  0  0  0
   12.3200    5.0800   13.3160 H   0  0  0  0  0  0  0  0  0  0  0  0
   17.4780    5.7210   11.6090 C   0  0  0  0  0  0  0  0  0  0  0  0
   17.4900    6.6770   12.1330 H   0  0  0  0  0  0  0  0  0  0  0  0
   17.8370    5.8610   10.5890 H   0  0  0  0  0  0  0  0  0  0  0  0
   18.1250    5.0140   12.1280 H   0  0  0  0  0  0  0  0  0  0  0  0
   14.8450    7.0940   12.9240 C   0  0  0  0  0  0  0  0  0  0  0  0
   14.1700    8.2790   15.0060 C   0  0  0  0  0  0  0  0  0  0  0  0
   13.8950    7.9790   16.0170 H   0  0  0  0  0  0  0  0  0  0  0  0
   15.1270    8.8000   15.0290 H   0  0  0  0  0  0  0  0  0  0  0  0
   13.0760    9.1980   14.4040 C   0  0  0  0  0  0  0  0  0  0  0  0
   12.2200    9.1860   15.0790 H   0  0  0  0  0  0  0  0  0  0  0  0
   12.7850    8.7840   13.4390 H   0  0  0  0  0  0  0  0  0  0  0  0
   14.6590   10.9970   14.9990 C   0  0  0  0  0  0  0  0  0  0  0  0
   15.3960   10.1970   14.9300 H   0  0  0  0  0  0  0  0  0  0  0  0
   14.3520   11.1190   16.0370 H   0  0  0  0  0  0  0  0  0  0  0  0
   12.3610   11.5900   14.3720 C   0  0  0  0  0  0  0  0  0  0  0  0
   12.2570   12.1940   13.4710 H   0  0  0  0  0  0  0  0  0  0  0  0
   12.5800   12.2390   15.2210 H   0  0  0  0  0  0  0  0  0  0  0  0
   15.1300    0.5210    8.1460 N   0  0  0  0  0  0  0  0  0  0  0  0
   15.7490    4.0190   10.9940 N   0  0  0  0  0  0  0  0  0  0  0  0
   16.4080    3.4170   10.5210 H   0  0  0  0  0  0  0  0  0  0  0  0
   14.2590    7.0850   14.1240 N   0  0  0  0  0  0  0  0  0  0  0  0
   13.8540    6.2190   14.4510 H   0  0  0  0  0  0  0  0  0  0  0  0
   13.4710   10.6210   14.1920 N   0  0  0  0  0  4  0  0  0  0  0  0
   13.7280   10.6780   13.2170 H   0  0  0  0  0  0  0  0  0  0  0  0
   16.3610    2.0640    9.2050 O   0  0  0  0  0  0  0  0  0  0  0  0
   15.3860    8.0950   12.4670 O   0  0  0  0  0  0  0  0  0  0  0  0
   11.0500   10.8300   14.6330 C   0  0  0  0  0  0  0  0  0  0  0  0
   10.2360   11.5440   14.7650 H   0  0  0  0  0  0  0  0  0  0  0  0
   11.1530   10.2260   15.5340 H   0  0  0  0  0  0  0  0  0  0  0  0
   10.8310   10.1820   13.7850 H   0  0  0  0  0  0  0  0  0  0  0  0
   15.3060   12.3070   14.5180 C   0  0  0  0  0  0  0  0  0  0  0  0
   16.1700   12.5360   15.1420 H   0  0  0  0  0  0  0  0  0  0  0  0
   14.5810   13.1180   14.5900 H   0  0  0  0  0  0  0  0  0  0  0  0
   15.6260   12.1960   13.4820 H   0  0  0  0  0  0  0  0  0  0  0  0
    9.5080   -0.7660    8.9230 C   0  0  0  0  0  0  0  0  0  0  0  0
  1 57  1  0  0  0  0
  1  6  1  0  0  0  0
  2  1  2  0  0  0  0
  3  2  1  0  0  0  0
  4  2  1  0  0  0  0
  4  9  2  0  0  0  0
  5  4  1  0  0  0  0
  6  7  1  0  0  0  0
  8  6  2  0  0  0  0
  8 10  1  0  0  0  0
  9  8  1  0  0  0  0
 10 12  1  6  0  0  0
 11 47  2  0  0  0  0
 11 10  1  0  0  0  0
 12 15  1  0  0  0  0
 12 13  1  0  0  0  0
 14 12  1  0  0  0  0
 15 16  2  0  0  0  0
 16 17  1  0  0  0  0
 16 19  1  0  0  0  0
 17 27  1  0  0  0  0
 18 23  1  0  0  0  0
 18 17  2  0  0  0  0
 19 22  1  0  0  0  0
 20 19  1  0  0  0  0
 21 19  1  0  0  0  0
 23 26  1  0  0  0  0
 23 24  1  0  0  0  0
 25 23  1  0  0  0  0
 27 43  1  0  0  0  0
 28 30  1  0  0  0  0
 28 29  1  0  0  0  0
 31 28  1  0  0  0  0
 31 32  1  0  0  0  0
 33 31  1  0  0  0  0
 34 36  1  0  0  0  0
 35 34  1  0  0  0  0
 37 49  1  0  0  0  0
 37 39  1  0  0  0  0
 38 37  1  0  0  0  0
 40  9  1  0  0  0  0
 40 11  1  0  0  0  0
 41 15  1  0  0  0  0
 41 18  1  0  0  0  0
 42 41  1  0  0  0  0
 43 44  1  0  0  0  0
 43 28  1  0  0  0  0
 45 37  1  0  0  0  0
 45 31  1  0  0  0  0
 45 34  1  0  0  0  0
 46 45  1  0  0  0  0
 48 27  2  0  0  0  0
 49 50  1  0  0  0  0
 49 51  1  0  0  0  0
 52 49  1  0  0  0  0
 53 55  1  0  0  0  0
 53 34  1  0  0  0  0
 53 54  1  0  0  0  0
 56 53  1  0  0  0  0
M  END
>  <Pose>
1

>  <Score>
-7.25

$$$$

 OpenBabel03112215073D

 57 59  0  0  1  0  0  0  0  0999 V2000
   11.2130   -0.3630    8.6070 C   0  0  0  0  0  0  0  0  0  0  0  0
   11.9330   -1.1620    7.7020 C   0  0  0  0  0  0  0  0  0  0  0  0
   11.4510   -1.9850    7.1960 H   0  0  0  0  0  0  0  0  0  0  0  0
   13.2790   -0.8790    7.4630 C   0  0  0  0  0  0  0  0  0  0  0  0
   13.8490   -1.4900    6.7790 H   0  0  0  0  0  0  0  0  0  0  0  0
   11.8190    0.7090    9.2640 C   0  0  0  0  0  0  0  0  0  0  0  0
   11.2530    1.3130    9.9570 H   0  0  0  0  0  0  0  0  0  0  0  0
   13.1550    0.9930    9.0200 C   0  0  0  0  0  0  0  0  0  0  0  0
   13.8860    0.2010    8.1160 C   0  0  0  0  0  0  0  0  0  0  0  0
   14.0270    1.9780    9.5190 C   0  0  1  0  0  0  0  0  0  0  0  0
   15.2510    1.7330    8.8750 C   0  0  0  0  0  0  0  0  0  0  0  0
   13.6250    2.9810   10.4430 C   0  0  0  0  0  0  0  0  0  0  0  0
   13.1200    2.4410   11.2440 H   0  0  0  0  0  0  0  0  0  0  0  0
   12.9000    3.5890    9.9010 H   0  0  0  0  0  0  0  0  0  0  0  0
   14.4560    3.9020   11.0940 C   0  0  0  0  0  0  0  0  0  0  0  0
   14.1610    4.4430   12.3600 C   0  0  0  0  0  0  0  0  0  0  0  0
   15.1900    5.3100   12.6990 C   0  0  0  0  0  0  0  0  0  0  0  0
   16.0830    5.2610   11.6320 C   0  0  0  0  0  0  0  0  0  0  0  0
   12.9200    4.1330   13.2090 C   0  0  0  0  0  0  0  0  0  0  0  0
   12.2900    3.4160   12.6830 H   0  0  0  0  0  0  0  0  0  0  0  0
   12.3600    5.0520   13.3810 H   0  0  0  0  0  0  0  0  0  0  0  0
   13.2310    3.7120   14.1650 H   0  0  0  0  0  0  0  0  0  0  0  0
   17.4120    6.0010   11.4810 C   0  0  0  0  0  0  0  0  0  0  0  0
   17.5850    6.6210   12.3610 H   0  0  0  0  0  0  0  0  0  0  0  0
   17.3770    6.6320   10.5930 H   0  0  0  0  0  0  0  0  0  0  0  0
   18.2210    5.2780   11.3810 H   0  0  0  0  0  0  0  0  0  0  0  0
   15.3900    6.1410   14.0190 C   0  0  0  0  0  0  0  0  0  0  0  0
   16.1310    6.1790   16.3940 C   0  0  0  0  0  0  0  0  0  0  0  0
   16.5890    7.1530   16.2230 H   0  0  0  0  0  0  0  0  0  0  0  0
   15.2030    6.3060   16.9510 H   0  0  0  0  0  0  0  0  0  0  0  0
   17.1040    5.2620   17.1790 C   0  0  0  0  0  0  0  0  0  0  0  0
   16.8410    4.2270   16.9580 H   0  0  0  0  0  0  0  0  0  0  0  0
   16.9620    5.4550   18.2420 H   0  0  0  0  0  0  0  0  0  0  0  0
   19.0540    6.7700   17.3000 C   0  0  0  0  0  0  0  0  0  0  0  0
   18.2610    7.2850   17.8430 H   0  0  0  0  0  0  0  0  0  0  0  0
   19.3200    7.3460   16.4130 H   0  0  0  0  0  0  0  0  0  0  0  0
   18.9120    5.1530   15.4590 C   0  0  0  0  0  0  0  0  0  0  0  0
   19.0010    6.0900   14.9090 H   0  0  0  0  0  0  0  0  0  0  0  0
   18.1340    4.5380   15.0060 H   0  0  0  0  0  0  0  0  0  0  0  0
   15.1380    0.6880    8.0660 N   0  0  0  0  0  0  0  0  0  0  0  0
   15.6250    4.4330   10.6980 N   0  0  0  0  0  0  0  0  0  0  0  0
   16.0860    4.2320    9.8220 H   0  0  0  0  0  0  0  0  0  0  0  0
   15.8610    5.5060   15.0960 N   0  0  0  0  0  0  0  0  0  0  0  0
   16.0430    4.5150   15.0240 H   0  0  0  0  0  0  0  0  0  0  0  0
   18.5530    5.4410   16.8710 N   0  0  0  0  0  4  0  0  0  0  0  0
   19.0260    4.7390   17.4210 H   0  0  0  0  0  0  0  0  0  0  0  0
   16.3210    2.3430    9.0030 O   0  0  0  0  0  0  0  0  0  0  0  0
   15.1710    7.3470   14.0120 O   0  0  0  0  0  0  0  0  0  0  0  0
   20.2530    4.4010   15.4110 C   0  0  0  0  0  0  0  0  0  0  0  0
   20.5140    4.1910   14.3740 H   0  0  0  0  0  0  0  0  0  0  0  0
   20.1640    3.4640   15.9610 H   0  0  0  0  0  0  0  0  0  0  0  0
   21.0300    5.0160   15.8640 H   0  0  0  0  0  0  0  0  0  0  0  0
   20.2900    6.6670   18.2110 C   0  0  0  0  0  0  0  0  0  0  0  0
   20.6160    7.6680   18.4950 H   0  0  0  0  0  0  0  0  0  0  0  0
   21.0940    6.1610   17.6770 H   0  0  0  0  0  0  0  0  0  0  0  0
   20.0350    6.1000   19.1060 H   0  0  0  0  0  0  0  0  0  0  0  0
    9.5570   -0.7080    8.9480 C   0  0  0  0  0  0  0  0  0  0  0  0
  1 57  1  0  0  0  0
  1  6  1  0  0  0  0
  2  1  2  0  0  0  0
  3  2  1  0  0  0  0
  4  2  1  0  0  0  0
  4  9  2  0  0  0  0
  5  4  1  0  0  0  0
  6  7  1  0  0  0  0
  8  6  2  0  0  0  0
  8 10  1  0  0  0  0
  9  8  1  0  0  0  0
 10 12  1  6  0  0  0
 11 47  2  0  0  0  0
 11 10  1  0  0  0  0
 12 15  1  0  0  0  0
 12 13  1  0  0  0  0
 14 12  1  0  0  0  0
 15 16  2  0  0  0  0
 16 17  1  0  0  0  0
 16 19  1  0  0  0  0
 17 27  1  0  0  0  0
 18 17  2  0  0  0  0
 19 21  1  0  0  0  0
 19 22  1  0  0  0  0
 20 19  1  0  0  0  0
 23 18  1  0  0  0  0
 23 24  1  0  0  0  0
 25 23  1  0  0  0  0
 26 23  1  0  0  0  0
 27 43  1  0  0  0  0
 28 30  1  0  0  0  0
 28 31  1  0  0  0  0
 29 28  1  0  0  0  0
 31 33  1  0  0  0  0
 32 31  1  0  0  0  0
 34 35  1  0  0  0  0
 34 53  1  0  0  0  0
 36 34  1  0  0  0  0
 37 45  1  0  0  0  0
 38 37  1  0  0  0  0
 39 37  1  0  0  0  0
 40  9  1  0  0  0  0
 40 11  1  0  0  0  0
 41 15  1  0  0  0  0
 41 18  1  0  0  0  0
 42 41  1  0  0  0  0
 43 28  1  0  0  0  0
 44 43  1  0  0  0  0
 45 31  1  0  0  0  0
 45 34  1  0  0  0  0
 45 46  1  0  0  0  0
 48 27  2  0  0  0  0
 49 37  1  0  0  0  0
 49 52  1  0  0  0  0
 49 51  1  0  0  0  0
 50 49  1  0  0  0  0
 53 54  1  0  0  0  0
 53 56  1  0  0  0  0
 55 53  1  0  0  0  0
M  END
>  <Pose>
1

>  <Score>
-7.10

$$$$

 OpenBabel03112215073D

 57 59  0  0  1  0  0  0  0  0999 V2000
    5.7870    7.1280   14.0860 C   0  0  0  0  0  0  0  0  0  0  0  0
    5.3740    8.2660   13.3710 C   0  0  0  0  0  0  0  0  0  0  0  0
    4.4430    8.7560   13.6160 H   0  0  0  0  0  0  0  0  0  0  0  0
    6.1780    8.7560   12.3410 C   0  0  0  0  0  0  0  0  0  0  0  0
    5.8700    9.6230   11.7760 H   0  0  0  0  0  0  0  0  0  0  0  0
    6.9900    6.4860   13.7850 C   0  0  0  0  0  0  0  0  0  0  0  0
    7.2940    5.6120   14.3430 H   0  0  0  0  0  0  0  0  0  0  0  0
    7.7920    6.9780   12.7670 C   0  0  0  0  0  0  0  0  0  0  0  0
    7.3890    8.1160   12.0450 C   0  0  0  0  0  0  0  0  0  0  0  0
    9.0260    6.5590   12.2380 C   0  0  1  0  0  0  0  0  0  0  0  0
    9.3130    7.4830   11.2190 C   0  0  0  0  0  0  0  0  0  0  0  0
    9.7540    5.4460   12.7410 C   0  0  0  0  0  0  0  0  0  0  0  0
    9.2510    4.5710   12.3310 H   0  0  0  0  0  0  0  0  0  0  0  0
    9.6060    5.4770   13.8210 H   0  0  0  0  0  0  0  0  0  0  0  0
   11.1210    5.1910   12.5700 C   0  0  0  0  0  0  0  0  0  0  0  0
   11.6130    4.0910   11.8440 C   0  0  0  0  0  0  0  0  0  0  0  0
   13.0000    4.1490   11.8770 C   0  0  0  0  0  0  0  0  0  0  0  0
   13.3060    5.2890   12.6150 C   0  0  0  0  0  0  0  0  0  0  0  0
   10.7680    3.0160   11.1460 C   0  0  0  0  0  0  0  0  0  0  0  0
    9.7100    3.2340   11.2920 H   0  0  0  0  0  0  0  0  0  0  0  0
   11.0000    2.0390   11.5710 H   0  0  0  0  0  0  0  0  0  0  0  0
   10.9940    3.0110   10.0800 H   0  0  0  0  0  0  0  0  0  0  0  0
   14.6860    5.8540   12.9470 C   0  0  0  0  0  0  0  0  0  0  0  0
   15.4550    5.2110   12.5180 H   0  0  0  0  0  0  0  0  0  0  0  0
   14.8110    5.8970   14.0290 H   0  0  0  0  0  0  0  0  0  0  0  0
   14.7780    6.8570   12.5300 H   0  0  0  0  0  0  0  0  0  0  0  0
   14.0470    3.1990   11.1900 C   0  0  0  0  0  0  0  0  0  0  0  0
   16.3140    2.9230   10.2020 C   0  0  0  0  0  0  0  0  0  0  0  0
   16.0370    1.8690   10.1650 H   0  0  0  0  0  0  0  0  0  0  0  0
   16.5100    3.2830    9.1920 H   0  0  0  0  0  0  0  0  0  0  0  0
   17.5710    3.1140   11.0890 C   0  0  0  0  0  0  0  0  0  0  0  0
   18.0980    2.1610   11.1330 H   0  0  0  0  0  0  0  0  0  0  0  0
   17.2350    3.3910   12.0890 H   0  0  0  0  0  0  0  0  0  0  0  0
   19.6400    4.3600   11.5990 C   0  0  0  0  0  0  0  0  0  0  0  0
   19.2080    4.5560   12.5810 H   0  0  0  0  0  0  0  0  0  0  0  0
   20.2270    5.2210   11.2820 H   0  0  0  0  0  0  0  0  0  0  0  0
   17.9060    5.4370   10.2360 C   0  0  0  0  0  0  0  0  0  0  0  0
   17.7720    6.0590   11.1210 H   0  0  0  0  0  0  0  0  0  0  0  0
   16.9350    5.2400    9.7810 H   0  0  0  0  0  0  0  0  0  0  0  0
    8.3370    8.3760   11.1290 N   0  0  0  0  0  0  0  0  0  0  0  0
   12.1840    5.8800   13.0180 N   0  0  0  0  0  0  0  0  0  0  0  0
   12.1380    6.7200   13.5770 H   0  0  0  0  0  0  0  0  0  0  0  0
   15.2230    3.7170   10.8260 N   0  0  0  0  0  0  0  0  0  0  0  0
   15.3790    4.7020   10.9840 H   0  0  0  0  0  0  0  0  0  0  0  0
   18.5380    4.1510   10.6270 N   0  0  0  0  0  4  0  0  0  0  0  0
   18.9380    3.7760    9.7800 H   0  0  0  0  0  0  0  0  0  0  0  0
   10.2950    7.5140   10.4670 O   0  0  0  0  0  0  0  0  0  0  0  0
   13.7870    2.0070   11.0600 O   0  0  0  0  0  0  0  0  0  0  0  0
   18.8070    6.1690    9.2270 C   0  0  0  0  0  0  0  0  0  0  0  0
   18.3410    7.1120    8.9420 H   0  0  0  0  0  0  0  0  0  0  0  0
   18.9400    5.5470    8.3420 H   0  0  0  0  0  0  0  0  0  0  0  0
   19.7770    6.3660    9.6830 H   0  0  0  0  0  0  0  0  0  0  0  0
   20.5710    3.1390   11.7040 C   0  0  0  0  0  0  0  0  0  0  0  0
   21.3590    3.3450   12.4290 H   0  0  0  0  0  0  0  0  0  0  0  0
   21.0160    2.9370   10.7300 H   0  0  0  0  0  0  0  0  0  0  0  0
   19.9960    2.2710   12.0290 H   0  0  0  0  0  0  0  0  0  0  0  0
    4.7980    6.4790   15.3410 C   0  0  0  0  0  0  0  0  0  0  0  0
  1 57  1  0  0  0  0
  2  3  1  0  0  0  0
  2  1  2  0  0  0  0
  4  2  1  0  0  0  0
  5  4  1  0  0  0  0
  6  1  1  0  0  0  0
  6  7  1  0  0  0  0
  8  6  2  0  0  0  0
  9  4  2  0  0  0  0
  9  8  1  0  0  0  0
 10 12  1  1  0  0  0
 10  8  1  0  0  0  0
 11 10  1  0  0  0  0
 12 14  1  0  0  0  0
 13 12  1  0  0  0  0
 15 12  1  0  0  0  0
 15 41  1  0  0  0  0
 16 17  1  0  0  0  0
 16 15  2  0  0  0  0
 17 18  2  0  0  0  0
 18 23  1  0  0  0  0
 18 41  1  0  0  0  0
 19 20  1  0  0  0  0
 19 21  1  0  0  0  0
 19 16  1  0  0  0  0
 22 19  1  0  0  0  0
 23 25  1  0  0  0  0
 24 23  1  0  0  0  0
 26 23  1  0  0  0  0
 27 17  1  0  0  0  0
 28 43  1  0  0  0  0
 28 31  1  0  0  0  0
 29 28  1  0  0  0  0
 30 28  1  0  0  0  0
 31 32  1  0  0  0  0
 31 33  1  0  0  0  0
 34 53  1  0  0  0  0
 34 35  1  0  0  0  0
 36 34  1  0  0  0  0
 37 45  1  0  0  0  0
 37 38  1  0  0  0  0
 39 37  1  0  0  0  0
 40 11  1  0  0  0  0
 40  9  1  0  0  0  0
 41 42  1  0  0  0  0
 43 44  1  0  0  0  0
 43 27  1  0  0  0  0
 45 31  1  0  0  0  0
 45 34  1  0  0  0  0
 46 45  1  0  0  0  0
 47 11  2  0  0  0  0
 48 27  2  0  0  0  0
 49 52  1  0  0  0  0
 49 37  1  0  0  0  0
 50 49  1  0  0  0  0
 51 49  1  0  0  0  0
 53 56  1  0  0  0  0
 53 54  1  0  0  0  0
 55 53  1  0  0  0  0
M  END
>  <Pose>
1

>  <Score>
-6.77

$$$$

 OpenBabel03112215073D

 57 59  0  0  1  0  0  0  0  0999 V2000
   10.8410   -0.1820    8.7200 C   0  0  0  0  0  0  0  0  0  0  0  0
   11.4810   -1.1020    7.8690 C   0  0  0  0  0  0  0  0  0  0  0  0
   10.9200   -1.9010    7.4080 H   0  0  0  0  0  0  0  0  0  0  0  0
   12.8490   -0.9690    7.6260 C   0  0  0  0  0  0  0  0  0  0  0  0
   13.3570   -1.6730    6.9830 H   0  0  0  0  0  0  0  0  0  0  0  0
   11.5510    0.8600    9.3180 C   0  0  0  0  0  0  0  0  0  0  0  0
   11.0450    1.5580    9.9690 H   0  0  0  0  0  0  0  0  0  0  0  0
   12.9080    0.9950    9.0700 C   0  0  0  0  0  0  0  0  0  0  0  0
   13.5590    0.0820    8.2200 C   0  0  0  0  0  0  0  0  0  0  0  0
   13.8730    1.9150    9.5180 C   0  0  1  0  0  0  0  0  0  0  0  0
   15.0690    1.5120    8.9000 C   0  0  0  0  0  0  0  0  0  0  0  0
   13.5710    3.0070   10.3780 C   0  0  0  0  0  0  0  0  0  0  0  0
   14.4460    3.6550   10.3280 H   0  0  0  0  0  0  0  0  0  0  0  0
   13.4990    2.5690   11.3730 H   0  0  0  0  0  0  0  0  0  0  0  0
   12.4730    3.8720   10.2810 C   0  0  0  0  0  0  0  0  0  0  0  0
   12.1900    4.8630   11.2380 C   0  0  0  0  0  0  0  0  0  0  0  0
   11.0420    5.5290   10.8290 C   0  0  0  0  0  0  0  0  0  0  0  0
   10.6710    4.9270    9.6310 C   0  0  0  0  0  0  0  0  0  0  0  0
   13.0000    5.1520   12.5100 C   0  0  0  0  0  0  0  0  0  0  0  0
   13.8470    4.4690   12.5640 H   0  0  0  0  0  0  0  0  0  0  0  0
   12.3640    5.0130   13.3850 H   0  0  0  0  0  0  0  0  0  0  0  0
   13.3620    6.1790   12.4840 H   0  0  0  0  0  0  0  0  0  0  0  0
    9.4910    5.2780    8.7250 C   0  0  0  0  0  0  0  0  0  0  0  0
    8.9310    6.1040    9.1630 H   0  0  0  0  0  0  0  0  0  0  0  0
    8.8400    4.4100    8.6250 H   0  0  0  0  0  0  0  0  0  0  0  0
    9.8620    5.5700    7.7430 H   0  0  0  0  0  0  0  0  0  0  0  0
   10.3150    6.7510   11.4990 C   0  0  0  0  0  0  0  0  0  0  0  0
    8.5100    7.5630   13.0080 C   0  0  0  0  0  0  0  0  0  0  0  0
    8.3020    8.3980   12.3390 H   0  0  0  0  0  0  0  0  0  0  0  0
    7.5720    7.1610   13.3900 H   0  0  0  0  0  0  0  0  0  0  0  0
    9.4090    8.0300   14.1810 C   0  0  0  0  0  0  0  0  0  0  0  0
    9.9500    8.9180   13.8550 H   0  0  0  0  0  0  0  0  0  0  0  0
   10.1180    7.2310   14.3980 H   0  0  0  0  0  0  0  0  0  0  0  0
    9.6360    8.7400   16.5340 C   0  0  0  0  0  0  0  0  0  0  0  0
    9.6890    7.9180   17.2480 H   0  0  0  0  0  0  0  0  0  0  0  0
    9.2570    9.6310   17.0340 H   0  0  0  0  0  0  0  0  0  0  0  0
    7.7320    7.3290   15.8940 C   0  0  0  0  0  0  0  0  0  0  0  0
    8.2770    6.4460   16.2270 H   0  0  0  0  0  0  0  0  0  0  0  0
    7.0780    7.0610   15.0640 H   0  0  0  0  0  0  0  0  0  0  0  0
   14.8530    0.4380    8.1520 N   0  0  0  0  0  0  0  0  0  0  0  0
   11.5240    3.9500    9.3340 N   0  0  0  0  0  0  0  0  0  0  0  0
   11.4670    3.3560    8.5190 H   0  0  0  0  0  0  0  0  0  0  0  0
    9.2640    6.5040   12.2850 N   0  0  0  0  0  0  0  0  0  0  0  0
    8.9640    5.5460   12.3940 H   0  0  0  0  0  0  0  0  0  0  0  0
    8.6970    8.3660   15.4480 N   0  0  0  0  0  4  0  0  0  0  0  0
    8.1400    9.1790   15.2260 H   0  0  0  0  0  0  0  0  0  0  0  0
   16.1930    2.0190    9.0010 O   0  0  0  0  0  0  0  0  0  0  0  0
   10.7600    7.8830   11.3360 O   0  0  0  0  0  0  0  0  0  0  0  0
    6.8870    7.8770   17.0560 C   0  0  0  0  0  0  0  0  0  0  0  0
    6.1790    7.1140   17.3820 H   0  0  0  0  0  0  0  0  0  0  0  0
    6.3410    8.7600   16.7240 H   0  0  0  0  0  0  0  0  0  0  0  0
    7.5400    8.1450   17.8860 H   0  0  0  0  0  0  0  0  0  0  0  0
   11.0540    9.0320   16.0120 C   0  0  0  0  0  0  0  0  0  0  0  0
   11.7010    9.3000   16.8480 H   0  0  0  0  0  0  0  0  0  0  0  0
   11.0170    9.8580   15.3020 H   0  0  0  0  0  0  0  0  0  0  0  0
   11.4490    8.1450   15.5170 H   0  0  0  0  0  0  0  0  0  0  0  0
    9.1580   -0.3400    9.0660 C   0  0  0  0  0  0  0  0  0  0  0  0
  1 57  1  0  0  0  0
  1  6  1  0  0  0  0
  2  1  2  0  0  0  0
  3  2  1  0  0  0  0
  4  2  1  0  0  0  0
  4  9  2  0  0  0  0
  5  4  1  0  0  0  0
  6  7  1  0  0  0  0
  8  6  2  0  0  0  0
  8 10  1  0  0  0  0
  9  8  1  0  0  0  0
 10 12  1  6  0  0  0
 11 47  2  0  0  0  0
 11 10  1  0  0  0  0
 12 14  1  0  0  0  0
 13 12  1  0  0  0  0
 15 12  1  0  0  0  0
 15 16  2  0  0  0  0
 16 19  1  0  0  0  0
 17 16  1  0  0  0  0
 17 27  1  0  0  0  0
 18 17  2  0  0  0  0
 19 20  1  0  0  0  0
 19 21  1  0  0  0  0
 22 19  1  0  0  0  0
 23 24  1  0  0  0  0
 23 18  1  0  0  0  0
 25 23  1  0  0  0  0
 26 23  1  0  0  0  0
 27 43  1  0  0  0  0
 28 30  1  0  0  0  0
 28 31  1  0  0  0  0
 29 28  1  0  0  0  0
 31 33  1  0  0  0  0
 31 45  1  0  0  0  0
 32 31  1  0  0  0  0
 34 36  1  0  0  0  0
 34 35  1  0  0  0  0
 37 38  1  0  0  0  0
 37 49  1  0  0  0  0
 39 37  1  0  0  0  0
 40  9  1  0  0  0  0
 40 11  1  0  0  0  0
 41 18  1  0  0  0  0
 41 15  1  0  0  0  0
 42 41  1  0  0  0  0
 43 44  1  0  0  0  0
 43 28  1  0  0  0  0
 45 37  1  0  0  0  0
 45 34  1  0  0  0  0
 46 45  1  0  0  0  0
 48 27  2  0  0  0  0
 49 50  1  0  0  0  0
 49 52  1  0  0  0  0
 51 49  1  0  0  0  0
 53 34  1  0  0  0  0
 53 54  1  0  0  0  0
 55 53  1  0  0  0  0
 56 53  1  0  0  0  0
M  END
>  <Pose>
1

>  <Score>
-6.07

$$$$
