
 OpenBabel03092210493D

 57 59  0  0  1  0  0  0  0  0999 V2000
   11.0780   -0.0870    8.6480 C   0  0  0  0  0  0  0  0  0  0  0  0
   11.7210   -1.0390    7.8370 C   0  0  0  0  0  0  0  0  0  0  0  0
   11.1560   -1.8410    7.3850 H   0  0  0  0  0  0  0  0  0  0  0  0
   13.0960   -0.9360    7.6220 C   0  0  0  0  0  0  0  0  0  0  0  0
   13.6060   -1.6650    7.0100 H   0  0  0  0  0  0  0  0  0  0  0  0
   11.7910    0.9600    9.2350 C   0  0  0  0  0  0  0  0  0  0  0  0
   11.2830    1.6830    9.8560 H   0  0  0  0  0  0  0  0  0  0  0  0
   13.1560    1.0660    9.0140 C   0  0  0  0  0  0  0  0  0  0  0  0
   13.8100    0.1190    8.2040 C   0  0  0  0  0  0  0  0  0  0  0  0
   14.1260    1.9820    9.4600 C   0  0  1  0  0  0  0  0  0  0  0  0
   15.3280    1.5420    8.8800 C   0  0  0  0  0  0  0  0  0  0  0  0
   13.8240    3.1000   10.2830 C   0  0  0  0  0  0  0  0  0  0  0  0
   14.6640    3.7820   10.1520 H   0  0  0  0  0  0  0  0  0  0  0  0
   13.8280    2.7100   11.3010 H   0  0  0  0  0  0  0  0  0  0  0  0
   12.6840    3.9120   10.2110 C   0  0  0  0  0  0  0  0  0  0  0  0
   11.7240    3.9830   11.2380 C   0  0  0  0  0  0  0  0  0  0  0  0
   10.7410    4.8760   10.8350 C   0  0  0  0  0  0  0  0  0  0  0  0
   11.1400    5.3260    9.5800 C   0  0  0  0  0  0  0  0  0  0  0  0
   11.7570    3.2070   12.5620 C   0  0  0  0  0  0  0  0  0  0  0  0
   12.6510    2.5840   12.5960 H   0  0  0  0  0  0  0  0  0  0  0  0
   10.8710    2.5760   12.6350 H   0  0  0  0  0  0  0  0  0  0  0  0
   11.7720    3.9100   13.3950 H   0  0  0  0  0  0  0  0  0  0  0  0
   10.4430    6.3450    8.6800 C   0  0  0  0  0  0  0  0  0  0  0  0
    9.5300    6.6940    9.1630 H   0  0  0  0  0  0  0  0  0  0  0  0
   10.1930    5.8780    7.7270 H   0  0  0  0  0  0  0  0  0  0  0  0
   11.1080    7.1910    8.5060 H   0  0  0  0  0  0  0  0  0  0  0  0
    9.4670    5.3630   11.6170 C   0  0  0  0  0  0  0  0  0  0  0  0
    8.4740    6.1150   13.7710 C   0  0  0  0  0  0  0  0  0  0  0  0
    7.6040    5.4660   13.6700 H   0  0  0  0  0  0  0  0  0  0  0  0
    8.7830    6.1480   14.8160 H   0  0  0  0  0  0  0  0  0  0  0  0
    8.1370    7.5430   13.2700 C   0  0  0  0  0  0  0  0  0  0  0  0
    8.6260    7.6840   12.3060 H   0  0  0  0  0  0  0  0  0  0  0  0
    8.5410    8.2550   13.9890 H   0  0  0  0  0  0  0  0  0  0  0  0
    6.3920    8.4190   11.7600 C   0  0  0  0  0  0  0  0  0  0  0  0
    7.2260    8.2000   11.0930 H   0  0  0  0  0  0  0  0  0  0  0  0
    6.2820    9.4990   11.8620 H   0  0  0  0  0  0  0  0  0  0  0  0
    6.1020    8.6640   14.1840 C   0  0  0  0  0  0  0  0  0  0  0  0
    6.3360    9.7140   14.0120 H   0  0  0  0  0  0  0  0  0  0  0  0
    6.5210    8.3500   15.1400 H   0  0  0  0  0  0  0  0  0  0  0  0
   15.1120    0.4520    8.1570 N   0  0  0  0  0  0  0  0  0  0  0  0
   12.2810    4.7380    9.2320 N   0  0  0  0  0  0  0  0  0  0  0  0
   12.7710    4.8910    8.3620 H   0  0  0  0  0  0  0  0  0  0  0  0
    9.5880    5.6150   12.9230 N   0  0  0  0  0  0  0  0  0  0  0  0
   10.4850    5.4560   13.3580 H   0  0  0  0  0  0  0  0  0  0  0  0
    6.6860    7.8420   13.0950 N   0  0  0  0  0  4  0  0  0  0  0  0
    6.2260    6.9440   13.1530 H   0  0  0  0  0  0  0  0  0  0  0  0
   16.4590    2.0330    8.9940 O   0  0  0  0  0  0  0  0  0  0  0  0
    8.4210    5.5560   11.0070 O   0  0  0  0  0  0  0  0  0  0  0  0
    4.5750    8.4770   14.2090 C   0  0  0  0  0  0  0  0  0  0  0  0
    4.1480    9.0810   15.0100 H   0  0  0  0  0  0  0  0  0  0  0  0
    4.3400    7.4270   14.3820 H   0  0  0  0  0  0  0  0  0  0  0  0
    4.1550    8.7910   13.2530 H   0  0  0  0  0  0  0  0  0  0  0  0
    5.1030    7.8480   11.1420 C   0  0  0  0  0  0  0  0  0  0  0  0
    4.9350    8.3040   10.1660 H   0  0  0  0  0  0  0  0  0  0  0  0
    4.2590    8.0670   11.7960 H   0  0  0  0  0  0  0  0  0  0  0  0
    5.2030    6.7690   11.0270 H   0  0  0  0  0  0  0  0  0  0  0  0
    9.3850   -0.2070    8.9600 C   0  0  0  0  0  0  0  0  0  0  0  0
  1 57  1  0  0  0  0
  1  6  1  0  0  0  0
  2  1  2  0  0  0  0
  3  2  1  0  0  0  0
  4  2  1  0  0  0  0
  4  9  2  0  0  0  0
  5  4  1  0  0  0  0
  6  7  1  0  0  0  0
  8  6  2  0  0  0  0
  8 10  1  0  0  0  0
  9  8  1  0  0  0  0
 10 12  1  6  0  0  0
 11 47  2  0  0  0  0
 11 10  1  0  0  0  0
 12 14  1  0  0  0  0
 13 12  1  0  0  0  0
 15 12  1  0  0  0  0
 15 16  2  0  0  0  0
 16 19  1  0  0  0  0
 17 16  1  0  0  0  0
 17 27  1  0  0  0  0
 18 17  2  0  0  0  0
 19 20  1  0  0  0  0
 19 21  1  0  0  0  0
 19 22  1  0  0  0  0
 23 24  1  0  0  0  0
 23 18  1  0  0  0  0
 25 23  1  0  0  0  0
 26 23  1  0  0  0  0
 27 43  1  0  0  0  0
 28 30  1  0  0  0  0
 29 28  1  0  0  0  0
 31 28  1  0  0  0  0
 31 33  1  0  0  0  0
 32 31  1  0  0  0  0
 34 36  1  0  0  0  0
 34 45  1  0  0  0  0
 35 34  1  0  0  0  0
 37 49  1  0  0  0  0
 37 39  1  0  0  0  0
 38 37  1  0  0  0  0
 40  9  1  0  0  0  0
 40 11  1  0  0  0  0
 41 18  1  0  0  0  0
 41 15  1  0  0  0  0
 42 41  1  0  0  0  0
 43 44  1  0  0  0  0
 43 28  1  0  0  0  0
 45 46  1  0  0  0  0
 45 31  1  0  0  0  0
 45 37  1  0  0  0  0
 48 27  2  0  0  0  0
 49 51  1  0  0  0  0
 49 50  1  0  0  0  0
 52 49  1  0  0  0  0
 53 34  1  0  0  0  0
 53 55  1  0  0  0  0
 54 53  1  0  0  0  0
 56 53  1  0  0  0  0
M  END
>  <Pose>
1

>  <Score>
-7.80

$$$$

 OpenBabel03092210493D

 57 59  0  0  1  0  0  0  0  0999 V2000
   11.3300   -0.3800    8.4910 C   0  0  0  0  0  0  0  0  0  0  0  0
   11.8180   -0.7570    7.2270 C   0  0  0  0  0  0  0  0  0  0  0  0
   11.1940   -1.3150    6.5450 H   0  0  0  0  0  0  0  0  0  0  0  0
   13.1180   -0.4030    6.8630 C   0  0  0  0  0  0  0  0  0  0  0  0
   13.5110   -0.6940    5.9010 H   0  0  0  0  0  0  0  0  0  0  0  0
   12.1210    0.3470    9.3810 C   0  0  0  0  0  0  0  0  0  0  0  0
   11.7320    0.6290   10.3490 H   0  0  0  0  0  0  0  0  0  0  0  0
   13.4100    0.7050    9.0160 C   0  0  0  0  0  0  0  0  0  0  0  0
   13.9090    0.3340    7.7540 C   0  0  0  0  0  0  0  0  0  0  0  0
   14.4280    1.4140    9.6800 C   0  0  1  0  0  0  0  0  0  0  0  0
   15.4980    1.4440    8.7700 C   0  0  0  0  0  0  0  0  0  0  0  0
   14.2710    1.9730   10.9780 C   0  0  0  0  0  0  0  0  0  0  0  0
   15.2500    1.8740   11.4470 H   0  0  0  0  0  0  0  0  0  0  0  0
   13.5590    1.3190   11.4820 H   0  0  0  0  0  0  0  0  0  0  0  0
   13.8510    3.2730   11.2870 C   0  0  0  0  0  0  0  0  0  0  0  0
   12.5520    3.5750   11.7360 C   0  0  0  0  0  0  0  0  0  0  0  0
   12.4860    4.9450   11.9450 C   0  0  0  0  0  0  0  0  0  0  0  0
   13.7500    5.4310   11.6250 C   0  0  0  0  0  0  0  0  0  0  0  0
   11.4120    2.5700   11.9500 C   0  0  0  0  0  0  0  0  0  0  0  0
   11.7610    1.5670   11.7040 H   0  0  0  0  0  0  0  0  0  0  0  0
   10.5720    2.8300   11.3060 H   0  0  0  0  0  0  0  0  0  0  0  0
   11.0930    2.5980   12.9920 H   0  0  0  0  0  0  0  0  0  0  0  0
   14.2520    6.8730   11.6970 C   0  0  0  0  0  0  0  0  0  0  0  0
   13.4460    7.5210   12.0410 H   0  0  0  0  0  0  0  0  0  0  0  0
   14.5790    7.1940   10.7080 H   0  0  0  0  0  0  0  0  0  0  0  0
   15.0890    6.9330   12.3930 H   0  0  0  0  0  0  0  0  0  0  0  0
   11.2890    5.8070   12.4910 C   0  0  0  0  0  0  0  0  0  0  0  0
    9.9610    6.5680   14.4520 C   0  0  0  0  0  0  0  0  0  0  0  0
    9.3640    7.0800   13.6980 H   0  0  0  0  0  0  0  0  0  0  0  0
    9.3180    5.9160   15.0430 H   0  0  0  0  0  0  0  0  0  0  0  0
   10.6610    7.6030   15.3710 C   0  0  0  0  0  0  0  0  0  0  0  0
   10.0360    7.7450   16.2530 H   0  0  0  0  0  0  0  0  0  0  0  0
   10.7350    8.5420   14.8230 H   0  0  0  0  0  0  0  0  0  0  0  0
   12.2370    7.5500   17.2700 C   0  0  0  0  0  0  0  0  0  0  0  0
   11.3970    8.1500   17.6210 H   0  0  0  0  0  0  0  0  0  0  0  0
   13.1590    8.1220   17.3730 H   0  0  0  0  0  0  0  0  0  0  0  0
   13.1230    7.7840   14.9930 C   0  0  0  0  0  0  0  0  0  0  0  0
   13.3750    8.7870   15.3370 H   0  0  0  0  0  0  0  0  0  0  0  0
   12.7940    7.8270   13.9550 H   0  0  0  0  0  0  0  0  0  0  0  0
   15.1660    0.8020    7.6580 N   0  0  0  0  0  0  0  0  0  0  0  0
   14.5330    4.4290   11.2330 N   0  0  0  0  0  0  0  0  0  0  0  0
   15.4940    4.5240   10.9400 H   0  0  0  0  0  0  0  0  0  0  0  0
   11.0370    5.7750   13.8020 N   0  0  0  0  0  0  0  0  0  0  0  0
   11.6090    5.1790   14.3830 H   0  0  0  0  0  0  0  0  0  0  0  0
   12.0300    7.2340   15.8350 N   0  0  0  0  0  4  0  0  0  0  0  0
   12.0810    6.2310   15.7280 H   0  0  0  0  0  0  0  0  0  0  0  0
   16.6150    1.9550    8.9170 O   0  0  0  0  0  0  0  0  0  0  0  0
   10.6610    6.5250   11.7200 O   0  0  0  0  0  0  0  0  0  0  0  0
   14.3620    6.8790   15.1010 C   0  0  0  0  0  0  0  0  0  0  0  0
   15.1620    7.2840   14.4820 H   0  0  0  0  0  0  0  0  0  0  0  0
   14.1090    5.8760   14.7570 H   0  0  0  0  0  0  0  0  0  0  0  0
   14.6910    6.8360   16.1390 H   0  0  0  0  0  0  0  0  0  0  0  0
   12.3400    6.2860   18.1420 C   0  0  0  0  0  0  0  0  0  0  0  0
   12.4910    6.5740   19.1830 H   0  0  0  0  0  0  0  0  0  0  0  0
   13.1820    5.6810   17.8070 H   0  0  0  0  0  0  0  0  0  0  0  0
   11.4200    5.7090   18.0550 H   0  0  0  0  0  0  0  0  0  0  0  0
    9.7390   -0.8320    8.9820 C   0  0  0  0  0  0  0  0  0  0  0  0
  1 57  1  0  0  0  0
  1  6  1  0  0  0  0
  2  1  2  0  0  0  0
  3  2  1  0  0  0  0
  4  2  1  0  0  0  0
  4  9  2  0  0  0  0
  5  4  1  0  0  0  0
  6  7  1  0  0  0  0
  8  6  2  0  0  0  0
  8 10  1  0  0  0  0
  9  8  1  0  0  0  0
 10 12  1  6  0  0  0
 11 47  2  0  0  0  0
 11 10  1  0  0  0  0
 12 15  1  0  0  0  0
 12 13  1  0  0  0  0
 12 14  1  0  0  0  0
 15 16  2  0  0  0  0
 16 17  1  0  0  0  0
 16 19  1  0  0  0  0
 17 27  1  0  0  0  0
 18 23  1  0  0  0  0
 18 17  2  0  0  0  0
 19 22  1  0  0  0  0
 20 19  1  0  0  0  0
 21 19  1  0  0  0  0
 23 24  1  0  0  0  0
 23 26  1  0  0  0  0
 25 23  1  0  0  0  0
 27 43  1  0  0  0  0
 28 30  1  0  0  0  0
 28 31  1  0  0  0  0
 29 28  1  0  0  0  0
 31 45  1  0  0  0  0
 31 32  1  0  0  0  0
 33 31  1  0  0  0  0
 34 36  1  0  0  0  0
 34 35  1  0  0  0  0
 34 53  1  0  0  0  0
 37 49  1  0  0  0  0
 37 38  1  0  0  0  0
 37 45  1  0  0  0  0
 39 37  1  0  0  0  0
 40  9  1  0  0  0  0
 40 11  1  0  0  0  0
 41 15  1  0  0  0  0
 41 18  1  0  0  0  0
 42 41  1  0  0  0  0
 43 44  1  0  0  0  0
 43 28  1  0  0  0  0
 45 34  1  0  0  0  0
 46 45  1  0  0  0  0
 48 27  2  0  0  0  0
 49 52  1  0  0  0  0
 50 49  1  0  0  0  0
 51 49  1  0  0  0  0
 53 54  1  0  0  0  0
 55 53  1  0  0  0  0
 56 53  1  0  0  0  0
M  END
>  <Pose>
1

>  <Score>
-7.52

$$$$

 OpenBabel03092210493D

 57 59  0  0  1  0  0  0  0  0999 V2000
   11.4140    0.2310    8.7930 C   0  0  0  0  0  0  0  0  0  0  0  0
   12.0130   -0.6480    7.8720 C   0  0  0  0  0  0  0  0  0  0  0  0
   11.4190   -1.3930    7.3640 H   0  0  0  0  0  0  0  0  0  0  0  0
   13.3830   -0.5470    7.6240 C   0  0  0  0  0  0  0  0  0  0  0  0
   13.8590   -1.2220    6.9280 H   0  0  0  0  0  0  0  0  0  0  0  0
   12.1660    1.2040    9.4540 C   0  0  0  0  0  0  0  0  0  0  0  0
   11.6910    1.8710   10.1590 H   0  0  0  0  0  0  0  0  0  0  0  0
   13.5250    1.3070    9.2010 C   0  0  0  0  0  0  0  0  0  0  0  0
   14.1350    0.4340    8.2820 C   0  0  0  0  0  0  0  0  0  0  0  0
   14.5260    2.1590    9.7010 C   0  0  1  0  0  0  0  0  0  0  0  0
   15.7010    1.7580    9.0430 C   0  0  0  0  0  0  0  0  0  0  0  0
   14.2710    3.1970   10.6390 C   0  0  0  0  0  0  0  0  0  0  0  0
   13.7610    2.7090   11.4690 H   0  0  0  0  0  0  0  0  0  0  0  0
   13.5800    3.8710   10.1330 H   0  0  0  0  0  0  0  0  0  0  0  0
   15.2190    4.0360   11.2400 C   0  0  0  0  0  0  0  0  0  0  0  0
   14.9160    5.3290   11.7060 C   0  0  0  0  0  0  0  0  0  0  0  0
   16.0790    5.8690   12.2390 C   0  0  0  0  0  0  0  0  0  0  0  0
   17.0490    4.8820   12.0890 C   0  0  0  0  0  0  0  0  0  0  0  0
   13.5480    6.0200   11.6310 C   0  0  0  0  0  0  0  0  0  0  0  0
   12.8280    5.3510   11.1610 H   0  0  0  0  0  0  0  0  0  0  0  0
   13.6340    6.9330   11.0410 H   0  0  0  0  0  0  0  0  0  0  0  0
   13.2110    6.2680   12.6370 H   0  0  0  0  0  0  0  0  0  0  0  0
   18.5130    4.9260   12.5250 C   0  0  0  0  0  0  0  0  0  0  0  0
   18.7250    5.8890   12.9890 H   0  0  0  0  0  0  0  0  0  0  0  0
   19.1550    4.7920   11.6550 H   0  0  0  0  0  0  0  0  0  0  0  0
   18.7020    4.1270   13.2420 H   0  0  0  0  0  0  0  0  0  0  0  0
   16.2940    7.2610   12.9370 C   0  0  0  0  0  0  0  0  0  0  0  0
   16.9310    9.6560   12.7120 C   0  0  0  0  0  0  0  0  0  0  0  0
   16.0030   10.2250   12.6550 H   0  0  0  0  0  0  0  0  0  0  0  0
   17.2690    9.6150   13.7480 H   0  0  0  0  0  0  0  0  0  0  0  0
   18.0170   10.3140   11.8220 C   0  0  0  0  0  0  0  0  0  0  0  0
   17.5950   10.4520   10.8270 H   0  0  0  0  0  0  0  0  0  0  0  0
   18.8640    9.6310   11.7660 H   0  0  0  0  0  0  0  0  0  0  0  0
   20.0050   11.6630   12.3870 C   0  0  0  0  0  0  0  0  0  0  0  0
   20.3290   10.8420   13.0270 H   0  0  0  0  0  0  0  0  0  0  0  0
   20.3100   12.6110   12.8300 H   0  0  0  0  0  0  0  0  0  0  0  0
   17.8890   12.1190   13.5430 C   0  0  0  0  0  0  0  0  0  0  0  0
   18.6620   12.4140   14.2530 H   0  0  0  0  0  0  0  0  0  0  0  0
   17.2850   11.3200   13.9750 H   0  0  0  0  0  0  0  0  0  0  0  0
   15.4410    0.7480    8.2250 N   0  0  0  0  0  0  0  0  0  0  0  0
   16.5200    3.8170   11.4920 N   0  0  0  0  0  0  0  0  0  0  0  0
   17.0220    2.9710   11.2620 H   0  0  0  0  0  0  0  0  0  0  0  0
   16.7230    8.2810   12.1880 N   0  0  0  0  0  0  0  0  0  0  0  0
   16.9150    8.1080   11.2110 H   0  0  0  0  0  0  0  0  0  0  0  0
   18.5250   11.6360   12.2910 N   0  0  0  0  0  4  0  0  0  0  0  0
   18.2480   12.2910   11.5750 H   0  0  0  0  0  0  0  0  0  0  0  0
   16.8440    2.2170    9.1670 O   0  0  0  0  0  0  0  0  0  0  0  0
   16.0100    7.3930   14.1220 O   0  0  0  0  0  0  0  0  0  0  0  0
   16.9910   13.3280   13.2320 C   0  0  0  0  0  0  0  0  0  0  0  0
   16.5250   13.6810   14.1520 H   0  0  0  0  0  0  0  0  0  0  0  0
   16.2170   13.0330   12.5230 H   0  0  0  0  0  0  0  0  0  0  0  0
   17.5940   14.1270   12.8010 H   0  0  0  0  0  0  0  0  0  0  0  0
   20.6870   11.5180   11.0150 C   0  0  0  0  0  0  0  0  0  0  0  0
   21.7690   11.5440   11.1430 H   0  0  0  0  0  0  0  0  0  0  0  0
   20.3770   12.3370   10.3670 H   0  0  0  0  0  0  0  0  0  0  0  0
   20.3970   10.5690   10.5640 H   0  0  0  0  0  0  0  0  0  0  0  0
    9.7300    0.1090    9.1460 C   0  0  0  0  0  0  0  0  0  0  0  0
  1 57  1  0  0  0  0
  1  6  1  0  0  0  0
  2  1  2  0  0  0  0
  3  2  1  0  0  0  0
  4  2  1  0  0  0  0
  4  9  2  0  0  0  0
  5  4  1  0  0  0  0
  6  7  1  0  0  0  0
  8  6  2  0  0  0  0
  8 10  1  0  0  0  0
  9  8  1  0  0  0  0
 10 12  1  6  0  0  0
 11 47  2  0  0  0  0
 11 10  1  0  0  0  0
 12 15  1  0  0  0  0
 12 13  1  0  0  0  0
 14 12  1  0  0  0  0
 15 41  1  0  0  0  0
 15 16  2  0  0  0  0
 16 17  1  0  0  0  0
 17 27  1  0  0  0  0
 18 17  2  0  0  0  0
 18 23  1  0  0  0  0
 19 16  1  0  0  0  0
 19 22  1  0  0  0  0
 20 19  1  0  0  0  0
 21 19  1  0  0  0  0
 23 24  1  0  0  0  0
 23 26  1  0  0  0  0
 25 23  1  0  0  0  0
 27 48  2  0  0  0  0
 28 30  1  0  0  0  0
 29 28  1  0  0  0  0
 31 45  1  0  0  0  0
 31 28  1  0  0  0  0
 32 31  1  0  0  0  0
 33 31  1  0  0  0  0
 34 36  1  0  0  0  0
 34 35  1  0  0  0  0
 37 39  1  0  0  0  0
 37 38  1  0  0  0  0
 40  9  1  0  0  0  0
 40 11  1  0  0  0  0
 41 18  1  0  0  0  0
 42 41  1  0  0  0  0
 43 28  1  0  0  0  0
 43 27  1  0  0  0  0
 44 43  1  0  0  0  0
 45 34  1  0  0  0  0
 45 37  1  0  0  0  0
 46 45  1  0  0  0  0
 49 37  1  0  0  0  0
 49 50  1  0  0  0  0
 51 49  1  0  0  0  0
 52 49  1  0  0  0  0
 53 54  1  0  0  0  0
 53 34  1  0  0  0  0
 55 53  1  0  0  0  0
 56 53  1  0  0  0  0
M  END
>  <Pose>
1

>  <Score>
-7.21

$$$$

 OpenBabel03092210493D

 57 59  0  0  1  0  0  0  0  0999 V2000
   11.1760    0.1230    8.7630 C   0  0  0  0  0  0  0  0  0  0  0  0
   11.7070   -0.7630    7.8080 C   0  0  0  0  0  0  0  0  0  0  0  0
   11.0720   -1.4950    7.3300 H   0  0  0  0  0  0  0  0  0  0  0  0
   13.0620   -0.6870    7.4850 C   0  0  0  0  0  0  0  0  0  0  0  0
   13.4880   -1.3670    6.7620 H   0  0  0  0  0  0  0  0  0  0  0  0
   11.9800    1.0780    9.3850 C   0  0  0  0  0  0  0  0  0  0  0  0
   11.5580    1.7510   10.1170 H   0  0  0  0  0  0  0  0  0  0  0  0
   13.3250    1.1580    9.0590 C   0  0  0  0  0  0  0  0  0  0  0  0
   13.8680    0.2770    8.1050 C   0  0  0  0  0  0  0  0  0  0  0  0
   14.3680    1.9890    9.5060 C   0  0  1  0  0  0  0  0  0  0  0  0
   15.4980    1.5700    8.7830 C   0  0  0  0  0  0  0  0  0  0  0  0
   14.1850    3.0280   10.4590 C   0  0  0  0  0  0  0  0  0  0  0  0
   13.6810    2.5520   11.3010 H   0  0  0  0  0  0  0  0  0  0  0  0
   13.5050    3.7330    9.9810 H   0  0  0  0  0  0  0  0  0  0  0  0
   15.1840    3.8220   11.0370 C   0  0  0  0  0  0  0  0  0  0  0  0
   15.0830    4.3630   12.3320 C   0  0  0  0  0  0  0  0  0  0  0  0
   16.2410    5.0880   12.5780 C   0  0  0  0  0  0  0  0  0  0  0  0
   17.0130    4.9560   11.4280 C   0  0  0  0  0  0  0  0  0  0  0  0
   13.9010    4.1890   13.2960 C   0  0  0  0  0  0  0  0  0  0  0  0
   13.1380    3.5690   12.8270 H   0  0  0  0  0  0  0  0  0  0  0  0
   13.4800    5.1650   13.5350 H   0  0  0  0  0  0  0  0  0  0  0  0
   14.2470    3.7090   14.2120 H   0  0  0  0  0  0  0  0  0  0  0  0
   18.4030    5.5280   11.1550 C   0  0  0  0  0  0  0  0  0  0  0  0
   18.7370    6.1000   12.0210 H   0  0  0  0  0  0  0  0  0  0  0  0
   18.3620    6.1810   10.2830 H   0  0  0  0  0  0  0  0  0  0  0  0
   19.1010    4.7130   10.9660 H   0  0  0  0  0  0  0  0  0  0  0  0
   16.6700    5.8540   13.8830 C   0  0  0  0  0  0  0  0  0  0  0  0
   18.5040    6.5340   15.4210 C   0  0  0  0  0  0  0  0  0  0  0  0
   19.4080    7.0780   15.1500 H   0  0  0  0  0  0  0  0  0  0  0  0
   17.7640    7.2310   15.8140 H   0  0  0  0  0  0  0  0  0  0  0  0
   18.8310    5.4500   16.4810 C   0  0  0  0  0  0  0  0  0  0  0  0
   18.2480    4.5610   16.2410 H   0  0  0  0  0  0  0  0  0  0  0  0
   18.5270    5.8320   17.4550 H   0  0  0  0  0  0  0  0  0  0  0  0
   21.0670    6.0170   17.3600 C   0  0  0  0  0  0  0  0  0  0  0  0
   20.3940    6.5950   17.9930 H   0  0  0  0  0  0  0  0  0  0  0  0
   21.5810    6.6860   16.6700 H   0  0  0  0  0  0  0  0  0  0  0  0
   20.8960    4.7540   15.2620 C   0  0  0  0  0  0  0  0  0  0  0  0
   21.9810    4.7560   15.3730 H   0  0  0  0  0  0  0  0  0  0  0  0
   20.6040    5.5160   14.5400 H   0  0  0  0  0  0  0  0  0  0  0  0
   15.1740    0.5670    7.9770 N   0  0  0  0  0  0  0  0  0  0  0  0
   16.3660    4.2130   10.5330 N   0  0  0  0  0  0  0  0  0  0  0  0
   16.7110    3.9790    9.6140 H   0  0  0  0  0  0  0  0  0  0  0  0
   17.9580    5.8230   14.2350 N   0  0  0  0  0  0  0  0  0  0  0  0
   18.5960    5.2870   13.6640 H   0  0  0  0  0  0  0  0  0  0  0  0
   20.2640    5.0470   16.5730 N   0  0  0  0  0  4  0  0  0  0  0  0
   20.2570    4.1710   17.0750 H   0  0  0  0  0  0  0  0  0  0  0  0
   16.6540    2.0060    8.8460 O   0  0  0  0  0  0  0  0  0  0  0  0
   15.8360    6.5030   14.5040 O   0  0  0  0  0  0  0  0  0  0  0  0
   20.4350    3.3730   14.7650 C   0  0  0  0  0  0  0  0  0  0  0  0
   20.9000    3.1600   13.8020 H   0  0  0  0  0  0  0  0  0  0  0  0
   19.3510    3.3710   14.6530 H   0  0  0  0  0  0  0  0  0  0  0  0
   20.7270    2.6110   15.4870 H   0  0  0  0  0  0  0  0  0  0  0  0
   22.1140    5.3270   18.2520 C   0  0  0  0  0  0  0  0  0  0  0  0
   22.6730    6.0820   18.8050 H   0  0  0  0  0  0  0  0  0  0  0  0
   22.7980    4.7510   17.6300 H   0  0  0  0  0  0  0  0  0  0  0  0
   21.6110    4.6610   18.9530 H   0  0  0  0  0  0  0  0  0  0  0  0
    9.5110    0.0310    9.2080 C   0  0  0  0  0  0  0  0  0  0  0  0
  1 57  1  0  0  0  0
  1  6  1  0  0  0  0
  2  1  2  0  0  0  0
  3  2  1  0  0  0  0
  4  2  1  0  0  0  0
  4  9  2  0  0  0  0
  5  4  1  0  0  0  0
  6  7  1  0  0  0  0
  8  6  2  0  0  0  0
  8 10  1  0  0  0  0
  9  8  1  0  0  0  0
 10 12  1  6  0  0  0
 11 47  2  0  0  0  0
 11 10  1  0  0  0  0
 12 15  1  0  0  0  0
 12 13  1  0  0  0  0
 14 12  1  0  0  0  0
 15 16  2  0  0  0  0
 16 17  1  0  0  0  0
 16 19  1  0  0  0  0
 17 27  1  0  0  0  0
 18 17  2  0  0  0  0
 19 21  1  0  0  0  0
 19 22  1  0  0  0  0
 20 19  1  0  0  0  0
 23 18  1  0  0  0  0
 23 24  1  0  0  0  0
 25 23  1  0  0  0  0
 26 23  1  0  0  0  0
 27 43  1  0  0  0  0
 27 48  2  0  0  0  0
 28 30  1  0  0  0  0
 28 31  1  0  0  0  0
 29 28  1  0  0  0  0
 31 45  1  0  0  0  0
 31 33  1  0  0  0  0
 32 31  1  0  0  0  0
 34 35  1  0  0  0  0
 34 53  1  0  0  0  0
 36 34  1  0  0  0  0
 37 38  1  0  0  0  0
 37 45  1  0  0  0  0
 39 37  1  0  0  0  0
 40  9  1  0  0  0  0
 40 11  1  0  0  0  0
 41 15  1  0  0  0  0
 41 18  1  0  0  0  0
 42 41  1  0  0  0  0
 43 28  1  0  0  0  0
 44 43  1  0  0  0  0
 45 46  1  0  0  0  0
 45 34  1  0  0  0  0
 49 37  1  0  0  0  0
 49 52  1  0  0  0  0
 50 49  1  0  0  0  0
 51 49  1  0  0  0  0
 53 54  1  0  0  0  0
 53 56  1  0  0  0  0
 55 53  1  0  0  0  0
M  END
>  <Pose>
1

>  <Score>
-7.14

$$$$

 OpenBabel03092210493D

 57 59  0  0  1  0  0  0  0  0999 V2000
   15.4220    1.5150    8.6480 C   0  0  0  0  0  0  0  0  0  0  0  0
   14.8200    0.4410    7.9670 C   0  0  0  0  0  0  0  0  0  0  0  0
   15.4090   -0.1940    7.3220 H   0  0  0  0  0  0  0  0  0  0  0  0
   13.4550    0.2070    8.1320 C   0  0  0  0  0  0  0  0  0  0  0  0
   12.9760   -0.6070    7.6080 H   0  0  0  0  0  0  0  0  0  0  0  0
   14.6760    2.3430    9.4890 C   0  0  0  0  0  0  0  0  0  0  0  0
   15.1520    3.1640   10.0050 H   0  0  0  0  0  0  0  0  0  0  0  0
   13.3210    2.1040    9.6580 C   0  0  0  0  0  0  0  0  0  0  0  0
   12.7080    1.0330    8.9820 C   0  0  0  0  0  0  0  0  0  0  0  0
   12.3260    2.7490   10.4150 C   0  0  1  0  0  0  0  0  0  0  0  0
   11.1520    2.0190   10.1630 C   0  0  0  0  0  0  0  0  0  0  0  0
   12.5850    3.8670   11.2540 C   0  0  0  0  0  0  0  0  0  0  0  0
   13.2270    4.5200   10.6630 H   0  0  0  0  0  0  0  0  0  0  0  0
   13.1510    3.4640   12.0940 H   0  0  0  0  0  0  0  0  0  0  0  0
   11.6350    4.7200   11.8330 C   0  0  0  0  0  0  0  0  0  0  0  0
   10.6250    5.3610   11.0920 C   0  0  0  0  0  0  0  0  0  0  0  0
    9.8710    6.1190   11.9770 C   0  0  0  0  0  0  0  0  0  0  0  0
   10.4400    5.9060   13.2280 C   0  0  0  0  0  0  0  0  0  0  0  0
   10.4030    5.2480    9.5780 C   0  0  0  0  0  0  0  0  0  0  0  0
   11.1520    4.5810    9.1500 H   0  0  0  0  0  0  0  0  0  0  0  0
   10.4920    6.2340    9.1230 H   0  0  0  0  0  0  0  0  0  0  0  0
    9.4080    4.8470    9.3860 H   0  0  0  0  0  0  0  0  0  0  0  0
    9.9960    6.4750   14.5750 C   0  0  0  0  0  0  0  0  0  0  0  0
    9.1280    7.1190   14.4290 H   0  0  0  0  0  0  0  0  0  0  0  0
   10.8090    7.0550   15.0110 H   0  0  0  0  0  0  0  0  0  0  0  0
    9.7330    5.6570   15.2460 H   0  0  0  0  0  0  0  0  0  0  0  0
    8.5950    6.9930   11.6920 C   0  0  0  0  0  0  0  0  0  0  0  0
    6.1260    7.2430   11.8740 C   0  0  0  0  0  0  0  0  0  0  0  0
    6.2140    7.9560   11.0540 H   0  0  0  0  0  0  0  0  0  0  0  0
    5.3160    6.5450   11.6620 H   0  0  0  0  0  0  0  0  0  0  0  0
    5.8520    7.9900   13.2050 C   0  0  0  0  0  0  0  0  0  0  0  0
    5.8910    9.0610   13.0010 H   0  0  0  0  0  0  0  0  0  0  0  0
    6.6430    7.7250   13.9070 H   0  0  0  0  0  0  0  0  0  0  0  0
    3.6070    8.8430   13.7730 C   0  0  0  0  0  0  0  0  0  0  0  0
    2.6470    8.5420   14.1920 H   0  0  0  0  0  0  0  0  0  0  0  0
    3.4760    9.1130   12.7250 H   0  0  0  0  0  0  0  0  0  0  0  0
    4.6600    7.1860   15.2460 C   0  0  0  0  0  0  0  0  0  0  0  0
    4.0120    6.3180   15.3700 H   0  0  0  0  0  0  0  0  0  0  0  0
    4.3600    7.9670   15.9440 H   0  0  0  0  0  0  0  0  0  0  0  0
   11.4080    1.0270    9.3200 N   0  0  0  0  0  0  0  0  0  0  0  0
   11.4810    5.0860   13.1160 N   0  0  0  0  0  0  0  0  0  0  0  0
   12.0680    4.7840   13.8810 H   0  0  0  0  0  0  0  0  0  0  0  0
    7.4050    6.5060   12.0520 N   0  0  0  0  0  0  0  0  0  0  0  0
    7.3720    5.5860   12.4670 H   0  0  0  0  0  0  0  0  0  0  0  0
    4.5430    7.6950   13.8560 N   0  0  0  0  0  4  0  0  0  0  0  0
    4.1510    6.9340   13.3190 H   0  0  0  0  0  0  0  0  0  0  0  0
   10.0140    2.2190   10.6060 O   0  0  0  0  0  0  0  0  0  0  0  0
    8.7260    8.1130   11.2070 O   0  0  0  0  0  0  0  0  0  0  0  0
    6.1170    6.7810   15.5260 C   0  0  0  0  0  0  0  0  0  0  0  0
    6.2010    6.4080   16.5470 H   0  0  0  0  0  0  0  0  0  0  0  0
    6.7660    7.6490   15.4020 H   0  0  0  0  0  0  0  0  0  0  0  0
    6.4180    6.0000   14.8280 H   0  0  0  0  0  0  0  0  0  0  0  0
    4.1160   10.0750   14.5410 C   0  0  0  0  0  0  0  0  0  0  0  0
    3.3940   10.8850   14.4480 H   0  0  0  0  0  0  0  0  0  0  0  0
    5.0730   10.3920   14.1260 H   0  0  0  0  0  0  0  0  0  0  0  0
    4.2430    9.8200   15.5930 H   0  0  0  0  0  0  0  0  0  0  0  0
   17.1010    1.8510    8.4380 C   0  0  0  0  0  0  0  0  0  0  0  0
  1  6  1  0  0  0  0
  2  4  1  0  0  0  0
  2  1  2  0  0  0  0
  3  2  1  0  0  0  0
  4  9  2  0  0  0  0
  5  4  1  0  0  0  0
  6  8  2  0  0  0  0
  6  7  1  0  0  0  0
  8 10  1  0  0  0  0
  9 40  1  0  0  0  0
  9  8  1  0  0  0  0
 10 12  1  1  0  0  0
 11 10  1  0  0  0  0
 11 47  2  0  0  0  0
 12 15  1  0  0  0  0
 12 14  1  0  0  0  0
 13 12  1  0  0  0  0
 15 41  1  0  0  0  0
 16 15  2  0  0  0  0
 16 17  1  0  0  0  0
 17 18  2  0  0  0  0
 18 23  1  0  0  0  0
 19 16  1  0  0  0  0
 20 19  1  0  0  0  0
 21 19  1  0  0  0  0
 22 19  1  0  0  0  0
 23 25  1  0  0  0  0
 23 26  1  0  0  0  0
 24 23  1  0  0  0  0
 27 17  1  0  0  0  0
 27 43  1  0  0  0  0
 28 43  1  0  0  0  0
 28 31  1  0  0  0  0
 29 28  1  0  0  0  0
 30 28  1  0  0  0  0
 31 45  1  0  0  0  0
 31 33  1  0  0  0  0
 32 31  1  0  0  0  0
 34 45  1  0  0  0  0
 34 35  1  0  0  0  0
 34 53  1  0  0  0  0
 36 34  1  0  0  0  0
 37 38  1  0  0  0  0
 37 49  1  0  0  0  0
 37 39  1  0  0  0  0
 40 11  1  0  0  0  0
 41 18  1  0  0  0  0
 41 42  1  0  0  0  0
 43 44  1  0  0  0  0
 45 37  1  0  0  0  0
 46 45  1  0  0  0  0
 48 27  2  0  0  0  0
 49 50  1  0  0  0  0
 51 49  1  0  0  0  0
 52 49  1  0  0  0  0
 53 56  1  0  0  0  0
 54 53  1  0  0  0  0
 55 53  1  0  0  0  0
 57  1  1  0  0  0  0
M  END
>  <Pose>
1

>  <Score>
-7.11

$$$$

 OpenBabel03092210493D

 57 59  0  0  1  0  0  0  0  0999 V2000
   10.9860   -0.0630    8.7930 C   0  0  0  0  0  0  0  0  0  0  0  0
   11.5340   -0.7660    7.7040 C   0  0  0  0  0  0  0  0  0  0  0  0
   10.9050   -1.3870    7.0840 H   0  0  0  0  0  0  0  0  0  0  0  0
   12.8980   -0.6520    7.4350 C   0  0  0  0  0  0  0  0  0  0  0  0
   13.3360   -1.1930    6.6100 H   0  0  0  0  0  0  0  0  0  0  0  0
   11.7830    0.7500    9.6010 C   0  0  0  0  0  0  0  0  0  0  0  0
   11.3480    1.2830   10.4330 H   0  0  0  0  0  0  0  0  0  0  0  0
   13.1370    0.8680    9.3280 C   0  0  0  0  0  0  0  0  0  0  0  0
   13.6970    0.1700    8.2420 C   0  0  0  0  0  0  0  0  0  0  0  0
   14.1760    1.5860    9.9470 C   0  0  1  0  0  0  0  0  0  0  0  0
   15.3200    1.2900    9.1880 C   0  0  0  0  0  0  0  0  0  0  0  0
   13.9770    2.4340   11.0710 C   0  0  0  0  0  0  0  0  0  0  0  0
   14.9800    2.7080   11.3980 H   0  0  0  0  0  0  0  0  0  0  0  0
   13.5100    1.7990   11.8240 H   0  0  0  0  0  0  0  0  0  0  0  0
   13.2460    3.6290   11.1010 C   0  0  0  0  0  0  0  0  0  0  0  0
   13.7220    4.8060   11.7100 C   0  0  0  0  0  0  0  0  0  0  0  0
   12.7510    5.7840   11.5520 C   0  0  0  0  0  0  0  0  0  0  0  0
   11.7200    5.1740   10.8430 C   0  0  0  0  0  0  0  0  0  0  0  0
   15.0690    4.9730   12.4260 C   0  0  0  0  0  0  0  0  0  0  0  0
   15.6190    4.0330   12.3900 H   0  0  0  0  0  0  0  0  0  0  0  0
   14.8960    5.2530   13.4650 H   0  0  0  0  0  0  0  0  0  0  0  0
   15.6490    5.7520   11.9310 H   0  0  0  0  0  0  0  0  0  0  0  0
   10.4060    5.7940   10.3690 C   0  0  0  0  0  0  0  0  0  0  0  0
   10.3640    6.8380   10.6810 H   0  0  0  0  0  0  0  0  0  0  0  0
    9.5690    5.2500   10.8060 H   0  0  0  0  0  0  0  0  0  0  0  0
   10.3490    5.7370    9.2820 H   0  0  0  0  0  0  0  0  0  0  0  0
   12.7840    7.2930   11.9960 C   0  0  0  0  0  0  0  0  0  0  0  0
   12.8240    8.9420   13.8590 C   0  0  0  0  0  0  0  0  0  0  0  0
   13.8090    9.3720   13.6820 H   0  0  0  0  0  0  0  0  0  0  0  0
   12.0640    9.5700   13.3940 H   0  0  0  0  0  0  0  0  0  0  0  0
   12.5590    8.8230   15.3820 C   0  0  0  0  0  0  0  0  0  0  0  0
   11.7200    9.4740   15.6280 H   0  0  0  0  0  0  0  0  0  0  0  0
   13.4510    9.1670   15.9050 H   0  0  0  0  0  0  0  0  0  0  0  0
   10.7810    7.2660   16.0930 C   0  0  0  0  0  0  0  0  0  0  0  0
   10.3620    8.1950   16.4790 H   0  0  0  0  0  0  0  0  0  0  0  0
   10.6350    6.4700   16.8240 H   0  0  0  0  0  0  0  0  0  0  0  0
   13.0220    7.0420   17.0700 C   0  0  0  0  0  0  0  0  0  0  0  0
   12.6680    6.0720   17.4200 H   0  0  0  0  0  0  0  0  0  0  0  0
   12.8960    7.7810   17.8600 H   0  0  0  0  0  0  0  0  0  0  0  0
   15.0090    0.4590    8.2030 N   0  0  0  0  0  0  0  0  0  0  0  0
   12.0320    3.9050   10.5970 N   0  0  0  0  0  0  0  0  0  0  0  0
   11.4450    3.2470   10.1050 H   0  0  0  0  0  0  0  0  0  0  0  0
   12.7600    7.5640   13.3030 N   0  0  0  0  0  0  0  0  0  0  0  0
   12.6950    6.7910   13.9500 H   0  0  0  0  0  0  0  0  0  0  0  0
   12.2370    7.4530   15.8780 N   0  0  0  0  0  4  0  0  0  0  0  0
   12.5240    6.8320   15.1350 H   0  0  0  0  0  0  0  0  0  0  0  0
   16.4790    1.6900    9.3590 O   0  0  0  0  0  0  0  0  0  0  0  0
   12.8910    8.1700   11.1460 O   0  0  0  0  0  0  0  0  0  0  0  0
   14.5100    6.9390   16.6970 C   0  0  0  0  0  0  0  0  0  0  0  0
   15.0840    6.6370   17.5730 H   0  0  0  0  0  0  0  0  0  0  0  0
   14.8650    7.9080   16.3470 H   0  0  0  0  0  0  0  0  0  0  0  0
   14.6370    6.1990   15.9070 H   0  0  0  0  0  0  0  0  0  0  0  0
   10.0380    6.8890   14.7990 C   0  0  0  0  0  0  0  0  0  0  0  0
    8.9770    6.7640   15.0130 H   0  0  0  0  0  0  0  0  0  0  0  0
   10.4430    5.9570   14.4060 H   0  0  0  0  0  0  0  0  0  0  0  0
   10.1690    7.6810   14.0620 H   0  0  0  0  0  0  0  0  0  0  0  0
    9.3090   -0.2100    9.1710 C   0  0  0  0  0  0  0  0  0  0  0  0
  1 57  1  0  0  0  0
  1  6  1  0  0  0  0
  2  1  2  0  0  0  0
  3  2  1  0  0  0  0
  4  2  1  0  0  0  0
  4  9  2  0  0  0  0
  5  4  1  0  0  0  0
  6  7  1  0  0  0  0
  8  6  2  0  0  0  0
  8 10  1  0  0  0  0
  9  8  1  0  0  0  0
 10 12  1  6  0  0  0
 11 47  2  0  0  0  0
 11 10  1  0  0  0  0
 12 15  1  0  0  0  0
 12 13  1  0  0  0  0
 12 14  1  0  0  0  0
 15 16  2  0  0  0  0
 16 19  1  0  0  0  0
 17 16  1  0  0  0  0
 17 27  1  0  0  0  0
 18 17  2  0  0  0  0
 19 21  1  0  0  0  0
 20 19  1  0  0  0  0
 22 19  1  0  0  0  0
 23 24  1  0  0  0  0
 23 25  1  0  0  0  0
 23 18  1  0  0  0  0
 26 23  1  0  0  0  0
 27 43  1  0  0  0  0
 28 31  1  0  0  0  0
 29 28  1  0  0  0  0
 30 28  1  0  0  0  0
 31 32  1  0  0  0  0
 31 45  1  0  0  0  0
 31 33  1  0  0  0  0
 34 35  1  0  0  0  0
 34 36  1  0  0  0  0
 37 38  1  0  0  0  0
 37 39  1  0  0  0  0
 40  9  1  0  0  0  0
 40 11  1  0  0  0  0
 41 18  1  0  0  0  0
 41 15  1  0  0  0  0
 42 41  1  0  0  0  0
 43 28  1  0  0  0  0
 43 44  1  0  0  0  0
 45 34  1  0  0  0  0
 45 37  1  0  0  0  0
 46 45  1  0  0  0  0
 48 27  2  0  0  0  0
 49 37  1  0  0  0  0
 49 50  1  0  0  0  0
 51 49  1  0  0  0  0
 52 49  1  0  0  0  0
 53 54  1  0  0  0  0
 53 34  1  0  0  0  0
 55 53  1  0  0  0  0
 56 53  1  0  0  0  0
M  END
>  <Pose>
1

>  <Score>
-7.05

$$$$

 OpenBabel03092210493D

 57 59  0  0  1  0  0  0  0  0999 V2000
   11.5890    3.7470   11.5630 C   0  0  0  0  0  0  0  0  0  0  0  0
   10.9090    3.0000   10.5840 C   0  0  0  0  0  0  0  0  0  0  0  0
    9.8300    2.9970   10.5510 H   0  0  0  0  0  0  0  0  0  0  0  0
   11.6450    2.2630    9.6550 C   0  0  0  0  0  0  0  0  0  0  0  0
   11.1390    1.6760    8.9030 H   0  0  0  0  0  0  0  0  0  0  0  0
   12.9830    3.7670   11.6160 C   0  0  0  0  0  0  0  0  0  0  0  0
   13.4900    4.3450   12.3740 H   0  0  0  0  0  0  0  0  0  0  0  0
   13.7130    3.0400   10.6880 C   0  0  0  0  0  0  0  0  0  0  0  0
   13.0450    2.2890    9.7030 C   0  0  0  0  0  0  0  0  0  0  0  0
   15.0940    2.8600   10.4900 C   0  0  1  0  0  0  0  0  0  0  0  0
   15.1900    2.0080    9.3770 C   0  0  0  0  0  0  0  0  0  0  0  0
   16.0860    3.4940   11.2870 C   0  0  0  0  0  0  0  0  0  0  0  0
   16.8580    2.7370   11.4320 H   0  0  0  0  0  0  0  0  0  0  0  0
   15.5950    3.6980   12.2390 H   0  0  0  0  0  0  0  0  0  0  0  0
   16.7840    4.6690   10.9800 C   0  0  0  0  0  0  0  0  0  0  0  0
   16.3770    5.9420   11.4190 C   0  0  0  0  0  0  0  0  0  0  0  0
   17.2920    6.8680   10.9370 C   0  0  0  0  0  0  0  0  0  0  0  0
   18.2320    6.1260   10.2280 C   0  0  0  0  0  0  0  0  0  0  0  0
   15.1390    6.2520   12.2720 C   0  0  0  0  0  0  0  0  0  0  0  0
   14.6130    5.3250   12.4990 H   0  0  0  0  0  0  0  0  0  0  0  0
   14.4770    6.9210   11.7220 H   0  0  0  0  0  0  0  0  0  0  0  0
   15.4480    6.7310   13.2010 H   0  0  0  0  0  0  0  0  0  0  0  0
   19.4800    6.6300    9.5050 C   0  0  0  0  0  0  0  0  0  0  0  0
   19.5470    7.7140    9.6080 H   0  0  0  0  0  0  0  0  0  0  0  0
   19.4190    6.3690    8.4490 H   0  0  0  0  0  0  0  0  0  0  0  0
   20.3650    6.1690    9.9430 H   0  0  0  0  0  0  0  0  0  0  0  0
   17.3430    8.4230   11.1680 C   0  0  0  0  0  0  0  0  0  0  0  0
   18.6520   10.5340   11.0260 C   0  0  0  0  0  0  0  0  0  0  0  0
   18.6050   11.0100   10.0470 H   0  0  0  0  0  0  0  0  0  0  0  0
   17.8720   10.9440   11.6680 H   0  0  0  0  0  0  0  0  0  0  0  0
   20.0450   10.7630   11.6660 C   0  0  0  0  0  0  0  0  0  0  0  0
   20.7830   10.2390   11.0590 H   0  0  0  0  0  0  0  0  0  0  0  0
   20.0280   10.3350   12.6680 H   0  0  0  0  0  0  0  0  0  0  0  0
   21.6700   12.4780   10.9500 C   0  0  0  0  0  0  0  0  0  0  0  0
   22.4430   11.7440   11.1770 H   0  0  0  0  0  0  0  0  0  0  0  0
   22.0330   13.4760   11.1970 H   0  0  0  0  0  0  0  0  0  0  0  0
   20.6630   12.6490   13.1820 C   0  0  0  0  0  0  0  0  0  0  0  0
   21.3080   13.5270   13.1910 H   0  0  0  0  0  0  0  0  0  0  0  0
   21.1230   11.8540   13.7690 H   0  0  0  0  0  0  0  0  0  0  0  0
   13.9780    1.6900    8.9430 N   0  0  0  0  0  0  0  0  0  0  0  0
   17.9070    4.8360   10.2620 N   0  0  0  0  0  0  0  0  0  0  0  0
   18.4260    4.0940    9.8140 H   0  0  0  0  0  0  0  0  0  0  0  0
   18.4810    9.0630   10.8880 N   0  0  0  0  0  0  0  0  0  0  0  0
   19.2680    8.5190   10.5650 H   0  0  0  0  0  0  0  0  0  0  0  0
   20.4770   12.1860   11.7830 N   0  0  0  0  0  4  0  0  0  0  0  0
   19.7040   12.7250   11.4190 H   0  0  0  0  0  0  0  0  0  0  0  0
   16.2110    1.5650    8.8360 O   0  0  0  0  0  0  0  0  0  0  0  0
   16.3320    9.0110   11.5380 O   0  0  0  0  0  0  0  0  0  0  0  0
   19.2980   13.0100   13.7920 C   0  0  0  0  0  0  0  0  0  0  0  0
   19.4370   13.3490   14.8180 H   0  0  0  0  0  0  0  0  0  0  0  0
   18.6520   12.1320   13.7830 H   0  0  0  0  0  0  0  0  0  0  0  0
   18.8370   13.8050   13.2050 H   0  0  0  0  0  0  0  0  0  0  0  0
   21.3630   12.4230    9.4430 C   0  0  0  0  0  0  0  0  0  0  0  0
   22.2690   12.6450    8.8800 H   0  0  0  0  0  0  0  0  0  0  0  0
   20.5960   13.1590    9.2010 H   0  0  0  0  0  0  0  0  0  0  0  0
   21.0060   11.4270    9.1810 H   0  0  0  0  0  0  0  0  0  0  0  0
   10.7060    4.6410   12.7460 C   0  0  0  0  0  0  0  0  0  0  0  0
  1  6  1  0  0  0  0
  1 57  1  0  0  0  0
  2  1  2  0  0  0  0
  3  2  1  0  0  0  0
  4  9  2  0  0  0  0
  4  2  1  0  0  0  0
  5  4  1  0  0  0  0
  6  7  1  0  0  0  0
  8  6  2  0  0  0  0
  9  8  1  0  0  0  0
 10  8  1  0  0  0  0
 10 12  1  6  0  0  0
 11 10  1  0  0  0  0
 12 13  1  0  0  0  0
 12 14  1  0  0  0  0
 15 12  1  0  0  0  0
 15 16  2  0  0  0  0
 16 19  1  0  0  0  0
 17 27  1  0  0  0  0
 17 16  1  0  0  0  0
 18 41  1  0  0  0  0
 18 17  2  0  0  0  0
 19 20  1  0  0  0  0
 19 22  1  0  0  0  0
 21 19  1  0  0  0  0
 23 24  1  0  0  0  0
 23 26  1  0  0  0  0
 23 18  1  0  0  0  0
 25 23  1  0  0  0  0
 27 48  2  0  0  0  0
 28 31  1  0  0  0  0
 28 30  1  0  0  0  0
 29 28  1  0  0  0  0
 31 45  1  0  0  0  0
 31 33  1  0  0  0  0
 32 31  1  0  0  0  0
 34 35  1  0  0  0  0
 34 36  1  0  0  0  0
 34 45  1  0  0  0  0
 37 38  1  0  0  0  0
 37 39  1  0  0  0  0
 37 49  1  0  0  0  0
 40 11  1  0  0  0  0
 40  9  1  0  0  0  0
 41 15  1  0  0  0  0
 42 41  1  0  0  0  0
 43 28  1  0  0  0  0
 43 27  1  0  0  0  0
 44 43  1  0  0  0  0
 45 37  1  0  0  0  0
 46 45  1  0  0  0  0
 47 11  2  0  0  0  0
 49 50  1  0  0  0  0
 51 49  1  0  0  0  0
 52 49  1  0  0  0  0
 53 34  1  0  0  0  0
 54 53  1  0  0  0  0
 55 53  1  0  0  0  0
 56 53  1  0  0  0  0
M  END
>  <Pose>
1

>  <Score>
-6.93

$$$$

 OpenBabel03092210493D

 57 59  0  0  1  0  0  0  0  0999 V2000
   16.9350    4.8430   12.3800 C   0  0  0  0  0  0  0  0  0  0  0  0
   18.1760    4.6330   11.7520 C   0  0  0  0  0  0  0  0  0  0  0  0
   19.0590    5.1470   12.1030 H   0  0  0  0  0  0  0  0  0  0  0  0
   18.2550    3.7520   10.6730 C   0  0  0  0  0  0  0  0  0  0  0  0
   19.1980    3.5870   10.1740 H   0  0  0  0  0  0  0  0  0  0  0  0
   15.7850    4.1810   11.9440 C   0  0  0  0  0  0  0  0  0  0  0  0
   14.8390    4.3540   12.4350 H   0  0  0  0  0  0  0  0  0  0  0  0
   15.8670    3.3010   10.8750 C   0  0  0  0  0  0  0  0  0  0  0  0
   17.1030    3.0820   10.2400 C   0  0  0  0  0  0  0  0  0  0  0  0
   14.9080    2.5090   10.2180 C   0  0  1  0  0  0  0  0  0  0  0  0
   15.6260    1.8360    9.2140 C   0  0  0  0  0  0  0  0  0  0  0  0
   13.5420    2.4520   10.6060 C   0  0  0  0  0  0  0  0  0  0  0  0
   13.5510    2.0110   11.6030 H   0  0  0  0  0  0  0  0  0  0  0  0
   13.0780    1.7570    9.9060 H   0  0  0  0  0  0  0  0  0  0  0  0
   12.6490    3.5290   10.6940 C   0  0  0  0  0  0  0  0  0  0  0  0
   11.2720    3.4080   10.4360 C   0  0  0  0  0  0  0  0  0  0  0  0
   10.6970    4.6580   10.6170 C   0  0  0  0  0  0  0  0  0  0  0  0
   11.7430    5.4970   10.9890 C   0  0  0  0  0  0  0  0  0  0  0  0
   10.5380    2.1250   10.0220 C   0  0  0  0  0  0  0  0  0  0  0  0
   11.2500    1.3020    9.9600 H   0  0  0  0  0  0  0  0  0  0  0  0
   10.0680    2.2720    9.0490 H   0  0  0  0  0  0  0  0  0  0  0  0
    9.7730    1.8890   10.7620 H   0  0  0  0  0  0  0  0  0  0  0  0
   11.6810    6.9830   11.3390 C   0  0  0  0  0  0  0  0  0  0  0  0
   10.6530    7.3350   11.2470 H   0  0  0  0  0  0  0  0  0  0  0  0
   12.3200    7.5440   10.6570 H   0  0  0  0  0  0  0  0  0  0  0  0
   12.0250    7.1300   12.3630 H   0  0  0  0  0  0  0  0  0  0  0  0
    9.1860    5.0780   10.5070 C   0  0  0  0  0  0  0  0  0  0  0  0
    7.1960    6.0990   11.5990 C   0  0  0  0  0  0  0  0  0  0  0  0
    7.1170    7.0600   11.0900 H   0  0  0  0  0  0  0  0  0  0  0  0
    6.5490    5.3730   11.1070 H   0  0  0  0  0  0  0  0  0  0  0  0
    6.7960    6.2490   13.0890 C   0  0  0  0  0  0  0  0  0  0  0  0
    7.6630    6.6240   13.6330 H   0  0  0  0  0  0  0  0  0  0  0  0
    6.5300    5.2610   13.4650 H   0  0  0  0  0  0  0  0  0  0  0  0
    5.6080    8.3040   12.4110 C   0  0  0  0  0  0  0  0  0  0  0  0
    6.5720    8.3750   11.9070 H   0  0  0  0  0  0  0  0  0  0  0  0
    5.4220    9.2200   12.9700 H   0  0  0  0  0  0  0  0  0  0  0  0
    5.5720    7.6300   14.7710 C   0  0  0  0  0  0  0  0  0  0  0  0
    5.4810    8.7160   14.7900 H   0  0  0  0  0  0  0  0  0  0  0  0
    6.4750    7.3310   15.3030 H   0  0  0  0  0  0  0  0  0  0  0  0
   16.9020    2.1950    9.2510 N   0  0  0  0  0  0  0  0  0  0  0  0
   12.8830    4.8110   11.0200 N   0  0  0  0  0  0  0  0  0  0  0  0
   13.7870    5.1960   11.2520 H   0  0  0  0  0  0  0  0  0  0  0  0
    8.6050    5.6240   11.5790 N   0  0  0  0  0  0  0  0  0  0  0  0
    9.1530    5.7200   12.4220 H   0  0  0  0  0  0  0  0  0  0  0  0
    5.6520    7.1660   13.3630 N   0  0  0  0  0  4  0  0  0  0  0  0
    4.8250    6.6050   13.2130 H   0  0  0  0  0  0  0  0  0  0  0  0
   15.2010    1.0310    8.3750 O   0  0  0  0  0  0  0  0  0  0  0  0
    8.6000    4.9530    9.4370 O   0  0  0  0  0  0  0  0  0  0  0  0
    4.3450    7.0020   15.4520 C   0  0  0  0  0  0  0  0  0  0  0  0
    4.2880    7.3440   16.4860 H   0  0  0  0  0  0  0  0  0  0  0  0
    4.4350    5.9160   15.4330 H   0  0  0  0  0  0  0  0  0  0  0  0
    3.4410    7.3000   14.9210 H   0  0  0  0  0  0  0  0  0  0  0  0
    4.5060    8.1410   11.3490 C   0  0  0  0  0  0  0  0  0  0  0  0
    4.5180    9.0010   10.6790 H   0  0  0  0  0  0  0  0  0  0  0  0
    3.5350    8.0770   11.8400 H   0  0  0  0  0  0  0  0  0  0  0  0
    4.6850    7.2310   10.7760 H   0  0  0  0  0  0  0  0  0  0  0  0
   16.7990    5.9510   13.6950 C   0  0  0  0  0  0  0  0  0  0  0  0
  1 57  1  0  0  0  0
  2  3  1  0  0  0  0
  2  1  2  0  0  0  0
  4  2  1  0  0  0  0
  5  4  1  0  0  0  0
  6  1  1  0  0  0  0
  6  7  1  0  0  0  0
  8  6  2  0  0  0  0
  9  4  2  0  0  0  0
  9  8  1  0  0  0  0
 10 12  1  1  0  0  0
 10  8  1  0  0  0  0
 11 40  1  0  0  0  0
 11 10  1  0  0  0  0
 12 15  1  0  0  0  0
 12 13  1  0  0  0  0
 14 12  1  0  0  0  0
 15 41  1  0  0  0  0
 16 17  1  0  0  0  0
 16 15  2  0  0  0  0
 17 18  2  0  0  0  0
 18 41  1  0  0  0  0
 18 23  1  0  0  0  0
 19 16  1  0  0  0  0
 19 22  1  0  0  0  0
 20 19  1  0  0  0  0
 21 19  1  0  0  0  0
 23 26  1  0  0  0  0
 24 23  1  0  0  0  0
 25 23  1  0  0  0  0
 27 17  1  0  0  0  0
 27 43  1  0  0  0  0
 28 31  1  0  0  0  0
 29 28  1  0  0  0  0
 30 28  1  0  0  0  0
 31 45  1  0  0  0  0
 31 33  1  0  0  0  0
 31 32  1  0  0  0  0
 34 36  1  0  0  0  0
 34 45  1  0  0  0  0
 35 34  1  0  0  0  0
 37 38  1  0  0  0  0
 37 39  1  0  0  0  0
 37 49  1  0  0  0  0
 40  9  1  0  0  0  0
 41 42  1  0  0  0  0
 43 28  1  0  0  0  0
 43 44  1  0  0  0  0
 45 37  1  0  0  0  0
 46 45  1  0  0  0  0
 47 11  2  0  0  0  0
 48 27  2  0  0  0  0
 49 50  1  0  0  0  0
 51 49  1  0  0  0  0
 52 49  1  0  0  0  0
 53 55  1  0  0  0  0
 53 34  1  0  0  0  0
 54 53  1  0  0  0  0
 56 53  1  0  0  0  0
M  END
>  <Pose>
1

>  <Score>
-6.65

$$$$

 OpenBabel03092210493D

 57 59  0  0  1  0  0  0  0  0999 V2000
   14.6560    1.5630    9.1500 C   0  0  0  0  0  0  0  0  0  0  0  0
   14.9250    0.4790    8.2940 C   0  0  0  0  0  0  0  0  0  0  0  0
   15.9320    0.2940    7.9480 H   0  0  0  0  0  0  0  0  0  0  0  0
   13.8780   -0.3530    7.8970 C   0  0  0  0  0  0  0  0  0  0  0  0
   14.0670   -1.1830    7.2320 H   0  0  0  0  0  0  0  0  0  0  0  0
   13.3630    1.8130    9.6110 C   0  0  0  0  0  0  0  0  0  0  0  0
   13.1720    2.6490   10.2680 H   0  0  0  0  0  0  0  0  0  0  0  0
   12.3250    0.9800    9.2220 C   0  0  0  0  0  0  0  0  0  0  0  0
   12.5820   -0.1070    8.3660 C   0  0  0  0  0  0  0  0  0  0  0  0
   10.9470    0.9750    9.5070 C   0  0  1  0  0  0  0  0  0  0  0  0
   10.4390   -0.1340    8.8090 C   0  0  0  0  0  0  0  0  0  0  0  0
   10.3250    1.9190   10.3690 C   0  0  0  0  0  0  0  0  0  0  0  0
   10.3060    1.4390   11.3470 H   0  0  0  0  0  0  0  0  0  0  0  0
    9.3070    2.0170    9.9920 H   0  0  0  0  0  0  0  0  0  0  0  0
   10.7460    3.2320   10.6180 C   0  0  0  0  0  0  0  0  0  0  0  0
   11.9580    3.5420   11.2640 C   0  0  0  0  0  0  0  0  0  0  0  0
   12.0540    4.9240   11.3410 C   0  0  0  0  0  0  0  0  0  0  0  0
   10.9020    5.4110   10.7300 C   0  0  0  0  0  0  0  0  0  0  0  0
   12.9840    2.5310   11.7940 C   0  0  0  0  0  0  0  0  0  0  0  0
   12.6360    1.5190   11.5900 H   0  0  0  0  0  0  0  0  0  0  0  0
   13.1030    2.6640   12.8690 H   0  0  0  0  0  0  0  0  0  0  0  0
   13.9420    2.6930   11.3000 H   0  0  0  0  0  0  0  0  0  0  0  0
   10.4960    6.8680   10.5100 C   0  0  0  0  0  0  0  0  0  0  0  0
   11.2610    7.5250   10.9240 H   0  0  0  0  0  0  0  0  0  0  0  0
    9.5450    7.0590   11.0060 H   0  0  0  0  0  0  0  0  0  0  0  0
   10.3930    7.0580    9.4420 H   0  0  0  0  0  0  0  0  0  0  0  0
   13.2210    5.8040   11.9200 C   0  0  0  0  0  0  0  0  0  0  0  0
   13.9020    7.8360   13.1840 C   0  0  0  0  0  0  0  0  0  0  0  0
   13.4650    8.8200   13.3550 H   0  0  0  0  0  0  0  0  0  0  0  0
   14.2420    7.4200   14.1330 H   0  0  0  0  0  0  0  0  0  0  0  0
   15.0890    7.9440   12.1930 C   0  0  0  0  0  0  0  0  0  0  0  0
   14.6790    8.1100   11.1970 H   0  0  0  0  0  0  0  0  0  0  0  0
   15.6270    6.9960   12.2100 H   0  0  0  0  0  0  0  0  0  0  0  0
   17.4010    8.7510   11.8800 C   0  0  0  0  0  0  0  0  0  0  0  0
   18.0590    8.3750   12.6630 H   0  0  0  0  0  0  0  0  0  0  0  0
   17.8080    9.6790   11.4780 H   0  0  0  0  0  0  0  0  0  0  0  0
   16.1780    9.3950   13.9080 C   0  0  0  0  0  0  0  0  0  0  0  0
   17.0090    8.8530   14.3580 H   0  0  0  0  0  0  0  0  0  0  0  0
   15.2520    9.1310   14.4200 H   0  0  0  0  0  0  0  0  0  0  0  0
   11.4170   -0.7420    8.1510 N   0  0  0  0  0  0  0  0  0  0  0  0
   10.1450    4.3960   10.3210 N   0  0  0  0  0  0  0  0  0  0  0  0
    9.2530    4.4870    9.8560 H   0  0  0  0  0  0  0  0  0  0  0  0
   12.9010    6.9330   12.5580 N   0  0  0  0  0  0  0  0  0  0  0  0
   11.9250    7.1860   12.6200 H   0  0  0  0  0  0  0  0  0  0  0  0
   16.0690    9.0330   12.4720 N   0  0  0  0  0  4  0  0  0  0  0  0
   15.6910    9.8490   12.0130 H   0  0  0  0  0  0  0  0  0  0  0  0
    9.2700   -0.5350    8.7540 O   0  0  0  0  0  0  0  0  0  0  0  0
   14.3790    5.4100   11.8260 O   0  0  0  0  0  0  0  0  0  0  0  0
   16.4220   10.9080   14.0410 C   0  0  0  0  0  0  0  0  0  0  0  0
   16.5010   11.1720   15.0950 H   0  0  0  0  0  0  0  0  0  0  0  0
   15.5910   11.4510   13.5920 H   0  0  0  0  0  0  0  0  0  0  0  0
   17.3470   11.1730   13.5300 H   0  0  0  0  0  0  0  0  0  0  0  0
   17.3330    7.7100   10.7490 C   0  0  0  0  0  0  0  0  0  0  0  0
   18.3340    7.5410   10.3510 H   0  0  0  0  0  0  0  0  0  0  0  0
   16.6840    8.0780    9.9550 H   0  0  0  0  0  0  0  0  0  0  0  0
   16.9350    6.7740   11.1400 H   0  0  0  0  0  0  0  0  0  0  0  0
   15.9240    2.6300    9.6320 C   0  0  0  0  0  0  0  0  0  0  0  0
  1  6  1  0  0  0  0
  1 57  1  0  0  0  0
  2  1  2  0  0  0  0
  3  2  1  0  0  0  0
  4  2  1  0  0  0  0
  4  9  2  0  0  0  0
  5  4  1  0  0  0  0
  6  7  1  0  0  0  0
  8 10  1  0  0  0  0
  8  6  2  0  0  0  0
  9  8  1  0  0  0  0
 10 12  1  1  0  0  0
 11 10  1  0  0  0  0
 12 15  1  0  0  0  0
 12 13  1  0  0  0  0
 14 12  1  0  0  0  0
 15 16  2  0  0  0  0
 16 17  1  0  0  0  0
 16 19  1  0  0  0  0
 17 27  1  0  0  0  0
 18 17  2  0  0  0  0
 19 21  1  0  0  0  0
 20 19  1  0  0  0  0
 22 19  1  0  0  0  0
 23 18  1  0  0  0  0
 23 24  1  0  0  0  0
 23 25  1  0  0  0  0
 26 23  1  0  0  0  0
 27 43  1  0  0  0  0
 28 29  1  0  0  0  0
 28 30  1  0  0  0  0
 31 33  1  0  0  0  0
 31 45  1  0  0  0  0
 31 28  1  0  0  0  0
 32 31  1  0  0  0  0
 34 45  1  0  0  0  0
 34 35  1  0  0  0  0
 36 34  1  0  0  0  0
 37 49  1  0  0  0  0
 37 38  1  0  0  0  0
 37 39  1  0  0  0  0
 40  9  1  0  0  0  0
 40 11  1  0  0  0  0
 41 15  1  0  0  0  0
 41 18  1  0  0  0  0
 42 41  1  0  0  0  0
 43 44  1  0  0  0  0
 43 28  1  0  0  0  0
 45 37  1  0  0  0  0
 46 45  1  0  0  0  0
 47 11  2  0  0  0  0
 48 27  2  0  0  0  0
 49 50  1  0  0  0  0
 51 49  1  0  0  0  0
 52 49  1  0  0  0  0
 53 56  1  0  0  0  0
 53 34  1  0  0  0  0
 54 53  1  0  0  0  0
 55 53  1  0  0  0  0
M  END
>  <Pose>
1

>  <Score>
-5.95

$$$$

 OpenBabel03092210493D

 57 59  0  0  1  0  0  0  0  0999 V2000
    3.8010    6.9700   16.7670 C   0  0  0  0  0  0  0  0  0  0  0  0
    3.9410    7.8670   17.8420 C   0  0  0  0  0  0  0  0  0  0  0  0
    3.8140    7.5260   18.8580 H   0  0  0  0  0  0  0  0  0  0  0  0
    4.2450    9.2040   17.5800 C   0  0  0  0  0  0  0  0  0  0  0  0
    4.3460    9.9070   18.3930 H   0  0  0  0  0  0  0  0  0  0  0  0
    3.9680    7.3940   15.4480 C   0  0  0  0  0  0  0  0  0  0  0  0
    3.8560    6.6930   14.6340 H   0  0  0  0  0  0  0  0  0  0  0  0
    4.2770    8.7210   15.1900 C   0  0  0  0  0  0  0  0  0  0  0  0
    4.4200    9.6270   16.2560 C   0  0  0  0  0  0  0  0  0  0  0  0
    4.4960    9.4340   13.9970 C   0  0  1  0  0  0  0  0  0  0  0  0
    4.7730   10.7480   14.4110 C   0  0  0  0  0  0  0  0  0  0  0  0
    4.4600    8.8330   12.7100 C   0  0  0  0  0  0  0  0  0  0  0  0
    4.4730    9.6670   12.0080 H   0  0  0  0  0  0  0  0  0  0  0  0
    3.4940    8.3310   12.6600 H   0  0  0  0  0  0  0  0  0  0  0  0
    5.3760    7.9080   12.1900 C   0  0  0  0  0  0  0  0  0  0  0  0
    6.7700    8.0710   12.2850 C   0  0  0  0  0  0  0  0  0  0  0  0
    7.3650    6.9770   11.6710 C   0  0  0  0  0  0  0  0  0  0  0  0
    6.3120    6.1800   11.2310 C   0  0  0  0  0  0  0  0  0  0  0  0
    7.5010    9.2490   12.9430 C   0  0  0  0  0  0  0  0  0  0  0  0
    6.7710    9.9540   13.3390 H   0  0  0  0  0  0  0  0  0  0  0  0
    8.1240    9.7500   12.2010 H   0  0  0  0  0  0  0  0  0  0  0  0
    8.1280    8.8800   13.7540 H   0  0  0  0  0  0  0  0  0  0  0  0
    6.3860    4.8350   10.5090 C   0  0  0  0  0  0  0  0  0  0  0  0
    7.4300    4.5600   10.3590 H   0  0  0  0  0  0  0  0  0  0  0  0
    5.8890    4.9150    9.5420 H   0  0  0  0  0  0  0  0  0  0  0  0
    5.8920    4.0720   11.1100 H   0  0  0  0  0  0  0  0  0  0  0  0
    8.8920    6.6290   11.5340 C   0  0  0  0  0  0  0  0  0  0  0  0
   11.0970    6.3370   12.6510 C   0  0  0  0  0  0  0  0  0  0  0  0
   11.5060    6.3840   11.6410 H   0  0  0  0  0  0  0  0  0  0  0  0
   11.6380    7.0300   13.2950 H   0  0  0  0  0  0  0  0  0  0  0  0
   11.2100    4.8930   13.2060 C   0  0  0  0  0  0  0  0  0  0  0  0
   10.3240    4.3430   12.8890 H   0  0  0  0  0  0  0  0  0  0  0  0
   11.2300    4.9540   14.2940 H   0  0  0  0  0  0  0  0  0  0  0  0
   13.3580    4.9610   11.9930 C   0  0  0  0  0  0  0  0  0  0  0  0
   12.8690    5.9020   11.7410 H   0  0  0  0  0  0  0  0  0  0  0  0
   13.6240    4.4330   11.0770 H   0  0  0  0  0  0  0  0  0  0  0  0
   12.0900    2.8600   12.0540 C   0  0  0  0  0  0  0  0  0  0  0  0
   11.6870    2.1360   12.7610 H   0  0  0  0  0  0  0  0  0  0  0  0
   12.9970    2.4600   11.6010 H   0  0  0  0  0  0  0  0  0  0  0  0
    4.7180   10.8290   15.7330 N   0  0  0  0  0  0  0  0  0  0  0  0
    5.1530    6.7530   11.5410 N   0  0  0  0  0  0  0  0  0  0  0  0
    4.2410    6.3770   11.3220 H   0  0  0  0  0  0  0  0  0  0  0  0
    9.6490    6.6780   12.6330 N   0  0  0  0  0  0  0  0  0  0  0  0
    9.2150    6.9620   13.4990 H   0  0  0  0  0  0  0  0  0  0  0  0
   12.4090    4.1230   12.7670 N   0  0  0  0  0  4  0  0  0  0  0  0
   12.8680    3.8450   13.6230 H   0  0  0  0  0  0  0  0  0  0  0  0
    5.0230   11.7360   13.7080 O   0  0  0  0  0  0  0  0  0  0  0  0
    9.3340    6.2660   10.4490 O   0  0  0  0  0  0  0  0  0  0  0  0
   11.0500    3.1370   10.9560 C   0  0  0  0  0  0  0  0  0  0  0  0
   10.8170    2.2090   10.4330 H   0  0  0  0  0  0  0  0  0  0  0  0
   11.4530    3.8620   10.2480 H   0  0  0  0  0  0  0  0  0  0  0  0
   10.1420    3.5370   11.4070 H   0  0  0  0  0  0  0  0  0  0  0  0
   14.6460    5.2690   12.7770 C   0  0  0  0  0  0  0  0  0  0  0  0
   15.3050    5.8840   12.1650 H   0  0  0  0  0  0  0  0  0  0  0  0
   15.1500    4.3360   13.0280 H   0  0  0  0  0  0  0  0  0  0  0  0
   14.3950    5.8050   13.6920 H   0  0  0  0  0  0  0  0  0  0  0  0
    3.3920    5.3190   17.0580 C   0  0  0  0  0  0  0  0  0  0  0  0
  1 57  1  0  0  0  0
  1  2  1  0  0  0  0
  2  3  1  0  0  0  0
  4  2  2  0  0  0  0
  4  5  1  0  0  0  0
  6  1  2  0  0  0  0
  7  6  1  0  0  0  0
  8  6  1  0  0  0  0
  8  9  2  0  0  0  0
  9  4  1  0  0  0  0
 10 12  1  1  0  0  0
 10 11  1  0  0  0  0
 10  8  1  0  0  0  0
 11 40  1  0  0  0  0
 13 12  1  0  0  0  0
 14 12  1  0  0  0  0
 15 16  2  0  0  0  0
 15 12  1  0  0  0  0
 16 19  1  0  0  0  0
 17 16  1  0  0  0  0
 18 41  1  0  0  0  0
 18 17  2  0  0  0  0
 19 20  1  0  0  0  0
 19 22  1  0  0  0  0
 21 19  1  0  0  0  0
 23 26  1  0  0  0  0
 23 18  1  0  0  0  0
 24 23  1  0  0  0  0
 25 23  1  0  0  0  0
 27 17  1  0  0  0  0
 27 43  1  0  0  0  0
 28 31  1  0  0  0  0
 28 30  1  0  0  0  0
 29 28  1  0  0  0  0
 31 33  1  0  0  0  0
 32 31  1  0  0  0  0
 34 45  1  0  0  0  0
 34 53  1  0  0  0  0
 35 34  1  0  0  0  0
 36 34  1  0  0  0  0
 37 38  1  0  0  0  0
 37 45  1  0  0  0  0
 39 37  1  0  0  0  0
 40  9  1  0  0  0  0
 41 15  1  0  0  0  0
 42 41  1  0  0  0  0
 43 28  1  0  0  0  0
 43 44  1  0  0  0  0
 45 31  1  0  0  0  0
 45 46  1  0  0  0  0
 47 11  2  0  0  0  0
 48 27  2  0  0  0  0
 49 52  1  0  0  0  0
 49 37  1  0  0  0  0
 50 49  1  0  0  0  0
 51 49  1  0  0  0  0
 53 55  1  0  0  0  0
 53 56  1  0  0  0  0
 54 53  1  0  0  0  0
M  END
>  <Pose>
1

>  <Score>
-5.70

$$$$
