
 OpenBabel03102210463D

 57 59  0  0  1  0  0  0  0  0999 V2000
   11.1710   -0.2600    8.6080 C   0  0  0  0  0  0  0  0  0  0  0  0
   11.8200   -1.1170    7.7010 C   0  0  0  0  0  0  0  0  0  0  0  0
   11.2770   -1.9200    7.2250 H   0  0  0  0  0  0  0  0  0  0  0  0
   13.1730   -0.9180    7.4240 C   0  0  0  0  0  0  0  0  0  0  0  0
   13.6890   -1.5740    6.7380 H   0  0  0  0  0  0  0  0  0  0  0  0
   11.8550    0.7870    9.2280 C   0  0  0  0  0  0  0  0  0  0  0  0
   11.3430    1.4360    9.9220 H   0  0  0  0  0  0  0  0  0  0  0  0
   13.1980    0.9870    8.9460 C   0  0  0  0  0  0  0  0  0  0  0  0
   13.8590    0.1370    8.0400 C   0  0  0  0  0  0  0  0  0  0  0  0
   14.1390    1.9280    9.4030 C   0  0  1  0  0  0  0  0  0  0  0  0
   15.3300    1.6000    8.7340 C   0  0  0  0  0  0  0  0  0  0  0  0
   13.8200    2.9700   10.3160 C   0  0  0  0  0  0  0  0  0  0  0  0
   13.1360    2.5170   11.0330 H   0  0  0  0  0  0  0  0  0  0  0  0
   13.2860    3.7120    9.7220 H   0  0  0  0  0  0  0  0  0  0  0  0
   14.7220    3.7100   11.0930 C   0  0  0  0  0  0  0  0  0  0  0  0
   14.3170    4.5730   12.1280 C   0  0  0  0  0  0  0  0  0  0  0  0
   15.4600    5.1340   12.6800 C   0  0  0  0  0  0  0  0  0  0  0  0
   16.5240    4.5870   11.9690 C   0  0  0  0  0  0  0  0  0  0  0  0
   12.8710    4.8490   12.5620 C   0  0  0  0  0  0  0  0  0  0  0  0
   12.1890    4.2640   11.9460 H   0  0  0  0  0  0  0  0  0  0  0  0
   12.6520    5.9100   12.4420 H   0  0  0  0  0  0  0  0  0  0  0  0
   12.7470    4.5690   13.6080 H   0  0  0  0  0  0  0  0  0  0  0  0
   18.0180    4.8330   12.1710 C   0  0  0  0  0  0  0  0  0  0  0  0
   18.1630    5.5430   12.9850 H   0  0  0  0  0  0  0  0  0  0  0  0
   18.4470    5.2380   11.2540 H   0  0  0  0  0  0  0  0  0  0  0  0
   18.5110    3.8920   12.4170 H   0  0  0  0  0  0  0  0  0  0  0  0
   15.5880    6.1270   13.8930 C   0  0  0  0  0  0  0  0  0  0  0  0
   14.6220    7.0020   16.0120 C   0  0  0  0  0  0  0  0  0  0  0  0
   15.4390    7.7220   15.9520 H   0  0  0  0  0  0  0  0  0  0  0  0
   13.6750    7.5340   16.1060 H   0  0  0  0  0  0  0  0  0  0  0  0
   14.8280    6.0610   17.2270 C   0  0  0  0  0  0  0  0  0  0  0  0
   14.5990    5.0450   16.9060 H   0  0  0  0  0  0  0  0  0  0  0  0
   14.1280    6.3630   18.0060 H   0  0  0  0  0  0  0  0  0  0  0  0
   17.2010    5.4650   16.9000 C   0  0  0  0  0  0  0  0  0  0  0  0
   16.7320    5.3020   15.9290 H   0  0  0  0  0  0  0  0  0  0  0  0
   17.5290    4.5100   17.3100 H   0  0  0  0  0  0  0  0  0  0  0  0
   16.2710    5.4500   19.1710 C   0  0  0  0  0  0  0  0  0  0  0  0
   17.3130    5.3810   19.4820 H   0  0  0  0  0  0  0  0  0  0  0  0
   15.8330    4.4520   19.1450 H   0  0  0  0  0  0  0  0  0  0  0  0
   15.1350    0.5490    7.9490 N   0  0  0  0  0  0  0  0  0  0  0  0
   16.0630    3.7580   11.0360 N   0  0  0  0  0  0  0  0  0  0  0  0
   16.6350    3.2420   10.3830 H   0  0  0  0  0  0  0  0  0  0  0  0
   14.6080    6.1410   14.8000 N   0  0  0  0  0  0  0  0  0  0  0  0
   13.8150    5.5330   14.6550 H   0  0  0  0  0  0  0  0  0  0  0  0
   16.1970    6.0580   17.8190 N   0  0  0  0  0  4  0  0  0  0  0  0
   16.4300    7.0330   17.9450 H   0  0  0  0  0  0  0  0  0  0  0  0
   16.4360    2.1490    8.8230 O   0  0  0  0  0  0  0  0  0  0  0  0
   16.5990    6.8120   14.0090 O   0  0  0  0  0  0  0  0  0  0  0  0
   15.4940    6.3230   20.1720 C   0  0  0  0  0  0  0  0  0  0  0  0
   15.5500    5.8740   21.1640 H   0  0  0  0  0  0  0  0  0  0  0  0
   14.4520    6.3910   19.8620 H   0  0  0  0  0  0  0  0  0  0  0  0
   15.9320    7.3210   20.1990 H   0  0  0  0  0  0  0  0  0  0  0  0
   18.4310    6.3700   16.7090 C   0  0  0  0  0  0  0  0  0  0  0  0
   19.1330    5.8890   16.0280 H   0  0  0  0  0  0  0  0  0  0  0  0
   18.9130    6.5350   17.6720 H   0  0  0  0  0  0  0  0  0  0  0  0
   18.1170    7.3260   16.2910 H   0  0  0  0  0  0  0  0  0  0  0  0
    9.5070   -0.5010    8.9970 C   0  0  0  0  0  0  0  0  0  0  0  0
  1 57  1  0  0  0  0
  1  6  1  0  0  0  0
  2  1  2  0  0  0  0
  3  2  1  0  0  0  0
  4  2  1  0  0  0  0
  4  9  2  0  0  0  0
  5  4  1  0  0  0  0
  6  7  1  0  0  0  0
  8  6  2  0  0  0  0
  8 10  1  0  0  0  0
  9  8  1  0  0  0  0
 10 12  1  6  0  0  0
 11 47  2  0  0  0  0
 11 10  1  0  0  0  0
 12 13  1  0  0  0  0
 12 15  1  0  0  0  0
 14 12  1  0  0  0  0
 15 16  2  0  0  0  0
 16 19  1  0  0  0  0
 16 17  1  0  0  0  0
 17 27  1  0  0  0  0
 18 23  1  0  0  0  0
 18 17  2  0  0  0  0
 19 22  1  0  0  0  0
 20 19  1  0  0  0  0
 21 19  1  0  0  0  0
 23 26  1  0  0  0  0
 23 24  1  0  0  0  0
 25 23  1  0  0  0  0
 27 48  2  0  0  0  0
 27 43  1  0  0  0  0
 28 30  1  0  0  0  0
 28 31  1  0  0  0  0
 29 28  1  0  0  0  0
 31 45  1  0  0  0  0
 31 33  1  0  0  0  0
 32 31  1  0  0  0  0
 34 36  1  0  0  0  0
 34 45  1  0  0  0  0
 35 34  1  0  0  0  0
 37 38  1  0  0  0  0
 37 49  1  0  0  0  0
 39 37  1  0  0  0  0
 40  9  1  0  0  0  0
 40 11  1  0  0  0  0
 41 15  1  0  0  0  0
 41 18  1  0  0  0  0
 42 41  1  0  0  0  0
 43 28  1  0  0  0  0
 44 43  1  0  0  0  0
 45 46  1  0  0  0  0
 45 37  1  0  0  0  0
 49 52  1  0  0  0  0
 49 50  1  0  0  0  0
 51 49  1  0  0  0  0
 53 34  1  0  0  0  0
 53 55  1  0  0  0  0
 54 53  1  0  0  0  0
 56 53  1  0  0  0  0
M  END
>  <Pose>
1

>  <Score>
-7.62

$$$$

 OpenBabel03102210463D

 57 59  0  0  1  0  0  0  0  0999 V2000
   11.1670    0.0590    8.7450 C   0  0  0  0  0  0  0  0  0  0  0  0
   11.6990   -0.8610    7.8230 C   0  0  0  0  0  0  0  0  0  0  0  0
   11.0620   -1.6000    7.3610 H   0  0  0  0  0  0  0  0  0  0  0  0
   13.0590   -0.8090    7.5140 C   0  0  0  0  0  0  0  0  0  0  0  0
   13.4850   -1.5150    6.8170 H   0  0  0  0  0  0  0  0  0  0  0  0
   11.9750    1.0250    9.3470 C   0  0  0  0  0  0  0  0  0  0  0  0
   11.5520    1.7240   10.0530 H   0  0  0  0  0  0  0  0  0  0  0  0
   13.3250    1.0800    9.0330 C   0  0  0  0  0  0  0  0  0  0  0  0
   13.8680    0.1650    8.1130 C   0  0  0  0  0  0  0  0  0  0  0  0
   14.3720    1.9140    9.4670 C   0  0  1  0  0  0  0  0  0  0  0  0
   15.5040    1.4600    8.7710 C   0  0  0  0  0  0  0  0  0  0  0  0
   14.1890    2.9830   10.3870 C   0  0  0  0  0  0  0  0  0  0  0  0
   13.8130    2.5120   11.2950 H   0  0  0  0  0  0  0  0  0  0  0  0
   13.4060    3.6010    9.9480 H   0  0  0  0  0  0  0  0  0  0  0  0
   15.1640    3.8890   10.8250 C   0  0  0  0  0  0  0  0  0  0  0  0
   14.9060    4.8990   11.7700 C   0  0  0  0  0  0  0  0  0  0  0  0
   16.0860    5.6020   11.9690 C   0  0  0  0  0  0  0  0  0  0  0  0
   17.0260    4.9900   11.1450 C   0  0  0  0  0  0  0  0  0  0  0  0
   13.5590    5.1770   12.4520 C   0  0  0  0  0  0  0  0  0  0  0  0
   12.8170    4.4610   12.0970 H   0  0  0  0  0  0  0  0  0  0  0  0
   13.2320    6.1880   12.2120 H   0  0  0  0  0  0  0  0  0  0  0  0
   13.6720    5.0780   13.5320 H   0  0  0  0  0  0  0  0  0  0  0  0
   18.5050    5.3390   10.9820 C   0  0  0  0  0  0  0  0  0  0  0  0
   18.7510    6.1860   11.6220 H   0  0  0  0  0  0  0  0  0  0  0  0
   18.7040    5.5980    9.9420 H   0  0  0  0  0  0  0  0  0  0  0  0
   19.1140    4.4810   11.2660 H   0  0  0  0  0  0  0  0  0  0  0  0
   16.3730    6.7960   12.9510 C   0  0  0  0  0  0  0  0  0  0  0  0
   17.6130    8.9060   13.4000 C   0  0  0  0  0  0  0  0  0  0  0  0
   17.0550    8.8910   14.3360 H   0  0  0  0  0  0  0  0  0  0  0  0
   18.6820    8.9240   13.6140 H   0  0  0  0  0  0  0  0  0  0  0  0
   17.2160   10.1470   12.5610 C   0  0  0  0  0  0  0  0  0  0  0  0
   16.4580    9.8360   11.8410 H   0  0  0  0  0  0  0  0  0  0  0  0
   18.1030   10.4900   12.0290 H   0  0  0  0  0  0  0  0  0  0  0  0
   17.6610   12.3950   13.4780 C   0  0  0  0  0  0  0  0  0  0  0  0
   18.3300   12.3780   12.6180 H   0  0  0  0  0  0  0  0  0  0  0  0
   18.2360   12.2250   14.3880 H   0  0  0  0  0  0  0  0  0  0  0  0
   16.0720   10.9270   14.6380 C   0  0  0  0  0  0  0  0  0  0  0  0
   16.8170   11.0480   15.4250 H   0  0  0  0  0  0  0  0  0  0  0  0
   15.7440    9.8880   14.6040 H   0  0  0  0  0  0  0  0  0  0  0  0
   15.1790    0.4380    7.9920 N   0  0  0  0  0  0  0  0  0  0  0  0
   16.4570    3.9900   10.4770 N   0  0  0  0  0  0  0  0  0  0  0  0
   16.9270    3.3970    9.8080 H   0  0  0  0  0  0  0  0  0  0  0  0
   17.2750    7.7100   12.5840 N   0  0  0  0  0  0  0  0  0  0  0  0
   17.7530    7.5810   11.7030 H   0  0  0  0  0  0  0  0  0  0  0  0
   16.6690   11.3010   13.3310 N   0  0  0  0  0  4  0  0  0  0  0  0
   15.9030   11.6490   12.7710 H   0  0  0  0  0  0  0  0  0  0  0  0
   16.6650    1.8870    8.8330 O   0  0  0  0  0  0  0  0  0  0  0  0
   15.7280    6.8920   13.9900 O   0  0  0  0  0  0  0  0  0  0  0  0
   14.8650   11.8350   14.9330 C   0  0  0  0  0  0  0  0  0  0  0  0
   14.4290   11.5590   15.8930 H   0  0  0  0  0  0  0  0  0  0  0  0
   14.1200   11.7150   14.1470 H   0  0  0  0  0  0  0  0  0  0  0  0
   15.1930   12.8740   14.9670 H   0  0  0  0  0  0  0  0  0  0  0  0
   17.0000   13.7820   13.5630 C   0  0  0  0  0  0  0  0  0  0  0  0
   17.7700   14.5450   13.6690 H   0  0  0  0  0  0  0  0  0  0  0  0
   16.3330   13.8150   14.4250 H   0  0  0  0  0  0  0  0  0  0  0  0
   16.4270   13.9670   12.6540 H   0  0  0  0  0  0  0  0  0  0  0  0
    9.4970   -0.0020    9.1730 C   0  0  0  0  0  0  0  0  0  0  0  0
  1 57  1  0  0  0  0
  1  6  1  0  0  0  0
  2  1  2  0  0  0  0
  3  2  1  0  0  0  0
  4  2  1  0  0  0  0
  4  9  2  0  0  0  0
  5  4  1  0  0  0  0
  6  7  1  0  0  0  0
  8  6  2  0  0  0  0
  8 10  1  0  0  0  0
  9  8  1  0  0  0  0
 10 12  1  6  0  0  0
 11 47  2  0  0  0  0
 11 10  1  0  0  0  0
 12 15  1  0  0  0  0
 12 13  1  0  0  0  0
 14 12  1  0  0  0  0
 15 16  2  0  0  0  0
 16 17  1  0  0  0  0
 16 19  1  0  0  0  0
 17 27  1  0  0  0  0
 18 17  2  0  0  0  0
 19 22  1  0  0  0  0
 20 19  1  0  0  0  0
 21 19  1  0  0  0  0
 23 18  1  0  0  0  0
 23 26  1  0  0  0  0
 23 24  1  0  0  0  0
 25 23  1  0  0  0  0
 27 48  2  0  0  0  0
 28 30  1  0  0  0  0
 28 29  1  0  0  0  0
 31 45  1  0  0  0  0
 31 28  1  0  0  0  0
 32 31  1  0  0  0  0
 33 31  1  0  0  0  0
 34 53  1  0  0  0  0
 34 36  1  0  0  0  0
 35 34  1  0  0  0  0
 37 49  1  0  0  0  0
 37 38  1  0  0  0  0
 39 37  1  0  0  0  0
 40  9  1  0  0  0  0
 40 11  1  0  0  0  0
 41 15  1  0  0  0  0
 41 18  1  0  0  0  0
 42 41  1  0  0  0  0
 43 27  1  0  0  0  0
 43 28  1  0  0  0  0
 44 43  1  0  0  0  0
 45 34  1  0  0  0  0
 45 37  1  0  0  0  0
 46 45  1  0  0  0  0
 49 52  1  0  0  0  0
 49 50  1  0  0  0  0
 51 49  1  0  0  0  0
 53 54  1  0  0  0  0
 53 55  1  0  0  0  0
 56 53  1  0  0  0  0
M  END
>  <Pose>
2

>  <Score>
-7.58

$$$$

 OpenBabel03102210463D

 57 59  0  0  1  0  0  0  0  0999 V2000
   11.3640   -0.3760    8.7330 C   0  0  0  0  0  0  0  0  0  0  0  0
   11.9520   -0.9330    7.5830 C   0  0  0  0  0  0  0  0  0  0  0  0
   11.3960   -1.6220    6.9650 H   0  0  0  0  0  0  0  0  0  0  0  0
   13.2620   -0.5850    7.2500 C   0  0  0  0  0  0  0  0  0  0  0  0
   13.7320   -1.0120    6.3760 H   0  0  0  0  0  0  0  0  0  0  0  0
   12.0660    0.5200    9.5400 C   0  0  0  0  0  0  0  0  0  0  0  0
   11.6000    0.9390   10.4200 H   0  0  0  0  0  0  0  0  0  0  0  0
   13.3650    0.8710    9.2040 C   0  0  0  0  0  0  0  0  0  0  0  0
   13.9640    0.3210    8.0560 C   0  0  0  0  0  0  0  0  0  0  0  0
   14.3080    1.7230    9.8050 C   0  0  1  0  0  0  0  0  0  0  0  0
   15.4390    1.6520    8.9730 C   0  0  0  0  0  0  0  0  0  0  0  0
   14.0420    2.4780   10.9800 C   0  0  0  0  0  0  0  0  0  0  0  0
   14.9410    3.0730   11.1430 H   0  0  0  0  0  0  0  0  0  0  0  0
   13.9470    1.7380   11.7750 H   0  0  0  0  0  0  0  0  0  0  0  0
   12.9780    3.3670   11.1830 C   0  0  0  0  0  0  0  0  0  0  0  0
   13.0760    4.5110   11.9950 C   0  0  0  0  0  0  0  0  0  0  0  0
   11.8470    5.1550   11.9680 C   0  0  0  0  0  0  0  0  0  0  0  0
   11.0440    4.3860   11.1320 C   0  0  0  0  0  0  0  0  0  0  0  0
   14.3180    4.9620   12.7770 C   0  0  0  0  0  0  0  0  0  0  0  0
   15.1320    4.2580   12.6040 H   0  0  0  0  0  0  0  0  0  0  0  0
   14.0860    4.9950   13.8410 H   0  0  0  0  0  0  0  0  0  0  0  0
   14.6190    5.9540   12.4400 H   0  0  0  0  0  0  0  0  0  0  0  0
    9.5940    4.6410   10.7220 C   0  0  0  0  0  0  0  0  0  0  0  0
    9.2360    5.5520   11.2010 H   0  0  0  0  0  0  0  0  0  0  0  0
    8.9750    3.8000   11.0320 H   0  0  0  0  0  0  0  0  0  0  0  0
    9.5370    4.7540    9.6390 H   0  0  0  0  0  0  0  0  0  0  0  0
   11.4200    6.5020   12.6590 C   0  0  0  0  0  0  0  0  0  0  0  0
   11.1030    7.7820   14.7690 C   0  0  0  0  0  0  0  0  0  0  0  0
   11.9810    8.4180   14.8750 H   0  0  0  0  0  0  0  0  0  0  0  0
   10.3110    8.3360   14.2650 H   0  0  0  0  0  0  0  0  0  0  0  0
   10.6170    7.3050   16.1620 C   0  0  0  0  0  0  0  0  0  0  0  0
   10.4920    6.2230   16.1200 H   0  0  0  0  0  0  0  0  0  0  0  0
    9.6540    7.7740   16.3600 H   0  0  0  0  0  0  0  0  0  0  0  0
   11.5350    6.5350   18.3200 C   0  0  0  0  0  0  0  0  0  0  0  0
   10.7860    5.7920   18.0470 H   0  0  0  0  0  0  0  0  0  0  0  0
   11.2860    6.9630   19.2910 H   0  0  0  0  0  0  0  0  0  0  0  0
   11.2770    8.9440   17.9260 C   0  0  0  0  0  0  0  0  0  0  0  0
   11.8730    9.0350   18.8340 H   0  0  0  0  0  0  0  0  0  0  0  0
   10.2200    9.0380   18.1730 H   0  0  0  0  0  0  0  0  0  0  0  0
   15.2070    0.8230    7.9640 N   0  0  0  0  0  0  0  0  0  0  0  0
   11.7290    3.3350   10.6890 N   0  0  0  0  0  0  0  0  0  0  0  0
   11.3660    2.6220   10.0740 H   0  0  0  0  0  0  0  0  0  0  0  0
   11.4460    6.5610   13.9930 N   0  0  0  0  0  0  0  0  0  0  0  0
   11.7130    5.7310   14.5020 H   0  0  0  0  0  0  0  0  0  0  0  0
   11.5230    7.6170   17.3050 N   0  0  0  0  0  4  0  0  0  0  0  0
   12.4460    7.6730   16.8990 H   0  0  0  0  0  0  0  0  0  0  0  0
   16.5250    2.2290    9.1040 O   0  0  0  0  0  0  0  0  0  0  0  0
   11.1340    7.4720   11.9650 O   0  0  0  0  0  0  0  0  0  0  0  0
   11.6740   10.0560   16.9400 C   0  0  0  0  0  0  0  0  0  0  0  0
   11.4930   11.0290   17.3980 H   0  0  0  0  0  0  0  0  0  0  0  0
   11.0780    9.9650   16.0320 H   0  0  0  0  0  0  0  0  0  0  0  0
   12.7310    9.9620   16.6920 H   0  0  0  0  0  0  0  0  0  0  0  0
   12.9040    5.8410   18.4240 C   0  0  0  0  0  0  0  0  0  0  0  0
   12.8580    5.0580   19.1800 H   0  0  0  0  0  0  0  0  0  0  0  0
   13.6620    6.5720   18.7040 H   0  0  0  0  0  0  0  0  0  0  0  0
   13.1630    5.4010   17.4600 H   0  0  0  0  0  0  0  0  0  0  0  0
    9.7580   -0.8130    9.1900 C   0  0  0  0  0  0  0  0  0  0  0  0
  1 57  1  0  0  0  0
  1  6  1  0  0  0  0
  2  1  2  0  0  0  0
  3  2  1  0  0  0  0
  4  2  1  0  0  0  0
  4  9  2  0  0  0  0
  5  4  1  0  0  0  0
  6  7  1  0  0  0  0
  8  6  2  0  0  0  0
  8 10  1  0  0  0  0
  9  8  1  0  0  0  0
 10 12  1  6  0  0  0
 11 47  2  0  0  0  0
 11 10  1  0  0  0  0
 12 13  1  0  0  0  0
 12 15  1  0  0  0  0
 12 14  1  0  0  0  0
 15 16  2  0  0  0  0
 16 19  1  0  0  0  0
 17 16  1  0  0  0  0
 17 27  1  0  0  0  0
 18 17  2  0  0  0  0
 19 21  1  0  0  0  0
 20 19  1  0  0  0  0
 22 19  1  0  0  0  0
 23 25  1  0  0  0  0
 23 18  1  0  0  0  0
 23 24  1  0  0  0  0
 26 23  1  0  0  0  0
 27 43  1  0  0  0  0
 28 29  1  0  0  0  0
 28 31  1  0  0  0  0
 30 28  1  0  0  0  0
 31 33  1  0  0  0  0
 31 45  1  0  0  0  0
 32 31  1  0  0  0  0
 34 53  1  0  0  0  0
 34 36  1  0  0  0  0
 35 34  1  0  0  0  0
 37 39  1  0  0  0  0
 37 38  1  0  0  0  0
 40  9  1  0  0  0  0
 40 11  1  0  0  0  0
 41 18  1  0  0  0  0
 41 15  1  0  0  0  0
 42 41  1  0  0  0  0
 43 44  1  0  0  0  0
 43 28  1  0  0  0  0
 45 37  1  0  0  0  0
 45 34  1  0  0  0  0
 46 45  1  0  0  0  0
 48 27  2  0  0  0  0
 49 50  1  0  0  0  0
 49 37  1  0  0  0  0
 51 49  1  0  0  0  0
 52 49  1  0  0  0  0
 53 55  1  0  0  0  0
 53 54  1  0  0  0  0
 56 53  1  0  0  0  0
M  END
>  <Pose>
1

>  <Score>
-7.28

$$$$

 OpenBabel03102210463D

 57 59  0  0  1  0  0  0  0  0999 V2000
   11.9860   -0.0130    8.5290 C   0  0  0  0  0  0  0  0  0  0  0  0
   13.1040   -0.5280    7.8480 C   0  0  0  0  0  0  0  0  0  0  0  0
   13.0020   -1.3890    7.2040 H   0  0  0  0  0  0  0  0  0  0  0  0
   14.3470    0.0850    8.0150 C   0  0  0  0  0  0  0  0  0  0  0  0
   15.2170   -0.3040    7.5070 H   0  0  0  0  0  0  0  0  0  0  0  0
   12.0990    1.1020    9.3620 C   0  0  0  0  0  0  0  0  0  0  0  0
   11.2320    1.4850    9.8780 H   0  0  0  0  0  0  0  0  0  0  0  0
   13.3330    1.7140    9.5200 C   0  0  0  0  0  0  0  0  0  0  0  0
   14.4590    1.2090    8.8440 C   0  0  0  0  0  0  0  0  0  0  0  0
   13.7580    2.8230   10.2750 C   0  0  1  0  0  0  0  0  0  0  0  0
   15.1320    2.9370   10.0040 C   0  0  0  0  0  0  0  0  0  0  0  0
   12.8800    3.6080   11.0710 C   0  0  0  0  0  0  0  0  0  0  0  0
   13.4960    4.4230   11.4510 H   0  0  0  0  0  0  0  0  0  0  0  0
   12.5880    2.9570   11.8950 H   0  0  0  0  0  0  0  0  0  0  0  0
   11.6900    4.2190   10.6530 C   0  0  0  0  0  0  0  0  0  0  0  0
   10.8590    4.9550   11.5180 C   0  0  0  0  0  0  0  0  0  0  0  0
    9.7790    5.4140   10.7770 C   0  0  0  0  0  0  0  0  0  0  0  0
    9.9940    4.9510    9.4820 C   0  0  0  0  0  0  0  0  0  0  0  0
   11.1010    5.2000   13.0140 C   0  0  0  0  0  0  0  0  0  0  0  0
   12.0300    4.7170   13.3160 H   0  0  0  0  0  0  0  0  0  0  0  0
   10.2720    4.7860   13.5880 H   0  0  0  0  0  0  0  0  0  0  0  0
   11.1710    6.2720   13.2000 H   0  0  0  0  0  0  0  0  0  0  0  0
    9.1300    5.1810    8.2430 C   0  0  0  0  0  0  0  0  0  0  0  0
    8.2620    5.7840    8.5120 H   0  0  0  0  0  0  0  0  0  0  0  0
    8.7970    4.2210    7.8480 H   0  0  0  0  0  0  0  0  0  0  0  0
    9.7130    5.7030    7.4850 H   0  0  0  0  0  0  0  0  0  0  0  0
    8.5800    6.3240   11.2330 C   0  0  0  0  0  0  0  0  0  0  0  0
    6.2430    6.4660   12.0740 C   0  0  0  0  0  0  0  0  0  0  0  0
    6.1630    7.4270   11.5660 H   0  0  0  0  0  0  0  0  0  0  0  0
    5.3420    5.8820   11.8910 H   0  0  0  0  0  0  0  0  0  0  0  0
    6.4380    6.6830   13.5970 C   0  0  0  0  0  0  0  0  0  0  0  0
    6.4490    7.7560   13.7840 H   0  0  0  0  0  0  0  0  0  0  0  0
    7.4020    6.2560   13.8750 H   0  0  0  0  0  0  0  0  0  0  0  0
    5.0910    6.9300   15.6500 C   0  0  0  0  0  0  0  0  0  0  0  0
    5.3780    7.9560   15.4200 H   0  0  0  0  0  0  0  0  0  0  0  0
    5.6690    6.5730   16.5020 H   0  0  0  0  0  0  0  0  0  0  0  0
    5.6880    4.6770   14.8810 C   0  0  0  0  0  0  0  0  0  0  0  0
    5.0950    4.4220   15.7590 H   0  0  0  0  0  0  0  0  0  0  0  0
    6.7480    4.5800   15.1180 H   0  0  0  0  0  0  0  0  0  0  0  0
   15.5110    1.9790    9.1690 N   0  0  0  0  0  0  0  0  0  0  0  0
   11.1200    4.2430    9.4370 N   0  0  0  0  0  0  0  0  0  0  0  0
   11.4900    3.7930    8.6130 H   0  0  0  0  0  0  0  0  0  0  0  0
    7.4390    5.7280   11.5890 N   0  0  0  0  0  0  0  0  0  0  0  0
    7.3860    4.7220   11.5240 H   0  0  0  0  0  0  0  0  0  0  0  0
    5.3980    6.0760   14.4760 N   0  0  0  0  0  4  0  0  0  0  0  0
    4.5680    6.0260   13.9020 H   0  0  0  0  0  0  0  0  0  0  0  0
   15.9350    3.7660   10.4500 O   0  0  0  0  0  0  0  0  0  0  0  0
    8.7380    7.5380   11.3080 O   0  0  0  0  0  0  0  0  0  0  0  0
    5.3330    3.7220   13.7290 C   0  0  0  0  0  0  0  0  0  0  0  0
    5.5470    2.6960   14.0280 H   0  0  0  0  0  0  0  0  0  0  0  0
    5.9260    3.9750   12.8500 H   0  0  0  0  0  0  0  0  0  0  0  0
    4.2730    3.8170   13.4910 H   0  0  0  0  0  0  0  0  0  0  0  0
    3.5980    6.9060   16.0210 C   0  0  0  0  0  0  0  0  0  0  0  0
    3.4280    7.5470   16.8860 H   0  0  0  0  0  0  0  0  0  0  0  0
    3.2990    5.8850   16.2610 H   0  0  0  0  0  0  0  0  0  0  0  0
    3.0080    7.2680   15.1790 H   0  0  0  0  0  0  0  0  0  0  0  0
   10.4430   -0.7700    8.3710 C   0  0  0  0  0  0  0  0  0  0  0  0
  1  6  1  0  0  0  0
  2  4  1  0  0  0  0
  2  1  2  0  0  0  0
  3  2  1  0  0  0  0
  4  9  2  0  0  0  0
  5  4  1  0  0  0  0
  6  8  2  0  0  0  0
  6  7  1  0  0  0  0
  8 10  1  0  0  0  0
  9 40  1  0  0  0  0
  9  8  1  0  0  0  0
 10 12  1  6  0  0  0
 11 10  1  0  0  0  0
 11 47  2  0  0  0  0
 12 13  1  0  0  0  0
 12 14  1  0  0  0  0
 15 12  1  0  0  0  0
 15 16  2  0  0  0  0
 16 19  1  0  0  0  0
 17 27  1  0  0  0  0
 17 16  1  0  0  0  0
 18 17  2  0  0  0  0
 19 22  1  0  0  0  0
 19 20  1  0  0  0  0
 19 21  1  0  0  0  0
 23 24  1  0  0  0  0
 23 18  1  0  0  0  0
 25 23  1  0  0  0  0
 26 23  1  0  0  0  0
 27 48  2  0  0  0  0
 27 43  1  0  0  0  0
 28 31  1  0  0  0  0
 29 28  1  0  0  0  0
 30 28  1  0  0  0  0
 31 32  1  0  0  0  0
 31 33  1  0  0  0  0
 31 45  1  0  0  0  0
 34 53  1  0  0  0  0
 34 36  1  0  0  0  0
 35 34  1  0  0  0  0
 37 39  1  0  0  0  0
 37 38  1  0  0  0  0
 40 11  1  0  0  0  0
 41 18  1  0  0  0  0
 41 15  1  0  0  0  0
 42 41  1  0  0  0  0
 43 28  1  0  0  0  0
 44 43  1  0  0  0  0
 45 37  1  0  0  0  0
 45 34  1  0  0  0  0
 46 45  1  0  0  0  0
 49 50  1  0  0  0  0
 49 37  1  0  0  0  0
 51 49  1  0  0  0  0
 52 49  1  0  0  0  0
 53 55  1  0  0  0  0
 53 54  1  0  0  0  0
 56 53  1  0  0  0  0
 57  1  1  0  0  0  0
M  END
>  <Pose>
1

>  <Score>
-6.92

$$$$

 OpenBabel03102210463D

 57 59  0  0  1  0  0  0  0  0999 V2000
   10.6020   -0.0440    8.7770 C   0  0  0  0  0  0  0  0  0  0  0  0
   10.9170   -0.5700    7.5110 C   0  0  0  0  0  0  0  0  0  0  0  0
   10.1510   -1.0350    6.9080 H   0  0  0  0  0  0  0  0  0  0  0  0
   12.2290   -0.4860    7.0440 C   0  0  0  0  0  0  0  0  0  0  0  0
   12.4890   -0.8940    6.0780 H   0  0  0  0  0  0  0  0  0  0  0  0
   11.5790    0.5650    9.5680 C   0  0  0  0  0  0  0  0  0  0  0  0
   11.3220    0.9630   10.5380 H   0  0  0  0  0  0  0  0  0  0  0  0
   12.8800    0.6540    9.0990 C   0  0  0  0  0  0  0  0  0  0  0  0
   13.2070    0.1320    7.8330 C   0  0  0  0  0  0  0  0  0  0  0  0
   14.0580    1.1920    9.6490 C   0  0  1  0  0  0  0  0  0  0  0  0
   15.0440    0.9740    8.6730 C   0  0  0  0  0  0  0  0  0  0  0  0
   14.1040    1.8350   10.9170 C   0  0  0  0  0  0  0  0  0  0  0  0
   15.1350    2.1710   11.0250 H   0  0  0  0  0  0  0  0  0  0  0  0
   13.9020    1.0450   11.6410 H   0  0  0  0  0  0  0  0  0  0  0  0
   13.3230    2.9200   11.3360 C   0  0  0  0  0  0  0  0  0  0  0  0
   13.8710    4.1580   11.7200 C   0  0  0  0  0  0  0  0  0  0  0  0
   12.8190    4.9940   12.0710 C   0  0  0  0  0  0  0  0  0  0  0  0
   11.6660    4.2390   11.8800 C   0  0  0  0  0  0  0  0  0  0  0  0
   15.3630    4.5170   11.7510 C   0  0  0  0  0  0  0  0  0  0  0  0
   15.9500    3.6600   11.4210 H   0  0  0  0  0  0  0  0  0  0  0  0
   15.6510    4.7860   12.7670 H   0  0  0  0  0  0  0  0  0  0  0  0
   15.5470    5.3610   11.0860 H   0  0  0  0  0  0  0  0  0  0  0  0
   10.2140    4.6680   12.0880 C   0  0  0  0  0  0  0  0  0  0  0  0
   10.1860    5.7000   12.4370 H   0  0  0  0  0  0  0  0  0  0  0  0
    9.7470    4.0210   12.8300 H   0  0  0  0  0  0  0  0  0  0  0  0
    9.6730    4.5880   11.1450 H   0  0  0  0  0  0  0  0  0  0  0  0
   12.8600    6.4980   12.5260 C   0  0  0  0  0  0  0  0  0  0  0  0
   12.9410    8.1330   14.4000 C   0  0  0  0  0  0  0  0  0  0  0  0
   13.6420    8.1580   15.2340 H   0  0  0  0  0  0  0  0  0  0  0  0
   13.2620    8.8370   13.6330 H   0  0  0  0  0  0  0  0  0  0  0  0
   11.5150    8.4920   14.8910 C   0  0  0  0  0  0  0  0  0  0  0  0
   11.3640    8.0170   15.8600 H   0  0  0  0  0  0  0  0  0  0  0  0
   10.8010    8.0870   14.1730 H   0  0  0  0  0  0  0  0  0  0  0  0
    9.7760   10.2330   15.0880 C   0  0  0  0  0  0  0  0  0  0  0  0
    9.6330   11.3010   15.2550 H   0  0  0  0  0  0  0  0  0  0  0  0
    9.3340    9.6740   15.9140 H   0  0  0  0  0  0  0  0  0  0  0  0
   11.9260   10.8090   14.0550 C   0  0  0  0  0  0  0  0  0  0  0  0
   11.2200   11.1200   13.2860 H   0  0  0  0  0  0  0  0  0  0  0  0
   12.7400   10.2480   13.5950 H   0  0  0  0  0  0  0  0  0  0  0  0
   14.5170    0.3510    7.6270 N   0  0  0  0  0  0  0  0  0  0  0  0
   11.9890    3.0200   11.4550 N   0  0  0  0  0  0  0  0  0  0  0  0
   11.3310    2.2820   11.2530 H   0  0  0  0  0  0  0  0  0  0  0  0
   12.8660    6.7590   13.8360 N   0  0  0  0  0  0  0  0  0  0  0  0
   12.8170    5.9810   14.4780 H   0  0  0  0  0  0  0  0  0  0  0  0
   11.2320    9.9480   15.0460 N   0  0  0  0  0  4  0  0  0  0  0  0
   11.6230   10.1960   15.9440 H   0  0  0  0  0  0  0  0  0  0  0  0
   16.2440    1.2720    8.7150 O   0  0  0  0  0  0  0  0  0  0  0  0
   12.9460    7.3830   11.6810 O   0  0  0  0  0  0  0  0  0  0  0  0
   12.4950   12.0520   14.7600 C   0  0  0  0  0  0  0  0  0  0  0  0
   13.0040   12.6820   14.0310 H   0  0  0  0  0  0  0  0  0  0  0  0
   13.2020   11.7420   15.5290 H   0  0  0  0  0  0  0  0  0  0  0  0
   11.6810   12.6130   15.2200 H   0  0  0  0  0  0  0  0  0  0  0  0
    9.0600    9.8360   13.7850 C   0  0  0  0  0  0  0  0  0  0  0  0
    7.9980   10.0650   13.8700 H   0  0  0  0  0  0  0  0  0  0  0  0
    9.1890    8.7670   13.6110 H   0  0  0  0  0  0  0  0  0  0  0  0
    9.4870   10.3940   12.9520 H   0  0  0  0  0  0  0  0  0  0  0  0
    8.9960   -0.1640    9.3970 C   0  0  0  0  0  0  0  0  0  0  0  0
  1 57  1  0  0  0  0
  1  6  1  0  0  0  0
  2  1  2  0  0  0  0
  3  2  1  0  0  0  0
  4  2  1  0  0  0  0
  4  9  2  0  0  0  0
  5  4  1  0  0  0  0
  6  7  1  0  0  0  0
  8  6  2  0  0  0  0
  8 10  1  0  0  0  0
  9  8  1  0  0  0  0
 10 12  1  6  0  0  0
 11 47  2  0  0  0  0
 11 10  1  0  0  0  0
 12 13  1  0  0  0  0
 12 15  1  0  0  0  0
 12 14  1  0  0  0  0
 15 41  1  0  0  0  0
 15 16  2  0  0  0  0
 16 19  1  0  0  0  0
 16 17  1  0  0  0  0
 17 27  1  0  0  0  0
 18 17  2  0  0  0  0
 18 23  1  0  0  0  0
 19 21  1  0  0  0  0
 20 19  1  0  0  0  0
 22 19  1  0  0  0  0
 23 24  1  0  0  0  0
 23 25  1  0  0  0  0
 26 23  1  0  0  0  0
 27 43  1  0  0  0  0
 28 31  1  0  0  0  0
 28 29  1  0  0  0  0
 30 28  1  0  0  0  0
 31 45  1  0  0  0  0
 31 32  1  0  0  0  0
 33 31  1  0  0  0  0
 34 35  1  0  0  0  0
 34 36  1  0  0  0  0
 37 49  1  0  0  0  0
 37 45  1  0  0  0  0
 38 37  1  0  0  0  0
 39 37  1  0  0  0  0
 40  9  1  0  0  0  0
 40 11  1  0  0  0  0
 41 18  1  0  0  0  0
 42 41  1  0  0  0  0
 43 28  1  0  0  0  0
 43 44  1  0  0  0  0
 45 34  1  0  0  0  0
 45 46  1  0  0  0  0
 48 27  2  0  0  0  0
 49 52  1  0  0  0  0
 49 51  1  0  0  0  0
 50 49  1  0  0  0  0
 53 54  1  0  0  0  0
 53 34  1  0  0  0  0
 55 53  1  0  0  0  0
 56 53  1  0  0  0  0
M  END
>  <Pose>
1

>  <Score>
-6.78

$$$$

 OpenBabel03102210463D

 57 59  0  0  1  0  0  0  0  0999 V2000
   12.2530   -0.0560    8.6170 C   0  0  0  0  0  0  0  0  0  0  0  0
   13.2470   -0.3750    7.6750 C   0  0  0  0  0  0  0  0  0  0  0  0
   13.0570   -1.1120    6.9080 H   0  0  0  0  0  0  0  0  0  0  0  0
   14.4830    0.2700    7.7410 C   0  0  0  0  0  0  0  0  0  0  0  0
   15.2600    0.0290    7.0320 H   0  0  0  0  0  0  0  0  0  0  0  0
   12.4800    0.8980    9.6100 C   0  0  0  0  0  0  0  0  0  0  0  0
   11.7070    1.1310   10.3270 H   0  0  0  0  0  0  0  0  0  0  0  0
   13.7060    1.5430    9.6710 C   0  0  0  0  0  0  0  0  0  0  0  0
   14.7080    1.2330    8.7330 C   0  0  0  0  0  0  0  0  0  0  0  0
   14.2260    2.5230   10.5360 C   0  0  1  0  0  0  0  0  0  0  0  0
   15.5280    2.7640   10.0640 C   0  0  0  0  0  0  0  0  0  0  0  0
   13.4810    3.1010   11.5990 C   0  0  0  0  0  0  0  0  0  0  0  0
   13.9790    2.7660   12.5080 H   0  0  0  0  0  0  0  0  0  0  0  0
   12.4950    2.6420   11.5340 H   0  0  0  0  0  0  0  0  0  0  0  0
   13.2320    4.4650   11.8050 C   0  0  0  0  0  0  0  0  0  0  0  0
   11.9370    5.0150   11.8330 C   0  0  0  0  0  0  0  0  0  0  0  0
   12.0620    6.3780   12.0570 C   0  0  0  0  0  0  0  0  0  0  0  0
   13.4300    6.6130   12.1680 C   0  0  0  0  0  0  0  0  0  0  0  0
   10.6230    4.2450   11.6430 C   0  0  0  0  0  0  0  0  0  0  0  0
   10.8400    3.1880   11.4850 H   0  0  0  0  0  0  0  0  0  0  0  0
   10.0920    4.6400   10.7760 H   0  0  0  0  0  0  0  0  0  0  0  0
   10.0030    4.3590   12.5320 H   0  0  0  0  0  0  0  0  0  0  0  0
   14.1400    7.9370   12.4430 C   0  0  0  0  0  0  0  0  0  0  0  0
   13.4010    8.7330   12.5390 H   0  0  0  0  0  0  0  0  0  0  0  0
   14.8150    8.1660   11.6190 H   0  0  0  0  0  0  0  0  0  0  0  0
   14.7100    7.8580   13.3690 H   0  0  0  0  0  0  0  0  0  0  0  0
   10.9350    7.4610   12.2280 C   0  0  0  0  0  0  0  0  0  0  0  0
    8.7700    8.3940   11.4320 C   0  0  0  0  0  0  0  0  0  0  0  0
    9.0560    9.2960   11.9730 H   0  0  0  0  0  0  0  0  0  0  0  0
    8.4420    8.6620   10.4280 H   0  0  0  0  0  0  0  0  0  0  0  0
    7.6320    7.6580   12.1870 C   0  0  0  0  0  0  0  0  0  0  0  0
    8.0900    7.0220   12.9440 H   0  0  0  0  0  0  0  0  0  0  0  0
    7.0990    7.0380   11.4660 H   0  0  0  0  0  0  0  0  0  0  0  0
    5.3460    8.5870   12.1300 C   0  0  0  0  0  0  0  0  0  0  0  0
    5.2760    9.5470   11.6190 H   0  0  0  0  0  0  0  0  0  0  0  0
    4.5300    8.4960   12.8460 H   0  0  0  0  0  0  0  0  0  0  0  0
    7.1380    9.8940   13.1820 C   0  0  0  0  0  0  0  0  0  0  0  0
    6.4330   10.6380   12.8100 H   0  0  0  0  0  0  0  0  0  0  0  0
    8.1070   10.0420   12.7060 H   0  0  0  0  0  0  0  0  0  0  0  0
   15.7800    1.9940    9.0140 N   0  0  0  0  0  0  0  0  0  0  0  0
   14.0970    5.4730   12.0080 N   0  0  0  0  0  0  0  0  0  0  0  0
   15.1020    5.3790   12.0350 H   0  0  0  0  0  0  0  0  0  0  0  0
    9.9180    7.4520   11.3620 N   0  0  0  0  0  0  0  0  0  0  0  0
    9.9290    6.7670   10.6200 H   0  0  0  0  0  0  0  0  0  0  0  0
    6.6340    8.5340   12.8660 N   0  0  0  0  0  4  0  0  0  0  0  0
    6.4630    8.0920   13.7580 H   0  0  0  0  0  0  0  0  0  0  0  0
   16.3740    3.5460   10.5150 O   0  0  0  0  0  0  0  0  0  0  0  0
   10.9830    8.2400   13.1740 O   0  0  0  0  0  0  0  0  0  0  0  0
    7.2870   10.0480   14.7050 C   0  0  0  0  0  0  0  0  0  0  0  0
    7.6570   11.0470   14.9350 H   0  0  0  0  0  0  0  0  0  0  0  0
    7.9920    9.3050   15.0780 H   0  0  0  0  0  0  0  0  0  0  0  0
    6.3180    9.9010   15.1820 H   0  0  0  0  0  0  0  0  0  0  0  0
    5.2170    7.4630   11.0870 C   0  0  0  0  0  0  0  0  0  0  0  0
    4.2570    7.5490   10.5780 H   0  0  0  0  0  0  0  0  0  0  0  0
    5.2780    6.4960   11.5860 H   0  0  0  0  0  0  0  0  0  0  0  0
    6.0240    7.5480   10.3590 H   0  0  0  0  0  0  0  0  0  0  0  0
   10.7270   -0.8620    8.5820 C   0  0  0  0  0  0  0  0  0  0  0  0
  1  6  1  0  0  0  0
  2  4  1  0  0  0  0
  2  1  2  0  0  0  0
  3  2  1  0  0  0  0
  4  9  2  0  0  0  0
  5  4  1  0  0  0  0
  6  8  2  0  0  0  0
  6  7  1  0  0  0  0
  8 10  1  0  0  0  0
  9 40  1  0  0  0  0
  9  8  1  0  0  0  0
 10 12  1  6  0  0  0
 11 47  2  0  0  0  0
 11 10  1  0  0  0  0
 12 15  1  0  0  0  0
 12 13  1  0  0  0  0
 14 12  1  0  0  0  0
 15 16  2  0  0  0  0
 15 41  1  0  0  0  0
 16 17  1  0  0  0  0
 17 18  2  0  0  0  0
 17 27  1  0  0  0  0
 18 23  1  0  0  0  0
 19 16  1  0  0  0  0
 19 22  1  0  0  0  0
 20 19  1  0  0  0  0
 21 19  1  0  0  0  0
 23 24  1  0  0  0  0
 23 26  1  0  0  0  0
 25 23  1  0  0  0  0
 27 48  2  0  0  0  0
 28 29  1  0  0  0  0
 28 31  1  0  0  0  0
 30 28  1  0  0  0  0
 31 45  1  0  0  0  0
 31 32  1  0  0  0  0
 33 31  1  0  0  0  0
 34 36  1  0  0  0  0
 34 45  1  0  0  0  0
 35 34  1  0  0  0  0
 37 49  1  0  0  0  0
 38 37  1  0  0  0  0
 39 37  1  0  0  0  0
 40 11  1  0  0  0  0
 41 42  1  0  0  0  0
 41 18  1  0  0  0  0
 43 28  1  0  0  0  0
 43 27  1  0  0  0  0
 44 43  1  0  0  0  0
 45 37  1  0  0  0  0
 45 46  1  0  0  0  0
 49 50  1  0  0  0  0
 49 51  1  0  0  0  0
 49 52  1  0  0  0  0
 53 55  1  0  0  0  0
 53 34  1  0  0  0  0
 54 53  1  0  0  0  0
 56 53  1  0  0  0  0
 57  1  1  0  0  0  0
M  END
>  <Pose>
1

>  <Score>
-6.63

$$$$

 OpenBabel03102210463D

 57 59  0  0  1  0  0  0  0  0999 V2000
   11.3500   -0.0310    8.8620 C   0  0  0  0  0  0  0  0  0  0  0  0
   12.0700   -0.7070    7.8600 C   0  0  0  0  0  0  0  0  0  0  0  0
   11.5740   -1.4210    7.2190 H   0  0  0  0  0  0  0  0  0  0  0  0
   13.4310   -0.4450    7.7030 C   0  0  0  0  0  0  0  0  0  0  0  0
   14.0000   -0.9630    6.9460 H   0  0  0  0  0  0  0  0  0  0  0  0
   11.9740    0.9000    9.6940 C   0  0  0  0  0  0  0  0  0  0  0  0
   11.4080    1.4110   10.4590 H   0  0  0  0  0  0  0  0  0  0  0  0
   13.3250    1.1650    9.5320 C   0  0  0  0  0  0  0  0  0  0  0  0
   14.0560    0.4950    8.5330 C   0  0  0  0  0  0  0  0  0  0  0  0
   14.2160    2.0240   10.2010 C   0  0  1  0  0  0  0  0  0  0  0  0
   15.4500    1.8340    9.5580 C   0  0  0  0  0  0  0  0  0  0  0  0
   13.8210    2.8860   11.2610 C   0  0  0  0  0  0  0  0  0  0  0  0
   14.2610    2.4500   12.1580 H   0  0  0  0  0  0  0  0  0  0  0  0
   12.7360    2.7960   11.3080 H   0  0  0  0  0  0  0  0  0  0  0  0
   14.0760    4.2600   11.3640 C   0  0  0  0  0  0  0  0  0  0  0  0
   15.3600    4.7880   11.5950 C   0  0  0  0  0  0  0  0  0  0  0  0
   15.2450    6.1710   11.6370 C   0  0  0  0  0  0  0  0  0  0  0  0
   13.8970    6.4390   11.4190 C   0  0  0  0  0  0  0  0  0  0  0  0
   16.6520    3.9800   11.7760 C   0  0  0  0  0  0  0  0  0  0  0  0
   16.4300    2.9170   11.6920 H   0  0  0  0  0  0  0  0  0  0  0  0
   17.0750    4.1870   12.7590 H   0  0  0  0  0  0  0  0  0  0  0  0
   17.3690    4.2640   11.0050 H   0  0  0  0  0  0  0  0  0  0  0  0
   13.2080    7.8000   11.3360 C   0  0  0  0  0  0  0  0  0  0  0  0
   13.9440    8.5900   11.4880 H   0  0  0  0  0  0  0  0  0  0  0  0
   12.4400    7.8660   12.1070 H   0  0  0  0  0  0  0  0  0  0  0  0
   12.7480    7.9160   10.3550 H   0  0  0  0  0  0  0  0  0  0  0  0
   16.3720    7.2530   11.8180 C   0  0  0  0  0  0  0  0  0  0  0  0
   18.5150    7.9030   12.9020 C   0  0  0  0  0  0  0  0  0  0  0  0
   18.3690    8.8350   12.3550 H   0  0  0  0  0  0  0  0  0  0  0  0
   18.6110    8.1180   13.9660 H   0  0  0  0  0  0  0  0  0  0  0  0
   19.7840    7.1760   12.3880 C   0  0  0  0  0  0  0  0  0  0  0  0
   19.6310    6.1040   12.5170 H   0  0  0  0  0  0  0  0  0  0  0  0
   20.6260    7.4980   13.0000 H   0  0  0  0  0  0  0  0  0  0  0  0
   19.8670    6.2350   10.1080 C   0  0  0  0  0  0  0  0  0  0  0  0
   19.8210    5.3500   10.7440 H   0  0  0  0  0  0  0  0  0  0  0  0
   20.6830    6.1250    9.3930 H   0  0  0  0  0  0  0  0  0  0  0  0
   21.5140    7.9350   10.7560 C   0  0  0  0  0  0  0  0  0  0  0  0
   21.7890    7.8310    9.7060 H   0  0  0  0  0  0  0  0  0  0  0  0
   22.2100    7.3650   11.3710 H   0  0  0  0  0  0  0  0  0  0  0  0
   15.3250    0.9340    8.5920 N   0  0  0  0  0  0  0  0  0  0  0  0
   13.2290    5.2980   11.2690 N   0  0  0  0  0  0  0  0  0  0  0  0
   12.2350    5.2240   11.1090 H   0  0  0  0  0  0  0  0  0  0  0  0
   17.3690    6.9860   12.6650 N   0  0  0  0  0  0  0  0  0  0  0  0
   17.3430    6.1130   13.1740 H   0  0  0  0  0  0  0  0  0  0  0  0
   20.1370    7.4190   10.9600 N   0  0  0  0  0  4  0  0  0  0  0  0
   19.5200    8.1620   10.6620 H   0  0  0  0  0  0  0  0  0  0  0  0
   16.5360    2.3740    9.8070 O   0  0  0  0  0  0  0  0  0  0  0  0
   16.3430    8.2750   11.1410 O   0  0  0  0  0  0  0  0  0  0  0  0
   21.5740    9.4190   11.1560 C   0  0  0  0  0  0  0  0  0  0  0  0
   22.5850    9.7960   11.0050 H   0  0  0  0  0  0  0  0  0  0  0  0
   21.2990    9.5240   12.2060 H   0  0  0  0  0  0  0  0  0  0  0  0
   20.8780    9.9900   10.5400 H   0  0  0  0  0  0  0  0  0  0  0  0
   18.5440    6.3550    9.3320 C   0  0  0  0  0  0  0  0  0  0  0  0
   18.3960    5.4620    8.7250 H   0  0  0  0  0  0  0  0  0  0  0  0
   18.5800    7.2320    8.6860 H   0  0  0  0  0  0  0  0  0  0  0  0
   17.7180    6.4570   10.0360 H   0  0  0  0  0  0  0  0  0  0  0  0
    9.6730   -0.3590    9.1030 C   0  0  0  0  0  0  0  0  0  0  0  0
  1 57  1  0  0  0  0
  1  6  1  0  0  0  0
  2  1  2  0  0  0  0
  3  2  1  0  0  0  0
  4  2  1  0  0  0  0
  4  9  2  0  0  0  0
  5  4  1  0  0  0  0
  6  7  1  0  0  0  0
  8  6  2  0  0  0  0
  8 10  1  0  0  0  0
  9 40  1  0  0  0  0
  9  8  1  0  0  0  0
 10 12  1  6  0  0  0
 11 47  2  0  0  0  0
 11 10  1  0  0  0  0
 12 14  1  0  0  0  0
 12 15  1  0  0  0  0
 12 13  1  0  0  0  0
 15 16  2  0  0  0  0
 16 17  1  0  0  0  0
 16 19  1  0  0  0  0
 17 27  1  0  0  0  0
 18 17  2  0  0  0  0
 19 21  1  0  0  0  0
 20 19  1  0  0  0  0
 22 19  1  0  0  0  0
 23 18  1  0  0  0  0
 23 24  1  0  0  0  0
 23 25  1  0  0  0  0
 26 23  1  0  0  0  0
 27 43  1  0  0  0  0
 28 30  1  0  0  0  0
 29 28  1  0  0  0  0
 31 32  1  0  0  0  0
 31 28  1  0  0  0  0
 31 33  1  0  0  0  0
 34 35  1  0  0  0  0
 34 45  1  0  0  0  0
 36 34  1  0  0  0  0
 37 45  1  0  0  0  0
 37 49  1  0  0  0  0
 37 39  1  0  0  0  0
 38 37  1  0  0  0  0
 40 11  1  0  0  0  0
 41 15  1  0  0  0  0
 41 18  1  0  0  0  0
 42 41  1  0  0  0  0
 43 28  1  0  0  0  0
 43 44  1  0  0  0  0
 45 31  1  0  0  0  0
 46 45  1  0  0  0  0
 48 27  2  0  0  0  0
 49 51  1  0  0  0  0
 50 49  1  0  0  0  0
 52 49  1  0  0  0  0
 53 56  1  0  0  0  0
 53 34  1  0  0  0  0
 54 53  1  0  0  0  0
 55 53  1  0  0  0  0
M  END
>  <Pose>
1

>  <Score>
-6.39

$$$$

 OpenBabel03102210463D

 57 59  0  0  1  0  0  0  0  0999 V2000
   14.5720    1.4520    8.7980 C   0  0  0  0  0  0  0  0  0  0  0  0
   14.7790    0.2850    8.0400 C   0  0  0  0  0  0  0  0  0  0  0  0
   15.7630    0.0430    7.6680 H   0  0  0  0  0  0  0  0  0  0  0  0
   13.6980   -0.5570    7.7740 C   0  0  0  0  0  0  0  0  0  0  0  0
   13.8380   -1.4510    7.1850 H   0  0  0  0  0  0  0  0  0  0  0  0
   13.3070    1.7760    9.2910 C   0  0  0  0  0  0  0  0  0  0  0  0
   13.1630    2.6760    9.8710 H   0  0  0  0  0  0  0  0  0  0  0  0
   12.2350    0.9350    9.0320 C   0  0  0  0  0  0  0  0  0  0  0  0
   12.4300   -0.2360    8.2760 C   0  0  0  0  0  0  0  0  0  0  0  0
   10.8730    0.9900    9.3800 C   0  0  1  0  0  0  0  0  0  0  0  0
   10.3120   -0.1690    8.8170 C   0  0  0  0  0  0  0  0  0  0  0  0
   10.3110    2.0280   10.1730 C   0  0  0  0  0  0  0  0  0  0  0  0
   10.2860    1.6260   11.1860 H   0  0  0  0  0  0  0  0  0  0  0  0
    9.2930    2.1450    9.8030 H   0  0  0  0  0  0  0  0  0  0  0  0
   10.7990    3.3340   10.3120 C   0  0  0  0  0  0  0  0  0  0  0  0
   11.5220    3.7680   11.4380 C   0  0  0  0  0  0  0  0  0  0  0  0
   11.8460    5.1040   11.2430 C   0  0  0  0  0  0  0  0  0  0  0  0
   11.3180    5.4350    9.9990 C   0  0  0  0  0  0  0  0  0  0  0  0
   11.8810    2.9200   12.6660 C   0  0  0  0  0  0  0  0  0  0  0  0
   11.4930    1.9090   12.5350 H   0  0  0  0  0  0  0  0  0  0  0  0
   11.4410    3.3660   13.5580 H   0  0  0  0  0  0  0  0  0  0  0  0
   12.9650    2.8810   12.7760 H   0  0  0  0  0  0  0  0  0  0  0  0
   11.3990    6.7740    9.2660 C   0  0  0  0  0  0  0  0  0  0  0  0
   11.9480    7.4900    9.8790 H   0  0  0  0  0  0  0  0  0  0  0  0
   10.3930    7.1500    9.0820 H   0  0  0  0  0  0  0  0  0  0  0  0
   11.9150    6.6380    8.3160 H   0  0  0  0  0  0  0  0  0  0  0  0
   12.6860    6.0640   12.1620 C   0  0  0  0  0  0  0  0  0  0  0  0
   13.1040    8.3800   12.9680 C   0  0  0  0  0  0  0  0  0  0  0  0
   13.8900    8.8720   12.3950 H   0  0  0  0  0  0  0  0  0  0  0  0
   12.3910    9.1260   13.3210 H   0  0  0  0  0  0  0  0  0  0  0  0
   13.7170    7.6160   14.1690 C   0  0  0  0  0  0  0  0  0  0  0  0
   14.5410    8.2130   14.5610 H   0  0  0  0  0  0  0  0  0  0  0  0
   14.1010    6.6650   13.8000 H   0  0  0  0  0  0  0  0  0  0  0  0
   11.4140    7.8320   15.0310 C   0  0  0  0  0  0  0  0  0  0  0  0
   11.4800    8.6810   14.3510 H   0  0  0  0  0  0  0  0  0  0  0  0
   10.9730    8.1560   15.9740 H   0  0  0  0  0  0  0  0  0  0  0  0
   13.2820    7.7720   16.6230 C   0  0  0  0  0  0  0  0  0  0  0  0
   12.4360    7.9460   17.2880 H   0  0  0  0  0  0  0  0  0  0  0  0
   13.8490    8.6960   16.5070 H   0  0  0  0  0  0  0  0  0  0  0  0
   11.2440   -0.8610    8.1770 N   0  0  0  0  0  0  0  0  0  0  0  0
   10.7000    4.3800    9.4750 N   0  0  0  0  0  0  0  0  0  0  0  0
   10.2270    4.3670    8.5830 H   0  0  0  0  0  0  0  0  0  0  0  0
   12.4120    7.3700   12.1240 N   0  0  0  0  0  0  0  0  0  0  0  0
   11.6960    7.6890   11.4880 H   0  0  0  0  0  0  0  0  0  0  0  0
   12.7840    7.3270   15.2970 N   0  0  0  0  0  4  0  0  0  0  0  0
   12.7390    6.3190   15.3470 H   0  0  0  0  0  0  0  0  0  0  0  0
    9.1330   -0.5460    8.8550 O   0  0  0  0  0  0  0  0  0  0  0  0
   13.5210    5.5900   12.9260 O   0  0  0  0  0  0  0  0  0  0  0  0
   14.1900    6.6860   17.2240 C   0  0  0  0  0  0  0  0  0  0  0  0
   14.5540    7.0150   18.1980 H   0  0  0  0  0  0  0  0  0  0  0  0
   15.0370    6.5120   16.5600 H   0  0  0  0  0  0  0  0  0  0  0  0
   13.6240    5.7620   17.3410 H   0  0  0  0  0  0  0  0  0  0  0  0
   10.5050    6.7630   14.4010 C   0  0  0  0  0  0  0  0  0  0  0  0
    9.5150    7.1850   14.2280 H   0  0  0  0  0  0  0  0  0  0  0  0
   10.4230    5.9110   15.0760 H   0  0  0  0  0  0  0  0  0  0  0  0
   10.9310    6.4360   13.4530 H   0  0  0  0  0  0  0  0  0  0  0  0
   15.8810    2.5300    9.1140 C   0  0  0  0  0  0  0  0  0  0  0  0
  1 57  1  0  0  0  0
  1  6  1  0  0  0  0
  2  1  2  0  0  0  0
  3  2  1  0  0  0  0
  4  2  1  0  0  0  0
  4  9  2  0  0  0  0
  5  4  1  0  0  0  0
  6  7  1  0  0  0  0
  8  6  2  0  0  0  0
  8 10  1  0  0  0  0
  9  8  1  0  0  0  0
 10 12  1  1  0  0  0
 11 47  2  0  0  0  0
 11 10  1  0  0  0  0
 12 15  1  0  0  0  0
 12 13  1  0  0  0  0
 14 12  1  0  0  0  0
 15 16  2  0  0  0  0
 16 19  1  0  0  0  0
 17 16  1  0  0  0  0
 17 27  1  0  0  0  0
 18 17  2  0  0  0  0
 19 22  1  0  0  0  0
 19 21  1  0  0  0  0
 20 19  1  0  0  0  0
 23 24  1  0  0  0  0
 23 18  1  0  0  0  0
 25 23  1  0  0  0  0
 26 23  1  0  0  0  0
 27 48  2  0  0  0  0
 28 30  1  0  0  0  0
 28 31  1  0  0  0  0
 29 28  1  0  0  0  0
 31 32  1  0  0  0  0
 31 45  1  0  0  0  0
 33 31  1  0  0  0  0
 34 45  1  0  0  0  0
 34 36  1  0  0  0  0
 35 34  1  0  0  0  0
 37 49  1  0  0  0  0
 37 38  1  0  0  0  0
 39 37  1  0  0  0  0
 40  9  1  0  0  0  0
 40 11  1  0  0  0  0
 41 18  1  0  0  0  0
 41 15  1  0  0  0  0
 42 41  1  0  0  0  0
 43 27  1  0  0  0  0
 43 28  1  0  0  0  0
 44 43  1  0  0  0  0
 45 46  1  0  0  0  0
 45 37  1  0  0  0  0
 49 52  1  0  0  0  0
 49 50  1  0  0  0  0
 51 49  1  0  0  0  0
 53 34  1  0  0  0  0
 53 55  1  0  0  0  0
 54 53  1  0  0  0  0
 56 53  1  0  0  0  0
M  END
>  <Pose>
1

>  <Score>
-6.06

$$$$

 OpenBabel03102210463D

 57 59  0  0  1  0  0  0  0  0999 V2000
   11.7750   -0.1900    8.6460 C   0  0  0  0  0  0  0  0  0  0  0  0
   12.6690   -0.6210    7.6490 C   0  0  0  0  0  0  0  0  0  0  0  0
   12.3560   -1.3450    6.9120 H   0  0  0  0  0  0  0  0  0  0  0  0
   13.9640   -0.1030    7.6240 C   0  0  0  0  0  0  0  0  0  0  0  0
   14.6660   -0.4310    6.8720 H   0  0  0  0  0  0  0  0  0  0  0  0
   12.1610    0.7500    9.6030 C   0  0  0  0  0  0  0  0  0  0  0  0
   11.4630    1.0700   10.3620 H   0  0  0  0  0  0  0  0  0  0  0  0
   13.4460    1.2690    9.5720 C   0  0  0  0  0  0  0  0  0  0  0  0
   14.3490    0.8460    8.5800 C   0  0  0  0  0  0  0  0  0  0  0  0
   14.1170    2.2040   10.3820 C   0  0  1  0  0  0  0  0  0  0  0  0
   15.4020    2.3050    9.8240 C   0  0  0  0  0  0  0  0  0  0  0  0
   13.5030    2.8690   11.4790 C   0  0  0  0  0  0  0  0  0  0  0  0
   13.6650    2.2120   12.3330 H   0  0  0  0  0  0  0  0  0  0  0  0
   12.4410    2.8940   11.2350 H   0  0  0  0  0  0  0  0  0  0  0  0
   13.7980    4.1560   11.9500 C   0  0  0  0  0  0  0  0  0  0  0  0
   14.3460    4.4010   13.2220 C   0  0  0  0  0  0  0  0  0  0  0  0
   14.5070    5.7740   13.3540 C   0  0  0  0  0  0  0  0  0  0  0  0
   14.0610    6.3170   12.1530 C   0  0  0  0  0  0  0  0  0  0  0  0
   14.6960    3.3420   14.2770 C   0  0  0  0  0  0  0  0  0  0  0  0
   14.4600    2.3520   13.8890 H   0  0  0  0  0  0  0  0  0  0  0  0
   14.1180    3.5260   15.1820 H   0  0  0  0  0  0  0  0  0  0  0  0
   15.7600    3.3980   14.5080 H   0  0  0  0  0  0  0  0  0  0  0  0
   14.0340    7.7870   11.7370 C   0  0  0  0  0  0  0  0  0  0  0  0
   14.4210    8.4020   12.5490 H   0  0  0  0  0  0  0  0  0  0  0  0
   13.0080    8.0830   11.5150 H   0  0  0  0  0  0  0  0  0  0  0  0
   14.6520    7.9250   10.8490 H   0  0  0  0  0  0  0  0  0  0  0  0
   15.1210    6.5880   14.5520 C   0  0  0  0  0  0  0  0  0  0  0  0
   15.4180    6.8190   17.0110 C   0  0  0  0  0  0  0  0  0  0  0  0
   16.3290    6.3140   17.3310 H   0  0  0  0  0  0  0  0  0  0  0  0
   15.6360    7.8670   16.8080 H   0  0  0  0  0  0  0  0  0  0  0  0
   14.3300    6.7030   18.1090 C   0  0  0  0  0  0  0  0  0  0  0  0
   14.2120    7.6840   18.5690 H   0  0  0  0  0  0  0  0  0  0  0  0
   14.6830    5.9920   18.8570 H   0  0  0  0  0  0  0  0  0  0  0  0
   12.1860    7.3640   17.0820 C   0  0  0  0  0  0  0  0  0  0  0  0
   12.2120    7.2990   15.9940 H   0  0  0  0  0  0  0  0  0  0  0  0
   12.6270    8.3080   17.4000 H   0  0  0  0  0  0  0  0  0  0  0  0
   12.2200    5.4870   18.6630 C   0  0  0  0  0  0  0  0  0  0  0  0
   12.0780    4.4630   18.3170 H   0  0  0  0  0  0  0  0  0  0  0  0
   11.2490    5.9580   18.8130 H   0  0  0  0  0  0  0  0  0  0  0  0
   15.5080    1.4990    8.7770 N   0  0  0  0  0  0  0  0  0  0  0  0
   13.6410    5.3460   11.3470 N   0  0  0  0  0  0  0  0  0  0  0  0
   13.2620    5.4820   10.4210 H   0  0  0  0  0  0  0  0  0  0  0  0
   14.8700    6.1650   15.7930 N   0  0  0  0  0  0  0  0  0  0  0  0
   14.2750    5.3570   15.9120 H   0  0  0  0  0  0  0  0  0  0  0  0
   12.9870    6.2490   17.6450 N   0  0  0  0  0  4  0  0  0  0  0  0
   13.1760    5.5950   16.8990 H   0  0  0  0  0  0  0  0  0  0  0  0
   16.3500    3.0040   10.2050 O   0  0  0  0  0  0  0  0  0  0  0  0
   15.8560    7.5420   14.3200 O   0  0  0  0  0  0  0  0  0  0  0  0
   12.9960    5.4760   19.9910 C   0  0  0  0  0  0  0  0  0  0  0  0
   12.4310    4.9150   20.7360 H   0  0  0  0  0  0  0  0  0  0  0  0
   13.1390    6.4990   20.3370 H   0  0  0  0  0  0  0  0  0  0  0  0
   13.9670    5.0040   19.8410 H   0  0  0  0  0  0  0  0  0  0  0  0
   10.7180    7.3250   17.5430 C   0  0  0  0  0  0  0  0  0  0  0  0
   10.1770    8.1620   17.1020 H   0  0  0  0  0  0  0  0  0  0  0  0
   10.6770    7.3980   18.6300 H   0  0  0  0  0  0  0  0  0  0  0  0
   10.2610    6.3880   17.2240 H   0  0  0  0  0  0  0  0  0  0  0  0
   10.1770   -0.8380    8.7240 C   0  0  0  0  0  0  0  0  0  0  0  0
  1 57  1  0  0  0  0
  1  6  1  0  0  0  0
  2  1  2  0  0  0  0
  3  2  1  0  0  0  0
  4  2  1  0  0  0  0
  4  9  2  0  0  0  0
  5  4  1  0  0  0  0
  6  7  1  0  0  0  0
  8  6  2  0  0  0  0
  8 10  1  0  0  0  0
  9 40  1  0  0  0  0
  9  8  1  0  0  0  0
 10 12  1  6  0  0  0
 11 47  2  0  0  0  0
 11 10  1  0  0  0  0
 12 15  1  0  0  0  0
 12 13  1  0  0  0  0
 14 12  1  0  0  0  0
 15 16  2  0  0  0  0
 16 17  1  0  0  0  0
 16 19  1  0  0  0  0
 17 27  1  0  0  0  0
 18 17  2  0  0  0  0
 19 22  1  0  0  0  0
 19 21  1  0  0  0  0
 20 19  1  0  0  0  0
 23 18  1  0  0  0  0
 23 24  1  0  0  0  0
 25 23  1  0  0  0  0
 26 23  1  0  0  0  0
 27 43  1  0  0  0  0
 28 29  1  0  0  0  0
 28 31  1  0  0  0  0
 30 28  1  0  0  0  0
 31 32  1  0  0  0  0
 31 33  1  0  0  0  0
 34 36  1  0  0  0  0
 34 53  1  0  0  0  0
 34 45  1  0  0  0  0
 35 34  1  0  0  0  0
 37 39  1  0  0  0  0
 37 49  1  0  0  0  0
 38 37  1  0  0  0  0
 40 11  1  0  0  0  0
 41 15  1  0  0  0  0
 41 18  1  0  0  0  0
 42 41  1  0  0  0  0
 43 44  1  0  0  0  0
 43 28  1  0  0  0  0
 45 31  1  0  0  0  0
 45 37  1  0  0  0  0
 46 45  1  0  0  0  0
 48 27  2  0  0  0  0
 49 51  1  0  0  0  0
 49 50  1  0  0  0  0
 52 49  1  0  0  0  0
 53 55  1  0  0  0  0
 54 53  1  0  0  0  0
 56 53  1  0  0  0  0
M  END
>  <Pose>
1

>  <Score>
-5.87

$$$$
