
 OpenBabel03102210453D

 42 46  0  0  0  0  0  0  0  0999 V2000
  -38.7300  -69.0220   52.3540 C   0  0  0  0  0  0  0  0  0  0  0  0
  -38.4680  -70.1590   53.1220 C   0  0  0  0  0  0  0  0  0  0  0  0
  -37.5860  -70.7510   52.9240 H   0  0  0  0  0  0  0  0  0  0  0  0
  -39.3450  -70.5360   54.1480 C   0  0  0  0  0  0  0  0  0  0  0  0
  -39.1460  -71.4120   54.7470 H   0  0  0  0  0  0  0  0  0  0  0  0
  -39.8640  -68.2510   52.6000 C   0  0  0  0  0  0  0  0  0  0  0  0
  -40.0650  -67.3680   52.0100 H   0  0  0  0  0  0  0  0  0  0  0  0
  -40.7310  -68.6340   53.6120 C   0  0  0  0  0  0  0  0  0  0  0  0
  -40.4780  -69.7600   54.3810 C   0  0  0  0  0  0  0  0  0  0  0  0
  -41.4780  -69.8690   55.2650 N   0  0  0  0  0  0  0  0  0  0  0  0
  -41.5760  -70.5950   55.9600 H   0  0  0  0  0  0  0  0  0  0  0  0
  -42.3600  -68.8090   55.0620 N   0  0  0  0  0  0  0  0  0  0  0  0
  -41.9060  -68.0410   54.0620 C   0  0  0  0  0  0  0  0  0  0  0  0
  -42.6310  -66.8420   53.5430 C   0  0  0  0  0  0  0  0  0  0  0  0
  -42.2150  -66.3780   52.2990 C   0  0  0  0  0  0  0  0  0  0  0  0
  -41.4280  -66.9030   51.7780 H   0  0  0  0  0  0  0  0  0  0  0  0
  -42.7860  -65.2550   51.7100 C   0  0  0  0  0  0  0  0  0  0  0  0
  -43.8040  -64.5690   52.3760 C   0  0  0  0  0  0  0  0  0  0  0  0
  -44.2620  -63.6990   51.9280 H   0  0  0  0  0  0  0  0  0  0  0  0
  -44.2210  -65.0240   53.6320 C   0  0  0  0  0  0  0  0  0  0  0  0
  -45.0070  -64.4980   54.1540 H   0  0  0  0  0  0  0  0  0  0  0  0
  -43.6370  -66.1500   54.2210 C   0  0  0  0  0  0  0  0  0  0  0  0
  -43.9630  -66.4830   55.1950 H   0  0  0  0  0  0  0  0  0  0  0  0
  -42.3170  -64.9100   50.4780 N   0  0  0  0  0  0  0  0  0  0  0  0
  -42.8530  -65.2240   49.6820 H   0  0  0  0  0  0  0  0  0  0  0  0
  -37.7930  -68.6180   51.2700 C   0  0  0  0  0  0  0  0  0  0  0  0
  -36.5630  -69.1300   51.0510 N   0  0  0  0  0  0  0  0  0  0  0  0
  -36.0320  -68.4790   49.9300 N   0  0  0  0  0  0  0  0  0  0  0  0
  -36.9550  -67.5910   49.5100 C   0  0  0  0  0  0  0  0  0  0  0  0
  -37.2550  -67.8250   48.4880 H   0  0  0  0  0  0  0  0  0  0  0  0
  -36.5420  -66.5830   49.5450 H   0  0  0  0  0  0  0  0  0  0  0  0
  -38.0230  -67.6780   50.3330 N   0  0  0  0  0  0  0  0  0  0  0  0
  -41.2170  -64.1970   50.2220 C   0  0  0  0  0  0  0  0  0  0  0  0
  -40.5060  -63.7810   51.1150 O   0  0  0  0  0  0  0  0  0  0  0  0
  -40.9060  -63.9300   48.9470 C   0  0  0  0  0  0  0  0  0  0  0  0
  -39.9100  -64.4690   48.2320 C   0  0  0  0  0  0  0  0  0  0  0  0
  -39.2160  -65.2100   48.6020 H   0  0  0  0  0  0  0  0  0  0  0  0
  -39.8950  -63.9860   47.0560 C   0  0  0  0  0  0  0  0  0  0  0  0
  -39.1760  -64.2800   46.3050 H   0  0  0  0  0  0  0  0  0  0  0  0
  -40.8060  -63.1230   46.8450 C   0  0  0  0  0  0  0  0  0  0  0  0
  -40.9800  -62.5880   45.9230 H   0  0  0  0  0  0  0  0  0  0  0  0
  -41.5700  -62.9910   48.0750 O   0  0  0  0  0  0  0  0  0  0  0  0
  1  6  2  0  0  0  0
  1  2  1  0  0  0  0
  2  4  2  0  0  0  0
  3  2  1  0  0  0  0
  4  9  1  0  0  0  0
  4  5  1  0  0  0  0
  6  8  1  0  0  0  0
  7  6  1  0  0  0  0
  8 13  1  0  0  0  0
  8  9  2  0  0  0  0
  9 10  1  0  0  0  0
 10 11  1  0  0  0  0
 12 10  1  0  0  0  0
 13 12  2  0  0  0  0
 14 13  1  0  0  0  0
 14 22  1  0  0  0  0
 15 14  2  0  0  0  0
 16 15  1  0  0  0  0
 17 15  1  0  0  0  0
 17 18  2  0  0  0  0
 18 20  1  0  0  0  0
 19 18  1  0  0  0  0
 20 21  1  0  0  0  0
 20 22  2  0  0  0  0
 22 23  1  0  0  0  0
 24 17  1  0  0  0  0
 25 24  1  0  0  0  0
 26  1  1  0  0  0  0
 27 26  2  0  0  0  0
 28 27  1  0  0  0  0
 29 31  1  0  0  0  0
 29 28  1  0  0  0  0
 29 32  1  0  0  0  0
 30 29  1  0  0  0  0
 32 26  1  0  0  0  0
 33 24  1  0  0  0  0
 33 34  2  0  0  0  0
 35 33  1  0  0  0  0
 36 37  1  0  0  0  0
 36 35  2  0  0  0  0
 38 36  1  0  0  0  0
 39 38  1  0  0  0  0
 40 38  2  0  0  0  0
 40 42  1  0  0  0  0
 41 40  1  0  0  0  0
 42 35  1  0  0  0  0
M  END
>  <Pose>
5

>  <Score>
-8.81

$$$$

 OpenBabel03102210453D

 42 46  0  0  0  0  0  0  0  0999 V2000
  -38.8320  -68.6180   51.9310 C   0  0  0  0  0  0  0  0  0  0  0  0
  -38.2630  -69.7200   52.5730 C   0  0  0  0  0  0  0  0  0  0  0  0
  -37.3530  -70.1560   52.1880 H   0  0  0  0  0  0  0  0  0  0  0  0
  -38.8680  -70.2620   53.7140 C   0  0  0  0  0  0  0  0  0  0  0  0
  -38.4300  -71.1120   54.2170 H   0  0  0  0  0  0  0  0  0  0  0  0
  -40.0060  -68.0460   52.4180 C   0  0  0  0  0  0  0  0  0  0  0  0
  -40.4450  -67.1910   51.9250 H   0  0  0  0  0  0  0  0  0  0  0  0
  -40.6030  -68.5930   53.5440 C   0  0  0  0  0  0  0  0  0  0  0  0
  -40.0430  -69.6860   54.1890 C   0  0  0  0  0  0  0  0  0  0  0  0
  -40.8340  -69.9800   55.2280 N   0  0  0  0  0  0  0  0  0  0  0  0
  -40.6910  -70.7320   55.8870 H   0  0  0  0  0  0  0  0  0  0  0  0
  -41.8900  -69.0700   55.2470 N   0  0  0  0  0  0  0  0  0  0  0  0
  -41.7510  -68.2100   54.2280 C   0  0  0  0  0  0  0  0  0  0  0  0
  -42.7340  -67.1290   53.9170 C   0  0  0  0  0  0  0  0  0  0  0  0
  -44.0510  -67.3870   54.2880 C   0  0  0  0  0  0  0  0  0  0  0  0
  -44.2850  -68.3180   54.7850 H   0  0  0  0  0  0  0  0  0  0  0  0
  -45.0730  -66.4790   54.0360 C   0  0  0  0  0  0  0  0  0  0  0  0
  -44.7810  -65.2730   53.3940 C   0  0  0  0  0  0  0  0  0  0  0  0
  -45.5620  -64.5540   53.1970 H   0  0  0  0  0  0  0  0  0  0  0  0
  -43.4610  -65.0100   53.0100 C   0  0  0  0  0  0  0  0  0  0  0  0
  -43.2270  -64.0800   52.5120 H   0  0  0  0  0  0  0  0  0  0  0  0
  -42.4400  -65.9320   53.2620 C   0  0  0  0  0  0  0  0  0  0  0  0
  -41.4280  -65.7200   52.9500 H   0  0  0  0  0  0  0  0  0  0  0  0
  -46.3160  -66.8270   54.4680 N   0  0  0  0  0  0  0  0  0  0  0  0
  -46.4250  -66.9940   55.4580 H   0  0  0  0  0  0  0  0  0  0  0  0
  -38.1840  -68.0370   50.7230 C   0  0  0  0  0  0  0  0  0  0  0  0
  -37.0130  -68.4340   50.1810 N   0  0  0  0  0  0  0  0  0  0  0  0
  -36.7790  -67.6330   49.0550 N   0  0  0  0  0  0  0  0  0  0  0  0
  -37.8130  -66.7740   48.9560 C   0  0  0  0  0  0  0  0  0  0  0  0
  -38.3260  -66.9200   48.0050 H   0  0  0  0  0  0  0  0  0  0  0  0
  -37.4490  -65.7480   49.0190 H   0  0  0  0  0  0  0  0  0  0  0  0
  -38.6630  -67.0220   49.9770 N   0  0  0  0  0  0  0  0  0  0  0  0
  -47.4070  -66.9690   53.7080 C   0  0  0  0  0  0  0  0  0  0  0  0
  -47.3720  -66.7950   52.5070 O   0  0  0  0  0  0  0  0  0  0  0  0
  -48.5620  -67.3010   54.2980 C   0  0  0  0  0  0  0  0  0  0  0  0
  -48.7160  -67.8920   55.4900 C   0  0  0  0  0  0  0  0  0  0  0  0
  -47.9070  -68.1790   56.1450 H   0  0  0  0  0  0  0  0  0  0  0  0
  -49.9500  -68.0690   55.7420 C   0  0  0  0  0  0  0  0  0  0  0  0
  -50.3070  -68.5270   56.6530 H   0  0  0  0  0  0  0  0  0  0  0  0
  -50.7250  -67.6550   54.8230 C   0  0  0  0  0  0  0  0  0  0  0  0
  -51.8040  -67.7030   54.8250 H   0  0  0  0  0  0  0  0  0  0  0  0
  -49.8900  -67.1060   53.7660 O   0  0  0  0  0  0  0  0  0  0  0  0
  1  6  2  0  0  0  0
  1  2  1  0  0  0  0
  2  4  2  0  0  0  0
  3  2  1  0  0  0  0
  4  9  1  0  0  0  0
  4  5  1  0  0  0  0
  6  8  1  0  0  0  0
  7  6  1  0  0  0  0
  8  9  2  0  0  0  0
  8 13  1  0  0  0  0
  9 10  1  0  0  0  0
 10 12  1  0  0  0  0
 10 11  1  0  0  0  0
 13 12  2  0  0  0  0
 14 13  1  0  0  0  0
 14 15  1  0  0  0  0
 15 16  1  0  0  0  0
 17 15  2  0  0  0  0
 17 24  1  0  0  0  0
 18 17  1  0  0  0  0
 19 18  1  0  0  0  0
 20 22  1  0  0  0  0
 20 18  2  0  0  0  0
 21 20  1  0  0  0  0
 22 14  2  0  0  0  0
 23 22  1  0  0  0  0
 24 25  1  0  0  0  0
 26  1  1  0  0  0  0
 27 26  2  0  0  0  0
 28 27  1  0  0  0  0
 29 31  1  0  0  0  0
 29 28  1  0  0  0  0
 29 32  1  0  0  0  0
 30 29  1  0  0  0  0
 32 26  1  0  0  0  0
 33 35  1  0  0  0  0
 33 24  1  0  0  0  0
 34 33  2  0  0  0  0
 35 36  2  0  0  0  0
 36 38  1  0  0  0  0
 36 37  1  0  0  0  0
 38 39  1  0  0  0  0
 40 41  1  0  0  0  0
 40 38  2  0  0  0  0
 42 35  1  0  0  0  0
 42 40  1  0  0  0  0
M  END
>  <Pose>
5

>  <Score>
-8.37

$$$$
