
 OpenBabel03092210483D

 42 46  0  0  0  0  0  0  0  0999 V2000
  -38.6960  -68.9460   52.3440 C   0  0  0  0  0  0  0  0  0  0  0  0
  -38.3660  -70.0600   53.1190 C   0  0  0  0  0  0  0  0  0  0  0  0
  -37.4530  -70.6020   52.9200 H   0  0  0  0  0  0  0  0  0  0  0  0
  -39.2140  -70.4770   54.1530 C   0  0  0  0  0  0  0  0  0  0  0  0
  -38.9620  -71.3360   54.7580 H   0  0  0  0  0  0  0  0  0  0  0  0
  -39.8710  -68.2380   52.5910 C   0  0  0  0  0  0  0  0  0  0  0  0
  -40.1250  -67.3730   51.9960 H   0  0  0  0  0  0  0  0  0  0  0  0
  -40.7090  -68.6610   53.6120 C   0  0  0  0  0  0  0  0  0  0  0  0
  -40.3880  -69.7660   54.3870 C   0  0  0  0  0  0  0  0  0  0  0  0
  -41.3740  -69.9240   55.2780 N   0  0  0  0  0  0  0  0  0  0  0  0
  -41.4270  -70.6490   55.9790 H   0  0  0  0  0  0  0  0  0  0  0  0
  -42.3170  -68.9170   55.0720 N   0  0  0  0  0  0  0  0  0  0  0  0
  -41.9130  -68.1330   54.0640 C   0  0  0  0  0  0  0  0  0  0  0  0
  -42.7080  -66.9800   53.5410 C   0  0  0  0  0  0  0  0  0  0  0  0
  -42.3080  -66.4850   52.3030 C   0  0  0  0  0  0  0  0  0  0  0  0
  -41.4830  -66.9570   51.7900 H   0  0  0  0  0  0  0  0  0  0  0  0
  -42.9430  -65.4000   51.7110 C   0  0  0  0  0  0  0  0  0  0  0  0
  -44.0110  -64.7830   52.3680 C   0  0  0  0  0  0  0  0  0  0  0  0
  -44.5190  -63.9430   51.9180 H   0  0  0  0  0  0  0  0  0  0  0  0
  -44.4130  -65.2700   53.6170 C   0  0  0  0  0  0  0  0  0  0  0  0
  -45.2370  -64.7980   54.1310 H   0  0  0  0  0  0  0  0  0  0  0  0
  -43.7640  -66.3580   54.2090 C   0  0  0  0  0  0  0  0  0  0  0  0
  -44.0790  -66.7160   55.1780 H   0  0  0  0  0  0  0  0  0  0  0  0
  -42.4840  -65.0200   50.4870 N   0  0  0  0  0  0  0  0  0  0  0  0
  -43.0350  -65.2960   49.6870 H   0  0  0  0  0  0  0  0  0  0  0  0
  -37.7890  -68.4980   51.2510 C   0  0  0  0  0  0  0  0  0  0  0  0
  -36.5730  -69.0110   50.9660 N   0  0  0  0  0  0  0  0  0  0  0  0
  -36.0710  -68.3100   49.8630 N   0  0  0  0  0  0  0  0  0  0  0  0
  -36.9960  -67.3910   49.5180 C   0  0  0  0  0  0  0  0  0  0  0  0
  -37.3320  -67.5700   48.4970 H   0  0  0  0  0  0  0  0  0  0  0  0
  -36.5700  -66.3910   49.5910 H   0  0  0  0  0  0  0  0  0  0  0  0
  -38.0380  -67.5080   50.3710 N   0  0  0  0  0  0  0  0  0  0  0  0
  -41.3740  -64.3170   50.2410 C   0  0  0  0  0  0  0  0  0  0  0  0
  -40.6440  -63.9460   51.1390 O   0  0  0  0  0  0  0  0  0  0  0  0
  -41.0740  -64.0120   48.9720 C   0  0  0  0  0  0  0  0  0  0  0  0
  -41.6730  -63.0930   48.2030 C   0  0  0  0  0  0  0  0  0  0  0  0
  -42.4920  -62.4630   48.5190 H   0  0  0  0  0  0  0  0  0  0  0  0
  -41.1420  -63.0660   47.0480 C   0  0  0  0  0  0  0  0  0  0  0  0
  -41.4660  -62.3970   46.2640 H   0  0  0  0  0  0  0  0  0  0  0  0
  -40.1940  -63.9000   46.9010 C   0  0  0  0  0  0  0  0  0  0  0  0
  -39.6040  -64.0480   46.0080 H   0  0  0  0  0  0  0  0  0  0  0  0
  -40.0490  -64.6180   48.1570 O   0  0  0  0  0  0  0  0  0  0  0  0
  1  6  2  0  0  0  0
  1  2  1  0  0  0  0
  2  4  2  0  0  0  0
  3  2  1  0  0  0  0
  4  9  1  0  0  0  0
  4  5  1  0  0  0  0
  6  8  1  0  0  0  0
  7  6  1  0  0  0  0
  8 13  1  0  0  0  0
  8  9  2  0  0  0  0
  9 10  1  0  0  0  0
 10 11  1  0  0  0  0
 12 10  1  0  0  0  0
 13 12  2  0  0  0  0
 14 13  1  0  0  0  0
 14 22  1  0  0  0  0
 15 14  2  0  0  0  0
 16 15  1  0  0  0  0
 17 15  1  0  0  0  0
 17 18  2  0  0  0  0
 18 20  1  0  0  0  0
 19 18  1  0  0  0  0
 20 21  1  0  0  0  0
 20 22  2  0  0  0  0
 22 23  1  0  0  0  0
 24 17  1  0  0  0  0
 25 24  1  0  0  0  0
 26  1  1  0  0  0  0
 27 26  2  0  0  0  0
 28 27  1  0  0  0  0
 29 31  1  0  0  0  0
 29 28  1  0  0  0  0
 29 32  1  0  0  0  0
 30 29  1  0  0  0  0
 32 26  1  0  0  0  0
 33 24  1  0  0  0  0
 33 34  2  0  0  0  0
 35 33  1  0  0  0  0
 36 37  1  0  0  0  0
 36 35  2  0  0  0  0
 38 36  1  0  0  0  0
 39 38  1  0  0  0  0
 40 38  2  0  0  0  0
 40 42  1  0  0  0  0
 41 40  1  0  0  0  0
 42 35  1  0  0  0  0
M  END
>  <Pose>
3

>  <Score>
-8.67

$$$$

 OpenBabel03092210483D

 42 46  0  0  0  0  0  0  0  0999 V2000
  -38.8100  -68.6600   51.8370 C   0  0  0  0  0  0  0  0  0  0  0  0
  -38.2790  -69.7910   52.4620 C   0  0  0  0  0  0  0  0  0  0  0  0
  -37.3940  -70.2620   52.0610 H   0  0  0  0  0  0  0  0  0  0  0  0
  -38.8900  -70.3150   53.6090 C   0  0  0  0  0  0  0  0  0  0  0  0
  -38.4820  -71.1870   54.0990 H   0  0  0  0  0  0  0  0  0  0  0  0
  -39.9510  -68.0420   52.3460 C   0  0  0  0  0  0  0  0  0  0  0  0
  -40.3590  -67.1650   51.8660 H   0  0  0  0  0  0  0  0  0  0  0  0
  -40.5540  -68.5710   53.4770 C   0  0  0  0  0  0  0  0  0  0  0  0
  -40.0330  -69.6930   54.1050 C   0  0  0  0  0  0  0  0  0  0  0  0
  -40.8200  -69.9610   55.1540 N   0  0  0  0  0  0  0  0  0  0  0  0
  -40.7000  -70.7240   55.8040 H   0  0  0  0  0  0  0  0  0  0  0  0
  -41.8360  -69.0060   55.1950 N   0  0  0  0  0  0  0  0  0  0  0  0
  -41.6740  -68.1450   54.1810 C   0  0  0  0  0  0  0  0  0  0  0  0
  -42.6140  -67.0190   53.8930 C   0  0  0  0  0  0  0  0  0  0  0  0
  -43.9100  -67.1800   54.3740 C   0  0  0  0  0  0  0  0  0  0  0  0
  -44.1580  -68.0710   54.9310 H   0  0  0  0  0  0  0  0  0  0  0  0
  -44.8940  -66.2220   54.1560 C   0  0  0  0  0  0  0  0  0  0  0  0
  -44.5830  -65.0660   53.4360 C   0  0  0  0  0  0  0  0  0  0  0  0
  -45.3350  -64.3100   53.2630 H   0  0  0  0  0  0  0  0  0  0  0  0
  -43.2840  -64.9020   52.9410 C   0  0  0  0  0  0  0  0  0  0  0  0
  -43.0370  -64.0110   52.3830 H   0  0  0  0  0  0  0  0  0  0  0  0
  -42.3020  -65.8730   53.1600 C   0  0  0  0  0  0  0  0  0  0  0  0
  -41.3070  -65.7370   52.7630 H   0  0  0  0  0  0  0  0  0  0  0  0
  -46.1190  -66.4730   54.6960 N   0  0  0  0  0  0  0  0  0  0  0  0
  -46.1980  -66.3970   55.7000 H   0  0  0  0  0  0  0  0  0  0  0  0
  -38.1540  -68.0980   50.6240 C   0  0  0  0  0  0  0  0  0  0  0  0
  -37.1270  -68.6530   49.9460 N   0  0  0  0  0  0  0  0  0  0  0  0
  -36.8280  -67.8060   48.8710 N   0  0  0  0  0  0  0  0  0  0  0  0
  -37.6820  -66.7630   48.9350 C   0  0  0  0  0  0  0  0  0  0  0  0
  -38.2830  -66.7210   48.0270 H   0  0  0  0  0  0  0  0  0  0  0  0
  -37.1230  -65.8340   49.0440 H   0  0  0  0  0  0  0  0  0  0  0  0
  -38.4830  -66.9450   50.0070 N   0  0  0  0  0  0  0  0  0  0  0  0
  -47.2250  -66.8120   54.0270 C   0  0  0  0  0  0  0  0  0  0  0  0
  -47.2250  -66.9330   52.8180 O   0  0  0  0  0  0  0  0  0  0  0  0
  -48.3570  -67.0080   54.7140 C   0  0  0  0  0  0  0  0  0  0  0  0
  -48.7540  -68.1440   55.3030 C   0  0  0  0  0  0  0  0  0  0  0  0
  -48.1940  -69.0670   55.3020 H   0  0  0  0  0  0  0  0  0  0  0  0
  -49.8840  -67.9820   55.8640 C   0  0  0  0  0  0  0  0  0  0  0  0
  -50.3940  -68.7670   56.4020 H   0  0  0  0  0  0  0  0  0  0  0  0
  -50.3580  -66.8090   55.7320 C   0  0  0  0  0  0  0  0  0  0  0  0
  -51.2980  -66.4510   56.1250 H   0  0  0  0  0  0  0  0  0  0  0  0
  -49.4000  -66.0400   54.9540 O   0  0  0  0  0  0  0  0  0  0  0  0
  1  6  2  0  0  0  0
  1  2  1  0  0  0  0
  2  4  2  0  0  0  0
  3  2  1  0  0  0  0
  4  5  1  0  0  0  0
  4  9  1  0  0  0  0
  6  8  1  0  0  0  0
  7  6  1  0  0  0  0
  8  9  2  0  0  0  0
  8 13  1  0  0  0  0
  9 10  1  0  0  0  0
 10 12  1  0  0  0  0
 10 11  1  0  0  0  0
 13 12  2  0  0  0  0
 14 13  1  0  0  0  0
 14 15  1  0  0  0  0
 15 16  1  0  0  0  0
 17 15  2  0  0  0  0
 17 24  1  0  0  0  0
 18 17  1  0  0  0  0
 19 18  1  0  0  0  0
 20 22  1  0  0  0  0
 20 18  2  0  0  0  0
 21 20  1  0  0  0  0
 22 14  2  0  0  0  0
 23 22  1  0  0  0  0
 24 25  1  0  0  0  0
 26  1  1  0  0  0  0
 27 26  2  0  0  0  0
 28 29  1  0  0  0  0
 28 27  1  0  0  0  0
 29 31  1  0  0  0  0
 29 32  1  0  0  0  0
 30 29  1  0  0  0  0
 32 26  1  0  0  0  0
 33 24  1  0  0  0  0
 33 35  1  0  0  0  0
 34 33  2  0  0  0  0
 35 42  1  0  0  0  0
 35 36  2  0  0  0  0
 36 38  1  0  0  0  0
 37 36  1  0  0  0  0
 38 39  1  0  0  0  0
 40 38  2  0  0  0  0
 40 41  1  0  0  0  0
 42 40  1  0  0  0  0
M  END
>  <Pose>
6

>  <Score>
-8.45

$$$$

 OpenBabel03092210483D

 42 46  0  0  0  0  0  0  0  0999 V2000
  -42.6340  -66.9400   53.8990 C   0  0  0  0  0  0  0  0  0  0  0  0
  -43.7610  -66.6700   54.6790 C   0  0  0  0  0  0  0  0  0  0  0  0
  -43.9750  -67.2790   55.5450 H   0  0  0  0  0  0  0  0  0  0  0  0
  -44.6140  -65.6110   54.3430 C   0  0  0  0  0  0  0  0  0  0  0  0
  -45.4850  -65.3950   54.9440 H   0  0  0  0  0  0  0  0  0  0  0  0
  -42.3470  -66.1620   52.7790 C   0  0  0  0  0  0  0  0  0  0  0  0
  -41.4730  -66.3660   52.1790 H   0  0  0  0  0  0  0  0  0  0  0  0
  -43.2010  -65.1190   52.4490 C   0  0  0  0  0  0  0  0  0  0  0  0
  -44.3200  -64.8430   53.2190 C   0  0  0  0  0  0  0  0  0  0  0  0
  -44.9370  -63.7950   52.6570 N   0  0  0  0  0  0  0  0  0  0  0  0
  -45.7870  -63.3620   52.9890 H   0  0  0  0  0  0  0  0  0  0  0  0
  -44.2050  -63.4040   51.5370 N   0  0  0  0  0  0  0  0  0  0  0  0
  -43.1350  -64.2000   51.4080 C   0  0  0  0  0  0  0  0  0  0  0  0
  -42.1560  -64.0950   50.2840 C   0  0  0  0  0  0  0  0  0  0  0  0
  -40.9300  -64.7200   50.4940 C   0  0  0  0  0  0  0  0  0  0  0  0
  -40.7610  -65.2490   51.4200 H   0  0  0  0  0  0  0  0  0  0  0  0
  -39.9170  -64.6800   49.5420 C   0  0  0  0  0  0  0  0  0  0  0  0
  -40.1260  -63.9970   48.3410 C   0  0  0  0  0  0  0  0  0  0  0  0
  -39.3520  -63.9620   47.5890 H   0  0  0  0  0  0  0  0  0  0  0  0
  -41.3540  -63.3590   48.1270 C   0  0  0  0  0  0  0  0  0  0  0  0
  -41.5220  -62.8280   47.2020 H   0  0  0  0  0  0  0  0  0  0  0  0
  -42.3640  -63.3990   49.0930 C   0  0  0  0  0  0  0  0  0  0  0  0
  -43.3020  -62.8920   48.9170 H   0  0  0  0  0  0  0  0  0  0  0  0
  -38.7710  -65.3490   49.8450 N   0  0  0  0  0  0  0  0  0  0  0  0
  -38.3230  -65.1150   50.7190 H   0  0  0  0  0  0  0  0  0  0  0  0
  -41.7230  -68.0600   54.2630 C   0  0  0  0  0  0  0  0  0  0  0  0
  -40.4050  -68.1370   53.9800 N   0  0  0  0  0  0  0  0  0  0  0  0
  -39.9330  -69.3450   54.5100 N   0  0  0  0  0  0  0  0  0  0  0  0
  -40.9810  -69.9630   55.0910 C   0  0  0  0  0  0  0  0  0  0  0  0
  -40.7810  -70.1090   56.1530 H   0  0  0  0  0  0  0  0  0  0  0  0
  -41.1500  -70.9290   54.6170 H   0  0  0  0  0  0  0  0  0  0  0  0
  -42.0690  -69.1770   54.9330 N   0  0  0  0  0  0  0  0  0  0  0  0
  -38.1810  -66.2860   49.0960 C   0  0  0  0  0  0  0  0  0  0  0  0
  -38.6420  -66.6300   48.0260 O   0  0  0  0  0  0  0  0  0  0  0  0
  -37.0600  -66.8610   49.5520 C   0  0  0  0  0  0  0  0  0  0  0  0
  -35.8020  -66.4510   49.3410 C   0  0  0  0  0  0  0  0  0  0  0  0
  -35.5260  -65.5800   48.7650 H   0  0  0  0  0  0  0  0  0  0  0  0
  -34.9780  -67.2330   49.9130 C   0  0  0  0  0  0  0  0  0  0  0  0
  -33.9080  -67.0910   49.8770 H   0  0  0  0  0  0  0  0  0  0  0  0
  -35.5320  -68.1960   50.5320 C   0  0  0  0  0  0  0  0  0  0  0  0
  -35.0280  -68.9750   51.0860 H   0  0  0  0  0  0  0  0  0  0  0  0
  -36.9680  -68.0560   50.3560 O   0  0  0  0  0  0  0  0  0  0  0  0
  1 26  1  0  0  0  0
  1  2  1  0  0  0  0
  2  3  1  0  0  0  0
  4  2  2  0  0  0  0
  4  5  1  0  0  0  0
  6  1  2  0  0  0  0
  7  6  1  0  0  0  0
  8  6  1  0  0  0  0
  8  9  2  0  0  0  0
  9  4  1  0  0  0  0
 10 11  1  0  0  0  0
 10  9  1  0  0  0  0
 12 10  1  0  0  0  0
 13 12  2  0  0  0  0
 13  8  1  0  0  0  0
 14 15  1  0  0  0  0
 14 13  1  0  0  0  0
 15 16  1  0  0  0  0
 17 24  1  0  0  0  0
 17 15  2  0  0  0  0
 18 17  1  0  0  0  0
 19 18  1  0  0  0  0
 20 18  2  0  0  0  0
 20 22  1  0  0  0  0
 21 20  1  0  0  0  0
 22 14  2  0  0  0  0
 23 22  1  0  0  0  0
 24 25  1  0  0  0  0
 26 32  1  0  0  0  0
 27 26  2  0  0  0  0
 27 28  1  0  0  0  0
 28 29  1  0  0  0  0
 29 30  1  0  0  0  0
 31 29  1  0  0  0  0
 32 29  1  0  0  0  0
 33 35  1  0  0  0  0
 33 24  1  0  0  0  0
 34 33  2  0  0  0  0
 35 42  1  0  0  0  0
 36 35  2  0  0  0  0
 36 38  1  0  0  0  0
 37 36  1  0  0  0  0
 38 40  2  0  0  0  0
 39 38  1  0  0  0  0
 40 41  1  0  0  0  0
 42 40  1  0  0  0  0
M  END
>  <Pose>
1

>  <Score>
-7.04

$$$$
