# created with PyMOL 2.5.2
@<TRIPOS>MOLECULE
predictions
42 46 1                 
SMALL
USER_CHARGES
@<TRIPOS>ATOM
1	   C	-38.696	-68.946	52.344	C.2	1	UNK0	0.000	
2	   C	-38.366	-70.060	53.119	C.2	1	UNK0	0.000	
3	   H	-37.453	-70.602	52.920	 H	1	UNK0	0.000	
4	   C	-39.214	-70.477	54.153	C.2	1	UNK0	0.000	
5	   H	-38.962	-71.336	54.758	 H	1	UNK0	0.000	
6	   C	-39.871	-68.238	52.591	C.2	1	UNK0	0.000	
7	   H	-40.125	-67.373	51.996	 H	1	UNK0	0.000	
8	   C	-40.709	-68.661	53.612	C.2	1	UNK0	0.000	
9	   C	-40.388	-69.766	54.387	C.2	1	UNK0	0.000	
10	   N	-41.374	-69.924	55.278	N.pl3	1	UNK0	0.000	
11	   H	-41.427	-70.649	55.979	 H	1	UNK0	0.000	
12	   N	-42.317	-68.917	55.072	N.2	1	UNK0	0.000	
13	   C	-41.913	-68.133	54.064	C.2	1	UNK0	0.000	
14	   C	-42.708	-66.980	53.541	C.2	1	UNK0	0.000	
15	   C	-42.308	-66.485	52.303	C.2	1	UNK0	0.000	
16	   H	-41.483	-66.957	51.790	 H	1	UNK0	0.000	
17	   C	-42.943	-65.400	51.711	C.2	1	UNK0	0.000	
18	   C	-44.011	-64.783	52.368	C.2	1	UNK0	0.000	
19	   H	-44.519	-63.943	51.918	 H	1	UNK0	0.000	
20	   C	-44.413	-65.270	53.617	C.2	1	UNK0	0.000	
21	   H	-45.237	-64.798	54.131	 H	1	UNK0	0.000	
22	   C	-43.764	-66.358	54.209	C.2	1	UNK0	0.000	
23	   H	-44.079	-66.716	55.178	 H	1	UNK0	0.000	
24	   N	-42.484	-65.020	50.487	N.pl3	1	UNK0	0.000	
25	   H	-43.035	-65.296	49.687	 H	1	UNK0	0.000	
26	   C	-37.789	-68.498	51.251	C.2	1	UNK0	0.000	
27	   N	-36.573	-69.011	50.966	N.2	1	UNK0	0.000	
28	   N	-36.071	-68.310	49.863	N.pl3	1	UNK0	0.000	
29	   C	-36.996	-67.391	49.518	C.3	1	UNK0	0.000	
30	   H	-37.332	-67.570	48.497	 H	1	UNK0	0.000	
31	   H	-36.570	-66.391	49.591	 H	1	UNK0	0.000	
32	   N	-38.038	-67.508	50.371	N.pl3	1	UNK0	0.000	
33	   C	-41.374	-64.317	50.241	C.2	1	UNK0	0.000	
34	   O	-40.644	-63.946	51.139	O.2	1	UNK0	0.000	
35	   C	-41.074	-64.012	48.972	C.2	1	UNK0	0.000	
36	   C	-41.673	-63.093	48.203	C.2	1	UNK0	0.000	
37	   H	-42.492	-62.463	48.519	 H	1	UNK0	0.000	
38	   C	-41.142	-63.066	47.048	C.2	1	UNK0	0.000	
39	   H	-41.466	-62.397	46.264	 H	1	UNK0	0.000	
40	   C	-40.194	-63.900	46.901	C.2	1	UNK0	0.000	
41	   H	-39.604	-64.048	46.008	 H	1	UNK0	0.000	
42	   O	-40.049	-64.618	48.157	O.3	1	UNK0	0.000	
@<TRIPOS>BOND
1 1 6 2
2 1 2 1
3 2 4 2
4 2 3 1
5 4 9 1
6 4 5 1
7 6 8 1
8 6 7 1
9 8 13 1
10 8 9 2
11 9 10 1
12 10 11 1
13 10 12 1
14 12 13 2
15 13 14 1
16 14 22 1
17 14 15 2
18 15 16 1
19 15 17 1
20 17 18 2
21 18 20 1
22 18 19 1
23 20 21 1
24 20 22 2
25 22 23 1
26 17 24 1
27 24 25 1
28 1 26 1
29 26 27 2
30 27 28 1
31 29 31 1
32 28 29 1
33 29 32 1
34 29 30 1
35 26 32 1
36 24 33 1
37 33 34 2
38 33 35 1
39 36 37 1
40 35 36 2
41 36 38 1
42 38 39 1
43 38 40 2
44 40 42 1
45 40 41 1
46 35 42 1
@<TRIPOS>SUBSTRUCTURE
1	UNK0	1	GROUP	1 ****	UNK
