
 OpenBabel03092210473D

 55 58  0  0  1  0  0  0  0  0999 V2000
   20.5590    8.6020   32.2610 C   0  0  2  0  0  0  0  0  0  0  0  0
   21.1540    7.4530   31.8960 N   0  0  0  0  0  0  0  0  0  0  0  0
   19.3510    8.4910   32.9180 C   0  0  0  0  0  0  0  0  0  0  0  0
   18.8590    7.2310   33.1450 C   0  0  0  0  0  0  0  0  0  0  0  0
   17.6670    7.3560   33.7980 N   0  0  0  0  0  0  0  0  0  0  0  0
   17.0820    6.5870   34.0890 H   0  0  0  0  0  0  0  0  0  0  0  0
   17.3840    8.6770   34.0000 C   0  0  0  0  0  0  0  0  0  0  0  0
   16.5090    9.0740   34.4920 H   0  0  0  0  0  0  0  0  0  0  0  0
   18.4170    9.4120   33.4600 C   0  0  0  0  0  0  0  0  0  0  0  0
   18.5010   10.4880   33.4510 H   0  0  0  0  0  0  0  0  0  0  0  0
   19.4340    6.0860   32.7950 N   0  0  0  0  0  0  0  0  0  0  0  0
   20.5970    6.2660   32.1660 C   0  0  0  0  0  0  0  0  0  0  0  0
   21.2480    5.0810   31.7680 N   0  0  0  0  0  0  0  0  0  0  0  0
   20.7530    4.2100   31.8890 H   0  0  0  0  0  0  0  0  0  0  0  0
   22.5420    5.0280   31.2120 C   0  0  0  0  0  0  0  0  0  0  0  0
   23.4080    4.0330   31.6140 C   0  0  0  0  0  0  0  0  0  0  0  0
   22.9130    3.1540   32.5680 O   0  0  0  0  0  0  0  0  0  0  0  0
   23.9630    2.3310   33.0570 C   0  0  0  0  0  0  0  0  0  0  0  0
   23.5680    1.6440   33.8050 H   0  0  0  0  0  0  0  0  0  0  0  0
   24.7340    2.9560   33.5090 H   0  0  0  0  0  0  0  0  0  0  0  0
   24.3940    1.7620   32.2330 H   0  0  0  0  0  0  0  0  0  0  0  0
   22.9650    5.9350   30.2640 C   0  0  0  0  0  0  0  0  0  0  0  0
   22.2960    6.7150   29.9300 H   0  0  0  0  0  0  0  0  0  0  0  0
   24.2360    5.8530   29.7410 C   0  0  0  0  0  0  0  0  0  0  0  0
   24.5590    6.5790   29.0090 H   0  0  0  0  0  0  0  0  0  0  0  0
   25.1010    4.8560   30.1400 C   0  0  0  0  0  0  0  0  0  0  0  0
   24.6840    3.9410   31.0860 C   0  0  0  0  0  0  0  0  0  0  0  0
   25.3510    3.1570   31.4130 H   0  0  0  0  0  0  0  0  0  0  0  0
   26.4760    4.7970   29.5580 C   0  0  0  0  0  0  0  0  0  0  0  0
   27.1020    4.1390   30.1610 H   0  0  0  0  0  0  0  0  0  0  0  0
   26.9100    5.7960   29.5390 H   0  0  0  0  0  0  0  0  0  0  0  0
   26.3630    4.1620   27.9000 S   0  0  0  0  0  0  0  0  0  0  0  0
   25.5870    5.0850   27.0920 O   0  0  0  0  0  0  0  0  0  0  0  0
   25.9780    2.7660   27.9980 O   0  0  0  0  0  0  0  0  0  0  0  0
   28.0430    4.2340   27.3550 C   0  0  0  0  0  0  0  0  0  0  0  0
   28.3540    5.2760   27.2740 H   0  0  0  0  0  0  0  0  0  0  0  0
   28.1300    3.7520   26.3820 H   0  0  0  0  0  0  0  0  0  0  0  0
   28.6800    3.7200   28.0740 H   0  0  0  0  0  0  0  0  0  0  0  0
   20.5880   12.7030   31.5660 O   0  0  0  0  0  0  0  0  0  0  0  0
   21.4260   12.3210   30.7580 C   0  0  0  0  0  0  0  0  0  0  0  0
   21.3970   12.5800   29.4130 N   0  0  0  0  0  0  0  0  0  0  0  0
   20.6430   13.1250   29.0200 H   0  0  0  0  0  0  0  0  0  0  0  0
   22.1290   12.2260   28.8140 H   0  0  0  0  0  0  0  0  0  0  0  0
   22.5810   11.5160   31.1980 C   0  0  0  0  0  0  0  0  0  0  0  0
   23.8640   11.9680   30.9740 C   0  0  0  0  0  0  0  0  0  0  0  0
   24.0830   13.1390   30.3570 F   0  0  0  0  0  0  0  0  0  0  0  0
   24.9400   11.2160   31.3850 C   0  0  0  0  0  0  0  0  0  0  0  0
   25.9460   11.5670   31.2090 H   0  0  0  0  0  0  0  0  0  0  0  0
   24.7270   10.0130   32.0190 C   0  0  0  0  0  0  0  0  0  0  0  0
   25.5690    9.4190   32.3430 H   0  0  0  0  0  0  0  0  0  0  0  0
   23.4440    9.5660   32.2440 C   0  0  0  0  0  0  0  0  0  0  0  0
   23.2870    8.6220   32.7440 H   0  0  0  0  0  0  0  0  0  0  0  0
   22.3580   10.3100   31.8360 C   0  0  0  0  0  0  0  0  0  0  0  0
   21.0350    9.8990   32.0390 N   0  0  0  0  0  0  0  0  0  0  0  0
   20.3380   10.6300   32.0230 H   0  0  0  0  0  0  0  0  0  0  0  0
  1 54  1  6  0  0  0
  1  3  1  0  0  0  0
  2 12  2  0  0  0  0
  2  1  1  0  0  0  0
  3  4  2  0  0  0  0
  3  9  1  0  0  0  0
  4  5  1  0  0  0  0
  5  7  1  0  0  0  0
  5  6  1  0  0  0  0
  7  8  1  0  0  0  0
  9  7  2  0  0  0  0
 10  9  1  0  0  0  0
 11  4  1  0  0  0  0
 12 11  1  0  0  0  0
 13 14  1  0  0  0  0
 13 12  1  0  0  0  0
 15 16  1  0  0  0  0
 15 13  1  0  0  0  0
 16 17  1  0  0  0  0
 17 18  1  0  0  0  0
 18 20  1  0  0  0  0
 18 19  1  0  0  0  0
 21 18  1  0  0  0  0
 22 15  2  0  0  0  0
 23 22  1  0  0  0  0
 24 26  2  0  0  0  0
 24 22  1  0  0  0  0
 25 24  1  0  0  0  0
 26 27  1  0  0  0  0
 27 28  1  0  0  0  0
 27 16  2  0  0  0  0
 29 26  1  0  0  0  0
 29 30  1  0  0  0  0
 31 29  1  0  0  0  0
 32 34  2  0  0  0  0
 32 29  1  0  0  0  0
 33 32  2  0  0  0  0
 35 32  1  0  0  0  0
 35 38  1  0  0  0  0
 36 35  1  0  0  0  0
 37 35  1  0  0  0  0
 40 44  1  0  0  0  0
 40 39  2  0  0  0  0
 41 40  1  0  0  0  0
 42 41  1  0  0  0  0
 43 41  1  0  0  0  0
 44 53  1  0  0  0  0
 45 44  2  0  0  0  0
 45 47  1  0  0  0  0
 46 45  1  0  0  0  0
 47 49  2  0  0  0  0
 48 47  1  0  0  0  0
 49 51  1  0  0  0  0
 49 50  1  0  0  0  0
 51 52  1  0  0  0  0
 53 54  1  0  0  0  0
 53 51  2  0  0  0  0
 55 54  1  0  0  0  0
M  END
>  <Pose>
5

>  <Score>
-11.25

$$$$

 OpenBabel03092210473D

 55 58  0  0  1  0  0  0  0  0999 V2000
   20.8910    8.5490   32.7460 C   0  0  2  0  0  0  0  0  0  0  0  0
   21.4620    7.4130   32.3070 N   0  0  0  0  0  0  0  0  0  0  0  0
   19.5660    8.4690   33.1210 C   0  0  0  0  0  0  0  0  0  0  0  0
   18.9430    7.2520   33.0190 C   0  0  0  0  0  0  0  0  0  0  0  0
   17.6520    7.4030   33.4350 N   0  0  0  0  0  0  0  0  0  0  0  0
   16.9610    6.6670   33.4630 H   0  0  0  0  0  0  0  0  0  0  0  0
   17.4330    8.6990   33.8090 C   0  0  0  0  0  0  0  0  0  0  0  0
   16.5050    9.1070   34.1820 H   0  0  0  0  0  0  0  0  0  0  0  0
   18.6100    9.3900   33.6240 C   0  0  0  0  0  0  0  0  0  0  0  0
   18.7740   10.4390   33.8230 H   0  0  0  0  0  0  0  0  0  0  0  0
   19.4900    6.1200   32.5910 N   0  0  0  0  0  0  0  0  0  0  0  0
   20.7720    6.2680   32.2460 C   0  0  0  0  0  0  0  0  0  0  0  0
   21.4010    5.0960   31.7800 N   0  0  0  0  0  0  0  0  0  0  0  0
   20.9020    4.2240   31.8780 H   0  0  0  0  0  0  0  0  0  0  0  0
   22.6790    5.0570   31.1860 C   0  0  0  0  0  0  0  0  0  0  0  0
   23.5540    4.0520   31.5370 C   0  0  0  0  0  0  0  0  0  0  0  0
   23.0860    3.1480   32.4800 O   0  0  0  0  0  0  0  0  0  0  0  0
   24.1710    2.4030   33.0170 C   0  0  0  0  0  0  0  0  0  0  0  0
   23.7960    1.6960   33.7560 H   0  0  0  0  0  0  0  0  0  0  0  0
   24.8790    3.0830   33.4900 H   0  0  0  0  0  0  0  0  0  0  0  0
   24.6700    1.8590   32.2140 H   0  0  0  0  0  0  0  0  0  0  0  0
   23.0760    5.9900   30.2510 C   0  0  0  0  0  0  0  0  0  0  0  0
   22.3980    6.7780   29.9570 H   0  0  0  0  0  0  0  0  0  0  0  0
   24.3310    5.9210   29.6900 C   0  0  0  0  0  0  0  0  0  0  0  0
   24.6350    6.6660   28.9690 H   0  0  0  0  0  0  0  0  0  0  0  0
   25.2060    4.9130   30.0380 C   0  0  0  0  0  0  0  0  0  0  0  0
   24.8150    3.9730   30.9700 C   0  0  0  0  0  0  0  0  0  0  0  0
   25.4900    3.1810   31.2570 H   0  0  0  0  0  0  0  0  0  0  0  0
   26.5630    4.8690   29.4150 C   0  0  0  0  0  0  0  0  0  0  0  0
   27.2090    4.2040   29.9890 H   0  0  0  0  0  0  0  0  0  0  0  0
   26.9930    5.8700   29.4010 H   0  0  0  0  0  0  0  0  0  0  0  0
   26.4050    4.2600   27.7510 S   0  0  0  0  0  0  0  0  0  0  0  0
   25.7730    5.2790   26.9340 O   0  0  0  0  0  0  0  0  0  0  0  0
   25.8420    2.9250   27.8320 O   0  0  0  0  0  0  0  0  0  0  0  0
   28.0920    4.1170   27.2420 C   0  0  0  0  0  0  0  0  0  0  0  0
   28.5360    5.1100   27.1740 H   0  0  0  0  0  0  0  0  0  0  0  0
   28.1370    3.6310   26.2680 H   0  0  0  0  0  0  0  0  0  0  0  0
   28.6420    3.5220   27.9710 H   0  0  0  0  0  0  0  0  0  0  0  0
   23.6330   10.8040   31.1940 O   0  0  0  0  0  0  0  0  0  0  0  0
   22.5710   11.0940   30.6560 C   0  0  0  0  0  0  0  0  0  0  0  0
   22.2760   10.8840   29.3340 N   0  0  0  0  0  0  0  0  0  0  0  0
   22.9610   10.4590   28.7250 H   0  0  0  0  0  0  0  0  0  0  0  0
   21.3740   11.1540   28.9690 H   0  0  0  0  0  0  0  0  0  0  0  0
   21.4840   11.7210   31.4310 C   0  0  0  0  0  0  0  0  0  0  0  0
   20.9940   12.9540   31.0600 C   0  0  0  0  0  0  0  0  0  0  0  0
   21.4930   13.6020   29.9970 F   0  0  0  0  0  0  0  0  0  0  0  0
   19.9800   13.5380   31.7850 C   0  0  0  0  0  0  0  0  0  0  0  0
   19.5950   14.5050   31.4980 H   0  0  0  0  0  0  0  0  0  0  0  0
   19.4600   12.8820   32.8770 C   0  0  0  0  0  0  0  0  0  0  0  0
   18.6640   13.3360   33.4490 H   0  0  0  0  0  0  0  0  0  0  0  0
   19.9500   11.6480   33.2430 C   0  0  0  0  0  0  0  0  0  0  0  0
   19.5340   11.1410   34.1000 H   0  0  0  0  0  0  0  0  0  0  0  0
   20.9670   11.0540   32.5260 C   0  0  0  0  0  0  0  0  0  0  0  0
   21.5000    9.8040   32.8570 N   0  0  0  0  0  0  0  0  0  0  0  0
   22.4420    9.8070   33.2220 H   0  0  0  0  0  0  0  0  0  0  0  0
  1 54  1  6  0  0  0
  1  3  1  0  0  0  0
  2  1  1  0  0  0  0
  3  9  1  0  0  0  0
  4  3  2  0  0  0  0
  4  5  1  0  0  0  0
  5  6  1  0  0  0  0
  5  7  1  0  0  0  0
  7  8  1  0  0  0  0
  9  7  2  0  0  0  0
  9 10  1  0  0  0  0
 11  4  1  0  0  0  0
 12  2  2  0  0  0  0
 12 11  1  0  0  0  0
 13 14  1  0  0  0  0
 13 12  1  0  0  0  0
 15 16  1  0  0  0  0
 15 13  1  0  0  0  0
 16 17  1  0  0  0  0
 17 18  1  0  0  0  0
 18 20  1  0  0  0  0
 18 19  1  0  0  0  0
 21 18  1  0  0  0  0
 22 15  2  0  0  0  0
 23 22  1  0  0  0  0
 24 26  2  0  0  0  0
 24 22  1  0  0  0  0
 25 24  1  0  0  0  0
 26 27  1  0  0  0  0
 27 28  1  0  0  0  0
 27 16  2  0  0  0  0
 29 30  1  0  0  0  0
 29 26  1  0  0  0  0
 31 29  1  0  0  0  0
 32 34  2  0  0  0  0
 32 29  1  0  0  0  0
 33 32  2  0  0  0  0
 35 32  1  0  0  0  0
 35 38  1  0  0  0  0
 36 35  1  0  0  0  0
 37 35  1  0  0  0  0
 40 39  2  0  0  0  0
 40 44  1  0  0  0  0
 41 40  1  0  0  0  0
 42 41  1  0  0  0  0
 43 41  1  0  0  0  0
 44 53  1  0  0  0  0
 45 44  2  0  0  0  0
 45 47  1  0  0  0  0
 46 45  1  0  0  0  0
 47 49  2  0  0  0  0
 48 47  1  0  0  0  0
 49 51  1  0  0  0  0
 49 50  1  0  0  0  0
 51 52  1  0  0  0  0
 53 54  1  0  0  0  0
 53 51  2  0  0  0  0
 54 55  1  0  0  0  0
M  END
>  <Pose>
2

>  <Score>
-10.04

$$$$

 OpenBabel03092210473D

 55 58  0  0  1  0  0  0  0  0999 V2000
   20.7880    8.5240   32.0690 C   0  0  2  0  0  0  0  0  0  0  0  0
   21.2480    7.2990   31.7600 N   0  0  0  0  0  0  0  0  0  0  0  0
   19.6300    8.5780   32.8160 C   0  0  0  0  0  0  0  0  0  0  0  0
   19.0460    7.3920   33.1800 C   0  0  0  0  0  0  0  0  0  0  0  0
   17.9240    7.6790   33.9020 N   0  0  0  0  0  0  0  0  0  0  0  0
   17.2950    6.9930   34.2960 H   0  0  0  0  0  0  0  0  0  0  0  0
   17.7770    9.0320   34.0140 C   0  0  0  0  0  0  0  0  0  0  0  0
   16.9810    9.5470   34.5320 H   0  0  0  0  0  0  0  0  0  0  0  0
   18.8270    9.6220   33.3450 C   0  0  0  0  0  0  0  0  0  0  0  0
   19.0060   10.6820   33.2420 H   0  0  0  0  0  0  0  0  0  0  0  0
   19.4860    6.1740   32.8850 N   0  0  0  0  0  0  0  0  0  0  0  0
   20.6090    6.1940   32.1640 C   0  0  0  0  0  0  0  0  0  0  0  0
   21.1180    4.9260   31.8200 N   0  0  0  0  0  0  0  0  0  0  0  0
   20.4630    4.1620   31.7420 H   0  0  0  0  0  0  0  0  0  0  0  0
   22.4790    4.6500   31.5770 C   0  0  0  0  0  0  0  0  0  0  0  0
   23.0940    5.2080   30.4770 C   0  0  0  0  0  0  0  0  0  0  0  0
   22.2890    6.0080   29.6780 O   0  0  0  0  0  0  0  0  0  0  0  0
   21.8750    5.2820   28.5290 C   0  0  0  0  0  0  0  0  0  0  0  0
   21.2430    5.9160   27.9070 H   0  0  0  0  0  0  0  0  0  0  0  0
   21.3120    4.4010   28.8390 H   0  0  0  0  0  0  0  0  0  0  0  0
   22.7510    4.9720   27.9600 H   0  0  0  0  0  0  0  0  0  0  0  0
   23.2190    3.8460   32.4180 C   0  0  0  0  0  0  0  0  0  0  0  0
   22.7550    3.4090   33.2900 H   0  0  0  0  0  0  0  0  0  0  0  0
   24.5470    3.5980   32.1520 C   0  0  0  0  0  0  0  0  0  0  0  0
   25.1130    2.9560   32.8110 H   0  0  0  0  0  0  0  0  0  0  0  0
   25.1640    4.1590   31.0530 C   0  0  0  0  0  0  0  0  0  0  0  0
   24.4310    4.9680   30.2090 C   0  0  0  0  0  0  0  0  0  0  0  0
   24.8980    5.4110   29.3420 H   0  0  0  0  0  0  0  0  0  0  0  0
   26.6050    3.8670   30.7890 C   0  0  0  0  0  0  0  0  0  0  0  0
   26.9640    3.1180   31.4950 H   0  0  0  0  0  0  0  0  0  0  0  0
   27.1910    4.7790   30.8970 H   0  0  0  0  0  0  0  0  0  0  0  0
   26.7630    3.2470   29.1280 S   0  0  0  0  0  0  0  0  0  0  0  0
   25.5930    2.4510   28.8080 O   0  0  0  0  0  0  0  0  0  0  0  0
   28.0950    2.6850   29.0030 O   0  0  0  0  0  0  0  0  0  0  0  0
   26.6980    4.7290   28.1670 C   0  0  0  0  0  0  0  0  0  0  0  0
   25.7040    5.1700   28.2470 H   0  0  0  0  0  0  0  0  0  0  0  0
   26.9090    4.4960   27.1240 H   0  0  0  0  0  0  0  0  0  0  0  0
   27.4390    5.4360   28.5390 H   0  0  0  0  0  0  0  0  0  0  0  0
   21.3170   12.6370   31.6780 O   0  0  0  0  0  0  0  0  0  0  0  0
   21.8940   12.2560   30.6670 C   0  0  0  0  0  0  0  0  0  0  0  0
   21.6350   12.7040   29.3980 N   0  0  0  0  0  0  0  0  0  0  0  0
   20.9200   13.4010   29.2450 H   0  0  0  0  0  0  0  0  0  0  0  0
   22.1580   12.3380   28.6160 H   0  0  0  0  0  0  0  0  0  0  0  0
   22.9610   11.2410   30.7480 C   0  0  0  0  0  0  0  0  0  0  0  0
   24.2320   11.5370   30.3050 C   0  0  0  0  0  0  0  0  0  0  0  0
   24.5190   12.7440   29.7960 F   0  0  0  0  0  0  0  0  0  0  0  0
   25.2250   10.5880   30.3800 C   0  0  0  0  0  0  0  0  0  0  0  0
   26.2220   10.8170   30.0320 H   0  0  0  0  0  0  0  0  0  0  0  0
   24.9420    9.3470   30.9010 C   0  0  0  0  0  0  0  0  0  0  0  0
   25.7180    8.5980   30.9620 H   0  0  0  0  0  0  0  0  0  0  0  0
   23.6710    9.0550   31.3450 C   0  0  0  0  0  0  0  0  0  0  0  0
   23.4590    8.0780   31.7540 H   0  0  0  0  0  0  0  0  0  0  0  0
   22.6670    9.9960   31.2730 C   0  0  0  0  0  0  0  0  0  0  0  0
   21.3610    9.7490   31.7090 N   0  0  0  0  0  0  0  0  0  0  0  0
   20.7550   10.5550   31.7720 H   0  0  0  0  0  0  0  0  0  0  0  0
  1 54  1  6  0  0  0
  1  3  1  0  0  0  0
  2  1  1  0  0  0  0
  2 12  2  0  0  0  0
  3  4  2  0  0  0  0
  3  9  1  0  0  0  0
  4  5  1  0  0  0  0
  5  7  1  0  0  0  0
  5  6  1  0  0  0  0
  7  8  1  0  0  0  0
  9  7  2  0  0  0  0
 10  9  1  0  0  0  0
 11  4  1  0  0  0  0
 12 11  1  0  0  0  0
 13 12  1  0  0  0  0
 14 13  1  0  0  0  0
 15 13  1  0  0  0  0
 15 22  1  0  0  0  0
 16 15  2  0  0  0  0
 17 16  1  0  0  0  0
 18 20  1  0  0  0  0
 18 17  1  0  0  0  0
 19 18  1  0  0  0  0
 21 18  1  0  0  0  0
 22 23  1  0  0  0  0
 24 22  2  0  0  0  0
 24 25  1  0  0  0  0
 26 24  1  0  0  0  0
 27 16  1  0  0  0  0
 27 26  2  0  0  0  0
 28 27  1  0  0  0  0
 29 31  1  0  0  0  0
 29 26  1  0  0  0  0
 29 30  1  0  0  0  0
 32 29  1  0  0  0  0
 33 32  2  0  0  0  0
 34 32  2  0  0  0  0
 35 36  1  0  0  0  0
 35 38  1  0  0  0  0
 35 32  1  0  0  0  0
 37 35  1  0  0  0  0
 40 44  1  0  0  0  0
 40 39  2  0  0  0  0
 41 40  1  0  0  0  0
 42 41  1  0  0  0  0
 43 41  1  0  0  0  0
 44 53  1  0  0  0  0
 45 47  1  0  0  0  0
 45 44  2  0  0  0  0
 46 45  1  0  0  0  0
 47 49  2  0  0  0  0
 48 47  1  0  0  0  0
 49 50  1  0  0  0  0
 49 51  1  0  0  0  0
 51 52  1  0  0  0  0
 53 51  2  0  0  0  0
 53 54  1  0  0  0  0
 54 55  1  0  0  0  0
M  END
>  <Pose>
1

>  <Score>
-9.25

$$$$

 OpenBabel03092210473D

 55 58  0  0  1  0  0  0  0  0999 V2000
   24.1580    9.3570   31.0380 C   0  0  2  0  0  0  0  0  0  0  0  0
   24.0980   10.6840   30.8250 N   0  0  0  0  0  0  0  0  0  0  0  0
   25.1370    8.6660   30.3550 C   0  0  0  0  0  0  0  0  0  0  0  0
   25.9620    9.3790   29.5230 C   0  0  0  0  0  0  0  0  0  0  0  0
   26.8430    8.5050   28.9540 N   0  0  0  0  0  0  0  0  0  0  0  0
   27.5660    8.7560   28.2950 H   0  0  0  0  0  0  0  0  0  0  0  0
   26.6020    7.2400   29.4090 C   0  0  0  0  0  0  0  0  0  0  0  0
   27.1450    6.3480   29.1320 H   0  0  0  0  0  0  0  0  0  0  0  0
   25.5410    7.3070   30.2860 C   0  0  0  0  0  0  0  0  0  0  0  0
   25.0990    6.4800   30.8210 H   0  0  0  0  0  0  0  0  0  0  0  0
   25.9190   10.6880   29.3020 N   0  0  0  0  0  0  0  0  0  0  0  0
   24.9520   11.2940   29.9940 C   0  0  0  0  0  0  0  0  0  0  0  0
   24.8590   12.6850   29.7940 N   0  0  0  0  0  0  0  0  0  0  0  0
   25.5930   13.1340   29.2660 H   0  0  0  0  0  0  0  0  0  0  0  0
   23.8120   13.4950   30.2790 C   0  0  0  0  0  0  0  0  0  0  0  0
   23.2500   14.4400   29.4470 C   0  0  0  0  0  0  0  0  0  0  0  0
   23.7920   14.5170   28.1710 O   0  0  0  0  0  0  0  0  0  0  0  0
   23.7250   15.8550   27.6980 C   0  0  0  0  0  0  0  0  0  0  0  0
   24.1520   15.9080   26.6960 H   0  0  0  0  0  0  0  0  0  0  0  0
   24.2880   16.5060   28.3670 H   0  0  0  0  0  0  0  0  0  0  0  0
   22.6850   16.1790   27.6670 H   0  0  0  0  0  0  0  0  0  0  0  0
   23.3220   13.3600   31.5610 C   0  0  0  0  0  0  0  0  0  0  0  0
   23.7440   12.6180   32.2220 H   0  0  0  0  0  0  0  0  0  0  0  0
   22.2980   14.1670   32.0020 C   0  0  0  0  0  0  0  0  0  0  0  0
   21.9320   14.0610   33.0120 H   0  0  0  0  0  0  0  0  0  0  0  0
   21.7330   15.1100   31.1680 C   0  0  0  0  0  0  0  0  0  0  0  0
   22.2150   15.2500   29.8830 C   0  0  0  0  0  0  0  0  0  0  0  0
   21.7870   15.9860   29.2200 H   0  0  0  0  0  0  0  0  0  0  0  0
   20.6260   15.9750   31.6780 C   0  0  0  0  0  0  0  0  0  0  0  0
   20.6950   16.9650   31.2270 H   0  0  0  0  0  0  0  0  0  0  0  0
   20.6990   16.0630   32.7620 H   0  0  0  0  0  0  0  0  0  0  0  0
   19.0730   15.2250   31.2420 S   0  0  0  0  0  0  0  0  0  0  0  0
   19.1630   14.7050   29.8900 O   0  0  0  0  0  0  0  0  0  0  0  0
   18.0250   16.1620   31.6030 O   0  0  0  0  0  0  0  0  0  0  0  0
   18.9930   13.8530   32.3530 C   0  0  0  0  0  0  0  0  0  0  0  0
   19.7730   13.1340   32.1000 H   0  0  0  0  0  0  0  0  0  0  0  0
   18.0180   13.3740   32.2700 H   0  0  0  0  0  0  0  0  0  0  0  0
   19.1410   14.2030   33.3750 H   0  0  0  0  0  0  0  0  0  0  0  0
   20.9960    9.5110   32.4840 O   0  0  0  0  0  0  0  0  0  0  0  0
   20.7080    8.3450   32.7270 C   0  0  0  0  0  0  0  0  0  0  0  0
   19.7820    7.9410   33.6530 N   0  0  0  0  0  0  0  0  0  0  0  0
   19.2770    8.6270   34.1960 H   0  0  0  0  0  0  0  0  0  0  0  0
   19.6040    6.9560   33.7920 H   0  0  0  0  0  0  0  0  0  0  0  0
   21.3700    7.2420   32.0060 C   0  0  0  0  0  0  0  0  0  0  0  0
   20.6840    6.0740   31.7500 C   0  0  0  0  0  0  0  0  0  0  0  0
   19.4130    5.9210   32.1500 F   0  0  0  0  0  0  0  0  0  0  0  0
   21.3030    5.0460   31.0780 C   0  0  0  0  0  0  0  0  0  0  0  0
   20.7690    4.1290   30.8780 H   0  0  0  0  0  0  0  0  0  0  0  0
   22.6070    5.1920   30.6630 C   0  0  0  0  0  0  0  0  0  0  0  0
   23.0980    4.3880   30.1350 H   0  0  0  0  0  0  0  0  0  0  0  0
   23.2890    6.3620   30.9180 C   0  0  0  0  0  0  0  0  0  0  0  0
   24.3110    6.4680   30.5870 H   0  0  0  0  0  0  0  0  0  0  0  0
   22.6800    7.3980   31.5920 C   0  0  0  0  0  0  0  0  0  0  0  0
   23.3280    8.6050   31.8770 N   0  0  0  0  0  0  0  0  0  0  0  0
   23.1790    8.9800   32.8030 H   0  0  0  0  0  0  0  0  0  0  0  0
  1 54  1  6  0  0  0
  2  1  1  0  0  0  0
  3  1  1  0  0  0  0
  4  3  2  0  0  0  0
  5  7  1  0  0  0  0
  5  4  1  0  0  0  0
  6  5  1  0  0  0  0
  7  9  2  0  0  0  0
  8  7  1  0  0  0  0
  9  3  1  0  0  0  0
  9 10  1  0  0  0  0
 11  4  1  0  0  0  0
 11 12  1  0  0  0  0
 12  2  2  0  0  0  0
 13 12  1  0  0  0  0
 13 15  1  0  0  0  0
 14 13  1  0  0  0  0
 15 22  1  0  0  0  0
 16 27  1  0  0  0  0
 16 15  2  0  0  0  0
 17 16  1  0  0  0  0
 18 17  1  0  0  0  0
 18 20  1  0  0  0  0
 19 18  1  0  0  0  0
 21 18  1  0  0  0  0
 22 24  2  0  0  0  0
 22 23  1  0  0  0  0
 24 25  1  0  0  0  0
 26 29  1  0  0  0  0
 26 24  1  0  0  0  0
 27 26  2  0  0  0  0
 28 27  1  0  0  0  0
 29 31  1  0  0  0  0
 30 29  1  0  0  0  0
 32 34  2  0  0  0  0
 32 29  1  0  0  0  0
 32 35  1  0  0  0  0
 33 32  2  0  0  0  0
 35 38  1  0  0  0  0
 36 35  1  0  0  0  0
 37 35  1  0  0  0  0
 39 40  2  0  0  0  0
 40 41  1  0  0  0  0
 41 43  1  0  0  0  0
 41 42  1  0  0  0  0
 44 40  1  0  0  0  0
 45 44  1  0  0  0  0
 45 46  1  0  0  0  0
 47 45  2  0  0  0  0
 48 47  1  0  0  0  0
 49 51  2  0  0  0  0
 49 47  1  0  0  0  0
 50 49  1  0  0  0  0
 51 53  1  0  0  0  0
 52 51  1  0  0  0  0
 53 54  1  0  0  0  0
 53 44  2  0  0  0  0
 54 55  1  0  0  0  0
M  END
>  <Pose>
1

>  <Score>
-7.92

$$$$

 OpenBabel03092210473D

 55 58  0  0  1  0  0  0  0  0999 V2000
   25.4870    8.2960   29.8530 C   0  0  2  0  0  0  0  0  0  0  0  0
   24.5390    9.2460   29.7800 N   0  0  0  0  0  0  0  0  0  0  0  0
   25.0620    7.0220   30.1700 C   0  0  0  0  0  0  0  0  0  0  0  0
   23.7220    6.8280   30.3830 C   0  0  0  0  0  0  0  0  0  0  0  0
   23.5300    5.5110   30.6830 N   0  0  0  0  0  0  0  0  0  0  0  0
   22.6360    5.0870   30.8890 H   0  0  0  0  0  0  0  0  0  0  0  0
   24.7250    4.8500   30.6620 C   0  0  0  0  0  0  0  0  0  0  0  0
   24.8760    3.7990   30.8590 H   0  0  0  0  0  0  0  0  0  0  0  0
   25.7020    5.7680   30.3460 C   0  0  0  0  0  0  0  0  0  0  0  0
   26.7600    5.5690   30.2490 H   0  0  0  0  0  0  0  0  0  0  0  0
   22.7710    7.7530   30.3140 N   0  0  0  0  0  0  0  0  0  0  0  0
   23.2500    8.9600   30.0020 C   0  0  0  0  0  0  0  0  0  0  0  0
   22.2820    9.9810   29.9190 N   0  0  0  0  0  0  0  0  0  0  0  0
   21.4270    9.7780   29.4210 H   0  0  0  0  0  0  0  0  0  0  0  0
   22.4240   11.2650   30.4820 C   0  0  0  0  0  0  0  0  0  0  0  0
   22.2980   11.4200   31.8460 C   0  0  0  0  0  0  0  0  0  0  0  0
   22.0230   10.2610   32.5610 O   0  0  0  0  0  0  0  0  0  0  0  0
   20.6230   10.0170   32.5660 C   0  0  0  0  0  0  0  0  0  0  0  0
   20.4160    9.1070   33.1280 H   0  0  0  0  0  0  0  0  0  0  0  0
   20.2710    9.8990   31.5410 H   0  0  0  0  0  0  0  0  0  0  0  0
   20.1100   10.8570   33.0320 H   0  0  0  0  0  0  0  0  0  0  0  0
   22.7000   12.3720   29.7090 C   0  0  0  0  0  0  0  0  0  0  0  0
   22.8120   12.2670   28.6400 H   0  0  0  0  0  0  0  0  0  0  0  0
   22.8330   13.6120   30.2930 C   0  0  0  0  0  0  0  0  0  0  0  0
   23.0360   14.4740   29.6740 H   0  0  0  0  0  0  0  0  0  0  0  0
   22.7110   13.7660   31.6580 C   0  0  0  0  0  0  0  0  0  0  0  0
   22.4380   12.6620   32.4400 C   0  0  0  0  0  0  0  0  0  0  0  0
   22.3350   12.7680   33.5090 H   0  0  0  0  0  0  0  0  0  0  0  0
   22.8560   15.1260   32.2610 C   0  0  0  0  0  0  0  0  0  0  0  0
   23.9020   15.4310   32.2320 H   0  0  0  0  0  0  0  0  0  0  0  0
   22.5110   15.1080   33.2950 H   0  0  0  0  0  0  0  0  0  0  0  0
   21.8720   16.2720   31.3210 S   0  0  0  0  0  0  0  0  0  0  0  0
   22.2870   16.2220   29.9310 O   0  0  0  0  0  0  0  0  0  0  0  0
   21.8660   17.5300   32.0450 O   0  0  0  0  0  0  0  0  0  0  0  0
   20.2570   15.5620   31.4360 C   0  0  0  0  0  0  0  0  0  0  0  0
   20.2380   14.6140   30.8980 H   0  0  0  0  0  0  0  0  0  0  0  0
   19.5280   16.2440   30.9980 H   0  0  0  0  0  0  0  0  0  0  0  0
   20.0100   15.3910   32.4840 H   0  0  0  0  0  0  0  0  0  0  0  0
   29.0600   11.1200   29.9550 O   0  0  0  0  0  0  0  0  0  0  0  0
   28.1000   10.9040   29.2250 C   0  0  0  0  0  0  0  0  0  0  0  0
   26.9090   11.5810   29.2720 N   0  0  0  0  0  0  0  0  0  0  0  0
   26.7740   12.3200   29.9460 H   0  0  0  0  0  0  0  0  0  0  0  0
   26.1650   11.3390   28.6330 H   0  0  0  0  0  0  0  0  0  0  0  0
   28.1610    9.8500   28.1950 C   0  0  0  0  0  0  0  0  0  0  0  0
   28.8400   10.0750   27.0170 C   0  0  0  0  0  0  0  0  0  0  0  0
   29.4500   11.2470   26.7870 F   0  0  0  0  0  0  0  0  0  0  0  0
   28.8960    9.0910   26.0570 C   0  0  0  0  0  0  0  0  0  0  0  0
   29.4250    9.2650   25.1310 H   0  0  0  0  0  0  0  0  0  0  0  0
   28.2730    7.8850   26.2820 C   0  0  0  0  0  0  0  0  0  0  0  0
   28.3140    7.1100   25.5310 H   0  0  0  0  0  0  0  0  0  0  0  0
   27.5980    7.6630   27.4620 C   0  0  0  0  0  0  0  0  0  0  0  0
   27.1140    6.7120   27.6300 H   0  0  0  0  0  0  0  0  0  0  0  0
   27.5340    8.6410   28.4300 C   0  0  0  0  0  0  0  0  0  0  0  0
   26.8600    8.4660   29.6440 N   0  0  0  0  0  0  0  0  0  0  0  0
   27.4370    8.4610   30.4730 H   0  0  0  0  0  0  0  0  0  0  0  0
  1 54  1  1  0  0  0
  1  3  1  0  0  0  0
  2  1  1  0  0  0  0
  2 12  2  0  0  0  0
  3  9  1  0  0  0  0
  3  4  2  0  0  0  0
  4  5  1  0  0  0  0
  5  6  1  0  0  0  0
  7  5  1  0  0  0  0
  7  8  1  0  0  0  0
  9  7  2  0  0  0  0
 10  9  1  0  0  0  0
 11  4  1  0  0  0  0
 12 11  1  0  0  0  0
 13 12  1  0  0  0  0
 13 15  1  0  0  0  0
 14 13  1  0  0  0  0
 15 16  1  0  0  0  0
 16 27  2  0  0  0  0
 16 17  1  0  0  0  0
 17 18  1  0  0  0  0
 18 21  1  0  0  0  0
 18 19  1  0  0  0  0
 20 18  1  0  0  0  0
 22 24  1  0  0  0  0
 22 15  2  0  0  0  0
 23 22  1  0  0  0  0
 24 26  2  0  0  0  0
 25 24  1  0  0  0  0
 26 29  1  0  0  0  0
 26 27  1  0  0  0  0
 27 28  1  0  0  0  0
 29 31  1  0  0  0  0
 30 29  1  0  0  0  0
 32 35  1  0  0  0  0
 32 34  2  0  0  0  0
 32 29  1  0  0  0  0
 33 32  2  0  0  0  0
 35 38  1  0  0  0  0
 36 35  1  0  0  0  0
 37 35  1  0  0  0  0
 40 41  1  0  0  0  0
 40 39  2  0  0  0  0
 41 42  1  0  0  0  0
 43 41  1  0  0  0  0
 44 53  1  0  0  0  0
 44 40  1  0  0  0  0
 45 44  2  0  0  0  0
 46 45  1  0  0  0  0
 47 49  2  0  0  0  0
 47 45  1  0  0  0  0
 48 47  1  0  0  0  0
 49 51  1  0  0  0  0
 50 49  1  0  0  0  0
 51 52  1  0  0  0  0
 51 53  2  0  0  0  0
 53 54  1  0  0  0  0
 54 55  1  0  0  0  0
M  END
>  <Pose>
1

>  <Score>
-7.67

$$$$
