# created with PyMOL 2.5.2
@<TRIPOS>MOLECULE
predictions
55 58 1                 
SMALL
USER_CHARGES
@<TRIPOS>ATOM
1	   C	20.559	8.602	32.261	C.3	1	UNK0	0.000	
2	   N	21.154	7.453	31.896	N.2	1	UNK0	0.000	
3	   C	19.351	8.491	32.918	C.2	1	UNK0	0.000	
4	   C	18.859	7.231	33.145	C.2	1	UNK0	0.000	
5	   N	17.667	7.356	33.798	N.pl3	1	UNK0	0.000	
6	   H	17.082	6.587	34.089	 H	1	UNK0	0.000	
7	   C	17.384	8.677	34.000	C.2	1	UNK0	0.000	
8	   H	16.509	9.074	34.492	 H	1	UNK0	0.000	
9	   C	18.417	9.412	33.460	C.2	1	UNK0	0.000	
10	   H	18.501	10.488	33.451	 H	1	UNK0	0.000	
11	   N	19.434	6.086	32.795	N.pl3	1	UNK0	0.000	
12	   C	20.597	6.266	32.166	C.2	1	UNK0	0.000	
13	   N	21.248	5.081	31.768	N.pl3	1	UNK0	0.000	
14	   H	20.753	4.210	31.889	 H	1	UNK0	0.000	
15	   C	22.542	5.028	31.212	C.2	1	UNK0	0.000	
16	   C	23.408	4.033	31.614	C.2	1	UNK0	0.000	
17	   O	22.913	3.154	32.568	O.3	1	UNK0	0.000	
18	   C	23.963	2.331	33.057	C.3	1	UNK0	0.000	
19	   H	23.568	1.644	33.805	 H	1	UNK0	0.000	
20	   H	24.734	2.956	33.509	 H	1	UNK0	0.000	
21	   H	24.394	1.762	32.233	 H	1	UNK0	0.000	
22	   C	22.965	5.935	30.264	C.2	1	UNK0	0.000	
23	   H	22.296	6.715	29.930	 H	1	UNK0	0.000	
24	   C	24.236	5.853	29.741	C.2	1	UNK0	0.000	
25	   H	24.559	6.579	29.009	 H	1	UNK0	0.000	
26	   C	25.101	4.856	30.140	C.2	1	UNK0	0.000	
27	   C	24.684	3.941	31.086	C.2	1	UNK0	0.000	
28	   H	25.351	3.157	31.413	 H	1	UNK0	0.000	
29	   C	26.476	4.797	29.558	C.3	1	UNK0	0.000	
30	   H	27.102	4.139	30.161	 H	1	UNK0	0.000	
31	   H	26.910	5.796	29.539	 H	1	UNK0	0.000	
32	   S	26.363	4.162	27.900	S.O2	1	UNK0	0.000	
33	   O	25.587	5.085	27.092	O.2	1	UNK0	0.000	
34	   O	25.978	2.766	27.998	O.2	1	UNK0	0.000	
35	   C	28.043	4.234	27.355	C.3	1	UNK0	0.000	
36	   H	28.354	5.276	27.274	 H	1	UNK0	0.000	
37	   H	28.130	3.752	26.382	 H	1	UNK0	0.000	
38	   H	28.680	3.720	28.074	 H	1	UNK0	0.000	
39	   O	20.588	12.703	31.566	O.2	1	UNK0	0.000	
40	   C	21.426	12.321	30.758	C.2	1	UNK0	0.000	
41	   N	21.397	12.580	29.413	N.pl3	1	UNK0	0.000	
42	   H	20.643	13.125	29.020	 H	1	UNK0	0.000	
43	   H	22.129	12.226	28.814	 H	1	UNK0	0.000	
44	   C	22.581	11.516	31.198	C.2	1	UNK0	0.000	
45	   C	23.864	11.968	30.974	C.2	1	UNK0	0.000	
46	   F	24.083	13.139	30.357	 F	1	UNK0	0.000	
47	   C	24.940	11.216	31.385	C.2	1	UNK0	0.000	
48	   H	25.946	11.567	31.209	 H	1	UNK0	0.000	
49	   C	24.727	10.013	32.019	C.2	1	UNK0	0.000	
50	   H	25.569	9.419	32.343	 H	1	UNK0	0.000	
51	   C	23.444	9.566	32.244	C.2	1	UNK0	0.000	
52	   H	23.287	8.622	32.744	 H	1	UNK0	0.000	
53	   C	22.358	10.310	31.836	C.2	1	UNK0	0.000	
54	   N	21.035	9.899	32.039	N.pl3	1	UNK0	0.000	
55	   H	20.338	10.630	32.023	 H	1	UNK0	0.000	
@<TRIPOS>BOND
1 1 54 1
2 1 3 1
3 2 12 2
4 1 2 1
5 3 4 2
6 3 9 1
7 4 5 1
8 5 7 1
9 5 6 1
10 7 8 1
11 7 9 2
12 9 10 1
13 4 11 1
14 11 12 1
15 13 14 1
16 12 13 1
17 15 16 1
18 13 15 1
19 16 17 1
20 17 18 1
21 18 20 1
22 18 19 1
23 18 21 1
24 15 22 2
25 22 23 1
26 24 26 2
27 22 24 1
28 24 25 1
29 26 27 1
30 27 28 1
31 16 27 2
32 26 29 1
33 29 30 1
34 29 31 1
35 32 34 2
36 29 32 1
37 32 33 2
38 32 35 1
39 35 38 1
40 35 36 1
41 35 37 1
42 40 44 1
43 39 40 2
44 40 41 1
45 41 42 1
46 41 43 1
47 44 53 1
48 44 45 2
49 45 47 1
50 45 46 1
51 47 49 2
52 47 48 1
53 49 51 1
54 49 50 1
55 51 52 1
56 53 54 1
57 51 53 2
58 54 55 1
@<TRIPOS>SUBSTRUCTURE
1	UNK0	1	GROUP	1 ****	UNK
