
 OpenBabel03102210443D

 55 58  0  0  1  0  0  0  0  0999 V2000
   20.7130    8.4810   32.2600 C   0  0  2  0  0  0  0  0  0  0  0  0
   21.2750    7.2920   31.9800 N   0  0  0  0  0  0  0  0  0  0  0  0
   19.4830    8.4500   32.8830 C   0  0  0  0  0  0  0  0  0  0  0  0
   18.9370    7.2240   33.1660 C   0  0  0  0  0  0  0  0  0  0  0  0
   17.7320    7.4290   33.7720 N   0  0  0  0  0  0  0  0  0  0  0  0
   17.1090    6.6990   34.0870 H   0  0  0  0  0  0  0  0  0  0  0  0
   17.4920    8.7680   33.8890 C   0  0  0  0  0  0  0  0  0  0  0  0
   16.6180    9.2240   34.3310 H   0  0  0  0  0  0  0  0  0  0  0  0
   18.5680    9.4340   33.3420 C   0  0  0  0  0  0  0  0  0  0  0  0
   18.6910   10.5040   33.2750 H   0  0  0  0  0  0  0  0  0  0  0  0
   19.4790    6.0410   32.8990 N   0  0  0  0  0  0  0  0  0  0  0  0
   20.6670    6.1430   32.2990 C   0  0  0  0  0  0  0  0  0  0  0  0
   21.2850    4.9150   31.9890 N   0  0  0  0  0  0  0  0  0  0  0  0
   20.7730    4.0680   32.1900 H   0  0  0  0  0  0  0  0  0  0  0  0
   22.5670    4.7870   31.4190 C   0  0  0  0  0  0  0  0  0  0  0  0
   23.4160    3.8050   31.8830 C   0  0  0  0  0  0  0  0  0  0  0  0
   22.9170    3.0150   32.9100 O   0  0  0  0  0  0  0  0  0  0  0  0
   23.9270    2.1270   33.3710 C   0  0  0  0  0  0  0  0  0  0  0  0
   23.5290    1.5110   34.1770 H   0  0  0  0  0  0  0  0  0  0  0  0
   24.7760    2.7030   33.7400 H   0  0  0  0  0  0  0  0  0  0  0  0
   24.2520    1.4880   32.5500 H   0  0  0  0  0  0  0  0  0  0  0  0
   22.9940    5.6070   30.3960 C   0  0  0  0  0  0  0  0  0  0  0  0
   22.3380    6.3750   30.0140 H   0  0  0  0  0  0  0  0  0  0  0  0
   24.2530    5.4530   29.8610 C   0  0  0  0  0  0  0  0  0  0  0  0
   24.5810    6.1110   29.0700 H   0  0  0  0  0  0  0  0  0  0  0  0
   25.1010    4.4680   30.3230 C   0  0  0  0  0  0  0  0  0  0  0  0
   24.6800    3.6400   31.3440 C   0  0  0  0  0  0  0  0  0  0  0  0
   25.3340    2.8670   31.7200 H   0  0  0  0  0  0  0  0  0  0  0  0
   26.4640    4.3300   29.7250 C   0  0  0  0  0  0  0  0  0  0  0  0
   27.0480    3.6140   30.3040 H   0  0  0  0  0  0  0  0  0  0  0  0
   26.9670    5.2970   29.7290 H   0  0  0  0  0  0  0  0  0  0  0  0
   26.2930    3.7500   28.0520 S   0  0  0  0  0  0  0  0  0  0  0  0
   25.6010    4.7590   27.2710 O   0  0  0  0  0  0  0  0  0  0  0  0
   25.7880    2.3920   28.1160 O   0  0  0  0  0  0  0  0  0  0  0  0
   27.9720    3.6890   27.5040 C   0  0  0  0  0  0  0  0  0  0  0  0
   28.3740    4.7000   27.4480 H   0  0  0  0  0  0  0  0  0  0  0  0
   28.0160    3.2250   26.5180 H   0  0  0  0  0  0  0  0  0  0  0  0
   28.5630    3.1020   28.2070 H   0  0  0  0  0  0  0  0  0  0  0  0
   20.9730   12.5600   31.8740 O   0  0  0  0  0  0  0  0  0  0  0  0
   21.6170   12.2550   30.8770 C   0  0  0  0  0  0  0  0  0  0  0  0
   21.3830   12.7340   29.6140 N   0  0  0  0  0  0  0  0  0  0  0  0
   20.6320   13.3880   29.4530 H   0  0  0  0  0  0  0  0  0  0  0  0
   21.9630   12.4310   28.8450 H   0  0  0  0  0  0  0  0  0  0  0  0
   22.7430   11.3080   30.9720 C   0  0  0  0  0  0  0  0  0  0  0  0
   23.9900   11.6700   30.5100 C   0  0  0  0  0  0  0  0  0  0  0  0
   24.2000   12.8800   29.9720 F   0  0  0  0  0  0  0  0  0  0  0  0
   25.0400   10.7850   30.5980 C   0  0  0  0  0  0  0  0  0  0  0  0
   26.0180   11.0650   30.2360 H   0  0  0  0  0  0  0  0  0  0  0  0
   24.8360    9.5400   31.1490 C   0  0  0  0  0  0  0  0  0  0  0  0
   25.6570    8.8420   31.2200 H   0  0  0  0  0  0  0  0  0  0  0  0
   23.5880    9.1830   31.6110 C   0  0  0  0  0  0  0  0  0  0  0  0
   23.4390    8.2050   32.0430 H   0  0  0  0  0  0  0  0  0  0  0  0
   22.5290   10.0600   31.5270 C   0  0  0  0  0  0  0  0  0  0  0  0
   21.2430    9.7450   31.9800 N   0  0  0  0  0  0  0  0  0  0  0  0
   20.6210   10.5280   32.1240 H   0  0  0  0  0  0  0  0  0  0  0  0
  1 54  1  6  0  0  0
  1  3  1  0  0  0  0
  2  1  1  0  0  0  0
  2 12  2  0  0  0  0
  3  4  2  0  0  0  0
  3  9  1  0  0  0  0
  4  5  1  0  0  0  0
  5  7  1  0  0  0  0
  5  6  1  0  0  0  0
  7  8  1  0  0  0  0
  9  7  2  0  0  0  0
 10  9  1  0  0  0  0
 11  4  1  0  0  0  0
 12 11  1  0  0  0  0
 13 14  1  0  0  0  0
 13 12  1  0  0  0  0
 15 16  1  0  0  0  0
 15 13  1  0  0  0  0
 16 17  1  0  0  0  0
 17 18  1  0  0  0  0
 18 20  1  0  0  0  0
 18 19  1  0  0  0  0
 21 18  1  0  0  0  0
 22 15  2  0  0  0  0
 23 22  1  0  0  0  0
 24 26  2  0  0  0  0
 24 22  1  0  0  0  0
 25 24  1  0  0  0  0
 26 27  1  0  0  0  0
 27 28  1  0  0  0  0
 27 16  2  0  0  0  0
 29 31  1  0  0  0  0
 29 30  1  0  0  0  0
 29 26  1  0  0  0  0
 32 34  2  0  0  0  0
 32 29  1  0  0  0  0
 33 32  2  0  0  0  0
 35 32  1  0  0  0  0
 35 38  1  0  0  0  0
 36 35  1  0  0  0  0
 37 35  1  0  0  0  0
 40 44  1  0  0  0  0
 40 39  2  0  0  0  0
 41 40  1  0  0  0  0
 42 41  1  0  0  0  0
 43 41  1  0  0  0  0
 44 53  1  0  0  0  0
 45 47  1  0  0  0  0
 45 44  2  0  0  0  0
 46 45  1  0  0  0  0
 47 49  2  0  0  0  0
 48 47  1  0  0  0  0
 49 50  1  0  0  0  0
 49 51  1  0  0  0  0
 51 52  1  0  0  0  0
 53 51  2  0  0  0  0
 53 54  1  0  0  0  0
 54 55  1  0  0  0  0
M  END
>  <Pose>
3

>  <Score>
-11.10

$$$$

 OpenBabel03102210443D

 55 58  0  0  1  0  0  0  0  0999 V2000
   20.5400    8.4610   32.3020 C   0  0  2  0  0  0  0  0  0  0  0  0
   21.1560    7.3280   31.9210 N   0  0  0  0  0  0  0  0  0  0  0  0
   19.3010    8.3220   32.8920 C   0  0  0  0  0  0  0  0  0  0  0  0
   18.8020    7.0540   33.0430 C   0  0  0  0  0  0  0  0  0  0  0  0
   17.5780    7.1520   33.6400 N   0  0  0  0  0  0  0  0  0  0  0  0
   16.9800    6.3710   33.8690 H   0  0  0  0  0  0  0  0  0  0  0  0
   17.2820    8.4630   33.8800 C   0  0  0  0  0  0  0  0  0  0  0  0
   16.3820    8.8390   34.3440 H   0  0  0  0  0  0  0  0  0  0  0  0
   18.3390    9.2200   33.4240 C   0  0  0  0  0  0  0  0  0  0  0  0
   18.4200   10.2960   33.4630 H   0  0  0  0  0  0  0  0  0  0  0  0
   19.3960    5.9250   32.6760 N   0  0  0  0  0  0  0  0  0  0  0  0
   20.5890    6.1310   32.1140 C   0  0  0  0  0  0  0  0  0  0  0  0
   21.2620    4.9630   31.7010 N   0  0  0  0  0  0  0  0  0  0  0  0
   20.7760    4.0830   31.7950 H   0  0  0  0  0  0  0  0  0  0  0  0
   22.5660    4.9390   31.1670 C   0  0  0  0  0  0  0  0  0  0  0  0
   23.4950    4.0680   31.6950 C   0  0  0  0  0  0  0  0  0  0  0  0
   23.0490    3.2780   32.7460 O   0  0  0  0  0  0  0  0  0  0  0  0
   23.8970    2.1470   32.8950 C   0  0  0  0  0  0  0  0  0  0  0  0
   23.5420    1.5320   33.7210 H   0  0  0  0  0  0  0  0  0  0  0  0
   24.9140    2.4810   33.1020 H   0  0  0  0  0  0  0  0  0  0  0  0
   23.8870    1.5620   31.9750 H   0  0  0  0  0  0  0  0  0  0  0  0
   22.9380    5.7530   30.1180 C   0  0  0  0  0  0  0  0  0  0  0  0
   22.2200    6.4330   29.6850 H   0  0  0  0  0  0  0  0  0  0  0  0
   24.2200    5.7020   29.6190 C   0  0  0  0  0  0  0  0  0  0  0  0
   24.5030    6.3540   28.8060 H   0  0  0  0  0  0  0  0  0  0  0  0
   25.1480    4.8280   30.1460 C   0  0  0  0  0  0  0  0  0  0  0  0
   24.7830    4.0070   31.1930 C   0  0  0  0  0  0  0  0  0  0  0  0
   25.5000    3.3210   31.6200 H   0  0  0  0  0  0  0  0  0  0  0  0
   26.5340    4.8000   29.5860 C   0  0  0  0  0  0  0  0  0  0  0  0
   27.1670    4.1650   30.2050 H   0  0  0  0  0  0  0  0  0  0  0  0
   26.9420    5.8110   29.5660 H   0  0  0  0  0  0  0  0  0  0  0  0
   26.4650    4.1490   27.9320 S   0  0  0  0  0  0  0  0  0  0  0  0
   25.7580    5.0890   27.0830 O   0  0  0  0  0  0  0  0  0  0  0  0
   26.0250    2.7690   28.0310 O   0  0  0  0  0  0  0  0  0  0  0  0
   28.1670    4.1520   27.4570 C   0  0  0  0  0  0  0  0  0  0  0  0
   28.5200    5.1810   27.3760 H   0  0  0  0  0  0  0  0  0  0  0  0
   28.2770    3.6540   26.4930 H   0  0  0  0  0  0  0  0  0  0  0  0
   28.7550    3.6240   28.2070 H   0  0  0  0  0  0  0  0  0  0  0  0
   21.6810   10.0800   29.2580 O   0  0  0  0  0  0  0  0  0  0  0  0
   22.0470   11.0410   29.9240 C   0  0  0  0  0  0  0  0  0  0  0  0
   21.7390   12.3480   29.6550 N   0  0  0  0  0  0  0  0  0  0  0  0
   21.1680   12.5780   28.8540 H   0  0  0  0  0  0  0  0  0  0  0  0
   22.0820   13.0830   30.2570 H   0  0  0  0  0  0  0  0  0  0  0  0
   22.8860   10.8470   31.1220 C   0  0  0  0  0  0  0  0  0  0  0  0
   24.1870   11.3020   31.1350 C   0  0  0  0  0  0  0  0  0  0  0  0
   24.7090   11.9250   30.0670 F   0  0  0  0  0  0  0  0  0  0  0  0
   24.9690   11.1200   32.2520 C   0  0  0  0  0  0  0  0  0  0  0  0
   25.9890   11.4750   32.2650 H   0  0  0  0  0  0  0  0  0  0  0  0
   24.4440   10.4840   33.3530 C   0  0  0  0  0  0  0  0  0  0  0  0
   25.0540   10.3390   34.2330 H   0  0  0  0  0  0  0  0  0  0  0  0
   23.1420   10.0320   33.3380 C   0  0  0  0  0  0  0  0  0  0  0  0
   22.7390    9.5360   34.2080 H   0  0  0  0  0  0  0  0  0  0  0  0
   22.3500   10.2070   32.2240 C   0  0  0  0  0  0  0  0  0  0  0  0
   21.0240    9.7660   32.1570 N   0  0  0  0  0  0  0  0  0  0  0  0
   20.3290   10.4780   31.9840 H   0  0  0  0  0  0  0  0  0  0  0  0
  1 54  1  6  0  0  0
  1  3  1  0  0  0  0
  2 12  2  0  0  0  0
  2  1  1  0  0  0  0
  3  4  2  0  0  0  0
  3  9  1  0  0  0  0
  4  5  1  0  0  0  0
  5  6  1  0  0  0  0
  5  7  1  0  0  0  0
  7  8  1  0  0  0  0
  9 10  1  0  0  0  0
  9  7  2  0  0  0  0
 11  4  1  0  0  0  0
 12 11  1  0  0  0  0
 13 14  1  0  0  0  0
 13 12  1  0  0  0  0
 15 16  1  0  0  0  0
 15 13  1  0  0  0  0
 16 17  1  0  0  0  0
 17 18  1  0  0  0  0
 18 20  1  0  0  0  0
 18 19  1  0  0  0  0
 21 18  1  0  0  0  0
 22 15  2  0  0  0  0
 23 22  1  0  0  0  0
 24 22  1  0  0  0  0
 24 26  2  0  0  0  0
 25 24  1  0  0  0  0
 26 27  1  0  0  0  0
 27 28  1  0  0  0  0
 27 16  2  0  0  0  0
 29 26  1  0  0  0  0
 29 30  1  0  0  0  0
 31 29  1  0  0  0  0
 32 34  2  0  0  0  0
 32 29  1  0  0  0  0
 33 32  2  0  0  0  0
 35 32  1  0  0  0  0
 35 38  1  0  0  0  0
 36 35  1  0  0  0  0
 37 35  1  0  0  0  0
 39 40  2  0  0  0  0
 40 44  1  0  0  0  0
 41 40  1  0  0  0  0
 41 43  1  0  0  0  0
 42 41  1  0  0  0  0
 44 45  2  0  0  0  0
 44 53  1  0  0  0  0
 45 47  1  0  0  0  0
 46 45  1  0  0  0  0
 47 48  1  0  0  0  0
 47 49  2  0  0  0  0
 49 50  1  0  0  0  0
 51 49  1  0  0  0  0
 51 52  1  0  0  0  0
 53 51  2  0  0  0  0
 54 53  1  0  0  0  0
 55 54  1  0  0  0  0
M  END
>  <Pose>
1

>  <Score>
-9.87

$$$$

 OpenBabel03102210443D

 55 58  0  0  1  0  0  0  0  0999 V2000
   20.6610    8.5570   32.3150 C   0  0  2  0  0  0  0  0  0  0  0  0
   21.2120    7.3750   31.9910 N   0  0  0  0  0  0  0  0  0  0  0  0
   19.4030    8.5180   32.8780 C   0  0  0  0  0  0  0  0  0  0  0  0
   18.8200    7.2900   33.0620 C   0  0  0  0  0  0  0  0  0  0  0  0
   17.5920    7.4870   33.6240 N   0  0  0  0  0  0  0  0  0  0  0  0
   16.9410    6.7540   33.8660 H   0  0  0  0  0  0  0  0  0  0  0  0
   17.3740    8.8220   33.8100 C   0  0  0  0  0  0  0  0  0  0  0  0
   16.4890    9.2710   34.2370 H   0  0  0  0  0  0  0  0  0  0  0  0
   18.4870    9.4940   33.3530 C   0  0  0  0  0  0  0  0  0  0  0  0
   18.6360   10.5630   33.3560 H   0  0  0  0  0  0  0  0  0  0  0  0
   19.3500    6.1130   32.7500 N   0  0  0  0  0  0  0  0  0  0  0  0
   20.5660    6.2230   32.2120 C   0  0  0  0  0  0  0  0  0  0  0  0
   21.1730    5.0010   31.8580 N   0  0  0  0  0  0  0  0  0  0  0  0
   20.6080    4.1660   31.9020 H   0  0  0  0  0  0  0  0  0  0  0  0
   22.5140    4.8640   31.4470 C   0  0  0  0  0  0  0  0  0  0  0  0
   22.9470    5.5340   30.3220 C   0  0  0  0  0  0  0  0  0  0  0  0
   21.9870    6.2980   29.6710 O   0  0  0  0  0  0  0  0  0  0  0  0
   22.5560    6.9110   28.5220 C   0  0  0  0  0  0  0  0  0  0  0  0
   21.7980    7.5080   28.0160 H   0  0  0  0  0  0  0  0  0  0  0  0
   22.9250    6.1410   27.8440 H   0  0  0  0  0  0  0  0  0  0  0  0
   23.3830    7.5530   28.8250 H   0  0  0  0  0  0  0  0  0  0  0  0
   23.4140    4.0890   32.1470 C   0  0  0  0  0  0  0  0  0  0  0  0
   23.0950    3.5660   33.0370 H   0  0  0  0  0  0  0  0  0  0  0  0
   24.7180    3.9780   31.7190 C   0  0  0  0  0  0  0  0  0  0  0  0
   25.4090    3.3570   32.2680 H   0  0  0  0  0  0  0  0  0  0  0  0
   25.1510    4.6510   30.5950 C   0  0  0  0  0  0  0  0  0  0  0  0
   24.2580    5.4320   29.8900 C   0  0  0  0  0  0  0  0  0  0  0  0
   24.5800    5.9610   29.0060 H   0  0  0  0  0  0  0  0  0  0  0  0
   26.5710    4.5060   30.1520 C   0  0  0  0  0  0  0  0  0  0  0  0
   27.1250    3.9170   30.8830 H   0  0  0  0  0  0  0  0  0  0  0  0
   27.0280    5.4910   30.0580 H   0  0  0  0  0  0  0  0  0  0  0  0
   26.5930    3.6820   28.5760 S   0  0  0  0  0  0  0  0  0  0  0  0
   25.5850    2.6380   28.5750 O   0  0  0  0  0  0  0  0  0  0  0  0
   27.9770    3.3710   28.2710 O   0  0  0  0  0  0  0  0  0  0  0  0
   26.0600    4.9600   27.4770 C   0  0  0  0  0  0  0  0  0  0  0  0
   25.0210    5.2110   27.6880 H   0  0  0  0  0  0  0  0  0  0  0  0
   26.1490    4.6140   26.4470 H   0  0  0  0  0  0  0  0  0  0  0  0
   26.6830    5.8440   27.6190 H   0  0  0  0  0  0  0  0  0  0  0  0
   20.9250   12.6250   31.9000 O   0  0  0  0  0  0  0  0  0  0  0  0
   21.5910   12.2870   30.9290 C   0  0  0  0  0  0  0  0  0  0  0  0
   21.3750   12.7070   29.6420 N   0  0  0  0  0  0  0  0  0  0  0  0
   20.6180   13.3440   29.4400 H   0  0  0  0  0  0  0  0  0  0  0  0
   21.9730   12.3790   28.8970 H   0  0  0  0  0  0  0  0  0  0  0  0
   22.7270   11.3600   31.0840 C   0  0  0  0  0  0  0  0  0  0  0  0
   23.9780   11.7170   30.6280 C   0  0  0  0  0  0  0  0  0  0  0  0
   24.1820   12.9050   30.0400 F   0  0  0  0  0  0  0  0  0  0  0  0
   25.0370   10.8510   30.7730 C   0  0  0  0  0  0  0  0  0  0  0  0
   26.0180   11.1270   30.4160 H   0  0  0  0  0  0  0  0  0  0  0  0
   24.8390    9.6290   31.3750 C   0  0  0  0  0  0  0  0  0  0  0  0
   25.6670    8.9460   31.4910 H   0  0  0  0  0  0  0  0  0  0  0  0
   23.5880    9.2760   31.8320 C   0  0  0  0  0  0  0  0  0  0  0  0
   23.4430    8.3160   32.3050 H   0  0  0  0  0  0  0  0  0  0  0  0
   22.5190   10.1350   31.6910 C   0  0  0  0  0  0  0  0  0  0  0  0
   21.2300    9.8230   32.1360 N   0  0  0  0  0  0  0  0  0  0  0  0
   20.6360   10.6100   32.3560 H   0  0  0  0  0  0  0  0  0  0  0  0
  1 54  1  6  0  0  0
  1  3  1  0  0  0  0
  2 12  2  0  0  0  0
  2  1  1  0  0  0  0
  3  4  2  0  0  0  0
  3  9  1  0  0  0  0
  4  5  1  0  0  0  0
  5  7  1  0  0  0  0
  5  6  1  0  0  0  0
  7  8  1  0  0  0  0
  9 10  1  0  0  0  0
  9  7  2  0  0  0  0
 11  4  1  0  0  0  0
 12 11  1  0  0  0  0
 13 14  1  0  0  0  0
 13 12  1  0  0  0  0
 15 13  1  0  0  0  0
 15 22  1  0  0  0  0
 16 15  2  0  0  0  0
 17 16  1  0  0  0  0
 18 21  1  0  0  0  0
 18 17  1  0  0  0  0
 19 18  1  0  0  0  0
 20 18  1  0  0  0  0
 22 23  1  0  0  0  0
 24 22  2  0  0  0  0
 24 25  1  0  0  0  0
 26 24  1  0  0  0  0
 27 16  1  0  0  0  0
 27 26  2  0  0  0  0
 28 27  1  0  0  0  0
 29 26  1  0  0  0  0
 29 30  1  0  0  0  0
 31 29  1  0  0  0  0
 32 29  1  0  0  0  0
 33 32  2  0  0  0  0
 34 32  2  0  0  0  0
 35 38  1  0  0  0  0
 35 36  1  0  0  0  0
 35 32  1  0  0  0  0
 37 35  1  0  0  0  0
 40 44  1  0  0  0  0
 40 39  2  0  0  0  0
 41 40  1  0  0  0  0
 42 41  1  0  0  0  0
 43 41  1  0  0  0  0
 44 53  1  0  0  0  0
 45 47  1  0  0  0  0
 45 44  2  0  0  0  0
 46 45  1  0  0  0  0
 47 49  2  0  0  0  0
 48 47  1  0  0  0  0
 49 50  1  0  0  0  0
 49 51  1  0  0  0  0
 51 52  1  0  0  0  0
 53 51  2  0  0  0  0
 53 54  1  0  0  0  0
 54 55  1  0  0  0  0
M  END
>  <Pose>
1

>  <Score>
-9.33

$$$$

 OpenBabel03102210443D

 55 58  0  0  1  0  0  0  0  0999 V2000
   24.2250    8.6520   30.1530 C   0  0  2  0  0  0  0  0  0  0  0  0
   24.2910    9.9950   30.1660 N   0  0  0  0  0  0  0  0  0  0  0  0
   25.3700    7.9820   29.7730 C   0  0  0  0  0  0  0  0  0  0  0  0
   26.4710    8.7290   29.4440 C   0  0  0  0  0  0  0  0  0  0  0  0
   27.4750    7.8710   29.1010 N   0  0  0  0  0  0  0  0  0  0  0  0
   28.4020    8.1480   28.8110 H   0  0  0  0  0  0  0  0  0  0  0  0
   27.0410    6.5810   29.2070 C   0  0  0  0  0  0  0  0  0  0  0  0
   27.6200    5.6930   29.0010 H   0  0  0  0  0  0  0  0  0  0  0  0
   25.7280    6.6160   29.6240 C   0  0  0  0  0  0  0  0  0  0  0  0
   25.0900    5.7640   29.8050 H   0  0  0  0  0  0  0  0  0  0  0  0
   26.5550   10.0550   29.4540 N   0  0  0  0  0  0  0  0  0  0  0  0
   25.4160   10.6390   29.8310 C   0  0  0  0  0  0  0  0  0  0  0  0
   25.4490   12.0480   29.8550 N   0  0  0  0  0  0  0  0  0  0  0  0
   26.2860   12.5040   29.5210 H   0  0  0  0  0  0  0  0  0  0  0  0
   24.3950   12.8650   30.3120 C   0  0  0  0  0  0  0  0  0  0  0  0
   23.7080   13.6470   29.4090 C   0  0  0  0  0  0  0  0  0  0  0  0
   24.1370   13.5630   28.0910 O   0  0  0  0  0  0  0  0  0  0  0  0
   24.8170   14.7570   27.7270 C   0  0  0  0  0  0  0  0  0  0  0  0
   25.1510   14.6840   26.6920 H   0  0  0  0  0  0  0  0  0  0  0  0
   25.6790   14.8970   28.3780 H   0  0  0  0  0  0  0  0  0  0  0  0
   24.1410   15.6060   27.8320 H   0  0  0  0  0  0  0  0  0  0  0  0
   24.0210   12.8950   31.6390 C   0  0  0  0  0  0  0  0  0  0  0  0
   24.5420   12.2800   32.3580 H   0  0  0  0  0  0  0  0  0  0  0  0
   22.9860   13.7040   32.0510 C   0  0  0  0  0  0  0  0  0  0  0  0
   22.7110   13.7280   33.0950 H   0  0  0  0  0  0  0  0  0  0  0  0
   22.2960   14.4830   31.1470 C   0  0  0  0  0  0  0  0  0  0  0  0
   22.6620   14.4570   29.8160 C   0  0  0  0  0  0  0  0  0  0  0  0
   22.1340   15.0650   29.0960 H   0  0  0  0  0  0  0  0  0  0  0  0
   21.1810   15.3550   31.6260 C   0  0  0  0  0  0  0  0  0  0  0  0
   20.8250   14.9970   32.5920 H   0  0  0  0  0  0  0  0  0  0  0  0
   20.3620   15.3330   30.9070 H   0  0  0  0  0  0  0  0  0  0  0  0
   21.7900   17.0180   31.7900 S   0  0  0  0  0  0  0  0  0  0  0  0
   22.0600   17.5540   30.4690 O   0  0  0  0  0  0  0  0  0  0  0  0
   22.8270   16.9990   32.8050 O   0  0  0  0  0  0  0  0  0  0  0  0
   20.3880   17.8680   32.4510 C   0  0  0  0  0  0  0  0  0  0  0  0
   19.5950   17.8940   31.7040 H   0  0  0  0  0  0  0  0  0  0  0  0
   20.6720   18.8860   32.7160 H   0  0  0  0  0  0  0  0  0  0  0  0
   20.0330   17.3460   33.3400 H   0  0  0  0  0  0  0  0  0  0  0  0
   22.0460    5.5170   30.3090 O   0  0  0  0  0  0  0  0  0  0  0  0
   21.6220    5.7410   31.4360 C   0  0  0  0  0  0  0  0  0  0  0  0
   21.3900    4.7870   32.3920 N   0  0  0  0  0  0  0  0  0  0  0  0
   21.5700    3.8140   32.1890 H   0  0  0  0  0  0  0  0  0  0  0  0
   21.0390    5.0570   33.3000 H   0  0  0  0  0  0  0  0  0  0  0  0
   21.3180    7.1190   31.8640 C   0  0  0  0  0  0  0  0  0  0  0  0
   20.2860    7.3560   32.7470 C   0  0  0  0  0  0  0  0  0  0  0  0
   19.5450    6.3450   33.2270 F   0  0  0  0  0  0  0  0  0  0  0  0
   20.0020    8.6420   33.1450 C   0  0  0  0  0  0  0  0  0  0  0  0
   19.1930    8.8310   33.8350 H   0  0  0  0  0  0  0  0  0  0  0  0
   20.7550    9.6860   32.6580 C   0  0  0  0  0  0  0  0  0  0  0  0
   20.5360   10.6970   32.9670 H   0  0  0  0  0  0  0  0  0  0  0  0
   21.7870    9.4450   31.7780 C   0  0  0  0  0  0  0  0  0  0  0  0
   22.3730   10.2710   31.4030 H   0  0  0  0  0  0  0  0  0  0  0  0
   22.0790    8.1610   31.3710 C   0  0  0  0  0  0  0  0  0  0  0  0
   23.1160    7.8650   30.4790 N   0  0  0  0  0  0  0  0  0  0  0  0
   23.0550    6.9710   30.0130 H   0  0  0  0  0  0  0  0  0  0  0  0
  1  2  1  0  0  0  0
  1 54  1  6  0  0  0
  3  1  1  0  0  0  0
  4 11  1  0  0  0  0
  4  3  2  0  0  0  0
  5  7  1  0  0  0  0
  5  4  1  0  0  0  0
  6  5  1  0  0  0  0
  7  9  2  0  0  0  0
  8  7  1  0  0  0  0
  9  3  1  0  0  0  0
  9 10  1  0  0  0  0
 11 12  1  0  0  0  0
 12 13  1  0  0  0  0
 12  2  2  0  0  0  0
 13 15  1  0  0  0  0
 14 13  1  0  0  0  0
 15 22  1  0  0  0  0
 16 27  1  0  0  0  0
 16 15  2  0  0  0  0
 17 16  1  0  0  0  0
 18 21  1  0  0  0  0
 18 17  1  0  0  0  0
 18 20  1  0  0  0  0
 19 18  1  0  0  0  0
 22 24  2  0  0  0  0
 22 23  1  0  0  0  0
 24 25  1  0  0  0  0
 26 29  1  0  0  0  0
 26 24  1  0  0  0  0
 27 26  2  0  0  0  0
 28 27  1  0  0  0  0
 29 32  1  0  0  0  0
 29 30  1  0  0  0  0
 31 29  1  0  0  0  0
 32 35  1  0  0  0  0
 32 34  2  0  0  0  0
 33 32  2  0  0  0  0
 35 37  1  0  0  0  0
 35 38  1  0  0  0  0
 36 35  1  0  0  0  0
 39 40  2  0  0  0  0
 40 44  1  0  0  0  0
 40 41  1  0  0  0  0
 41 43  1  0  0  0  0
 42 41  1  0  0  0  0
 44 45  1  0  0  0  0
 45 47  2  0  0  0  0
 45 46  1  0  0  0  0
 47 48  1  0  0  0  0
 49 50  1  0  0  0  0
 49 47  1  0  0  0  0
 51 49  2  0  0  0  0
 52 51  1  0  0  0  0
 53 51  1  0  0  0  0
 53 44  2  0  0  0  0
 54 53  1  0  0  0  0
 55 54  1  0  0  0  0
M  END
>  <Pose>
1

>  <Score>
-8.93

$$$$

 OpenBabel03102210443D

 55 58  0  0  1  0  0  0  0  0999 V2000
   25.9650    8.4570   29.9420 C   0  0  2  0  0  0  0  0  0  0  0  0
   25.7170    9.7610   30.1550 N   0  0  0  0  0  0  0  0  0  0  0  0
   26.8770    8.1560   28.9520 C   0  0  0  0  0  0  0  0  0  0  0  0
   27.4520    9.1990   28.2720 C   0  0  0  0  0  0  0  0  0  0  0  0
   28.3100    8.6770   27.3470 N   0  0  0  0  0  0  0  0  0  0  0  0
   28.8680    9.2180   26.7030 H   0  0  0  0  0  0  0  0  0  0  0  0
   28.3000    7.3130   27.4220 C   0  0  0  0  0  0  0  0  0  0  0  0
   28.8820    6.6370   26.8130 H   0  0  0  0  0  0  0  0  0  0  0  0
   27.4140    6.9570   28.4150 C   0  0  0  0  0  0  0  0  0  0  0  0
   27.1730    5.9520   28.7280 H   0  0  0  0  0  0  0  0  0  0  0  0
   27.2210   10.4920   28.4700 N   0  0  0  0  0  0  0  0  0  0  0  0
   26.3320   10.7120   29.4410 C   0  0  0  0  0  0  0  0  0  0  0  0
   26.0460   12.0690   29.6900 N   0  0  0  0  0  0  0  0  0  0  0  0
   26.8140   12.7250   29.6530 H   0  0  0  0  0  0  0  0  0  0  0  0
   24.7650   12.5750   29.9870 C   0  0  0  0  0  0  0  0  0  0  0  0
   24.1150   13.3550   29.0540 C   0  0  0  0  0  0  0  0  0  0  0  0
   24.8100   13.5850   27.8740 O   0  0  0  0  0  0  0  0  0  0  0  0
   24.9710   14.9830   27.6740 C   0  0  0  0  0  0  0  0  0  0  0  0
   25.5170   15.1560   26.7460 H   0  0  0  0  0  0  0  0  0  0  0  0
   25.5290   15.4080   28.5080 H   0  0  0  0  0  0  0  0  0  0  0  0
   23.9910   15.4570   27.6130 H   0  0  0  0  0  0  0  0  0  0  0  0
   24.1340   12.3020   31.1820 C   0  0  0  0  0  0  0  0  0  0  0  0
   24.6240   11.6840   31.9200 H   0  0  0  0  0  0  0  0  0  0  0  0
   22.8810   12.8120   31.4390 C   0  0  0  0  0  0  0  0  0  0  0  0
   22.4030   12.6010   32.3850 H   0  0  0  0  0  0  0  0  0  0  0  0
   22.2290   13.5880   30.5040 C   0  0  0  0  0  0  0  0  0  0  0  0
   22.8530   13.8640   29.3040 C   0  0  0  0  0  0  0  0  0  0  0  0
   22.3580   14.4750   28.5640 H   0  0  0  0  0  0  0  0  0  0  0  0
   20.8720   14.1320   30.8150 C   0  0  0  0  0  0  0  0  0  0  0  0
   20.3450   13.4450   31.4780 H   0  0  0  0  0  0  0  0  0  0  0  0
   20.3050   14.2530   29.8920 H   0  0  0  0  0  0  0  0  0  0  0  0
   21.0620   15.7100   31.6140 S   0  0  0  0  0  0  0  0  0  0  0  0
   21.8990   15.5470   32.7880 O   0  0  0  0  0  0  0  0  0  0  0  0
   19.7400   16.2970   31.7270 O   0  0  0  0  0  0  0  0  0  0  0  0
   21.9740   16.6310   30.4130 C   0  0  0  0  0  0  0  0  0  0  0  0
   22.9730   16.2070   30.3110 H   0  0  0  0  0  0  0  0  0  0  0  0
   22.0520   17.6700   30.7330 H   0  0  0  0  0  0  0  0  0  0  0  0
   21.4610   16.5850   29.4520 H   0  0  0  0  0  0  0  0  0  0  0  0
   25.2740    5.0290   29.4450 O   0  0  0  0  0  0  0  0  0  0  0  0
   24.4130    4.8060   30.2880 C   0  0  0  0  0  0  0  0  0  0  0  0
   24.1780    3.5870   30.8690 N   0  0  0  0  0  0  0  0  0  0  0  0
   24.7370    2.7870   30.6080 H   0  0  0  0  0  0  0  0  0  0  0  0
   23.4460    3.4890   31.5570 H   0  0  0  0  0  0  0  0  0  0  0  0
   23.5270    5.8870   30.7590 C   0  0  0  0  0  0  0  0  0  0  0  0
   22.2040    5.6210   31.0400 C   0  0  0  0  0  0  0  0  0  0  0  0
   21.7030    4.3860   30.8900 F   0  0  0  0  0  0  0  0  0  0  0  0
   21.3770    6.6300   31.4780 C   0  0  0  0  0  0  0  0  0  0  0  0
   20.3400    6.4260   31.6980 H   0  0  0  0  0  0  0  0  0  0  0  0
   21.8810    7.9010   31.6360 C   0  0  0  0  0  0  0  0  0  0  0  0
   21.2360    8.6970   31.9790 H   0  0  0  0  0  0  0  0  0  0  0  0
   23.2040    8.1620   31.3560 C   0  0  0  0  0  0  0  0  0  0  0  0
   23.5900    9.1630   31.4850 H   0  0  0  0  0  0  0  0  0  0  0  0
   24.0410    7.1600   30.9150 C   0  0  0  0  0  0  0  0  0  0  0  0
   25.3910    7.3740   30.6170 N   0  0  0  0  0  0  0  0  0  0  0  0
   26.0310    6.6570   30.9270 H   0  0  0  0  0  0  0  0  0  0  0  0
  1  2  1  0  0  0  0
  1 54  1  6  0  0  0
  3  1  1  0  0  0  0
  4 11  1  0  0  0  0
  4  3  2  0  0  0  0
  5  7  1  0  0  0  0
  5  4  1  0  0  0  0
  6  5  1  0  0  0  0
  7  9  2  0  0  0  0
  8  7  1  0  0  0  0
  9 10  1  0  0  0  0
  9  3  1  0  0  0  0
 11 12  1  0  0  0  0
 12 13  1  0  0  0  0
 12  2  2  0  0  0  0
 13 15  1  0  0  0  0
 14 13  1  0  0  0  0
 15 22  1  0  0  0  0
 16 27  1  0  0  0  0
 16 15  2  0  0  0  0
 17 16  1  0  0  0  0
 18 17  1  0  0  0  0
 18 20  1  0  0  0  0
 19 18  1  0  0  0  0
 21 18  1  0  0  0  0
 22 24  2  0  0  0  0
 22 23  1  0  0  0  0
 24 25  1  0  0  0  0
 26 29  1  0  0  0  0
 26 24  1  0  0  0  0
 27 26  2  0  0  0  0
 28 27  1  0  0  0  0
 29 30  1  0  0  0  0
 29 32  1  0  0  0  0
 31 29  1  0  0  0  0
 32 34  2  0  0  0  0
 32 33  2  0  0  0  0
 35 37  1  0  0  0  0
 35 32  1  0  0  0  0
 36 35  1  0  0  0  0
 38 35  1  0  0  0  0
 39 40  2  0  0  0  0
 40 44  1  0  0  0  0
 40 41  1  0  0  0  0
 41 43  1  0  0  0  0
 42 41  1  0  0  0  0
 44 53  2  0  0  0  0
 44 45  1  0  0  0  0
 45 47  2  0  0  0  0
 46 45  1  0  0  0  0
 47 49  1  0  0  0  0
 47 48  1  0  0  0  0
 49 50  1  0  0  0  0
 51 52  1  0  0  0  0
 51 49  2  0  0  0  0
 53 51  1  0  0  0  0
 54 53  1  0  0  0  0
 54 55  1  0  0  0  0
M  END
>  <Pose>
1

>  <Score>
-8.79

$$$$

 OpenBabel03102210443D

 55 57  0  0  0  0  0  0  0  0999 V2000
   22.4390    6.2710   31.1120 C   0  0  0  0  0  0  0  0  0  0  0  0
   22.7300    4.9580   31.1150 N   0  0  0  0  0  0  0  0  0  0  0  0
   23.4970    7.1370   30.9360 C   0  0  0  0  0  0  0  0  0  0  0  0
   24.7480    6.5980   30.7780 C   0  0  0  0  0  0  0  0  0  0  0  0
   25.6330    7.6260   30.6230 N   0  0  0  0  0  4  0  0  0  0  0  0
   26.6280    7.5190   30.4900 H   0  0  0  0  0  0  0  0  0  0  0  0
   24.9720    8.8200   30.6750 C   0  0  0  0  0  0  0  0  0  0  0  0
   25.4170    9.7990   30.5800 H   0  0  0  0  0  0  0  0  0  0  0  0
   23.6360    8.5480   30.8700 C   0  0  0  0  0  0  0  0  0  0  0  0
   22.8410    9.2750   30.9570 H   0  0  0  0  0  0  0  0  0  0  0  0
   25.0540    5.3060   30.7750 N   0  0  0  0  0  0  0  0  0  0  0  0
   23.9850    4.5240   30.9490 C   0  0  0  0  0  0  0  0  0  0  0  0
   24.2550    3.1410   30.9590 N   0  0  0  0  0  0  0  0  0  0  0  0
   24.1340    2.6330   30.0940 H   0  0  0  0  0  0  0  0  0  0  0  0
   24.6810    2.4170   32.0900 C   0  0  0  0  0  0  0  0  0  0  0  0
   25.9110    1.7950   32.0680 C   0  0  0  0  0  0  0  0  0  0  0  0
   26.6350    1.9340   30.8920 O   0  0  0  0  0  0  0  0  0  0  0  0
   27.3570    3.1590   30.9100 C   0  0  0  0  0  0  0  0  0  0  0  0
   27.9220    3.2610   29.9840 H   0  0  0  0  0  0  0  0  0  0  0  0
   28.0420    3.1630   31.7570 H   0  0  0  0  0  0  0  0  0  0  0  0
   26.6580    3.9900   31.0040 H   0  0  0  0  0  0  0  0  0  0  0  0
   23.9080    2.3240   33.2280 C   0  0  0  0  0  0  0  0  0  0  0  0
   22.9470    2.8140   33.2660 H   0  0  0  0  0  0  0  0  0  0  0  0
   24.3560    1.6090   34.3160 C   0  0  0  0  0  0  0  0  0  0  0  0
   23.7350    1.5330   35.1970 H   0  0  0  0  0  0  0  0  0  0  0  0
   25.5880    0.9900   34.2950 C   0  0  0  0  0  0  0  0  0  0  0  0
   26.3700    1.0810   33.1620 C   0  0  0  0  0  0  0  0  0  0  0  0
   27.3350    0.5980   33.1280 H   0  0  0  0  0  0  0  0  0  0  0  0
   26.0440    0.2170   35.4910 C   0  0  0  0  0  0  0  0  0  0  0  0
   26.5140   -0.7120   35.1700 H   0  0  0  0  0  0  0  0  0  0  0  0
   25.1900   -0.0080   36.1290 H   0  0  0  0  0  0  0  0  0  0  0  0
   27.2210    1.2040   36.3900 S   0  0  0  0  0  0  0  0  0  0  0  0
   26.6310    2.4990   36.6750 O   0  0  0  0  0  0  0  0  0  0  0  0
   28.4870    1.1090   35.6880 O   0  0  0  0  0  0  0  0  0  0  0  0
   27.3660    0.3190   37.9130 C   0  0  0  0  0  0  0  0  0  0  0  0
   26.4240    0.3760   38.4580 H   0  0  0  0  0  0  0  0  0  0  0  0
   28.1610    0.7590   38.5140 H   0  0  0  0  0  0  0  0  0  0  0  0
   27.6020   -0.7250   37.7050 H   0  0  0  0  0  0  0  0  0  0  0  0
   19.4770    5.7340   32.7460 O   0  0  0  0  0  0  0  0  0  0  0  0
   18.9690    6.8310   32.9460 C   0  0  0  0  0  0  0  0  0  0  0  0
   17.6760    7.0370   33.3490 N   0  0  0  0  0  0  0  0  0  0  0  0
   17.0630    6.2490   33.5030 H   0  0  0  0  0  0  0  0  0  0  0  0
   17.3350    7.9770   33.4930 H   0  0  0  0  0  0  0  0  0  0  0  0
   19.7530    8.0660   32.7600 C   0  0  0  0  0  0  0  0  0  0  0  0
   19.3910    9.2200   33.4200 C   0  0  0  0  0  0  0  0  0  0  0  0
   18.3270    9.2410   34.2370 F   0  0  0  0  0  0  0  0  0  0  0  0
   20.1220   10.3720   33.2440 C   0  0  0  0  0  0  0  0  0  0  0  0
   19.8400   11.2790   33.7590 H   0  0  0  0  0  0  0  0  0  0  0  0
   21.2150   10.3630   32.4090 C   0  0  0  0  0  0  0  0  0  0  0  0
   21.7930   11.2650   32.2670 H   0  0  0  0  0  0  0  0  0  0  0  0
   21.5760    9.2070   31.7530 C   0  0  0  0  0  0  0  0  0  0  0  0
   22.4370    9.2090   31.1000 H   0  0  0  0  0  0  0  0  0  0  0  0
   20.8500    8.0470   31.9190 C   0  0  0  0  0  0  0  0  0  0  0  0
   21.1750    6.8480   31.2750 N   0  0  0  0  0  0  0  0  0  0  0  0
   20.4000    6.3360   30.8780 H   0  0  0  0  0  0  0  0  0  0  0  0
  1  2  1  0  0  0  0
  1 54  1  0  0  0  0
  3  1  2  0  0  0  0
  4  3  1  0  0  0  0
  5  7  2  0  0  0  0
  5  4  1  0  0  0  0
  6  5  1  0  0  0  0
  7  9  1  0  0  0  0
  8  7  1  0  0  0  0
  9 10  1  0  0  0  0
 11  4  2  0  0  0  0
 11 12  1  0  0  0  0
 12 13  1  0  0  0  0
 12  2  2  0  0  0  0
 13 15  1  0  0  0  0
 14 13  1  0  0  0  0
 15 22  1  0  0  0  0
 16 15  2  0  0  0  0
 16 27  1  0  0  0  0
 17 18  1  0  0  0  0
 17 16  1  0  0  0  0
 18 21  1  0  0  0  0
 18 20  1  0  0  0  0
 19 18  1  0  0  0  0
 22 23  1  0  0  0  0
 22 24  2  0  0  0  0
 24 25  1  0  0  0  0
 26 24  1  0  0  0  0
 26 29  1  0  0  0  0
 27 26  2  0  0  0  0
 28 27  1  0  0  0  0
 29 31  1  0  0  0  0
 29 32  1  0  0  0  0
 30 29  1  0  0  0  0
 32 33  2  0  0  0  0
 32 35  1  0  0  0  0
 34 32  2  0  0  0  0
 35 36  1  0  0  0  0
 35 37  1  0  0  0  0
 38 35  1  0  0  0  0
 39 40  2  0  0  0  0
 40 41  1  0  0  0  0
 41 43  1  0  0  0  0
 41 42  1  0  0  0  0
 44 40  1  0  0  0  0
 44 45  1  0  0  0  0
 45 46  1  0  0  0  0
 47 45  2  0  0  0  0
 47 48  1  0  0  0  0
 49 47  1  0  0  0  0
 50 49  1  0  0  0  0
 51 53  1  0  0  0  0
 51 49  2  0  0  0  0
 52 51  1  0  0  0  0
 53 44  2  0  0  0  0
 54 53  1  0  0  0  0
 55 54  1  0  0  0  0
M  END
>  <Pose>
1

>  <Score>
-8.35

$$$$

 OpenBabel03102210443D

 55 58  0  0  1  0  0  0  0  0999 V2000
   23.5810   11.6230   29.4720 C   0  0  2  0  0  0  0  0  0  0  0  0
   23.3230   10.5140   30.1880 N   0  0  0  0  0  0  0  0  0  0  0  0
   24.8260   11.7020   28.8840 C   0  0  0  0  0  0  0  0  0  0  0  0
   25.6920   10.6550   29.0740 C   0  0  0  0  0  0  0  0  0  0  0  0
   26.8520   10.9430   28.4130 N   0  0  0  0  0  0  0  0  0  0  0  0
   27.6670   10.3470   28.3850 H   0  0  0  0  0  0  0  0  0  0  0  0
   26.7460   12.1580   27.7970 C   0  0  0  0  0  0  0  0  0  0  0  0
   27.5080   12.6390   27.2010 H   0  0  0  0  0  0  0  0  0  0  0  0
   25.4920   12.6570   28.0730 C   0  0  0  0  0  0  0  0  0  0  0  0
   25.0900   13.6010   27.7340 H   0  0  0  0  0  0  0  0  0  0  0  0
   25.4540    9.5530   29.7750 N   0  0  0  0  0  0  0  0  0  0  0  0
   24.2330    9.5410   30.3140 C   0  0  0  0  0  0  0  0  0  0  0  0
   23.9290    8.3930   31.0740 N   0  0  0  0  0  0  0  0  0  0  0  0
   24.6730    7.7300   31.2410 H   0  0  0  0  0  0  0  0  0  0  0  0
   22.6610    8.1060   31.6160 C   0  0  0  0  0  0  0  0  0  0  0  0
   22.0700    6.8910   31.3410 C   0  0  0  0  0  0  0  0  0  0  0  0
   22.7970    6.0400   30.5200 O   0  0  0  0  0  0  0  0  0  0  0  0
   22.8850    4.7530   31.1160 C   0  0  0  0  0  0  0  0  0  0  0  0
   23.4570    4.0900   30.4670 H   0  0  0  0  0  0  0  0  0  0  0  0
   21.8830    4.3480   31.2560 H   0  0  0  0  0  0  0  0  0  0  0  0
   23.3820    4.8330   32.0830 H   0  0  0  0  0  0  0  0  0  0  0  0
   21.9960    9.0010   32.4270 C   0  0  0  0  0  0  0  0  0  0  0  0
   22.4500    9.9530   32.6610 H   0  0  0  0  0  0  0  0  0  0  0  0
   20.7580    8.6870   32.9410 C   0  0  0  0  0  0  0  0  0  0  0  0
   20.2420    9.4030   33.5650 H   0  0  0  0  0  0  0  0  0  0  0  0
   20.1690    7.4700   32.6690 C   0  0  0  0  0  0  0  0  0  0  0  0
   20.8280    6.5670   31.8610 C   0  0  0  0  0  0  0  0  0  0  0  0
   20.3780    5.6120   31.6340 H   0  0  0  0  0  0  0  0  0  0  0  0
   18.8220    7.1620   33.2380 C   0  0  0  0  0  0  0  0  0  0  0  0
   18.9350    6.6120   34.1720 H   0  0  0  0  0  0  0  0  0  0  0  0
   18.2530    6.5600   32.5290 H   0  0  0  0  0  0  0  0  0  0  0  0
   17.9690    8.6930   33.5420 S   0  0  0  0  0  0  0  0  0  0  0  0
   18.7870    9.5260   34.4040 O   0  0  0  0  0  0  0  0  0  0  0  0
   16.6060    8.3610   33.9130 O   0  0  0  0  0  0  0  0  0  0  0  0
   17.9390    9.4310   31.9360 C   0  0  0  0  0  0  0  0  0  0  0  0
   18.9540    9.6890   31.6350 H   0  0  0  0  0  0  0  0  0  0  0  0
   17.3270   10.3330   31.9610 H   0  0  0  0  0  0  0  0  0  0  0  0
   17.5160    8.7260   31.2200 H   0  0  0  0  0  0  0  0  0  0  0  0
   23.5730   16.5110   28.7180 O   0  0  0  0  0  0  0  0  0  0  0  0
   23.0420   15.4080   28.7640 C   0  0  0  0  0  0  0  0  0  0  0  0
   23.0170   14.5040   27.7340 N   0  0  0  0  0  0  0  0  0  0  0  0
   23.4600   14.7280   26.8550 H   0  0  0  0  0  0  0  0  0  0  0  0
   22.5570   13.6130   27.8550 H   0  0  0  0  0  0  0  0  0  0  0  0
   22.3590   14.9540   29.9900 C   0  0  0  0  0  0  0  0  0  0  0  0
   21.8760   15.8760   30.8940 C   0  0  0  0  0  0  0  0  0  0  0  0
   22.0180   17.1920   30.6760 F   0  0  0  0  0  0  0  0  0  0  0  0
   21.2410   15.4500   32.0370 C   0  0  0  0  0  0  0  0  0  0  0  0
   20.8630   16.1700   32.7480 H   0  0  0  0  0  0  0  0  0  0  0  0
   21.0900   14.1030   32.2710 C   0  0  0  0  0  0  0  0  0  0  0  0
   20.5920   13.7640   33.1670 H   0  0  0  0  0  0  0  0  0  0  0  0
   21.5720   13.1840   31.3640 C   0  0  0  0  0  0  0  0  0  0  0  0
   21.4470   12.1290   31.5550 H   0  0  0  0  0  0  0  0  0  0  0  0
   22.2120   13.5980   30.2160 C   0  0  0  0  0  0  0  0  0  0  0  0
   22.7200   12.7060   29.2650 N   0  0  0  0  0  0  0  0  0  0  0  0
   22.4280   12.8630   28.3110 H   0  0  0  0  0  0  0  0  0  0  0  0
  1 54  1  1  0  0  0
  1  2  1  0  0  0  0
  2 12  2  0  0  0  0
  3  4  2  0  0  0  0
  3  1  1  0  0  0  0
  4 11  1  0  0  0  0
  5  4  1  0  0  0  0
  6  5  1  0  0  0  0
  7  9  2  0  0  0  0
  7  5  1  0  0  0  0
  8  7  1  0  0  0  0
  9  3  1  0  0  0  0
 10  9  1  0  0  0  0
 11 12  1  0  0  0  0
 12 13  1  0  0  0  0
 13 14  1  0  0  0  0
 13 15  1  0  0  0  0
 15 22  1  0  0  0  0
 16 15  2  0  0  0  0
 16 27  1  0  0  0  0
 17 18  1  0  0  0  0
 17 16  1  0  0  0  0
 18 20  1  0  0  0  0
 18 21  1  0  0  0  0
 19 18  1  0  0  0  0
 22 23  1  0  0  0  0
 22 24  2  0  0  0  0
 24 25  1  0  0  0  0
 26 24  1  0  0  0  0
 26 29  1  0  0  0  0
 27 26  2  0  0  0  0
 28 27  1  0  0  0  0
 29 32  1  0  0  0  0
 29 30  1  0  0  0  0
 31 29  1  0  0  0  0
 32 34  2  0  0  0  0
 32 33  2  0  0  0  0
 35 37  1  0  0  0  0
 35 32  1  0  0  0  0
 36 35  1  0  0  0  0
 38 35  1  0  0  0  0
 39 40  2  0  0  0  0
 40 44  1  0  0  0  0
 41 43  1  0  0  0  0
 41 40  1  0  0  0  0
 42 41  1  0  0  0  0
 44 53  2  0  0  0  0
 44 45  1  0  0  0  0
 45 47  2  0  0  0  0
 46 45  1  0  0  0  0
 47 49  1  0  0  0  0
 47 48  1  0  0  0  0
 49 50  1  0  0  0  0
 51 52  1  0  0  0  0
 51 49  2  0  0  0  0
 53 51  1  0  0  0  0
 54 53  1  0  0  0  0
 55 54  1  0  0  0  0
M  END
>  <Pose>
1

>  <Score>
-7.75

$$$$

 OpenBabel03102210443D

 55 58  0  0  1  0  0  0  0  0999 V2000
   23.8710    9.3050   29.7250 C   0  0  2  0  0  0  0  0  0  0  0  0
   24.9610    8.5180   29.7130 N   0  0  0  0  0  0  0  0  0  0  0  0
   24.0900   10.6650   29.6540 C   0  0  0  0  0  0  0  0  0  0  0  0
   25.3880   11.1010   29.5780 C   0  0  0  0  0  0  0  0  0  0  0  0
   25.3700   12.4650   29.5200 N   0  0  0  0  0  0  0  0  0  0  0  0
   26.1890   13.0540   29.4610 H   0  0  0  0  0  0  0  0  0  0  0  0
   24.0820   12.9150   29.5550 C   0  0  0  0  0  0  0  0  0  0  0  0
   23.7650   13.9480   29.5220 H   0  0  0  0  0  0  0  0  0  0  0  0
   23.2580   11.8140   29.6390 C   0  0  0  0  0  0  0  0  0  0  0  0
   22.1790   11.8240   29.6850 H   0  0  0  0  0  0  0  0  0  0  0  0
   26.4760   10.3400   29.5620 N   0  0  0  0  0  0  0  0  0  0  0  0
   26.1920    9.0370   29.6310 C   0  0  0  0  0  0  0  0  0  0  0  0
   27.3130    8.1830   29.6220 N   0  0  0  0  0  0  0  0  0  0  0  0
   27.8070    8.0480   30.4930 H   0  0  0  0  0  0  0  0  0  0  0  0
   27.7910    7.5030   28.4840 C   0  0  0  0  0  0  0  0  0  0  0  0
   27.4620    6.1770   28.3030 C   0  0  0  0  0  0  0  0  0  0  0  0
   26.6730    5.6110   29.2960 O   0  0  0  0  0  0  0  0  0  0  0  0
   26.0460    4.4350   28.8040 C   0  0  0  0  0  0  0  0  0  0  0  0
   25.4290    3.9970   29.5890 H   0  0  0  0  0  0  0  0  0  0  0  0
   26.8070    3.7180   28.4980 H   0  0  0  0  0  0  0  0  0  0  0  0
   25.4200    4.6880   27.9480 H   0  0  0  0  0  0  0  0  0  0  0  0
   28.5690    8.1310   27.5350 C   0  0  0  0  0  0  0  0  0  0  0  0
   28.8280    9.1730   27.6560 H   0  0  0  0  0  0  0  0  0  0  0  0
   29.0190    7.4380   26.4340 C   0  0  0  0  0  0  0  0  0  0  0  0
   29.6390    7.9380   25.7050 H   0  0  0  0  0  0  0  0  0  0  0  0
   28.6870    6.1120   26.2520 C   0  0  0  0  0  0  0  0  0  0  0  0
   27.9050    5.4760   27.1950 C   0  0  0  0  0  0  0  0  0  0  0  0
   27.6400    4.4370   27.0680 H   0  0  0  0  0  0  0  0  0  0  0  0
   29.1940    5.3840   25.0490 C   0  0  0  0  0  0  0  0  0  0  0  0
   28.6770    5.7410   24.1580 H   0  0  0  0  0  0  0  0  0  0  0  0
   29.0210    4.3150   25.1660 H   0  0  0  0  0  0  0  0  0  0  0  0
   30.9390    5.6950   24.8920 S   0  0  0  0  0  0  0  0  0  0  0  0
   31.5460    5.6550   26.2100 O   0  0  0  0  0  0  0  0  0  0  0  0
   31.0950    6.8620   24.0440 O   0  0  0  0  0  0  0  0  0  0  0  0
   31.4920    4.2790   23.9900 C   0  0  0  0  0  0  0  0  0  0  0  0
   31.3850    3.3890   24.6090 H   0  0  0  0  0  0  0  0  0  0  0  0
   32.5400    4.4080   23.7180 H   0  0  0  0  0  0  0  0  0  0  0  0
   30.8940    4.1680   23.0860 H   0  0  0  0  0  0  0  0  0  0  0  0
   22.4810    6.4170   29.3190 O   0  0  0  0  0  0  0  0  0  0  0  0
   22.2420    6.2260   30.5050 C   0  0  0  0  0  0  0  0  0  0  0  0
   22.5030    5.0640   31.1830 N   0  0  0  0  0  0  0  0  0  0  0  0
   22.9250    4.2830   30.7010 H   0  0  0  0  0  0  0  0  0  0  0  0
   22.2750    4.9890   32.1640 H   0  0  0  0  0  0  0  0  0  0  0  0
   21.6270    7.2850   31.3270 C   0  0  0  0  0  0  0  0  0  0  0  0
   20.9010    6.9540   32.4500 C   0  0  0  0  0  0  0  0  0  0  0  0
   20.7420    5.6720   32.8130 F   0  0  0  0  0  0  0  0  0  0  0  0
   20.3260    7.9420   33.2150 C   0  0  0  0  0  0  0  0  0  0  0  0
   19.7560    7.6860   34.0960 H   0  0  0  0  0  0  0  0  0  0  0  0
   20.4830    9.2610   32.8530 C   0  0  0  0  0  0  0  0  0  0  0  0
   20.0340   10.0400   33.4500 H   0  0  0  0  0  0  0  0  0  0  0  0
   21.2110    9.5880   31.7300 C   0  0  0  0  0  0  0  0  0  0  0  0
   21.3300   10.6260   31.4550 H   0  0  0  0  0  0  0  0  0  0  0  0
   21.7900    8.6070   30.9550 C   0  0  0  0  0  0  0  0  0  0  0  0
   22.5380    8.8880   29.8060 N   0  0  0  0  0  0  0  0  0  0  0  0
   22.0550    8.7750   28.9260 H   0  0  0  0  0  0  0  0  0  0  0  0
  1 54  1  1  0  0  0
  2  1  1  0  0  0  0
  3  1  1  0  0  0  0
  4  3  2  0  0  0  0
  5  7  1  0  0  0  0
  5  4  1  0  0  0  0
  6  5  1  0  0  0  0
  7  9  2  0  0  0  0
  8  7  1  0  0  0  0
  9  3  1  0  0  0  0
  9 10  1  0  0  0  0
 11  4  1  0  0  0  0
 11 12  1  0  0  0  0
 12  2  2  0  0  0  0
 13 12  1  0  0  0  0
 13 14  1  0  0  0  0
 15 13  1  0  0  0  0
 16 15  1  0  0  0  0
 16 17  1  0  0  0  0
 18 17  1  0  0  0  0
 18 19  1  0  0  0  0
 20 18  1  0  0  0  0
 21 18  1  0  0  0  0
 22 23  1  0  0  0  0
 22 15  2  0  0  0  0
 24 22  1  0  0  0  0
 25 24  1  0  0  0  0
 26 24  2  0  0  0  0
 26 27  1  0  0  0  0
 27 16  2  0  0  0  0
 28 27  1  0  0  0  0
 29 31  1  0  0  0  0
 29 26  1  0  0  0  0
 30 29  1  0  0  0  0
 32 29  1  0  0  0  0
 32 33  2  0  0  0  0
 34 32  2  0  0  0  0
 35 36  1  0  0  0  0
 35 32  1  0  0  0  0
 37 35  1  0  0  0  0
 38 35  1  0  0  0  0
 39 40  2  0  0  0  0
 40 41  1  0  0  0  0
 40 44  1  0  0  0  0
 41 43  1  0  0  0  0
 42 41  1  0  0  0  0
 44 45  1  0  0  0  0
 45 46  1  0  0  0  0
 45 47  2  0  0  0  0
 47 48  1  0  0  0  0
 49 47  1  0  0  0  0
 49 50  1  0  0  0  0
 51 49  2  0  0  0  0
 52 51  1  0  0  0  0
 53 44  2  0  0  0  0
 53 51  1  0  0  0  0
 54 53  1  0  0  0  0
 55 54  1  0  0  0  0
M  END
>  <Pose>
1

>  <Score>
-7.37

$$$$
