
 OpenBabel03112215103D

 77 81  0  0  1  0  0  0  0  0999 V2000
   55.2310   93.1580   23.1850 C   0  0  0  0  0  0  0  0  0  0  0  0
   54.0920   93.5300   22.9450 O   0  0  0  0  0  0  0  0  0  0  0  0
   55.9620   93.7340   24.1810 N   0  0  0  0  0  0  0  0  0  0  0  0
   56.9150   93.4270   24.3110 H   0  0  0  0  0  0  0  0  0  0  0  0
   55.4640   94.7310   25.0380 C   0  0  0  0  0  0  0  0  0  0  0  0
   56.1500   95.9550   25.2700 C   0  0  0  0  0  0  0  0  0  0  0  0
   55.5720   96.9050   26.1710 C   0  0  0  0  0  0  0  0  0  0  0  0
   54.3300   96.6080   26.8190 C   0  0  0  0  0  0  0  0  0  0  0  0
   53.7030   95.4200   26.5660 C   0  0  0  0  0  0  0  0  0  0  0  0
   52.7590   95.2030   27.0440 H   0  0  0  0  0  0  0  0  0  0  0  0
   54.2670   94.4830   25.6990 C   0  0  0  0  0  0  0  0  0  0  0  0
   53.7600   93.5430   25.5380 H   0  0  0  0  0  0  0  0  0  0  0  0
   55.8140   92.1710   22.4680 N   0  0  0  0  0  0  0  0  0  0  0  0
   56.7720   91.9390   22.6870 H   0  0  0  0  0  0  0  0  0  0  0  0
   55.1920   91.4480   21.4460 C   0  0  0  0  0  0  0  0  0  0  0  0
   55.1730   90.0890   21.3810 N   0  0  0  0  0  0  0  0  0  0  0  0
   54.4790   89.7090   20.2460 N   0  0  0  0  0  0  0  0  0  0  0  0
   54.0690   90.7850   19.6330 C   0  0  2  0  0  0  0  0  0  0  0  0
   54.9950   90.8070   19.0570 H   0  0  0  0  0  0  0  0  0  0  0  0
   54.4970   91.9050   20.3610 C   0  0  0  0  0  0  0  0  0  0  0  0
   54.3120   92.9390   20.1110 H   0  0  0  0  0  0  0  0  0  0  0  0
   55.7610   89.1810   22.2650 C   0  0  0  0  0  0  0  0  0  0  0  0
   53.2750   90.7800   18.3500 C   0  0  0  0  0  0  0  0  0  0  0  0
   54.2220   91.2050   17.2270 C   0  0  0  0  0  0  0  0  0  0  0  0
   55.0560   90.5060   17.1720 H   0  0  0  0  0  0  0  0  0  0  0  0
   54.6000   92.2070   17.4300 H   0  0  0  0  0  0  0  0  0  0  0  0
   53.6840   91.2050   16.2790 H   0  0  0  0  0  0  0  0  0  0  0  0
   52.7370   89.3800   18.0300 C   0  0  0  0  0  0  0  0  0  0  0  0
   53.5700   88.6820   17.9410 H   0  0  0  0  0  0  0  0  0  0  0  0
   52.1860   89.4090   17.0900 H   0  0  0  0  0  0  0  0  0  0  0  0
   52.0730   89.0540   18.8310 H   0  0  0  0  0  0  0  0  0  0  0  0
   52.0840   91.7340   18.4680 C   0  0  0  0  0  0  0  0  0  0  0  0
   52.4430   92.7370   18.6960 H   0  0  0  0  0  0  0  0  0  0  0  0
   51.4240   91.3940   19.2660 H   0  0  0  0  0  0  0  0  0  0  0  0
   51.5360   91.7490   17.5260 H   0  0  0  0  0  0  0  0  0  0  0  0
   56.3470   88.0380   21.7320 C   0  0  0  0  0  0  0  0  0  0  0  0
   56.3490   87.8670   20.6660 H   0  0  0  0  0  0  0  0  0  0  0  0
   56.9270   87.1250   22.5900 C   0  0  0  0  0  0  0  0  0  0  0  0
   57.3810   86.2280   22.1960 H   0  0  0  0  0  0  0  0  0  0  0  0
   56.9280   87.3590   23.9610 C   0  0  0  0  0  0  0  0  0  0  0  0
   56.3410   88.4950   24.4850 C   0  0  0  0  0  0  0  0  0  0  0  0
   56.3460   88.6660   25.5520 H   0  0  0  0  0  0  0  0  0  0  0  0
   55.7490   89.4090   23.6410 C   0  0  0  0  0  0  0  0  0  0  0  0
   55.2800   90.2960   24.0410 H   0  0  0  0  0  0  0  0  0  0  0  0
   57.5710   86.3600   24.8800 C   0  0  0  0  0  0  0  0  0  0  0  0
   57.9770   85.5360   24.2940 H   0  0  0  0  0  0  0  0  0  0  0  0
   56.8260   85.9770   25.5780 H   0  0  0  0  0  0  0  0  0  0  0  0
   58.3750   86.8430   25.4350 H   0  0  0  0  0  0  0  0  0  0  0  0
   57.3760   96.2630   24.6350 C   0  0  0  0  0  0  0  0  0  0  0  0
   57.8230   95.5540   23.9540 H   0  0  0  0  0  0  0  0  0  0  0  0
   57.9970   97.4550   24.8800 C   0  0  0  0  0  0  0  0  0  0  0  0
   58.9300   97.6800   24.3860 H   0  0  0  0  0  0  0  0  0  0  0  0
   57.4400   98.3920   25.7650 C   0  0  0  0  0  0  0  0  0  0  0  0
   57.9500   99.3260   25.9490 H   0  0  0  0  0  0  0  0  0  0  0  0
   56.2550   98.1290   26.3960 C   0  0  0  0  0  0  0  0  0  0  0  0
   55.8350   98.8600   27.0720 H   0  0  0  0  0  0  0  0  0  0  0  0
   53.7980   97.5300   27.6820 O   0  0  0  0  0  0  0  0  0  0  0  0
   52.4130   97.3370   27.9800 C   0  0  0  0  0  0  0  0  0  0  0  0
   52.2770   96.4010   28.5230 H   0  0  0  0  0  0  0  0  0  0  0  0
   51.8350   97.3080   27.0570 H   0  0  0  0  0  0  0  0  0  0  0  0
   51.9510   98.5160   28.8490 C   0  0  0  0  0  0  0  0  0  0  0  0
   52.8180   99.1190   29.1190 H   0  0  0  0  0  0  0  0  0  0  0  0
   51.4820   98.1290   29.7530 H   0  0  0  0  0  0  0  0  0  0  0  0
   50.9750   99.3700   28.1240 N   0  0  0  0  0  0  0  0  0  0  0  0
   51.6400  100.0720   27.0020 C   0  0  0  0  0  0  0  0  0  0  0  0
   52.0770   99.3450   26.3190 H   0  0  0  0  0  0  0  0  0  0  0  0
   52.4220  100.7250   27.3880 H   0  0  0  0  0  0  0  0  0  0  0  0
   50.5860  100.9020   26.2700 C   0  0  0  0  0  0  0  0  0  0  0  0
   49.7660  100.2600   25.9500 H   0  0  0  0  0  0  0  0  0  0  0  0
   51.0330  101.3820   25.3990 H   0  0  0  0  0  0  0  0  0  0  0  0
   50.1000  101.8970   27.1750 O   0  0  0  0  0  0  0  0  0  0  0  0
   49.4730  101.2760   28.3000 C   0  0  0  0  0  0  0  0  0  0  0  0
   48.6500  100.6490   27.9560 H   0  0  0  0  0  0  0  0  0  0  0  0
   49.0890  102.0440   28.9700 H   0  0  0  0  0  0  0  0  0  0  0  0
   50.4910  100.4120   29.0470 C   0  0  0  0  0  0  0  0  0  0  0  0
   51.3270  101.0290   29.3780 H   0  0  0  0  0  0  0  0  0  0  0  0
   50.0180   99.9480   29.9130 H   0  0  0  0  0  0  0  0  0  0  0  0
  1  3  1  0  0  0  0
  2  1  2  0  0  0  0
  3  4  1  0  0  0  0
  3  5  1  0  0  0  0
  5  6  2  0  0  0  0
  5 11  1  0  0  0  0
  6  7  1  0  0  0  0
  7 55  1  0  0  0  0
  7  8  2  0  0  0  0
  8 57  1  0  0  0  0
  9  8  1  0  0  0  0
  9 10  1  0  0  0  0
 11  9  2  0  0  0  0
 12 11  1  0  0  0  0
 13 14  1  0  0  0  0
 13  1  1  0  0  0  0
 15 13  1  0  0  0  0
 16 15  1  0  0  0  0
 16 22  1  0  0  0  0
 17 16  1  0  0  0  0
 18 19  1  6  0  0  0
 18 17  1  0  0  0  0
 18 20  1  0  0  0  0
 20 15  2  0  0  0  0
 21 20  1  0  0  0  0
 22 43  1  0  0  0  0
 23 32  1  0  0  0  0
 23 18  1  0  0  0  0
 24 26  1  0  0  0  0
 24 23  1  0  0  0  0
 25 24  1  0  0  0  0
 27 24  1  0  0  0  0
 28 23  1  0  0  0  0
 28 31  1  0  0  0  0
 29 28  1  0  0  0  0
 30 28  1  0  0  0  0
 32 33  1  0  0  0  0
 32 34  1  0  0  0  0
 35 32  1  0  0  0  0
 36 22  2  0  0  0  0
 36 38  1  0  0  0  0
 37 36  1  0  0  0  0
 38 40  2  0  0  0  0
 39 38  1  0  0  0  0
 40 41  1  0  0  0  0
 40 45  1  0  0  0  0
 41 42  1  0  0  0  0
 43 44  1  0  0  0  0
 43 41  2  0  0  0  0
 45 48  1  0  0  0  0
 45 47  1  0  0  0  0
 46 45  1  0  0  0  0
 49 51  2  0  0  0  0
 49  6  1  0  0  0  0
 50 49  1  0  0  0  0
 51 53  1  0  0  0  0
 52 51  1  0  0  0  0
 53 54  1  0  0  0  0
 53 55  2  0  0  0  0
 55 56  1  0  0  0  0
 57 58  1  0  0  0  0
 58 59  1  0  0  0  0
 58 61  1  0  0  0  0
 60 58  1  0  0  0  0
 61 62  1  0  0  0  0
 61 63  1  0  0  0  0
 64 61  1  0  0  0  0
 64 75  1  0  0  0  0
 65 67  1  0  0  0  0
 65 64  1  0  0  0  0
 66 65  1  0  0  0  0
 68 65  1  0  0  0  0
 68 71  1  0  0  0  0
 69 68  1  0  0  0  0
 70 68  1  0  0  0  0
 71 72  1  0  0  0  0
 72 74  1  0  0  0  0
 72 75  1  0  0  0  0
 73 72  1  0  0  0  0
 75 76  1  0  0  0  0
 75 77  1  0  0  0  0
M  END
>  <Pose>
9

>  <Score>
-12.91

$$$$

 OpenBabel03112215103D

 77 81  0  0  1  0  0  0  0  0999 V2000
   55.2400   92.9600   23.2150 C   0  0  0  0  0  0  0  0  0  0  0  0
   54.0750   93.2880   23.0470 O   0  0  0  0  0  0  0  0  0  0  0  0
   56.0030   93.5500   24.1790 N   0  0  0  0  0  0  0  0  0  0  0  0
   56.9740   93.2810   24.2480 H   0  0  0  0  0  0  0  0  0  0  0  0
   55.5140   94.5110   25.0810 C   0  0  0  0  0  0  0  0  0  0  0  0
   56.1620   95.7580   25.2980 C   0  0  0  0  0  0  0  0  0  0  0  0
   55.5980   96.6680   26.2480 C   0  0  0  0  0  0  0  0  0  0  0  0
   54.4090   96.3090   26.9600 C   0  0  0  0  0  0  0  0  0  0  0  0
   53.8170   95.1000   26.7190 C   0  0  0  0  0  0  0  0  0  0  0  0
   52.9120   94.8360   27.2450 H   0  0  0  0  0  0  0  0  0  0  0  0
   54.3680   94.2020   25.8040 C   0  0  0  0  0  0  0  0  0  0  0  0
   53.8920   93.2440   25.6530 H   0  0  0  0  0  0  0  0  0  0  0  0
   55.8210   92.0110   22.4470 N   0  0  0  0  0  0  0  0  0  0  0  0
   56.7990   91.8160   22.6060 H   0  0  0  0  0  0  0  0  0  0  0  0
   55.1710   91.2800   21.4490 C   0  0  0  0  0  0  0  0  0  0  0  0
   55.1290   89.9200   21.4090 N   0  0  0  0  0  0  0  0  0  0  0  0
   54.4110   89.5310   20.2920 N   0  0  0  0  0  0  0  0  0  0  0  0
   54.0090   90.6020   19.6650 C   0  0  2  0  0  0  0  0  0  0  0  0
   54.9260   90.5980   19.0760 H   0  0  0  0  0  0  0  0  0  0  0  0
   54.4670   91.7290   20.3660 C   0  0  0  0  0  0  0  0  0  0  0  0
   54.2940   92.7610   20.0990 H   0  0  0  0  0  0  0  0  0  0  0  0
   55.7160   89.0190   22.3000 C   0  0  0  0  0  0  0  0  0  0  0  0
   53.1950   90.5870   18.3960 C   0  0  0  0  0  0  0  0  0  0  0  0
   52.0520   91.5860   18.5760 C   0  0  0  0  0  0  0  0  0  0  0  0
   52.4630   92.5780   18.7640 H   0  0  0  0  0  0  0  0  0  0  0  0
   51.4340   91.2830   19.4210 H   0  0  0  0  0  0  0  0  0  0  0  0
   51.4440   91.6100   17.6720 H   0  0  0  0  0  0  0  0  0  0  0  0
   54.0340   91.0210   17.1870 C   0  0  0  0  0  0  0  0  0  0  0  0
   54.4210   92.0260   17.3560 H   0  0  0  0  0  0  0  0  0  0  0  0
   53.4120   91.0170   16.2920 H   0  0  0  0  0  0  0  0  0  0  0  0
   54.8650   90.3290   17.0550 H   0  0  0  0  0  0  0  0  0  0  0  0
   52.6670   89.1760   18.1280 C   0  0  0  0  0  0  0  0  0  0  0  0
   52.0660   88.8460   18.9760 H   0  0  0  0  0  0  0  0  0  0  0  0
   53.5060   88.4940   17.9900 H   0  0  0  0  0  0  0  0  0  0  0  0
   52.0520   89.1830   17.2280 H   0  0  0  0  0  0  0  0  0  0  0  0
   55.5840   89.2690   23.6620 C   0  0  0  0  0  0  0  0  0  0  0  0
   55.0370   90.1320   24.0120 H   0  0  0  0  0  0  0  0  0  0  0  0
   56.1650   88.3940   24.5590 C   0  0  0  0  0  0  0  0  0  0  0  0
   56.0790   88.5750   25.6200 H   0  0  0  0  0  0  0  0  0  0  0  0
   56.8590   87.2810   24.0980 C   0  0  0  0  0  0  0  0  0  0  0  0
   56.9900   87.0400   22.7430 C   0  0  0  0  0  0  0  0  0  0  0  0
   57.5330   86.1730   22.3960 H   0  0  0  0  0  0  0  0  0  0  0  0
   56.4250   87.9110   21.8370 C   0  0  0  0  0  0  0  0  0  0  0  0
   56.5290   87.7360   20.7760 H   0  0  0  0  0  0  0  0  0  0  0  0
   57.4770   86.3350   25.0860 C   0  0  0  0  0  0  0  0  0  0  0  0
   57.2730   86.6830   26.0990 H   0  0  0  0  0  0  0  0  0  0  0  0
   58.5550   86.2940   24.9260 H   0  0  0  0  0  0  0  0  0  0  0  0
   57.0520   85.3400   24.9510 H   0  0  0  0  0  0  0  0  0  0  0  0
   57.3370   96.1280   24.6000 C   0  0  0  0  0  0  0  0  0  0  0  0
   57.7720   95.4500   23.8810 H   0  0  0  0  0  0  0  0  0  0  0  0
   57.9210   97.3400   24.8330 C   0  0  0  0  0  0  0  0  0  0  0  0
   58.8140   97.6120   24.2910 H   0  0  0  0  0  0  0  0  0  0  0  0
   57.3780   98.2390   25.7660 C   0  0  0  0  0  0  0  0  0  0  0  0
   57.8590   99.1900   25.9380 H   0  0  0  0  0  0  0  0  0  0  0  0
   56.2430   97.9160   26.4580 C   0  0  0  0  0  0  0  0  0  0  0  0
   55.8330   98.6170   27.1700 H   0  0  0  0  0  0  0  0  0  0  0  0
   53.8900   97.1930   27.8690 O   0  0  0  0  0  0  0  0  0  0  0  0
   52.4630   97.2770   27.8700 C   0  0  0  0  0  0  0  0  0  0  0  0
   52.0340   96.3030   28.1030 H   0  0  0  0  0  0  0  0  0  0  0  0
   52.1100   97.6050   26.8920 H   0  0  0  0  0  0  0  0  0  0  0  0
   52.0540   98.2980   28.9420 C   0  0  0  0  0  0  0  0  0  0  0  0
   52.8850   98.4390   29.6330 H   0  0  0  0  0  0  0  0  0  0  0  0
   51.1900   97.9160   29.4850 H   0  0  0  0  0  0  0  0  0  0  0  0
   51.7030   99.6070   28.3340 N   0  0  0  0  0  0  0  0  0  0  0  0
   50.2320   99.7630   28.2630 C   0  0  0  0  0  0  0  0  0  0  0  0
   49.8050   99.6910   29.2640 H   0  0  0  0  0  0  0  0  0  0  0  0
   49.8080   98.9840   27.6300 H   0  0  0  0  0  0  0  0  0  0  0  0
   49.9270  101.1370   27.6680 C   0  0  0  0  0  0  0  0  0  0  0  0
   50.4140  101.9120   28.2590 H   0  0  0  0  0  0  0  0  0  0  0  0
   48.8500  101.3070   27.6630 H   0  0  0  0  0  0  0  0  0  0  0  0
   50.4280  101.1590   26.3290 O   0  0  0  0  0  0  0  0  0  0  0  0
   51.8460  100.9810   26.3310 C   0  0  0  0  0  0  0  0  0  0  0  0
   52.3110  101.7740   26.9170 H   0  0  0  0  0  0  0  0  0  0  0  0
   52.2180  101.0210   25.3070 H   0  0  0  0  0  0  0  0  0  0  0  0
   52.1960   99.6230   26.9440 C   0  0  0  0  0  0  0  0  0  0  0  0
   51.7190   98.8270   26.3740 H   0  0  0  0  0  0  0  0  0  0  0  0
   53.2760   99.4810   26.9340 H   0  0  0  0  0  0  0  0  0  0  0  0
  1  3  1  0  0  0  0
  2  1  2  0  0  0  0
  3  4  1  0  0  0  0
  3  5  1  0  0  0  0
  5  6  2  0  0  0  0
  5 11  1  0  0  0  0
  6  7  1  0  0  0  0
  7 55  1  0  0  0  0
  7  8  2  0  0  0  0
  8 57  1  0  0  0  0
  9  8  1  0  0  0  0
  9 10  1  0  0  0  0
 11  9  2  0  0  0  0
 12 11  1  0  0  0  0
 13 14  1  0  0  0  0
 13  1  1  0  0  0  0
 15 13  1  0  0  0  0
 16 15  1  0  0  0  0
 16 22  1  0  0  0  0
 17 16  1  0  0  0  0
 18 19  1  6  0  0  0
 18 17  1  0  0  0  0
 18 20  1  0  0  0  0
 20 15  2  0  0  0  0
 21 20  1  0  0  0  0
 22 36  1  0  0  0  0
 23 24  1  0  0  0  0
 23 18  1  0  0  0  0
 24 25  1  0  0  0  0
 24 26  1  0  0  0  0
 27 24  1  0  0  0  0
 28 29  1  0  0  0  0
 28 23  1  0  0  0  0
 30 28  1  0  0  0  0
 31 28  1  0  0  0  0
 32 23  1  0  0  0  0
 32 33  1  0  0  0  0
 34 32  1  0  0  0  0
 35 32  1  0  0  0  0
 36 37  1  0  0  0  0
 36 38  2  0  0  0  0
 38 39  1  0  0  0  0
 40 38  1  0  0  0  0
 40 45  1  0  0  0  0
 41 40  2  0  0  0  0
 42 41  1  0  0  0  0
 43 22  2  0  0  0  0
 43 41  1  0  0  0  0
 44 43  1  0  0  0  0
 45 46  1  0  0  0  0
 47 45  1  0  0  0  0
 48 45  1  0  0  0  0
 49 51  2  0  0  0  0
 49  6  1  0  0  0  0
 50 49  1  0  0  0  0
 51 53  1  0  0  0  0
 52 51  1  0  0  0  0
 53 54  1  0  0  0  0
 53 55  2  0  0  0  0
 55 56  1  0  0  0  0
 57 58  1  0  0  0  0
 58 59  1  0  0  0  0
 58 61  1  0  0  0  0
 60 58  1  0  0  0  0
 61 63  1  0  0  0  0
 61 62  1  0  0  0  0
 64 61  1  0  0  0  0
 65 64  1  0  0  0  0
 65 66  1  0  0  0  0
 67 65  1  0  0  0  0
 68 69  1  0  0  0  0
 68 65  1  0  0  0  0
 70 68  1  0  0  0  0
 71 72  1  0  0  0  0
 71 68  1  0  0  0  0
 72 73  1  0  0  0  0
 72 75  1  0  0  0  0
 74 72  1  0  0  0  0
 75 64  1  0  0  0  0
 76 75  1  0  0  0  0
 77 75  1  0  0  0  0
M  END
>  <Pose>
1

>  <Score>
-12.54

$$$$
