# created with PyMOL 2.5.2
@<TRIPOS>MOLECULE
predictions
77 81 1                 
SMALL
USER_CHARGES
@<TRIPOS>ATOM
1	   C	55.073	93.067	23.228	C.2	1	UNK0	0.000	
2	   O	53.969	93.522	22.970	O.2	1	UNK0	0.000	
3	   N	55.833	93.594	24.231	N.pl3	1	UNK0	0.000	
4	   H	56.759	93.217	24.375	 H	1	UNK0	0.000	
5	   C	55.400	94.631	25.075	C.2	1	UNK0	0.000	
6	   C	56.151	95.822	25.274	C.2	1	UNK0	0.000	
7	   C	55.636	96.817	26.164	C.2	1	UNK0	0.000	
8	   C	54.392	96.597	26.837	C.2	1	UNK0	0.000	
9	   C	53.700	95.438	26.616	C.2	1	UNK0	0.000	
10	   H	52.754	95.279	27.111	 H	1	UNK0	0.000	
11	   C	54.202	94.457	25.758	C.2	1	UNK0	0.000	
12	   H	53.646	93.542	25.623	 H	1	UNK0	0.000	
13	   N	55.590	92.035	22.524	N.pl3	1	UNK0	0.000	
14	   H	56.525	91.734	22.757	 H	1	UNK0	0.000	
15	   C	54.929	91.355	21.498	C.2	1	UNK0	0.000	
16	   N	54.911	89.999	21.375	N.pl3	1	UNK0	0.000	
17	   N	54.172	89.666	20.254	N.pl3	1	UNK0	0.000	
18	   C	53.734	90.765	19.705	C.3	1	UNK0	0.000	
19	   H	54.636	90.816	19.094	 H	1	UNK0	0.000	
20	   C	54.189	91.855	20.463	C.2	1	UNK0	0.000	
21	   H	53.990	92.898	20.266	 H	1	UNK0	0.000	
22	   C	55.538	89.057	22.194	C.2	1	UNK0	0.000	
23	   C	52.889	90.812	18.457	C.3	1	UNK0	0.000	
24	   C	52.402	89.389	18.182	C.3	1	UNK0	0.000	
25	   H	51.822	89.033	19.034	 H	1	UNK0	0.000	
26	   H	53.260	88.735	18.029	 H	1	UNK0	0.000	
27	   H	51.777	89.385	17.289	 H	1	UNK0	0.000	
28	   C	51.664	91.717	18.644	C.3	1	UNK0	0.000	
29	   H	51.063	91.347	19.475	 H	1	UNK0	0.000	
30	   H	51.067	91.714	17.733	 H	1	UNK0	0.000	
31	   H	51.994	92.734	18.859	 H	1	UNK0	0.000	
32	   C	53.711	91.358	17.287	C.3	1	UNK0	0.000	
33	   H	54.588	90.729	17.135	 H	1	UNK0	0.000	
34	   H	54.028	92.376	17.510	 H	1	UNK0	0.000	
35	   H	53.101	91.356	16.383	 H	1	UNK0	0.000	
36	   C	56.163	87.975	21.583	C.2	1	UNK0	0.000	
37	   H	56.165	87.877	20.508	 H	1	UNK0	0.000	
38	   C	56.781	87.029	22.376	C.2	1	UNK0	0.000	
39	   H	57.266	86.178	21.920	 H	1	UNK0	0.000	
40	   C	56.780	87.169	23.759	C.2	1	UNK0	0.000	
41	   C	56.154	88.245	24.361	C.2	1	UNK0	0.000	
42	   H	56.158	88.344	25.436	 H	1	UNK0	0.000	
43	   C	55.524	89.191	23.582	C.2	1	UNK0	0.000	
44	   H	55.024	90.030	24.043	 H	1	UNK0	0.000	
45	   C	57.465	86.136	24.607	C.3	1	UNK0	0.000	
46	   H	57.899	85.370	23.965	 H	1	UNK0	0.000	
47	   H	56.739	85.679	25.280	 H	1	UNK0	0.000	
48	   H	58.254	86.611	25.191	 H	1	UNK0	0.000	
49	   C	57.382	96.055	24.615	C.2	1	UNK0	0.000	
50	   H	57.781	95.311	23.941	 H	1	UNK0	0.000	
51	   C	58.066	97.217	24.828	C.2	1	UNK0	0.000	
52	   H	59.002	97.385	24.316	 H	1	UNK0	0.000	
53	   C	57.571	98.199	25.703	C.2	1	UNK0	0.000	
54	   H	58.132	99.108	25.861	 H	1	UNK0	0.000	
55	   C	56.385	98.009	26.356	C.2	1	UNK0	0.000	
56	   H	56.013	98.772	27.024	 H	1	UNK0	0.000	
57	   O	53.921	97.561	27.689	O.3	1	UNK0	0.000	
58	   C	52.603	97.321	28.189	C.3	1	UNK0	0.000	
59	   H	52.627	96.526	28.935	 H	1	UNK0	0.000	
60	   H	51.943	97.032	27.371	 H	1	UNK0	0.000	
61	   C	52.101	98.623	28.830	C.3	1	UNK0	0.000	
62	   H	52.956	99.263	29.051	 H	1	UNK0	0.000	
63	   H	51.576	98.385	29.755	 H	1	UNK0	0.000	
64	   N	51.176	99.349	27.922	N.3	1	UNK0	0.000	
65	   C	51.930	99.973	26.811	C.3	1	UNK0	0.000	
66	   H	52.471	99.206	26.256	 H	1	UNK0	0.000	
67	   H	52.637	100.701	27.208	 H	1	UNK0	0.000	
68	   C	50.930	100.671	25.890	C.3	1	UNK0	0.000	
69	   H	50.178	99.958	25.553	 H	1	UNK0	0.000	
70	   H	51.450	101.086	25.026	 H	1	UNK0	0.000	
71	   O	50.306	101.722	26.632	O.3	1	UNK0	0.000	
72	   C	49.585	101.181	27.742	C.3	1	UNK0	0.000	
73	   H	48.832	100.482	27.379	 H	1	UNK0	0.000	
74	   H	49.097	101.990	28.285	 H	1	UNK0	0.000	
75	   C	50.550	100.450	28.677	C.3	1	UNK0	0.000	
76	   H	51.317	101.139	29.029	 H	1	UNK0	0.000	
77	   H	50.003	100.048	29.531	 H	1	UNK0	0.000	
@<TRIPOS>BOND
1 1 3 1
2 1 2 2
3 3 4 1
4 3 5 1
5 5 6 2
6 5 11 1
7 6 7 1
8 7 55 1
9 7 8 2
10 8 57 1
11 8 9 1
12 9 10 1
13 9 11 2
14 11 12 1
15 13 14 1
16 1 13 1
17 13 15 1
18 15 16 1
19 16 22 1
20 16 17 1
21 18 19 1
22 17 18 1
23 18 20 1
24 15 20 2
25 20 21 1
26 22 43 1
27 23 28 1
28 18 23 1
29 23 24 1
30 24 25 1
31 24 26 1
32 24 27 1
33 28 31 1
34 28 29 1
35 28 30 1
36 32 34 1
37 23 32 1
38 32 33 1
39 32 35 1
40 22 36 2
41 36 38 1
42 36 37 1
43 38 40 2
44 38 39 1
45 40 41 1
46 40 45 1
47 41 42 1
48 43 44 1
49 41 43 2
50 45 48 1
51 45 47 1
52 45 46 1
53 49 51 2
54 6 49 1
55 49 50 1
56 51 53 1
57 51 52 1
58 53 54 1
59 53 55 2
60 55 56 1
61 57 58 1
62 58 61 1
63 58 59 1
64 58 60 1
65 61 62 1
66 61 63 1
67 64 75 1
68 61 64 1
69 65 67 1
70 64 65 1
71 65 66 1
72 68 71 1
73 65 68 1
74 68 69 1
75 68 70 1
76 71 72 1
77 72 74 1
78 72 75 1
79 72 73 1
80 75 76 1
81 75 77 1
@<TRIPOS>SUBSTRUCTURE
1	UNK0	1	GROUP	1 ****	UNK
