
 OpenBabel03112211363D

 77 81  0  0  1  0  0  0  0  0999 V2000
   55.0920   93.0670   23.2410 C   0  0  0  0  0  0  0  0  0  0  0  0
   53.9820   93.5100   22.9880 O   0  0  0  0  0  0  0  0  0  0  0  0
   55.8480   93.5980   24.2430 N   0  0  0  0  0  0  0  0  0  0  0  0
   56.7780   93.2320   24.3840 H   0  0  0  0  0  0  0  0  0  0  0  0
   55.4060   94.6280   25.0920 C   0  0  0  0  0  0  0  0  0  0  0  0
   56.1390   95.8320   25.2840 C   0  0  0  0  0  0  0  0  0  0  0  0
   55.6160   96.8170   26.1800 C   0  0  0  0  0  0  0  0  0  0  0  0
   54.3810   96.5760   26.8640 C   0  0  0  0  0  0  0  0  0  0  0  0
   53.7080   95.4060   26.6490 C   0  0  0  0  0  0  0  0  0  0  0  0
   52.7690   95.2310   27.1540 H   0  0  0  0  0  0  0  0  0  0  0  0
   54.2180   94.4340   25.7870 C   0  0  0  0  0  0  0  0  0  0  0  0
   53.6760   93.5090   25.6570 H   0  0  0  0  0  0  0  0  0  0  0  0
   55.6180   92.0430   22.5320 N   0  0  0  0  0  0  0  0  0  0  0  0
   56.5580   91.7510   22.7620 H   0  0  0  0  0  0  0  0  0  0  0  0
   54.9620   91.3580   21.5060 C   0  0  0  0  0  0  0  0  0  0  0  0
   54.9460   90.0020   21.3870 N   0  0  0  0  0  0  0  0  0  0  0  0
   54.2120   89.6640   20.2650 N   0  0  0  0  0  0  0  0  0  0  0  0
   53.7760   90.7610   19.7100 C   0  0  2  0  0  0  0  0  0  0  0  0
   54.6800   90.8110   19.1030 H   0  0  0  0  0  0  0  0  0  0  0  0
   54.2260   91.8540   20.4670 C   0  0  0  0  0  0  0  0  0  0  0  0
   54.0270   92.8960   20.2640 H   0  0  0  0  0  0  0  0  0  0  0  0
   55.5700   89.0630   22.2120 C   0  0  0  0  0  0  0  0  0  0  0  0
   52.9350   90.8030   18.4580 C   0  0  0  0  0  0  0  0  0  0  0  0
   53.8670   91.1470   17.2960 C   0  0  0  0  0  0  0  0  0  0  0  0
   54.6450   90.3880   17.2170 H   0  0  0  0  0  0  0  0  0  0  0  0
   54.3250   92.1200   17.4720 H   0  0  0  0  0  0  0  0  0  0  0  0
   53.2950   91.1780   16.3690 H   0  0  0  0  0  0  0  0  0  0  0  0
   52.2840   89.4440   18.1750 C   0  0  0  0  0  0  0  0  0  0  0  0
   53.0600   88.6860   18.0630 H   0  0  0  0  0  0  0  0  0  0  0  0
   51.7010   89.5050   17.2560 H   0  0  0  0  0  0  0  0  0  0  0  0
   51.6300   89.1740   19.0040 H   0  0  0  0  0  0  0  0  0  0  0  0
   51.8230   91.8430   18.6090 C   0  0  0  0  0  0  0  0  0  0  0  0
   52.2630   92.8190   18.8120 H   0  0  0  0  0  0  0  0  0  0  0  0
   51.1710   91.5600   19.4360 H   0  0  0  0  0  0  0  0  0  0  0  0
   51.2420   91.8900   17.6880 H   0  0  0  0  0  0  0  0  0  0  0  0
   56.1630   87.9580   21.6110 C   0  0  0  0  0  0  0  0  0  0  0  0
   56.1420   87.8390   20.5380 H   0  0  0  0  0  0  0  0  0  0  0  0
   56.7770   87.0150   22.4100 C   0  0  0  0  0  0  0  0  0  0  0  0
   57.2370   86.1470   21.9620 H   0  0  0  0  0  0  0  0  0  0  0  0
   56.8060   87.1810   23.7900 C   0  0  0  0  0  0  0  0  0  0  0  0
   56.2120   88.2800   24.3830 C   0  0  0  0  0  0  0  0  0  0  0  0
   56.2390   88.3990   25.4560 H   0  0  0  0  0  0  0  0  0  0  0  0
   55.5860   89.2240   23.5980 C   0  0  0  0  0  0  0  0  0  0  0  0
   55.1110   90.0810   24.0520 H   0  0  0  0  0  0  0  0  0  0  0  0
   57.4870   86.1510   24.6440 C   0  0  0  0  0  0  0  0  0  0  0  0
   57.8930   85.3640   24.0090 H   0  0  0  0  0  0  0  0  0  0  0  0
   56.7660   85.7210   25.3390 H   0  0  0  0  0  0  0  0  0  0  0  0
   58.2960   86.6210   25.2040 H   0  0  0  0  0  0  0  0  0  0  0  0
   57.3580   96.0860   24.6130 C   0  0  0  0  0  0  0  0  0  0  0  0
   57.7640   95.3490   23.9350 H   0  0  0  0  0  0  0  0  0  0  0  0
   58.0250   97.2590   24.8200 C   0  0  0  0  0  0  0  0  0  0  0  0
   58.9530   97.4430   24.2990 H   0  0  0  0  0  0  0  0  0  0  0  0
   57.5220   98.2320   25.7000 C   0  0  0  0  0  0  0  0  0  0  0  0
   58.0690   99.1510   25.8530 H   0  0  0  0  0  0  0  0  0  0  0  0
   56.3460   98.0220   26.3640 C   0  0  0  0  0  0  0  0  0  0  0  0
   55.9680   98.7790   27.0360 H   0  0  0  0  0  0  0  0  0  0  0  0
   53.9020   97.5320   27.7210 O   0  0  0  0  0  0  0  0  0  0  0  0
   52.5970   97.2660   28.2400 C   0  0  0  0  0  0  0  0  0  0  0  0
   52.6460   96.4590   28.9710 H   0  0  0  0  0  0  0  0  0  0  0  0
   51.9260   96.9820   27.4300 H   0  0  0  0  0  0  0  0  0  0  0  0
   52.0900   98.5500   28.9120 C   0  0  0  0  0  0  0  0  0  0  0  0
   52.9420   99.1810   29.1630 H   0  0  0  0  0  0  0  0  0  0  0  0
   51.5530   98.2860   29.8240 H   0  0  0  0  0  0  0  0  0  0  0  0
   51.1770   99.3040   28.0150 N   0  0  0  0  0  0  0  0  0  0  0  0
   51.9460   99.9630   26.9350 C   0  0  0  0  0  0  0  0  0  0  0  0
   52.4960   99.2150   26.3640 H   0  0  0  0  0  0  0  0  0  0  0  0
   52.6470  100.6790   27.3650 H   0  0  0  0  0  0  0  0  0  0  0  0
   50.9590  100.6890   26.0220 C   0  0  0  0  0  0  0  0  0  0  0  0
   50.2120   99.9870   25.6520 H   0  0  0  0  0  0  0  0  0  0  0  0
   51.4910  101.1320   25.1800 H   0  0  0  0  0  0  0  0  0  0  0  0
   50.3230  101.7160   26.7880 O   0  0  0  0  0  0  0  0  0  0  0  0
   49.5870  101.1400   27.8700 C   0  0  0  0  0  0  0  0  0  0  0  0
   48.8400  100.4510   27.4740 H   0  0  0  0  0  0  0  0  0  0  0  0
   49.0900  101.9310   28.4310 H   0  0  0  0  0  0  0  0  0  0  0  0
   50.5390  100.3800   28.7950 C   0  0  0  0  0  0  0  0  0  0  0  0
   51.3000  101.0580   29.1800 H   0  0  0  0  0  0  0  0  0  0  0  0
   49.9800   99.9510   29.6280 H   0  0  0  0  0  0  0  0  0  0  0  0
  1  3  1  0  0  0  0
  2  1  2  0  0  0  0
  3  4  1  0  0  0  0
  3  5  1  0  0  0  0
  5  6  2  0  0  0  0
  5 11  1  0  0  0  0
  6  7  1  0  0  0  0
  7 55  1  0  0  0  0
  7  8  2  0  0  0  0
  8 57  1  0  0  0  0
  9  8  1  0  0  0  0
  9 10  1  0  0  0  0
 11  9  2  0  0  0  0
 12 11  1  0  0  0  0
 13 14  1  0  0  0  0
 13  1  1  0  0  0  0
 15 13  1  0  0  0  0
 16 15  1  0  0  0  0
 16 22  1  0  0  0  0
 17 16  1  0  0  0  0
 18 19  1  6  0  0  0
 18 17  1  0  0  0  0
 18 20  1  0  0  0  0
 20 15  2  0  0  0  0
 21 20  1  0  0  0  0
 22 43  1  0  0  0  0
 23 32  1  0  0  0  0
 23 18  1  0  0  0  0
 24 26  1  0  0  0  0
 24 23  1  0  0  0  0
 25 24  1  0  0  0  0
 27 24  1  0  0  0  0
 28 23  1  0  0  0  0
 28 31  1  0  0  0  0
 29 28  1  0  0  0  0
 30 28  1  0  0  0  0
 32 33  1  0  0  0  0
 32 34  1  0  0  0  0
 35 32  1  0  0  0  0
 36 22  2  0  0  0  0
 36 38  1  0  0  0  0
 37 36  1  0  0  0  0
 38 40  2  0  0  0  0
 39 38  1  0  0  0  0
 40 41  1  0  0  0  0
 40 45  1  0  0  0  0
 41 42  1  0  0  0  0
 43 44  1  0  0  0  0
 43 41  2  0  0  0  0
 45 48  1  0  0  0  0
 45 47  1  0  0  0  0
 46 45  1  0  0  0  0
 49 51  2  0  0  0  0
 49  6  1  0  0  0  0
 50 49  1  0  0  0  0
 51 53  1  0  0  0  0
 52 51  1  0  0  0  0
 53 54  1  0  0  0  0
 53 55  2  0  0  0  0
 55 56  1  0  0  0  0
 57 58  1  0  0  0  0
 58 61  1  0  0  0  0
 58 59  1  0  0  0  0
 60 58  1  0  0  0  0
 61 62  1  0  0  0  0
 61 63  1  0  0  0  0
 64 75  1  0  0  0  0
 64 61  1  0  0  0  0
 65 67  1  0  0  0  0
 65 64  1  0  0  0  0
 66 65  1  0  0  0  0
 68 71  1  0  0  0  0
 68 65  1  0  0  0  0
 69 68  1  0  0  0  0
 70 68  1  0  0  0  0
 71 72  1  0  0  0  0
 72 74  1  0  0  0  0
 72 75  1  0  0  0  0
 73 72  1  0  0  0  0
 75 76  1  0  0  0  0
 75 77  1  0  0  0  0
M  END
>  <Pose>
4

>  <Score>
-12.99

$$$$

 OpenBabel03112211363D

 77 81  0  0  1  0  0  0  0  0999 V2000
   55.0940   93.0370   23.2700 C   0  0  0  0  0  0  0  0  0  0  0  0
   53.9860   93.4960   23.0330 O   0  0  0  0  0  0  0  0  0  0  0  0
   55.8660   93.5510   24.2690 N   0  0  0  0  0  0  0  0  0  0  0  0
   56.7940   93.1730   24.3960 H   0  0  0  0  0  0  0  0  0  0  0  0
   55.4450   94.5780   25.1310 C   0  0  0  0  0  0  0  0  0  0  0  0
   56.1930   95.7720   25.3240 C   0  0  0  0  0  0  0  0  0  0  0  0
   55.6920   96.7560   26.2340 C   0  0  0  0  0  0  0  0  0  0  0  0
   54.4630   96.5230   26.9310 C   0  0  0  0  0  0  0  0  0  0  0  0
   53.7740   95.3610   26.7150 C   0  0  0  0  0  0  0  0  0  0  0  0
   52.8400   95.1920   27.2290 H   0  0  0  0  0  0  0  0  0  0  0  0
   54.2640   94.3910   25.8390 C   0  0  0  0  0  0  0  0  0  0  0  0
   53.7100   93.4730   25.7070 H   0  0  0  0  0  0  0  0  0  0  0  0
   55.6000   92.0130   22.5470 N   0  0  0  0  0  0  0  0  0  0  0  0
   56.5380   91.7080   22.7640 H   0  0  0  0  0  0  0  0  0  0  0  0
   54.9250   91.3450   21.5220 C   0  0  0  0  0  0  0  0  0  0  0  0
   54.9010   89.9910   21.3850 N   0  0  0  0  0  0  0  0  0  0  0  0
   54.1480   89.6720   20.2700 N   0  0  0  0  0  0  0  0  0  0  0  0
   53.7080   90.7780   19.7360 C   0  0  2  0  0  0  0  0  0  0  0  0
   54.6030   90.8320   19.1160 H   0  0  0  0  0  0  0  0  0  0  0  0
   54.1750   91.8580   20.5010 C   0  0  0  0  0  0  0  0  0  0  0  0
   53.9780   92.9040   20.3160 H   0  0  0  0  0  0  0  0  0  0  0  0
   55.5340   89.0380   22.1880 C   0  0  0  0  0  0  0  0  0  0  0  0
   52.8490   90.8400   18.4990 C   0  0  0  0  0  0  0  0  0  0  0  0
   53.7440   91.2920   17.3450 C   0  0  0  0  0  0  0  0  0  0  0  0
   54.5590   90.5800   17.2180 H   0  0  0  0  0  0  0  0  0  0  0  0
   54.1540   92.2770   17.5670 H   0  0  0  0  0  0  0  0  0  0  0  0
   53.1580   91.3400   16.4280 H   0  0  0  0  0  0  0  0  0  0  0  0
   52.2650   89.4650   18.1520 C   0  0  0  0  0  0  0  0  0  0  0  0
   53.0770   88.7560   17.9920 H   0  0  0  0  0  0  0  0  0  0  0  0
   51.6660   89.5430   17.2450 H   0  0  0  0  0  0  0  0  0  0  0  0
   51.6370   89.1190   18.9740 H   0  0  0  0  0  0  0  0  0  0  0  0
   51.6860   91.8110   18.7170 C   0  0  0  0  0  0  0  0  0  0  0  0
   52.0780   92.7980   18.9650 H   0  0  0  0  0  0  0  0  0  0  0  0
   51.0620   91.4520   19.5350 H   0  0  0  0  0  0  0  0  0  0  0  0
   51.0910   91.8750   17.8070 H   0  0  0  0  0  0  0  0  0  0  0  0
   56.1770   87.9780   21.5580 C   0  0  0  0  0  0  0  0  0  0  0  0
   56.1870   87.9040   20.4800 H   0  0  0  0  0  0  0  0  0  0  0  0
   56.8010   87.0220   22.3330 C   0  0  0  0  0  0  0  0  0  0  0  0
   57.2990   86.1880   21.8630 H   0  0  0  0  0  0  0  0  0  0  0  0
   56.7890   87.1320   23.7200 C   0  0  0  0  0  0  0  0  0  0  0  0
   56.1450   88.1870   24.3410 C   0  0  0  0  0  0  0  0  0  0  0  0
   56.1410   88.2610   25.4180 H   0  0  0  0  0  0  0  0  0  0  0  0
   55.5090   89.1420   23.5780 C   0  0  0  0  0  0  0  0  0  0  0  0
   54.9960   89.9640   24.0540 H   0  0  0  0  0  0  0  0  0  0  0  0
   57.4800   86.0890   24.5490 C   0  0  0  0  0  0  0  0  0  0  0  0
   57.9280   85.3420   23.8940 H   0  0  0  0  0  0  0  0  0  0  0  0
   56.7560   85.6080   25.2070 H   0  0  0  0  0  0  0  0  0  0  0  0
   58.2590   86.5590   25.1490 H   0  0  0  0  0  0  0  0  0  0  0  0
   57.4080   96.0190   24.6410 C   0  0  0  0  0  0  0  0  0  0  0  0
   57.7970   95.2830   23.9520 H   0  0  0  0  0  0  0  0  0  0  0  0
   58.0890   97.1840   24.8490 C   0  0  0  0  0  0  0  0  0  0  0  0
   59.0130   97.3610   24.3190 H   0  0  0  0  0  0  0  0  0  0  0  0
   57.6080   98.1540   25.7430 C   0  0  0  0  0  0  0  0  0  0  0  0
   58.1660   99.0660   25.8970 H   0  0  0  0  0  0  0  0  0  0  0  0
   56.4370   97.9510   26.4200 C   0  0  0  0  0  0  0  0  0  0  0  0
   56.0750   98.7070   27.1020 H   0  0  0  0  0  0  0  0  0  0  0  0
   54.0050   97.4760   27.8020 O   0  0  0  0  0  0  0  0  0  0  0  0
   52.9350   98.2800   27.2970 C   0  0  0  0  0  0  0  0  0  0  0  0
   52.2400   97.6590   26.7310 H   0  0  0  0  0  0  0  0  0  0  0  0
   53.3330   99.0620   26.6500 H   0  0  0  0  0  0  0  0  0  0  0  0
   52.2150   98.9100   28.4970 C   0  0  0  0  0  0  0  0  0  0  0  0
   52.6450   99.8930   28.6930 H   0  0  0  0  0  0  0  0  0  0  0  0
   52.3550   98.2720   29.3700 H   0  0  0  0  0  0  0  0  0  0  0  0
   50.7610   99.0610   28.2350 N   0  0  0  0  0  0  0  0  0  0  0  0
   50.2520  100.3020   28.8630 C   0  0  0  0  0  0  0  0  0  0  0  0
   50.7920  101.1630   28.4700 H   0  0  0  0  0  0  0  0  0  0  0  0
   50.3860  100.2510   29.9440 H   0  0  0  0  0  0  0  0  0  0  0  0
   48.7650  100.4280   28.5310 C   0  0  0  0  0  0  0  0  0  0  0  0
   48.6240  100.4020   27.4510 H   0  0  0  0  0  0  0  0  0  0  0  0
   48.3760  101.3660   28.9270 H   0  0  0  0  0  0  0  0  0  0  0  0
   48.0830   99.3260   29.1360 O   0  0  0  0  0  0  0  0  0  0  0  0
   48.5580   98.0930   28.5900 C   0  0  0  0  0  0  0  0  0  0  0  0
   48.3950   98.0870   27.5120 H   0  0  0  0  0  0  0  0  0  0  0  0
   48.0150   97.2630   29.0440 H   0  0  0  0  0  0  0  0  0  0  0  0
   50.0520   97.9400   28.8790 C   0  0  0  0  0  0  0  0  0  0  0  0
   50.2240   97.9640   29.9560 H   0  0  0  0  0  0  0  0  0  0  0  0
   50.4120   96.9940   28.4750 H   0  0  0  0  0  0  0  0  0  0  0  0
  1  3  1  0  0  0  0
  2  1  2  0  0  0  0
  3  4  1  0  0  0  0
  3  5  1  0  0  0  0
  5  6  2  0  0  0  0
  5 11  1  0  0  0  0
  6  7  1  0  0  0  0
  7 55  1  0  0  0  0
  7  8  2  0  0  0  0
  8 57  1  0  0  0  0
  9  8  1  0  0  0  0
  9 10  1  0  0  0  0
 11  9  2  0  0  0  0
 12 11  1  0  0  0  0
 13 14  1  0  0  0  0
 13  1  1  0  0  0  0
 15 13  1  0  0  0  0
 16 15  1  0  0  0  0
 16 22  1  0  0  0  0
 17 16  1  0  0  0  0
 18 19  1  6  0  0  0
 18 17  1  0  0  0  0
 18 20  1  0  0  0  0
 20 15  2  0  0  0  0
 21 20  1  0  0  0  0
 22 43  1  0  0  0  0
 23 32  1  0  0  0  0
 23 18  1  0  0  0  0
 24 26  1  0  0  0  0
 24 23  1  0  0  0  0
 25 24  1  0  0  0  0
 27 24  1  0  0  0  0
 28 23  1  0  0  0  0
 28 31  1  0  0  0  0
 29 28  1  0  0  0  0
 30 28  1  0  0  0  0
 32 33  1  0  0  0  0
 32 34  1  0  0  0  0
 35 32  1  0  0  0  0
 36 22  2  0  0  0  0
 36 38  1  0  0  0  0
 37 36  1  0  0  0  0
 38 40  2  0  0  0  0
 39 38  1  0  0  0  0
 40 41  1  0  0  0  0
 40 45  1  0  0  0  0
 41 42  1  0  0  0  0
 43 44  1  0  0  0  0
 43 41  2  0  0  0  0
 45 48  1  0  0  0  0
 45 47  1  0  0  0  0
 46 45  1  0  0  0  0
 49 51  2  0  0  0  0
 49  6  1  0  0  0  0
 50 49  1  0  0  0  0
 51 53  1  0  0  0  0
 52 51  1  0  0  0  0
 53 54  1  0  0  0  0
 53 55  2  0  0  0  0
 55 56  1  0  0  0  0
 58 57  1  0  0  0  0
 58 61  1  0  0  0  0
 59 58  1  0  0  0  0
 60 58  1  0  0  0  0
 61 62  1  0  0  0  0
 61 63  1  0  0  0  0
 64 61  1  0  0  0  0
 64 65  1  0  0  0  0
 64 75  1  0  0  0  0
 65 67  1  0  0  0  0
 66 65  1  0  0  0  0
 68 65  1  0  0  0  0
 68 70  1  0  0  0  0
 68 71  1  0  0  0  0
 69 68  1  0  0  0  0
 72 75  1  0  0  0  0
 72 74  1  0  0  0  0
 72 71  1  0  0  0  0
 73 72  1  0  0  0  0
 75 76  1  0  0  0  0
 77 75  1  0  0  0  0
M  END
>  <Pose>
1

>  <Score>
-12.59

$$$$

 OpenBabel03112211363D

 77 81  0  0  1  0  0  0  0  0999 V2000
   55.2210   93.0390   23.1860 C   0  0  0  0  0  0  0  0  0  0  0  0
   54.0670   93.3900   22.9920 O   0  0  0  0  0  0  0  0  0  0  0  0
   55.9680   93.6030   24.1770 N   0  0  0  0  0  0  0  0  0  0  0  0
   56.9320   93.3160   24.2690 H   0  0  0  0  0  0  0  0  0  0  0  0
   55.4730   94.5610   25.0790 C   0  0  0  0  0  0  0  0  0  0  0  0
   56.1200   95.8060   25.3070 C   0  0  0  0  0  0  0  0  0  0  0  0
   55.5490   96.7130   26.2550 C   0  0  0  0  0  0  0  0  0  0  0  0
   54.3530   96.3530   26.9550 C   0  0  0  0  0  0  0  0  0  0  0  0
   53.7620   95.1450   26.7050 C   0  0  0  0  0  0  0  0  0  0  0  0
   52.8510   94.8810   27.2210 H   0  0  0  0  0  0  0  0  0  0  0  0
   54.3200   94.2510   25.7910 C   0  0  0  0  0  0  0  0  0  0  0  0
   53.8440   93.2940   25.6320 H   0  0  0  0  0  0  0  0  0  0  0  0
   55.8050   92.0900   22.4210 N   0  0  0  0  0  0  0  0  0  0  0  0
   56.7750   91.8750   22.6040 H   0  0  0  0  0  0  0  0  0  0  0  0
   55.1700   91.3830   21.3970 C   0  0  0  0  0  0  0  0  0  0  0  0
   55.1260   90.0250   21.3240 N   0  0  0  0  0  0  0  0  0  0  0  0
   54.4250   89.6630   20.1890 N   0  0  0  0  0  0  0  0  0  0  0  0
   54.0330   90.7480   19.5810 C   0  0  2  0  0  0  0  0  0  0  0  0
   54.9580   90.7580   19.0050 H   0  0  0  0  0  0  0  0  0  0  0  0
   54.4810   91.8580   20.3150 C   0  0  0  0  0  0  0  0  0  0  0  0
   54.3130   92.8960   20.0700 H   0  0  0  0  0  0  0  0  0  0  0  0
   55.7000   89.1020   22.2030 C   0  0  0  0  0  0  0  0  0  0  0  0
   53.2370   90.7640   18.3000 C   0  0  0  0  0  0  0  0  0  0  0  0
   52.7660   89.3340   18.0390 C   0  0  0  0  0  0  0  0  0  0  0  0
   52.1530   88.9950   18.8740 H   0  0  0  0  0  0  0  0  0  0  0  0
   53.6310   88.6800   17.9340 H   0  0  0  0  0  0  0  0  0  0  0  0
   52.1770   89.3070   17.1220 H   0  0  0  0  0  0  0  0  0  0  0  0
   52.0040   91.6690   18.4180 C   0  0  0  0  0  0  0  0  0  0  0  0
   51.3710   91.3150   19.2320 H   0  0  0  0  0  0  0  0  0  0  0  0
   51.4430   91.6430   17.4840 H   0  0  0  0  0  0  0  0  0  0  0  0
   52.3210   92.6910   18.6230 H   0  0  0  0  0  0  0  0  0  0  0  0
   54.1040   91.2860   17.1520 C   0  0  0  0  0  0  0  0  0  0  0  0
   54.9880   90.6570   17.0490 H   0  0  0  0  0  0  0  0  0  0  0  0
   54.4090   92.3110   17.3630 H   0  0  0  0  0  0  0  0  0  0  0  0
   53.5310   91.2620   16.2240 H   0  0  0  0  0  0  0  0  0  0  0  0
   55.5620   89.3280   23.5680 C   0  0  0  0  0  0  0  0  0  0  0  0
   55.0210   90.1890   23.9310 H   0  0  0  0  0  0  0  0  0  0  0  0
   56.1290   88.4320   24.4520 C   0  0  0  0  0  0  0  0  0  0  0  0
   56.0380   88.5940   25.5160 H   0  0  0  0  0  0  0  0  0  0  0  0
   56.8170   87.3210   23.9750 C   0  0  0  0  0  0  0  0  0  0  0  0
   56.9540   87.1040   22.6170 C   0  0  0  0  0  0  0  0  0  0  0  0
   57.4910   86.2390   22.2570 H   0  0  0  0  0  0  0  0  0  0  0  0
   56.4020   87.9960   21.7240 C   0  0  0  0  0  0  0  0  0  0  0  0
   56.5110   87.8400   20.6610 H   0  0  0  0  0  0  0  0  0  0  0  0
   57.4190   86.3510   24.9500 C   0  0  0  0  0  0  0  0  0  0  0  0
   57.2120   86.6820   25.9670 H   0  0  0  0  0  0  0  0  0  0  0  0
   58.4970   86.3040   24.7960 H   0  0  0  0  0  0  0  0  0  0  0  0
   56.9860   85.3630   24.7940 H   0  0  0  0  0  0  0  0  0  0  0  0
   57.3010   96.1780   24.6210 C   0  0  0  0  0  0  0  0  0  0  0  0
   57.7420   95.5010   23.9040 H   0  0  0  0  0  0  0  0  0  0  0  0
   57.8850   97.3880   24.8640 C   0  0  0  0  0  0  0  0  0  0  0  0
   58.7840   97.6610   24.3310 H   0  0  0  0  0  0  0  0  0  0  0  0
   57.3350   98.2840   25.7950 C   0  0  0  0  0  0  0  0  0  0  0  0
   57.8160   99.2330   25.9760 H   0  0  0  0  0  0  0  0  0  0  0  0
   56.1930   97.9600   26.4760 C   0  0  0  0  0  0  0  0  0  0  0  0
   55.7780   98.6580   27.1870 H   0  0  0  0  0  0  0  0  0  0  0  0
   53.8270   97.2340   27.8630 O   0  0  0  0  0  0  0  0  0  0  0  0
   53.0170   98.2650   27.2920 C   0  0  0  0  0  0  0  0  0  0  0  0
   52.1320   97.8280   26.8290 H   0  0  0  0  0  0  0  0  0  0  0  0
   53.5880   98.8120   26.5410 H   0  0  0  0  0  0  0  0  0  0  0  0
   52.5990   99.2140   28.4250 C   0  0  0  0  0  0  0  0  0  0  0  0
   53.3080  100.0410   28.4750 H   0  0  0  0  0  0  0  0  0  0  0  0
   52.6120   98.6680   29.3680 H   0  0  0  0  0  0  0  0  0  0  0  0
   51.2360   99.7570   28.1980 N   0  0  0  0  0  0  0  0  0  0  0  0
   51.2130  100.5970   26.9780 C   0  0  0  0  0  0  0  0  0  0  0  0
   51.5270  100.0050   26.1170 H   0  0  0  0  0  0  0  0  0  0  0  0
   51.8870  101.4450   27.1010 H   0  0  0  0  0  0  0  0  0  0  0  0
   49.7840  101.0960   26.7700 C   0  0  0  0  0  0  0  0  0  0  0  0
   49.1000  100.2500   26.7230 H   0  0  0  0  0  0  0  0  0  0  0  0
   49.7230  101.6660   25.8420 H   0  0  0  0  0  0  0  0  0  0  0  0
   49.4440  101.9350   27.8780 O   0  0  0  0  0  0  0  0  0  0  0  0
   49.4800  101.1840   29.0930 C   0  0  0  0  0  0  0  0  0  0  0  0
   48.7800  100.3510   29.0260 H   0  0  0  0  0  0  0  0  0  0  0  0
   49.1990  101.8290   29.9260 H   0  0  0  0  0  0  0  0  0  0  0  0
   50.8920  100.6430   29.3250 C   0  0  0  0  0  0  0  0  0  0  0  0
   51.6010  101.4690   29.3750 H   0  0  0  0  0  0  0  0  0  0  0  0
   50.9240  100.0810   30.2590 H   0  0  0  0  0  0  0  0  0  0  0  0
  1  3  1  0  0  0  0
  2  1  2  0  0  0  0
  3  4  1  0  0  0  0
  3  5  1  0  0  0  0
  5  6  2  0  0  0  0
  5 11  1  0  0  0  0
  6  7  1  0  0  0  0
  7 55  1  0  0  0  0
  7  8  2  0  0  0  0
  8 57  1  0  0  0  0
  9  8  1  0  0  0  0
  9 10  1  0  0  0  0
 11  9  2  0  0  0  0
 12 11  1  0  0  0  0
 13 14  1  0  0  0  0
 13  1  1  0  0  0  0
 15 13  1  0  0  0  0
 16 15  1  0  0  0  0
 16 22  1  0  0  0  0
 17 16  1  0  0  0  0
 18 19  1  6  0  0  0
 18 17  1  0  0  0  0
 18 20  1  0  0  0  0
 20 15  2  0  0  0  0
 21 20  1  0  0  0  0
 22 36  1  0  0  0  0
 23 28  1  0  0  0  0
 23 18  1  0  0  0  0
 24 23  1  0  0  0  0
 24 25  1  0  0  0  0
 26 24  1  0  0  0  0
 27 24  1  0  0  0  0
 28 31  1  0  0  0  0
 28 29  1  0  0  0  0
 30 28  1  0  0  0  0
 32 34  1  0  0  0  0
 32 23  1  0  0  0  0
 33 32  1  0  0  0  0
 35 32  1  0  0  0  0
 36 37  1  0  0  0  0
 36 38  2  0  0  0  0
 38 39  1  0  0  0  0
 40 38  1  0  0  0  0
 40 45  1  0  0  0  0
 41 40  2  0  0  0  0
 42 41  1  0  0  0  0
 43 22  2  0  0  0  0
 43 41  1  0  0  0  0
 44 43  1  0  0  0  0
 45 46  1  0  0  0  0
 47 45  1  0  0  0  0
 48 45  1  0  0  0  0
 49 51  2  0  0  0  0
 49  6  1  0  0  0  0
 50 49  1  0  0  0  0
 51 53  1  0  0  0  0
 52 51  1  0  0  0  0
 53 54  1  0  0  0  0
 53 55  2  0  0  0  0
 55 56  1  0  0  0  0
 58 57  1  0  0  0  0
 58 61  1  0  0  0  0
 59 58  1  0  0  0  0
 60 58  1  0  0  0  0
 61 62  1  0  0  0  0
 61 63  1  0  0  0  0
 64 61  1  0  0  0  0
 64 75  1  0  0  0  0
 65 67  1  0  0  0  0
 65 64  1  0  0  0  0
 66 65  1  0  0  0  0
 68 65  1  0  0  0  0
 68 71  1  0  0  0  0
 69 68  1  0  0  0  0
 70 68  1  0  0  0  0
 71 72  1  0  0  0  0
 72 75  1  0  0  0  0
 72 74  1  0  0  0  0
 73 72  1  0  0  0  0
 75 76  1  0  0  0  0
 75 77  1  0  0  0  0
M  END
>  <Pose>
2

>  <Score>
-12.45

$$$$

 OpenBabel03112211363D

 77 81  0  0  1  0  0  0  0  0999 V2000
   55.1450   93.0600   23.4050 C   0  0  0  0  0  0  0  0  0  0  0  0
   54.0500   93.5230   23.1250 O   0  0  0  0  0  0  0  0  0  0  0  0
   55.8840   93.5750   24.4280 N   0  0  0  0  0  0  0  0  0  0  0  0
   56.8040   93.1920   24.5910 H   0  0  0  0  0  0  0  0  0  0  0  0
   55.4380   94.6090   25.2690 C   0  0  0  0  0  0  0  0  0  0  0  0
   56.1800   95.8050   25.4730 C   0  0  0  0  0  0  0  0  0  0  0  0
   55.6520   96.7970   26.3600 C   0  0  0  0  0  0  0  0  0  0  0  0
   54.4040   96.5680   27.0230 C   0  0  0  0  0  0  0  0  0  0  0  0
   53.7220   95.4040   26.7980 C   0  0  0  0  0  0  0  0  0  0  0  0
   52.7740   95.2390   27.2870 H   0  0  0  0  0  0  0  0  0  0  0  0
   54.2370   94.4270   25.9440 C   0  0  0  0  0  0  0  0  0  0  0  0
   53.6880   93.5070   25.8050 H   0  0  0  0  0  0  0  0  0  0  0  0
   55.6720   92.0290   22.7060 N   0  0  0  0  0  0  0  0  0  0  0  0
   56.6000   91.7200   22.9580 H   0  0  0  0  0  0  0  0  0  0  0  0
   55.0300   91.3590   21.6610 C   0  0  0  0  0  0  0  0  0  0  0  0
   55.0220   90.0060   21.5180 N   0  0  0  0  0  0  0  0  0  0  0  0
   54.3020   89.6840   20.3820 N   0  0  0  0  0  0  0  0  0  0  0  0
   53.8670   90.7880   19.8410 C   0  0  2  0  0  0  0  0  0  0  0  0
   54.7770   90.8530   19.2450 H   0  0  0  0  0  0  0  0  0  0  0  0
   54.3030   91.8700   20.6220 C   0  0  0  0  0  0  0  0  0  0  0  0
   54.1020   92.9140   20.4350 H   0  0  0  0  0  0  0  0  0  0  0  0
   55.6410   89.0550   22.3340 C   0  0  0  0  0  0  0  0  0  0  0  0
   53.0400   90.8480   18.5810 C   0  0  0  0  0  0  0  0  0  0  0  0
   53.8880   91.5390   17.5130 C   0  0  0  0  0  0  0  0  0  0  0  0
   54.8030   90.9700   17.3510 H   0  0  0  0  0  0  0  0  0  0  0  0
   54.1400   92.5460   17.8440 H   0  0  0  0  0  0  0  0  0  0  0  0
   53.3250   91.5930   16.5810 H   0  0  0  0  0  0  0  0  0  0  0  0
   52.6770   89.4440   18.0820 C   0  0  0  0  0  0  0  0  0  0  0  0
   53.5900   88.8800   17.8880 H   0  0  0  0  0  0  0  0  0  0  0  0
   52.0980   89.5240   17.1620 H   0  0  0  0  0  0  0  0  0  0  0  0
   52.0870   88.9300   18.8400 H   0  0  0  0  0  0  0  0  0  0  0  0
   51.7400   91.6120   18.8430 C   0  0  0  0  0  0  0  0  0  0  0  0
   51.9740   92.6150   19.2000 H   0  0  0  0  0  0  0  0  0  0  0  0
   51.1550   91.0850   19.5980 H   0  0  0  0  0  0  0  0  0  0  0  0
   51.1660   91.6790   17.9200 H   0  0  0  0  0  0  0  0  0  0  0  0
   55.5070   89.1900   23.7110 C   0  0  0  0  0  0  0  0  0  0  0  0
   54.9340   90.0040   24.1300 H   0  0  0  0  0  0  0  0  0  0  0  0
   56.1180   88.2660   24.5340 C   0  0  0  0  0  0  0  0  0  0  0  0
   56.0310   88.3580   25.6060 H   0  0  0  0  0  0  0  0  0  0  0  0
   56.8460   87.2160   23.9840 C   0  0  0  0  0  0  0  0  0  0  0  0
   56.9790   87.0890   22.6140 C   0  0  0  0  0  0  0  0  0  0  0  0
   57.5480   86.2710   22.1980 H   0  0  0  0  0  0  0  0  0  0  0  0
   56.3830   88.0110   21.7820 C   0  0  0  0  0  0  0  0  0  0  0  0
   56.4890   87.9250   20.7100 H   0  0  0  0  0  0  0  0  0  0  0  0
   57.4980   86.2140   24.8920 C   0  0  0  0  0  0  0  0  0  0  0  0
   57.2870   86.4730   25.9300 H   0  0  0  0  0  0  0  0  0  0  0  0
   58.5750   86.2210   24.7280 H   0  0  0  0  0  0  0  0  0  0  0  0
   57.1040   85.2200   24.6780 H   0  0  0  0  0  0  0  0  0  0  0  0
   57.4130   96.0470   24.8230 C   0  0  0  0  0  0  0  0  0  0  0  0
   57.8220   95.3060   24.1520 H   0  0  0  0  0  0  0  0  0  0  0  0
   58.0870   97.2140   25.0400 C   0  0  0  0  0  0  0  0  0  0  0  0
   59.0260   97.3880   24.5340 H   0  0  0  0  0  0  0  0  0  0  0  0
   57.5800   98.1920   25.9110 C   0  0  0  0  0  0  0  0  0  0  0  0
   58.1330   99.1060   26.0730 H   0  0  0  0  0  0  0  0  0  0  0  0
   56.3900   97.9940   26.5560 C   0  0  0  0  0  0  0  0  0  0  0  0
   56.0090   98.7550   27.2210 H   0  0  0  0  0  0  0  0  0  0  0  0
   53.9200   97.5290   27.8720 O   0  0  0  0  0  0  0  0  0  0  0  0
   53.0590   98.4900   27.2560 C   0  0  0  0  0  0  0  0  0  0  0  0
   52.1750   97.9930   26.8570 H   0  0  0  0  0  0  0  0  0  0  0  0
   53.5870   98.9970   26.4490 H   0  0  0  0  0  0  0  0  0  0  0  0
   52.6470   99.5070   28.3310 C   0  0  0  0  0  0  0  0  0  0  0  0
   53.5110  100.1180   28.5910 H   0  0  0  0  0  0  0  0  0  0  0  0
   52.3030   98.9700   29.2150 H   0  0  0  0  0  0  0  0  0  0  0  0
   51.5570  100.3910   27.8460 N   0  0  0  0  0  0  0  0  0  0  0  0
   50.3350  100.1930   28.6590 C   0  0  0  0  0  0  0  0  0  0  0  0
   50.5490  100.4060   29.7060 H   0  0  0  0  0  0  0  0  0  0  0  0
   49.9890   99.1640   28.5610 H   0  0  0  0  0  0  0  0  0  0  0  0
   49.2610  101.1510   28.1450 C   0  0  0  0  0  0  0  0  0  0  0  0
   49.6350  102.1740   28.1720 H   0  0  0  0  0  0  0  0  0  0  0  0
   48.3680  101.0730   28.7660 H   0  0  0  0  0  0  0  0  0  0  0  0
   48.9490  100.7830   26.7980 O   0  0  0  0  0  0  0  0  0  0  0  0
   50.1050  100.9240   25.9680 C   0  0  0  0  0  0  0  0  0  0  0  0
   50.4520  101.9570   26.0030 H   0  0  0  0  0  0  0  0  0  0  0  0
   49.8480  100.6620   24.9420 H   0  0  0  0  0  0  0  0  0  0  0  0
   51.2150   99.9980   26.4670 C   0  0  0  0  0  0  0  0  0  0  0  0
   50.8680   98.9640   26.4530 H   0  0  0  0  0  0  0  0  0  0  0  0
   52.0920  100.0950   25.8270 H   0  0  0  0  0  0  0  0  0  0  0  0
  1  3  1  0  0  0  0
  2  1  2  0  0  0  0
  3  4  1  0  0  0  0
  3  5  1  0  0  0  0
  5  6  2  0  0  0  0
  5 11  1  0  0  0  0
  6  7  1  0  0  0  0
  7 55  1  0  0  0  0
  7  8  2  0  0  0  0
  8 57  1  0  0  0  0
  9  8  1  0  0  0  0
  9 10  1  0  0  0  0
 11  9  2  0  0  0  0
 12 11  1  0  0  0  0
 13 14  1  0  0  0  0
 13  1  1  0  0  0  0
 15 13  1  0  0  0  0
 16 15  1  0  0  0  0
 16 22  1  0  0  0  0
 17 16  1  0  0  0  0
 18 19  1  6  0  0  0
 18 17  1  0  0  0  0
 18 20  1  0  0  0  0
 20 15  2  0  0  0  0
 21 20  1  0  0  0  0
 22 36  1  0  0  0  0
 23 32  1  0  0  0  0
 23 18  1  0  0  0  0
 24 26  1  0  0  0  0
 24 23  1  0  0  0  0
 25 24  1  0  0  0  0
 27 24  1  0  0  0  0
 28 23  1  0  0  0  0
 28 31  1  0  0  0  0
 29 28  1  0  0  0  0
 30 28  1  0  0  0  0
 32 33  1  0  0  0  0
 32 34  1  0  0  0  0
 35 32  1  0  0  0  0
 36 37  1  0  0  0  0
 36 38  2  0  0  0  0
 38 39  1  0  0  0  0
 40 38  1  0  0  0  0
 40 45  1  0  0  0  0
 41 40  2  0  0  0  0
 42 41  1  0  0  0  0
 43 22  2  0  0  0  0
 43 41  1  0  0  0  0
 44 43  1  0  0  0  0
 45 46  1  0  0  0  0
 47 45  1  0  0  0  0
 48 45  1  0  0  0  0
 49 51  2  0  0  0  0
 49  6  1  0  0  0  0
 50 49  1  0  0  0  0
 51 53  1  0  0  0  0
 52 51  1  0  0  0  0
 53 54  1  0  0  0  0
 53 55  2  0  0  0  0
 55 56  1  0  0  0  0
 58 57  1  0  0  0  0
 58 61  1  0  0  0  0
 59 58  1  0  0  0  0
 60 58  1  0  0  0  0
 61 62  1  0  0  0  0
 61 63  1  0  0  0  0
 64 61  1  0  0  0  0
 64 65  1  0  0  0  0
 65 66  1  0  0  0  0
 67 65  1  0  0  0  0
 68 69  1  0  0  0  0
 68 65  1  0  0  0  0
 68 70  1  0  0  0  0
 71 68  1  0  0  0  0
 72 73  1  0  0  0  0
 72 75  1  0  0  0  0
 72 71  1  0  0  0  0
 74 72  1  0  0  0  0
 75 64  1  0  0  0  0
 76 75  1  0  0  0  0
 77 75  1  0  0  0  0
M  END
>  <Pose>
3

>  <Score>
-12.29

$$$$
