
 OpenBabel03112215113D

 48 50  0  0  1  0  0  0  0  0999 V2000
   23.5140   61.6920   -3.3310 N   0  0  0  0  0  4  0  0  0  0  0  0
   22.9420   61.4540   -4.1280 H   0  0  0  0  0  0  0  0  0  0  0  0
   23.0410   62.3880   -2.7720 H   0  0  0  0  0  0  0  0  0  0  0  0
   23.6770   60.8660   -2.7730 H   0  0  0  0  0  0  0  0  0  0  0  0
   24.8210   62.2390   -3.8020 C   0  0  2  0  0  0  0  0  0  0  0  0
   25.5150   61.4190   -3.9840 H   0  0  0  0  0  0  0  0  0  0  0  0
   25.3640   63.1780   -2.7180 C   0  0  0  0  0  0  0  0  0  0  0  0
   24.5290   63.6920   -1.9600 O   0  0  0  0  0  0  0  0  0  0  0  0
   24.6470   63.0150   -5.1280 C   0  0  0  0  0  0  0  0  0  0  0  0
   24.4090   62.3060   -5.9210 H   0  0  0  0  0  0  0  0  0  0  0  0
   25.5840   63.5220   -5.3620 H   0  0  0  0  0  0  0  0  0  0  0  0
   23.5320   64.0570   -5.0510 C   0  0  0  0  0  0  0  0  0  0  0  0
   23.6970   64.6730   -4.1670 H   0  0  0  0  0  0  0  0  0  0  0  0
   22.5790   63.5360   -4.9580 H   0  0  0  0  0  0  0  0  0  0  0  0
   23.4480   65.1670   -6.5280 S   0  0  0  0  0  0  0  0  0  0  0  0
   21.7860   64.8080   -7.2010 C   0  0  0  0  0  0  0  0  0  0  0  0
   21.4690   65.6450   -7.8230 H   0  0  0  0  0  0  0  0  0  0  0  0
   21.0880   64.6880   -6.3720 H   0  0  0  0  0  0  0  0  0  0  0  0
   21.7770   63.5490   -8.0330 C   0  0  1  0  0  0  0  0  0  0  0  0
   22.4090   62.7990   -7.5580 H   0  0  0  0  0  0  0  0  0  0  0  0
   20.3500   63.2390   -8.1590 O   0  0  0  0  0  0  0  0  0  0  0  0
   22.3160   63.7190   -9.4700 C   0  0  1  0  0  0  0  0  0  0  0  0
   22.7730   64.6900   -9.6610 H   0  0  0  0  0  0  0  0  0  0  0  0
   23.3080   62.6990   -9.7230 O   0  0  0  0  0  0  0  0  0  0  0  0
   22.8430   61.8710   -9.8650 H   0  0  0  0  0  0  0  0  0  0  0  0
   21.0610   63.4270  -10.3350 C   0  0  1  0  0  0  0  0  0  0  0  0
   20.5890   64.3370  -10.7050 H   0  0  0  0  0  0  0  0  0  0  0  0
   21.3980   62.5930  -11.3940 O   0  0  0  0  0  0  0  0  0  0  0  0
   21.8960   61.8550  -11.0350 H   0  0  0  0  0  0  0  0  0  0  0  0
   20.2450   62.5320   -9.4010 C   0  0  2  0  0  0  0  0  0  0  0  0
   20.6050   61.5040   -9.4070 H   0  0  0  0  0  0  0  0  0  0  0  0
   26.5930   63.3810   -2.6810 O   0  0  0  0  0  0  0  0  0  0  0  0
   16.2700   59.3130   -9.9830 N   0  0  0  0  0  0  0  0  0  0  0  0
   17.5370   59.0920   -9.6350 C   0  0  0  0  0  0  0  0  0  0  0  0
   17.8410   58.0780   -9.4180 H   0  0  0  0  0  0  0  0  0  0  0  0
   18.4460   60.0570   -9.5440 N   0  0  0  0  0  0  0  0  0  0  0  0
   18.0960   61.3190   -9.7930 C   0  0  0  0  0  0  0  0  0  0  0  0
   16.7910   61.5990  -10.1560 C   0  0  0  0  0  0  0  0  0  0  0  0
   15.8570   60.5540  -10.2590 C   0  0  0  0  0  0  0  0  0  0  0  0
   14.5840   60.7420  -10.6080 N   0  0  0  0  0  0  0  0  0  0  0  0
   14.2490   61.6720  -10.8130 H   0  0  0  0  0  0  0  0  0  0  0  0
   13.9550   59.9540  -10.6660 H   0  0  0  0  0  0  0  0  0  0  0  0
   16.7840   62.9670  -10.3390 C   0  0  2  0  0  0  0  0  0  0  0  0
   18.0050   63.4710  -10.1010 C   0  0  0  0  0  0  0  0  0  0  0  0
   17.9590   64.1860   -9.2790 H   0  0  0  0  0  0  0  0  0  0  0  0
   18.3830   63.9680  -10.9940 H   0  0  0  0  0  0  0  0  0  0  0  0
   18.7980   62.4520   -9.7750 N   0  0  0  0  0  0  0  0  0  0  0  0
   15.2700   64.0410  -10.8210 B   0  0  0  0  0  0  0  0  0  0  0  0
  1  4  1  0  0  0  0
  1  3  1  0  0  0  0
  2  1  1  0  0  0  0
  5  6  1  6  0  0  0
  5  1  1  0  0  0  0
  5  7  1  0  0  0  0
  7 32  2  0  0  0  0
  7  8  1  0  0  0  0
  9 12  1  0  0  0  0
  9  5  1  0  0  0  0
 10  9  1  0  0  0  0
 11  9  1  0  0  0  0
 12 14  1  0  0  0  0
 12 13  1  0  0  0  0
 15 12  1  0  0  0  0
 16 15  1  0  0  0  0
 16 18  1  0  0  0  0
 17 16  1  0  0  0  0
 19 20  1  1  0  0  0
 19 16  1  0  0  0  0
 21 19  1  0  0  0  0
 22 23  1  6  0  0  0
 22 19  1  0  0  0  0
 24 22  1  0  0  0  0
 25 24  1  0  0  0  0
 26 27  1  6  0  0  0
 26 22  1  0  0  0  0
 26 30  1  0  0  0  0
 28 29  1  0  0  0  0
 28 26  1  0  0  0  0
 30 31  1  1  0  0  0
 30 21  1  0  0  0  0
 33 34  2  0  0  0  0
 34 36  1  0  0  0  0
 34 35  1  0  0  0  0
 37 47  1  0  0  0  0
 37 36  2  0  0  0  0
 38 37  1  0  0  0  0
 39 38  2  0  0  0  0
 39 33  1  0  0  0  0
 40 39  1  0  0  0  0
 41 40  1  0  0  0  0
 42 40  1  0  0  0  0
 43 48  1  1  0  0  0
 43 38  1  0  0  0  0
 43 44  1  0  0  0  0
 44 47  1  0  0  0  0
 44 45  1  0  0  0  0
 46 44  1  0  0  0  0
 47 30  1  0  0  0  0
M  END
>  <Pose>
9

>  <Score>
-12.48

$$$$

 OpenBabel03112215113D

 48 50  0  0  1  0  0  0  0  0999 V2000
   20.7580   67.9520   -8.2790 N   0  0  0  0  0  4  0  0  0  0  0  0
   20.0220   68.6210   -8.4560 H   0  0  0  0  0  0  0  0  0  0  0  0
   20.4160   67.0200   -8.4630 H   0  0  0  0  0  0  0  0  0  0  0  0
   21.5440   68.1480   -8.8830 H   0  0  0  0  0  0  0  0  0  0  0  0
   21.1890   68.0510   -6.8540 C   0  0  2  0  0  0  0  0  0  0  0  0
   20.3490   68.3770   -6.2410 H   0  0  0  0  0  0  0  0  0  0  0  0
   22.3410   69.0620   -6.7740 C   0  0  0  0  0  0  0  0  0  0  0  0
   22.9040   69.3460   -7.8400 O   0  0  0  0  0  0  0  0  0  0  0  0
   21.6600   66.6780   -6.3230 C   0  0  0  0  0  0  0  0  0  0  0  0
   21.0880   65.8950   -6.8210 H   0  0  0  0  0  0  0  0  0  0  0  0
   21.4770   66.6350   -5.2500 H   0  0  0  0  0  0  0  0  0  0  0  0
   23.1480   66.4340   -6.5770 C   0  0  0  0  0  0  0  0  0  0  0  0
   23.6970   66.6880   -5.6710 H   0  0  0  0  0  0  0  0  0  0  0  0
   23.4690   67.0840   -7.3910 H   0  0  0  0  0  0  0  0  0  0  0  0
   23.5480   64.6870   -7.0320 S   0  0  0  0  0  0  0  0  0  0  0  0
   21.8950   63.9100   -7.1190 C   0  0  0  0  0  0  0  0  0  0  0  0
   21.1450   64.6900   -7.2500 H   0  0  0  0  0  0  0  0  0  0  0  0
   21.7060   63.3770   -6.1870 H   0  0  0  0  0  0  0  0  0  0  0  0
   21.7920   62.9360   -8.2690 C   0  0  1  0  0  0  0  0  0  0  0  0
   22.4130   62.0650   -8.0590 H   0  0  0  0  0  0  0  0  0  0  0  0
   20.3490   62.7150   -8.3940 O   0  0  0  0  0  0  0  0  0  0  0  0
   22.2700   63.4880   -9.6290 C   0  0  1  0  0  0  0  0  0  0  0  0
   22.7580   64.4600   -9.5680 H   0  0  0  0  0  0  0  0  0  0  0  0
   23.2030   62.5530  -10.2130 O   0  0  0  0  0  0  0  0  0  0  0  0
   22.7240   61.7420  -10.3980 H   0  0  0  0  0  0  0  0  0  0  0  0
   20.9640   63.4870  -10.4670 C   0  0  1  0  0  0  0  0  0  0  0  0
   20.5140   64.4770  -10.5410 H   0  0  0  0  0  0  0  0  0  0  0  0
   21.2140   62.9750  -11.7350 O   0  0  0  0  0  0  0  0  0  0  0  0
   21.5470   62.0810  -11.6260 H   0  0  0  0  0  0  0  0  0  0  0  0
   20.1550   62.3890   -9.7750 C   0  0  2  0  0  0  0  0  0  0  0  0
   20.4700   61.3940  -10.0890 H   0  0  0  0  0  0  0  0  0  0  0  0
   22.6490   69.5100   -5.6530 O   0  0  0  0  0  0  0  0  0  0  0  0
   15.8350   59.6050  -10.0800 N   0  0  0  0  0  0  0  0  0  0  0  0
   17.0890   59.2540   -9.7940 C   0  0  0  0  0  0  0  0  0  0  0  0
   17.2940   58.2180   -9.5700 H   0  0  0  0  0  0  0  0  0  0  0  0
   18.0980   60.1180   -9.7700 N   0  0  0  0  0  0  0  0  0  0  0  0
   17.8710   61.4070  -10.0290 C   0  0  0  0  0  0  0  0  0  0  0  0
   16.5860   61.8180  -10.3310 C   0  0  0  0  0  0  0  0  0  0  0  0
   15.5430   60.8780  -10.3630 C   0  0  0  0  0  0  0  0  0  0  0  0
   14.2800   61.1950  -10.6500 N   0  0  0  0  0  0  0  0  0  0  0  0
   14.0350   62.1520  -10.8590 H   0  0  0  0  0  0  0  0  0  0  0  0
   13.5680   60.4780  -10.6580 H   0  0  0  0  0  0  0  0  0  0  0  0
   16.7150   63.1760  -10.5430 C   0  0  2  0  0  0  0  0  0  0  0  0
   17.9930   63.5500  -10.3800 C   0  0  0  0  0  0  0  0  0  0  0  0
   18.0670   64.2790   -9.5730 H   0  0  0  0  0  0  0  0  0  0  0  0
   18.3740   63.9890  -11.3020 H   0  0  0  0  0  0  0  0  0  0  0  0
   18.6900   62.4580  -10.0720 N   0  0  0  0  0  0  0  0  0  0  0  0
   15.3000   64.3970  -10.9720 B   0  0  0  0  0  0  0  0  0  0  0  0
  1  5  1  0  0  0  0
  2  1  1  0  0  0  0
  3  1  1  0  0  0  0
  4  1  1  0  0  0  0
  5  7  1  0  0  0  0
  5  9  1  0  0  0  0
  5  6  1  1  0  0  0
  7 32  1  0  0  0  0
  8  7  2  0  0  0  0
  9 11  1  0  0  0  0
 10  9  1  0  0  0  0
 12  9  1  0  0  0  0
 12 13  1  0  0  0  0
 14 12  1  0  0  0  0
 15 12  1  0  0  0  0
 16 15  1  0  0  0  0
 16 18  1  0  0  0  0
 17 16  1  0  0  0  0
 19 20  1  1  0  0  0
 19 16  1  0  0  0  0
 21 19  1  0  0  0  0
 22 23  1  1  0  0  0
 22 19  1  0  0  0  0
 24 22  1  0  0  0  0
 25 24  1  0  0  0  0
 26 27  1  6  0  0  0
 26 30  1  0  0  0  0
 26 22  1  0  0  0  0
 28 29  1  0  0  0  0
 28 26  1  0  0  0  0
 30 31  1  6  0  0  0
 30 21  1  0  0  0  0
 33 34  2  0  0  0  0
 34 36  1  0  0  0  0
 34 35  1  0  0  0  0
 37 36  2  0  0  0  0
 38 37  1  0  0  0  0
 39 38  2  0  0  0  0
 39 33  1  0  0  0  0
 40 39  1  0  0  0  0
 41 40  1  0  0  0  0
 42 40  1  0  0  0  0
 43 48  1  1  0  0  0
 43 44  1  0  0  0  0
 43 38  1  0  0  0  0
 44 47  1  0  0  0  0
 44 45  1  0  0  0  0
 46 44  1  0  0  0  0
 47 37  1  0  0  0  0
 47 30  1  0  0  0  0
M  END
>  <Pose>
1

>  <Score>
-10.25

$$$$
