# created with PyMOL 2.5.2
@<TRIPOS>MOLECULE
predictions
48 50 1                 
SMALL
USER_CHARGES
@<TRIPOS>ATOM
1	   N	23.629	61.562	-3.465	N.3	1	UNK0	0.000	
2	   H	23.327	61.088	-4.305	 H	1	UNK0	0.000	
3	   H	22.927	62.232	-3.186	 H	1	UNK0	0.000	
4	   H	23.761	60.886	-2.727	 H	1	UNK0	0.000	
5	   C	24.916	62.270	-3.728	C.3	1	UNK0	0.000	
6	   H	25.706	61.539	-3.898	 H	1	UNK0	0.000	
7	   C	25.238	63.143	-2.509	C.2	1	UNK0	0.000	
8	   O	24.274	63.656	-1.924	O.co2	1	UNK0	0.000	
9	   C	24.810	63.155	-4.992	C.3	1	UNK0	0.000	
10	   H	24.740	62.509	-5.867	 H	1	UNK0	0.000	
11	   H	25.707	63.770	-5.065	 H	1	UNK0	0.000	
12	   C	23.587	64.071	-4.960	C.3	1	UNK0	0.000	
13	   H	23.688	64.750	-4.114	 H	1	UNK0	0.000	
14	   H	22.698	63.455	-4.827	 H	1	UNK0	0.000	
15	   S	23.374	65.080	-6.496	S.3	1	UNK0	0.000	
16	   C	21.681	64.641	-7.028	C.3	1	UNK0	0.000	
17	   H	21.268	65.467	-7.607	 H	1	UNK0	0.000	
18	   H	21.066	64.474	-6.144	 H	1	UNK0	0.000	
19	   C	21.666	63.392	-7.877	C.3	1	UNK0	0.000	
20	   H	22.263	62.620	-7.392	 H	1	UNK0	0.000	
21	   O	20.236	63.123	-8.052	O.3	1	UNK0	0.000	
22	   C	22.255	63.566	-9.293	C.3	1	UNK0	0.000	
23	   H	22.743	64.527	-9.457	 H	1	UNK0	0.000	
24	   O	23.226	62.523	-9.528	O.3	1	UNK0	0.000	
25	   H	22.767	61.783	-9.933	 H	1	UNK0	0.000	
26	   C	21.021	63.318	-10.201	C.3	1	UNK0	0.000	
27	   H	20.585	64.245	-10.575	 H	1	UNK0	0.000	
28	   O	21.369	62.489	-11.260	O.3	1	UNK0	0.000	
29	   H	22.030	61.871	-10.939	 H	1	UNK0	0.000	
30	   C	20.152	62.434	-9.306	C.3	1	UNK0	0.000	
31	   H	20.485	61.397	-9.314	 H	1	UNK0	0.000	
32	   O	26.435	63.297	-2.200	O.co2	1	UNK0	0.000	
33	   N	16.100	59.337	-10.011	N.2	1	UNK0	0.000	
34	   C	17.349	59.077	-9.623	C.2	1	UNK0	0.000	
35	   H	17.614	58.056	-9.394	 H	1	UNK0	0.000	
36	   N	18.283	60.014	-9.503	N.2	1	UNK0	0.000	
37	   C	17.980	61.287	-9.765	C.2	1	UNK0	0.000	
38	   C	16.697	61.605	-10.171	C.2	1	UNK0	0.000	
39	   C	15.736	60.589	-10.302	C.2	1	UNK0	0.000	
40	   N	14.481	60.815	-10.692	N.pl3	1	UNK0	0.000	
41	   H	14.181	61.755	-10.910	 H	1	UNK0	0.000	
42	   H	13.830	60.047	-10.770	 H	1	UNK0	0.000	
43	   C	16.738	62.973	-10.355	C.3	1	UNK0	0.000	
44	   C	17.965	63.440	-10.078	C.3	1	UNK0	0.000	
45	   H	17.915	64.157	-9.260	 H	1	UNK0	0.000	
46	   H	18.388	63.923	-10.959	 H	1	UNK0	0.000	
47	   N	18.716	62.398	-9.726	N.pl3	1	UNK0	0.000	
48	   B	15.274	64.091	-10.888	 B	1	UNK0	0.000	
@<TRIPOS>BOND
1 1 3 1
2 1 4 1
3 1 2 1
4 5 6 1
5 1 5 1
6 5 7 1
7 7 32 2
8 7 8 1
9 9 12 1
10 5 9 1
11 9 10 1
12 9 11 1
13 12 14 1
14 12 13 1
15 12 15 1
16 15 16 1
17 16 18 1
18 16 17 1
19 19 20 1
20 16 19 1
21 19 21 1
22 22 23 1
23 19 22 1
24 22 24 1
25 24 25 1
26 26 27 1
27 26 30 1
28 22 26 1
29 28 29 1
30 26 28 1
31 30 31 1
32 21 30 1
33 33 34 2
34 34 36 1
35 34 35 1
36 37 47 1
37 36 37 2
38 37 38 1
39 38 39 2
40 33 39 1
41 39 40 1
42 40 41 1
43 40 42 1
44 43 48 1
45 38 43 1
46 43 44 1
47 44 47 1
48 44 45 1
49 44 46 1
50 30 47 1
@<TRIPOS>SUBSTRUCTURE
1	UNK0	1	GROUP	1 ****	UNK
