
 OpenBabel03102210473D

 48 50  0  0  1  0  0  0  0  0999 V2000
   23.5350   61.7660   -3.3650 N   0  0  0  0  0  4  0  0  0  0  0  0
   22.9530   61.4800   -4.1400 H   0  0  0  0  0  0  0  0  0  0  0  0
   23.0320   62.4310   -2.7950 H   0  0  0  0  0  0  0  0  0  0  0  0
   23.7750   60.9580   -2.8090 H   0  0  0  0  0  0  0  0  0  0  0  0
   24.7810   62.4000   -3.8870 C   0  0  2  0  0  0  0  0  0  0  0  0
   25.5420   61.6350   -4.0420 H   0  0  0  0  0  0  0  0  0  0  0  0
   25.2560   63.4350   -2.8590 C   0  0  0  0  0  0  0  0  0  0  0  0
   24.3740   64.0170   -2.2110 O   0  0  0  0  0  0  0  0  0  0  0  0
   24.5210   63.0930   -5.2440 C   0  0  0  0  0  0  0  0  0  0  0  0
   24.2100   62.3390   -5.9680 H   0  0  0  0  0  0  0  0  0  0  0  0
   25.4460   63.5600   -5.5820 H   0  0  0  0  0  0  0  0  0  0  0  0
   23.4350   64.1640   -5.1530 C   0  0  0  0  0  0  0  0  0  0  0  0
   23.6210   64.7680   -4.2650 H   0  0  0  0  0  0  0  0  0  0  0  0
   22.4690   63.6680   -5.0590 H   0  0  0  0  0  0  0  0  0  0  0  0
   23.3740   65.2880   -6.6210 S   0  0  0  0  0  0  0  0  0  0  0  0
   21.7110   64.9580   -7.3050 C   0  0  0  0  0  0  0  0  0  0  0  0
   21.4420   65.7670   -7.9840 H   0  0  0  0  0  0  0  0  0  0  0  0
   20.9940   64.9190   -6.4850 H   0  0  0  0  0  0  0  0  0  0  0  0
   21.6630   63.6500   -8.0590 C   0  0  1  0  0  0  0  0  0  0  0  0
   22.2420   62.9020   -7.5180 H   0  0  0  0  0  0  0  0  0  0  0  0
   20.2270   63.4040   -8.2130 O   0  0  0  0  0  0  0  0  0  0  0  0
   22.2530   63.7030   -9.4840 C   0  0  1  0  0  0  0  0  0  0  0  0
   22.7640   64.6370   -9.7190 H   0  0  0  0  0  0  0  0  0  0  0  0
   23.1990   62.6220   -9.6410 O   0  0  0  0  0  0  0  0  0  0  0  0
   22.7040   61.8380   -9.8880 H   0  0  0  0  0  0  0  0  0  0  0  0
   21.0110   63.4200  -10.3710 C   0  0  1  0  0  0  0  0  0  0  0  0
   20.5980   64.3270  -10.8120 H   0  0  0  0  0  0  0  0  0  0  0  0
   21.3370   62.5050  -11.3650 O   0  0  0  0  0  0  0  0  0  0  0  0
   21.8330   61.7940  -10.9540 H   0  0  0  0  0  0  0  0  0  0  0  0
   20.1230   62.6260   -9.4120 C   0  0  2  0  0  0  0  0  0  0  0  0
   20.4310   61.5830   -9.3430 H   0  0  0  0  0  0  0  0  0  0  0  0
   26.4800   63.6390   -2.7560 O   0  0  0  0  0  0  0  0  0  0  0  0
   16.0930   59.5250  -10.2150 N   0  0  0  0  0  0  0  0  0  0  0  0
   17.3450   59.2610   -9.8410 C   0  0  0  0  0  0  0  0  0  0  0  0
   17.6190   58.2340   -9.6510 H   0  0  0  0  0  0  0  0  0  0  0  0
   18.2730   60.2000   -9.6910 N   0  0  0  0  0  0  0  0  0  0  0  0
   17.9590   61.4790   -9.9050 C   0  0  0  0  0  0  0  0  0  0  0  0
   16.6720   61.8020  -10.2940 C   0  0  0  0  0  0  0  0  0  0  0  0
   15.7170   60.7840  -10.4590 C   0  0  0  0  0  0  0  0  0  0  0  0
   14.4590   61.0140  -10.8360 N   0  0  0  0  0  0  0  0  0  0  0  0
   14.1510   61.9590  -11.0180 H   0  0  0  0  0  0  0  0  0  0  0  0
   13.8140   60.2440  -10.9390 H   0  0  0  0  0  0  0  0  0  0  0  0
   16.7010   63.1760  -10.4280 C   0  0  2  0  0  0  0  0  0  0  0  0
   17.9260   63.6420  -10.1390 C   0  0  0  0  0  0  0  0  0  0  0  0
   17.8730   64.3280   -9.2940 H   0  0  0  0  0  0  0  0  0  0  0  0
   18.3410   64.1600  -11.0040 H   0  0  0  0  0  0  0  0  0  0  0  0
   18.6860   62.5940   -9.8280 N   0  0  0  0  0  0  0  0  0  0  0  0
   15.2270   64.3010  -10.9150 B   0  0  0  0  0  0  0  0  0  0  0  0
  1  4  1  0  0  0  0
  1  3  1  0  0  0  0
  2  1  1  0  0  0  0
  5  6  1  6  0  0  0
  5  1  1  0  0  0  0
  5  7  1  0  0  0  0
  7 32  2  0  0  0  0
  7  8  1  0  0  0  0
  9 12  1  0  0  0  0
  9  5  1  0  0  0  0
 10  9  1  0  0  0  0
 11  9  1  0  0  0  0
 12 14  1  0  0  0  0
 12 13  1  0  0  0  0
 15 12  1  0  0  0  0
 16 15  1  0  0  0  0
 16 18  1  0  0  0  0
 17 16  1  0  0  0  0
 19 20  1  1  0  0  0
 19 16  1  0  0  0  0
 21 19  1  0  0  0  0
 22 23  1  6  0  0  0
 22 19  1  0  0  0  0
 24 22  1  0  0  0  0
 25 24  1  0  0  0  0
 26 27  1  6  0  0  0
 26 22  1  0  0  0  0
 26 30  1  0  0  0  0
 28 29  1  0  0  0  0
 28 26  1  0  0  0  0
 30 31  1  1  0  0  0
 30 21  1  0  0  0  0
 33 34  2  0  0  0  0
 34 36  1  0  0  0  0
 34 35  1  0  0  0  0
 37 47  1  0  0  0  0
 37 36  2  0  0  0  0
 38 37  1  0  0  0  0
 39 38  2  0  0  0  0
 39 33  1  0  0  0  0
 40 39  1  0  0  0  0
 41 40  1  0  0  0  0
 42 40  1  0  0  0  0
 43 48  1  1  0  0  0
 43 38  1  0  0  0  0
 43 44  1  0  0  0  0
 44 47  1  0  0  0  0
 44 45  1  0  0  0  0
 46 44  1  0  0  0  0
 47 30  1  0  0  0  0
M  END
>  <Pose>
8

>  <Score>
-12.41

$$$$

 OpenBabel03102210473D

 48 50  0  0  1  0  0  0  0  0999 V2000
   21.2920   67.8950   -7.4040 N   0  0  0  0  0  4  0  0  0  0  0  0
   20.6640   68.6840   -7.4550 H   0  0  0  0  0  0  0  0  0  0  0  0
   20.7640   67.0550   -7.2130 H   0  0  0  0  0  0  0  0  0  0  0  0
   21.7780   67.7940   -8.2840 H   0  0  0  0  0  0  0  0  0  0  0  0
   22.2840   68.1190   -6.3110 C   0  0  2  0  0  0  0  0  0  0  0  0
   21.8060   67.9500   -5.3460 H   0  0  0  0  0  0  0  0  0  0  0  0
   22.7940   69.5610   -6.4180 C   0  0  0  0  0  0  0  0  0  0  0  0
   22.9010   70.0280   -7.5610 O   0  0  0  0  0  0  0  0  0  0  0  0
   23.4690   67.1340   -6.4320 C   0  0  0  0  0  0  0  0  0  0  0  0
   24.3200   67.5420   -5.8870 H   0  0  0  0  0  0  0  0  0  0  0  0
   23.7290   67.0270   -7.4850 H   0  0  0  0  0  0  0  0  0  0  0  0
   23.1400   65.7530   -5.8660 C   0  0  0  0  0  0  0  0  0  0  0  0
   22.0880   65.7410   -5.5790 H   0  0  0  0  0  0  0  0  0  0  0  0
   23.7590   65.5860   -4.9840 H   0  0  0  0  0  0  0  0  0  0  0  0
   23.4360   64.3700   -7.0580 S   0  0  0  0  0  0  0  0  0  0  0  0
   22.0110   64.5130   -8.1940 C   0  0  0  0  0  0  0  0  0  0  0  0
   22.1810   65.3510   -8.8700 H   0  0  0  0  0  0  0  0  0  0  0  0
   21.1100   64.6950   -7.6090 H   0  0  0  0  0  0  0  0  0  0  0  0
   21.8180   63.2580   -9.0120 C   0  0  1  0  0  0  0  0  0  0  0  0
   22.4660   62.4720   -8.6240 H   0  0  0  0  0  0  0  0  0  0  0  0
   20.3720   63.0300   -8.9390 O   0  0  0  0  0  0  0  0  0  0  0  0
   22.1630   63.4020  -10.5090 C   0  0  1  0  0  0  0  0  0  0  0  0
   22.6430   64.3470  -10.7660 H   0  0  0  0  0  0  0  0  0  0  0  0
   23.0520   62.3290  -10.8910 O   0  0  0  0  0  0  0  0  0  0  0  0
   22.5240   61.6570  -11.3290 H   0  0  0  0  0  0  0  0  0  0  0  0
   20.7870   63.1840  -11.1930 C   0  0  1  0  0  0  0  0  0  0  0  0
   20.3200   64.1200  -11.4990 H   0  0  0  0  0  0  0  0  0  0  0  0
   20.9280   62.3350  -12.2840 O   0  0  0  0  0  0  0  0  0  0  0  0
   21.5190   61.6250  -12.0240 H   0  0  0  0  0  0  0  0  0  0  0  0
   20.0570   62.3340  -10.1510 C   0  0  2  0  0  0  0  0  0  0  0  0
   20.3560   61.2860  -10.2020 H   0  0  0  0  0  0  0  0  0  0  0  0
   23.0860   70.1580   -5.3640 O   0  0  0  0  0  0  0  0  0  0  0  0
   15.8440   59.3800   -9.9760 N   0  0  0  0  0  0  0  0  0  0  0  0
   17.1310   59.0890   -9.7860 C   0  0  0  0  0  0  0  0  0  0  0  0
   17.3960   58.0710   -9.5420 H   0  0  0  0  0  0  0  0  0  0  0  0
   18.1030   59.9900   -9.8830 N   0  0  0  0  0  0  0  0  0  0  0  0
   17.8020   61.2570  -10.1690 C   0  0  0  0  0  0  0  0  0  0  0  0
   16.4810   61.6080  -10.3740 C   0  0  0  0  0  0  0  0  0  0  0  0
   15.4770   60.6290  -10.2790 C   0  0  0  0  0  0  0  0  0  0  0  0
   14.1830   60.8880  -10.4670 N   0  0  0  0  0  0  0  0  0  0  0  0
   13.8820   61.8260  -10.6890 H   0  0  0  0  0  0  0  0  0  0  0  0
   13.5030   60.1450  -10.3870 H   0  0  0  0  0  0  0  0  0  0  0  0
   16.5350   62.9600  -10.6470 C   0  0  2  0  0  0  0  0  0  0  0  0
   17.8070   63.3880  -10.6080 C   0  0  0  0  0  0  0  0  0  0  0  0
   17.9200   64.1520   -9.8390 H   0  0  0  0  0  0  0  0  0  0  0  0
   18.0900   63.8030  -11.5760 H   0  0  0  0  0  0  0  0  0  0  0  0
   18.5710   62.3360  -10.3220 N   0  0  0  0  0  0  0  0  0  0  0  0
   15.0410   64.1100  -10.9960 B   0  0  0  0  0  0  0  0  0  0  0  0
  1  3  1  0  0  0  0
  1  5  1  0  0  0  0
  2  1  1  0  0  0  0
  4  1  1  0  0  0  0
  5  6  1  1  0  0  0
  7  5  1  0  0  0  0
  7 32  1  0  0  0  0
  8  7  2  0  0  0  0
  9  5  1  0  0  0  0
  9 10  1  0  0  0  0
  9 12  1  0  0  0  0
 11  9  1  0  0  0  0
 12 13  1  0  0  0  0
 12 14  1  0  0  0  0
 15 12  1  0  0  0  0
 16 18  1  0  0  0  0
 16 15  1  0  0  0  0
 17 16  1  0  0  0  0
 19 21  1  0  0  0  0
 19 20  1  1  0  0  0
 19 16  1  0  0  0  0
 22 23  1  6  0  0  0
 22 19  1  0  0  0  0
 24 22  1  0  0  0  0
 25 24  1  0  0  0  0
 26 27  1  6  0  0  0
 26 22  1  0  0  0  0
 26 30  1  0  0  0  0
 28 29  1  0  0  0  0
 28 26  1  0  0  0  0
 30 31  1  1  0  0  0
 30 21  1  0  0  0  0
 33 34  2  0  0  0  0
 34 35  1  0  0  0  0
 36 34  1  0  0  0  0
 37 36  2  0  0  0  0
 38 39  2  0  0  0  0
 38 37  1  0  0  0  0
 39 33  1  0  0  0  0
 40 42  1  0  0  0  0
 40 39  1  0  0  0  0
 41 40  1  0  0  0  0
 43 48  1  1  0  0  0
 43 44  1  0  0  0  0
 43 38  1  0  0  0  0
 44 47  1  0  0  0  0
 44 45  1  0  0  0  0
 46 44  1  0  0  0  0
 47 37  1  0  0  0  0
 47 30  1  0  0  0  0
M  END
>  <Pose>
2

>  <Score>
-11.20

$$$$
