
 OpenBabel03092210493D

 48 50  0  0  1  0  0  0  0  0999 V2000
   23.6290   61.5620   -3.4650 N   0  0  0  0  0  4  0  0  0  0  0  0
   23.3270   61.0880   -4.3050 H   0  0  0  0  0  0  0  0  0  0  0  0
   22.9270   62.2320   -3.1860 H   0  0  0  0  0  0  0  0  0  0  0  0
   23.7610   60.8860   -2.7270 H   0  0  0  0  0  0  0  0  0  0  0  0
   24.9160   62.2700   -3.7280 C   0  0  2  0  0  0  0  0  0  0  0  0
   25.7060   61.5390   -3.8980 H   0  0  0  0  0  0  0  0  0  0  0  0
   25.2380   63.1430   -2.5090 C   0  0  0  0  0  0  0  0  0  0  0  0
   24.2740   63.6560   -1.9240 O   0  0  0  0  0  0  0  0  0  0  0  0
   24.8100   63.1550   -4.9920 C   0  0  0  0  0  0  0  0  0  0  0  0
   24.7400   62.5090   -5.8670 H   0  0  0  0  0  0  0  0  0  0  0  0
   25.7070   63.7700   -5.0650 H   0  0  0  0  0  0  0  0  0  0  0  0
   23.5870   64.0710   -4.9600 C   0  0  0  0  0  0  0  0  0  0  0  0
   23.6880   64.7500   -4.1140 H   0  0  0  0  0  0  0  0  0  0  0  0
   22.6980   63.4550   -4.8270 H   0  0  0  0  0  0  0  0  0  0  0  0
   23.3740   65.0800   -6.4960 S   0  0  0  0  0  0  0  0  0  0  0  0
   21.6810   64.6410   -7.0280 C   0  0  0  0  0  0  0  0  0  0  0  0
   21.2680   65.4670   -7.6070 H   0  0  0  0  0  0  0  0  0  0  0  0
   21.0660   64.4740   -6.1440 H   0  0  0  0  0  0  0  0  0  0  0  0
   21.6660   63.3920   -7.8770 C   0  0  1  0  0  0  0  0  0  0  0  0
   22.2630   62.6200   -7.3920 H   0  0  0  0  0  0  0  0  0  0  0  0
   20.2360   63.1230   -8.0520 O   0  0  0  0  0  0  0  0  0  0  0  0
   22.2550   63.5660   -9.2930 C   0  0  1  0  0  0  0  0  0  0  0  0
   22.7430   64.5270   -9.4570 H   0  0  0  0  0  0  0  0  0  0  0  0
   23.2260   62.5230   -9.5280 O   0  0  0  0  0  0  0  0  0  0  0  0
   22.7670   61.7830   -9.9330 H   0  0  0  0  0  0  0  0  0  0  0  0
   21.0210   63.3180  -10.2010 C   0  0  1  0  0  0  0  0  0  0  0  0
   20.5850   64.2450  -10.5750 H   0  0  0  0  0  0  0  0  0  0  0  0
   21.3690   62.4890  -11.2600 O   0  0  0  0  0  0  0  0  0  0  0  0
   22.0300   61.8710  -10.9390 H   0  0  0  0  0  0  0  0  0  0  0  0
   20.1520   62.4340   -9.3060 C   0  0  2  0  0  0  0  0  0  0  0  0
   20.4850   61.3970   -9.3140 H   0  0  0  0  0  0  0  0  0  0  0  0
   26.4350   63.2970   -2.2000 O   0  0  0  0  0  0  0  0  0  0  0  0
   16.1000   59.3370  -10.0110 N   0  0  0  0  0  0  0  0  0  0  0  0
   17.3490   59.0770   -9.6230 C   0  0  0  0  0  0  0  0  0  0  0  0
   17.6140   58.0560   -9.3940 H   0  0  0  0  0  0  0  0  0  0  0  0
   18.2830   60.0140   -9.5030 N   0  0  0  0  0  0  0  0  0  0  0  0
   17.9800   61.2870   -9.7650 C   0  0  0  0  0  0  0  0  0  0  0  0
   16.6970   61.6050  -10.1710 C   0  0  0  0  0  0  0  0  0  0  0  0
   15.7360   60.5890  -10.3020 C   0  0  0  0  0  0  0  0  0  0  0  0
   14.4810   60.8150  -10.6920 N   0  0  0  0  0  0  0  0  0  0  0  0
   14.1810   61.7550  -10.9100 H   0  0  0  0  0  0  0  0  0  0  0  0
   13.8300   60.0470  -10.7700 H   0  0  0  0  0  0  0  0  0  0  0  0
   16.7380   62.9730  -10.3550 C   0  0  2  0  0  0  0  0  0  0  0  0
   17.9650   63.4400  -10.0780 C   0  0  0  0  0  0  0  0  0  0  0  0
   17.9150   64.1570   -9.2600 H   0  0  0  0  0  0  0  0  0  0  0  0
   18.3880   63.9230  -10.9590 H   0  0  0  0  0  0  0  0  0  0  0  0
   18.7160   62.3980   -9.7260 N   0  0  0  0  0  0  0  0  0  0  0  0
   15.2740   64.0910  -10.8880 B   0  0  0  0  0  0  0  0  0  0  0  0
  1  3  1  0  0  0  0
  1  4  1  0  0  0  0
  2  1  1  0  0  0  0
  5  6  1  6  0  0  0
  5  1  1  0  0  0  0
  5  7  1  0  0  0  0
  7 32  2  0  0  0  0
  7  8  1  0  0  0  0
  9 12  1  0  0  0  0
  9  5  1  0  0  0  0
 10  9  1  0  0  0  0
 11  9  1  0  0  0  0
 12 14  1  0  0  0  0
 12 13  1  0  0  0  0
 15 12  1  0  0  0  0
 16 15  1  0  0  0  0
 16 18  1  0  0  0  0
 17 16  1  0  0  0  0
 19 20  1  1  0  0  0
 19 16  1  0  0  0  0
 21 19  1  0  0  0  0
 22 23  1  6  0  0  0
 22 19  1  0  0  0  0
 24 22  1  0  0  0  0
 25 24  1  0  0  0  0
 26 27  1  6  0  0  0
 26 30  1  0  0  0  0
 26 22  1  0  0  0  0
 28 29  1  0  0  0  0
 28 26  1  0  0  0  0
 30 31  1  1  0  0  0
 30 21  1  0  0  0  0
 33 34  2  0  0  0  0
 34 36  1  0  0  0  0
 34 35  1  0  0  0  0
 37 47  1  0  0  0  0
 37 36  2  0  0  0  0
 38 37  1  0  0  0  0
 39 38  2  0  0  0  0
 39 33  1  0  0  0  0
 40 39  1  0  0  0  0
 41 40  1  0  0  0  0
 42 40  1  0  0  0  0
 43 48  1  1  0  0  0
 43 38  1  0  0  0  0
 43 44  1  0  0  0  0
 44 47  1  0  0  0  0
 44 45  1  0  0  0  0
 46 44  1  0  0  0  0
 47 30  1  0  0  0  0
M  END
>  <Pose>
8

>  <Score>
-12.40

$$$$

 OpenBabel03092210493D

 48 50  0  0  1  0  0  0  0  0999 V2000
   23.2870   61.6910   -3.2410 N   0  0  0  0  0  4  0  0  0  0  0  0
   22.7390   62.3940   -2.7660 H   0  0  0  0  0  0  0  0  0  0  0  0
   23.5720   60.9820   -2.5800 H   0  0  0  0  0  0  0  0  0  0  0  0
   22.7320   61.2670   -3.9710 H   0  0  0  0  0  0  0  0  0  0  0  0
   24.4970   62.3250   -3.8420 C   0  0  2  0  0  0  0  0  0  0  0  0
   24.6960   61.8810   -4.8170 H   0  0  0  0  0  0  0  0  0  0  0  0
   25.6780   62.0940   -2.8910 C   0  0  0  0  0  0  0  0  0  0  0  0
   25.8410   62.9340   -1.9950 O   0  0  0  0  0  0  0  0  0  0  0  0
   24.2800   63.8420   -4.0470 C   0  0  0  0  0  0  0  0  0  0  0  0
   25.2240   64.2930   -4.3510 H   0  0  0  0  0  0  0  0  0  0  0  0
   23.9560   64.2800   -3.1030 H   0  0  0  0  0  0  0  0  0  0  0  0
   23.2270   64.1410   -5.1140 C   0  0  0  0  0  0  0  0  0  0  0  0
   23.0160   65.2100   -5.1000 H   0  0  0  0  0  0  0  0  0  0  0  0
   22.3200   63.5890   -4.8660 H   0  0  0  0  0  0  0  0  0  0  0  0
   23.7490   63.6710   -6.8250 S   0  0  0  0  0  0  0  0  0  0  0  0
   22.2280   63.9630   -7.7980 C   0  0  0  0  0  0  0  0  0  0  0  0
   22.2790   64.9570   -8.2410 H   0  0  0  0  0  0  0  0  0  0  0  0
   21.3670   63.9050   -7.1320 H   0  0  0  0  0  0  0  0  0  0  0  0
   22.0630   62.9440   -8.9000 C   0  0  1  0  0  0  0  0  0  0  0  0
   22.7210   62.0960   -8.7080 H   0  0  0  0  0  0  0  0  0  0  0  0
   20.6200   62.6860   -8.9050 O   0  0  0  0  0  0  0  0  0  0  0  0
   22.4200   63.4550  -10.3120 C   0  0  1  0  0  0  0  0  0  0  0  0
   22.8870   64.4400  -10.3240 H   0  0  0  0  0  0  0  0  0  0  0  0
   23.3300   62.5200  -10.9330 O   0  0  0  0  0  0  0  0  0  0  0  0
   23.2100   61.6700  -10.5040 H   0  0  0  0  0  0  0  0  0  0  0  0
   21.0540   63.3930  -11.0460 C   0  0  1  0  0  0  0  0  0  0  0  0
   20.5750   64.3690  -11.1200 H   0  0  0  0  0  0  0  0  0  0  0  0
   21.2200   62.8390  -12.3100 O   0  0  0  0  0  0  0  0  0  0  0  0
   21.2810   61.8870  -12.2040 H   0  0  0  0  0  0  0  0  0  0  0  0
   20.3290   62.3030  -10.2540 C   0  0  2  0  0  0  0  0  0  0  0  0
   20.6450   61.3040  -10.5560 H   0  0  0  0  0  0  0  0  0  0  0  0
   26.4040   61.1010   -3.0900 O   0  0  0  0  0  0  0  0  0  0  0  0
   16.0390   59.4860   -9.8520 N   0  0  0  0  0  0  0  0  0  0  0  0
   17.3160   59.1800   -9.6240 C   0  0  0  0  0  0  0  0  0  0  0  0
   17.5540   58.1820   -9.2860 H   0  0  0  0  0  0  0  0  0  0  0  0
   18.3120   60.0440   -9.7930 N   0  0  0  0  0  0  0  0  0  0  0  0
   18.0470   61.2870  -10.1960 C   0  0  0  0  0  0  0  0  0  0  0  0
   16.7370   61.6510  -10.4440 C   0  0  0  0  0  0  0  0  0  0  0  0
   15.7070   60.7110  -10.2710 C   0  0  0  0  0  0  0  0  0  0  0  0
   14.4210   60.9830  -10.4940 N   0  0  0  0  0  0  0  0  0  0  0  0
   14.1470   61.9050  -10.8030 H   0  0  0  0  0  0  0  0  0  0  0  0
   13.7210   60.2690  -10.3530 H   0  0  0  0  0  0  0  0  0  0  0  0
   16.8280   62.9710  -10.8390 C   0  0  2  0  0  0  0  0  0  0  0  0
   18.1100   63.3680  -10.8270 C   0  0  0  0  0  0  0  0  0  0  0  0
   18.2370   64.1960  -10.1290 H   0  0  0  0  0  0  0  0  0  0  0  0
   18.4100   63.6860  -11.8260 H   0  0  0  0  0  0  0  0  0  0  0  0
   18.8450   62.3280  -10.4400 N   0  0  0  0  0  0  0  0  0  0  0  0
   15.3660   64.1210  -11.3050 B   0  0  0  0  0  0  0  0  0  0  0  0
  1  2  1  0  0  0  0
  1  3  1  0  0  0  0
  4  1  1  0  0  0  0
  5  6  1  6  0  0  0
  5  1  1  0  0  0  0
  5  7  1  0  0  0  0
  7  8  1  0  0  0  0
  9  5  1  0  0  0  0
  9 11  1  0  0  0  0
 10  9  1  0  0  0  0
 12 13  1  0  0  0  0
 12 14  1  0  0  0  0
 12  9  1  0  0  0  0
 15 12  1  0  0  0  0
 16 18  1  0  0  0  0
 16 15  1  0  0  0  0
 17 16  1  0  0  0  0
 19 20  1  1  0  0  0
 19 16  1  0  0  0  0
 21 19  1  0  0  0  0
 22 23  1  1  0  0  0
 22 19  1  0  0  0  0
 24 25  1  0  0  0  0
 24 22  1  0  0  0  0
 26 27  1  6  0  0  0
 26 22  1  0  0  0  0
 26 30  1  0  0  0  0
 28 29  1  0  0  0  0
 28 26  1  0  0  0  0
 30 31  1  6  0  0  0
 30 21  1  0  0  0  0
 32  7  2  0  0  0  0
 33 34  2  0  0  0  0
 34 35  1  0  0  0  0
 36 34  1  0  0  0  0
 37 36  2  0  0  0  0
 38 39  2  0  0  0  0
 38 37  1  0  0  0  0
 39 33  1  0  0  0  0
 40 42  1  0  0  0  0
 40 39  1  0  0  0  0
 41 40  1  0  0  0  0
 43 48  1  1  0  0  0
 43 44  1  0  0  0  0
 43 38  1  0  0  0  0
 44 47  1  0  0  0  0
 44 45  1  0  0  0  0
 46 44  1  0  0  0  0
 47 30  1  0  0  0  0
 47 37  1  0  0  0  0
M  END
>  <Pose>
1

>  <Score>
-11.39

$$$$

 OpenBabel03092210493D

 48 50  0  0  1  0  0  0  0  0999 V2000
   24.3140   62.4910   -6.4420 N   0  0  0  0  0  4  0  0  0  0  0  0
   23.9580   61.6460   -6.0170 H   0  0  0  0  0  0  0  0  0  0  0  0
   24.9630   62.2500   -7.1780 H   0  0  0  0  0  0  0  0  0  0  0  0
   23.5460   63.0210   -6.8300 H   0  0  0  0  0  0  0  0  0  0  0  0
   25.0130   63.3110   -5.4100 C   0  0  2  0  0  0  0  0  0  0  0  0
   25.7860   63.9150   -5.8870 H   0  0  0  0  0  0  0  0  0  0  0  0
   25.6300   62.3570   -4.3800 C   0  0  0  0  0  0  0  0  0  0  0  0
   25.0270   61.2930   -4.1790 O   0  0  0  0  0  0  0  0  0  0  0  0
   24.0260   64.2720   -4.7080 C   0  0  0  0  0  0  0  0  0  0  0  0
   24.5620   64.8170   -3.9300 H   0  0  0  0  0  0  0  0  0  0  0  0
   23.2280   63.6840   -4.2550 H   0  0  0  0  0  0  0  0  0  0  0  0
   23.4070   65.2800   -5.6750 C   0  0  0  0  0  0  0  0  0  0  0  0
   24.0500   65.3560   -6.5510 H   0  0  0  0  0  0  0  0  0  0  0  0
   23.3550   66.2480   -5.1770 H   0  0  0  0  0  0  0  0  0  0  0  0
   21.7060   64.8210   -6.2380 S   0  0  0  0  0  0  0  0  0  0  0  0
   21.8340   64.9730   -8.0560 C   0  0  0  0  0  0  0  0  0  0  0  0
   22.7800   65.4540   -8.3030 H   0  0  0  0  0  0  0  0  0  0  0  0
   21.0090   65.5860   -8.4180 H   0  0  0  0  0  0  0  0  0  0  0  0
   21.7780   63.6260   -8.7370 C   0  0  1  0  0  0  0  0  0  0  0  0
   22.4480   62.9360   -8.2250 H   0  0  0  0  0  0  0  0  0  0  0  0
   20.3490   63.3040   -8.7270 O   0  0  0  0  0  0  0  0  0  0  0  0
   22.2150   63.6320  -10.2170 C   0  0  1  0  0  0  0  0  0  0  0  0
   22.6490   64.5750  -10.5500 H   0  0  0  0  0  0  0  0  0  0  0  0
   23.1950   62.5900  -10.4210 O   0  0  0  0  0  0  0  0  0  0  0  0
   22.7670   61.7500  -10.2400 H   0  0  0  0  0  0  0  0  0  0  0  0
   20.9050   63.2430  -10.9540 C   0  0  1  0  0  0  0  0  0  0  0  0
   20.4010   64.1040  -11.3920 H   0  0  0  0  0  0  0  0  0  0  0  0
   21.1750   62.2930  -11.9320 O   0  0  0  0  0  0  0  0  0  0  0  0
   20.8190   61.4550  -11.6290 H   0  0  0  0  0  0  0  0  0  0  0  0
   20.1630   62.4600   -9.8700 C   0  0  2  0  0  0  0  0  0  0  0  0
   20.5310   61.4380   -9.7840 H   0  0  0  0  0  0  0  0  0  0  0  0
   26.6740   62.7150   -3.8010 O   0  0  0  0  0  0  0  0  0  0  0  0
   16.2080   59.1660   -9.9180 N   0  0  0  0  0  0  0  0  0  0  0  0
   17.5000   58.9840   -9.6490 C   0  0  0  0  0  0  0  0  0  0  0  0
   17.8340   57.9930   -9.3790 H   0  0  0  0  0  0  0  0  0  0  0  0
   18.3980   59.9620   -9.6960 N   0  0  0  0  0  0  0  0  0  0  0  0
   18.0110   61.1990  -10.0120 C   0  0  0  0  0  0  0  0  0  0  0  0
   16.6800   61.4370  -10.2990 C   0  0  0  0  0  0  0  0  0  0  0  0
   15.7570   60.3780  -10.2560 C   0  0  0  0  0  0  0  0  0  0  0  0
   14.4590   60.5260  -10.5230 N   0  0  0  0  0  0  0  0  0  0  0  0
   14.0960   61.4350  -10.7730 H   0  0  0  0  0  0  0  0  0  0  0  0
   13.8400   59.7300  -10.4770 H   0  0  0  0  0  0  0  0  0  0  0  0
   16.6380   62.7880  -10.5820 C   0  0  2  0  0  0  0  0  0  0  0  0
   17.8640   63.3210  -10.4720 C   0  0  0  0  0  0  0  0  0  0  0  0
   17.8670   64.0950   -9.7040 H   0  0  0  0  0  0  0  0  0  0  0  0
   18.1700   63.7530  -11.4250 H   0  0  0  0  0  0  0  0  0  0  0  0
   18.6950   62.3370  -10.1300 N   0  0  0  0  0  0  0  0  0  0  0  0
   15.0770   63.8060  -11.0320 B   0  0  0  0  0  0  0  0  0  0  0  0
  1  2  1  0  0  0  0
  1  5  1  0  0  0  0
  3  1  1  0  0  0  0
  4  1  1  0  0  0  0
  5  6  1  6  0  0  0
  5  9  1  0  0  0  0
  5  7  1  0  0  0  0
  7  8  2  0  0  0  0
  7 32  1  0  0  0  0
  9 11  1  0  0  0  0
  9 10  1  0  0  0  0
 12 14  1  0  0  0  0
 12  9  1  0  0  0  0
 13 12  1  0  0  0  0
 15 12  1  0  0  0  0
 16 15  1  0  0  0  0
 17 16  1  0  0  0  0
 18 16  1  0  0  0  0
 19 21  1  0  0  0  0
 19 20  1  1  0  0  0
 19 16  1  0  0  0  0
 22 23  1  6  0  0  0
 22 19  1  0  0  0  0
 24 25  1  0  0  0  0
 24 22  1  0  0  0  0
 26 27  1  6  0  0  0
 26 22  1  0  0  0  0
 26 30  1  0  0  0  0
 28 29  1  0  0  0  0
 28 26  1  0  0  0  0
 30 31  1  1  0  0  0
 30 21  1  0  0  0  0
 33 34  2  0  0  0  0
 34 35  1  0  0  0  0
 36 34  1  0  0  0  0
 37 36  2  0  0  0  0
 38 39  2  0  0  0  0
 38 37  1  0  0  0  0
 39 33  1  0  0  0  0
 40 42  1  0  0  0  0
 40 39  1  0  0  0  0
 41 40  1  0  0  0  0
 43 48  1  1  0  0  0
 43 44  1  0  0  0  0
 43 38  1  0  0  0  0
 44 47  1  0  0  0  0
 44 45  1  0  0  0  0
 46 44  1  0  0  0  0
 47 37  1  0  0  0  0
 47 30  1  0  0  0  0
M  END
>  <Pose>
1

>  <Score>
-11.23

$$$$
