
 OpenBabel03112215113D

 25 25  0  0  0  0  0  0  0  0999 V2000
   85.7190   89.1590  -39.8910 C   0  0  0  0  0  0  0  0  0  0  0  0
   85.5980   90.4050  -39.2630 C   0  0  0  0  0  0  0  0  0  0  0  0
   85.4230   90.4910  -37.8850 C   0  0  0  0  0  0  0  0  0  0  0  0
   85.8850   89.0370  -41.3980 C   0  0  0  0  0  0  0  0  0  0  0  0
   86.3420   88.0720  -41.6160 H   0  0  0  0  0  0  0  0  0  0  0  0
   86.5450   89.8360  -41.7360 H   0  0  0  0  0  0  0  0  0  0  0  0
   84.6180   89.1310  -42.1490 N   0  0  0  0  0  4  0  0  0  0  0  0
   84.0590   89.7980  -41.6360 H   0  0  0  0  0  0  0  0  0  0  0  0
   85.3540   89.3340  -37.0940 C   0  0  0  0  0  0  0  0  0  0  0  0
   85.2130   89.4110  -36.0260 H   0  0  0  0  0  0  0  0  0  0  0  0
   85.6510   87.9980  -39.0910 C   0  0  0  0  0  0  0  0  0  0  0  0
   85.7410   87.0280  -39.5560 H   0  0  0  0  0  0  0  0  0  0  0  0
   84.7610   89.6970  -43.5060 C   0  0  0  0  0  0  0  0  0  0  0  0
   85.3010   90.6420  -43.4500 H   0  0  0  0  0  0  0  0  0  0  0  0
   83.7740   89.8670  -43.9340 H   0  0  0  0  0  0  0  0  0  0  0  0
   85.3150   88.9990  -44.1340 H   0  0  0  0  0  0  0  0  0  0  0  0
   85.4700   88.0840  -37.7040 C   0  0  0  0  0  0  0  0  0  0  0  0
   83.8940   87.8510  -42.1710 C   0  0  0  0  0  0  0  0  0  0  0  0
   83.8080   87.4650  -41.1550 H   0  0  0  0  0  0  0  0  0  0  0  0
   84.4390   87.1350  -42.7870 H   0  0  0  0  0  0  0  0  0  0  0  0
   82.8980   88.0040  -42.5870 H   0  0  0  0  0  0  0  0  0  0  0  0
   85.6910   91.5340  -40.0300 O   0  0  0  0  0  0  0  0  0  0  0  0
   86.0620   91.4000  -40.9060 H   0  0  0  0  0  0  0  0  0  0  0  0
   85.2210   92.4020  -37.0220 I   0  0  0  0  0  0  0  0  0  0  0  0
   85.3740   86.3240  -36.5770 I   0  0  0  0  0  0  0  0  0  0  0  0
  1  2  2  0  0  0  0
  1 11  1  0  0  0  0
  2  3  1  0  0  0  0
  3  9  2  0  0  0  0
  3 24  1  0  0  0  0
  4  1  1  0  0  0  0
  5  4  1  0  0  0  0
  6  4  1  0  0  0  0
  7  8  1  0  0  0  0
  7  4  1  0  0  0  0
  9 10  1  0  0  0  0
 11 17  2  0  0  0  0
 12 11  1  0  0  0  0
 13 14  1  0  0  0  0
 13  7  1  0  0  0  0
 15 13  1  0  0  0  0
 16 13  1  0  0  0  0
 17  9  1  0  0  0  0
 17 25  1  0  0  0  0
 18  7  1  0  0  0  0
 18 19  1  0  0  0  0
 20 18  1  0  0  0  0
 21 18  1  0  0  0  0
 22  2  1  0  0  0  0
 23 22  1  0  0  0  0
M  END
>  <Pose>
1

>  <Score>
-4.78

$$$$

 OpenBabel03112215113D

 25 25  0  0  0  0  0  0  0  0999 V2000
   91.6150   98.9230  -42.4510 C   0  0  0  0  0  0  0  0  0  0  0  0
   91.9530   97.7760  -41.7240 C   0  0  0  0  0  0  0  0  0  0  0  0
   91.6650   96.5080  -42.2240 C   0  0  0  0  0  0  0  0  0  0  0  0
   91.8950  100.3200  -41.9150 C   0  0  0  0  0  0  0  0  0  0  0  0
   91.7790  100.3010  -40.8320 H   0  0  0  0  0  0  0  0  0  0  0  0
   91.1660  101.0050  -42.3470 H   0  0  0  0  0  0  0  0  0  0  0  0
   93.2470  100.8200  -42.2290 N   0  0  0  0  0  4  0  0  0  0  0  0
   93.8200   99.9930  -42.3110 H   0  0  0  0  0  0  0  0  0  0  0  0
   91.0230   96.3510  -43.4610 C   0  0  0  0  0  0  0  0  0  0  0  0
   90.7990   95.3650  -43.8380 H   0  0  0  0  0  0  0  0  0  0  0  0
   90.9710   98.7600  -43.6960 C   0  0  0  0  0  0  0  0  0  0  0  0
   90.7010   99.6330  -44.2720 H   0  0  0  0  0  0  0  0  0  0  0  0
   93.3500  101.5040  -43.5340 C   0  0  0  0  0  0  0  0  0  0  0  0
   92.9350  100.8640  -44.3130 H   0  0  0  0  0  0  0  0  0  0  0  0
   94.3970  101.7120  -43.7540 H   0  0  0  0  0  0  0  0  0  0  0  0
   92.7930  102.4400  -43.4990 H   0  0  0  0  0  0  0  0  0  0  0  0
   90.6760   97.4850  -44.1980 C   0  0  0  0  0  0  0  0  0  0  0  0
   93.7950  101.6470  -41.1420 C   0  0  0  0  0  0  0  0  0  0  0  0
   93.7020  101.1110  -40.1970 H   0  0  0  0  0  0  0  0  0  0  0  0
   93.2420  102.5840  -41.0840 H   0  0  0  0  0  0  0  0  0  0  0  0
   94.8460  101.8560  -41.3390 H   0  0  0  0  0  0  0  0  0  0  0  0
   92.6030   97.9280  -40.5300 O   0  0  0  0  0  0  0  0  0  0  0  0
   92.0880   98.3470  -39.8380 H   0  0  0  0  0  0  0  0  0  0  0  0
   92.1820   94.8340  -41.0550 I   0  0  0  0  0  0  0  0  0  0  0  0
   89.7150   97.3140  -46.0480 I   0  0  0  0  0  0  0  0  0  0  0  0
  1  4  1  0  0  0  0
  1  2  1  0  0  0  0
  2 22  1  0  0  0  0
  3  2  2  0  0  0  0
  3 24  1  0  0  0  0
  4  5  1  0  0  0  0
  6  4  1  0  0  0  0
  7  4  1  0  0  0  0
  7 18  1  0  0  0  0
  8  7  1  0  0  0  0
  9  3  1  0  0  0  0
 10  9  1  0  0  0  0
 11  1  2  0  0  0  0
 12 11  1  0  0  0  0
 13 16  1  0  0  0  0
 13  7  1  0  0  0  0
 14 13  1  0  0  0  0
 15 13  1  0  0  0  0
 17 11  1  0  0  0  0
 17  9  2  0  0  0  0
 18 20  1  0  0  0  0
 18 19  1  0  0  0  0
 21 18  1  0  0  0  0
 22 23  1  0  0  0  0
 25 17  1  0  0  0  0
M  END
>  <Pose>
1

>  <Score>
-4.76

$$$$

 OpenBabel03112215113D

 25 25  0  0  0  0  0  0  0  0999 V2000
   91.8270   94.4970  -42.8740 C   0  0  0  0  0  0  0  0  0  0  0  0
   91.8240   93.3710  -43.7050 C   0  0  0  0  0  0  0  0  0  0  0  0
   91.6040   93.5000  -45.0740 C   0  0  0  0  0  0  0  0  0  0  0  0
   92.0390   94.3790  -41.3720 C   0  0  0  0  0  0  0  0  0  0  0  0
   91.2730   93.7180  -40.9670 H   0  0  0  0  0  0  0  0  0  0  0  0
   91.9330   95.3700  -40.9310 H   0  0  0  0  0  0  0  0  0  0  0  0
   93.3610   93.8430  -40.9950 N   0  0  0  0  0  4  0  0  0  0  0  0
   93.3440   93.7890  -39.9870 H   0  0  0  0  0  0  0  0  0  0  0  0
   91.3700   94.7580  -45.6500 C   0  0  0  0  0  0  0  0  0  0  0  0
   91.1950   94.8490  -46.7120 H   0  0  0  0  0  0  0  0  0  0  0  0
   91.5930   95.7600  -43.4570 C   0  0  0  0  0  0  0  0  0  0  0  0
   91.5900   96.6410  -42.8320 H   0  0  0  0  0  0  0  0  0  0  0  0
   93.6080   92.4630  -41.4600 C   0  0  0  0  0  0  0  0  0  0  0  0
   92.7800   91.8230  -41.1550 H   0  0  0  0  0  0  0  0  0  0  0  0
   94.5350   92.0920  -41.0220 H   0  0  0  0  0  0  0  0  0  0  0  0
   93.6910   92.4550  -42.5470 H   0  0  0  0  0  0  0  0  0  0  0  0
   91.3660   95.8910  -44.8340 C   0  0  0  0  0  0  0  0  0  0  0  0
   94.4540   94.7480  -41.3840 C   0  0  0  0  0  0  0  0  0  0  0  0
   94.2380   95.7540  -41.0240 H   0  0  0  0  0  0  0  0  0  0  0  0
   94.5460   94.7620  -42.4700 H   0  0  0  0  0  0  0  0  0  0  0  0
   95.3890   94.3980  -40.9450 H   0  0  0  0  0  0  0  0  0  0  0  0
   92.0790   92.1470  -43.1490 O   0  0  0  0  0  0  0  0  0  0  0  0
   91.3420   91.5320  -43.1700 H   0  0  0  0  0  0  0  0  0  0  0  0
   91.5880   91.7540  -46.2530 I   0  0  0  0  0  0  0  0  0  0  0  0
   91.0220   97.7930  -45.6350 I   0  0  0  0  0  0  0  0  0  0  0  0
  1  4  1  0  0  0  0
  2 22  1  0  0  0  0
  2  1  2  0  0  0  0
  3  2  1  0  0  0  0
  4  7  1  0  0  0  0
  4  5  1  0  0  0  0
  4  6  1  0  0  0  0
  7  8  1  0  0  0  0
  9  3  2  0  0  0  0
  9 17  1  0  0  0  0
 10  9  1  0  0  0  0
 11  1  1  0  0  0  0
 11 12  1  0  0  0  0
 13 14  1  0  0  0  0
 13 15  1  0  0  0  0
 13  7  1  0  0  0  0
 16 13  1  0  0  0  0
 17 11  2  0  0  0  0
 18 19  1  0  0  0  0
 18  7  1  0  0  0  0
 18 21  1  0  0  0  0
 20 18  1  0  0  0  0
 23 22  1  0  0  0  0
 24  3  1  0  0  0  0
 25 17  1  0  0  0  0
M  END
>  <Pose>
1

>  <Score>
-4.67

$$$$

 OpenBabel03112215113D

 25 25  0  0  0  0  0  0  0  0999 V2000
   91.8480   96.4100  -41.9410 C   0  0  0  0  0  0  0  0  0  0  0  0
   92.2530   97.6380  -41.4050 C   0  0  0  0  0  0  0  0  0  0  0  0
   92.0670   98.8200  -42.1170 C   0  0  0  0  0  0  0  0  0  0  0  0
   92.0630   95.1020  -41.1940 C   0  0  0  0  0  0  0  0  0  0  0  0
   91.0980   94.7530  -40.8280 H   0  0  0  0  0  0  0  0  0  0  0  0
   92.7240   95.2950  -40.3490 H   0  0  0  0  0  0  0  0  0  0  0  0
   92.6620   94.0340  -42.0180 N   0  0  0  0  0  4  0  0  0  0  0  0
   93.1370   94.5170  -42.7670 H   0  0  0  0  0  0  0  0  0  0  0  0
   91.4790   98.8070  -43.3900 C   0  0  0  0  0  0  0  0  0  0  0  0
   91.3420   99.7280  -43.9380 H   0  0  0  0  0  0  0  0  0  0  0  0
   91.2540   96.4030  -43.2210 C   0  0  0  0  0  0  0  0  0  0  0  0
   90.9360   95.4650  -43.6540 H   0  0  0  0  0  0  0  0  0  0  0  0
   93.7060   93.2520  -41.3270 C   0  0  0  0  0  0  0  0  0  0  0  0
   94.4440   93.9300  -40.8970 H   0  0  0  0  0  0  0  0  0  0  0  0
   94.1950   92.5880  -42.0400 H   0  0  0  0  0  0  0  0  0  0  0  0
   93.2510   92.6600  -40.5330 H   0  0  0  0  0  0  0  0  0  0  0  0
   91.0710   97.5910  -43.9420 C   0  0  0  0  0  0  0  0  0  0  0  0
   91.6400   93.1610  -42.6160 C   0  0  0  0  0  0  0  0  0  0  0  0
   90.8880   93.7720  -43.1160 H   0  0  0  0  0  0  0  0  0  0  0  0
   91.1650   92.5680  -41.8340 H   0  0  0  0  0  0  0  0  0  0  0  0
   92.1090   92.4970  -43.3420 H   0  0  0  0  0  0  0  0  0  0  0  0
   92.8020   97.6540  -40.1520 O   0  0  0  0  0  0  0  0  0  0  0  0
   92.1750   97.7800  -39.4360 H   0  0  0  0  0  0  0  0  0  0  0  0
   92.7290  100.6220  -41.2510 I   0  0  0  0  0  0  0  0  0  0  0  0
   90.1890   97.5100  -45.8370 I   0  0  0  0  0  0  0  0  0  0  0  0
  1  2  1  0  0  0  0
  1  4  1  0  0  0  0
  2 22  1  0  0  0  0
  3  2  2  0  0  0  0
  3 24  1  0  0  0  0
  4  5  1  0  0  0  0
  4  6  1  0  0  0  0
  7 13  1  0  0  0  0
  7  4  1  0  0  0  0
  8  7  1  0  0  0  0
  9  3  1  0  0  0  0
 10  9  1  0  0  0  0
 11  1  2  0  0  0  0
 12 11  1  0  0  0  0
 13 14  1  0  0  0  0
 13 16  1  0  0  0  0
 15 13  1  0  0  0  0
 17  9  2  0  0  0  0
 17 11  1  0  0  0  0
 18  7  1  0  0  0  0
 18 20  1  0  0  0  0
 19 18  1  0  0  0  0
 21 18  1  0  0  0  0
 22 23  1  0  0  0  0
 25 17  1  0  0  0  0
M  END
>  <Pose>
1

>  <Score>
-4.57

$$$$

 OpenBabel03112215113D

 25 25  0  0  0  0  0  0  0  0999 V2000
   91.1950   95.0300  -44.9080 C   0  0  0  0  0  0  0  0  0  0  0  0
   91.0720   94.0910  -45.9400 C   0  0  0  0  0  0  0  0  0  0  0  0
   91.6460   92.8280  -45.8230 C   0  0  0  0  0  0  0  0  0  0  0  0
   90.5990   96.4250  -45.0230 C   0  0  0  0  0  0  0  0  0  0  0  0
   90.6590   96.9050  -44.0460 H   0  0  0  0  0  0  0  0  0  0  0  0
   89.5540   96.3280  -45.3170 H   0  0  0  0  0  0  0  0  0  0  0  0
   91.2800   97.2880  -46.0070 N   0  0  0  0  0  4  0  0  0  0  0  0
   91.2790   96.7560  -46.8660 H   0  0  0  0  0  0  0  0  0  0  0  0
   92.3680   92.4700  -44.6750 C   0  0  0  0  0  0  0  0  0  0  0  0
   92.8150   91.4900  -44.5940 H   0  0  0  0  0  0  0  0  0  0  0  0
   91.9200   94.6640  -43.7540 C   0  0  0  0  0  0  0  0  0  0  0  0
   92.0270   95.3740  -42.9480 H   0  0  0  0  0  0  0  0  0  0  0  0
   90.5590   98.5390  -46.3140 C   0  0  0  0  0  0  0  0  0  0  0  0
   89.5290   98.3080  -46.5840 H   0  0  0  0  0  0  0  0  0  0  0  0
   91.0480   99.0450  -47.1470 H   0  0  0  0  0  0  0  0  0  0  0  0
   90.5690   99.1880  -45.4390 H   0  0  0  0  0  0  0  0  0  0  0  0
   92.5040   93.3950  -43.6370 C   0  0  0  0  0  0  0  0  0  0  0  0
   92.6800   97.5470  -45.6360 C   0  0  0  0  0  0  0  0  0  0  0  0
   93.1790   96.6030  -45.4170 H   0  0  0  0  0  0  0  0  0  0  0  0
   92.7100   98.1870  -44.7540 H   0  0  0  0  0  0  0  0  0  0  0  0
   93.1890   98.0440  -46.4620 H   0  0  0  0  0  0  0  0  0  0  0  0
   90.3460   94.4310  -47.0480 O   0  0  0  0  0  0  0  0  0  0  0  0
   90.5950   95.2630  -47.4570 H   0  0  0  0  0  0  0  0  0  0  0  0
   91.4390   91.4840  -47.4310 I   0  0  0  0  0  0  0  0  0  0  0  0
   93.5700   92.9170  -41.9020 I   0  0  0  0  0  0  0  0  0  0  0  0
  1 11  1  0  0  0  0
  2  3  1  0  0  0  0
  2  1  2  0  0  0  0
  3  9  2  0  0  0  0
  4  1  1  0  0  0  0
  4  5  1  0  0  0  0
  6  4  1  0  0  0  0
  7 18  1  0  0  0  0
  7  4  1  0  0  0  0
  8  7  1  0  0  0  0
  9 10  1  0  0  0  0
  9 17  1  0  0  0  0
 11 17  2  0  0  0  0
 11 12  1  0  0  0  0
 13  7  1  0  0  0  0
 13 16  1  0  0  0  0
 14 13  1  0  0  0  0
 15 13  1  0  0  0  0
 17 25  1  0  0  0  0
 18 19  1  0  0  0  0
 18 20  1  0  0  0  0
 21 18  1  0  0  0  0
 22  2  1  0  0  0  0
 23 22  1  0  0  0  0
 24  3  1  0  0  0  0
M  END
>  <Pose>
1

>  <Score>
-4.56

$$$$

 OpenBabel03112215113D

 25 25  0  0  0  0  0  0  0  0999 V2000
   91.8550   94.3240  -42.8490 C   0  0  0  0  0  0  0  0  0  0  0  0
   91.7220   95.5870  -43.4370 C   0  0  0  0  0  0  0  0  0  0  0  0
   91.5770   95.7160  -44.8160 C   0  0  0  0  0  0  0  0  0  0  0  0
   92.0410   94.1580  -41.3480 C   0  0  0  0  0  0  0  0  0  0  0  0
   91.3500   93.3910  -40.9990 H   0  0  0  0  0  0  0  0  0  0  0  0
   91.8040   95.1070  -40.8660 H   0  0  0  0  0  0  0  0  0  0  0  0
   93.4070   93.7660  -40.9540 N   0  0  0  0  0  4  0  0  0  0  0  0
   93.3520   93.5850  -39.9620 H   0  0  0  0  0  0  0  0  0  0  0  0
   91.5700   94.5870  -45.6480 C   0  0  0  0  0  0  0  0  0  0  0  0
   91.4620   94.6960  -46.7170 H   0  0  0  0  0  0  0  0  0  0  0  0
   91.8450   93.1910  -43.6890 C   0  0  0  0  0  0  0  0  0  0  0  0
   91.9470   92.2070  -43.2550 H   0  0  0  0  0  0  0  0  0  0  0  0
   93.8720   92.5020  -41.5610 C   0  0  0  0  0  0  0  0  0  0  0  0
   93.1310   91.7220  -41.3860 H   0  0  0  0  0  0  0  0  0  0  0  0
   94.8210   92.2110  -41.1120 H   0  0  0  0  0  0  0  0  0  0  0  0
   94.0050   92.6420  -42.6340 H   0  0  0  0  0  0  0  0  0  0  0  0
   91.7050   93.3190  -45.0780 C   0  0  0  0  0  0  0  0  0  0  0  0
   94.3750   94.8540  -41.1640 C   0  0  0  0  0  0  0  0  0  0  0  0
   94.0000   95.7680  -40.7040 H   0  0  0  0  0  0  0  0  0  0  0  0
   94.5140   95.0160  -42.2330 H   0  0  0  0  0  0  0  0  0  0  0  0
   95.3290   94.5850  -40.7110 H   0  0  0  0  0  0  0  0  0  0  0  0
   91.7020   96.6870  -42.6250 O   0  0  0  0  0  0  0  0  0  0  0  0
   92.4720   97.2570  -42.6950 H   0  0  0  0  0  0  0  0  0  0  0  0
   91.4110   97.6540  -45.6260 I   0  0  0  0  0  0  0  0  0  0  0  0
   91.7020   91.5980  -46.2670 I   0  0  0  0  0  0  0  0  0  0  0  0
  1  4  1  0  0  0  0
  2  1  1  0  0  0  0
  2 22  1  0  0  0  0
  3  2  2  0  0  0  0
  4  5  1  0  0  0  0
  4  7  1  0  0  0  0
  4  6  1  0  0  0  0
  7  8  1  0  0  0  0
  9 17  2  0  0  0  0
  9  3  1  0  0  0  0
 10  9  1  0  0  0  0
 11 12  1  0  0  0  0
 11  1  2  0  0  0  0
 13 14  1  0  0  0  0
 13 15  1  0  0  0  0
 13  7  1  0  0  0  0
 16 13  1  0  0  0  0
 17 11  1  0  0  0  0
 18  7  1  0  0  0  0
 18 21  1  0  0  0  0
 18 19  1  0  0  0  0
 20 18  1  0  0  0  0
 23 22  1  0  0  0  0
 24  3  1  0  0  0  0
 25 17  1  0  0  0  0
M  END
>  <Pose>
1

>  <Score>
-4.56

$$$$

 OpenBabel03112215113D

 25 25  0  0  0  0  0  0  0  0999 V2000
   91.8440   98.8360  -42.8040 C   0  0  0  0  0  0  0  0  0  0  0  0
   92.1140   97.7190  -42.0040 C   0  0  0  0  0  0  0  0  0  0  0  0
   91.7200   96.4460  -42.4070 C   0  0  0  0  0  0  0  0  0  0  0  0
   92.2400  100.2410  -42.3740 C   0  0  0  0  0  0  0  0  0  0  0  0
   91.7340  100.9550  -43.0240 H   0  0  0  0  0  0  0  0  0  0  0  0
   93.3190  100.3440  -42.4920 H   0  0  0  0  0  0  0  0  0  0  0  0
   91.8930  100.5580  -40.9750 N   0  0  0  0  0  4  0  0  0  0  0  0
   91.5530   99.6900  -40.5860 H   0  0  0  0  0  0  0  0  0  0  0  0
   91.0370   96.2530  -43.6170 C   0  0  0  0  0  0  0  0  0  0  0  0
   90.7320   95.2620  -43.9200 H   0  0  0  0  0  0  0  0  0  0  0  0
   91.1580   98.6370  -44.0210 C   0  0  0  0  0  0  0  0  0  0  0  0
   90.9400   99.4860  -44.6520 H   0  0  0  0  0  0  0  0  0  0  0  0
   93.0480  100.9410  -40.1390 C   0  0  0  0  0  0  0  0  0  0  0  0
   93.8280  100.1850  -40.2280 H   0  0  0  0  0  0  0  0  0  0  0  0
   92.7330  101.0170  -39.0980 H   0  0  0  0  0  0  0  0  0  0  0  0
   93.4350  101.9040  -40.4720 H   0  0  0  0  0  0  0  0  0  0  0  0
   90.7570   97.3560  -44.4260 C   0  0  0  0  0  0  0  0  0  0  0  0
   90.8090  101.5500  -40.8880 C   0  0  0  0  0  0  0  0  0  0  0  0
   89.9770  101.2350  -41.5160 H   0  0  0  0  0  0  0  0  0  0  0  0
   91.1750  102.5190  -41.2280 H   0  0  0  0  0  0  0  0  0  0  0  0
   90.4740  101.6310  -39.8540 H   0  0  0  0  0  0  0  0  0  0  0  0
   92.8030   97.9030  -40.8370 O   0  0  0  0  0  0  0  0  0  0  0  0
   93.6460   98.3530  -40.9300 H   0  0  0  0  0  0  0  0  0  0  0  0
   92.1400   94.8210  -41.1340 I   0  0  0  0  0  0  0  0  0  0  0  0
   89.7410   97.1310  -46.2400 I   0  0  0  0  0  0  0  0  0  0  0  0
  1  4  1  0  0  0  0
  1  2  1  0  0  0  0
  2 22  1  0  0  0  0
  3  2  2  0  0  0  0
  3 24  1  0  0  0  0
  4  7  1  0  0  0  0
  5  4  1  0  0  0  0
  6  4  1  0  0  0  0
  7 18  1  0  0  0  0
  7  8  1  0  0  0  0
  7 13  1  0  0  0  0
  9  3  1  0  0  0  0
 10  9  1  0  0  0  0
 11  1  2  0  0  0  0
 12 11  1  0  0  0  0
 13 15  1  0  0  0  0
 14 13  1  0  0  0  0
 16 13  1  0  0  0  0
 17 11  1  0  0  0  0
 17  9  2  0  0  0  0
 18 21  1  0  0  0  0
 19 18  1  0  0  0  0
 20 18  1  0  0  0  0
 23 22  1  0  0  0  0
 25 17  1  0  0  0  0
M  END
>  <Pose>
1

>  <Score>
-4.48

$$$$

 OpenBabel03112215113D

 25 25  0  0  0  0  0  0  0  0999 V2000
   91.8280   94.3730  -42.7830 C   0  0  0  0  0  0  0  0  0  0  0  0
   91.7700   93.3030  -43.6840 C   0  0  0  0  0  0  0  0  0  0  0  0
   91.6700   93.5340  -45.0540 C   0  0  0  0  0  0  0  0  0  0  0  0
   91.9110   94.1470  -41.2810 C   0  0  0  0  0  0  0  0  0  0  0  0
   92.6900   93.4100  -41.0870 H   0  0  0  0  0  0  0  0  0  0  0  0
   90.9510   93.7590  -40.9380 H   0  0  0  0  0  0  0  0  0  0  0  0
   92.2220   95.3650  -40.5090 N   0  0  0  0  0  4  0  0  0  0  0  0
   93.1850   95.2570  -40.2260 H   0  0  0  0  0  0  0  0  0  0  0  0
   91.6170   94.8400  -45.5620 C   0  0  0  0  0  0  0  0  0  0  0  0
   91.5350   95.0100  -46.6250 H   0  0  0  0  0  0  0  0  0  0  0  0
   91.7770   95.6850  -43.2980 C   0  0  0  0  0  0  0  0  0  0  0  0
   91.8200   96.5240  -42.6190 H   0  0  0  0  0  0  0  0  0  0  0  0
   92.1790   96.6100  -41.3020 C   0  0  0  0  0  0  0  0  0  0  0  0
   92.7970   96.4940  -42.1930 H   0  0  0  0  0  0  0  0  0  0  0  0
   92.5590   97.4370  -40.7020 H   0  0  0  0  0  0  0  0  0  0  0  0
   91.1510   96.8170  -41.5980 H   0  0  0  0  0  0  0  0  0  0  0  0
   91.6710   95.9190  -44.6770 C   0  0  0  0  0  0  0  0  0  0  0  0
   91.4010   95.4710  -39.2920 C   0  0  0  0  0  0  0  0  0  0  0  0
   91.4560   94.5370  -38.7340 H   0  0  0  0  0  0  0  0  0  0  0  0
   90.3650   95.6680  -39.5690 H   0  0  0  0  0  0  0  0  0  0  0  0
   91.7730   96.2880  -38.6730 H   0  0  0  0  0  0  0  0  0  0  0  0
   91.8480   92.0290  -43.1920 O   0  0  0  0  0  0  0  0  0  0  0  0
   91.0340   91.6900  -42.8130 H   0  0  0  0  0  0  0  0  0  0  0  0
   91.5590   91.8700  -46.3410 I   0  0  0  0  0  0  0  0  0  0  0  0
   91.5950   97.8890  -45.3750 I   0  0  0  0  0  0  0  0  0  0  0  0
  1  4  1  0  0  0  0
  2 22  1  0  0  0  0
  2  1  2  0  0  0  0
  3  2  1  0  0  0  0
  4  5  1  0  0  0  0
  4  6  1  0  0  0  0
  4  7  1  0  0  0  0
  7  8  1  0  0  0  0
  7 18  1  0  0  0  0
  9  3  2  0  0  0  0
  9 17  1  0  0  0  0
 10  9  1  0  0  0  0
 11  1  1  0  0  0  0
 11 12  1  0  0  0  0
 13 15  1  0  0  0  0
 13  7  1  0  0  0  0
 14 13  1  0  0  0  0
 16 13  1  0  0  0  0
 17 11  2  0  0  0  0
 18 19  1  0  0  0  0
 18 21  1  0  0  0  0
 20 18  1  0  0  0  0
 22 23  1  0  0  0  0
 24  3  1  0  0  0  0
 25 17  1  0  0  0  0
M  END
>  <Pose>
1

>  <Score>
-4.00

$$$$

 OpenBabel03112215113D

 25 25  0  0  0  0  0  0  0  0999 V2000
   91.7960   98.7710  -42.0400 C   0  0  0  0  0  0  0  0  0  0  0  0
   92.0390   97.5040  -41.4970 C   0  0  0  0  0  0  0  0  0  0  0  0
   91.7460   96.3520  -42.2230 C   0  0  0  0  0  0  0  0  0  0  0  0
   92.0830  100.0440  -41.2570 C   0  0  0  0  0  0  0  0  0  0  0  0
   93.0530   99.9360  -40.7710 H   0  0  0  0  0  0  0  0  0  0  0  0
   91.3080  100.1620  -40.5000 H   0  0  0  0  0  0  0  0  0  0  0  0
   92.1120  101.2630  -42.0880 N   0  0  0  0  0  4  0  0  0  0  0  0
   91.5270  101.0510  -42.8830 H   0  0  0  0  0  0  0  0  0  0  0  0
   91.1940   96.4340  -43.5100 C   0  0  0  0  0  0  0  0  0  0  0  0
   90.9650   95.5350  -44.0640 H   0  0  0  0  0  0  0  0  0  0  0  0
   91.2420   98.8480  -43.3360 C   0  0  0  0  0  0  0  0  0  0  0  0
   91.0460   99.8160  -43.7730 H   0  0  0  0  0  0  0  0  0  0  0  0
   91.4980  102.4440  -41.4480 C   0  0  0  0  0  0  0  0  0  0  0  0
   90.4990  102.1870  -41.0940 H   0  0  0  0  0  0  0  0  0  0  0  0
   91.4280  103.2550  -42.1730 H   0  0  0  0  0  0  0  0  0  0  0  0
   92.1120  102.7610  -40.6050 H   0  0  0  0  0  0  0  0  0  0  0  0
   90.9420   97.6890  -44.0660 C   0  0  0  0  0  0  0  0  0  0  0  0
   93.4650  101.5600  -42.5840 C   0  0  0  0  0  0  0  0  0  0  0  0
   93.8850  100.6670  -43.0490 H   0  0  0  0  0  0  0  0  0  0  0  0
   94.0980  101.8690  -41.7530 H   0  0  0  0  0  0  0  0  0  0  0  0
   93.4140  102.3620  -43.3200 H   0  0  0  0  0  0  0  0  0  0  0  0
   92.6020   97.4240  -40.2530 O   0  0  0  0  0  0  0  0  0  0  0  0
   91.9910   97.5420  -39.5230 H   0  0  0  0  0  0  0  0  0  0  0  0
   92.1160   94.4840  -41.3230 I   0  0  0  0  0  0  0  0  0  0  0  0
   90.1190   97.8740  -45.9800 I   0  0  0  0  0  0  0  0  0  0  0  0
  1  2  1  0  0  0  0
  1  4  1  0  0  0  0
  2 22  1  0  0  0  0
  3  2  2  0  0  0  0
  3 24  1  0  0  0  0
  4  5  1  0  0  0  0
  4  6  1  0  0  0  0
  7 13  1  0  0  0  0
  7  4  1  0  0  0  0
  8  7  1  0  0  0  0
  9  3  1  0  0  0  0
 10  9  1  0  0  0  0
 11  1  2  0  0  0  0
 12 11  1  0  0  0  0
 13 14  1  0  0  0  0
 13 16  1  0  0  0  0
 15 13  1  0  0  0  0
 17  9  2  0  0  0  0
 17 11  1  0  0  0  0
 18  7  1  0  0  0  0
 18 20  1  0  0  0  0
 19 18  1  0  0  0  0
 21 18  1  0  0  0  0
 22 23  1  0  0  0  0
 25 17  1  0  0  0  0
M  END
>  <Pose>
1

>  <Score>
-3.93

$$$$

 OpenBabel03112215113D

 25 25  0  0  0  0  0  0  0  0999 V2000
   91.9870   96.2260  -41.6410 C   0  0  0  0  0  0  0  0  0  0  0  0
   91.5860   96.3380  -42.9780 C   0  0  0  0  0  0  0  0  0  0  0  0
   91.5230   97.5830  -43.5990 C   0  0  0  0  0  0  0  0  0  0  0  0
   92.0380   94.8810  -40.9330 C   0  0  0  0  0  0  0  0  0  0  0  0
   91.3240   94.2120  -41.4140 H   0  0  0  0  0  0  0  0  0  0  0  0
   91.7510   95.0300  -39.8920 H   0  0  0  0  0  0  0  0  0  0  0  0
   93.3670   94.2400  -40.9610 N   0  0  0  0  0  4  0  0  0  0  0  0
   93.5610   93.9980  -40.0000 H   0  0  0  0  0  0  0  0  0  0  0  0
   91.8520   98.7530  -42.8990 C   0  0  0  0  0  0  0  0  0  0  0  0
   91.7970   99.7150  -43.3870 H   0  0  0  0  0  0  0  0  0  0  0  0
   92.3190   97.4060  -40.9420 C   0  0  0  0  0  0  0  0  0  0  0  0
   92.6300   97.3410  -39.9100 H   0  0  0  0  0  0  0  0  0  0  0  0
   93.4070   92.9650  -41.7050 C   0  0  0  0  0  0  0  0  0  0  0  0
   92.6180   92.3070  -41.3410 H   0  0  0  0  0  0  0  0  0  0  0  0
   94.3750   92.4880  -41.5570 H   0  0  0  0  0  0  0  0  0  0  0  0
   93.2560   93.1600  -42.7670 H   0  0  0  0  0  0  0  0  0  0  0  0
   92.2520   98.6600  -41.5640 C   0  0  0  0  0  0  0  0  0  0  0  0
   94.4150   95.1660  -41.4170 C   0  0  0  0  0  0  0  0  0  0  0  0
   94.3550   96.0930  -40.8470 H   0  0  0  0  0  0  0  0  0  0  0  0
   94.2740   95.3810  -42.4760 H   0  0  0  0  0  0  0  0  0  0  0  0
   95.3940   94.7100  -41.2660 H   0  0  0  0  0  0  0  0  0  0  0  0
   91.2900   95.1950  -43.6680 O   0  0  0  0  0  0  0  0  0  0  0  0
   92.0190   94.5760  -43.7590 H   0  0  0  0  0  0  0  0  0  0  0  0
   90.8830   97.6680  -45.6040 I   0  0  0  0  0  0  0  0  0  0  0  0
   92.7530  100.3710  -40.4690 I   0  0  0  0  0  0  0  0  0  0  0  0
  1 11  1  0  0  0  0
  1  4  1  0  0  0  0
  2  1  2  0  0  0  0
  3  2  1  0  0  0  0
  3  9  2  0  0  0  0
  4  6  1  0  0  0  0
  5  4  1  0  0  0  0
  7  4  1  0  0  0  0
  7  8  1  0  0  0  0
  9 17  1  0  0  0  0
 10  9  1  0  0  0  0
 11 12  1  0  0  0  0
 13 15  1  0  0  0  0
 13 14  1  0  0  0  0
 13  7  1  0  0  0  0
 16 13  1  0  0  0  0
 17 11  2  0  0  0  0
 17 25  1  0  0  0  0
 18 21  1  0  0  0  0
 18  7  1  0  0  0  0
 18 19  1  0  0  0  0
 20 18  1  0  0  0  0
 22  2  1  0  0  0  0
 23 22  1  0  0  0  0
 24  3  1  0  0  0  0
M  END
>  <Pose>
1

>  <Score>
-3.69

$$$$
