# created with PyMOL 2.5.2
@<TRIPOS>MOLECULE
predictions
25 25 1                 
SMALL
USER_CHARGES
@<TRIPOS>ATOM
1	   C	92.107	99.010	-41.915	C.2	1	UNK0	0.000	
2	   C	92.194	97.707	-41.413	C.2	1	UNK0	0.000	
3	   C	91.749	96.624	-42.167	C.2	1	UNK0	0.000	
4	   C	92.564	100.212	-41.101	C.3	1	UNK0	0.000	
5	   H	92.998	99.850	-40.169	 H	1	UNK0	0.000	
6	   H	91.692	100.828	-40.880	 H	1	UNK0	0.000	
7	   N	93.565	101.053	-41.785	N.3	1	UNK0	0.000	
8	   H	94.205	100.400	-42.215	 H	1	UNK0	0.000	
9	   C	91.194	96.814	-43.441	C.2	1	UNK0	0.000	
10	   H	90.847	95.970	-44.017	 H	1	UNK0	0.000	
11	   C	91.552	99.197	-43.199	C.2	1	UNK0	0.000	
12	   H	91.475	100.195	-43.604	 H	1	UNK0	0.000	
13	   C	93.019	101.861	-42.894	C.3	1	UNK0	0.000	
14	   H	92.461	101.216	-43.573	 H	1	UNK0	0.000	
15	   H	93.838	102.336	-43.434	 H	1	UNK0	0.000	
16	   H	92.356	102.627	-42.493	 H	1	UNK0	0.000	
17	   C	91.097	98.108	-43.956	C.2	1	UNK0	0.000	
18	   C	94.329	101.880	-40.838	C.3	1	UNK0	0.000	
19	   H	94.715	101.252	-40.036	 H	1	UNK0	0.000	
20	   H	93.678	102.647	-40.418	 H	1	UNK0	0.000	
21	   H	95.160	102.356	-41.359	 H	1	UNK0	0.000	
22	   O	92.759	97.518	-40.181	O.3	1	UNK0	0.000	
23	   H	92.169	97.665	-39.438	 H	1	UNK0	0.000	
24	   I	91.889	94.697	-41.327	 I	1	UNK0	0.000	
25	   I	90.280	98.454	-45.851	 I	1	UNK0	0.000	
@<TRIPOS>BOND
1 1 2 1
2 1 4 1
3 2 22 1
4 2 3 2
5 3 24 1
6 4 6 1
7 4 5 1
8 4 7 1
9 7 18 1
10 7 8 1
11 3 9 1
12 9 10 1
13 1 11 2
14 11 12 1
15 13 16 1
16 7 13 1
17 13 14 1
18 13 15 1
19 9 17 2
20 11 17 1
21 18 20 1
22 18 19 1
23 18 21 1
24 22 23 1
25 17 25 1
@<TRIPOS>SUBSTRUCTURE
1	UNK0	1	GROUP	1 ****	UNK
