
 OpenBabel03102210493D

 25 25  0  0  0  0  0  0  0  0999 V2000
   92.3660   99.0100  -41.6950 C   0  0  0  0  0  0  0  0  0  0  0  0
   92.3210   97.6930  -41.2210 C   0  0  0  0  0  0  0  0  0  0  0  0
   91.9060   96.6540  -42.0510 C   0  0  0  0  0  0  0  0  0  0  0  0
   92.7910  100.1650  -40.8010 C   0  0  0  0  0  0  0  0  0  0  0  0
   93.2600   99.7530  -39.9070 H   0  0  0  0  0  0  0  0  0  0  0  0
   91.9000  100.7250  -40.5170 H   0  0  0  0  0  0  0  0  0  0  0  0
   93.7410  101.0960  -41.4380 N   0  0  0  0  0  4  0  0  0  0  0  0
   94.3940  100.5050  -41.9340 H   0  0  0  0  0  0  0  0  0  0  0  0
   91.5150   96.9030  -43.3750 C   0  0  0  0  0  0  0  0  0  0  0  0
   91.1900   96.0920  -44.0100 H   0  0  0  0  0  0  0  0  0  0  0  0
   91.9750   99.2550  -43.0280 C   0  0  0  0  0  0  0  0  0  0  0  0
   92.0010  100.2640  -43.4120 H   0  0  0  0  0  0  0  0  0  0  0  0
   93.1370  101.9670  -42.4660 C   0  0  0  0  0  0  0  0  0  0  0  0
   92.5860  101.3560  -43.1810 H   0  0  0  0  0  0  0  0  0  0  0  0
   93.9220  102.5150  -42.9860 H   0  0  0  0  0  0  0  0  0  0  0  0
   92.4550  102.6720  -41.9900 H   0  0  0  0  0  0  0  0  0  0  0  0
   91.5510   98.2110  -43.8630 C   0  0  0  0  0  0  0  0  0  0  0  0
   94.4980  101.8760  -40.4460 C   0  0  0  0  0  0  0  0  0  0  0  0
   94.9290  101.2020  -39.7050 H   0  0  0  0  0  0  0  0  0  0  0  0
   93.8290  102.5800  -39.9510 H   0  0  0  0  0  0  0  0  0  0  0  0
   95.2960  102.4240  -40.9460 H   0  0  0  0  0  0  0  0  0  0  0  0
   92.7260   97.4460  -39.9390 O   0  0  0  0  0  0  0  0  0  0  0  0
   92.1740   97.8350  -39.2570 H   0  0  0  0  0  0  0  0  0  0  0  0
   91.8390   94.7060  -41.2540 I   0  0  0  0  0  0  0  0  0  0  0  0
   90.9800   98.6430  -45.8280 I   0  0  0  0  0  0  0  0  0  0  0  0
  1  2  1  0  0  0  0
  1  4  1  0  0  0  0
  2 22  1  0  0  0  0
  3 24  1  0  0  0  0
  3  2  2  0  0  0  0
  4  6  1  0  0  0  0
  4  5  1  0  0  0  0
  7  4  1  0  0  0  0
  7 18  1  0  0  0  0
  8  7  1  0  0  0  0
  9  3  1  0  0  0  0
 10  9  1  0  0  0  0
 11  1  2  0  0  0  0
 12 11  1  0  0  0  0
 13 16  1  0  0  0  0
 13  7  1  0  0  0  0
 14 13  1  0  0  0  0
 15 13  1  0  0  0  0
 17  9  2  0  0  0  0
 17 11  1  0  0  0  0
 18 20  1  0  0  0  0
 18 19  1  0  0  0  0
 21 18  1  0  0  0  0
 22 23  1  0  0  0  0
 25 17  1  0  0  0  0
M  END
>  <Pose>
3

>  <Score>
-5.00

$$$$

 OpenBabel03102210493D

 25 25  0  0  0  0  0  0  0  0999 V2000
   91.4410   98.5820  -42.3770 C   0  0  0  0  0  0  0  0  0  0  0  0
   91.7410   97.2880  -41.9340 C   0  0  0  0  0  0  0  0  0  0  0  0
   91.5340   96.1880  -42.7630 C   0  0  0  0  0  0  0  0  0  0  0  0
   91.6330   99.7970  -41.4820 C   0  0  0  0  0  0  0  0  0  0  0  0
   91.5200   99.4810  -40.4450 H   0  0  0  0  0  0  0  0  0  0  0  0
   90.8620  100.5280  -41.7250 H   0  0  0  0  0  0  0  0  0  0  0  0
   92.9510  100.4450  -41.6290 N   0  0  0  0  0  4  0  0  0  0  0  0
   93.6110   99.6840  -41.6910 H   0  0  0  0  0  0  0  0  0  0  0  0
   91.0120   96.3490  -44.0540 C   0  0  0  0  0  0  0  0  0  0  0  0
   90.8510   95.4900  -44.6890 H   0  0  0  0  0  0  0  0  0  0  0  0
   90.9180   98.7390  -43.6780 C   0  0  0  0  0  0  0  0  0  0  0  0
   90.6790   99.7290  -44.0380 H   0  0  0  0  0  0  0  0  0  0  0  0
   93.1100  101.2110  -42.8810 C   0  0  0  0  0  0  0  0  0  0  0  0
   92.8430  100.5810  -43.7290 H   0  0  0  0  0  0  0  0  0  0  0  0
   94.1470  101.5330  -42.9800 H   0  0  0  0  0  0  0  0  0  0  0  0
   92.4590  102.0850  -42.8570 H   0  0  0  0  0  0  0  0  0  0  0  0
   90.7040   97.6320  -44.5110 C   0  0  0  0  0  0  0  0  0  0  0  0
   93.3010  101.2550  -40.4510 C   0  0  0  0  0  0  0  0  0  0  0  0
   93.1710  100.6580  -39.5480 H   0  0  0  0  0  0  0  0  0  0  0  0
   92.6520  102.1290  -40.4050 H   0  0  0  0  0  0  0  0  0  0  0  0
   94.3390  101.5770  -40.5270 H   0  0  0  0  0  0  0  0  0  0  0  0
   92.2750   97.1330  -40.6840 O   0  0  0  0  0  0  0  0  0  0  0  0
   91.7920   97.5720  -39.9800 H   0  0  0  0  0  0  0  0  0  0  0  0
   91.9850   94.2730  -42.0110 I   0  0  0  0  0  0  0  0  0  0  0  0
   89.9230   97.9330  -46.4280 I   0  0  0  0  0  0  0  0  0  0  0  0
  1  2  1  0  0  0  0
  1  4  1  0  0  0  0
  2 22  1  0  0  0  0
  3 24  1  0  0  0  0
  3  2  2  0  0  0  0
  4  5  1  0  0  0  0
  6  4  1  0  0  0  0
  7  4  1  0  0  0  0
  7 18  1  0  0  0  0
  8  7  1  0  0  0  0
  9  3  1  0  0  0  0
 10  9  1  0  0  0  0
 11  1  2  0  0  0  0
 12 11  1  0  0  0  0
 13 16  1  0  0  0  0
 13  7  1  0  0  0  0
 14 13  1  0  0  0  0
 15 13  1  0  0  0  0
 17  9  2  0  0  0  0
 17 11  1  0  0  0  0
 18 20  1  0  0  0  0
 18 19  1  0  0  0  0
 21 18  1  0  0  0  0
 22 23  1  0  0  0  0
 25 17  1  0  0  0  0
M  END
>  <Pose>
1

>  <Score>
-4.65

$$$$

 OpenBabel03102210493D

 25 25  0  0  0  0  0  0  0  0999 V2000
   91.7090   96.2540  -42.0030 C   0  0  0  0  0  0  0  0  0  0  0  0
   92.1360   97.4320  -41.3790 C   0  0  0  0  0  0  0  0  0  0  0  0
   92.0580   98.6540  -42.0410 C   0  0  0  0  0  0  0  0  0  0  0  0
   91.8080   94.9020  -41.3110 C   0  0  0  0  0  0  0  0  0  0  0  0
   90.7990   94.5170  -41.1650 H   0  0  0  0  0  0  0  0  0  0  0  0
   92.2860   95.0470  -40.3420 H   0  0  0  0  0  0  0  0  0  0  0  0
   92.5840   93.8990  -42.0650 N   0  0  0  0  0  4  0  0  0  0  0  0
   93.1150   94.4320  -42.7390 H   0  0  0  0  0  0  0  0  0  0  0  0
   91.5590   98.7330  -43.3490 C   0  0  0  0  0  0  0  0  0  0  0  0
   91.5060   99.6850  -43.8570 H   0  0  0  0  0  0  0  0  0  0  0  0
   91.2060   96.3380  -43.3190 C   0  0  0  0  0  0  0  0  0  0  0  0
   90.8720   95.4410  -43.8180 H   0  0  0  0  0  0  0  0  0  0  0  0
   93.5860   93.1770  -41.2560 C   0  0  0  0  0  0  0  0  0  0  0  0
   94.2100   93.8950  -40.7240 H   0  0  0  0  0  0  0  0  0  0  0  0
   94.2090   92.5660  -41.9090 H   0  0  0  0  0  0  0  0  0  0  0  0
   93.0770   92.5360  -40.5360 H   0  0  0  0  0  0  0  0  0  0  0  0
   91.1320   97.5680  -43.9880 C   0  0  0  0  0  0  0  0  0  0  0  0
   91.7140   92.9710  -42.8040 C   0  0  0  0  0  0  0  0  0  0  0  0
   90.9900   93.5380  -43.3890 H   0  0  0  0  0  0  0  0  0  0  0  0
   91.1880   92.3280  -42.0990 H   0  0  0  0  0  0  0  0  0  0  0  0
   92.3200   92.3580  -43.4720 H   0  0  0  0  0  0  0  0  0  0  0  0
   92.5980   97.3590  -40.0930 O   0  0  0  0  0  0  0  0  0  0  0  0
   91.9630   97.6140  -39.4190 H   0  0  0  0  0  0  0  0  0  0  0  0
   92.7470  100.3760  -41.0420 I   0  0  0  0  0  0  0  0  0  0  0  0
   90.3790   97.6240  -45.9390 I   0  0  0  0  0  0  0  0  0  0  0  0
  1  2  1  0  0  0  0
  1  4  1  0  0  0  0
  2 22  1  0  0  0  0
  3  2  2  0  0  0  0
  3 24  1  0  0  0  0
  4  5  1  0  0  0  0
  4  6  1  0  0  0  0
  7  4  1  0  0  0  0
  7 13  1  0  0  0  0
  8  7  1  0  0  0  0
  9  3  1  0  0  0  0
 10  9  1  0  0  0  0
 11  1  2  0  0  0  0
 12 11  1  0  0  0  0
 13 14  1  0  0  0  0
 13 16  1  0  0  0  0
 15 13  1  0  0  0  0
 17  9  2  0  0  0  0
 17 11  1  0  0  0  0
 18 20  1  0  0  0  0
 18  7  1  0  0  0  0
 19 18  1  0  0  0  0
 21 18  1  0  0  0  0
 22 23  1  0  0  0  0
 25 17  1  0  0  0  0
M  END
>  <Pose>
3

>  <Score>
-4.62

$$$$

 OpenBabel03102210493D

 25 25  0  0  0  0  0  0  0  0999 V2000
   91.8620   96.2530  -41.7910 C   0  0  0  0  0  0  0  0  0  0  0  0
   92.2300   97.4500  -41.1670 C   0  0  0  0  0  0  0  0  0  0  0  0
   92.1790   98.6570  -41.8610 C   0  0  0  0  0  0  0  0  0  0  0  0
   91.9340   94.9190  -41.0630 C   0  0  0  0  0  0  0  0  0  0  0  0
   91.2670   94.2170  -41.5650 H   0  0  0  0  0  0  0  0  0  0  0  0
   91.5970   95.0690  -40.0370 H   0  0  0  0  0  0  0  0  0  0  0  0
   93.2860   94.3300  -41.0260 N   0  0  0  0  0  4  0  0  0  0  0  0
   93.4600   94.1350  -40.0500 H   0  0  0  0  0  0  0  0  0  0  0  0
   91.7660   98.6990  -43.2010 C   0  0  0  0  0  0  0  0  0  0  0  0
   91.7340   99.6390  -43.7320 H   0  0  0  0  0  0  0  0  0  0  0  0
   91.4450   96.3010  -43.1380 C   0  0  0  0  0  0  0  0  0  0  0  0
   91.1570   95.3870  -43.6370 H   0  0  0  0  0  0  0  0  0  0  0  0
   93.3960   93.0280  -41.7140 C   0  0  0  0  0  0  0  0  0  0  0  0
   92.6230   92.3550  -41.3450 H   0  0  0  0  0  0  0  0  0  0  0  0
   94.3780   92.5950  -41.5180 H   0  0  0  0  0  0  0  0  0  0  0  0
   93.2710   93.1720  -42.7870 H   0  0  0  0  0  0  0  0  0  0  0  0
   91.3980   97.5140  -43.8390 C   0  0  0  0  0  0  0  0  0  0  0  0
   94.3120   95.2760  -41.4910 C   0  0  0  0  0  0  0  0  0  0  0  0
   94.2000   96.2230  -40.9620 H   0  0  0  0  0  0  0  0  0  0  0  0
   94.1950   95.4420  -42.5620 H   0  0  0  0  0  0  0  0  0  0  0  0
   95.3020   94.8650  -41.2930 H   0  0  0  0  0  0  0  0  0  0  0  0
   92.6080   97.4130  -39.8530 O   0  0  0  0  0  0  0  0  0  0  0  0
   91.9550   97.7480  -39.2340 H   0  0  0  0  0  0  0  0  0  0  0  0
   92.7780  100.4110  -40.8590 I   0  0  0  0  0  0  0  0  0  0  0  0
   90.7740   97.5150  -45.8360 I   0  0  0  0  0  0  0  0  0  0  0  0
  1  2  1  0  0  0  0
  1  4  1  0  0  0  0
  2 22  1  0  0  0  0
  3  2  2  0  0  0  0
  3 24  1  0  0  0  0
  4  7  1  0  0  0  0
  4  6  1  0  0  0  0
  5  4  1  0  0  0  0
  7  8  1  0  0  0  0
  9  3  1  0  0  0  0
 10  9  1  0  0  0  0
 11  1  2  0  0  0  0
 12 11  1  0  0  0  0
 13 15  1  0  0  0  0
 13 14  1  0  0  0  0
 13  7  1  0  0  0  0
 16 13  1  0  0  0  0
 17  9  2  0  0  0  0
 17 11  1  0  0  0  0
 18 21  1  0  0  0  0
 18  7  1  0  0  0  0
 18 19  1  0  0  0  0
 20 18  1  0  0  0  0
 22 23  1  0  0  0  0
 25 17  1  0  0  0  0
M  END
>  <Pose>
1

>  <Score>
-4.51

$$$$

 OpenBabel03102210493D

 25 25  0  0  0  0  0  0  0  0999 V2000
   91.7040   89.5940  -48.7430 C   0  0  0  0  0  0  0  0  0  0  0  0
   91.7950   90.4320  -47.6250 C   0  0  0  0  0  0  0  0  0  0  0  0
   91.2710   91.7210  -47.6600 C   0  0  0  0  0  0  0  0  0  0  0  0
   92.2920   88.1910  -48.7390 C   0  0  0  0  0  0  0  0  0  0  0  0
   93.0520   88.1390  -47.9590 H   0  0  0  0  0  0  0  0  0  0  0  0
   92.7540   88.0090  -49.7090 H   0  0  0  0  0  0  0  0  0  0  0  0
   91.2990   87.1280  -48.4910 N   0  0  0  0  0  4  0  0  0  0  0  0
   90.8420   87.3920  -47.6300 H   0  0  0  0  0  0  0  0  0  0  0  0
   90.6490   92.2140  -48.8170 C   0  0  0  0  0  0  0  0  0  0  0  0
   90.2490   93.2170  -48.8370 H   0  0  0  0  0  0  0  0  0  0  0  0
   91.0750   90.0930  -49.9040 C   0  0  0  0  0  0  0  0  0  0  0  0
   90.9960   89.4630  -50.7770 H   0  0  0  0  0  0  0  0  0  0  0  0
   90.2260   87.0550  -49.5020 C   0  0  0  0  0  0  0  0  0  0  0  0
   89.7790   88.0420  -49.6290 H   0  0  0  0  0  0  0  0  0  0  0  0
   89.4620   86.3510  -49.1730 H   0  0  0  0  0  0  0  0  0  0  0  0
   90.6430   86.7210  -50.4520 H   0  0  0  0  0  0  0  0  0  0  0  0
   90.5520   91.3930  -49.9420 C   0  0  0  0  0  0  0  0  0  0  0  0
   91.9350   85.8170  -48.2830 C   0  0  0  0  0  0  0  0  0  0  0  0
   92.7200   85.9090  -47.5320 H   0  0  0  0  0  0  0  0  0  0  0  0
   92.3690   85.4710  -49.2210 H   0  0  0  0  0  0  0  0  0  0  0  0
   91.1880   85.1000  -47.9420 H   0  0  0  0  0  0  0  0  0  0  0  0
   92.3780   89.9430  -46.4890 O   0  0  0  0  0  0  0  0  0  0  0  0
   92.5490   88.9980  -46.4950 H   0  0  0  0  0  0  0  0  0  0  0  0
   91.4740   92.9280  -45.9460 I   0  0  0  0  0  0  0  0  0  0  0  0
   89.6360   92.0730  -51.6950 I   0  0  0  0  0  0  0  0  0  0  0  0
  1  4  1  0  0  0  0
  1  2  1  0  0  0  0
  2 22  1  0  0  0  0
  3  2  2  0  0  0  0
  3 24  1  0  0  0  0
  4  7  1  0  0  0  0
  4  5  1  0  0  0  0
  6  4  1  0  0  0  0
  7 18  1  0  0  0  0
  7  8  1  0  0  0  0
  9  3  1  0  0  0  0
 10  9  1  0  0  0  0
 11  1  2  0  0  0  0
 12 11  1  0  0  0  0
 13 15  1  0  0  0  0
 13  7  1  0  0  0  0
 14 13  1  0  0  0  0
 16 13  1  0  0  0  0
 17 11  1  0  0  0  0
 17  9  2  0  0  0  0
 18 21  1  0  0  0  0
 18 19  1  0  0  0  0
 20 18  1  0  0  0  0
 23 22  1  0  0  0  0
 25 17  1  0  0  0  0
M  END
>  <Pose>
1

>  <Score>
-4.40

$$$$

 OpenBabel03102210493D

 25 25  0  0  0  0  0  0  0  0999 V2000
   91.5080   99.8290  -41.5380 C   0  0  0  0  0  0  0  0  0  0  0  0
   91.7780   98.7220  -42.3520 C   0  0  0  0  0  0  0  0  0  0  0  0
   90.8590   98.3080  -43.3130 C   0  0  0  0  0  0  0  0  0  0  0  0
   92.4840  100.2860  -40.4640 C   0  0  0  0  0  0  0  0  0  0  0  0
   92.7220   99.4310  -39.8300 H   0  0  0  0  0  0  0  0  0  0  0  0
   91.9990  101.0570  -39.8660 H   0  0  0  0  0  0  0  0  0  0  0  0
   93.7460  100.8350  -40.9960 N   0  0  0  0  0  4  0  0  0  0  0  0
   94.1350  100.0940  -41.5610 H   0  0  0  0  0  0  0  0  0  0  0  0
   89.6410   98.9810  -43.4820 C   0  0  0  0  0  0  0  0  0  0  0  0
   88.9320   98.6500  -44.2270 H   0  0  0  0  0  0  0  0  0  0  0  0
   90.2820  100.5050  -41.7130 C   0  0  0  0  0  0  0  0  0  0  0  0
   90.0550  101.3600  -41.0940 H   0  0  0  0  0  0  0  0  0  0  0  0
   93.5670  101.9800  -41.9110 C   0  0  0  0  0  0  0  0  0  0  0  0
   92.8500  101.7150  -42.6880 H   0  0  0  0  0  0  0  0  0  0  0  0
   94.5240  102.2310  -42.3700 H   0  0  0  0  0  0  0  0  0  0  0  0
   93.1960  102.8380  -41.3520 H   0  0  0  0  0  0  0  0  0  0  0  0
   89.3540  100.0850  -42.6760 C   0  0  0  0  0  0  0  0  0  0  0  0
   94.7070  101.1430  -39.9260 C   0  0  0  0  0  0  0  0  0  0  0  0
   94.8130  100.2770  -39.2720 H   0  0  0  0  0  0  0  0  0  0  0  0
   94.3470  101.9940  -39.3470 H   0  0  0  0  0  0  0  0  0  0  0  0
   95.6750  101.3860  -40.3660 H   0  0  0  0  0  0  0  0  0  0  0  0
   92.9770   98.0810  -42.2060 O   0  0  0  0  0  0  0  0  0  0  0  0
   93.7230   98.5140  -42.6290 H   0  0  0  0  0  0  0  0  0  0  0  0
   91.3290   96.6170  -44.4790 I   0  0  0  0  0  0  0  0  0  0  0  0
   87.5530  101.1290  -42.8820 I   0  0  0  0  0  0  0  0  0  0  0  0
  1  4  1  0  0  0  0
  2 22  1  0  0  0  0
  2  1  2  0  0  0  0
  3  2  1  0  0  0  0
  4  6  1  0  0  0  0
  4  5  1  0  0  0  0
  7  4  1  0  0  0  0
  7 18  1  0  0  0  0
  8  7  1  0  0  0  0
  9  3  2  0  0  0  0
  9 17  1  0  0  0  0
 10  9  1  0  0  0  0
 11  1  1  0  0  0  0
 11 12  1  0  0  0  0
 13 16  1  0  0  0  0
 13  7  1  0  0  0  0
 14 13  1  0  0  0  0
 15 13  1  0  0  0  0
 17 11  2  0  0  0  0
 18 20  1  0  0  0  0
 18 19  1  0  0  0  0
 21 18  1  0  0  0  0
 23 22  1  0  0  0  0
 24  3  1  0  0  0  0
 25 17  1  0  0  0  0
M  END
>  <Pose>
1

>  <Score>
-4.06

$$$$
