
 OpenBabel03102210483D

 51 54  0  0  0  0  0  0  0  0999 V2000
   19.3510   25.4630   72.5420 C   0  0  0  0  0  0  0  0  0  0  0  0
   19.7000   24.4410   72.3890 H   0  0  0  0  0  0  0  0  0  0  0  0
   19.6390   25.8000   73.5370 H   0  0  0  0  0  0  0  0  0  0  0  0
   19.8000   26.1160   71.7930 H   0  0  0  0  0  0  0  0  0  0  0  0
   17.8140   25.5070   72.4070 C   0  0  0  0  0  0  0  0  0  0  0  0
   17.3910   24.8360   73.1550 H   0  0  0  0  0  0  0  0  0  0  0  0
   17.5530   25.1510   71.4100 H   0  0  0  0  0  0  0  0  0  0  0  0
   17.2130   26.8180   72.5880 N   0  0  0  0  0  0  0  0  0  0  0  0
   17.5920   27.6070   72.0850 H   0  0  0  0  0  0  0  0  0  0  0  0
   16.1090   27.0180   73.4510 C   0  0  0  0  0  0  0  0  0  0  0  0
   15.6320   26.0770   74.0820 O   0  0  0  0  0  0  0  0  0  0  0  0
   15.6170   28.2780   73.5280 N   0  0  0  0  0  0  0  0  0  0  0  0
   14.4890   28.7180   74.3460 C   0  0  0  0  0  0  0  0  0  0  0  0
   14.8730   29.3250   75.1660 H   0  0  0  0  0  0  0  0  0  0  0  0
   13.9900   27.8370   74.7490 H   0  0  0  0  0  0  0  0  0  0  0  0
   13.4800   29.5300   73.5880 C   0  0  0  0  0  0  0  0  0  0  0  0
   12.7520   29.9320   74.2940 H   0  0  0  0  0  0  0  0  0  0  0  0
   12.9730   28.8810   72.8740 H   0  0  0  0  0  0  0  0  0  0  0  0
   14.1080   30.6690   72.8430 C   0  0  0  0  0  0  0  0  0  0  0  0
   14.4940   31.3300   73.6190 H   0  0  0  0  0  0  0  0  0  0  0  0
   15.2590   30.2220   72.0230 C   0  0  0  0  0  0  0  0  0  0  0  0
   15.7950   31.1010   71.6660 H   0  0  0  0  0  0  0  0  0  0  0  0
   14.8810   29.6560   71.1710 H   0  0  0  0  0  0  0  0  0  0  0  0
   16.2140   29.3560   72.7880 C   0  0  0  0  0  0  0  0  0  0  0  0
   16.9200   28.9260   72.0770 H   0  0  0  0  0  0  0  0  0  0  0  0
   16.7510   29.9910   73.4930 H   0  0  0  0  0  0  0  0  0  0  0  0
   13.1860   31.5120   72.1100 N   0  0  0  0  0  0  0  0  0  0  0  0
   12.2550   31.1430   71.9850 H   0  0  0  0  0  0  0  0  0  0  0  0
   13.4100   32.7030   71.5850 C   0  0  0  0  0  0  0  0  0  0  0  0
   14.6510   33.1380   71.5060 N   0  0  0  0  0  0  0  0  0  0  0  0
   14.8310   34.3290   70.9590 C   0  0  0  0  0  0  0  0  0  0  0  0
   13.7560   35.0740   70.5060 C   0  0  0  0  0  0  0  0  0  0  0  0
   12.4780   34.5240   70.6480 C   0  0  0  0  0  0  0  0  0  0  0  0
   11.6170   35.0840   70.3130 H   0  0  0  0  0  0  0  0  0  0  0  0
   12.3100   33.3350   71.1840 N   0  0  0  0  0  0  0  0  0  0  0  0
   16.1950   34.7990   70.8630 C   0  0  0  0  0  0  0  0  0  0  0  0
   16.7130   35.7150   70.0370 C   0  0  0  0  0  0  0  0  0  0  0  0
   16.1250   36.2510   69.3060 H   0  0  0  0  0  0  0  0  0  0  0  0
   18.0280   35.9050   70.2030 N   0  0  0  0  0  0  0  0  0  0  0  0
   18.6010   36.5680   69.7010 H   0  0  0  0  0  0  0  0  0  0  0  0
   18.4520   35.0590   71.1560 C   0  0  0  0  0  0  0  0  0  0  0  0
   17.3340   34.3370   71.6180 C   0  0  0  0  0  0  0  0  0  0  0  0
   17.4910   33.3860   72.6160 C   0  0  0  0  0  0  0  0  0  0  0  0
   16.6530   32.8140   72.9870 H   0  0  0  0  0  0  0  0  0  0  0  0
   18.7690   33.2030   73.1160 C   0  0  0  0  0  0  0  0  0  0  0  0
   18.9180   32.4610   73.8860 H   0  0  0  0  0  0  0  0  0  0  0  0
   19.8610   33.9250   72.6770 C   0  0  0  0  0  0  0  0  0  0  0  0
   20.8330   33.7630   73.1200 H   0  0  0  0  0  0  0  0  0  0  0  0
   19.7060   34.8510   71.6730 C   0  0  0  0  0  0  0  0  0  0  0  0
   20.5540   35.4050   71.2980 H   0  0  0  0  0  0  0  0  0  0  0  0
   13.8990   36.9800   69.6670 I   0  0  0  0  0  0  0  0  0  0  0  0
  1  3  1  0  0  0  0
  2  1  1  0  0  0  0
  4  1  1  0  0  0  0
  5  1  1  0  0  0  0
  5  8  1  0  0  0  0
  5  6  1  0  0  0  0
  7  5  1  0  0  0  0
  8 10  1  0  0  0  0
  9  8  1  0  0  0  0
 10 12  1  0  0  0  0
 10 11  2  0  0  0  0
 12 13  1  0  0  0  0
 13 15  1  0  0  0  0
 13 14  1  0  0  0  0
 16 17  1  0  0  0  0
 16 13  1  0  0  0  0
 18 16  1  0  0  0  0
 19 16  1  0  0  0  0
 19 20  1  0  0  0  0
 21 24  1  0  0  0  0
 21 19  1  0  0  0  0
 22 21  1  0  0  0  0
 23 21  1  0  0  0  0
 24 26  1  0  0  0  0
 24 12  1  0  0  0  0
 25 24  1  0  0  0  0
 27 19  1  0  0  0  0
 28 27  1  0  0  0  0
 29 27  1  0  0  0  0
 30 29  2  0  0  0  0
 31 30  1  0  0  0  0
 32 33  1  0  0  0  0
 32 31  2  0  0  0  0
 33 35  2  0  0  0  0
 34 33  1  0  0  0  0
 35 29  1  0  0  0  0
 36 31  1  0  0  0  0
 36 42  1  0  0  0  0
 37 39  1  0  0  0  0
 37 36  2  0  0  0  0
 38 37  1  0  0  0  0
 39 41  1  0  0  0  0
 40 39  1  0  0  0  0
 41 42  2  0  0  0  0
 41 49  1  0  0  0  0
 42 43  1  0  0  0  0
 43 44  1  0  0  0  0
 43 45  2  0  0  0  0
 45 46  1  0  0  0  0
 47 45  1  0  0  0  0
 47 48  1  0  0  0  0
 49 47  2  0  0  0  0
 50 49  1  0  0  0  0
 51 32  1  0  0  0  0
M  END
>  <Pose>
5

>  <Score>
-8.34

$$$$

 OpenBabel03102210483D

 51 54  0  0  0  0  0  0  0  0999 V2000
   19.5920   29.0350   76.9650 C   0  0  0  0  0  0  0  0  0  0  0  0
   20.6480   28.9650   77.2260 H   0  0  0  0  0  0  0  0  0  0  0  0
   19.0720   28.1400   77.3060 H   0  0  0  0  0  0  0  0  0  0  0  0
   19.1560   29.9120   77.4440 H   0  0  0  0  0  0  0  0  0  0  0  0
   19.4480   29.1610   75.4330 C   0  0  0  0  0  0  0  0  0  0  0  0
   19.9040   28.2810   74.9790 H   0  0  0  0  0  0  0  0  0  0  0  0
   19.9870   30.0530   75.1160 H   0  0  0  0  0  0  0  0  0  0  0  0
   18.0820   29.2630   74.9440 N   0  0  0  0  0  0  0  0  0  0  0  0
   17.3590   29.5870   75.5700 H   0  0  0  0  0  0  0  0  0  0  0  0
   17.7400   28.9210   73.6140 C   0  0  0  0  0  0  0  0  0  0  0  0
   18.5990   28.5170   72.8340 O   0  0  0  0  0  0  0  0  0  0  0  0
   16.4410   29.0740   73.2610 N   0  0  0  0  0  0  0  0  0  0  0  0
   15.8610   28.7890   71.9510 C   0  0  0  0  0  0  0  0  0  0  0  0
   15.2410   27.8960   72.0360 H   0  0  0  0  0  0  0  0  0  0  0  0
   16.6720   28.6030   71.2470 H   0  0  0  0  0  0  0  0  0  0  0  0
   15.0130   29.9040   71.4140 C   0  0  0  0  0  0  0  0  0  0  0  0
   14.5110   29.5590   70.5110 H   0  0  0  0  0  0  0  0  0  0  0  0
   15.6580   30.7490   71.1720 H   0  0  0  0  0  0  0  0  0  0  0  0
   13.9770   30.3570   72.3990 C   0  0  0  0  0  0  0  0  0  0  0  0
   13.3060   29.5050   72.5080 H   0  0  0  0  0  0  0  0  0  0  0  0
   14.5660   30.6350   73.7300 C   0  0  0  0  0  0  0  0  0  0  0  0
   13.7570   30.7640   74.4490 H   0  0  0  0  0  0  0  0  0  0  0  0
   15.1470   31.5550   73.6680 H   0  0  0  0  0  0  0  0  0  0  0  0
   15.4620   29.5330   74.2090 C   0  0  0  0  0  0  0  0  0  0  0  0
   15.9920   29.8910   75.0920 H   0  0  0  0  0  0  0  0  0  0  0  0
   14.8350   28.6850   74.4810 H   0  0  0  0  0  0  0  0  0  0  0  0
   13.1030   31.4160   71.9350 N   0  0  0  0  0  0  0  0  0  0  0  0
   12.1190   31.1940   71.9050 H   0  0  0  0  0  0  0  0  0  0  0  0
   13.4330   32.6340   71.5460 C   0  0  0  0  0  0  0  0  0  0  0  0
   14.7070   32.9660   71.5150 N   0  0  0  0  0  0  0  0  0  0  0  0
   14.9920   34.1910   71.1040 C   0  0  0  0  0  0  0  0  0  0  0  0
   13.9880   35.0720   70.7380 C   0  0  0  0  0  0  0  0  0  0  0  0
   12.6670   34.6210   70.8190 C   0  0  0  0  0  0  0  0  0  0  0  0
   11.8600   35.2850   70.5490 H   0  0  0  0  0  0  0  0  0  0  0  0
   12.3940   33.3980   71.2190 N   0  0  0  0  0  0  0  0  0  0  0  0
   16.3920   34.5510   71.0590 C   0  0  0  0  0  0  0  0  0  0  0  0
   16.9870   35.5300   70.3700 C   0  0  0  0  0  0  0  0  0  0  0  0
   16.4490   36.2170   69.7330 H   0  0  0  0  0  0  0  0  0  0  0  0
   18.3150   35.5790   70.5440 N   0  0  0  0  0  0  0  0  0  0  0  0
   18.9430   36.2570   70.1370 H   0  0  0  0  0  0  0  0  0  0  0  0
   18.6630   34.5680   71.3560 C   0  0  0  0  0  0  0  0  0  0  0  0
   17.4870   33.8860   71.7230 C   0  0  0  0  0  0  0  0  0  0  0  0
   17.5600   32.7880   72.5680 C   0  0  0  0  0  0  0  0  0  0  0  0
   16.6760   32.2420   72.8620 H   0  0  0  0  0  0  0  0  0  0  0  0
   18.8170   32.4240   73.0190 C   0  0  0  0  0  0  0  0  0  0  0  0
   18.9020   31.5660   73.6700 H   0  0  0  0  0  0  0  0  0  0  0  0
   19.9690   33.1050   72.6760 C   0  0  0  0  0  0  0  0  0  0  0  0
   20.9220   32.7960   73.0770 H   0  0  0  0  0  0  0  0  0  0  0  0
   19.8940   34.1790   71.8200 C   0  0  0  0  0  0  0  0  0  0  0  0
   20.7880   34.7060   71.5190 H   0  0  0  0  0  0  0  0  0  0  0  0
   14.3010   37.0400   70.1160 I   0  0  0  0  0  0  0  0  0  0  0  0
  1  2  1  0  0  0  0
  1  3  1  0  0  0  0
  1  4  1  0  0  0  0
  5  1  1  0  0  0  0
  6  5  1  0  0  0  0
  7  5  1  0  0  0  0
  8  5  1  0  0  0  0
  8  9  1  0  0  0  0
 10  8  1  0  0  0  0
 11 10  2  0  0  0  0
 12 10  1  0  0  0  0
 12 24  1  0  0  0  0
 13 14  1  0  0  0  0
 13 12  1  0  0  0  0
 15 13  1  0  0  0  0
 16 13  1  0  0  0  0
 16 19  1  0  0  0  0
 17 16  1  0  0  0  0
 18 16  1  0  0  0  0
 19 20  1  0  0  0  0
 19 21  1  0  0  0  0
 21 24  1  0  0  0  0
 21 22  1  0  0  0  0
 23 21  1  0  0  0  0
 24 26  1  0  0  0  0
 24 25  1  0  0  0  0
 27 19  1  0  0  0  0
 28 27  1  0  0  0  0
 29 27  1  0  0  0  0
 30 29  2  0  0  0  0
 31 30  1  0  0  0  0
 32 33  1  0  0  0  0
 32 31  2  0  0  0  0
 33 35  2  0  0  0  0
 34 33  1  0  0  0  0
 35 29  1  0  0  0  0
 36 31  1  0  0  0  0
 36 42  1  0  0  0  0
 37 39  1  0  0  0  0
 37 36  2  0  0  0  0
 38 37  1  0  0  0  0
 39 41  1  0  0  0  0
 40 39  1  0  0  0  0
 41 42  2  0  0  0  0
 41 49  1  0  0  0  0
 42 43  1  0  0  0  0
 43 44  1  0  0  0  0
 43 45  2  0  0  0  0
 45 46  1  0  0  0  0
 47 45  1  0  0  0  0
 47 48  1  0  0  0  0
 49 47  2  0  0  0  0
 50 49  1  0  0  0  0
 51 32  1  0  0  0  0
M  END
>  <Pose>
1

>  <Score>
-7.89

$$$$

 OpenBabel03102210483D

 51 54  0  0  0  0  0  0  0  0999 V2000
   10.1120   30.3900   76.6640 C   0  0  0  0  0  0  0  0  0  0  0  0
    9.1440   30.1170   77.0840 H   0  0  0  0  0  0  0  0  0  0  0  0
   10.2870   31.4550   76.8170 H   0  0  0  0  0  0  0  0  0  0  0  0
   10.8970   29.8180   77.1580 H   0  0  0  0  0  0  0  0  0  0  0  0
   10.1230   30.0800   75.1510 C   0  0  0  0  0  0  0  0  0  0  0  0
    9.3210   30.6520   74.6840 H   0  0  0  0  0  0  0  0  0  0  0  0
    9.9310   29.0140   75.0250 H   0  0  0  0  0  0  0  0  0  0  0  0
   11.3630   30.3980   74.4620 N   0  0  0  0  0  0  0  0  0  0  0  0
   11.4260   31.2580   73.9360 H   0  0  0  0  0  0  0  0  0  0  0  0
   12.4830   29.5360   74.5070 C   0  0  0  0  0  0  0  0  0  0  0  0
   12.4310   28.4790   75.1330 O   0  0  0  0  0  0  0  0  0  0  0  0
   13.5930   29.9420   73.8440 N   0  0  0  0  0  0  0  0  0  0  0  0
   14.8610   29.2210   73.7550 C   0  0  0  0  0  0  0  0  0  0  0  0
   14.9690   28.8390   72.7400 H   0  0  0  0  0  0  0  0  0  0  0  0
   14.8340   28.3870   74.4560 H   0  0  0  0  0  0  0  0  0  0  0  0
   16.0570   30.0700   74.0720 C   0  0  0  0  0  0  0  0  0  0  0  0
   16.9590   29.5010   73.8480 H   0  0  0  0  0  0  0  0  0  0  0  0
   16.0380   30.3180   75.1330 H   0  0  0  0  0  0  0  0  0  0  0  0
   16.0790   31.3420   73.2790 C   0  0  0  0  0  0  0  0  0  0  0  0
   16.2110   31.0230   72.2450 H   0  0  0  0  0  0  0  0  0  0  0  0
   14.7890   32.0660   73.3620 C   0  0  0  0  0  0  0  0  0  0  0  0
   14.7890   32.8650   72.6210 H   0  0  0  0  0  0  0  0  0  0  0  0
   14.6930   32.4950   74.3600 H   0  0  0  0  0  0  0  0  0  0  0  0
   13.6080   31.1770   73.1080 C   0  0  0  0  0  0  0  0  0  0  0  0
   12.7080   31.7330   73.3670 H   0  0  0  0  0  0  0  0  0  0  0  0
   13.5930   30.9350   72.0460 H   0  0  0  0  0  0  0  0  0  0  0  0
   17.2230   32.1980   73.5160 N   0  0  0  0  0  0  0  0  0  0  0  0
   17.6960   32.0690   74.3990 H   0  0  0  0  0  0  0  0  0  0  0  0
   17.7260   33.1270   72.7230 C   0  0  0  0  0  0  0  0  0  0  0  0
   16.9010   33.9410   72.0980 N   0  0  0  0  0  0  0  0  0  0  0  0
   17.4480   34.8660   71.3260 C   0  0  0  0  0  0  0  0  0  0  0  0
   18.8230   34.9540   71.1850 C   0  0  0  0  0  0  0  0  0  0  0  0
   19.6080   34.0330   71.8850 C   0  0  0  0  0  0  0  0  0  0  0  0
   20.6830   34.0680   71.7900 H   0  0  0  0  0  0  0  0  0  0  0  0
   19.0550   33.1230   72.6580 N   0  0  0  0  0  0  0  0  0  0  0  0
   16.5410   35.7660   70.6500 C   0  0  0  0  0  0  0  0  0  0  0  0
   16.7860   36.9740   70.1300 C   0  0  0  0  0  0  0  0  0  0  0  0
   17.7600   37.4400   70.1500 H   0  0  0  0  0  0  0  0  0  0  0  0
   15.7080   37.5520   69.5830 N   0  0  0  0  0  0  0  0  0  0  0  0
   15.6870   38.4470   69.1160 H   0  0  0  0  0  0  0  0  0  0  0  0
   14.6610   36.7300   69.7640 C   0  0  0  0  0  0  0  0  0  0  0  0
   15.1280   35.5790   70.4260 C   0  0  0  0  0  0  0  0  0  0  0  0
   14.2440   34.5560   70.7380 C   0  0  0  0  0  0  0  0  0  0  0  0
   14.5720   33.6630   71.2500 H   0  0  0  0  0  0  0  0  0  0  0  0
   12.9230   34.7290   70.3620 C   0  0  0  0  0  0  0  0  0  0  0  0
   12.2130   33.9510   70.6030 H   0  0  0  0  0  0  0  0  0  0  0  0
   12.4690   35.8490   69.6940 C   0  0  0  0  0  0  0  0  0  0  0  0
   11.4330   35.9230   69.3980 H   0  0  0  0  0  0  0  0  0  0  0  0
   13.3440   36.8710   69.4060 C   0  0  0  0  0  0  0  0  0  0  0  0
   13.0010   37.7660   68.9090 H   0  0  0  0  0  0  0  0  0  0  0  0
   19.8070   36.3340   69.9680 I   0  0  0  0  0  0  0  0  0  0  0  0
  1  3  1  0  0  0  0
  1  2  1  0  0  0  0
  1  4  1  0  0  0  0
  5  1  1  0  0  0  0
  6  5  1  0  0  0  0
  7  5  1  0  0  0  0
  8 10  1  0  0  0  0
  8  5  1  0  0  0  0
  9  8  1  0  0  0  0
 10 11  2  0  0  0  0
 12 10  1  0  0  0  0
 13 12  1  0  0  0  0
 13 16  1  0  0  0  0
 13 15  1  0  0  0  0
 14 13  1  0  0  0  0
 16 18  1  0  0  0  0
 17 16  1  0  0  0  0
 19 21  1  0  0  0  0
 19 27  1  0  0  0  0
 19 16  1  0  0  0  0
 20 19  1  0  0  0  0
 21 23  1  0  0  0  0
 22 21  1  0  0  0  0
 24 21  1  0  0  0  0
 24 25  1  0  0  0  0
 24 12  1  0  0  0  0
 26 24  1  0  0  0  0
 27 28  1  0  0  0  0
 29 27  1  0  0  0  0
 30 29  2  0  0  0  0
 31 30  1  0  0  0  0
 32 31  2  0  0  0  0
 32 33  1  0  0  0  0
 33 35  2  0  0  0  0
 34 33  1  0  0  0  0
 35 29  1  0  0  0  0
 36 31  1  0  0  0  0
 37 38  1  0  0  0  0
 37 36  2  0  0  0  0
 39 41  1  0  0  0  0
 39 37  1  0  0  0  0
 40 39  1  0  0  0  0
 41 42  1  0  0  0  0
 42 36  1  0  0  0  0
 42 43  2  0  0  0  0
 43 44  1  0  0  0  0
 45 46  1  0  0  0  0
 45 43  1  0  0  0  0
 47 45  2  0  0  0  0
 48 47  1  0  0  0  0
 49 47  1  0  0  0  0
 49 41  2  0  0  0  0
 50 49  1  0  0  0  0
 51 32  1  0  0  0  0
M  END
>  <Pose>
1

>  <Score>
-7.50

$$$$

 OpenBabel03102210483D

 51 54  0  0  0  0  0  0  0  0999 V2000
   26.7890   33.0850   68.7420 C   0  0  0  0  0  0  0  0  0  0  0  0
   27.8720   33.1580   68.8460 H   0  0  0  0  0  0  0  0  0  0  0  0
   26.4960   33.4270   67.7490 H   0  0  0  0  0  0  0  0  0  0  0  0
   26.4810   32.0470   68.8730 H   0  0  0  0  0  0  0  0  0  0  0  0
   26.1070   33.9640   69.8120 C   0  0  0  0  0  0  0  0  0  0  0  0
   26.4430   34.9910   69.6680 H   0  0  0  0  0  0  0  0  0  0  0  0
   26.4280   33.6110   70.7920 H   0  0  0  0  0  0  0  0  0  0  0  0
   24.6530   33.9580   69.7850 N   0  0  0  0  0  0  0  0  0  0  0  0
   24.1540   33.2840   70.3480 H   0  0  0  0  0  0  0  0  0  0  0  0
   23.9200   34.8720   68.9930 C   0  0  0  0  0  0  0  0  0  0  0  0
   24.5010   35.6980   68.2930 O   0  0  0  0  0  0  0  0  0  0  0  0
   22.5690   34.7890   69.0610 N   0  0  0  0  0  0  0  0  0  0  0  0
   21.6130   35.6250   68.3380 C   0  0  0  0  0  0  0  0  0  0  0  0
   21.1390   35.0180   67.5660 H   0  0  0  0  0  0  0  0  0  0  0  0
   22.1560   36.4460   67.8710 H   0  0  0  0  0  0  0  0  0  0  0  0
   20.5400   36.2020   69.2130 C   0  0  0  0  0  0  0  0  0  0  0  0
   19.7980   36.6910   68.5810 H   0  0  0  0  0  0  0  0  0  0  0  0
   20.9890   36.9380   69.8800 H   0  0  0  0  0  0  0  0  0  0  0  0
   19.8550   35.1560   70.0400 C   0  0  0  0  0  0  0  0  0  0  0  0
   19.3370   34.5250   69.3180 H   0  0  0  0  0  0  0  0  0  0  0  0
   20.8260   34.3020   70.7630 C   0  0  0  0  0  0  0  0  0  0  0  0
   20.2950   33.4480   71.1830 H   0  0  0  0  0  0  0  0  0  0  0  0
   21.2700   34.8860   71.5700 H   0  0  0  0  0  0  0  0  0  0  0  0
   21.9250   33.7970   69.8780 C   0  0  0  0  0  0  0  0  0  0  0  0
   22.6840   33.3400   70.5130 H   0  0  0  0  0  0  0  0  0  0  0  0
   21.5020   33.0400   69.2170 H   0  0  0  0  0  0  0  0  0  0  0  0
   18.7860   35.6410   70.8900 N   0  0  0  0  0  0  0  0  0  0  0  0
   19.0710   36.0380   71.7730 H   0  0  0  0  0  0  0  0  0  0  0  0
   17.4870   35.6280   70.6550 C   0  0  0  0  0  0  0  0  0  0  0  0
   16.7890   34.5700   71.0120 N   0  0  0  0  0  0  0  0  0  0  0  0
   15.4880   34.6070   70.7710 C   0  0  0  0  0  0  0  0  0  0  0  0
   14.9060   35.7070   70.1650 C   0  0  0  0  0  0  0  0  0  0  0  0
   15.7410   36.7740   69.8170 C   0  0  0  0  0  0  0  0  0  0  0  0
   15.3200   37.6430   69.3340 H   0  0  0  0  0  0  0  0  0  0  0  0
   17.0310   36.7320   70.0680 N   0  0  0  0  0  0  0  0  0  0  0  0
   14.7210   33.4490   71.1750 C   0  0  0  0  0  0  0  0  0  0  0  0
   13.3960   33.3200   71.3000 C   0  0  0  0  0  0  0  0  0  0  0  0
   12.7010   34.1190   71.0900 H   0  0  0  0  0  0  0  0  0  0  0  0
   13.0120   32.1040   71.7120 N   0  0  0  0  0  0  0  0  0  0  0  0
   12.0590   31.7950   71.8430 H   0  0  0  0  0  0  0  0  0  0  0  0
   14.1160   31.3690   71.9190 C   0  0  0  0  0  0  0  0  0  0  0  0
   15.2300   32.1640   71.5880 C   0  0  0  0  0  0  0  0  0  0  0  0
   16.5110   31.6430   71.7090 C   0  0  0  0  0  0  0  0  0  0  0  0
   17.3840   32.2300   71.4670 H   0  0  0  0  0  0  0  0  0  0  0  0
   16.6190   30.3360   72.1530 C   0  0  0  0  0  0  0  0  0  0  0  0
   17.6060   29.9120   72.2660 H   0  0  0  0  0  0  0  0  0  0  0  0
   15.5250   29.5500   72.4590 C   0  0  0  0  0  0  0  0  0  0  0  0
   15.6640   28.5270   72.7750 H   0  0  0  0  0  0  0  0  0  0  0  0
   14.2590   30.0770   72.3580 C   0  0  0  0  0  0  0  0  0  0  0  0
   13.3940   29.4860   72.6200 H   0  0  0  0  0  0  0  0  0  0  0  0
   12.8800   35.8720   69.6930 I   0  0  0  0  0  0  0  0  0  0  0  0
  1  2  1  0  0  0  0
  1  4  1  0  0  0  0
  1  5  1  0  0  0  0
  3  1  1  0  0  0  0
  5  7  1  0  0  0  0
  6  5  1  0  0  0  0
  8  5  1  0  0  0  0
  8  9  1  0  0  0  0
 10 12  1  0  0  0  0
 10  8  1  0  0  0  0
 11 10  2  0  0  0  0
 12 24  1  0  0  0  0
 13 12  1  0  0  0  0
 13 16  1  0  0  0  0
 14 13  1  0  0  0  0
 15 13  1  0  0  0  0
 16 18  1  0  0  0  0
 16 19  1  0  0  0  0
 17 16  1  0  0  0  0
 19 21  1  0  0  0  0
 19 27  1  0  0  0  0
 20 19  1  0  0  0  0
 21 22  1  0  0  0  0
 21 23  1  0  0  0  0
 24 25  1  0  0  0  0
 24 21  1  0  0  0  0
 26 24  1  0  0  0  0
 27 28  1  0  0  0  0
 29 27  1  0  0  0  0
 29 30  2  0  0  0  0
 31 30  1  0  0  0  0
 31 36  1  0  0  0  0
 32 31  2  0  0  0  0
 33 35  2  0  0  0  0
 33 32  1  0  0  0  0
 34 33  1  0  0  0  0
 35 29  1  0  0  0  0
 36 37  2  0  0  0  0
 36 42  1  0  0  0  0
 37 39  1  0  0  0  0
 38 37  1  0  0  0  0
 39 40  1  0  0  0  0
 39 41  1  0  0  0  0
 41 49  1  0  0  0  0
 42 43  1  0  0  0  0
 42 41  2  0  0  0  0
 43 45  2  0  0  0  0
 44 43  1  0  0  0  0
 45 46  1  0  0  0  0
 45 47  1  0  0  0  0
 47 48  1  0  0  0  0
 49 47  2  0  0  0  0
 49 50  1  0  0  0  0
 51 32  1  0  0  0  0
M  END
>  <Pose>
1

>  <Score>
-7.44

$$$$

 OpenBabel03102210483D

 51 54  0  0  0  0  0  0  0  0999 V2000
   20.7130   36.9260   68.6740 C   0  0  0  0  0  0  0  0  0  0  0  0
   21.2410   37.5840   67.9830 H   0  0  0  0  0  0  0  0  0  0  0  0
   19.8270   37.4330   69.0540 H   0  0  0  0  0  0  0  0  0  0  0  0
   20.4150   36.0160   68.1520 H   0  0  0  0  0  0  0  0  0  0  0  0
   21.6440   36.5630   69.8500 C   0  0  0  0  0  0  0  0  0  0  0  0
   21.9390   37.4880   70.3450 H   0  0  0  0  0  0  0  0  0  0  0  0
   22.5270   36.0710   69.4420 H   0  0  0  0  0  0  0  0  0  0  0  0
   21.0630   35.6830   70.8520 N   0  0  0  0  0  0  0  0  0  0  0  0
   20.7160   36.0810   71.7130 H   0  0  0  0  0  0  0  0  0  0  0  0
   20.9720   34.2860   70.6530 C   0  0  0  0  0  0  0  0  0  0  0  0
   21.3940   33.7740   69.6190 O   0  0  0  0  0  0  0  0  0  0  0  0
   20.3950   33.5660   71.6450 N   0  0  0  0  0  0  0  0  0  0  0  0
   20.1910   32.1190   71.6590 C   0  0  0  0  0  0  0  0  0  0  0  0
   20.8770   31.6810   72.3840 H   0  0  0  0  0  0  0  0  0  0  0  0
   20.4150   31.7290   70.6660 H   0  0  0  0  0  0  0  0  0  0  0  0
   18.7940   31.7130   72.0240 C   0  0  0  0  0  0  0  0  0  0  0  0
   18.7640   30.6300   72.1470 H   0  0  0  0  0  0  0  0  0  0  0  0
   18.1220   32.0050   71.2170 H   0  0  0  0  0  0  0  0  0  0  0  0
   18.3280   32.3560   73.2960 C   0  0  0  0  0  0  0  0  0  0  0  0
   18.9670   31.9350   74.0710 H   0  0  0  0  0  0  0  0  0  0  0  0
   18.5450   33.8210   73.2840 C   0  0  0  0  0  0  0  0  0  0  0  0
   18.3780   34.2070   74.2900 H   0  0  0  0  0  0  0  0  0  0  0  0
   17.8290   34.2740   72.5980 H   0  0  0  0  0  0  0  0  0  0  0  0
   19.9290   34.1990   72.8490 C   0  0  0  0  0  0  0  0  0  0  0  0
   19.9490   35.2770   72.6910 H   0  0  0  0  0  0  0  0  0  0  0  0
   20.6160   33.9370   73.6540 H   0  0  0  0  0  0  0  0  0  0  0  0
   16.9930   31.9860   73.7230 N   0  0  0  0  0  0  0  0  0  0  0  0
   16.8690   31.8550   74.7170 H   0  0  0  0  0  0  0  0  0  0  0  0
   15.9200   31.7980   72.9770 C   0  0  0  0  0  0  0  0  0  0  0  0
   15.3930   32.8310   72.3530 N   0  0  0  0  0  0  0  0  0  0  0  0
   14.3280   32.5950   71.6040 C   0  0  0  0  0  0  0  0  0  0  0  0
   13.8000   31.3190   71.5000 C   0  0  0  0  0  0  0  0  0  0  0  0
   14.4310   30.2940   72.2130 C   0  0  0  0  0  0  0  0  0  0  0  0
   14.0390   29.2890   72.1600 H   0  0  0  0  0  0  0  0  0  0  0  0
   15.4950   30.5370   72.9470 N   0  0  0  0  0  0  0  0  0  0  0  0
   13.7580   33.7280   70.9110 C   0  0  0  0  0  0  0  0  0  0  0  0
   12.5230   33.8800   70.4200 C   0  0  0  0  0  0  0  0  0  0  0  0
   11.7570   33.1220   70.5010 H   0  0  0  0  0  0  0  0  0  0  0  0
   12.3260   35.0600   69.8180 N   0  0  0  0  0  0  0  0  0  0  0  0
   11.4610   35.3800   69.4070 H   0  0  0  0  0  0  0  0  0  0  0  0
   13.4820   35.7420   69.8560 C   0  0  0  0  0  0  0  0  0  0  0  0
   14.4240   34.9540   70.5440 C   0  0  0  0  0  0  0  0  0  0  0  0
   15.7150   35.4270   70.7310 C   0  0  0  0  0  0  0  0  0  0  0  0
   16.4610   34.8420   71.2500 H   0  0  0  0  0  0  0  0  0  0  0  0
   16.0060   36.6810   70.2240 C   0  0  0  0  0  0  0  0  0  0  0  0
   17.0070   37.0670   70.3470 H   0  0  0  0  0  0  0  0  0  0  0  0
   15.0760   37.4630   69.5670 C   0  0  0  0  0  0  0  0  0  0  0  0
   15.3470   38.4480   69.2140 H   0  0  0  0  0  0  0  0  0  0  0  0
   13.8040   36.9820   69.3640 C   0  0  0  0  0  0  0  0  0  0  0  0
   13.0720   37.5680   68.8280 H   0  0  0  0  0  0  0  0  0  0  0  0
   12.1030   30.8210   70.3910 I   0  0  0  0  0  0  0  0  0  0  0  0
  1  3  1  0  0  0  0
  1  5  1  0  0  0  0
  2  1  1  0  0  0  0
  4  1  1  0  0  0  0
  5  6  1  0  0  0  0
  5  8  1  0  0  0  0
  7  5  1  0  0  0  0
  8  9  1  0  0  0  0
 10  8  1  0  0  0  0
 10 12  1  0  0  0  0
 11 10  2  0  0  0  0
 12 13  1  0  0  0  0
 12 24  1  0  0  0  0
 13 16  1  0  0  0  0
 13 14  1  0  0  0  0
 15 13  1  0  0  0  0
 16 17  1  0  0  0  0
 16 19  1  0  0  0  0
 18 16  1  0  0  0  0
 19 27  1  0  0  0  0
 19 20  1  0  0  0  0
 21 19  1  0  0  0  0
 21 22  1  0  0  0  0
 23 21  1  0  0  0  0
 24 21  1  0  0  0  0
 24 26  1  0  0  0  0
 25 24  1  0  0  0  0
 27 28  1  0  0  0  0
 29 27  1  0  0  0  0
 30 29  2  0  0  0  0
 31 30  1  0  0  0  0
 32 31  2  0  0  0  0
 32 33  1  0  0  0  0
 33 35  2  0  0  0  0
 34 33  1  0  0  0  0
 35 29  1  0  0  0  0
 36 31  1  0  0  0  0
 37 38  1  0  0  0  0
 37 36  2  0  0  0  0
 39 41  1  0  0  0  0
 39 37  1  0  0  0  0
 40 39  1  0  0  0  0
 41 42  1  0  0  0  0
 42 43  2  0  0  0  0
 42 36  1  0  0  0  0
 43 44  1  0  0  0  0
 45 46  1  0  0  0  0
 45 43  1  0  0  0  0
 47 45  2  0  0  0  0
 48 47  1  0  0  0  0
 49 47  1  0  0  0  0
 49 41  2  0  0  0  0
 50 49  1  0  0  0  0
 51 32  1  0  0  0  0
M  END
>  <Pose>
1

>  <Score>
-7.21

$$$$

 OpenBabel03102210483D

 51 54  0  0  0  0  0  0  0  0999 V2000
   21.3290   28.7800   68.4310 C   0  0  0  0  0  0  0  0  0  0  0  0
   21.4150   27.6940   68.4690 H   0  0  0  0  0  0  0  0  0  0  0  0
   22.2030   29.1960   67.9300 H   0  0  0  0  0  0  0  0  0  0  0  0
   20.4290   29.0550   67.8810 H   0  0  0  0  0  0  0  0  0  0  0  0
   21.2440   29.3390   69.8680 C   0  0  0  0  0  0  0  0  0  0  0  0
   22.1470   29.0380   70.4000 H   0  0  0  0  0  0  0  0  0  0  0  0
   20.3730   28.8970   70.3510 H   0  0  0  0  0  0  0  0  0  0  0  0
   21.1260   30.7850   69.9650 N   0  0  0  0  0  0  0  0  0  0  0  0
   21.2240   31.3440   69.1290 H   0  0  0  0  0  0  0  0  0  0  0  0
   20.8780   31.4310   71.1990 C   0  0  0  0  0  0  0  0  0  0  0  0
   20.7630   30.7770   72.2330 O   0  0  0  0  0  0  0  0  0  0  0  0
   20.7670   32.7810   71.1690 N   0  0  0  0  0  0  0  0  0  0  0  0
   20.5110   33.6550   72.3120 C   0  0  0  0  0  0  0  0  0  0  0  0
   21.4240   34.2070   72.5340 H   0  0  0  0  0  0  0  0  0  0  0  0
   20.2450   33.0340   73.1670 H   0  0  0  0  0  0  0  0  0  0  0  0
   19.4050   34.6400   72.0780 C   0  0  0  0  0  0  0  0  0  0  0  0
   19.3740   35.3370   72.9150 H   0  0  0  0  0  0  0  0  0  0  0  0
   18.4610   34.1000   72.0190 H   0  0  0  0  0  0  0  0  0  0  0  0
   19.5950   35.4190   70.8100 C   0  0  0  0  0  0  0  0  0  0  0  0
   20.4900   36.0170   70.9820 H   0  0  0  0  0  0  0  0  0  0  0  0
   19.8650   34.5320   69.6540 C   0  0  0  0  0  0  0  0  0  0  0  0
   20.1880   35.1440   68.8130 H   0  0  0  0  0  0  0  0  0  0  0  0
   18.9440   34.0110   69.3920 H   0  0  0  0  0  0  0  0  0  0  0  0
   20.9260   33.5130   69.9410 C   0  0  0  0  0  0  0  0  0  0  0  0
   20.9330   32.7950   69.1210 H   0  0  0  0  0  0  0  0  0  0  0  0
   21.8850   34.0290   69.9800 H   0  0  0  0  0  0  0  0  0  0  0  0
   18.5750   36.4110   70.5350 N   0  0  0  0  0  0  0  0  0  0  0  0
   18.8900   37.3700   70.5010 H   0  0  0  0  0  0  0  0  0  0  0  0
   17.2860   36.2190   70.3240 C   0  0  0  0  0  0  0  0  0  0  0  0
   16.7460   35.0770   70.6950 N   0  0  0  0  0  0  0  0  0  0  0  0
   15.4480   34.9330   70.4790 C   0  0  0  0  0  0  0  0  0  0  0  0
   14.7100   35.9410   69.8810 C   0  0  0  0  0  0  0  0  0  0  0  0
   15.3850   37.1100   69.5150 C   0  0  0  0  0  0  0  0  0  0  0  0
   14.8400   37.9120   69.0390 H   0  0  0  0  0  0  0  0  0  0  0  0
   16.6730   37.2470   69.7430 N   0  0  0  0  0  0  0  0  0  0  0  0
   14.8550   33.6830   70.8980 C   0  0  0  0  0  0  0  0  0  0  0  0
   13.5610   33.3650   71.0210 C   0  0  0  0  0  0  0  0  0  0  0  0
   12.7590   34.0530   70.7940 H   0  0  0  0  0  0  0  0  0  0  0  0
   13.3550   32.1140   71.4510 N   0  0  0  0  0  0  0  0  0  0  0  0
   12.4560   31.6720   71.5830 H   0  0  0  0  0  0  0  0  0  0  0  0
   14.5530   31.5500   71.6750 C   0  0  0  0  0  0  0  0  0  0  0  0
   15.5420   32.4920   71.3350 C   0  0  0  0  0  0  0  0  0  0  0  0
   16.8840   32.1640   71.4690 C   0  0  0  0  0  0  0  0  0  0  0  0
   17.6640   32.8690   71.2210 H   0  0  0  0  0  0  0  0  0  0  0  0
   17.1780   30.8950   71.9360 C   0  0  0  0  0  0  0  0  0  0  0  0
   18.2150   30.6190   72.0590 H   0  0  0  0  0  0  0  0  0  0  0  0
   16.2070   29.9630   72.2500 C   0  0  0  0  0  0  0  0  0  0  0  0
   16.4910   28.9760   72.5840 H   0  0  0  0  0  0  0  0  0  0  0  0
   14.8790   30.3000   72.1360 C   0  0  0  0  0  0  0  0  0  0  0  0
   14.1070   29.5930   72.4040 H   0  0  0  0  0  0  0  0  0  0  0  0
   12.6720   35.8240   69.4450 I   0  0  0  0  0  0  0  0  0  0  0  0
  1  2  1  0  0  0  0
  1  5  1  0  0  0  0
  3  1  1  0  0  0  0
  4  1  1  0  0  0  0
  5  8  1  0  0  0  0
  5  7  1  0  0  0  0
  5  6  1  0  0  0  0
  8 10  1  0  0  0  0
  9  8  1  0  0  0  0
 10 11  2  0  0  0  0
 12 10  1  0  0  0  0
 12 13  1  0  0  0  0
 13 14  1  0  0  0  0
 13 15  1  0  0  0  0
 16 13  1  0  0  0  0
 16 17  1  0  0  0  0
 18 16  1  0  0  0  0
 19 20  1  0  0  0  0
 19 16  1  0  0  0  0
 21 24  1  0  0  0  0
 21 19  1  0  0  0  0
 22 21  1  0  0  0  0
 23 21  1  0  0  0  0
 24 26  1  0  0  0  0
 24 12  1  0  0  0  0
 25 24  1  0  0  0  0
 27 19  1  0  0  0  0
 28 27  1  0  0  0  0
 29 27  1  0  0  0  0
 29 30  2  0  0  0  0
 31 30  1  0  0  0  0
 31 36  1  0  0  0  0
 32 31  2  0  0  0  0
 33 35  2  0  0  0  0
 33 32  1  0  0  0  0
 34 33  1  0  0  0  0
 35 29  1  0  0  0  0
 36 37  2  0  0  0  0
 36 42  1  0  0  0  0
 37 39  1  0  0  0  0
 38 37  1  0  0  0  0
 39 40  1  0  0  0  0
 39 41  1  0  0  0  0
 41 49  1  0  0  0  0
 42 43  1  0  0  0  0
 42 41  2  0  0  0  0
 43 45  2  0  0  0  0
 44 43  1  0  0  0  0
 45 46  1  0  0  0  0
 45 47  1  0  0  0  0
 47 48  1  0  0  0  0
 49 47  2  0  0  0  0
 49 50  1  0  0  0  0
 51 32  1  0  0  0  0
M  END
>  <Pose>
1

>  <Score>
-6.82

$$$$
