# created with PyMOL 2.5.2
@<TRIPOS>MOLECULE
predictions
51 54 1                 
SMALL
USER_CHARGES
@<TRIPOS>ATOM
1	   C	19.527	25.440	72.406	C.3	1	UNK0	0.000	
2	   H	19.873	24.419	72.239	 H	1	UNK0	0.000	
3	   H	19.769	25.743	73.424	 H	1	UNK0	0.000	
4	   H	20.019	26.110	71.701	 H	1	UNK0	0.000	
5	   C	17.999	25.506	72.199	C.3	1	UNK0	0.000	
6	   H	17.534	24.817	72.903	 H	1	UNK0	0.000	
7	   H	17.783	25.184	71.180	 H	1	UNK0	0.000	
8	   N	17.403	26.818	72.392	N.pl3	1	UNK0	0.000	
9	   H	17.762	27.603	71.867	 H	1	UNK0	0.000	
10	   C	16.333	27.024	73.295	C.2	1	UNK0	0.000	
11	   O	15.883	26.088	73.951	O.2	1	UNK0	0.000	
12	   N	15.842	28.284	73.380	N.pl3	1	UNK0	0.000	
13	   C	14.746	28.730	74.236	C.3	1	UNK0	0.000	
14	   H	15.160	29.344	75.036	 H	1	UNK0	0.000	
15	   H	14.264	27.851	74.666	 H	1	UNK0	0.000	
16	   C	13.707	29.533	73.512	C.3	1	UNK0	0.000	
17	   H	13.007	29.940	74.241	 H	1	UNK0	0.000	
18	   H	13.174	28.877	72.823	 H	1	UNK0	0.000	
19	   C	14.304	30.666	72.732	C.3	1	UNK0	0.000	
20	   H	14.719	31.335	73.487	 H	1	UNK0	0.000	
21	   C	15.423	30.214	71.873	C.3	1	UNK0	0.000	
22	   H	15.944	31.091	71.488	 H	1	UNK0	0.000	
23	   H	15.014	29.640	71.041	 H	1	UNK0	0.000	
24	   C	16.409	29.356	72.608	C.3	1	UNK0	0.000	
25	   H	17.087	28.920	71.874	 H	1	UNK0	0.000	
26	   H	16.971	29.998	73.286	 H	1	UNK0	0.000	
27	   N	13.353	31.503	72.029	N.pl3	1	UNK0	0.000	
28	   H	12.435	31.106	71.891	 H	1	UNK0	0.000	
29	   C	13.536	32.717	71.544	C.2	1	UNK0	0.000	
30	   N	14.762	33.195	71.477	N.2	1	UNK0	0.000	
31	   C	14.901	34.410	70.971	C.2	1	UNK0	0.000	
32	   C	13.800	35.134	70.546	C.2	1	UNK0	0.000	
33	   C	12.541	34.537	70.672	C.2	1	UNK0	0.000	
34	   H	11.661	35.079	70.358	 H	1	UNK0	0.000	
35	   N	12.414	33.325	71.167	N.2	1	UNK0	0.000	
36	   C	16.248	34.927	70.888	C.2	1	UNK0	0.000	
37	   C	16.712	35.952	70.164	C.2	1	UNK0	0.000	
38	   H	16.085	36.556	69.525	 H	1	UNK0	0.000	
39	   N	18.028	36.159	70.308	N.pl3	1	UNK0	0.000	
40	   H	18.565	36.895	69.872	 H	1	UNK0	0.000	
41	   C	18.507	35.215	71.135	C.2	1	UNK0	0.000	
42	   C	17.425	34.410	71.542	C.2	1	UNK0	0.000	
43	   C	17.642	33.349	72.410	C.2	1	UNK0	0.000	
44	   H	16.833	32.712	72.734	 H	1	UNK0	0.000	
45	   C	18.941	33.144	72.840	C.2	1	UNK0	0.000	
46	   H	19.138	32.318	73.508	 H	1	UNK0	0.000	
47	   C	19.999	33.946	72.457	C.2	1	UNK0	0.000	
48	   H	20.990	33.759	72.845	 H	1	UNK0	0.000	
49	   C	19.784	34.983	71.580	C.2	1	UNK0	0.000	
50	   H	20.604	35.602	71.248	 H	1	UNK0	0.000	
51	   I	13.878	37.071	69.772	 I	1	UNK0	0.000	
@<TRIPOS>BOND
1 1 3 1
2 1 2 1
3 1 4 1
4 5 8 1
5 1 5 1
6 5 6 1
7 5 7 1
8 8 10 1
9 8 9 1
10 10 12 1
11 10 11 2
12 12 13 1
13 13 15 1
14 13 14 1
15 13 16 1
16 16 17 1
17 16 18 1
18 19 20 1
19 16 19 1
20 21 24 1
21 19 21 1
22 21 22 1
23 21 23 1
24 24 26 1
25 12 24 1
26 24 25 1
27 19 27 1
28 27 28 1
29 27 29 1
30 29 30 2
31 30 31 1
32 32 33 1
33 31 32 2
34 33 35 2
35 33 34 1
36 29 35 1
37 31 36 1
38 36 42 1
39 37 39 1
40 36 37 2
41 37 38 1
42 39 41 1
43 39 40 1
44 41 42 2
45 41 49 1
46 42 43 1
47 43 44 1
48 43 45 2
49 45 46 1
50 45 47 1
51 47 48 1
52 47 49 2
53 49 50 1
54 32 51 1
@<TRIPOS>SUBSTRUCTURE
1	UNK0	1	GROUP	1 ****	UNK
