
 OpenBabel03092210513D

 51 54  0  0  0  0  0  0  0  0999 V2000
   19.5270   25.4400   72.4060 C   0  0  0  0  0  0  0  0  0  0  0  0
   19.8730   24.4190   72.2390 H   0  0  0  0  0  0  0  0  0  0  0  0
   19.7690   25.7430   73.4240 H   0  0  0  0  0  0  0  0  0  0  0  0
   20.0190   26.1100   71.7010 H   0  0  0  0  0  0  0  0  0  0  0  0
   17.9990   25.5060   72.1990 C   0  0  0  0  0  0  0  0  0  0  0  0
   17.5340   24.8170   72.9030 H   0  0  0  0  0  0  0  0  0  0  0  0
   17.7830   25.1840   71.1800 H   0  0  0  0  0  0  0  0  0  0  0  0
   17.4030   26.8180   72.3920 N   0  0  0  0  0  0  0  0  0  0  0  0
   17.7620   27.6030   71.8670 H   0  0  0  0  0  0  0  0  0  0  0  0
   16.3330   27.0240   73.2950 C   0  0  0  0  0  0  0  0  0  0  0  0
   15.8830   26.0880   73.9510 O   0  0  0  0  0  0  0  0  0  0  0  0
   15.8420   28.2840   73.3800 N   0  0  0  0  0  0  0  0  0  0  0  0
   14.7460   28.7300   74.2360 C   0  0  0  0  0  0  0  0  0  0  0  0
   15.1600   29.3440   75.0360 H   0  0  0  0  0  0  0  0  0  0  0  0
   14.2640   27.8510   74.6660 H   0  0  0  0  0  0  0  0  0  0  0  0
   13.7070   29.5330   73.5120 C   0  0  0  0  0  0  0  0  0  0  0  0
   13.0070   29.9400   74.2410 H   0  0  0  0  0  0  0  0  0  0  0  0
   13.1740   28.8770   72.8230 H   0  0  0  0  0  0  0  0  0  0  0  0
   14.3040   30.6660   72.7320 C   0  0  0  0  0  0  0  0  0  0  0  0
   14.7190   31.3350   73.4870 H   0  0  0  0  0  0  0  0  0  0  0  0
   15.4230   30.2140   71.8730 C   0  0  0  0  0  0  0  0  0  0  0  0
   15.9440   31.0910   71.4880 H   0  0  0  0  0  0  0  0  0  0  0  0
   15.0140   29.6400   71.0410 H   0  0  0  0  0  0  0  0  0  0  0  0
   16.4090   29.3560   72.6080 C   0  0  0  0  0  0  0  0  0  0  0  0
   17.0870   28.9200   71.8740 H   0  0  0  0  0  0  0  0  0  0  0  0
   16.9710   29.9980   73.2860 H   0  0  0  0  0  0  0  0  0  0  0  0
   13.3530   31.5030   72.0290 N   0  0  0  0  0  0  0  0  0  0  0  0
   12.4350   31.1060   71.8910 H   0  0  0  0  0  0  0  0  0  0  0  0
   13.5360   32.7170   71.5440 C   0  0  0  0  0  0  0  0  0  0  0  0
   14.7620   33.1950   71.4770 N   0  0  0  0  0  0  0  0  0  0  0  0
   14.9010   34.4100   70.9710 C   0  0  0  0  0  0  0  0  0  0  0  0
   13.8000   35.1340   70.5460 C   0  0  0  0  0  0  0  0  0  0  0  0
   12.5410   34.5370   70.6720 C   0  0  0  0  0  0  0  0  0  0  0  0
   11.6610   35.0790   70.3580 H   0  0  0  0  0  0  0  0  0  0  0  0
   12.4140   33.3250   71.1670 N   0  0  0  0  0  0  0  0  0  0  0  0
   16.2480   34.9270   70.8880 C   0  0  0  0  0  0  0  0  0  0  0  0
   16.7120   35.9520   70.1640 C   0  0  0  0  0  0  0  0  0  0  0  0
   16.0850   36.5560   69.5250 H   0  0  0  0  0  0  0  0  0  0  0  0
   18.0280   36.1590   70.3080 N   0  0  0  0  0  0  0  0  0  0  0  0
   18.5650   36.8950   69.8720 H   0  0  0  0  0  0  0  0  0  0  0  0
   18.5070   35.2150   71.1350 C   0  0  0  0  0  0  0  0  0  0  0  0
   17.4250   34.4100   71.5420 C   0  0  0  0  0  0  0  0  0  0  0  0
   17.6420   33.3490   72.4100 C   0  0  0  0  0  0  0  0  0  0  0  0
   16.8330   32.7120   72.7340 H   0  0  0  0  0  0  0  0  0  0  0  0
   18.9410   33.1440   72.8400 C   0  0  0  0  0  0  0  0  0  0  0  0
   19.1380   32.3180   73.5080 H   0  0  0  0  0  0  0  0  0  0  0  0
   19.9990   33.9460   72.4570 C   0  0  0  0  0  0  0  0  0  0  0  0
   20.9900   33.7590   72.8450 H   0  0  0  0  0  0  0  0  0  0  0  0
   19.7840   34.9830   71.5800 C   0  0  0  0  0  0  0  0  0  0  0  0
   20.6040   35.6020   71.2480 H   0  0  0  0  0  0  0  0  0  0  0  0
   13.8780   37.0710   69.7720 I   0  0  0  0  0  0  0  0  0  0  0  0
  1  3  1  0  0  0  0
  2  1  1  0  0  0  0
  4  1  1  0  0  0  0
  5  8  1  0  0  0  0
  5  1  1  0  0  0  0
  5  6  1  0  0  0  0
  7  5  1  0  0  0  0
  8 10  1  0  0  0  0
  9  8  1  0  0  0  0
 10 12  1  0  0  0  0
 10 11  2  0  0  0  0
 12 13  1  0  0  0  0
 13 15  1  0  0  0  0
 13 14  1  0  0  0  0
 16 13  1  0  0  0  0
 16 17  1  0  0  0  0
 18 16  1  0  0  0  0
 19 20  1  0  0  0  0
 19 16  1  0  0  0  0
 21 24  1  0  0  0  0
 21 19  1  0  0  0  0
 22 21  1  0  0  0  0
 23 21  1  0  0  0  0
 24 26  1  0  0  0  0
 24 12  1  0  0  0  0
 25 24  1  0  0  0  0
 27 19  1  0  0  0  0
 28 27  1  0  0  0  0
 29 27  1  0  0  0  0
 30 29  2  0  0  0  0
 31 30  1  0  0  0  0
 32 33  1  0  0  0  0
 32 31  2  0  0  0  0
 33 35  2  0  0  0  0
 34 33  1  0  0  0  0
 35 29  1  0  0  0  0
 36 31  1  0  0  0  0
 36 42  1  0  0  0  0
 37 39  1  0  0  0  0
 37 36  2  0  0  0  0
 38 37  1  0  0  0  0
 39 41  1  0  0  0  0
 40 39  1  0  0  0  0
 41 42  2  0  0  0  0
 41 49  1  0  0  0  0
 42 43  1  0  0  0  0
 43 44  1  0  0  0  0
 43 45  2  0  0  0  0
 45 46  1  0  0  0  0
 47 45  1  0  0  0  0
 47 48  1  0  0  0  0
 49 47  2  0  0  0  0
 50 49  1  0  0  0  0
 51 32  1  0  0  0  0
M  END
>  <Pose>
2

>  <Score>
-8.33

$$$$

 OpenBabel03092210513D

 51 54  0  0  0  0  0  0  0  0999 V2000
   18.1380   24.8970   73.6950 C   0  0  0  0  0  0  0  0  0  0  0  0
   18.3360   23.8400   73.8690 H   0  0  0  0  0  0  0  0  0  0  0  0
   18.8330   25.4980   74.2820 H   0  0  0  0  0  0  0  0  0  0  0  0
   18.2680   25.1220   72.6370 H   0  0  0  0  0  0  0  0  0  0  0  0
   16.6900   25.2260   74.1180 C   0  0  0  0  0  0  0  0  0  0  0  0
   16.5830   24.9790   75.1740 H   0  0  0  0  0  0  0  0  0  0  0  0
   16.0180   24.6030   73.5280 H   0  0  0  0  0  0  0  0  0  0  0  0
   16.2910   26.6130   73.9380 N   0  0  0  0  0  0  0  0  0  0  0  0
   16.8120   27.1960   73.2990 H   0  0  0  0  0  0  0  0  0  0  0  0
   15.1920   27.1670   74.6360 C   0  0  0  0  0  0  0  0  0  0  0  0
   14.5460   26.4830   75.4260 O   0  0  0  0  0  0  0  0  0  0  0  0
   14.8980   28.4640   74.3760 N   0  0  0  0  0  0  0  0  0  0  0  0
   13.8140   29.2420   74.9720 C   0  0  0  0  0  0  0  0  0  0  0  0
   14.2480   29.9700   75.6580 H   0  0  0  0  0  0  0  0  0  0  0  0
   13.1660   28.5630   75.5260 H   0  0  0  0  0  0  0  0  0  0  0  0
   12.9800   29.9780   73.9650 C   0  0  0  0  0  0  0  0  0  0  0  0
   12.2910   30.6360   74.4950 H   0  0  0  0  0  0  0  0  0  0  0  0
   12.4130   29.2520   73.3820 H   0  0  0  0  0  0  0  0  0  0  0  0
   13.8120   30.8030   73.0300 C   0  0  0  0  0  0  0  0  0  0  0  0
   14.2580   31.5720   73.6610 H   0  0  0  0  0  0  0  0  0  0  0  0
   14.9180   30.0150   72.4360 C   0  0  0  0  0  0  0  0  0  0  0  0
   15.6000   30.6990   71.9300 H   0  0  0  0  0  0  0  0  0  0  0  0
   14.4980   29.3180   71.7110 H   0  0  0  0  0  0  0  0  0  0  0  0
   15.6890   29.2370   73.4580 C   0  0  0  0  0  0  0  0  0  0  0  0
   16.3530   28.5530   72.9280 H   0  0  0  0  0  0  0  0  0  0  0  0
   16.2840   29.9430   74.0390 H   0  0  0  0  0  0  0  0  0  0  0  0
   13.0680   31.5640   72.0470 N   0  0  0  0  0  0  0  0  0  0  0  0
   12.2320   31.1240   71.6890 H   0  0  0  0  0  0  0  0  0  0  0  0
   13.3440   32.7600   71.5600 C   0  0  0  0  0  0  0  0  0  0  0  0
   14.6060   33.1160   71.4350 N   0  0  0  0  0  0  0  0  0  0  0  0
   14.8380   34.3170   70.9280 C   0  0  0  0  0  0  0  0  0  0  0  0
   13.7930   35.1480   70.5610 C   0  0  0  0  0  0  0  0  0  0  0  0
   12.4910   34.6750   70.7450 C   0  0  0  0  0  0  0  0  0  0  0  0
   11.6530   35.3030   70.4770 H   0  0  0  0  0  0  0  0  0  0  0  0
   12.2700   33.4770   71.2410 N   0  0  0  0  0  0  0  0  0  0  0  0
   16.2240   34.7020   70.7800 C   0  0  0  0  0  0  0  0  0  0  0  0
   16.7400   35.9150   70.5570 C   0  0  0  0  0  0  0  0  0  0  0  0
   16.1370   36.8070   70.4650 H   0  0  0  0  0  0  0  0  0  0  0  0
   18.0760   35.9200   70.4570 N   0  0  0  0  0  0  0  0  0  0  0  0
   18.6580   36.7330   70.3170 H   0  0  0  0  0  0  0  0  0  0  0  0
   18.5040   34.6530   70.5770 C   0  0  0  0  0  0  0  0  0  0  0  0
   17.3780   33.8360   70.7920 C   0  0  0  0  0  0  0  0  0  0  0  0
   17.5380   32.4670   70.9540 C   0  0  0  0  0  0  0  0  0  0  0  0
   16.6920   31.8160   71.1150 H   0  0  0  0  0  0  0  0  0  0  0  0
   18.8300   31.9740   70.9000 C   0  0  0  0  0  0  0  0  0  0  0  0
   18.9790   30.9100   71.0130 H   0  0  0  0  0  0  0  0  0  0  0  0
   19.9370   32.7770   70.7100 C   0  0  0  0  0  0  0  0  0  0  0  0
   20.9270   32.3450   70.7030 H   0  0  0  0  0  0  0  0  0  0  0  0
   19.7720   34.1310   70.5280 C   0  0  0  0  0  0  0  0  0  0  0  0
   20.6240   34.7700   70.3500 H   0  0  0  0  0  0  0  0  0  0  0  0
   14.0220   37.0750   69.7920 I   0  0  0  0  0  0  0  0  0  0  0  0
  1  2  1  0  0  0  0
  1  5  1  0  0  0  0
  1  3  1  0  0  0  0
  4  1  1  0  0  0  0
  5  6  1  0  0  0  0
  7  5  1  0  0  0  0
  8  5  1  0  0  0  0
  8 10  1  0  0  0  0
  9  8  1  0  0  0  0
 10 11  2  0  0  0  0
 12 10  1  0  0  0  0
 12 13  1  0  0  0  0
 13 15  1  0  0  0  0
 13 14  1  0  0  0  0
 16 17  1  0  0  0  0
 16 13  1  0  0  0  0
 18 16  1  0  0  0  0
 19 20  1  0  0  0  0
 19 16  1  0  0  0  0
 21 19  1  0  0  0  0
 21 24  1  0  0  0  0
 22 21  1  0  0  0  0
 23 21  1  0  0  0  0
 24 26  1  0  0  0  0
 24 12  1  0  0  0  0
 25 24  1  0  0  0  0
 27 19  1  0  0  0  0
 28 27  1  0  0  0  0
 29 27  1  0  0  0  0
 30 29  2  0  0  0  0
 31 30  1  0  0  0  0
 32 33  1  0  0  0  0
 32 31  2  0  0  0  0
 33 35  2  0  0  0  0
 34 33  1  0  0  0  0
 35 29  1  0  0  0  0
 36 42  1  0  0  0  0
 36 31  1  0  0  0  0
 37 36  2  0  0  0  0
 38 37  1  0  0  0  0
 39 37  1  0  0  0  0
 39 41  1  0  0  0  0
 40 39  1  0  0  0  0
 41 42  1  0  0  0  0
 42 43  2  0  0  0  0
 43 44  1  0  0  0  0
 45 43  1  0  0  0  0
 45 46  1  0  0  0  0
 47 45  2  0  0  0  0
 48 47  1  0  0  0  0
 49 41  2  0  0  0  0
 49 47  1  0  0  0  0
 50 49  1  0  0  0  0
 51 32  1  0  0  0  0
M  END
>  <Pose>
2

>  <Score>
-7.90

$$$$

 OpenBabel03092210513D

 51 54  0  0  0  0  0  0  0  0999 V2000
   19.7320   29.3820   74.3130 C   0  0  0  0  0  0  0  0  0  0  0  0
   20.6870   29.0080   74.6830 H   0  0  0  0  0  0  0  0  0  0  0  0
   19.6280   30.4350   74.5760 H   0  0  0  0  0  0  0  0  0  0  0  0
   19.6940   29.2720   73.2290 H   0  0  0  0  0  0  0  0  0  0  0  0
   18.5810   28.5760   74.9530 C   0  0  0  0  0  0  0  0  0  0  0  0
   18.6510   28.6900   76.0350 H   0  0  0  0  0  0  0  0  0  0  0  0
   18.7160   27.5270   74.6880 H   0  0  0  0  0  0  0  0  0  0  0  0
   17.2430   28.9740   74.5440 N   0  0  0  0  0  0  0  0  0  0  0  0
   16.6630   29.4860   75.1920 H   0  0  0  0  0  0  0  0  0  0  0  0
   16.7330   28.6610   73.2620 C   0  0  0  0  0  0  0  0  0  0  0  0
   17.4140   28.0310   72.4560 O   0  0  0  0  0  0  0  0  0  0  0  0
   15.4820   29.0980   72.9810 N   0  0  0  0  0  0  0  0  0  0  0  0
   14.7540   28.8970   71.7300 C   0  0  0  0  0  0  0  0  0  0  0  0
   13.9540   28.1790   71.9080 H   0  0  0  0  0  0  0  0  0  0  0  0
   15.4460   28.4940   70.9900 H   0  0  0  0  0  0  0  0  0  0  0  0
   14.1500   30.1550   71.1790 C   0  0  0  0  0  0  0  0  0  0  0  0
   13.5150   29.8960   70.3310 H   0  0  0  0  0  0  0  0  0  0  0  0
   14.9520   30.8120   70.8450 H   0  0  0  0  0  0  0  0  0  0  0  0
   13.3230   30.8820   72.1960 C   0  0  0  0  0  0  0  0  0  0  0  0
   12.4830   30.2170   72.3990 H   0  0  0  0  0  0  0  0  0  0  0  0
   14.0580   31.0750   73.4680 C   0  0  0  0  0  0  0  0  0  0  0  0
   13.3570   31.4230   74.2260 H   0  0  0  0  0  0  0  0  0  0  0  0
   14.8300   31.8290   73.3130 H   0  0  0  0  0  0  0  0  0  0  0  0
   14.7090   29.8170   73.9580 C   0  0  0  0  0  0  0  0  0  0  0  0
   15.3710   30.0810   74.7820 H   0  0  0  0  0  0  0  0  0  0  0  0
   13.9240   29.1530   74.3200 H   0  0  0  0  0  0  0  0  0  0  0  0
   12.6850   32.0940   71.7220 N   0  0  0  0  0  0  0  0  0  0  0  0
   11.6810   32.0540   71.6210 H   0  0  0  0  0  0  0  0  0  0  0  0
   13.2510   33.2450   71.4060 C   0  0  0  0  0  0  0  0  0  0  0  0
   14.5640   33.3360   71.4440 N   0  0  0  0  0  0  0  0  0  0  0  0
   15.0900   34.5020   71.1040 C   0  0  0  0  0  0  0  0  0  0  0  0
   14.2840   35.5670   70.7390 C   0  0  0  0  0  0  0  0  0  0  0  0
   12.9000   35.3660   70.7430 C   0  0  0  0  0  0  0  0  0  0  0  0
   12.2430   36.1790   70.4720 H   0  0  0  0  0  0  0  0  0  0  0  0
   12.3870   34.2000   71.0730 N   0  0  0  0  0  0  0  0  0  0  0  0
   16.5320   34.5960   71.1350 C   0  0  0  0  0  0  0  0  0  0  0  0
   17.3320   35.4630   70.5020 C   0  0  0  0  0  0  0  0  0  0  0  0
   16.9620   36.2490   69.8620 H   0  0  0  0  0  0  0  0  0  0  0  0
   18.6350   35.2610   70.7400 N   0  0  0  0  0  0  0  0  0  0  0  0
   19.3970   35.8190   70.3810 H   0  0  0  0  0  0  0  0  0  0  0  0
   18.7500   34.1870   71.5380 C   0  0  0  0  0  0  0  0  0  0  0  0
   17.4510   33.7280   71.8290 C   0  0  0  0  0  0  0  0  0  0  0  0
   17.2780   32.6190   72.6460 C   0  0  0  0  0  0  0  0  0  0  0  0
   16.2950   32.2410   72.8820 H   0  0  0  0  0  0  0  0  0  0  0  0
   18.4220   32.0190   73.1440 C   0  0  0  0  0  0  0  0  0  0  0  0
   18.3140   31.1480   73.7730 H   0  0  0  0  0  0  0  0  0  0  0  0
   19.6950   32.4830   72.8740 C   0  0  0  0  0  0  0  0  0  0  0  0
   20.5540   31.9950   73.3110 H   0  0  0  0  0  0  0  0  0  0  0  0
   19.8630   33.5680   72.0470 C   0  0  0  0  0  0  0  0  0  0  0  0
   20.8520   33.9270   71.8030 H   0  0  0  0  0  0  0  0  0  0  0  0
   14.9830   37.4650   70.2260 I   0  0  0  0  0  0  0  0  0  0  0  0
  1  3  1  0  0  0  0
  1  2  1  0  0  0  0
  1  5  1  0  0  0  0
  4  1  1  0  0  0  0
  5  6  1  0  0  0  0
  7  5  1  0  0  0  0
  8  5  1  0  0  0  0
  8  9  1  0  0  0  0
 10  8  1  0  0  0  0
 11 10  2  0  0  0  0
 12 10  1  0  0  0  0
 12 24  1  0  0  0  0
 13 14  1  0  0  0  0
 13 12  1  0  0  0  0
 15 13  1  0  0  0  0
 16 13  1  0  0  0  0
 16 19  1  0  0  0  0
 17 16  1  0  0  0  0
 18 16  1  0  0  0  0
 19 20  1  0  0  0  0
 19 21  1  0  0  0  0
 21 24  1  0  0  0  0
 21 22  1  0  0  0  0
 23 21  1  0  0  0  0
 24 26  1  0  0  0  0
 24 25  1  0  0  0  0
 27 19  1  0  0  0  0
 28 27  1  0  0  0  0
 29 30  2  0  0  0  0
 29 27  1  0  0  0  0
 31 36  1  0  0  0  0
 31 30  1  0  0  0  0
 32 33  1  0  0  0  0
 32 31  2  0  0  0  0
 33 35  2  0  0  0  0
 34 33  1  0  0  0  0
 35 29  1  0  0  0  0
 36 42  1  0  0  0  0
 37 39  1  0  0  0  0
 37 36  2  0  0  0  0
 38 37  1  0  0  0  0
 39 41  1  0  0  0  0
 40 39  1  0  0  0  0
 41 42  2  0  0  0  0
 41 49  1  0  0  0  0
 42 43  1  0  0  0  0
 43 44  1  0  0  0  0
 43 45  2  0  0  0  0
 45 46  1  0  0  0  0
 47 45  1  0  0  0  0
 47 48  1  0  0  0  0
 49 47  2  0  0  0  0
 50 49  1  0  0  0  0
 51 32  1  0  0  0  0
M  END
>  <Pose>
1

>  <Score>
-7.79

$$$$

 OpenBabel03092210513D

 51 54  0  0  0  0  0  0  0  0999 V2000
   26.5780   31.8090   69.1390 C   0  0  0  0  0  0  0  0  0  0  0  0
   27.6440   31.6790   69.3220 H   0  0  0  0  0  0  0  0  0  0  0  0
   26.4310   32.5440   68.3480 H   0  0  0  0  0  0  0  0  0  0  0  0
   26.1420   30.8570   68.8360 H   0  0  0  0  0  0  0  0  0  0  0  0
   25.8900   32.3010   70.4310 C   0  0  0  0  0  0  0  0  0  0  0  0
   26.3530   33.2450   70.7210 H   0  0  0  0  0  0  0  0  0  0  0  0
   26.0640   31.5580   71.2090 H   0  0  0  0  0  0  0  0  0  0  0  0
   24.4560   32.5170   70.3270 N   0  0  0  0  0  0  0  0  0  0  0  0
   23.8350   31.9950   70.9290 H   0  0  0  0  0  0  0  0  0  0  0  0
   23.9070   33.4390   69.4060 C   0  0  0  0  0  0  0  0  0  0  0  0
   24.6380   34.0820   68.6560 O   0  0  0  0  0  0  0  0  0  0  0  0
   22.5580   33.5730   69.4090 N   0  0  0  0  0  0  0  0  0  0  0  0
   21.7740   34.4610   68.5530 C   0  0  0  0  0  0  0  0  0  0  0  0
   21.2390   33.8520   67.8240 H   0  0  0  0  0  0  0  0  0  0  0  0
   22.4590   35.1310   68.0330 H   0  0  0  0  0  0  0  0  0  0  0  0
   20.7760   35.2910   69.3030 C   0  0  0  0  0  0  0  0  0  0  0  0
   20.1450   35.8140   68.5850 H   0  0  0  0  0  0  0  0  0  0  0  0
   21.3120   36.0180   69.9130 H   0  0  0  0  0  0  0  0  0  0  0  0
   19.9030   34.4610   70.1970 C   0  0  0  0  0  0  0  0  0  0  0  0
   19.3180   33.8410   69.5180 H   0  0  0  0  0  0  0  0  0  0  0  0
   20.6990   33.5550   71.0570 C   0  0  0  0  0  0  0  0  0  0  0  0
   20.0240   32.8440   71.5340 H   0  0  0  0  0  0  0  0  0  0  0  0
   21.2000   34.1490   71.8210 H   0  0  0  0  0  0  0  0  0  0  0  0
   21.7350   32.7900   70.2900 C   0  0  0  0  0  0  0  0  0  0  0  0
   22.3880   32.2950   71.0090 H   0  0  0  0  0  0  0  0  0  0  0  0
   21.2210   32.0390   69.6890 H   0  0  0  0  0  0  0  0  0  0  0  0
   18.8950   35.1970   70.9330 N   0  0  0  0  0  0  0  0  0  0  0  0
   19.2240   35.7170   71.7340 H   0  0  0  0  0  0  0  0  0  0  0  0
   17.5990   35.2750   70.6890 C   0  0  0  0  0  0  0  0  0  0  0  0
   16.8220   34.2820   71.0690 N   0  0  0  0  0  0  0  0  0  0  0  0
   15.5290   34.4080   70.8180 C   0  0  0  0  0  0  0  0  0  0  0  0
   15.0350   35.5310   70.1770 C   0  0  0  0  0  0  0  0  0  0  0  0
   15.9480   36.5220   69.8050 C   0  0  0  0  0  0  0  0  0  0  0  0
   15.5960   37.4060   69.2950 H   0  0  0  0  0  0  0  0  0  0  0  0
   17.2310   36.3920   70.0680 N   0  0  0  0  0  0  0  0  0  0  0  0
   14.6760   33.3220   71.2480 C   0  0  0  0  0  0  0  0  0  0  0  0
   13.3400   33.2560   71.2590 C   0  0  0  0  0  0  0  0  0  0  0  0
   12.7060   34.0590   70.9140 H   0  0  0  0  0  0  0  0  0  0  0  0
   12.8650   32.0990   71.7380 N   0  0  0  0  0  0  0  0  0  0  0  0
   11.8910   31.8400   71.8050 H   0  0  0  0  0  0  0  0  0  0  0  0
   13.9100   31.3440   72.1130 C   0  0  0  0  0  0  0  0  0  0  0  0
   15.0860   32.0620   71.8190 C   0  0  0  0  0  0  0  0  0  0  0  0
   16.3240   31.5060   72.1060 C   0  0  0  0  0  0  0  0  0  0  0  0
   17.2420   32.0350   71.8970 H   0  0  0  0  0  0  0  0  0  0  0  0
   16.3310   30.2430   72.6720 C   0  0  0  0  0  0  0  0  0  0  0  0
   17.2830   29.7930   72.9150 H   0  0  0  0  0  0  0  0  0  0  0  0
   15.1790   29.5310   72.9410 C   0  0  0  0  0  0  0  0  0  0  0  0
   15.2410   28.5360   73.3580 H   0  0  0  0  0  0  0  0  0  0  0  0
   13.9530   30.0940   72.6760 C   0  0  0  0  0  0  0  0  0  0  0  0
   13.0410   29.5620   72.9060 H   0  0  0  0  0  0  0  0  0  0  0  0
   13.0290   35.8320   69.6840 I   0  0  0  0  0  0  0  0  0  0  0  0
  1  2  1  0  0  0  0
  1  5  1  0  0  0  0
  3  1  1  0  0  0  0
  4  1  1  0  0  0  0
  5  6  1  0  0  0  0
  5  7  1  0  0  0  0
  8  5  1  0  0  0  0
  8  9  1  0  0  0  0
 10 12  1  0  0  0  0
 10  8  1  0  0  0  0
 11 10  2  0  0  0  0
 12 24  1  0  0  0  0
 13 16  1  0  0  0  0
 13 12  1  0  0  0  0
 14 13  1  0  0  0  0
 15 13  1  0  0  0  0
 16 18  1  0  0  0  0
 16 19  1  0  0  0  0
 17 16  1  0  0  0  0
 19 27  1  0  0  0  0
 19 21  1  0  0  0  0
 20 19  1  0  0  0  0
 21 22  1  0  0  0  0
 21 23  1  0  0  0  0
 24 25  1  0  0  0  0
 24 21  1  0  0  0  0
 26 24  1  0  0  0  0
 27 28  1  0  0  0  0
 29 27  1  0  0  0  0
 29 30  2  0  0  0  0
 31 30  1  0  0  0  0
 31 36  1  0  0  0  0
 32 31  2  0  0  0  0
 33 35  2  0  0  0  0
 33 32  1  0  0  0  0
 34 33  1  0  0  0  0
 35 29  1  0  0  0  0
 36 37  2  0  0  0  0
 36 42  1  0  0  0  0
 37 39  1  0  0  0  0
 38 37  1  0  0  0  0
 39 40  1  0  0  0  0
 39 41  1  0  0  0  0
 41 49  1  0  0  0  0
 42 43  1  0  0  0  0
 42 41  2  0  0  0  0
 43 45  2  0  0  0  0
 44 43  1  0  0  0  0
 45 46  1  0  0  0  0
 45 47  1  0  0  0  0
 47 48  1  0  0  0  0
 49 50  1  0  0  0  0
 49 47  2  0  0  0  0
 51 32  1  0  0  0  0
M  END
>  <Pose>
2

>  <Score>
-7.44

$$$$

 OpenBabel03092210513D

 51 54  0  0  0  0  0  0  0  0999 V2000
   13.3140   24.3670   74.3210 C   0  0  0  0  0  0  0  0  0  0  0  0
   12.9020   23.5450   74.9060 H   0  0  0  0  0  0  0  0  0  0  0  0
   14.2880   24.0780   73.9250 H   0  0  0  0  0  0  0  0  0  0  0  0
   12.6410   24.6000   73.4960 H   0  0  0  0  0  0  0  0  0  0  0  0
   13.4740   25.6100   75.2220 C   0  0  0  0  0  0  0  0  0  0  0  0
   14.1390   25.3460   76.0450 H   0  0  0  0  0  0  0  0  0  0  0  0
   12.4920   25.8680   75.6170 H   0  0  0  0  0  0  0  0  0  0  0  0
   14.0190   26.7870   74.5650 N   0  0  0  0  0  0  0  0  0  0  0  0
   13.4410   27.6100   74.4730 H   0  0  0  0  0  0  0  0  0  0  0  0
   15.3370   26.8100   74.0520 C   0  0  0  0  0  0  0  0  0  0  0  0
   16.0600   25.8200   74.1440 O   0  0  0  0  0  0  0  0  0  0  0  0
   15.7470   27.9670   73.4770 N   0  0  0  0  0  0  0  0  0  0  0  0
   17.0580   28.2230   72.8850 C   0  0  0  0  0  0  0  0  0  0  0  0
   16.9420   28.2770   71.8020 H   0  0  0  0  0  0  0  0  0  0  0  0
   17.7190   27.3940   73.1390 H   0  0  0  0  0  0  0  0  0  0  0  0
   17.6920   29.4970   73.3590 C   0  0  0  0  0  0  0  0  0  0  0  0
   18.5910   29.6810   72.7710 H   0  0  0  0  0  0  0  0  0  0  0  0
   17.9610   29.3850   74.4090 H   0  0  0  0  0  0  0  0  0  0  0  0
   16.7750   30.6750   73.2190 C   0  0  0  0  0  0  0  0  0  0  0  0
   16.6400   30.7970   72.1450 H   0  0  0  0  0  0  0  0  0  0  0  0
   15.4430   30.4100   73.8110 C   0  0  0  0  0  0  0  0  0  0  0  0
   14.7630   31.2080   73.5110 H   0  0  0  0  0  0  0  0  0  0  0  0
   15.5390   30.4030   74.8970 H   0  0  0  0  0  0  0  0  0  0  0  0
   14.8650   29.0980   73.3730 C   0  0  0  0  0  0  0  0  0  0  0  0
   13.9870   28.8970   73.9850 H   0  0  0  0  0  0  0  0  0  0  0  0
   14.5660   29.1950   72.3290 H   0  0  0  0  0  0  0  0  0  0  0  0
   17.3340   31.9460   73.6340 N   0  0  0  0  0  0  0  0  0  0  0  0
   17.3810   32.1040   74.6300 H   0  0  0  0  0  0  0  0  0  0  0  0
   17.7900   32.9250   72.8730 C   0  0  0  0  0  0  0  0  0  0  0  0
   16.9260   33.6870   72.2350 N   0  0  0  0  0  0  0  0  0  0  0  0
   17.4260   34.6640   71.4970 C   0  0  0  0  0  0  0  0  0  0  0  0
   18.7940   34.8570   71.4010 C   0  0  0  0  0  0  0  0  0  0  0  0
   19.6240   33.9830   72.1110 C   0  0  0  0  0  0  0  0  0  0  0  0
   20.6960   34.1010   72.0510 H   0  0  0  0  0  0  0  0  0  0  0  0
   19.1170   33.0210   72.8500 N   0  0  0  0  0  0  0  0  0  0  0  0
   16.4750   35.5070   70.8070 C   0  0  0  0  0  0  0  0  0  0  0  0
   16.6340   36.7540   70.3480 C   0  0  0  0  0  0  0  0  0  0  0  0
   17.5580   37.3040   70.4400 H   0  0  0  0  0  0  0  0  0  0  0  0
   15.5370   37.2550   69.7650 N   0  0  0  0  0  0  0  0  0  0  0  0
   15.4560   38.1640   69.3330 H   0  0  0  0  0  0  0  0  0  0  0  0
   14.5620   36.3350   69.8560 C   0  0  0  0  0  0  0  0  0  0  0  0
   15.0990   35.2030   70.4990 C   0  0  0  0  0  0  0  0  0  0  0  0
   14.2990   34.0910   70.7210 C   0  0  0  0  0  0  0  0  0  0  0  0
   14.6810   33.2110   71.2160 H   0  0  0  0  0  0  0  0  0  0  0  0
   12.9880   34.1600   70.2800 C   0  0  0  0  0  0  0  0  0  0  0  0
   12.3420   33.3120   70.4510 H   0  0  0  0  0  0  0  0  0  0  0  0
   12.4680   35.2630   69.6320 C   0  0  0  0  0  0  0  0  0  0  0  0
   11.4460   35.2550   69.2830 H   0  0  0  0  0  0  0  0  0  0  0  0
   13.2580   36.3710   69.4330 C   0  0  0  0  0  0  0  0  0  0  0  0
   12.8590   37.2520   68.9520 H   0  0  0  0  0  0  0  0  0  0  0  0
   19.7090   36.3290   70.2390 I   0  0  0  0  0  0  0  0  0  0  0  0
  1  2  1  0  0  0  0
  1  5  1  0  0  0  0
  3  1  1  0  0  0  0
  4  1  1  0  0  0  0
  5  7  1  0  0  0  0
  5  6  1  0  0  0  0
  8  5  1  0  0  0  0
  9  8  1  0  0  0  0
 10 11  2  0  0  0  0
 10  8  1  0  0  0  0
 12 10  1  0  0  0  0
 13 15  1  0  0  0  0
 13 16  1  0  0  0  0
 13 12  1  0  0  0  0
 14 13  1  0  0  0  0
 16 18  1  0  0  0  0
 17 16  1  0  0  0  0
 19 16  1  0  0  0  0
 19 27  1  0  0  0  0
 19 21  1  0  0  0  0
 20 19  1  0  0  0  0
 21 23  1  0  0  0  0
 22 21  1  0  0  0  0
 24 12  1  0  0  0  0
 24 21  1  0  0  0  0
 24 25  1  0  0  0  0
 26 24  1  0  0  0  0
 27 28  1  0  0  0  0
 29 27  1  0  0  0  0
 30 29  2  0  0  0  0
 31 30  1  0  0  0  0
 32 31  2  0  0  0  0
 32 33  1  0  0  0  0
 33 35  2  0  0  0  0
 34 33  1  0  0  0  0
 35 29  1  0  0  0  0
 36 31  1  0  0  0  0
 37 38  1  0  0  0  0
 37 36  2  0  0  0  0
 39 41  1  0  0  0  0
 39 37  1  0  0  0  0
 40 39  1  0  0  0  0
 41 42  1  0  0  0  0
 42 43  2  0  0  0  0
 42 36  1  0  0  0  0
 43 44  1  0  0  0  0
 45 46  1  0  0  0  0
 45 43  1  0  0  0  0
 47 45  2  0  0  0  0
 48 47  1  0  0  0  0
 49 47  1  0  0  0  0
 49 41  2  0  0  0  0
 50 49  1  0  0  0  0
 51 32  1  0  0  0  0
M  END
>  <Pose>
1

>  <Score>
-7.43

$$$$

 OpenBabel03092210513D

 51 54  0  0  0  0  0  0  0  0999 V2000
   17.6500   38.0570   68.4300 C   0  0  0  0  0  0  0  0  0  0  0  0
   18.2600   38.9580   68.5000 H   0  0  0  0  0  0  0  0  0  0  0  0
   16.7980   38.2460   67.7770 H   0  0  0  0  0  0  0  0  0  0  0  0
   18.2490   37.2440   68.0210 H   0  0  0  0  0  0  0  0  0  0  0  0
   17.1440   37.6680   69.8360 C   0  0  0  0  0  0  0  0  0  0  0  0
   16.5630   38.5020   70.2280 H   0  0  0  0  0  0  0  0  0  0  0  0
   18.0140   37.5000   70.4720 H   0  0  0  0  0  0  0  0  0  0  0  0
   16.3120   36.4760   69.8880 N   0  0  0  0  0  0  0  0  0  0  0  0
   16.7420   35.5710   69.7610 H   0  0  0  0  0  0  0  0  0  0  0  0
   14.9180   36.5510   70.1120 C   0  0  0  0  0  0  0  0  0  0  0  0
   14.3680   37.6400   70.2610 O   0  0  0  0  0  0  0  0  0  0  0  0
   14.2440   35.3770   70.1600 N   0  0  0  0  0  0  0  0  0  0  0  0
   12.8090   35.2100   70.3810 C   0  0  0  0  0  0  0  0  0  0  0  0
   12.3520   34.8900   69.4440 H   0  0  0  0  0  0  0  0  0  0  0  0
   12.3920   36.1710   70.6790 H   0  0  0  0  0  0  0  0  0  0  0  0
   12.4790   34.1990   71.4390 C   0  0  0  0  0  0  0  0  0  0  0  0
   11.4010   34.0350   71.4420 H   0  0  0  0  0  0  0  0  0  0  0  0
   12.7890   34.5920   72.4070 H   0  0  0  0  0  0  0  0  0  0  0  0
   13.1660   32.8870   71.2090 C   0  0  0  0  0  0  0  0  0  0  0  0
   12.7280   32.5020   70.2880 H   0  0  0  0  0  0  0  0  0  0  0  0
   14.6190   33.0600   70.9750 C   0  0  0  0  0  0  0  0  0  0  0  0
   15.0290   32.1140   70.6200 H   0  0  0  0  0  0  0  0  0  0  0  0
   15.0940   33.3310   71.9170 H   0  0  0  0  0  0  0  0  0  0  0  0
   14.9200   34.1230   69.9630 C   0  0  0  0  0  0  0  0  0  0  0  0
   15.9930   34.3140   69.9850 H   0  0  0  0  0  0  0  0  0  0  0  0
   14.6400   33.7420   68.9810 H   0  0  0  0  0  0  0  0  0  0  0  0
   12.8690   31.8540   72.1800 N   0  0  0  0  0  0  0  0  0  0  0  0
   11.9020   31.7780   72.4620 H   0  0  0  0  0  0  0  0  0  0  0  0
   13.7030   30.9990   72.7440 C   0  0  0  0  0  0  0  0  0  0  0  0
   14.9970   31.2260   72.6570 N   0  0  0  0  0  0  0  0  0  0  0  0
   15.7960   30.3520   73.2490 C   0  0  0  0  0  0  0  0  0  0  0  0
   15.2800   29.2540   73.9150 C   0  0  0  0  0  0  0  0  0  0  0  0
   13.8900   29.1020   73.9380 C   0  0  0  0  0  0  0  0  0  0  0  0
   13.4560   28.2500   74.4420 H   0  0  0  0  0  0  0  0  0  0  0  0
   13.1040   29.9800   73.3550 N   0  0  0  0  0  0  0  0  0  0  0  0
   17.2160   30.6100   73.1620 C   0  0  0  0  0  0  0  0  0  0  0  0
   18.2370   29.7700   73.3680 C   0  0  0  0  0  0  0  0  0  0  0  0
   18.1040   28.7310   73.6300 H   0  0  0  0  0  0  0  0  0  0  0  0
   19.4390   30.3410   73.2170 N   0  0  0  0  0  0  0  0  0  0  0  0
   20.3320   29.8760   73.3020 H   0  0  0  0  0  0  0  0  0  0  0  0
   19.2490   31.6400   72.9350 C   0  0  0  0  0  0  0  0  0  0  0  0
   17.8610   31.8690   72.8780 C   0  0  0  0  0  0  0  0  0  0  0  0
   17.3810   33.1400   72.5970 C   0  0  0  0  0  0  0  0  0  0  0  0
   16.3220   33.3460   72.5520 H   0  0  0  0  0  0  0  0  0  0  0  0
   18.3210   34.1320   72.3770 C   0  0  0  0  0  0  0  0  0  0  0  0
   17.9730   35.1330   72.1670 H   0  0  0  0  0  0  0  0  0  0  0  0
   19.6820   33.9040   72.4130 C   0  0  0  0  0  0  0  0  0  0  0  0
   20.3740   34.7070   72.2060 H   0  0  0  0  0  0  0  0  0  0  0  0
   20.1540   32.6470   72.7130 C   0  0  0  0  0  0  0  0  0  0  0  0
   21.2150   32.4570   72.7730 H   0  0  0  0  0  0  0  0  0  0  0  0
   16.4290   27.7830   74.8500 I   0  0  0  0  0  0  0  0  0  0  0  0
  1  2  1  0  0  0  0
  1  5  1  0  0  0  0
  3  1  1  0  0  0  0
  4  1  1  0  0  0  0
  5  8  1  0  0  0  0
  5  6  1  0  0  0  0
  5  7  1  0  0  0  0
  8 10  1  0  0  0  0
  9  8  1  0  0  0  0
 10 12  1  0  0  0  0
 10 11  2  0  0  0  0
 12 13  1  0  0  0  0
 13 15  1  0  0  0  0
 13 16  1  0  0  0  0
 14 13  1  0  0  0  0
 16 17  1  0  0  0  0
 16 18  1  0  0  0  0
 19 16  1  0  0  0  0
 19 27  1  0  0  0  0
 20 19  1  0  0  0  0
 21 19  1  0  0  0  0
 21 23  1  0  0  0  0
 22 21  1  0  0  0  0
 24 25  1  0  0  0  0
 24 12  1  0  0  0  0
 24 21  1  0  0  0  0
 26 24  1  0  0  0  0
 27 28  1  0  0  0  0
 27 29  1  0  0  0  0
 29 35  1  0  0  0  0
 30 29  2  0  0  0  0
 30 31  1  0  0  0  0
 31 32  2  0  0  0  0
 32 33  1  0  0  0  0
 32 51  1  0  0  0  0
 33 34  1  0  0  0  0
 35 33  2  0  0  0  0
 36 31  1  0  0  0  0
 36 37  2  0  0  0  0
 37 38  1  0  0  0  0
 39 40  1  0  0  0  0
 39 37  1  0  0  0  0
 41 39  1  0  0  0  0
 42 41  1  0  0  0  0
 42 36  1  0  0  0  0
 43 42  2  0  0  0  0
 44 43  1  0  0  0  0
 45 47  2  0  0  0  0
 45 43  1  0  0  0  0
 46 45  1  0  0  0  0
 47 49  1  0  0  0  0
 48 47  1  0  0  0  0
 49 50  1  0  0  0  0
 49 41  2  0  0  0  0
M  END
>  <Pose>
1

>  <Score>
-6.73

$$$$

 OpenBabel03092210513D

 51 54  0  0  0  0  0  0  0  0999 V2000
   10.8620   28.7190   75.4040 C   0  0  0  0  0  0  0  0  0  0  0  0
   10.1830   28.6490   76.2540 H   0  0  0  0  0  0  0  0  0  0  0  0
   11.7810   28.1780   75.6270 H   0  0  0  0  0  0  0  0  0  0  0  0
   10.3880   28.2840   74.5240 H   0  0  0  0  0  0  0  0  0  0  0  0
   11.1920   30.2020   75.1300 C   0  0  0  0  0  0  0  0  0  0  0  0
   11.6490   30.6170   76.0280 H   0  0  0  0  0  0  0  0  0  0  0  0
   10.2560   30.7230   74.9250 H   0  0  0  0  0  0  0  0  0  0  0  0
   12.0930   30.4420   74.0140 N   0  0  0  0  0  0  0  0  0  0  0  0
   11.7490   30.9310   73.2010 H   0  0  0  0  0  0  0  0  0  0  0  0
   13.4390   30.0080   74.0390 C   0  0  0  0  0  0  0  0  0  0  0  0
   13.8820   29.4030   75.0130 O   0  0  0  0  0  0  0  0  0  0  0  0
   14.1940   30.3030   72.9530 N   0  0  0  0  0  0  0  0  0  0  0  0
   15.6010   29.9600   72.7580 C   0  0  0  0  0  0  0  0  0  0  0  0
   15.6640   29.1780   72.0010 H   0  0  0  0  0  0  0  0  0  0  0  0
   15.9990   29.5850   73.7010 H   0  0  0  0  0  0  0  0  0  0  0  0
   16.4450   31.1180   72.3130 C   0  0  0  0  0  0  0  0  0  0  0  0
   17.4390   30.7500   72.0580 H   0  0  0  0  0  0  0  0  0  0  0  0
   16.5210   31.8310   73.1340 H   0  0  0  0  0  0  0  0  0  0  0  0
   15.8680   31.8170   71.1190 C   0  0  0  0  0  0  0  0  0  0  0  0
   15.9260   31.0860   70.3130 H   0  0  0  0  0  0  0  0  0  0  0  0
   14.4390   32.1540   71.3150 C   0  0  0  0  0  0  0  0  0  0  0  0
   14.0220   32.4740   70.3600 H   0  0  0  0  0  0  0  0  0  0  0  0
   14.3690   32.9710   72.0340 H   0  0  0  0  0  0  0  0  0  0  0  0
   13.6350   30.9970   71.8250 C   0  0  0  0  0  0  0  0  0  0  0  0
   12.6530   31.3710   72.1140 H   0  0  0  0  0  0  0  0  0  0  0  0
   13.5250   30.2800   71.0110 H   0  0  0  0  0  0  0  0  0  0  0  0
   16.6480   32.9310   70.6180 N   0  0  0  0  0  0  0  0  0  0  0  0
   16.1230   33.7470   70.3390 H   0  0  0  0  0  0  0  0  0  0  0  0
   17.9590   33.0140   70.4810 C   0  0  0  0  0  0  0  0  0  0  0  0
   18.5470   34.1730   70.6960 N   0  0  0  0  0  0  0  0  0  0  0  0
   19.8630   34.2070   70.5630 C   0  0  0  0  0  0  0  0  0  0  0  0
   20.5720   33.0720   70.2050 C   0  0  0  0  0  0  0  0  0  0  0  0
   19.8480   31.8950   69.9900 C   0  0  0  0  0  0  0  0  0  0  0  0
   20.3700   30.9950   69.7010 H   0  0  0  0  0  0  0  0  0  0  0  0
   18.5410   31.8690   70.1340 N   0  0  0  0  0  0  0  0  0  0  0  0
   20.5070   35.4770   70.8100 C   0  0  0  0  0  0  0  0  0  0  0  0
   20.6030   36.1620   71.9550 C   0  0  0  0  0  0  0  0  0  0  0  0
   20.1900   35.8140   72.8900 H   0  0  0  0  0  0  0  0  0  0  0  0
   21.2610   37.3230   71.8320 N   0  0  0  0  0  0  0  0  0  0  0  0
   21.4650   37.9720   72.5780 H   0  0  0  0  0  0  0  0  0  0  0  0
   21.6030   37.4700   70.5420 C   0  0  0  0  0  0  0  0  0  0  0  0
   21.1600   36.3290   69.8460 C   0  0  0  0  0  0  0  0  0  0  0  0
   21.3880   36.2200   68.4820 C   0  0  0  0  0  0  0  0  0  0  0  0
   21.0550   35.3590   67.9220 H   0  0  0  0  0  0  0  0  0  0  0  0
   22.0610   37.2630   67.8710 C   0  0  0  0  0  0  0  0  0  0  0  0
   22.2420   37.2070   66.8080 H   0  0  0  0  0  0  0  0  0  0  0  0
   22.5140   38.3740   68.5570 C   0  0  0  0  0  0  0  0  0  0  0  0
   23.0590   39.1480   68.0370 H   0  0  0  0  0  0  0  0  0  0  0  0
   22.2670   38.4880   69.9050 C   0  0  0  0  0  0  0  0  0  0  0  0
   22.5880   39.3620   70.4510 H   0  0  0  0  0  0  0  0  0  0  0  0
   22.6380   33.0020   69.9200 I   0  0  0  0  0  0  0  0  0  0  0  0
  1  3  1  0  0  0  0
  1  2  1  0  0  0  0
  4  1  1  0  0  0  0
  5  1  1  0  0  0  0
  5  6  1  0  0  0  0
  7  5  1  0  0  0  0
  8 10  1  0  0  0  0
  8  5  1  0  0  0  0
  9  8  1  0  0  0  0
 10 11  2  0  0  0  0
 12 10  1  0  0  0  0
 13 12  1  0  0  0  0
 13 15  1  0  0  0  0
 14 13  1  0  0  0  0
 16 13  1  0  0  0  0
 16 18  1  0  0  0  0
 17 16  1  0  0  0  0
 19 21  1  0  0  0  0
 19 16  1  0  0  0  0
 20 19  1  0  0  0  0
 21 24  1  0  0  0  0
 21 23  1  0  0  0  0
 22 21  1  0  0  0  0
 24 25  1  0  0  0  0
 24 12  1  0  0  0  0
 26 24  1  0  0  0  0
 27 19  1  0  0  0  0
 28 27  1  0  0  0  0
 29 27  1  0  0  0  0
 29 30  2  0  0  0  0
 31 30  1  0  0  0  0
 31 36  1  0  0  0  0
 32 31  2  0  0  0  0
 33 35  2  0  0  0  0
 33 32  1  0  0  0  0
 34 33  1  0  0  0  0
 35 29  1  0  0  0  0
 36 37  2  0  0  0  0
 37 38  1  0  0  0  0
 39 37  1  0  0  0  0
 39 40  1  0  0  0  0
 41 39  1  0  0  0  0
 42 41  2  0  0  0  0
 42 36  1  0  0  0  0
 43 42  1  0  0  0  0
 44 43  1  0  0  0  0
 45 43  2  0  0  0  0
 45 47  1  0  0  0  0
 46 45  1  0  0  0  0
 47 49  2  0  0  0  0
 48 47  1  0  0  0  0
 49 50  1  0  0  0  0
 49 41  1  0  0  0  0
 51 32  1  0  0  0  0
M  END
>  <Pose>
1

>  <Score>
-6.49

$$$$
