
 OpenBabel03112215133D

 70 73  0  0  1  0  0  0  0  0999 V2000
   22.2370   80.0240   12.3080 C   0  0  0  0  0  0  0  0  0  0  0  0
   21.7470   78.7870   12.7240 C   0  0  0  0  0  0  0  0  0  0  0  0
   21.3330   78.0940   12.0060 H   0  0  0  0  0  0  0  0  0  0  0  0
   21.7970   78.4540   14.0700 C   0  0  0  0  0  0  0  0  0  0  0  0
   22.4170   79.3000   14.9670 C   0  0  0  0  0  0  0  0  0  0  0  0
   22.8850   80.5460   14.5600 C   0  0  0  0  0  0  0  0  0  0  0  0
   23.3100   81.2270   15.2820 H   0  0  0  0  0  0  0  0  0  0  0  0
   22.8040   80.9120   13.2190 C   0  0  0  0  0  0  0  0  0  0  0  0
   23.1760   81.8710   12.8890 H   0  0  0  0  0  0  0  0  0  0  0  0
   22.4790   78.9450   16.4220 N   0  0  0  0  0  0  0  0  0  0  0  0
   23.7630   78.9740   17.2140 C   0  0  0  0  0  0  0  0  0  0  0  0
   23.7170   78.2080   17.9890 H   0  0  0  0  0  0  0  0  0  0  0  0
   23.8690   79.9540   17.6790 H   0  0  0  0  0  0  0  0  0  0  0  0
   25.0130   78.7050   16.3070 C   0  0  0  0  0  0  0  0  0  0  0  0
   25.0500   79.3340   15.4180 H   0  0  0  0  0  0  0  0  0  0  0  0
   26.2860   79.0030   17.1650 C   0  0  0  0  0  0  0  0  0  0  0  0
   26.2730   78.3840   18.0620 H   0  0  0  0  0  0  0  0  0  0  0  0
   26.2940   80.0550   17.4490 H   0  0  0  0  0  0  0  0  0  0  0  0
   27.1790   78.7780   16.5810 H   0  0  0  0  0  0  0  0  0  0  0  0
   24.9340   77.2400   15.8640 C   0  0  0  0  0  0  0  0  0  0  0  0
   24.8970   76.5960   16.7430 H   0  0  0  0  0  0  0  0  0  0  0  0
   25.8140   76.9920   15.2690 H   0  0  0  0  0  0  0  0  0  0  0  0
   24.0360   77.0890   15.2650 H   0  0  0  0  0  0  0  0  0  0  0  0
   21.1320   78.8450   17.1190 C   0  0  0  0  0  0  0  0  0  0  0  0
   20.3310   78.4880   16.4720 H   0  0  0  0  0  0  0  0  0  0  0  0
   21.1420   77.8230   18.2510 C   0  0  0  0  0  0  0  0  0  0  0  0
   21.9670   78.0360   18.9310 H   0  0  0  0  0  0  0  0  0  0  0  0
   21.2590   76.8200   17.8400 H   0  0  0  0  0  0  0  0  0  0  0  0
   19.7990   77.9180   19.0160 C   0  0  0  0  0  0  0  0  0  0  0  0
   19.8280   77.2440   19.8710 H   0  0  0  0  0  0  0  0  0  0  0  0
   18.9890   77.6240   18.3490 H   0  0  0  0  0  0  0  0  0  0  0  0
   19.5440   79.3490   19.5140 C   0  0  0  0  0  0  0  0  0  0  0  0
   20.3070   79.5990   20.2520 H   0  0  0  0  0  0  0  0  0  0  0  0
   18.5610   79.3820   19.9820 H   0  0  0  0  0  0  0  0  0  0  0  0
   19.5870   80.4000   18.3950 C   0  0  0  0  0  0  0  0  0  0  0  0
   19.5150   81.3950   18.8320 H   0  0  0  0  0  0  0  0  0  0  0  0
   18.7480   80.2390   17.7180 H   0  0  0  0  0  0  0  0  0  0  0  0
   20.9070   80.2810   17.6100 C   0  0  0  0  0  0  0  0  0  0  0  0
   20.8690   80.9490   16.7490 H   0  0  0  0  0  0  0  0  0  0  0  0
   21.7340   80.5700   18.2580 H   0  0  0  0  0  0  0  0  0  0  0  0
   21.3730   77.1390   14.5260 N   0  0  0  0  0  0  0  0  0  0  0  0
   21.7270   76.7920   15.4060 H   0  0  0  0  0  0  0  0  0  0  0  0
   20.4610   76.3110   13.7640 C   0  0  0  0  0  0  0  0  0  0  0  0
   20.2540   75.0070   14.3710 N   0  0  0  0  0  0  0  0  0  0  0  0
   20.7280   74.7560   15.2270 H   0  0  0  0  0  0  0  0  0  0  0  0
   19.3490   74.0690   13.7200 C   0  0  0  0  0  0  0  0  0  0  0  0
   19.8230   72.7760   13.5080 C   0  0  0  0  0  0  0  0  0  0  0  0
   20.8140   72.4990   13.8360 H   0  0  0  0  0  0  0  0  0  0  0  0
   19.0110   71.8460   12.8730 C   0  0  0  0  0  0  0  0  0  0  0  0
   19.3510   70.8360   12.6980 H   0  0  0  0  0  0  0  0  0  0  0  0
   17.7400   72.2580   12.4670 C   0  0  0  0  0  0  0  0  0  0  0  0
   17.2860   73.5540   12.6750 C   0  0  0  0  0  0  0  0  0  0  0  0
   16.2990   73.8380   12.3390 H   0  0  0  0  0  0  0  0  0  0  0  0
   18.0890   74.4810   13.3100 C   0  0  0  0  0  0  0  0  0  0  0  0
   17.7490   75.4920   13.4810 H   0  0  0  0  0  0  0  0  0  0  0  0
   16.8170   71.2460   11.7580 C   0  0  0  0  0  0  0  0  0  0  0  0
   17.3260   70.2850   11.6770 H   0  0  0  0  0  0  0  0  0  0  0  0
   16.5740   71.6130   10.7610 H   0  0  0  0  0  0  0  0  0  0  0  0
   15.9000   71.1250   12.3340 H   0  0  0  0  0  0  0  0  0  0  0  0
   19.9170   76.7110   12.7800 O   0  0  0  0  0  0  0  0  0  0  0  0
   22.1430   80.4200   10.8080 C   0  0  1  0  0  0  0  0  0  0  0  0
   22.6460   81.2750   11.2600 H   0  0  0  0  0  0  0  0  0  0  0  0
   22.3640   79.6250    9.5180 C   0  0  0  0  0  0  0  0  0  0  0  0
   22.5630   78.5540    9.5650 H   0  0  0  0  0  0  0  0  0  0  0  0
   22.9320   80.0640    8.6970 H   0  0  0  0  0  0  0  0  0  0  0  0
   20.9760   80.1570    9.8540 C   0  0  1  0  0  0  0  0  0  0  0  0
   20.2460   80.7730    9.3280 H   0  0  0  0  0  0  0  0  0  0  0  0
   19.9450   79.1250   10.3460 C   0  0  0  0  0  0  0  0  0  0  0  0
   19.8570   77.9730    9.8270 O   0  0  0  0  0  0  0  0  0  0  0  0
   19.1690   79.4430   11.2830 O   0  0  0  0  0  0  0  0  0  0  0  0
  1  2  2  0  0  0  0
  1  8  1  0  0  0  0
  2  4  1  0  0  0  0
  3  2  1  0  0  0  0
  4 41  1  0  0  0  0
  4  5  2  0  0  0  0
  5 10  1  0  0  0  0
  6  5  1  0  0  0  0
  6  7  1  0  0  0  0
  8  6  2  0  0  0  0
  9  8  1  0  0  0  0
 10 24  1  0  0  0  0
 10 11  1  0  0  0  0
 11 13  1  0  0  0  0
 11 12  1  0  0  0  0
 14 16  1  0  0  0  0
 14 11  1  0  0  0  0
 15 14  1  0  0  0  0
 16 18  1  0  0  0  0
 16 17  1  0  0  0  0
 19 16  1  0  0  0  0
 20 14  1  0  0  0  0
 20 21  1  0  0  0  0
 22 20  1  0  0  0  0
 23 20  1  0  0  0  0
 24 38  1  0  0  0  0
 24 26  1  0  0  0  0
 25 24  1  0  0  0  0
 26 27  1  0  0  0  0
 26 29  1  0  0  0  0
 28 26  1  0  0  0  0
 29 32  1  0  0  0  0
 29 30  1  0  0  0  0
 31 29  1  0  0  0  0
 32 34  1  0  0  0  0
 32 33  1  0  0  0  0
 35 36  1  0  0  0  0
 35 32  1  0  0  0  0
 37 35  1  0  0  0  0
 38 40  1  0  0  0  0
 38 35  1  0  0  0  0
 39 38  1  0  0  0  0
 41 42  1  0  0  0  0
 43 44  1  0  0  0  0
 43 41  1  0  0  0  0
 44 45  1  0  0  0  0
 46 44  1  0  0  0  0
 47 46  1  0  0  0  0
 47 48  1  0  0  0  0
 49 47  2  0  0  0  0
 50 49  1  0  0  0  0
 51 52  2  0  0  0  0
 51 49  1  0  0  0  0
 52 54  1  0  0  0  0
 53 52  1  0  0  0  0
 54 55  1  0  0  0  0
 54 46  2  0  0  0  0
 56 59  1  0  0  0  0
 56 51  1  0  0  0  0
 57 56  1  0  0  0  0
 58 56  1  0  0  0  0
 60 43  2  0  0  0  0
 61 62  1  6  0  0  0
 61  1  1  0  0  0  0
 63 64  1  0  0  0  0
 63 66  1  0  0  0  0
 63 61  1  0  0  0  0
 65 63  1  0  0  0  0
 66 67  1  6  0  0  0
 66 68  1  0  0  0  0
 66 61  1  0  0  0  0
 68 70  1  0  0  0  0
 69 68  2  0  0  0  0
M  END
>  <Pose>
6

>  <Score>
-8.76

$$$$

 OpenBabel03112215133D

 70 73  0  0  1  0  0  0  0  0999 V2000
   21.6040   79.4690   12.2080 C   0  0  0  0  0  0  0  0  0  0  0  0
   21.1950   78.1850   12.5650 C   0  0  0  0  0  0  0  0  0  0  0  0
   20.7610   77.5260   11.8270 H   0  0  0  0  0  0  0  0  0  0  0  0
   21.3520   77.7610   13.8760 C   0  0  0  0  0  0  0  0  0  0  0  0
   21.9970   78.5710   14.7890 C   0  0  0  0  0  0  0  0  0  0  0  0
   22.3840   79.8610   14.4440 C   0  0  0  0  0  0  0  0  0  0  0  0
   22.8300   80.5090   15.1840 H   0  0  0  0  0  0  0  0  0  0  0  0
   22.1950   80.3160   13.1410 C   0  0  0  0  0  0  0  0  0  0  0  0
   22.5040   81.3120   12.8590 H   0  0  0  0  0  0  0  0  0  0  0  0
   22.1750   78.1170   16.2070 N   0  0  0  0  0  0  0  0  0  0  0  0
   23.5310   77.8680   16.8200 C   0  0  0  0  0  0  0  0  0  0  0  0
   23.5470   76.8650   17.2460 H   0  0  0  0  0  0  0  0  0  0  0  0
   23.7020   78.6010   17.6080 H   0  0  0  0  0  0  0  0  0  0  0  0
   24.6800   77.9870   15.7590 C   0  0  0  0  0  0  0  0  0  0  0  0
   24.3970   78.5550   14.8730 H   0  0  0  0  0  0  0  0  0  0  0  0
   25.8760   78.7240   16.4450 C   0  0  0  0  0  0  0  0  0  0  0  0
   26.1790   78.1740   17.3360 H   0  0  0  0  0  0  0  0  0  0  0  0
   25.5690   79.7310   16.7270 H   0  0  0  0  0  0  0  0  0  0  0  0
   26.7150   78.7800   15.7510 H   0  0  0  0  0  0  0  0  0  0  0  0
   25.0380   76.5600   15.3290 C   0  0  0  0  0  0  0  0  0  0  0  0
   25.3240   75.9780   16.2040 H   0  0  0  0  0  0  0  0  0  0  0  0
   25.8710   76.5910   14.6260 H   0  0  0  0  0  0  0  0  0  0  0  0
   24.1750   76.0980   14.8500 H   0  0  0  0  0  0  0  0  0  0  0  0
   20.9310   78.2130   17.0750 C   0  0  0  0  0  0  0  0  0  0  0  0
   20.0380   77.8020   16.6040 H   0  0  0  0  0  0  0  0  0  0  0  0
   21.0540   77.3930   18.3550 C   0  0  0  0  0  0  0  0  0  0  0  0
   21.9700   77.6660   18.8790 H   0  0  0  0  0  0  0  0  0  0  0  0
   21.0790   76.3310   18.1100 H   0  0  0  0  0  0  0  0  0  0  0  0
   19.8310   77.6910   19.2550 C   0  0  0  0  0  0  0  0  0  0  0  0
   19.9500   77.1660   20.2020 H   0  0  0  0  0  0  0  0  0  0  0  0
   18.9280   77.3400   18.7550 H   0  0  0  0  0  0  0  0  0  0  0  0
   19.6980   79.1970   19.5290 C   0  0  0  0  0  0  0  0  0  0  0  0
   20.5610   79.5210   20.1110 H   0  0  0  0  0  0  0  0  0  0  0  0
   18.7870   79.3650   20.1050 H   0  0  0  0  0  0  0  0  0  0  0  0
   19.6280   80.0450   18.2510 C   0  0  0  0  0  0  0  0  0  0  0  0
   19.6520   81.1010   18.5160 H   0  0  0  0  0  0  0  0  0  0  0  0
   18.7010   79.8240   17.7220 H   0  0  0  0  0  0  0  0  0  0  0  0
   20.8260   79.7210   17.3370 C   0  0  0  0  0  0  0  0  0  0  0  0
   20.6980   80.2390   16.3870 H   0  0  0  0  0  0  0  0  0  0  0  0
   21.7420   80.0640   17.8170 H   0  0  0  0  0  0  0  0  0  0  0  0
   21.0140   76.4000   14.2620 N   0  0  0  0  0  0  0  0  0  0  0  0
   21.4490   76.0050   15.0840 H   0  0  0  0  0  0  0  0  0  0  0  0
   20.0780   75.5900   13.5110 C   0  0  0  0  0  0  0  0  0  0  0  0
   19.9690   74.2380   14.0310 N   0  0  0  0  0  0  0  0  0  0  0  0
   20.5170   73.9470   14.8280 H   0  0  0  0  0  0  0  0  0  0  0  0
   19.0530   73.3110   13.3810 C   0  0  0  0  0  0  0  0  0  0  0  0
   17.7090   73.6760   13.3360 C   0  0  0  0  0  0  0  0  0  0  0  0
   17.3860   74.6160   13.7580 H   0  0  0  0  0  0  0  0  0  0  0  0
   16.7870   72.8200   12.7460 C   0  0  0  0  0  0  0  0  0  0  0  0
   15.7400   73.0780   12.6960 H   0  0  0  0  0  0  0  0  0  0  0  0
   17.2580   71.6160   12.2210 C   0  0  0  0  0  0  0  0  0  0  0  0
   18.6000   71.2610   12.2820 C   0  0  0  0  0  0  0  0  0  0  0  0
   18.9250   70.3160   11.8720 H   0  0  0  0  0  0  0  0  0  0  0  0
   19.5200   72.1100   12.8650 C   0  0  0  0  0  0  0  0  0  0  0  0
   20.5660   71.8490   12.9170 H   0  0  0  0  0  0  0  0  0  0  0  0
   16.2570   70.6460   11.5610 C   0  0  0  0  0  0  0  0  0  0  0  0
   15.2560   71.0770   11.5970 H   0  0  0  0  0  0  0  0  0  0  0  0
   16.2630   69.6970   12.0960 H   0  0  0  0  0  0  0  0  0  0  0  0
   16.5430   70.4790   10.5220 H   0  0  0  0  0  0  0  0  0  0  0  0
   19.4440   76.0350   12.6030 O   0  0  0  0  0  0  0  0  0  0  0  0
   21.3890   79.9650   10.7500 C   0  0  1  0  0  0  0  0  0  0  0  0
   20.3740   79.9000   11.1430 H   0  0  0  0  0  0  0  0  0  0  0  0
   22.1280   81.0010    9.8970 C   0  0  0  0  0  0  0  0  0  0  0  0
   23.0280   81.4810   10.2810 H   0  0  0  0  0  0  0  0  0  0  0  0
   21.5640   81.7140    9.2960 H   0  0  0  0  0  0  0  0  0  0  0  0
   22.1590   79.5280    9.5030 C   0  0  1  0  0  0  0  0  0  0  0  0
   21.9200   78.9760    8.5940 H   0  0  0  0  0  0  0  0  0  0  0  0
   23.4720   78.7720    9.7720 C   0  0  0  0  0  0  0  0  0  0  0  0
   24.5880   79.2080    9.3580 O   0  0  0  0  0  0  0  0  0  0  0  0
   23.4290   77.6920   10.4140 O   0  0  0  0  0  0  0  0  0  0  0  0
  1  2  2  0  0  0  0
  1  8  1  0  0  0  0
  2  4  1  0  0  0  0
  3  2  1  0  0  0  0
  4 41  1  0  0  0  0
  4  5  2  0  0  0  0
  5 10  1  0  0  0  0
  6  5  1  0  0  0  0
  6  7  1  0  0  0  0
  8  6  2  0  0  0  0
  9  8  1  0  0  0  0
 10 11  1  0  0  0  0
 10 24  1  0  0  0  0
 11 12  1  0  0  0  0
 11 13  1  0  0  0  0
 14 16  1  0  0  0  0
 14 11  1  0  0  0  0
 15 14  1  0  0  0  0
 16 18  1  0  0  0  0
 16 17  1  0  0  0  0
 19 16  1  0  0  0  0
 20 14  1  0  0  0  0
 20 21  1  0  0  0  0
 22 20  1  0  0  0  0
 23 20  1  0  0  0  0
 24 38  1  0  0  0  0
 24 26  1  0  0  0  0
 25 24  1  0  0  0  0
 26 27  1  0  0  0  0
 26 29  1  0  0  0  0
 28 26  1  0  0  0  0
 29 32  1  0  0  0  0
 29 30  1  0  0  0  0
 31 29  1  0  0  0  0
 32 34  1  0  0  0  0
 32 33  1  0  0  0  0
 35 36  1  0  0  0  0
 35 32  1  0  0  0  0
 37 35  1  0  0  0  0
 38 40  1  0  0  0  0
 38 35  1  0  0  0  0
 39 38  1  0  0  0  0
 41 42  1  0  0  0  0
 43 44  1  0  0  0  0
 43 41  1  0  0  0  0
 44 45  1  0  0  0  0
 46 44  1  0  0  0  0
 47 46  1  0  0  0  0
 47 48  1  0  0  0  0
 49 47  2  0  0  0  0
 50 49  1  0  0  0  0
 51 52  2  0  0  0  0
 51 49  1  0  0  0  0
 52 54  1  0  0  0  0
 53 52  1  0  0  0  0
 54 55  1  0  0  0  0
 54 46  2  0  0  0  0
 56 57  1  0  0  0  0
 56 58  1  0  0  0  0
 56 51  1  0  0  0  0
 59 56  1  0  0  0  0
 60 43  2  0  0  0  0
 61 62  1  6  0  0  0
 61  1  1  0  0  0  0
 63 64  1  0  0  0  0
 63 61  1  0  0  0  0
 65 63  1  0  0  0  0
 66 67  1  6  0  0  0
 66 68  1  0  0  0  0
 66 63  1  0  0  0  0
 66 61  1  0  0  0  0
 68 70  1  0  0  0  0
 69 68  2  0  0  0  0
M  END
>  <Pose>
1

>  <Score>
-8.11

$$$$

 OpenBabel03112215133D

 70 73  0  0  1  0  0  0  0  0999 V2000
   20.1330   78.9310   17.4520 C   0  0  0  0  0  0  0  0  0  0  0  0
   20.2490   77.7430   16.7320 C   0  0  0  0  0  0  0  0  0  0  0  0
   19.6730   76.8750   17.0170 H   0  0  0  0  0  0  0  0  0  0  0  0
   21.1110   77.6870   15.6470 C   0  0  0  0  0  0  0  0  0  0  0  0
   21.7680   78.8270   15.2290 C   0  0  0  0  0  0  0  0  0  0  0  0
   21.6740   80.0080   15.9590 C   0  0  0  0  0  0  0  0  0  0  0  0
   22.2430   80.8760   15.6590 H   0  0  0  0  0  0  0  0  0  0  0  0
   20.8440   80.0680   17.0750 C   0  0  0  0  0  0  0  0  0  0  0  0
   20.7530   80.9830   17.6420 H   0  0  0  0  0  0  0  0  0  0  0  0
   22.6970   78.7760   14.0540 N   0  0  0  0  0  0  0  0  0  0  0  0
   24.1770   78.5130   14.1950 C   0  0  0  0  0  0  0  0  0  0  0  0
   24.7110   79.4620   14.1370 H   0  0  0  0  0  0  0  0  0  0  0  0
   24.5000   77.8650   13.3810 H   0  0  0  0  0  0  0  0  0  0  0  0
   24.5180   77.8220   15.5610 C   0  0  0  0  0  0  0  0  0  0  0  0
   23.6650   77.7430   16.2340 H   0  0  0  0  0  0  0  0  0  0  0  0
   25.0170   76.3750   15.2400 C   0  0  0  0  0  0  0  0  0  0  0  0
   25.8730   76.4270   14.5670 H   0  0  0  0  0  0  0  0  0  0  0  0
   24.2150   75.8110   14.7660 H   0  0  0  0  0  0  0  0  0  0  0  0
   25.3130   75.8800   16.1650 H   0  0  0  0  0  0  0  0  0  0  0  0
   25.5950   78.6780   16.2370 C   0  0  0  0  0  0  0  0  0  0  0  0
   26.4570   78.7670   15.5750 H   0  0  0  0  0  0  0  0  0  0  0  0
   25.9000   78.2070   17.1710 H   0  0  0  0  0  0  0  0  0  0  0  0
   25.1930   79.6700   16.4450 H   0  0  0  0  0  0  0  0  0  0  0  0
   22.0170   78.7050   12.6970 C   0  0  0  0  0  0  0  0  0  0  0  0
   21.2870   77.9000   12.6160 H   0  0  0  0  0  0  0  0  0  0  0  0
   21.1900   79.9520   12.3990 C   0  0  0  0  0  0  0  0  0  0  0  0
   21.8070   80.8410   12.5290 H   0  0  0  0  0  0  0  0  0  0  0  0
   20.3390   79.9990   13.0780 H   0  0  0  0  0  0  0  0  0  0  0  0
   20.6880   79.8750   10.9370 C   0  0  0  0  0  0  0  0  0  0  0  0
   20.1600   80.7970   10.6940 H   0  0  0  0  0  0  0  0  0  0  0  0
   20.0080   79.0300   10.8390 H   0  0  0  0  0  0  0  0  0  0  0  0
   21.8580   79.6940    9.9570 C   0  0  0  0  0  0  0  0  0  0  0  0
   22.4810   80.5880    9.9930 H   0  0  0  0  0  0  0  0  0  0  0  0
   21.4520   79.5760    8.9520 H   0  0  0  0  0  0  0  0  0  0  0  0
   22.7350   78.4750   10.2750 C   0  0  0  0  0  0  0  0  0  0  0  0
   23.6040   78.4740    9.6170 H   0  0  0  0  0  0  0  0  0  0  0  0
   22.1570   77.5640   10.1150 H   0  0  0  0  0  0  0  0  0  0  0  0
   23.2050   78.5300   11.7410 C   0  0  0  0  0  0  0  0  0  0  0  0
   23.7230   77.6030   11.9830 H   0  0  0  0  0  0  0  0  0  0  0  0
   23.8880   79.3710   11.8640 H   0  0  0  0  0  0  0  0  0  0  0  0
   21.1930   76.4910   14.8240 N   0  0  0  0  0  0  0  0  0  0  0  0
   22.0880   76.2250   14.4400 H   0  0  0  0  0  0  0  0  0  0  0  0
   20.0380   75.6660   14.5370 C   0  0  0  0  0  0  0  0  0  0  0  0
   20.3430   74.5790   13.6230 N   0  0  0  0  0  0  0  0  0  0  0  0
   21.2750   74.4640   13.2520 H   0  0  0  0  0  0  0  0  0  0  0  0
   19.2760   73.6580   13.2520 C   0  0  0  0  0  0  0  0  0  0  0  0
   19.5470   72.2960   13.3690 C   0  0  0  0  0  0  0  0  0  0  0  0
   20.5060   71.9620   13.7360 H   0  0  0  0  0  0  0  0  0  0  0  0
   18.5740   71.3730   13.0090 C   0  0  0  0  0  0  0  0  0  0  0  0
   18.7550   70.3110   13.0910 H   0  0  0  0  0  0  0  0  0  0  0  0
   17.3540   71.8610   12.5380 C   0  0  0  0  0  0  0  0  0  0  0  0
   17.1020   73.2210   12.4160 C   0  0  0  0  0  0  0  0  0  0  0  0
   16.1490   73.5600   12.0390 H   0  0  0  0  0  0  0  0  0  0  0  0
   18.0660   74.1430   12.7760 C   0  0  0  0  0  0  0  0  0  0  0  0
   17.8840   75.2040   12.6900 H   0  0  0  0  0  0  0  0  0  0  0  0
   16.2550   70.8570   12.1300 C   0  0  0  0  0  0  0  0  0  0  0  0
   16.6150   69.8410   12.2880 H   0  0  0  0  0  0  0  0  0  0  0  0
   16.0090   70.9960   11.0780 H   0  0  0  0  0  0  0  0  0  0  0  0
   15.3660   71.0260   12.7370 H   0  0  0  0  0  0  0  0  0  0  0  0
   18.9800   75.8580   15.0560 O   0  0  0  0  0  0  0  0  0  0  0  0
   19.2020   78.9860   18.6960 C   0  0  1  0  0  0  0  0  0  0  0  0
   18.6420   78.3700   17.9930 H   0  0  0  0  0  0  0  0  0  0  0  0
   19.4870   78.8850   20.1980 C   0  0  0  0  0  0  0  0  0  0  0  0
   20.5150   78.8300   20.5550 H   0  0  0  0  0  0  0  0  0  0  0  0
   18.8480   78.2720   20.8330 H   0  0  0  0  0  0  0  0  0  0  0  0
   18.9530   80.1870   19.6110 C   0  0  1  0  0  0  0  0  0  0  0  0
   18.1040   80.8330   19.8330 H   0  0  0  0  0  0  0  0  0  0  0  0
   19.9610   81.3410   19.4700 C   0  0  0  0  0  0  0  0  0  0  0  0
   21.0800   81.3240   20.0640 O   0  0  0  0  0  0  0  0  0  0  0  0
   19.6580   82.3260   18.7500 O   0  0  0  0  0  0  0  0  0  0  0  0
  1 61  1  0  0  0  0
  2  3  1  0  0  0  0
  2  1  2  0  0  0  0
  4  2  1  0  0  0  0
  5  4  2  0  0  0  0
  5  6  1  0  0  0  0
  6  8  2  0  0  0  0
  7  6  1  0  0  0  0
  8  1  1  0  0  0  0
  8  9  1  0  0  0  0
 10 11  1  0  0  0  0
 10  5  1  0  0  0  0
 11 14  1  0  0  0  0
 12 11  1  0  0  0  0
 13 11  1  0  0  0  0
 14 15  1  0  0  0  0
 14 20  1  0  0  0  0
 16 14  1  0  0  0  0
 16 19  1  0  0  0  0
 17 16  1  0  0  0  0
 18 16  1  0  0  0  0
 20 23  1  0  0  0  0
 20 22  1  0  0  0  0
 21 20  1  0  0  0  0
 24 10  1  0  0  0  0
 25 24  1  0  0  0  0
 26 27  1  0  0  0  0
 26 24  1  0  0  0  0
 26 28  1  0  0  0  0
 29 26  1  0  0  0  0
 30 29  1  0  0  0  0
 31 29  1  0  0  0  0
 32 33  1  0  0  0  0
 32 35  1  0  0  0  0
 32 29  1  0  0  0  0
 34 32  1  0  0  0  0
 35 38  1  0  0  0  0
 36 35  1  0  0  0  0
 37 35  1  0  0  0  0
 38 40  1  0  0  0  0
 38 39  1  0  0  0  0
 38 24  1  0  0  0  0
 41  4  1  0  0  0  0
 42 41  1  0  0  0  0
 43 41  1  0  0  0  0
 43 60  2  0  0  0  0
 44 43  1  0  0  0  0
 45 44  1  0  0  0  0
 46 47  1  0  0  0  0
 46 44  1  0  0  0  0
 47 48  1  0  0  0  0
 49 50  1  0  0  0  0
 49 47  2  0  0  0  0
 51 49  1  0  0  0  0
 52 51  2  0  0  0  0
 52 54  1  0  0  0  0
 53 52  1  0  0  0  0
 54 46  2  0  0  0  0
 55 54  1  0  0  0  0
 56 57  1  0  0  0  0
 56 51  1  0  0  0  0
 56 59  1  0  0  0  0
 58 56  1  0  0  0  0
 61 62  1  6  0  0  0
 61 66  1  0  0  0  0
 61 63  1  0  0  0  0
 63 64  1  0  0  0  0
 63 65  1  0  0  0  0
 66 67  1  1  0  0  0
 66 63  1  0  0  0  0
 68 66  1  0  0  0  0
 68 69  1  0  0  0  0
 70 68  2  0  0  0  0
M  END
>  <Pose>
1

>  <Score>
-7.66

$$$$

 OpenBabel03112215133D

 70 73  0  0  1  0  0  0  0  0999 V2000
   20.0280   79.3840   17.5390 C   0  0  0  0  0  0  0  0  0  0  0  0
   20.2250   78.1810   16.8630 C   0  0  0  0  0  0  0  0  0  0  0  0
   19.6140   77.3210   17.0900 H   0  0  0  0  0  0  0  0  0  0  0  0
   21.2150   78.1000   15.8940 C   0  0  0  0  0  0  0  0  0  0  0  0
   21.9260   79.2290   15.5400 C   0  0  0  0  0  0  0  0  0  0  0  0
   21.7490   80.4250   16.2290 C   0  0  0  0  0  0  0  0  0  0  0  0
   22.3560   81.2840   15.9860 H   0  0  0  0  0  0  0  0  0  0  0  0
   20.7880   80.5100   17.2330 C   0  0  0  0  0  0  0  0  0  0  0  0
   20.6330   81.4360   17.7660 H   0  0  0  0  0  0  0  0  0  0  0  0
   22.9940   79.1510   14.4900 N   0  0  0  0  0  0  0  0  0  0  0  0
   22.8600   79.8110   13.1400 C   0  0  0  0  0  0  0  0  0  0  0  0
   23.8070   80.2860   12.8840 H   0  0  0  0  0  0  0  0  0  0  0  0
   22.0770   80.5680   13.1930 H   0  0  0  0  0  0  0  0  0  0  0  0
   22.4920   78.7770   12.0200 C   0  0  0  0  0  0  0  0  0  0  0  0
   23.0770   77.8580   12.0670 H   0  0  0  0  0  0  0  0  0  0  0  0
   20.9850   78.4010   12.2080 C   0  0  0  0  0  0  0  0  0  0  0  0
   20.3770   79.3050   12.1650 H   0  0  0  0  0  0  0  0  0  0  0  0
   20.8490   77.9170   13.1750 H   0  0  0  0  0  0  0  0  0  0  0  0
   20.6790   77.7200   11.4140 H   0  0  0  0  0  0  0  0  0  0  0  0
   22.7630   79.4600   10.6760 C   0  0  0  0  0  0  0  0  0  0  0  0
   22.1840   80.3820   10.6130 H   0  0  0  0  0  0  0  0  0  0  0  0
   22.4730   78.7930    9.8640 H   0  0  0  0  0  0  0  0  0  0  0  0
   23.8250   79.6920   10.5940 H   0  0  0  0  0  0  0  0  0  0  0  0
   24.3360   78.6250   14.9740 C   0  0  0  0  0  0  0  0  0  0  0  0
   25.1660   78.8800   14.3160 H   0  0  0  0  0  0  0  0  0  0  0  0
   24.7500   79.2380   16.3080 C   0  0  0  0  0  0  0  0  0  0  0  0
   23.9480   79.1120   17.0350 H   0  0  0  0  0  0  0  0  0  0  0  0
   24.9570   80.3000   16.1760 H   0  0  0  0  0  0  0  0  0  0  0  0
   26.0250   78.5170   16.8080 C   0  0  0  0  0  0  0  0  0  0  0  0
   26.2840   78.8980   17.7960 H   0  0  0  0  0  0  0  0  0  0  0  0
   26.8420   78.7170   16.1150 H   0  0  0  0  0  0  0  0  0  0  0  0
   25.8050   76.9990   16.8980 C   0  0  0  0  0  0  0  0  0  0  0  0
   25.0530   76.8030   17.6620 H   0  0  0  0  0  0  0  0  0  0  0  0
   26.7460   76.5300   17.1860 H   0  0  0  0  0  0  0  0  0  0  0  0
   25.3330   76.3730   15.5780 C   0  0  0  0  0  0  0  0  0  0  0  0
   25.0870   75.3240   15.7440 H   0  0  0  0  0  0  0  0  0  0  0  0
   26.1300   76.4470   14.8390 H   0  0  0  0  0  0  0  0  0  0  0  0
   24.0860   77.1130   15.0590 C   0  0  0  0  0  0  0  0  0  0  0  0
   23.8360   76.7370   14.0670 H   0  0  0  0  0  0  0  0  0  0  0  0
   23.2540   76.9280   15.7380 H   0  0  0  0  0  0  0  0  0  0  0  0
   21.3910   76.8870   15.1110 N   0  0  0  0  0  0  0  0  0  0  0  0
   22.3230   76.6230   14.8250 H   0  0  0  0  0  0  0  0  0  0  0  0
   20.2780   76.0440   14.7270 C   0  0  0  0  0  0  0  0  0  0  0  0
   20.6850   74.9410   13.8720 N   0  0  0  0  0  0  0  0  0  0  0  0
   21.6510   74.8290   13.6010 H   0  0  0  0  0  0  0  0  0  0  0  0
   19.6700   74.0010   13.4160 C   0  0  0  0  0  0  0  0  0  0  0  0
   19.9280   72.6460   13.6140 C   0  0  0  0  0  0  0  0  0  0  0  0
   20.8380   72.3310   14.1020 H   0  0  0  0  0  0  0  0  0  0  0  0
   19.0040   71.7040   13.1800 C   0  0  0  0  0  0  0  0  0  0  0  0
   19.1770   70.6470   13.3230 H   0  0  0  0  0  0  0  0  0  0  0  0
   17.8460   72.1670   12.5530 C   0  0  0  0  0  0  0  0  0  0  0  0
   17.6080   73.5200   12.3520 C   0  0  0  0  0  0  0  0  0  0  0  0
   16.7040   73.8390   11.8550 H   0  0  0  0  0  0  0  0  0  0  0  0
   18.5220   74.4600   12.7850 C   0  0  0  0  0  0  0  0  0  0  0  0
   18.3500   75.5160   12.6390 H   0  0  0  0  0  0  0  0  0  0  0  0
   16.8040   71.1420   12.0590 C   0  0  0  0  0  0  0  0  0  0  0  0
   17.1450   70.1340   12.2950 H   0  0  0  0  0  0  0  0  0  0  0  0
   16.6800   71.2400   10.9810 H   0  0  0  0  0  0  0  0  0  0  0  0
   15.8490   71.3280   12.5530 H   0  0  0  0  0  0  0  0  0  0  0  0
   19.1720   76.2360   15.1310 O   0  0  0  0  0  0  0  0  0  0  0  0
   18.9510   79.4670   18.6570 C   0  0  1  0  0  0  0  0  0  0  0  0
   18.4070   79.0280   17.8200 H   0  0  0  0  0  0  0  0  0  0  0  0
   19.0010   79.1650   20.1590 C   0  0  0  0  0  0  0  0  0  0  0  0
   19.9480   78.9010   20.6300 H   0  0  0  0  0  0  0  0  0  0  0  0
   18.1930   78.6060   20.6300 H   0  0  0  0  0  0  0  0  0  0  0  0
   18.7620   80.5920   19.6770 C   0  0  1  0  0  0  0  0  0  0  0  0
   17.9990   81.3450   19.8710 H   0  0  0  0  0  0  0  0  0  0  0  0
   19.9440   81.5680   19.8040 C   0  0  0  0  0  0  0  0  0  0  0  0
   21.0520   81.2090   20.3050 O   0  0  0  0  0  0  0  0  0  0  0  0
   19.8000   82.7520   19.4060 O   0  0  0  0  0  0  0  0  0  0  0  0
  1 61  1  0  0  0  0
  2  3  1  0  0  0  0
  2  1  2  0  0  0  0
  4  2  1  0  0  0  0
  5  4  2  0  0  0  0
  5  6  1  0  0  0  0
  6  8  2  0  0  0  0
  7  6  1  0  0  0  0
  8  1  1  0  0  0  0
  8  9  1  0  0  0  0
 10 24  1  0  0  0  0
 10  5  1  0  0  0  0
 11 13  1  0  0  0  0
 11 10  1  0  0  0  0
 12 11  1  0  0  0  0
 14 15  1  0  0  0  0
 14 16  1  0  0  0  0
 14 11  1  0  0  0  0
 16 18  1  0  0  0  0
 17 16  1  0  0  0  0
 19 16  1  0  0  0  0
 20 14  1  0  0  0  0
 21 20  1  0  0  0  0
 22 20  1  0  0  0  0
 23 20  1  0  0  0  0
 24 38  1  0  0  0  0
 24 26  1  0  0  0  0
 25 24  1  0  0  0  0
 26 29  1  0  0  0  0
 26 27  1  0  0  0  0
 28 26  1  0  0  0  0
 29 32  1  0  0  0  0
 29 30  1  0  0  0  0
 31 29  1  0  0  0  0
 32 34  1  0  0  0  0
 32 33  1  0  0  0  0
 35 36  1  0  0  0  0
 35 32  1  0  0  0  0
 37 35  1  0  0  0  0
 38 35  1  0  0  0  0
 38 40  1  0  0  0  0
 39 38  1  0  0  0  0
 41  4  1  0  0  0  0
 42 41  1  0  0  0  0
 43 41  1  0  0  0  0
 43 60  2  0  0  0  0
 44 43  1  0  0  0  0
 45 44  1  0  0  0  0
 46 47  1  0  0  0  0
 46 44  1  0  0  0  0
 47 48  1  0  0  0  0
 49 50  1  0  0  0  0
 49 47  2  0  0  0  0
 51 49  1  0  0  0  0
 52 51  2  0  0  0  0
 52 54  1  0  0  0  0
 53 52  1  0  0  0  0
 54 46  2  0  0  0  0
 55 54  1  0  0  0  0
 56 57  1  0  0  0  0
 56 59  1  0  0  0  0
 56 51  1  0  0  0  0
 58 56  1  0  0  0  0
 61 62  1  6  0  0  0
 61 66  1  0  0  0  0
 61 63  1  0  0  0  0
 63 65  1  0  0  0  0
 63 64  1  0  0  0  0
 66 68  1  0  0  0  0
 66 67  1  1  0  0  0
 66 63  1  0  0  0  0
 68 69  1  0  0  0  0
 70 68  2  0  0  0  0
M  END
>  <Pose>
1

>  <Score>
-7.20

$$$$

 OpenBabel03112215133D

 70 73  0  0  1  0  0  0  0  0999 V2000
   22.2500   79.7170   12.4000 C   0  0  0  0  0  0  0  0  0  0  0  0
   21.6820   78.5240   12.8450 C   0  0  0  0  0  0  0  0  0  0  0  0
   21.2360   77.8370   12.1410 H   0  0  0  0  0  0  0  0  0  0  0  0
   21.6950   78.2280   14.2000 C   0  0  0  0  0  0  0  0  0  0  0  0
   22.3540   79.0630   15.0800 C   0  0  0  0  0  0  0  0  0  0  0  0
   22.9010   80.2650   14.6450 C   0  0  0  0  0  0  0  0  0  0  0  0
   23.3570   80.9410   15.3530 H   0  0  0  0  0  0  0  0  0  0  0  0
   22.8580   80.5960   13.2930 C   0  0  0  0  0  0  0  0  0  0  0  0
   23.2910   81.5210   12.9410 H   0  0  0  0  0  0  0  0  0  0  0  0
   22.3770   78.7470   16.5460 N   0  0  0  0  0  0  0  0  0  0  0  0
   21.2270   78.0740   17.2540 C   0  0  0  0  0  0  0  0  0  0  0  0
   21.4990   77.0400   17.4660 H   0  0  0  0  0  0  0  0  0  0  0  0
   20.3530   78.0930   16.6030 H   0  0  0  0  0  0  0  0  0  0  0  0
   20.8720   78.7930   18.6010 C   0  0  0  0  0  0  0  0  0  0  0  0
   21.7280   79.2690   19.0800 H   0  0  0  0  0  0  0  0  0  0  0  0
   19.8200   79.9040   18.2760 C   0  0  0  0  0  0  0  0  0  0  0  0
   18.9520   79.4530   17.7950 H   0  0  0  0  0  0  0  0  0  0  0  0
   20.2650   80.6400   17.6060 H   0  0  0  0  0  0  0  0  0  0  0  0
   19.5110   80.3930   19.1990 H   0  0  0  0  0  0  0  0  0  0  0  0
   20.3190   77.7210   19.5460 C   0  0  0  0  0  0  0  0  0  0  0  0
   19.4610   77.2350   19.0820 H   0  0  0  0  0  0  0  0  0  0  0  0
   20.0110   78.1850   20.4830 H   0  0  0  0  0  0  0  0  0  0  0  0
   21.0930   76.9790   19.7460 H   0  0  0  0  0  0  0  0  0  0  0  0
   23.7390   78.8710   17.2100 C   0  0  0  0  0  0  0  0  0  0  0  0
   23.6930   79.2570   18.2290 H   0  0  0  0  0  0  0  0  0  0  0  0
   24.4240   77.5190   17.3830 C   0  0  0  0  0  0  0  0  0  0  0  0
   24.4550   76.9990   16.4250 H   0  0  0  0  0  0  0  0  0  0  0  0
   23.8730   76.9180   18.1060 H   0  0  0  0  0  0  0  0  0  0  0  0
   25.8650   77.7570   17.8930 C   0  0  0  0  0  0  0  0  0  0  0  0
   26.3850   76.8000   17.9480 H   0  0  0  0  0  0  0  0  0  0  0  0
   25.8210   78.2030   18.8870 H   0  0  0  0  0  0  0  0  0  0  0  0
   26.6400   78.6960   16.9550 C   0  0  0  0  0  0  0  0  0  0  0  0
   26.7610   78.2000   15.9920 H   0  0  0  0  0  0  0  0  0  0  0  0
   27.6200   78.8880   17.3910 H   0  0  0  0  0  0  0  0  0  0  0  0
   25.9370   80.0410   16.7260 C   0  0  0  0  0  0  0  0  0  0  0  0
   26.4770   80.6050   15.9660 H   0  0  0  0  0  0  0  0  0  0  0  0
   25.9250   80.6050   17.6580 H   0  0  0  0  0  0  0  0  0  0  0  0
   24.4890   79.8060   16.2530 C   0  0  0  0  0  0  0  0  0  0  0  0
   23.9700   80.7640   16.2100 H   0  0  0  0  0  0  0  0  0  0  0  0
   24.5080   79.3580   15.2590 H   0  0  0  0  0  0  0  0  0  0  0  0
   21.1870   76.9560   14.6870 N   0  0  0  0  0  0  0  0  0  0  0  0
   21.3590   76.6990   15.6490 H   0  0  0  0  0  0  0  0  0  0  0  0
   20.4440   76.0430   13.8430 C   0  0  0  0  0  0  0  0  0  0  0  0
   20.1200   74.7990   14.5200 N   0  0  0  0  0  0  0  0  0  0  0  0
   20.4140   74.6380   15.4730 H   0  0  0  0  0  0  0  0  0  0  0  0
   19.3620   73.7870   13.7960 C   0  0  0  0  0  0  0  0  0  0  0  0
   18.0850   74.1420   13.3630 C   0  0  0  0  0  0  0  0  0  0  0  0
   17.7030   75.1340   13.5530 H   0  0  0  0  0  0  0  0  0  0  0  0
   17.3100   73.2100   12.6860 C   0  0  0  0  0  0  0  0  0  0  0  0
   16.3180   73.4580   12.3370 H   0  0  0  0  0  0  0  0  0  0  0  0
   17.8530   71.9420   12.4710 C   0  0  0  0  0  0  0  0  0  0  0  0
   19.1220   71.5990   12.9170 C   0  0  0  0  0  0  0  0  0  0  0  0
   19.5050   70.6050   12.7390 H   0  0  0  0  0  0  0  0  0  0  0  0
   19.8980   72.5240   13.5880 C   0  0  0  0  0  0  0  0  0  0  0  0
   20.8880   72.2730   13.9390 H   0  0  0  0  0  0  0  0  0  0  0  0
   17.0130   70.8870   11.7220 C   0  0  0  0  0  0  0  0  0  0  0  0
   16.0510   71.3180   11.4440 H   0  0  0  0  0  0  0  0  0  0  0  0
   16.8510   70.0250   12.3700 H   0  0  0  0  0  0  0  0  0  0  0  0
   17.5420   70.5710   10.8230 H   0  0  0  0  0  0  0  0  0  0  0  0
   20.1070   76.3380   12.7370 O   0  0  0  0  0  0  0  0  0  0  0  0
   22.1970   80.0750   10.8880 C   0  0  1  0  0  0  0  0  0  0  0  0
   23.0470   80.6540   11.2510 H   0  0  0  0  0  0  0  0  0  0  0  0
   21.9550   79.2230    9.6380 C   0  0  0  0  0  0  0  0  0  0  0  0
   21.6960   78.1690    9.7380 H   0  0  0  0  0  0  0  0  0  0  0  0
   22.5800   79.3620    8.7550 H   0  0  0  0  0  0  0  0  0  0  0  0
   20.9470   80.2970   10.0340 C   0  0  1  0  0  0  0  0  0  0  0  0
   20.4950   81.1460    9.5220 H   0  0  0  0  0  0  0  0  0  0  0  0
   19.6300   79.8050   10.6580 C   0  0  0  0  0  0  0  0  0  0  0  0
   19.3180   78.5770   10.6720 O   0  0  0  0  0  0  0  0  0  0  0  0
   18.8440   80.6480   11.1600 O   0  0  0  0  0  0  0  0  0  0  0  0
  1  2  2  0  0  0  0
  1  8  1  0  0  0  0
  2  4  1  0  0  0  0
  3  2  1  0  0  0  0
  4 41  1  0  0  0  0
  4  5  2  0  0  0  0
  5 10  1  0  0  0  0
  6  5  1  0  0  0  0
  6  7  1  0  0  0  0
  8  6  2  0  0  0  0
  9  8  1  0  0  0  0
 10 24  1  0  0  0  0
 10 11  1  0  0  0  0
 11 12  1  0  0  0  0
 11 14  1  0  0  0  0
 13 11  1  0  0  0  0
 14 15  1  0  0  0  0
 14 20  1  0  0  0  0
 16 14  1  0  0  0  0
 16 19  1  0  0  0  0
 17 16  1  0  0  0  0
 18 16  1  0  0  0  0
 20 23  1  0  0  0  0
 20 22  1  0  0  0  0
 21 20  1  0  0  0  0
 24 26  1  0  0  0  0
 24 25  1  0  0  0  0
 26 29  1  0  0  0  0
 26 28  1  0  0  0  0
 27 26  1  0  0  0  0
 29 30  1  0  0  0  0
 29 31  1  0  0  0  0
 32 34  1  0  0  0  0
 32 29  1  0  0  0  0
 33 32  1  0  0  0  0
 35 32  1  0  0  0  0
 35 37  1  0  0  0  0
 36 35  1  0  0  0  0
 38 35  1  0  0  0  0
 38 24  1  0  0  0  0
 39 38  1  0  0  0  0
 40 38  1  0  0  0  0
 41 42  1  0  0  0  0
 43 44  1  0  0  0  0
 43 41  1  0  0  0  0
 44 45  1  0  0  0  0
 46 44  1  0  0  0  0
 47 48  1  0  0  0  0
 47 46  2  0  0  0  0
 49 47  1  0  0  0  0
 50 49  1  0  0  0  0
 51 49  2  0  0  0  0
 51 52  1  0  0  0  0
 52 54  2  0  0  0  0
 53 52  1  0  0  0  0
 54 46  1  0  0  0  0
 54 55  1  0  0  0  0
 56 58  1  0  0  0  0
 56 51  1  0  0  0  0
 57 56  1  0  0  0  0
 59 56  1  0  0  0  0
 60 43  2  0  0  0  0
 61 62  1  6  0  0  0
 61  1  1  0  0  0  0
 63 64  1  0  0  0  0
 63 66  1  0  0  0  0
 63 61  1  0  0  0  0
 65 63  1  0  0  0  0
 66 67  1  6  0  0  0
 66 68  1  0  0  0  0
 66 61  1  0  0  0  0
 68 69  2  0  0  0  0
 68 70  1  0  0  0  0
M  END
>  <Pose>
1

>  <Score>
-6.09

$$$$
