# created with PyMOL 2.5.2
@<TRIPOS>MOLECULE
predictions
70 73 1                 
SMALL
USER_CHARGES
@<TRIPOS>ATOM
1	   C	21.982	79.454	12.286	C.2	1	UNK0	0.000	
2	   C	21.503	78.201	12.666	C.2	1	UNK0	0.000	
3	   H	21.076	77.535	11.931	 H	1	UNK0	0.000	
4	   C	21.580	77.819	13.997	C.2	1	UNK0	0.000	
5	   C	22.216	78.634	14.912	C.2	1	UNK0	0.000	
6	   C	22.673	79.895	14.542	C.2	1	UNK0	0.000	
7	   H	23.111	80.550	15.280	 H	1	UNK0	0.000	
8	   C	22.565	80.310	13.217	C.2	1	UNK0	0.000	
9	   H	22.927	81.282	12.916	 H	1	UNK0	0.000	
10	   N	22.309	78.225	16.351	N.pl3	1	UNK0	0.000	
11	   C	23.618	78.167	17.100	C.3	1	UNK0	0.000	
12	   H	23.686	77.211	17.618	 H	1	UNK0	0.000	
13	   H	23.643	78.978	17.829	 H	1	UNK0	0.000	
14	   C	24.846	78.311	16.137	C.3	1	UNK0	0.000	
15	   H	24.665	78.983	15.298	 H	1	UNK0	0.000	
16	   C	26.032	78.893	16.975	C.3	1	UNK0	0.000	
17	   H	26.233	78.238	17.822	 H	1	UNK0	0.000	
18	   H	25.768	79.886	17.338	 H	1	UNK0	0.000	
19	   H	26.921	78.960	16.348	 H	1	UNK0	0.000	
20	   C	25.147	76.913	15.586	C.3	1	UNK0	0.000	
21	   H	25.331	76.228	16.414	 H	1	UNK0	0.000	
22	   H	26.029	76.956	14.948	 H	1	UNK0	0.000	
23	   H	24.295	76.560	15.006	 H	1	UNK0	0.000	
24	   C	20.982	78.163	17.090	C.3	1	UNK0	0.000	
25	   H	20.212	77.605	16.557	 H	1	UNK0	0.000	
26	   C	21.093	77.418	18.416	C.3	1	UNK0	0.000	
27	   H	21.900	77.845	19.011	 H	1	UNK0	0.000	
28	   H	21.298	76.364	18.229	 H	1	UNK0	0.000	
29	   C	19.753	77.561	19.178	C.3	1	UNK0	0.000	
30	   H	19.850	77.095	20.158	 H	1	UNK0	0.000	
31	   H	18.968	77.059	18.613	 H	1	UNK0	0.000	
32	   C	19.373	79.038	19.361	C.3	1	UNK0	0.000	
33	   H	20.115	79.509	20.006	 H	1	UNK0	0.000	
34	   H	18.394	79.087	19.837	 H	1	UNK0	0.000	
35	   C	19.311	79.818	18.040	C.3	1	UNK0	0.000	
36	   H	19.153	80.876	18.253	 H	1	UNK0	0.000	
37	   H	18.486	79.441	17.437	 H	1	UNK0	0.000	
38	   C	20.630	79.647	17.263	C.3	1	UNK0	0.000	
39	   H	20.526	80.105	16.280	 H	1	UNK0	0.000	
40	   H	21.433	80.141	17.811	 H	1	UNK0	0.000	
41	   N	21.168	76.488	14.412	N.pl3	1	UNK0	0.000	
42	   H	21.572	76.092	15.250	 H	1	UNK0	0.000	
43	   C	20.200	75.708	13.669	C.2	1	UNK0	0.000	
44	   N	20.015	74.377	14.222	N.pl3	1	UNK0	0.000	
45	   H	20.538	74.079	15.032	 H	1	UNK0	0.000	
46	   C	19.060	73.482	13.582	C.2	1	UNK0	0.000	
47	   C	19.478	72.174	13.345	C.2	1	UNK0	0.000	
48	   H	20.465	71.856	13.646	 H	1	UNK0	0.000	
49	   C	18.616	71.283	12.720	C.2	1	UNK0	0.000	
50	   H	18.913	70.263	12.526	 H	1	UNK0	0.000	
51	   C	17.352	71.749	12.350	C.2	1	UNK0	0.000	
52	   C	16.953	73.059	12.582	C.2	1	UNK0	0.000	
53	   H	15.971	73.384	12.273	 H	1	UNK0	0.000	
54	   C	17.807	73.947	13.207	C.2	1	UNK0	0.000	
55	   H	17.510	74.967	13.397	 H	1	UNK0	0.000	
56	   C	16.375	70.781	11.652	C.3	1	UNK0	0.000	
57	   H	16.844	69.803	11.548	 H	1	UNK0	0.000	
58	   H	16.122	71.169	10.665	 H	1	UNK0	0.000	
59	   H	15.467	70.688	12.249	 H	1	UNK0	0.000	
60	   O	19.601	76.162	12.742	O.2	1	UNK0	0.000	
61	   C	21.856	79.906	10.804	C.3	1	UNK0	0.000	
62	   H	22.633	80.561	11.198	 H	1	UNK0	0.000	
63	   C	21.699	79.119	9.498	C.3	1	UNK0	0.000	
64	   H	21.576	78.036	9.526	 H	1	UNK0	0.000	
65	   H	22.284	79.396	8.622	 H	1	UNK0	0.000	
66	   C	20.572	80.026	9.980	C.3	1	UNK0	0.000	
67	   H	20.008	80.845	9.534	 H	1	UNK0	0.000	
68	   C	19.339	79.330	10.581	C.2	1	UNK0	0.000	
69	   O	19.147	78.084	10.448	O.co2	1	UNK0	0.000	
70	   O	18.500	80.020	11.213	O.co2	1	UNK0	0.000	
@<TRIPOS>BOND
1 1 2 2
2 1 8 1
3 2 4 1
4 2 3 1
5 4 41 1
6 4 5 2
7 5 10 1
8 5 6 1
9 6 7 1
10 6 8 2
11 8 9 1
12 10 24 1
13 10 11 1
14 11 12 1
15 11 13 1
16 14 16 1
17 11 14 1
18 14 15 1
19 16 18 1
20 16 17 1
21 16 19 1
22 14 20 1
23 20 21 1
24 20 22 1
25 20 23 1
26 24 38 1
27 24 26 1
28 24 25 1
29 26 27 1
30 26 29 1
31 26 28 1
32 29 32 1
33 29 30 1
34 29 31 1
35 32 34 1
36 32 33 1
37 35 36 1
38 32 35 1
39 35 37 1
40 38 40 1
41 35 38 1
42 38 39 1
43 41 42 1
44 43 44 1
45 41 43 1
46 44 45 1
47 44 46 1
48 46 47 1
49 47 48 1
50 47 49 2
51 49 50 1
52 51 52 2
53 49 51 1
54 52 54 1
55 52 53 1
56 54 55 1
57 46 54 2
58 56 59 1
59 51 56 1
60 56 57 1
61 56 58 1
62 43 60 2
63 61 62 1
64 1 61 1
65 63 64 1
66 63 66 1
67 61 63 1
68 63 65 1
69 66 67 1
70 66 68 1
71 61 66 1
72 68 70 1
73 68 69 2
@<TRIPOS>SUBSTRUCTURE
1	UNK0	1	GROUP	1 ****	UNK
