# created with PyMOL 2.5.2
@<TRIPOS>MOLECULE
predictions
49 52 1                 
SMALL
USER_CHARGES
@<TRIPOS>ATOM
1	   C	-2.271	19.876	-9.881	C.2	1	UNK0	0.000	
2	   H	-1.642	20.201	-9.065	 H	1	UNK0	0.000	
3	   C	-3.547	20.426	-10.005	C.2	1	UNK0	0.000	
4	   H	-3.891	21.157	-9.287	 H	1	UNK0	0.000	
5	   C	-4.387	20.031	-11.062	C.2	1	UNK0	0.000	
6	   C	-1.776	18.921	-10.772	C.2	1	UNK0	0.000	
7	   H	-0.791	18.495	-10.654	 H	1	UNK0	0.000	
8	   C	-2.619	18.540	-11.827	C.2	1	UNK0	0.000	
9	   C	-3.886	19.096	-11.973	C.2	1	UNK0	0.000	
10	   N	-4.495	18.596	-13.084	N.pl3	1	UNK0	0.000	
11	   H	-5.423	18.837	-13.402	 H	1	UNK0	0.000	
12	   C	-3.673	17.742	-13.682	C.2	1	UNK0	0.000	
13	   H	-3.902	17.207	-14.591	 H	1	UNK0	0.000	
14	   C	-2.514	17.633	-13.003	C.2	1	UNK0	0.000	
15	   O	-5.666	20.517	-11.247	O.3	1	UNK0	0.000	
16	   C	-6.147	21.515	-10.326	C.3	1	UNK0	0.000	
17	   H	-7.164	21.800	-10.597	 H	1	UNK0	0.000	
18	   H	-5.501	22.392	-10.370	 H	1	UNK0	0.000	
19	   H	-6.141	21.110	-9.314	 H	1	UNK0	0.000	
20	   C	-1.344	16.813	-13.339	C.2	1	UNK0	0.000	
21	   N	-0.760	16.137	-12.320	N.pl3	1	UNK0	0.000	
22	   H	-1.160	16.186	-11.394	 H	1	UNK0	0.000	
23	   O	-0.908	16.773	-14.492	O.2	1	UNK0	0.000	
24	   C	0.439	15.341	-12.547	C.3	1	UNK0	0.000	
25	   H	0.902	15.837	-13.399	 H	1	UNK0	0.000	
26	   C	0.189	13.858	-12.858	C.3	1	UNK0	0.000	
27	   H	0.015	13.702	-13.923	 H	1	UNK0	0.000	
28	   H	-0.659	13.473	-12.292	 H	1	UNK0	0.000	
29	   N	1.439	13.232	-12.429	N.pl3	1	UNK0	0.000	
30	   C	2.238	14.099	-11.562	C.3	1	UNK0	0.000	
31	   H	3.144	14.428	-12.071	 H	1	UNK0	0.000	
32	   H	2.506	13.585	-10.639	 H	1	UNK0	0.000	
33	   C	1.305	15.289	-11.277	C.3	1	UNK0	0.000	
34	   H	0.695	15.109	-10.391	 H	1	UNK0	0.000	
35	   H	1.871	16.212	-11.148	 H	1	UNK0	0.000	
36	   C	1.946	12.092	-12.995	C.2	1	UNK0	0.000	
37	   C	3.309	11.783	-12.887	C.2	1	UNK0	0.000	
38	   H	3.955	12.447	-12.333	 H	1	UNK0	0.000	
39	   C	3.853	10.646	-13.471	C.2	1	UNK0	0.000	
40	   H	4.903	10.426	-13.350	 H	1	UNK0	0.000	
41	   C	3.044	9.791	-14.213	C.2	1	UNK0	0.000	
42	   C	1.685	10.079	-14.327	C.2	1	UNK0	0.000	
43	   H	1.047	9.413	-14.889	 H	1	UNK0	0.000	
44	   C	1.134	11.209	-13.727	C.2	1	UNK0	0.000	
45	   H	0.077	11.408	-13.826	 H	1	UNK0	0.000	
46	   C	3.635	8.545	-14.867	C.3	1	UNK0	0.000	
47	   H	4.705	8.500	-14.664	 H	1	UNK0	0.000	
48	   H	3.471	8.587	-15.944	 H	1	UNK0	0.000	
49	   H	3.151	7.657	-14.461	 H	1	UNK0	0.000	
@<TRIPOS>BOND
1 1 2 1
2 1 3 1
3 3 4 1
4 3 5 2
5 1 6 2
6 6 7 1
7 6 8 1
8 5 9 1
9 8 9 2
10 9 10 1
11 10 11 1
12 10 12 1
13 12 14 2
14 12 13 1
15 8 14 1
16 5 15 1
17 15 16 1
18 16 19 1
19 16 17 1
20 16 18 1
21 14 20 1
22 20 21 1
23 21 22 1
24 20 23 2
25 21 24 1
26 24 25 1
27 24 33 1
28 24 26 1
29 26 28 1
30 26 29 1
31 26 27 1
32 29 30 1
33 30 32 1
34 30 33 1
35 30 31 1
36 33 34 1
37 33 35 1
38 29 36 1
39 36 37 1
40 37 38 1
41 37 39 2
42 39 40 1
43 39 41 1
44 41 42 2
45 42 44 1
46 42 43 1
47 36 44 2
48 44 45 1
49 41 46 1
50 46 47 1
51 46 49 1
52 46 48 1
@<TRIPOS>SUBSTRUCTURE
1	UNK0	1	GROUP	1 ****	UNK
