
 OpenBabel03102210503D

 49 52  0  0  1  0  0  0  0  0999 V2000
   -2.2110   19.8460   -9.8830 C   0  0  0  0  0  0  0  0  0  0  0  0
   -1.5830   20.1360   -9.0530 H   0  0  0  0  0  0  0  0  0  0  0  0
   -3.4660   20.4410  -10.0150 C   0  0  0  0  0  0  0  0  0  0  0  0
   -3.7950   21.1710   -9.2900 H   0  0  0  0  0  0  0  0  0  0  0  0
   -4.3040   20.0910  -11.0890 C   0  0  0  0  0  0  0  0  0  0  0  0
   -1.7360   18.8890  -10.7830 C   0  0  0  0  0  0  0  0  0  0  0  0
   -0.7670   18.4290  -10.6590 H   0  0  0  0  0  0  0  0  0  0  0  0
   -2.5760   18.5540  -11.8550 C   0  0  0  0  0  0  0  0  0  0  0  0
   -3.8220   19.1550  -12.0090 C   0  0  0  0  0  0  0  0  0  0  0  0
   -4.4310   18.6940  -13.1360 N   0  0  0  0  0  0  0  0  0  0  0  0
   -5.3460   18.9700  -13.4620 H   0  0  0  0  0  0  0  0  0  0  0  0
   -3.6300   17.8220  -13.7370 C   0  0  0  0  0  0  0  0  0  0  0  0
   -3.8640   17.3090  -14.6580 H   0  0  0  0  0  0  0  0  0  0  0  0
   -2.4850   17.6630  -13.0450 C   0  0  0  0  0  0  0  0  0  0  0  0
   -5.5630   20.6230  -11.2840 O   0  0  0  0  0  0  0  0  0  0  0  0
   -6.1240   21.4290  -10.2290 C   0  0  0  0  0  0  0  0  0  0  0  0
   -7.1140   21.7760  -10.5250 H   0  0  0  0  0  0  0  0  0  0  0  0
   -5.4780   22.2880  -10.0460 H   0  0  0  0  0  0  0  0  0  0  0  0
   -6.2040   20.8340   -9.3200 H   0  0  0  0  0  0  0  0  0  0  0  0
   -1.3380   16.8100  -13.3780 C   0  0  0  0  0  0  0  0  0  0  0  0
   -0.6810   16.2380  -12.3400 N   0  0  0  0  0  0  0  0  0  0  0  0
   -1.0150   16.3810  -11.3970 H   0  0  0  0  0  0  0  0  0  0  0  0
   -0.9850   16.6520  -14.5490 O   0  0  0  0  0  0  0  0  0  0  0  0
    0.5020   15.4190  -12.5690 C   0  0  2  0  0  0  0  0  0  0  0  0
    0.9450   15.8750  -13.4540 H   0  0  0  0  0  0  0  0  0  0  0  0
    0.2260   13.9280  -12.8150 C   0  0  0  0  0  0  0  0  0  0  0  0
    0.0200   13.7330  -13.8670 H   0  0  0  0  0  0  0  0  0  0  0  0
   -0.6090   13.5760  -12.2090 H   0  0  0  0  0  0  0  0  0  0  0  0
    1.4820   13.3050  -12.3970 N   0  0  0  0  0  0  0  0  0  0  0  0
    2.3150   14.1950  -11.5890 C   0  0  0  0  0  0  0  0  0  0  0  0
    3.2090   14.4930  -12.1360 H   0  0  0  0  0  0  0  0  0  0  0  0
    2.6040   13.7150  -10.6550 H   0  0  0  0  0  0  0  0  0  0  0  0
    1.4040   15.4070  -11.3240 C   0  0  0  0  0  0  0  0  0  0  0  0
    0.8190   15.2690  -10.4150 H   0  0  0  0  0  0  0  0  0  0  0  0
    1.9830   16.3270  -11.2480 H   0  0  0  0  0  0  0  0  0  0  0  0
    1.9590   12.1370  -12.9320 C   0  0  0  0  0  0  0  0  0  0  0  0
    3.2820   11.7330  -12.7050 C   0  0  0  0  0  0  0  0  0  0  0  0
    3.9190   12.3460  -12.0850 H   0  0  0  0  0  0  0  0  0  0  0  0
    3.7980   10.5660  -13.2550 C   0  0  0  0  0  0  0  0  0  0  0  0
    4.8160   10.2730  -13.0420 H   0  0  0  0  0  0  0  0  0  0  0  0
    3.0040    9.7760  -14.0800 C   0  0  0  0  0  0  0  0  0  0  0  0
    1.6840   10.1580  -14.3120 C   0  0  0  0  0  0  0  0  0  0  0  0
    1.0570    9.5440  -14.9400 H   0  0  0  0  0  0  0  0  0  0  0  0
    1.1590   11.3190  -13.7480 C   0  0  0  0  0  0  0  0  0  0  0  0
    0.1320   11.5920  -13.9390 H   0  0  0  0  0  0  0  0  0  0  0  0
    3.5670    8.4970  -14.6960 C   0  0  0  0  0  0  0  0  0  0  0  0
    4.6080    8.3770  -14.3970 H   0  0  0  0  0  0  0  0  0  0  0  0
    3.5060    8.5610  -15.7820 H   0  0  0  0  0  0  0  0  0  0  0  0
    2.9870    7.6420  -14.3490 H   0  0  0  0  0  0  0  0  0  0  0  0
  1  2  1  0  0  0  0
  3  1  1  0  0  0  0
  3  4  1  0  0  0  0
  5  3  2  0  0  0  0
  6  7  1  0  0  0  0
  6  1  2  0  0  0  0
  8  6  1  0  0  0  0
  9  8  2  0  0  0  0
  9  5  1  0  0  0  0
 10  9  1  0  0  0  0
 11 10  1  0  0  0  0
 12 10  1  0  0  0  0
 12 14  2  0  0  0  0
 13 12  1  0  0  0  0
 14  8  1  0  0  0  0
 15  5  1  0  0  0  0
 15 16  1  0  0  0  0
 16 18  1  0  0  0  0
 16 19  1  0  0  0  0
 17 16  1  0  0  0  0
 20 14  1  0  0  0  0
 20 21  1  0  0  0  0
 21 22  1  0  0  0  0
 23 20  2  0  0  0  0
 24 25  1  6  0  0  0
 24 21  1  0  0  0  0
 24 33  1  0  0  0  0
 26 24  1  0  0  0  0
 26 29  1  0  0  0  0
 26 28  1  0  0  0  0
 27 26  1  0  0  0  0
 29 30  1  0  0  0  0
 30 33  1  0  0  0  0
 30 32  1  0  0  0  0
 31 30  1  0  0  0  0
 33 35  1  0  0  0  0
 33 34  1  0  0  0  0
 36 37  1  0  0  0  0
 36 29  1  0  0  0  0
 37 38  1  0  0  0  0
 39 40  1  0  0  0  0
 39 37  2  0  0  0  0
 41 39  1  0  0  0  0
 42 41  2  0  0  0  0
 42 44  1  0  0  0  0
 43 42  1  0  0  0  0
 44 36  2  0  0  0  0
 45 44  1  0  0  0  0
 46 47  1  0  0  0  0
 46 49  1  0  0  0  0
 46 41  1  0  0  0  0
 48 46  1  0  0  0  0
M  END
>  <Pose>
10

>  <Score>
-9.03

$$$$
