
 OpenBabel03112211283D

 34 37  0  0  1  0  0  0  0  0999 V2000
   14.9560  -56.2160   38.1420 N   0  0  0  0  0  0  0  0  0  0  0  0
   13.7840  -58.2180   38.0440 C   0  0  0  0  0  0  0  0  0  0  0  0
   13.9780  -56.9680   38.9000 C   0  0  0  0  0  0  0  0  0  0  0  0
   14.9160  -54.4770   39.6200 N   0  0  0  0  0  0  0  0  0  0  0  0
   15.4560  -56.9560   36.9880 C   0  0  0  0  0  0  0  0  0  0  0  0
   19.5840  -51.3640   36.6320 N   0  0  0  0  0  0  0  0  0  0  0  0
   15.0040  -58.3190   37.2040 C   0  0  1  0  0  0  0  0  0  0  0  0
   19.4420  -52.3930   35.8040 N   0  0  0  0  0  0  0  0  0  0  0  0
   15.4600  -55.0270   38.5290 C   0  0  0  0  0  0  0  0  0  0  0  0
   20.2480  -52.4640   34.7260 N   0  0  0  0  0  0  0  0  0  0  0  0
   15.4400  -53.2930   39.9750 C   0  0  0  0  0  0  0  0  0  0  0  0
   16.4520  -54.5200   37.7770 N   0  0  0  0  0  0  0  0  0  0  0  0
   16.4610  -52.6740   39.2960 C   0  0  0  0  0  0  0  0  0  0  0  0
   16.9430  -53.3280   38.1780 C   0  0  0  0  0  0  0  0  0  0  0  0
   17.9680  -52.7840   37.3380 C   0  0  0  0  0  0  0  0  0  0  0  0
   18.6870  -51.6020   37.5610 C   0  0  0  0  0  0  0  0  0  0  0  0
   18.5090  -53.2980   36.1660 C   0  0  0  0  0  0  0  0  0  0  0  0
   18.3130  -54.4170   35.3180 C   0  0  0  0  0  0  0  0  0  0  0  0
   19.0920  -54.5530   34.2130 C   0  0  0  0  0  0  0  0  0  0  0  0
   20.0470  -53.5500   33.9800 C   0  0  0  0  0  0  0  0  0  0  0  0
   16.0320  -58.9210   37.9760 F   0  0  0  0  0  0  0  0  0  0  0  0
   12.8750  -58.1520   37.4460 H   0  0  0  0  0  0  0  0  0  0  0  0
   13.6330  -59.1030   38.6610 H   0  0  0  0  0  0  0  0  0  0  0  0
   14.3400  -57.1900   39.9030 H   0  0  0  0  0  0  0  0  0  0  0  0
   13.0610  -56.3990   39.0390 H   0  0  0  0  0  0  0  0  0  0  0  0
   16.5400  -56.8880   36.9090 H   0  0  0  0  0  0  0  0  0  0  0  0
   15.0810  -56.5400   36.0540 H   0  0  0  0  0  0  0  0  0  0  0  0
   14.8300  -58.8960   36.2960 H   0  0  0  0  0  0  0  0  0  0  0  0
   14.9870  -52.8470   40.8600 H   0  0  0  0  0  0  0  0  0  0  0  0
   16.8600  -51.7190   39.6330 H   0  0  0  0  0  0  0  0  0  0  0  0
   18.5720  -50.9060   38.3920 H   0  0  0  0  0  0  0  0  0  0  0  0
   17.5400  -55.1410   35.5770 H   0  0  0  0  0  0  0  0  0  0  0  0
   18.9960  -55.3940   33.5280 H   0  0  0  0  0  0  0  0  0  0  0  0
   20.7250  -53.5880   33.1280 H   0  0  0  0  0  0  0  0  0  0  0  0
  1  9  1  0  0  0  0
  1  3  1  0  0  0  0
  2 23  1  0  0  0  0
  2  3  1  0  0  0  0
  3 25  1  0  0  0  0
  3 24  1  0  0  0  0
  4 11  1  0  0  0  0
  5  7  1  0  0  0  0
  5  1  1  0  0  0  0
  6 16  2  0  0  0  0
  7 28  1  6  0  0  0
  7 21  1  0  0  0  0
  7  2  1  0  0  0  0
  8 17  1  0  0  0  0
  8  6  1  0  0  0  0
  9  4  2  0  0  0  0
 10  8  1  0  0  0  0
 11 29  1  0  0  0  0
 12 14  2  0  0  0  0
 12  9  1  0  0  0  0
 13 30  1  0  0  0  0
 13 11  2  0  0  0  0
 14 13  1  0  0  0  0
 15 16  1  0  0  0  0
 15 14  1  0  0  0  0
 16 31  1  0  0  0  0
 17 15  2  0  0  0  0
 18 32  1  0  0  0  0
 18 17  1  0  0  0  0
 19 18  2  0  0  0  0
 20 19  1  0  0  0  0
 20 10  2  0  0  0  0
 22  2  1  0  0  0  0
 26  5  1  0  0  0  0
 27  5  1  0  0  0  0
 33 19  1  0  0  0  0
 34 20  1  0  0  0  0
M  END
>  <Pose>
10

>  <Score>
-7.20

$$$$
