# created with PyMOL 2.5.2
@<TRIPOS>MOLECULE
predictions
34 37 1                 
SMALL
USER_CHARGES
@<TRIPOS>ATOM
1	   N	14.947	-56.219	38.106	N.pl3	1	UNK0	0.000	
2	   C	13.857	-58.267	38.006	C.3	1	UNK0	0.000	
3	   C	14.071	-57.051	38.906	C.3	1	UNK0	0.000	
4	   N	14.867	-54.494	39.599	N.2	1	UNK0	0.000	
5	   C	15.377	-56.880	36.879	C.3	1	UNK0	0.000	
6	   N	19.483	-51.262	36.658	N.2	1	UNK0	0.000	
7	   C	15.003	-58.271	37.063	C.3	1	UNK0	0.000	
8	   N	19.442	-52.338	35.880	N.pl3	1	UNK0	0.000	
9	   C	15.431	-55.027	38.510	C.2	1	UNK0	0.000	
10	   N	20.299	-52.413	34.843	N.2	1	UNK0	0.000	
11	   C	15.372	-53.305	39.970	C.2	1	UNK0	0.000	
12	   N	16.426	-54.502	37.774	N.2	1	UNK0	0.000	
13	   C	16.393	-52.669	39.309	C.2	1	UNK0	0.000	
14	   C	16.897	-53.306	38.191	C.2	1	UNK0	0.000	
15	   C	17.924	-52.742	37.368	C.2	1	UNK0	0.000	
16	   C	18.560	-51.509	37.559	C.2	1	UNK0	0.000	
17	   C	18.549	-53.280	36.250	C.2	1	UNK0	0.000	
18	   C	18.459	-54.450	35.454	C.2	1	UNK0	0.000	
19	   C	19.295	-54.592	34.392	C.2	1	UNK0	0.000	
20	   C	20.198	-53.545	34.147	C.2	1	UNK0	0.000	
21	   F	16.119	-58.860	37.714	 F	1	UNK0	0.000	
22	   H	12.898	-58.216	37.491	 H	1	UNK0	0.000	
23	   H	13.799	-59.186	38.588	 H	1	UNK0	0.000	
24	   H	14.527	-57.303	39.862	 H	1	UNK0	0.000	
25	   H	13.146	-56.533	39.149	 H	1	UNK0	0.000	
26	   H	16.445	-56.757	36.712	 H	1	UNK0	0.000	
27	   H	14.905	-56.439	36.002	 H	1	UNK0	0.000	
28	   H	14.776	-58.812	36.144	 H	1	UNK0	0.000	
29	   H	14.903	-52.873	40.853	 H	1	UNK0	0.000	
30	   H	16.776	-51.711	39.659	 H	1	UNK0	0.000	
31	   H	18.366	-50.781	38.346	 H	1	UNK0	0.000	
32	   H	17.720	-55.207	35.718	 H	1	UNK0	0.000	
33	   H	19.282	-55.471	33.749	 H	1	UNK0	0.000	
34	   H	20.916	-53.584	33.329	 H	1	UNK0	0.000	
@<TRIPOS>BOND
1 1 3 1
2 1 9 1
3 2 3 1
4 2 23 1
5 3 24 1
6 3 25 1
7 4 11 1
8 1 5 1
9 5 7 1
10 6 16 2
11 2 7 1
12 7 21 1
13 7 28 1
14 6 8 1
15 8 17 1
16 4 9 2
17 8 10 1
18 11 29 1
19 9 12 1
20 12 14 2
21 11 13 2
22 13 30 1
23 13 14 1
24 14 15 1
25 15 16 1
26 16 31 1
27 15 17 2
28 17 18 1
29 18 32 1
30 18 19 2
31 10 20 2
32 19 20 1
33 2 22 1
34 5 26 1
35 5 27 1
36 19 33 1
37 20 34 1
@<TRIPOS>SUBSTRUCTURE
1	UNK0	1	GROUP	1 ****	UNK
