
 OpenBabel03112215143D

 34 37  0  0  1  0  0  0  0  0999 V2000
   14.9610  -56.2600   38.1460 N   0  0  0  0  0  0  0  0  0  0  0  0
   13.8520  -58.2990   38.0570 C   0  0  0  0  0  0  0  0  0  0  0  0
   14.0230  -57.0490   38.9190 C   0  0  0  0  0  0  0  0  0  0  0  0
   14.8720  -54.5200   39.6210 N   0  0  0  0  0  0  0  0  0  0  0  0
   15.4610  -56.9760   36.9780 C   0  0  0  0  0  0  0  0  0  0  0  0
   19.4270  -51.2670   36.6080 N   0  0  0  0  0  0  0  0  0  0  0  0
   15.0580  -58.3550   37.1930 C   0  0  1  0  0  0  0  0  0  0  0  0
   19.3740  -52.3410   35.8270 N   0  0  0  0  0  0  0  0  0  0  0  0
   15.4330  -55.0580   38.5320 C   0  0  0  0  0  0  0  0  0  0  0  0
   20.2130  -52.4110   34.7750 N   0  0  0  0  0  0  0  0  0  0  0  0
   15.3650  -53.3210   39.9740 C   0  0  0  0  0  0  0  0  0  0  0  0
   16.4130  -54.5270   37.7810 N   0  0  0  0  0  0  0  0  0  0  0  0
   16.3710  -52.6780   39.2960 C   0  0  0  0  0  0  0  0  0  0  0  0
   16.8720  -53.3210   38.1800 C   0  0  0  0  0  0  0  0  0  0  0  0
   17.8840  -52.7530   37.3400 C   0  0  0  0  0  0  0  0  0  0  0  0
   18.5210  -51.5190   37.5240 C   0  0  0  0  0  0  0  0  0  0  0  0
   18.4900  -53.2860   36.2100 C   0  0  0  0  0  0  0  0  0  0  0  0
   18.3880  -54.4540   35.4130 C   0  0  0  0  0  0  0  0  0  0  0  0
   19.2060  -54.5920   34.3360 C   0  0  0  0  0  0  0  0  0  0  0  0
   20.1020  -53.5410   34.0780 C   0  0  0  0  0  0  0  0  0  0  0  0
   16.1200  -58.9270   37.9400 F   0  0  0  0  0  0  0  0  0  0  0  0
   12.9300  -58.2590   37.4780 H   0  0  0  0  0  0  0  0  0  0  0  0
   13.7430  -59.1920   38.6710 H   0  0  0  0  0  0  0  0  0  0  0  0
   14.4110  -57.2650   39.9120 H   0  0  0  0  0  0  0  0  0  0  0  0
   13.0900  -56.5110   39.0790 H   0  0  0  0  0  0  0  0  0  0  0  0
   16.5400  -56.8720   36.8780 H   0  0  0  0  0  0  0  0  0  0  0  0
   15.0540  -56.5670   36.0540 H   0  0  0  0  0  0  0  0  0  0  0  0
   14.8850  -58.9310   36.2850 H   0  0  0  0  0  0  0  0  0  0  0  0
   14.8990  -52.8850   40.8570 H   0  0  0  0  0  0  0  0  0  0  0  0
   16.7450  -51.7120   39.6310 H   0  0  0  0  0  0  0  0  0  0  0  0
   18.3390  -50.7930   38.3160 H   0  0  0  0  0  0  0  0  0  0  0  0
   17.6560  -55.2130   35.6870 H   0  0  0  0  0  0  0  0  0  0  0  0
   19.1830  -55.4680   33.6910 H   0  0  0  0  0  0  0  0  0  0  0  0
   20.8050  -53.5770   33.2470 H   0  0  0  0  0  0  0  0  0  0  0  0
  1  9  1  0  0  0  0
  1  3  1  0  0  0  0
  2 23  1  0  0  0  0
  2  3  1  0  0  0  0
  3 25  1  0  0  0  0
  3 24  1  0  0  0  0
  4 11  1  0  0  0  0
  5  7  1  0  0  0  0
  5  1  1  0  0  0  0
  6 16  2  0  0  0  0
  7 28  1  6  0  0  0
  7 21  1  0  0  0  0
  7  2  1  0  0  0  0
  8 17  1  0  0  0  0
  8  6  1  0  0  0  0
  9  4  2  0  0  0  0
 10  8  1  0  0  0  0
 11 29  1  0  0  0  0
 12 14  2  0  0  0  0
 12  9  1  0  0  0  0
 13 30  1  0  0  0  0
 13 11  2  0  0  0  0
 14 13  1  0  0  0  0
 15 16  1  0  0  0  0
 15 14  1  0  0  0  0
 16 31  1  0  0  0  0
 17 15  2  0  0  0  0
 18 32  1  0  0  0  0
 18 17  1  0  0  0  0
 19 18  2  0  0  0  0
 20 19  1  0  0  0  0
 20 10  2  0  0  0  0
 22  2  1  0  0  0  0
 26  5  1  0  0  0  0
 27  5  1  0  0  0  0
 33 19  1  0  0  0  0
 34 20  1  0  0  0  0
M  END
>  <Pose>
10

>  <Score>
-7.20

$$$$
