
 OpenBabel03112211333D

 78 82  0  0  0  0  0  0  0  0999 V2000
   10.6210  -25.7650  -42.6860 N   0  0  0  0  0  0  0  0  0  0  0  0
    9.2150  -25.6640  -42.9860 C   0  0  0  0  0  0  0  0  0  0  0  0
    8.3720  -26.2610  -42.3110 O   0  0  0  0  0  0  0  0  0  0  0  0
   11.6500  -25.0920  -43.4680 C   0  0  0  0  0  0  0  0  0  0  0  0
   11.9970  -24.2200  -42.9120 H   0  0  0  0  0  0  0  0  0  0  0  0
   11.2160  -24.7710  -44.4140 H   0  0  0  0  0  0  0  0  0  0  0  0
   14.1660  -27.6060  -44.1450 N   0  0  0  0  0  0  0  0  0  0  0  0
    4.4910  -22.4210  -39.4420 O   0  0  0  0  0  0  0  0  0  0  0  0
    8.6840  -25.5630  -45.6050 S   0  0  0  0  0  0  0  0  0  0  0  0
   12.8240  -25.9780  -43.7530 C   0  0  0  0  0  0  0  0  0  0  0  0
   14.9180  -26.5620  -43.7550 N   0  0  0  0  0  0  0  0  0  0  0  0
   12.8670  -27.2760  -44.1690 C   0  0  0  0  0  0  0  0  0  0  0  0
   12.0350  -27.9020  -44.4560 H   0  0  0  0  0  0  0  0  0  0  0  0
   14.0970  -25.5690  -43.5180 N   0  0  0  0  0  0  0  0  0  0  0  0
   14.7760  -28.8980  -44.4540 C   0  0  0  0  0  0  0  0  0  0  0  0
   15.7310  -28.7330  -44.9530 H   0  0  0  0  0  0  0  0  0  0  0  0
   14.1140  -29.4590  -45.1140 H   0  0  0  0  0  0  0  0  0  0  0  0
    5.1060  -20.1880  -39.5780 N   0  0  0  0  0  0  0  0  0  0  0  0
   15.0100  -29.7000  -43.1820 C   0  0  0  0  0  0  0  0  0  0  0  0
   14.1630  -29.5560  -42.5110 H   0  0  0  0  0  0  0  0  0  0  0  0
   15.9200  -29.3440  -42.7000 H   0  0  0  0  0  0  0  0  0  0  0  0
    1.4350  -19.1060  -38.0340 N   0  0  0  0  0  0  0  0  0  0  0  0
   15.1530  -31.1570  -43.4810 C   0  0  0  0  0  0  0  0  0  0  0  0
   14.2460  -31.5200  -43.9640 H   0  0  0  0  0  0  0  0  0  0  0  0
   15.3140  -31.7040  -42.5520 H   0  0  0  0  0  0  0  0  0  0  0  0
   16.0040  -31.3090  -44.1450 H   0  0  0  0  0  0  0  0  0  0  0  0
    1.9550  -18.3520  -37.0540 N   0  0  0  0  0  0  0  0  0  0  0  0
   11.0800  -26.5700  -41.5590 C   0  0  0  0  0  0  0  0  0  0  0  0
   10.2210  -27.0170  -41.0590 H   0  0  0  0  0  0  0  0  0  0  0  0
   11.6200  -25.9360  -40.8560 H   0  0  0  0  0  0  0  0  0  0  0  0
   11.7410  -27.3570  -41.9210 H   0  0  0  0  0  0  0  0  0  0  0  0
    3.2340  -18.6200  -37.0020 N   0  0  0  0  0  0  0  0  0  0  0  0
    8.7320  -24.7740  -44.0730 C   0  0  0  0  0  0  0  0  0  0  0  0
    8.3280  -23.4740  -44.1740 C   0  0  0  0  0  0  0  0  0  0  0  0
    8.2990  -22.7930  -43.3360 H   0  0  0  0  0  0  0  0  0  0  0  0
    7.9460  -23.1070  -45.5050 C   0  0  0  0  0  0  0  0  0  0  0  0
    7.2730  -21.8270  -45.7820 C   0  0  0  0  0  0  0  0  0  0  0  0
    6.2970  -21.2530  -45.0580 C   0  0  0  0  0  0  0  0  0  0  0  0
    5.6570  -21.7780  -43.8440 C   0  0  0  0  0  0  0  0  0  0  0  0
    5.0540  -23.0100  -43.7260 C   0  0  0  0  0  0  0  0  0  0  0  0
    4.8440  -24.0860  -44.7510 C   0  0  0  0  0  0  0  0  0  0  0  0
    5.2600  -23.7660  -45.7050 H   0  0  0  0  0  0  0  0  0  0  0  0
    3.7760  -24.2760  -44.8650 H   0  0  0  0  0  0  0  0  0  0  0  0
    5.3420  -25.0000  -44.4250 H   0  0  0  0  0  0  0  0  0  0  0  0
    5.0560  -21.7240  -41.5880 C   0  0  0  0  0  0  0  0  0  0  0  0
    4.8560  -21.4790  -40.1420 C   0  0  0  0  0  0  0  0  0  0  0  0
    4.9330  -20.0400  -38.1410 C   0  0  0  0  0  0  0  0  0  0  0  0
    5.6460  -19.3170  -37.7460 H   0  0  0  0  0  0  0  0  0  0  0  0
    5.0740  -20.9990  -37.6420 H   0  0  0  0  0  0  0  0  0  0  0  0
    3.5320  -19.5520  -37.9430 C   0  0  0  0  0  0  0  0  0  0  0  0
    2.3860  -19.8540  -38.6150 C   0  0  0  0  0  0  0  0  0  0  0  0
    2.2680  -20.5450  -39.4370 H   0  0  0  0  0  0  0  0  0  0  0  0
    0.0030  -19.0990  -38.3460 C   0  0  0  0  0  0  0  0  0  0  0  0
   -0.1240  -18.8920  -39.4080 H   0  0  0  0  0  0  0  0  0  0  0  0
   -0.4790  -18.3140  -37.7630 H   0  0  0  0  0  0  0  0  0  0  0  0
   -0.6580  -20.4180  -38.0260 C   0  0  0  0  0  0  0  0  0  0  0  0
   -1.7180  -20.3630  -38.2740 H   0  0  0  0  0  0  0  0  0  0  0  0
   -0.5440  -20.6320  -36.9630 H   0  0  0  0  0  0  0  0  0  0  0  0
   -0.1890  -21.2100  -38.6090 H   0  0  0  0  0  0  0  0  0  0  0  0
    5.4240  -18.9780  -40.3280 C   0  0  0  0  0  0  0  0  0  0  0  0
    5.5280  -19.2220  -41.3850 H   0  0  0  0  0  0  0  0  0  0  0  0
    6.3600  -18.5570  -39.9600 H   0  0  0  0  0  0  0  0  0  0  0  0
    4.6240  -18.2490  -40.2000 H   0  0  0  0  0  0  0  0  0  0  0  0
    5.6560  -21.0470  -42.6160 C   0  0  0  0  0  0  0  0  0  0  0  0
    6.0850  -20.0610  -42.5100 H   0  0  0  0  0  0  0  0  0  0  0  0
    5.9050  -19.9100  -45.6230 C   0  0  0  0  0  0  0  0  0  0  0  0
    5.0730  -19.2840  -45.3370 H   0  0  0  0  0  0  0  0  0  0  0  0
    6.9600  -19.6420  -46.6930 C   0  0  0  0  0  0  0  0  0  0  0  0
    7.6710  -18.8950  -46.3400 H   0  0  0  0  0  0  0  0  0  0  0  0
    6.4850  -19.2880  -47.6080 H   0  0  0  0  0  0  0  0  0  0  0  0
    7.6740  -20.9630  -46.9520 C   0  0  0  0  0  0  0  0  0  0  0  0
    8.3180  -21.2200  -47.7800 H   0  0  0  0  0  0  0  0  0  0  0  0
    8.1030  -24.1370  -46.4010 C   0  0  0  0  0  0  0  0  0  0  0  0
    7.8250  -24.1910  -47.8720 C   0  0  0  0  0  0  0  0  0  0  0  0
    8.0730  -25.1820  -48.2530 H   0  0  0  0  0  0  0  0  0  0  0  0
    8.4300  -23.4430  -48.3850 H   0  0  0  0  0  0  0  0  0  0  0  0
    6.7690  -23.9880  -48.0500 H   0  0  0  0  0  0  0  0  0  0  0  0
    4.4800  -23.2660  -42.1070 S   0  0  0  0  0  0  0  0  0  0  0  0
  1 28  1  0  0  0  0
  2  1  1  0  0  0  0
  2  3  2  0  0  0  0
  4  5  1  0  0  0  0
  4  1  1  0  0  0  0
  6  4  1  0  0  0  0
  7 11  1  0  0  0  0
  9 33  1  0  0  0  0
 10 14  1  0  0  0  0
 10  4  1  0  0  0  0
 11 14  2  0  0  0  0
 12  7  1  0  0  0  0
 12 10  2  0  0  0  0
 13 12  1  0  0  0  0
 15  7  1  0  0  0  0
 15 19  1  0  0  0  0
 16 15  1  0  0  0  0
 17 15  1  0  0  0  0
 18 47  1  0  0  0  0
 19 21  1  0  0  0  0
 19 20  1  0  0  0  0
 22 27  1  0  0  0  0
 23 19  1  0  0  0  0
 23 25  1  0  0  0  0
 24 23  1  0  0  0  0
 26 23  1  0  0  0  0
 27 32  2  0  0  0  0
 28 29  1  0  0  0  0
 28 30  1  0  0  0  0
 31 28  1  0  0  0  0
 33  2  1  0  0  0  0
 34 33  2  0  0  0  0
 34 35  1  0  0  0  0
 36 34  1  0  0  0  0
 37 36  1  0  0  0  0
 37 38  2  0  0  0  0
 38 39  1  0  0  0  0
 39 40  2  0  0  0  0
 39 64  1  0  0  0  0
 40 78  1  0  0  0  0
 41 44  1  0  0  0  0
 41 40  1  0  0  0  0
 42 41  1  0  0  0  0
 43 41  1  0  0  0  0
 45 46  1  0  0  0  0
 46 18  1  0  0  0  0
 46  8  2  0  0  0  0
 47 50  1  0  0  0  0
 47 48  1  0  0  0  0
 47 49  1  0  0  0  0
 50 32  1  0  0  0  0
 51 22  1  0  0  0  0
 51 50  2  0  0  0  0
 52 51  1  0  0  0  0
 53 22  1  0  0  0  0
 53 56  1  0  0  0  0
 53 55  1  0  0  0  0
 54 53  1  0  0  0  0
 56 58  1  0  0  0  0
 57 56  1  0  0  0  0
 59 56  1  0  0  0  0
 60 63  1  0  0  0  0
 60 62  1  0  0  0  0
 60 18  1  0  0  0  0
 61 60  1  0  0  0  0
 64 65  1  0  0  0  0
 64 45  2  0  0  0  0
 66 67  1  0  0  0  0
 66 38  1  0  0  0  0
 68 69  1  0  0  0  0
 68 66  1  0  0  0  0
 70 68  1  0  0  0  0
 71 68  1  0  0  0  0
 71 37  1  0  0  0  0
 72 71  1  0  0  0  0
 73  9  1  0  0  0  0
 73 36  2  0  0  0  0
 74 73  1  0  0  0  0
 75 74  1  0  0  0  0
 76 74  1  0  0  0  0
 77 74  1  0  0  0  0
 78 45  1  0  0  0  0
M  END
>  <Pose>
1

>  <Score>
-5.47

$$$$

 OpenBabel03112211333D

 78 82  0  0  0  0  0  0  0  0999 V2000
    4.9070  -14.3630  -43.0800 N   0  0  0  0  0  0  0  0  0  0  0  0
    5.1170  -15.7650  -43.3430 C   0  0  0  0  0  0  0  0  0  0  0  0
    6.2380  -16.2030  -43.6140 O   0  0  0  0  0  0  0  0  0  0  0  0
    3.5980  -13.8000  -42.7740 C   0  0  0  0  0  0  0  0  0  0  0  0
    2.8330  -14.4170  -43.2460 H   0  0  0  0  0  0  0  0  0  0  0  0
    3.5500  -12.7890  -43.1780 H   0  0  0  0  0  0  0  0  0  0  0  0
    2.5190  -13.8870  -39.3190 N   0  0  0  0  0  0  0  0  0  0  0  0
    4.7020  -24.9150  -42.8800 O   0  0  0  0  0  0  0  0  0  0  0  0
    3.4050  -17.2610  -44.7510 S   0  0  0  0  0  0  0  0  0  0  0  0
    3.3280  -13.7420  -41.3020 C   0  0  0  0  0  0  0  0  0  0  0  0
    3.4870  -12.9550  -39.2820 N   0  0  0  0  0  0  0  0  0  0  0  0
    2.4030  -14.4060  -40.5500 C   0  0  0  0  0  0  0  0  0  0  0  0
    1.7250  -15.1800  -40.8750 H   0  0  0  0  0  0  0  0  0  0  0  0
    3.9800  -12.8700  -40.4930 N   0  0  0  0  0  0  0  0  0  0  0  0
    1.7340  -14.2030  -38.1270 C   0  0  0  0  0  0  0  0  0  0  0  0
    2.0940  -15.1390  -37.6990 H   0  0  0  0  0  0  0  0  0  0  0  0
    0.6860  -14.3120  -38.4070 H   0  0  0  0  0  0  0  0  0  0  0  0
    6.3460  -23.6950  -43.9720 N   0  0  0  0  0  0  0  0  0  0  0  0
    1.8620  -13.0970  -37.0910 C   0  0  0  0  0  0  0  0  0  0  0  0
    1.8850  -12.1340  -37.6000 H   0  0  0  0  0  0  0  0  0  0  0  0
    2.7890  -13.2360  -36.5340 H   0  0  0  0  0  0  0  0  0  0  0  0
   10.0400  -25.6840  -43.0860 N   0  0  0  0  0  0  0  0  0  0  0  0
    0.7120  -13.1160  -36.1360 C   0  0  0  0  0  0  0  0  0  0  0  0
   -0.2190  -12.9770  -36.6860 H   0  0  0  0  0  0  0  0  0  0  0  0
    0.8300  -12.3110  -35.4100 H   0  0  0  0  0  0  0  0  0  0  0  0
    0.6880  -14.0740  -35.6160 H   0  0  0  0  0  0  0  0  0  0  0  0
    9.1800  -26.2680  -42.2380 N   0  0  0  0  0  0  0  0  0  0  0  0
    6.0260  -13.4290  -43.1130 C   0  0  0  0  0  0  0  0  0  0  0  0
    6.9430  -13.9690  -43.3500 H   0  0  0  0  0  0  0  0  0  0  0  0
    6.1290  -12.9500  -42.1390 H   0  0  0  0  0  0  0  0  0  0  0  0
    5.8440  -12.6700  -43.8740 H   0  0  0  0  0  0  0  0  0  0  0  0
    7.9760  -26.0400  -42.6960 N   0  0  0  0  0  0  0  0  0  0  0  0
    4.0010  -16.7360  -43.2210 C   0  0  0  0  0  0  0  0  0  0  0  0
    3.3070  -17.3140  -42.1970 C   0  0  0  0  0  0  0  0  0  0  0  0
    3.5040  -17.1110  -41.1540 H   0  0  0  0  0  0  0  0  0  0  0  0
    2.2910  -18.2190  -42.6470 C   0  0  0  0  0  0  0  0  0  0  0  0
    1.5860  -19.1070  -41.7080 C   0  0  0  0  0  0  0  0  0  0  0  0
    2.0290  -20.2770  -41.2140 C   0  0  0  0  0  0  0  0  0  0  0  0
    3.2990  -20.9510  -41.5150 C   0  0  0  0  0  0  0  0  0  0  0  0
    4.5320  -20.5930  -41.0190 C   0  0  0  0  0  0  0  0  0  0  0  0
    4.9210  -19.4530  -40.1240 C   0  0  0  0  0  0  0  0  0  0  0  0
    4.0350  -18.8680  -39.8740 H   0  0  0  0  0  0  0  0  0  0  0  0
    5.6430  -18.8170  -40.6370 H   0  0  0  0  0  0  0  0  0  0  0  0
    5.3670  -19.8450  -39.2090 H   0  0  0  0  0  0  0  0  0  0  0  0
    4.6220  -22.6290  -42.4580 C   0  0  0  0  0  0  0  0  0  0  0  0
    5.2180  -23.8220  -43.1000 C   0  0  0  0  0  0  0  0  0  0  0  0
    6.8430  -24.9080  -44.6030 C   0  0  0  0  0  0  0  0  0  0  0  0
    7.0990  -24.7150  -45.6450 H   0  0  0  0  0  0  0  0  0  0  0  0
    6.0920  -25.6960  -44.5530 H   0  0  0  0  0  0  0  0  0  0  0  0
    8.0650  -25.3030  -43.8320 C   0  0  0  0  0  0  0  0  0  0  0  0
    9.3840  -25.0860  -44.0930 C   0  0  0  0  0  0  0  0  0  0  0  0
    9.8100  -24.5490  -44.9280 H   0  0  0  0  0  0  0  0  0  0  0  0
   11.4880  -25.6950  -42.8580 C   0  0  0  0  0  0  0  0  0  0  0  0
   11.7080  -26.3760  -42.0360 H   0  0  0  0  0  0  0  0  0  0  0  0
   11.8090  -24.6880  -42.5920 H   0  0  0  0  0  0  0  0  0  0  0  0
   12.2550  -26.1430  -44.0790 C   0  0  0  0  0  0  0  0  0  0  0  0
   13.3220  -26.1350  -43.8600 H   0  0  0  0  0  0  0  0  0  0  0  0
   12.0480  -25.4650  -44.9070 H   0  0  0  0  0  0  0  0  0  0  0  0
   11.9470  -27.1530  -44.3510 H   0  0  0  0  0  0  0  0  0  0  0  0
    7.1070  -22.4730  -44.2090 C   0  0  0  0  0  0  0  0  0  0  0  0
    6.6330  -21.6430  -43.6850 H   0  0  0  0  0  0  0  0  0  0  0  0
    7.1300  -22.2610  -45.2780 H   0  0  0  0  0  0  0  0  0  0  0  0
    8.1250  -22.6020  -43.8410 H   0  0  0  0  0  0  0  0  0  0  0  0
    3.3560  -22.1190  -42.3380 C   0  0  0  0  0  0  0  0  0  0  0  0
    2.4910  -22.5540  -42.8160 H   0  0  0  0  0  0  0  0  0  0  0  0
    1.0510  -20.8660  -40.2280 C   0  0  0  0  0  0  0  0  0  0  0  0
    1.0710  -21.8460  -39.7750 H   0  0  0  0  0  0  0  0  0  0  0  0
    0.0250  -19.7550  -40.0220 C   0  0  0  0  0  0  0  0  0  0  0  0
    0.1780  -19.2800  -39.0520 H   0  0  0  0  0  0  0  0  0  0  0  0
   -0.9840  -20.1630  -40.0720 H   0  0  0  0  0  0  0  0  0  0  0  0
    0.2370  -18.7430  -41.1400 C   0  0  0  0  0  0  0  0  0  0  0  0
   -0.4250  -17.9490  -41.4530 H   0  0  0  0  0  0  0  0  0  0  0  0
    2.2120  -18.2810  -44.0180 C   0  0  0  0  0  0  0  0  0  0  0  0
    1.3090  -19.0890  -44.9000 C   0  0  0  0  0  0  0  0  0  0  0  0
    1.5370  -18.8770  -45.9450 H   0  0  0  0  0  0  0  0  0  0  0  0
    0.2710  -18.8280  -44.6940 H   0  0  0  0  0  0  0  0  0  0  0  0
    1.4630  -20.1500  -44.7030 H   0  0  0  0  0  0  0  0  0  0  0  0
    5.7630  -21.6880  -41.5690 S   0  0  0  0  0  0  0  0  0  0  0  0
  1  4  1  0  0  0  0
  2 33  1  0  0  0  0
  2  1  1  0  0  0  0
  3  2  2  0  0  0  0
  4 10  1  0  0  0  0
  5  4  1  0  0  0  0
  6  4  1  0  0  0  0
  7 11  1  0  0  0  0
  7 15  1  0  0  0  0
  9 73  1  0  0  0  0
  9 33  1  0  0  0  0
 10 12  2  0  0  0  0
 10 14  1  0  0  0  0
 12  7  1  0  0  0  0
 13 12  1  0  0  0  0
 14 11  2  0  0  0  0
 15 16  1  0  0  0  0
 15 19  1  0  0  0  0
 17 15  1  0  0  0  0
 18 46  1  0  0  0  0
 19 21  1  0  0  0  0
 19 23  1  0  0  0  0
 20 19  1  0  0  0  0
 22 53  1  0  0  0  0
 22 27  1  0  0  0  0
 23 26  1  0  0  0  0
 23 25  1  0  0  0  0
 24 23  1  0  0  0  0
 28  1  1  0  0  0  0
 28 30  1  0  0  0  0
 29 28  1  0  0  0  0
 31 28  1  0  0  0  0
 32 27  2  0  0  0  0
 33 34  2  0  0  0  0
 34 35  1  0  0  0  0
 36 34  1  0  0  0  0
 36 37  1  0  0  0  0
 37 38  2  0  0  0  0
 37 71  1  0  0  0  0
 38 66  1  0  0  0  0
 39 38  1  0  0  0  0
 39 40  2  0  0  0  0
 40 41  1  0  0  0  0
 41 42  1  0  0  0  0
 41 44  1  0  0  0  0
 43 41  1  0  0  0  0
 45 64  2  0  0  0  0
 45 78  1  0  0  0  0
 46  8  2  0  0  0  0
 46 45  1  0  0  0  0
 47 49  1  0  0  0  0
 47 18  1  0  0  0  0
 47 50  1  0  0  0  0
 48 47  1  0  0  0  0
 50 32  1  0  0  0  0
 51 50  2  0  0  0  0
 51 22  1  0  0  0  0
 52 51  1  0  0  0  0
 53 55  1  0  0  0  0
 53 54  1  0  0  0  0
 56 57  1  0  0  0  0
 56 53  1  0  0  0  0
 58 56  1  0  0  0  0
 59 56  1  0  0  0  0
 60 18  1  0  0  0  0
 60 63  1  0  0  0  0
 60 61  1  0  0  0  0
 62 60  1  0  0  0  0
 64 39  1  0  0  0  0
 65 64  1  0  0  0  0
 66 68  1  0  0  0  0
 66 67  1  0  0  0  0
 68 69  1  0  0  0  0
 70 68  1  0  0  0  0
 71 68  1  0  0  0  0
 72 71  1  0  0  0  0
 73 36  2  0  0  0  0
 74 77  1  0  0  0  0
 74 76  1  0  0  0  0
 74 73  1  0  0  0  0
 75 74  1  0  0  0  0
 78 40  1  0  0  0  0
M  END
>  <Pose>
1

>  <Score>
-5.16

$$$$

 OpenBabel03112211333D

 78 82  0  0  0  0  0  0  0  0999 V2000
    1.5950  -25.3170  -43.8370 N   0  0  0  0  0  0  0  0  0  0  0  0
    2.2500  -24.8200  -42.6530 C   0  0  0  0  0  0  0  0  0  0  0  0
    1.8540  -25.1300  -41.5260 O   0  0  0  0  0  0  0  0  0  0  0  0
    2.0170  -24.9620  -45.1860 C   0  0  0  0  0  0  0  0  0  0  0  0
    1.3620  -25.4620  -45.9000 H   0  0  0  0  0  0  0  0  0  0  0  0
    3.0410  -25.3040  -45.3320 H   0  0  0  0  0  0  0  0  0  0  0  0
    2.3400  -21.3800  -45.6010 N   0  0  0  0  0  0  0  0  0  0  0  0
    0.8980  -20.0380  -37.8730 O   0  0  0  0  0  0  0  0  0  0  0  0
    4.8360  -24.8600  -43.3340 S   0  0  0  0  0  0  0  0  0  0  0  0
    1.9620  -23.4860  -45.4350 C   0  0  0  0  0  0  0  0  0  0  0  0
    1.0100  -21.5500  -45.6950 N   0  0  0  0  0  0  0  0  0  0  0  0
    2.9620  -22.5590  -45.4540 C   0  0  0  0  0  0  0  0  0  0  0  0
    4.0240  -22.7350  -45.3680 H   0  0  0  0  0  0  0  0  0  0  0  0
    0.7820  -22.8360  -45.5950 N   0  0  0  0  0  0  0  0  0  0  0  0
    2.9330  -20.0440  -45.6380 C   0  0  0  0  0  0  0  0  0  0  0  0
    2.2650  -19.3710  -46.1750 H   0  0  0  0  0  0  0  0  0  0  0  0
    3.8920  -20.0920  -46.1530 H   0  0  0  0  0  0  0  0  0  0  0  0
    0.0210  -20.4600  -39.9790 N   0  0  0  0  0  0  0  0  0  0  0  0
    3.1490  -19.5140  -44.2280 C   0  0  0  0  0  0  0  0  0  0  0  0
    3.9250  -18.7490  -44.2510 H   0  0  0  0  0  0  0  0  0  0  0  0
    3.4660  -20.3340  -43.5840 H   0  0  0  0  0  0  0  0  0  0  0  0
   -2.4120  -23.8340  -39.2390 N   0  0  0  0  0  0  0  0  0  0  0  0
    1.8930  -18.9180  -43.6780 C   0  0  0  0  0  0  0  0  0  0  0  0
    1.5700  -18.0970  -44.3170 H   0  0  0  0  0  0  0  0  0  0  0  0
    2.0800  -18.5440  -42.6710 H   0  0  0  0  0  0  0  0  0  0  0  0
    1.1150  -19.6800  -43.6430 H   0  0  0  0  0  0  0  0  0  0  0  0
   -2.2590  -23.5120  -37.9450 N   0  0  0  0  0  0  0  0  0  0  0  0
    0.4510  -26.2150  -43.7270 C   0  0  0  0  0  0  0  0  0  0  0  0
    0.2360  -26.4020  -42.6750 H   0  0  0  0  0  0  0  0  0  0  0  0
    0.6800  -27.1580  -44.2240 H   0  0  0  0  0  0  0  0  0  0  0  0
   -0.4180  -25.7570  -44.2000 H   0  0  0  0  0  0  0  0  0  0  0  0
   -1.8580  -22.2680  -37.9050 N   0  0  0  0  0  0  0  0  0  0  0  0
    3.4700  -23.9810  -42.7550 C   0  0  0  0  0  0  0  0  0  0  0  0
    3.7960  -22.6810  -42.4910 C   0  0  0  0  0  0  0  0  0  0  0  0
    3.0940  -21.9590  -42.1020 H   0  0  0  0  0  0  0  0  0  0  0  0
    5.1650  -22.3750  -42.7830 C   0  0  0  0  0  0  0  0  0  0  0  0
    5.6560  -20.9870  -42.7790 C   0  0  0  0  0  0  0  0  0  0  0  0
    5.3970  -20.0400  -41.8610 C   0  0  0  0  0  0  0  0  0  0  0  0
    4.5460  -20.1590  -40.6690 C   0  0  0  0  0  0  0  0  0  0  0  0
    4.9930  -20.1840  -39.3670 C   0  0  0  0  0  0  0  0  0  0  0  0
    6.3910  -20.1480  -38.8230 C   0  0  0  0  0  0  0  0  0  0  0  0
    7.1010  -20.0950  -39.6480 H   0  0  0  0  0  0  0  0  0  0  0  0
    6.5780  -21.0500  -38.2410 H   0  0  0  0  0  0  0  0  0  0  0  0
    6.5100  -19.2720  -38.1840 H   0  0  0  0  0  0  0  0  0  0  0  0
    2.5050  -20.2660  -39.5390 C   0  0  0  0  0  0  0  0  0  0  0  0
    1.1030  -20.2540  -39.0660 C   0  0  0  0  0  0  0  0  0  0  0  0
   -1.3300  -20.3830  -39.4450 C   0  0  0  0  0  0  0  0  0  0  0  0
   -2.0000  -19.9250  -40.1730 H   0  0  0  0  0  0  0  0  0  0  0  0
   -1.3410  -19.8010  -38.5240 H   0  0  0  0  0  0  0  0  0  0  0  0
   -1.7460  -21.7960  -39.1730 C   0  0  0  0  0  0  0  0  0  0  0  0
   -2.1140  -22.7900  -40.0280 C   0  0  0  0  0  0  0  0  0  0  0  0
   -2.1570  -22.7480  -41.1070 H   0  0  0  0  0  0  0  0  0  0  0  0
   -2.8100  -25.1790  -39.6660 C   0  0  0  0  0  0  0  0  0  0  0  0
   -2.9270  -25.1830  -40.7490 H   0  0  0  0  0  0  0  0  0  0  0  0
   -3.7620  -25.4280  -39.1970 H   0  0  0  0  0  0  0  0  0  0  0  0
   -1.7920  -26.2250  -39.2830 C   0  0  0  0  0  0  0  0  0  0  0  0
   -2.1320  -27.2040  -39.6200 H   0  0  0  0  0  0  0  0  0  0  0  0
   -1.6710  -26.2350  -38.1990 H   0  0  0  0  0  0  0  0  0  0  0  0
   -0.8360  -25.9900  -39.7520 H   0  0  0  0  0  0  0  0  0  0  0  0
    0.1520  -20.8380  -41.3820 C   0  0  0  0  0  0  0  0  0  0  0  0
    1.2060  -20.8580  -41.6570 H   0  0  0  0  0  0  0  0  0  0  0  0
   -0.3720  -20.1120  -42.0050 H   0  0  0  0  0  0  0  0  0  0  0  0
   -0.2820  -21.8260  -41.5340 H   0  0  0  0  0  0  0  0  0  0  0  0
    3.1210  -20.2060  -40.7610 C   0  0  0  0  0  0  0  0  0  0  0  0
    2.5840  -20.1940  -41.6980 H   0  0  0  0  0  0  0  0  0  0  0  0
    6.1320  -18.7580  -42.1660 C   0  0  0  0  0  0  0  0  0  0  0  0
    6.0200  -17.7970  -41.6880 H   0  0  0  0  0  0  0  0  0  0  0  0
    7.0710  -19.1380  -43.3070 C   0  0  0  0  0  0  0  0  0  0  0  0
    8.0930  -19.2260  -42.9380 H   0  0  0  0  0  0  0  0  0  0  0  0
    7.0320  -18.3830  -44.0920 H   0  0  0  0  0  0  0  0  0  0  0  0
    6.5930  -20.4800  -43.8470 C   0  0  0  0  0  0  0  0  0  0  0  0
    6.8610  -20.9570  -44.7790 H   0  0  0  0  0  0  0  0  0  0  0  0
    5.8640  -23.4690  -43.2330 C   0  0  0  0  0  0  0  0  0  0  0  0
    7.2980  -23.5960  -43.6530 C   0  0  0  0  0  0  0  0  0  0  0  0
    7.4980  -24.6250  -43.9530 H   0  0  0  0  0  0  0  0  0  0  0  0
    7.9450  -23.3280  -42.8180 H   0  0  0  0  0  0  0  0  0  0  0  0
    7.4910  -22.9280  -44.4920 H   0  0  0  0  0  0  0  0  0  0  0  0
    3.6600  -20.2700  -38.2570 S   0  0  0  0  0  0  0  0  0  0  0  0
  1 28  1  0  0  0  0
  1  2  1  0  0  0  0
  2  3  2  0  0  0  0
  4  1  1  0  0  0  0
  5  4  1  0  0  0  0
  6  4  1  0  0  0  0
  7 12  1  0  0  0  0
  9 73  1  0  0  0  0
  9 33  1  0  0  0  0
 10  4  1  0  0  0  0
 11  7  1  0  0  0  0
 11 14  2  0  0  0  0
 12 10  2  0  0  0  0
 12 13  1  0  0  0  0
 14 10  1  0  0  0  0
 15  7  1  0  0  0  0
 15 19  1  0  0  0  0
 16 15  1  0  0  0  0
 17 15  1  0  0  0  0
 18 47  1  0  0  0  0
 18 46  1  0  0  0  0
 19 23  1  0  0  0  0
 19 21  1  0  0  0  0
 20 19  1  0  0  0  0
 22 27  1  0  0  0  0
 23 26  1  0  0  0  0
 23 25  1  0  0  0  0
 24 23  1  0  0  0  0
 27 32  2  0  0  0  0
 28 29  1  0  0  0  0
 30 28  1  0  0  0  0
 31 28  1  0  0  0  0
 33  2  1  0  0  0  0
 33 34  2  0  0  0  0
 34 35  1  0  0  0  0
 36 37  1  0  0  0  0
 36 34  1  0  0  0  0
 37 38  2  0  0  0  0
 38 39  1  0  0  0  0
 39 40  2  0  0  0  0
 40 41  1  0  0  0  0
 40 78  1  0  0  0  0
 41 43  1  0  0  0  0
 41 44  1  0  0  0  0
 42 41  1  0  0  0  0
 45 46  1  0  0  0  0
 45 78  1  0  0  0  0
 46  8  2  0  0  0  0
 47 50  1  0  0  0  0
 47 49  1  0  0  0  0
 48 47  1  0  0  0  0
 50 32  1  0  0  0  0
 51 22  1  0  0  0  0
 51 50  2  0  0  0  0
 52 51  1  0  0  0  0
 53 56  1  0  0  0  0
 53 22  1  0  0  0  0
 53 55  1  0  0  0  0
 54 53  1  0  0  0  0
 56 58  1  0  0  0  0
 57 56  1  0  0  0  0
 59 56  1  0  0  0  0
 60 18  1  0  0  0  0
 61 60  1  0  0  0  0
 62 60  1  0  0  0  0
 63 60  1  0  0  0  0
 64 39  1  0  0  0  0
 64 45  2  0  0  0  0
 65 64  1  0  0  0  0
 66 38  1  0  0  0  0
 66 67  1  0  0  0  0
 68 69  1  0  0  0  0
 68 66  1  0  0  0  0
 70 68  1  0  0  0  0
 71 68  1  0  0  0  0
 71 37  1  0  0  0  0
 72 71  1  0  0  0  0
 73 36  2  0  0  0  0
 74 73  1  0  0  0  0
 74 76  1  0  0  0  0
 75 74  1  0  0  0  0
 77 74  1  0  0  0  0
M  END
>  <Pose>
1

>  <Score>
-5.05

$$$$

 OpenBabel03112211333D

 78 82  0  0  0  0  0  0  0  0999 V2000
    9.1670  -25.0410  -44.0340 N   0  0  0  0  0  0  0  0  0  0  0  0
    9.6650  -24.1740  -45.0720 C   0  0  0  0  0  0  0  0  0  0  0  0
    9.0410  -24.0110  -46.1240 O   0  0  0  0  0  0  0  0  0  0  0  0
    9.8800  -25.2750  -42.7850 C   0  0  0  0  0  0  0  0  0  0  0  0
    9.1510  -25.4390  -41.9920 H   0  0  0  0  0  0  0  0  0  0  0  0
   10.4780  -24.3940  -42.5530 H   0  0  0  0  0  0  0  0  0  0  0  0
   12.1440  -28.0260  -43.4310 N   0  0  0  0  0  0  0  0  0  0  0  0
    6.9390  -20.2130  -44.6940 O   0  0  0  0  0  0  0  0  0  0  0  0
   12.2140  -23.9530  -45.8510 S   0  0  0  0  0  0  0  0  0  0  0  0
   10.7870  -26.4650  -42.8570 C   0  0  0  0  0  0  0  0  0  0  0  0
   11.5380  -28.4280  -42.3000 N   0  0  0  0  0  0  0  0  0  0  0  0
   11.7140  -26.8100  -43.7970 C   0  0  0  0  0  0  0  0  0  0  0  0
   12.0320  -26.2300  -44.6510 H   0  0  0  0  0  0  0  0  0  0  0  0
   10.7120  -27.4720  -41.9510 N   0  0  0  0  0  0  0  0  0  0  0  0
   13.1100  -28.8860  -44.1130 C   0  0  0  0  0  0  0  0  0  0  0  0
   13.9830  -29.0200  -43.4740 H   0  0  0  0  0  0  0  0  0  0  0  0
   13.4130  -28.4140  -45.0470 H   0  0  0  0  0  0  0  0  0  0  0  0
    6.7600  -18.4560  -43.1890 N   0  0  0  0  0  0  0  0  0  0  0  0
   12.4980  -30.2460  -44.4150 C   0  0  0  0  0  0  0  0  0  0  0  0
   11.8530  -30.1590  -45.2890 H   0  0  0  0  0  0  0  0  0  0  0  0
   11.9070  -30.5690  -43.5580 H   0  0  0  0  0  0  0  0  0  0  0  0
    4.6910  -20.3570  -39.8530 N   0  0  0  0  0  0  0  0  0  0  0  0
   13.5560  -31.2650  -44.6900 C   0  0  0  0  0  0  0  0  0  0  0  0
   14.1520  -30.9490  -45.5460 H   0  0  0  0  0  0  0  0  0  0  0  0
   13.0890  -32.2250  -44.9070 H   0  0  0  0  0  0  0  0  0  0  0  0
   14.2010  -31.3640  -43.8160 H   0  0  0  0  0  0  0  0  0  0  0  0
    5.8010  -20.9860  -40.2680 N   0  0  0  0  0  0  0  0  0  0  0  0
    7.8970  -25.7380  -44.2000 C   0  0  0  0  0  0  0  0  0  0  0  0
    7.4650  -25.4810  -45.1680 H   0  0  0  0  0  0  0  0  0  0  0  0
    7.2120  -25.4390  -43.4060 H   0  0  0  0  0  0  0  0  0  0  0  0
    8.0640  -26.8140  -44.1510 H   0  0  0  0  0  0  0  0  0  0  0  0
    6.1240  -20.4700  -41.4260 N   0  0  0  0  0  0  0  0  0  0  0  0
   10.9100  -23.3890  -44.8740 C   0  0  0  0  0  0  0  0  0  0  0  0
   11.2960  -22.3340  -44.0970 C   0  0  0  0  0  0  0  0  0  0  0  0
   10.6390  -21.8400  -43.3960 H   0  0  0  0  0  0  0  0  0  0  0  0
   12.6610  -21.9520  -44.3070 C   0  0  0  0  0  0  0  0  0  0  0  0
   13.2030  -20.7070  -43.7360 C   0  0  0  0  0  0  0  0  0  0  0  0
   12.6020  -19.5050  -43.7020 C   0  0  0  0  0  0  0  0  0  0  0  0
   11.2850  -19.1470  -44.2460 C   0  0  0  0  0  0  0  0  0  0  0  0
   11.0610  -18.5040  -45.4420 C   0  0  0  0  0  0  0  0  0  0  0  0
   12.0350  -17.9720  -46.4510 C   0  0  0  0  0  0  0  0  0  0  0  0
   13.0530  -18.1630  -46.1110 H   0  0  0  0  0  0  0  0  0  0  0  0
   11.8870  -16.8980  -46.5680 H   0  0  0  0  0  0  0  0  0  0  0  0
   11.8740  -18.4670  -47.4090 H   0  0  0  0  0  0  0  0  0  0  0  0
    8.9500  -19.1250  -44.2650 C   0  0  0  0  0  0  0  0  0  0  0  0
    7.4920  -19.3030  -44.0800 C   0  0  0  0  0  0  0  0  0  0  0  0
    5.3400  -18.7280  -43.0230 C   0  0  0  0  0  0  0  0  0  0  0  0
    4.9640  -19.3050  -43.8680 H   0  0  0  0  0  0  0  0  0  0  0  0
    4.7830  -17.7940  -42.9440 H   0  0  0  0  0  0  0  0  0  0  0  0
    5.2160  -19.5170  -41.7570 C   0  0  0  0  0  0  0  0  0  0  0  0
    4.3060  -19.4310  -40.7460 C   0  0  0  0  0  0  0  0  0  0  0  0
    3.4600  -18.7630  -40.6780 H   0  0  0  0  0  0  0  0  0  0  0  0
    4.0130  -20.7130  -38.6040 C   0  0  0  0  0  0  0  0  0  0  0  0
    4.7020  -21.2860  -37.9820 H   0  0  0  0  0  0  0  0  0  0  0  0
    3.1430  -21.3250  -38.8390 H   0  0  0  0  0  0  0  0  0  0  0  0
    3.5590  -19.4980  -37.8330 C   0  0  0  0  0  0  0  0  0  0  0  0
    3.0630  -19.8140  -36.9150 H   0  0  0  0  0  0  0  0  0  0  0  0
    2.8630  -18.9210  -38.4410 H   0  0  0  0  0  0  0  0  0  0  0  0
    4.4230  -18.8810  -37.5850 H   0  0  0  0  0  0  0  0  0  0  0  0
    7.2870  -17.2800  -42.5050 C   0  0  0  0  0  0  0  0  0  0  0  0
    8.3540  -17.1900  -42.7080 H   0  0  0  0  0  0  0  0  0  0  0  0
    7.1290  -17.3830  -41.4310 H   0  0  0  0  0  0  0  0  0  0  0  0
    6.7720  -16.3900  -42.8640 H   0  0  0  0  0  0  0  0  0  0  0  0
   10.0720  -19.5010  -43.5770 C   0  0  0  0  0  0  0  0  0  0  0  0
   10.0440  -20.0130  -42.6260 H   0  0  0  0  0  0  0  0  0  0  0  0
   13.4460  -18.4860  -42.9760 C   0  0  0  0  0  0  0  0  0  0  0  0
   13.2880  -17.4200  -42.9040 H   0  0  0  0  0  0  0  0  0  0  0  0
   14.5750  -19.3130  -42.3680 C   0  0  0  0  0  0  0  0  0  0  0  0
   14.4190  -19.4300  -41.2960 H   0  0  0  0  0  0  0  0  0  0  0  0
   15.5340  -18.8250  -42.5440 H   0  0  0  0  0  0  0  0  0  0  0  0
   14.5470  -20.6740  -43.0530 C   0  0  0  0  0  0  0  0  0  0  0  0
   15.3120  -21.4360  -43.0500 H   0  0  0  0  0  0  0  0  0  0  0  0
   13.2980  -22.7550  -45.2220 C   0  0  0  0  0  0  0  0  0  0  0  0
   14.7050  -22.7100  -45.7360 C   0  0  0  0  0  0  0  0  0  0  0  0
   14.8530  -23.5120  -46.4590 H   0  0  0  0  0  0  0  0  0  0  0  0
   15.3990  -22.8360  -44.9060 H   0  0  0  0  0  0  0  0  0  0  0  0
   14.8850  -21.7480  -46.2180 H   0  0  0  0  0  0  0  0  0  0  0  0
    9.3590  -18.3290  -45.7410 S   0  0  0  0  0  0  0  0  0  0  0  0
  1  4  1  0  0  0  0
  2 33  1  0  0  0  0
  2  1  1  0  0  0  0
  3  2  2  0  0  0  0
  4  6  1  0  0  0  0
  4  5  1  0  0  0  0
  7 11  1  0  0  0  0
  8 46  2  0  0  0  0
  9 73  1  0  0  0  0
  9 33  1  0  0  0  0
 10  4  1  0  0  0  0
 10 14  1  0  0  0  0
 11 14  2  0  0  0  0
 12  7  1  0  0  0  0
 12 10  2  0  0  0  0
 13 12  1  0  0  0  0
 15 16  1  0  0  0  0
 15  7  1  0  0  0  0
 17 15  1  0  0  0  0
 18 47  1  0  0  0  0
 18 60  1  0  0  0  0
 19 15  1  0  0  0  0
 19 21  1  0  0  0  0
 20 19  1  0  0  0  0
 22 53  1  0  0  0  0
 23 19  1  0  0  0  0
 23 26  1  0  0  0  0
 24 23  1  0  0  0  0
 25 23  1  0  0  0  0
 27 22  1  0  0  0  0
 28 31  1  0  0  0  0
 28  1  1  0  0  0  0
 28 30  1  0  0  0  0
 29 28  1  0  0  0  0
 32 27  2  0  0  0  0
 33 34  2  0  0  0  0
 34 35  1  0  0  0  0
 36 34  1  0  0  0  0
 36 37  1  0  0  0  0
 37 38  2  0  0  0  0
 37 71  1  0  0  0  0
 38 66  1  0  0  0  0
 39 38  1  0  0  0  0
 39 64  1  0  0  0  0
 40 39  2  0  0  0  0
 41 42  1  0  0  0  0
 41 40  1  0  0  0  0
 43 41  1  0  0  0  0
 44 41  1  0  0  0  0
 45 46  1  0  0  0  0
 45 64  2  0  0  0  0
 46 18  1  0  0  0  0
 47 49  1  0  0  0  0
 47 50  1  0  0  0  0
 48 47  1  0  0  0  0
 50 32  1  0  0  0  0
 50 51  2  0  0  0  0
 51 52  1  0  0  0  0
 51 22  1  0  0  0  0
 53 54  1  0  0  0  0
 53 56  1  0  0  0  0
 55 53  1  0  0  0  0
 56 59  1  0  0  0  0
 56 57  1  0  0  0  0
 58 56  1  0  0  0  0
 60 62  1  0  0  0  0
 61 60  1  0  0  0  0
 63 60  1  0  0  0  0
 64 65  1  0  0  0  0
 66 67  1  0  0  0  0
 66 68  1  0  0  0  0
 68 69  1  0  0  0  0
 70 68  1  0  0  0  0
 71 72  1  0  0  0  0
 71 68  1  0  0  0  0
 73 36  2  0  0  0  0
 74 73  1  0  0  0  0
 74 76  1  0  0  0  0
 75 74  1  0  0  0  0
 77 74  1  0  0  0  0
 78 40  1  0  0  0  0
 78 45  1  0  0  0  0
M  END
>  <Pose>
1

>  <Score>
-4.96

$$$$

 OpenBabel03112211333D

 78 82  0  0  0  0  0  0  0  0999 V2000
   -4.4210  -17.1990  -36.2010 N   0  0  0  0  0  0  0  0  0  0  0  0
   -3.1530  -17.8870  -36.2070 C   0  0  0  0  0  0  0  0  0  0  0  0
   -2.8470  -18.6710  -35.3050 O   0  0  0  0  0  0  0  0  0  0  0  0
   -4.8160  -16.2520  -37.2350 C   0  0  0  0  0  0  0  0  0  0  0  0
   -5.8890  -16.0810  -37.1600 H   0  0  0  0  0  0  0  0  0  0  0  0
   -4.5830  -16.6810  -38.2090 H   0  0  0  0  0  0  0  0  0  0  0  0
   -2.6940  -13.3260  -37.0180 N   0  0  0  0  0  0  0  0  0  0  0  0
    4.5510  -22.1440  -39.1390 O   0  0  0  0  0  0  0  0  0  0  0  0
   -2.6540  -18.6740  -38.7140 S   0  0  0  0  0  0  0  0  0  0  0  0
   -4.1090  -14.9370  -37.1080 C   0  0  0  0  0  0  0  0  0  0  0  0
   -3.8170  -12.8970  -36.4160 N   0  0  0  0  0  0  0  0  0  0  0  0
   -2.8440  -14.5790  -37.4700 C   0  0  0  0  0  0  0  0  0  0  0  0
   -2.1200  -15.1750  -38.0050 H   0  0  0  0  0  0  0  0  0  0  0  0
   -4.6800  -13.8820  -36.4740 N   0  0  0  0  0  0  0  0  0  0  0  0
   -1.5090  -12.4740  -37.0920 C   0  0  0  0  0  0  0  0  0  0  0  0
   -1.8210  -11.4340  -37.1940 H   0  0  0  0  0  0  0  0  0  0  0  0
   -0.9150  -12.7610  -37.9610 H   0  0  0  0  0  0  0  0  0  0  0  0
    4.1060  -21.6520  -41.3620 N   0  0  0  0  0  0  0  0  0  0  0  0
   -0.6610  -12.6210  -35.8370 C   0  0  0  0  0  0  0  0  0  0  0  0
   -1.1300  -13.3480  -35.1750 H   0  0  0  0  0  0  0  0  0  0  0  0
   -0.6010  -11.6560  -35.3330 H   0  0  0  0  0  0  0  0  0  0  0  0
    1.8690  -24.6020  -43.3870 N   0  0  0  0  0  0  0  0  0  0  0  0
    0.7200  -13.0840  -36.1700 C   0  0  0  0  0  0  0  0  0  0  0  0
    0.6690  -14.0480  -36.6740 H   0  0  0  0  0  0  0  0  0  0  0  0
    1.3000  -13.1840  -35.2530 H   0  0  0  0  0  0  0  0  0  0  0  0
    1.1990  -12.3560  -36.8250 H   0  0  0  0  0  0  0  0  0  0  0  0
    1.8640  -25.1700  -42.1710 N   0  0  0  0  0  0  0  0  0  0  0  0
   -5.3810  -17.4300  -35.1270 C   0  0  0  0  0  0  0  0  0  0  0  0
   -4.9700  -18.1530  -34.4220 H   0  0  0  0  0  0  0  0  0  0  0  0
   -6.3090  -17.8180  -35.5470 H   0  0  0  0  0  0  0  0  0  0  0  0
   -5.5800  -16.4920  -34.6100 H   0  0  0  0  0  0  0  0  0  0  0  0
    2.8490  -24.6370  -41.4960 N   0  0  0  0  0  0  0  0  0  0  0  0
   -2.2090  -17.7280  -37.3420 C   0  0  0  0  0  0  0  0  0  0  0  0
   -1.0590  -17.0320  -37.5750 C   0  0  0  0  0  0  0  0  0  0  0  0
   -0.5920  -16.3900  -36.8430 H   0  0  0  0  0  0  0  0  0  0  0  0
   -0.5340  -17.2390  -38.8930 C   0  0  0  0  0  0  0  0  0  0  0  0
    0.5670  -16.4140  -39.4160 C   0  0  0  0  0  0  0  0  0  0  0  0
    1.8620  -16.7600  -39.5120 C   0  0  0  0  0  0  0  0  0  0  0  0
    2.4840  -18.0250  -39.0960 C   0  0  0  0  0  0  0  0  0  0  0  0
    2.5620  -18.4890  -37.8020 C   0  0  0  0  0  0  0  0  0  0  0  0
    2.1100  -17.8580  -36.5180 C   0  0  0  0  0  0  0  0  0  0  0  0
    1.6620  -16.8870  -36.7280 H   0  0  0  0  0  0  0  0  0  0  0  0
    2.9660  -17.7280  -35.8560 H   0  0  0  0  0  0  0  0  0  0  0  0
    1.3730  -18.5010  -36.0370 H   0  0  0  0  0  0  0  0  0  0  0  0
    3.5180  -20.0860  -39.4650 C   0  0  0  0  0  0  0  0  0  0  0  0
    4.0990  -21.3530  -39.9630 C   0  0  0  0  0  0  0  0  0  0  0  0
    4.6500  -22.9390  -41.7680 C   0  0  0  0  0  0  0  0  0  0  0  0
    5.1080  -23.4430  -40.9160 H   0  0  0  0  0  0  0  0  0  0  0  0
    5.3940  -22.8060  -42.5530 H   0  0  0  0  0  0  0  0  0  0  0  0
    3.4900  -23.7340  -42.2810 C   0  0  0  0  0  0  0  0  0  0  0  0
    2.8560  -23.6980  -43.4860 C   0  0  0  0  0  0  0  0  0  0  0  0
    3.0950  -23.0770  -44.3370 H   0  0  0  0  0  0  0  0  0  0  0  0
    0.9220  -24.9950  -44.4340 C   0  0  0  0  0  0  0  0  0  0  0  0
    1.0550  -24.3370  -45.2930 H   0  0  0  0  0  0  0  0  0  0  0  0
   -0.0920  -24.8880  -44.0490 H   0  0  0  0  0  0  0  0  0  0  0  0
    1.1240  -26.4230  -44.8800 C   0  0  0  0  0  0  0  0  0  0  0  0
    0.4000  -26.6670  -45.6570 H   0  0  0  0  0  0  0  0  0  0  0  0
    0.9860  -27.0920  -44.0310 H   0  0  0  0  0  0  0  0  0  0  0  0
    2.1330  -26.5410  -45.2750 H   0  0  0  0  0  0  0  0  0  0  0  0
    3.7080  -20.7430  -42.4310 C   0  0  0  0  0  0  0  0  0  0  0  0
    3.3190  -19.8210  -41.9970 H   0  0  0  0  0  0  0  0  0  0  0  0
    2.9340  -21.2120  -43.0380 H   0  0  0  0  0  0  0  0  0  0  0  0
    4.5710  -20.5150  -43.0550 H   0  0  0  0  0  0  0  0  0  0  0  0
    3.0320  -18.9440  -40.0430 C   0  0  0  0  0  0  0  0  0  0  0  0
    3.0590  -18.7570  -41.1070 H   0  0  0  0  0  0  0  0  0  0  0  0
    2.6800  -15.6700  -40.1610 C   0  0  0  0  0  0  0  0  0  0  0  0
    3.7540  -15.6090  -40.2530 H   0  0  0  0  0  0  0  0  0  0  0  0
    1.6340  -14.6760  -40.6580 C   0  0  0  0  0  0  0  0  0  0  0  0
    1.5250  -14.7550  -41.7390 H   0  0  0  0  0  0  0  0  0  0  0  0
    1.9290  -13.6600  -40.3960 H   0  0  0  0  0  0  0  0  0  0  0  0
    0.3220  -15.0330  -39.9720 C   0  0  0  0  0  0  0  0  0  0  0  0
   -0.5760  -14.4360  -39.9000 H   0  0  0  0  0  0  0  0  0  0  0  0
   -1.2860  -18.1260  -39.6250 C   0  0  0  0  0  0  0  0  0  0  0  0
   -1.1060  -18.6200  -41.0290 C   0  0  0  0  0  0  0  0  0  0  0  0
   -1.9040  -19.3210  -41.2720 H   0  0  0  0  0  0  0  0  0  0  0  0
   -0.1420  -19.1210  -41.1160 H   0  0  0  0  0  0  0  0  0  0  0  0
   -1.1400  -17.7760  -41.7180 H   0  0  0  0  0  0  0  0  0  0  0  0
    3.3160  -20.0540  -37.7510 S   0  0  0  0  0  0  0  0  0  0  0  0
  1 28  1  0  0  0  0
  2  1  1  0  0  0  0
  2  3  2  0  0  0  0
  4  5  1  0  0  0  0
  4 10  1  0  0  0  0
  4  1  1  0  0  0  0
  6  4  1  0  0  0  0
  7 11  1  0  0  0  0
  9 33  1  0  0  0  0
 10 14  1  0  0  0  0
 12 10  2  0  0  0  0
 12  7  1  0  0  0  0
 13 12  1  0  0  0  0
 14 11  2  0  0  0  0
 15  7  1  0  0  0  0
 15 19  1  0  0  0  0
 16 15  1  0  0  0  0
 17 15  1  0  0  0  0
 18 46  1  0  0  0  0
 19 21  1  0  0  0  0
 19 20  1  0  0  0  0
 22 27  1  0  0  0  0
 23 19  1  0  0  0  0
 23 25  1  0  0  0  0
 24 23  1  0  0  0  0
 26 23  1  0  0  0  0
 27 32  2  0  0  0  0
 28 31  1  0  0  0  0
 28 29  1  0  0  0  0
 30 28  1  0  0  0  0
 33  2  1  0  0  0  0
 34 33  2  0  0  0  0
 34 35  1  0  0  0  0
 36 34  1  0  0  0  0
 37 36  1  0  0  0  0
 38 37  2  0  0  0  0
 38 39  1  0  0  0  0
 39 40  2  0  0  0  0
 40 78  1  0  0  0  0
 40 41  1  0  0  0  0
 41 44  1  0  0  0  0
 41 43  1  0  0  0  0
 42 41  1  0  0  0  0
 45 78  1  0  0  0  0
 46 45  1  0  0  0  0
 46  8  2  0  0  0  0
 47 18  1  0  0  0  0
 47 48  1  0  0  0  0
 49 47  1  0  0  0  0
 50 47  1  0  0  0  0
 50 32  1  0  0  0  0
 51 22  1  0  0  0  0
 51 50  2  0  0  0  0
 52 51  1  0  0  0  0
 53 55  1  0  0  0  0
 53 22  1  0  0  0  0
 54 53  1  0  0  0  0
 56 53  1  0  0  0  0
 56 58  1  0  0  0  0
 57 56  1  0  0  0  0
 59 56  1  0  0  0  0
 60 61  1  0  0  0  0
 60 18  1  0  0  0  0
 62 60  1  0  0  0  0
 63 60  1  0  0  0  0
 64 45  2  0  0  0  0
 64 39  1  0  0  0  0
 65 64  1  0  0  0  0
 66 38  1  0  0  0  0
 67 66  1  0  0  0  0
 68 70  1  0  0  0  0
 68 66  1  0  0  0  0
 68 71  1  0  0  0  0
 69 68  1  0  0  0  0
 71 72  1  0  0  0  0
 71 37  1  0  0  0  0
 73 36  2  0  0  0  0
 73  9  1  0  0  0  0
 74 73  1  0  0  0  0
 75 74  1  0  0  0  0
 76 74  1  0  0  0  0
 77 74  1  0  0  0  0
M  END
>  <Pose>
1

>  <Score>
-4.96

$$$$

 OpenBabel03112211333D

 78 82  0  0  0  0  0  0  0  0999 V2000
    6.9700  -26.0730  -42.9000 N   0  0  0  0  0  0  0  0  0  0  0  0
    8.3180  -25.5670  -42.9500 C   0  0  0  0  0  0  0  0  0  0  0  0
    9.2150  -26.0680  -42.2660 O   0  0  0  0  0  0  0  0  0  0  0  0
    5.8780  -25.5000  -43.6770 C   0  0  0  0  0  0  0  0  0  0  0  0
    6.2630  -24.6590  -44.2540 H   0  0  0  0  0  0  0  0  0  0  0  0
    5.1090  -25.1460  -42.9900 H   0  0  0  0  0  0  0  0  0  0  0  0
    3.9630  -27.6660  -45.8560 N   0  0  0  0  0  0  0  0  0  0  0  0
    4.2570  -22.5890  -40.9410 O   0  0  0  0  0  0  0  0  0  0  0  0
    9.3030  -25.0600  -45.3840 S   0  0  0  0  0  0  0  0  0  0  0  0
    5.2630  -26.4890  -44.6190 C   0  0  0  0  0  0  0  0  0  0  0  0
    5.0960  -28.3720  -45.6910 N   0  0  0  0  0  0  0  0  0  0  0  0
    4.0380  -26.4900  -45.2180 C   0  0  0  0  0  0  0  0  0  0  0  0
    3.2900  -25.7110  -45.1860 H   0  0  0  0  0  0  0  0  0  0  0  0
    5.8880  -27.6500  -44.9370 N   0  0  0  0  0  0  0  0  0  0  0  0
    2.8440  -28.2090  -46.6250 C   0  0  0  0  0  0  0  0  0  0  0  0
    2.6660  -27.5740  -47.4930 H   0  0  0  0  0  0  0  0  0  0  0  0
    1.9530  -28.2250  -45.9970 H   0  0  0  0  0  0  0  0  0  0  0  0
    5.3100  -20.8290  -39.8570 N   0  0  0  0  0  0  0  0  0  0  0  0
    3.1510  -29.6230  -47.0940 C   0  0  0  0  0  0  0  0  0  0  0  0
    3.9950  -30.0120  -46.5250 H   0  0  0  0  0  0  0  0  0  0  0  0
    3.4080  -29.5990  -48.1530 H   0  0  0  0  0  0  0  0  0  0  0  0
    1.8130  -19.2270  -38.2370 N   0  0  0  0  0  0  0  0  0  0  0  0
    1.9750  -30.5240  -46.8980 C   0  0  0  0  0  0  0  0  0  0  0  0
    1.7120  -30.5530  -45.8410 H   0  0  0  0  0  0  0  0  0  0  0  0
    2.2260  -31.5280  -47.2390 H   0  0  0  0  0  0  0  0  0  0  0  0
    1.1290  -30.1460  -47.4720 H   0  0  0  0  0  0  0  0  0  0  0  0
    2.5320  -18.8610  -37.1640 N   0  0  0  0  0  0  0  0  0  0  0  0
    6.6370  -27.2070  -42.0460 C   0  0  0  0  0  0  0  0  0  0  0  0
    7.5320  -27.5420  -41.5220 H   0  0  0  0  0  0  0  0  0  0  0  0
    6.2480  -28.0210  -42.6580 H   0  0  0  0  0  0  0  0  0  0  0  0
    5.8820  -26.9050  -41.3200 H   0  0  0  0  0  0  0  0  0  0  0  0
    3.6380  -19.5590  -37.1890 N   0  0  0  0  0  0  0  0  0  0  0  0
    8.6860  -24.4730  -43.8850 C   0  0  0  0  0  0  0  0  0  0  0  0
    8.6770  -23.1080  -43.8550 C   0  0  0  0  0  0  0  0  0  0  0  0
    8.3460  -22.5340  -43.0020 H   0  0  0  0  0  0  0  0  0  0  0  0
    9.1500  -22.5170  -45.0720 C   0  0  0  0  0  0  0  0  0  0  0  0
    9.0100  -21.0740  -45.3250 C   0  0  0  0  0  0  0  0  0  0  0  0
    7.9880  -20.2830  -44.9560 C   0  0  0  0  0  0  0  0  0  0  0  0
    6.7660  -20.6760  -44.2420 C   0  0  0  0  0  0  0  0  0  0  0  0
    5.5660  -21.0070  -44.8300 C   0  0  0  0  0  0  0  0  0  0  0  0
    5.1680  -21.0150  -46.2770 C   0  0  0  0  0  0  0  0  0  0  0  0
    6.0130  -20.6980  -46.8880 H   0  0  0  0  0  0  0  0  0  0  0  0
    4.3330  -20.3310  -46.4280 H   0  0  0  0  0  0  0  0  0  0  0  0
    4.8680  -22.0230  -46.5660 H   0  0  0  0  0  0  0  0  0  0  0  0
    5.5210  -21.2320  -42.3460 C   0  0  0  0  0  0  0  0  0  0  0  0
    4.9780  -21.5970  -41.0170 C   0  0  0  0  0  0  0  0  0  0  0  0
    4.7780  -21.2810  -38.5810 C   0  0  0  0  0  0  0  0  0  0  0  0
    5.5380  -21.2040  -37.8040 H   0  0  0  0  0  0  0  0  0  0  0  0
    4.4390  -22.3140  -38.6560 H   0  0  0  0  0  0  0  0  0  0  0  0
    3.6250  -20.3770  -38.2710 C   0  0  0  0  0  0  0  0  0  0  0  0
    2.4650  -20.1560  -38.9530 C   0  0  0  0  0  0  0  0  0  0  0  0
    2.1420  -20.6270  -39.8700 H   0  0  0  0  0  0  0  0  0  0  0  0
    0.4810  -18.6780  -38.5070 C   0  0  0  0  0  0  0  0  0  0  0  0
    0.3130  -18.6790  -39.5840 H   0  0  0  0  0  0  0  0  0  0  0  0
    0.4410  -17.6550  -38.1330 H   0  0  0  0  0  0  0  0  0  0  0  0
   -0.6120  -19.4800  -37.8440 C   0  0  0  0  0  0  0  0  0  0  0  0
   -1.5800  -19.0340  -38.0730 H   0  0  0  0  0  0  0  0  0  0  0  0
   -0.4590  -19.4810  -36.7650 H   0  0  0  0  0  0  0  0  0  0  0  0
   -0.5870  -20.5050  -38.2150 H   0  0  0  0  0  0  0  0  0  0  0  0
    6.0550  -19.5740  -39.8490 C   0  0  0  0  0  0  0  0  0  0  0  0
    6.3970  -19.3490  -40.8590 H   0  0  0  0  0  0  0  0  0  0  0  0
    6.9150  -19.6660  -39.1860 H   0  0  0  0  0  0  0  0  0  0  0  0
    5.4080  -18.7700  -39.4970 H   0  0  0  0  0  0  0  0  0  0  0  0
    6.7340  -20.8080  -42.8190 C   0  0  0  0  0  0  0  0  0  0  0  0
    7.5800  -20.5950  -42.1820 H   0  0  0  0  0  0  0  0  0  0  0  0
    8.2340  -18.8450  -45.3400 C   0  0  0  0  0  0  0  0  0  0  0  0
    7.5450  -18.0150  -45.2920 H   0  0  0  0  0  0  0  0  0  0  0  0
    9.6860  -18.8360  -45.8110 C   0  0  0  0  0  0  0  0  0  0  0  0
   10.3230  -18.3770  -45.0550 H   0  0  0  0  0  0  0  0  0  0  0  0
    9.7730  -18.2800  -46.7450 H   0  0  0  0  0  0  0  0  0  0  0  0
   10.0910  -20.2880  -46.0260 C   0  0  0  0  0  0  0  0  0  0  0  0
   10.9520  -20.6680  -46.5570 H   0  0  0  0  0  0  0  0  0  0  0  0
    9.5450  -23.4560  -45.9940 C   0  0  0  0  0  0  0  0  0  0  0  0
   10.0910  -23.2820  -47.3790 C   0  0  0  0  0  0  0  0  0  0  0  0
   10.2940  -24.2610  -47.8150 H   0  0  0  0  0  0  0  0  0  0  0  0
   11.0150  -22.7050  -47.3350 H   0  0  0  0  0  0  0  0  0  0  0  0
    9.3620  -22.7550  -47.9930 H   0  0  0  0  0  0  0  0  0  0  0  0
    4.3970  -21.4740  -43.6330 S   0  0  0  0  0  0  0  0  0  0  0  0
  1 28  1  0  0  0  0
  2  1  1  0  0  0  0
  2  3  2  0  0  0  0
  4  6  1  0  0  0  0
  4  1  1  0  0  0  0
  5  4  1  0  0  0  0
  7 11  1  0  0  0  0
  7 12  1  0  0  0  0
  9 33  1  0  0  0  0
 10  4  1  0  0  0  0
 11 14  2  0  0  0  0
 12 13  1  0  0  0  0
 12 10  2  0  0  0  0
 14 10  1  0  0  0  0
 15 17  1  0  0  0  0
 15  7  1  0  0  0  0
 16 15  1  0  0  0  0
 18 60  1  0  0  0  0
 18 47  1  0  0  0  0
 19 23  1  0  0  0  0
 19 15  1  0  0  0  0
 19 20  1  0  0  0  0
 21 19  1  0  0  0  0
 22 27  1  0  0  0  0
 23 24  1  0  0  0  0
 25 23  1  0  0  0  0
 26 23  1  0  0  0  0
 28 29  1  0  0  0  0
 28 31  1  0  0  0  0
 30 28  1  0  0  0  0
 32 27  2  0  0  0  0
 33 34  2  0  0  0  0
 33  2  1  0  0  0  0
 34 35  1  0  0  0  0
 36 34  1  0  0  0  0
 37 36  1  0  0  0  0
 37 38  2  0  0  0  0
 38 39  1  0  0  0  0
 39 64  1  0  0  0  0
 40 39  2  0  0  0  0
 40 78  1  0  0  0  0
 41 40  1  0  0  0  0
 42 41  1  0  0  0  0
 43 41  1  0  0  0  0
 44 41  1  0  0  0  0
 45 46  1  0  0  0  0
 46  8  2  0  0  0  0
 46 18  1  0  0  0  0
 47 50  1  0  0  0  0
 47 48  1  0  0  0  0
 49 47  1  0  0  0  0
 50 32  1  0  0  0  0
 51 50  2  0  0  0  0
 51 22  1  0  0  0  0
 52 51  1  0  0  0  0
 53 22  1  0  0  0  0
 53 55  1  0  0  0  0
 53 56  1  0  0  0  0
 54 53  1  0  0  0  0
 56 58  1  0  0  0  0
 57 56  1  0  0  0  0
 59 56  1  0  0  0  0
 60 63  1  0  0  0  0
 60 62  1  0  0  0  0
 61 60  1  0  0  0  0
 64 45  2  0  0  0  0
 64 65  1  0  0  0  0
 66 67  1  0  0  0  0
 66 38  1  0  0  0  0
 68 66  1  0  0  0  0
 68 69  1  0  0  0  0
 70 68  1  0  0  0  0
 71 68  1  0  0  0  0
 71 37  1  0  0  0  0
 72 71  1  0  0  0  0
 73  9  1  0  0  0  0
 73 36  2  0  0  0  0
 74 76  1  0  0  0  0
 74 73  1  0  0  0  0
 75 74  1  0  0  0  0
 77 74  1  0  0  0  0
 78 45  1  0  0  0  0
M  END
>  <Pose>
1

>  <Score>
-4.71

$$$$

 OpenBabel03112211333D

 78 82  0  0  0  0  0  0  0  0999 V2000
    7.1410  -26.0310  -43.1770 N   0  0  0  0  0  0  0  0  0  0  0  0
    6.0830  -25.6450  -44.0760 C   0  0  0  0  0  0  0  0  0  0  0  0
    5.1220  -26.3890  -44.2900 O   0  0  0  0  0  0  0  0  0  0  0  0
    8.3010  -25.1920  -42.9090 C   0  0  0  0  0  0  0  0  0  0  0  0
    8.1510  -24.6800  -41.9580 H   0  0  0  0  0  0  0  0  0  0  0  0
    8.3920  -24.4550  -43.7070 H   0  0  0  0  0  0  0  0  0  0  0  0
   11.2610  -27.2590  -43.1810 N   0  0  0  0  0  0  0  0  0  0  0  0
    3.6080  -20.9860  -38.8020 O   0  0  0  0  0  0  0  0  0  0  0  0
    7.2460  -24.1660  -45.9760 S   0  0  0  0  0  0  0  0  0  0  0  0
    9.5740  -25.9790  -42.8350 C   0  0  0  0  0  0  0  0  0  0  0  0
   11.2060  -27.0300  -41.8570 N   0  0  0  0  0  0  0  0  0  0  0  0
   10.2750  -26.6130  -43.8180 C   0  0  0  0  0  0  0  0  0  0  0  0
   10.0780  -26.5990  -44.8800 H   0  0  0  0  0  0  0  0  0  0  0  0
   10.1770  -26.2460  -41.6490 N   0  0  0  0  0  0  0  0  0  0  0  0
   12.2830  -28.1360  -43.7500 C   0  0  0  0  0  0  0  0  0  0  0  0
   13.2040  -28.0330  -43.1750 H   0  0  0  0  0  0  0  0  0  0  0  0
   12.4670  -27.8470  -44.7850 H   0  0  0  0  0  0  0  0  0  0  0  0
    2.8970  -18.8190  -39.2310 N   0  0  0  0  0  0  0  0  0  0  0  0
   11.8290  -29.5880  -43.7090 C   0  0  0  0  0  0  0  0  0  0  0  0
   10.8210  -29.6570  -44.1190 H   0  0  0  0  0  0  0  0  0  0  0  0
   11.8240  -29.9300  -42.6740 H   0  0  0  0  0  0  0  0  0  0  0  0
   -0.9940  -20.0480  -38.4010 N   0  0  0  0  0  0  0  0  0  0  0  0
   12.7410  -30.4610  -44.5070 C   0  0  0  0  0  0  0  0  0  0  0  0
   12.7510  -30.1250  -45.5440 H   0  0  0  0  0  0  0  0  0  0  0  0
   12.3880  -31.4920  -44.4630 H   0  0  0  0  0  0  0  0  0  0  0  0
   13.7490  -30.4050  -44.0970 H   0  0  0  0  0  0  0  0  0  0  0  0
   -1.2510  -18.8340  -37.8900 N   0  0  0  0  0  0  0  0  0  0  0  0
    7.0910  -27.3130  -42.4830 C   0  0  0  0  0  0  0  0  0  0  0  0
    6.1810  -27.8430  -42.7660 H   0  0  0  0  0  0  0  0  0  0  0  0
    7.0930  -27.1450  -41.4070 H   0  0  0  0  0  0  0  0  0  0  0  0
    7.9600  -27.9100  -42.7600 H   0  0  0  0  0  0  0  0  0  0  0  0
   -0.0970  -18.2630  -37.6600 N   0  0  0  0  0  0  0  0  0  0  0  0
    6.0790  -24.3040  -44.7140 C   0  0  0  0  0  0  0  0  0  0  0  0
    5.3940  -23.1360  -44.5450 C   0  0  0  0  0  0  0  0  0  0  0  0
    4.6290  -22.9970  -43.7950 H   0  0  0  0  0  0  0  0  0  0  0  0
    5.7930  -22.1120  -45.4650 C   0  0  0  0  0  0  0  0  0  0  0  0
    5.0290  -20.8610  -45.5960 C   0  0  0  0  0  0  0  0  0  0  0  0
    4.6270  -20.0510  -44.6020 C   0  0  0  0  0  0  0  0  0  0  0  0
    4.8320  -20.2360  -43.1590 C   0  0  0  0  0  0  0  0  0  0  0  0
    6.0260  -20.5620  -42.5560 C   0  0  0  0  0  0  0  0  0  0  0  0
    7.3690  -20.8510  -43.1610 C   0  0  0  0  0  0  0  0  0  0  0  0
    7.3030  -20.7710  -44.2460 H   0  0  0  0  0  0  0  0  0  0  0  0
    7.6800  -21.8600  -42.8890 H   0  0  0  0  0  0  0  0  0  0  0  0
    8.0980  -20.1330  -42.7870 H   0  0  0  0  0  0  0  0  0  0  0  0
    4.1790  -20.2040  -40.9170 C   0  0  0  0  0  0  0  0  0  0  0  0
    3.5430  -20.0450  -39.5900 C   0  0  0  0  0  0  0  0  0  0  0  0
    2.3400  -18.7250  -37.8900 C   0  0  0  0  0  0  0  0  0  0  0  0
    2.4250  -17.7050  -37.5160 H   0  0  0  0  0  0  0  0  0  0  0  0
    2.8590  -19.4050  -37.2150 H   0  0  0  0  0  0  0  0  0  0  0  0
    0.8990  -19.1140  -38.0150 C   0  0  0  0  0  0  0  0  0  0  0  0
    0.3290  -20.2520  -38.5030 C   0  0  0  0  0  0  0  0  0  0  0  0
    0.8320  -21.1260  -38.8880 H   0  0  0  0  0  0  0  0  0  0  0  0
   -2.0620  -20.9940  -38.7370 C   0  0  0  0  0  0  0  0  0  0  0  0
   -3.0180  -20.4720  -38.6990 H   0  0  0  0  0  0  0  0  0  0  0  0
   -2.0590  -21.8010  -38.0040 H   0  0  0  0  0  0  0  0  0  0  0  0
   -1.8870  -21.5870  -40.1140 C   0  0  0  0  0  0  0  0  0  0  0  0
   -2.7020  -22.2810  -40.3170 H   0  0  0  0  0  0  0  0  0  0  0  0
   -0.9370  -22.1190  -40.1620 H   0  0  0  0  0  0  0  0  0  0  0  0
   -1.8950  -20.7900  -40.8570 H   0  0  0  0  0  0  0  0  0  0  0  0
    2.6590  -17.6890  -40.1220 C   0  0  0  0  0  0  0  0  0  0  0  0
    3.1250  -17.8830  -41.0880 H   0  0  0  0  0  0  0  0  0  0  0  0
    3.0880  -16.7870  -39.6860 H   0  0  0  0  0  0  0  0  0  0  0  0
    1.5860  -17.5520  -40.2570 H   0  0  0  0  0  0  0  0  0  0  0  0
    3.7780  -20.0310  -42.2150 C   0  0  0  0  0  0  0  0  0  0  0  0
    2.7690  -19.7680  -42.4970 H   0  0  0  0  0  0  0  0  0  0  0  0
    3.9220  -18.8280  -45.1350 C   0  0  0  0  0  0  0  0  0  0  0  0
    3.3820  -18.0750  -44.5800 H   0  0  0  0  0  0  0  0  0  0  0  0
    4.1510  -18.9030  -46.6420 C   0  0  0  0  0  0  0  0  0  0  0  0
    4.9000  -18.1720  -46.9450 H   0  0  0  0  0  0  0  0  0  0  0  0
    3.2190  -18.7070  -47.1730 H   0  0  0  0  0  0  0  0  0  0  0  0
    4.6410  -20.3120  -46.9470 C   0  0  0  0  0  0  0  0  0  0  0  0
    4.6970  -20.8050  -47.9070 H   0  0  0  0  0  0  0  0  0  0  0  0
    6.8080  -22.5200  -46.2970 C   0  0  0  0  0  0  0  0  0  0  0  0
    7.5150  -21.7830  -47.3950 C   0  0  0  0  0  0  0  0  0  0  0  0
    8.2700  -22.4310  -47.8390 H   0  0  0  0  0  0  0  0  0  0  0  0
    7.9940  -20.8940  -46.9860 H   0  0  0  0  0  0  0  0  0  0  0  0
    6.7940  -21.4890  -48.1580 H   0  0  0  0  0  0  0  0  0  0  0  0
    5.8510  -20.6220  -40.8290 S   0  0  0  0  0  0  0  0  0  0  0  0
  1  4  1  0  0  0  0
  1 28  1  0  0  0  0
  2  1  1  0  0  0  0
  3  2  2  0  0  0  0
  4 10  1  0  0  0  0
  4  5  1  0  0  0  0
  6  4  1  0  0  0  0
  7 11  1  0  0  0  0
  9 33  1  0  0  0  0
 10 14  1  0  0  0  0
 11 14  2  0  0  0  0
 12  7  1  0  0  0  0
 12 10  2  0  0  0  0
 13 12  1  0  0  0  0
 15 19  1  0  0  0  0
 15  7  1  0  0  0  0
 15 16  1  0  0  0  0
 17 15  1  0  0  0  0
 18 47  1  0  0  0  0
 19 21  1  0  0  0  0
 20 19  1  0  0  0  0
 22 27  1  0  0  0  0
 23 25  1  0  0  0  0
 23 26  1  0  0  0  0
 23 19  1  0  0  0  0
 24 23  1  0  0  0  0
 27 32  2  0  0  0  0
 28 30  1  0  0  0  0
 29 28  1  0  0  0  0
 31 28  1  0  0  0  0
 33 34  2  0  0  0  0
 33  2  1  0  0  0  0
 34 35  1  0  0  0  0
 36 34  1  0  0  0  0
 37 36  1  0  0  0  0
 37 38  2  0  0  0  0
 38 39  1  0  0  0  0
 39 40  2  0  0  0  0
 39 64  1  0  0  0  0
 40 78  1  0  0  0  0
 41 43  1  0  0  0  0
 41 44  1  0  0  0  0
 41 40  1  0  0  0  0
 42 41  1  0  0  0  0
 45 78  1  0  0  0  0
 45 46  1  0  0  0  0
 46 18  1  0  0  0  0
 46  8  2  0  0  0  0
 47 48  1  0  0  0  0
 47 49  1  0  0  0  0
 50 47  1  0  0  0  0
 50 32  1  0  0  0  0
 51 22  1  0  0  0  0
 51 50  2  0  0  0  0
 52 51  1  0  0  0  0
 53 54  1  0  0  0  0
 53 22  1  0  0  0  0
 53 55  1  0  0  0  0
 56 53  1  0  0  0  0
 57 56  1  0  0  0  0
 58 56  1  0  0  0  0
 59 56  1  0  0  0  0
 60 62  1  0  0  0  0
 60 18  1  0  0  0  0
 61 60  1  0  0  0  0
 63 60  1  0  0  0  0
 64 45  2  0  0  0  0
 65 64  1  0  0  0  0
 66 38  1  0  0  0  0
 66 67  1  0  0  0  0
 68 66  1  0  0  0  0
 69 68  1  0  0  0  0
 70 68  1  0  0  0  0
 71 68  1  0  0  0  0
 71 37  1  0  0  0  0
 72 71  1  0  0  0  0
 73  9  1  0  0  0  0
 73 36  2  0  0  0  0
 74 76  1  0  0  0  0
 74 73  1  0  0  0  0
 75 74  1  0  0  0  0
 77 74  1  0  0  0  0
M  END
>  <Pose>
1

>  <Score>
-4.69

$$$$

 OpenBabel03112211333D

 78 82  0  0  0  0  0  0  0  0999 V2000
    1.5880  -22.8010  -43.6390 N   0  0  0  0  0  0  0  0  0  0  0  0
    0.9930  -21.5050  -43.4260 C   0  0  0  0  0  0  0  0  0  0  0  0
    0.7130  -20.7660  -44.3740 O   0  0  0  0  0  0  0  0  0  0  0  0
    1.9510  -23.6960  -42.5490 C   0  0  0  0  0  0  0  0  0  0  0  0
    1.9130  -23.1400  -41.6120 H   0  0  0  0  0  0  0  0  0  0  0  0
    2.9650  -24.0580  -42.7160 H   0  0  0  0  0  0  0  0  0  0  0  0
   -0.2470  -26.4770  -41.8090 N   0  0  0  0  0  0  0  0  0  0  0  0
    6.5810  -19.3510  -41.7030 O   0  0  0  0  0  0  0  0  0  0  0  0
   -0.6100  -22.0170  -41.3480 S   0  0  0  0  0  0  0  0  0  0  0  0
    1.0310  -24.8750  -42.4450 C   0  0  0  0  0  0  0  0  0  0  0  0
    0.1180  -26.7430  -43.0760 N   0  0  0  0  0  0  0  0  0  0  0  0
    0.2890  -25.3220  -41.3910 C   0  0  0  0  0  0  0  0  0  0  0  0
    0.1610  -24.8480  -40.4290 H   0  0  0  0  0  0  0  0  0  0  0  0
    0.8960  -25.7630  -43.4620 N   0  0  0  0  0  0  0  0  0  0  0  0
   -1.0950  -27.4030  -41.0610 C   0  0  0  0  0  0  0  0  0  0  0  0
   -1.2450  -28.3080  -41.6500 H   0  0  0  0  0  0  0  0  0  0  0  0
   -2.0590  -26.9310  -40.8700 H   0  0  0  0  0  0  0  0  0  0  0  0
    6.0790  -21.5830  -42.0900 N   0  0  0  0  0  0  0  0  0  0  0  0
   -0.4480  -27.7720  -39.7340 C   0  0  0  0  0  0  0  0  0  0  0  0
   -1.0220  -27.3260  -38.9220 H   0  0  0  0  0  0  0  0  0  0  0  0
    0.5700  -27.3840  -39.7150 H   0  0  0  0  0  0  0  0  0  0  0  0
    8.6630  -24.8760  -42.7730 N   0  0  0  0  0  0  0  0  0  0  0  0
   -0.4080  -29.2540  -39.5470 C   0  0  0  0  0  0  0  0  0  0  0  0
   -1.4240  -29.6500  -39.5640 H   0  0  0  0  0  0  0  0  0  0  0  0
    0.0550  -29.4870  -38.5880 H   0  0  0  0  0  0  0  0  0  0  0  0
    0.1720  -29.7070  -40.3500 H   0  0  0  0  0  0  0  0  0  0  0  0
    7.8630  -25.0760  -43.8320 N   0  0  0  0  0  0  0  0  0  0  0  0
    1.8600  -23.2760  -44.9910 C   0  0  0  0  0  0  0  0  0  0  0  0
    1.5460  -22.5210  -45.7110 H   0  0  0  0  0  0  0  0  0  0  0  0
    1.3090  -24.1990  -45.1690 H   0  0  0  0  0  0  0  0  0  0  0  0
    2.9280  -23.4630  -45.1020 H   0  0  0  0  0  0  0  0  0  0  0  0
    7.2300  -23.9520  -44.0510 N   0  0  0  0  0  0  0  0  0  0  0  0
    0.6280  -21.0520  -42.0600 C   0  0  0  0  0  0  0  0  0  0  0  0
    1.0130  -20.0460  -41.2220 C   0  0  0  0  0  0  0  0  0  0  0  0
    1.7640  -19.3120  -41.4770 H   0  0  0  0  0  0  0  0  0  0  0  0
    0.3200  -20.0630  -39.9680 C   0  0  0  0  0  0  0  0  0  0  0  0
    0.7430  -19.2080  -38.8470 C   0  0  0  0  0  0  0  0  0  0  0  0
    1.9870  -19.0760  -38.3560 C   0  0  0  0  0  0  0  0  0  0  0  0
    3.2030  -19.7700  -38.8020 C   0  0  0  0  0  0  0  0  0  0  0  0
    3.7970  -20.8350  -38.1620 C   0  0  0  0  0  0  0  0  0  0  0  0
    3.4270  -21.5210  -36.8790 C   0  0  0  0  0  0  0  0  0  0  0  0
    2.5450  -21.0440  -36.4530 H   0  0  0  0  0  0  0  0  0  0  0  0
    4.2560  -21.4470  -36.1760 H   0  0  0  0  0  0  0  0  0  0  0  0
    3.2120  -22.5710  -37.0780 H   0  0  0  0  0  0  0  0  0  0  0  0
    4.9520  -20.2140  -40.2850 C   0  0  0  0  0  0  0  0  0  0  0  0
    5.9140  -20.3390  -41.4020 C   0  0  0  0  0  0  0  0  0  0  0  0
    7.0800  -21.6380  -43.1430 C   0  0  0  0  0  0  0  0  0  0  0  0
    7.8790  -20.9230  -42.9450 H   0  0  0  0  0  0  0  0  0  0  0  0
    6.6260  -21.4170  -44.1090 H   0  0  0  0  0  0  0  0  0  0  0  0
    7.6180  -23.0360  -43.1290 C   0  0  0  0  0  0  0  0  0  0  0  0
    8.5460  -23.6190  -42.3180 C   0  0  0  0  0  0  0  0  0  0  0  0
    9.0720  -23.1670  -41.4910 H   0  0  0  0  0  0  0  0  0  0  0  0
    9.4930  -25.9450  -42.2120 C   0  0  0  0  0  0  0  0  0  0  0  0
    9.1920  -26.8930  -42.6550 H   0  0  0  0  0  0  0  0  0  0  0  0
    9.3360  -25.9810  -41.1330 H   0  0  0  0  0  0  0  0  0  0  0  0
   10.9630  -25.7280  -42.4810 C   0  0  0  0  0  0  0  0  0  0  0  0
   11.5370  -26.5460  -42.0450 H   0  0  0  0  0  0  0  0  0  0  0  0
   11.2790  -24.7850  -42.0360 H   0  0  0  0  0  0  0  0  0  0  0  0
   11.1340  -25.6970  -43.5570 H   0  0  0  0  0  0  0  0  0  0  0  0
    5.2630  -22.7770  -41.8970 C   0  0  0  0  0  0  0  0  0  0  0  0
    4.5570  -22.6080  -41.0840 H   0  0  0  0  0  0  0  0  0  0  0  0
    5.9070  -23.6210  -41.6490 H   0  0  0  0  0  0  0  0  0  0  0  0
    4.7150  -22.9950  -42.8140 H   0  0  0  0  0  0  0  0  0  0  0  0
    3.8690  -19.4200  -40.0170 C   0  0  0  0  0  0  0  0  0  0  0  0
    3.5500  -18.6120  -40.6590 H   0  0  0  0  0  0  0  0  0  0  0  0
    2.0380  -18.0550  -37.2460 C   0  0  0  0  0  0  0  0  0  0  0  0
    2.8610  -17.8340  -36.5820 H   0  0  0  0  0  0  0  0  0  0  0  0
    0.6560  -17.4090  -37.2790 C   0  0  0  0  0  0  0  0  0  0  0  0
    0.7180  -16.4150  -37.7210 H   0  0  0  0  0  0  0  0  0  0  0  0
    0.2540  -17.3330  -36.2690 H   0  0  0  0  0  0  0  0  0  0  0  0
   -0.2320  -18.3070  -38.1300 C   0  0  0  0  0  0  0  0  0  0  0  0
   -1.3100  -18.3010  -38.2040 H   0  0  0  0  0  0  0  0  0  0  0  0
   -0.6120  -21.0720  -39.8960 C   0  0  0  0  0  0  0  0  0  0  0  0
   -1.5420  -21.4520  -38.7840 C   0  0  0  0  0  0  0  0  0  0  0  0
   -2.1400  -22.3110  -39.0890 H   0  0  0  0  0  0  0  0  0  0  0  0
   -2.2000  -20.6140  -38.5580 H   0  0  0  0  0  0  0  0  0  0  0  0
   -0.9620  -21.7090  -37.8970 H   0  0  0  0  0  0  0  0  0  0  0  0
    5.1760  -21.4010  -39.0520 S   0  0  0  0  0  0  0  0  0  0  0  0
  1  2  1  0  0  0  0
  1  4  1  0  0  0  0
  2 33  1  0  0  0  0
  3  2  2  0  0  0  0
  4 10  1  0  0  0  0
  4  5  1  0  0  0  0
  6  4  1  0  0  0  0
  7 12  1  0  0  0  0
  7 15  1  0  0  0  0
  8 46  2  0  0  0  0
  9 73  1  0  0  0  0
 10 12  2  0  0  0  0
 11  7  1  0  0  0  0
 12 13  1  0  0  0  0
 14 11  2  0  0  0  0
 14 10  1  0  0  0  0
 15 17  1  0  0  0  0
 15 19  1  0  0  0  0
 16 15  1  0  0  0  0
 18 60  1  0  0  0  0
 18 46  1  0  0  0  0
 19 21  1  0  0  0  0
 19 23  1  0  0  0  0
 19 20  1  0  0  0  0
 22 51  1  0  0  0  0
 22 53  1  0  0  0  0
 23 25  1  0  0  0  0
 24 23  1  0  0  0  0
 26 23  1  0  0  0  0
 27 22  1  0  0  0  0
 28  1  1  0  0  0  0
 29 28  1  0  0  0  0
 30 28  1  0  0  0  0
 31 28  1  0  0  0  0
 32 27  2  0  0  0  0
 32 50  1  0  0  0  0
 33  9  1  0  0  0  0
 33 34  2  0  0  0  0
 34 36  1  0  0  0  0
 35 34  1  0  0  0  0
 36 73  2  0  0  0  0
 36 37  1  0  0  0  0
 37 38  2  0  0  0  0
 37 71  1  0  0  0  0
 38 66  1  0  0  0  0
 39 38  1  0  0  0  0
 39 40  2  0  0  0  0
 40 41  1  0  0  0  0
 41 42  1  0  0  0  0
 41 43  1  0  0  0  0
 44 41  1  0  0  0  0
 45 64  2  0  0  0  0
 45 78  1  0  0  0  0
 46 45  1  0  0  0  0
 47 50  1  0  0  0  0
 47 48  1  0  0  0  0
 47 18  1  0  0  0  0
 49 47  1  0  0  0  0
 50 51  2  0  0  0  0
 51 52  1  0  0  0  0
 53 55  1  0  0  0  0
 54 53  1  0  0  0  0
 56 53  1  0  0  0  0
 56 57  1  0  0  0  0
 56 58  1  0  0  0  0
 59 56  1  0  0  0  0
 60 62  1  0  0  0  0
 60 61  1  0  0  0  0
 63 60  1  0  0  0  0
 64 39  1  0  0  0  0
 65 64  1  0  0  0  0
 66 67  1  0  0  0  0
 68 66  1  0  0  0  0
 68 70  1  0  0  0  0
 69 68  1  0  0  0  0
 71 68  1  0  0  0  0
 72 71  1  0  0  0  0
 73 74  1  0  0  0  0
 74 76  1  0  0  0  0
 74 77  1  0  0  0  0
 75 74  1  0  0  0  0
 78 40  1  0  0  0  0
M  END
>  <Pose>
1

>  <Score>
-4.57

$$$$

 OpenBabel03112211333D

 78 82  0  0  0  0  0  0  0  0999 V2000
   -0.7620  -19.8430  -42.4920 N   0  0  0  0  0  0  0  0  0  0  0  0
   -0.8200  -21.0500  -43.2780 C   0  0  0  0  0  0  0  0  0  0  0  0
   -1.6750  -21.2020  -44.1540 O   0  0  0  0  0  0  0  0  0  0  0  0
    0.2180  -19.6300  -41.4360 C   0  0  0  0  0  0  0  0  0  0  0  0
    0.6100  -18.6160  -41.5220 H   0  0  0  0  0  0  0  0  0  0  0  0
    1.0310  -20.3450  -41.5630 H   0  0  0  0  0  0  0  0  0  0  0  0
   -1.0990  -19.5730  -38.0640 N   0  0  0  0  0  0  0  0  0  0  0  0
    4.4780  -21.7060  -37.7120 O   0  0  0  0  0  0  0  0  0  0  0  0
   -0.3950  -23.4650  -42.2120 S   0  0  0  0  0  0  0  0  0  0  0  0
   -0.3650  -19.8050  -40.0670 C   0  0  0  0  0  0  0  0  0  0  0  0
   -0.9110  -20.8890  -38.2640 N   0  0  0  0  0  0  0  0  0  0  0  0
   -0.7850  -18.8740  -39.1630 C   0  0  0  0  0  0  0  0  0  0  0  0
   -0.8490  -17.8050  -39.3030 H   0  0  0  0  0  0  0  0  0  0  0  0
   -0.4650  -21.0280  -39.4880 N   0  0  0  0  0  0  0  0  0  0  0  0
   -1.5610  -19.0670  -36.7720 C   0  0  0  0  0  0  0  0  0  0  0  0
   -0.7370  -18.5620  -36.2690 H   0  0  0  0  0  0  0  0  0  0  0  0
   -1.9010  -19.9040  -36.1610 H   0  0  0  0  0  0  0  0  0  0  0  0
    3.5650  -19.7530  -38.5700 N   0  0  0  0  0  0  0  0  0  0  0  0
   -2.7090  -18.0860  -36.9590 C   0  0  0  0  0  0  0  0  0  0  0  0
   -2.5770  -17.5600  -37.9050 H   0  0  0  0  0  0  0  0  0  0  0  0
   -2.7000  -17.3670  -36.1400 H   0  0  0  0  0  0  0  0  0  0  0  0
    1.2910  -16.2500  -37.1780 N   0  0  0  0  0  0  0  0  0  0  0  0
   -4.0260  -18.7920  -36.9740 C   0  0  0  0  0  0  0  0  0  0  0  0
   -4.0430  -19.5130  -37.7910 H   0  0  0  0  0  0  0  0  0  0  0  0
   -4.8260  -18.0660  -37.1130 H   0  0  0  0  0  0  0  0  0  0  0  0
   -4.1690  -19.3130  -36.0270 H   0  0  0  0  0  0  0  0  0  0  0  0
    1.5250  -16.4100  -38.4890 N   0  0  0  0  0  0  0  0  0  0  0  0
   -1.7110  -18.7610  -42.7280 C   0  0  0  0  0  0  0  0  0  0  0  0
   -2.3870  -19.0410  -43.5370 H   0  0  0  0  0  0  0  0  0  0  0  0
   -1.1690  -17.8560  -43.0040 H   0  0  0  0  0  0  0  0  0  0  0  0
   -2.2870  -18.5780  -41.8210 H   0  0  0  0  0  0  0  0  0  0  0  0
    2.2460  -17.4940  -38.6200 N   0  0  0  0  0  0  0  0  0  0  0  0
    0.1980  -22.1170  -43.1080 C   0  0  0  0  0  0  0  0  0  0  0  0
    1.5020  -22.2990  -43.4680 C   0  0  0  0  0  0  0  0  0  0  0  0
    2.0760  -21.5690  -44.0190 H   0  0  0  0  0  0  0  0  0  0  0  0
    2.0320  -23.5600  -43.0390 C   0  0  0  0  0  0  0  0  0  0  0  0
    3.3390  -24.0420  -43.5160 C   0  0  0  0  0  0  0  0  0  0  0  0
    4.5510  -23.6410  -43.0960 C   0  0  0  0  0  0  0  0  0  0  0  0
    4.8540  -22.6140  -42.0880 C   0  0  0  0  0  0  0  0  0  0  0  0
    5.7040  -21.5460  -42.2650 C   0  0  0  0  0  0  0  0  0  0  0  0
    6.5520  -21.1690  -43.4450 C   0  0  0  0  0  0  0  0  0  0  0  0
    6.4180  -21.9040  -44.2390 H   0  0  0  0  0  0  0  0  0  0  0  0
    7.6000  -21.1450  -43.1460 H   0  0  0  0  0  0  0  0  0  0  0  0
    6.2550  -20.1850  -43.8060 H   0  0  0  0  0  0  0  0  0  0  0  0
    4.5980  -21.5440  -40.0290 C   0  0  0  0  0  0  0  0  0  0  0  0
    4.2100  -21.0240  -38.6990 C   0  0  0  0  0  0  0  0  0  0  0  0
    3.2600  -19.2900  -37.2250 C   0  0  0  0  0  0  0  0  0  0  0  0
    4.1800  -19.0990  -36.6730 H   0  0  0  0  0  0  0  0  0  0  0  0
    2.6650  -20.0340  -36.6950 H   0  0  0  0  0  0  0  0  0  0  0  0
    2.4800  -18.0230  -37.3930 C   0  0  0  0  0  0  0  0  0  0  0  0
    1.8580  -17.2380  -36.4680 C   0  0  0  0  0  0  0  0  0  0  0  0
    1.8280  -17.3810  -35.3980 H   0  0  0  0  0  0  0  0  0  0  0  0
    0.5460  -15.1010  -36.6540 C   0  0  0  0  0  0  0  0  0  0  0  0
    0.0780  -15.3870  -35.7120 H   0  0  0  0  0  0  0  0  0  0  0  0
   -0.2240  -14.8250  -37.3730 H   0  0  0  0  0  0  0  0  0  0  0  0
    1.4360  -13.9060  -36.4110 C   0  0  0  0  0  0  0  0  0  0  0  0
    0.8380  -13.0810  -36.0230 H   0  0  0  0  0  0  0  0  0  0  0  0
    1.9050  -13.6060  -37.3480 H   0  0  0  0  0  0  0  0  0  0  0  0
    2.2070  -14.1680  -35.6870 H   0  0  0  0  0  0  0  0  0  0  0  0
    3.0960  -18.9210  -39.6730 C   0  0  0  0  0  0  0  0  0  0  0  0
    3.3870  -19.3750  -40.6200 H   0  0  0  0  0  0  0  0  0  0  0  0
    3.5400  -17.9290  -39.5940 H   0  0  0  0  0  0  0  0  0  0  0  0
    2.0100  -18.8370  -39.6290 H   0  0  0  0  0  0  0  0  0  0  0  0
    4.2230  -22.6070  -40.8060 C   0  0  0  0  0  0  0  0  0  0  0  0
    3.5220  -23.3630  -40.4830 H   0  0  0  0  0  0  0  0  0  0  0  0
    5.6560  -24.4130  -43.7740 C   0  0  0  0  0  0  0  0  0  0  0  0
    6.7190  -24.2260  -43.7380 H   0  0  0  0  0  0  0  0  0  0  0  0
    4.9200  -25.5200  -44.5250 C   0  0  0  0  0  0  0  0  0  0  0  0
    5.0490  -26.4710  -44.0090 H   0  0  0  0  0  0  0  0  0  0  0  0
    5.3050  -25.6030  -45.5410 H   0  0  0  0  0  0  0  0  0  0  0  0
    3.4470  -25.1340  -44.5520 C   0  0  0  0  0  0  0  0  0  0  0  0
    2.6620  -25.5450  -45.1690 H   0  0  0  0  0  0  0  0  0  0  0  0
    1.1200  -24.2990  -42.3250 C   0  0  0  0  0  0  0  0  0  0  0  0
    1.2480  -25.6560  -41.7030 C   0  0  0  0  0  0  0  0  0  0  0  0
    0.3110  -25.9220  -41.2140 H   0  0  0  0  0  0  0  0  0  0  0  0
    2.0520  -25.6440  -40.9660 H   0  0  0  0  0  0  0  0  0  0  0  0
    1.4750  -26.3900  -42.4760 H   0  0  0  0  0  0  0  0  0  0  0  0
    5.7320  -20.5370  -40.8520 S   0  0  0  0  0  0  0  0  0  0  0  0
  1  4  1  0  0  0  0
  2 33  1  0  0  0  0
  2  1  1  0  0  0  0
  3  2  2  0  0  0  0
  4 10  1  0  0  0  0
  5  4  1  0  0  0  0
  6  4  1  0  0  0  0
  7 15  1  0  0  0  0
 10 14  1  0  0  0  0
 10 12  2  0  0  0  0
 11  7  1  0  0  0  0
 12  7  1  0  0  0  0
 13 12  1  0  0  0  0
 14 11  2  0  0  0  0
 15 16  1  0  0  0  0
 15 17  1  0  0  0  0
 18 47  1  0  0  0  0
 19 15  1  0  0  0  0
 19 21  1  0  0  0  0
 20 19  1  0  0  0  0
 22 53  1  0  0  0  0
 22 51  1  0  0  0  0
 23 19  1  0  0  0  0
 23 26  1  0  0  0  0
 24 23  1  0  0  0  0
 25 23  1  0  0  0  0
 27 22  1  0  0  0  0
 28  1  1  0  0  0  0
 28 31  1  0  0  0  0
 29 28  1  0  0  0  0
 30 28  1  0  0  0  0
 32 27  2  0  0  0  0
 32 50  1  0  0  0  0
 33  9  1  0  0  0  0
 34 33  2  0  0  0  0
 34 36  1  0  0  0  0
 35 34  1  0  0  0  0
 36 73  2  0  0  0  0
 37 38  2  0  0  0  0
 37 36  1  0  0  0  0
 38 39  1  0  0  0  0
 39 64  1  0  0  0  0
 40 39  2  0  0  0  0
 40 78  1  0  0  0  0
 41 43  1  0  0  0  0
 41 40  1  0  0  0  0
 42 41  1  0  0  0  0
 44 41  1  0  0  0  0
 45 46  1  0  0  0  0
 46 18  1  0  0  0  0
 46  8  2  0  0  0  0
 47 49  1  0  0  0  0
 47 48  1  0  0  0  0
 50 47  1  0  0  0  0
 50 51  2  0  0  0  0
 51 52  1  0  0  0  0
 53 56  1  0  0  0  0
 53 54  1  0  0  0  0
 55 53  1  0  0  0  0
 56 57  1  0  0  0  0
 56 59  1  0  0  0  0
 58 56  1  0  0  0  0
 60 63  1  0  0  0  0
 60 62  1  0  0  0  0
 60 18  1  0  0  0  0
 61 60  1  0  0  0  0
 64 65  1  0  0  0  0
 64 45  2  0  0  0  0
 66 67  1  0  0  0  0
 66 38  1  0  0  0  0
 68 69  1  0  0  0  0
 68 66  1  0  0  0  0
 70 68  1  0  0  0  0
 71 68  1  0  0  0  0
 71 37  1  0  0  0  0
 72 71  1  0  0  0  0
 73  9  1  0  0  0  0
 73 74  1  0  0  0  0
 74 75  1  0  0  0  0
 74 76  1  0  0  0  0
 77 74  1  0  0  0  0
 78 45  1  0  0  0  0
M  END
>  <Pose>
1

>  <Score>
-4.44

$$$$

 OpenBabel03112211333D

 78 82  0  0  0  0  0  0  0  0999 V2000
    0.9110  -25.4520  -42.9480 N   0  0  0  0  0  0  0  0  0  0  0  0
    1.5720  -24.4980  -43.8030 C   0  0  0  0  0  0  0  0  0  0  0  0
    1.4390  -24.5370  -45.0290 O   0  0  0  0  0  0  0  0  0  0  0  0
    1.0550  -25.4530  -41.4980 C   0  0  0  0  0  0  0  0  0  0  0  0
    1.0440  -24.4220  -41.1450 H   0  0  0  0  0  0  0  0  0  0  0  0
    2.0090  -25.9150  -41.2420 H   0  0  0  0  0  0  0  0  0  0  0  0
   -1.8470  -26.8490  -39.8430 N   0  0  0  0  0  0  0  0  0  0  0  0
    9.3680  -17.5010  -43.8580 O   0  0  0  0  0  0  0  0  0  0  0  0
    2.4240  -22.0020  -44.2480 S   0  0  0  0  0  0  0  0  0  0  0  0
   -0.0430  -26.2070  -40.8140 C   0  0  0  0  0  0  0  0  0  0  0  0
   -0.9070  -27.7740  -39.5800 N   0  0  0  0  0  0  0  0  0  0  0  0
   -1.3510  -25.8730  -40.6160 C   0  0  0  0  0  0  0  0  0  0  0  0
   -1.8730  -25.0080  -40.9980 H   0  0  0  0  0  0  0  0  0  0  0  0
    0.1920  -27.3810  -40.1750 N   0  0  0  0  0  0  0  0  0  0  0  0
   -3.1950  -26.9680  -39.2900 C   0  0  0  0  0  0  0  0  0  0  0  0
   -3.2980  -27.9380  -38.8030 H   0  0  0  0  0  0  0  0  0  0  0  0
   -3.9220  -26.8880  -40.0990 H   0  0  0  0  0  0  0  0  0  0  0  0
    7.3480  -16.3800  -44.0730 N   0  0  0  0  0  0  0  0  0  0  0  0
   -3.4570  -25.8670  -38.2730 C   0  0  0  0  0  0  0  0  0  0  0  0
   -4.2760  -25.2420  -38.6280 H   0  0  0  0  0  0  0  0  0  0  0  0
   -2.5580  -25.2610  -38.1650 H   0  0  0  0  0  0  0  0  0  0  0  0
    8.7030  -12.6940  -42.2930 N   0  0  0  0  0  0  0  0  0  0  0  0
   -3.8220  -26.4390  -36.9410 C   0  0  0  0  0  0  0  0  0  0  0  0
   -4.7210  -27.0470  -37.0410 H   0  0  0  0  0  0  0  0  0  0  0  0
   -4.0080  -25.6290  -36.2360 H   0  0  0  0  0  0  0  0  0  0  0  0
   -3.0030  -27.0590  -36.5750 H   0  0  0  0  0  0  0  0  0  0  0  0
    9.6450  -13.6050  -42.0070 N   0  0  0  0  0  0  0  0  0  0  0  0
    0.0510  -26.4820  -43.5190 C   0  0  0  0  0  0  0  0  0  0  0  0
    0.0260  -26.3750  -44.6030 H   0  0  0  0  0  0  0  0  0  0  0  0
   -0.9580  -26.3760  -43.1190 H   0  0  0  0  0  0  0  0  0  0  0  0
    0.4420  -27.4660  -43.2590 H   0  0  0  0  0  0  0  0  0  0  0  0
    9.4830  -14.5990  -42.8430 N   0  0  0  0  0  0  0  0  0  0  0  0
    2.3750  -23.3890  -43.2250 C   0  0  0  0  0  0  0  0  0  0  0  0
    3.1040  -23.1910  -42.0890 C   0  0  0  0  0  0  0  0  0  0  0  0
    3.2230  -23.9400  -41.3190 H   0  0  0  0  0  0  0  0  0  0  0  0
    3.6970  -21.8880  -42.0220 C   0  0  0  0  0  0  0  0  0  0  0  0
    4.3320  -21.3990  -40.7870 C   0  0  0  0  0  0  0  0  0  0  0  0
    5.4660  -20.6850  -40.6890 C   0  0  0  0  0  0  0  0  0  0  0  0
    6.3470  -20.2500  -41.7820 C   0  0  0  0  0  0  0  0  0  0  0  0
    6.8130  -21.0510  -42.8000 C   0  0  0  0  0  0  0  0  0  0  0  0
    6.6100  -22.5170  -43.0480 C   0  0  0  0  0  0  0  0  0  0  0  0
    5.9900  -22.9370  -42.2560 H   0  0  0  0  0  0  0  0  0  0  0  0
    7.5770  -23.0210  -43.0580 H   0  0  0  0  0  0  0  0  0  0  0  0
    6.1170  -22.6590  -44.0100 H   0  0  0  0  0  0  0  0  0  0  0  0
    7.5400  -18.6750  -43.0260 C   0  0  0  0  0  0  0  0  0  0  0  0
    8.1540  -17.4900  -43.6670 C   0  0  0  0  0  0  0  0  0  0  0  0
    8.0190  -15.2750  -44.7410 C   0  0  0  0  0  0  0  0  0  0  0  0
    7.3390  -14.7830  -45.4360 H   0  0  0  0  0  0  0  0  0  0  0  0
    8.8940  -15.6350  -45.2820 H   0  0  0  0  0  0  0  0  0  0  0  0
    8.4310  -14.3280  -43.6570 C   0  0  0  0  0  0  0  0  0  0  0  0
    7.9390  -13.1030  -43.3180 C   0  0  0  0  0  0  0  0  0  0  0  0
    7.1140  -12.5760  -43.7740 H   0  0  0  0  0  0  0  0  0  0  0  0
    8.5540  -11.4580  -41.5180 C   0  0  0  0  0  0  0  0  0  0  0  0
    8.4410  -11.7160  -40.4650 H   0  0  0  0  0  0  0  0  0  0  0  0
    7.6620  -10.9340  -41.8620 H   0  0  0  0  0  0  0  0  0  0  0  0
    9.7440  -10.5420  -41.6690 C   0  0  0  0  0  0  0  0  0  0  0  0
    9.5870   -9.6410  -41.0770 H   0  0  0  0  0  0  0  0  0  0  0  0
    9.8630  -10.2720  -42.7180 H   0  0  0  0  0  0  0  0  0  0  0  0
   10.6420  -11.0530  -41.3220 H   0  0  0  0  0  0  0  0  0  0  0  0
    5.9270  -16.2100  -43.7910 C   0  0  0  0  0  0  0  0  0  0  0  0
    5.5460  -17.1020  -43.2930 H   0  0  0  0  0  0  0  0  0  0  0  0
    5.3860  -16.0570  -44.7250 H   0  0  0  0  0  0  0  0  0  0  0  0
    5.7860  -15.3440  -43.1440 H   0  0  0  0  0  0  0  0  0  0  0  0
    6.7660  -18.8900  -41.9170 C   0  0  0  0  0  0  0  0  0  0  0  0
    6.4990  -18.1120  -41.2170 H   0  0  0  0  0  0  0  0  0  0  0  0
    5.7640  -20.3120  -39.2570 C   0  0  0  0  0  0  0  0  0  0  0  0
    6.6600  -19.8600  -38.8590 H   0  0  0  0  0  0  0  0  0  0  0  0
    4.5030  -20.7250  -38.5030 C   0  0  0  0  0  0  0  0  0  0  0  0
    3.9170  -19.8440  -38.2420 H   0  0  0  0  0  0  0  0  0  0  0  0
    4.7700  -21.2650  -37.5940 H   0  0  0  0  0  0  0  0  0  0  0  0
    3.7040  -21.6280  -39.4340 C   0  0  0  0  0  0  0  0  0  0  0  0
    2.8810  -22.2810  -39.1840 H   0  0  0  0  0  0  0  0  0  0  0  0
    3.4300  -21.1310  -43.1370 C   0  0  0  0  0  0  0  0  0  0  0  0
    3.8410  -19.7310  -43.4780 C   0  0  0  0  0  0  0  0  0  0  0  0
    3.4410  -19.4620  -44.4550 H   0  0  0  0  0  0  0  0  0  0  0  0
    4.9290  -19.6670  -43.5010 H   0  0  0  0  0  0  0  0  0  0  0  0
    3.4530  -19.0450  -42.7250 H   0  0  0  0  0  0  0  0  0  0  0  0
    7.7710  -20.1330  -43.9200 S   0  0  0  0  0  0  0  0  0  0  0  0
  1  4  1  0  0  0  0
  2 33  1  0  0  0  0
  2  1  1  0  0  0  0
  3  2  2  0  0  0  0
  4  6  1  0  0  0  0
  4  5  1  0  0  0  0
  4 10  1  0  0  0  0
  7 11  1  0  0  0  0
  7 15  1  0  0  0  0
  8 46  2  0  0  0  0
  9 33  1  0  0  0  0
  9 73  1  0  0  0  0
 10 12  2  0  0  0  0
 10 14  1  0  0  0  0
 12  7  1  0  0  0  0
 13 12  1  0  0  0  0
 14 11  2  0  0  0  0
 15 16  1  0  0  0  0
 15 19  1  0  0  0  0
 17 15  1  0  0  0  0
 18 60  1  0  0  0  0
 18 46  1  0  0  0  0
 19 21  1  0  0  0  0
 19 23  1  0  0  0  0
 20 19  1  0  0  0  0
 22 27  1  0  0  0  0
 22 53  1  0  0  0  0
 23 26  1  0  0  0  0
 23 25  1  0  0  0  0
 24 23  1  0  0  0  0
 28 31  1  0  0  0  0
 28 30  1  0  0  0  0
 28  1  1  0  0  0  0
 29 28  1  0  0  0  0
 32 27  2  0  0  0  0
 33 34  2  0  0  0  0
 34 36  1  0  0  0  0
 34 35  1  0  0  0  0
 36 37  1  0  0  0  0
 37 38  2  0  0  0  0
 37 71  1  0  0  0  0
 38 66  1  0  0  0  0
 39 38  1  0  0  0  0
 40 39  2  0  0  0  0
 41 40  1  0  0  0  0
 41 42  1  0  0  0  0
 43 41  1  0  0  0  0
 44 41  1  0  0  0  0
 45 64  2  0  0  0  0
 46 45  1  0  0  0  0
 47 18  1  0  0  0  0
 47 50  1  0  0  0  0
 48 47  1  0  0  0  0
 49 47  1  0  0  0  0
 50 51  2  0  0  0  0
 50 32  1  0  0  0  0
 51 22  1  0  0  0  0
 52 51  1  0  0  0  0
 53 54  1  0  0  0  0
 55 53  1  0  0  0  0
 56 53  1  0  0  0  0
 56 59  1  0  0  0  0
 56 57  1  0  0  0  0
 58 56  1  0  0  0  0
 60 61  1  0  0  0  0
 60 63  1  0  0  0  0
 62 60  1  0  0  0  0
 64 39  1  0  0  0  0
 64 65  1  0  0  0  0
 66 67  1  0  0  0  0
 66 68  1  0  0  0  0
 68 69  1  0  0  0  0
 68 70  1  0  0  0  0
 71 72  1  0  0  0  0
 71 68  1  0  0  0  0
 73 36  2  0  0  0  0
 74 73  1  0  0  0  0
 74 77  1  0  0  0  0
 75 74  1  0  0  0  0
 76 74  1  0  0  0  0
 78 45  1  0  0  0  0
 78 40  1  0  0  0  0
M  END
>  <Pose>
1

>  <Score>
-4.23

$$$$
