
 OpenBabel03112215153D

 78 82  0  0  0  0  0  0  0  0999 V2000
   14.5150  -24.0670  -44.0710 N   0  0  0  0  0  0  0  0  0  0  0  0
   14.6820  -22.8520  -44.8270 C   0  0  0  0  0  0  0  0  0  0  0  0
   15.3150  -22.8400  -45.8860 O   0  0  0  0  0  0  0  0  0  0  0  0
   13.7910  -24.1230  -42.8070 C   0  0  0  0  0  0  0  0  0  0  0  0
   13.4330  -23.1220  -42.5650 H   0  0  0  0  0  0  0  0  0  0  0  0
   14.4730  -24.4640  -42.0280 H   0  0  0  0  0  0  0  0  0  0  0  0
   10.9420  -26.2730  -43.4150 N   0  0  0  0  0  0  0  0  0  0  0  0
    7.3070  -23.4180  -43.4420 O   0  0  0  0  0  0  0  0  0  0  0  0
   14.6760  -20.9840  -42.9140 S   0  0  0  0  0  0  0  0  0  0  0  0
   12.6180  -25.0530  -42.8590 C   0  0  0  0  0  0  0  0  0  0  0  0
   10.8840  -26.1090  -42.0820 N   0  0  0  0  0  0  0  0  0  0  0  0
   12.0090  -25.6450  -43.9270 C   0  0  0  0  0  0  0  0  0  0  0  0
   12.3210  -25.6140  -44.9610 H   0  0  0  0  0  0  0  0  0  0  0  0
   11.9090  -25.3660  -41.7450 N   0  0  0  0  0  0  0  0  0  0  0  0
    9.9120  -27.0300  -44.1250 C   0  0  0  0  0  0  0  0  0  0  0  0
    9.5690  -27.8490  -43.4920 H   0  0  0  0  0  0  0  0  0  0  0  0
   10.3350  -27.4340  -45.0450 H   0  0  0  0  0  0  0  0  0  0  0  0
    6.2940  -21.5860  -42.4420 N   0  0  0  0  0  0  0  0  0  0  0  0
    8.7300  -26.1360  -44.4700 C   0  0  0  0  0  0  0  0  0  0  0  0
    9.0930  -25.2540  -44.9970 H   0  0  0  0  0  0  0  0  0  0  0  0
    8.2350  -25.8300  -43.5480 H   0  0  0  0  0  0  0  0  0  0  0  0
    4.5010  -20.7500  -38.6380 N   0  0  0  0  0  0  0  0  0  0  0  0
    7.7460  -26.8530  -45.3370 C   0  0  0  0  0  0  0  0  0  0  0  0
    8.2340  -27.1620  -46.2610 H   0  0  0  0  0  0  0  0  0  0  0  0
    6.9150  -26.1870  -45.5700 H   0  0  0  0  0  0  0  0  0  0  0  0
    7.3720  -27.7320  -44.8120 H   0  0  0  0  0  0  0  0  0  0  0  0
    5.7650  -21.1210  -38.3840 N   0  0  0  0  0  0  0  0  0  0  0  0
   15.0820  -25.3220  -44.5520 C   0  0  0  0  0  0  0  0  0  0  0  0
   15.5950  -25.1490  -45.4990 H   0  0  0  0  0  0  0  0  0  0  0  0
   14.2840  -26.0490  -44.6990 H   0  0  0  0  0  0  0  0  0  0  0  0
   15.7920  -25.7040  -43.8190 H   0  0  0  0  0  0  0  0  0  0  0  0
    6.1940  -21.7650  -39.4390 N   0  0  0  0  0  0  0  0  0  0  0  0
   14.0300  -21.5910  -44.3930 C   0  0  0  0  0  0  0  0  0  0  0  0
   13.0290  -20.7890  -44.8600 C   0  0  0  0  0  0  0  0  0  0  0  0
   12.4730  -20.9940  -45.7630 H   0  0  0  0  0  0  0  0  0  0  0  0
   12.7900  -19.6460  -44.0270 C   0  0  0  0  0  0  0  0  0  0  0  0
   11.9130  -18.5490  -44.4680 C   0  0  0  0  0  0  0  0  0  0  0  0
   10.6210  -18.6410  -44.8260 C   0  0  0  0  0  0  0  0  0  0  0  0
    9.7930  -19.8540  -44.8870 C   0  0  0  0  0  0  0  0  0  0  0  0
    9.8540  -20.8150  -45.8710 C   0  0  0  0  0  0  0  0  0  0  0  0
   10.6950  -20.8770  -47.1130 C   0  0  0  0  0  0  0  0  0  0  0  0
   11.3240  -19.9890  -47.1700 H   0  0  0  0  0  0  0  0  0  0  0  0
   10.0470  -20.9210  -47.9880 H   0  0  0  0  0  0  0  0  0  0  0  0
   11.3240  -21.7660  -47.0810 H   0  0  0  0  0  0  0  0  0  0  0  0
    8.2190  -21.3730  -44.0710 C   0  0  0  0  0  0  0  0  0  0  0  0
    7.2490  -22.1970  -43.3150 C   0  0  0  0  0  0  0  0  0  0  0  0
    5.4090  -22.4670  -41.6960 C   0  0  0  0  0  0  0  0  0  0  0  0
    5.8690  -23.4470  -41.5690 H   0  0  0  0  0  0  0  0  0  0  0  0
    4.4580  -22.5770  -42.2160 H   0  0  0  0  0  0  0  0  0  0  0  0
    5.2030  -21.8140  -40.3650 C   0  0  0  0  0  0  0  0  0  0  0  0
    4.1230  -21.1520  -39.8620 C   0  0  0  0  0  0  0  0  0  0  0  0
    3.1700  -20.9870  -40.3430 H   0  0  0  0  0  0  0  0  0  0  0  0
    3.6830  -20.0420  -37.6490 C   0  0  0  0  0  0  0  0  0  0  0  0
    4.3410  -19.6030  -36.8990 H   0  0  0  0  0  0  0  0  0  0  0  0
    3.0140  -20.7570  -37.1710 H   0  0  0  0  0  0  0  0  0  0  0  0
    2.8560  -18.9440  -38.2720 C   0  0  0  0  0  0  0  0  0  0  0  0
    2.2680  -18.4490  -37.4990 H   0  0  0  0  0  0  0  0  0  0  0  0
    2.1880  -19.3710  -39.0190 H   0  0  0  0  0  0  0  0  0  0  0  0
    3.5160  -18.2180  -38.7470 H   0  0  0  0  0  0  0  0  0  0  0  0
    6.0610  -20.1520  -42.3050 C   0  0  0  0  0  0  0  0  0  0  0  0
    6.7850  -19.6070  -42.9090 H   0  0  0  0  0  0  0  0  0  0  0  0
    6.1690  -19.8640  -41.2600 H   0  0  0  0  0  0  0  0  0  0  0  0
    5.0520  -19.9150  -42.6450 H   0  0  0  0  0  0  0  0  0  0  0  0
    8.8550  -20.1790  -43.8590 C   0  0  0  0  0  0  0  0  0  0  0  0
    8.6680  -19.5490  -43.0020 H   0  0  0  0  0  0  0  0  0  0  0  0
   10.0400  -17.2880  -45.1550 C   0  0  0  0  0  0  0  0  0  0  0  0
    9.0780  -17.0640  -45.5920 H   0  0  0  0  0  0  0  0  0  0  0  0
   11.1280  -16.3080  -44.7240 C   0  0  0  0  0  0  0  0  0  0  0  0
   10.8430  -15.8160  -43.7940 H   0  0  0  0  0  0  0  0  0  0  0  0
   11.2860  -15.5580  -45.4990 H   0  0  0  0  0  0  0  0  0  0  0  0
   12.4000  -17.1220  -44.5170 C   0  0  0  0  0  0  0  0  0  0  0  0
   13.4140  -16.7610  -44.4270 H   0  0  0  0  0  0  0  0  0  0  0  0
   13.6000  -19.6260  -42.9170 C   0  0  0  0  0  0  0  0  0  0  0  0
   13.6880  -18.6280  -41.8020 C   0  0  0  0  0  0  0  0  0  0  0  0
   14.4520  -18.9450  -41.0920 H   0  0  0  0  0  0  0  0  0  0  0  0
   12.7250  -18.5630  -41.2960 H   0  0  0  0  0  0  0  0  0  0  0  0
   13.9520  -17.6520  -42.2080 H   0  0  0  0  0  0  0  0  0  0  0  0
    8.7540  -22.1160  -45.5330 S   0  0  0  0  0  0  0  0  0  0  0  0
  1  4  1  0  0  0  0
  2 33  1  0  0  0  0
  2  1  1  0  0  0  0
  3  2  2  0  0  0  0
  4  5  1  0  0  0  0
  4  6  1  0  0  0  0
  7 11  1  0  0  0  0
  8 46  2  0  0  0  0
 10  4  1  0  0  0  0
 10 14  1  0  0  0  0
 11 14  2  0  0  0  0
 12  7  1  0  0  0  0
 12 10  2  0  0  0  0
 13 12  1  0  0  0  0
 15 16  1  0  0  0  0
 15  7  1  0  0  0  0
 17 15  1  0  0  0  0
 18 60  1  0  0  0  0
 18 47  1  0  0  0  0
 19 15  1  0  0  0  0
 19 21  1  0  0  0  0
 20 19  1  0  0  0  0
 22 27  1  0  0  0  0
 22 53  1  0  0  0  0
 23 26  1  0  0  0  0
 23 19  1  0  0  0  0
 24 23  1  0  0  0  0
 25 23  1  0  0  0  0
 28  1  1  0  0  0  0
 28 31  1  0  0  0  0
 29 28  1  0  0  0  0
 30 28  1  0  0  0  0
 32 27  2  0  0  0  0
 33  9  1  0  0  0  0
 34 33  2  0  0  0  0
 34 36  1  0  0  0  0
 35 34  1  0  0  0  0
 36 73  2  0  0  0  0
 37 36  1  0  0  0  0
 38 37  2  0  0  0  0
 39 38  1  0  0  0  0
 39 64  1  0  0  0  0
 40 78  1  0  0  0  0
 40 39  2  0  0  0  0
 41 44  1  0  0  0  0
 41 40  1  0  0  0  0
 42 41  1  0  0  0  0
 43 41  1  0  0  0  0
 45 64  2  0  0  0  0
 45 46  1  0  0  0  0
 46 18  1  0  0  0  0
 47 48  1  0  0  0  0
 47 50  1  0  0  0  0
 49 47  1  0  0  0  0
 50 51  2  0  0  0  0
 50 32  1  0  0  0  0
 51 22  1  0  0  0  0
 52 51  1  0  0  0  0
 53 55  1  0  0  0  0
 53 54  1  0  0  0  0
 56 53  1  0  0  0  0
 56 57  1  0  0  0  0
 58 56  1  0  0  0  0
 59 56  1  0  0  0  0
 60 62  1  0  0  0  0
 61 60  1  0  0  0  0
 63 60  1  0  0  0  0
 64 65  1  0  0  0  0
 66 38  1  0  0  0  0
 66 68  1  0  0  0  0
 67 66  1  0  0  0  0
 68 71  1  0  0  0  0
 68 69  1  0  0  0  0
 70 68  1  0  0  0  0
 71 37  1  0  0  0  0
 71 72  1  0  0  0  0
 73  9  1  0  0  0  0
 73 74  1  0  0  0  0
 74 76  1  0  0  0  0
 74 75  1  0  0  0  0
 77 74  1  0  0  0  0
 78 45  1  0  0  0  0
M  END
>  <Pose>
1

>  <Score>
-5.84

$$$$

 OpenBabel03112215153D

 78 82  0  0  0  0  0  0  0  0999 V2000
    8.1580  -25.1930  -43.6750 N   0  0  0  0  0  0  0  0  0  0  0  0
    9.2790  -25.5960  -42.8650 C   0  0  0  0  0  0  0  0  0  0  0  0
    9.1630  -26.4690  -42.0000 O   0  0  0  0  0  0  0  0  0  0  0  0
    8.2460  -24.1550  -44.6940 C   0  0  0  0  0  0  0  0  0  0  0  0
    9.2520  -23.7360  -44.6790 H   0  0  0  0  0  0  0  0  0  0  0  0
    7.5230  -23.3730  -44.4590 H   0  0  0  0  0  0  0  0  0  0  0  0
    7.8290  -25.8050  -47.8890 N   0  0  0  0  0  0  0  0  0  0  0  0
    8.4080  -17.8900  -43.0180 O   0  0  0  0  0  0  0  0  0  0  0  0
   11.7620  -26.2010  -43.6550 S   0  0  0  0  0  0  0  0  0  0  0  0
    7.9620  -24.6750  -46.0690 C   0  0  0  0  0  0  0  0  0  0  0  0
    7.4900  -24.5390  -48.1870 N   0  0  0  0  0  0  0  0  0  0  0  0
    8.1140  -25.9290  -46.5850 C   0  0  0  0  0  0  0  0  0  0  0  0
    8.4020  -26.8260  -46.0580 H   0  0  0  0  0  0  0  0  0  0  0  0
    7.5700  -23.8520  -47.0740 N   0  0  0  0  0  0  0  0  0  0  0  0
    7.8790  -26.8340  -48.9270 C   0  0  0  0  0  0  0  0  0  0  0  0
    7.8070  -26.3590  -49.9050 H   0  0  0  0  0  0  0  0  0  0  0  0
    7.0410  -27.5180  -48.7930 H   0  0  0  0  0  0  0  0  0  0  0  0
    7.0030  -19.7350  -42.9670 N   0  0  0  0  0  0  0  0  0  0  0  0
    9.1820  -27.6160  -48.8460 C   0  0  0  0  0  0  0  0  0  0  0  0
    9.9770  -26.9480  -48.5150 H   0  0  0  0  0  0  0  0  0  0  0  0
    9.4240  -28.0070  -49.8340 H   0  0  0  0  0  0  0  0  0  0  0  0
    4.7260  -20.1670  -39.3490 N   0  0  0  0  0  0  0  0  0  0  0  0
    9.0690  -28.7550  -47.8860 C   0  0  0  0  0  0  0  0  0  0  0  0
    8.8270  -28.3710  -46.8940 H   0  0  0  0  0  0  0  0  0  0  0  0
   10.0160  -29.2920  -47.8460 H   0  0  0  0  0  0  0  0  0  0  0  0
    8.2810  -29.4320  -48.2160 H   0  0  0  0  0  0  0  0  0  0  0  0
    5.7720  -19.4100  -38.9800 N   0  0  0  0  0  0  0  0  0  0  0  0
    6.8550  -25.8250  -43.5000 C   0  0  0  0  0  0  0  0  0  0  0  0
    6.9190  -26.5790  -42.7150 H   0  0  0  0  0  0  0  0  0  0  0  0
    6.5520  -26.2980  -44.4340 H   0  0  0  0  0  0  0  0  0  0  0  0
    6.1200  -25.0700  -43.2200 H   0  0  0  0  0  0  0  0  0  0  0  0
    6.2790  -18.9000  -40.0730 N   0  0  0  0  0  0  0  0  0  0  0  0
   10.6300  -25.0250  -43.0990 C   0  0  0  0  0  0  0  0  0  0  0  0
   11.2150  -23.7990  -42.9690 C   0  0  0  0  0  0  0  0  0  0  0  0
   10.6910  -22.9230  -42.6170 H   0  0  0  0  0  0  0  0  0  0  0  0
   12.5970  -23.7930  -43.3490 C   0  0  0  0  0  0  0  0  0  0  0  0
   13.3460  -22.5340  -43.4950 C   0  0  0  0  0  0  0  0  0  0  0  0
   12.8420  -21.3250  -43.7980 C   0  0  0  0  0  0  0  0  0  0  0  0
   11.4410  -20.9840  -44.0780 C   0  0  0  0  0  0  0  0  0  0  0  0
   10.6520  -21.5710  -45.0420 C   0  0  0  0  0  0  0  0  0  0  0  0
   10.9860  -22.6270  -46.0540 C   0  0  0  0  0  0  0  0  0  0  0  0
   12.0300  -22.9200  -45.9430 H   0  0  0  0  0  0  0  0  0  0  0  0
   10.8230  -22.2330  -47.0570 H   0  0  0  0  0  0  0  0  0  0  0  0
   10.3460  -23.4960  -45.8970 H   0  0  0  0  0  0  0  0  0  0  0  0
    9.4250  -19.8730  -43.6870 C   0  0  0  0  0  0  0  0  0  0  0  0
    8.2630  -19.0970  -43.1970 C   0  0  0  0  0  0  0  0  0  0  0  0
    5.8970  -18.8960  -42.5340 C   0  0  0  0  0  0  0  0  0  0  0  0
    5.0370  -19.0330  -43.1890 H   0  0  0  0  0  0  0  0  0  0  0  0
    6.1930  -17.8470  -42.5380 H   0  0  0  0  0  0  0  0  0  0  0  0
    5.5660  -19.3370  -41.1410 C   0  0  0  0  0  0  0  0  0  0  0  0
    4.5620  -20.1350  -40.6810 C   0  0  0  0  0  0  0  0  0  0  0  0
    3.8000  -20.6340  -41.2610 H   0  0  0  0  0  0  0  0  0  0  0  0
    3.9400  -20.9350  -38.3800 C   0  0  0  0  0  0  0  0  0  0  0  0
    4.5860  -21.6820  -37.9180 H   0  0  0  0  0  0  0  0  0  0  0  0
    3.1260  -21.4340  -38.9060 H   0  0  0  0  0  0  0  0  0  0  0  0
    3.3570  -20.0620  -37.2970 C   0  0  0  0  0  0  0  0  0  0  0  0
    2.7830  -20.6770  -36.6030 H   0  0  0  0  0  0  0  0  0  0  0  0
    2.7020  -19.3140  -37.7460 H   0  0  0  0  0  0  0  0  0  0  0  0
    4.1620  -19.5630  -36.7590 H   0  0  0  0  0  0  0  0  0  0  0  0
    6.7500  -21.1710  -43.0330 C   0  0  0  0  0  0  0  0  0  0  0  0
    7.6520  -21.6830  -43.3690 H   0  0  0  0  0  0  0  0  0  0  0  0
    5.9390  -21.3650  -43.7340 H   0  0  0  0  0  0  0  0  0  0  0  0
    6.4720  -21.5360  -42.0450 H   0  0  0  0  0  0  0  0  0  0  0  0
   10.7320  -20.0130  -43.3050 C   0  0  0  0  0  0  0  0  0  0  0  0
   11.1820  -19.4480  -42.5020 H   0  0  0  0  0  0  0  0  0  0  0  0
   13.9140  -20.2630  -43.7940 C   0  0  0  0  0  0  0  0  0  0  0  0
   13.8360  -19.2370  -44.1230 H   0  0  0  0  0  0  0  0  0  0  0  0
   15.1340  -20.9760  -43.2180 C   0  0  0  0  0  0  0  0  0  0  0  0
   15.3050  -20.6560  -42.1910 H   0  0  0  0  0  0  0  0  0  0  0  0
   16.0160  -20.7550  -43.8190 H   0  0  0  0  0  0  0  0  0  0  0  0
   14.8340  -22.4690  -43.2590 C   0  0  0  0  0  0  0  0  0  0  0  0
   15.5260  -23.2910  -43.1440 H   0  0  0  0  0  0  0  0  0  0  0  0
   13.0430  -25.0370  -43.7290 C   0  0  0  0  0  0  0  0  0  0  0  0
   14.3960  -25.4770  -44.1990 C   0  0  0  0  0  0  0  0  0  0  0  0
   14.3770  -26.5460  -44.4120 H   0  0  0  0  0  0  0  0  0  0  0  0
   15.1340  -25.2760  -43.4220 H   0  0  0  0  0  0  0  0  0  0  0  0
   14.6630  -24.9310  -45.1040 H   0  0  0  0  0  0  0  0  0  0  0  0
    9.0410  -20.9240  -45.0000 S   0  0  0  0  0  0  0  0  0  0  0  0
  1 28  1  0  0  0  0
  1  2  1  0  0  0  0
  2  3  2  0  0  0  0
  4  5  1  0  0  0  0
  4  6  1  0  0  0  0
  4  1  1  0  0  0  0
  7 12  1  0  0  0  0
  9 33  1  0  0  0  0
 10  4  1  0  0  0  0
 11  7  1  0  0  0  0
 11 14  2  0  0  0  0
 12 10  2  0  0  0  0
 12 13  1  0  0  0  0
 14 10  1  0  0  0  0
 15 19  1  0  0  0  0
 15 17  1  0  0  0  0
 15  7  1  0  0  0  0
 16 15  1  0  0  0  0
 18 47  1  0  0  0  0
 19 20  1  0  0  0  0
 19 23  1  0  0  0  0
 21 19  1  0  0  0  0
 22 27  1  0  0  0  0
 22 53  1  0  0  0  0
 23 25  1  0  0  0  0
 23 24  1  0  0  0  0
 26 23  1  0  0  0  0
 28 31  1  0  0  0  0
 28 29  1  0  0  0  0
 30 28  1  0  0  0  0
 32 27  2  0  0  0  0
 33 34  2  0  0  0  0
 33  2  1  0  0  0  0
 34 35  1  0  0  0  0
 36 34  1  0  0  0  0
 37 36  1  0  0  0  0
 37 71  1  0  0  0  0
 38 66  1  0  0  0  0
 38 37  2  0  0  0  0
 39 38  1  0  0  0  0
 39 64  1  0  0  0  0
 40 78  1  0  0  0  0
 40 39  2  0  0  0  0
 41 42  1  0  0  0  0
 41 44  1  0  0  0  0
 41 40  1  0  0  0  0
 43 41  1  0  0  0  0
 45 64  2  0  0  0  0
 45 46  1  0  0  0  0
 46  8  2  0  0  0  0
 46 18  1  0  0  0  0
 47 50  1  0  0  0  0
 48 47  1  0  0  0  0
 49 47  1  0  0  0  0
 50 51  2  0  0  0  0
 50 32  1  0  0  0  0
 51 22  1  0  0  0  0
 52 51  1  0  0  0  0
 53 54  1  0  0  0  0
 53 56  1  0  0  0  0
 55 53  1  0  0  0  0
 56 59  1  0  0  0  0
 56 57  1  0  0  0  0
 58 56  1  0  0  0  0
 60 18  1  0  0  0  0
 60 63  1  0  0  0  0
 61 60  1  0  0  0  0
 62 60  1  0  0  0  0
 64 65  1  0  0  0  0
 66 68  1  0  0  0  0
 67 66  1  0  0  0  0
 68 69  1  0  0  0  0
 70 68  1  0  0  0  0
 71 68  1  0  0  0  0
 71 72  1  0  0  0  0
 73  9  1  0  0  0  0
 73 36  2  0  0  0  0
 74 73  1  0  0  0  0
 74 76  1  0  0  0  0
 75 74  1  0  0  0  0
 77 74  1  0  0  0  0
 78 45  1  0  0  0  0
M  END
>  <Pose>
1

>  <Score>
-5.08

$$$$

 OpenBabel03112215153D

 78 82  0  0  0  0  0  0  0  0999 V2000
   -1.1980  -23.1320  -40.9560 N   0  0  0  0  0  0  0  0  0  0  0  0
   -0.7620  -21.7590  -40.9410 C   0  0  0  0  0  0  0  0  0  0  0  0
   -1.3340  -20.9140  -40.2470 O   0  0  0  0  0  0  0  0  0  0  0  0
   -0.5640  -24.1580  -41.7730 C   0  0  0  0  0  0  0  0  0  0  0  0
    0.4880  -23.9020  -41.9020 H   0  0  0  0  0  0  0  0  0  0  0  0
   -1.0530  -24.1810  -42.7470 H   0  0  0  0  0  0  0  0  0  0  0  0
   -1.1640  -27.2720  -40.0260 N   0  0  0  0  0  0  0  0  0  0  0  0
    1.4980  -18.0710  -36.7030 O   0  0  0  0  0  0  0  0  0  0  0  0
    0.0450  -20.6240  -43.2240 S   0  0  0  0  0  0  0  0  0  0  0  0
   -0.6550  -25.5200  -41.1570 C   0  0  0  0  0  0  0  0  0  0  0  0
    0.0860  -27.4520  -40.4890 N   0  0  0  0  0  0  0  0  0  0  0  0
   -1.6580  -26.0940  -40.4320 C   0  0  0  0  0  0  0  0  0  0  0  0
   -2.6370  -25.6860  -40.2290 H   0  0  0  0  0  0  0  0  0  0  0  0
    0.3930  -26.3820  -41.1800 N   0  0  0  0  0  0  0  0  0  0  0  0
   -1.8030  -28.2750  -39.1760 C   0  0  0  0  0  0  0  0  0  0  0  0
   -2.8450  -28.3850  -39.4740 H   0  0  0  0  0  0  0  0  0  0  0  0
   -1.7540  -27.9480  -38.1370 H   0  0  0  0  0  0  0  0  0  0  0  0
    1.2070  -16.6480  -38.5130 N   0  0  0  0  0  0  0  0  0  0  0  0
   -1.1000  -29.6180  -39.3100 C   0  0  0  0  0  0  0  0  0  0  0  0
   -0.3560  -29.7110  -38.5190 H   0  0  0  0  0  0  0  0  0  0  0  0
   -0.6070  -29.6660  -40.2800 H   0  0  0  0  0  0  0  0  0  0  0  0
    2.5810  -13.0050  -37.1840 N   0  0  0  0  0  0  0  0  0  0  0  0
   -2.0720  -30.7480  -39.2000 C   0  0  0  0  0  0  0  0  0  0  0  0
   -2.5690  -30.7070  -38.2310 H   0  0  0  0  0  0  0  0  0  0  0  0
   -1.5400  -31.6950  -39.2950 H   0  0  0  0  0  0  0  0  0  0  0  0
   -2.8140  -30.6680  -39.9940 H   0  0  0  0  0  0  0  0  0  0  0  0
    1.7820  -12.9300  -36.1080 N   0  0  0  0  0  0  0  0  0  0  0  0
   -2.3240  -23.5590  -40.1330 C   0  0  0  0  0  0  0  0  0  0  0  0
   -2.7090  -22.7070  -39.5730 H   0  0  0  0  0  0  0  0  0  0  0  0
   -1.9940  -24.3310  -39.4380 H   0  0  0  0  0  0  0  0  0  0  0  0
   -3.1110  -23.9580  -40.7730 H   0  0  0  0  0  0  0  0  0  0  0  0
    0.9160  -13.9060  -36.2060 N   0  0  0  0  0  0  0  0  0  0  0  0
    0.4400  -21.3350  -41.7030 C   0  0  0  0  0  0  0  0  0  0  0  0
    1.7910  -21.3790  -41.5140 C   0  0  0  0  0  0  0  0  0  0  0  0
    2.2560  -21.8010  -40.6360 H   0  0  0  0  0  0  0  0  0  0  0  0
    2.5290  -20.8060  -42.6010 C   0  0  0  0  0  0  0  0  0  0  0  0
    3.9750  -20.5540  -42.4950 C   0  0  0  0  0  0  0  0  0  0  0  0
    4.6470  -20.1460  -41.4050 C   0  0  0  0  0  0  0  0  0  0  0  0
    4.0960  -19.8310  -40.0800 C   0  0  0  0  0  0  0  0  0  0  0  0
    4.5450  -20.3440  -38.8840 C   0  0  0  0  0  0  0  0  0  0  0  0
    5.6270  -21.3460  -38.6060 C   0  0  0  0  0  0  0  0  0  0  0  0
    6.0750  -21.6670  -39.5470 H   0  0  0  0  0  0  0  0  0  0  0  0
    5.2010  -22.2090  -38.0940 H   0  0  0  0  0  0  0  0  0  0  0  0
    6.3910  -20.8900  -37.9770 H   0  0  0  0  0  0  0  0  0  0  0  0
    2.6980  -18.6910  -38.5970 C   0  0  0  0  0  0  0  0  0  0  0  0
    1.7620  -17.8010  -37.8730 C   0  0  0  0  0  0  0  0  0  0  0  0
    0.3350  -15.7970  -37.7180 C   0  0  0  0  0  0  0  0  0  0  0  0
    0.0060  -16.3230  -36.8220 H   0  0  0  0  0  0  0  0  0  0  0  0
   -0.5340  -15.4950  -38.3030 H   0  0  0  0  0  0  0  0  0  0  0  0
    1.1540  -14.5990  -37.3480 C   0  0  0  0  0  0  0  0  0  0  0  0
    2.2280  -14.0350  -37.9690 C   0  0  0  0  0  0  0  0  0  0  0  0
    2.6940  -14.3490  -38.8910 H   0  0  0  0  0  0  0  0  0  0  0  0
    3.6480  -12.0310  -37.4310 C   0  0  0  0  0  0  0  0  0  0  0  0
    4.3460  -12.4520  -38.1560 H   0  0  0  0  0  0  0  0  0  0  0  0
    4.1700  -11.8380  -36.4940 H   0  0  0  0  0  0  0  0  0  0  0  0
    3.1160  -10.7250  -37.9700 C   0  0  0  0  0  0  0  0  0  0  0  0
    3.9450  -10.0370  -38.1370 H   0  0  0  0  0  0  0  0  0  0  0  0
    2.4220  -10.2910  -37.2500 H   0  0  0  0  0  0  0  0  0  0  0  0
    2.5980  -10.9050  -38.9120 H   0  0  0  0  0  0  0  0  0  0  0  0
    1.3570  -16.3010  -39.9220 C   0  0  0  0  0  0  0  0  0  0  0  0
    2.0310  -17.0110  -40.4010 H   0  0  0  0  0  0  0  0  0  0  0  0
    1.7690  -15.2960  -40.0060 H   0  0  0  0  0  0  0  0  0  0  0  0
    0.3840  -16.3380  -40.4110 H   0  0  0  0  0  0  0  0  0  0  0  0
    3.0380  -18.8850  -39.9090 C   0  0  0  0  0  0  0  0  0  0  0  0
    2.5570  -18.3740  -40.7300 H   0  0  0  0  0  0  0  0  0  0  0  0
    6.1310  -20.0610  -41.6690 C   0  0  0  0  0  0  0  0  0  0  0  0
    6.8970  -19.6440  -41.0330 H   0  0  0  0  0  0  0  0  0  0  0  0
    6.2950  -20.7020  -43.0440 C   0  0  0  0  0  0  0  0  0  0  0  0
    6.7240  -21.6990  -42.9440 H   0  0  0  0  0  0  0  0  0  0  0  0
    6.9430  -20.0880  -43.6690 H   0  0  0  0  0  0  0  0  0  0  0  0
    4.9040  -20.7910  -43.6600 C   0  0  0  0  0  0  0  0  0  0  0  0
    4.6440  -20.9790  -44.6920 H   0  0  0  0  0  0  0  0  0  0  0  0
    1.7140  -20.3680  -43.6170 C   0  0  0  0  0  0  0  0  0  0  0  0
    2.0580  -19.7110  -44.9190 C   0  0  0  0  0  0  0  0  0  0  0  0
    1.1440  -19.5030  -45.4750 H   0  0  0  0  0  0  0  0  0  0  0  0
    2.6950  -20.3740  -45.5040 H   0  0  0  0  0  0  0  0  0  0  0  0
    2.5860  -18.7770  -44.7270 H   0  0  0  0  0  0  0  0  0  0  0  0
    3.6630  -19.6660  -37.5500 S   0  0  0  0  0  0  0  0  0  0  0  0
  1  2  1  0  0  0  0
  1 28  1  0  0  0  0
  2  3  2  0  0  0  0
  4 10  1  0  0  0  0
  4  1  1  0  0  0  0
  5  4  1  0  0  0  0
  6  4  1  0  0  0  0
  7 15  1  0  0  0  0
  9 33  1  0  0  0  0
 10 12  2  0  0  0  0
 11  7  1  0  0  0  0
 12 13  1  0  0  0  0
 12  7  1  0  0  0  0
 14 10  1  0  0  0  0
 14 11  2  0  0  0  0
 15 17  1  0  0  0  0
 16 15  1  0  0  0  0
 18 46  1  0  0  0  0
 18 47  1  0  0  0  0
 19 23  1  0  0  0  0
 19 15  1  0  0  0  0
 19 20  1  0  0  0  0
 21 19  1  0  0  0  0
 22 27  1  0  0  0  0
 23 24  1  0  0  0  0
 25 23  1  0  0  0  0
 26 23  1  0  0  0  0
 28 29  1  0  0  0  0
 28 30  1  0  0  0  0
 31 28  1  0  0  0  0
 32 27  2  0  0  0  0
 33 34  2  0  0  0  0
 33  2  1  0  0  0  0
 34 35  1  0  0  0  0
 36 37  1  0  0  0  0
 36 34  1  0  0  0  0
 37 38  2  0  0  0  0
 38 39  1  0  0  0  0
 39 64  1  0  0  0  0
 39 40  2  0  0  0  0
 40 41  1  0  0  0  0
 40 78  1  0  0  0  0
 41 43  1  0  0  0  0
 41 44  1  0  0  0  0
 42 41  1  0  0  0  0
 45 46  1  0  0  0  0
 45 78  1  0  0  0  0
 46  8  2  0  0  0  0
 47 50  1  0  0  0  0
 47 48  1  0  0  0  0
 49 47  1  0  0  0  0
 50 32  1  0  0  0  0
 51 50  2  0  0  0  0
 51 22  1  0  0  0  0
 52 51  1  0  0  0  0
 53 22  1  0  0  0  0
 53 55  1  0  0  0  0
 54 53  1  0  0  0  0
 56 53  1  0  0  0  0
 56 58  1  0  0  0  0
 57 56  1  0  0  0  0
 59 56  1  0  0  0  0
 60 18  1  0  0  0  0
 61 60  1  0  0  0  0
 62 60  1  0  0  0  0
 63 60  1  0  0  0  0
 64 45  2  0  0  0  0
 65 64  1  0  0  0  0
 66 38  1  0  0  0  0
 66 67  1  0  0  0  0
 68 69  1  0  0  0  0
 68 66  1  0  0  0  0
 70 68  1  0  0  0  0
 71 68  1  0  0  0  0
 71 37  1  0  0  0  0
 72 71  1  0  0  0  0
 73  9  1  0  0  0  0
 73 36  2  0  0  0  0
 74 77  1  0  0  0  0
 74 73  1  0  0  0  0
 75 74  1  0  0  0  0
 76 74  1  0  0  0  0
M  END
>  <Pose>
1

>  <Score>
-4.87

$$$$

 OpenBabel03112215153D

 78 82  0  0  0  0  0  0  0  0999 V2000
    3.4710  -13.5970  -40.8940 N   0  0  0  0  0  0  0  0  0  0  0  0
    2.8400  -14.8700  -41.1400 C   0  0  0  0  0  0  0  0  0  0  0  0
    2.9750  -15.4520  -42.2200 O   0  0  0  0  0  0  0  0  0  0  0  0
    3.3240  -12.8670  -39.6420 C   0  0  0  0  0  0  0  0  0  0  0  0
    3.5170  -13.5500  -38.8140 H   0  0  0  0  0  0  0  0  0  0  0  0
    2.3020  -12.4930  -39.5740 H   0  0  0  0  0  0  0  0  0  0  0  0
    5.7790  -10.2130  -39.8300 N   0  0  0  0  0  0  0  0  0  0  0  0
    5.4190  -22.3540  -40.4390 O   0  0  0  0  0  0  0  0  0  0  0  0
    1.5660  -14.4800  -38.8220 S   0  0  0  0  0  0  0  0  0  0  0  0
    4.2670  -11.7080  -39.5390 C   0  0  0  0  0  0  0  0  0  0  0  0
    5.4650  -10.2060  -38.5230 N   0  0  0  0  0  0  0  0  0  0  0  0
    5.0470  -11.1210  -40.4910 C   0  0  0  0  0  0  0  0  0  0  0  0
    5.0710  -11.3400  -41.5490 H   0  0  0  0  0  0  0  0  0  0  0  0
    4.5400  -11.1180  -38.3480 N   0  0  0  0  0  0  0  0  0  0  0  0
    6.8170   -9.3300  -40.3590 C   0  0  0  0  0  0  0  0  0  0  0  0
    6.9860   -8.5150  -39.6550 H   0  0  0  0  0  0  0  0  0  0  0  0
    6.4870   -8.9220  -41.3150 H   0  0  0  0  0  0  0  0  0  0  0  0
    4.2810  -21.5070  -42.2750 N   0  0  0  0  0  0  0  0  0  0  0  0
    8.1180  -10.0910  -40.5640 C   0  0  0  0  0  0  0  0  0  0  0  0
    8.1130  -10.5440  -41.5550 H   0  0  0  0  0  0  0  0  0  0  0  0
    8.1950  -10.8730  -39.8080 H   0  0  0  0  0  0  0  0  0  0  0  0
    3.0510  -25.0860  -44.2890 N   0  0  0  0  0  0  0  0  0  0  0  0
    9.2990   -9.1830  -40.4480 C   0  0  0  0  0  0  0  0  0  0  0  0
    9.2290   -8.3990  -41.2010 H   0  0  0  0  0  0  0  0  0  0  0  0
   10.2140   -9.7560  -40.6040 H   0  0  0  0  0  0  0  0  0  0  0  0
    9.3160   -8.7340  -39.4550 H   0  0  0  0  0  0  0  0  0  0  0  0
    3.3360  -25.4420  -43.0270 N   0  0  0  0  0  0  0  0  0  0  0  0
    4.3020  -12.9740  -41.9180 C   0  0  0  0  0  0  0  0  0  0  0  0
    4.3330  -13.6140  -42.7990 H   0  0  0  0  0  0  0  0  0  0  0  0
    5.3130  -12.8380  -41.5320 H   0  0  0  0  0  0  0  0  0  0  0  0
    3.8820  -12.0050  -42.1860 H   0  0  0  0  0  0  0  0  0  0  0  0
    4.0870  -24.4980  -42.5230 N   0  0  0  0  0  0  0  0  0  0  0  0
    2.0690  -15.5550  -40.0720 C   0  0  0  0  0  0  0  0  0  0  0  0
    1.6660  -16.8340  -39.8160 C   0  0  0  0  0  0  0  0  0  0  0  0
    1.8910  -17.6700  -40.4610 H   0  0  0  0  0  0  0  0  0  0  0  0
    0.9140  -16.9530  -38.6020 C   0  0  0  0  0  0  0  0  0  0  0  0
    0.2020  -18.1960  -38.2610 C   0  0  0  0  0  0  0  0  0  0  0  0
    0.7130  -19.4390  -38.2370 C   0  0  0  0  0  0  0  0  0  0  0  0
    2.0840  -19.8490  -38.5690 C   0  0  0  0  0  0  0  0  0  0  0  0
    3.1840  -19.6940  -37.7560 C   0  0  0  0  0  0  0  0  0  0  0  0
    3.3050  -19.0590  -36.4010 C   0  0  0  0  0  0  0  0  0  0  0  0
    2.3300  -18.6890  -36.0860 H   0  0  0  0  0  0  0  0  0  0  0  0
    4.0100  -18.2290  -36.4510 H   0  0  0  0  0  0  0  0  0  0  0  0
    3.6630  -19.7970  -35.6840 H   0  0  0  0  0  0  0  0  0  0  0  0
    3.7160  -20.8660  -39.8930 C   0  0  0  0  0  0  0  0  0  0  0  0
    4.5350  -21.6170  -40.8710 C   0  0  0  0  0  0  0  0  0  0  0  0
    5.0970  -22.3150  -43.1680 C   0  0  0  0  0  0  0  0  0  0  0  0
    6.0350  -22.5850  -42.6840 H   0  0  0  0  0  0  0  0  0  0  0  0
    5.3070  -21.7690  -44.0880 H   0  0  0  0  0  0  0  0  0  0  0  0
    4.2920  -23.5420  -43.4640 C   0  0  0  0  0  0  0  0  0  0  0  0
    3.6180  -23.9080  -44.5910 C   0  0  0  0  0  0  0  0  0  0  0  0
    3.5530  -23.3670  -45.5240 H   0  0  0  0  0  0  0  0  0  0  0  0
    2.2600  -25.9400  -45.1800 C   0  0  0  0  0  0  0  0  0  0  0  0
    1.8210  -25.3200  -45.9620 H   0  0  0  0  0  0  0  0  0  0  0  0
    1.4650  -26.4100  -44.6000 H   0  0  0  0  0  0  0  0  0  0  0  0
    3.0930  -27.0200  -45.8260 C   0  0  0  0  0  0  0  0  0  0  0  0
    2.4620  -27.6250  -46.4760 H   0  0  0  0  0  0  0  0  0  0  0  0
    3.5320  -27.6510  -45.0540 H   0  0  0  0  0  0  0  0  0  0  0  0
    3.8880  -26.5610  -46.4150 H   0  0  0  0  0  0  0  0  0  0  0  0
    3.3440  -20.5800  -42.9010 C   0  0  0  0  0  0  0  0  0  0  0  0
    2.7980  -20.0390  -42.1280 H   0  0  0  0  0  0  0  0  0  0  0  0
    2.6410  -21.1380  -43.5190 H   0  0  0  0  0  0  0  0  0  0  0  0
    3.8920  -19.8720  -43.5220 H   0  0  0  0  0  0  0  0  0  0  0  0
    2.3950  -20.5220  -39.7910 C   0  0  0  0  0  0  0  0  0  0  0  0
    1.6630  -20.7360  -40.5560 H   0  0  0  0  0  0  0  0  0  0  0  0
   -0.3100  -20.4480  -37.7760 C   0  0  0  0  0  0  0  0  0  0  0  0
   -0.2320  -21.5250  -37.7810 H   0  0  0  0  0  0  0  0  0  0  0  0
   -1.4810  -19.5920  -37.3020 C   0  0  0  0  0  0  0  0  0  0  0  0
   -1.5180  -19.5780  -36.2130 H   0  0  0  0  0  0  0  0  0  0  0  0
   -2.4180  -19.9880  -37.6930 H   0  0  0  0  0  0  0  0  0  0  0  0
   -1.2450  -18.1840  -37.8350 C   0  0  0  0  0  0  0  0  0  0  0  0
   -1.9500  -17.3680  -37.8950 H   0  0  0  0  0  0  0  0  0  0  0  0
    0.7920  -15.7550  -37.9390 C   0  0  0  0  0  0  0  0  0  0  0  0
    0.0940  -15.4260  -36.6540 C   0  0  0  0  0  0  0  0  0  0  0  0
    0.2100  -14.3640  -36.4390 H   0  0  0  0  0  0  0  0  0  0  0  0
    0.5290  -16.0100  -35.8440 H   0  0  0  0  0  0  0  0  0  0  0  0
   -0.9660  -15.6640  -36.7450 H   0  0  0  0  0  0  0  0  0  0  0  0
    4.6020  -20.3710  -38.4970 S   0  0  0  0  0  0  0  0  0  0  0  0
  1  4  1  0  0  0  0
  2  1  1  0  0  0  0
  2 33  1  0  0  0  0
  3  2  2  0  0  0  0
  4  6  1  0  0  0  0
  4 10  1  0  0  0  0
  4  5  1  0  0  0  0
  7 11  1  0  0  0  0
  9 73  1  0  0  0  0
 10 14  1  0  0  0  0
 11 14  2  0  0  0  0
 12  7  1  0  0  0  0
 12 10  2  0  0  0  0
 13 12  1  0  0  0  0
 15  7  1  0  0  0  0
 15 16  1  0  0  0  0
 17 15  1  0  0  0  0
 18 46  1  0  0  0  0
 19 23  1  0  0  0  0
 19 15  1  0  0  0  0
 19 21  1  0  0  0  0
 20 19  1  0  0  0  0
 22 27  1  0  0  0  0
 23 26  1  0  0  0  0
 24 23  1  0  0  0  0
 25 23  1  0  0  0  0
 27 32  2  0  0  0  0
 28 30  1  0  0  0  0
 28  1  1  0  0  0  0
 29 28  1  0  0  0  0
 31 28  1  0  0  0  0
 33 34  2  0  0  0  0
 33  9  1  0  0  0  0
 34 36  1  0  0  0  0
 35 34  1  0  0  0  0
 36 37  1  0  0  0  0
 36 73  2  0  0  0  0
 37 38  2  0  0  0  0
 37 71  1  0  0  0  0
 38 66  1  0  0  0  0
 39 38  1  0  0  0  0
 39 40  2  0  0  0  0
 40 41  1  0  0  0  0
 41 42  1  0  0  0  0
 41 44  1  0  0  0  0
 43 41  1  0  0  0  0
 45 64  2  0  0  0  0
 45 78  1  0  0  0  0
 46  8  2  0  0  0  0
 46 45  1  0  0  0  0
 47 48  1  0  0  0  0
 47 18  1  0  0  0  0
 49 47  1  0  0  0  0
 50 47  1  0  0  0  0
 50 32  1  0  0  0  0
 51 22  1  0  0  0  0
 51 50  2  0  0  0  0
 52 51  1  0  0  0  0
 53 55  1  0  0  0  0
 53 22  1  0  0  0  0
 54 53  1  0  0  0  0
 56 53  1  0  0  0  0
 56 58  1  0  0  0  0
 57 56  1  0  0  0  0
 59 56  1  0  0  0  0
 60 18  1  0  0  0  0
 60 61  1  0  0  0  0
 62 60  1  0  0  0  0
 63 60  1  0  0  0  0
 64 39  1  0  0  0  0
 65 64  1  0  0  0  0
 66 68  1  0  0  0  0
 67 66  1  0  0  0  0
 68 69  1  0  0  0  0
 70 68  1  0  0  0  0
 71 68  1  0  0  0  0
 72 71  1  0  0  0  0
 73 74  1  0  0  0  0
 74 75  1  0  0  0  0
 74 76  1  0  0  0  0
 77 74  1  0  0  0  0
 78 40  1  0  0  0  0
M  END
>  <Pose>
1

>  <Score>
-4.60

$$$$

 OpenBabel03112215153D

 78 82  0  0  0  0  0  0  0  0999 V2000
    5.9080  -19.2720  -37.2540 N   0  0  0  0  0  0  0  0  0  0  0  0
    6.3550  -19.3520  -38.6220 C   0  0  0  0  0  0  0  0  0  0  0  0
    7.3970  -18.8020  -38.9870 O   0  0  0  0  0  0  0  0  0  0  0  0
    4.6750  -19.8910  -36.7840 C   0  0  0  0  0  0  0  0  0  0  0  0
    4.9140  -20.5680  -35.9640 H   0  0  0  0  0  0  0  0  0  0  0  0
    4.2330  -20.4560  -37.6050 H   0  0  0  0  0  0  0  0  0  0  0  0
    2.2430  -17.3030  -36.0820 N   0  0  0  0  0  0  0  0  0  0  0  0
   10.5700  -18.6390  -44.7370 O   0  0  0  0  0  0  0  0  0  0  0  0
    3.9020  -20.0250  -39.4480 S   0  0  0  0  0  0  0  0  0  0  0  0
    3.6760  -18.8850  -36.3000 C   0  0  0  0  0  0  0  0  0  0  0  0
    2.7090  -17.5840  -34.8530 N   0  0  0  0  0  0  0  0  0  0  0  0
    2.8090  -18.0980  -37.0000 C   0  0  0  0  0  0  0  0  0  0  0  0
    2.6200  -18.1130  -38.0640 H   0  0  0  0  0  0  0  0  0  0  0  0
    3.5820  -18.5510  -34.9890 N   0  0  0  0  0  0  0  0  0  0  0  0
    1.2680  -16.2330  -36.2910 C   0  0  0  0  0  0  0  0  0  0  0  0
    1.5390  -15.6710  -37.1850 H   0  0  0  0  0  0  0  0  0  0  0  0
    1.2770  -15.5680  -35.4270 H   0  0  0  0  0  0  0  0  0  0  0  0
   11.2700  -20.4330  -43.4420 N   0  0  0  0  0  0  0  0  0  0  0  0
   -0.1300  -16.8070  -36.4650 C   0  0  0  0  0  0  0  0  0  0  0  0
   -0.5140  -17.1120  -35.4920 H   0  0  0  0  0  0  0  0  0  0  0  0
   -0.0790  -17.6740  -37.1240 H   0  0  0  0  0  0  0  0  0  0  0  0
   13.3330  -17.1980  -41.3890 N   0  0  0  0  0  0  0  0  0  0  0  0
   -1.0570  -15.7970  -37.0600 C   0  0  0  0  0  0  0  0  0  0  0  0
   -1.1140  -14.9260  -36.4070 H   0  0  0  0  0  0  0  0  0  0  0  0
   -2.0500  -16.2340  -37.1680 H   0  0  0  0  0  0  0  0  0  0  0  0
   -0.6850  -15.4930  -38.0390 H   0  0  0  0  0  0  0  0  0  0  0  0
   12.9090  -18.1310  -40.5220 N   0  0  0  0  0  0  0  0  0  0  0  0
    6.6920  -18.5470  -36.2610 C   0  0  0  0  0  0  0  0  0  0  0  0
    7.5830  -18.1330  -36.7330 H   0  0  0  0  0  0  0  0  0  0  0  0
    6.9860  -19.2270  -35.4620 H   0  0  0  0  0  0  0  0  0  0  0  0
    6.0920  -17.7370  -35.8450 H   0  0  0  0  0  0  0  0  0  0  0  0
   12.6270  -19.2010  -41.2190 N   0  0  0  0  0  0  0  0  0  0  0  0
    5.6120  -20.1650  -39.6180 C   0  0  0  0  0  0  0  0  0  0  0  0
    5.9390  -21.0170  -40.6330 C   0  0  0  0  0  0  0  0  0  0  0  0
    6.9570  -21.2630  -40.9000 H   0  0  0  0  0  0  0  0  0  0  0  0
    4.7940  -21.5510  -41.3100 C   0  0  0  0  0  0  0  0  0  0  0  0
    4.9300  -22.3060  -42.5660 C   0  0  0  0  0  0  0  0  0  0  0  0
    5.7670  -22.0390  -43.5830 C   0  0  0  0  0  0  0  0  0  0  0  0
    6.7160  -20.9220  -43.6910 C   0  0  0  0  0  0  0  0  0  0  0  0
    6.4080  -19.5920  -43.5190 C   0  0  0  0  0  0  0  0  0  0  0  0
    5.0900  -18.9310  -43.2360 C   0  0  0  0  0  0  0  0  0  0  0  0
    4.3100  -19.6900  -43.1740 H   0  0  0  0  0  0  0  0  0  0  0  0
    4.8540  -18.2330  -44.0390 H   0  0  0  0  0  0  0  0  0  0  0  0
    5.1490  -18.3920  -42.2910 H   0  0  0  0  0  0  0  0  0  0  0  0
    8.8350  -19.9770  -43.9550 C   0  0  0  0  0  0  0  0  0  0  0  0
   10.2700  -19.6360  -44.0840 C   0  0  0  0  0  0  0  0  0  0  0  0
   12.6540  -20.0050  -43.5760 C   0  0  0  0  0  0  0  0  0  0  0  0
   12.8290  -19.5930  -44.5700 H   0  0  0  0  0  0  0  0  0  0  0  0
   13.3280  -20.8440  -43.4060 H   0  0  0  0  0  0  0  0  0  0  0  0
   12.8610  -18.9510  -42.5320 C   0  0  0  0  0  0  0  0  0  0  0  0
   13.3280  -17.6760  -42.6430 C   0  0  0  0  0  0  0  0  0  0  0  0
   13.6280  -17.1610  -43.5440 H   0  0  0  0  0  0  0  0  0  0  0  0
   13.6950  -15.8440  -40.9610 C   0  0  0  0  0  0  0  0  0  0  0  0
   14.6780  -15.6000  -41.3610 H   0  0  0  0  0  0  0  0  0  0  0  0
   13.7290  -15.8170  -39.8710 H   0  0  0  0  0  0  0  0  0  0  0  0
   12.7050  -14.8100  -41.4400 C   0  0  0  0  0  0  0  0  0  0  0  0
   13.0160  -13.8230  -41.0980 H   0  0  0  0  0  0  0  0  0  0  0  0
   11.7170  -15.0390  -41.0390 H   0  0  0  0  0  0  0  0  0  0  0  0
   12.6670  -14.8210  -42.5290 H   0  0  0  0  0  0  0  0  0  0  0  0
   11.0380  -21.6950  -42.7480 C   0  0  0  0  0  0  0  0  0  0  0  0
    9.9680  -21.9010  -42.7160 H   0  0  0  0  0  0  0  0  0  0  0  0
   11.4250  -21.6270  -41.7310 H   0  0  0  0  0  0  0  0  0  0  0  0
   11.5470  -22.5000  -43.2770 H   0  0  0  0  0  0  0  0  0  0  0  0
    8.1070  -21.1370  -43.9400 C   0  0  0  0  0  0  0  0  0  0  0  0
    8.5400  -22.1130  -44.1000 H   0  0  0  0  0  0  0  0  0  0  0  0
    5.6630  -23.0780  -44.6720 C   0  0  0  0  0  0  0  0  0  0  0  0
    6.1090  -23.0590  -45.6560 H   0  0  0  0  0  0  0  0  0  0  0  0
    4.7800  -24.1620  -44.0600 C   0  0  0  0  0  0  0  0  0  0  0  0
    5.3860  -25.0240  -43.7800 H   0  0  0  0  0  0  0  0  0  0  0  0
    4.0170  -24.4710  -44.7740 H   0  0  0  0  0  0  0  0  0  0  0  0
    4.1270  -23.5560  -42.8250 C   0  0  0  0  0  0  0  0  0  0  0  0
    3.2840  -23.9340  -42.2650 H   0  0  0  0  0  0  0  0  0  0  0  0
    3.6100  -21.1150  -40.7630 C   0  0  0  0  0  0  0  0  0  0  0  0
    2.1950  -21.4160  -41.1550 C   0  0  0  0  0  0  0  0  0  0  0  0
    1.5140  -20.8880  -40.4880 H   0  0  0  0  0  0  0  0  0  0  0  0
    2.0180  -22.4890  -41.0800 H   0  0  0  0  0  0  0  0  0  0  0  0
    2.0250  -21.0900  -42.1810 H   0  0  0  0  0  0  0  0  0  0  0  0
    7.8290  -18.6040  -43.6680 S   0  0  0  0  0  0  0  0  0  0  0  0
  1  4  1  0  0  0  0
  1 28  1  0  0  0  0
  2  1  1  0  0  0  0
  3  2  2  0  0  0  0
  4 10  1  0  0  0  0
  4  5  1  0  0  0  0
  6  4  1  0  0  0  0
  7 11  1  0  0  0  0
  8 46  2  0  0  0  0
 10 14  1  0  0  0  0
 12 10  2  0  0  0  0
 12  7  1  0  0  0  0
 13 12  1  0  0  0  0
 14 11  2  0  0  0  0
 15  7  1  0  0  0  0
 15 17  1  0  0  0  0
 16 15  1  0  0  0  0
 18 60  1  0  0  0  0
 19 15  1  0  0  0  0
 19 20  1  0  0  0  0
 21 19  1  0  0  0  0
 22 53  1  0  0  0  0
 22 27  1  0  0  0  0
 23 19  1  0  0  0  0
 23 24  1  0  0  0  0
 25 23  1  0  0  0  0
 26 23  1  0  0  0  0
 28 31  1  0  0  0  0
 28 30  1  0  0  0  0
 29 28  1  0  0  0  0
 32 27  2  0  0  0  0
 33  9  1  0  0  0  0
 33  2  1  0  0  0  0
 34 33  2  0  0  0  0
 35 34  1  0  0  0  0
 36 73  2  0  0  0  0
 36 34  1  0  0  0  0
 37 36  1  0  0  0  0
 38 37  2  0  0  0  0
 39 38  1  0  0  0  0
 39 40  2  0  0  0  0
 40 41  1  0  0  0  0
 41 42  1  0  0  0  0
 41 44  1  0  0  0  0
 43 41  1  0  0  0  0
 45 64  2  0  0  0  0
 45 78  1  0  0  0  0
 46 45  1  0  0  0  0
 46 18  1  0  0  0  0
 47 18  1  0  0  0  0
 47 49  1  0  0  0  0
 47 50  1  0  0  0  0
 48 47  1  0  0  0  0
 50 32  1  0  0  0  0
 51 50  2  0  0  0  0
 51 22  1  0  0  0  0
 52 51  1  0  0  0  0
 53 55  1  0  0  0  0
 54 53  1  0  0  0  0
 56 57  1  0  0  0  0
 56 58  1  0  0  0  0
 56 53  1  0  0  0  0
 59 56  1  0  0  0  0
 60 61  1  0  0  0  0
 60 62  1  0  0  0  0
 63 60  1  0  0  0  0
 64 39  1  0  0  0  0
 65 64  1  0  0  0  0
 66 68  1  0  0  0  0
 66 38  1  0  0  0  0
 67 66  1  0  0  0  0
 68 69  1  0  0  0  0
 68 71  1  0  0  0  0
 70 68  1  0  0  0  0
 71 37  1  0  0  0  0
 71 72  1  0  0  0  0
 73  9  1  0  0  0  0
 74 76  1  0  0  0  0
 74 73  1  0  0  0  0
 74 75  1  0  0  0  0
 77 74  1  0  0  0  0
 78 40  1  0  0  0  0
M  END
>  <Pose>
1

>  <Score>
-4.59

$$$$

 OpenBabel03112215153D

 78 82  0  0  0  0  0  0  0  0999 V2000
   11.6020  -25.4230  -42.1420 N   0  0  0  0  0  0  0  0  0  0  0  0
   10.3680  -26.1590  -42.2580 C   0  0  0  0  0  0  0  0  0  0  0  0
    9.9910  -26.9200  -41.3640 O   0  0  0  0  0  0  0  0  0  0  0  0
   12.0940  -24.5280  -43.1810 C   0  0  0  0  0  0  0  0  0  0  0  0
   12.3320  -23.5650  -42.7300 H   0  0  0  0  0  0  0  0  0  0  0  0
   11.3110  -24.3960  -43.9280 H   0  0  0  0  0  0  0  0  0  0  0  0
   14.9140  -26.2490  -44.6620 N   0  0  0  0  0  0  0  0  0  0  0  0
    3.9140  -21.2010  -43.3630 O   0  0  0  0  0  0  0  0  0  0  0  0
    9.8960  -24.5780  -44.3630 S   0  0  0  0  0  0  0  0  0  0  0  0
   13.3200  -25.0560  -43.8600 C   0  0  0  0  0  0  0  0  0  0  0  0
   15.3400  -24.9730  -44.6610 N   0  0  0  0  0  0  0  0  0  0  0  0
   13.6640  -26.3350  -44.1860 C   0  0  0  0  0  0  0  0  0  0  0  0
   13.0600  -27.2250  -44.0840 H   0  0  0  0  0  0  0  0  0  0  0  0
   14.3640  -24.2480  -44.1730 N   0  0  0  0  0  0  0  0  0  0  0  0
   15.7860  -27.3310  -45.1160 C   0  0  0  0  0  0  0  0  0  0  0  0
   16.0760  -27.9410  -44.2590 H   0  0  0  0  0  0  0  0  0  0  0  0
   16.6770  -26.9040  -45.5760 H   0  0  0  0  0  0  0  0  0  0  0  0
    6.0640  -21.7210  -42.6610 N   0  0  0  0  0  0  0  0  0  0  0  0
   15.0700  -28.2070  -46.1330 C   0  0  0  0  0  0  0  0  0  0  0  0
   15.7950  -28.8700  -46.6050 H   0  0  0  0  0  0  0  0  0  0  0  0
   14.6120  -27.5710  -46.8900 H   0  0  0  0  0  0  0  0  0  0  0  0
    4.3720  -20.7420  -38.7660 N   0  0  0  0  0  0  0  0  0  0  0  0
   14.0070  -29.0320  -45.4810 C   0  0  0  0  0  0  0  0  0  0  0  0
   14.4580  -29.6710  -44.7220 H   0  0  0  0  0  0  0  0  0  0  0  0
   13.5160  -29.6510  -46.2320 H   0  0  0  0  0  0  0  0  0  0  0  0
   13.2730  -28.3760  -45.0140 H   0  0  0  0  0  0  0  0  0  0  0  0
    5.2230  -21.7770  -38.6980 N   0  0  0  0  0  0  0  0  0  0  0  0
   12.4300  -25.5520  -40.9480 C   0  0  0  0  0  0  0  0  0  0  0  0
   11.9570  -26.2440  -40.2510 H   0  0  0  0  0  0  0  0  0  0  0  0
   12.5380  -24.5760  -40.4740 H   0  0  0  0  0  0  0  0  0  0  0  0
   13.4130  -25.9310  -41.2260 H   0  0  0  0  0  0  0  0  0  0  0  0
    5.9160  -21.7760  -39.8080 N   0  0  0  0  0  0  0  0  0  0  0  0
    9.4750  -25.9640  -43.4280 C   0  0  0  0  0  0  0  0  0  0  0  0
    8.3840  -26.5980  -43.9490 C   0  0  0  0  0  0  0  0  0  0  0  0
    7.9400  -27.4790  -43.5090 H   0  0  0  0  0  0  0  0  0  0  0  0
    7.8880  -25.9740  -45.1410 C   0  0  0  0  0  0  0  0  0  0  0  0
    6.8650  -26.6250  -45.9760 C   0  0  0  0  0  0  0  0  0  0  0  0
    5.5590  -26.3150  -46.0420 C   0  0  0  0  0  0  0  0  0  0  0  0
    4.8450  -25.2790  -45.2830 C   0  0  0  0  0  0  0  0  0  0  0  0
    3.5340  -25.3490  -44.8710 C   0  0  0  0  0  0  0  0  0  0  0  0
    2.5020  -26.4140  -45.1040 C   0  0  0  0  0  0  0  0  0  0  0  0
    2.9370  -27.2180  -45.6970 H   0  0  0  0  0  0  0  0  0  0  0  0
    1.6530  -25.9870  -45.6370 H   0  0  0  0  0  0  0  0  0  0  0  0
    2.1670  -26.8110  -44.1450 H   0  0  0  0  0  0  0  0  0  0  0  0
    4.6790  -23.2680  -44.1070 C   0  0  0  0  0  0  0  0  0  0  0  0
    4.8510  -21.9970  -43.3690 C   0  0  0  0  0  0  0  0  0  0  0  0
    6.1360  -20.4720  -41.9190 C   0  0  0  0  0  0  0  0  0  0  0  0
    5.5910  -19.6880  -42.4430 H   0  0  0  0  0  0  0  0  0  0  0  0
    7.1750  -20.1690  -41.7880 H   0  0  0  0  0  0  0  0  0  0  0  0
    5.5030  -20.7460  -40.5890 C   0  0  0  0  0  0  0  0  0  0  0  0
    4.5250  -20.0730  -39.9190 C   0  0  0  0  0  0  0  0  0  0  0  0
    3.9910  -19.1930  -40.2460 H   0  0  0  0  0  0  0  0  0  0  0  0
    3.3990  -20.4630  -37.7060 C   0  0  0  0  0  0  0  0  0  0  0  0
    3.4410  -21.2670  -36.9710 H   0  0  0  0  0  0  0  0  0  0  0  0
    2.4020  -20.4250  -38.1460 H   0  0  0  0  0  0  0  0  0  0  0  0
    3.6730  -19.1520  -37.0090 C   0  0  0  0  0  0  0  0  0  0  0  0
    2.9250  -18.9910  -36.2320 H   0  0  0  0  0  0  0  0  0  0  0  0
    3.6260  -18.3390  -37.7330 H   0  0  0  0  0  0  0  0  0  0  0  0
    4.6650  -19.1810  -36.5580 H   0  0  0  0  0  0  0  0  0  0  0  0
    7.2740  -22.5340  -42.6970 C   0  0  0  0  0  0  0  0  0  0  0  0
    7.0890  -23.4360  -43.2800 H   0  0  0  0  0  0  0  0  0  0  0  0
    7.5570  -22.8100  -41.6810 H   0  0  0  0  0  0  0  0  0  0  0  0
    8.0820  -21.9640  -43.1560 H   0  0  0  0  0  0  0  0  0  0  0  0
    5.4960  -24.0850  -44.8420 C   0  0  0  0  0  0  0  0  0  0  0  0
    6.5270  -23.8520  -45.0650 H   0  0  0  0  0  0  0  0  0  0  0  0
    4.8400  -27.1640  -47.0620 C   0  0  0  0  0  0  0  0  0  0  0  0
    3.7770  -27.2330  -47.2410 H   0  0  0  0  0  0  0  0  0  0  0  0
    5.9650  -27.9040  -47.7810 C   0  0  0  0  0  0  0  0  0  0  0  0
    6.1250  -27.4730  -48.7690 H   0  0  0  0  0  0  0  0  0  0  0  0
    5.7150  -28.9600  -47.8810 H   0  0  0  0  0  0  0  0  0  0  0  0
    7.2180  -27.7400  -46.9290 C   0  0  0  0  0  0  0  0  0  0  0  0
    8.1430  -28.2940  -46.9920 H   0  0  0  0  0  0  0  0  0  0  0  0
    8.6000  -24.8490  -45.4810 C   0  0  0  0  0  0  0  0  0  0  0  0
    8.4310  -23.9090  -46.6350 C   0  0  0  0  0  0  0  0  0  0  0  0
    9.1850  -23.1240  -46.5790 H   0  0  0  0  0  0  0  0  0  0  0  0
    7.4370  -23.4620  -46.5970 H   0  0  0  0  0  0  0  0  0  0  0  0
    8.5460  -24.4570  -47.5700 H   0  0  0  0  0  0  0  0  0  0  0  0
    3.0990  -23.9450  -43.9460 S   0  0  0  0  0  0  0  0  0  0  0  0
  1 28  1  0  0  0  0
  2  1  1  0  0  0  0
  2  3  2  0  0  0  0
  4  5  1  0  0  0  0
  4  1  1  0  0  0  0
  6  4  1  0  0  0  0
  7 11  1  0  0  0  0
  7 12  1  0  0  0  0
  9 33  1  0  0  0  0
 10  4  1  0  0  0  0
 11 14  2  0  0  0  0
 12 13  1  0  0  0  0
 12 10  2  0  0  0  0
 14 10  1  0  0  0  0
 15  7  1  0  0  0  0
 15 16  1  0  0  0  0
 17 15  1  0  0  0  0
 18 47  1  0  0  0  0
 19 23  1  0  0  0  0
 19 15  1  0  0  0  0
 20 19  1  0  0  0  0
 21 19  1  0  0  0  0
 22 27  1  0  0  0  0
 22 53  1  0  0  0  0
 23 26  1  0  0  0  0
 23 24  1  0  0  0  0
 25 23  1  0  0  0  0
 28 30  1  0  0  0  0
 28 29  1  0  0  0  0
 31 28  1  0  0  0  0
 32 27  2  0  0  0  0
 33  2  1  0  0  0  0
 34 35  1  0  0  0  0
 34 33  2  0  0  0  0
 36 34  1  0  0  0  0
 37 36  1  0  0  0  0
 38 37  2  0  0  0  0
 38 39  1  0  0  0  0
 39 40  2  0  0  0  0
 39 64  1  0  0  0  0
 40 78  1  0  0  0  0
 41 40  1  0  0  0  0
 41 44  1  0  0  0  0
 42 41  1  0  0  0  0
 43 41  1  0  0  0  0
 45 78  1  0  0  0  0
 45 46  1  0  0  0  0
 46  8  2  0  0  0  0
 46 18  1  0  0  0  0
 47 49  1  0  0  0  0
 47 50  1  0  0  0  0
 48 47  1  0  0  0  0
 50 51  2  0  0  0  0
 50 32  1  0  0  0  0
 51 22  1  0  0  0  0
 52 51  1  0  0  0  0
 53 56  1  0  0  0  0
 53 54  1  0  0  0  0
 55 53  1  0  0  0  0
 56 59  1  0  0  0  0
 56 57  1  0  0  0  0
 58 56  1  0  0  0  0
 60 18  1  0  0  0  0
 60 62  1  0  0  0  0
 61 60  1  0  0  0  0
 63 60  1  0  0  0  0
 64 45  2  0  0  0  0
 65 64  1  0  0  0  0
 66 38  1  0  0  0  0
 67 66  1  0  0  0  0
 68 66  1  0  0  0  0
 68 71  1  0  0  0  0
 69 68  1  0  0  0  0
 70 68  1  0  0  0  0
 71 37  1  0  0  0  0
 72 71  1  0  0  0  0
 73 36  2  0  0  0  0
 73  9  1  0  0  0  0
 74 76  1  0  0  0  0
 74 75  1  0  0  0  0
 74 73  1  0  0  0  0
 77 74  1  0  0  0  0
M  END
>  <Pose>
1

>  <Score>
-4.57

$$$$

 OpenBabel03112215153D

 78 82  0  0  0  0  0  0  0  0999 V2000
    8.1150  -18.2770  -44.8040 N   0  0  0  0  0  0  0  0  0  0  0  0
    8.7190  -19.2830  -43.9670 C   0  0  0  0  0  0  0  0  0  0  0  0
    9.3110  -18.9790  -42.9280 O   0  0  0  0  0  0  0  0  0  0  0  0
    7.4230  -18.5890  -46.0470 C   0  0  0  0  0  0  0  0  0  0  0  0
    7.8430  -19.5050  -46.4610 H   0  0  0  0  0  0  0  0  0  0  0  0
    7.5780  -17.7690  -46.7490 H   0  0  0  0  0  0  0  0  0  0  0  0
    3.9160  -18.7790  -45.1670 N   0  0  0  0  0  0  0  0  0  0  0  0
    4.9500  -22.1010  -39.0470 O   0  0  0  0  0  0  0  0  0  0  0  0
   10.0960  -21.5460  -44.3370 S   0  0  0  0  0  0  0  0  0  0  0  0
    5.9510  -18.7810  -45.8510 C   0  0  0  0  0  0  0  0  0  0  0  0
    4.0370  -19.7950  -46.0400 N   0  0  0  0  0  0  0  0  0  0  0  0
    5.0770  -18.1220  -45.0370 C   0  0  0  0  0  0  0  0  0  0  0  0
    5.2770  -17.2570  -44.4210 H   0  0  0  0  0  0  0  0  0  0  0  0
    5.2790  -19.7920  -46.4570 N   0  0  0  0  0  0  0  0  0  0  0  0
    2.6510  -18.5240  -44.4810 C   0  0  0  0  0  0  0  0  0  0  0  0
    2.0580  -17.8250  -45.0710 H   0  0  0  0  0  0  0  0  0  0  0  0
    2.8560  -18.0890  -43.5020 H   0  0  0  0  0  0  0  0  0  0  0  0
    5.7470  -20.0690  -39.8300 N   0  0  0  0  0  0  0  0  0  0  0  0
    1.8680  -19.8160  -44.3000 C   0  0  0  0  0  0  0  0  0  0  0  0
    2.5400  -20.6620  -44.4430 H   0  0  0  0  0  0  0  0  0  0  0  0
    1.0710  -19.8550  -45.0420 H   0  0  0  0  0  0  0  0  0  0  0  0
    2.4170  -18.8790  -37.7440 N   0  0  0  0  0  0  0  0  0  0  0  0
    1.2670  -19.8960  -42.9340 C   0  0  0  0  0  0  0  0  0  0  0  0
    2.0580  -19.8570  -42.1860 H   0  0  0  0  0  0  0  0  0  0  0  0
    0.7170  -20.8320  -42.8340 H   0  0  0  0  0  0  0  0  0  0  0  0
    0.5860  -19.0580  -42.7870 H   0  0  0  0  0  0  0  0  0  0  0  0
    2.9980  -18.6630  -36.5540 N   0  0  0  0  0  0  0  0  0  0  0  0
    8.1780  -16.8690  -44.4290 C   0  0  0  0  0  0  0  0  0  0  0  0
    8.7180  -16.7670  -43.4870 H   0  0  0  0  0  0  0  0  0  0  0  0
    7.1680  -16.4780  -44.3120 H   0  0  0  0  0  0  0  0  0  0  0  0
    8.6970  -16.3080  -45.2060 H   0  0  0  0  0  0  0  0  0  0  0  0
    4.2760  -18.8990  -36.7030 N   0  0  0  0  0  0  0  0  0  0  0  0
    8.5800  -20.7250  -44.2920 C   0  0  0  0  0  0  0  0  0  0  0  0
    7.5510  -21.5730  -44.5840 C   0  0  0  0  0  0  0  0  0  0  0  0
    6.5180  -21.2620  -44.6300 H   0  0  0  0  0  0  0  0  0  0  0  0
    7.9830  -22.9180  -44.8240 C   0  0  0  0  0  0  0  0  0  0  0  0
    7.0170  -24.0240  -44.9350 C   0  0  0  0  0  0  0  0  0  0  0  0
    5.8280  -24.1230  -44.3160 C   0  0  0  0  0  0  0  0  0  0  0  0
    5.2290  -23.1710  -43.3700 C   0  0  0  0  0  0  0  0  0  0  0  0
    4.0160  -22.5410  -43.5300 C   0  0  0  0  0  0  0  0  0  0  0  0
    3.0360  -22.6010  -44.6650 C   0  0  0  0  0  0  0  0  0  0  0  0
    3.4180  -23.2650  -45.4400 H   0  0  0  0  0  0  0  0  0  0  0  0
    2.8970  -21.6020  -45.0790 H   0  0  0  0  0  0  0  0  0  0  0  0
    2.0810  -22.9790  -44.3010 H   0  0  0  0  0  0  0  0  0  0  0  0
    5.1210  -21.9820  -41.3630 C   0  0  0  0  0  0  0  0  0  0  0  0
    5.2530  -21.4000  -40.0090 C   0  0  0  0  0  0  0  0  0  0  0  0
    5.8960  -19.5870  -38.4660 C   0  0  0  0  0  0  0  0  0  0  0  0
    6.5140  -18.6900  -38.4450 H   0  0  0  0  0  0  0  0  0  0  0  0
    6.3490  -20.3560  -37.8400 H   0  0  0  0  0  0  0  0  0  0  0  0
    4.5120  -19.2760  -37.9860 C   0  0  0  0  0  0  0  0  0  0  0  0
    3.3270  -19.2490  -38.6590 C   0  0  0  0  0  0  0  0  0  0  0  0
    3.1570  -19.4760  -39.7010 H   0  0  0  0  0  0  0  0  0  0  0  0
    0.9690  -18.7540  -37.9390 C   0  0  0  0  0  0  0  0  0  0  0  0
    0.7840  -18.0390  -38.7400 H   0  0  0  0  0  0  0  0  0  0  0  0
    0.5220  -18.3890  -37.0150 H   0  0  0  0  0  0  0  0  0  0  0  0
    0.3260  -20.0700  -38.3030 C   0  0  0  0  0  0  0  0  0  0  0  0
   -0.7460  -19.9260  -38.4360 H   0  0  0  0  0  0  0  0  0  0  0  0
    0.4990  -20.7920  -37.5050 H   0  0  0  0  0  0  0  0  0  0  0  0
    0.7610  -20.4430  -39.2300 H   0  0  0  0  0  0  0  0  0  0  0  0
    6.0230  -19.1120  -40.8970 C   0  0  0  0  0  0  0  0  0  0  0  0
    5.8770  -19.5940  -41.8640 H   0  0  0  0  0  0  0  0  0  0  0  0
    7.0540  -18.7650  -40.8160 H   0  0  0  0  0  0  0  0  0  0  0  0
    5.3460  -18.2630  -40.8080 H   0  0  0  0  0  0  0  0  0  0  0  0
    5.8570  -22.8480  -42.1270 C   0  0  0  0  0  0  0  0  0  0  0  0
    6.8130  -23.2450  -41.8220 H   0  0  0  0  0  0  0  0  0  0  0  0
    5.0920  -25.3740  -44.7290 C   0  0  0  0  0  0  0  0  0  0  0  0
    4.1860  -25.7830  -44.3080 H   0  0  0  0  0  0  0  0  0  0  0  0
    5.9260  -25.9250  -45.8820 C   0  0  0  0  0  0  0  0  0  0  0  0
    5.4240  -25.7370  -46.8310 H   0  0  0  0  0  0  0  0  0  0  0  0
    6.0760  -26.9970  -45.7570 H   0  0  0  0  0  0  0  0  0  0  0  0
    7.2660  -25.2010  -45.8450 C   0  0  0  0  0  0  0  0  0  0  0  0
    8.1810  -25.4680  -46.3530 H   0  0  0  0  0  0  0  0  0  0  0  0
    9.3480  -23.0550  -44.7430 C   0  0  0  0  0  0  0  0  0  0  0  0
   10.2110  -24.2680  -44.9160 C   0  0  0  0  0  0  0  0  0  0  0  0
   11.2570  -23.9930  -44.7770 H   0  0  0  0  0  0  0  0  0  0  0  0
   10.0720  -24.6730  -45.9180 H   0  0  0  0  0  0  0  0  0  0  0  0
    9.9330  -25.0200  -44.1780 H   0  0  0  0  0  0  0  0  0  0  0  0
    3.6500  -21.5460  -42.1540 S   0  0  0  0  0  0  0  0  0  0  0  0
  1 28  1  0  0  0  0
  1  2  1  0  0  0  0
  2  3  2  0  0  0  0
  4 10  1  0  0  0  0
  4  1  1  0  0  0  0
  5  4  1  0  0  0  0
  6  4  1  0  0  0  0
  7 12  1  0  0  0  0
  7 15  1  0  0  0  0
  9 33  1  0  0  0  0
 10 12  2  0  0  0  0
 11  7  1  0  0  0  0
 12 13  1  0  0  0  0
 14 11  2  0  0  0  0
 14 10  1  0  0  0  0
 15 19  1  0  0  0  0
 15 17  1  0  0  0  0
 16 15  1  0  0  0  0
 18 47  1  0  0  0  0
 19 23  1  0  0  0  0
 20 19  1  0  0  0  0
 21 19  1  0  0  0  0
 22 27  1  0  0  0  0
 23 25  1  0  0  0  0
 23 26  1  0  0  0  0
 23 24  1  0  0  0  0
 28 30  1  0  0  0  0
 28 29  1  0  0  0  0
 31 28  1  0  0  0  0
 32 27  2  0  0  0  0
 33  2  1  0  0  0  0
 34 33  2  0  0  0  0
 35 34  1  0  0  0  0
 36 73  2  0  0  0  0
 36 34  1  0  0  0  0
 37 36  1  0  0  0  0
 37 38  2  0  0  0  0
 38 39  1  0  0  0  0
 39 64  1  0  0  0  0
 40 39  2  0  0  0  0
 40 78  1  0  0  0  0
 41 44  1  0  0  0  0
 41 40  1  0  0  0  0
 42 41  1  0  0  0  0
 43 41  1  0  0  0  0
 45 46  1  0  0  0  0
 46 18  1  0  0  0  0
 46  8  2  0  0  0  0
 47 48  1  0  0  0  0
 47 50  1  0  0  0  0
 47 49  1  0  0  0  0
 50 32  1  0  0  0  0
 51 50  2  0  0  0  0
 51 22  1  0  0  0  0
 52 51  1  0  0  0  0
 53 22  1  0  0  0  0
 53 55  1  0  0  0  0
 54 53  1  0  0  0  0
 56 53  1  0  0  0  0
 56 58  1  0  0  0  0
 57 56  1  0  0  0  0
 59 56  1  0  0  0  0
 60 62  1  0  0  0  0
 60 63  1  0  0  0  0
 60 18  1  0  0  0  0
 61 60  1  0  0  0  0
 64 65  1  0  0  0  0
 64 45  2  0  0  0  0
 66 38  1  0  0  0  0
 66 67  1  0  0  0  0
 68 71  1  0  0  0  0
 68 70  1  0  0  0  0
 68 66  1  0  0  0  0
 69 68  1  0  0  0  0
 71 37  1  0  0  0  0
 72 71  1  0  0  0  0
 73  9  1  0  0  0  0
 74 75  1  0  0  0  0
 74 73  1  0  0  0  0
 74 77  1  0  0  0  0
 76 74  1  0  0  0  0
 78 45  1  0  0  0  0
M  END
>  <Pose>
1

>  <Score>
-4.45

$$$$

 OpenBabel03112215153D

 78 82  0  0  0  0  0  0  0  0999 V2000
    8.7770  -17.4420  -46.1190 N   0  0  0  0  0  0  0  0  0  0  0  0
    8.4580  -18.8440  -46.0170 C   0  0  0  0  0  0  0  0  0  0  0  0
    9.1880  -19.7050  -46.5160 O   0  0  0  0  0  0  0  0  0  0  0  0
    7.9340  -16.3930  -45.5610 C   0  0  0  0  0  0  0  0  0  0  0  0
    7.1350  -16.8570  -44.9830 H   0  0  0  0  0  0  0  0  0  0  0  0
    7.5030  -15.8190  -46.3810 H   0  0  0  0  0  0  0  0  0  0  0  0
    9.4520  -14.2680  -43.0530 N   0  0  0  0  0  0  0  0  0  0  0  0
    8.9130  -24.4450  -45.4310 O   0  0  0  0  0  0  0  0  0  0  0  0
    5.9270  -19.6790  -46.2430 S   0  0  0  0  0  0  0  0  0  0  0  0
    8.6950  -15.4600  -44.6690 C   0  0  0  0  0  0  0  0  0  0  0  0
    9.9520  -13.7530  -44.1900 N   0  0  0  0  0  0  0  0  0  0  0  0
    8.6810  -15.3340  -43.3110 C   0  0  0  0  0  0  0  0  0  0  0  0
    8.1610  -15.9570  -42.5980 H   0  0  0  0  0  0  0  0  0  0  0  0
    9.4900  -14.4840  -45.1740 N   0  0  0  0  0  0  0  0  0  0  0  0
    9.7460  -13.6570  -41.7580 C   0  0  0  0  0  0  0  0  0  0  0  0
    9.3320  -14.2810  -40.9660 H   0  0  0  0  0  0  0  0  0  0  0  0
    9.2900  -12.6680  -41.7170 H   0  0  0  0  0  0  0  0  0  0  0  0
    9.6760  -25.4450  -43.4810 N   0  0  0  0  0  0  0  0  0  0  0  0
   11.2480  -13.5250  -41.5550 C   0  0  0  0  0  0  0  0  0  0  0  0
   11.5910  -12.6050  -42.0290 H   0  0  0  0  0  0  0  0  0  0  0  0
   11.7460  -14.3780  -42.0170 H   0  0  0  0  0  0  0  0  0  0  0  0
   13.6260  -23.7670  -43.2390 N   0  0  0  0  0  0  0  0  0  0  0  0
   11.5950  -13.4850  -40.1030 C   0  0  0  0  0  0  0  0  0  0  0  0
   11.1010  -12.6340  -39.6340 H   0  0  0  0  0  0  0  0  0  0  0  0
   12.6750  -13.3850  -39.9900 H   0  0  0  0  0  0  0  0  0  0  0  0
   11.2640  -14.4060  -39.6240 H   0  0  0  0  0  0  0  0  0  0  0  0
   13.5700  -24.6160  -42.2020 N   0  0  0  0  0  0  0  0  0  0  0  0
    9.9880  -17.0090  -46.8070 C   0  0  0  0  0  0  0  0  0  0  0  0
   10.5280  -17.8810  -47.1760 H   0  0  0  0  0  0  0  0  0  0  0  0
   10.6220  -16.4560  -46.1130 H   0  0  0  0  0  0  0  0  0  0  0  0
    9.7200  -16.3660  -47.6450 H   0  0  0  0  0  0  0  0  0  0  0  0
   12.5870  -25.4460  -42.4390 N   0  0  0  0  0  0  0  0  0  0  0  0
    7.2770  -19.3000  -45.2400 C   0  0  0  0  0  0  0  0  0  0  0  0
    6.9780  -19.4810  -43.9200 C   0  0  0  0  0  0  0  0  0  0  0  0
    7.6740  -19.2830  -43.1190 H   0  0  0  0  0  0  0  0  0  0  0  0
    5.6440  -19.9600  -43.7080 C   0  0  0  0  0  0  0  0  0  0  0  0
    5.2010  -20.4290  -42.3840 C   0  0  0  0  0  0  0  0  0  0  0  0
    5.2990  -21.6770  -41.8940 C   0  0  0  0  0  0  0  0  0  0  0  0
    5.8420  -22.8630  -42.5710 C   0  0  0  0  0  0  0  0  0  0  0  0
    5.1110  -23.9560  -42.9790 C   0  0  0  0  0  0  0  0  0  0  0  0
    3.6490  -24.2570  -42.8190 C   0  0  0  0  0  0  0  0  0  0  0  0
    3.1650  -23.4370  -42.2890 H   0  0  0  0  0  0  0  0  0  0  0  0
    3.5280  -25.1790  -42.2500 H   0  0  0  0  0  0  0  0  0  0  0  0
    3.1930  -24.3750  -43.8020 H   0  0  0  0  0  0  0  0  0  0  0  0
    7.5230  -24.1200  -43.5930 C   0  0  0  0  0  0  0  0  0  0  0  0
    8.7330  -24.6790  -44.2370 C   0  0  0  0  0  0  0  0  0  0  0  0
   10.8640  -25.9170  -44.1750 C   0  0  0  0  0  0  0  0  0  0  0  0
   10.7690  -25.7490  -45.2470 H   0  0  0  0  0  0  0  0  0  0  0  0
   11.0160  -26.9800  -43.9860 H   0  0  0  0  0  0  0  0  0  0  0  0
   12.0070  -25.1230  -43.6230 C   0  0  0  0  0  0  0  0  0  0  0  0
   12.6790  -24.0580  -44.1450 C   0  0  0  0  0  0  0  0  0  0  0  0
   12.4910  -23.5580  -45.0840 H   0  0  0  0  0  0  0  0  0  0  0  0
   14.5870  -22.6620  -43.2910 C   0  0  0  0  0  0  0  0  0  0  0  0
   15.2510  -22.8140  -44.1420 H   0  0  0  0  0  0  0  0  0  0  0  0
   15.1710  -22.6620  -42.3700 H   0  0  0  0  0  0  0  0  0  0  0  0
   13.9100  -21.3210  -43.4370 C   0  0  0  0  0  0  0  0  0  0  0  0
   14.6640  -20.5350  -43.4700 H   0  0  0  0  0  0  0  0  0  0  0  0
   13.2480  -21.1540  -42.5870 H   0  0  0  0  0  0  0  0  0  0  0  0
   13.3280  -21.3060  -44.3590 H   0  0  0  0  0  0  0  0  0  0  0  0
    9.5060  -25.8810  -42.0990 C   0  0  0  0  0  0  0  0  0  0  0  0
    8.5850  -25.4610  -41.6960 H   0  0  0  0  0  0  0  0  0  0  0  0
   10.3520  -25.5380  -41.5030 H   0  0  0  0  0  0  0  0  0  0  0  0
    9.4550  -26.9690  -42.0650 H   0  0  0  0  0  0  0  0  0  0  0  0
    7.2230  -22.9620  -42.9260 C   0  0  0  0  0  0  0  0  0  0  0  0
    7.9540  -22.2020  -42.6930 H   0  0  0  0  0  0  0  0  0  0  0  0
    4.7940  -21.7550  -40.4750 C   0  0  0  0  0  0  0  0  0  0  0  0
    4.6280  -22.6380  -39.8740 H   0  0  0  0  0  0  0  0  0  0  0  0
    4.5730  -20.2970  -40.0840 C   0  0  0  0  0  0  0  0  0  0  0  0
    5.3650  -19.9640  -39.4140 H   0  0  0  0  0  0  0  0  0  0  0  0
    3.6080  -20.1830  -39.5910 H   0  0  0  0  0  0  0  0  0  0  0  0
    4.6020  -19.4840  -41.3730 C   0  0  0  0  0  0  0  0  0  0  0  0
    4.2700  -18.4670  -41.5260 H   0  0  0  0  0  0  0  0  0  0  0  0
    4.9420  -20.0990  -44.8810 C   0  0  0  0  0  0  0  0  0  0  0  0
    3.5380  -20.5690  -45.1190 C   0  0  0  0  0  0  0  0  0  0  0  0
    3.3240  -20.5470  -46.1880 H   0  0  0  0  0  0  0  0  0  0  0  0
    2.8420  -19.9130  -44.5960 H   0  0  0  0  0  0  0  0  0  0  0  0
    3.4280  -21.5870  -44.7470 H   0  0  0  0  0  0  0  0  0  0  0  0
    6.1230  -25.1080  -43.7940 S   0  0  0  0  0  0  0  0  0  0  0  0
  1  2  1  0  0  0  0
  1  4  1  0  0  0  0
  2 33  1  0  0  0  0
  3  2  2  0  0  0  0
  4  5  1  0  0  0  0
  4 10  1  0  0  0  0
  6  4  1  0  0  0  0
  7 15  1  0  0  0  0
  8 46  2  0  0  0  0
  9 33  1  0  0  0  0
  9 73  1  0  0  0  0
 10 12  2  0  0  0  0
 11  7  1  0  0  0  0
 12  7  1  0  0  0  0
 12 13  1  0  0  0  0
 14 10  1  0  0  0  0
 14 11  2  0  0  0  0
 15 17  1  0  0  0  0
 15 19  1  0  0  0  0
 15 16  1  0  0  0  0
 18 60  1  0  0  0  0
 19 23  1  0  0  0  0
 20 19  1  0  0  0  0
 21 19  1  0  0  0  0
 22 27  1  0  0  0  0
 23 25  1  0  0  0  0
 23 24  1  0  0  0  0
 23 26  1  0  0  0  0
 28  1  1  0  0  0  0
 28 30  1  0  0  0  0
 29 28  1  0  0  0  0
 31 28  1  0  0  0  0
 32 27  2  0  0  0  0
 33 34  2  0  0  0  0
 34 36  1  0  0  0  0
 34 35  1  0  0  0  0
 36 37  1  0  0  0  0
 37 38  2  0  0  0  0
 37 71  1  0  0  0  0
 38 66  1  0  0  0  0
 39 38  1  0  0  0  0
 40 41  1  0  0  0  0
 40 39  2  0  0  0  0
 41 42  1  0  0  0  0
 41 43  1  0  0  0  0
 44 41  1  0  0  0  0
 45 64  2  0  0  0  0
 46 45  1  0  0  0  0
 46 18  1  0  0  0  0
 47 49  1  0  0  0  0
 47 50  1  0  0  0  0
 47 18  1  0  0  0  0
 48 47  1  0  0  0  0
 50 32  1  0  0  0  0
 51 50  2  0  0  0  0
 51 22  1  0  0  0  0
 52 51  1  0  0  0  0
 53 22  1  0  0  0  0
 53 55  1  0  0  0  0
 54 53  1  0  0  0  0
 56 53  1  0  0  0  0
 56 58  1  0  0  0  0
 57 56  1  0  0  0  0
 59 56  1  0  0  0  0
 60 63  1  0  0  0  0
 60 61  1  0  0  0  0
 60 62  1  0  0  0  0
 64 65  1  0  0  0  0
 64 39  1  0  0  0  0
 66 68  1  0  0  0  0
 66 67  1  0  0  0  0
 68 70  1  0  0  0  0
 68 69  1  0  0  0  0
 71 68  1  0  0  0  0
 72 71  1  0  0  0  0
 73 36  2  0  0  0  0
 74 73  1  0  0  0  0
 74 77  1  0  0  0  0
 74 76  1  0  0  0  0
 75 74  1  0  0  0  0
 78 45  1  0  0  0  0
 78 40  1  0  0  0  0
M  END
>  <Pose>
1

>  <Score>
-4.40

$$$$

 OpenBabel03112215153D

 78 82  0  0  0  0  0  0  0  0999 V2000
   14.5150  -22.6740  -42.8100 N   0  0  0  0  0  0  0  0  0  0  0  0
   13.7960  -23.9230  -42.8280 C   0  0  0  0  0  0  0  0  0  0  0  0
   14.1110  -24.8540  -42.0820 O   0  0  0  0  0  0  0  0  0  0  0  0
   14.1880  -21.5570  -43.6870 C   0  0  0  0  0  0  0  0  0  0  0  0
   13.1760  -21.6950  -44.0670 H   0  0  0  0  0  0  0  0  0  0  0  0
   14.8910  -21.5500  -44.5200 H   0  0  0  0  0  0  0  0  0  0  0  0
   13.8800  -18.4060  -41.9320 N   0  0  0  0  0  0  0  0  0  0  0  0
    5.0810  -25.5510  -42.9290 O   0  0  0  0  0  0  0  0  0  0  0  0
   11.5490  -25.3430  -43.1300 S   0  0  0  0  0  0  0  0  0  0  0  0
   14.2630  -20.2360  -42.9850 C   0  0  0  0  0  0  0  0  0  0  0  0
   15.0850  -18.2800  -42.5140 N   0  0  0  0  0  0  0  0  0  0  0  0
   13.3480  -19.6080  -42.1910 C   0  0  0  0  0  0  0  0  0  0  0  0
   12.4010  -19.9970  -41.8450 H   0  0  0  0  0  0  0  0  0  0  0  0
   15.3170  -19.4000  -43.1540 N   0  0  0  0  0  0  0  0  0  0  0  0
   13.2990  -17.3070  -41.1620 C   0  0  0  0  0  0  0  0  0  0  0  0
   13.4130  -17.5160  -40.0980 H   0  0  0  0  0  0  0  0  0  0  0  0
   12.2390  -17.2210  -41.4040 H   0  0  0  0  0  0  0  0  0  0  0  0
    3.9330  -23.5480  -42.6940 N   0  0  0  0  0  0  0  0  0  0  0  0
   13.9940  -15.9940  -41.4910 C   0  0  0  0  0  0  0  0  0  0  0  0
   13.4640  -15.5060  -42.3090 H   0  0  0  0  0  0  0  0  0  0  0  0
   15.0200  -16.2010  -41.7960 H   0  0  0  0  0  0  0  0  0  0  0  0
    0.5070  -25.7670  -44.3510 N   0  0  0  0  0  0  0  0  0  0  0  0
   14.0120  -15.0820  -40.3080 C   0  0  0  0  0  0  0  0  0  0  0  0
   12.9890  -14.8700  -39.9970 H   0  0  0  0  0  0  0  0  0  0  0  0
   14.5110  -14.1500  -40.5750 H   0  0  0  0  0  0  0  0  0  0  0  0
   14.5490  -15.5600  -39.4880 H   0  0  0  0  0  0  0  0  0  0  0  0
    1.4690  -25.3230  -45.1750 N   0  0  0  0  0  0  0  0  0  0  0  0
   15.6290  -22.4770  -41.8900 C   0  0  0  0  0  0  0  0  0  0  0  0
   15.7720  -23.3780  -41.2940 H   0  0  0  0  0  0  0  0  0  0  0  0
   15.4120  -21.6350  -41.2320 H   0  0  0  0  0  0  0  0  0  0  0  0
   16.5360  -22.2690  -42.4580 H   0  0  0  0  0  0  0  0  0  0  0  0
    2.3730  -24.7400  -44.4300 N   0  0  0  0  0  0  0  0  0  0  0  0
   12.6030  -24.1010  -43.6950 C   0  0  0  0  0  0  0  0  0  0  0  0
   12.1300  -23.5390  -44.8460 C   0  0  0  0  0  0  0  0  0  0  0  0
   12.6450  -22.7540  -45.3800 H   0  0  0  0  0  0  0  0  0  0  0  0
   10.8810  -24.0970  -45.2720 C   0  0  0  0  0  0  0  0  0  0  0  0
   10.0980  -23.4820  -46.3560 C   0  0  0  0  0  0  0  0  0  0  0  0
    8.8560  -22.9760  -46.2700 C   0  0  0  0  0  0  0  0  0  0  0  0
    7.9830  -22.9440  -45.0880 C   0  0  0  0  0  0  0  0  0  0  0  0
    7.9920  -21.9710  -44.1140 C   0  0  0  0  0  0  0  0  0  0  0  0
    8.8700  -20.7650  -43.9590 C   0  0  0  0  0  0  0  0  0  0  0  0
    9.5820  -20.7260  -44.7830 H   0  0  0  0  0  0  0  0  0  0  0  0
    9.4100  -20.8270  -43.0140 H   0  0  0  0  0  0  0  0  0  0  0  0
    8.2560  -19.8640  -43.9670 H   0  0  0  0  0  0  0  0  0  0  0  0
    6.2310  -23.7000  -43.7420 C   0  0  0  0  0  0  0  0  0  0  0  0
    5.0540  -24.3360  -43.1080 C   0  0  0  0  0  0  0  0  0  0  0  0
    2.8370  -24.2400  -42.0350 C   0  0  0  0  0  0  0  0  0  0  0  0
    2.2600  -23.5430  -41.4270 H   0  0  0  0  0  0  0  0  0  0  0  0
    3.2200  -25.0420  -41.4030 H   0  0  0  0  0  0  0  0  0  0  0  0
    1.9850  -24.8030  -43.1300 C   0  0  0  0  0  0  0  0  0  0  0  0
    0.8000  -25.4730  -43.0750 C   0  0  0  0  0  0  0  0  0  0  0  0
    0.2210  -25.7140  -42.1950 H   0  0  0  0  0  0  0  0  0  0  0  0
   -0.6980  -26.4360  -44.8500 C   0  0  0  0  0  0  0  0  0  0  0  0
   -0.8040  -26.2210  -45.9130 H   0  0  0  0  0  0  0  0  0  0  0  0
   -1.5630  -26.0460  -44.3130 H   0  0  0  0  0  0  0  0  0  0  0  0
   -0.6410  -27.9320  -44.6590 C   0  0  0  0  0  0  0  0  0  0  0  0
   -1.5560  -28.3820  -45.0440 H   0  0  0  0  0  0  0  0  0  0  0  0
   -0.5430  -28.1600  -43.5980 H   0  0  0  0  0  0  0  0  0  0  0  0
    0.2160  -28.3350  -45.1980 H   0  0  0  0  0  0  0  0  0  0  0  0
    3.7450  -22.1270  -42.9630 C   0  0  0  0  0  0  0  0  0  0  0  0
    4.6320  -21.7300  -43.4560 H   0  0  0  0  0  0  0  0  0  0  0  0
    3.5840  -21.5980  -42.0230 H   0  0  0  0  0  0  0  0  0  0  0  0
    2.8780  -21.9910  -43.6090 H   0  0  0  0  0  0  0  0  0  0  0  0
    6.9720  -23.9310  -44.8700 C   0  0  0  0  0  0  0  0  0  0  0  0
    6.8100  -24.7720  -45.5280 H   0  0  0  0  0  0  0  0  0  0  0  0
    8.4120  -22.3730  -47.5800 C   0  0  0  0  0  0  0  0  0  0  0  0
    7.4300  -22.0140  -47.8490 H   0  0  0  0  0  0  0  0  0  0  0  0
    9.6760  -22.3870  -48.4360 C   0  0  0  0  0  0  0  0  0  0  0  0
   10.0870  -21.3810  -48.5130 H   0  0  0  0  0  0  0  0  0  0  0  0
    9.4490  -22.7640  -49.4330 H   0  0  0  0  0  0  0  0  0  0  0  0
   10.6710  -23.3080  -47.7410 C   0  0  0  0  0  0  0  0  0  0  0  0
   11.5760  -23.7360  -48.1460 H   0  0  0  0  0  0  0  0  0  0  0  0
   10.4470  -25.1060  -44.4450 C   0  0  0  0  0  0  0  0  0  0  0  0
    9.2080  -25.9470  -44.5140 C   0  0  0  0  0  0  0  0  0  0  0  0
    9.2010  -26.6510  -43.6810 H   0  0  0  0  0  0  0  0  0  0  0  0
    9.1940  -26.4970  -45.4550 H   0  0  0  0  0  0  0  0  0  0  0  0
    8.3290  -25.3050  -44.4550 H   0  0  0  0  0  0  0  0  0  0  0  0
    6.7600  -22.2740  -42.9270 S   0  0  0  0  0  0  0  0  0  0  0  0
  1 28  1  0  0  0  0
  2  1  1  0  0  0  0
  2  3  2  0  0  0  0
  4 10  1  0  0  0  0
  4  1  1  0  0  0  0
  5  4  1  0  0  0  0
  6  4  1  0  0  0  0
  7 15  1  0  0  0  0
 10 12  2  0  0  0  0
 11  7  1  0  0  0  0
 12  7  1  0  0  0  0
 12 13  1  0  0  0  0
 14 10  1  0  0  0  0
 14 11  2  0  0  0  0
 15 16  1  0  0  0  0
 17 15  1  0  0  0  0
 18 47  1  0  0  0  0
 19 15  1  0  0  0  0
 19 23  1  0  0  0  0
 20 19  1  0  0  0  0
 21 19  1  0  0  0  0
 22 51  1  0  0  0  0
 23 24  1  0  0  0  0
 23 26  1  0  0  0  0
 25 23  1  0  0  0  0
 27 32  2  0  0  0  0
 27 22  1  0  0  0  0
 28 29  1  0  0  0  0
 28 30  1  0  0  0  0
 31 28  1  0  0  0  0
 32 50  1  0  0  0  0
 33  9  1  0  0  0  0
 33  2  1  0  0  0  0
 34 33  2  0  0  0  0
 35 34  1  0  0  0  0
 36 34  1  0  0  0  0
 36 73  2  0  0  0  0
 37 38  2  0  0  0  0
 37 36  1  0  0  0  0
 38 39  1  0  0  0  0
 39 64  1  0  0  0  0
 39 40  2  0  0  0  0
 40 41  1  0  0  0  0
 40 78  1  0  0  0  0
 41 43  1  0  0  0  0
 42 41  1  0  0  0  0
 44 41  1  0  0  0  0
 45 46  1  0  0  0  0
 45 78  1  0  0  0  0
 46  8  2  0  0  0  0
 46 18  1  0  0  0  0
 47 48  1  0  0  0  0
 47 49  1  0  0  0  0
 50 51  2  0  0  0  0
 50 47  1  0  0  0  0
 51 52  1  0  0  0  0
 53 56  1  0  0  0  0
 53 22  1  0  0  0  0
 53 55  1  0  0  0  0
 54 53  1  0  0  0  0
 56 58  1  0  0  0  0
 57 56  1  0  0  0  0
 59 56  1  0  0  0  0
 60 18  1  0  0  0  0
 60 62  1  0  0  0  0
 61 60  1  0  0  0  0
 63 60  1  0  0  0  0
 64 45  2  0  0  0  0
 65 64  1  0  0  0  0
 66 38  1  0  0  0  0
 67 66  1  0  0  0  0
 68 71  1  0  0  0  0
 68 66  1  0  0  0  0
 69 68  1  0  0  0  0
 70 68  1  0  0  0  0
 71 37  1  0  0  0  0
 72 71  1  0  0  0  0
 73  9  1  0  0  0  0
 74 77  1  0  0  0  0
 74 73  1  0  0  0  0
 74 75  1  0  0  0  0
 76 74  1  0  0  0  0
M  END
>  <Pose>
1

>  <Score>
-4.37

$$$$

 OpenBabel03112215153D

 78 82  0  0  0  0  0  0  0  0999 V2000
    0.7910  -15.1320  -40.3130 N   0  0  0  0  0  0  0  0  0  0  0  0
    0.5400  -16.4880  -40.7310 C   0  0  0  0  0  0  0  0  0  0  0  0
   -0.3320  -16.7500  -41.5630 O   0  0  0  0  0  0  0  0  0  0  0  0
    1.7970  -14.7800  -39.3200 C   0  0  0  0  0  0  0  0  0  0  0  0
    2.4910  -14.0650  -39.7630 H   0  0  0  0  0  0  0  0  0  0  0  0
    2.3390  -15.6820  -39.0360 H   0  0  0  0  0  0  0  0  0  0  0  0
   -0.0760  -13.3190  -36.5870 N   0  0  0  0  0  0  0  0  0  0  0  0
    3.4920  -22.4800  -45.0190 O   0  0  0  0  0  0  0  0  0  0  0  0
    0.5670  -19.1270  -40.2950 S   0  0  0  0  0  0  0  0  0  0  0  0
    1.2000  -14.1710  -38.0890 C   0  0  0  0  0  0  0  0  0  0  0  0
    1.1890  -13.0050  -36.2540 N   0  0  0  0  0  0  0  0  0  0  0  0
   -0.1050  -14.0510  -37.7100 C   0  0  0  0  0  0  0  0  0  0  0  0
   -0.9730  -14.4580  -38.2060 H   0  0  0  0  0  0  0  0  0  0  0  0
    1.9650  -13.5280  -37.1710 N   0  0  0  0  0  0  0  0  0  0  0  0
   -1.2040  -12.8510  -35.7830 C   0  0  0  0  0  0  0  0  0  0  0  0
   -1.3790  -13.5550  -34.9690 H   0  0  0  0  0  0  0  0  0  0  0  0
   -2.0920  -12.7950  -36.4120 H   0  0  0  0  0  0  0  0  0  0  0  0
    3.0940  -23.9940  -43.3070 N   0  0  0  0  0  0  0  0  0  0  0  0
   -0.9150  -11.4760  -35.2020 C   0  0  0  0  0  0  0  0  0  0  0  0
   -0.7690  -10.7680  -36.0180 H   0  0  0  0  0  0  0  0  0  0  0  0
   -0.0070  -11.5270  -34.5990 H   0  0  0  0  0  0  0  0  0  0  0  0
    4.8950  -27.3900  -45.4580 N   0  0  0  0  0  0  0  0  0  0  0  0
   -2.0430  -11.0050  -34.3430 C   0  0  0  0  0  0  0  0  0  0  0  0
   -2.9550  -10.9500  -34.9380 H   0  0  0  0  0  0  0  0  0  0  0  0
   -1.8100  -10.0170  -33.9450 H   0  0  0  0  0  0  0  0  0  0  0  0
   -2.1890  -11.7030  -33.5190 H   0  0  0  0  0  0  0  0  0  0  0  0
    5.5770  -26.8060  -44.4610 N   0  0  0  0  0  0  0  0  0  0  0  0
    0.0240  -14.0290  -40.8820 C   0  0  0  0  0  0  0  0  0  0  0  0
   -0.6900  -14.4200  -41.6070 H   0  0  0  0  0  0  0  0  0  0  0  0
    0.7010  -13.3340  -41.3780 H   0  0  0  0  0  0  0  0  0  0  0  0
   -0.5110  -13.5100  -40.0870 H   0  0  0  0  0  0  0  0  0  0  0  0
    4.8000  -25.8840  -43.9530 N   0  0  0  0  0  0  0  0  0  0  0  0
    1.3770  -17.6060  -40.2260 C   0  0  0  0  0  0  0  0  0  0  0  0
    2.6300  -17.7370  -39.7010 C   0  0  0  0  0  0  0  0  0  0  0  0
    3.3030  -16.9060  -39.5500 H   0  0  0  0  0  0  0  0  0  0  0  0
    2.9610  -19.0910  -39.3690 C   0  0  0  0  0  0  0  0  0  0  0  0
    4.3340  -19.4760  -39.0020 C   0  0  0  0  0  0  0  0  0  0  0  0
    5.2520  -20.0530  -39.7960 C   0  0  0  0  0  0  0  0  0  0  0  0
    5.0930  -20.4570  -41.2000 C   0  0  0  0  0  0  0  0  0  0  0  0
    5.8020  -19.9490  -42.2640 C   0  0  0  0  0  0  0  0  0  0  0  0
    6.8430  -18.8680  -42.3060 C   0  0  0  0  0  0  0  0  0  0  0  0
    7.0030  -18.4790  -41.3010 H   0  0  0  0  0  0  0  0  0  0  0  0
    6.5040  -18.0630  -42.9580 H   0  0  0  0  0  0  0  0  0  0  0  0
    7.7770  -19.2780  -42.6900 H   0  0  0  0  0  0  0  0  0  0  0  0
    4.2210  -21.7610  -42.9310 C   0  0  0  0  0  0  0  0  0  0  0  0
    3.5770  -22.7500  -43.8230 C   0  0  0  0  0  0  0  0  0  0  0  0
    2.5180  -24.9340  -44.2560 C   0  0  0  0  0  0  0  0  0  0  0  0
    2.1530  -24.4070  -45.1380 H   0  0  0  0  0  0  0  0  0  0  0  0
    1.6960  -25.4830  -43.7960 H   0  0  0  0  0  0  0  0  0  0  0  0
    3.6240  -25.8720  -44.6310 C   0  0  0  0  0  0  0  0  0  0  0  0
    3.6750  -26.8440  -45.5850 C   0  0  0  0  0  0  0  0  0  0  0  0
    2.9030  -27.1150  -46.2890 H   0  0  0  0  0  0  0  0  0  0  0  0
    5.4800  -28.4450  -46.2890 C   0  0  0  0  0  0  0  0  0  0  0  0
    6.5620  -28.4350  -46.1590 H   0  0  0  0  0  0  0  0  0  0  0  0
    5.2380  -28.2460  -47.3330 H   0  0  0  0  0  0  0  0  0  0  0  0
    4.9610  -29.8150  -45.9230 C   0  0  0  0  0  0  0  0  0  0  0  0
    5.4240  -30.5630  -46.5660 H   0  0  0  0  0  0  0  0  0  0  0  0
    3.8790  -29.8400  -46.0560 H   0  0  0  0  0  0  0  0  0  0  0  0
    5.2040  -30.0290  -44.8830 H   0  0  0  0  0  0  0  0  0  0  0  0
    3.0360  -24.3670  -41.8980 C   0  0  0  0  0  0  0  0  0  0  0  0
    3.4970  -23.5840  -41.2960 H   0  0  0  0  0  0  0  0  0  0  0  0
    3.5710  -25.3040  -41.7470 H   0  0  0  0  0  0  0  0  0  0  0  0
    1.9950  -24.4900  -41.5970 H   0  0  0  0  0  0  0  0  0  0  0  0
    4.1900  -21.4950  -41.5880 C   0  0  0  0  0  0  0  0  0  0  0  0
    3.5480  -22.0170  -40.8930 H   0  0  0  0  0  0  0  0  0  0  0  0
    6.5670  -20.2360  -39.0800 C   0  0  0  0  0  0  0  0  0  0  0  0
    7.4370  -20.7810  -39.4140 H   0  0  0  0  0  0  0  0  0  0  0  0
    6.3810  -19.4690  -37.7730 C   0  0  0  0  0  0  0  0  0  0  0  0
    6.9320  -18.5290  -37.8090 H   0  0  0  0  0  0  0  0  0  0  0  0
    6.7380  -20.0670  -36.9340 H   0  0  0  0  0  0  0  0  0  0  0  0
    4.8900  -19.1980  -37.6270 C   0  0  0  0  0  0  0  0  0  0  0  0
    4.3540  -18.8810  -36.7440 H   0  0  0  0  0  0  0  0  0  0  0  0
    1.9280  -19.9620  -39.6200 C   0  0  0  0  0  0  0  0  0  0  0  0
    1.8440  -21.4460  -39.4280 C   0  0  0  0  0  0  0  0  0  0  0  0
    0.8600  -21.7970  -39.7380 H   0  0  0  0  0  0  0  0  0  0  0  0
    2.0000  -21.6860  -38.3760 H   0  0  0  0  0  0  0  0  0  0  0  0
    2.6110  -21.9340  -40.0300 H   0  0  0  0  0  0  0  0  0  0  0  0
    5.3540  -20.7430  -43.7430 S   0  0  0  0  0  0  0  0  0  0  0  0
  1  4  1  0  0  0  0
  2  1  1  0  0  0  0
  2 33  1  0  0  0  0
  3  2  2  0  0  0  0
  4  6  1  0  0  0  0
  4 10  1  0  0  0  0
  5  4  1  0  0  0  0
  7 11  1  0  0  0  0
  7 15  1  0  0  0  0
  8 46  2  0  0  0  0
  9 33  1  0  0  0  0
  9 73  1  0  0  0  0
 10 12  2  0  0  0  0
 10 14  1  0  0  0  0
 12  7  1  0  0  0  0
 13 12  1  0  0  0  0
 14 11  2  0  0  0  0
 15 19  1  0  0  0  0
 15 16  1  0  0  0  0
 17 15  1  0  0  0  0
 18 60  1  0  0  0  0
 19 21  1  0  0  0  0
 19 23  1  0  0  0  0
 20 19  1  0  0  0  0
 22 27  1  0  0  0  0
 23 25  1  0  0  0  0
 23 26  1  0  0  0  0
 24 23  1  0  0  0  0
 27 32  2  0  0  0  0
 28  1  1  0  0  0  0
 28 31  1  0  0  0  0
 29 28  1  0  0  0  0
 30 28  1  0  0  0  0
 33 34  2  0  0  0  0
 34 35  1  0  0  0  0
 34 36  1  0  0  0  0
 36 37  1  0  0  0  0
 37 71  1  0  0  0  0
 38 66  1  0  0  0  0
 38 37  2  0  0  0  0
 39 38  1  0  0  0  0
 40 39  2  0  0  0  0
 41 40  1  0  0  0  0
 41 42  1  0  0  0  0
 43 41  1  0  0  0  0
 44 41  1  0  0  0  0
 45 64  2  0  0  0  0
 46 18  1  0  0  0  0
 46 45  1  0  0  0  0
 47 49  1  0  0  0  0
 47 18  1  0  0  0  0
 48 47  1  0  0  0  0
 50 47  1  0  0  0  0
 50 32  1  0  0  0  0
 51 22  1  0  0  0  0
 51 50  2  0  0  0  0
 52 51  1  0  0  0  0
 53 54  1  0  0  0  0
 53 56  1  0  0  0  0
 53 22  1  0  0  0  0
 55 53  1  0  0  0  0
 56 59  1  0  0  0  0
 57 56  1  0  0  0  0
 58 56  1  0  0  0  0
 60 62  1  0  0  0  0
 60 63  1  0  0  0  0
 60 61  1  0  0  0  0
 64 39  1  0  0  0  0
 64 65  1  0  0  0  0
 66 68  1  0  0  0  0
 67 66  1  0  0  0  0
 68 71  1  0  0  0  0
 68 70  1  0  0  0  0
 69 68  1  0  0  0  0
 71 72  1  0  0  0  0
 73 74  1  0  0  0  0
 73 36  2  0  0  0  0
 74 76  1  0  0  0  0
 75 74  1  0  0  0  0
 77 74  1  0  0  0  0
 78 45  1  0  0  0  0
 78 40  1  0  0  0  0
M  END
>  <Pose>
1

>  <Score>
-3.98

$$$$
