# created with PyMOL 2.5.2
@<TRIPOS>MOLECULE
predictions
78 80 1                 
SMALL
USER_CHARGES
@<TRIPOS>ATOM
1	   N	10.628	-25.810	-43.460	N.pl3	1	UNK0	0.000	
2	   C	9.281	-25.654	-42.972	C.2	1	UNK0	0.000	
3	   O	8.784	-26.472	-42.192	O.2	1	UNK0	0.000	
4	   C	11.247	-24.880	-44.395	C.3	1	UNK0	0.000	
5	   H	10.526	-24.099	-44.640	 H	1	UNK0	0.000	
6	   H	11.517	-25.422	-45.301	 H	1	UNK0	0.000	
7	   N	14.019	-22.898	-43.171	N.pl3	1	UNK0	0.000	
8	   O	0.889	-21.811	-43.300	O.2	1	UNK0	0.000	
9	   S	6.926	-24.873	-43.972	S.3	1	UNK0	0.000	
10	   C	12.479	-24.237	-43.835	C.2	1	UNK0	0.000	
11	   N	14.571	-24.122	-43.255	N.2	1	UNK0	0.000	
12	   C	12.723	-22.935	-43.509	C.2	1	UNK0	0.000	
13	   H	12.023	-22.113	-43.521	 H	1	UNK0	0.000	
14	   N	13.628	-24.937	-43.658	N.2	1	UNK0	0.000	
15	   C	14.819	-21.738	-42.780	C.3	1	UNK0	0.000	
16	   H	15.875	-22.007	-42.806	 H	1	UNK0	0.000	
17	   H	14.544	-21.439	-41.769	 H	1	UNK0	0.000	
18	   N	1.692	-23.939	-42.845	N.pl3	1	UNK0	0.000	
19	   C	14.576	-20.574	-43.730	C.3	1	UNK0	0.000	
20	   H	13.805	-20.856	-44.448	 H	1	UNK0	0.000	
21	   H	15.501	-20.349	-44.260	 H	1	UNK0	0.000	
22	   N	-0.874	-26.077	-40.236	N.pl3	1	UNK0	0.000	
23	   C	14.130	-19.357	-42.988	C.3	1	UNK0	0.000	
24	   H	13.204	-19.575	-42.455	 H	1	UNK0	0.000	
25	   H	13.960	-18.543	-43.693	 H	1	UNK0	0.000	
26	   H	14.900	-19.064	-42.274	 H	1	UNK0	0.000	
27	   N	-0.231	-27.097	-40.825	N.2	1	UNK0	0.000	
28	   C	11.445	-26.938	-43.026	C.3	1	UNK0	0.000	
29	   H	10.873	-27.556	-42.334	 H	1	UNK0	0.000	
30	   H	12.341	-26.568	-42.528	 H	1	UNK0	0.000	
31	   H	11.731	-27.534	-43.893	 H	1	UNK0	0.000	
32	   N	0.276	-26.637	-41.940	N.2	1	UNK0	0.000	
33	   C	8.475	-24.461	-43.335	C.2	1	UNK0	0.000	
34	   C	8.653	-23.108	-43.309	C.2	1	UNK0	0.000	
35	   H	9.560	-22.633	-42.964	 H	1	UNK0	0.000	
36	   C	7.514	-22.382	-43.785	C.2	1	UNK0	0.000	
37	   C	7.418	-20.921	-43.631	C.2	1	UNK0	0.000	
38	   C	6.413	-20.232	-43.064	C.2	1	UNK0	0.000	
39	   C	5.170	-20.770	-42.493	C.2	1	UNK0	0.000	
40	   C	4.757	-20.618	-41.189	C.2	1	UNK0	0.000	
41	   C	5.434	-19.943	-40.032	C.3	1	UNK0	0.000	
42	   H	6.393	-19.539	-40.357	 H	1	UNK0	0.000	
43	   H	5.596	-20.667	-39.234	 H	1	UNK0	0.000	
44	   H	4.804	-19.133	-39.665	 H	1	UNK0	0.000	
45	   C	3.104	-21.855	-42.590	C.3	1	UNK0	0.000	
46	   C	1.824	-22.517	-42.927	C.2	1	UNK0	0.000	
47	   C	0.417	-24.518	-43.240	C.3	1	UNK0	0.000	
48	   H	0.545	-25.156	-44.114	 H	1	UNK0	0.000	
49	   H	-0.302	-23.730	-43.467	 H	1	UNK0	0.000	
50	   C	-0.049	-25.326	-42.069	C.2	1	UNK0	0.000	
51	   C	-0.772	-24.960	-40.973	C.2	1	UNK0	0.000	
52	   H	-1.175	-23.984	-40.747	 H	1	UNK0	0.000	
53	   C	-1.608	-26.242	-38.978	C.3	1	UNK0	0.000	
54	   H	-1.115	-25.652	-38.205	 H	1	UNK0	0.000	
55	   H	-1.592	-27.295	-38.698	 H	1	UNK0	0.000	
56	   C	-3.044	-25.791	-39.091	C.3	1	UNK0	0.000	
57	   H	-3.545	-25.932	-38.134	 H	1	UNK0	0.000	
58	   H	-3.550	-26.378	-39.857	 H	1	UNK0	0.000	
59	   H	-3.073	-24.736	-39.364	 H	1	UNK0	0.000	
60	   C	2.690	-24.857	-42.306	C.3	1	UNK0	0.000	
61	   H	3.593	-24.303	-42.051	 H	1	UNK0	0.000	
62	   H	2.928	-25.615	-43.053	 H	1	UNK0	0.000	
63	   H	2.295	-25.340	-41.412	 H	1	UNK0	0.000	
64	   C	4.219	-21.479	-43.291	C.3	1	UNK0	0.000	
65	   H	4.365	-21.695	-44.339	 H	1	UNK0	0.000	
66	   C	6.704	-18.752	-43.033	C.3	1	UNK0	0.000	
67	   H	6.037	-17.947	-42.761	 H	1	UNK0	0.000	
68	   C	8.162	-18.657	-43.474	C.3	1	UNK0	0.000	
69	   H	8.800	-18.445	-42.617	 H	1	UNK0	0.000	
70	   H	8.278	-17.868	-44.217	 H	1	UNK0	0.000	
71	   C	8.530	-20.006	-44.081	C.3	1	UNK0	0.000	
72	   H	9.387	-20.250	-44.690	 H	1	UNK0	0.000	
73	   C	6.498	-23.210	-44.200	C.2	1	UNK0	0.000	
74	   C	5.146	-22.880	-44.757	C.3	1	UNK0	0.000	
75	   H	4.608	-23.802	-44.975	 H	1	UNK0	0.000	
76	   H	5.262	-22.301	-45.673	 H	1	UNK0	0.000	
77	   H	4.585	-22.296	-44.026	 H	1	UNK0	0.000	
78	   S	3.201	-21.351	-40.943	S.3	1	UNK0	0.000	
@<TRIPOS>BOND
1 1 28 1
2 1 2 1
3 2 3 2
4 4 10 1
5 1 4 1
6 4 5 1
7 4 6 1
8 7 15 1
9 8 46 2
10 9 33 1
11 10 14 1
12 10 12 2
13 7 11 1
14 7 12 1
15 12 13 1
16 11 14 2
17 15 17 1
18 15 16 1
19 18 60 1
20 19 23 1
21 15 19 1
22 19 20 1
23 19 21 1
24 22 53 1
25 23 24 1
26 23 26 1
27 23 25 1
28 22 27 1
29 28 30 1
30 28 29 1
31 28 31 1
32 27 32 2
33 33 34 2
34 2 33 1
35 34 35 1
36 36 37 1
37 34 36 1
38 37 38 2
39 38 66 1
40 38 39 1
41 39 40 2
42 40 78 1
43 40 41 1
44 41 44 1
45 41 43 1
46 41 42 1
47 45 78 1
48 18 46 1
49 45 46 1
50 18 47 1
51 47 50 1
52 47 48 1
53 47 49 1
54 32 50 1
55 50 51 2
56 51 52 1
57 22 51 1
58 53 55 1
59 53 54 1
60 53 56 1
61 56 57 1
62 56 58 1
63 56 59 1
64 60 61 1
65 60 63 1
66 60 62 1
67 64 65 1
68 66 67 1
69 66 68 1
70 68 69 1
71 68 70 1
72 37 71 1
73 68 71 1
74 71 72 1
75 9 73 1
76 36 73 2
77 73 74 1
78 74 77 1
79 74 75 1
80 74 76 1
@<TRIPOS>SUBSTRUCTURE
1	UNK0	1	GROUP	1 ****	UNK
