
 OpenBabel03092210503D

 78 80  0  0  0  0  0  0  0  0999 V2000
   10.6280  -25.8100  -43.4600 N   0  0  0  0  0  0  0  0  0  0  0  0
    9.2810  -25.6540  -42.9720 C   0  0  0  0  0  0  0  0  0  0  0  0
    8.7840  -26.4720  -42.1920 O   0  0  0  0  0  0  0  0  0  0  0  0
   11.2470  -24.8800  -44.3950 C   0  0  0  0  0  0  0  0  0  0  0  0
   10.5260  -24.0990  -44.6400 H   0  0  0  0  0  0  0  0  0  0  0  0
   11.5170  -25.4220  -45.3010 H   0  0  0  0  0  0  0  0  0  0  0  0
   14.0190  -22.8980  -43.1710 N   0  0  0  0  0  0  0  0  0  0  0  0
    0.8890  -21.8110  -43.3000 O   0  0  0  0  0  0  0  0  0  0  0  0
    6.9260  -24.8730  -43.9720 S   0  0  0  0  0  0  0  0  0  0  0  0
   12.4790  -24.2370  -43.8350 C   0  0  0  0  0  0  0  0  0  0  0  0
   14.5710  -24.1220  -43.2550 N   0  0  0  0  0  0  0  0  0  0  0  0
   12.7230  -22.9350  -43.5090 C   0  0  0  0  0  0  0  0  0  0  0  0
   12.0230  -22.1130  -43.5210 H   0  0  0  0  0  0  0  0  0  0  0  0
   13.6280  -24.9370  -43.6580 N   0  0  0  0  0  0  0  0  0  0  0  0
   14.8190  -21.7380  -42.7800 C   0  0  0  0  0  0  0  0  0  0  0  0
   15.8750  -22.0070  -42.8060 H   0  0  0  0  0  0  0  0  0  0  0  0
   14.5440  -21.4390  -41.7690 H   0  0  0  0  0  0  0  0  0  0  0  0
    1.6920  -23.9390  -42.8450 N   0  0  0  0  0  0  0  0  0  0  0  0
   14.5760  -20.5740  -43.7300 C   0  0  0  0  0  0  0  0  0  0  0  0
   13.8050  -20.8560  -44.4480 H   0  0  0  0  0  0  0  0  0  0  0  0
   15.5010  -20.3490  -44.2600 H   0  0  0  0  0  0  0  0  0  0  0  0
   -0.8740  -26.0770  -40.2360 N   0  0  0  0  0  0  0  0  0  0  0  0
   14.1300  -19.3570  -42.9880 C   0  0  0  0  0  0  0  0  0  0  0  0
   13.2040  -19.5750  -42.4550 H   0  0  0  0  0  0  0  0  0  0  0  0
   13.9600  -18.5430  -43.6930 H   0  0  0  0  0  0  0  0  0  0  0  0
   14.9000  -19.0640  -42.2740 H   0  0  0  0  0  0  0  0  0  0  0  0
   -0.2310  -27.0970  -40.8250 N   0  0  0  0  0  0  0  0  0  0  0  0
   11.4450  -26.9380  -43.0260 C   0  0  0  0  0  0  0  0  0  0  0  0
   10.8730  -27.5560  -42.3340 H   0  0  0  0  0  0  0  0  0  0  0  0
   12.3410  -26.5680  -42.5280 H   0  0  0  0  0  0  0  0  0  0  0  0
   11.7310  -27.5340  -43.8930 H   0  0  0  0  0  0  0  0  0  0  0  0
    0.2760  -26.6370  -41.9400 N   0  0  0  0  0  0  0  0  0  0  0  0
    8.4750  -24.4610  -43.3350 C   0  0  0  0  0  0  0  0  0  0  0  0
    8.6530  -23.1080  -43.3090 C   0  0  0  0  0  0  0  0  0  0  0  0
    9.5600  -22.6330  -42.9640 H   0  0  0  0  0  0  0  0  0  0  0  0
    7.5140  -22.3820  -43.7850 C   0  0  0  0  0  0  0  0  0  0  0  0
    7.4180  -20.9210  -43.6310 C   0  0  0  0  0  0  0  0  0  0  0  0
    6.4130  -20.2320  -43.0640 C   0  0  0  0  0  0  0  0  0  0  0  0
    5.1700  -20.7700  -42.4930 C   0  0  0  0  0  0  0  0  0  0  0  0
    4.7570  -20.6180  -41.1890 C   0  0  0  0  0  0  0  0  0  0  0  0
    5.4340  -19.9430  -40.0320 C   0  0  0  0  0  0  0  0  0  0  0  0
    6.3930  -19.5390  -40.3570 H   0  0  0  0  0  0  0  0  0  0  0  0
    5.5960  -20.6670  -39.2340 H   0  0  0  0  0  0  0  0  0  0  0  0
    4.8040  -19.1330  -39.6650 H   0  0  0  0  0  0  0  0  0  0  0  0
    3.1040  -21.8550  -42.5900 C   0  0  0  0  0  0  0  0  0  0  0  0
    1.8240  -22.5170  -42.9270 C   0  0  0  0  0  0  0  0  0  0  0  0
    0.4170  -24.5180  -43.2400 C   0  0  0  0  0  0  0  0  0  0  0  0
    0.5450  -25.1560  -44.1140 H   0  0  0  0  0  0  0  0  0  0  0  0
   -0.3020  -23.7300  -43.4670 H   0  0  0  0  0  0  0  0  0  0  0  0
   -0.0490  -25.3260  -42.0690 C   0  0  0  0  0  0  0  0  0  0  0  0
   -0.7720  -24.9600  -40.9730 C   0  0  0  0  0  0  0  0  0  0  0  0
   -1.1750  -23.9840  -40.7470 H   0  0  0  0  0  0  0  0  0  0  0  0
   -1.6080  -26.2420  -38.9780 C   0  0  0  0  0  0  0  0  0  0  0  0
   -1.1150  -25.6520  -38.2050 H   0  0  0  0  0  0  0  0  0  0  0  0
   -1.5920  -27.2950  -38.6980 H   0  0  0  0  0  0  0  0  0  0  0  0
   -3.0440  -25.7910  -39.0910 C   0  0  0  0  0  0  0  0  0  0  0  0
   -3.5450  -25.9320  -38.1340 H   0  0  0  0  0  0  0  0  0  0  0  0
   -3.5500  -26.3780  -39.8570 H   0  0  0  0  0  0  0  0  0  0  0  0
   -3.0730  -24.7360  -39.3640 H   0  0  0  0  0  0  0  0  0  0  0  0
    2.6900  -24.8570  -42.3060 C   0  0  0  0  0  0  0  0  0  0  0  0
    3.5930  -24.3030  -42.0510 H   0  0  0  0  0  0  0  0  0  0  0  0
    2.9280  -25.6150  -43.0530 H   0  0  0  0  0  0  0  0  0  0  0  0
    2.2950  -25.3400  -41.4120 H   0  0  0  0  0  0  0  0  0  0  0  0
    4.2190  -21.4790  -43.2910 C   0  0  0  0  0  0  0  0  0  0  0  0
    4.3650  -21.6950  -44.3390 H   0  0  0  0  0  0  0  0  0  0  0  0
    6.7040  -18.7520  -43.0330 C   0  0  0  0  0  0  0  0  0  0  0  0
    6.0370  -17.9470  -42.7610 H   0  0  0  0  0  0  0  0  0  0  0  0
    8.1620  -18.6570  -43.4740 C   0  0  0  0  0  0  0  0  0  0  0  0
    8.8000  -18.4450  -42.6170 H   0  0  0  0  0  0  0  0  0  0  0  0
    8.2780  -17.8680  -44.2170 H   0  0  0  0  0  0  0  0  0  0  0  0
    8.5300  -20.0060  -44.0810 C   0  0  0  0  0  0  0  0  0  0  0  0
    9.3870  -20.2500  -44.6900 H   0  0  0  0  0  0  0  0  0  0  0  0
    6.4980  -23.2100  -44.2000 C   0  0  0  0  0  0  0  0  0  0  0  0
    5.1460  -22.8800  -44.7570 C   0  0  0  0  0  0  0  0  0  0  0  0
    4.6080  -23.8020  -44.9750 H   0  0  0  0  0  0  0  0  0  0  0  0
    5.2620  -22.3010  -45.6730 H   0  0  0  0  0  0  0  0  0  0  0  0
    4.5850  -22.2960  -44.0260 H   0  0  0  0  0  0  0  0  0  0  0  0
    3.2010  -21.3510  -40.9430 S   0  0  0  0  0  0  0  0  0  0  0  0
  1 28  1  0  0  0  0
  1  2  1  0  0  0  0
  2  3  2  0  0  0  0
  4 10  1  0  0  0  0
  4  1  1  0  0  0  0
  5  4  1  0  0  0  0
  6  4  1  0  0  0  0
  7 15  1  0  0  0  0
  8 46  2  0  0  0  0
  9 33  1  0  0  0  0
 10 14  1  0  0  0  0
 10 12  2  0  0  0  0
 11  7  1  0  0  0  0
 12  7  1  0  0  0  0
 13 12  1  0  0  0  0
 14 11  2  0  0  0  0
 15 17  1  0  0  0  0
 16 15  1  0  0  0  0
 18 60  1  0  0  0  0
 19 23  1  0  0  0  0
 19 15  1  0  0  0  0
 20 19  1  0  0  0  0
 21 19  1  0  0  0  0
 22 53  1  0  0  0  0
 23 24  1  0  0  0  0
 23 26  1  0  0  0  0
 25 23  1  0  0  0  0
 27 22  1  0  0  0  0
 28 30  1  0  0  0  0
 28 29  1  0  0  0  0
 31 28  1  0  0  0  0
 32 27  2  0  0  0  0
 33 34  2  0  0  0  0
 33  2  1  0  0  0  0
 34 35  1  0  0  0  0
 36 37  1  0  0  0  0
 36 34  1  0  0  0  0
 37 38  2  0  0  0  0
 38 66  1  0  0  0  0
 38 39  1  0  0  0  0
 39 40  2  0  0  0  0
 40 78  1  0  0  0  0
 40 41  1  0  0  0  0
 41 44  1  0  0  0  0
 41 43  1  0  0  0  0
 42 41  1  0  0  0  0
 45 78  1  0  0  0  0
 46 18  1  0  0  0  0
 46 45  1  0  0  0  0
 47 18  1  0  0  0  0
 47 50  1  0  0  0  0
 48 47  1  0  0  0  0
 49 47  1  0  0  0  0
 50 32  1  0  0  0  0
 50 51  2  0  0  0  0
 51 52  1  0  0  0  0
 51 22  1  0  0  0  0
 53 55  1  0  0  0  0
 53 54  1  0  0  0  0
 56 53  1  0  0  0  0
 56 57  1  0  0  0  0
 58 56  1  0  0  0  0
 59 56  1  0  0  0  0
 60 61  1  0  0  0  0
 60 63  1  0  0  0  0
 62 60  1  0  0  0  0
 65 64  1  0  0  0  0
 66 67  1  0  0  0  0
 68 66  1  0  0  0  0
 68 69  1  0  0  0  0
 70 68  1  0  0  0  0
 71 37  1  0  0  0  0
 71 68  1  0  0  0  0
 72 71  1  0  0  0  0
 73  9  1  0  0  0  0
 73 36  2  0  0  0  0
 74 73  1  0  0  0  0
 74 77  1  0  0  0  0
 75 74  1  0  0  0  0
 76 74  1  0  0  0  0
M  END
>  <Pose>
1

>  <Score>
-5.56

$$$$

 OpenBabel03092210503D

 78 82  0  0  0  0  0  0  0  0999 V2000
    6.7080  -19.1370  -43.2780 N   0  0  0  0  0  0  0  0  0  0  0  0
    7.9470  -18.8050  -43.9360 C   0  0  0  0  0  0  0  0  0  0  0  0
    8.2050  -17.6450  -44.2660 O   0  0  0  0  0  0  0  0  0  0  0  0
    6.3550  -20.4960  -42.8880 C   0  0  0  0  0  0  0  0  0  0  0  0
    7.2330  -21.1310  -42.9990 H   0  0  0  0  0  0  0  0  0  0  0  0
    5.5620  -20.8530  -43.5460 H   0  0  0  0  0  0  0  0  0  0  0  0
    4.7450  -20.7030  -39.6520 N   0  0  0  0  0  0  0  0  0  0  0  0
   13.6850  -16.5880  -40.1300 O   0  0  0  0  0  0  0  0  0  0  0  0
    8.7030  -20.7550  -45.6020 S   0  0  0  0  0  0  0  0  0  0  0  0
    5.8770  -20.5800  -41.4710 C   0  0  0  0  0  0  0  0  0  0  0  0
    5.9800  -20.2880  -39.3190 N   0  0  0  0  0  0  0  0  0  0  0  0
    4.6500  -20.9070  -40.9730 C   0  0  0  0  0  0  0  0  0  0  0  0
    3.7890  -21.2550  -41.5240 H   0  0  0  0  0  0  0  0  0  0  0  0
    6.6690  -20.2160  -40.4310 N   0  0  0  0  0  0  0  0  0  0  0  0
    3.7040  -20.8550  -38.6360 C   0  0  0  0  0  0  0  0  0  0  0  0
    4.1390  -21.3010  -37.7420 H   0  0  0  0  0  0  0  0  0  0  0  0
    2.9190  -21.5050  -39.0230 H   0  0  0  0  0  0  0  0  0  0  0  0
   13.7430  -15.0250  -41.8440 N   0  0  0  0  0  0  0  0  0  0  0  0
    3.1020  -19.5040  -38.2790 C   0  0  0  0  0  0  0  0  0  0  0  0
    2.0160  -19.5750  -38.3250 H   0  0  0  0  0  0  0  0  0  0  0  0
    3.4480  -18.7590  -38.9960 H   0  0  0  0  0  0  0  0  0  0  0  0
   10.9050  -12.0110  -40.6800 N   0  0  0  0  0  0  0  0  0  0  0  0
    3.5050  -19.0810  -36.9030 C   0  0  0  0  0  0  0  0  0  0  0  0
    3.1620  -19.8210  -36.1800 H   0  0  0  0  0  0  0  0  0  0  0  0
    3.0560  -18.1140  -36.6740 H   0  0  0  0  0  0  0  0  0  0  0  0
    4.5910  -18.9980  -36.8520 H   0  0  0  0  0  0  0  0  0  0  0  0
   10.6190  -13.0580  -39.8920 N   0  0  0  0  0  0  0  0  0  0  0  0
    5.7320  -18.0970  -42.9720 C   0  0  0  0  0  0  0  0  0  0  0  0
    6.1110  -17.1330  -43.3110 H   0  0  0  0  0  0  0  0  0  0  0  0
    5.5620  -18.0630  -41.8960 H   0  0  0  0  0  0  0  0  0  0  0  0
    4.7940  -18.3180  -43.4810 H   0  0  0  0  0  0  0  0  0  0  0  0
   11.6680  -13.8400  -39.8970 N   0  0  0  0  0  0  0  0  0  0  0  0
    8.9850  -19.8410  -44.1680 C   0  0  0  0  0  0  0  0  0  0  0  0
   10.1080  -20.2710  -43.5210 C   0  0  0  0  0  0  0  0  0  0  0  0
   10.4580  -19.8480  -42.5910 H   0  0  0  0  0  0  0  0  0  0  0  0
   10.7740  -21.3410  -44.2040 C   0  0  0  0  0  0  0  0  0  0  0  0
   12.1130  -21.7930  -43.7930 C   0  0  0  0  0  0  0  0  0  0  0  0
   13.1460  -21.0220  -43.4120 C   0  0  0  0  0  0  0  0  0  0  0  0
   13.1880  -19.5540  -43.3420 C   0  0  0  0  0  0  0  0  0  0  0  0
   12.8650  -18.6950  -44.3670 C   0  0  0  0  0  0  0  0  0  0  0  0
   12.4510  -18.9860  -45.7800 C   0  0  0  0  0  0  0  0  0  0  0  0
   12.4260  -20.0640  -45.9370 H   0  0  0  0  0  0  0  0  0  0  0  0
   13.1650  -18.5350  -46.4690 H   0  0  0  0  0  0  0  0  0  0  0  0
   11.4600  -18.5700  -45.9610 H   0  0  0  0  0  0  0  0  0  0  0  0
   13.4610  -17.5050  -42.2570 C   0  0  0  0  0  0  0  0  0  0  0  0
   13.6270  -16.3570  -41.3360 C   0  0  0  0  0  0  0  0  0  0  0  0
   13.9540  -13.9570  -40.8780 C   0  0  0  0  0  0  0  0  0  0  0  0
   14.6820  -13.2410  -41.2580 H   0  0  0  0  0  0  0  0  0  0  0  0
   14.3060  -14.3670  -39.9310 H   0  0  0  0  0  0  0  0  0  0  0  0
   12.6220  -13.2980  -40.6960 C   0  0  0  0  0  0  0  0  0  0  0  0
   12.1430  -12.1200  -41.1870 C   0  0  0  0  0  0  0  0  0  0  0  0
   12.6490  -11.4260  -41.8410 H   0  0  0  0  0  0  0  0  0  0  0  0
    9.9320  -10.9480  -40.9470 C   0  0  0  0  0  0  0  0  0  0  0  0
    9.0070  -11.1780  -40.4180 H   0  0  0  0  0  0  0  0  0  0  0  0
    9.7380  -10.9110  -42.0190 H   0  0  0  0  0  0  0  0  0  0  0  0
   10.4260   -9.5950  -40.4960 C   0  0  0  0  0  0  0  0  0  0  0  0
    9.6700   -8.8410  -40.7150 H   0  0  0  0  0  0  0  0  0  0  0  0
   11.3470   -9.3500  -41.0230 H   0  0  0  0  0  0  0  0  0  0  0  0
   10.6160   -9.6170  -39.4230 H   0  0  0  0  0  0  0  0  0  0  0  0
   13.5710  -14.6250  -43.2360 C   0  0  0  0  0  0  0  0  0  0  0  0
   13.4230  -15.5120  -43.8530 H   0  0  0  0  0  0  0  0  0  0  0  0
   14.4600  -14.0920  -43.5740 H   0  0  0  0  0  0  0  0  0  0  0  0
   12.7020  -13.9730  -43.3220 H   0  0  0  0  0  0  0  0  0  0  0  0
   13.5270  -18.8670  -42.1350 C   0  0  0  0  0  0  0  0  0  0  0  0
   13.8070  -19.3710  -41.2220 H   0  0  0  0  0  0  0  0  0  0  0  0
   14.3370  -21.8530  -43.0030 C   0  0  0  0  0  0  0  0  0  0  0  0
   15.3380  -21.5170  -42.7790 H   0  0  0  0  0  0  0  0  0  0  0  0
   13.7960  -23.2800  -42.9800 C   0  0  0  0  0  0  0  0  0  0  0  0
   13.6540  -23.6110  -41.9520 H   0  0  0  0  0  0  0  0  0  0  0  0
   14.4900  -23.9520  -43.4850 H   0  0  0  0  0  0  0  0  0  0  0  0
   12.4600  -23.2600  -43.7130 C   0  0  0  0  0  0  0  0  0  0  0  0
   11.8930  -24.0990  -44.0880 H   0  0  0  0  0  0  0  0  0  0  0  0
   10.1150  -21.7270  -45.3460 C   0  0  0  0  0  0  0  0  0  0  0  0
   10.4570  -22.7870  -46.3490 C   0  0  0  0  0  0  0  0  0  0  0  0
    9.6960  -22.8070  -47.1300 H   0  0  0  0  0  0  0  0  0  0  0  0
   10.4950  -23.7570  -45.8540 H   0  0  0  0  0  0  0  0  0  0  0  0
   11.4270  -22.5670  -46.7940 H   0  0  0  0  0  0  0  0  0  0  0  0
   12.9850  -17.0410  -43.8490 S   0  0  0  0  0  0  0  0  0  0  0  0
  1 28  1  0  0  0  0
  1  4  1  0  0  0  0
  2  1  1  0  0  0  0
  3  2  2  0  0  0  0
  4 10  1  0  0  0  0
  5  4  1  0  0  0  0
  6  4  1  0  0  0  0
  7 11  1  0  0  0  0
  7 15  1  0  0  0  0
  9 73  1  0  0  0  0
  9 33  1  0  0  0  0
 10 12  2  0  0  0  0
 10 14  1  0  0  0  0
 12  7  1  0  0  0  0
 13 12  1  0  0  0  0
 14 11  2  0  0  0  0
 15 19  1  0  0  0  0
 15 16  1  0  0  0  0
 17 15  1  0  0  0  0
 18 46  1  0  0  0  0
 18 47  1  0  0  0  0
 19 23  1  0  0  0  0
 20 19  1  0  0  0  0
 21 19  1  0  0  0  0
 22 27  1  0  0  0  0
 23 26  1  0  0  0  0
 23 25  1  0  0  0  0
 23 24  1  0  0  0  0
 28 30  1  0  0  0  0
 29 28  1  0  0  0  0
 31 28  1  0  0  0  0
 32 27  2  0  0  0  0
 33  2  1  0  0  0  0
 33 34  2  0  0  0  0
 34 35  1  0  0  0  0
 36 37  1  0  0  0  0
 36 34  1  0  0  0  0
 37 71  1  0  0  0  0
 37 38  2  0  0  0  0
 38 39  1  0  0  0  0
 38 66  1  0  0  0  0
 39 64  1  0  0  0  0
 40 78  1  0  0  0  0
 40 39  2  0  0  0  0
 41 40  1  0  0  0  0
 42 41  1  0  0  0  0
 43 41  1  0  0  0  0
 44 41  1  0  0  0  0
 45 64  2  0  0  0  0
 45 46  1  0  0  0  0
 46  8  2  0  0  0  0
 47 50  1  0  0  0  0
 47 49  1  0  0  0  0
 48 47  1  0  0  0  0
 50 32  1  0  0  0  0
 51 50  2  0  0  0  0
 51 22  1  0  0  0  0
 52 51  1  0  0  0  0
 53 22  1  0  0  0  0
 53 56  1  0  0  0  0
 53 54  1  0  0  0  0
 55 53  1  0  0  0  0
 56 59  1  0  0  0  0
 57 56  1  0  0  0  0
 58 56  1  0  0  0  0
 60 18  1  0  0  0  0
 61 60  1  0  0  0  0
 62 60  1  0  0  0  0
 63 60  1  0  0  0  0
 64 65  1  0  0  0  0
 66 68  1  0  0  0  0
 66 67  1  0  0  0  0
 68 69  1  0  0  0  0
 70 68  1  0  0  0  0
 71 68  1  0  0  0  0
 72 71  1  0  0  0  0
 73 36  2  0  0  0  0
 74 76  1  0  0  0  0
 74 73  1  0  0  0  0
 75 74  1  0  0  0  0
 77 74  1  0  0  0  0
 78 45  1  0  0  0  0
M  END
>  <Pose>
1

>  <Score>
-5.45

$$$$

 OpenBabel03092210503D

 78 82  0  0  0  0  0  0  0  0999 V2000
    2.0860  -17.9590  -37.9670 N   0  0  0  0  0  0  0  0  0  0  0  0
    3.1080  -18.9730  -37.9000 C   0  0  0  0  0  0  0  0  0  0  0  0
    3.5250  -19.3910  -36.8170 O   0  0  0  0  0  0  0  0  0  0  0  0
    1.5780  -17.4240  -39.2230 C   0  0  0  0  0  0  0  0  0  0  0  0
    0.4890  -17.3970  -39.1770 H   0  0  0  0  0  0  0  0  0  0  0  0
    1.8910  -18.0800  -40.0350 H   0  0  0  0  0  0  0  0  0  0  0  0
    2.4480  -13.9270  -39.5830 N   0  0  0  0  0  0  0  0  0  0  0  0
   10.2480  -19.4500  -45.1410 O   0  0  0  0  0  0  0  0  0  0  0  0
    5.0160  -20.5920  -38.8430 S   0  0  0  0  0  0  0  0  0  0  0  0
    2.0810  -16.0410  -39.5030 C   0  0  0  0  0  0  0  0  0  0  0  0
    3.0290  -14.4690  -40.6670 N   0  0  0  0  0  0  0  0  0  0  0  0
    1.8640  -14.8720  -38.8330 C   0  0  0  0  0  0  0  0  0  0  0  0
    1.3360  -14.7380  -37.9000 H   0  0  0  0  0  0  0  0  0  0  0  0
    2.8060  -15.7590  -40.6150 N   0  0  0  0  0  0  0  0  0  0  0  0
    2.4790  -12.4840  -39.3550 C   0  0  0  0  0  0  0  0  0  0  0  0
    1.8040  -12.2360  -38.5360 H   0  0  0  0  0  0  0  0  0  0  0  0
    2.1540  -11.9710  -40.2610 H   0  0  0  0  0  0  0  0  0  0  0  0
   10.4670  -20.2700  -42.9810 N   0  0  0  0  0  0  0  0  0  0  0  0
    3.8860  -12.0260  -38.9990 C   0  0  0  0  0  0  0  0  0  0  0  0
    4.2290  -11.3140  -39.7500 H   0  0  0  0  0  0  0  0  0  0  0  0
    4.5490  -12.8910  -38.9890 H   0  0  0  0  0  0  0  0  0  0  0  0
   13.4100  -17.3430  -41.8900 N   0  0  0  0  0  0  0  0  0  0  0  0
    3.9170  -11.3720  -37.6560 C   0  0  0  0  0  0  0  0  0  0  0  0
    3.2560  -10.5060  -37.6580 H   0  0  0  0  0  0  0  0  0  0  0  0
    4.9350  -11.0520  -37.4320 H   0  0  0  0  0  0  0  0  0  0  0  0
    3.5840  -12.0810  -36.8990 H   0  0  0  0  0  0  0  0  0  0  0  0
   13.2770  -18.0750  -40.7730 N   0  0  0  0  0  0  0  0  0  0  0  0
    1.5070  -17.4120  -36.7440 C   0  0  0  0  0  0  0  0  0  0  0  0
    1.9670  -17.8900  -35.8790 H   0  0  0  0  0  0  0  0  0  0  0  0
    0.4330  -17.6000  -36.7350 H   0  0  0  0  0  0  0  0  0  0  0  0
    1.6880  -16.3380  -36.7050 H   0  0  0  0  0  0  0  0  0  0  0  0
   12.7290  -19.2100  -41.1220 N   0  0  0  0  0  0  0  0  0  0  0  0
    3.6360  -19.6010  -39.1380 C   0  0  0  0  0  0  0  0  0  0  0  0
    3.3170  -19.5810  -40.4650 C   0  0  0  0  0  0  0  0  0  0  0  0
    2.4970  -19.0070  -40.8720 H   0  0  0  0  0  0  0  0  0  0  0  0
    4.1810  -20.4000  -41.2630 C   0  0  0  0  0  0  0  0  0  0  0  0
    3.8720  -20.6910  -42.6730 C   0  0  0  0  0  0  0  0  0  0  0  0
    4.6300  -20.3960  -43.7440 C   0  0  0  0  0  0  0  0  0  0  0  0
    5.9220  -19.6960  -43.7600 C   0  0  0  0  0  0  0  0  0  0  0  0
    6.1150  -18.3670  -43.4600 C   0  0  0  0  0  0  0  0  0  0  0  0
    5.1210  -17.3020  -43.0980 C   0  0  0  0  0  0  0  0  0  0  0  0
    4.1180  -17.7270  -43.0960 H   0  0  0  0  0  0  0  0  0  0  0  0
    5.1720  -16.4940  -43.8290 H   0  0  0  0  0  0  0  0  0  0  0  0
    5.3530  -16.9100  -42.1080 H   0  0  0  0  0  0  0  0  0  0  0  0
    8.2440  -19.5660  -43.9650 C   0  0  0  0  0  0  0  0  0  0  0  0
    9.7070  -19.7600  -44.0820 C   0  0  0  0  0  0  0  0  0  0  0  0
   11.9060  -20.3850  -43.1580 C   0  0  0  0  0  0  0  0  0  0  0  0
   12.1600  -20.3680  -44.2180 H   0  0  0  0  0  0  0  0  0  0  0  0
   12.2690  -21.3110  -42.7120 H   0  0  0  0  0  0  0  0  0  0  0  0
   12.5030  -19.2020  -42.4610 C   0  0  0  0  0  0  0  0  0  0  0  0
   12.9520  -18.0150  -42.9580 C   0  0  0  0  0  0  0  0  0  0  0  0
   12.9400  -17.6870  -43.9860 H   0  0  0  0  0  0  0  0  0  0  0  0
   13.9500  -15.9810  -41.8690 C   0  0  0  0  0  0  0  0  0  0  0  0
   13.9490  -15.5870  -42.8860 H   0  0  0  0  0  0  0  0  0  0  0  0
   14.9720  -16.0140  -41.4930 H   0  0  0  0  0  0  0  0  0  0  0  0
   13.1390  -15.0580  -40.9910 C   0  0  0  0  0  0  0  0  0  0  0  0
   13.5790  -14.0610  -41.0080 H   0  0  0  0  0  0  0  0  0  0  0  0
   13.1390  -15.4380  -39.9690 H   0  0  0  0  0  0  0  0  0  0  0  0
   12.1160  -15.0110  -41.3620 H   0  0  0  0  0  0  0  0  0  0  0  0
    9.9170  -20.7780  -41.7290 C   0  0  0  0  0  0  0  0  0  0  0  0
    8.8360  -20.6330  -41.7210 H   0  0  0  0  0  0  0  0  0  0  0  0
   10.3610  -20.2400  -40.8920 H   0  0  0  0  0  0  0  0  0  0  0  0
   10.1410  -21.8400  -41.6380 H   0  0  0  0  0  0  0  0  0  0  0  0
    7.1450  -20.3780  -44.0480 C   0  0  0  0  0  0  0  0  0  0  0  0
    7.1960  -21.4260  -44.3040 H   0  0  0  0  0  0  0  0  0  0  0  0
    4.0090  -20.9110  -45.0190 C   0  0  0  0  0  0  0  0  0  0  0  0
    4.3160  -20.7160  -46.0350 H   0  0  0  0  0  0  0  0  0  0  0  0
    2.8460  -21.7740  -44.5370 C   0  0  0  0  0  0  0  0  0  0  0  0
    3.0930  -22.8300  -44.6430 H   0  0  0  0  0  0  0  0  0  0  0  0
    1.9490  -21.5510  -45.1150 H   0  0  0  0  0  0  0  0  0  0  0  0
    2.6210  -21.4340  -43.0690 C   0  0  0  0  0  0  0  0  0  0  0  0
    1.7640  -21.6710  -42.4540 H   0  0  0  0  0  0  0  0  0  0  0  0
    5.1690  -21.0010  -40.5210 C   0  0  0  0  0  0  0  0  0  0  0  0
    6.2680  -21.9290  -40.9430 C   0  0  0  0  0  0  0  0  0  0  0  0
    6.8640  -22.2050  -40.0730 H   0  0  0  0  0  0  0  0  0  0  0  0
    6.9020  -21.4310  -41.6760 H   0  0  0  0  0  0  0  0  0  0  0  0
    5.8350  -22.8260  -41.3860 H   0  0  0  0  0  0  0  0  0  0  0  0
    7.8000  -17.9540  -43.5370 S   0  0  0  0  0  0  0  0  0  0  0  0
  1  2  1  0  0  0  0
  1 28  1  0  0  0  0
  2  3  2  0  0  0  0
  4  5  1  0  0  0  0
  4  1  1  0  0  0  0
  6  4  1  0  0  0  0
  7 15  1  0  0  0  0
  7 12  1  0  0  0  0
  8 46  2  0  0  0  0
 10  4  1  0  0  0  0
 10 12  2  0  0  0  0
 11 14  2  0  0  0  0
 11  7  1  0  0  0  0
 12 13  1  0  0  0  0
 14 10  1  0  0  0  0
 15 19  1  0  0  0  0
 15 16  1  0  0  0  0
 17 15  1  0  0  0  0
 18 60  1  0  0  0  0
 19 21  1  0  0  0  0
 19 23  1  0  0  0  0
 20 19  1  0  0  0  0
 22 53  1  0  0  0  0
 22 27  1  0  0  0  0
 23 25  1  0  0  0  0
 23 26  1  0  0  0  0
 24 23  1  0  0  0  0
 28 30  1  0  0  0  0
 28 31  1  0  0  0  0
 28 29  1  0  0  0  0
 32 27  2  0  0  0  0
 33  9  1  0  0  0  0
 33  2  1  0  0  0  0
 34 33  2  0  0  0  0
 35 34  1  0  0  0  0
 36 73  2  0  0  0  0
 36 34  1  0  0  0  0
 37 36  1  0  0  0  0
 38 37  2  0  0  0  0
 39 38  1  0  0  0  0
 39 40  2  0  0  0  0
 40 41  1  0  0  0  0
 41 42  1  0  0  0  0
 41 44  1  0  0  0  0
 43 41  1  0  0  0  0
 45 78  1  0  0  0  0
 46 45  1  0  0  0  0
 46 18  1  0  0  0  0
 47 18  1  0  0  0  0
 47 49  1  0  0  0  0
 47 50  1  0  0  0  0
 48 47  1  0  0  0  0
 50 32  1  0  0  0  0
 51 50  2  0  0  0  0
 51 22  1  0  0  0  0
 52 51  1  0  0  0  0
 53 55  1  0  0  0  0
 53 56  1  0  0  0  0
 54 53  1  0  0  0  0
 56 58  1  0  0  0  0
 57 56  1  0  0  0  0
 59 56  1  0  0  0  0
 60 61  1  0  0  0  0
 60 63  1  0  0  0  0
 60 62  1  0  0  0  0
 64 45  2  0  0  0  0
 64 39  1  0  0  0  0
 65 64  1  0  0  0  0
 66 68  1  0  0  0  0
 66 38  1  0  0  0  0
 67 66  1  0  0  0  0
 68 71  1  0  0  0  0
 69 68  1  0  0  0  0
 70 68  1  0  0  0  0
 71 37  1  0  0  0  0
 71 72  1  0  0  0  0
 73  9  1  0  0  0  0
 74 73  1  0  0  0  0
 74 75  1  0  0  0  0
 76 74  1  0  0  0  0
 77 74  1  0  0  0  0
 78 40  1  0  0  0  0
M  END
>  <Pose>
1

>  <Score>
-5.15

$$$$

 OpenBabel03092210503D

 78 82  0  0  0  0  0  0  0  0999 V2000
   -0.4750  -24.8780  -41.3200 N   0  0  0  0  0  0  0  0  0  0  0  0
    0.0340  -23.6110  -41.7830 C   0  0  0  0  0  0  0  0  0  0  0  0
   -0.6960  -22.6200  -41.8640 O   0  0  0  0  0  0  0  0  0  0  0  0
    0.3470  -26.0780  -41.2270 C   0  0  0  0  0  0  0  0  0  0  0  0
    1.2010  -25.8670  -40.5830 H   0  0  0  0  0  0  0  0  0  0  0  0
    0.7000  -26.3380  -42.2250 H   0  0  0  0  0  0  0  0  0  0  0  0
   -1.7060  -28.9100  -40.2940 N   0  0  0  0  0  0  0  0  0  0  0  0
    1.4380  -18.9590  -37.3450 O   0  0  0  0  0  0  0  0  0  0  0  0
    2.1650  -24.8540  -42.8150 S   0  0  0  0  0  0  0  0  0  0  0  0
   -0.4040  -27.2450  -40.6630 C   0  0  0  0  0  0  0  0  0  0  0  0
   -1.2610  -28.4870  -39.0980 N   0  0  0  0  0  0  0  0  0  0  0  0
   -1.1850  -28.1730  -41.2850 C   0  0  0  0  0  0  0  0  0  0  0  0
   -1.3490  -28.2890  -42.3460 H   0  0  0  0  0  0  0  0  0  0  0  0
   -0.4650  -27.4720  -39.3260 N   0  0  0  0  0  0  0  0  0  0  0  0
   -2.6550  -30.0180  -40.3940 C   0  0  0  0  0  0  0  0  0  0  0  0
   -2.6430  -30.4090  -41.4120 H   0  0  0  0  0  0  0  0  0  0  0  0
   -3.6550  -29.6560  -40.1550 H   0  0  0  0  0  0  0  0  0  0  0  0
    0.7890  -17.9980  -39.3540 N   0  0  0  0  0  0  0  0  0  0  0  0
   -2.2820  -31.1320  -39.4270 C   0  0  0  0  0  0  0  0  0  0  0  0
   -1.2000  -31.1440  -39.2980 H   0  0  0  0  0  0  0  0  0  0  0  0
   -2.6090  -32.0860  -39.8410 H   0  0  0  0  0  0  0  0  0  0  0  0
   -2.8560  -19.7940  -38.3380 N   0  0  0  0  0  0  0  0  0  0  0  0
   -2.9300  -30.9310  -38.0960 C   0  0  0  0  0  0  0  0  0  0  0  0
   -2.6070  -29.9780  -37.6760 H   0  0  0  0  0  0  0  0  0  0  0  0
   -2.6410  -31.7400  -37.4250 H   0  0  0  0  0  0  0  0  0  0  0  0
   -4.0130  -30.9270  -38.2160 H   0  0  0  0  0  0  0  0  0  0  0  0
   -2.6760  -19.4060  -37.0650 N   0  0  0  0  0  0  0  0  0  0  0  0
   -1.8700  -25.0120  -40.9190 C   0  0  0  0  0  0  0  0  0  0  0  0
   -2.3750  -24.0520  -41.0330 H   0  0  0  0  0  0  0  0  0  0  0  0
   -1.9200  -25.3260  -39.8760 H   0  0  0  0  0  0  0  0  0  0  0  0
   -2.3600  -25.7560  -41.5460 H   0  0  0  0  0  0  0  0  0  0  0  0
   -1.7450  -18.4870  -37.0730 N   0  0  0  0  0  0  0  0  0  0  0  0
    1.4730  -23.4430  -42.1060 C   0  0  0  0  0  0  0  0  0  0  0  0
    2.4030  -22.4530  -41.9690 C   0  0  0  0  0  0  0  0  0  0  0  0
    2.1870  -21.4900  -41.5300 H   0  0  0  0  0  0  0  0  0  0  0  0
    3.6950  -22.8220  -42.4670 C   0  0  0  0  0  0  0  0  0  0  0  0
    4.7710  -21.8290  -42.6160 C   0  0  0  0  0  0  0  0  0  0  0  0
    5.0920  -20.8490  -41.7540 C   0  0  0  0  0  0  0  0  0  0  0  0
    4.4310  -20.5250  -40.4810 C   0  0  0  0  0  0  0  0  0  0  0  0
    4.9330  -20.7960  -39.2280 C   0  0  0  0  0  0  0  0  0  0  0  0
    6.1960  -21.4980  -38.8230 C   0  0  0  0  0  0  0  0  0  0  0  0
    6.7410  -21.8100  -39.7140 H   0  0  0  0  0  0  0  0  0  0  0  0
    5.9480  -22.3740  -38.2230 H   0  0  0  0  0  0  0  0  0  0  0  0
    6.8160  -20.8210  -38.2360 H   0  0  0  0  0  0  0  0  0  0  0  0
    2.7600  -19.5720  -39.1580 C   0  0  0  0  0  0  0  0  0  0  0  0
    1.6240  -18.8400  -38.5540 C   0  0  0  0  0  0  0  0  0  0  0  0
   -0.2760  -17.2740  -38.6760 C   0  0  0  0  0  0  0  0  0  0  0  0
   -0.6870  -16.5050  -39.3310 H   0  0  0  0  0  0  0  0  0  0  0  0
    0.1020  -16.8110  -37.7650 H   0  0  0  0  0  0  0  0  0  0  0  0
   -1.3230  -18.2920  -38.3480 C   0  0  0  0  0  0  0  0  0  0  0  0
   -2.0430  -19.1160  -39.1620 C   0  0  0  0  0  0  0  0  0  0  0  0
   -1.9730  -19.2040  -40.2360 H   0  0  0  0  0  0  0  0  0  0  0  0
   -3.8000  -20.8540  -38.7030 C   0  0  0  0  0  0  0  0  0  0  0  0
   -4.4530  -20.4850  -39.4930 H   0  0  0  0  0  0  0  0  0  0  0  0
   -4.3970  -21.1090  -37.8270 H   0  0  0  0  0  0  0  0  0  0  0  0
   -3.0990  -22.0980  -39.1920 C   0  0  0  0  0  0  0  0  0  0  0  0
   -3.8400  -22.8550  -39.4500 H   0  0  0  0  0  0  0  0  0  0  0  0
   -2.4480  -22.4810  -38.4070 H   0  0  0  0  0  0  0  0  0  0  0  0
   -2.5040  -21.8570  -40.0730 H   0  0  0  0  0  0  0  0  0  0  0  0
    0.8440  -17.8760  -40.8060 C   0  0  0  0  0  0  0  0  0  0  0  0
    1.6800  -18.4620  -41.1890 H   0  0  0  0  0  0  0  0  0  0  0  0
    0.9800  -16.8290  -41.0780 H   0  0  0  0  0  0  0  0  0  0  0  0
   -0.0860  -18.2460  -41.2380 H   0  0  0  0  0  0  0  0  0  0  0  0
    3.1870  -19.8230  -40.4350 C   0  0  0  0  0  0  0  0  0  0  0  0
    2.6400  -19.5220  -41.3160 H   0  0  0  0  0  0  0  0  0  0  0  0
    6.2960  -20.0710  -42.2230 C   0  0  0  0  0  0  0  0  0  0  0  0
    6.7010  -19.1580  -41.8130 H   0  0  0  0  0  0  0  0  0  0  0  0
    6.8090  -20.8750  -43.4150 C   0  0  0  0  0  0  0  0  0  0  0  0
    7.7090  -21.4240  -43.1370 H   0  0  0  0  0  0  0  0  0  0  0  0
    7.0320  -20.2090  -44.2480 H   0  0  0  0  0  0  0  0  0  0  0  0
    5.7020  -21.8470  -43.8030 C   0  0  0  0  0  0  0  0  0  0  0  0
    5.6060  -22.4160  -44.7160 H   0  0  0  0  0  0  0  0  0  0  0  0
    3.7260  -24.1110  -42.9440 C   0  0  0  0  0  0  0  0  0  0  0  0
    4.8520  -24.8920  -43.5500 C   0  0  0  0  0  0  0  0  0  0  0  0
    4.5020  -25.8900  -43.8120 H   0  0  0  0  0  0  0  0  0  0  0  0
    5.6680  -24.9700  -42.8320 H   0  0  0  0  0  0  0  0  0  0  0  0
    5.2050  -24.3840  -44.4470 H   0  0  0  0  0  0  0  0  0  0  0  0
    3.8720  -20.1930  -37.9930 S   0  0  0  0  0  0  0  0  0  0  0  0
  1  4  1  0  0  0  0
  1 28  1  0  0  0  0
  2  1  1  0  0  0  0
  3  2  2  0  0  0  0
  4 10  1  0  0  0  0
  4  5  1  0  0  0  0
  6  4  1  0  0  0  0
  7 11  1  0  0  0  0
  9 33  1  0  0  0  0
 10 14  1  0  0  0  0
 12 10  2  0  0  0  0
 12  7  1  0  0  0  0
 13 12  1  0  0  0  0
 14 11  2  0  0  0  0
 15  7  1  0  0  0  0
 15 17  1  0  0  0  0
 15 19  1  0  0  0  0
 16 15  1  0  0  0  0
 18 47  1  0  0  0  0
 18 46  1  0  0  0  0
 19 20  1  0  0  0  0
 19 23  1  0  0  0  0
 21 19  1  0  0  0  0
 22 27  1  0  0  0  0
 23 24  1  0  0  0  0
 23 25  1  0  0  0  0
 26 23  1  0  0  0  0
 28 30  1  0  0  0  0
 29 28  1  0  0  0  0
 31 28  1  0  0  0  0
 32 27  2  0  0  0  0
 33 34  2  0  0  0  0
 33  2  1  0  0  0  0
 34 35  1  0  0  0  0
 36 34  1  0  0  0  0
 37 36  1  0  0  0  0
 37 38  2  0  0  0  0
 38 39  1  0  0  0  0
 39 64  1  0  0  0  0
 39 40  2  0  0  0  0
 40 41  1  0  0  0  0
 40 78  1  0  0  0  0
 41 44  1  0  0  0  0
 41 43  1  0  0  0  0
 42 41  1  0  0  0  0
 45 46  1  0  0  0  0
 45 78  1  0  0  0  0
 46  8  2  0  0  0  0
 47 50  1  0  0  0  0
 47 49  1  0  0  0  0
 48 47  1  0  0  0  0
 50 32  1  0  0  0  0
 51 50  2  0  0  0  0
 51 22  1  0  0  0  0
 52 51  1  0  0  0  0
 53 22  1  0  0  0  0
 53 55  1  0  0  0  0
 54 53  1  0  0  0  0
 56 53  1  0  0  0  0
 56 58  1  0  0  0  0
 57 56  1  0  0  0  0
 59 56  1  0  0  0  0
 60 18  1  0  0  0  0
 61 60  1  0  0  0  0
 62 60  1  0  0  0  0
 63 60  1  0  0  0  0
 64 45  2  0  0  0  0
 65 64  1  0  0  0  0
 66 67  1  0  0  0  0
 66 38  1  0  0  0  0
 68 69  1  0  0  0  0
 68 66  1  0  0  0  0
 70 68  1  0  0  0  0
 71 68  1  0  0  0  0
 71 37  1  0  0  0  0
 72 71  1  0  0  0  0
 73  9  1  0  0  0  0
 73 36  2  0  0  0  0
 74 73  1  0  0  0  0
 74 76  1  0  0  0  0
 75 74  1  0  0  0  0
 77 74  1  0  0  0  0
M  END
>  <Pose>
1

>  <Score>
-4.97

$$$$

 OpenBabel03092210503D

 78 83  0  0  1  0  0  0  0  0999 V2000
    2.4660  -12.6880  -39.6490 N   0  0  0  0  0  0  0  0  0  0  0  0
    1.7410  -13.8380  -40.1260 C   0  0  0  0  0  0  0  0  0  0  0  0
    1.4520  -13.9620  -41.3190 O   0  0  0  0  0  0  0  0  0  0  0  0
    2.8120  -12.4920  -38.2470 C   0  0  0  0  0  0  0  0  0  0  0  0
    3.4280  -11.5970  -38.1600 H   0  0  0  0  0  0  0  0  0  0  0  0
    3.3790  -13.3570  -37.9030 H   0  0  0  0  0  0  0  0  0  0  0  0
   -0.1750  -11.6740  -36.3730 N   0  0  0  0  0  0  0  0  0  0  0  0
    5.6090  -21.7400  -40.3730 O   0  0  0  0  0  0  0  0  0  0  0  0
    1.6810  -14.5600  -37.5520 S   0  0  2  0  0  0  0  0  0  0  0  0
    1.6050  -12.3320  -37.3750 C   0  0  0  0  0  0  0  0  0  0  0  0
    0.3770  -12.6310  -35.6070 N   0  0  0  0  0  0  0  0  0  0  0  0
    0.5500  -11.4730  -37.4810 C   0  0  0  0  0  0  0  0  0  0  0  0
    0.3440  -10.7810  -38.2850 H   0  0  0  0  0  0  0  0  0  0  0  0
    1.4620  -13.0320  -36.2220 N   0  0  0  0  0  0  0  0  0  0  0  0
   -1.3930  -10.9830  -35.9510 C   0  0  0  0  0  0  0  0  0  0  0  0
   -2.0200  -10.7990  -36.8230 H   0  0  0  0  0  0  0  0  0  0  0  0
   -1.1230  -10.0330  -35.4900 H   0  0  0  0  0  0  0  0  0  0  0  0
    3.7930  -22.5990  -41.5340 N   0  0  0  0  0  0  0  0  0  0  0  0
   -2.1670  -11.8240  -34.9460 C   0  0  0  0  0  0  0  0  0  0  0  0
   -1.4720  -12.4780  -34.4190 H   0  0  0  0  0  0  0  0  0  0  0  0
   -2.9010  -12.4280  -35.4790 H   0  0  0  0  0  0  0  0  0  0  0  0
    2.4990  -25.4090  -44.4440 N   0  0  0  0  0  0  0  0  0  0  0  0
   -2.8750  -10.9620  -33.9520 C   0  0  0  0  0  0  0  0  0  0  0  0
   -2.1460  -10.3540  -33.4150 H   0  0  0  0  0  0  0  0  0  0  0  0
   -3.4150  -11.5910  -33.2450 H   0  0  0  0  0  0  0  0  0  0  0  0
   -3.5780  -10.3110  -34.4710 H   0  0  0  0  0  0  0  0  0  0  0  0
    2.9580  -24.4740  -45.2900 N   0  0  0  0  0  0  0  0  0  0  0  0
    2.8910  -11.6450  -40.5760 C   0  0  0  0  0  0  0  0  0  0  0  0
    2.5750  -11.9070  -41.5860 H   0  0  0  0  0  0  0  0  0  0  0  0
    3.9770  -11.5540  -40.5480 H   0  0  0  0  0  0  0  0  0  0  0  0
    2.4390  -10.6960  -40.2880 H   0  0  0  0  0  0  0  0  0  0  0  0
    3.7630  -23.7010  -44.6070 N   0  0  0  0  0  0  0  0  0  0  0  0
    1.3850  -14.9480  -39.2050 C   0  0  0  0  0  0  0  0  0  0  0  0
    0.8950  -16.2150  -39.3350 C   0  0  0  0  0  0  0  0  0  0  0  0
    0.6580  -16.6680  -40.2870 H   0  0  0  0  0  0  0  0  0  0  0  0
    0.7270  -16.8840  -38.0780 C   0  0  0  0  0  0  0  0  0  0  0  0
    0.0070  -18.1640  -37.9830 C   0  0  0  0  0  0  0  0  0  0  0  0
    0.5210  -19.3950  -38.1500 C   0  0  0  0  0  0  0  0  0  0  0  0
    1.9060  -19.7480  -38.4900 C   0  0  0  0  0  0  0  0  0  0  0  0
    3.0280  -19.3280  -37.8110 C   0  0  0  0  0  0  0  0  0  0  0  0
    3.1580  -18.4090  -36.6320 C   0  0  0  0  0  0  0  0  0  0  0  0
    2.1700  -18.0650  -36.3290 H   0  0  0  0  0  0  0  0  0  0  0  0
    3.7730  -17.5520  -36.9060 H   0  0  0  0  0  0  0  0  0  0  0  0
    3.6270  -18.9430  -35.8050 H   0  0  0  0  0  0  0  0  0  0  0  0
    3.5570  -20.8810  -39.6910 C   0  0  0  0  0  0  0  0  0  0  0  0
    4.3920  -21.7510  -40.5490 C   0  0  0  0  0  0  0  0  0  0  0  0
    4.6770  -23.4610  -42.3030 C   0  0  0  0  0  0  0  0  0  0  0  0
    5.1440  -24.2010  -41.6530 H   0  0  0  0  0  0  0  0  0  0  0  0
    5.4500  -22.8690  -42.7940 H   0  0  0  0  0  0  0  0  0  0  0  0
    3.8120  -24.1350  -43.3220 C   0  0  0  0  0  0  0  0  0  0  0  0
    3.0160  -25.2370  -43.2170 C   0  0  0  0  0  0  0  0  0  0  0  0
    2.8400  -25.8400  -42.3390 H   0  0  0  0  0  0  0  0  0  0  0  0
    1.5280  -26.4250  -44.8580 C   0  0  0  0  0  0  0  0  0  0  0  0
    2.0120  -27.4010  -44.8410 H   0  0  0  0  0  0  0  0  0  0  0  0
    1.1970  -26.2010  -45.8730 H   0  0  0  0  0  0  0  0  0  0  0  0
    0.3210  -26.4660  -43.9530 C   0  0  0  0  0  0  0  0  0  0  0  0
   -0.3690  -27.2340  -44.3010 H   0  0  0  0  0  0  0  0  0  0  0  0
   -0.1770  -25.4960  -43.9670 H   0  0  0  0  0  0  0  0  0  0  0  0
    0.6380  -26.6960  -42.9350 H   0  0  0  0  0  0  0  0  0  0  0  0
    2.3820  -22.6060  -41.9070 C   0  0  0  0  0  0  0  0  0  0  0  0
    1.8320  -21.9230  -41.2590 H   0  0  0  0  0  0  0  0  0  0  0  0
    1.9820  -23.6140  -41.7960 H   0  0  0  0  0  0  0  0  0  0  0  0
    2.2790  -22.2860  -42.9440 H   0  0  0  0  0  0  0  0  0  0  0  0
    2.2150  -20.6370  -39.5650 C   0  0  0  0  0  0  0  0  0  0  0  0
    1.4680  -21.0730  -40.2110 H   0  0  0  0  0  0  0  0  0  0  0  0
   -0.5160  -20.4650  -37.9100 C   0  0  0  0  0  0  0  0  0  0  0  0
   -0.4340  -21.5250  -38.0940 H   0  0  0  0  0  0  0  0  0  0  0  0
   -1.7090  -19.6970  -37.3450 C   0  0  0  0  0  0  0  0  0  0  0  0
   -1.7910  -19.8690  -36.2720 H   0  0  0  0  0  0  0  0  0  0  0  0
   -2.6270  -20.0190  -37.8360 H   0  0  0  0  0  0  0  0  0  0  0  0
   -1.4570  -18.2210  -37.6220 C   0  0  0  0  0  0  0  0  0  0  0  0
   -2.1620  -17.4040  -37.5710 H   0  0  0  0  0  0  0  0  0  0  0  0
    1.1310  -16.1130  -37.0150 C   0  0  2  0  0  0  0  0  0  0  0  0
    1.1270  -16.4120  -35.5460 C   0  0  0  0  0  0  0  0  0  0  0  0
    1.5240  -15.5560  -35.0000 H   0  0  0  0  0  0  0  0  0  0  0  0
    1.7460  -17.2870  -35.3510 H   0  0  0  0  0  0  0  0  0  0  0  0
    0.1060  -16.6100  -35.2190 H   0  0  0  0  0  0  0  0  0  0  0  0
    4.4630  -20.0230  -38.4990 S   0  0  0  0  0  0  0  0  0  0  0  0
  1  4  1  0  0  0  0
  2  1  1  0  0  0  0
  2 33  1  0  0  0  0
  3  2  2  0  0  0  0
  4  5  1  0  0  0  0
  4  6  1  0  0  0  0
  4 10  1  0  0  0  0
  7 15  1  0  0  0  0
  7 11  1  0  0  0  0
  9 33  2  6  0  0  0
  9 73  1  0  0  0  0
  9 14  1  0  0  0  0
 10 14  1  0  0  0  0
 12 10  2  0  0  0  0
 12  7  1  0  0  0  0
 13 12  1  0  0  0  0
 14 11  1  0  0  0  0
 15 17  1  0  0  0  0
 15 19  1  0  0  0  0
 16 15  1  0  0  0  0
 18 46  1  0  0  0  0
 19 20  1  0  0  0  0
 19 23  1  0  0  0  0
 21 19  1  0  0  0  0
 22 51  1  0  0  0  0
 23 24  1  0  0  0  0
 23 25  1  0  0  0  0
 26 23  1  0  0  0  0
 27 32  2  0  0  0  0
 27 22  1  0  0  0  0
 28 30  1  0  0  0  0
 28 31  1  0  0  0  0
 28  1  1  0  0  0  0
 29 28  1  0  0  0  0
 32 50  1  0  0  0  0
 34 33  1  0  0  0  0
 34 36  2  0  0  0  0
 35 34  1  0  0  0  0
 36 37  1  0  0  0  0
 36 73  1  0  0  0  0
 37 71  1  0  0  0  0
 38 37  2  0  0  0  0
 38 66  1  0  0  0  0
 39 38  1  0  0  0  0
 39 40  2  0  0  0  0
 40 41  1  0  0  0  0
 41 42  1  0  0  0  0
 41 44  1  0  0  0  0
 43 41  1  0  0  0  0
 45 64  2  0  0  0  0
 45 78  1  0  0  0  0
 46  8  2  0  0  0  0
 46 45  1  0  0  0  0
 47 48  1  0  0  0  0
 47 18  1  0  0  0  0
 49 47  1  0  0  0  0
 50 51  2  0  0  0  0
 50 47  1  0  0  0  0
 51 52  1  0  0  0  0
 53 54  1  0  0  0  0
 53 22  1  0  0  0  0
 53 56  1  0  0  0  0
 55 53  1  0  0  0  0
 56 59  1  0  0  0  0
 57 56  1  0  0  0  0
 58 56  1  0  0  0  0
 60 62  1  0  0  0  0
 60 18  1  0  0  0  0
 60 61  1  0  0  0  0
 63 60  1  0  0  0  0
 64 39  1  0  0  0  0
 65 64  1  0  0  0  0
 66 68  1  0  0  0  0
 67 66  1  0  0  0  0
 68 69  1  0  0  0  0
 70 68  1  0  0  0  0
 71 72  1  0  0  0  0
 71 68  1  0  0  0  0
 73 74  1  1  0  0  0
 74 76  1  0  0  0  0
 74 77  1  0  0  0  0
 74 75  1  0  0  0  0
 78 40  1  0  0  0  0
M  END
>  <Pose>
1

>  <Score>
-4.87

$$$$

 OpenBabel03092210503D

 78 82  0  0  0  0  0  0  0  0999 V2000
    6.7490  -27.1950  -44.9060 N   0  0  0  0  0  0  0  0  0  0  0  0
    6.3540  -26.0670  -44.1010 C   0  0  0  0  0  0  0  0  0  0  0  0
    5.7310  -26.2190  -43.0470 O   0  0  0  0  0  0  0  0  0  0  0  0
    7.4690  -27.0600  -46.1650 C   0  0  0  0  0  0  0  0  0  0  0  0
    6.9580  -26.3210  -46.7820 H   0  0  0  0  0  0  0  0  0  0  0  0
    7.4660  -28.0230  -46.6750 H   0  0  0  0  0  0  0  0  0  0  0  0
   10.8660  -26.2090  -45.2450 N   0  0  0  0  0  0  0  0  0  0  0  0
    3.8190  -21.3330  -41.1860 O   0  0  0  0  0  0  0  0  0  0  0  0
    5.4610  -23.7910  -45.1850 S   0  0  0  0  0  0  0  0  0  0  0  0
    8.8880  -26.6230  -45.9700 C   0  0  0  0  0  0  0  0  0  0  0  0
   10.6500  -25.3910  -46.2900 N   0  0  0  0  0  0  0  0  0  0  0  0
    9.8020  -26.9950  -45.0270 C   0  0  0  0  0  0  0  0  0  0  0  0
    9.6920  -27.7570  -44.2700 H   0  0  0  0  0  0  0  0  0  0  0  0
    9.4430  -25.6470  -46.7320 N   0  0  0  0  0  0  0  0  0  0  0  0
   12.1170  -26.1520  -44.4920 C   0  0  0  0  0  0  0  0  0  0  0  0
   12.8820  -25.6730  -45.1040 H   0  0  0  0  0  0  0  0  0  0  0  0
   12.4320  -27.1660  -44.2450 H   0  0  0  0  0  0  0  0  0  0  0  0
    4.8210  -20.2770  -39.3800 N   0  0  0  0  0  0  0  0  0  0  0  0
   11.9350  -25.3580  -43.2070 C   0  0  0  0  0  0  0  0  0  0  0  0
   11.4940  -24.3900  -43.4460 H   0  0  0  0  0  0  0  0  0  0  0  0
   12.9090  -25.2070  -42.7410 H   0  0  0  0  0  0  0  0  0  0  0  0
    2.3220  -17.7610  -37.0920 N   0  0  0  0  0  0  0  0  0  0  0  0
   11.0420  -26.0780  -42.2490 C   0  0  0  0  0  0  0  0  0  0  0  0
   10.0660  -26.2320  -42.7090 H   0  0  0  0  0  0  0  0  0  0  0  0
   10.9280  -25.4840  -41.3430 H   0  0  0  0  0  0  0  0  0  0  0  0
   11.4820  -27.0430  -41.9980 H   0  0  0  0  0  0  0  0  0  0  0  0
    3.1280  -18.1710  -36.1000 N   0  0  0  0  0  0  0  0  0  0  0  0
    6.4310  -28.5540  -44.4800 C   0  0  0  0  0  0  0  0  0  0  0  0
    5.8960  -28.5210  -43.5310 H   0  0  0  0  0  0  0  0  0  0  0  0
    7.3530  -29.1210  -44.3580 H   0  0  0  0  0  0  0  0  0  0  0  0
    5.8060  -29.0340  -45.2330 H   0  0  0  0  0  0  0  0  0  0  0  0
    3.7070  -19.2710  -36.5070 N   0  0  0  0  0  0  0  0  0  0  0  0
    6.7540  -24.6870  -44.4780 C   0  0  0  0  0  0  0  0  0  0  0  0
    7.8980  -23.9450  -44.4240 C   0  0  0  0  0  0  0  0  0  0  0  0
    8.8330  -24.3190  -44.0350 H   0  0  0  0  0  0  0  0  0  0  0  0
    7.7300  -22.6170  -44.9370 C   0  0  0  0  0  0  0  0  0  0  0  0
    8.7740  -21.5930  -44.7650 C   0  0  0  0  0  0  0  0  0  0  0  0
    8.6920  -20.4720  -44.0270 C   0  0  0  0  0  0  0  0  0  0  0  0
    7.5410  -19.9960  -43.2480 C   0  0  0  0  0  0  0  0  0  0  0  0
    6.9530  -18.7570  -43.3660 C   0  0  0  0  0  0  0  0  0  0  0  0
    7.3200  -17.5890  -44.2340 C   0  0  0  0  0  0  0  0  0  0  0  0
    8.1970  -17.8420  -44.8300 H   0  0  0  0  0  0  0  0  0  0  0  0
    7.5440  -16.7260  -43.6070 H   0  0  0  0  0  0  0  0  0  0  0  0
    6.4870  -17.3520  -44.8950 H   0  0  0  0  0  0  0  0  0  0  0  0
    5.7960  -20.2260  -41.7140 C   0  0  0  0  0  0  0  0  0  0  0  0
    4.7430  -20.6440  -40.7600 C   0  0  0  0  0  0  0  0  0  0  0  0
    3.7740  -20.7680  -38.4970 C   0  0  0  0  0  0  0  0  0  0  0  0
    4.1800  -21.5010  -37.7990 H   0  0  0  0  0  0  0  0  0  0  0  0
    2.9720  -21.2230  -39.0770 H   0  0  0  0  0  0  0  0  0  0  0  0
    3.2650  -19.5710  -37.7550 C   0  0  0  0  0  0  0  0  0  0  0  0
    2.3910  -18.5980  -38.1380 C   0  0  0  0  0  0  0  0  0  0  0  0
    1.8670  -18.5190  -39.0800 H   0  0  0  0  0  0  0  0  0  0  0  0
    1.4730  -16.5730  -36.9650 C   0  0  0  0  0  0  0  0  0  0  0  0
    1.2380  -16.2020  -37.9620 H   0  0  0  0  0  0  0  0  0  0  0  0
    2.0200  -15.8090  -36.4120 H   0  0  0  0  0  0  0  0  0  0  0  0
    0.1830  -16.8680  -36.2390 C   0  0  0  0  0  0  0  0  0  0  0  0
   -0.4120  -15.9570  -36.1700 H   0  0  0  0  0  0  0  0  0  0  0  0
    0.4050  -17.2330  -35.2360 H   0  0  0  0  0  0  0  0  0  0  0  0
   -0.3770  -17.6270  -36.7860 H   0  0  0  0  0  0  0  0  0  0  0  0
    5.8020  -19.3700  -38.7930 C   0  0  0  0  0  0  0  0  0  0  0  0
    6.5260  -19.0770  -39.5530 H   0  0  0  0  0  0  0  0  0  0  0  0
    6.3170  -19.8730  -37.9750 H   0  0  0  0  0  0  0  0  0  0  0  0
    5.2950  -18.4830  -38.4130 H   0  0  0  0  0  0  0  0  0  0  0  0
    6.8740  -20.8330  -42.3010 C   0  0  0  0  0  0  0  0  0  0  0  0
    7.1880  -21.8410  -42.0720 H   0  0  0  0  0  0  0  0  0  0  0  0
    9.9900  -19.7030  -44.0450 C   0  0  0  0  0  0  0  0  0  0  0  0
   10.1830  -18.7130  -43.6580 H   0  0  0  0  0  0  0  0  0  0  0  0
   10.9670  -20.6490  -44.7370 C   0  0  0  0  0  0  0  0  0  0  0  0
   11.6440  -21.0900  -44.0050 H   0  0  0  0  0  0  0  0  0  0  0  0
   11.5450  -20.1090  -45.4870 H   0  0  0  0  0  0  0  0  0  0  0  0
   10.1340  -21.7380  -45.4020 C   0  0  0  0  0  0  0  0  0  0  0  0
   10.4440  -22.4480  -46.1540 H   0  0  0  0  0  0  0  0  0  0  0  0
    6.4580  -22.3910  -45.4060 C   0  0  0  0  0  0  0  0  0  0  0  0
    5.8550  -21.1610  -46.0130 C   0  0  0  0  0  0  0  0  0  0  0  0
    4.8130  -21.3540  -46.2680 H   0  0  0  0  0  0  0  0  0  0  0  0
    6.4060  -20.8930  -46.9150 H   0  0  0  0  0  0  0  0  0  0  0  0
    5.9080  -20.3390  -45.2990 H   0  0  0  0  0  0  0  0  0  0  0  0
    5.5820  -18.6200  -42.3080 S   0  0  0  0  0  0  0  0  0  0  0  0
  1 28  1  0  0  0  0
  1  2  1  0  0  0  0
  2  3  2  0  0  0  0
  4 10  1  0  0  0  0
  4  1  1  0  0  0  0
  5  4  1  0  0  0  0
  6  4  1  0  0  0  0
  7 12  1  0  0  0  0
  7 15  1  0  0  0  0
  8 46  2  0  0  0  0
  9 33  1  0  0  0  0
 10 12  2  0  0  0  0
 11  7  1  0  0  0  0
 12 13  1  0  0  0  0
 14 11  2  0  0  0  0
 14 10  1  0  0  0  0
 15 17  1  0  0  0  0
 15 19  1  0  0  0  0
 16 15  1  0  0  0  0
 18 60  1  0  0  0  0
 18 47  1  0  0  0  0
 19 21  1  0  0  0  0
 19 23  1  0  0  0  0
 20 19  1  0  0  0  0
 22 53  1  0  0  0  0
 22 27  1  0  0  0  0
 23 26  1  0  0  0  0
 23 25  1  0  0  0  0
 24 23  1  0  0  0  0
 28 30  1  0  0  0  0
 28 29  1  0  0  0  0
 31 28  1  0  0  0  0
 32 27  2  0  0  0  0
 33 34  2  0  0  0  0
 33  2  1  0  0  0  0
 34 35  1  0  0  0  0
 36 37  1  0  0  0  0
 36 34  1  0  0  0  0
 37 38  2  0  0  0  0
 38 39  1  0  0  0  0
 39 64  1  0  0  0  0
 40 39  2  0  0  0  0
 40 78  1  0  0  0  0
 41 43  1  0  0  0  0
 41 40  1  0  0  0  0
 42 41  1  0  0  0  0
 44 41  1  0  0  0  0
 45 46  1  0  0  0  0
 46 18  1  0  0  0  0
 47 48  1  0  0  0  0
 47 50  1  0  0  0  0
 49 47  1  0  0  0  0
 50 32  1  0  0  0  0
 51 50  2  0  0  0  0
 51 22  1  0  0  0  0
 52 51  1  0  0  0  0
 53 55  1  0  0  0  0
 53 56  1  0  0  0  0
 54 53  1  0  0  0  0
 56 57  1  0  0  0  0
 56 58  1  0  0  0  0
 59 56  1  0  0  0  0
 60 63  1  0  0  0  0
 60 62  1  0  0  0  0
 61 60  1  0  0  0  0
 64 65  1  0  0  0  0
 64 45  2  0  0  0  0
 66 38  1  0  0  0  0
 66 67  1  0  0  0  0
 68 66  1  0  0  0  0
 68 69  1  0  0  0  0
 70 68  1  0  0  0  0
 71 37  1  0  0  0  0
 71 68  1  0  0  0  0
 72 71  1  0  0  0  0
 73  9  1  0  0  0  0
 73 36  2  0  0  0  0
 74 73  1  0  0  0  0
 74 77  1  0  0  0  0
 75 74  1  0  0  0  0
 76 74  1  0  0  0  0
 78 45  1  0  0  0  0
M  END
>  <Pose>
1

>  <Score>
-4.77

$$$$

 OpenBabel03092210503D

 78 82  0  0  0  0  0  0  0  0999 V2000
    8.9680  -17.5210  -44.2750 N   0  0  0  0  0  0  0  0  0  0  0  0
    8.6030  -18.7360  -43.5910 C   0  0  0  0  0  0  0  0  0  0  0  0
    9.4600  -19.4720  -43.0940 O   0  0  0  0  0  0  0  0  0  0  0  0
    7.9910  -16.6330  -44.8920 C   0  0  0  0  0  0  0  0  0  0  0  0
    7.0060  -17.0950  -44.8230 H   0  0  0  0  0  0  0  0  0  0  0  0
    8.2560  -16.4970  -45.9410 H   0  0  0  0  0  0  0  0  0  0  0  0
    8.3120  -13.4950  -43.1150 N   0  0  0  0  0  0  0  0  0  0  0  0
    2.8680  -18.1750  -36.4300 O   0  0  0  0  0  0  0  0  0  0  0  0
    6.0970  -17.8690  -43.9360 S   0  0  0  0  0  0  0  0  0  0  0  0
    7.9390  -15.2890  -44.2320 C   0  0  0  0  0  0  0  0  0  0  0  0
    6.9890  -13.5440  -43.3520 N   0  0  0  0  0  0  0  0  0  0  0  0
    8.9320  -14.5520  -43.6570 C   0  0  0  0  0  0  0  0  0  0  0  0
    9.9900  -14.7720  -43.6420 H   0  0  0  0  0  0  0  0  0  0  0  0
    6.7650  -14.6390  -44.0350 N   0  0  0  0  0  0  0  0  0  0  0  0
    8.8960  -12.4050  -42.3350 C   0  0  0  0  0  0  0  0  0  0  0  0
    9.6150  -11.8680  -42.9530 H   0  0  0  0  0  0  0  0  0  0  0  0
    9.4030  -12.8210  -41.4640 H   0  0  0  0  0  0  0  0  0  0  0  0
    0.9750  -17.9660  -37.7540 N   0  0  0  0  0  0  0  0  0  0  0  0
    7.8170  -11.4390  -41.8700 C   0  0  0  0  0  0  0  0  0  0  0  0
    6.9420  -12.0070  -41.5530 H   0  0  0  0  0  0  0  0  0  0  0  0
    7.5440  -10.7850  -42.6990 H   0  0  0  0  0  0  0  0  0  0  0  0
    2.0890  -14.0090  -37.6840 N   0  0  0  0  0  0  0  0  0  0  0  0
    8.2960  -10.6030  -40.7270 C   0  0  0  0  0  0  0  0  0  0  0  0
    8.5700  -11.2510  -39.8940 H   0  0  0  0  0  0  0  0  0  0  0  0
    7.5010   -9.9260  -40.4140 H   0  0  0  0  0  0  0  0  0  0  0  0
    9.1650  -10.0250  -41.0400 H   0  0  0  0  0  0  0  0  0  0  0  0
    1.7800  -13.7850  -36.3970 N   0  0  0  0  0  0  0  0  0  0  0  0
   10.3670  -17.1230  -44.3810 C   0  0  0  0  0  0  0  0  0  0  0  0
   10.9940  -17.8640  -43.8830 H   0  0  0  0  0  0  0  0  0  0  0  0
   10.5060  -16.1520  -43.9060 H   0  0  0  0  0  0  0  0  0  0  0  0
   10.6480  -17.0570  -45.4320 H   0  0  0  0  0  0  0  0  0  0  0  0
    1.1430  -14.8430  -35.9670 N   0  0  0  0  0  0  0  0  0  0  0  0
    7.1770  -19.1010  -43.3990 C   0  0  0  0  0  0  0  0  0  0  0  0
    6.4940  -20.1660  -42.8850 C   0  0  0  0  0  0  0  0  0  0  0  0
    6.9770  -21.0410  -42.4750 H   0  0  0  0  0  0  0  0  0  0  0  0
    5.0720  -20.0030  -42.9460 C   0  0  0  0  0  0  0  0  0  0  0  0
    4.1610  -21.1220  -42.6520 C   0  0  0  0  0  0  0  0  0  0  0  0
    3.5760  -21.4000  -41.4750 C   0  0  0  0  0  0  0  0  0  0  0  0
    3.7280  -20.6740  -40.2060 C   0  0  0  0  0  0  0  0  0  0  0  0
    4.9100  -20.4980  -39.5230 C   0  0  0  0  0  0  0  0  0  0  0  0
    6.2900  -21.0050  -39.8280 C   0  0  0  0  0  0  0  0  0  0  0  0
    6.2660  -21.5930  -40.7450 H   0  0  0  0  0  0  0  0  0  0  0  0
    6.6370  -21.6300  -39.0050 H   0  0  0  0  0  0  0  0  0  0  0  0
    6.9670  -20.1600  -39.9540 H   0  0  0  0  0  0  0  0  0  0  0  0
    2.9800  -19.3510  -38.4330 C   0  0  0  0  0  0  0  0  0  0  0  0
    2.2820  -18.4730  -37.4680 C   0  0  0  0  0  0  0  0  0  0  0  0
    0.3760  -17.0690  -36.7780 C   0  0  0  0  0  0  0  0  0  0  0  0
    0.5580  -17.4340  -35.7670 H   0  0  0  0  0  0  0  0  0  0  0  0
   -0.6980  -16.9880  -36.9460 H   0  0  0  0  0  0  0  0  0  0  0  0
    1.0370  -15.7410  -36.9790 C   0  0  0  0  0  0  0  0  0  0  0  0
    1.6540  -15.2160  -38.0750 C   0  0  0  0  0  0  0  0  0  0  0  0
    1.7680  -15.6730  -39.0470 H   0  0  0  0  0  0  0  0  0  0  0  0
    2.7710  -13.0060  -38.5070 C   0  0  0  0  0  0  0  0  0  0  0  0
    3.6610  -13.4580  -38.9440 H   0  0  0  0  0  0  0  0  0  0  0  0
    3.0630  -12.1700  -37.8710 H   0  0  0  0  0  0  0  0  0  0  0  0
    1.8930  -12.4870  -39.6200 C   0  0  0  0  0  0  0  0  0  0  0  0
    2.4430  -11.7470  -40.2010 H   0  0  0  0  0  0  0  0  0  0  0  0
    1.0020  -12.0250  -39.1940 H   0  0  0  0  0  0  0  0  0  0  0  0
    1.6000  -13.3130  -40.2670 H   0  0  0  0  0  0  0  0  0  0  0  0
    0.1440  -18.3470  -38.8910 C   0  0  0  0  0  0  0  0  0  0  0  0
    0.7050  -19.0160  -39.5430 H   0  0  0  0  0  0  0  0  0  0  0  0
   -0.1430  -17.4540  -39.4470 H   0  0  0  0  0  0  0  0  0  0  0  0
   -0.7520  -18.8550  -38.5330 H   0  0  0  0  0  0  0  0  0  0  0  0
    2.6270  -20.0140  -39.5780 C   0  0  0  0  0  0  0  0  0  0  0  0
    1.6190  -20.0360  -39.9670 H   0  0  0  0  0  0  0  0  0  0  0  0
    2.6570  -22.5920  -41.5820 C   0  0  0  0  0  0  0  0  0  0  0  0
    2.1580  -23.1220  -40.7830 H   0  0  0  0  0  0  0  0  0  0  0  0
    2.5950  -22.8730  -43.0800 C   0  0  0  0  0  0  0  0  0  0  0  0
    1.6390  -22.5410  -43.4850 H   0  0  0  0  0  0  0  0  0  0  0  0
    2.7180  -23.9400  -43.2670 H   0  0  0  0  0  0  0  0  0  0  0  0
    3.7350  -22.0940  -43.7240 C   0  0  0  0  0  0  0  0  0  0  0  0
    4.1430  -22.2110  -44.7170 H   0  0  0  0  0  0  0  0  0  0  0  0
    4.7030  -18.7910  -43.4790 C   0  0  0  0  0  0  0  0  0  0  0  0
    3.3410  -18.2170  -43.7280 C   0  0  0  0  0  0  0  0  0  0  0  0
    3.4400  -17.2230  -44.1650 H   0  0  0  0  0  0  0  0  0  0  0  0
    2.7990  -18.1470  -42.7850 H   0  0  0  0  0  0  0  0  0  0  0  0
    2.7950  -18.8630  -44.4140 H   0  0  0  0  0  0  0  0  0  0  0  0
    4.6650  -19.5260  -38.1040 S   0  0  0  0  0  0  0  0  0  0  0  0
  1  2  1  0  0  0  0
  2 33  1  0  0  0  0
  2  3  2  0  0  0  0
  4  5  1  0  0  0  0
  4  1  1  0  0  0  0
  4 10  1  0  0  0  0
  6  4  1  0  0  0  0
  7 15  1  0  0  0  0
  9 73  1  0  0  0  0
  9 33  1  0  0  0  0
 10 14  1  0  0  0  0
 10 12  2  0  0  0  0
 11  7  1  0  0  0  0
 12 13  1  0  0  0  0
 12  7  1  0  0  0  0
 14 11  2  0  0  0  0
 15 19  1  0  0  0  0
 15 17  1  0  0  0  0
 16 15  1  0  0  0  0
 18 46  1  0  0  0  0
 18 47  1  0  0  0  0
 19 20  1  0  0  0  0
 19 23  1  0  0  0  0
 21 19  1  0  0  0  0
 22 27  1  0  0  0  0
 23 25  1  0  0  0  0
 23 24  1  0  0  0  0
 26 23  1  0  0  0  0
 27 32  2  0  0  0  0
 28  1  1  0  0  0  0
 28 30  1  0  0  0  0
 28 29  1  0  0  0  0
 31 28  1  0  0  0  0
 33 34  2  0  0  0  0
 34 35  1  0  0  0  0
 36 34  1  0  0  0  0
 36 37  1  0  0  0  0
 37 38  2  0  0  0  0
 38 39  1  0  0  0  0
 39 64  1  0  0  0  0
 39 40  2  0  0  0  0
 40 78  1  0  0  0  0
 41 40  1  0  0  0  0
 41 43  1  0  0  0  0
 42 41  1  0  0  0  0
 44 41  1  0  0  0  0
 45 78  1  0  0  0  0
 45 46  1  0  0  0  0
 46  8  2  0  0  0  0
 47 48  1  0  0  0  0
 49 47  1  0  0  0  0
 50 47  1  0  0  0  0
 50 32  1  0  0  0  0
 51 22  1  0  0  0  0
 51 50  2  0  0  0  0
 52 51  1  0  0  0  0
 53 55  1  0  0  0  0
 53 22  1  0  0  0  0
 54 53  1  0  0  0  0
 56 58  1  0  0  0  0
 56 53  1  0  0  0  0
 57 56  1  0  0  0  0
 59 56  1  0  0  0  0
 60 63  1  0  0  0  0
 60 18  1  0  0  0  0
 61 60  1  0  0  0  0
 62 60  1  0  0  0  0
 64 45  2  0  0  0  0
 65 64  1  0  0  0  0
 66 38  1  0  0  0  0
 66 67  1  0  0  0  0
 68 66  1  0  0  0  0
 69 68  1  0  0  0  0
 70 68  1  0  0  0  0
 71 68  1  0  0  0  0
 71 37  1  0  0  0  0
 72 71  1  0  0  0  0
 73 36  2  0  0  0  0
 74 73  1  0  0  0  0
 74 76  1  0  0  0  0
 75 74  1  0  0  0  0
 77 74  1  0  0  0  0
M  END
>  <Pose>
1

>  <Score>
-4.72

$$$$

 OpenBabel03092210503D

 78 82  0  0  0  0  0  0  0  0999 V2000
   -0.5380  -22.5200  -44.4270 N   0  0  0  0  0  0  0  0  0  0  0  0
   -0.5920  -21.2210  -43.8050 C   0  0  0  0  0  0  0  0  0  0  0  0
   -1.5910  -20.5040  -43.9070 O   0  0  0  0  0  0  0  0  0  0  0  0
    0.6280  -23.3900  -44.3480 C   0  0  0  0  0  0  0  0  0  0  0  0
    1.5150  -22.7740  -44.1970 H   0  0  0  0  0  0  0  0  0  0  0  0
    0.7210  -23.9370  -45.2860 H   0  0  0  0  0  0  0  0  0  0  0  0
   -0.0750  -25.6350  -41.5960 N   0  0  0  0  0  0  0  0  0  0  0  0
    1.4260  -16.7870  -35.0340 O   0  0  0  0  0  0  0  0  0  0  0  0
    0.7270  -19.0260  -43.0330 S   0  0  0  0  0  0  0  0  0  0  0  0
    0.5320  -24.3760  -43.2250 C   0  0  0  0  0  0  0  0  0  0  0  0
    1.2680  -25.5910  -41.5790 N   0  0  0  0  0  0  0  0  0  0  0  0
   -0.5640  -24.9070  -42.6090 C   0  0  0  0  0  0  0  0  0  0  0  0
   -1.6000  -24.7690  -42.8800 H   0  0  0  0  0  0  0  0  0  0  0  0
    1.6360  -24.8230  -42.5750 N   0  0  0  0  0  0  0  0  0  0  0  0
   -0.8160  -26.3850  -40.5820 C   0  0  0  0  0  0  0  0  0  0  0  0
   -1.8270  -26.5740  -40.9440 H   0  0  0  0  0  0  0  0  0  0  0  0
   -0.8620  -25.7970  -39.6650 H   0  0  0  0  0  0  0  0  0  0  0  0
    1.3560  -15.1740  -36.7000 N   0  0  0  0  0  0  0  0  0  0  0  0
   -0.1330  -27.7130  -40.2910 C   0  0  0  0  0  0  0  0  0  0  0  0
    0.7020  -27.5420  -39.6110 H   0  0  0  0  0  0  0  0  0  0  0  0
    0.2400  -28.1340  -41.2240 H   0  0  0  0  0  0  0  0  0  0  0  0
   -1.6610  -12.2960  -36.8020 N   0  0  0  0  0  0  0  0  0  0  0  0
   -1.0820  -28.6820  -39.6630 C   0  0  0  0  0  0  0  0  0  0  0  0
   -1.4590  -28.2670  -38.7280 H   0  0  0  0  0  0  0  0  0  0  0  0
   -0.5640  -29.6190  -39.4630 H   0  0  0  0  0  0  0  0  0  0  0  0
   -1.9150  -28.8650  -40.3420 H   0  0  0  0  0  0  0  0  0  0  0  0
   -0.7070  -11.3530  -36.8540 N   0  0  0  0  0  0  0  0  0  0  0  0
   -1.6780  -23.0250  -45.1830 C   0  0  0  0  0  0  0  0  0  0  0  0
   -2.4800  -22.2870  -45.1670 H   0  0  0  0  0  0  0  0  0  0  0  0
   -2.0300  -23.9540  -44.7320 H   0  0  0  0  0  0  0  0  0  0  0  0
   -1.3770  -23.2130  -46.2130 H   0  0  0  0  0  0  0  0  0  0  0  0
    0.4080  -11.9150  -36.4630 N   0  0  0  0  0  0  0  0  0  0  0  0
    0.5270  -20.7370  -42.9580 C   0  0  0  0  0  0  0  0  0  0  0  0
    1.4590  -21.3070  -42.1380 C   0  0  0  0  0  0  0  0  0  0  0  0
    1.5260  -22.3700  -41.9620 H   0  0  0  0  0  0  0  0  0  0  0  0
    2.3380  -20.3480  -41.5360 C   0  0  0  0  0  0  0  0  0  0  0  0
    3.2610  -20.7310  -40.4550 C   0  0  0  0  0  0  0  0  0  0  0  0
    3.2060  -20.3430  -39.1690 C   0  0  0  0  0  0  0  0  0  0  0  0
    2.2340  -19.4310  -38.5510 C   0  0  0  0  0  0  0  0  0  0  0  0
    0.8650  -19.5320  -38.6530 C   0  0  0  0  0  0  0  0  0  0  0  0
    0.0210  -20.5110  -39.4150 C   0  0  0  0  0  0  0  0  0  0  0  0
    0.6670  -21.2150  -39.9410 H   0  0  0  0  0  0  0  0  0  0  0  0
   -0.5960  -19.9750  -40.1360 H   0  0  0  0  0  0  0  0  0  0  0  0
   -0.6200  -21.0550  -38.7210 H   0  0  0  0  0  0  0  0  0  0  0  0
    1.5910  -17.6450  -37.1900 C   0  0  0  0  0  0  0  0  0  0  0  0
    1.4450  -16.5240  -36.2350 C   0  0  0  0  0  0  0  0  0  0  0  0
    1.2640  -14.1250  -35.6970 C   0  0  0  0  0  0  0  0  0  0  0  0
    2.2060  -13.5800  -35.6310 H   0  0  0  0  0  0  0  0  0  0  0  0
    1.0230  -14.5520  -34.7230 H   0  0  0  0  0  0  0  0  0  0  0  0
    0.1660  -13.2140  -36.1520 C   0  0  0  0  0  0  0  0  0  0  0  0
   -1.1530  -13.4650  -36.3820 C   0  0  0  0  0  0  0  0  0  0  0  0
   -1.6760  -14.4010  -36.2550 H   0  0  0  0  0  0  0  0  0  0  0  0
   -3.0600  -12.0070  -37.1290 C   0  0  0  0  0  0  0  0  0  0  0  0
   -3.3530  -12.6170  -37.9840 H   0  0  0  0  0  0  0  0  0  0  0  0
   -3.1490  -10.9520  -37.3880 H   0  0  0  0  0  0  0  0  0  0  0  0
   -3.9900  -12.3050  -35.9780 C   0  0  0  0  0  0  0  0  0  0  0  0
   -5.0140  -12.0740  -36.2700 H   0  0  0  0  0  0  0  0  0  0  0  0
   -3.7110  -11.6950  -35.1190 H   0  0  0  0  0  0  0  0  0  0  0  0
   -3.9150  -13.3600  -35.7140 H   0  0  0  0  0  0  0  0  0  0  0  0
    1.2500  -14.7590  -38.0950 C   0  0  0  0  0  0  0  0  0  0  0  0
    1.3340  -15.6330  -38.7410 H   0  0  0  0  0  0  0  0  0  0  0  0
    2.0510  -14.0570  -38.3270 H   0  0  0  0  0  0  0  0  0  0  0  0
    0.2860  -14.2780  -38.2580 H   0  0  0  0  0  0  0  0  0  0  0  0
    2.6440  -18.3490  -37.7110 C   0  0  0  0  0  0  0  0  0  0  0  0
    3.6780  -18.1110  -37.5090 H   0  0  0  0  0  0  0  0  0  0  0  0
    4.2900  -20.9970  -38.3470 C   0  0  0  0  0  0  0  0  0  0  0  0
    4.5730  -20.7820  -37.3280 H   0  0  0  0  0  0  0  0  0  0  0  0
    4.8920  -22.0320  -39.2930 C   0  0  0  0  0  0  0  0  0  0  0  0
    4.5610  -23.0320  -39.0130 H   0  0  0  0  0  0  0  0  0  0  0  0
    5.9800  -21.9850  -39.2570 H   0  0  0  0  0  0  0  0  0  0  0  0
    4.3990  -21.6920  -40.6940 C   0  0  0  0  0  0  0  0  0  0  0  0
    4.7780  -22.0540  -41.6390 H   0  0  0  0  0  0  0  0  0  0  0  0
    2.0730  -19.0630  -41.9430 C   0  0  0  0  0  0  0  0  0  0  0  0
    2.7340  -17.7720  -41.5640 C   0  0  0  0  0  0  0  0  0  0  0  0
    2.2520  -16.9490  -42.0910 H   0  0  0  0  0  0  0  0  0  0  0  0
    3.7890  -17.8100  -41.8380 H   0  0  0  0  0  0  0  0  0  0  0  0
    2.6430  -17.6190  -40.4890 H   0  0  0  0  0  0  0  0  0  0  0  0
    0.0820  -18.2930  -37.7200 S   0  0  0  0  0  0  0  0  0  0  0  0
  1  4  1  0  0  0  0
  1  2  1  0  0  0  0
  2 33  1  0  0  0  0
  3  2  2  0  0  0  0
  4  5  1  0  0  0  0
  4 10  1  0  0  0  0
  6  4  1  0  0  0  0
  7 11  1  0  0  0  0
  7 15  1  0  0  0  0
  9 33  1  0  0  0  0
  9 73  1  0  0  0  0
 10 12  2  0  0  0  0
 10 14  1  0  0  0  0
 12  7  1  0  0  0  0
 13 12  1  0  0  0  0
 14 11  2  0  0  0  0
 15 19  1  0  0  0  0
 15 17  1  0  0  0  0
 16 15  1  0  0  0  0
 18 46  1  0  0  0  0
 18 47  1  0  0  0  0
 19 23  1  0  0  0  0
 19 20  1  0  0  0  0
 21 19  1  0  0  0  0
 22 51  1  0  0  0  0
 23 25  1  0  0  0  0
 23 24  1  0  0  0  0
 26 23  1  0  0  0  0
 27 22  1  0  0  0  0
 27 32  2  0  0  0  0
 28 29  1  0  0  0  0
 28 30  1  0  0  0  0
 28  1  1  0  0  0  0
 31 28  1  0  0  0  0
 32 50  1  0  0  0  0
 33 34  2  0  0  0  0
 34 35  1  0  0  0  0
 34 36  1  0  0  0  0
 36 37  1  0  0  0  0
 37 38  2  0  0  0  0
 38 39  1  0  0  0  0
 38 66  1  0  0  0  0
 39 64  1  0  0  0  0
 40 39  2  0  0  0  0
 40 78  1  0  0  0  0
 41 44  1  0  0  0  0
 41 40  1  0  0  0  0
 42 41  1  0  0  0  0
 43 41  1  0  0  0  0
 45 46  1  0  0  0  0
 46  8  2  0  0  0  0
 47 48  1  0  0  0  0
 47 49  1  0  0  0  0
 50 47  1  0  0  0  0
 51 52  1  0  0  0  0
 51 50  2  0  0  0  0
 53 22  1  0  0  0  0
 53 56  1  0  0  0  0
 54 53  1  0  0  0  0
 55 53  1  0  0  0  0
 56 59  1  0  0  0  0
 56 58  1  0  0  0  0
 57 56  1  0  0  0  0
 60 18  1  0  0  0  0
 61 60  1  0  0  0  0
 62 60  1  0  0  0  0
 63 60  1  0  0  0  0
 64 65  1  0  0  0  0
 64 45  2  0  0  0  0
 66 67  1  0  0  0  0
 68 70  1  0  0  0  0
 68 69  1  0  0  0  0
 68 66  1  0  0  0  0
 71 37  1  0  0  0  0
 71 68  1  0  0  0  0
 72 71  1  0  0  0  0
 73 74  1  0  0  0  0
 73 36  2  0  0  0  0
 74 77  1  0  0  0  0
 75 74  1  0  0  0  0
 76 74  1  0  0  0  0
 78 45  1  0  0  0  0
M  END
>  <Pose>
1

>  <Score>
-4.69

$$$$

 OpenBabel03092210503D

 78 82  0  0  0  0  0  0  0  0999 V2000
   10.2380  -26.8010  -43.1350 N   0  0  0  0  0  0  0  0  0  0  0  0
    9.1850  -25.8280  -42.9850 C   0  0  0  0  0  0  0  0  0  0  0  0
    8.9560  -25.2960  -41.8950 O   0  0  0  0  0  0  0  0  0  0  0  0
   10.5300  -27.4670  -44.3980 C   0  0  0  0  0  0  0  0  0  0  0  0
   10.8470  -26.7180  -45.1230 H   0  0  0  0  0  0  0  0  0  0  0  0
    9.6230  -27.9560  -44.7530 H   0  0  0  0  0  0  0  0  0  0  0  0
   13.4000  -29.6740  -44.3950 N   0  0  0  0  0  0  0  0  0  0  0  0
   11.6960  -21.1030  -43.3200 O   0  0  0  0  0  0  0  0  0  0  0  0
    6.6960  -25.3720  -43.8500 S   0  0  0  0  0  0  0  0  0  0  0  0
   11.6110  -28.4960  -44.2670 C   0  0  0  0  0  0  0  0  0  0  0  0
   12.4380  -30.4720  -43.9000 N   0  0  0  0  0  0  0  0  0  0  0  0
   12.9270  -28.4400  -44.6200 C   0  0  0  0  0  0  0  0  0  0  0  0
   13.4700  -27.5870  -45.0000 H   0  0  0  0  0  0  0  0  0  0  0  0
   11.3480  -29.7500  -43.8210 N   0  0  0  0  0  0  0  0  0  0  0  0
   14.7460  -30.1860  -44.6450 C   0  0  0  0  0  0  0  0  0  0  0  0
   15.4160  -29.3490  -44.8430 H   0  0  0  0  0  0  0  0  0  0  0  0
   14.7230  -30.8450  -45.5130 H   0  0  0  0  0  0  0  0  0  0  0  0
   13.2020  -21.6750  -44.9900 N   0  0  0  0  0  0  0  0  0  0  0  0
   15.2590  -30.9610  -43.4410 C   0  0  0  0  0  0  0  0  0  0  0  0
   14.5490  -30.8550  -42.6210 H   0  0  0  0  0  0  0  0  0  0  0  0
   16.2250  -30.5550  -43.1400 H   0  0  0  0  0  0  0  0  0  0  0  0
   14.9690  -25.1760  -43.6070 N   0  0  0  0  0  0  0  0  0  0  0  0
   15.4190  -32.4120  -43.7610 C   0  0  0  0  0  0  0  0  0  0  0  0
   14.4570  -32.8260  -44.0630 H   0  0  0  0  0  0  0  0  0  0  0  0
   15.7820  -32.9410  -42.8800 H   0  0  0  0  0  0  0  0  0  0  0  0
   16.1350  -32.5270  -44.5750 H   0  0  0  0  0  0  0  0  0  0  0  0
   14.7770  -24.7750  -42.3410 N   0  0  0  0  0  0  0  0  0  0  0  0
   11.0720  -27.1690  -41.9960 C   0  0  0  0  0  0  0  0  0  0  0  0
   10.7560  -26.6070  -41.1180 H   0  0  0  0  0  0  0  0  0  0  0  0
   12.1130  -26.9390  -42.2190 H   0  0  0  0  0  0  0  0  0  0  0  0
   10.9690  -28.2370  -41.8000 H   0  0  0  0  0  0  0  0  0  0  0  0
   14.5280  -23.4920  -42.3790 N   0  0  0  0  0  0  0  0  0  0  0  0
    8.3920  -25.3800  -44.1580 C   0  0  0  0  0  0  0  0  0  0  0  0
    8.6640  -24.9830  -45.4360 C   0  0  0  0  0  0  0  0  0  0  0  0
    9.6630  -24.9340  -45.8440 H   0  0  0  0  0  0  0  0  0  0  0  0
    7.4880  -24.6400  -46.1790 C   0  0  0  0  0  0  0  0  0  0  0  0
    7.5780  -23.9810  -47.4920 C   0  0  0  0  0  0  0  0  0  0  0  0
    8.2230  -22.8380  -47.7800 C   0  0  0  0  0  0  0  0  0  0  0  0
    8.9630  -21.9700  -46.8530 C   0  0  0  0  0  0  0  0  0  0  0  0
    8.5400  -20.7410  -46.3980 C   0  0  0  0  0  0  0  0  0  0  0  0
    7.3030  -19.9590  -46.7310 C   0  0  0  0  0  0  0  0  0  0  0  0
    6.7030  -20.5170  -47.4500 H   0  0  0  0  0  0  0  0  0  0  0  0
    7.5860  -18.9980  -47.1620 H   0  0  0  0  0  0  0  0  0  0  0  0
    6.7220  -19.7930  -45.8240 H   0  0  0  0  0  0  0  0  0  0  0  0
   10.7160  -21.4470  -45.4020 C   0  0  0  0  0  0  0  0  0  0  0  0
   11.8890  -21.3860  -44.5010 C   0  0  0  0  0  0  0  0  0  0  0  0
   14.2960  -21.6420  -44.0310 C   0  0  0  0  0  0  0  0  0  0  0  0
   14.0060  -21.0750  -43.1460 H   0  0  0  0  0  0  0  0  0  0  0  0
   15.1790  -21.1890  -44.4800 H   0  0  0  0  0  0  0  0  0  0  0  0
   14.5700  -23.0690  -43.6680 C   0  0  0  0  0  0  0  0  0  0  0  0
   14.8360  -24.1470  -44.4580 C   0  0  0  0  0  0  0  0  0  0  0  0
   14.9230  -24.1680  -45.5350 H   0  0  0  0  0  0  0  0  0  0  0  0
   15.3190  -26.5600  -43.9420 C   0  0  0  0  0  0  0  0  0  0  0  0
   14.5970  -27.2280  -43.4720 H   0  0  0  0  0  0  0  0  0  0  0  0
   16.3160  -26.7720  -43.5550 H   0  0  0  0  0  0  0  0  0  0  0  0
   15.3130  -26.8060  -45.4310 C   0  0  0  0  0  0  0  0  0  0  0  0
   15.5790  -27.8450  -45.6280 H   0  0  0  0  0  0  0  0  0  0  0  0
   16.0380  -26.1490  -45.9110 H   0  0  0  0  0  0  0  0  0  0  0  0
   14.3190  -26.6040  -45.8290 H   0  0  0  0  0  0  0  0  0  0  0  0
   13.5600  -21.9050  -46.3850 C   0  0  0  0  0  0  0  0  0  0  0  0
   12.6570  -21.9070  -46.9960 H   0  0  0  0  0  0  0  0  0  0  0  0
   14.0630  -22.8670  -46.4780 H   0  0  0  0  0  0  0  0  0  0  0  0
   14.2260  -21.1120  -46.7250 H   0  0  0  0  0  0  0  0  0  0  0  0
   10.2090  -22.3690  -46.2780 C   0  0  0  0  0  0  0  0  0  0  0  0
   10.7010  -23.3020  -46.5120 H   0  0  0  0  0  0  0  0  0  0  0  0
    8.1450  -22.5130  -49.2520 C   0  0  0  0  0  0  0  0  0  0  0  0
    8.4510  -21.6060  -49.7510 H   0  0  0  0  0  0  0  0  0  0  0  0
    7.5310  -23.7660  -49.8700 C   0  0  0  0  0  0  0  0  0  0  0  0
    8.2950  -24.3380  -50.3950 H   0  0  0  0  0  0  0  0  0  0  0  0
    6.7400  -23.4910  -50.5680 H   0  0  0  0  0  0  0  0  0  0  0  0
    6.9550  -24.5890  -48.7240 C   0  0  0  0  0  0  0  0  0  0  0  0
    6.2620  -25.4150  -48.7810 H   0  0  0  0  0  0  0  0  0  0  0  0
    6.3350  -24.8190  -45.4520 C   0  0  0  0  0  0  0  0  0  0  0  0
    4.9050  -24.5820  -45.8320 C   0  0  0  0  0  0  0  0  0  0  0  0
    4.2590  -24.8370  -44.9920 H   0  0  0  0  0  0  0  0  0  0  0  0
    4.6490  -25.2040  -46.6890 H   0  0  0  0  0  0  0  0  0  0  0  0
    4.7670  -23.5320  -46.0900 H   0  0  0  0  0  0  0  0  0  0  0  0
    9.6780  -20.0750  -45.2670 S   0  0  0  0  0  0  0  0  0  0  0  0
  1  2  1  0  0  0  0
  1 28  1  0  0  0  0
  2  3  2  0  0  0  0
  4 10  1  0  0  0  0
  4  1  1  0  0  0  0
  5  4  1  0  0  0  0
  6  4  1  0  0  0  0
  7 11  1  0  0  0  0
 10 14  1  0  0  0  0
 11 14  2  0  0  0  0
 12  7  1  0  0  0  0
 12 10  2  0  0  0  0
 13 12  1  0  0  0  0
 15  7  1  0  0  0  0
 15 19  1  0  0  0  0
 16 15  1  0  0  0  0
 17 15  1  0  0  0  0
 18 46  1  0  0  0  0
 18 47  1  0  0  0  0
 19 21  1  0  0  0  0
 19 20  1  0  0  0  0
 22 27  1  0  0  0  0
 23 19  1  0  0  0  0
 23 25  1  0  0  0  0
 24 23  1  0  0  0  0
 26 23  1  0  0  0  0
 28 31  1  0  0  0  0
 28 29  1  0  0  0  0
 30 28  1  0  0  0  0
 32 27  2  0  0  0  0
 33  9  1  0  0  0  0
 33  2  1  0  0  0  0
 34 33  2  0  0  0  0
 35 34  1  0  0  0  0
 36 73  2  0  0  0  0
 36 34  1  0  0  0  0
 37 36  1  0  0  0  0
 38 37  2  0  0  0  0
 38 39  1  0  0  0  0
 39 40  2  0  0  0  0
 39 64  1  0  0  0  0
 40 78  1  0  0  0  0
 41 40  1  0  0  0  0
 41 44  1  0  0  0  0
 42 41  1  0  0  0  0
 43 41  1  0  0  0  0
 45 78  1  0  0  0  0
 45 46  1  0  0  0  0
 46  8  2  0  0  0  0
 47 50  1  0  0  0  0
 47 48  1  0  0  0  0
 49 47  1  0  0  0  0
 50 32  1  0  0  0  0
 51 50  2  0  0  0  0
 51 22  1  0  0  0  0
 52 51  1  0  0  0  0
 53 22  1  0  0  0  0
 53 55  1  0  0  0  0
 53 54  1  0  0  0  0
 56 53  1  0  0  0  0
 57 56  1  0  0  0  0
 58 56  1  0  0  0  0
 59 56  1  0  0  0  0
 60 18  1  0  0  0  0
 61 60  1  0  0  0  0
 62 60  1  0  0  0  0
 63 60  1  0  0  0  0
 64 45  2  0  0  0  0
 65 64  1  0  0  0  0
 66 38  1  0  0  0  0
 67 66  1  0  0  0  0
 68 66  1  0  0  0  0
 68 71  1  0  0  0  0
 69 68  1  0  0  0  0
 70 68  1  0  0  0  0
 71 37  1  0  0  0  0
 72 71  1  0  0  0  0
 73  9  1  0  0  0  0
 74 73  1  0  0  0  0
 74 75  1  0  0  0  0
 76 74  1  0  0  0  0
 77 74  1  0  0  0  0
M  END
>  <Pose>
1

>  <Score>
-4.58

$$$$

 OpenBabel03092210503D

 78 82  0  0  0  0  0  0  0  0999 V2000
    4.7790  -22.4060  -40.4800 N   0  0  0  0  0  0  0  0  0  0  0  0
    3.6440  -23.2720  -40.6810 C   0  0  0  0  0  0  0  0  0  0  0  0
    2.8800  -23.5500  -39.7530 O   0  0  0  0  0  0  0  0  0  0  0  0
    5.7170  -22.0660  -41.5420 C   0  0  0  0  0  0  0  0  0  0  0  0
    5.4280  -22.6000  -42.4480 H   0  0  0  0  0  0  0  0  0  0  0  0
    6.7160  -22.3790  -41.2390 H   0  0  0  0  0  0  0  0  0  0  0  0
    5.7190  -18.6460  -42.7290 N   0  0  0  0  0  0  0  0  0  0  0  0
    8.4580  -26.3370  -42.3880 O   0  0  0  0  0  0  0  0  0  0  0  0
    1.7480  -24.5040  -42.1080 S   0  0  0  0  0  0  0  0  0  0  0  0
    5.7420  -20.5980  -41.8380 C   0  0  0  0  0  0  0  0  0  0  0  0
    6.2600  -18.5130  -41.5050 N   0  0  0  0  0  0  0  0  0  0  0  0
    5.3740  -19.9200  -42.9620 C   0  0  0  0  0  0  0  0  0  0  0  0
    4.9060  -20.3220  -43.8490 H   0  0  0  0  0  0  0  0  0  0  0  0
    6.2710  -19.7060  -40.9630 N   0  0  0  0  0  0  0  0  0  0  0  0
    5.5920  -17.4960  -43.6230 C   0  0  0  0  0  0  0  0  0  0  0  0
    5.2610  -16.6310  -43.0490 H   0  0  0  0  0  0  0  0  0  0  0  0
    4.8570  -17.7230  -44.3960 H   0  0  0  0  0  0  0  0  0  0  0  0
   10.2580  -25.2730  -43.3940 N   0  0  0  0  0  0  0  0  0  0  0  0
    6.9270  -17.1790  -44.2810 C   0  0  0  0  0  0  0  0  0  0  0  0
    6.7610  -16.4830  -45.1040 H   0  0  0  0  0  0  0  0  0  0  0  0
    7.3620  -18.1010  -44.6670 H   0  0  0  0  0  0  0  0  0  0  0  0
   11.3920  -29.0600  -44.5250 N   0  0  0  0  0  0  0  0  0  0  0  0
    7.8760  -16.5620  -43.3060 C   0  0  0  0  0  0  0  0  0  0  0  0
    7.4480  -15.6390  -42.9160 H   0  0  0  0  0  0  0  0  0  0  0  0
    8.8190  -16.3420  -43.8070 H   0  0  0  0  0  0  0  0  0  0  0  0
    8.0540  -17.2560  -42.4840 H   0  0  0  0  0  0  0  0  0  0  0  0
   11.7000  -29.5020  -43.2960 N   0  0  0  0  0  0  0  0  0  0  0  0
    5.0400  -21.8230  -39.1690 C   0  0  0  0  0  0  0  0  0  0  0  0
    4.2740  -22.1500  -38.4660 H   0  0  0  0  0  0  0  0  0  0  0  0
    5.0230  -20.7350  -39.2450 H   0  0  0  0  0  0  0  0  0  0  0  0
    6.0190  -22.1460  -38.8160 H   0  0  0  0  0  0  0  0  0  0  0  0
   11.6590  -28.4680  -42.4960 N   0  0  0  0  0  0  0  0  0  0  0  0
    3.3180  -23.7950  -42.0320 C   0  0  0  0  0  0  0  0  0  0  0  0
    3.9550  -23.8750  -43.2370 C   0  0  0  0  0  0  0  0  0  0  0  0
    4.9560  -23.5080  -43.4060 H   0  0  0  0  0  0  0  0  0  0  0  0
    3.1570  -24.4950  -44.2530 C   0  0  0  0  0  0  0  0  0  0  0  0
    3.5700  -24.4760  -45.6660 C   0  0  0  0  0  0  0  0  0  0  0  0
    4.8190  -24.3320  -46.1420 C   0  0  0  0  0  0  0  0  0  0  0  0
    6.0530  -24.1350  -45.3700 C   0  0  0  0  0  0  0  0  0  0  0  0
    6.6270  -22.9190  -45.0760 C   0  0  0  0  0  0  0  0  0  0  0  0
    6.2140  -21.5320  -45.4740 C   0  0  0  0  0  0  0  0  0  0  0  0
    5.3140  -21.5830  -46.0870 H   0  0  0  0  0  0  0  0  0  0  0  0
    7.0160  -21.0630  -46.0430 H   0  0  0  0  0  0  0  0  0  0  0  0
    6.0110  -20.9430  -44.5790 H   0  0  0  0  0  0  0  0  0  0  0  0
    7.8570  -24.8410  -44.0650 C   0  0  0  0  0  0  0  0  0  0  0  0
    8.8600  -25.5280  -43.2210 C   0  0  0  0  0  0  0  0  0  0  0  0
   11.1830  -26.0240  -42.5600 C   0  0  0  0  0  0  0  0  0  0  0  0
   10.7800  -26.1370  -41.5540 H   0  0  0  0  0  0  0  0  0  0  0  0
   12.1460  -25.5170  -42.5100 H   0  0  0  0  0  0  0  0  0  0  0  0
   11.3330  -27.3630  -43.2140 C   0  0  0  0  0  0  0  0  0  0  0  0
   11.1470  -27.7410  -44.5100 C   0  0  0  0  0  0  0  0  0  0  0  0
   10.8640  -27.1150  -45.3430 H   0  0  0  0  0  0  0  0  0  0  0  0
   11.3870  -29.9460  -45.6930 C   0  0  0  0  0  0  0  0  0  0  0  0
   11.0270  -29.3860  -46.5560 H   0  0  0  0  0  0  0  0  0  0  0  0
   10.7160  -30.7820  -45.4960 H   0  0  0  0  0  0  0  0  0  0  0  0
   12.7610  -30.4880  -46.0050 C   0  0  0  0  0  0  0  0  0  0  0  0
   12.7060  -31.1390  -46.8770 H   0  0  0  0  0  0  0  0  0  0  0  0
   13.1300  -31.0570  -45.1510 H   0  0  0  0  0  0  0  0  0  0  0  0
   13.4400  -29.6610  -46.2110 H   0  0  0  0  0  0  0  0  0  0  0  0
   10.8370  -24.2540  -44.2630 C   0  0  0  0  0  0  0  0  0  0  0  0
   10.0440  -23.7670  -44.8310 H   0  0  0  0  0  0  0  0  0  0  0  0
   11.5420  -24.7210  -44.9510 H   0  0  0  0  0  0  0  0  0  0  0  0
   11.3570  -23.5130  -43.6570 H   0  0  0  0  0  0  0  0  0  0  0  0
    6.7610  -25.2320  -44.7880 C   0  0  0  0  0  0  0  0  0  0  0  0
    6.4630  -26.2630  -44.9050 H   0  0  0  0  0  0  0  0  0  0  0  0
    4.8510  -24.4290  -47.6480 C   0  0  0  0  0  0  0  0  0  0  0  0
    5.6800  -24.2260  -48.3100 H   0  0  0  0  0  0  0  0  0  0  0  0
    3.4410  -24.8810  -48.0160 C   0  0  0  0  0  0  0  0  0  0  0  0
    3.4470  -25.9340  -48.2980 H   0  0  0  0  0  0  0  0  0  0  0  0
    3.0610  -24.2850  -48.8450 H   0  0  0  0  0  0  0  0  0  0  0  0
    2.5730  -24.6750  -46.7810 C   0  0  0  0  0  0  0  0  0  0  0  0
    1.4950  -24.6710  -46.7190 H   0  0  0  0  0  0  0  0  0  0  0  0
    1.9340  -24.9080  -43.7830 C   0  0  0  0  0  0  0  0  0  0  0  0
    0.8030  -25.5880  -44.4940 C   0  0  0  0  0  0  0  0  0  0  0  0
   -0.0130  -25.7630  -43.7940 H   0  0  0  0  0  0  0  0  0  0  0  0
    1.1480  -26.5410  -44.8970 H   0  0  0  0  0  0  0  0  0  0  0  0
    0.4530  -24.9540  -45.3090 H   0  0  0  0  0  0  0  0  0  0  0  0
    8.0410  -23.1250  -44.0880 S   0  0  0  0  0  0  0  0  0  0  0  0
  1 28  1  0  0  0  0
  2  1  1  0  0  0  0
  2  3  2  0  0  0  0
  4  6  1  0  0  0  0
  4  1  1  0  0  0  0
  5  4  1  0  0  0  0
  7 11  1  0  0  0  0
  9 33  1  0  0  0  0
 10  4  1  0  0  0  0
 10 14  1  0  0  0  0
 11 14  2  0  0  0  0
 12  7  1  0  0  0  0
 12 10  2  0  0  0  0
 13 12  1  0  0  0  0
 15 16  1  0  0  0  0
 15  7  1  0  0  0  0
 17 15  1  0  0  0  0
 18 46  1  0  0  0  0
 18 47  1  0  0  0  0
 19 15  1  0  0  0  0
 19 23  1  0  0  0  0
 20 19  1  0  0  0  0
 21 19  1  0  0  0  0
 22 51  1  0  0  0  0
 22 27  1  0  0  0  0
 23 24  1  0  0  0  0
 23 26  1  0  0  0  0
 25 23  1  0  0  0  0
 27 32  2  0  0  0  0
 28 31  1  0  0  0  0
 28 29  1  0  0  0  0
 30 28  1  0  0  0  0
 33  2  1  0  0  0  0
 34 33  2  0  0  0  0
 35 34  1  0  0  0  0
 36 73  2  0  0  0  0
 36 34  1  0  0  0  0
 37 36  1  0  0  0  0
 38 37  2  0  0  0  0
 38 39  1  0  0  0  0
 39 40  2  0  0  0  0
 39 64  1  0  0  0  0
 40 78  1  0  0  0  0
 41 40  1  0  0  0  0
 41 44  1  0  0  0  0
 42 41  1  0  0  0  0
 43 41  1  0  0  0  0
 45 46  1  0  0  0  0
 46  8  2  0  0  0  0
 47 49  1  0  0  0  0
 47 48  1  0  0  0  0
 50 47  1  0  0  0  0
 50 32  1  0  0  0  0
 51 50  2  0  0  0  0
 52 51  1  0  0  0  0
 53 55  1  0  0  0  0
 53 22  1  0  0  0  0
 54 53  1  0  0  0  0
 56 53  1  0  0  0  0
 56 58  1  0  0  0  0
 57 56  1  0  0  0  0
 59 56  1  0  0  0  0
 60 63  1  0  0  0  0
 60 18  1  0  0  0  0
 61 60  1  0  0  0  0
 62 60  1  0  0  0  0
 64 45  2  0  0  0  0
 65 64  1  0  0  0  0
 66 38  1  0  0  0  0
 67 66  1  0  0  0  0
 68 66  1  0  0  0  0
 68 71  1  0  0  0  0
 69 68  1  0  0  0  0
 70 68  1  0  0  0  0
 71 72  1  0  0  0  0
 71 37  1  0  0  0  0
 73  9  1  0  0  0  0
 74 75  1  0  0  0  0
 74 73  1  0  0  0  0
 76 74  1  0  0  0  0
 77 74  1  0  0  0  0
 78 45  1  0  0  0  0
M  END
>  <Pose>
1

>  <Score>
-4.56

$$$$
