
 OpenBabel03102210483D

 78 82  0  0  0  0  0  0  0  0999 V2000
   10.3430  -26.3160  -43.0940 N   0  0  0  0  0  0  0  0  0  0  0  0
    8.9480  -25.9980  -43.2650 C   0  0  0  0  0  0  0  0  0  0  0  0
    8.1030  -26.3650  -42.4450 O   0  0  0  0  0  0  0  0  0  0  0  0
   11.3720  -25.9190  -44.0470 C   0  0  0  0  0  0  0  0  0  0  0  0
   10.8970  -25.7020  -45.0030 H   0  0  0  0  0  0  0  0  0  0  0  0
   12.0730  -26.7450  -44.1690 H   0  0  0  0  0  0  0  0  0  0  0  0
   12.9750  -22.7520  -43.3350 N   0  0  0  0  0  0  0  0  0  0  0  0
    6.4830  -22.0540  -39.8950 O   0  0  0  0  0  0  0  0  0  0  0  0
    8.4570  -26.0070  -45.8940 S   0  0  0  0  0  0  0  0  0  0  0  0
   12.1290  -24.7060  -43.6000 C   0  0  0  0  0  0  0  0  0  0  0  0
   13.7680  -23.6160  -42.6780 N   0  0  0  0  0  0  0  0  0  0  0  0
   11.9440  -23.3900  -43.9060 C   0  0  0  0  0  0  0  0  0  0  0  0
   11.1400  -22.9560  -44.4820 H   0  0  0  0  0  0  0  0  0  0  0  0
   13.2490  -24.8080  -42.8400 N   0  0  0  0  0  0  0  0  0  0  0  0
   13.2960  -21.3260  -43.3860 C   0  0  0  0  0  0  0  0  0  0  0  0
   12.6420  -20.7880  -42.7000 H   0  0  0  0  0  0  0  0  0  0  0  0
   13.1380  -20.9600  -44.4010 H   0  0  0  0  0  0  0  0  0  0  0  0
    4.3450  -21.1640  -39.7440 N   0  0  0  0  0  0  0  0  0  0  0  0
   14.7450  -21.0870  -42.9880 C   0  0  0  0  0  0  0  0  0  0  0  0
   15.3850  -21.7620  -43.5570 H   0  0  0  0  0  0  0  0  0  0  0  0
   14.8590  -21.2890  -41.9230 H   0  0  0  0  0  0  0  0  0  0  0  0
    2.3030  -18.1250  -37.8890 N   0  0  0  0  0  0  0  0  0  0  0  0
   15.1550  -19.6770  -43.2640 C   0  0  0  0  0  0  0  0  0  0  0  0
   15.0430  -19.4680  -44.3280 H   0  0  0  0  0  0  0  0  0  0  0  0
   16.1960  -19.5380  -42.9740 H   0  0  0  0  0  0  0  0  0  0  0  0
   14.5240  -18.9970  -42.6920 H   0  0  0  0  0  0  0  0  0  0  0  0
    3.0100  -18.0990  -36.7490 N   0  0  0  0  0  0  0  0  0  0  0  0
   10.7910  -27.0720  -41.9290 C   0  0  0  0  0  0  0  0  0  0  0  0
    9.9340  -27.3080  -41.2980 H   0  0  0  0  0  0  0  0  0  0  0  0
   11.5070  -26.4760  -41.3630 H   0  0  0  0  0  0  0  0  0  0  0  0
   11.2660  -27.9970  -42.2570 H   0  0  0  0  0  0  0  0  0  0  0  0
    3.8500  -19.1000  -36.7970 N   0  0  0  0  0  0  0  0  0  0  0  0
    8.4960  -25.1510  -44.3980 C   0  0  0  0  0  0  0  0  0  0  0  0
    8.1150  -23.8500  -44.5640 C   0  0  0  0  0  0  0  0  0  0  0  0
    8.0860  -23.1310  -43.7580 H   0  0  0  0  0  0  0  0  0  0  0  0
    7.7580  -23.5380  -45.9160 C   0  0  0  0  0  0  0  0  0  0  0  0
    7.1110  -22.2610  -46.2600 C   0  0  0  0  0  0  0  0  0  0  0  0
    6.1930  -21.5980  -45.5360 C   0  0  0  0  0  0  0  0  0  0  0  0
    5.6050  -22.0030  -44.2510 C   0  0  0  0  0  0  0  0  0  0  0  0
    4.6980  -23.0230  -44.0730 C   0  0  0  0  0  0  0  0  0  0  0  0
    4.0510  -23.9290  -45.0790 C   0  0  0  0  0  0  0  0  0  0  0  0
    4.4050  -23.6750  -46.0780 H   0  0  0  0  0  0  0  0  0  0  0  0
    2.9680  -23.8060  -45.0350 H   0  0  0  0  0  0  0  0  0  0  0  0
    4.3080  -24.9640  -44.8540 H   0  0  0  0  0  0  0  0  0  0  0  0
    5.3630  -21.9310  -41.9300 C   0  0  0  0  0  0  0  0  0  0  0  0
    5.4420  -21.7350  -40.4650 C   0  0  0  0  0  0  0  0  0  0  0  0
    4.5200  -20.9580  -38.3140 C   0  0  0  0  0  0  0  0  0  0  0  0
    5.5670  -20.7580  -38.0850 H   0  0  0  0  0  0  0  0  0  0  0  0
    4.1880  -21.8360  -37.7610 H   0  0  0  0  0  0  0  0  0  0  0  0
    3.6760  -19.7720  -37.9630 C   0  0  0  0  0  0  0  0  0  0  0  0
    2.6970  -19.1420  -38.6710 C   0  0  0  0  0  0  0  0  0  0  0  0
    2.3200  -19.4040  -39.6490 H   0  0  0  0  0  0  0  0  0  0  0  0
    1.2270  -17.1670  -38.1600 C   0  0  0  0  0  0  0  0  0  0  0  0
    0.7600  -17.4240  -39.1110 H   0  0  0  0  0  0  0  0  0  0  0  0
    1.6550  -16.1670  -38.2230 H   0  0  0  0  0  0  0  0  0  0  0  0
    0.1690  -17.1760  -37.0820 C   0  0  0  0  0  0  0  0  0  0  0  0
   -0.6060  -16.4510  -37.3280 H   0  0  0  0  0  0  0  0  0  0  0  0
    0.6220  -16.9140  -36.1270 H   0  0  0  0  0  0  0  0  0  0  0  0
   -0.2720  -18.1710  -37.0150 H   0  0  0  0  0  0  0  0  0  0  0  0
    3.0290  -20.8610  -40.2950 C   0  0  0  0  0  0  0  0  0  0  0  0
    3.0300  -21.0560  -41.3670 H   0  0  0  0  0  0  0  0  0  0  0  0
    2.7940  -19.8110  -40.1170 H   0  0  0  0  0  0  0  0  0  0  0  0
    2.2800  -21.4880  -39.8120 H   0  0  0  0  0  0  0  0  0  0  0  0
    5.9820  -21.3820  -43.0210 C   0  0  0  0  0  0  0  0  0  0  0  0
    6.6840  -20.5630  -42.9570 H   0  0  0  0  0  0  0  0  0  0  0  0
    5.8130  -20.2910  -46.1870 C   0  0  0  0  0  0  0  0  0  0  0  0
    5.0170  -19.6150  -45.9100 H   0  0  0  0  0  0  0  0  0  0  0  0
    6.8160  -20.1460  -47.3280 C   0  0  0  0  0  0  0  0  0  0  0  0
    7.5670  -19.3980  -47.0740 H   0  0  0  0  0  0  0  0  0  0  0  0
    6.3030  -19.8480  -48.2420 H   0  0  0  0  0  0  0  0  0  0  0  0
    7.4740  -21.5070  -47.5150 C   0  0  0  0  0  0  0  0  0  0  0  0
    8.0640  -21.8510  -48.3520 H   0  0  0  0  0  0  0  0  0  0  0  0
    7.9110  -24.6100  -46.7620 C   0  0  0  0  0  0  0  0  0  0  0  0
    7.6530  -24.7260  -48.2340 C   0  0  0  0  0  0  0  0  0  0  0  0
    7.8900  -25.7370  -48.5650 H   0  0  0  0  0  0  0  0  0  0  0  0
    8.2780  -24.0120  -48.7700 H   0  0  0  0  0  0  0  0  0  0  0  0
    6.6030  -24.5150  -48.4360 H   0  0  0  0  0  0  0  0  0  0  0  0
    4.3050  -23.2140  -42.3920 S   0  0  0  0  0  0  0  0  0  0  0  0
  1 28  1  0  0  0  0
  2  1  1  0  0  0  0
  2  3  2  0  0  0  0
  4 10  1  0  0  0  0
  4  1  1  0  0  0  0
  5  4  1  0  0  0  0
  6  4  1  0  0  0  0
  7 11  1  0  0  0  0
  9 33  1  0  0  0  0
 10 14  1  0  0  0  0
 12 10  2  0  0  0  0
 12  7  1  0  0  0  0
 13 12  1  0  0  0  0
 14 11  2  0  0  0  0
 15  7  1  0  0  0  0
 15 19  1  0  0  0  0
 15 16  1  0  0  0  0
 17 15  1  0  0  0  0
 18 47  1  0  0  0  0
 19 21  1  0  0  0  0
 20 19  1  0  0  0  0
 22 27  1  0  0  0  0
 23 19  1  0  0  0  0
 23 25  1  0  0  0  0
 23 26  1  0  0  0  0
 24 23  1  0  0  0  0
 28 30  1  0  0  0  0
 28 29  1  0  0  0  0
 31 28  1  0  0  0  0
 32 27  2  0  0  0  0
 33  2  1  0  0  0  0
 34 33  2  0  0  0  0
 34 35  1  0  0  0  0
 36 34  1  0  0  0  0
 37 36  1  0  0  0  0
 37 38  2  0  0  0  0
 38 39  1  0  0  0  0
 39 40  2  0  0  0  0
 39 64  1  0  0  0  0
 40 78  1  0  0  0  0
 41 43  1  0  0  0  0
 41 44  1  0  0  0  0
 41 40  1  0  0  0  0
 42 41  1  0  0  0  0
 45 46  1  0  0  0  0
 46  8  2  0  0  0  0
 46 18  1  0  0  0  0
 47 48  1  0  0  0  0
 47 50  1  0  0  0  0
 47 49  1  0  0  0  0
 50 32  1  0  0  0  0
 51 50  2  0  0  0  0
 51 22  1  0  0  0  0
 52 51  1  0  0  0  0
 53 22  1  0  0  0  0
 53 56  1  0  0  0  0
 54 53  1  0  0  0  0
 55 53  1  0  0  0  0
 56 59  1  0  0  0  0
 56 58  1  0  0  0  0
 57 56  1  0  0  0  0
 60 62  1  0  0  0  0
 60 63  1  0  0  0  0
 60 18  1  0  0  0  0
 61 60  1  0  0  0  0
 64 65  1  0  0  0  0
 64 45  2  0  0  0  0
 66 67  1  0  0  0  0
 66 38  1  0  0  0  0
 68 69  1  0  0  0  0
 68 66  1  0  0  0  0
 70 68  1  0  0  0  0
 71 68  1  0  0  0  0
 71 37  1  0  0  0  0
 72 71  1  0  0  0  0
 73 36  2  0  0  0  0
 73  9  1  0  0  0  0
 74 73  1  0  0  0  0
 75 74  1  0  0  0  0
 76 74  1  0  0  0  0
 77 74  1  0  0  0  0
 78 45  1  0  0  0  0
M  END
>  <Pose>
1

>  <Score>
-5.81

$$$$

 OpenBabel03102210483D

 78 82  0  0  0  0  0  0  0  0999 V2000
    0.9170  -18.6600  -38.3730 N   0  0  0  0  0  0  0  0  0  0  0  0
    1.9650  -18.3320  -39.3060 C   0  0  0  0  0  0  0  0  0  0  0  0
    2.1470  -17.1710  -39.6810 O   0  0  0  0  0  0  0  0  0  0  0  0
    0.6550  -20.0200  -37.9180 C   0  0  0  0  0  0  0  0  0  0  0  0
    0.4230  -19.9930  -36.8540 H   0  0  0  0  0  0  0  0  0  0  0  0
    1.5500  -20.6210  -38.0800 H   0  0  0  0  0  0  0  0  0  0  0  0
   -2.2360  -21.7550  -39.2370 N   0  0  0  0  0  0  0  0  0  0  0  0
   10.3970  -19.0900  -42.9270 O   0  0  0  0  0  0  0  0  0  0  0  0
    4.1440  -19.7320  -38.6390 S   0  0  0  0  0  0  0  0  0  0  0  0
   -0.4890  -20.6570  -38.6440 C   0  0  0  0  0  0  0  0  0  0  0  0
   -1.5430  -21.4820  -40.3570 N   0  0  0  0  0  0  0  0  0  0  0  0
   -1.6200  -21.2480  -38.1600 C   0  0  0  0  0  0  0  0  0  0  0  0
   -1.9480  -21.2960  -37.1320 H   0  0  0  0  0  0  0  0  0  0  0  0
   -0.4790  -20.8100  -39.9930 N   0  0  0  0  0  0  0  0  0  0  0  0
   -3.4710  -22.5350  -39.2890 C   0  0  0  0  0  0  0  0  0  0  0  0
   -3.7980  -22.6200  -40.3250 H   0  0  0  0  0  0  0  0  0  0  0  0
   -4.2400  -22.0260  -38.7060 H   0  0  0  0  0  0  0  0  0  0  0  0
   10.6840  -20.6530  -44.6170 N   0  0  0  0  0  0  0  0  0  0  0  0
   -3.2520  -23.9270  -38.7170 C   0  0  0  0  0  0  0  0  0  0  0  0
   -4.2200  -24.3900  -38.5260 H   0  0  0  0  0  0  0  0  0  0  0  0
   -2.6980  -23.8450  -37.7820 H   0  0  0  0  0  0  0  0  0  0  0  0
   13.4720  -23.4320  -43.2810 N   0  0  0  0  0  0  0  0  0  0  0  0
   -2.4810  -24.7850  -39.6670 C   0  0  0  0  0  0  0  0  0  0  0  0
   -3.0290  -24.8730  -40.6050 H   0  0  0  0  0  0  0  0  0  0  0  0
   -2.3440  -25.7760  -39.2320 H   0  0  0  0  0  0  0  0  0  0  0  0
   -1.5070  -24.3330  -39.8550 H   0  0  0  0  0  0  0  0  0  0  0  0
   14.0340  -22.5000  -42.4960 N   0  0  0  0  0  0  0  0  0  0  0  0
    0.0520  -17.6160  -37.8360 C   0  0  0  0  0  0  0  0  0  0  0  0
    0.3470  -16.6510  -38.2500 H   0  0  0  0  0  0  0  0  0  0  0  0
    0.1460  -17.5890  -36.7500 H   0  0  0  0  0  0  0  0  0  0  0  0
   -0.9830  -17.8260  -38.1060 H   0  0  0  0  0  0  0  0  0  0  0  0
   13.6070  -21.3370  -42.9160 N   0  0  0  0  0  0  0  0  0  0  0  0
    2.9080  -19.3730  -39.7870 C   0  0  0  0  0  0  0  0  0  0  0  0
    3.0580  -20.1160  -40.9230 C   0  0  0  0  0  0  0  0  0  0  0  0
    2.4030  -20.0360  -41.7780 H   0  0  0  0  0  0  0  0  0  0  0  0
    4.1750  -21.0130  -40.8630 C   0  0  0  0  0  0  0  0  0  0  0  0
    4.3770  -22.0520  -41.8860 C   0  0  0  0  0  0  0  0  0  0  0  0
    5.2930  -22.0520  -42.8690 C   0  0  0  0  0  0  0  0  0  0  0  0
    6.2840  -21.0090  -43.1680 C   0  0  0  0  0  0  0  0  0  0  0  0
    6.0180  -19.6640  -43.2920 C   0  0  0  0  0  0  0  0  0  0  0  0
    4.7140  -18.9240  -43.2120 C   0  0  0  0  0  0  0  0  0  0  0  0
    3.9060  -19.6310  -43.0250 H   0  0  0  0  0  0  0  0  0  0  0  0
    4.5330  -18.4050  -44.1520 H   0  0  0  0  0  0  0  0  0  0  0  0
    4.7580  -18.1990  -42.3990 H   0  0  0  0  0  0  0  0  0  0  0  0
    8.4430  -20.1980  -43.5330 C   0  0  0  0  0  0  0  0  0  0  0  0
    9.8930  -19.9310  -43.6680 C   0  0  0  0  0  0  0  0  0  0  0  0
   12.1100  -20.3690  -44.6540 C   0  0  0  0  0  0  0  0  0  0  0  0
   12.3250  -19.4410  -44.1250 H   0  0  0  0  0  0  0  0  0  0  0  0
   12.4530  -20.2860  -45.6860 H   0  0  0  0  0  0  0  0  0  0  0  0
   12.7790  -21.5230  -43.9750 C   0  0  0  0  0  0  0  0  0  0  0  0
   12.6780  -22.8630  -44.2020 C   0  0  0  0  0  0  0  0  0  0  0  0
   12.0880  -23.3590  -44.9580 H   0  0  0  0  0  0  0  0  0  0  0  0
   13.7650  -24.8600  -43.1280 C   0  0  0  0  0  0  0  0  0  0  0  0
   12.8580  -25.4280  -43.3320 H   0  0  0  0  0  0  0  0  0  0  0  0
   14.0860  -25.0440  -42.1030 H   0  0  0  0  0  0  0  0  0  0  0  0
   14.8510  -25.3240  -44.0680 C   0  0  0  0  0  0  0  0  0  0  0  0
   15.0320  -26.3880  -43.9170 H   0  0  0  0  0  0  0  0  0  0  0  0
   15.7660  -24.7670  -43.8690 H   0  0  0  0  0  0  0  0  0  0  0  0
   14.5380  -25.1520  -45.0980 H   0  0  0  0  0  0  0  0  0  0  0  0
   10.1730  -21.5810  -45.6210 C   0  0  0  0  0  0  0  0  0  0  0  0
    9.0990  -21.7080  -45.4850 H   0  0  0  0  0  0  0  0  0  0  0  0
   10.6700  -22.5450  -45.5110 H   0  0  0  0  0  0  0  0  0  0  0  0
   10.3690  -21.1830  -46.6160 H   0  0  0  0  0  0  0  0  0  0  0  0
    7.6750  -21.3080  -43.3060 C   0  0  0  0  0  0  0  0  0  0  0  0
    8.0790  -22.3080  -43.2390 H   0  0  0  0  0  0  0  0  0  0  0  0
    5.2330  -23.3220  -43.6820 C   0  0  0  0  0  0  0  0  0  0  0  0
    5.7500  -23.5490  -44.6030 H   0  0  0  0  0  0  0  0  0  0  0  0
    4.2730  -24.2120  -42.8980 C   0  0  0  0  0  0  0  0  0  0  0  0
    4.8270  -24.9890  -42.3710 H   0  0  0  0  0  0  0  0  0  0  0  0
    3.5540  -24.6740  -43.5740 H   0  0  0  0  0  0  0  0  0  0  0  0
    3.5520  -23.3160  -41.8990 C   0  0  0  0  0  0  0  0  0  0  0  0
    2.6590  -23.5340  -41.3320 H   0  0  0  0  0  0  0  0  0  0  0  0
    4.8750  -20.9040  -39.6860 C   0  0  0  0  0  0  0  0  0  0  0  0
    6.0880  -21.6430  -39.2090 C   0  0  0  0  0  0  0  0  0  0  0  0
    6.3640  -21.2870  -38.2170 H   0  0  0  0  0  0  0  0  0  0  0  0
    6.9140  -21.4700  -39.9000 H   0  0  0  0  0  0  0  0  0  0  0  0
    5.8700  -22.7100  -39.1640 H   0  0  0  0  0  0  0  0  0  0  0  0
    7.4770  -18.7690  -43.5840 S   0  0  0  0  0  0  0  0  0  0  0  0
  1  4  1  0  0  0  0
  1 28  1  0  0  0  0
  2  1  1  0  0  0  0
  3  2  2  0  0  0  0
  4  5  1  0  0  0  0
  6  4  1  0  0  0  0
  7 12  1  0  0  0  0
 10 12  2  0  0  0  0
 10  4  1  0  0  0  0
 11 14  2  0  0  0  0
 11  7  1  0  0  0  0
 12 13  1  0  0  0  0
 14 10  1  0  0  0  0
 15  7  1  0  0  0  0
 15 19  1  0  0  0  0
 15 17  1  0  0  0  0
 16 15  1  0  0  0  0
 18 46  1  0  0  0  0
 19 20  1  0  0  0  0
 19 21  1  0  0  0  0
 22 53  1  0  0  0  0
 22 27  1  0  0  0  0
 23 25  1  0  0  0  0
 23 19  1  0  0  0  0
 24 23  1  0  0  0  0
 26 23  1  0  0  0  0
 28 30  1  0  0  0  0
 29 28  1  0  0  0  0
 31 28  1  0  0  0  0
 32 27  2  0  0  0  0
 33  2  1  0  0  0  0
 33  9  1  0  0  0  0
 34 36  1  0  0  0  0
 34 33  2  0  0  0  0
 35 34  1  0  0  0  0
 36 73  2  0  0  0  0
 37 36  1  0  0  0  0
 38 37  2  0  0  0  0
 39 38  1  0  0  0  0
 40 41  1  0  0  0  0
 40 39  2  0  0  0  0
 41 42  1  0  0  0  0
 41 44  1  0  0  0  0
 43 41  1  0  0  0  0
 45 64  2  0  0  0  0
 46 45  1  0  0  0  0
 46  8  2  0  0  0  0
 47 18  1  0  0  0  0
 47 48  1  0  0  0  0
 47 50  1  0  0  0  0
 49 47  1  0  0  0  0
 50 32  1  0  0  0  0
 51 50  2  0  0  0  0
 51 22  1  0  0  0  0
 52 51  1  0  0  0  0
 53 55  1  0  0  0  0
 54 53  1  0  0  0  0
 56 57  1  0  0  0  0
 56 58  1  0  0  0  0
 56 53  1  0  0  0  0
 59 56  1  0  0  0  0
 60 62  1  0  0  0  0
 60 61  1  0  0  0  0
 60 18  1  0  0  0  0
 63 60  1  0  0  0  0
 64 65  1  0  0  0  0
 64 39  1  0  0  0  0
 66 68  1  0  0  0  0
 66 38  1  0  0  0  0
 67 66  1  0  0  0  0
 68 69  1  0  0  0  0
 68 71  1  0  0  0  0
 70 68  1  0  0  0  0
 71 37  1  0  0  0  0
 71 72  1  0  0  0  0
 73 74  1  0  0  0  0
 73  9  1  0  0  0  0
 74 77  1  0  0  0  0
 74 75  1  0  0  0  0
 76 74  1  0  0  0  0
 78 45  1  0  0  0  0
 78 40  1  0  0  0  0
M  END
>  <Pose>
1

>  <Score>
-5.78

$$$$

 OpenBabel03102210483D

 78 82  0  0  0  0  0  0  0  0999 V2000
   -1.6270  -18.4830  -37.0790 N   0  0  0  0  0  0  0  0  0  0  0  0
   -0.8630  -19.6300  -37.5010 C   0  0  0  0  0  0  0  0  0  0  0  0
   -0.9530  -20.7100  -36.9110 O   0  0  0  0  0  0  0  0  0  0  0  0
   -1.5380  -17.1840  -37.7340 C   0  0  0  0  0  0  0  0  0  0  0  0
   -2.5200  -16.7110  -37.7070 H   0  0  0  0  0  0  0  0  0  0  0  0
   -1.2360  -17.3360  -38.7700 H   0  0  0  0  0  0  0  0  0  0  0  0
    0.7370  -14.6590  -36.4870 N   0  0  0  0  0  0  0  0  0  0  0  0
    4.4530  -24.1330  -42.7440 O   0  0  0  0  0  0  0  0  0  0  0  0
   -0.3270  -20.8370  -39.8260 S   0  0  0  0  0  0  0  0  0  0  0  0
   -0.5480  -16.2750  -37.0730 C   0  0  0  0  0  0  0  0  0  0  0  0
    1.2020  -15.7700  -35.8870 N   0  0  0  0  0  0  0  0  0  0  0  0
   -0.3530  -14.9320  -37.2170 C   0  0  0  0  0  0  0  0  0  0  0  0
   -0.9480  -14.2400  -37.7940 H   0  0  0  0  0  0  0  0  0  0  0  0
    0.4150  -16.7540  -36.2450 N   0  0  0  0  0  0  0  0  0  0  0  0
    1.4180  -13.3760  -36.3240 C   0  0  0  0  0  0  0  0  0  0  0  0
    1.8860  -13.3410  -35.3400 H   0  0  0  0  0  0  0  0  0  0  0  0
    0.6890  -12.5700  -36.4090 H   0  0  0  0  0  0  0  0  0  0  0  0
    6.6910  -23.6610  -43.1340 N   0  0  0  0  0  0  0  0  0  0  0  0
    2.4880  -13.1960  -37.3910 C   0  0  0  0  0  0  0  0  0  0  0  0
    2.0910  -13.5260  -38.3520 H   0  0  0  0  0  0  0  0  0  0  0  0
    3.3560  -13.8010  -37.1310 H   0  0  0  0  0  0  0  0  0  0  0  0
   10.3650  -25.8330  -43.3790 N   0  0  0  0  0  0  0  0  0  0  0  0
    2.9050  -11.7660  -37.5020 C   0  0  0  0  0  0  0  0  0  0  0  0
    2.0420  -11.1540  -37.7620 H   0  0  0  0  0  0  0  0  0  0  0  0
    3.6670  -11.6680  -38.2750 H   0  0  0  0  0  0  0  0  0  0  0  0
    3.3120  -11.4320  -36.5470 H   0  0  0  0  0  0  0  0  0  0  0  0
    9.8250  -26.3630  -42.2710 N   0  0  0  0  0  0  0  0  0  0  0  0
   -2.5410  -18.5800  -35.9460 C   0  0  0  0  0  0  0  0  0  0  0  0
   -2.5170  -19.5930  -35.5460 H   0  0  0  0  0  0  0  0  0  0  0  0
   -3.5530  -18.3430  -36.2750 H   0  0  0  0  0  0  0  0  0  0  0  0
   -2.2370  -17.8760  -35.1720 H   0  0  0  0  0  0  0  0  0  0  0  0
    8.5450  -26.0970  -42.3050 N   0  0  0  0  0  0  0  0  0  0  0  0
   -0.0010  -19.5660  -38.7080 C   0  0  0  0  0  0  0  0  0  0  0  0
    1.0060  -18.7600  -39.1560 C   0  0  0  0  0  0  0  0  0  0  0  0
    1.3830  -17.9130  -38.6020 H   0  0  0  0  0  0  0  0  0  0  0  0
    1.5110  -19.1540  -40.4380 C   0  0  0  0  0  0  0  0  0  0  0  0
    2.4370  -18.2930  -41.1930 C   0  0  0  0  0  0  0  0  0  0  0  0
    3.6680  -18.6130  -41.6270 C   0  0  0  0  0  0  0  0  0  0  0  0
    4.3850  -19.8810  -41.4270 C   0  0  0  0  0  0  0  0  0  0  0  0
    5.0190  -20.2670  -40.2680 C   0  0  0  0  0  0  0  0  0  0  0  0
    5.1940  -19.5340  -38.9700 C   0  0  0  0  0  0  0  0  0  0  0  0
    4.7190  -18.5560  -39.0380 H   0  0  0  0  0  0  0  0  0  0  0  0
    6.2570  -19.4080  -38.7650 H   0  0  0  0  0  0  0  0  0  0  0  0
    4.7340  -20.1070  -38.1650 H   0  0  0  0  0  0  0  0  0  0  0  0
    5.1080  -22.0120  -42.0500 C   0  0  0  0  0  0  0  0  0  0  0  0
    5.3840  -23.3360  -42.6510 C   0  0  0  0  0  0  0  0  0  0  0  0
    6.8690  -24.9640  -43.7570 C   0  0  0  0  0  0  0  0  0  0  0  0
    6.7390  -24.8890  -44.8370 H   0  0  0  0  0  0  0  0  0  0  0  0
    6.1510  -25.6780  -43.3540 H   0  0  0  0  0  0  0  0  0  0  0  0
    8.2660  -25.3900  -43.4290 C   0  0  0  0  0  0  0  0  0  0  0  0
    9.4270  -25.2320  -44.1260 C   0  0  0  0  0  0  0  0  0  0  0  0
    9.5610  -24.7320  -45.0740 H   0  0  0  0  0  0  0  0  0  0  0  0
   11.8040  -25.8980  -43.6520 C   0  0  0  0  0  0  0  0  0  0  0  0
   11.9590  -25.8500  -44.7290 H   0  0  0  0  0  0  0  0  0  0  0  0
   12.1910  -26.8420  -43.2700 H   0  0  0  0  0  0  0  0  0  0  0  0
   12.5600  -24.7650  -43.0010 C   0  0  0  0  0  0  0  0  0  0  0  0
   13.6220  -24.8570  -43.2320 H   0  0  0  0  0  0  0  0  0  0  0  0
   12.4190  -24.8060  -41.9210 H   0  0  0  0  0  0  0  0  0  0  0  0
   12.1870  -23.8140  -43.3800 H   0  0  0  0  0  0  0  0  0  0  0  0
    7.8880  -22.8440  -42.9700 C   0  0  0  0  0  0  0  0  0  0  0  0
    7.6210  -21.9000  -42.4950 H   0  0  0  0  0  0  0  0  0  0  0  0
    8.3300  -22.6460  -43.9470 H   0  0  0  0  0  0  0  0  0  0  0  0
    8.6070  -23.3740  -42.3460 H   0  0  0  0  0  0  0  0  0  0  0  0
    4.4380  -20.8840  -42.4440 C   0  0  0  0  0  0  0  0  0  0  0  0
    3.9960  -20.7650  -43.4220 H   0  0  0  0  0  0  0  0  0  0  0  0
    4.2850  -17.4890  -42.4210 C   0  0  0  0  0  0  0  0  0  0  0  0
    5.3010  -17.4060  -42.7800 H   0  0  0  0  0  0  0  0  0  0  0  0
    3.1400  -16.4960  -42.6000 C   0  0  0  0  0  0  0  0  0  0  0  0
    2.7610  -16.5410  -43.6210 H   0  0  0  0  0  0  0  0  0  0  0  0
    3.4840  -15.4840  -42.3840 H   0  0  0  0  0  0  0  0  0  0  0  0
    2.0470  -16.8980  -41.6170 C   0  0  0  0  0  0  0  0  0  0  0  0
    1.1930  -16.3200  -41.2990 H   0  0  0  0  0  0  0  0  0  0  0  0
    0.8950  -20.2820  -40.9230 C   0  0  0  0  0  0  0  0  0  0  0  0
    1.1060  -21.0250  -42.2070 C   0  0  0  0  0  0  0  0  0  0  0  0
    0.4310  -21.8790  -42.2490 H   0  0  0  0  0  0  0  0  0  0  0  0
    2.1380  -21.3740  -42.2600 H   0  0  0  0  0  0  0  0  0  0  0  0
    0.9050  -20.3610  -43.0480 H   0  0  0  0  0  0  0  0  0  0  0  0
    5.6860  -21.8630  -40.4310 S   0  0  0  0  0  0  0  0  0  0  0  0
  1 28  1  0  0  0  0
  2  1  1  0  0  0  0
  2  3  2  0  0  0  0
  4  5  1  0  0  0  0
  4  1  1  0  0  0  0
  4 10  1  0  0  0  0
  6  4  1  0  0  0  0
  7 15  1  0  0  0  0
  7 11  1  0  0  0  0
  8 46  2  0  0  0  0
  9 33  1  0  0  0  0
 10 14  1  0  0  0  0
 12 10  2  0  0  0  0
 12  7  1  0  0  0  0
 13 12  1  0  0  0  0
 14 11  2  0  0  0  0
 15 16  1  0  0  0  0
 17 15  1  0  0  0  0
 18 60  1  0  0  0  0
 18 46  1  0  0  0  0
 19 21  1  0  0  0  0
 19 15  1  0  0  0  0
 20 19  1  0  0  0  0
 22 27  1  0  0  0  0
 23 19  1  0  0  0  0
 23 26  1  0  0  0  0
 24 23  1  0  0  0  0
 25 23  1  0  0  0  0
 28 29  1  0  0  0  0
 28 31  1  0  0  0  0
 30 28  1  0  0  0  0
 32 27  2  0  0  0  0
 33  2  1  0  0  0  0
 34 33  2  0  0  0  0
 34 35  1  0  0  0  0
 36 34  1  0  0  0  0
 37 36  1  0  0  0  0
 38 39  1  0  0  0  0
 38 37  2  0  0  0  0
 39 40  2  0  0  0  0
 40 41  1  0  0  0  0
 41 43  1  0  0  0  0
 41 44  1  0  0  0  0
 42 41  1  0  0  0  0
 45 78  1  0  0  0  0
 46 45  1  0  0  0  0
 47 50  1  0  0  0  0
 47 49  1  0  0  0  0
 47 18  1  0  0  0  0
 48 47  1  0  0  0  0
 50 32  1  0  0  0  0
 51 50  2  0  0  0  0
 51 22  1  0  0  0  0
 52 51  1  0  0  0  0
 53 22  1  0  0  0  0
 53 55  1  0  0  0  0
 53 56  1  0  0  0  0
 54 53  1  0  0  0  0
 56 58  1  0  0  0  0
 57 56  1  0  0  0  0
 59 56  1  0  0  0  0
 60 61  1  0  0  0  0
 60 63  1  0  0  0  0
 62 60  1  0  0  0  0
 64 45  2  0  0  0  0
 64 39  1  0  0  0  0
 65 64  1  0  0  0  0
 66 38  1  0  0  0  0
 67 66  1  0  0  0  0
 68 66  1  0  0  0  0
 68 70  1  0  0  0  0
 68 71  1  0  0  0  0
 69 68  1  0  0  0  0
 71 72  1  0  0  0  0
 71 37  1  0  0  0  0
 73 36  2  0  0  0  0
 73  9  1  0  0  0  0
 74 73  1  0  0  0  0
 75 74  1  0  0  0  0
 76 74  1  0  0  0  0
 77 74  1  0  0  0  0
 78 40  1  0  0  0  0
M  END
>  <Pose>
1

>  <Score>
-5.76

$$$$

 OpenBabel03102210483D

 78 82  0  0  0  0  0  0  0  0999 V2000
   -1.8940  -22.4320  -41.2770 N   0  0  0  0  0  0  0  0  0  0  0  0
   -1.0640  -21.3350  -40.8470 C   0  0  0  0  0  0  0  0  0  0  0  0
    0.1290  -21.2750  -41.1580 O   0  0  0  0  0  0  0  0  0  0  0  0
   -3.3010  -22.5510  -40.9170 C   0  0  0  0  0  0  0  0  0  0  0  0
   -3.8690  -22.8080  -41.8110 H   0  0  0  0  0  0  0  0  0  0  0  0
   -3.6450  -21.5920  -40.5310 H   0  0  0  0  0  0  0  0  0  0  0  0
   -4.2960  -25.1900  -38.6460 N   0  0  0  0  0  0  0  0  0  0  0  0
    2.9480  -17.4880  -35.9540 O   0  0  0  0  0  0  0  0  0  0  0  0
   -1.8340  -20.5640  -38.4050 S   0  0  0  0  0  0  0  0  0  0  0  0
   -3.5400  -23.6030  -39.8770 C   0  0  0  0  0  0  0  0  0  0  0  0
   -3.3690  -24.5390  -37.9230 N   0  0  0  0  0  0  0  0  0  0  0  0
   -4.4180  -24.6460  -39.8650 C   0  0  0  0  0  0  0  0  0  0  0  0
   -5.0710  -24.9650  -40.6650 H   0  0  0  0  0  0  0  0  0  0  0  0
   -2.9070  -23.5720  -38.6770 N   0  0  0  0  0  0  0  0  0  0  0  0
   -5.0410  -26.3130  -38.0790 C   0  0  0  0  0  0  0  0  0  0  0  0
   -4.4930  -27.2360  -38.2670 H   0  0  0  0  0  0  0  0  0  0  0  0
   -6.0210  -26.3690  -38.5520 H   0  0  0  0  0  0  0  0  0  0  0  0
    2.3350  -19.1010  -37.5050 N   0  0  0  0  0  0  0  0  0  0  0  0
   -5.2200  -26.1350  -36.5780 C   0  0  0  0  0  0  0  0  0  0  0  0
   -6.1710  -26.5760  -36.2790 H   0  0  0  0  0  0  0  0  0  0  0  0
   -5.2240  -25.0700  -36.3440 H   0  0  0  0  0  0  0  0  0  0  0  0
    5.7460  -19.6680  -39.8910 N   0  0  0  0  0  0  0  0  0  0  0  0
   -4.1160  -26.7970  -35.8200 C   0  0  0  0  0  0  0  0  0  0  0  0
   -4.1060  -27.8630  -36.0490 H   0  0  0  0  0  0  0  0  0  0  0  0
   -4.2740  -26.6570  -34.7510 H   0  0  0  0  0  0  0  0  0  0  0  0
   -3.1620  -26.3550  -36.1080 H   0  0  0  0  0  0  0  0  0  0  0  0
    6.4730  -19.1580  -38.8850 N   0  0  0  0  0  0  0  0  0  0  0  0
   -1.3410  -23.4960  -42.1080 C   0  0  0  0  0  0  0  0  0  0  0  0
   -0.2890  -23.2920  -42.3060 H   0  0  0  0  0  0  0  0  0  0  0  0
   -1.8860  -23.5400  -43.0510 H   0  0  0  0  0  0  0  0  0  0  0  0
   -1.4350  -24.4490  -41.5880 H   0  0  0  0  0  0  0  0  0  0  0  0
    5.7260  -19.2030  -37.8120 N   0  0  0  0  0  0  0  0  0  0  0  0
   -1.6390  -20.2020  -40.0800 C   0  0  0  0  0  0  0  0  0  0  0  0
   -2.0740  -18.9390  -40.3650 C   0  0  0  0  0  0  0  0  0  0  0  0
   -2.0600  -18.5150  -41.3580 H   0  0  0  0  0  0  0  0  0  0  0  0
   -2.5510  -18.2350  -39.2120 C   0  0  0  0  0  0  0  0  0  0  0  0
   -2.8520  -16.7950  -39.2650 C   0  0  0  0  0  0  0  0  0  0  0  0
   -2.1460  -15.8000  -38.7010 C   0  0  0  0  0  0  0  0  0  0  0  0
   -0.9310  -15.9170  -37.8830 C   0  0  0  0  0  0  0  0  0  0  0  0
   -0.5620  -15.0610  -36.8710 C   0  0  0  0  0  0  0  0  0  0  0  0
   -1.2260  -13.8100  -36.3710 C   0  0  0  0  0  0  0  0  0  0  0  0
   -2.1290  -13.6220  -36.9510 H   0  0  0  0  0  0  0  0  0  0  0  0
   -0.5420  -12.9680  -36.4800 H   0  0  0  0  0  0  0  0  0  0  0  0
   -1.4880  -13.9330  -35.3200 H   0  0  0  0  0  0  0  0  0  0  0  0
    1.0230  -16.9670  -37.1520 C   0  0  0  0  0  0  0  0  0  0  0  0
    2.1660  -17.8500  -36.8300 C   0  0  0  0  0  0  0  0  0  0  0  0
    3.4560  -19.9350  -37.0970 C   0  0  0  0  0  0  0  0  0  0  0  0
    3.1550  -20.9820  -37.0630 H   0  0  0  0  0  0  0  0  0  0  0  0
    3.8190  -19.6280  -36.1160 H   0  0  0  0  0  0  0  0  0  0  0  0
    4.5180  -19.7320  -38.1330 C   0  0  0  0  0  0  0  0  0  0  0  0
    4.5330  -20.0450  -39.4590 C   0  0  0  0  0  0  0  0  0  0  0  0
    3.7400  -20.4980  -40.0360 H   0  0  0  0  0  0  0  0  0  0  0  0
    6.2540  -19.7320  -41.2640 C   0  0  0  0  0  0  0  0  0  0  0  0
    7.3220  -19.5130  -41.2540 H   0  0  0  0  0  0  0  0  0  0  0  0
    5.7350  -18.9860  -41.8660 H   0  0  0  0  0  0  0  0  0  0  0  0
    6.0430  -21.0900  -41.8890 C   0  0  0  0  0  0  0  0  0  0  0  0
    6.4360  -21.0880  -42.9050 H   0  0  0  0  0  0  0  0  0  0  0  0
    4.9780  -21.3190  -41.9110 H   0  0  0  0  0  0  0  0  0  0  0  0
    6.5640  -21.8460  -41.3000 H   0  0  0  0  0  0  0  0  0  0  0  0
    1.5430  -19.5740  -38.6350 C   0  0  0  0  0  0  0  0  0  0  0  0
    0.7400  -18.8640  -38.8370 H   0  0  0  0  0  0  0  0  0  0  0  0
    1.1150  -20.5480  -38.3960 H   0  0  0  0  0  0  0  0  0  0  0  0
    2.1800  -19.6620  -39.5140 H   0  0  0  0  0  0  0  0  0  0  0  0
   -0.0190  -17.0070  -38.0390 C   0  0  0  0  0  0  0  0  0  0  0  0
   -0.1400  -17.7840  -38.7800 H   0  0  0  0  0  0  0  0  0  0  0  0
   -2.7330  -14.4490  -39.0310 C   0  0  0  0  0  0  0  0  0  0  0  0
   -2.4630  -13.4880  -38.6190 H   0  0  0  0  0  0  0  0  0  0  0  0
   -3.7950  -14.7590  -40.0810 C   0  0  0  0  0  0  0  0  0  0  0  0
   -3.4450  -14.4580  -41.0680 H   0  0  0  0  0  0  0  0  0  0  0  0
   -4.7190  -14.2310  -39.8460 H   0  0  0  0  0  0  0  0  0  0  0  0
   -4.0290  -16.2640  -40.0450 C   0  0  0  0  0  0  0  0  0  0  0  0
   -4.8470  -16.8210  -40.4770 H   0  0  0  0  0  0  0  0  0  0  0  0
   -2.4990  -18.9990  -38.0700 C   0  0  0  0  0  0  0  0  0  0  0  0
   -2.8880  -18.6630  -36.6630 C   0  0  0  0  0  0  0  0  0  0  0  0
   -2.7060  -19.5250  -36.0200 H   0  0  0  0  0  0  0  0  0  0  0  0
   -3.9460  -18.4020  -36.6300 H   0  0  0  0  0  0  0  0  0  0  0  0
   -2.2940  -17.8180  -36.3130 H   0  0  0  0  0  0  0  0  0  0  0  0
    0.9080  -15.5930  -36.1140 S   0  0  0  0  0  0  0  0  0  0  0  0
  1  4  1  0  0  0  0
  1  2  1  0  0  0  0
  2 33  1  0  0  0  0
  3  2  2  0  0  0  0
  4  6  1  0  0  0  0
  4 10  1  0  0  0  0
  5  4  1  0  0  0  0
  7 15  1  0  0  0  0
  7 11  1  0  0  0  0
  9 73  1  0  0  0  0
 10 12  2  0  0  0  0
 10 14  1  0  0  0  0
 12  7  1  0  0  0  0
 13 12  1  0  0  0  0
 14 11  2  0  0  0  0
 15 19  1  0  0  0  0
 16 15  1  0  0  0  0
 17 15  1  0  0  0  0
 18 47  1  0  0  0  0
 18 46  1  0  0  0  0
 19 21  1  0  0  0  0
 19 20  1  0  0  0  0
 19 23  1  0  0  0  0
 22 51  1  0  0  0  0
 22 27  1  0  0  0  0
 23 25  1  0  0  0  0
 24 23  1  0  0  0  0
 26 23  1  0  0  0  0
 27 32  2  0  0  0  0
 28 31  1  0  0  0  0
 28  1  1  0  0  0  0
 29 28  1  0  0  0  0
 30 28  1  0  0  0  0
 33  9  1  0  0  0  0
 34 33  2  0  0  0  0
 34 36  1  0  0  0  0
 35 34  1  0  0  0  0
 36 73  2  0  0  0  0
 37 36  1  0  0  0  0
 37 38  2  0  0  0  0
 38 39  1  0  0  0  0
 39 40  2  0  0  0  0
 40 41  1  0  0  0  0
 40 78  1  0  0  0  0
 41 44  1  0  0  0  0
 42 41  1  0  0  0  0
 43 41  1  0  0  0  0
 45 46  1  0  0  0  0
 45 78  1  0  0  0  0
 46  8  2  0  0  0  0
 47 48  1  0  0  0  0
 47 49  1  0  0  0  0
 50 32  1  0  0  0  0
 50 47  1  0  0  0  0
 51 50  2  0  0  0  0
 52 51  1  0  0  0  0
 53 54  1  0  0  0  0
 53 22  1  0  0  0  0
 55 53  1  0  0  0  0
 56 59  1  0  0  0  0
 56 53  1  0  0  0  0
 57 56  1  0  0  0  0
 58 56  1  0  0  0  0
 60 62  1  0  0  0  0
 60 18  1  0  0  0  0
 61 60  1  0  0  0  0
 63 60  1  0  0  0  0
 64 39  1  0  0  0  0
 64 45  2  0  0  0  0
 65 64  1  0  0  0  0
 66 38  1  0  0  0  0
 66 67  1  0  0  0  0
 68 71  1  0  0  0  0
 68 70  1  0  0  0  0
 68 66  1  0  0  0  0
 69 68  1  0  0  0  0
 71 37  1  0  0  0  0
 72 71  1  0  0  0  0
 73 74  1  0  0  0  0
 74 76  1  0  0  0  0
 74 77  1  0  0  0  0
 74 75  1  0  0  0  0
M  END
>  <Pose>
1

>  <Score>
-5.70

$$$$

 OpenBabel03102210483D

 78 82  0  0  0  0  0  0  0  0999 V2000
    0.3380  -17.9660  -38.4420 N   0  0  0  0  0  0  0  0  0  0  0  0
    1.2010  -19.1100  -38.2890 C   0  0  0  0  0  0  0  0  0  0  0  0
    0.8910  -20.0520  -37.5550 O   0  0  0  0  0  0  0  0  0  0  0  0
    0.6730  -16.8250  -39.2840 C   0  0  0  0  0  0  0  0  0  0  0  0
   -0.1860  -16.5880  -39.9110 H   0  0  0  0  0  0  0  0  0  0  0  0
    1.5210  -17.0930  -39.9150 H   0  0  0  0  0  0  0  0  0  0  0  0
    1.0910  -13.9170  -37.1670 N   0  0  0  0  0  0  0  0  0  0  0  0
    0.0660  -23.0210  -41.3180 O   0  0  0  0  0  0  0  0  0  0  0  0
    3.7740  -19.8230  -38.1330 S   0  0  0  0  0  0  0  0  0  0  0  0
    1.0340  -15.6100  -38.4850 C   0  0  0  0  0  0  0  0  0  0  0  0
    2.0970  -13.7650  -38.0460 N   0  0  0  0  0  0  0  0  0  0  0  0
    0.4210  -15.0550  -37.4010 C   0  0  0  0  0  0  0  0  0  0  0  0
   -0.4210  -15.4470  -36.8500 H   0  0  0  0  0  0  0  0  0  0  0  0
    2.0610  -14.8000  -38.8480 N   0  0  0  0  0  0  0  0  0  0  0  0
    0.8250  -12.9060  -36.1450 C   0  0  0  0  0  0  0  0  0  0  0  0
    1.3800  -11.9990  -36.3860 H   0  0  0  0  0  0  0  0  0  0  0  0
    1.1490  -13.2830  -35.1750 H   0  0  0  0  0  0  0  0  0  0  0  0
    0.3480  -24.6380  -42.9570 N   0  0  0  0  0  0  0  0  0  0  0  0
   -0.6600  -12.5810  -36.0840 C   0  0  0  0  0  0  0  0  0  0  0  0
   -1.1890  -13.4170  -35.6260 H   0  0  0  0  0  0  0  0  0  0  0  0
   -1.0320  -12.4270  -37.0970 H   0  0  0  0  0  0  0  0  0  0  0  0
   -0.5870  -27.8070  -40.2280 N   0  0  0  0  0  0  0  0  0  0  0  0
   -0.9100  -11.3470  -35.2800 C   0  0  0  0  0  0  0  0  0  0  0  0
   -0.5400  -11.4930  -34.2650 H   0  0  0  0  0  0  0  0  0  0  0  0
   -1.9800  -11.1420  -35.2510 H   0  0  0  0  0  0  0  0  0  0  0  0
   -0.3920  -10.5040  -35.7370 H   0  0  0  0  0  0  0  0  0  0  0  0
   -0.6900  -26.7170  -39.4510 N   0  0  0  0  0  0  0  0  0  0  0  0
   -0.9390  -17.9040  -37.7390 C   0  0  0  0  0  0  0  0  0  0  0  0
   -1.0720  -18.8100  -37.1480 H   0  0  0  0  0  0  0  0  0  0  0  0
   -1.7490  -17.8200  -38.4630 H   0  0  0  0  0  0  0  0  0  0  0  0
   -0.9490  -17.0350  -37.0800 H   0  0  0  0  0  0  0  0  0  0  0  0
   -0.8310  -25.6900  -40.2480 N   0  0  0  0  0  0  0  0  0  0  0  0
    2.4580  -19.2240  -39.0720 C   0  0  0  0  0  0  0  0  0  0  0  0
    2.8460  -18.9570  -40.3530 C   0  0  0  0  0  0  0  0  0  0  0  0
    2.1840  -18.5550  -41.1050 H   0  0  0  0  0  0  0  0  0  0  0  0
    4.2250  -19.2640  -40.5970 C   0  0  0  0  0  0  0  0  0  0  0  0
    4.7800  -19.2600  -41.9610 C   0  0  0  0  0  0  0  0  0  0  0  0
    4.6560  -20.2250  -42.8870 C   0  0  0  0  0  0  0  0  0  0  0  0
    3.9650  -21.5150  -42.7480 C   0  0  0  0  0  0  0  0  0  0  0  0
    4.5760  -22.7460  -42.6760 C   0  0  0  0  0  0  0  0  0  0  0  0
    6.0290  -23.1120  -42.7610 C   0  0  0  0  0  0  0  0  0  0  0  0
    6.6230  -22.2090  -42.9020 H   0  0  0  0  0  0  0  0  0  0  0  0
    6.1860  -23.7850  -43.6040 H   0  0  0  0  0  0  0  0  0  0  0  0
    6.3340  -23.6070  -41.8390 H   0  0  0  0  0  0  0  0  0  0  0  0
    2.0950  -22.8810  -42.4460 C   0  0  0  0  0  0  0  0  0  0  0  0
    0.7800  -23.5100  -42.1900 C   0  0  0  0  0  0  0  0  0  0  0  0
   -0.9780  -25.1680  -42.6790 C   0  0  0  0  0  0  0  0  0  0  0  0
   -1.3680  -25.6910  -43.5530 H   0  0  0  0  0  0  0  0  0  0  0  0
   -1.6580  -24.3620  -42.4040 H   0  0  0  0  0  0  0  0  0  0  0  0
   -0.8090  -26.1200  -41.5360 C   0  0  0  0  0  0  0  0  0  0  0  0
   -0.6690  -27.4760  -41.5260 C   0  0  0  0  0  0  0  0  0  0  0  0
   -0.6310  -28.1390  -42.3770 H   0  0  0  0  0  0  0  0  0  0  0  0
   -0.3690  -29.1440  -39.6690 C   0  0  0  0  0  0  0  0  0  0  0  0
    0.1770  -29.0480  -38.7310 H   0  0  0  0  0  0  0  0  0  0  0  0
    0.2230  -29.7270  -40.3750 H   0  0  0  0  0  0  0  0  0  0  0  0
   -1.6650  -29.8710  -39.4050 C   0  0  0  0  0  0  0  0  0  0  0  0
   -1.4510  -30.8570  -38.9920 H   0  0  0  0  0  0  0  0  0  0  0  0
   -2.2170  -29.9810  -40.3380 H   0  0  0  0  0  0  0  0  0  0  0  0
   -2.2630  -29.3010  -38.6940 H   0  0  0  0  0  0  0  0  0  0  0  0
    1.1560  -25.3690  -43.9280 C   0  0  0  0  0  0  0  0  0  0  0  0
    2.1190  -24.8720  -44.0450 H   0  0  0  0  0  0  0  0  0  0  0  0
    0.6400  -25.3910  -44.8870 H   0  0  0  0  0  0  0  0  0  0  0  0
    1.3140  -26.3880  -43.5750 H   0  0  0  0  0  0  0  0  0  0  0  0
    2.5440  -21.5980  -42.6150 C   0  0  0  0  0  0  0  0  0  0  0  0
    1.8920  -20.7380  -42.6450 H   0  0  0  0  0  0  0  0  0  0  0  0
    5.3090  -19.8310  -44.1890 C   0  0  0  0  0  0  0  0  0  0  0  0
    5.4820  -20.4450  -45.0600 H   0  0  0  0  0  0  0  0  0  0  0  0
    5.6660  -18.3610  -43.9880 C   0  0  0  0  0  0  0  0  0  0  0  0
    4.9770  -17.7270  -44.5460 H   0  0  0  0  0  0  0  0  0  0  0  0
    6.6860  -18.1740  -44.3250 H   0  0  0  0  0  0  0  0  0  0  0  0
    5.5480  -18.0760  -42.4960 C   0  0  0  0  0  0  0  0  0  0  0  0
    5.9260  -17.2260  -41.9480 H   0  0  0  0  0  0  0  0  0  0  0  0
    4.8670  -19.7290  -39.4750 C   0  0  0  0  0  0  0  0  0  0  0  0
    6.2880  -20.1660  -39.2840 C   0  0  0  0  0  0  0  0  0  0  0  0
    6.4370  -20.4740  -38.2490 H   0  0  0  0  0  0  0  0  0  0  0  0
    6.9570  -19.3390  -39.5170 H   0  0  0  0  0  0  0  0  0  0  0  0
    6.5020  -21.0050  -39.9460 H   0  0  0  0  0  0  0  0  0  0  0  0
    3.4030  -24.0070  -42.4500 S   0  0  0  0  0  0  0  0  0  0  0  0
  1  2  1  0  0  0  0
  1 28  1  0  0  0  0
  2  3  2  0  0  0  0
  4 10  1  0  0  0  0
  4  1  1  0  0  0  0
  5  4  1  0  0  0  0
  6  4  1  0  0  0  0
  7 15  1  0  0  0  0
 10 12  2  0  0  0  0
 11  7  1  0  0  0  0
 12  7  1  0  0  0  0
 12 13  1  0  0  0  0
 14 10  1  0  0  0  0
 14 11  2  0  0  0  0
 15 19  1  0  0  0  0
 15 17  1  0  0  0  0
 16 15  1  0  0  0  0
 18 47  1  0  0  0  0
 18 46  1  0  0  0  0
 19 20  1  0  0  0  0
 19 23  1  0  0  0  0
 21 19  1  0  0  0  0
 22 53  1  0  0  0  0
 22 27  1  0  0  0  0
 23 25  1  0  0  0  0
 23 24  1  0  0  0  0
 26 23  1  0  0  0  0
 28 29  1  0  0  0  0
 28 31  1  0  0  0  0
 30 28  1  0  0  0  0
 32 27  2  0  0  0  0
 33  2  1  0  0  0  0
 33  9  1  0  0  0  0
 34 33  2  0  0  0  0
 35 34  1  0  0  0  0
 36 34  1  0  0  0  0
 36 73  2  0  0  0  0
 37 36  1  0  0  0  0
 38 39  1  0  0  0  0
 38 37  2  0  0  0  0
 39 40  2  0  0  0  0
 39 64  1  0  0  0  0
 40 78  1  0  0  0  0
 41 40  1  0  0  0  0
 41 44  1  0  0  0  0
 42 41  1  0  0  0  0
 43 41  1  0  0  0  0
 45 46  1  0  0  0  0
 46  8  2  0  0  0  0
 47 49  1  0  0  0  0
 47 50  1  0  0  0  0
 48 47  1  0  0  0  0
 50 51  2  0  0  0  0
 50 32  1  0  0  0  0
 51 22  1  0  0  0  0
 52 51  1  0  0  0  0
 53 56  1  0  0  0  0
 53 54  1  0  0  0  0
 55 53  1  0  0  0  0
 56 57  1  0  0  0  0
 56 59  1  0  0  0  0
 58 56  1  0  0  0  0
 60 63  1  0  0  0  0
 60 18  1  0  0  0  0
 61 60  1  0  0  0  0
 62 60  1  0  0  0  0
 64 45  2  0  0  0  0
 65 64  1  0  0  0  0
 66 68  1  0  0  0  0
 66 38  1  0  0  0  0
 67 66  1  0  0  0  0
 68 71  1  0  0  0  0
 69 68  1  0  0  0  0
 70 68  1  0  0  0  0
 71 37  1  0  0  0  0
 71 72  1  0  0  0  0
 73 74  1  0  0  0  0
 73  9  1  0  0  0  0
 74 75  1  0  0  0  0
 76 74  1  0  0  0  0
 77 74  1  0  0  0  0
 78 45  1  0  0  0  0
M  END
>  <Pose>
1

>  <Score>
-5.68

$$$$

 OpenBabel03102210483D

 78 82  0  0  0  0  0  0  0  0999 V2000
   10.6890  -25.9770  -43.0050 N   0  0  0  0  0  0  0  0  0  0  0  0
    9.3820  -25.3710  -42.9590 C   0  0  0  0  0  0  0  0  0  0  0  0
    8.5210  -25.7680  -42.1690 O   0  0  0  0  0  0  0  0  0  0  0  0
   11.7290  -25.5540  -43.9330 C   0  0  0  0  0  0  0  0  0  0  0  0
   11.2560  -25.1270  -44.8170 H   0  0  0  0  0  0  0  0  0  0  0  0
   12.3170  -26.4250  -44.2210 H   0  0  0  0  0  0  0  0  0  0  0  0
   13.9220  -22.8520  -42.9320 N   0  0  0  0  0  0  0  0  0  0  0  0
    2.6940  -24.5010  -42.0150 O   0  0  0  0  0  0  0  0  0  0  0  0
    9.3640  -24.4870  -45.4830 S   0  0  0  0  0  0  0  0  0  0  0  0
   12.6470  -24.5300  -43.3380 C   0  0  0  0  0  0  0  0  0  0  0  0
   14.1820  -23.7800  -41.9940 N   0  0  0  0  0  0  0  0  0  0  0  0
   12.9680  -23.2770  -43.7720 C   0  0  0  0  0  0  0  0  0  0  0  0
   12.5440  -22.7430  -44.6100 H   0  0  0  0  0  0  0  0  0  0  0  0
   13.4000  -24.8020  -42.2430 N   0  0  0  0  0  0  0  0  0  0  0  0
   14.6580  -21.5890  -42.9640 C   0  0  0  0  0  0  0  0  0  0  0  0
   15.3800  -21.6170  -43.7800 H   0  0  0  0  0  0  0  0  0  0  0  0
   15.1830  -21.4560  -42.0180 H   0  0  0  0  0  0  0  0  0  0  0  0
    3.9550  -25.6110  -43.6160 N   0  0  0  0  0  0  0  0  0  0  0  0
   13.7080  -20.4200  -43.1770 C   0  0  0  0  0  0  0  0  0  0  0  0
   12.6820  -20.7850  -43.1450 H   0  0  0  0  0  0  0  0  0  0  0  0
   13.9050  -19.9750  -44.1520 H   0  0  0  0  0  0  0  0  0  0  0  0
    0.7520  -26.2540  -46.3190 N   0  0  0  0  0  0  0  0  0  0  0  0
   13.8880  -19.3790  -42.1210 C   0  0  0  0  0  0  0  0  0  0  0  0
   13.6930  -19.8160  -41.1420 H   0  0  0  0  0  0  0  0  0  0  0  0
   13.1930  -18.5580  -42.2970 H   0  0  0  0  0  0  0  0  0  0  0  0
   14.9110  -19.0020  -42.1520 H   0  0  0  0  0  0  0  0  0  0  0  0
    1.5550  -27.2200  -46.7930 N   0  0  0  0  0  0  0  0  0  0  0  0
   11.0290  -27.0700  -42.1000 C   0  0  0  0  0  0  0  0  0  0  0  0
   10.1740  -27.2920  -41.4610 H   0  0  0  0  0  0  0  0  0  0  0  0
   11.8790  -26.7790  -41.4830 H   0  0  0  0  0  0  0  0  0  0  0  0
   11.2880  -27.9550  -42.6810 H   0  0  0  0  0  0  0  0  0  0  0  0
    2.4380  -27.4740  -45.8630 N   0  0  0  0  0  0  0  0  0  0  0  0
    9.0580  -24.1990  -43.8110 C   0  0  0  0  0  0  0  0  0  0  0  0
    8.5910  -22.9330  -43.6060 C   0  0  0  0  0  0  0  0  0  0  0  0
    8.3520  -22.5370  -42.6300 H   0  0  0  0  0  0  0  0  0  0  0  0
    8.4490  -22.1830  -44.8190 C   0  0  0  0  0  0  0  0  0  0  0  0
    7.7550  -20.8850  -44.8400 C   0  0  0  0  0  0  0  0  0  0  0  0
    6.6350  -20.5560  -44.1730 C   0  0  0  0  0  0  0  0  0  0  0  0
    5.8320  -21.4180  -43.2940 C   0  0  0  0  0  0  0  0  0  0  0  0
    5.4930  -21.1360  -41.9900 C   0  0  0  0  0  0  0  0  0  0  0  0
    5.8610  -19.9650  -41.1260 C   0  0  0  0  0  0  0  0  0  0  0  0
    6.4940  -19.2820  -41.6910 H   0  0  0  0  0  0  0  0  0  0  0  0
    6.4000  -20.3180  -40.2470 H   0  0  0  0  0  0  0  0  0  0  0  0
    4.9550  -19.4460  -40.8120 H   0  0  0  0  0  0  0  0  0  0  0  0
    4.5090  -23.2790  -42.8060 C   0  0  0  0  0  0  0  0  0  0  0  0
    3.6630  -24.4930  -42.7720 C   0  0  0  0  0  0  0  0  0  0  0  0
    3.0470  -26.7470  -43.5600 C   0  0  0  0  0  0  0  0  0  0  0  0
    2.4190  -26.6860  -42.6710 H   0  0  0  0  0  0  0  0  0  0  0  0
    3.6100  -27.6800  -43.5440 H   0  0  0  0  0  0  0  0  0  0  0  0
    2.2080  -26.6660  -44.7970 C   0  0  0  0  0  0  0  0  0  0  0  0
    1.1210  -25.8940  -45.0800 C   0  0  0  0  0  0  0  0  0  0  0  0
    0.6560  -25.1540  -44.4450 H   0  0  0  0  0  0  0  0  0  0  0  0
   -0.3340  -25.6820  -47.1200 C   0  0  0  0  0  0  0  0  0  0  0  0
   -0.2030  -25.9870  -48.1580 H   0  0  0  0  0  0  0  0  0  0  0  0
   -0.2850  -24.5950  -47.0510 H   0  0  0  0  0  0  0  0  0  0  0  0
   -1.6930  -26.1370  -46.6470 C   0  0  0  0  0  0  0  0  0  0  0  0
   -2.4650  -25.6860  -47.2710 H   0  0  0  0  0  0  0  0  0  0  0  0
   -1.8390  -25.8310  -45.6110 H   0  0  0  0  0  0  0  0  0  0  0  0
   -1.7570  -27.2230  -46.7170 H   0  0  0  0  0  0  0  0  0  0  0  0
    5.1370  -25.7560  -44.4590 C   0  0  0  0  0  0  0  0  0  0  0  0
    5.7290  -24.8430  -44.4150 H   0  0  0  0  0  0  0  0  0  0  0  0
    4.8290  -25.9400  -45.4880 H   0  0  0  0  0  0  0  0  0  0  0  0
    5.7350  -26.5950  -44.1030 H   0  0  0  0  0  0  0  0  0  0  0  0
    5.2650  -22.6460  -43.7560 C   0  0  0  0  0  0  0  0  0  0  0  0
    5.4170  -23.0350  -44.7520 H   0  0  0  0  0  0  0  0  0  0  0  0
    6.2630  -19.1110  -44.3950 C   0  0  0  0  0  0  0  0  0  0  0  0
    5.3560  -18.6040  -44.1000 H   0  0  0  0  0  0  0  0  0  0  0  0
    7.4660  -18.5330  -45.1360 C   0  0  0  0  0  0  0  0  0  0  0  0
    8.0570  -17.9130  -44.4620 H   0  0  0  0  0  0  0  0  0  0  0  0
    7.1330  -17.9340  -45.9830 H   0  0  0  0  0  0  0  0  0  0  0  0
    8.2950  -19.7140  -45.6230 C   0  0  0  0  0  0  0  0  0  0  0  0
    9.0860  -19.7140  -46.3590 H   0  0  0  0  0  0  0  0  0  0  0  0
    8.8500  -22.8930  -45.9260 C   0  0  0  0  0  0  0  0  0  0  0  0
    8.8670  -22.5010  -47.3720 C   0  0  0  0  0  0  0  0  0  0  0  0
    9.2540  -23.3280  -47.9680 H   0  0  0  0  0  0  0  0  0  0  0  0
    9.5060  -21.6280  -47.5050 H   0  0  0  0  0  0  0  0  0  0  0  0
    7.8540  -22.2630  -47.6960 H   0  0  0  0  0  0  0  0  0  0  0  0
    4.4810  -22.3840  -41.3300 S   0  0  0  0  0  0  0  0  0  0  0  0
  1  2  1  0  0  0  0
  1 28  1  0  0  0  0
  2  3  2  0  0  0  0
  4 10  1  0  0  0  0
  4  1  1  0  0  0  0
  5  4  1  0  0  0  0
  6  4  1  0  0  0  0
  7 11  1  0  0  0  0
  9 33  1  0  0  0  0
 10 14  1  0  0  0  0
 12 10  2  0  0  0  0
 12  7  1  0  0  0  0
 13 12  1  0  0  0  0
 14 11  2  0  0  0  0
 15  7  1  0  0  0  0
 15 17  1  0  0  0  0
 16 15  1  0  0  0  0
 18 47  1  0  0  0  0
 18 46  1  0  0  0  0
 19 20  1  0  0  0  0
 19 15  1  0  0  0  0
 19 23  1  0  0  0  0
 21 19  1  0  0  0  0
 22 51  1  0  0  0  0
 23 24  1  0  0  0  0
 25 23  1  0  0  0  0
 26 23  1  0  0  0  0
 27 22  1  0  0  0  0
 27 32  2  0  0  0  0
 28 30  1  0  0  0  0
 28 29  1  0  0  0  0
 31 28  1  0  0  0  0
 32 50  1  0  0  0  0
 33 34  2  0  0  0  0
 33  2  1  0  0  0  0
 34 35  1  0  0  0  0
 36 34  1  0  0  0  0
 37 36  1  0  0  0  0
 37 38  2  0  0  0  0
 38 39  1  0  0  0  0
 39 40  2  0  0  0  0
 40 78  1  0  0  0  0
 40 41  1  0  0  0  0
 41 44  1  0  0  0  0
 41 43  1  0  0  0  0
 42 41  1  0  0  0  0
 45 46  1  0  0  0  0
 45 78  1  0  0  0  0
 46  8  2  0  0  0  0
 47 49  1  0  0  0  0
 47 48  1  0  0  0  0
 50 47  1  0  0  0  0
 51 50  2  0  0  0  0
 51 52  1  0  0  0  0
 53 55  1  0  0  0  0
 53 56  1  0  0  0  0
 53 22  1  0  0  0  0
 54 53  1  0  0  0  0
 56 58  1  0  0  0  0
 57 56  1  0  0  0  0
 59 56  1  0  0  0  0
 60 61  1  0  0  0  0
 60 63  1  0  0  0  0
 60 18  1  0  0  0  0
 62 60  1  0  0  0  0
 64 39  1  0  0  0  0
 64 45  2  0  0  0  0
 65 64  1  0  0  0  0
 66 38  1  0  0  0  0
 66 67  1  0  0  0  0
 68 69  1  0  0  0  0
 68 66  1  0  0  0  0
 70 68  1  0  0  0  0
 71 68  1  0  0  0  0
 71 37  1  0  0  0  0
 72 71  1  0  0  0  0
 73  9  1  0  0  0  0
 73 36  2  0  0  0  0
 74 73  1  0  0  0  0
 75 74  1  0  0  0  0
 76 74  1  0  0  0  0
 77 74  1  0  0  0  0
M  END
>  <Pose>
1

>  <Score>
-5.18

$$$$

 OpenBabel03102210483D

 78 82  0  0  0  0  0  0  0  0999 V2000
   10.6790  -26.5890  -43.3530 N   0  0  0  0  0  0  0  0  0  0  0  0
    9.5320  -25.7780  -43.0310 C   0  0  0  0  0  0  0  0  0  0  0  0
    8.9520  -25.8920  -41.9470 O   0  0  0  0  0  0  0  0  0  0  0  0
   11.3820  -26.5000  -44.6260 C   0  0  0  0  0  0  0  0  0  0  0  0
   11.5430  -25.4480  -44.8640 H   0  0  0  0  0  0  0  0  0  0  0  0
   10.7630  -26.9560  -45.4000 H   0  0  0  0  0  0  0  0  0  0  0  0
   14.3360  -28.5930  -44.6650 N   0  0  0  0  0  0  0  0  0  0  0  0
    5.1550  -22.1670  -39.1170 O   0  0  0  0  0  0  0  0  0  0  0  0
    8.4680  -25.3710  -45.4500 S   0  0  0  0  0  0  0  0  0  0  0  0
   12.7080  -27.1950  -44.5990 C   0  0  0  0  0  0  0  0  0  0  0  0
   14.7780  -27.5030  -44.0130 N   0  0  0  0  0  0  0  0  0  0  0  0
   13.0640  -28.4320  -45.0540 C   0  0  0  0  0  0  0  0  0  0  0  0
   12.4520  -29.1290  -45.6070 H   0  0  0  0  0  0  0  0  0  0  0  0
   13.7840  -26.6510  -43.9770 N   0  0  0  0  0  0  0  0  0  0  0  0
   15.1970  -29.7600  -44.8490 C   0  0  0  0  0  0  0  0  0  0  0  0
   16.2320  -29.4740  -44.6620 H   0  0  0  0  0  0  0  0  0  0  0  0
   15.0980  -30.1200  -45.8730 H   0  0  0  0  0  0  0  0  0  0  0  0
    4.5460  -19.9410  -39.3640 N   0  0  0  0  0  0  0  0  0  0  0  0
   14.8050  -30.8730  -43.8880 C   0  0  0  0  0  0  0  0  0  0  0  0
   15.2380  -31.8110  -44.2350 H   0  0  0  0  0  0  0  0  0  0  0  0
   13.7190  -30.9600  -43.8680 H   0  0  0  0  0  0  0  0  0  0  0  0
    0.6960  -19.1130  -37.9120 N   0  0  0  0  0  0  0  0  0  0  0  0
   15.2970  -30.5900  -42.5050 C   0  0  0  0  0  0  0  0  0  0  0  0
   16.3830  -30.5020  -42.5170 H   0  0  0  0  0  0  0  0  0  0  0  0
   15.0060  -31.4050  -41.8430 H   0  0  0  0  0  0  0  0  0  0  0  0
   14.8610  -29.6580  -42.1480 H   0  0  0  0  0  0  0  0  0  0  0  0
    1.2280  -17.9480  -37.5100 N   0  0  0  0  0  0  0  0  0  0  0  0
   11.1920  -27.5580  -42.3920 C   0  0  0  0  0  0  0  0  0  0  0  0
   10.5860  -27.5290  -41.4870 H   0  0  0  0  0  0  0  0  0  0  0  0
   12.2250  -27.3130  -42.1450 H   0  0  0  0  0  0  0  0  0  0  0  0
   11.1500  -28.5570  -42.8250 H   0  0  0  0  0  0  0  0  0  0  0  0
    2.5260  -18.1100  -37.4800 N   0  0  0  0  0  0  0  0  0  0  0  0
    9.0590  -24.7250  -43.9650 C   0  0  0  0  0  0  0  0  0  0  0  0
    8.9860  -23.3620  -43.9550 C   0  0  0  0  0  0  0  0  0  0  0  0
    9.3210  -22.7530  -43.1290 H   0  0  0  0  0  0  0  0  0  0  0  0
    8.4200  -22.8210  -45.1560 C   0  0  0  0  0  0  0  0  0  0  0  0
    8.0500  -21.4000  -45.2550 C   0  0  0  0  0  0  0  0  0  0  0  0
    7.1480  -20.7450  -44.5050 C   0  0  0  0  0  0  0  0  0  0  0  0
    6.3060  -21.2960  -43.4340 C   0  0  0  0  0  0  0  0  0  0  0  0
    5.5940  -22.4730  -43.5020 C   0  0  0  0  0  0  0  0  0  0  0  0
    5.4420  -23.4480  -44.6330 C   0  0  0  0  0  0  0  0  0  0  0  0
    6.0120  -23.0980  -45.4940 H   0  0  0  0  0  0  0  0  0  0  0  0
    4.3890  -23.5300  -44.9030 H   0  0  0  0  0  0  0  0  0  0  0  0
    5.8150  -24.4240  -44.3230 H   0  0  0  0  0  0  0  0  0  0  0  0
    5.4040  -21.3520  -41.2810 C   0  0  0  0  0  0  0  0  0  0  0  0
    5.0240  -21.1960  -39.8590 C   0  0  0  0  0  0  0  0  0  0  0  0
    4.2420  -19.8550  -37.9440 C   0  0  0  0  0  0  0  0  0  0  0  0
    4.9100  -19.1450  -37.4550 H   0  0  0  0  0  0  0  0  0  0  0  0
    4.3440  -20.8330  -37.4740 H   0  0  0  0  0  0  0  0  0  0  0  0
    2.8240  -19.3800  -37.8550 C   0  0  0  0  0  0  0  0  0  0  0  0
    1.6570  -20.0200  -38.1460 C   0  0  0  0  0  0  0  0  0  0  0  0
    1.5320  -21.0360  -38.4910 H   0  0  0  0  0  0  0  0  0  0  0  0
   -0.7520  -19.3130  -38.0150 C   0  0  0  0  0  0  0  0  0  0  0  0
   -1.2400  -18.3390  -38.0380 H   0  0  0  0  0  0  0  0  0  0  0  0
   -1.0930  -19.8690  -37.1420 H   0  0  0  0  0  0  0  0  0  0  0  0
   -1.1360  -20.0780  -39.2590 C   0  0  0  0  0  0  0  0  0  0  0  0
   -2.2190  -20.2000  -39.2900 H   0  0  0  0  0  0  0  0  0  0  0  0
   -0.6590  -21.0580  -39.2440 H   0  0  0  0  0  0  0  0  0  0  0  0
   -0.8070  -19.5270  -40.1400 H   0  0  0  0  0  0  0  0  0  0  0  0
    4.2420  -18.7660  -40.1730 C   0  0  0  0  0  0  0  0  0  0  0  0
    4.5160  -18.9590  -41.2100 H   0  0  0  0  0  0  0  0  0  0  0  0
    4.8080  -17.9120  -39.8010 H   0  0  0  0  0  0  0  0  0  0  0  0
    3.1760  -18.5490  -40.1120 H   0  0  0  0  0  0  0  0  0  0  0  0
    6.1930  -20.6590  -42.1600 C   0  0  0  0  0  0  0  0  0  0  0  0
    6.6810  -19.7280  -41.9140 H   0  0  0  0  0  0  0  0  0  0  0  0
    7.0920  -19.2790  -44.8600 C   0  0  0  0  0  0  0  0  0  0  0  0
    6.3810  -18.5390  -44.5230 H   0  0  0  0  0  0  0  0  0  0  0  0
    8.2740  -19.0870  -45.8070 C   0  0  0  0  0  0  0  0  0  0  0  0
    9.0850  -18.5720  -45.2930 H   0  0  0  0  0  0  0  0  0  0  0  0
    7.9670  -18.5060  -46.6760 H   0  0  0  0  0  0  0  0  0  0  0  0
    8.7250  -20.4760  -46.2390 C   0  0  0  0  0  0  0  0  0  0  0  0
    9.3770  -20.7390  -47.0590 H   0  0  0  0  0  0  0  0  0  0  0  0
    8.1050  -23.7950  -46.0740 C   0  0  0  0  0  0  0  0  0  0  0  0
    7.4980  -23.6780  -47.4390 C   0  0  0  0  0  0  0  0  0  0  0  0
    7.3940  -24.6710  -47.8760 H   0  0  0  0  0  0  0  0  0  0  0  0
    8.1420  -23.0680  -48.0720 H   0  0  0  0  0  0  0  0  0  0  0  0
    6.5160  -23.2110  -47.3610 H   0  0  0  0  0  0  0  0  0  0  0  0
    4.7830  -22.7930  -42.0000 S   0  0  0  0  0  0  0  0  0  0  0  0
  1  2  1  0  0  0  0
  1 28  1  0  0  0  0
  2  3  2  0  0  0  0
  4 10  1  0  0  0  0
  4  1  1  0  0  0  0
  5  4  1  0  0  0  0
  6  4  1  0  0  0  0
  7 11  1  0  0  0  0
  9 33  1  0  0  0  0
 10 14  1  0  0  0  0
 11 14  2  0  0  0  0
 12  7  1  0  0  0  0
 12 10  2  0  0  0  0
 13 12  1  0  0  0  0
 15  7  1  0  0  0  0
 15 16  1  0  0  0  0
 15 19  1  0  0  0  0
 17 15  1  0  0  0  0
 18 47  1  0  0  0  0
 19 21  1  0  0  0  0
 19 23  1  0  0  0  0
 20 19  1  0  0  0  0
 22 27  1  0  0  0  0
 23 26  1  0  0  0  0
 23 25  1  0  0  0  0
 24 23  1  0  0  0  0
 27 32  2  0  0  0  0
 28 30  1  0  0  0  0
 28 29  1  0  0  0  0
 31 28  1  0  0  0  0
 33 34  2  0  0  0  0
 33  2  1  0  0  0  0
 34 35  1  0  0  0  0
 36 34  1  0  0  0  0
 37 36  1  0  0  0  0
 37 38  2  0  0  0  0
 38 39  1  0  0  0  0
 39 64  1  0  0  0  0
 40 39  2  0  0  0  0
 40 78  1  0  0  0  0
 41 44  1  0  0  0  0
 41 40  1  0  0  0  0
 42 41  1  0  0  0  0
 43 41  1  0  0  0  0
 45 46  1  0  0  0  0
 46 18  1  0  0  0  0
 46  8  2  0  0  0  0
 47 50  1  0  0  0  0
 47 49  1  0  0  0  0
 47 48  1  0  0  0  0
 50 32  1  0  0  0  0
 51 22  1  0  0  0  0
 51 50  2  0  0  0  0
 52 51  1  0  0  0  0
 53 22  1  0  0  0  0
 53 55  1  0  0  0  0
 54 53  1  0  0  0  0
 56 58  1  0  0  0  0
 56 53  1  0  0  0  0
 57 56  1  0  0  0  0
 59 56  1  0  0  0  0
 60 63  1  0  0  0  0
 60 62  1  0  0  0  0
 60 18  1  0  0  0  0
 61 60  1  0  0  0  0
 64 65  1  0  0  0  0
 64 45  2  0  0  0  0
 66 67  1  0  0  0  0
 66 38  1  0  0  0  0
 68 69  1  0  0  0  0
 68 66  1  0  0  0  0
 70 68  1  0  0  0  0
 71 68  1  0  0  0  0
 71 37  1  0  0  0  0
 72 71  1  0  0  0  0
 73  9  1  0  0  0  0
 73 36  2  0  0  0  0
 74 77  1  0  0  0  0
 74 73  1  0  0  0  0
 75 74  1  0  0  0  0
 76 74  1  0  0  0  0
 78 45  1  0  0  0  0
M  END
>  <Pose>
1

>  <Score>
-5.13

$$$$

 OpenBabel03102210483D

 78 82  0  0  0  0  0  0  0  0999 V2000
    1.1910  -24.5560  -43.0930 N   0  0  0  0  0  0  0  0  0  0  0  0
    0.8220  -23.4720  -43.9680 C   0  0  0  0  0  0  0  0  0  0  0  0
   -0.0030  -23.6310  -44.8720 O   0  0  0  0  0  0  0  0  0  0  0  0
    2.1740  -24.4160  -42.0260 C   0  0  0  0  0  0  0  0  0  0  0  0
    2.0840  -25.2700  -41.3540 H   0  0  0  0  0  0  0  0  0  0  0  0
    1.9650  -23.4980  -41.4770 H   0  0  0  0  0  0  0  0  0  0  0  0
    5.5160  -24.7560  -43.3760 N   0  0  0  0  0  0  0  0  0  0  0  0
    1.1170  -19.4370  -37.3290 O   0  0  0  0  0  0  0  0  0  0  0  0
    0.1760  -20.9890  -43.2130 S   0  0  0  0  0  0  0  0  0  0  0  0
    3.5780  -24.3580  -42.5440 C   0  0  0  0  0  0  0  0  0  0  0  0
    5.6100  -23.6000  -42.6950 N   0  0  0  0  0  0  0  0  0  0  0  0
    4.2700  -25.2450  -43.3160 C   0  0  0  0  0  0  0  0  0  0  0  0
    3.8950  -26.1460  -43.7770 H   0  0  0  0  0  0  0  0  0  0  0  0
    4.4250  -23.3590  -42.1900 N   0  0  0  0  0  0  0  0  0  0  0  0
    6.6840  -25.3350  -44.0380 C   0  0  0  0  0  0  0  0  0  0  0  0
    6.6410  -25.1080  -45.1030 H   0  0  0  0  0  0  0  0  0  0  0  0
    6.6760  -26.4160  -43.8970 H   0  0  0  0  0  0  0  0  0  0  0  0
    1.3700  -17.1700  -37.7520 N   0  0  0  0  0  0  0  0  0  0  0  0
    7.9690  -24.7650  -43.4570 C   0  0  0  0  0  0  0  0  0  0  0  0
    7.7870  -24.4560  -42.4270 H   0  0  0  0  0  0  0  0  0  0  0  0
    8.2730  -23.9000  -44.0470 H   0  0  0  0  0  0  0  0  0  0  0  0
    0.3010  -13.2370  -36.5410 N   0  0  0  0  0  0  0  0  0  0  0  0
    9.0670  -25.7780  -43.4760 C   0  0  0  0  0  0  0  0  0  0  0  0
    8.7700  -26.6470  -42.8880 H   0  0  0  0  0  0  0  0  0  0  0  0
    9.9710  -25.3430  -43.0500 H   0  0  0  0  0  0  0  0  0  0  0  0
    9.2600  -26.0850  -44.5040 H   0  0  0  0  0  0  0  0  0  0  0  0
    1.3360  -13.5040  -35.7300 N   0  0  0  0  0  0  0  0  0  0  0  0
    0.5800  -25.8710  -43.2480 C   0  0  0  0  0  0  0  0  0  0  0  0
   -0.1310  -25.8460  -44.0730 H   0  0  0  0  0  0  0  0  0  0  0  0
    0.0610  -26.1410  -42.3280 H   0  0  0  0  0  0  0  0  0  0  0  0
    1.3550  -26.6090  -43.4580 H   0  0  0  0  0  0  0  0  0  0  0  0
    1.4740  -14.8050  -35.7020 N   0  0  0  0  0  0  0  0  0  0  0  0
    1.3700  -22.1070  -43.7600 C   0  0  0  0  0  0  0  0  0  0  0  0
    2.5840  -21.5010  -43.9070 C   0  0  0  0  0  0  0  0  0  0  0  0
    3.4670  -22.0140  -44.2570 H   0  0  0  0  0  0  0  0  0  0  0  0
    2.5660  -20.1130  -43.5490 C   0  0  0  0  0  0  0  0  0  0  0  0
    3.8120  -19.3390  -43.4230 C   0  0  0  0  0  0  0  0  0  0  0  0
    4.4270  -18.9770  -42.2850 C   0  0  0  0  0  0  0  0  0  0  0  0
    3.9900  -19.2430  -40.9070 C   0  0  0  0  0  0  0  0  0  0  0  0
    4.6430  -20.0490  -40.0030 C   0  0  0  0  0  0  0  0  0  0  0  0
    5.8850  -20.8760  -40.1640 C   0  0  0  0  0  0  0  0  0  0  0  0
    6.2650  -20.7670  -41.1790 H   0  0  0  0  0  0  0  0  0  0  0  0
    5.6510  -21.9240  -39.9740 H   0  0  0  0  0  0  0  0  0  0  0  0
    6.6410  -20.5380  -39.4540 H   0  0  0  0  0  0  0  0  0  0  0  0
    2.6180  -18.9550  -39.0400 C   0  0  0  0  0  0  0  0  0  0  0  0
    1.6510  -18.5520  -37.9940 C   0  0  0  0  0  0  0  0  0  0  0  0
    0.4450  -16.8540  -36.6740 C   0  0  0  0  0  0  0  0  0  0  0  0
    0.7400  -17.3670  -35.7590 H   0  0  0  0  0  0  0  0  0  0  0  0
   -0.5680  -17.1500  -36.9460 H   0  0  0  0  0  0  0  0  0  0  0  0
    0.5220  -15.3700  -36.4870 C   0  0  0  0  0  0  0  0  0  0  0  0
   -0.2210  -14.3690  -37.0370 C   0  0  0  0  0  0  0  0  0  0  0  0
   -1.0500  -14.4660  -37.7230 H   0  0  0  0  0  0  0  0  0  0  0  0
   -0.1740  -11.8700  -36.7730 C   0  0  0  0  0  0  0  0  0  0  0  0
   -0.8140  -11.8650  -37.6550 H   0  0  0  0  0  0  0  0  0  0  0  0
    0.6870  -11.2240  -36.9460 H   0  0  0  0  0  0  0  0  0  0  0  0
   -0.9580  -11.3300  -35.6010 C   0  0  0  0  0  0  0  0  0  0  0  0
   -1.2870  -10.3150  -35.8210 H   0  0  0  0  0  0  0  0  0  0  0  0
   -0.3250  -11.3220  -34.7130 H   0  0  0  0  0  0  0  0  0  0  0  0
   -1.8260  -11.9640  -35.4220 H   0  0  0  0  0  0  0  0  0  0  0  0
    1.8510  -16.0500  -38.5530 C   0  0  0  0  0  0  0  0  0  0  0  0
    2.5320  -16.4180  -39.3210 H   0  0  0  0  0  0  0  0  0  0  0  0
    2.3760  -15.3430  -37.9110 H   0  0  0  0  0  0  0  0  0  0  0  0
    1.0050  -15.5510  -39.0260 H   0  0  0  0  0  0  0  0  0  0  0  0
    2.8310  -18.6180  -40.3500 C   0  0  0  0  0  0  0  0  0  0  0  0
    2.1900  -17.9490  -40.9050 H   0  0  0  0  0  0  0  0  0  0  0  0
    5.7170  -18.2450  -42.5620 C   0  0  0  0  0  0  0  0  0  0  0  0
    6.3530  -17.7260  -41.8600 H   0  0  0  0  0  0  0  0  0  0  0  0
    5.9150  -18.4100  -44.0660 C   0  0  0  0  0  0  0  0  0  0  0  0
    6.6960  -19.1430  -44.2640 H   0  0  0  0  0  0  0  0  0  0  0  0
    6.1910  -17.4550  -44.5150 H   0  0  0  0  0  0  0  0  0  0  0  0
    4.5870  -18.8920  -44.6380 C   0  0  0  0  0  0  0  0  0  0  0  0
    4.2750  -18.9090  -45.6710 H   0  0  0  0  0  0  0  0  0  0  0  0
    1.3170  -19.6840  -43.1680 C   0  0  0  0  0  0  0  0  0  0  0  0
    0.8530  -18.3320  -42.7170 C   0  0  0  0  0  0  0  0  0  0  0  0
   -0.2140  -18.3690  -42.4960 H   0  0  0  0  0  0  0  0  0  0  0  0
    1.0360  -17.6040  -43.5060 H   0  0  0  0  0  0  0  0  0  0  0  0
    1.4000  -18.0420  -41.8200 H   0  0  0  0  0  0  0  0  0  0  0  0
    3.8290  -20.0430  -38.4680 S   0  0  0  0  0  0  0  0  0  0  0  0
  1  4  1  0  0  0  0
  2 33  1  0  0  0  0
  2  1  1  0  0  0  0
  3  2  2  0  0  0  0
  4  6  1  0  0  0  0
  4  5  1  0  0  0  0
  7 12  1  0  0  0  0
  7 11  1  0  0  0  0
  9 73  1  0  0  0  0
 10 14  1  0  0  0  0
 10  4  1  0  0  0  0
 11 14  2  0  0  0  0
 12 10  2  0  0  0  0
 13 12  1  0  0  0  0
 15 17  1  0  0  0  0
 15 19  1  0  0  0  0
 15  7  1  0  0  0  0
 16 15  1  0  0  0  0
 18 47  1  0  0  0  0
 19 20  1  0  0  0  0
 21 19  1  0  0  0  0
 22 27  1  0  0  0  0
 23 19  1  0  0  0  0
 23 25  1  0  0  0  0
 23 24  1  0  0  0  0
 26 23  1  0  0  0  0
 27 32  2  0  0  0  0
 28  1  1  0  0  0  0
 28 30  1  0  0  0  0
 29 28  1  0  0  0  0
 31 28  1  0  0  0  0
 33  9  1  0  0  0  0
 34 33  2  0  0  0  0
 34 36  1  0  0  0  0
 35 34  1  0  0  0  0
 36 37  1  0  0  0  0
 36 73  2  0  0  0  0
 37 38  2  0  0  0  0
 38 39  1  0  0  0  0
 39 64  1  0  0  0  0
 39 40  2  0  0  0  0
 40 78  1  0  0  0  0
 41 40  1  0  0  0  0
 41 43  1  0  0  0  0
 41 44  1  0  0  0  0
 42 41  1  0  0  0  0
 45 78  1  0  0  0  0
 45 46  1  0  0  0  0
 46 18  1  0  0  0  0
 46  8  2  0  0  0  0
 47 50  1  0  0  0  0
 47 48  1  0  0  0  0
 49 47  1  0  0  0  0
 50 32  1  0  0  0  0
 51 22  1  0  0  0  0
 51 50  2  0  0  0  0
 52 51  1  0  0  0  0
 53 22  1  0  0  0  0
 53 56  1  0  0  0  0
 54 53  1  0  0  0  0
 55 53  1  0  0  0  0
 56 59  1  0  0  0  0
 56 58  1  0  0  0  0
 57 56  1  0  0  0  0
 60 62  1  0  0  0  0
 60 18  1  0  0  0  0
 61 60  1  0  0  0  0
 63 60  1  0  0  0  0
 64 45  2  0  0  0  0
 65 64  1  0  0  0  0
 66 38  1  0  0  0  0
 66 67  1  0  0  0  0
 68 66  1  0  0  0  0
 69 68  1  0  0  0  0
 70 68  1  0  0  0  0
 71 68  1  0  0  0  0
 71 37  1  0  0  0  0
 72 71  1  0  0  0  0
 73 74  1  0  0  0  0
 74 75  1  0  0  0  0
 74 77  1  0  0  0  0
 76 74  1  0  0  0  0
M  END
>  <Pose>
1

>  <Score>
-4.98

$$$$

 OpenBabel03102210483D

 78 82  0  0  0  0  0  0  0  0999 V2000
    4.0020  -20.6770  -40.6950 N   0  0  0  0  0  0  0  0  0  0  0  0
    2.9590  -20.7420  -41.6880 C   0  0  0  0  0  0  0  0  0  0  0  0
    1.8080  -20.3780  -41.4310 O   0  0  0  0  0  0  0  0  0  0  0  0
    5.3690  -21.1130  -40.9500 C   0  0  0  0  0  0  0  0  0  0  0  0
    5.3390  -22.0400  -41.5220 H   0  0  0  0  0  0  0  0  0  0  0  0
    5.8620  -21.2910  -39.9940 H   0  0  0  0  0  0  0  0  0  0  0  0
    6.9350  -18.3380  -42.6690 N   0  0  0  0  0  0  0  0  0  0  0  0
    8.5140  -26.2880  -42.1540 O   0  0  0  0  0  0  0  0  0  0  0  0
    1.8410  -21.6340  -43.9470 S   0  0  0  0  0  0  0  0  0  0  0  0
    6.1600  -20.0990  -41.7170 C   0  0  0  0  0  0  0  0  0  0  0  0
    7.5300  -19.3940  -43.2510 N   0  0  0  0  0  0  0  0  0  0  0  0
    6.0910  -18.7360  -41.7070 C   0  0  0  0  0  0  0  0  0  0  0  0
    5.4890  -18.1140  -41.0620 H   0  0  0  0  0  0  0  0  0  0  0  0
    7.0570  -20.4670  -42.6670 N   0  0  0  0  0  0  0  0  0  0  0  0
    7.2160  -16.9750  -43.1180 C   0  0  0  0  0  0  0  0  0  0  0  0
    7.8680  -16.4870  -42.3940 H   0  0  0  0  0  0  0  0  0  0  0  0
    6.2790  -16.4230  -43.1940 H   0  0  0  0  0  0  0  0  0  0  0  0
   10.2480  -25.3160  -43.3490 N   0  0  0  0  0  0  0  0  0  0  0  0
    7.9000  -16.9880  -44.4770 C   0  0  0  0  0  0  0  0  0  0  0  0
    7.2960  -16.4200  -45.1850 H   0  0  0  0  0  0  0  0  0  0  0  0
    7.9890  -18.0180  -44.8210 H   0  0  0  0  0  0  0  0  0  0  0  0
   12.2130  -28.8270  -44.4540 N   0  0  0  0  0  0  0  0  0  0  0  0
    9.2630  -16.3800  -44.4010 C   0  0  0  0  0  0  0  0  0  0  0  0
    9.1820  -15.3480  -44.0580 H   0  0  0  0  0  0  0  0  0  0  0  0
    9.7250  -16.3990  -45.3880 H   0  0  0  0  0  0  0  0  0  0  0  0
    9.8760  -16.9480  -43.7020 H   0  0  0  0  0  0  0  0  0  0  0  0
   11.7060  -29.4070  -43.3550 N   0  0  0  0  0  0  0  0  0  0  0  0
    3.7200  -20.1620  -39.3600 C   0  0  0  0  0  0  0  0  0  0  0  0
    2.6710  -19.8720  -39.2960 H   0  0  0  0  0  0  0  0  0  0  0  0
    4.3500  -19.2940  -39.1650 H   0  0  0  0  0  0  0  0  0  0  0  0
    3.9290  -20.9360  -38.6200 H   0  0  0  0  0  0  0  0  0  0  0  0
   11.3170  -28.4440  -42.5590 N   0  0  0  0  0  0  0  0  0  0  0  0
    3.2570  -21.1770  -43.0750 C   0  0  0  0  0  0  0  0  0  0  0  0
    4.3780  -21.3260  -43.8410 C   0  0  0  0  0  0  0  0  0  0  0  0
    5.3750  -21.1140  -43.4840 H   0  0  0  0  0  0  0  0  0  0  0  0
    4.0950  -21.7920  -45.1660 C   0  0  0  0  0  0  0  0  0  0  0  0
    5.1320  -21.8050  -46.2100 C   0  0  0  0  0  0  0  0  0  0  0  0
    6.1440  -22.6800  -46.3350 C   0  0  0  0  0  0  0  0  0  0  0  0
    6.4660  -23.8080  -45.4480 C   0  0  0  0  0  0  0  0  0  0  0  0
    5.7070  -24.9460  -45.2940 C   0  0  0  0  0  0  0  0  0  0  0  0
    4.3910  -25.3230  -45.9100 C   0  0  0  0  0  0  0  0  0  0  0  0
    4.0530  -24.5190  -46.5650 H   0  0  0  0  0  0  0  0  0  0  0  0
    3.6550  -25.4840  -45.1230 H   0  0  0  0  0  0  0  0  0  0  0  0
    4.5100  -26.2380  -46.4900 H   0  0  0  0  0  0  0  0  0  0  0  0
    7.8130  -24.9970  -43.9580 C   0  0  0  0  0  0  0  0  0  0  0  0
    8.8650  -25.5710  -43.0880 C   0  0  0  0  0  0  0  0  0  0  0  0
   11.2230  -25.9560  -42.4790 C   0  0  0  0  0  0  0  0  0  0  0  0
   10.7880  -26.1450  -41.4970 H   0  0  0  0  0  0  0  0  0  0  0  0
   12.1060  -25.3270  -42.3710 H   0  0  0  0  0  0  0  0  0  0  0  0
   11.5830  -27.2480  -43.1440 C   0  0  0  0  0  0  0  0  0  0  0  0
   12.1430  -27.4900  -44.3630 C   0  0  0  0  0  0  0  0  0  0  0  0
   12.4610  -26.7640  -45.0970 H   0  0  0  0  0  0  0  0  0  0  0  0
   12.7930  -29.6090  -45.5500 C   0  0  0  0  0  0  0  0  0  0  0  0
   13.1820  -28.9230  -46.3020 H   0  0  0  0  0  0  0  0  0  0  0  0
   12.0110  -30.2280  -45.9910 H   0  0  0  0  0  0  0  0  0  0  0  0
   13.9150  -30.5040  -45.0820 C   0  0  0  0  0  0  0  0  0  0  0  0
   14.3120  -31.0630  -45.9300 H   0  0  0  0  0  0  0  0  0  0  0  0
   13.5360  -31.2000  -44.3330 H   0  0  0  0  0  0  0  0  0  0  0  0
   14.7070  -29.8960  -44.6450 H   0  0  0  0  0  0  0  0  0  0  0  0
   10.7700  -24.3920  -44.3500 C   0  0  0  0  0  0  0  0  0  0  0  0
    9.9450  -23.9830  -44.9330 H   0  0  0  0  0  0  0  0  0  0  0  0
   11.4550  -24.9220  -45.0120 H   0  0  0  0  0  0  0  0  0  0  0  0
   11.3010  -23.5800  -43.8530 H   0  0  0  0  0  0  0  0  0  0  0  0
    7.6710  -23.8430  -44.6810 C   0  0  0  0  0  0  0  0  0  0  0  0
    8.3950  -23.0420  -44.6720 H   0  0  0  0  0  0  0  0  0  0  0  0
    6.9640  -22.4060  -47.5710 C   0  0  0  0  0  0  0  0  0  0  0  0
    7.9030  -22.8550  -47.8600 H   0  0  0  0  0  0  0  0  0  0  0  0
    6.1580  -21.3470  -48.3180 C   0  0  0  0  0  0  0  0  0  0  0  0
    5.6560  -21.7950  -49.1760 H   0  0  0  0  0  0  0  0  0  0  0  0
    6.8150  -20.5470  -48.6580 H   0  0  0  0  0  0  0  0  0  0  0  0
    5.1290  -20.8000  -47.3360 C   0  0  0  0  0  0  0  0  0  0  0  0
    4.5360  -19.9020  -47.4250 H   0  0  0  0  0  0  0  0  0  0  0  0
    2.7550  -22.0230  -45.3680 C   0  0  0  0  0  0  0  0  0  0  0  0
    2.0280  -22.5040  -46.5870 C   0  0  0  0  0  0  0  0  0  0  0  0
    0.9610  -22.5680  -46.3730 H   0  0  0  0  0  0  0  0  0  0  0  0
    2.4020  -23.4890  -46.8680 H   0  0  0  0  0  0  0  0  0  0  0  0
    2.1930  -21.8060  -47.4070 H   0  0  0  0  0  0  0  0  0  0  0  0
    6.4740  -26.0570  -44.2010 S   0  0  0  0  0  0  0  0  0  0  0  0
  1 28  1  0  0  0  0
  2  3  2  0  0  0  0
  2  1  1  0  0  0  0
  4  1  1  0  0  0  0
  4  6  1  0  0  0  0
  5  4  1  0  0  0  0
  7 12  1  0  0  0  0
  9 33  1  0  0  0  0
 10 12  2  0  0  0  0
 10  4  1  0  0  0  0
 11  7  1  0  0  0  0
 11 14  2  0  0  0  0
 12 13  1  0  0  0  0
 14 10  1  0  0  0  0
 15  7  1  0  0  0  0
 15 16  1  0  0  0  0
 17 15  1  0  0  0  0
 18 46  1  0  0  0  0
 18 47  1  0  0  0  0
 19 23  1  0  0  0  0
 19 15  1  0  0  0  0
 20 19  1  0  0  0  0
 21 19  1  0  0  0  0
 22 51  1  0  0  0  0
 22 27  1  0  0  0  0
 23 24  1  0  0  0  0
 23 26  1  0  0  0  0
 25 23  1  0  0  0  0
 27 32  2  0  0  0  0
 28 29  1  0  0  0  0
 28 30  1  0  0  0  0
 28 31  1  0  0  0  0
 33  2  1  0  0  0  0
 34 35  1  0  0  0  0
 34 33  2  0  0  0  0
 36 34  1  0  0  0  0
 37 36  1  0  0  0  0
 38 37  2  0  0  0  0
 38 39  1  0  0  0  0
 39 40  2  0  0  0  0
 39 64  1  0  0  0  0
 40 78  1  0  0  0  0
 41 40  1  0  0  0  0
 41 43  1  0  0  0  0
 42 41  1  0  0  0  0
 44 41  1  0  0  0  0
 45 46  1  0  0  0  0
 46  8  2  0  0  0  0
 47 49  1  0  0  0  0
 47 48  1  0  0  0  0
 50 32  1  0  0  0  0
 50 47  1  0  0  0  0
 51 50  2  0  0  0  0
 52 51  1  0  0  0  0
 53 56  1  0  0  0  0
 53 22  1  0  0  0  0
 54 53  1  0  0  0  0
 55 53  1  0  0  0  0
 56 59  1  0  0  0  0
 56 58  1  0  0  0  0
 57 56  1  0  0  0  0
 60 63  1  0  0  0  0
 60 18  1  0  0  0  0
 61 60  1  0  0  0  0
 62 60  1  0  0  0  0
 64 65  1  0  0  0  0
 64 45  2  0  0  0  0
 66 38  1  0  0  0  0
 67 66  1  0  0  0  0
 68 66  1  0  0  0  0
 68 71  1  0  0  0  0
 69 68  1  0  0  0  0
 70 68  1  0  0  0  0
 71 37  1  0  0  0  0
 72 71  1  0  0  0  0
 73 36  2  0  0  0  0
 73  9  1  0  0  0  0
 74 75  1  0  0  0  0
 74 73  1  0  0  0  0
 76 74  1  0  0  0  0
 77 74  1  0  0  0  0
 78 45  1  0  0  0  0
M  END
>  <Pose>
1

>  <Score>
-4.60

$$$$

 OpenBabel03102210483D

 78 82  0  0  0  0  0  0  0  0999 V2000
    8.4280  -17.8740  -44.0040 N   0  0  0  0  0  0  0  0  0  0  0  0
    7.0660  -17.4300  -44.1590 C   0  0  0  0  0  0  0  0  0  0  0  0
    6.8050  -16.2980  -44.5770 O   0  0  0  0  0  0  0  0  0  0  0  0
    8.7810  -19.1930  -43.4960 C   0  0  0  0  0  0  0  0  0  0  0  0
    8.3030  -19.9470  -44.1220 H   0  0  0  0  0  0  0  0  0  0  0  0
    8.4140  -19.2840  -42.4740 H   0  0  0  0  0  0  0  0  0  0  0  0
   12.2890  -19.9590  -43.9540 N   0  0  0  0  0  0  0  0  0  0  0  0
    3.8860  -19.3100  -36.1590 O   0  0  0  0  0  0  0  0  0  0  0  0
    4.4430  -17.7790  -44.5470 S   0  0  0  0  0  0  0  0  0  0  0  0
   10.2590  -19.4320  -43.4990 C   0  0  0  0  0  0  0  0  0  0  0  0
   12.2140  -19.7970  -42.6210 N   0  0  0  0  0  0  0  0  0  0  0  0
   11.1020  -19.7280  -44.5300 C   0  0  0  0  0  0  0  0  0  0  0  0
   10.8630  -19.7670  -45.5830 H   0  0  0  0  0  0  0  0  0  0  0  0
   10.9750  -19.4740  -42.3470 N   0  0  0  0  0  0  0  0  0  0  0  0
   13.5410  -20.3640  -44.5930 C   0  0  0  0  0  0  0  0  0  0  0  0
   14.2920  -19.5910  -44.4310 H   0  0  0  0  0  0  0  0  0  0  0  0
   13.3730  -20.4880  -45.6630 H   0  0  0  0  0  0  0  0  0  0  0  0
    2.4060  -18.1210  -37.4930 N   0  0  0  0  0  0  0  0  0  0  0  0
   14.0410  -21.6770  -44.0090 C   0  0  0  0  0  0  0  0  0  0  0  0
   14.5260  -22.2540  -44.7970 H   0  0  0  0  0  0  0  0  0  0  0  0
   13.1930  -22.2380  -43.6170 H   0  0  0  0  0  0  0  0  0  0  0  0
   -1.2080  -15.8620  -37.2670 N   0  0  0  0  0  0  0  0  0  0  0  0
   15.0210  -21.4390  -42.9060 C   0  0  0  0  0  0  0  0  0  0  0  0
   15.8720  -20.8780  -43.2910 H   0  0  0  0  0  0  0  0  0  0  0  0
   15.3640  -22.3960  -42.5120 H   0  0  0  0  0  0  0  0  0  0  0  0
   14.5400  -20.8700  -42.1100 H   0  0  0  0  0  0  0  0  0  0  0  0
   -1.6020  -16.9990  -36.6740 N   0  0  0  0  0  0  0  0  0  0  0  0
    9.5370  -16.9930  -44.3560 C   0  0  0  0  0  0  0  0  0  0  0  0
    9.1450  -16.0440  -44.7200 H   0  0  0  0  0  0  0  0  0  0  0  0
   10.1380  -17.4610  -45.1350 H   0  0  0  0  0  0  0  0  0  0  0  0
   10.1550  -16.8180  -43.4760 H   0  0  0  0  0  0  0  0  0  0  0  0
   -0.5190  -17.6300  -36.2990 N   0  0  0  0  0  0  0  0  0  0  0  0
    5.9320  -18.3500  -43.8910 C   0  0  0  0  0  0  0  0  0  0  0  0
    5.7600  -19.5360  -43.2370 C   0  0  0  0  0  0  0  0  0  0  0  0
    6.5600  -20.0610  -42.7360 H   0  0  0  0  0  0  0  0  0  0  0  0
    4.4100  -20.0140  -43.2850 C   0  0  0  0  0  0  0  0  0  0  0  0
    4.0630  -21.3730  -42.8380 C   0  0  0  0  0  0  0  0  0  0  0  0
    4.0590  -21.8320  -41.5750 C   0  0  0  0  0  0  0  0  0  0  0  0
    4.4230  -21.0980  -40.3550 C   0  0  0  0  0  0  0  0  0  0  0  0
    5.7050  -20.7810  -39.9650 C   0  0  0  0  0  0  0  0  0  0  0  0
    7.0210  -21.1130  -40.6040 C   0  0  0  0  0  0  0  0  0  0  0  0
    6.8490  -21.6950  -41.5100 H   0  0  0  0  0  0  0  0  0  0  0  0
    7.6270  -21.6930  -39.9090 H   0  0  0  0  0  0  0  0  0  0  0  0
    7.5440  -20.1910  -40.8590 H   0  0  0  0  0  0  0  0  0  0  0  0
    3.9700  -19.8860  -38.4110 C   0  0  0  0  0  0  0  0  0  0  0  0
    3.4230  -19.1040  -37.2790 C   0  0  0  0  0  0  0  0  0  0  0  0
    1.9560  -17.3610  -36.3370 C   0  0  0  0  0  0  0  0  0  0  0  0
    2.6090  -16.5040  -36.1700 H   0  0  0  0  0  0  0  0  0  0  0  0
    1.9500  -17.9910  -35.4480 H   0  0  0  0  0  0  0  0  0  0  0  0
    0.5680  -16.9020  -36.6600 C   0  0  0  0  0  0  0  0  0  0  0  0
    0.1310  -15.7630  -37.2660 C   0  0  0  0  0  0  0  0  0  0  0  0
    0.7310  -14.9560  -37.6600 H   0  0  0  0  0  0  0  0  0  0  0  0
   -2.1630  -14.9200  -37.8580 C   0  0  0  0  0  0  0  0  0  0  0  0
   -3.1370  -15.4050  -37.9260 H   0  0  0  0  0  0  0  0  0  0  0  0
   -1.8190  -14.6530  -38.8570 H   0  0  0  0  0  0  0  0  0  0  0  0
   -2.3040  -13.6600  -37.0390 C   0  0  0  0  0  0  0  0  0  0  0  0
   -3.0220  -12.9940  -37.5170 H   0  0  0  0  0  0  0  0  0  0  0  0
   -1.3370  -13.1620  -36.9690 H   0  0  0  0  0  0  0  0  0  0  0  0
   -2.6540  -13.9150  -36.0380 H   0  0  0  0  0  0  0  0  0  0  0  0
    1.7050  -17.8800  -38.7500 C   0  0  0  0  0  0  0  0  0  0  0  0
    2.1340  -18.5070  -39.5310 H   0  0  0  0  0  0  0  0  0  0  0  0
    1.8090  -16.8310  -39.0280 H   0  0  0  0  0  0  0  0  0  0  0  0
    0.6490  -18.1220  -38.6290 H   0  0  0  0  0  0  0  0  0  0  0  0
    3.4340  -20.5820  -39.4610 C   0  0  0  0  0  0  0  0  0  0  0  0
    2.3730  -20.7260  -39.6010 H   0  0  0  0  0  0  0  0  0  0  0  0
    3.5830  -23.2630  -41.5070 C   0  0  0  0  0  0  0  0  0  0  0  0
    3.5980  -23.9300  -40.6590 H   0  0  0  0  0  0  0  0  0  0  0  0
    3.0780  -23.5460  -42.9190 C   0  0  0  0  0  0  0  0  0  0  0  0
    1.9880  -23.5530  -42.9320 H   0  0  0  0  0  0  0  0  0  0  0  0
    3.4510  -24.5100  -43.2640 H   0  0  0  0  0  0  0  0  0  0  0  0
    3.6060  -22.4300  -43.8120 C   0  0  0  0  0  0  0  0  0  0  0  0
    3.6440  -22.4030  -44.8910 H   0  0  0  0  0  0  0  0  0  0  0  0
    3.5700  -19.1520  -43.9500 C   0  0  0  0  0  0  0  0  0  0  0  0
    2.1030  -19.2580  -44.2340 C   0  0  0  0  0  0  0  0  0  0  0  0
    1.7760  -18.3790  -44.7890 H   0  0  0  0  0  0  0  0  0  0  0  0
    1.5540  -19.3190  -43.2940 H   0  0  0  0  0  0  0  0  0  0  0  0
    1.9110  -20.1530  -44.8250 H   0  0  0  0  0  0  0  0  0  0  0  0
    5.6930  -19.8530  -38.4960 S   0  0  0  0  0  0  0  0  0  0  0  0
  1  4  1  0  0  0  0
  2  1  1  0  0  0  0
  2 33  1  0  0  0  0
  3  2  2  0  0  0  0
  4  6  1  0  0  0  0
  5  4  1  0  0  0  0
  7 11  1  0  0  0  0
  9 73  1  0  0  0  0
  9 33  1  0  0  0  0
 10  4  1  0  0  0  0
 10 14  1  0  0  0  0
 11 14  2  0  0  0  0
 12  7  1  0  0  0  0
 12 10  2  0  0  0  0
 13 12  1  0  0  0  0
 15 16  1  0  0  0  0
 15 19  1  0  0  0  0
 15  7  1  0  0  0  0
 17 15  1  0  0  0  0
 18 46  1  0  0  0  0
 18 47  1  0  0  0  0
 19 21  1  0  0  0  0
 19 23  1  0  0  0  0
 20 19  1  0  0  0  0
 22 51  1  0  0  0  0
 22 27  1  0  0  0  0
 23 25  1  0  0  0  0
 23 26  1  0  0  0  0
 24 23  1  0  0  0  0
 27 32  2  0  0  0  0
 28  1  1  0  0  0  0
 28 31  1  0  0  0  0
 29 28  1  0  0  0  0
 30 28  1  0  0  0  0
 33 34  2  0  0  0  0
 34 35  1  0  0  0  0
 36 34  1  0  0  0  0
 36 37  1  0  0  0  0
 37 38  2  0  0  0  0
 38 66  1  0  0  0  0
 38 39  1  0  0  0  0
 39 40  2  0  0  0  0
 39 64  1  0  0  0  0
 40 78  1  0  0  0  0
 41 40  1  0  0  0  0
 41 43  1  0  0  0  0
 42 41  1  0  0  0  0
 44 41  1  0  0  0  0
 45 46  1  0  0  0  0
 46  8  2  0  0  0  0
 47 48  1  0  0  0  0
 47 49  1  0  0  0  0
 50 47  1  0  0  0  0
 50 32  1  0  0  0  0
 51 50  2  0  0  0  0
 52 51  1  0  0  0  0
 53 22  1  0  0  0  0
 53 56  1  0  0  0  0
 54 53  1  0  0  0  0
 55 53  1  0  0  0  0
 56 58  1  0  0  0  0
 56 59  1  0  0  0  0
 57 56  1  0  0  0  0
 60 63  1  0  0  0  0
 60 18  1  0  0  0  0
 61 60  1  0  0  0  0
 62 60  1  0  0  0  0
 64 45  2  0  0  0  0
 65 64  1  0  0  0  0
 66 67  1  0  0  0  0
 68 66  1  0  0  0  0
 69 68  1  0  0  0  0
 70 68  1  0  0  0  0
 71 68  1  0  0  0  0
 71 37  1  0  0  0  0
 72 71  1  0  0  0  0
 73 36  2  0  0  0  0
 74 73  1  0  0  0  0
 74 76  1  0  0  0  0
 75 74  1  0  0  0  0
 77 74  1  0  0  0  0
 78 45  1  0  0  0  0
M  END
>  <Pose>
1

>  <Score>
-4.56

$$$$
