# created with PyMOL 2.4.2
@<TRIPOS>MOLECULE
pred_0001
24 24 1                 
SMALL
USER_CHARGES
@<TRIPOS>ATOM
1	 O01	42.170	11.166	43.085	O.3	1	UNK0	0.000	
2	 O02	45.680	4.824	43.147	O.3	1	UNK0	0.000	
3	 C03	41.379	9.971	43.028	C.3	1	UNK0	0.000	
4	 H04	40.487	10.167	42.433	 H	1	UNK0	0.000	
5	 H05	41.087	9.693	44.041	 H	1	UNK0	0.000	
6	 O06	47.640	6.174	42.648	O.3	1	UNK0	0.000	
7	 C07	42.147	8.809	42.398	C.3	1	UNK0	0.000	
8	 H08	42.443	9.062	41.380	 H	1	UNK0	0.000	
9	 H09	41.528	7.913	42.384	 H	1	UNK0	0.000	
10	   O	45.808	6.048	41.050	O.3	1	UNK0	0.000	
11	   N	43.331	8.591	43.227	N.3	1	UNK0	0.000	
12	 C10	43.896	9.686	44.016	C.3	1	UNK0	0.000	
13	 H11	44.974	9.561	44.116	 H	1	UNK0	0.000	
14	 H12	43.440	9.711	45.006	 H	1	UNK0	0.000	
15	 C13	43.581	10.974	43.256	C.3	1	UNK0	0.000	
16	 H14	43.987	11.819	43.812	 H	1	UNK0	0.000	
17	 H15	44.052	10.926	42.273	 H	1	UNK0	0.000	
18	 C16	43.920	7.251	43.259	C.3	1	UNK0	0.000	
19	 H17	43.567	6.680	42.400	 H	1	UNK0	0.000	
20	 H18	43.623	6.746	44.178	 H	1	UNK0	0.000	
21	   C	45.450	7.358	43.207	C.3	1	UNK0	0.000	
22	 H19	45.822	7.435	44.229	 H	1	UNK0	0.000	
23	   H	45.711	8.261	42.656	 H	1	UNK0	0.000	
24	   S	46.218	5.970	42.440	S.3	1	UNK0	0.000	
@<TRIPOS>BOND
1 1 15 1
2 1 3 1
3 3 5 1
4 3 4 1
5 3 7 1
6 7 11 1
7 7 8 1
8 7 9 1
9 10 24 1
10 11 12 1
11 11 18 1
12 12 13 1
13 12 14 1
14 12 15 1
15 15 16 1
16 15 17 1
17 18 20 1
18 18 19 1
19 18 21 1
20 21 22 1
21 21 23 1
22 2 24 1
23 6 24 1
24 21 24 1
@<TRIPOS>SUBSTRUCTURE
1	UNK0	1	GROUP	1 ****	UNK
