# created with PyMOL 2.3.2
@<TRIPOS>MOLECULE
1
52 55 1                 
SMALL
USER_CHARGES
@<TRIPOS>ATOM
1	  Br	-5.306	1.580	0.408	Br	1	UNK0	0.000	
2	   C	-4.948	-0.148	-0.321	C.2	1	UNK0	0.000	
3	   C	-5.675	-1.230	0.065	C.2	1	UNK0	0.000	
4	   C	-5.377	-2.461	-0.493	C.2	1	UNK0	0.000	
5	   C	-4.377	-2.585	-1.407	C.2	1	UNK0	0.000	
6	   C	-3.589	-1.490	-1.840	C.2	1	UNK0	0.000	
7	   C	-3.922	-0.312	-1.267	C.2	1	UNK0	0.000	
8	   O	-3.262	0.829	-1.600	O.3	1	UNK0	0.000	
9	   C	-2.476	-1.793	-2.676	C.2	1	UNK0	0.000	
10	   N	-1.496	-1.110	-2.894	N.2	1	UNK0	0.000	
11	   N	-1.047	0.062	-2.513	N.pl3	1	UNK0	0.000	
12	   C	-0.173	0.222	-1.365	C.2	1	UNK0	0.000	
13	   N	-0.555	0.815	-0.244	N.2	1	UNK0	0.000	
14	   C	0.292	0.936	0.826	C.2	1	UNK0	0.000	
15	   N	1.526	0.425	0.681	N.2	1	UNK0	0.000	
16	   C	1.963	-0.182	-0.429	C.2	1	UNK0	0.000	
17	   N	1.076	-0.268	-1.449	N.2	1	UNK0	0.000	
18	   N	3.259	-0.724	-0.606	N.pl3	1	UNK0	0.000	
19	   C	3.591	-1.371	-1.853	C.3	1	UNK0	0.000	
20	   C	4.281	-2.675	-1.515	C.3	1	UNK0	0.000	
21	   O	5.436	-2.407	-0.803	O.3	1	UNK0	0.000	
22	   C	5.144	-1.894	0.459	C.3	1	UNK0	0.000	
23	   C	4.290	-0.657	0.405	C.3	1	UNK0	0.000	
24	   N	-0.119	1.584	1.998	N.pl3	1	UNK0	0.000	
25	   C	0.667	1.490	3.199	C.3	1	UNK0	0.000	
26	   C	-0.307	0.968	4.272	C.3	1	UNK0	0.000	
27	   O	-1.428	1.770	4.342	O.3	1	UNK0	0.000	
28	   C	-2.171	1.834	3.190	C.3	1	UNK0	0.000	
29	   C	-1.329	2.370	2.029	C.3	1	UNK0	0.000	
30	  Br	-6.415	-3.943	0.088	Br	1	UNK0	0.000	
31	   O	-6.689	-1.099	0.996	O.3	1	UNK0	0.000	
32	   H	-4.186	-3.563	-1.807	 H	1	UNK0	0.000	
33	   H	-3.464	1.718	-1.226	 H	1	UNK0	0.000	
34	   H	-2.539	-2.812	-3.222	 H	1	UNK0	0.000	
35	   H	-1.216	0.996	-3.010	 H	1	UNK0	0.000	
36	   H	2.664	-1.623	-2.441	 H	1	UNK0	0.000	
37	   H	4.249	-0.737	-2.487	 H	1	UNK0	0.000	
38	   H	3.566	-3.309	-0.945	 H	1	UNK0	0.000	
39	   H	4.556	-3.146	-2.476	 H	1	UNK0	0.000	
40	   H	6.105	-1.602	0.931	 H	1	UNK0	0.000	
41	   H	4.657	-2.629	1.135	 H	1	UNK0	0.000	
42	   H	4.990	0.184	0.113	 H	1	UNK0	0.000	
43	   H	3.890	-0.483	1.415	 H	1	UNK0	0.000	
44	   H	1.031	2.504	3.539	 H	1	UNK0	0.000	
45	   H	1.527	0.819	3.148	 H	1	UNK0	0.000	
46	   H	0.224	0.995	5.238	 H	1	UNK0	0.000	
47	   H	-0.543	-0.097	3.995	 H	1	UNK0	0.000	
48	   H	-2.601	0.839	2.969	 H	1	UNK0	0.000	
49	   H	-3.008	2.541	3.355	 H	1	UNK0	0.000	
50	   H	-1.069	3.431	2.345	 H	1	UNK0	0.000	
51	   H	-1.901	2.375	1.096	 H	1	UNK0	0.000	
52	   H	-6.885	-0.207	1.383	 H	1	UNK0	0.000	
@<TRIPOS>BOND
1 1 2 1
2 2 3 2
3 2 7 1
4 3 4 1
5 3 31 1
6 4 5 2
7 4 30 1
8 5 6 1
9 6 7 2
10 6 9 1
11 7 8 1
12 9 10 2
13 10 11 1
14 11 12 1
15 12 13 2
16 12 17 1
17 13 14 1
18 14 15 2
19 14 24 1
20 15 16 1
21 16 17 2
22 16 18 1
23 18 19 1
24 18 23 1
25 19 20 1
26 20 21 1
27 21 22 1
28 22 23 1
29 24 25 1
30 24 29 1
31 25 26 1
32 26 27 1
33 27 28 1
34 28 29 1
35 5 32 1
36 8 33 1
37 9 34 1
38 11 35 1
39 19 36 1
40 19 37 1
41 20 38 1
42 20 39 1
43 22 40 1
44 22 41 1
45 23 42 1
46 23 43 1
47 25 44 1
48 25 45 1
49 26 46 1
50 26 47 1
51 28 48 1
52 28 49 1
53 29 50 1
54 29 51 1
55 31 52 1
@<TRIPOS>SUBSTRUCTURE
1	UNK0	1	GROUP	1 ****	UNK
