# created with PyMOL 2.3.2
@<TRIPOS>MOLECULE
3
50 53 1                 
SMALL
USER_CHARGES
@<TRIPOS>ATOM
1	  Br	6.306	4.298	0.806	Br	1	UNK0	0.000	
2	   C	4.690	4.421	-0.175	C.2	1	UNK0	0.000	
3	   C	4.471	5.486	-0.999	C.2	1	UNK0	0.000	
4	   C	3.273	5.549	-1.706	C.2	1	UNK0	0.000	
5	   C	2.333	4.534	-1.558	C.2	1	UNK0	0.000	
6	   C	2.545	3.462	-0.733	C.2	1	UNK0	0.000	
7	   C	3.734	3.413	-0.040	C.2	1	UNK0	0.000	
8	   O	3.938	2.323	0.792	O.3	1	UNK0	0.000	
9	   C	1.549	2.411	-0.592	C.2	1	UNK0	0.000	
10	   N	1.699	1.386	0.169	N.2	1	UNK0	0.000	
11	   N	0.652	0.405	0.237	N.pl3	1	UNK0	0.000	
12	   C	-0.027	0.286	1.442	C.2	1	UNK0	0.000	
13	   O	0.348	1.069	2.394	O.2	1	UNK0	0.000	
14	   C	-1.115	-0.607	1.793	C.2	1	UNK0	0.000	
15	   N	-1.691	-0.703	3.035	N.2	1	UNK0	0.000	
16	   N	-2.641	-1.596	3.004	N.2	1	UNK0	0.000	
17	   N	-2.760	-2.133	1.802	N.pl3	1	UNK0	0.000	
18	   C	-1.831	-1.539	1.034	C.2	1	UNK0	0.000	
19	   C	-1.544	-1.819	-0.376	C.3	1	UNK0	0.000	
20	   N	-2.463	-2.774	-1.001	N.3	1	UNK0	0.000	
21	   C	-1.913	-3.161	-2.315	C.3	1	UNK0	0.000	
22	   C	-1.479	-1.946	-3.058	C.3	1	UNK0	0.000	
23	   O	-2.519	-1.052	-3.129	O.3	1	UNK0	0.000	
24	   C	-3.723	-1.549	-2.704	C.3	1	UNK0	0.000	
25	   C	-3.733	-2.066	-1.289	C.3	1	UNK0	0.000	
26	   C	-3.687	-3.154	1.478	C.2	1	UNK0	0.000	
27	   N	-3.463	-4.390	0.983	N.2	1	UNK0	0.000	
28	   O	-4.598	-5.021	0.838	O.3	1	UNK0	0.000	
29	   N	-5.594	-4.261	1.216	N.2	1	UNK0	0.000	
30	   C	-5.065	-3.094	1.620	C.2	1	UNK0	0.000	
31	   N	-5.821	-2.005	2.105	N.pl3	1	UNK0	0.000	
32	  Br	2.938	7.015	-2.860	Br	1	UNK0	0.000	
33	   O	5.395	6.508	-1.161	O.3	1	UNK0	0.000	
34	   H	1.412	4.583	-2.102	 H	1	UNK0	0.000	
35	   H	4.796	2.241	1.323	 H	1	UNK0	0.000	
36	   H	0.620	2.477	-1.153	 H	1	UNK0	0.000	
37	   H	0.491	-0.145	-0.640	 H	1	UNK0	0.000	
38	   H	-0.539	-2.224	-0.515	 H	1	UNK0	0.000	
39	   H	-1.656	-0.898	-0.964	 H	1	UNK0	0.000	
40	   H	-1.112	-3.908	-2.201	 H	1	UNK0	0.000	
41	   H	-2.746	-3.642	-2.860	 H	1	UNK0	0.000	
42	   H	-0.599	-1.448	-2.617	 H	1	UNK0	0.000	
43	   H	-1.254	-2.251	-4.122	 H	1	UNK0	0.000	
44	   H	-4.440	-0.673	-2.714	 H	1	UNK0	0.000	
45	   H	-4.131	-2.281	-3.432	 H	1	UNK0	0.000	
46	   H	-4.536	-2.812	-1.232	 H	1	UNK0	0.000	
47	   H	-3.913	-1.242	-0.606	 H	1	UNK0	0.000	
48	   H	-6.273	-2.084	3.034	 H	1	UNK0	0.000	
49	   H	-5.943	-1.127	1.569	 H	1	UNK0	0.000	
50	   H	5.209	7.284	-1.775	 H	1	UNK0	0.000	
@<TRIPOS>BOND
1 1 2 1
2 2 3 2
3 2 7 1
4 3 4 1
5 3 33 1
6 4 5 2
7 4 32 1
8 5 6 1
9 6 7 2
10 6 9 1
11 7 8 1
12 9 10 2
13 10 11 1
14 11 12 1
15 12 13 2
16 12 14 1
17 14 15 1
18 14 18 2
19 15 16 2
20 16 17 1
21 17 18 1
22 17 26 1
23 18 19 1
24 19 20 1
25 20 21 1
26 20 25 1
27 21 22 1
28 22 23 1
29 23 24 1
30 24 25 1
31 26 27 2
32 26 30 1
33 27 28 1
34 28 29 1
35 29 30 2
36 30 31 1
37 5 34 1
38 8 35 1
39 9 36 1
40 11 37 1
41 19 38 1
42 19 39 1
43 21 40 1
44 21 41 1
45 22 42 1
46 22 43 1
47 24 44 1
48 24 45 1
49 25 46 1
50 25 47 1
51 31 48 1
52 31 49 1
53 33 50 1
@<TRIPOS>SUBSTRUCTURE
1	UNK0	1	GROUP	1 ****	UNK
