# created with PyMOL 2.3.2
@<TRIPOS>MOLECULE
7
39 42 1                 
SMALL
USER_CHARGES
@<TRIPOS>ATOM
1	  Br	2.655	4.603	0.981	Br	1	UNK0	0.000	
2	   C	1.791	3.087	0.197	C.2	1	UNK0	0.000	
3	   C	0.637	2.556	0.782	C.2	1	UNK0	0.000	
4	   C	0.001	1.462	0.223	C.2	1	UNK0	0.000	
5	   C	0.544	0.920	-0.924	C.2	1	UNK0	0.000	
6	   C	1.690	1.454	-1.499	C.2	1	UNK0	0.000	
7	   C	2.320	2.542	-0.941	C.2	1	UNK0	0.000	
8	  Br	2.402	0.659	-3.102	Br	1	UNK0	0.000	
9	   C	-1.240	0.863	0.837	C.3	1	UNK0	0.000	
10	   N	-2.380	1.410	0.204	N.4	1	UNK0	0.000	
11	   C	-3.389	0.487	-0.227	C.3	1	UNK0	0.000	
12	   C	-2.740	-0.579	-1.126	C.3	1	UNK0	0.000	
13	   C	-1.817	-1.289	-0.220	C.2	1	UNK0	0.000	
14	   C	-1.497	-2.632	-0.102	C.2	1	UNK0	0.000	
15	   C	-0.581	-2.726	0.922	C.2	1	UNK0	0.000	
16	   N	-0.339	-1.504	1.421	N.pl3	1	UNK0	0.000	
17	   C	-1.104	-0.607	0.716	C.2	1	UNK0	0.000	
18	   C	-0.099	-3.982	1.243	C.2	1	UNK0	0.000	
19	   C	-0.549	-5.068	0.534	C.2	1	UNK0	0.000	
20	   C	-1.465	-4.971	-0.489	C.2	1	UNK0	0.000	
21	   C	-1.959	-3.712	-0.823	C.2	1	UNK0	0.000	
22	   C	-4.452	1.210	-0.954	C.2	1	UNK0	0.000	
23	   O	-5.554	0.636	-1.152	O.co2	1	UNK0	0.000	
24	   O	-4.217	2.499	-1.403	O.co2	1	UNK0	0.000	
25	   O	0.193	3.180	1.918	O.3	1	UNK0	0.000	
26	   H	0.088	0.055	-1.409	 H	1	UNK0	0.000	
27	   H	3.219	2.969	-1.385	 H	1	UNK0	0.000	
28	   H	-1.176	1.138	1.928	 H	1	UNK0	0.000	
29	   H	-2.847	2.074	0.901	 H	1	UNK0	0.000	
30	   H	-2.164	2.020	-0.624	 H	1	UNK0	0.000	
31	   H	-3.794	-0.025	0.675	 H	1	UNK0	0.000	
32	   H	-3.533	-1.238	-1.534	 H	1	UNK0	0.000	
33	   H	-2.230	-0.003	-1.920	 H	1	UNK0	0.000	
34	   H	0.306	-1.223	2.204	 H	1	UNK0	0.000	
35	   H	0.626	-4.062	2.051	 H	1	UNK0	0.000	
36	   H	-0.161	-6.059	0.796	 H	1	UNK0	0.000	
37	   H	-1.823	-5.845	-1.054	 H	1	UNK0	0.000	
38	   H	-2.680	-3.567	-1.615	 H	1	UNK0	0.000	
39	   H	-0.599	2.943	2.450	 H	1	UNK0	0.000	
@<TRIPOS>BOND
1 1 2 1
2 2 3 2
3 2 7 1
4 3 4 1
5 3 25 1
6 4 5 2
7 4 9 1
8 5 6 1
9 6 7 2
10 6 8 1
11 9 10 1
12 9 17 1
13 10 11 1
14 11 12 1
15 11 22 1
16 12 13 1
17 13 14 1
18 13 17 2
19 14 15 2
20 14 21 1
21 15 16 1
22 15 18 1
23 16 17 1
24 18 19 2
25 19 20 1
26 20 21 2
27 22 23 2
28 22 24 1
29 5 26 1
30 7 27 1
31 9 28 1
32 10 29 1
33 10 30 1
34 11 31 1
35 12 32 1
36 12 33 1
37 16 34 1
38 18 35 1
39 19 36 1
40 20 37 1
41 21 38 1
42 25 39 1
@<TRIPOS>SUBSTRUCTURE
1	UNK0	1	GROUP	1 ****	UNK
