# created with PyMOL 2.3.2
@<TRIPOS>MOLECULE
9
53 56 1                 
SMALL
USER_CHARGES
@<TRIPOS>ATOM
1	  Br	2.716	2.993	-0.360	Br	1	UNK0	0.000	
2	   C	2.394	2.645	-2.205	C.2	1	UNK0	0.000	
3	   C	2.210	1.340	-2.603	C.2	1	UNK0	0.000	
4	   C	1.978	1.105	-3.940	C.2	1	UNK0	0.000	
5	   C	1.932	2.158	-4.859	C.2	1	UNK0	0.000	
6	   C	2.121	3.457	-4.428	C.2	1	UNK0	0.000	
7	   C	2.352	3.706	-3.107	C.2	1	UNK0	0.000	
8	   C	2.077	4.601	-5.391	C.3	1	UNK0	0.000	
9	  Br	1.719	-0.688	-4.523	Br	1	UNK0	0.000	
10	   O	2.257	0.335	-1.696	O.3	1	UNK0	0.000	
11	   C	3.372	-0.405	-1.291	C.3	1	UNK0	0.000	
12	   C	2.876	-1.410	-0.252	C.3	1	UNK0	0.000	
13	   O	3.918	-2.205	0.222	O.3	1	UNK0	0.000	
14	   C	2.294	-0.613	0.871	C.3	1	UNK0	0.000	
15	   N	1.754	-1.421	1.947	N.4	1	UNK0	0.000	
16	   C	1.607	-0.570	3.080	C.3	1	UNK0	0.000	
17	   C	0.265	-0.609	3.740	C.3	1	UNK0	0.000	
18	   C	-0.820	0.061	2.974	C.3	1	UNK0	0.000	
19	   N	-1.840	-0.817	2.473	N.pl3	1	UNK0	0.000	
20	   C	-1.676	-2.136	2.259	C.2	1	UNK0	0.000	
21	   C	-2.645	-2.971	1.782	C.2	1	UNK0	0.000	
22	   C	-3.888	-2.445	1.494	C.2	1	UNK0	0.000	
23	   C	-4.064	-1.099	1.710	C.2	1	UNK0	0.000	
24	   C	-3.065	-0.287	2.191	C.2	1	UNK0	0.000	
25	   O	-3.263	0.942	2.376	O.2	1	UNK0	0.000	
26	   C	-0.293	-2.648	2.593	C.3	1	UNK0	0.000	
27	   C	0.617	-2.153	1.540	C.3	1	UNK0	0.000	
28	   C	-0.024	-2.097	3.972	C.3	1	UNK0	0.000	
29	   H	1.752	1.984	-5.909	 H	1	UNK0	0.000	
30	   H	2.497	4.737	-2.799	 H	1	UNK0	0.000	
31	   H	2.890	5.306	-5.137	 H	1	UNK0	0.000	
32	   H	1.114	5.169	-5.249	 H	1	UNK0	0.000	
33	   H	2.137	4.250	-6.446	 H	1	UNK0	0.000	
34	   H	3.921	-0.896	-2.104	 H	1	UNK0	0.000	
35	   H	4.075	0.268	-0.760	 H	1	UNK0	0.000	
36	   H	2.171	-2.065	-0.765	 H	1	UNK0	0.000	
37	   H	4.704	-1.596	0.320	 H	1	UNK0	0.000	
38	   H	3.096	0.022	1.299	 H	1	UNK0	0.000	
39	   H	1.494	0.077	0.535	 H	1	UNK0	0.000	
40	   H	2.523	-2.122	2.176	 H	1	UNK0	0.000	
41	   H	2.365	-0.801	3.887	 H	1	UNK0	0.000	
42	   H	1.810	0.517	2.845	 H	1	UNK0	0.000	
43	   H	0.389	-0.175	4.774	 H	1	UNK0	0.000	
44	   H	-1.340	0.787	3.666	 H	1	UNK0	0.000	
45	   H	-0.432	0.714	2.146	 H	1	UNK0	0.000	
46	   H	-2.406	-4.015	1.647	 H	1	UNK0	0.000	
47	   H	-4.658	-3.099	1.117	 H	1	UNK0	0.000	
48	   H	-5.031	-0.652	1.493	 H	1	UNK0	0.000	
49	   H	-0.333	-3.754	2.691	 H	1	UNK0	0.000	
50	   H	0.981	-3.065	0.977	 H	1	UNK0	0.000	
51	   H	0.094	-1.552	0.738	 H	1	UNK0	0.000	
52	   H	0.822	-2.560	4.478	 H	1	UNK0	0.000	
53	   H	-0.958	-2.111	4.595	 H	1	UNK0	0.000	
@<TRIPOS>BOND
1 1 2 1
2 2 3 2
3 2 7 1
4 3 4 1
5 3 10 1
6 4 5 2
7 4 9 1
8 5 6 1
9 6 7 2
10 6 8 1
11 10 11 1
12 11 12 1
13 12 13 1
14 12 14 1
15 14 15 1
16 15 16 1
17 15 27 1
18 16 17 1
19 17 18 1
20 17 28 1
21 18 19 1
22 19 20 1
23 19 24 1
24 20 21 2
25 20 26 1
26 21 22 1
27 22 23 2
28 23 24 1
29 24 25 2
30 26 27 1
31 26 28 1
32 5 29 1
33 7 30 1
34 8 31 1
35 8 32 1
36 8 33 1
37 11 34 1
38 11 35 1
39 12 36 1
40 13 37 1
41 14 38 1
42 14 39 1
43 15 40 1
44 16 41 1
45 16 42 1
46 17 43 1
47 18 44 1
48 18 45 1
49 21 46 1
50 22 47 1
51 23 48 1
52 26 49 1
53 27 50 1
54 27 51 1
55 28 52 1
56 28 53 1
@<TRIPOS>SUBSTRUCTURE
1	UNK0	1	GROUP	1 ****	UNK
