# created with PyMOL 2.3.2
@<TRIPOS>MOLECULE
10
42 45 1                 
SMALL
USER_CHARGES
@<TRIPOS>ATOM
1	  Br	-0.131	3.892	3.305	Br	1	UNK0	0.000	
2	   C	0.998	2.645	2.406	C.2	1	UNK0	0.000	
3	   C	0.612	2.156	1.166	C.2	1	UNK0	0.000	
4	   C	1.383	1.257	0.472	C.2	1	UNK0	0.000	
5	   C	2.570	0.854	1.064	C.2	1	UNK0	0.000	
6	   C	2.980	1.321	2.292	C.2	1	UNK0	0.000	
7	   C	2.188	2.226	2.974	C.2	1	UNK0	0.000	
8	   C	4.252	0.892	2.939	C.3	1	UNK0	0.000	
9	   C	0.968	0.748	-0.823	C.3	1	UNK0	0.000	
10	   N	0.497	1.729	-1.769	N.4	1	UNK0	0.000	
11	   C	0.522	1.089	-3.082	C.3	1	UNK0	0.000	
12	   C	-0.039	-0.283	-3.092	C.3	1	UNK0	0.000	
13	   C	-0.678	-0.708	-1.841	C.2	1	UNK0	0.000	
14	   C	-1.712	-1.545	-1.562	C.2	1	UNK0	0.000	
15	   C	-1.838	-1.530	-0.188	C.2	1	UNK0	0.000	
16	   N	-0.901	-0.704	0.343	N.pl3	1	UNK0	0.000	
17	   C	-0.192	-0.200	-0.658	C.2	1	UNK0	0.000	
18	   C	-2.808	-2.283	0.448	C.2	1	UNK0	0.000	
19	   C	-3.668	-3.067	-0.320	C.2	1	UNK0	0.000	
20	   C	-3.565	-3.101	-1.700	C.2	1	UNK0	0.000	
21	   C	-2.586	-2.336	-2.288	C.2	1	UNK0	0.000	
22	   C	1.939	1.137	-3.549	C.2	1	UNK0	0.000	
23	   O	2.452	2.254	-3.837	O.co2	1	UNK0	0.000	
24	   O	2.641	-0.051	-3.650	O.co2	1	UNK0	0.000	
25	   O	-0.577	2.595	0.633	O.3	1	UNK0	0.000	
26	   H	3.213	0.152	0.564	 H	1	UNK0	0.000	
27	   H	2.498	2.606	3.952	 H	1	UNK0	0.000	
28	   H	4.700	1.675	3.576	 H	1	UNK0	0.000	
29	   H	3.990	-0.028	3.537	 H	1	UNK0	0.000	
30	   H	4.964	0.635	2.109	 H	1	UNK0	0.000	
31	   H	1.829	0.191	-1.280	 H	1	UNK0	0.000	
32	   H	-0.530	1.953	-1.609	 H	1	UNK0	0.000	
33	   H	1.088	2.569	-1.763	 H	1	UNK0	0.000	
34	   H	-0.061	1.761	-3.771	 H	1	UNK0	0.000	
35	   H	0.809	-0.987	-3.333	 H	1	UNK0	0.000	
36	   H	-0.770	-0.381	-3.946	 H	1	UNK0	0.000	
37	   H	-0.728	-0.470	1.355	 H	1	UNK0	0.000	
38	   H	-2.883	-2.253	1.522	 H	1	UNK0	0.000	
39	   H	-4.410	-3.637	0.232	 H	1	UNK0	0.000	
40	   H	-4.265	-3.731	-2.234	 H	1	UNK0	0.000	
41	   H	-2.492	-2.351	-3.360	 H	1	UNK0	0.000	
42	   H	-1.203	3.262	1.084	 H	1	UNK0	0.000	
@<TRIPOS>BOND
1 1 2 1
2 2 3 2
3 2 7 1
4 3 4 1
5 3 25 1
6 4 5 2
7 4 9 1
8 5 6 1
9 6 7 2
10 6 8 1
11 9 10 1
12 9 17 1
13 10 11 1
14 11 12 1
15 11 22 1
16 12 13 1
17 13 14 1
18 13 17 2
19 14 15 2
20 14 21 1
21 15 16 1
22 15 18 1
23 16 17 1
24 18 19 2
25 19 20 1
26 20 21 2
27 22 23 2
28 22 24 1
29 5 26 1
30 7 27 1
31 8 28 1
32 8 29 1
33 8 30 1
34 9 31 1
35 10 32 1
36 10 33 1
37 11 34 1
38 12 35 1
39 12 36 1
40 16 37 1
41 18 38 1
42 19 39 1
43 20 40 1
44 21 41 1
45 25 42 1
@<TRIPOS>SUBSTRUCTURE
1	UNK0	1	GROUP	1 ****	UNK
