# created with PyMOL 2.3.2
@<TRIPOS>MOLECULE
18
53 56 1                 
SMALL
USER_CHARGES
@<TRIPOS>ATOM
1	  Br	0.088	-1.479	4.493	Br	1	UNK0	0.000	
2	   C	-0.236	-2.252	2.754	C.2	1	UNK0	0.000	
3	   C	-1.379	-2.999	2.563	C.2	1	UNK0	0.000	
4	   C	-1.644	-3.541	1.336	C.2	1	UNK0	0.000	
5	   C	-0.739	-3.318	0.324	C.2	1	UNK0	0.000	
6	   C	0.422	-2.579	0.463	C.2	1	UNK0	0.000	
7	   C	0.641	-2.032	1.781	C.2	1	UNK0	0.000	
8	   C	1.382	-2.299	-0.468	C.2	1	UNK0	0.000	
9	   N	1.904	-2.641	-1.661	N.2	1	UNK0	0.000	
10	   N	3.030	-1.510	-1.658	N.pl3	1	UNK0	0.000	
11	   C	2.282	-0.335	-2.046	C.2	1	UNK0	0.000	
12	   O	1.198	-0.452	-2.616	O.2	1	UNK0	0.000	
13	   C	2.755	0.983	-1.686	C.2	1	UNK0	0.000	
14	   N	3.901	1.518	-1.451	N.2	1	UNK0	0.000	
15	   N	3.752	2.591	-0.693	N.2	1	UNK0	0.000	
16	   N	2.462	2.756	-0.438	N.pl3	1	UNK0	0.000	
17	   C	1.721	1.822	-1.017	C.2	1	UNK0	0.000	
18	   C	0.339	1.441	-0.964	C.3	1	UNK0	0.000	
19	   N	-0.654	2.380	-1.490	N.3	1	UNK0	0.000	
20	   C	-1.826	2.444	-0.679	C.3	1	UNK0	0.000	
21	   C	-2.666	1.199	-0.684	C.3	1	UNK0	0.000	
22	   O	-3.339	1.099	-1.890	O.3	1	UNK0	0.000	
23	   C	-2.662	1.802	-2.893	C.3	1	UNK0	0.000	
24	   C	-1.190	1.639	-2.713	C.3	1	UNK0	0.000	
25	   C	2.041	3.570	0.684	C.2	1	UNK0	0.000	
26	   N	1.922	4.817	0.876	N.2	1	UNK0	0.000	
27	   O	1.539	5.107	2.120	O.3	1	UNK0	0.000	
28	   N	1.412	3.984	2.729	N.2	1	UNK0	0.000	
29	   C	1.701	2.957	1.929	C.2	1	UNK0	0.000	
30	   N	1.696	1.586	2.235	N.pl3	1	UNK0	0.000	
31	   O	-2.802	-4.291	1.098	O.3	1	UNK0	0.000	
32	   C	-3.053	-4.772	-0.238	C.3	1	UNK0	0.000	
33	   O	-2.260	-3.197	3.630	O.3	1	UNK0	0.000	
34	   H	-0.967	-3.750	-0.667	 H	1	UNK0	0.000	
35	   H	1.536	-1.424	1.941	 H	1	UNK0	0.000	
36	   H	2.081	-1.392	-0.131	 H	1	UNK0	0.000	
37	   H	3.862	-1.845	-1.407	 H	1	UNK0	0.000	
38	   H	0.036	0.412	-1.181	 H	1	UNK0	0.000	
39	   H	0.030	1.473	0.183	 H	1	UNK0	0.000	
40	   H	-1.530	2.684	0.350	 H	1	UNK0	0.000	
41	   H	-2.511	3.283	-1.040	 H	1	UNK0	0.000	
42	   H	-2.136	0.296	-0.381	 H	1	UNK0	0.000	
43	   H	-3.480	1.354	0.084	 H	1	UNK0	0.000	
44	   H	-3.017	2.789	-3.120	 H	1	UNK0	0.000	
45	   H	-2.903	1.191	-3.840	 H	1	UNK0	0.000	
46	   H	-0.656	1.926	-3.608	 H	1	UNK0	0.000	
47	   H	-1.085	0.545	-2.439	 H	1	UNK0	0.000	
48	   H	2.561	1.020	2.299	 H	1	UNK0	0.000	
49	   H	0.786	1.049	2.435	 H	1	UNK0	0.000	
50	   H	-3.967	-5.376	-0.286	 H	1	UNK0	0.000	
51	   H	-3.151	-3.842	-0.904	 H	1	UNK0	0.000	
52	   H	-2.180	-5.334	-0.559	 H	1	UNK0	0.000	
53	   H	-1.998	-2.804	4.559	 H	1	UNK0	0.000	
@<TRIPOS>BOND
1 1 2 1
2 2 3 2
3 2 7 1
4 3 4 1
5 3 33 1
6 4 5 2
7 4 31 1
8 5 6 1
9 6 7 2
10 6 8 1
11 8 9 2
12 9 10 1
13 10 11 1
14 11 12 2
15 11 13 1
16 13 14 1
17 13 17 2
18 14 15 2
19 15 16 1
20 16 17 1
21 16 25 1
22 17 18 1
23 18 19 1
24 19 20 1
25 19 24 1
26 20 21 1
27 21 22 1
28 22 23 1
29 23 24 1
30 25 26 2
31 25 29 1
32 26 27 1
33 27 28 1
34 28 29 2
35 29 30 1
36 31 32 1
37 5 34 1
38 7 35 1
39 8 36 1
40 10 37 1
41 18 38 1
42 18 39 1
43 20 40 1
44 20 41 1
45 21 42 1
46 21 43 1
47 23 44 1
48 23 45 1
49 24 46 1
50 24 47 1
51 30 48 1
52 30 49 1
53 32 50 1
54 32 51 1
55 32 52 1
56 33 53 1
@<TRIPOS>SUBSTRUCTURE
1	UNK0	1	GROUP	1 ****	UNK
