# created with PyMOL 2.3.2
@<TRIPOS>MOLECULE
20
58 61 1                 
SMALL
USER_CHARGES
@<TRIPOS>ATOM
1	  Br	-4.806	0.550	4.254	Br	1	UNK0	0.000	
2	   C	-3.709	1.221	2.830	C.2	1	UNK0	0.000	
3	   C	-4.002	0.882	1.538	C.2	1	UNK0	0.000	
4	   C	-3.194	1.357	0.507	C.2	1	UNK0	0.000	
5	   C	-2.101	2.163	0.793	C.2	1	UNK0	0.000	
6	   C	-1.793	2.500	2.079	C.2	1	UNK0	0.000	
7	   C	-2.613	2.019	3.075	C.2	1	UNK0	0.000	
8	   C	-0.539	3.156	2.503	C.2	1	UNK0	0.000	
9	   N	0.450	3.328	1.920	N.2	1	UNK0	0.000	
10	   N	1.574	3.532	1.281	N.pl3	1	UNK0	0.000	
11	   C	1.885	2.368	0.419	C.2	1	UNK0	0.000	
12	   N	1.897	2.401	-0.900	N.2	1	UNK0	0.000	
13	   C	1.992	1.253	-1.630	C.2	1	UNK0	0.000	
14	   N	2.069	0.105	-0.916	N.2	1	UNK0	0.000	
15	   C	2.063	0.010	0.427	C.2	1	UNK0	0.000	
16	   N	1.971	1.186	1.088	N.2	1	UNK0	0.000	
17	   N	1.994	-1.206	1.084	N.pl3	1	UNK0	0.000	
18	   C	2.939	-1.842	1.918	C.3	1	UNK0	0.000	
19	   C	3.315	-3.157	1.229	C.3	1	UNK0	0.000	
20	   O	2.151	-3.858	1.004	O.3	1	UNK0	0.000	
21	   C	1.235	-3.244	0.181	C.3	1	UNK0	0.000	
22	   C	0.718	-1.956	0.884	C.3	1	UNK0	0.000	
23	   N	1.921	1.238	-3.043	N.pl3	1	UNK0	0.000	
24	   C	1.556	2.468	-3.764	C.3	1	UNK0	0.000	
25	   C	0.493	2.020	-4.800	C.3	1	UNK0	0.000	
26	   O	1.184	1.237	-5.680	O.3	1	UNK0	0.000	
27	   C	1.585	0.038	-5.161	C.3	1	UNK0	0.000	
28	   C	2.158	0.058	-3.782	C.3	1	UNK0	0.000	
29	   O	-3.562	0.978	-0.746	O.3	1	UNK0	0.000	
30	   C	-3.007	1.310	-1.969	C.3	1	UNK0	0.000	
31	   C	-3.677	0.598	-3.135	C.3	1	UNK0	0.000	
32	   O	-5.095	0.075	1.304	O.3	1	UNK0	0.000	
33	   H	-1.483	2.557	0.012	 H	1	UNK0	0.000	
34	   H	-2.440	2.277	4.100	 H	1	UNK0	0.000	
35	   H	-0.532	3.551	3.547	 H	1	UNK0	0.000	
36	   H	2.235	4.283	1.243	 H	1	UNK0	0.000	
37	   H	3.836	-1.292	2.198	 H	1	UNK0	0.000	
38	   H	2.362	-2.150	2.859	 H	1	UNK0	0.000	
39	   H	3.893	-3.757	1.976	 H	1	UNK0	0.000	
40	   H	3.894	-2.924	0.332	 H	1	UNK0	0.000	
41	   H	0.367	-3.871	0.052	 H	1	UNK0	0.000	
42	   H	1.623	-2.987	-0.832	 H	1	UNK0	0.000	
43	   H	0.070	-1.423	0.227	 H	1	UNK0	0.000	
44	   H	0.342	-2.200	1.868	 H	1	UNK0	0.000	
45	   H	1.056	3.185	-3.111	 H	1	UNK0	0.000	
46	   H	2.406	2.931	-4.227	 H	1	UNK0	0.000	
47	   H	0.083	2.902	-5.270	 H	1	UNK0	0.000	
48	   H	-0.273	1.456	-4.207	 H	1	UNK0	0.000	
49	   H	2.375	-0.390	-5.852	 H	1	UNK0	0.000	
50	   H	0.751	-0.690	-5.222	 H	1	UNK0	0.000	
51	   H	3.255	-0.166	-3.803	 H	1	UNK0	0.000	
52	   H	1.660	-0.783	-3.201	 H	1	UNK0	0.000	
53	   H	-3.205	2.426	-2.109	 H	1	UNK0	0.000	
54	   H	-1.940	1.129	-2.020	 H	1	UNK0	0.000	
55	   H	-4.357	-0.196	-2.815	 H	1	UNK0	0.000	
56	   H	-2.880	0.188	-3.807	 H	1	UNK0	0.000	
57	   H	-4.251	1.340	-3.743	 H	1	UNK0	0.000	
58	   H	-5.678	-0.294	2.016	 H	1	UNK0	0.000	
@<TRIPOS>BOND
1 1 2 1
2 2 3 2
3 2 7 1
4 3 4 1
5 3 32 1
6 4 5 2
7 4 29 1
8 5 6 1
9 6 7 2
10 6 8 1
11 8 9 2
12 9 10 1
13 10 11 1
14 11 12 2
15 11 16 1
16 12 13 1
17 13 14 2
18 13 23 1
19 14 15 1
20 15 16 2
21 15 17 1
22 17 18 1
23 17 22 1
24 18 19 1
25 19 20 1
26 20 21 1
27 21 22 1
28 23 24 1
29 23 28 1
30 24 25 1
31 25 26 1
32 26 27 1
33 27 28 1
34 29 30 1
35 30 31 1
36 5 33 1
37 7 34 1
38 8 35 1
39 10 36 1
40 18 37 1
41 18 38 1
42 19 39 1
43 19 40 1
44 21 41 1
45 21 42 1
46 22 43 1
47 22 44 1
48 24 45 1
49 24 46 1
50 25 47 1
51 25 48 1
52 27 49 1
53 27 50 1
54 28 51 1
55 28 52 1
56 30 53 1
57 30 54 1
58 31 55 1
59 31 56 1
60 31 57 1
61 32 58 1
@<TRIPOS>SUBSTRUCTURE
1	UNK0	1	GROUP	1 ****	UNK
