# created with PyMOL 2.3.2
@<TRIPOS>MOLECULE
21
55 58 1                 
SMALL
USER_CHARGES
@<TRIPOS>ATOM
1	  Br	5.957	-4.858	-3.724	Br	1	UNK0	0.000	
2	   C	4.481	-3.669	-3.830	C.2	1	UNK0	0.000	
3	   C	4.325	-2.870	-4.949	C.2	1	UNK0	0.000	
4	   C	3.258	-1.999	-5.043	C.2	1	UNK0	0.000	
5	   C	2.361	-1.948	-4.007	C.2	1	UNK0	0.000	
6	   C	2.479	-2.726	-2.876	C.2	1	UNK0	0.000	
7	   C	3.546	-3.582	-2.805	C.2	1	UNK0	0.000	
8	   C	1.517	-2.660	-1.781	C.2	1	UNK0	0.000	
9	   N	0.510	-1.859	-1.833	N.2	1	UNK0	0.000	
10	   N	-0.423	-1.778	-0.802	N.pl3	1	UNK0	0.000	
11	   C	-0.333	-0.757	0.195	C.2	1	UNK0	0.000	
12	   N	0.661	0.114	0.138	N.2	1	UNK0	0.000	
13	   C	0.848	1.130	1.031	C.2	1	UNK0	0.000	
14	   N	-0.071	1.201	2.013	N.2	1	UNK0	0.000	
15	   C	-1.106	0.318	2.099	C.2	1	UNK0	0.000	
16	   N	-1.234	-0.660	1.187	N.2	1	UNK0	0.000	
17	   N	-2.063	0.422	3.151	N.pl3	1	UNK0	0.000	
18	   C	-1.905	1.473	4.116	C.3	1	UNK0	0.000	
19	   C	-3.201	1.872	4.773	C.3	1	UNK0	0.000	
20	   O	-4.148	0.879	4.792	O.3	1	UNK0	0.000	
21	   C	-4.400	0.292	3.572	C.3	1	UNK0	0.000	
22	   C	-3.155	-0.529	3.211	C.3	1	UNK0	0.000	
23	   N	1.924	2.029	0.920	N.pl3	1	UNK0	0.000	
24	   C	2.867	1.924	-0.150	C.3	1	UNK0	0.000	
25	   C	3.078	3.342	-0.689	C.3	1	UNK0	0.000	
26	   O	2.092	4.205	-0.242	O.3	1	UNK0	0.000	
27	   C	2.087	4.396	1.120	C.3	1	UNK0	0.000	
28	   C	2.091	3.070	1.887	C.3	1	UNK0	0.000	
29	   O	3.147	-1.218	-6.189	O.3	1	UNK0	0.000	
30	   C	2.051	-0.339	-6.260	C.3	1	UNK0	0.000	
31	   O	5.237	-2.930	-5.992	O.3	1	UNK0	0.000	
32	   H	1.515	-1.275	-4.053	 H	1	UNK0	0.000	
33	   H	3.696	-4.216	-1.952	 H	1	UNK0	0.000	
34	   H	1.625	-3.277	-0.910	 H	1	UNK0	0.000	
35	   H	-1.213	-2.472	-0.743	 H	1	UNK0	0.000	
36	   H	-1.137	1.171	4.850	 H	1	UNK0	0.000	
37	   H	-1.509	2.404	3.620	 H	1	UNK0	0.000	
38	   H	-3.624	2.792	4.325	 H	1	UNK0	0.000	
39	   H	-2.955	2.112	5.841	 H	1	UNK0	0.000	
40	   H	-4.489	1.049	2.748	 H	1	UNK0	0.000	
41	   H	-5.296	-0.324	3.619	 H	1	UNK0	0.000	
42	   H	-3.007	-1.235	4.076	 H	1	UNK0	0.000	
43	   H	-3.302	-1.059	2.268	 H	1	UNK0	0.000	
44	   H	2.546	1.230	-0.964	 H	1	UNK0	0.000	
45	   H	3.839	1.602	0.294	 H	1	UNK0	0.000	
46	   H	4.101	3.715	-0.457	 H	1	UNK0	0.000	
47	   H	2.994	3.279	-1.791	 H	1	UNK0	0.000	
48	   H	1.103	4.879	1.376	 H	1	UNK0	0.000	
49	   H	2.861	5.077	1.497	 H	1	UNK0	0.000	
50	   H	3.126	3.000	2.335	 H	1	UNK0	0.000	
51	   H	1.322	3.058	2.685	 H	1	UNK0	0.000	
52	   H	2.017	0.256	-5.304	 H	1	UNK0	0.000	
53	   H	2.093	0.371	-7.091	 H	1	UNK0	0.000	
54	   H	1.118	-0.951	-6.377	 H	1	UNK0	0.000	
55	   H	6.041	-3.555	-5.968	 H	1	UNK0	0.000	
@<TRIPOS>BOND
1 1 2 1
2 2 3 2
3 2 7 1
4 3 4 1
5 3 31 1
6 4 5 2
7 4 29 1
8 5 6 1
9 6 7 2
10 6 8 1
11 8 9 2
12 9 10 1
13 10 11 1
14 11 12 2
15 11 16 1
16 12 13 1
17 13 14 2
18 13 23 1
19 14 15 1
20 15 16 2
21 15 17 1
22 17 18 1
23 17 22 1
24 18 19 1
25 19 20 1
26 20 21 1
27 21 22 1
28 23 24 1
29 23 28 1
30 24 25 1
31 25 26 1
32 26 27 1
33 27 28 1
34 29 30 1
35 5 32 1
36 7 33 1
37 8 34 1
38 10 35 1
39 18 36 1
40 18 37 1
41 19 38 1
42 19 39 1
43 21 40 1
44 21 41 1
45 22 42 1
46 22 43 1
47 24 44 1
48 24 45 1
49 25 46 1
50 25 47 1
51 27 48 1
52 27 49 1
53 28 50 1
54 28 51 1
55 30 52 1
56 30 53 1
57 30 54 1
58 31 55 1
@<TRIPOS>SUBSTRUCTURE
1	UNK0	1	GROUP	1 ****	UNK
