# created with PyMOL 2.3.2
@<TRIPOS>MOLECULE
22
45 48 1                 
SMALL
USER_CHARGES
@<TRIPOS>ATOM
1	  Br	4.396	0.690	-6.106	Br	1	UNK0	0.000	
2	   C	3.406	-0.297	-4.811	C.2	1	UNK0	0.000	
3	   C	3.649	-1.648	-4.701	C.2	1	UNK0	0.000	
4	   C	2.941	-2.391	-3.766	C.2	1	UNK0	0.000	
5	   C	2.022	-1.724	-2.988	C.2	1	UNK0	0.000	
6	   C	1.735	-0.403	-3.041	C.2	1	UNK0	0.000	
7	   C	2.475	0.316	-4.005	C.2	1	UNK0	0.000	
8	   C	0.837	0.397	-2.249	C.2	1	UNK0	0.000	
9	   N	0.562	0.592	-0.961	N.pl3	1	UNK0	0.000	
10	   C	-0.446	1.506	-0.822	C.2	1	UNK0	0.000	
11	   N	-0.785	1.880	-2.059	N.2	1	UNK0	0.000	
12	   N	-0.056	1.254	-2.914	N.2	1	UNK0	0.000	
13	   N	-0.709	1.695	0.474	N.pl3	1	UNK0	0.000	
14	   C	0.136	0.909	1.156	C.2	1	UNK0	0.000	
15	   C	0.952	0.207	0.270	C.2	1	UNK0	0.000	
16	   N	1.887	-0.602	0.738	N.pl3	1	UNK0	0.000	
17	   C	1.985	-0.708	2.096	C.2	1	UNK0	0.000	
18	   O	2.874	-1.484	2.558	O.2	1	UNK0	0.000	
19	   N	1.231	-0.070	2.976	N.pl3	1	UNK0	0.000	
20	   C	0.284	0.759	2.531	C.2	1	UNK0	0.000	
21	   O	-0.477	1.406	3.306	O.2	1	UNK0	0.000	
22	   C	2.881	-1.299	-0.031	C.3	1	UNK0	0.000	
23	   C	-1.719	2.582	1.017	C.3	1	UNK0	0.000	
24	   C	-3.049	1.915	1.211	C.3	1	UNK0	0.000	
25	   C	-3.619	1.377	-0.084	C.3	1	UNK0	0.000	
26	   O	3.168	-3.753	-3.639	O.3	1	UNK0	0.000	
27	   C	2.427	-4.471	-2.681	C.3	1	UNK0	0.000	
28	   O	4.595	-2.262	-5.522	O.3	1	UNK0	0.000	
29	   H	1.426	-2.303	-2.265	 H	1	UNK0	0.000	
30	   H	2.324	1.381	-4.133	 H	1	UNK0	0.000	
31	   H	1.341	-0.185	4.013	 H	1	UNK0	0.000	
32	   H	3.344	-0.683	-0.808	 H	1	UNK0	0.000	
33	   H	3.781	-1.481	0.668	 H	1	UNK0	0.000	
34	   H	2.563	-2.305	-0.273	 H	1	UNK0	0.000	
35	   H	-1.402	3.035	1.947	 H	1	UNK0	0.000	
36	   H	-1.911	3.442	0.309	 H	1	UNK0	0.000	
37	   H	-3.767	2.679	1.574	 H	1	UNK0	0.000	
38	   H	-3.028	1.122	1.983	 H	1	UNK0	0.000	
39	   H	-4.481	0.704	0.095	 H	1	UNK0	0.000	
40	   H	-2.830	0.726	-0.539	 H	1	UNK0	0.000	
41	   H	-3.929	2.159	-0.774	 H	1	UNK0	0.000	
42	   H	2.512	-5.570	-2.819	 H	1	UNK0	0.000	
43	   H	1.321	-4.273	-2.755	 H	1	UNK0	0.000	
44	   H	2.711	-4.259	-1.640	 H	1	UNK0	0.000	
45	   H	4.750	-3.255	-5.417	 H	1	UNK0	0.000	
@<TRIPOS>BOND
1 1 2 1
2 2 3 2
3 2 7 1
4 3 4 1
5 3 28 1
6 4 5 2
7 4 26 1
8 5 6 1
9 6 7 2
10 6 8 1
11 8 9 1
12 8 12 2
13 9 10 1
14 9 15 1
15 10 11 2
16 10 13 1
17 11 12 1
18 13 14 1
19 13 23 1
20 14 15 2
21 14 20 1
22 15 16 1
23 16 17 1
24 16 22 1
25 17 18 2
26 17 19 1
27 19 20 1
28 20 21 2
29 23 24 1
30 24 25 1
31 26 27 1
32 5 29 1
33 7 30 1
34 19 31 1
35 22 32 1
36 22 33 1
37 22 34 1
38 23 35 1
39 23 36 1
40 24 37 1
41 24 38 1
42 25 39 1
43 25 40 1
44 25 41 1
45 27 42 1
46 27 43 1
47 27 44 1
48 28 45 1
@<TRIPOS>SUBSTRUCTURE
1	UNK0	1	GROUP	1 ****	UNK
