# created with PyMOL 2.3.2
@<TRIPOS>MOLECULE
24
61 64 1                 
SMALL
USER_CHARGES
@<TRIPOS>ATOM
1	  Br	4.616	-2.030	1.824	Br	1	UNK0	0.000	
2	   C	3.596	-1.717	0.248	C.2	1	UNK0	0.000	
3	   C	3.725	-2.592	-0.805	C.2	1	UNK0	0.000	
4	   C	2.979	-2.347	-1.935	C.2	1	UNK0	0.000	
5	   C	2.131	-1.262	-2.009	C.2	1	UNK0	0.000	
6	   C	2.000	-0.370	-0.934	C.2	1	UNK0	0.000	
7	   C	2.736	-0.623	0.165	C.2	1	UNK0	0.000	
8	   C	1.093	0.749	-1.082	C.3	1	UNK0	0.000	
9	   N	1.508	2.019	-0.576	N.pl3	1	UNK0	0.000	
10	   C	1.309	1.988	0.856	C.2	1	UNK0	0.000	
11	   O	1.913	2.675	1.683	O.2	1	UNK0	0.000	
12	   C	0.264	0.990	1.099	C.2	1	UNK0	0.000	
13	   O	-0.234	0.621	2.192	O.2	1	UNK0	0.000	
14	   C	-0.114	0.472	-0.209	C.2	1	UNK0	0.000	
15	   C	-1.225	-0.136	-0.582	C.2	1	UNK0	0.000	
16	   O	-1.355	-0.595	-1.903	O.2	1	UNK0	0.000	
17	   C	-2.290	-0.314	0.368	C.2	1	UNK0	0.000	
18	   C	-2.868	-1.558	0.501	C.2	1	UNK0	0.000	
19	   C	-3.913	-1.797	1.367	C.2	1	UNK0	0.000	
20	   C	-4.387	-0.740	2.121	C.2	1	UNK0	0.000	
21	   C	-3.806	0.508	1.986	C.2	1	UNK0	0.000	
22	   C	-2.744	0.749	1.106	C.2	1	UNK0	0.000	
23	   O	-5.446	-1.200	2.930	O.3	1	UNK0	0.000	
24	   C	-5.157	-2.591	3.148	C.3	1	UNK0	0.000	
25	   C	-4.725	-2.983	1.728	C.3	1	UNK0	0.000	
26	   C	-3.935	-2.673	4.008	C.3	1	UNK0	0.000	
27	   C	2.002	3.147	-1.316	C.3	1	UNK0	0.000	
28	   C	3.473	3.218	-1.457	C.3	1	UNK0	0.000	
29	   N	4.132	2.159	-2.131	N.4	1	UNK0	0.000	
30	   C	5.530	2.605	-2.326	C.3	1	UNK0	0.000	
31	   C	3.637	1.925	-3.474	C.3	1	UNK0	0.000	
32	   O	3.118	-3.240	-2.993	O.3	1	UNK0	0.000	
33	   C	2.412	-3.106	-4.201	C.3	1	UNK0	0.000	
34	   O	4.583	-3.675	-0.711	O.3	1	UNK0	0.000	
35	   H	1.549	-1.084	-2.911	 H	1	UNK0	0.000	
36	   H	2.690	0.012	1.025	 H	1	UNK0	0.000	
37	   H	0.666	0.818	-2.112	 H	1	UNK0	0.000	
38	   H	-2.510	-2.404	-0.083	 H	1	UNK0	0.000	
39	   H	-4.180	1.333	2.578	 H	1	UNK0	0.000	
40	   H	-2.365	1.758	1.060	 H	1	UNK0	0.000	
41	   H	-6.018	-3.155	3.495	 H	1	UNK0	0.000	
42	   H	-5.609	-3.000	1.039	 H	1	UNK0	0.000	
43	   H	-4.174	-3.923	1.714	 H	1	UNK0	0.000	
44	   H	-2.981	-2.696	3.403	 H	1	UNK0	0.000	
45	   H	-3.905	-3.579	4.645	 H	1	UNK0	0.000	
46	   H	-3.823	-1.765	4.653	 H	1	UNK0	0.000	
47	   H	1.467	3.197	-2.313	 H	1	UNK0	0.000	
48	   H	1.683	4.127	-0.837	 H	1	UNK0	0.000	
49	   H	3.906	3.277	-0.429	 H	1	UNK0	0.000	
50	   H	3.768	4.197	-1.935	 H	1	UNK0	0.000	
51	   H	4.223	1.304	-1.559	 H	1	UNK0	0.000	
52	   H	6.068	1.891	-2.981	 H	1	UNK0	0.000	
53	   H	6.033	2.758	-1.355	 H	1	UNK0	0.000	
54	   H	5.467	3.598	-2.824	 H	1	UNK0	0.000	
55	   H	3.153	2.818	-3.905	 H	1	UNK0	0.000	
56	   H	2.917	1.084	-3.474	 H	1	UNK0	0.000	
57	   H	4.454	1.645	-4.170	 H	1	UNK0	0.000	
58	   H	1.334	-2.938	-3.955	 H	1	UNK0	0.000	
59	   H	2.849	-2.286	-4.785	 H	1	UNK0	0.000	
60	   H	2.527	-4.064	-4.749	 H	1	UNK0	0.000	
61	   H	5.121	-3.837	0.125	 H	1	UNK0	0.000	
@<TRIPOS>BOND
1 1 2 1
2 2 3 2
3 2 7 1
4 3 4 1
5 3 34 1
6 4 5 2
7 4 32 1
8 5 6 1
9 6 7 2
10 6 8 1
11 8 9 1
12 8 14 1
13 9 10 1
14 9 27 1
15 10 11 2
16 10 12 1
17 12 13 2
18 12 14 1
19 14 15 2
20 15 16 1
21 15 17 1
22 17 18 2
23 17 22 1
24 18 19 1
25 19 20 2
26 19 25 1
27 20 21 1
28 20 23 1
29 21 22 2
30 23 24 1
31 24 25 1
32 24 26 1
33 27 28 1
34 28 29 1
35 29 30 1
36 29 31 1
37 32 33 1
38 5 35 1
39 7 36 1
40 8 37 1
41 18 38 1
42 21 39 1
43 22 40 1
44 24 41 1
45 25 42 1
46 25 43 1
47 26 44 1
48 26 45 1
49 26 46 1
50 27 47 1
51 27 48 1
52 28 49 1
53 28 50 1
54 29 51 1
55 30 52 1
56 30 53 1
57 30 54 1
58 31 55 1
59 31 56 1
60 31 57 1
61 33 58 1
62 33 59 1
63 33 60 1
64 34 61 1
@<TRIPOS>SUBSTRUCTURE
1	UNK0	1	GROUP	1 ****	UNK
