# created with PyMOL 2.3.2
@<TRIPOS>MOLECULE
25
62 65 1                 
SMALL
USER_CHARGES
@<TRIPOS>ATOM
1	  Br	-0.055	2.428	-4.674	Br	1	UNK0	0.000	
2	   C	0.962	2.068	-3.091	C.2	1	UNK0	0.000	
3	   C	1.966	2.937	-2.688	C.2	1	UNK0	0.000	
4	   C	2.673	2.619	-1.523	C.2	1	UNK0	0.000	
5	   C	2.372	1.479	-0.809	C.2	1	UNK0	0.000	
6	   C	1.365	0.607	-1.211	C.2	1	UNK0	0.000	
7	   C	0.674	0.930	-2.361	C.2	1	UNK0	0.000	
8	   C	1.106	-0.594	-0.389	C.3	1	UNK0	0.000	
9	   N	0.924	-1.784	-1.174	N.pl3	1	UNK0	0.000	
10	   C	-0.156	-2.512	-0.614	C.2	1	UNK0	0.000	
11	   O	-0.553	-3.674	-0.897	O.2	1	UNK0	0.000	
12	   C	-0.828	-1.690	0.423	C.2	1	UNK0	0.000	
13	   O	-1.810	-2.028	1.119	O.2	1	UNK0	0.000	
14	   C	-0.115	-0.443	0.457	C.2	1	UNK0	0.000	
15	   C	-0.463	0.628	1.148	C.2	1	UNK0	0.000	
16	   O	0.399	1.745	1.092	O.2	1	UNK0	0.000	
17	   C	-1.675	0.693	1.935	C.2	1	UNK0	0.000	
18	   C	-1.614	1.074	3.285	C.2	1	UNK0	0.000	
19	   C	-2.723	1.191	4.087	C.2	1	UNK0	0.000	
20	   C	-3.985	0.931	3.582	C.2	1	UNK0	0.000	
21	   C	-4.060	0.558	2.263	C.2	1	UNK0	0.000	
22	   C	-2.945	0.441	1.457	C.2	1	UNK0	0.000	
23	   O	-5.047	1.068	4.442	O.3	1	UNK0	0.000	
24	   C	-5.055	1.993	5.525	C.3	1	UNK0	0.000	
25	   C	-3.699	2.197	6.135	C.3	1	UNK0	0.000	
26	   O	-2.657	1.567	5.418	O.3	1	UNK0	0.000	
27	   C	1.676	-2.186	-2.312	C.3	1	UNK0	0.000	
28	   C	2.935	-2.928	-2.185	C.3	1	UNK0	0.000	
29	   C	3.025	-4.241	-1.537	C.3	1	UNK0	0.000	
30	   N	2.735	-4.366	-0.147	N.4	1	UNK0	0.000	
31	   C	3.156	-3.285	0.685	C.3	1	UNK0	0.000	
32	   C	3.454	-5.588	0.329	C.3	1	UNK0	0.000	
33	   O	3.680	3.472	-1.101	O.3	1	UNK0	0.000	
34	   C	4.405	3.172	0.071	C.3	1	UNK0	0.000	
35	   O	2.237	4.070	-3.432	O.3	1	UNK0	0.000	
36	   H	2.936	1.261	0.087	 H	1	UNK0	0.000	
37	   H	-0.100	0.263	-2.674	 H	1	UNK0	0.000	
38	   H	1.948	-0.748	0.302	 H	1	UNK0	0.000	
39	   H	-0.626	1.279	3.682	 H	1	UNK0	0.000	
40	   H	-5.068	0.352	1.869	 H	1	UNK0	0.000	
41	   H	-3.073	0.165	0.415	 H	1	UNK0	0.000	
42	   H	-5.492	2.934	5.131	 H	1	UNK0	0.000	
43	   H	-5.746	1.656	6.324	 H	1	UNK0	0.000	
44	   H	-3.483	3.296	6.118	 H	1	UNK0	0.000	
45	   H	-3.675	1.909	7.218	 H	1	UNK0	0.000	
46	   H	1.854	-1.281	-3.003	 H	1	UNK0	0.000	
47	   H	1.017	-2.819	-3.018	 H	1	UNK0	0.000	
48	   H	3.330	-3.113	-3.264	 H	1	UNK0	0.000	
49	   H	3.783	-2.238	-1.817	 H	1	UNK0	0.000	
50	   H	2.344	-5.011	-2.044	 H	1	UNK0	0.000	
51	   H	4.046	-4.723	-1.727	 H	1	UNK0	0.000	
52	   H	1.722	-4.563	-0.018	 H	1	UNK0	0.000	
53	   H	2.306	-2.936	1.331	 H	1	UNK0	0.000	
54	   H	3.919	-3.657	1.431	 H	1	UNK0	0.000	
55	   H	3.626	-2.439	0.163	 H	1	UNK0	0.000	
56	   H	3.324	-6.412	-0.383	 H	1	UNK0	0.000	
57	   H	3.048	-5.872	1.301	 H	1	UNK0	0.000	
58	   H	4.521	-5.302	0.331	 H	1	UNK0	0.000	
59	   H	3.770	2.910	0.938	 H	1	UNK0	0.000	
60	   H	5.024	4.050	0.386	 H	1	UNK0	0.000	
61	   H	5.029	2.281	-0.154	 H	1	UNK0	0.000	
62	   H	2.956	4.736	-3.187	 H	1	UNK0	0.000	
@<TRIPOS>BOND
1 1 2 1
2 2 3 2
3 2 7 1
4 3 4 1
5 3 35 1
6 4 5 2
7 4 33 1
8 5 6 1
9 6 7 2
10 6 8 1
11 8 9 1
12 8 14 1
13 9 10 1
14 9 27 1
15 10 11 2
16 10 12 1
17 12 13 2
18 12 14 1
19 14 15 2
20 15 16 1
21 15 17 1
22 17 18 2
23 17 22 1
24 18 19 1
25 19 20 2
26 19 26 1
27 20 21 1
28 20 23 1
29 21 22 2
30 23 24 1
31 24 25 1
32 25 26 1
33 27 28 1
34 28 29 1
35 29 30 1
36 30 31 1
37 30 32 1
38 33 34 1
39 5 36 1
40 7 37 1
41 8 38 1
42 18 39 1
43 21 40 1
44 22 41 1
45 24 42 1
46 24 43 1
47 25 44 1
48 25 45 1
49 27 46 1
50 27 47 1
51 28 48 1
52 28 49 1
53 29 50 1
54 29 51 1
55 30 52 1
56 31 53 1
57 31 54 1
58 31 55 1
59 32 56 1
60 32 57 1
61 32 58 1
62 34 59 1
63 34 60 1
64 34 61 1
65 35 62 1
@<TRIPOS>SUBSTRUCTURE
1	UNK0	1	GROUP	1 ****	UNK
