# created with PyMOL 2.3.2
@<TRIPOS>MOLECULE
31
47 50 1                 
SMALL
USER_CHARGES
@<TRIPOS>ATOM
1	  Br	2.578	-3.921	-0.763	Br	1	UNK0	0.000	
2	   C	2.346	-2.022	-0.935	C.2	1	UNK0	0.000	
3	   C	1.118	-1.472	-1.037	C.2	1	UNK0	0.000	
4	   C	0.962	-0.068	-1.228	C.2	1	UNK0	0.000	
5	   C	2.083	0.683	-1.311	C.2	1	UNK0	0.000	
6	   C	3.331	0.099	-1.216	C.2	1	UNK0	0.000	
7	   C	3.478	-1.241	-1.027	C.2	1	UNK0	0.000	
8	   C	-0.380	0.304	-1.717	C.3	1	UNK0	0.000	
9	   N	-1.177	1.242	-1.039	N.4	1	UNK0	0.000	
10	   C	-0.930	2.594	-1.097	C.3	1	UNK0	0.000	
11	   N	-1.968	3.374	-0.427	N.3	1	UNK0	0.000	
12	   C	-2.024	2.930	0.956	C.3	1	UNK0	0.000	
13	   N	-2.247	1.503	1.063	N.3	1	UNK0	0.000	
14	   C	-1.298	0.727	0.368	C.3	1	UNK0	0.000	
15	   C	-3.579	1.220	0.570	C.3	1	UNK0	0.000	
16	   C	-3.609	1.692	-0.862	C.3	1	UNK0	0.000	
17	   C	-2.546	0.965	-1.599	C.3	1	UNK0	0.000	
18	   C	-3.283	3.178	-0.986	C.3	1	UNK0	0.000	
19	   O	0.003	-2.228	-0.962	O.3	1	UNK0	0.000	
20	   C	-0.368	-2.997	0.200	C.3	1	UNK0	0.000	
21	   C	-0.101	-2.405	1.508	C.2	1	UNK0	0.000	
22	   O	-0.944	-2.170	2.362	O.co2	1	UNK0	0.000	
23	   O	1.232	-2.115	1.820	O.3	1	UNK0	0.000	
24	   C	1.632	-1.586	3.056	C.3	1	UNK0	0.000	
25	   H	2.008	1.752	-1.502	 H	1	UNK0	0.000	
26	   H	4.224	0.757	-1.308	 H	1	UNK0	0.000	
27	   H	4.451	-1.690	-0.908	 H	1	UNK0	0.000	
28	   H	-0.890	-0.448	-2.327	 H	1	UNK0	0.000	
29	   H	-0.076	1.043	-2.694	 H	1	UNK0	0.000	
30	   H	-0.744	2.943	-2.116	 H	1	UNK0	0.000	
31	   H	0.004	2.806	-0.513	 H	1	UNK0	0.000	
32	   H	-2.918	3.407	1.416	 H	1	UNK0	0.000	
33	   H	-1.145	3.265	1.526	 H	1	UNK0	0.000	
34	   H	-0.325	0.745	0.872	 H	1	UNK0	0.000	
35	   H	-1.690	-0.318	0.245	 H	1	UNK0	0.000	
36	   H	-3.684	0.102	0.526	 H	1	UNK0	0.000	
37	   H	-4.365	1.701	1.147	 H	1	UNK0	0.000	
38	   H	-4.571	1.456	-1.371	 H	1	UNK0	0.000	
39	   H	-2.648	-0.143	-1.590	 H	1	UNK0	0.000	
40	   H	-2.449	1.311	-2.668	 H	1	UNK0	0.000	
41	   H	-4.013	3.713	-0.377	 H	1	UNK0	0.000	
42	   H	-3.310	3.406	-2.060	 H	1	UNK0	0.000	
43	   H	0.049	-4.045	0.068	 H	1	UNK0	0.000	
44	   H	-1.495	-3.153	0.150	 H	1	UNK0	0.000	
45	   H	2.723	-1.726	3.209	 H	1	UNK0	0.000	
46	   H	1.037	-2.067	3.864	 H	1	UNK0	0.000	
47	   H	1.391	-0.487	3.004	 H	1	UNK0	0.000	
@<TRIPOS>BOND
1 1 2 1
2 2 3 2
3 2 7 1
4 3 4 1
5 3 19 1
6 4 5 2
7 4 8 1
8 5 6 1
9 6 7 2
10 8 9 1
11 9 10 1
12 9 14 1
13 9 17 1
14 10 11 1
15 11 12 1
16 11 18 1
17 12 13 1
18 13 14 1
19 13 15 1
20 15 16 1
21 16 17 1
22 16 18 1
23 19 20 1
24 20 21 1
25 21 22 2
26 21 23 1
27 23 24 1
28 5 25 1
29 6 26 1
30 7 27 1
31 8 28 1
32 8 29 1
33 10 30 1
34 10 31 1
35 12 32 1
36 12 33 1
37 14 34 1
38 14 35 1
39 15 36 1
40 15 37 1
41 16 38 1
42 17 39 1
43 17 40 1
44 18 41 1
45 18 42 1
46 20 43 1
47 20 44 1
48 24 45 1
49 24 46 1
50 24 47 1
@<TRIPOS>SUBSTRUCTURE
1	UNK0	1	GROUP	1 ****	UNK
