# created with PyMOL 2.3.2
@<TRIPOS>MOLECULE
32
50 53 1                 
SMALL
USER_CHARGES
@<TRIPOS>ATOM
1	  Br	-3.574	2.744	0.556	Br	1	UNK0	0.000	
2	   C	-2.974	0.933	0.640	C.2	1	UNK0	0.000	
3	   C	-3.891	-0.097	0.467	C.2	1	UNK0	0.000	
4	   C	-3.381	-1.391	0.549	C.2	1	UNK0	0.000	
5	   C	-2.070	-1.702	0.780	C.2	1	UNK0	0.000	
6	   C	-1.180	-0.619	0.939	C.2	1	UNK0	0.000	
7	   C	-1.613	0.628	0.872	C.2	1	UNK0	0.000	
8	   C	0.257	-0.972	1.177	C.3	1	UNK0	0.000	
9	   N	0.959	-0.931	-0.107	N.4	1	UNK0	0.000	
10	   C	0.121	-0.655	-1.236	C.3	1	UNK0	0.000	
11	   C	0.538	0.425	-2.145	C.3	1	UNK0	0.000	
12	   C	0.408	1.828	-1.706	C.3	1	UNK0	0.000	
13	   N	1.586	2.340	-1.032	N.pl3	1	UNK0	0.000	
14	   C	2.717	1.679	-0.898	C.2	1	UNK0	0.000	
15	   C	3.810	2.248	-0.302	C.2	1	UNK0	0.000	
16	   C	3.788	3.557	0.205	C.2	1	UNK0	0.000	
17	   C	2.606	4.213	0.052	C.2	1	UNK0	0.000	
18	   C	1.499	3.612	-0.566	C.2	1	UNK0	0.000	
19	   O	0.445	4.297	-0.671	O.2	1	UNK0	0.000	
20	   C	2.765	0.223	-1.313	C.3	1	UNK0	0.000	
21	   C	2.292	-0.602	-0.132	C.3	1	UNK0	0.000	
22	   C	1.967	0.081	-2.558	C.3	1	UNK0	0.000	
23	   O	-1.541	-2.957	0.871	O.3	1	UNK0	0.000	
24	   C	-2.216	-4.147	0.730	C.3	1	UNK0	0.000	
25	   O	-5.181	0.243	0.235	O.3	1	UNK0	0.000	
26	   C	-6.281	-0.562	0.000	C.3	1	UNK0	0.000	
27	   H	-4.121	-2.176	0.421	 H	1	UNK0	0.000	
28	   H	-0.966	1.530	1.010	 H	1	UNK0	0.000	
29	   H	0.687	-0.131	1.788	 H	1	UNK0	0.000	
30	   H	0.321	-1.894	1.729	 H	1	UNK0	0.000	
31	   H	1.007	-2.076	-0.227	 H	1	UNK0	0.000	
32	   H	-0.927	-0.498	-0.973	 H	1	UNK0	0.000	
33	   H	0.065	-1.593	-1.908	 H	1	UNK0	0.000	
34	   H	-0.057	0.284	-3.101	 H	1	UNK0	0.000	
35	   H	-0.495	2.110	-1.189	 H	1	UNK0	0.000	
36	   H	0.358	2.450	-2.679	 H	1	UNK0	0.000	
37	   H	4.752	1.667	-0.207	 H	1	UNK0	0.000	
38	   H	4.654	3.978	0.680	 H	1	UNK0	0.000	
39	   H	2.536	5.228	0.421	 H	1	UNK0	0.000	
40	   H	3.823	-0.002	-1.526	 H	1	UNK0	0.000	
41	   H	2.990	-1.510	-0.161	 H	1	UNK0	0.000	
42	   H	2.650	-0.059	0.760	 H	1	UNK0	0.000	
43	   H	1.922	-0.980	-2.908	 H	1	UNK0	0.000	
44	   H	2.336	0.752	-3.340	 H	1	UNK0	0.000	
45	   H	-2.962	-4.120	-0.117	 H	1	UNK0	0.000	
46	   H	-2.739	-4.456	1.643	 H	1	UNK0	0.000	
47	   H	-1.539	-4.996	0.460	 H	1	UNK0	0.000	
48	   H	-6.135	-1.599	0.360	 H	1	UNK0	0.000	
49	   H	-7.205	-0.077	0.370	 H	1	UNK0	0.000	
50	   H	-6.403	-0.555	-1.156	 H	1	UNK0	0.000	
@<TRIPOS>BOND
1 1 2 1
2 2 3 2
3 2 7 1
4 3 4 1
5 3 25 1
6 4 5 2
7 5 6 1
8 5 23 1
9 6 7 2
10 6 8 1
11 8 9 1
12 9 10 1
13 9 21 1
14 10 11 1
15 11 12 1
16 11 22 1
17 12 13 1
18 13 14 1
19 13 18 1
20 14 15 2
21 14 20 1
22 15 16 1
23 16 17 2
24 17 18 1
25 18 19 2
26 20 21 1
27 20 22 1
28 23 24 1
29 25 26 1
30 4 27 1
31 7 28 1
32 8 29 1
33 8 30 1
34 9 31 1
35 10 32 1
36 10 33 1
37 11 34 1
38 12 35 1
39 12 36 1
40 15 37 1
41 16 38 1
42 17 39 1
43 20 40 1
44 21 41 1
45 21 42 1
46 22 43 1
47 22 44 1
48 24 45 1
49 24 46 1
50 24 47 1
51 26 48 1
52 26 49 1
53 26 50 1
@<TRIPOS>SUBSTRUCTURE
1	UNK0	1	GROUP	1 ****	UNK
