# created with PyMOL 2.3.2
@<TRIPOS>MOLECULE
34
56 59 1                 
SMALL
USER_CHARGES
@<TRIPOS>ATOM
1	  Br	-2.468	4.713	-2.953	Br	1	UNK0	0.000	
2	   C	-0.850	3.874	-3.494	C.2	1	UNK0	0.000	
3	   C	-0.383	2.805	-2.760	C.2	1	UNK0	0.000	
4	   C	0.793	2.228	-3.189	C.2	1	UNK0	0.000	
5	   C	1.482	2.682	-4.294	C.2	1	UNK0	0.000	
6	   C	1.015	3.752	-5.028	C.2	1	UNK0	0.000	
7	   C	-0.160	4.343	-4.615	C.2	1	UNK0	0.000	
8	   O	1.717	4.207	-6.145	O.3	1	UNK0	0.000	
9	   C	1.298	5.283	-6.929	C.3	1	UNK0	0.000	
10	   O	2.669	2.094	-4.720	O.3	1	UNK0	0.000	
11	   C	3.282	1.009	-4.099	C.3	1	UNK0	0.000	
12	   C	-1.109	2.321	-1.591	C.2	1	UNK0	0.000	
13	   N	-0.748	1.346	-0.863	N.2	1	UNK0	0.000	
14	   N	-1.470	0.900	0.261	N.pl3	1	UNK0	0.000	
15	   C	-0.760	0.161	1.247	C.2	1	UNK0	0.000	
16	   N	-1.277	-0.350	2.394	N.pl3	1	UNK0	0.000	
17	   C	-0.287	-0.987	3.071	C.2	1	UNK0	0.000	
18	   N	-0.229	-1.653	4.230	N.2	1	UNK0	0.000	
19	   C	0.912	-2.203	4.684	C.2	1	UNK0	0.000	
20	   N	2.036	-2.079	3.945	N.2	1	UNK0	0.000	
21	   C	2.053	-1.432	2.785	C.2	1	UNK0	0.000	
22	   C	0.879	-0.869	2.325	C.2	1	UNK0	0.000	
23	   N	0.547	-0.178	1.248	N.2	1	UNK0	0.000	
24	   O	3.200	-1.286	1.998	O.3	1	UNK0	0.000	
25	   N	0.956	-2.914	5.930	N.pl3	1	UNK0	0.000	
26	   C	-2.639	-0.234	2.815	C.3	1	UNK0	0.000	
27	   O	-2.836	0.674	3.846	O.3	1	UNK0	0.000	
28	   C	-3.998	0.357	4.489	C.3	1	UNK0	0.000	
29	   C	-4.462	-0.993	4.061	C.3	1	UNK0	0.000	
30	   C	-3.235	-1.531	3.322	C.3	1	UNK0	0.000	
31	   O	-3.620	-2.370	2.277	O.3	1	UNK0	0.000	
32	   O	-5.465	-0.876	3.077	O.3	1	UNK0	0.000	
33	   C	-3.713	0.297	5.991	C.3	1	UNK0	0.000	
34	   O	-3.246	1.538	6.438	O.3	1	UNK0	0.000	
35	   H	1.167	1.379	-2.609	 H	1	UNK0	0.000	
36	   H	-0.549	5.185	-5.174	 H	1	UNK0	0.000	
37	   H	2.128	5.757	-7.498	 H	1	UNK0	0.000	
38	   H	0.883	6.112	-6.288	 H	1	UNK0	0.000	
39	   H	0.514	5.031	-7.663	 H	1	UNK0	0.000	
40	   H	3.939	0.517	-4.850	 H	1	UNK0	0.000	
41	   H	2.606	0.317	-3.588	 H	1	UNK0	0.000	
42	   H	3.987	1.399	-3.310	 H	1	UNK0	0.000	
43	   H	-2.027	2.823	-1.312	 H	1	UNK0	0.000	
44	   H	-2.476	1.087	0.394	 H	1	UNK0	0.000	
45	   H	3.784	-0.485	2.207	 H	1	UNK0	0.000	
46	   H	1.241	-3.894	6.028	 H	1	UNK0	0.000	
47	   H	0.675	-2.378	6.778	 H	1	UNK0	0.000	
48	   H	-3.289	0.094	1.976	 H	1	UNK0	0.000	
49	   H	-4.742	1.155	4.269	 H	1	UNK0	0.000	
50	   H	-4.763	-1.656	4.885	 H	1	UNK0	0.000	
51	   H	-2.561	-2.062	4.008	 H	1	UNK0	0.000	
52	   H	-3.072	-3.197	2.287	 H	1	UNK0	0.000	
53	   H	-6.051	-1.663	3.066	 H	1	UNK0	0.000	
54	   H	-2.932	-0.470	6.130	 H	1	UNK0	0.000	
55	   H	-4.648	0.002	6.488	 H	1	UNK0	0.000	
56	   H	-3.014	2.131	5.678	 H	1	UNK0	0.000	
@<TRIPOS>BOND
1 1 2 1
2 2 3 2
3 2 7 1
4 3 4 1
5 3 12 1
6 4 5 2
7 5 6 1
8 5 10 1
9 6 7 2
10 6 8 1
11 8 9 1
12 10 11 1
13 12 13 2
14 13 14 1
15 14 15 1
16 15 16 1
17 15 23 2
18 16 17 1
19 16 26 1
20 17 18 2
21 17 22 1
22 18 19 1
23 19 20 2
24 19 25 1
25 20 21 1
26 21 22 2
27 21 24 1
28 22 23 1
29 26 27 1
30 26 30 1
31 27 28 1
32 28 29 1
33 28 33 1
34 29 30 1
35 29 32 1
36 30 31 1
37 33 34 1
38 4 35 1
39 7 36 1
40 9 37 1
41 9 38 1
42 9 39 1
43 11 40 1
44 11 41 1
45 11 42 1
46 12 43 1
47 14 44 1
48 24 45 1
49 25 46 1
50 25 47 1
51 26 48 1
52 28 49 1
53 29 50 1
54 30 51 1
55 31 52 1
56 32 53 1
57 33 54 1
58 33 55 1
59 34 56 1
@<TRIPOS>SUBSTRUCTURE
1	UNK0	1	GROUP	1 ****	UNK
