# created with PyMOL 2.3.2
@<TRIPOS>MOLECULE
35
52 55 1                 
SMALL
USER_CHARGES
@<TRIPOS>ATOM
1	  Br	2.177	3.304	3.459	Br	1	UNK0	0.000	
2	   C	1.099	2.003	4.342	C.2	1	UNK0	0.000	
3	   C	0.878	2.083	5.705	C.2	1	UNK0	0.000	
4	   C	0.090	1.124	6.323	C.2	1	UNK0	0.000	
5	   C	-0.458	0.107	5.574	C.2	1	UNK0	0.000	
6	   C	-0.213	0.061	4.210	C.2	1	UNK0	0.000	
7	   C	0.563	0.998	3.572	C.2	1	UNK0	0.000	
8	   C	0.797	0.906	2.152	C.2	1	UNK0	0.000	
9	   N	1.514	1.738	1.471	N.2	1	UNK0	0.000	
10	   N	1.688	1.564	0.070	N.pl3	1	UNK0	0.000	
11	   C	1.111	0.480	-0.623	C.2	1	UNK0	0.000	
12	   N	-0.071	0.641	-1.225	N.2	1	UNK0	0.000	
13	   C	-0.683	-0.367	-1.902	C.2	1	UNK0	0.000	
14	   N	-0.077	-1.563	-1.967	N.2	1	UNK0	0.000	
15	   C	1.110	-1.757	-1.373	C.2	1	UNK0	0.000	
16	   N	1.694	-0.720	-0.702	N.2	1	UNK0	0.000	
17	   N	1.762	-3.025	-1.439	N.pl3	1	UNK0	0.000	
18	   C	1.263	-4.139	-2.209	C.3	1	UNK0	0.000	
19	   C	1.316	-5.418	-1.401	C.3	1	UNK0	0.000	
20	   O	1.805	-5.217	-0.119	O.3	1	UNK0	0.000	
21	   C	3.090	-4.647	-0.205	C.3	1	UNK0	0.000	
22	   C	2.989	-3.215	-0.692	C.3	1	UNK0	0.000	
23	   N	-1.927	-0.089	-2.504	N.pl3	1	UNK0	0.000	
24	   C	-2.428	1.259	-2.497	C.3	1	UNK0	0.000	
25	   C	-2.674	1.605	-3.974	C.3	1	UNK0	0.000	
26	   O	-3.651	0.708	-4.407	O.3	1	UNK0	0.000	
27	   C	-3.170	-0.595	-4.479	C.3	1	UNK0	0.000	
28	   C	-2.724	-1.117	-3.128	C.3	1	UNK0	0.000	
29	   O	-1.238	-0.831	6.232	O.3	1	UNK0	0.000	
30	   O	1.431	3.106	6.453	O.3	1	UNK0	0.000	
31	   H	-0.073	1.203	7.390	 H	1	UNK0	0.000	
32	   H	-0.674	-0.763	3.682	 H	1	UNK0	0.000	
33	   H	0.357	0.093	1.575	 H	1	UNK0	0.000	
34	   H	2.253	2.248	-0.475	 H	1	UNK0	0.000	
35	   H	1.971	-4.275	-3.078	 H	1	UNK0	0.000	
36	   H	0.237	-3.978	-2.594	 H	1	UNK0	0.000	
37	   H	1.977	-6.186	-1.880	 H	1	UNK0	0.000	
38	   H	0.285	-5.850	-1.284	 H	1	UNK0	0.000	
39	   H	3.516	-4.681	0.823	 H	1	UNK0	0.000	
40	   H	3.746	-5.249	-0.897	 H	1	UNK0	0.000	
41	   H	3.825	-2.991	-1.373	 H	1	UNK0	0.000	
42	   H	3.013	-2.529	0.204	 H	1	UNK0	0.000	
43	   H	-1.679	1.953	-2.060	 H	1	UNK0	0.000	
44	   H	-3.391	1.278	-1.936	 H	1	UNK0	0.000	
45	   H	-3.019	2.625	-4.122	 H	1	UNK0	0.000	
46	   H	-1.693	1.395	-4.483	 H	1	UNK0	0.000	
47	   H	-2.392	-0.731	-5.248	 H	1	UNK0	0.000	
48	   H	-4.044	-1.229	-4.768	 H	1	UNK0	0.000	
49	   H	-3.644	-1.265	-2.503	 H	1	UNK0	0.000	
50	   H	-2.172	-2.060	-3.273	 H	1	UNK0	0.000	
51	   H	-2.237	-0.749	6.363	 H	1	UNK0	0.000	
52	   H	2.001	3.793	5.977	 H	1	UNK0	0.000	
@<TRIPOS>BOND
1 1 2 1
2 2 3 2
3 2 7 1
4 3 4 1
5 3 30 1
6 4 5 2
7 5 6 1
8 5 29 1
9 6 7 2
10 7 8 1
11 8 9 2
12 9 10 1
13 10 11 1
14 11 12 2
15 11 16 1
16 12 13 1
17 13 14 2
18 13 23 1
19 14 15 1
20 15 16 2
21 15 17 1
22 17 18 1
23 17 22 1
24 18 19 1
25 19 20 1
26 20 21 1
27 21 22 1
28 23 24 1
29 23 28 1
30 24 25 1
31 25 26 1
32 26 27 1
33 27 28 1
34 4 31 1
35 6 32 1
36 8 33 1
37 10 34 1
38 18 35 1
39 18 36 1
40 19 37 1
41 19 38 1
42 21 39 1
43 21 40 1
44 22 41 1
45 22 42 1
46 24 43 1
47 24 44 1
48 25 45 1
49 25 46 1
50 27 47 1
51 27 48 1
52 28 49 1
53 28 50 1
54 29 51 1
55 30 52 1
@<TRIPOS>SUBSTRUCTURE
1	UNK0	1	GROUP	1 ****	UNK
