# created with PyMOL 2.3.2
@<TRIPOS>MOLECULE
38
46 49 1                 
SMALL
USER_CHARGES
@<TRIPOS>ATOM
1	  Br	-4.990	3.995	-1.768	Br	1	UNK0	0.000	
2	   C	-4.380	2.327	-2.485	C.2	1	UNK0	0.000	
3	   C	-3.085	1.959	-2.210	C.2	1	UNK0	0.000	
4	   C	-2.637	0.760	-2.722	C.2	1	UNK0	0.000	
5	   C	-3.492	-0.033	-3.490	C.2	1	UNK0	0.000	
6	   C	-4.791	0.340	-3.764	C.2	1	UNK0	0.000	
7	   C	-5.229	1.541	-3.247	C.2	1	UNK0	0.000	
8	   O	-3.042	-1.238	-4.004	O.3	1	UNK0	0.000	
9	   C	-1.708	-1.685	-3.760	C.3	1	UNK0	0.000	
10	   C	-2.207	2.801	-1.405	C.2	1	UNK0	0.000	
11	   O	-1.515	3.653	-1.984	O.2	1	UNK0	0.000	
12	   N	-2.194	2.597	0.002	N.pl3	1	UNK0	0.000	
13	   C	-3.020	1.589	0.633	C.3	1	UNK0	0.000	
14	   C	-2.409	1.208	1.985	C.3	1	UNK0	0.000	
15	   N	-0.965	1.206	1.772	N.pl3	1	UNK0	0.000	
16	   C	-0.340	2.496	1.584	C.3	1	UNK0	0.000	
17	   C	-1.348	3.392	0.881	C.3	1	UNK0	0.000	
18	   C	-0.234	-0.031	1.755	C.2	1	UNK0	0.000	
19	   N	-0.891	-1.193	1.917	N.2	1	UNK0	0.000	
20	   N	-0.280	-2.367	1.913	N.2	1	UNK0	0.000	
21	   C	1.048	-2.511	1.748	C.2	1	UNK0	0.000	
22	   C	1.771	-1.349	1.578	C.2	1	UNK0	0.000	
23	   C	1.127	-0.104	1.582	C.2	1	UNK0	0.000	
24	   N	1.680	-3.796	1.748	N.pl3	1	UNK0	0.000	
25	   N	1.288	-4.913	1.158	N.2	1	UNK0	0.000	
26	   C	2.154	-5.915	1.393	C.2	1	UNK0	0.000	
27	   N	3.131	-5.405	2.164	N.2	1	UNK0	0.000	
28	   C	2.824	-4.105	2.372	C.2	1	UNK0	0.000	
29	   H	-1.610	0.437	-2.521	 H	1	UNK0	0.000	
30	   H	-5.422	-0.307	-4.365	 H	1	UNK0	0.000	
31	   H	-6.244	1.859	-3.445	 H	1	UNK0	0.000	
32	   H	-0.966	-0.952	-4.142	 H	1	UNK0	0.000	
33	   H	-1.609	-1.761	-2.651	 H	1	UNK0	0.000	
34	   H	-1.548	-2.663	-4.230	 H	1	UNK0	0.000	
35	   H	-4.031	2.013	0.771	 H	1	UNK0	0.000	
36	   H	-3.031	0.676	-0.008	 H	1	UNK0	0.000	
37	   H	-2.776	0.191	2.253	 H	1	UNK0	0.000	
38	   H	-2.678	1.939	2.768	 H	1	UNK0	0.000	
39	   H	0.624	2.473	1.077	 H	1	UNK0	0.000	
40	   H	-0.234	2.934	2.619	 H	1	UNK0	0.000	
41	   H	-2.030	3.883	1.613	 H	1	UNK0	0.000	
42	   H	-0.829	4.199	0.310	 H	1	UNK0	0.000	
43	   H	2.843	-1.419	1.442	 H	1	UNK0	0.000	
44	   H	1.698	0.796	1.449	 H	1	UNK0	0.000	
45	   H	2.088	-6.953	1.031	 H	1	UNK0	0.000	
46	   H	3.392	-3.380	2.952	 H	1	UNK0	0.000	
@<TRIPOS>BOND
1 1 2 1
2 2 3 2
3 2 7 1
4 3 4 1
5 3 10 1
6 4 5 2
7 5 6 1
8 5 8 1
9 6 7 2
10 8 9 1
11 10 11 2
12 10 12 1
13 12 13 1
14 12 17 1
15 13 14 1
16 14 15 1
17 15 16 1
18 15 18 1
19 16 17 1
20 18 19 2
21 18 23 1
22 19 20 1
23 20 21 2
24 21 22 1
25 21 24 1
26 22 23 2
27 24 25 1
28 24 28 1
29 25 26 2
30 26 27 1
31 27 28 2
32 4 29 1
33 6 30 1
34 7 31 1
35 9 32 1
36 9 33 1
37 9 34 1
38 13 35 1
39 13 36 1
40 14 37 1
41 14 38 1
42 16 39 1
43 16 40 1
44 17 41 1
45 17 42 1
46 22 43 1
47 23 44 1
48 26 45 1
49 28 46 1
@<TRIPOS>SUBSTRUCTURE
1	UNK0	1	GROUP	1 ****	UNK
