# created with PyMOL 2.3.2
@<TRIPOS>MOLECULE
40
56 59 1                 
SMALL
USER_CHARGES
@<TRIPOS>ATOM
1	  Br	-2.244	-5.407	1.325	Br	1	UNK0	0.000	
2	   C	-0.463	-4.788	1.316	C.2	1	UNK0	0.000	
3	   C	0.586	-5.700	1.220	C.2	1	UNK0	0.000	
4	   C	1.878	-5.259	1.213	C.2	1	UNK0	0.000	
5	   C	2.135	-3.891	1.304	C.2	1	UNK0	0.000	
6	   C	1.124	-2.971	1.399	C.2	1	UNK0	0.000	
7	   C	-0.167	-3.433	1.404	C.2	1	UNK0	0.000	
8	   C	1.369	-1.551	1.494	C.2	1	UNK0	0.000	
9	   N	0.456	-0.662	1.584	N.2	1	UNK0	0.000	
10	   N	0.702	0.708	1.676	N.pl3	1	UNK0	0.000	
11	   C	1.347	1.484	0.678	C.2	1	UNK0	0.000	
12	   N	0.840	2.141	-0.387	N.pl3	1	UNK0	0.000	
13	   C	1.820	2.755	-1.084	C.2	1	UNK0	0.000	
14	   N	1.856	3.522	-2.201	N.2	1	UNK0	0.000	
15	   C	2.997	4.018	-2.695	C.2	1	UNK0	0.000	
16	   N	4.140	3.741	-2.054	N.2	1	UNK0	0.000	
17	   C	4.178	2.990	-0.945	C.2	1	UNK0	0.000	
18	   C	2.995	2.474	-0.431	C.2	1	UNK0	0.000	
19	   N	2.681	1.707	0.626	N.2	1	UNK0	0.000	
20	   O	5.346	2.693	-0.270	O.3	1	UNK0	0.000	
21	   N	3.059	4.824	-3.864	N.pl3	1	UNK0	0.000	
22	   C	-0.577	2.147	-0.693	C.3	1	UNK0	0.000	
23	   O	-0.775	2.901	-1.839	O.3	1	UNK0	0.000	
24	   C	-1.045	4.165	-1.371	C.3	1	UNK0	0.000	
25	   C	-2.160	3.855	-0.356	C.3	1	UNK0	0.000	
26	   C	-1.425	2.738	0.412	C.3	1	UNK0	0.000	
27	   O	-0.650	3.425	1.357	O.3	1	UNK0	0.000	
28	   O	-3.256	3.314	-0.989	O.3	1	UNK0	0.000	
29	   C	-1.547	5.110	-2.434	C.3	1	UNK0	0.000	
30	   O	-1.776	6.343	-1.826	O.3	1	UNK0	0.000	
31	   N	0.334	-7.090	1.127	N.pl3	1	UNK0	0.000	
32	   C	-0.429	-7.643	0.039	C.3	1	UNK0	0.000	
33	   C	0.854	-7.968	2.143	C.3	1	UNK0	0.000	
34	   H	2.685	-5.984	1.138	 H	1	UNK0	0.000	
35	   H	3.164	-3.567	1.296	 H	1	UNK0	0.000	
36	   H	-0.993	-2.744	1.478	 H	1	UNK0	0.000	
37	   H	2.401	-1.211	1.489	 H	1	UNK0	0.000	
38	   H	0.392	1.192	2.539	 H	1	UNK0	0.000	
39	   H	5.895	3.400	0.194	 H	1	UNK0	0.000	
40	   H	2.564	5.735	-3.950	 H	1	UNK0	0.000	
41	   H	3.618	4.502	-4.673	 H	1	UNK0	0.000	
42	   H	-0.910	1.081	-0.907	 H	1	UNK0	0.000	
43	   H	-0.255	4.639	-0.779	 H	1	UNK0	0.000	
44	   H	-2.367	4.716	0.280	 H	1	UNK0	0.000	
45	   H	-2.122	2.024	0.857	 H	1	UNK0	0.000	
46	   H	-1.275	3.725	2.058	 H	1	UNK0	0.000	
47	   H	-4.070	3.842	-0.848	 H	1	UNK0	0.000	
48	   H	-0.726	5.250	-3.163	 H	1	UNK0	0.000	
49	   H	-2.470	4.757	-2.918	 H	1	UNK0	0.000	
50	   H	-1.015	6.957	-1.984	 H	1	UNK0	0.000	
51	   H	0.227	-8.198	-0.673	 H	1	UNK0	0.000	
52	   H	-1.089	-8.441	0.487	 H	1	UNK0	0.000	
53	   H	-1.058	-6.909	-0.484	 H	1	UNK0	0.000	
54	   H	1.136	-8.963	1.698	 H	1	UNK0	0.000	
55	   H	0.189	-8.085	3.013	 H	1	UNK0	0.000	
56	   H	1.835	-7.521	2.474	 H	1	UNK0	0.000	
@<TRIPOS>BOND
1 1 2 1
2 2 3 2
3 2 7 1
4 3 4 1
5 3 31 1
6 4 5 2
7 5 6 1
8 6 7 2
9 6 8 1
10 8 9 2
11 9 10 1
12 10 11 1
13 11 12 1
14 11 19 2
15 12 13 1
16 12 22 1
17 13 14 2
18 13 18 1
19 14 15 1
20 15 16 2
21 15 21 1
22 16 17 1
23 17 18 2
24 17 20 1
25 18 19 1
26 22 23 1
27 22 26 1
28 23 24 1
29 24 25 1
30 24 29 1
31 25 26 1
32 25 28 1
33 26 27 1
34 29 30 1
35 31 32 1
36 31 33 1
37 4 34 1
38 5 35 1
39 7 36 1
40 8 37 1
41 10 38 1
42 20 39 1
43 21 40 1
44 21 41 1
45 22 42 1
46 24 43 1
47 25 44 1
48 26 45 1
49 27 46 1
50 28 47 1
51 29 48 1
52 29 49 1
53 30 50 1
54 32 51 1
55 32 52 1
56 32 53 1
57 33 54 1
58 33 55 1
59 33 56 1
@<TRIPOS>SUBSTRUCTURE
1	UNK0	1	GROUP	1 ****	UNK
