# created with PyMOL 2.3.2
@<TRIPOS>MOLECULE
41
52 55 1                 
SMALL
USER_CHARGES
@<TRIPOS>ATOM
1	  Br	0.840	-6.429	-2.563	Br	1	UNK0	0.000	
2	   C	-0.559	-5.566	-1.559	C.2	1	UNK0	0.000	
3	   C	-1.718	-6.281	-1.373	C.2	1	UNK0	0.000	
4	   C	-2.720	-5.631	-0.642	C.2	1	UNK0	0.000	
5	   C	-2.546	-4.359	-0.146	C.2	1	UNK0	0.000	
6	   C	-1.388	-3.644	-0.332	C.2	1	UNK0	0.000	
7	   C	-0.384	-4.294	-1.063	C.2	1	UNK0	0.000	
8	   C	-1.152	-2.300	0.166	C.2	1	UNK0	0.000	
9	   N	-2.029	-1.645	0.840	N.2	1	UNK0	0.000	
10	   N	-1.772	-0.344	1.308	N.pl3	1	UNK0	0.000	
11	   C	-0.633	-0.055	2.120	C.2	1	UNK0	0.000	
12	   N	0.258	0.963	1.922	N.pl3	1	UNK0	0.000	
13	   C	1.190	0.911	2.886	C.2	1	UNK0	0.000	
14	   N	2.283	1.618	3.207	N.2	1	UNK0	0.000	
15	   C	3.098	1.398	4.230	C.2	1	UNK0	0.000	
16	   N	2.791	0.347	5.036	N.2	1	UNK0	0.000	
17	   C	1.699	-0.429	4.788	C.2	1	UNK0	0.000	
18	   C	0.881	-0.163	3.713	C.2	1	UNK0	0.000	
19	   N	-0.232	-0.724	3.213	N.2	1	UNK0	0.000	
20	   O	1.429	-1.496	5.648	O.3	1	UNK0	0.000	
21	   N	4.247	2.181	4.522	N.pl3	1	UNK0	0.000	
22	   C	0.155	1.888	0.847	C.3	1	UNK0	0.000	
23	   O	1.236	1.796	-0.033	O.3	1	UNK0	0.000	
24	   C	1.234	2.914	-0.824	C.3	1	UNK0	0.000	
25	   C	0.434	3.992	-0.138	C.3	1	UNK0	0.000	
26	   C	0.175	3.338	1.228	C.3	1	UNK0	0.000	
27	   O	1.222	3.726	2.025	O.3	1	UNK0	0.000	
28	   O	-0.780	4.256	-0.743	O.3	1	UNK0	0.000	
29	   C	0.711	2.606	-2.213	C.3	1	UNK0	0.000	
30	   O	-0.589	2.127	-2.185	O.3	1	UNK0	0.000	
31	   O	-1.900	-7.562	-1.870	O.3	1	UNK0	0.000	
32	   C	-3.107	-8.268	-1.661	C.3	1	UNK0	0.000	
33	   H	-3.647	-6.177	-0.481	 H	1	UNK0	0.000	
34	   H	-3.337	-3.852	0.430	 H	1	UNK0	0.000	
35	   H	0.534	-3.752	-1.221	 H	1	UNK0	0.000	
36	   H	-0.220	-1.779	-0.005	 H	1	UNK0	0.000	
37	   H	-2.425	0.405	1.053	 H	1	UNK0	0.000	
38	   H	0.625	-2.097	5.508	 H	1	UNK0	0.000	
39	   H	4.275	2.809	5.336	 H	1	UNK0	0.000	
40	   H	5.077	2.119	3.903	 H	1	UNK0	0.000	
41	   H	-0.779	1.732	0.260	 H	1	UNK0	0.000	
42	   H	2.295	3.269	-0.923	 H	1	UNK0	0.000	
43	   H	0.990	4.942	-0.006	 H	1	UNK0	0.000	
44	   H	-0.782	3.694	1.667	 H	1	UNK0	0.000	
45	   H	2.042	3.925	1.517	 H	1	UNK0	0.000	
46	   H	-1.536	4.237	-0.099	 H	1	UNK0	0.000	
47	   H	1.344	1.751	-2.587	 H	1	UNK0	0.000	
48	   H	0.874	3.428	-2.920	 H	1	UNK0	0.000	
49	   H	-0.753	1.538	-2.980	 H	1	UNK0	0.000	
50	   H	-2.933	-9.366	-1.861	 H	1	UNK0	0.000	
51	   H	-3.391	-8.208	-0.591	 H	1	UNK0	0.000	
52	   H	-3.925	-7.884	-2.299	 H	1	UNK0	0.000	
@<TRIPOS>BOND
1 1 2 1
2 2 3 2
3 2 7 1
4 3 4 1
5 3 31 1
6 4 5 2
7 5 6 1
8 6 7 2
9 6 8 1
10 8 9 2
11 9 10 1
12 10 11 1
13 11 12 1
14 11 19 2
15 12 13 1
16 12 22 1
17 13 14 2
18 13 18 1
19 14 15 1
20 15 16 2
21 15 21 1
22 16 17 1
23 17 18 2
24 17 20 1
25 18 19 1
26 22 23 1
27 22 26 1
28 23 24 1
29 24 25 1
30 24 29 1
31 25 26 1
32 25 28 1
33 26 27 1
34 29 30 1
35 31 32 1
36 4 33 1
37 5 34 1
38 7 35 1
39 8 36 1
40 10 37 1
41 20 38 1
42 21 39 1
43 21 40 1
44 22 41 1
45 24 42 1
46 25 43 1
47 26 44 1
48 27 45 1
49 28 46 1
50 29 47 1
51 29 48 1
52 30 49 1
53 32 50 1
54 32 51 1
55 32 52 1
@<TRIPOS>SUBSTRUCTURE
1	UNK0	1	GROUP	1 ****	UNK
