# created with PyMOL 2.3.2
@<TRIPOS>MOLECULE
46
36 39 1                 
SMALL
USER_CHARGES
@<TRIPOS>ATOM
1	  Br	4.314	-2.376	0.800	Br	1	UNK0	0.000	
2	   C	3.557	-0.619	0.676	C.2	1	UNK0	0.000	
3	   C	4.290	0.407	1.227	C.2	1	UNK0	0.000	
4	   C	3.740	1.674	1.136	C.2	1	UNK0	0.000	
5	   C	2.524	1.890	0.524	C.2	1	UNK0	0.000	
6	   C	1.783	0.870	-0.031	C.2	1	UNK0	0.000	
7	   C	2.341	-0.396	0.065	C.2	1	UNK0	0.000	
8	   N	0.526	1.105	-0.658	N.pl3	1	UNK0	0.000	
9	   C	-0.674	1.495	0.044	C.2	1	UNK0	0.000	
10	   O	-0.730	2.092	1.153	O.2	1	UNK0	0.000	
11	   C	-1.832	1.083	-0.743	C.3	1	UNK0	0.000	
12	   C	-2.254	-0.341	-0.558	C.3	1	UNK0	0.000	
13	   O	-2.877	-0.567	-1.809	O.3	1	UNK0	0.000	
14	   C	-1.739	-0.340	-2.610	C.3	1	UNK0	0.000	
15	   C	-1.311	1.038	-2.183	C.3	1	UNK0	0.000	
16	   C	0.165	1.021	-2.037	C.2	1	UNK0	0.000	
17	   O	0.968	0.946	-2.979	O.2	1	UNK0	0.000	
18	   C	-0.784	-1.302	-1.974	C.2	1	UNK0	0.000	
19	   C	-1.087	-1.241	-0.676	C.2	1	UNK0	0.000	
20	   C	-3.115	-0.623	0.598	C.3	1	UNK0	0.000	
21	   O	-3.491	-1.974	0.541	O.3	1	UNK0	0.000	
22	   C	5.598	0.157	1.886	C.3	1	UNK0	0.000	
23	   H	4.297	2.497	1.562	 H	1	UNK0	0.000	
24	   H	2.086	2.898	0.449	 H	1	UNK0	0.000	
25	   H	1.791	-1.229	-0.359	 H	1	UNK0	0.000	
26	   H	-2.677	1.789	-0.670	 H	1	UNK0	0.000	
27	   H	-1.906	-0.473	-3.661	 H	1	UNK0	0.000	
28	   H	-1.692	1.852	-2.799	 H	1	UNK0	0.000	
29	   H	-0.024	-1.914	-2.403	 H	1	UNK0	0.000	
30	   H	-0.622	-1.723	0.173	 H	1	UNK0	0.000	
31	   H	-2.560	-0.446	1.519	 H	1	UNK0	0.000	
32	   H	-4.041	-0.031	0.563	 H	1	UNK0	0.000	
33	   H	-2.849	-2.476	1.113	 H	1	UNK0	0.000	
34	   H	5.460	-0.065	2.984	 H	1	UNK0	0.000	
35	   H	6.167	-0.666	1.454	 H	1	UNK0	0.000	
36	   H	6.204	1.087	1.873	 H	1	UNK0	0.000	
@<TRIPOS>BOND
1 1 2 1
2 2 3 2
3 2 7 1
4 3 4 1
5 3 22 1
6 4 5 2
7 5 6 1
8 6 7 2
9 6 8 1
10 8 9 1
11 8 16 1
12 9 10 2
13 9 11 1
14 11 12 1
15 11 15 1
16 12 13 1
17 12 19 1
18 12 20 1
19 13 14 1
20 14 15 1
21 14 18 1
22 15 16 1
23 16 17 2
24 18 19 2
25 20 21 1
26 4 23 1
27 5 24 1
28 7 25 1
29 11 26 1
30 14 27 1
31 15 28 1
32 18 29 1
33 19 30 1
34 20 31 1
35 20 32 1
36 21 33 1
37 22 34 1
38 22 35 1
39 22 36 1
@<TRIPOS>SUBSTRUCTURE
1	UNK0	1	GROUP	1 ****	UNK
