# created with PyMOL 2.3.2
@<TRIPOS>MOLECULE
47
39 42 1                 
SMALL
USER_CHARGES
@<TRIPOS>ATOM
1	  Br	-3.358	1.131	-1.557	Br	1	UNK0	0.000	
2	   C	-3.470	-0.072	-3.050	C.2	1	UNK0	0.000	
3	   C	-2.505	-1.028	-3.197	C.2	1	UNK0	0.000	
4	   C	-2.626	-1.845	-4.341	C.2	1	UNK0	0.000	
5	   C	-3.650	-1.677	-5.231	C.2	1	UNK0	0.000	
6	   C	-4.600	-0.701	-5.039	C.2	1	UNK0	0.000	
7	   C	-4.526	0.120	-3.943	C.2	1	UNK0	0.000	
8	   C	-1.423	-1.322	-2.297	C.2	1	UNK0	0.000	
9	   O	-0.384	-1.861	-2.802	O.2	1	UNK0	0.000	
10	   N	-1.388	-1.087	-0.928	N.pl3	1	UNK0	0.000	
11	   C	-0.231	-1.416	-0.101	C.3	1	UNK0	0.000	
12	   C	0.282	-0.183	0.562	C.3	1	UNK0	0.000	
13	   N	0.489	-0.542	1.938	N.pl3	1	UNK0	0.000	
14	   C	0.462	-1.994	2.075	C.3	1	UNK0	0.000	
15	   C	-0.567	-2.362	0.995	C.3	1	UNK0	0.000	
16	   C	0.687	0.361	3.016	C.2	1	UNK0	0.000	
17	   N	0.892	-0.084	4.274	N.2	1	UNK0	0.000	
18	   N	1.077	0.736	5.309	N.pl3	1	UNK0	0.000	
19	   C	1.064	2.072	5.126	C.2	1	UNK0	0.000	
20	   N	1.273	2.661	6.317	N.2	1	UNK0	0.000	
21	   N	1.416	1.741	7.243	N.2	1	UNK0	0.000	
22	   C	1.294	0.542	6.617	C.2	1	UNK0	0.000	
23	   C	0.862	2.592	3.875	C.2	1	UNK0	0.000	
24	   C	0.674	1.725	2.825	C.2	1	UNK0	0.000	
25	   H	-1.873	-2.626	-4.503	 H	1	UNK0	0.000	
26	   H	-3.706	-2.341	-6.109	 H	1	UNK0	0.000	
27	   H	-5.411	-0.588	-5.768	 H	1	UNK0	0.000	
28	   H	-5.252	0.904	-3.748	 H	1	UNK0	0.000	
29	   H	-2.187	-0.689	-0.417	 H	1	UNK0	0.000	
30	   H	0.548	-1.816	-0.786	 H	1	UNK0	0.000	
31	   H	-0.516	0.616	0.499	 H	1	UNK0	0.000	
32	   H	1.218	0.177	0.074	 H	1	UNK0	0.000	
33	   H	1.433	-2.459	1.813	 H	1	UNK0	0.000	
34	   H	0.159	-2.338	3.067	 H	1	UNK0	0.000	
35	   H	-1.561	-2.113	1.420	 H	1	UNK0	0.000	
36	   H	-0.499	-3.428	0.736	 H	1	UNK0	0.000	
37	   H	1.365	-0.408	7.120	 H	1	UNK0	0.000	
38	   H	0.852	3.668	3.732	 H	1	UNK0	0.000	
39	   H	0.508	2.108	1.812	 H	1	UNK0	0.000	
@<TRIPOS>BOND
1 1 2 1
2 2 3 2
3 2 7 1
4 3 4 1
5 3 8 1
6 4 5 2
7 5 6 1
8 6 7 2
9 8 9 2
10 8 10 1
11 10 11 1
12 11 12 1
13 11 15 1
14 12 13 1
15 13 14 1
16 13 16 1
17 14 15 1
18 16 17 2
19 16 24 1
20 17 18 1
21 18 19 1
22 18 22 1
23 19 20 2
24 19 23 1
25 20 21 1
26 21 22 2
27 23 24 2
28 4 25 1
29 5 26 1
30 6 27 1
31 7 28 1
32 10 29 1
33 11 30 1
34 12 31 1
35 12 32 1
36 14 33 1
37 14 34 1
38 15 35 1
39 15 36 1
40 22 37 1
41 23 38 1
42 24 39 1
@<TRIPOS>SUBSTRUCTURE
1	UNK0	1	GROUP	1 ****	UNK
