# created with PyMOL 2.3.2
@<TRIPOS>MOLECULE
48
42 45 1                 
SMALL
USER_CHARGES
@<TRIPOS>ATOM
1	  Br	2.341	6.238	1.270	Br	1	UNK0	0.000	
2	   C	2.863	5.487	-0.402	C.2	1	UNK0	0.000	
3	   C	3.454	4.268	-0.516	C.2	1	UNK0	0.000	
4	   C	3.829	3.729	-1.727	C.2	1	UNK0	0.000	
5	   C	3.615	4.423	-2.903	C.2	1	UNK0	0.000	
6	   C	3.021	5.650	-2.812	C.2	1	UNK0	0.000	
7	   C	2.646	6.187	-1.594	C.2	1	UNK0	0.000	
8	   C	3.712	3.475	0.703	C.2	1	UNK0	0.000	
9	   O	4.799	3.598	1.324	O.2	1	UNK0	0.000	
10	   N	2.750	2.572	1.190	N.pl3	1	UNK0	0.000	
11	   C	3.005	1.804	2.376	C.3	1	UNK0	0.000	
12	   C	2.764	0.306	2.138	C.3	1	UNK0	0.000	
13	   N	1.519	0.137	1.405	N.pl3	1	UNK0	0.000	
14	   C	1.357	0.910	0.211	C.3	1	UNK0	0.000	
15	   C	1.499	2.413	0.498	C.3	1	UNK0	0.000	
16	   C	0.562	-0.780	1.928	C.2	1	UNK0	0.000	
17	   N	0.789	-1.479	3.054	N.2	1	UNK0	0.000	
18	   C	-0.079	-2.353	3.587	C.2	1	UNK0	0.000	
19	   N	-1.252	-2.546	2.958	N.2	1	UNK0	0.000	
20	   C	-1.589	-1.904	1.826	C.2	1	UNK0	0.000	
21	   C	-0.659	-1.011	1.315	C.2	1	UNK0	0.000	
22	   N	-2.844	-2.159	1.220	N.pl3	1	UNK0	0.000	
23	   N	-3.820	-1.300	0.997	N.2	1	UNK0	0.000	
24	   C	-4.859	-1.909	0.401	C.2	1	UNK0	0.000	
25	   N	-4.523	-3.193	0.245	N.2	1	UNK0	0.000	
26	   C	-3.269	-3.340	0.757	C.2	1	UNK0	0.000	
27	   H	4.293	2.765	-1.771	 H	1	UNK0	0.000	
28	   H	3.912	3.991	-3.839	 H	1	UNK0	0.000	
29	   H	2.840	6.217	-3.716	 H	1	UNK0	0.000	
30	   H	2.181	7.165	-1.598	 H	1	UNK0	0.000	
31	   H	4.073	1.885	2.701	 H	1	UNK0	0.000	
32	   H	2.315	2.167	3.163	 H	1	UNK0	0.000	
33	   H	2.718	-0.149	3.145	 H	1	UNK0	0.000	
34	   H	3.629	-0.105	1.594	 H	1	UNK0	0.000	
35	   H	2.231	0.690	-0.474	 H	1	UNK0	0.000	
36	   H	0.469	0.709	-0.384	 H	1	UNK0	0.000	
37	   H	0.647	2.757	1.120	 H	1	UNK0	0.000	
38	   H	1.506	2.900	-0.504	 H	1	UNK0	0.000	
39	   H	0.158	-2.900	4.514	 H	1	UNK0	0.000	
40	   H	-0.930	-0.506	0.419	 H	1	UNK0	0.000	
41	   H	-5.812	-1.482	0.087	 H	1	UNK0	0.000	
42	   H	-2.720	-4.265	0.778	 H	1	UNK0	0.000	
@<TRIPOS>BOND
1 1 2 1
2 2 3 2
3 2 7 1
4 3 4 1
5 3 8 1
6 4 5 2
7 5 6 1
8 6 7 2
9 8 9 2
10 8 10 1
11 10 11 1
12 10 15 1
13 11 12 1
14 12 13 1
15 13 14 1
16 13 16 1
17 14 15 1
18 16 17 2
19 16 21 1
20 17 18 1
21 18 19 2
22 19 20 1
23 20 21 2
24 20 22 1
25 22 23 1
26 22 26 1
27 23 24 2
28 24 25 1
29 25 26 2
30 4 27 1
31 5 28 1
32 6 29 1
33 7 30 1
34 11 31 1
35 11 32 1
36 12 33 1
37 12 34 1
38 14 35 1
39 14 36 1
40 15 37 1
41 15 38 1
42 18 39 1
43 21 40 1
44 24 41 1
45 26 42 1
@<TRIPOS>SUBSTRUCTURE
1	UNK0	1	GROUP	1 ****	UNK
