# created with PyMOL 2.3.2
@<TRIPOS>MOLECULE
49
38 43 1                 
SMALL
USER_CHARGES
@<TRIPOS>ATOM
1	  Br	1.722	-2.069	-3.111	Br	1	UNK0	0.000	
2	   C	2.356	-3.053	-1.614	C.2	1	UNK0	0.000	
3	   C	2.750	-2.392	-0.485	C.2	1	UNK0	0.000	
4	   C	3.286	-3.104	0.621	C.2	1	UNK0	0.000	
5	   C	3.410	-4.481	0.572	C.2	1	UNK0	0.000	
6	   C	2.997	-5.116	-0.581	C.2	1	UNK0	0.000	
7	   C	2.472	-4.451	-1.690	C.2	1	UNK0	0.000	
8	   C	2.658	-0.910	-0.423	C.3	1	UNK0	0.000	
9	   O	1.552	-0.624	0.344	O.3	1	UNK0	0.000	
10	   C	1.422	0.650	0.723	C.3	1	UNK0	0.000	
11	   C	0.456	0.978	1.749	C.3	1	UNK0	0.000	
12	   O	0.619	2.305	2.135	O.3	1	UNK0	0.000	
13	   C	0.352	3.114	1.020	C.3	1	UNK0	0.000	
14	   O	-0.975	3.090	0.638	O.3	1	UNK0	0.000	
15	   C	-1.266	1.832	0.167	C.3	1	UNK0	0.000	
16	   C	-1.012	0.859	1.340	C.3	1	UNK0	0.000	
17	   O	-1.953	0.947	2.326	O.3	1	UNK0	0.000	
18	   C	-1.872	-0.226	1.495	C.3	1	UNK0	0.000	
19	   C	-0.340	1.323	-0.907	C.3	1	UNK0	0.000	
20	   O	-0.734	1.196	-2.227	O.3	1	UNK0	0.000	
21	   C	-0.869	0.034	-1.528	C.3	1	UNK0	0.000	
22	   C	1.041	1.536	-0.544	C.3	1	UNK0	0.000	
23	   O	1.189	2.842	-0.035	O.3	1	UNK0	0.000	
24	   H	3.592	-2.521	1.501	 H	1	UNK0	0.000	
25	   H	3.816	-5.033	1.424	 H	1	UNK0	0.000	
26	   H	3.063	-6.214	-0.651	 H	1	UNK0	0.000	
27	   H	2.139	-4.935	-2.609	 H	1	UNK0	0.000	
28	   H	3.596	-0.534	0.093	 H	1	UNK0	0.000	
29	   H	2.636	-0.550	-1.446	 H	1	UNK0	0.000	
30	   H	2.446	1.119	0.857	 H	1	UNK0	0.000	
31	   H	0.536	0.331	2.654	 H	1	UNK0	0.000	
32	   H	0.566	4.154	1.357	 H	1	UNK0	0.000	
33	   H	-2.290	1.724	-0.227	 H	1	UNK0	0.000	
34	   H	-2.792	-0.287	0.853	 H	1	UNK0	0.000	
35	   H	-1.706	-1.164	2.038	 H	1	UNK0	0.000	
36	   H	-1.948	-0.244	-1.356	 H	1	UNK0	0.000	
37	   H	-0.167	-0.770	-1.422	 H	1	UNK0	0.000	
38	   H	1.822	1.420	-1.303	 H	1	UNK0	0.000	
@<TRIPOS>BOND
1 1 2 1
2 2 3 2
3 2 7 1
4 3 4 1
5 3 8 1
6 4 5 2
7 5 6 1
8 6 7 2
9 8 9 1
10 9 10 1
11 10 11 1
12 10 22 1
13 11 12 1
14 11 16 1
15 12 13 1
16 13 14 1
17 13 23 1
18 14 15 1
19 15 16 1
20 15 19 1
21 16 17 1
22 16 18 1
23 17 18 1
24 19 20 1
25 19 21 1
26 19 22 1
27 20 21 1
28 22 23 1
29 4 24 1
30 5 25 1
31 6 26 1
32 7 27 1
33 8 28 1
34 8 29 1
35 10 30 1
36 11 31 1
37 13 32 1
38 15 33 1
39 18 34 1
40 18 35 1
41 21 36 1
42 21 37 1
43 22 38 1
@<TRIPOS>SUBSTRUCTURE
1	UNK0	1	GROUP	1 ****	UNK
