# created with PyMOL 2.3.2
@<TRIPOS>MOLECULE
50
52 55 1                 
SMALL
USER_CHARGES
@<TRIPOS>ATOM
1	  Br	-4.607	-3.882	-3.191	Br	1	UNK0	0.000	
2	   C	-3.857	-2.131	-3.223	C.2	1	UNK0	0.000	
3	   C	-2.602	-1.921	-3.195	C.2	1	UNK0	0.000	
4	   C	-2.102	-0.579	-3.213	C.2	1	UNK0	0.000	
5	   C	-2.956	0.439	-3.260	C.2	1	UNK0	0.000	
6	   C	-4.345	0.237	-3.286	C.2	1	UNK0	0.000	
7	   C	-4.842	-1.044	-3.265	C.2	1	UNK0	0.000	
8	   C	-1.510	-2.927	-3.369	C.2	1	UNK0	0.000	
9	   C	-0.434	-2.928	-2.619	C.2	1	UNK0	0.000	
10	   O	-0.219	-2.027	-1.580	O.3	1	UNK0	0.000	
11	   C	1.058	-2.230	-1.007	C.2	1	UNK0	0.000	
12	   C	1.681	-3.220	-1.637	C.2	1	UNK0	0.000	
13	   C	2.967	-3.454	-1.244	C.2	1	UNK0	0.000	
14	   C	3.596	-2.691	-0.217	C.2	1	UNK0	0.000	
15	   C	2.838	-1.667	0.409	C.2	1	UNK0	0.000	
16	   C	1.562	-1.429	0.036	C.2	1	UNK0	0.000	
17	   C	0.493	-0.781	0.838	C.3	1	UNK0	0.000	
18	   N	0.286	0.525	1.128	N.4	1	UNK0	0.000	
19	   C	-1.235	0.517	1.436	C.3	1	UNK0	0.000	
20	   C	-1.840	1.841	1.282	C.3	1	UNK0	0.000	
21	   N	-0.999	2.910	1.763	N.3	1	UNK0	0.000	
22	   C	-0.062	2.378	2.674	C.3	1	UNK0	0.000	
23	   C	0.862	1.269	2.130	C.3	1	UNK0	0.000	
24	   C	-0.590	3.733	0.700	C.3	1	UNK0	0.000	
25	   C	0.208	4.953	1.062	C.3	1	UNK0	0.000	
26	   O	1.397	4.627	1.730	O.3	1	UNK0	0.000	
27	   O	3.502	-0.961	1.406	O.2	1	UNK0	0.000	
28	   C	0.806	-3.743	-2.665	C.2	1	UNK0	0.000	
29	   O	1.003	-4.664	-3.466	O.2	1	UNK0	0.000	
30	   H	-1.030	-0.459	-3.205	 H	1	UNK0	0.000	
31	   H	-2.640	1.489	-3.287	 H	1	UNK0	0.000	
32	   H	-5.008	1.064	-3.412	 H	1	UNK0	0.000	
33	   H	-5.867	-1.202	-3.275	 H	1	UNK0	0.000	
34	   H	-1.582	-3.667	-4.130	 H	1	UNK0	0.000	
35	   H	3.499	-4.279	-1.726	 H	1	UNK0	0.000	
36	   H	4.610	-2.887	-0.014	 H	1	UNK0	0.000	
37	   H	-0.447	-1.432	0.875	 H	1	UNK0	0.000	
38	   H	0.878	-1.256	1.953	 H	1	UNK0	0.000	
39	   H	0.315	1.038	0.161	 H	1	UNK0	0.000	
40	   H	-1.284	0.015	2.398	 H	1	UNK0	0.000	
41	   H	-1.653	-0.181	0.668	 H	1	UNK0	0.000	
42	   H	-2.774	1.849	1.921	 H	1	UNK0	0.000	
43	   H	-2.179	2.075	0.253	 H	1	UNK0	0.000	
44	   H	0.529	3.092	3.264	 H	1	UNK0	0.000	
45	   H	-0.692	1.839	3.457	 H	1	UNK0	0.000	
46	   H	1.820	1.741	1.773	 H	1	UNK0	0.000	
47	   H	1.153	0.672	3.038	 H	1	UNK0	0.000	
48	   H	-0.083	3.264	-0.152	 H	1	UNK0	0.000	
49	   H	-1.547	4.153	0.244	 H	1	UNK0	0.000	
50	   H	-0.368	5.709	1.593	 H	1	UNK0	0.000	
51	   H	0.538	5.398	0.098	 H	1	UNK0	0.000	
52	   H	1.983	4.151	1.101	 H	1	UNK0	0.000	
@<TRIPOS>BOND
1 1 2 1
2 2 3 2
3 2 7 1
4 3 4 1
5 3 8 1
6 4 5 2
7 5 6 1
8 6 7 2
9 8 9 2
10 9 10 1
11 9 28 1
12 10 11 1
13 11 12 2
14 11 16 1
15 12 13 1
16 12 28 1
17 13 14 2
18 14 15 1
19 15 16 2
20 15 27 1
21 16 17 1
22 17 18 1
23 18 19 1
24 18 23 1
25 19 20 1
26 20 21 1
27 21 22 1
28 21 24 1
29 22 23 1
30 24 25 1
31 25 26 1
32 28 29 2
33 4 30 1
34 5 31 1
35 6 32 1
36 7 33 1
37 8 34 1
38 13 35 1
39 14 36 1
40 17 37 1
41 17 38 1
42 18 39 1
43 19 40 1
44 19 41 1
45 20 42 1
46 20 43 1
47 22 44 1
48 22 45 1
49 23 46 1
50 23 47 1
51 24 48 1
52 24 49 1
53 25 50 1
54 25 51 1
55 26 52 1
@<TRIPOS>SUBSTRUCTURE
1	UNK0	1	GROUP	1 ****	UNK
