# created with PyMOL 2.3.2
@<TRIPOS>MOLECULE
51
48 51 1                 
SMALL
USER_CHARGES
@<TRIPOS>ATOM
1	  Br	5.249	2.662	-3.425	Br	1	UNK0	0.000	
2	   C	3.415	2.185	-3.692	C.2	1	UNK0	0.000	
3	   C	2.531	2.333	-2.656	C.2	1	UNK0	0.000	
4	   C	1.214	1.957	-2.895	C.2	1	UNK0	0.000	
5	   C	0.776	1.467	-4.076	C.2	1	UNK0	0.000	
6	   C	1.696	1.333	-5.103	C.2	1	UNK0	0.000	
7	   C	3.020	1.684	-4.934	C.2	1	UNK0	0.000	
8	   C	2.879	2.904	-1.380	C.2	1	UNK0	0.000	
9	   C	2.420	2.408	-0.216	C.2	1	UNK0	0.000	
10	   O	1.574	1.297	-0.128	O.3	1	UNK0	0.000	
11	   C	1.288	1.067	1.216	C.2	1	UNK0	0.000	
12	   C	1.933	2.009	2.012	C.2	1	UNK0	0.000	
13	   C	1.770	1.965	3.380	C.2	1	UNK0	0.000	
14	   C	0.976	0.999	3.949	C.2	1	UNK0	0.000	
15	   C	0.342	0.063	3.131	C.2	1	UNK0	0.000	
16	   C	0.482	0.072	1.763	C.2	1	UNK0	0.000	
17	   C	-0.092	-0.974	0.928	C.3	1	UNK0	0.000	
18	   N	-0.798	-0.577	-0.249	N.4	1	UNK0	0.000	
19	   C	-2.188	-0.909	-0.136	C.3	1	UNK0	0.000	
20	   C	-2.867	-1.032	-1.498	C.3	1	UNK0	0.000	
21	   N	-2.316	-2.113	-2.259	N.3	1	UNK0	0.000	
22	   C	-0.989	-2.476	-1.810	C.3	1	UNK0	0.000	
23	   C	-0.205	-1.237	-1.415	C.3	1	UNK0	0.000	
24	   C	-3.139	-3.298	-2.268	C.3	1	UNK0	0.000	
25	   O	-0.447	-0.894	3.774	O.2	1	UNK0	0.000	
26	   C	2.675	2.890	1.128	C.2	1	UNK0	0.000	
27	   O	3.390	3.868	1.466	O.2	1	UNK0	0.000	
28	   H	0.497	2.064	-2.070	 H	1	UNK0	0.000	
29	   H	-0.249	1.186	-4.291	 H	1	UNK0	0.000	
30	   H	1.369	0.953	-6.067	 H	1	UNK0	0.000	
31	   H	3.751	1.590	-5.722	 H	1	UNK0	0.000	
32	   H	3.525	3.755	-1.332	 H	1	UNK0	0.000	
33	   H	2.292	2.722	3.956	 H	1	UNK0	0.000	
34	   H	0.855	0.983	5.022	 H	1	UNK0	0.000	
35	   H	-0.804	-1.563	1.607	 H	1	UNK0	0.000	
36	   H	0.658	-1.765	0.643	 H	1	UNK0	0.000	
37	   H	-0.737	0.474	-0.438	 H	1	UNK0	0.000	
38	   H	-2.764	-0.160	0.462	 H	1	UNK0	0.000	
39	   H	-2.274	-1.885	0.382	 H	1	UNK0	0.000	
40	   H	-3.933	-1.235	-1.297	 H	1	UNK0	0.000	
41	   H	-2.831	-0.043	-2.006	 H	1	UNK0	0.000	
42	   H	-0.429	-2.956	-2.645	 H	1	UNK0	0.000	
43	   H	-0.979	-3.158	-0.947	 H	1	UNK0	0.000	
44	   H	-0.241	-0.543	-2.258	 H	1	UNK0	0.000	
45	   H	0.802	-1.589	-1.114	 H	1	UNK0	0.000	
46	   H	-3.104	-3.828	-1.289	 H	1	UNK0	0.000	
47	   H	-4.218	-3.063	-2.432	 H	1	UNK0	0.000	
48	   H	-2.785	-4.001	-3.064	 H	1	UNK0	0.000	
@<TRIPOS>BOND
1 1 2 1
2 2 3 2
3 2 7 1
4 3 4 1
5 3 8 1
6 4 5 2
7 5 6 1
8 6 7 2
9 8 9 2
10 9 10 1
11 9 26 1
12 10 11 1
13 11 12 2
14 11 16 1
15 12 13 1
16 12 26 1
17 13 14 2
18 14 15 1
19 15 16 2
20 15 25 1
21 16 17 1
22 17 18 1
23 18 19 1
24 18 23 1
25 19 20 1
26 20 21 1
27 21 22 1
28 21 24 1
29 22 23 1
30 26 27 2
31 4 28 1
32 5 29 1
33 6 30 1
34 7 31 1
35 8 32 1
36 13 33 1
37 14 34 1
38 17 35 1
39 17 36 1
40 18 37 1
41 19 38 1
42 19 39 1
43 20 40 1
44 20 41 1
45 22 42 1
46 22 43 1
47 23 44 1
48 23 45 1
49 24 46 1
50 24 47 1
51 24 48 1
@<TRIPOS>SUBSTRUCTURE
1	UNK0	1	GROUP	1 ****	UNK
