# created with PyMOL 2.3.2
@<TRIPOS>MOLECULE
52
44 47 1                 
SMALL
USER_CHARGES
@<TRIPOS>ATOM
1	  Br	-1.493	1.893	5.572	Br	1	UNK0	0.000	
2	   C	-1.096	2.654	3.854	C.2	1	UNK0	0.000	
3	   C	-0.183	1.980	3.068	C.2	1	UNK0	0.000	
4	   C	0.105	2.519	1.832	C.2	1	UNK0	0.000	
5	   C	-0.504	3.699	1.395	C.2	1	UNK0	0.000	
6	   C	-1.416	4.368	2.188	C.2	1	UNK0	0.000	
7	   C	-1.699	3.825	3.423	C.2	1	UNK0	0.000	
8	   C	0.463	0.751	3.517	C.2	1	UNK0	0.000	
9	   C	0.620	-0.261	2.675	C.2	1	UNK0	0.000	
10	   O	0.198	-0.232	1.362	O.3	1	UNK0	0.000	
11	   C	0.503	-1.451	0.722	C.2	1	UNK0	0.000	
12	   C	1.121	-2.293	1.584	C.2	1	UNK0	0.000	
13	   C	1.511	-3.545	1.175	C.2	1	UNK0	0.000	
14	   C	1.248	-3.889	-0.126	C.2	1	UNK0	0.000	
15	   C	0.607	-3.014	-1.017	C.2	1	UNK0	0.000	
16	   C	0.220	-1.782	-0.622	C.2	1	UNK0	0.000	
17	   C	-0.457	-0.800	-1.454	C.3	1	UNK0	0.000	
18	   N	-0.786	-1.065	-2.794	N.4	1	UNK0	0.000	
19	   C	-2.234	-0.751	-2.939	C.3	1	UNK0	0.000	
20	   C	-2.469	-0.343	-4.357	C.3	1	UNK0	0.000	
21	   O	-2.028	0.975	-4.513	O.3	1	UNK0	0.000	
22	   C	-0.789	1.148	-3.882	C.3	1	UNK0	0.000	
23	   C	-0.078	-0.180	-3.725	C.3	1	UNK0	0.000	
24	   O	0.428	-3.548	-2.307	O.2	1	UNK0	0.000	
25	   C	1.219	-1.568	2.863	C.2	1	UNK0	0.000	
26	   O	1.728	-1.992	3.929	O.2	1	UNK0	0.000	
27	   H	0.822	2.001	1.209	 H	1	UNK0	0.000	
28	   H	-0.253	4.095	0.418	 H	1	UNK0	0.000	
29	   H	-1.903	5.288	1.872	 H	1	UNK0	0.000	
30	   H	-2.425	4.340	4.070	 H	1	UNK0	0.000	
31	   H	0.826	0.639	4.533	 H	1	UNK0	0.000	
32	   H	2.014	-4.240	1.864	 H	1	UNK0	0.000	
33	   H	1.559	-4.885	-0.452	 H	1	UNK0	0.000	
34	   H	0.125	0.193	-1.442	 H	1	UNK0	0.000	
35	   H	-1.410	-0.520	-0.889	 H	1	UNK0	0.000	
36	   H	-0.704	-2.018	-3.141	 H	1	UNK0	0.000	
37	   H	-2.504	0.054	-2.260	 H	1	UNK0	0.000	
38	   H	-2.804	-1.689	-2.684	 H	1	UNK0	0.000	
39	   H	-3.557	-0.361	-4.626	 H	1	UNK0	0.000	
40	   H	-1.912	-0.964	-5.079	 H	1	UNK0	0.000	
41	   H	-0.171	1.772	-4.558	 H	1	UNK0	0.000	
42	   H	-0.896	1.699	-2.931	 H	1	UNK0	0.000	
43	   H	0.043	-0.625	-4.725	 H	1	UNK0	0.000	
44	   H	0.921	0.025	-3.309	 H	1	UNK0	0.000	
@<TRIPOS>BOND
1 1 2 1
2 2 3 2
3 2 7 1
4 3 4 1
5 3 8 1
6 4 5 2
7 5 6 1
8 6 7 2
9 8 9 2
10 9 10 1
11 9 25 1
12 10 11 1
13 11 12 2
14 11 16 1
15 12 13 1
16 12 25 1
17 13 14 2
18 14 15 1
19 15 16 2
20 15 24 1
21 16 17 1
22 17 18 1
23 18 19 1
24 18 23 1
25 19 20 1
26 20 21 1
27 21 22 1
28 22 23 1
29 25 26 2
30 4 27 1
31 5 28 1
32 6 29 1
33 7 30 1
34 8 31 1
35 13 32 1
36 14 33 1
37 17 34 1
38 17 35 1
39 18 36 1
40 19 37 1
41 19 38 1
42 20 39 1
43 20 40 1
44 22 41 1
45 22 42 1
46 23 43 1
47 23 44 1
@<TRIPOS>SUBSTRUCTURE
1	UNK0	1	GROUP	1 ****	UNK
