# created with PyMOL 2.3.2
@<TRIPOS>MOLECULE
54
47 50 1                 
SMALL
USER_CHARGES
@<TRIPOS>ATOM
1	  Br	4.091	0.900	-3.774	Br	1	UNK0	0.000	
2	   C	2.523	1.897	-4.107	C.2	1	UNK0	0.000	
3	   C	1.375	1.254	-4.503	C.2	1	UNK0	0.000	
4	   C	0.231	1.904	-4.720	C.2	1	UNK0	0.000	
5	   C	0.161	3.320	-4.537	C.2	1	UNK0	0.000	
6	   C	1.269	3.978	-4.121	C.2	1	UNK0	0.000	
7	   C	2.460	3.279	-3.902	C.2	1	UNK0	0.000	
8	   C	1.371	-0.289	-4.367	C.2	1	UNK0	0.000	
9	   N	0.369	-0.638	-3.719	N.2	1	UNK0	0.000	
10	   N	-0.451	-1.449	-3.138	N.pl3	1	UNK0	0.000	
11	   C	-0.740	-0.774	-1.778	C.2	1	UNK0	0.000	
12	   O	-0.206	0.324	-1.669	O.2	1	UNK0	0.000	
13	   C	-1.526	-1.396	-0.792	C.2	1	UNK0	0.000	
14	   N	-2.322	-2.420	-0.846	N.2	1	UNK0	0.000	
15	   N	-2.613	-2.804	0.349	N.2	1	UNK0	0.000	
16	   N	-1.998	-2.020	1.316	N.pl3	1	UNK0	0.000	
17	   C	-1.313	-1.126	0.638	C.2	1	UNK0	0.000	
18	   C	-0.576	0.100	0.931	C.3	1	UNK0	0.000	
19	   N	0.562	0.308	1.602	N.3	1	UNK0	0.000	
20	   C	0.980	1.696	1.465	C.3	1	UNK0	0.000	
21	   C	1.354	2.177	2.835	C.3	1	UNK0	0.000	
22	   C	1.074	1.008	3.774	C.3	1	UNK0	0.000	
23	   C	1.082	-0.172	2.771	C.3	1	UNK0	0.000	
24	   C	-2.195	-2.381	2.648	C.2	1	UNK0	0.000	
25	   N	-1.368	-3.308	3.282	N.2	1	UNK0	0.000	
26	   O	-1.837	-3.535	4.444	O.3	1	UNK0	0.000	
27	   N	-2.891	-2.858	4.670	N.2	1	UNK0	0.000	
28	   C	-3.141	-2.121	3.551	C.2	1	UNK0	0.000	
29	   N	-4.286	-1.262	3.490	N.pl3	1	UNK0	0.000	
30	   H	-0.629	1.380	-5.094	 H	1	UNK0	0.000	
31	   H	-0.715	3.855	-4.744	 H	1	UNK0	0.000	
32	   H	1.267	5.081	-3.919	 H	1	UNK0	0.000	
33	   H	3.313	3.838	-3.514	 H	1	UNK0	0.000	
34	   H	2.105	-0.854	-4.737	 H	1	UNK0	0.000	
35	   H	-0.910	-2.347	-3.265	 H	1	UNK0	0.000	
36	   H	-0.869	1.000	0.282	 H	1	UNK0	0.000	
37	   H	-1.363	0.564	1.869	 H	1	UNK0	0.000	
38	   H	0.217	2.282	0.954	 H	1	UNK0	0.000	
39	   H	1.886	1.785	0.782	 H	1	UNK0	0.000	
40	   H	2.397	2.526	2.891	 H	1	UNK0	0.000	
41	   H	0.726	3.079	3.102	 H	1	UNK0	0.000	
42	   H	1.868	0.923	4.497	 H	1	UNK0	0.000	
43	   H	0.047	1.057	4.122	 H	1	UNK0	0.000	
44	   H	2.205	-0.353	2.630	 H	1	UNK0	0.000	
45	   H	0.624	-1.052	3.241	 H	1	UNK0	0.000	
46	   H	-4.229	-0.368	3.998	 H	1	UNK0	0.000	
47	   H	-5.137	-1.559	3.017	 H	1	UNK0	0.000	
@<TRIPOS>BOND
1 1 2 1
2 2 3 2
3 2 7 1
4 3 4 1
5 3 8 1
6 4 5 2
7 5 6 1
8 6 7 2
9 8 9 2
10 9 10 1
11 10 11 1
12 11 12 2
13 11 13 1
14 13 14 1
15 13 17 2
16 14 15 2
17 15 16 1
18 16 17 1
19 16 24 1
20 17 18 1
21 18 19 1
22 19 20 1
23 19 23 1
24 20 21 1
25 21 22 1
26 22 23 1
27 24 25 2
28 24 28 1
29 25 26 1
30 26 27 1
31 27 28 2
32 28 29 1
33 4 30 1
34 5 31 1
35 6 32 1
36 7 33 1
37 8 34 1
38 10 35 1
39 18 36 1
40 18 37 1
41 20 38 1
42 20 39 1
43 21 40 1
44 21 41 1
45 22 42 1
46 22 43 1
47 23 44 1
48 23 45 1
49 29 46 1
50 29 47 1
@<TRIPOS>SUBSTRUCTURE
1	UNK0	1	GROUP	1 ****	UNK
