# created with PyMOL 2.3.2
@<TRIPOS>MOLECULE
55
50 53 1                 
SMALL
USER_CHARGES
@<TRIPOS>ATOM
1	  Br	-2.471	0.834	3.048	Br	1	UNK0	0.000	
2	   C	-4.391	0.865	3.158	C.2	1	UNK0	0.000	
3	   C	-5.095	0.041	2.307	C.2	1	UNK0	0.000	
4	   C	-6.466	0.073	2.399	C.2	1	UNK0	0.000	
5	   C	-7.116	0.902	3.312	C.2	1	UNK0	0.000	
6	   C	-6.406	1.719	4.156	C.2	1	UNK0	0.000	
7	   C	-5.031	1.699	4.076	C.2	1	UNK0	0.000	
8	   C	-4.385	-0.811	1.361	C.2	1	UNK0	0.000	
9	   N	-3.124	-0.847	1.239	N.2	1	UNK0	0.000	
10	   N	-2.371	-1.624	0.373	N.pl3	1	UNK0	0.000	
11	   C	-1.061	-1.155	0.090	C.2	1	UNK0	0.000	
12	   N	-0.718	-0.659	-1.120	N.2	1	UNK0	0.000	
13	   C	0.517	-0.202	-1.374	C.2	1	UNK0	0.000	
14	   N	1.428	-0.243	-0.390	N.2	1	UNK0	0.000	
15	   C	1.160	-0.721	0.837	C.2	1	UNK0	0.000	
16	   N	-0.093	-1.168	1.038	N.2	1	UNK0	0.000	
17	   N	2.109	-0.753	1.883	N.pl3	1	UNK0	0.000	
18	   C	3.401	-0.150	1.678	C.3	1	UNK0	0.000	
19	   C	4.146	0.133	2.945	C.3	1	UNK0	0.000	
20	   O	3.324	0.064	4.055	O.3	1	UNK0	0.000	
21	   C	2.860	-1.244	4.162	C.3	1	UNK0	0.000	
22	   C	1.762	-1.388	3.129	C.3	1	UNK0	0.000	
23	   N	0.812	0.296	-2.665	N.pl3	1	UNK0	0.000	
24	   C	-0.104	0.397	-3.757	C.3	1	UNK0	0.000	
25	   C	-0.188	1.849	-4.160	C.3	1	UNK0	0.000	
26	   O	0.968	2.566	-3.954	O.3	1	UNK0	0.000	
27	   C	2.128	1.839	-3.968	C.3	1	UNK0	0.000	
28	   C	2.184	0.754	-2.946	C.3	1	UNK0	0.000	
29	   H	-7.060	-0.551	1.755	 H	1	UNK0	0.000	
30	   H	-8.206	0.937	3.393	 H	1	UNK0	0.000	
31	   H	-6.913	2.371	4.876	 H	1	UNK0	0.000	
32	   H	-4.467	2.332	4.732	 H	1	UNK0	0.000	
33	   H	-4.957	-1.459	0.714	 H	1	UNK0	0.000	
34	   H	-2.720	-2.483	-0.045	 H	1	UNK0	0.000	
35	   H	4.037	-0.748	0.988	 H	1	UNK0	0.000	
36	   H	3.224	0.817	1.126	 H	1	UNK0	0.000	
37	   H	4.543	1.171	2.890	 H	1	UNK0	0.000	
38	   H	5.044	-0.511	3.058	 H	1	UNK0	0.000	
39	   H	2.364	-1.329	5.150	 H	1	UNK0	0.000	
40	   H	3.649	-2.007	4.036	 H	1	UNK0	0.000	
41	   H	1.449	-2.447	3.012	 H	1	UNK0	0.000	
42	   H	0.867	-0.858	3.540	 H	1	UNK0	0.000	
43	   H	-1.130	0.056	-3.522	 H	1	UNK0	0.000	
44	   H	0.329	-0.170	-4.615	 H	1	UNK0	0.000	
45	   H	-1.029	2.294	-3.591	 H	1	UNK0	0.000	
46	   H	-0.408	1.857	-5.256	 H	1	UNK0	0.000	
47	   H	2.405	1.413	-4.955	 H	1	UNK0	0.000	
48	   H	2.971	2.548	-3.719	 H	1	UNK0	0.000	
49	   H	2.735	-0.102	-3.334	 H	1	UNK0	0.000	
50	   H	2.669	1.060	-1.995	 H	1	UNK0	0.000	
@<TRIPOS>BOND
1 1 2 1
2 2 3 2
3 2 7 1
4 3 4 1
5 3 8 1
6 4 5 2
7 5 6 1
8 6 7 2
9 8 9 2
10 9 10 1
11 10 11 1
12 11 12 2
13 11 16 1
14 12 13 1
15 13 14 2
16 13 23 1
17 14 15 1
18 15 16 2
19 15 17 1
20 17 18 1
21 17 22 1
22 18 19 1
23 19 20 1
24 20 21 1
25 21 22 1
26 23 24 1
27 23 28 1
28 24 25 1
29 25 26 1
30 26 27 1
31 27 28 1
32 4 29 1
33 5 30 1
34 6 31 1
35 7 32 1
36 8 33 1
37 10 34 1
38 18 35 1
39 18 36 1
40 19 37 1
41 19 38 1
42 21 39 1
43 21 40 1
44 22 41 1
45 22 42 1
46 24 43 1
47 24 44 1
48 25 45 1
49 25 46 1
50 27 47 1
51 27 48 1
52 28 49 1
53 28 50 1
@<TRIPOS>SUBSTRUCTURE
1	UNK0	1	GROUP	1 ****	UNK
