# created with PyMOL 2.3.2
@<TRIPOS>MOLECULE
61
36 39 1                 
SMALL
USER_CHARGES
@<TRIPOS>ATOM
1	  Br	1.670	1.680	-0.477	Br	1	UNK0	0.000	
2	   C	0.799	1.720	1.230	C.2	1	UNK0	0.000	
3	   C	1.064	0.769	2.193	C.2	1	UNK0	0.000	
4	   C	0.436	0.784	3.444	C.2	1	UNK0	0.000	
5	   C	-0.479	1.770	3.749	C.2	1	UNK0	0.000	
6	   C	-0.741	2.719	2.782	C.2	1	UNK0	0.000	
7	   C	-0.117	2.701	1.545	C.2	1	UNK0	0.000	
8	   N	2.009	-0.233	1.853	N.pl3	1	UNK0	0.000	
9	   N	3.301	-0.152	2.096	N.2	1	UNK0	0.000	
10	   N	3.917	-1.250	1.657	N.2	1	UNK0	0.000	
11	   N	3.001	-2.029	1.133	N.2	1	UNK0	0.000	
12	   C	1.809	-1.416	1.245	C.2	1	UNK0	0.000	
13	   C	0.541	-1.983	0.769	C.3	1	UNK0	0.000	
14	   N	0.298	-1.592	-0.589	N.3	1	UNK0	0.000	
15	   C	1.304	-2.016	-1.514	C.3	1	UNK0	0.000	
16	   C	1.252	-3.469	-1.860	C.3	1	UNK0	0.000	
17	   C	-0.118	-4.025	-1.702	C.2	1	UNK0	0.000	
18	   N	-0.571	-5.279	-1.880	N.pl3	1	UNK0	0.000	
19	   N	-1.873	-5.320	-1.624	N.2	1	UNK0	0.000	
20	   C	-2.287	-4.092	-1.276	C.2	1	UNK0	0.000	
21	   C	-1.194	-3.268	-1.321	C.2	1	UNK0	0.000	
22	   C	-1.041	-1.834	-1.043	C.3	1	UNK0	0.000	
23	   H	0.683	0.009	4.166	 H	1	UNK0	0.000	
24	   H	-0.974	1.796	4.711	 H	1	UNK0	0.000	
25	   H	-1.460	3.495	3.018	 H	1	UNK0	0.000	
26	   H	-0.329	3.455	0.785	 H	1	UNK0	0.000	
27	   H	-0.274	-1.542	1.389	 H	1	UNK0	0.000	
28	   H	0.479	-3.082	0.894	 H	1	UNK0	0.000	
29	   H	2.293	-1.695	-1.158	 H	1	UNK0	0.000	
30	   H	1.121	-1.449	-2.474	 H	1	UNK0	0.000	
31	   H	1.562	-3.648	-2.929	 H	1	UNK0	0.000	
32	   H	1.995	-4.034	-1.252	 H	1	UNK0	0.000	
33	   H	-0.032	-6.124	-2.171	 H	1	UNK0	0.000	
34	   H	-3.309	-3.788	-1.004	 H	1	UNK0	0.000	
35	   H	-1.148	-1.287	-2.025	 H	1	UNK0	0.000	
36	   H	-1.767	-1.414	-0.352	 H	1	UNK0	0.000	
@<TRIPOS>BOND
1 1 2 1
2 2 3 2
3 2 7 1
4 3 4 1
5 3 8 1
6 4 5 2
7 5 6 1
8 6 7 2
9 8 9 1
10 8 12 1
11 9 10 2
12 10 11 1
13 11 12 2
14 12 13 1
15 13 14 1
16 14 15 1
17 14 22 1
18 15 16 1
19 16 17 1
20 17 18 1
21 17 21 2
22 18 19 1
23 19 20 2
24 20 21 1
25 21 22 1
26 4 23 1
27 5 24 1
28 6 25 1
29 7 26 1
30 13 27 1
31 13 28 1
32 15 29 1
33 15 30 1
34 16 31 1
35 16 32 1
36 18 33 1
37 20 34 1
38 22 35 1
39 22 36 1
@<TRIPOS>SUBSTRUCTURE
1	UNK0	1	GROUP	1 ****	UNK
