# created with PyMOL 2.3.2
@<TRIPOS>MOLECULE
62
45 48 1                 
SMALL
USER_CHARGES
@<TRIPOS>ATOM
1	  Br	4.674	1.001	-0.707	Br	1	UNK0	0.000	
2	   C	3.717	2.196	-1.864	C.2	1	UNK0	0.000	
3	   C	2.528	1.788	-2.449	C.2	1	UNK0	0.000	
4	   C	1.844	2.630	-3.271	C.2	1	UNK0	0.000	
5	   C	2.369	3.892	-3.502	C.2	1	UNK0	0.000	
6	   C	3.561	4.304	-2.918	C.2	1	UNK0	0.000	
7	   C	4.251	3.449	-2.086	C.2	1	UNK0	0.000	
8	   N	2.061	0.455	-2.148	N.pl3	1	UNK0	0.000	
9	   N	2.635	-0.675	-2.521	N.2	1	UNK0	0.000	
10	   N	1.935	-1.697	-2.070	N.2	1	UNK0	0.000	
11	   N	0.909	-1.223	-1.405	N.2	1	UNK0	0.000	
12	   C	0.975	0.108	-1.446	C.2	1	UNK0	0.000	
13	   C	0.041	1.096	-0.841	C.3	1	UNK0	0.000	
14	   N	-1.041	0.505	-0.141	N.3	1	UNK0	0.000	
15	   C	-0.719	-0.333	0.945	C.3	1	UNK0	0.000	
16	   C	-1.690	-1.511	1.103	C.3	1	UNK0	0.000	
17	   O	-1.835	-2.096	-0.129	O.3	1	UNK0	0.000	
18	   C	-2.444	-1.298	-1.058	C.3	1	UNK0	0.000	
19	   C	-2.181	0.166	-0.904	C.3	1	UNK0	0.000	
20	   C	-1.063	-2.442	2.087	C.3	1	UNK0	0.000	
21	   C	-0.517	-1.804	3.309	C.3	1	UNK0	0.000	
22	   N	-0.211	-0.436	3.268	N.3	1	UNK0	0.000	
23	   C	-0.844	0.373	2.302	C.3	1	UNK0	0.000	
24	   C	1.206	-0.125	3.307	C.3	1	UNK0	0.000	
25	   H	0.918	2.291	-3.716	 H	1	UNK0	0.000	
26	   H	1.811	4.553	-4.161	 H	1	UNK0	0.000	
27	   H	3.974	5.282	-3.093	 H	1	UNK0	0.000	
28	   H	5.192	3.772	-1.624	 H	1	UNK0	0.000	
29	   H	-0.358	1.749	-1.638	 H	1	UNK0	0.000	
30	   H	0.634	1.732	-0.158	 H	1	UNK0	0.000	
31	   H	0.289	-0.773	0.924	 H	1	UNK0	0.000	
32	   H	-2.661	-1.162	1.540	 H	1	UNK0	0.000	
33	   H	-3.541	-1.515	-1.089	 H	1	UNK0	0.000	
34	   H	-2.068	-1.626	-2.070	 H	1	UNK0	0.000	
35	   H	-2.120	0.679	-1.888	 H	1	UNK0	0.000	
36	   H	-3.082	0.619	-0.401	 H	1	UNK0	0.000	
37	   H	-1.817	-3.226	2.339	 H	1	UNK0	0.000	
38	   H	-0.256	-3.006	1.530	 H	1	UNK0	0.000	
39	   H	-1.231	-1.992	4.155	 H	1	UNK0	0.000	
40	   H	0.411	-2.367	3.606	 H	1	UNK0	0.000	
41	   H	-1.897	0.594	2.548	 H	1	UNK0	0.000	
42	   H	-0.323	1.359	2.261	 H	1	UNK0	0.000	
43	   H	1.775	-1.081	3.194	 H	1	UNK0	0.000	
44	   H	1.479	0.497	2.430	 H	1	UNK0	0.000	
45	   H	1.473	0.410	4.245	 H	1	UNK0	0.000	
@<TRIPOS>BOND
1 1 2 1
2 2 3 2
3 2 7 1
4 3 4 1
5 3 8 1
6 4 5 2
7 5 6 1
8 6 7 2
9 8 9 1
10 8 12 1
11 9 10 2
12 10 11 1
13 11 12 2
14 12 13 1
15 13 14 1
16 14 15 1
17 14 19 1
18 15 16 1
19 15 23 1
20 16 17 1
21 16 20 1
22 17 18 1
23 18 19 1
24 20 21 1
25 21 22 1
26 22 23 1
27 22 24 1
28 4 25 1
29 5 26 1
30 6 27 1
31 7 28 1
32 13 29 1
33 13 30 1
34 15 31 1
35 16 32 1
36 18 33 1
37 18 34 1
38 19 35 1
39 19 36 1
40 20 37 1
41 20 38 1
42 21 39 1
43 21 40 1
44 23 41 1
45 23 42 1
46 24 43 1
47 24 44 1
48 24 45 1
@<TRIPOS>SUBSTRUCTURE
1	UNK0	1	GROUP	1 ****	UNK
