# created with PyMOL 2.3.2
@<TRIPOS>MOLECULE
63
44 47 1                 
SMALL
USER_CHARGES
@<TRIPOS>ATOM
1	  Br	-1.343	1.082	-0.941	Br	1	UNK0	0.000	
2	   C	-1.512	1.263	0.945	C.2	1	UNK0	0.000	
3	   C	-0.523	0.739	1.743	C.2	1	UNK0	0.000	
4	   C	-0.636	0.866	3.123	C.2	1	UNK0	0.000	
5	   C	-1.720	1.505	3.638	C.2	1	UNK0	0.000	
6	   C	-2.722	2.038	2.857	C.2	1	UNK0	0.000	
7	   C	-2.619	1.917	1.490	C.2	1	UNK0	0.000	
8	   N	0.623	0.065	1.248	N.pl3	1	UNK0	0.000	
9	   C	0.553	-1.161	0.531	C.2	1	UNK0	0.000	
10	   O	-0.493	-1.855	0.305	O.2	1	UNK0	0.000	
11	   C	1.890	-1.495	0.094	C.3	1	UNK0	0.000	
12	   C	2.344	-0.987	-1.226	C.3	1	UNK0	0.000	
13	   O	3.752	-1.210	-1.066	O.3	1	UNK0	0.000	
14	   C	3.922	-0.349	0.019	C.3	1	UNK0	0.000	
15	   C	2.857	-0.727	1.020	C.3	1	UNK0	0.000	
16	   C	1.994	0.438	1.361	C.2	1	UNK0	0.000	
17	   O	2.370	1.588	1.700	O.2	1	UNK0	0.000	
18	   C	3.430	0.931	-0.618	C.2	1	UNK0	0.000	
19	   C	2.359	0.503	-1.308	C.2	1	UNK0	0.000	
20	   C	1.825	-1.638	-2.441	C.3	1	UNK0	0.000	
21	   O	0.444	-1.379	-2.548	O.3	1	UNK0	0.000	
22	   C	-0.446	-2.426	-2.836	C.2	1	UNK0	0.000	
23	   O	0.069	-3.556	-2.983	O.co2	1	UNK0	0.000	
24	   C	-1.913	-2.181	-2.953	C.3	1	UNK0	0.000	
25	   O	2.398	-0.877	-3.539	O.3	1	UNK0	0.000	
26	   C	3.129	-1.523	-4.517	C.2	1	UNK0	0.000	
27	   O	3.260	-2.768	-4.400	O.co2	1	UNK0	0.000	
28	   C	3.713	-0.738	-5.638	C.3	1	UNK0	0.000	
29	   H	0.132	0.460	3.763	 H	1	UNK0	0.000	
30	   H	-1.834	1.620	4.725	 H	1	UNK0	0.000	
31	   H	-3.580	2.547	3.320	 H	1	UNK0	0.000	
32	   H	-3.373	2.315	0.825	 H	1	UNK0	0.000	
33	   H	2.165	-2.562	0.198	 H	1	UNK0	0.000	
34	   H	4.917	-0.284	0.403	 H	1	UNK0	0.000	
35	   H	3.191	-1.315	1.864	 H	1	UNK0	0.000	
36	   H	3.811	1.922	-0.554	 H	1	UNK0	0.000	
37	   H	1.622	1.089	-1.837	 H	1	UNK0	0.000	
38	   H	2.085	-2.703	-2.571	 H	1	UNK0	0.000	
39	   H	-2.303	-2.852	-3.745	 H	1	UNK0	0.000	
40	   H	-2.124	-1.144	-3.292	 H	1	UNK0	0.000	
41	   H	-2.444	-2.384	-2.005	 H	1	UNK0	0.000	
42	   H	4.637	-1.163	-6.037	 H	1	UNK0	0.000	
43	   H	2.913	-0.612	-6.418	 H	1	UNK0	0.000	
44	   H	3.938	0.288	-5.270	 H	1	UNK0	0.000	
@<TRIPOS>BOND
1 1 2 1
2 2 3 2
3 2 7 1
4 3 4 1
5 3 8 1
6 4 5 2
7 5 6 1
8 6 7 2
9 8 9 1
10 8 16 1
11 9 10 2
12 9 11 1
13 11 12 1
14 11 15 1
15 12 13 1
16 12 19 1
17 12 20 1
18 13 14 1
19 14 15 1
20 14 18 1
21 15 16 1
22 16 17 2
23 18 19 2
24 20 21 1
25 20 25 1
26 21 22 1
27 22 23 2
28 22 24 1
29 25 26 1
30 26 27 2
31 26 28 1
32 4 29 1
33 5 30 1
34 6 31 1
35 7 32 1
36 11 33 1
37 14 34 1
38 15 35 1
39 18 36 1
40 19 37 1
41 20 38 1
42 24 39 1
43 24 40 1
44 24 41 1
45 28 42 1
46 28 43 1
47 28 44 1
@<TRIPOS>SUBSTRUCTURE
1	UNK0	1	GROUP	1 ****	UNK
