# created with PyMOL 2.3.2
@<TRIPOS>MOLECULE
65
48 51 1                 
SMALL
USER_CHARGES
@<TRIPOS>ATOM
1	  Br	4.009	0.081	-0.088	Br	1	UNK0	0.000	
2	   C	3.203	-1.282	0.980	C.2	1	UNK0	0.000	
3	   C	2.224	-2.054	0.389	C.2	1	UNK0	0.000	
4	   C	1.636	-3.049	1.168	C.2	1	UNK0	0.000	
5	   C	2.034	-3.234	2.474	C.2	1	UNK0	0.000	
6	   C	3.013	-2.463	3.069	C.2	1	UNK0	0.000	
7	   C	3.601	-1.476	2.306	C.2	1	UNK0	0.000	
8	   N	1.841	-1.832	-0.961	N.pl3	1	UNK0	0.000	
9	   C	1.491	-0.584	-1.641	C.3	1	UNK0	0.000	
10	   C	0.421	-0.970	-2.635	C.3	1	UNK0	0.000	
11	   C	0.725	-2.382	-2.989	C.3	1	UNK0	0.000	
12	   C	1.713	-2.830	-1.969	C.2	1	UNK0	0.000	
13	   O	2.319	-3.937	-2.032	O.2	1	UNK0	0.000	
14	   C	-0.894	-0.800	-1.946	C.2	1	UNK0	0.000	
15	   O	-1.489	-1.860	-1.602	O.2	1	UNK0	0.000	
16	   N	-1.441	0.458	-1.687	N.pl3	1	UNK0	0.000	
17	   C	-0.779	1.657	-2.117	C.3	1	UNK0	0.000	
18	   C	-0.673	2.683	-1.009	C.3	1	UNK0	0.000	
19	   N	-1.289	2.190	0.217	N.pl3	1	UNK0	0.000	
20	   C	-2.604	1.652	0.102	C.3	1	UNK0	0.000	
21	   C	-2.683	0.572	-0.965	C.3	1	UNK0	0.000	
22	   C	-0.601	2.250	1.445	C.2	1	UNK0	0.000	
23	   O	0.580	2.756	1.430	O.2	1	UNK0	0.000	
24	   C	-1.136	1.777	2.739	C.3	1	UNK0	0.000	
25	   C	-0.799	2.662	3.928	C.3	1	UNK0	0.000	
26	   C	-0.131	1.317	3.764	C.3	1	UNK0	0.000	
27	   H	0.878	-3.664	0.752	 H	1	UNK0	0.000	
28	   H	1.554	-4.022	3.058	 H	1	UNK0	0.000	
29	   H	3.308	-2.631	4.101	 H	1	UNK0	0.000	
30	   H	4.376	-0.829	2.698	 H	1	UNK0	0.000	
31	   H	2.395	-0.194	-2.152	 H	1	UNK0	0.000	
32	   H	1.046	0.138	-0.945	 H	1	UNK0	0.000	
33	   H	0.467	-0.324	-3.548	 H	1	UNK0	0.000	
34	   H	-0.209	-2.990	-2.802	 H	1	UNK0	0.000	
35	   H	1.092	-2.517	-4.026	 H	1	UNK0	0.000	
36	   H	-1.463	2.104	-2.901	 H	1	UNK0	0.000	
37	   H	0.170	1.492	-2.655	 H	1	UNK0	0.000	
38	   H	0.392	2.902	-0.790	 H	1	UNK0	0.000	
39	   H	-1.148	3.645	-1.284	 H	1	UNK0	0.000	
40	   H	-3.300	2.472	-0.246	 H	1	UNK0	0.000	
41	   H	-3.028	1.308	1.056	 H	1	UNK0	0.000	
42	   H	-2.949	-0.375	-0.444	 H	1	UNK0	0.000	
43	   H	-3.506	0.759	-1.692	 H	1	UNK0	0.000	
44	   H	-2.141	1.335	2.822	 H	1	UNK0	0.000	
45	   H	-0.097	3.516	3.744	 H	1	UNK0	0.000	
46	   H	-1.495	2.737	4.767	 H	1	UNK0	0.000	
47	   H	-0.409	0.482	4.440	 H	1	UNK0	0.000	
48	   H	0.940	1.278	3.425	 H	1	UNK0	0.000	
@<TRIPOS>BOND
1 1 2 1
2 2 3 2
3 2 7 1
4 3 4 1
5 3 8 1
6 4 5 2
7 5 6 1
8 6 7 2
9 8 9 1
10 8 12 1
11 9 10 1
12 10 11 1
13 10 14 1
14 11 12 1
15 12 13 2
16 14 15 2
17 14 16 1
18 16 17 1
19 16 21 1
20 17 18 1
21 18 19 1
22 19 20 1
23 19 22 1
24 20 21 1
25 22 23 2
26 22 24 1
27 24 25 1
28 24 26 1
29 25 26 1
30 4 27 1
31 5 28 1
32 6 29 1
33 7 30 1
34 9 31 1
35 9 32 1
36 10 33 1
37 11 34 1
38 11 35 1
39 17 36 1
40 17 37 1
41 18 38 1
42 18 39 1
43 20 40 1
44 20 41 1
45 21 42 1
46 21 43 1
47 24 44 1
48 25 45 1
49 25 46 1
50 26 47 1
51 26 48 1
@<TRIPOS>SUBSTRUCTURE
1	UNK0	1	GROUP	1 ****	UNK
