# created with PyMOL 2.3.2
@<TRIPOS>MOLECULE
66
47 50 1                 
SMALL
USER_CHARGES
@<TRIPOS>ATOM
1	  Br	-2.976	-1.492	3.259	Br	1	UNK0	0.000	
2	   C	-3.301	-0.878	1.499	C.2	1	UNK0	0.000	
3	   C	-2.607	0.225	1.058	C.2	1	UNK0	0.000	
4	   C	-2.866	0.645	-0.229	C.2	1	UNK0	0.000	
5	   C	-3.791	-0.024	-1.039	C.2	1	UNK0	0.000	
6	   C	-4.463	-1.120	-0.563	C.2	1	UNK0	0.000	
7	   C	-4.215	-1.549	0.717	C.2	1	UNK0	0.000	
8	   N	-1.661	0.923	1.863	N.pl3	1	UNK0	0.000	
9	   C	-0.367	1.435	1.432	C.3	1	UNK0	0.000	
10	   C	0.493	1.186	2.648	C.3	1	UNK0	0.000	
11	   C	-0.431	1.212	3.819	C.3	1	UNK0	0.000	
12	   C	-1.794	1.265	3.233	C.2	1	UNK0	0.000	
13	   O	-2.889	1.558	3.818	O.2	1	UNK0	0.000	
14	   C	1.176	-0.116	2.439	C.2	1	UNK0	0.000	
15	   O	0.820	-1.104	3.138	O.2	1	UNK0	0.000	
16	   N	2.204	-0.236	1.468	N.pl3	1	UNK0	0.000	
17	   C	2.867	-1.529	1.234	C.3	1	UNK0	0.000	
18	   C	2.534	-1.982	-0.191	C.3	1	UNK0	0.000	
19	   N	2.190	-0.870	-1.054	N.pl3	1	UNK0	0.000	
20	   C	2.775	0.419	-0.769	C.3	1	UNK0	0.000	
21	   C	2.704	0.849	0.655	C.3	1	UNK0	0.000	
22	   C	1.296	-1.058	-2.159	C.2	1	UNK0	0.000	
23	   N	0.965	-0.024	-2.943	N.2	1	UNK0	0.000	
24	   C	0.123	-0.162	-4.001	C.2	1	UNK0	0.000	
25	   C	-0.419	-1.395	-4.295	C.2	1	UNK0	0.000	
26	   C	-0.072	-2.454	-3.481	C.2	1	UNK0	0.000	
27	   N	0.767	-2.250	-2.450	N.2	1	UNK0	0.000	
28	   H	-2.357	1.496	-0.627	 H	1	UNK0	0.000	
29	   H	-3.985	0.312	-2.042	 H	1	UNK0	0.000	
30	   H	-5.184	-1.648	-1.184	 H	1	UNK0	0.000	
31	   H	-4.750	-2.413	1.084	 H	1	UNK0	0.000	
32	   H	-0.029	0.882	0.529	 H	1	UNK0	0.000	
33	   H	-0.440	2.530	1.208	 H	1	UNK0	0.000	
34	   H	1.238	2.022	2.716	 H	1	UNK0	0.000	
35	   H	-0.288	2.139	4.414	 H	1	UNK0	0.000	
36	   H	-0.345	0.326	4.477	 H	1	UNK0	0.000	
37	   H	3.956	-1.312	1.321	 H	1	UNK0	0.000	
38	   H	2.609	-2.274	1.984	 H	1	UNK0	0.000	
39	   H	3.440	-2.465	-0.608	 H	1	UNK0	0.000	
40	   H	1.723	-2.724	-0.115	 H	1	UNK0	0.000	
41	   H	3.813	0.373	-1.168	 H	1	UNK0	0.000	
42	   H	2.193	1.173	-1.378	 H	1	UNK0	0.000	
43	   H	3.781	1.020	0.979	 H	1	UNK0	0.000	
44	   H	2.134	1.800	0.788	 H	1	UNK0	0.000	
45	   H	-0.138	0.685	-4.629	 H	1	UNK0	0.000	
46	   H	-1.102	-1.524	-5.149	 H	1	UNK0	0.000	
47	   H	-0.500	-3.418	-3.718	 H	1	UNK0	0.000	
@<TRIPOS>BOND
1 1 2 1
2 2 3 2
3 2 7 1
4 3 4 1
5 3 8 1
6 4 5 2
7 5 6 1
8 6 7 2
9 8 9 1
10 8 12 1
11 9 10 1
12 10 11 1
13 10 14 1
14 11 12 1
15 12 13 2
16 14 15 2
17 14 16 1
18 16 17 1
19 16 21 1
20 17 18 1
21 18 19 1
22 19 20 1
23 19 22 1
24 20 21 1
25 22 23 2
26 22 27 1
27 23 24 1
28 24 25 2
29 25 26 1
30 26 27 2
31 4 28 1
32 5 29 1
33 6 30 1
34 7 31 1
35 9 32 1
36 9 33 1
37 10 34 1
38 11 35 1
39 11 36 1
40 17 37 1
41 17 38 1
42 18 39 1
43 18 40 1
44 20 41 1
45 20 42 1
46 21 43 1
47 21 44 1
48 24 45 1
49 25 46 1
50 26 47 1
@<TRIPOS>SUBSTRUCTURE
1	UNK0	1	GROUP	1 ****	UNK
