# created with PyMOL 2.3.2
@<TRIPOS>MOLECULE
69
52 55 1                 
SMALL
USER_CHARGES
@<TRIPOS>ATOM
1	  Br	1.147	-2.727	4.002	Br	1	UNK0	0.000	
2	   C	3.026	-2.409	4.039	C.2	1	UNK0	0.000	
3	   C	3.757	-2.114	2.932	C.2	1	UNK0	0.000	
4	   C	5.132	-1.878	3.118	C.2	1	UNK0	0.000	
5	   C	5.682	-1.951	4.365	C.2	1	UNK0	0.000	
6	   C	4.940	-2.249	5.475	C.2	1	UNK0	0.000	
7	   C	3.606	-2.479	5.308	C.2	1	UNK0	0.000	
8	   O	3.300	-2.020	1.670	O.3	1	UNK0	0.000	
9	   C	2.340	-1.276	1.071	C.2	1	UNK0	0.000	
10	   C	1.182	-1.808	0.564	C.2	1	UNK0	0.000	
11	   O	0.244	-1.058	-0.014	O.3	1	UNK0	0.000	
12	   C	0.354	0.237	-0.146	C.2	1	UNK0	0.000	
13	   C	1.477	0.884	0.325	C.2	1	UNK0	0.000	
14	   C	1.597	2.256	0.188	C.2	1	UNK0	0.000	
15	   C	0.586	2.961	-0.421	C.2	1	UNK0	0.000	
16	   C	-0.546	2.280	-0.892	C.2	1	UNK0	0.000	
17	   C	-0.684	0.931	-0.767	C.2	1	UNK0	0.000	
18	   C	-1.822	0.166	-1.233	C.3	1	UNK0	0.000	
19	   N	-2.853	0.963	-1.854	N.4	1	UNK0	0.000	
20	   C	-2.911	1.042	-3.308	C.3	1	UNK0	0.000	
21	   C	-4.145	0.345	-3.929	C.3	1	UNK0	0.000	
22	   N	-5.230	0.247	-3.007	N.3	1	UNK0	0.000	
23	   C	-5.271	1.329	-2.029	C.3	1	UNK0	0.000	
24	   C	-4.084	1.249	-1.098	C.3	1	UNK0	0.000	
25	   C	-5.312	-1.054	-2.375	C.3	1	UNK0	0.000	
26	   O	-1.520	3.050	-1.492	O.2	1	UNK0	0.000	
27	   C	2.451	0.117	0.925	C.2	1	UNK0	0.000	
28	   O	3.496	0.641	1.375	O.2	1	UNK0	0.000	
29	   C	0.911	-3.280	0.630	C.3	1	UNK0	0.000	
30	   H	5.773	-1.637	2.276	 H	1	UNK0	0.000	
31	   H	6.746	-1.770	4.512	 H	1	UNK0	0.000	
32	   H	5.416	-2.300	6.468	 H	1	UNK0	0.000	
33	   H	3.002	-2.719	6.192	 H	1	UNK0	0.000	
34	   H	2.503	2.723	0.575	 H	1	UNK0	0.000	
35	   H	0.692	4.031	-0.522	 H	1	UNK0	0.000	
36	   H	-2.228	-0.511	-0.396	 H	1	UNK0	0.000	
37	   H	-1.462	-0.560	-1.987	 H	1	UNK0	0.000	
38	   H	-3.181	0.469	-1.980	 H	1	UNK0	0.000	
39	   H	-2.026	0.562	-3.715	 H	1	UNK0	0.000	
40	   H	-2.917	2.086	-3.615	 H	1	UNK0	0.000	
41	   H	-4.404	0.894	-4.824	 H	1	UNK0	0.000	
42	   H	-3.828	-0.686	-4.244	 H	1	UNK0	0.000	
43	   H	-5.207	2.273	-2.602	 H	1	UNK0	0.000	
44	   H	-6.199	1.280	-1.469	 H	1	UNK0	0.000	
45	   H	-4.323	0.521	-0.285	 H	1	UNK0	0.000	
46	   H	-3.949	2.223	-0.645	 H	1	UNK0	0.000	
47	   H	-5.233	-1.011	-1.280	 H	1	UNK0	0.000	
48	   H	-4.500	-1.744	-2.726	 H	1	UNK0	0.000	
49	   H	-6.269	-1.574	-2.604	 H	1	UNK0	0.000	
50	   H	-0.028	-3.493	1.185	 H	1	UNK0	0.000	
51	   H	1.787	-3.803	1.029	 H	1	UNK0	0.000	
52	   H	0.723	-3.592	-0.434	 H	1	UNK0	0.000	
@<TRIPOS>BOND
1 1 2 1
2 2 3 2
3 2 7 1
4 3 4 1
5 3 8 1
6 4 5 2
7 5 6 1
8 6 7 2
9 8 9 1
10 9 10 2
11 9 27 1
12 10 11 1
13 10 29 1
14 11 12 1
15 12 13 2
16 12 17 1
17 13 14 1
18 13 27 1
19 14 15 2
20 15 16 1
21 16 17 2
22 16 26 1
23 17 18 1
24 18 19 1
25 19 20 1
26 19 24 1
27 20 21 1
28 21 22 1
29 22 23 1
30 22 25 1
31 23 24 1
32 27 28 2
33 4 30 1
34 5 31 1
35 6 32 1
36 7 33 1
37 14 34 1
38 15 35 1
39 18 36 1
40 18 37 1
41 19 38 1
42 20 39 1
43 20 40 1
44 21 41 1
45 21 42 1
46 23 43 1
47 23 44 1
48 24 45 1
49 24 46 1
50 25 47 1
51 25 48 1
52 25 49 1
53 29 50 1
54 29 51 1
55 29 52 1
@<TRIPOS>SUBSTRUCTURE
1	UNK0	1	GROUP	1 ****	UNK
