# created with PyMOL 2.3.2
@<TRIPOS>MOLECULE
76
57 59 1                 
SMALL
USER_CHARGES
@<TRIPOS>ATOM
1	  Br	6.029	2.476	-0.004	Br	1	UNK0	0.000	
2	   C	4.988	1.012	-0.616	C.2	1	UNK0	0.000	
3	   C	3.617	1.049	-0.431	C.2	1	UNK0	0.000	
4	   C	2.853	-0.000	-0.868	C.2	1	UNK0	0.000	
5	   C	3.415	-1.089	-1.485	C.2	1	UNK0	0.000	
6	   N	2.451	-1.953	-1.804	N.pl3	1	UNK0	0.000	
7	   C	1.258	-1.424	-1.393	C.2	1	UNK0	0.000	
8	   C	1.470	-0.205	-0.804	C.2	1	UNK0	0.000	
9	   O	0.528	0.642	-0.263	O.3	1	UNK0	0.000	
10	   C	-0.809	0.319	-0.264	C.3	1	UNK0	0.000	
11	   O	-1.610	1.294	-0.910	O.3	1	UNK0	0.000	
12	   C	-2.728	0.619	-1.348	C.3	1	UNK0	0.000	
13	   C	-3.464	-0.133	-0.301	C.3	1	UNK0	0.000	
14	   C	-2.756	-0.425	0.954	C.3	1	UNK0	0.000	
15	   C	-1.421	0.218	1.122	C.3	1	UNK0	0.000	
16	   O	-0.565	-0.496	1.960	O.3	1	UNK0	0.000	
17	   O	-3.533	-0.062	2.079	O.3	1	UNK0	0.000	
18	   O	-3.944	-1.340	-0.849	O.3	1	UNK0	0.000	
19	   C	-3.648	1.527	-2.106	C.2	1	UNK0	0.000	
20	   O	-3.643	2.763	-1.993	O.co2	1	UNK0	0.000	
21	   O	-4.543	0.915	-2.976	O.co2	1	UNK0	0.000	
22	   C	4.792	-1.133	-1.674	C.2	1	UNK0	0.000	
23	   C	5.569	-0.086	-1.240	C.2	1	UNK0	0.000	
24	  Cl	2.853	2.419	0.352	Cl	1	UNK0	0.000	
25	   N	0.308	-1.582	0.899	N.4	1	UNK0	0.000	
26	   C	0.570	-0.248	0.431	C.3	1	UNK0	0.000	
27	   C	-0.362	0.781	0.994	C.3	1	UNK0	0.000	
28	   C	0.149	2.165	0.991	C.3	1	UNK0	0.000	
29	   C	1.324	2.460	0.154	C.3	1	UNK0	0.000	
30	   C	2.293	1.365	-0.059	C.3	1	UNK0	0.000	
31	   C	1.978	0.190	0.858	C.3	1	UNK0	0.000	
32	   H	2.599	-2.868	-2.283	 H	1	UNK0	0.000	
33	   H	0.335	-1.938	-1.540	 H	1	UNK0	0.000	
34	   H	-0.991	-0.665	-0.738	 H	1	UNK0	0.000	
35	   H	-2.356	-0.114	-2.124	 H	1	UNK0	0.000	
36	   H	-4.398	0.454	-0.061	 H	1	UNK0	0.000	
37	   H	-2.596	-1.536	1.084	 H	1	UNK0	0.000	
38	   H	-1.574	1.241	1.525	 H	1	UNK0	0.000	
39	   H	-1.048	-0.824	2.760	 H	1	UNK0	0.000	
40	   H	-4.432	0.285	1.777	 H	1	UNK0	0.000	
41	   H	-3.898	-1.280	-1.839	 H	1	UNK0	0.000	
42	   H	5.257	-1.965	-2.149	 H	1	UNK0	0.000	
43	   H	6.654	-0.094	-1.375	 H	1	UNK0	0.000	
44	   H	-0.368	-2.022	0.237	 H	1	UNK0	0.000	
45	   H	1.183	-2.141	0.931	 H	1	UNK0	0.000	
46	   H	-0.128	-1.533	1.842	 H	1	UNK0	0.000	
47	   H	0.553	-0.244	-0.689	 H	1	UNK0	0.000	
48	   H	-1.355	0.674	0.467	 H	1	UNK0	0.000	
49	   H	-0.592	0.456	2.051	 H	1	UNK0	0.000	
50	   H	0.342	2.508	2.050	 H	1	UNK0	0.000	
51	   H	-0.689	2.842	0.649	 H	1	UNK0	0.000	
52	   H	1.882	3.325	0.621	 H	1	UNK0	0.000	
53	   H	1.013	2.864	-0.853	 H	1	UNK0	0.000	
54	   H	3.351	1.637	0.054	 H	1	UNK0	0.000	
55	   H	2.183	0.953	-1.105	 H	1	UNK0	0.000	
56	   H	1.897	0.636	1.887	 H	1	UNK0	0.000	
57	   H	2.703	-0.617	0.789	 H	1	UNK0	0.000	
@<TRIPOS>BOND
1 1 2 1
2 2 3 2
3 2 23 1
4 3 4 1
5 3 24 1
6 4 5 2
7 4 8 1
8 5 6 1
9 5 22 1
10 6 7 1
11 7 8 2
12 8 9 1
13 9 10 1
14 10 11 1
15 10 15 1
16 11 12 1
17 12 13 1
18 12 19 1
19 13 14 1
20 13 18 1
21 14 15 1
22 14 17 1
23 15 16 1
24 19 20 2
25 19 21 1
26 22 23 2
27 25 26 1
28 26 27 1
29 26 31 1
30 27 28 1
31 28 29 1
32 29 30 1
33 30 31 1
34 6 32 1
35 7 33 1
36 10 34 1
37 12 35 1
38 13 36 1
39 14 37 1
40 15 38 1
41 16 39 1
42 17 40 1
43 18 41 1
44 22 42 1
45 23 43 1
46 25 44 1
47 25 45 1
48 25 46 1
49 26 47 1
50 27 48 1
51 27 49 1
52 28 50 1
53 28 51 1
54 29 52 1
55 29 53 1
56 30 54 1
57 30 55 1
58 31 56 1
59 31 57 1
@<TRIPOS>SUBSTRUCTURE
1	UNK0	1	GROUP	1 ****	UNK
