# created with PyMOL 2.3.2
@<TRIPOS>MOLECULE
77
59 62 1                 
SMALL
USER_CHARGES
@<TRIPOS>ATOM
1	  Br	3.001	-6.882	4.137	Br	1	UNK0	0.000	
2	   C	3.016	-6.250	2.343	C.2	1	UNK0	0.000	
3	   C	2.420	-5.065	1.974	C.2	1	UNK0	0.000	
4	   C	2.431	-4.608	0.666	C.2	1	UNK0	0.000	
5	   C	3.068	-5.392	-0.264	C.2	1	UNK0	0.000	
6	   N	2.972	-4.789	-1.457	N.pl3	1	UNK0	0.000	
7	   C	2.305	-3.663	-1.326	C.2	1	UNK0	0.000	
8	   C	1.923	-3.479	0.015	C.2	1	UNK0	0.000	
9	   O	1.261	-2.475	0.469	O.3	1	UNK0	0.000	
10	   C	0.599	-1.507	1.032	C.3	1	UNK0	0.000	
11	   O	1.137	-0.234	0.858	O.3	1	UNK0	0.000	
12	   C	0.693	0.503	-0.189	C.3	1	UNK0	0.000	
13	   C	-0.782	0.784	-0.188	C.3	1	UNK0	0.000	
14	   C	-1.436	-0.017	0.911	C.3	1	UNK0	0.000	
15	   C	-0.902	-1.428	0.757	C.3	1	UNK0	0.000	
16	   O	-1.573	-2.194	1.739	O.3	1	UNK0	0.000	
17	   O	-2.814	-0.125	0.635	O.3	1	UNK0	0.000	
18	   O	-1.109	2.124	-0.161	O.3	1	UNK0	0.000	
19	   C	-1.852	2.566	-1.219	C.3	1	UNK0	0.000	
20	   O	-3.081	3.068	-0.796	O.3	1	UNK0	0.000	
21	   C	-3.022	4.189	-0.026	C.3	1	UNK0	0.000	
22	   C	-2.039	5.234	-0.531	C.3	1	UNK0	0.000	
23	   C	-1.641	4.962	-1.963	C.3	1	UNK0	0.000	
24	   C	-1.033	3.569	-1.997	C.3	1	UNK0	0.000	
25	   O	-0.856	3.154	-3.319	O.3	1	UNK0	0.000	
26	   O	-0.673	5.858	-2.358	O.3	1	UNK0	0.000	
27	   O	-2.545	6.520	-0.456	O.3	1	UNK0	0.000	
28	   C	-2.787	3.946	1.434	C.3	1	UNK0	0.000	
29	   O	-3.784	3.168	2.027	O.3	1	UNK0	0.000	
30	   C	1.077	-0.207	-1.485	C.3	1	UNK0	0.000	
31	   O	0.632	0.539	-2.572	O.3	1	UNK0	0.000	
32	   C	3.674	-6.595	0.105	C.2	1	UNK0	0.000	
33	   C	3.657	-7.036	1.402	C.2	1	UNK0	0.000	
34	  Cl	1.620	-4.118	3.199	Cl	1	UNK0	0.000	
35	   H	3.370	-5.155	-2.364	 H	1	UNK0	0.000	
36	   H	2.080	-2.964	-2.151	 H	1	UNK0	0.000	
37	   H	0.618	-1.620	2.178	 H	1	UNK0	0.000	
38	   H	1.186	1.516	-0.165	 H	1	UNK0	0.000	
39	   H	-1.204	0.377	-1.128	 H	1	UNK0	0.000	
40	   H	-1.229	0.345	1.919	 H	1	UNK0	0.000	
41	   H	-1.183	-1.908	-0.197	 H	1	UNK0	0.000	
42	   H	-2.474	-1.809	1.918	 H	1	UNK0	0.000	
43	   H	-2.971	-0.736	-0.131	 H	1	UNK0	0.000	
44	   H	-2.092	1.733	-1.946	 H	1	UNK0	0.000	
45	   H	-4.031	4.700	-0.098	 H	1	UNK0	0.000	
46	   H	-1.131	5.158	0.098	 H	1	UNK0	0.000	
47	   H	-2.548	4.959	-2.610	 H	1	UNK0	0.000	
48	   H	-0.020	3.631	-1.561	 H	1	UNK0	0.000	
49	   H	-1.330	2.301	-3.508	 H	1	UNK0	0.000	
50	   H	-0.830	6.244	-3.241	 H	1	UNK0	0.000	
51	   H	-3.495	6.520	-0.744	 H	1	UNK0	0.000	
52	   H	-1.837	3.421	1.643	 H	1	UNK0	0.000	
53	   H	-2.754	4.900	2.000	 H	1	UNK0	0.000	
54	   H	-3.467	2.413	2.553	 H	1	UNK0	0.000	
55	   H	0.637	-1.219	-1.498	 H	1	UNK0	0.000	
56	   H	2.170	-0.316	-1.580	 H	1	UNK0	0.000	
57	   H	1.212	1.352	-2.613	 H	1	UNK0	0.000	
58	   H	4.160	-7.173	-0.662	 H	1	UNK0	0.000	
59	   H	4.140	-7.975	1.635	 H	1	UNK0	0.000	
@<TRIPOS>BOND
1 1 2 1
2 2 3 2
3 2 33 1
4 3 4 1
5 3 34 1
6 4 5 2
7 4 8 1
8 5 6 1
9 5 32 1
10 6 7 1
11 7 8 2
12 8 9 1
13 9 10 1
14 10 11 1
15 10 15 1
16 11 12 1
17 12 13 1
18 12 30 1
19 13 14 1
20 13 18 1
21 14 15 1
22 14 17 1
23 15 16 1
24 18 19 1
25 19 20 1
26 19 24 1
27 20 21 1
28 21 22 1
29 21 28 1
30 22 23 1
31 22 27 1
32 23 24 1
33 23 26 1
34 24 25 1
35 28 29 1
36 30 31 1
37 32 33 2
38 6 35 1
39 7 36 1
40 10 37 1
41 12 38 1
42 13 39 1
43 14 40 1
44 15 41 1
45 16 42 1
46 17 43 1
47 19 44 1
48 21 45 1
49 22 46 1
50 23 47 1
51 24 48 1
52 25 49 1
53 26 50 1
54 27 51 1
55 28 52 1
56 28 53 1
57 29 54 1
58 30 55 1
59 30 56 1
60 31 57 1
61 32 58 1
62 33 59 1
@<TRIPOS>SUBSTRUCTURE
1	UNK0	1	GROUP	1 ****	UNK
