# created with PyMOL 2.3.2
@<TRIPOS>MOLECULE
78
42 46 1                 
SMALL
USER_CHARGES
@<TRIPOS>ATOM
1	  Br	3.617	-1.319	2.176	Br	1	UNK0	0.000	
2	   C	3.583	-2.064	0.414	C.2	1	UNK0	0.000	
3	   C	4.437	-3.027	-0.085	C.2	1	UNK0	0.000	
4	   N	4.063	-3.264	-1.352	N.pl3	1	UNK0	0.000	
5	   N	3.034	-2.507	-1.659	N.2	1	UNK0	0.000	
6	   C	2.698	-1.740	-0.590	C.2	1	UNK0	0.000	
7	   C	1.615	-0.760	-0.561	C.2	1	UNK0	0.000	
8	   O	1.494	-0.067	0.483	O.2	1	UNK0	0.000	
9	   N	0.770	-0.633	-1.691	N.pl3	1	UNK0	0.000	
10	   N	-0.281	0.293	-1.741	N.pl3	1	UNK0	0.000	
11	   C	-1.692	0.090	-1.774	C.2	1	UNK0	0.000	
12	   O	-2.256	-0.979	-1.378	O.2	1	UNK0	0.000	
13	   C	-2.362	1.285	-2.325	C.3	1	UNK0	0.000	
14	   C	-3.497	1.796	-1.485	C.3	1	UNK0	0.000	
15	   C	-2.733	2.251	-0.257	C.3	1	UNK0	0.000	
16	   C	-1.860	3.232	-0.993	C.3	1	UNK0	0.000	
17	   C	-1.318	2.388	-2.097	C.3	1	UNK0	0.000	
18	   C	-0.067	1.705	-1.775	C.2	1	UNK0	0.000	
19	   O	1.029	2.259	-1.559	O.2	1	UNK0	0.000	
20	   C	-2.961	4.057	-1.632	C.2	1	UNK0	0.000	
21	   C	-3.841	3.154	-2.054	C.2	1	UNK0	0.000	
22	   C	-2.340	1.392	0.825	C.3	1	UNK0	0.000	
23	   C	-3.364	2.544	1.016	C.3	1	UNK0	0.000	
24	   C	4.680	-4.194	-2.278	C.3	1	UNK0	0.000	
25	   C	5.547	-3.653	0.675	C.3	1	UNK0	0.000	
26	   H	0.939	-1.249	-2.512	 H	1	UNK0	0.000	
27	   H	-2.629	1.209	-3.384	 H	1	UNK0	0.000	
28	   H	-4.330	1.155	-1.319	 H	1	UNK0	0.000	
29	   H	-1.174	3.793	-0.410	 H	1	UNK0	0.000	
30	   H	-1.268	2.962	-3.053	 H	1	UNK0	0.000	
31	   H	-3.020	5.120	-1.724	 H	1	UNK0	0.000	
32	   H	-4.701	3.319	-2.709	 H	1	UNK0	0.000	
33	   H	-1.377	1.458	1.347	 H	1	UNK0	0.000	
34	   H	-2.826	0.382	0.937	 H	1	UNK0	0.000	
35	   H	-2.934	3.393	1.618	 H	1	UNK0	0.000	
36	   H	-4.404	2.271	1.214	 H	1	UNK0	0.000	
37	   H	3.960	-4.991	-2.492	 H	1	UNK0	0.000	
38	   H	5.001	-3.651	-3.200	 H	1	UNK0	0.000	
39	   H	5.632	-4.578	-1.826	 H	1	UNK0	0.000	
40	   H	6.414	-3.790	-0.028	 H	1	UNK0	0.000	
41	   H	5.262	-4.666	1.037	 H	1	UNK0	0.000	
42	   H	5.813	-3.018	1.537	 H	1	UNK0	0.000	
@<TRIPOS>BOND
1 1 2 1
2 2 3 2
3 2 6 1
4 3 4 1
5 3 25 1
6 4 5 1
7 4 24 1
8 5 6 2
9 6 7 1
10 7 8 2
11 7 9 1
12 9 10 1
13 10 11 1
14 10 18 1
15 11 12 2
16 11 13 1
17 13 14 1
18 13 17 1
19 14 15 1
20 14 21 1
21 15 16 1
22 15 22 1
23 15 23 1
24 16 17 1
25 16 20 1
26 17 18 1
27 18 19 2
28 20 21 2
29 22 23 1
30 9 26 1
31 13 27 1
32 14 28 1
33 16 29 1
34 17 30 1
35 20 31 1
36 21 32 1
37 22 33 1
38 22 34 1
39 23 35 1
40 23 36 1
41 24 37 1
42 24 38 1
43 24 39 1
44 25 40 1
45 25 41 1
46 25 42 1
@<TRIPOS>SUBSTRUCTURE
1	UNK0	1	GROUP	1 ****	UNK
