# created with PyMOL 2.3.2
@<TRIPOS>MOLECULE
79
42 46 1                 
SMALL
USER_CHARGES
@<TRIPOS>ATOM
1	  Br	3.760	1.798	2.087	Br	1	UNK0	0.000	
2	   C	3.147	2.371	0.372	C.2	1	UNK0	0.000	
3	   C	3.753	3.310	-0.435	C.2	1	UNK0	0.000	
4	   N	2.954	3.381	-1.533	N.pl3	1	UNK0	0.000	
5	   N	1.933	2.559	-1.426	N.2	1	UNK0	0.000	
6	   C	2.026	1.923	-0.260	C.2	1	UNK0	0.000	
7	   C	1.060	0.907	0.276	C.2	1	UNK0	0.000	
8	   O	1.304	0.530	1.439	O.2	1	UNK0	0.000	
9	   N	-0.023	0.454	-0.533	N.pl3	1	UNK0	0.000	
10	   N	-0.973	-0.475	-0.176	N.pl3	1	UNK0	0.000	
11	   C	-1.207	-0.985	1.114	C.2	1	UNK0	0.000	
12	   O	-0.775	-0.594	2.259	O.2	1	UNK0	0.000	
13	   C	-2.104	-2.147	1.023	C.3	1	UNK0	0.000	
14	   C	-1.659	-3.430	1.592	C.3	1	UNK0	0.000	
15	   C	-0.365	-3.993	1.081	C.3	1	UNK0	0.000	
16	   C	-0.301	-3.915	-0.483	C.3	1	UNK0	0.000	
17	   C	-1.669	-3.585	-0.902	C.3	1	UNK0	0.000	
18	   C	-2.309	-2.337	-0.453	C.3	1	UNK0	0.000	
19	   C	-1.876	-1.096	-1.071	C.2	1	UNK0	0.000	
20	   O	-2.221	-0.649	-2.168	O.2	1	UNK0	0.000	
21	   C	-2.516	-4.684	-0.236	C.2	1	UNK0	0.000	
22	   C	-2.678	-4.438	1.059	C.2	1	UNK0	0.000	
23	   C	0.664	-3.267	0.362	C.3	1	UNK0	0.000	
24	   C	3.256	4.287	-2.654	C.3	1	UNK0	0.000	
25	   C	5.006	4.039	-0.120	C.3	1	UNK0	0.000	
26	   H	-0.080	0.885	-1.511	 H	1	UNK0	0.000	
27	   H	-3.053	-1.855	1.562	 H	1	UNK0	0.000	
28	   H	-1.617	-3.486	2.677	 H	1	UNK0	0.000	
29	   H	-0.157	-5.020	1.475	 H	1	UNK0	0.000	
30	   H	0.030	-4.900	-0.988	 H	1	UNK0	0.000	
31	   H	-1.736	-3.673	-2.011	 H	1	UNK0	0.000	
32	   H	-3.420	-2.477	-0.586	 H	1	UNK0	0.000	
33	   H	-2.899	-5.516	-0.789	 H	1	UNK0	0.000	
34	   H	-3.416	-4.869	1.680	 H	1	UNK0	0.000	
35	   H	1.687	-3.798	0.399	 H	1	UNK0	0.000	
36	   H	0.881	-2.207	0.493	 H	1	UNK0	0.000	
37	   H	2.328	4.623	-3.152	 H	1	UNK0	0.000	
38	   H	3.898	3.758	-3.388	 H	1	UNK0	0.000	
39	   H	3.713	5.221	-2.243	 H	1	UNK0	0.000	
40	   H	5.904	3.393	-0.094	 H	1	UNK0	0.000	
41	   H	5.121	4.855	-0.873	 H	1	UNK0	0.000	
42	   H	4.939	4.544	0.887	 H	1	UNK0	0.000	
@<TRIPOS>BOND
1 1 2 1
2 2 3 2
3 2 6 1
4 3 4 1
5 3 25 1
6 4 5 1
7 4 24 1
8 5 6 2
9 6 7 1
10 7 8 2
11 7 9 1
12 9 10 1
13 10 11 1
14 10 19 1
15 11 12 2
16 11 13 1
17 13 14 1
18 13 18 1
19 14 15 1
20 14 22 1
21 15 16 1
22 15 23 1
23 16 17 1
24 16 23 1
25 17 18 1
26 17 21 1
27 18 19 1
28 19 20 2
29 21 22 2
30 9 26 1
31 13 27 1
32 14 28 1
33 15 29 1
34 16 30 1
35 17 31 1
36 18 32 1
37 21 33 1
38 22 34 1
39 23 35 1
40 23 36 1
41 24 37 1
42 24 38 1
43 24 39 1
44 25 40 1
45 25 41 1
46 25 42 1
@<TRIPOS>SUBSTRUCTURE
1	UNK0	1	GROUP	1 ****	UNK
