# created with PyMOL 2.3.2
@<TRIPOS>MOLECULE
80
50 53 1                 
SMALL
USER_CHARGES
@<TRIPOS>ATOM
1	  Br	4.269	0.542	1.826	Br	1	UNK0	0.000	
2	   C	2.471	0.253	2.421	C.2	1	UNK0	0.000	
3	   C	1.965	-0.829	3.111	C.2	1	UNK0	0.000	
4	   N	0.657	-0.617	3.325	N.pl3	1	UNK0	0.000	
5	   N	0.370	0.552	2.786	N.2	1	UNK0	0.000	
6	   C	1.443	1.123	2.223	C.2	1	UNK0	0.000	
7	   C	1.449	2.445	1.535	C.3	1	UNK0	0.000	
8	   C	-0.312	-1.429	3.997	C.3	1	UNK0	0.000	
9	   C	-1.008	-2.402	3.136	C.2	1	UNK0	0.000	
10	   O	-0.665	-3.602	3.167	O.2	1	UNK0	0.000	
11	   N	-2.055	-2.028	2.268	N.pl3	1	UNK0	0.000	
12	   C	-2.775	-2.911	1.413	C.3	1	UNK0	0.000	
13	   C	-1.903	-3.647	0.433	C.3	1	UNK0	0.000	
14	   N	-1.165	-2.754	-0.418	N.pl3	1	UNK0	0.000	
15	   C	-1.759	-1.814	-1.289	C.2	1	UNK0	0.000	
16	   O	-2.995	-1.719	-1.362	O.2	1	UNK0	0.000	
17	   C	-0.907	-0.963	-2.093	C.2	1	UNK0	0.000	
18	   N	-1.230	-0.005	-2.993	N.2	1	UNK0	0.000	
19	   C	-0.118	0.539	-3.506	C.2	1	UNK0	0.000	
20	   N	0.908	-0.113	-2.896	N.2	1	UNK0	0.000	
21	   O	0.417	-0.986	-2.075	O.3	1	UNK0	0.000	
22	   C	0.069	1.591	-4.495	C.2	1	UNK0	0.000	
23	   C	1.335	2.010	-4.843	C.2	1	UNK0	0.000	
24	   C	1.574	2.997	-5.767	C.2	1	UNK0	0.000	
25	   C	0.493	3.624	-6.402	C.2	1	UNK0	0.000	
26	   C	-0.775	3.218	-6.066	C.2	1	UNK0	0.000	
27	   C	-0.979	2.220	-5.128	C.2	1	UNK0	0.000	
28	   O	1.038	4.571	-7.277	O.3	1	UNK0	0.000	
29	   C	2.411	4.287	-7.466	C.3	1	UNK0	0.000	
30	   O	2.732	3.580	-6.274	O.3	1	UNK0	0.000	
31	   C	2.751	-2.041	3.546	C.3	1	UNK0	0.000	
32	   H	1.765	3.258	2.238	 H	1	UNK0	0.000	
33	   H	2.181	2.438	0.707	 H	1	UNK0	0.000	
34	   H	0.421	2.646	1.150	 H	1	UNK0	0.000	
35	   H	0.219	-1.936	4.846	 H	1	UNK0	0.000	
36	   H	-1.048	-0.756	4.518	 H	1	UNK0	0.000	
37	   H	-2.317	-0.999	2.263	 H	1	UNK0	0.000	
38	   H	-3.511	-2.329	0.824	 H	1	UNK0	0.000	
39	   H	-3.408	-3.648	1.989	 H	1	UNK0	0.000	
40	   H	-2.616	-4.251	-0.206	 H	1	UNK0	0.000	
41	   H	-1.265	-4.406	0.915	 H	1	UNK0	0.000	
42	   H	-0.108	-2.840	-0.358	 H	1	UNK0	0.000	
43	   H	2.185	1.524	-4.352	 H	1	UNK0	0.000	
44	   H	-1.620	3.713	-6.566	 H	1	UNK0	0.000	
45	   H	-1.990	1.897	-4.861	 H	1	UNK0	0.000	
46	   H	2.956	5.240	-7.530	 H	1	UNK0	0.000	
47	   H	2.582	3.646	-8.365	 H	1	UNK0	0.000	
48	   H	2.557	-2.307	4.587	 H	1	UNK0	0.000	
49	   H	2.615	-2.872	2.828	 H	1	UNK0	0.000	
50	   H	3.839	-1.767	3.477	 H	1	UNK0	0.000	
@<TRIPOS>BOND
1 1 2 1
2 2 3 2
3 2 6 1
4 3 4 1
5 3 31 1
6 4 5 1
7 4 8 1
8 5 6 2
9 6 7 1
10 8 9 1
11 9 10 2
12 9 11 1
13 11 12 1
14 12 13 1
15 13 14 1
16 14 15 1
17 15 16 2
18 15 17 1
19 17 18 2
20 17 21 1
21 18 19 1
22 19 20 2
23 19 22 1
24 20 21 1
25 22 23 2
26 22 27 1
27 23 24 1
28 24 25 2
29 24 30 1
30 25 26 1
31 25 28 1
32 26 27 2
33 28 29 1
34 29 30 1
35 7 32 1
36 7 33 1
37 7 34 1
38 8 35 1
39 8 36 1
40 11 37 1
41 12 38 1
42 12 39 1
43 13 40 1
44 13 41 1
45 14 42 1
46 23 43 1
47 26 44 1
48 27 45 1
49 29 46 1
50 29 47 1
51 31 48 1
52 31 49 1
53 31 50 1
@<TRIPOS>SUBSTRUCTURE
1	UNK0	1	GROUP	1 ****	UNK
