# created with PyMOL 2.3.2
@<TRIPOS>MOLECULE
83
29 32 1                 
SMALL
USER_CHARGES
@<TRIPOS>ATOM
1	  Br	-3.478	-0.494	-1.054	Br	1	UNK0	0.000	
2	   C	-2.187	0.175	-2.279	C.2	1	UNK0	0.000	
3	   C	-0.871	0.454	-1.988	C.2	1	UNK0	0.000	
4	   N	-0.327	0.900	-3.132	N.pl3	1	UNK0	0.000	
5	   N	-1.245	0.904	-4.096	N.2	1	UNK0	0.000	
6	   C	-2.430	0.460	-3.623	C.2	1	UNK0	0.000	
7	   C	-3.694	0.318	-4.387	C.3	1	UNK0	0.000	
8	   C	1.060	1.311	-3.270	C.3	1	UNK0	0.000	
9	   C	-0.180	0.306	-0.708	C.2	1	UNK0	0.000	
10	   N	1.110	0.588	-0.453	N.2	1	UNK0	0.000	
11	   N	1.380	0.330	0.816	N.pl3	1	UNK0	0.000	
12	   C	0.277	-0.128	1.429	C.2	1	UNK0	0.000	
13	   N	-0.680	-0.134	0.461	N.2	1	UNK0	0.000	
14	   C	0.277	-0.477	2.764	C.2	1	UNK0	0.000	
15	   C	1.417	-0.370	3.531	C.2	1	UNK0	0.000	
16	   N	1.169	-0.766	4.792	N.pl3	1	UNK0	0.000	
17	   N	-0.097	-1.118	4.830	N.2	1	UNK0	0.000	
18	   C	-0.690	-0.962	3.618	C.2	1	UNK0	0.000	
19	   N	2.515	0.098	2.877	N.2	1	UNK0	0.000	
20	   C	2.496	0.433	1.576	C.2	1	UNK0	0.000	
21	   H	-4.317	1.227	-4.315	 H	1	UNK0	0.000	
22	   H	-3.467	0.081	-5.434	 H	1	UNK0	0.000	
23	   H	-4.233	-0.572	-3.972	 H	1	UNK0	0.000	
24	   H	1.692	0.550	-2.761	 H	1	UNK0	0.000	
25	   H	1.361	1.384	-4.339	 H	1	UNK0	0.000	
26	   H	1.268	2.282	-2.782	 H	1	UNK0	0.000	
27	   H	1.863	-0.786	5.587	 H	1	UNK0	0.000	
28	   H	-1.710	-1.171	3.367	 H	1	UNK0	0.000	
29	   H	3.398	0.800	1.102	 H	1	UNK0	0.000	
@<TRIPOS>BOND
1 1 2 1
2 2 3 2
3 2 6 1
4 3 4 1
5 3 9 1
6 4 5 1
7 4 8 1
8 5 6 2
9 6 7 1
10 9 10 2
11 9 13 1
12 10 11 1
13 11 12 1
14 11 20 1
15 12 13 2
16 12 14 1
17 14 15 2
18 14 18 1
19 15 16 1
20 15 19 1
21 16 17 1
22 17 18 2
23 19 20 2
24 7 21 1
25 7 22 1
26 7 23 1
27 8 24 1
28 8 25 1
29 8 26 1
30 16 27 1
31 18 28 1
32 20 29 1
@<TRIPOS>SUBSTRUCTURE
1	UNK0	1	GROUP	1 ****	UNK
