# created with PyMOL 2.3.2
@<TRIPOS>MOLECULE
84
35 38 1                 
SMALL
USER_CHARGES
@<TRIPOS>ATOM
1	  Br	1.194	2.181	-4.628	Br	1	UNK0	0.000	
2	   C	0.285	1.974	-2.962	C.2	1	UNK0	0.000	
3	   C	0.563	2.706	-1.826	C.2	1	UNK0	0.000	
4	   N	-0.275	2.290	-0.842	N.pl3	1	UNK0	0.000	
5	   N	-1.038	1.339	-1.353	N.2	1	UNK0	0.000	
6	   C	-0.738	1.106	-2.643	C.2	1	UNK0	0.000	
7	   C	-0.303	2.816	0.519	C.3	1	UNK0	0.000	
8	   C	0.628	2.052	1.435	C.3	1	UNK0	0.000	
9	   C	0.276	0.623	1.523	C.2	1	UNK0	0.000	
10	   N	0.964	-0.249	2.276	N.2	1	UNK0	0.000	
11	   N	0.435	-1.442	2.166	N.pl3	1	UNK0	0.000	
12	   C	-0.605	-1.354	1.337	C.2	1	UNK0	0.000	
13	   N	-0.698	-0.078	0.943	N.2	1	UNK0	0.000	
14	   C	-1.351	-2.506	1.049	C.2	1	UNK0	0.000	
15	   C	-1.008	-3.712	1.619	C.2	1	UNK0	0.000	
16	   N	-1.860	-4.666	1.199	N.pl3	1	UNK0	0.000	
17	   N	-2.709	-4.065	0.388	N.2	1	UNK0	0.000	
18	   C	-2.434	-2.747	0.269	C.2	1	UNK0	0.000	
19	   C	-1.838	-6.081	1.572	C.3	1	UNK0	0.000	
20	   N	0.043	-3.730	2.439	N.2	1	UNK0	0.000	
21	   C	0.752	-2.623	2.710	C.2	1	UNK0	0.000	
22	   C	1.593	3.767	-1.686	C.3	1	UNK0	0.000	
23	   H	-1.185	0.395	-3.321	 H	1	UNK0	0.000	
24	   H	-1.349	2.792	0.881	 H	1	UNK0	0.000	
25	   H	-0.023	3.884	0.442	 H	1	UNK0	0.000	
26	   H	0.495	2.485	2.447	 H	1	UNK0	0.000	
27	   H	1.678	2.161	1.099	 H	1	UNK0	0.000	
28	   H	-2.949	-2.000	-0.319	 H	1	UNK0	0.000	
29	   H	-2.850	-6.452	1.744	 H	1	UNK0	0.000	
30	   H	-1.138	-6.225	2.411	 H	1	UNK0	0.000	
31	   H	-1.415	-6.656	0.701	 H	1	UNK0	0.000	
32	   H	1.618	-2.636	3.386	 H	1	UNK0	0.000	
33	   H	1.268	4.587	-1.010	 H	1	UNK0	0.000	
34	   H	1.753	4.220	-2.685	 H	1	UNK0	0.000	
35	   H	2.576	3.357	-1.366	 H	1	UNK0	0.000	
@<TRIPOS>BOND
1 1 2 1
2 2 3 2
3 2 6 1
4 3 4 1
5 3 22 1
6 4 5 1
7 4 7 1
8 5 6 2
9 7 8 1
10 8 9 1
11 9 10 2
12 9 13 1
13 10 11 1
14 11 12 1
15 11 21 1
16 12 13 2
17 12 14 1
18 14 15 2
19 14 18 1
20 15 16 1
21 15 20 1
22 16 17 1
23 16 19 1
24 17 18 2
25 20 21 2
26 6 23 1
27 7 24 1
28 7 25 1
29 8 26 1
30 8 27 1
31 18 28 1
32 19 29 1
33 19 30 1
34 19 31 1
35 21 32 1
36 22 33 1
37 22 34 1
38 22 35 1
@<TRIPOS>SUBSTRUCTURE
1	UNK0	1	GROUP	1 ****	UNK
