# created with PyMOL 2.3.2
@<TRIPOS>MOLECULE
86
29 32 1                 
SMALL
USER_CHARGES
@<TRIPOS>ATOM
1	  Br	1.284	1.703	-4.106	Br	1	UNK0	0.000	
2	   C	1.605	2.565	-2.439	C.2	1	UNK0	0.000	
3	   C	1.115	2.122	-1.228	C.2	1	UNK0	0.000	
4	   N	1.564	2.998	-0.316	N.pl3	1	UNK0	0.000	
5	   N	2.295	3.952	-0.857	N.2	1	UNK0	0.000	
6	   C	2.332	3.702	-2.172	C.2	1	UNK0	0.000	
7	   C	1.273	2.897	1.097	C.3	1	UNK0	0.000	
8	   C	0.281	0.941	-1.009	C.2	1	UNK0	0.000	
9	   N	-0.154	0.080	-1.945	N.2	1	UNK0	0.000	
10	   N	-0.899	-0.890	-1.386	N.pl3	1	UNK0	0.000	
11	   C	-0.940	-0.643	-0.064	C.2	1	UNK0	0.000	
12	   N	-0.218	0.473	0.149	N.2	1	UNK0	0.000	
13	   C	-1.657	-1.521	0.721	C.2	1	UNK0	0.000	
14	   C	-2.318	-2.617	0.204	C.2	1	UNK0	0.000	
15	   N	-2.936	-3.304	1.180	N.pl3	1	UNK0	0.000	
16	   N	-2.675	-2.659	2.302	N.2	1	UNK0	0.000	
17	   C	-1.903	-1.571	2.075	C.2	1	UNK0	0.000	
18	   C	-3.740	-4.525	1.041	C.3	1	UNK0	0.000	
19	   N	-2.228	-2.794	-1.131	N.2	1	UNK0	0.000	
20	   C	-1.535	-1.952	-1.912	C.2	1	UNK0	0.000	
21	   H	2.844	4.285	-2.917	 H	1	UNK0	0.000	
22	   H	1.349	3.873	1.614	 H	1	UNK0	0.000	
23	   H	1.942	2.137	1.599	 H	1	UNK0	0.000	
24	   H	0.239	2.523	1.282	 H	1	UNK0	0.000	
25	   H	-1.538	-0.862	2.800	 H	1	UNK0	0.000	
26	   H	-4.765	-4.266	0.659	 H	1	UNK0	0.000	
27	   H	-3.254	-5.264	0.389	 H	1	UNK0	0.000	
28	   H	-3.866	-4.956	2.039	 H	1	UNK0	0.000	
29	   H	-1.450	-2.076	-2.989	 H	1	UNK0	0.000	
@<TRIPOS>BOND
1 1 2 1
2 2 3 2
3 2 6 1
4 3 4 1
5 3 8 1
6 4 5 1
7 4 7 1
8 5 6 2
9 8 9 2
10 8 12 1
11 9 10 1
12 10 11 1
13 10 20 1
14 11 12 2
15 11 13 1
16 13 14 2
17 13 17 1
18 14 15 1
19 14 19 1
20 15 16 1
21 15 18 1
22 16 17 2
23 19 20 2
24 6 21 1
25 7 22 1
26 7 23 1
27 7 24 1
28 17 25 1
29 18 26 1
30 18 27 1
31 18 28 1
32 20 29 1
@<TRIPOS>SUBSTRUCTURE
1	UNK0	1	GROUP	1 ****	UNK
