# created with PyMOL 2.3.2
@<TRIPOS>MOLECULE
91
55 58 1                 
SMALL
USER_CHARGES
@<TRIPOS>ATOM
1	  Br	0.576	3.554	6.080	Br	1	UNK0	0.000	
2	   C	-0.106	3.858	4.327	C.2	1	UNK0	0.000	
3	   C	-1.170	4.716	4.138	C.2	1	UNK0	0.000	
4	   C	-1.667	4.939	2.869	C.2	1	UNK0	0.000	
5	   C	-1.087	4.291	1.782	C.2	1	UNK0	0.000	
6	   C	-0.024	3.429	1.949	C.2	1	UNK0	0.000	
7	   C	0.450	3.225	3.215	C.2	1	UNK0	0.000	
8	   C	0.583	2.749	0.800	C.2	1	UNK0	0.000	
9	   N	0.157	2.923	-0.402	N.2	1	UNK0	0.000	
10	   N	0.796	2.234	-1.434	N.pl3	1	UNK0	0.000	
11	   C	0.544	0.842	-1.665	C.2	1	UNK0	0.000	
12	   N	1.128	0.151	-2.631	N.2	1	UNK0	0.000	
13	   C	0.897	-1.174	-2.862	C.2	1	UNK0	0.000	
14	   N	0.009	-1.757	-2.019	N.2	1	UNK0	0.000	
15	   C	-0.614	-1.110	-1.022	C.2	1	UNK0	0.000	
16	   N	-0.326	0.201	-0.866	N.2	1	UNK0	0.000	
17	   N	-1.545	-1.771	-0.157	N.pl3	1	UNK0	0.000	
18	   C	-2.174	-0.996	0.895	C.3	1	UNK0	0.000	
19	   C	-2.625	-1.966	1.965	C.3	1	UNK0	0.000	
20	   O	-3.463	-2.896	1.338	O.3	1	UNK0	0.000	
21	   C	-2.641	-3.805	0.675	C.3	1	UNK0	0.000	
22	   C	-1.799	-3.158	-0.383	C.3	1	UNK0	0.000	
23	   N	1.539	-1.864	-3.898	N.pl3	1	UNK0	0.000	
24	   C	1.297	-3.246	-4.139	C.3	1	UNK0	0.000	
25	   C	2.579	-3.976	-4.314	C.3	1	UNK0	0.000	
26	   O	3.644	-3.319	-4.757	O.3	1	UNK0	0.000	
27	   C	3.749	-1.991	-4.729	C.3	1	UNK0	0.000	
28	   C	2.466	-1.204	-4.758	C.3	1	UNK0	0.000	
29	   O	-1.582	4.510	0.502	O.3	1	UNK0	0.000	
30	   O	-2.723	5.790	2.674	O.3	1	UNK0	0.000	
31	   C	-3.354	6.476	3.728	C.3	1	UNK0	0.000	
32	   H	-1.630	5.230	4.996	 H	1	UNK0	0.000	
33	   H	1.289	2.545	3.342	 H	1	UNK0	0.000	
34	   H	1.415	2.077	0.946	 H	1	UNK0	0.000	
35	   H	1.463	2.760	-2.034	 H	1	UNK0	0.000	
36	   H	-3.119	-0.574	0.450	 H	1	UNK0	0.000	
37	   H	-1.524	-0.199	1.294	 H	1	UNK0	0.000	
38	   H	-1.712	-2.504	2.332	 H	1	UNK0	0.000	
39	   H	-3.155	-1.465	2.795	 H	1	UNK0	0.000	
40	   H	-3.309	-4.598	0.253	 H	1	UNK0	0.000	
41	   H	-1.999	-4.317	1.423	 H	1	UNK0	0.000	
42	   H	-2.378	-3.233	-1.345	 H	1	UNK0	0.000	
43	   H	-0.862	-3.737	-0.541	 H	1	UNK0	0.000	
44	   H	0.680	-3.685	-3.325	 H	1	UNK0	0.000	
45	   H	0.655	-3.319	-5.064	 H	1	UNK0	0.000	
46	   H	2.371	-4.853	-4.998	 H	1	UNK0	0.000	
47	   H	2.818	-4.470	-3.326	 H	1	UNK0	0.000	
48	   H	4.350	-1.646	-5.612	 H	1	UNK0	0.000	
49	   H	4.327	-1.610	-3.838	 H	1	UNK0	0.000	
50	   H	2.653	-0.174	-4.399	 H	1	UNK0	0.000	
51	   H	2.122	-1.206	-5.831	 H	1	UNK0	0.000	
52	   H	-2.357	5.129	0.326	 H	1	UNK0	0.000	
53	   H	-4.127	7.162	3.321	 H	1	UNK0	0.000	
54	   H	-3.839	5.786	4.455	 H	1	UNK0	0.000	
55	   H	-2.612	7.066	4.341	 H	1	UNK0	0.000	
@<TRIPOS>BOND
1 1 2 1
2 2 3 2
3 2 7 1
4 3 4 1
5 4 5 2
6 4 30 1
7 5 6 1
8 5 29 1
9 6 7 2
10 6 8 1
11 8 9 2
12 9 10 1
13 10 11 1
14 11 12 2
15 11 16 1
16 12 13 1
17 13 14 2
18 13 23 1
19 14 15 1
20 15 16 2
21 15 17 1
22 17 18 1
23 17 22 1
24 18 19 1
25 19 20 1
26 20 21 1
27 21 22 1
28 23 24 1
29 23 28 1
30 24 25 1
31 25 26 1
32 26 27 1
33 27 28 1
34 30 31 1
35 3 32 1
36 7 33 1
37 8 34 1
38 10 35 1
39 18 36 1
40 18 37 1
41 19 38 1
42 19 39 1
43 21 40 1
44 21 41 1
45 22 42 1
46 22 43 1
47 24 44 1
48 24 45 1
49 25 46 1
50 25 47 1
51 27 48 1
52 27 49 1
53 28 50 1
54 28 51 1
55 29 52 1
56 31 53 1
57 31 54 1
58 31 55 1
@<TRIPOS>SUBSTRUCTURE
1	UNK0	1	GROUP	1 ****	UNK
