# created with PyMOL 2.3.2
@<TRIPOS>MOLECULE
92
41 43 1                 
SMALL
USER_CHARGES
@<TRIPOS>ATOM
1	  Br	-4.111	5.733	3.872	Br	1	UNK0	0.000	
2	   C	-3.287	4.404	2.822	C.2	1	UNK0	0.000	
3	   C	-2.651	3.316	3.343	C.2	1	UNK0	0.000	
4	   C	-2.066	2.378	2.554	C.2	1	UNK0	0.000	
5	   C	-2.081	2.474	1.114	C.2	1	UNK0	0.000	
6	   C	-2.728	3.576	0.630	C.2	1	UNK0	0.000	
7	   C	-3.316	4.517	1.450	C.2	1	UNK0	0.000	
8	   N	-1.435	1.518	0.474	N.pl3	1	UNK0	0.000	
9	   C	-0.754	0.513	-0.200	C.2	1	UNK0	0.000	
10	   O	-0.793	0.349	-1.433	O.2	1	UNK0	0.000	
11	   C	0.094	-0.461	0.552	C.3	1	UNK0	0.000	
12	   N	0.776	-1.471	-0.108	N.4	1	UNK0	0.000	
13	   C	0.666	-1.598	-1.517	C.3	1	UNK0	0.000	
14	   C	1.383	-2.818	-2.073	C.3	1	UNK0	0.000	
15	   N	2.304	-3.277	-1.050	N.3	1	UNK0	0.000	
16	   C	3.082	-2.084	-0.677	C.3	1	UNK0	0.000	
17	   C	2.201	-1.351	0.301	C.3	1	UNK0	0.000	
18	   C	1.543	-3.733	0.108	C.3	1	UNK0	0.000	
19	   C	0.396	-2.820	0.415	C.3	1	UNK0	0.000	
20	   C	-1.396	1.224	3.206	C.3	1	UNK0	0.000	
21	   H	-2.642	3.247	4.438	 H	1	UNK0	0.000	
22	   H	-2.834	3.809	-0.443	 H	1	UNK0	0.000	
23	   H	-3.823	5.382	1.024	 H	1	UNK0	0.000	
24	   H	-2.029	1.831	-0.701	 H	1	UNK0	0.000	
25	   H	-0.558	-0.937	1.350	 H	1	UNK0	0.000	
26	   H	0.773	0.204	1.183	 H	1	UNK0	0.000	
27	   H	-0.412	-1.783	-1.767	 H	1	UNK0	0.000	
28	   H	0.997	-0.733	-2.103	 H	1	UNK0	0.000	
29	   H	1.950	-2.503	-2.968	 H	1	UNK0	0.000	
30	   H	0.675	-3.622	-2.375	 H	1	UNK0	0.000	
31	   H	4.066	-2.323	-0.281	 H	1	UNK0	0.000	
32	   H	3.169	-1.433	-1.570	 H	1	UNK0	0.000	
33	   H	2.476	-0.310	0.454	 H	1	UNK0	0.000	
34	   H	2.272	-1.865	1.274	 H	1	UNK0	0.000	
35	   H	1.151	-4.748	-0.162	 H	1	UNK0	0.000	
36	   H	2.247	-3.864	0.943	 H	1	UNK0	0.000	
37	   H	0.362	-2.691	1.529	 H	1	UNK0	0.000	
38	   H	-0.570	-3.138	0.027	 H	1	UNK0	0.000	
39	   H	-1.563	1.264	4.304	 H	1	UNK0	0.000	
40	   H	-1.879	0.280	2.882	 H	1	UNK0	0.000	
41	   H	-0.300	1.262	2.994	 H	1	UNK0	0.000	
@<TRIPOS>BOND
1 1 2 1
2 2 3 2
3 2 7 1
4 3 4 1
5 4 5 2
6 4 20 1
7 5 6 1
8 5 8 1
9 6 7 2
10 8 9 1
11 9 10 2
12 9 11 1
13 11 12 1
14 12 13 1
15 12 17 1
16 12 19 1
17 13 14 1
18 14 15 1
19 15 16 1
20 15 18 1
21 16 17 1
22 18 19 1
23 3 21 1
24 6 22 1
25 7 23 1
26 8 24 1
27 11 25 1
28 11 26 1
29 13 27 1
30 13 28 1
31 14 29 1
32 14 30 1
33 16 31 1
34 16 32 1
35 17 33 1
36 17 34 1
37 18 35 1
38 18 36 1
39 19 37 1
40 19 38 1
41 20 39 1
42 20 40 1
43 20 41 1
@<TRIPOS>SUBSTRUCTURE
1	UNK0	1	GROUP	1 ****	UNK
