# created with PyMOL 2.3.2
@<TRIPOS>MOLECULE
93
42 45 1                 
SMALL
USER_CHARGES
@<TRIPOS>ATOM
1	  Br	-5.446	0.787	-3.955	Br	1	UNK0	0.000	
2	   C	-3.565	0.611	-3.802	C.2	1	UNK0	0.000	
3	   C	-2.972	0.250	-2.581	C.2	1	UNK0	0.000	
4	   C	-1.607	0.122	-2.471	C.2	1	UNK0	0.000	
5	   C	-0.832	0.358	-3.579	C.2	1	UNK0	0.000	
6	   C	-1.422	0.712	-4.786	C.2	1	UNK0	0.000	
7	   C	-2.782	0.841	-4.906	C.2	1	UNK0	0.000	
8	   N	0.596	0.337	-3.460	N.pl3	1	UNK0	0.000	
9	   N	1.535	-0.285	-4.083	N.2	1	UNK0	0.000	
10	   N	2.745	0.062	-3.605	N.2	1	UNK0	0.000	
11	   N	2.529	0.955	-2.620	N.2	1	UNK0	0.000	
12	   C	1.206	1.135	-2.521	C.2	1	UNK0	0.000	
13	   C	-0.993	-0.360	-1.202	C.2	1	UNK0	0.000	
14	   O	-1.385	0.130	-0.137	O.2	1	UNK0	0.000	
15	   N	-0.018	-1.339	-1.307	N.pl3	1	UNK0	0.000	
16	   C	0.726	-1.951	-0.258	C.3	1	UNK0	0.000	
17	   C	1.656	-1.147	0.544	C.3	1	UNK0	0.000	
18	   C	1.263	-0.063	1.411	C.3	1	UNK0	0.000	
19	   C	0.432	-0.251	2.578	C.2	1	UNK0	0.000	
20	   N	0.097	-1.324	3.294	N.pl3	1	UNK0	0.000	
21	   C	-0.742	-0.934	4.295	C.2	1	UNK0	0.000	
22	   N	-0.912	0.374	4.182	N.2	1	UNK0	0.000	
23	   N	-0.223	0.782	3.175	N.2	1	UNK0	0.000	
24	   C	-1.253	-1.832	5.230	C.2	1	UNK0	0.000	
25	   C	-0.895	-3.164	5.137	C.2	1	UNK0	0.000	
26	   C	-0.045	-3.561	4.124	C.2	1	UNK0	0.000	
27	   C	0.419	-2.614	3.237	C.2	1	UNK0	0.000	
28	   H	-3.584	0.062	-1.699	 H	1	UNK0	0.000	
29	   H	-0.809	0.897	-5.675	 H	1	UNK0	0.000	
30	   H	-3.204	1.122	-5.888	 H	1	UNK0	0.000	
31	   H	0.711	1.802	-1.824	 H	1	UNK0	0.000	
32	   H	0.198	-1.710	-2.292	 H	1	UNK0	0.000	
33	   H	0.000	-2.461	0.468	 H	1	UNK0	0.000	
34	   H	1.252	-2.879	-0.678	 H	1	UNK0	0.000	
35	   H	2.460	-1.792	1.043	 H	1	UNK0	0.000	
36	   H	2.360	-0.655	-0.259	 H	1	UNK0	0.000	
37	   H	2.285	0.378	1.812	 H	1	UNK0	0.000	
38	   H	0.946	0.851	0.809	 H	1	UNK0	0.000	
39	   H	-1.920	-1.480	6.017	 H	1	UNK0	0.000	
40	   H	-1.275	-3.879	5.842	 H	1	UNK0	0.000	
41	   H	0.278	-4.580	3.991	 H	1	UNK0	0.000	
42	   H	1.087	-2.927	2.455	 H	1	UNK0	0.000	
@<TRIPOS>BOND
1 1 2 1
2 2 3 2
3 2 7 1
4 3 4 1
5 4 5 2
6 4 13 1
7 5 6 1
8 5 8 1
9 6 7 2
10 8 9 1
11 8 12 1
12 9 10 2
13 10 11 1
14 11 12 2
15 13 14 2
16 13 15 1
17 15 16 1
18 16 17 1
19 17 18 1
20 18 19 1
21 19 20 1
22 19 23 2
23 20 21 1
24 20 27 1
25 21 22 2
26 21 24 1
27 22 23 1
28 24 25 2
29 25 26 1
30 26 27 2
31 3 28 1
32 6 29 1
33 7 30 1
34 12 31 1
35 15 32 1
36 16 33 1
37 16 34 1
38 17 35 1
39 17 36 1
40 18 37 1
41 18 38 1
42 24 39 1
43 25 40 1
44 26 41 1
45 27 42 1
@<TRIPOS>SUBSTRUCTURE
1	UNK0	1	GROUP	1 ****	UNK
