# created with PyMOL 2.3.2
@<TRIPOS>MOLECULE
94
39 42 1                 
SMALL
USER_CHARGES
@<TRIPOS>ATOM
1	  Br	-0.677	-4.496	2.958	Br	1	UNK0	0.000	
2	   C	-0.681	-2.598	2.868	C.2	1	UNK0	0.000	
3	   C	0.270	-1.897	2.155	C.2	1	UNK0	0.000	
4	   C	0.241	-0.515	2.128	C.2	1	UNK0	0.000	
5	   C	-0.702	0.235	2.781	C.2	1	UNK0	0.000	
6	   C	-1.672	-0.483	3.504	C.2	1	UNK0	0.000	
7	   C	-1.630	-1.855	3.522	C.2	1	UNK0	0.000	
8	   N	-0.742	1.653	2.842	N.pl3	1	UNK0	0.000	
9	   N	0.241	2.445	3.223	N.2	1	UNK0	0.000	
10	   N	-0.200	3.687	3.172	N.2	1	UNK0	0.000	
11	   N	-1.475	3.701	2.753	N.2	1	UNK0	0.000	
12	   C	-1.798	2.409	2.551	C.2	1	UNK0	0.000	
13	   C	1.248	0.272	1.339	C.2	1	UNK0	0.000	
14	   O	2.390	-0.317	1.401	O.2	1	UNK0	0.000	
15	   N	0.917	1.412	0.699	N.pl3	1	UNK0	0.000	
16	   C	0.578	2.589	0.037	C.3	1	UNK0	0.000	
17	   C	0.830	2.597	-1.475	C.3	1	UNK0	0.000	
18	   C	0.066	1.535	-2.174	C.2	1	UNK0	0.000	
19	   N	0.447	0.276	-2.460	N.pl3	1	UNK0	0.000	
20	   C	-0.517	-0.397	-3.099	C.2	1	UNK0	0.000	
21	   N	-1.535	0.495	-3.206	N.2	1	UNK0	0.000	
22	   N	-1.199	1.633	-2.665	N.2	1	UNK0	0.000	
23	   C	-0.412	-1.696	-3.532	C.2	1	UNK0	0.000	
24	   C	0.802	-2.345	-3.275	C.2	1	UNK0	0.000	
25	   C	1.784	-1.644	-2.617	C.2	1	UNK0	0.000	
26	   C	1.642	-0.339	-2.199	C.2	1	UNK0	0.000	
27	   H	1.047	-2.415	1.613	 H	1	UNK0	0.000	
28	   H	-2.429	0.098	4.017	 H	1	UNK0	0.000	
29	   H	-2.414	-2.375	4.109	 H	1	UNK0	0.000	
30	   H	-2.784	2.082	2.210	 H	1	UNK0	0.000	
31	   H	2.193	1.574	0.261	 H	1	UNK0	0.000	
32	   H	1.102	3.506	0.419	 H	1	UNK0	0.000	
33	   H	-0.508	2.872	0.092	 H	1	UNK0	0.000	
34	   H	1.925	2.486	-1.618	 H	1	UNK0	0.000	
35	   H	0.508	3.605	-1.818	 H	1	UNK0	0.000	
36	   H	-1.177	-2.238	-4.046	 H	1	UNK0	0.000	
37	   H	0.931	-3.389	-3.614	 H	1	UNK0	0.000	
38	   H	2.727	-2.119	-2.405	 H	1	UNK0	0.000	
39	   H	2.403	0.213	-1.693	 H	1	UNK0	0.000	
@<TRIPOS>BOND
1 1 2 1
2 2 3 2
3 2 7 1
4 3 4 1
5 4 5 2
6 4 13 1
7 5 6 1
8 5 8 1
9 6 7 2
10 8 9 1
11 8 12 1
12 9 10 2
13 10 11 1
14 11 12 2
15 13 14 2
16 13 15 1
17 15 16 1
18 16 17 1
19 17 18 1
20 18 19 1
21 18 22 2
22 19 20 1
23 19 26 1
24 20 21 2
25 20 23 1
26 21 22 1
27 23 24 2
28 24 25 1
29 25 26 2
30 3 27 1
31 6 28 1
32 7 29 1
33 12 30 1
34 15 31 1
35 16 32 1
36 16 33 1
37 17 34 1
38 17 35 1
39 23 36 1
40 24 37 1
41 25 38 1
42 26 39 1
@<TRIPOS>SUBSTRUCTURE
1	UNK0	1	GROUP	1 ****	UNK
