# created with PyMOL 2.3.2
@<TRIPOS>MOLECULE
95
36 39 1                 
SMALL
USER_CHARGES
@<TRIPOS>ATOM
1	  Br	4.292	3.117	-1.905	Br	1	UNK0	0.000	
2	   C	2.908	1.977	-2.512	C.2	1	UNK0	0.000	
3	   C	1.727	1.868	-1.768	C.2	1	UNK0	0.000	
4	   C	0.735	1.038	-2.224	C.2	1	UNK0	0.000	
5	   C	0.887	0.324	-3.383	C.2	1	UNK0	0.000	
6	   C	2.070	0.431	-4.134	C.2	1	UNK0	0.000	
7	   C	3.069	1.266	-3.676	C.2	1	UNK0	0.000	
8	   N	-0.176	-0.519	-3.789	N.pl3	1	UNK0	0.000	
9	   N	-0.394	-1.718	-3.284	N.2	1	UNK0	0.000	
10	   N	-1.446	-2.277	-3.843	N.2	1	UNK0	0.000	
11	   N	-1.935	-1.432	-4.736	N.2	1	UNK0	0.000	
12	   C	-1.148	-0.352	-4.698	C.2	1	UNK0	0.000	
13	   C	-0.568	0.885	-1.474	C.2	1	UNK0	0.000	
14	   O	-1.605	0.763	-2.203	O.2	1	UNK0	0.000	
15	   N	-0.539	0.889	-0.100	N.pl3	1	UNK0	0.000	
16	   C	-0.511	0.893	1.266	C.3	1	UNK0	0.000	
17	   C	-1.002	-0.399	1.898	C.2	1	UNK0	0.000	
18	   N	-0.614	-1.639	1.528	N.pl3	1	UNK0	0.000	
19	   C	-1.229	-2.560	2.281	C.2	1	UNK0	0.000	
20	   N	-2.009	-1.874	3.131	N.2	1	UNK0	0.000	
21	   N	-1.873	-0.560	2.900	N.2	1	UNK0	0.000	
22	   C	-0.983	-3.925	2.082	C.2	1	UNK0	0.000	
23	   C	-0.109	-4.333	1.113	C.2	1	UNK0	0.000	
24	   C	0.525	-3.383	0.337	C.2	1	UNK0	0.000	
25	   C	0.258	-2.040	0.560	C.2	1	UNK0	0.000	
26	   H	1.592	2.421	-0.850	 H	1	UNK0	0.000	
27	   H	2.149	-0.145	-5.039	 H	1	UNK0	0.000	
28	   H	3.984	1.347	-4.255	 H	1	UNK0	0.000	
29	   H	-1.280	0.522	-5.305	 H	1	UNK0	0.000	
30	   H	-1.892	0.742	-0.058	 H	1	UNK0	0.000	
31	   H	-1.088	1.712	1.784	 H	1	UNK0	0.000	
32	   H	0.521	1.006	1.730	 H	1	UNK0	0.000	
33	   H	-1.510	-4.623	2.714	 H	1	UNK0	0.000	
34	   H	0.108	-5.395	0.927	 H	1	UNK0	0.000	
35	   H	1.219	-3.633	-0.432	 H	1	UNK0	0.000	
36	   H	0.730	-1.268	-0.025	 H	1	UNK0	0.000	
@<TRIPOS>BOND
1 1 2 1
2 2 3 2
3 2 7 1
4 3 4 1
5 4 5 2
6 4 13 1
7 5 6 1
8 5 8 1
9 6 7 2
10 8 9 1
11 8 12 1
12 9 10 2
13 10 11 1
14 11 12 2
15 13 14 2
16 13 15 1
17 15 16 1
18 16 17 1
19 17 18 1
20 17 21 2
21 18 19 1
22 18 25 1
23 19 20 2
24 19 22 1
25 20 21 1
26 22 23 2
27 23 24 1
28 24 25 2
29 3 26 1
30 6 27 1
31 7 28 1
32 12 29 1
33 15 30 1
34 16 31 1
35 16 32 1
36 22 33 1
37 23 34 1
38 24 35 1
39 25 36 1
@<TRIPOS>SUBSTRUCTURE
1	UNK0	1	GROUP	1 ****	UNK
