# created with PyMOL 2.3.2
@<TRIPOS>MOLECULE
96
48 51 1                 
SMALL
USER_CHARGES
@<TRIPOS>ATOM
1	  Br	-3.509	2.651	-1.331	Br	1	UNK0	0.000	
2	   C	-3.357	0.983	-0.384	C.2	1	UNK0	0.000	
3	   C	-2.402	0.069	-0.795	C.2	1	UNK0	0.000	
4	   C	-2.321	-1.114	-0.092	C.2	1	UNK0	0.000	
5	   C	-3.148	-1.388	0.974	C.2	1	UNK0	0.000	
6	   C	-4.098	-0.435	1.354	C.2	1	UNK0	0.000	
7	   C	-4.214	0.763	0.679	C.2	1	UNK0	0.000	
8	   N	-2.999	-2.629	1.642	N.pl3	1	UNK0	0.000	
9	   N	-2.487	-2.855	2.837	N.2	1	UNK0	0.000	
10	   N	-2.532	-4.169	3.097	N.2	1	UNK0	0.000	
11	   N	-3.075	-4.793	2.066	N.2	1	UNK0	0.000	
12	   C	-3.364	-3.827	1.161	C.2	1	UNK0	0.000	
13	   C	-1.331	-2.107	-0.490	C.2	1	UNK0	0.000	
14	   O	-1.605	-3.005	-1.342	O.2	1	UNK0	0.000	
15	   N	-0.045	-2.047	0.099	N.pl3	1	UNK0	0.000	
16	   C	0.229	-1.008	1.066	C.3	1	UNK0	0.000	
17	   C	1.726	-1.138	1.392	C.3	1	UNK0	0.000	
18	   N	2.402	-1.176	0.132	N.3	1	UNK0	0.000	
19	   C	2.325	-2.507	-0.405	C.3	1	UNK0	0.000	
20	   C	0.940	-3.032	-0.296	C.3	1	UNK0	0.000	
21	   C	3.726	-0.630	0.130	C.3	1	UNK0	0.000	
22	   C	3.630	0.864	0.344	C.3	1	UNK0	0.000	
23	   C	2.832	1.509	-0.744	C.2	1	UNK0	0.000	
24	   N	2.296	0.816	-1.760	N.2	1	UNK0	0.000	
25	   C	1.596	1.453	-2.694	C.2	1	UNK0	0.000	
26	   C	1.415	2.820	-2.628	C.2	1	UNK0	0.000	
27	   C	1.952	3.551	-1.600	C.2	1	UNK0	0.000	
28	   C	2.669	2.895	-0.645	C.2	1	UNK0	0.000	
29	   H	-1.732	0.250	-1.630	 H	1	UNK0	0.000	
30	   H	-4.738	-0.677	2.201	 H	1	UNK0	0.000	
31	   H	-4.958	1.498	0.984	 H	1	UNK0	0.000	
32	   H	-3.823	-4.007	0.192	 H	1	UNK0	0.000	
33	   H	0.117	-0.034	0.551	 H	1	UNK0	0.000	
34	   H	-0.384	-1.071	1.972	 H	1	UNK0	0.000	
35	   H	2.057	-0.369	2.097	 H	1	UNK0	0.000	
36	   H	1.809	-2.172	1.841	 H	1	UNK0	0.000	
37	   H	2.708	-2.483	-1.456	 H	1	UNK0	0.000	
38	   H	3.030	-3.178	0.145	 H	1	UNK0	0.000	
39	   H	0.649	-3.499	-1.259	 H	1	UNK0	0.000	
40	   H	0.910	-3.880	0.451	 H	1	UNK0	0.000	
41	   H	4.174	-0.803	-0.862	 H	1	UNK0	0.000	
42	   H	4.383	-1.060	0.898	 H	1	UNK0	0.000	
43	   H	3.128	1.146	1.291	 H	1	UNK0	0.000	
44	   H	4.644	1.327	0.414	 H	1	UNK0	0.000	
45	   H	1.173	0.869	-3.504	 H	1	UNK0	0.000	
46	   H	0.832	3.312	-3.415	 H	1	UNK0	0.000	
47	   H	1.778	4.621	-1.598	 H	1	UNK0	0.000	
48	   H	3.094	3.461	0.167	 H	1	UNK0	0.000	
@<TRIPOS>BOND
1 1 2 1
2 2 3 2
3 2 7 1
4 3 4 1
5 4 5 2
6 4 13 1
7 5 6 1
8 5 8 1
9 6 7 2
10 8 9 1
11 8 12 1
12 9 10 2
13 10 11 1
14 11 12 2
15 13 14 2
16 13 15 1
17 15 16 1
18 15 20 1
19 16 17 1
20 17 18 1
21 18 19 1
22 18 21 1
23 19 20 1
24 21 22 1
25 22 23 1
26 23 24 2
27 23 28 1
28 24 25 1
29 25 26 2
30 26 27 1
31 27 28 2
32 3 29 1
33 6 30 1
34 7 31 1
35 12 32 1
36 16 33 1
37 16 34 1
38 17 35 1
39 17 36 1
40 19 37 1
41 19 38 1
42 20 39 1
43 20 40 1
44 21 41 1
45 21 42 1
46 22 43 1
47 22 44 1
48 25 45 1
49 26 46 1
50 27 47 1
51 28 48 1
@<TRIPOS>SUBSTRUCTURE
1	UNK0	1	GROUP	1 ****	UNK
