# created with PyMOL 2.3.2
@<TRIPOS>MOLECULE
97
42 45 1                 
SMALL
USER_CHARGES
@<TRIPOS>ATOM
1	  Br	-1.492	-2.359	-4.946	Br	1	UNK0	0.000	
2	   C	-0.780	-2.787	-3.228	C.2	1	UNK0	0.000	
3	   C	-1.063	-2.016	-2.116	C.2	1	UNK0	0.000	
4	   C	-0.546	-2.332	-0.883	C.2	1	UNK0	0.000	
5	   C	0.268	-3.438	-0.763	C.2	1	UNK0	0.000	
6	   C	0.568	-4.229	-1.859	C.2	1	UNK0	0.000	
7	   C	0.048	-3.909	-3.093	C.2	1	UNK0	0.000	
8	   N	0.788	-3.742	0.521	N.pl3	1	UNK0	0.000	
9	   N	0.182	-4.167	1.610	N.2	1	UNK0	0.000	
10	   N	1.099	-4.304	2.554	N.2	1	UNK0	0.000	
11	   N	2.290	-3.974	2.093	N.2	1	UNK0	0.000	
12	   C	2.105	-3.619	0.814	C.2	1	UNK0	0.000	
13	   C	-0.859	-1.511	0.250	C.2	1	UNK0	0.000	
14	   O	-1.903	-1.838	0.918	O.2	1	UNK0	0.000	
15	   N	-0.132	-0.397	0.684	N.pl3	1	UNK0	0.000	
16	   C	1.063	0.052	-0.004	C.3	1	UNK0	0.000	
17	   C	1.367	1.517	0.316	C.3	1	UNK0	0.000	
18	   N	0.083	2.189	0.379	N.pl3	1	UNK0	0.000	
19	   C	-0.815	1.798	1.438	C.3	1	UNK0	0.000	
20	   C	-0.566	0.341	1.849	C.3	1	UNK0	0.000	
21	   C	-0.236	3.184	-0.581	C.2	1	UNK0	0.000	
22	   N	0.646	3.502	-1.543	N.2	1	UNK0	0.000	
23	   C	0.429	4.424	-2.485	C.2	1	UNK0	0.000	
24	   C	-0.778	5.116	-2.498	C.2	1	UNK0	0.000	
25	   C	-1.713	4.832	-1.541	C.2	1	UNK0	0.000	
26	   C	-1.435	3.862	-0.583	C.2	1	UNK0	0.000	
27	   H	-1.697	-1.151	-2.202	 H	1	UNK0	0.000	
28	   H	1.204	-5.088	-1.747	 H	1	UNK0	0.000	
29	   H	0.240	-4.480	-3.990	 H	1	UNK0	0.000	
30	   H	2.890	-3.291	0.145	 H	1	UNK0	0.000	
31	   H	1.947	-0.545	0.291	 H	1	UNK0	0.000	
32	   H	0.872	0.020	-1.097	 H	1	UNK0	0.000	
33	   H	1.865	1.605	1.311	 H	1	UNK0	0.000	
34	   H	2.002	1.892	-0.505	 H	1	UNK0	0.000	
35	   H	-0.604	2.430	2.327	 H	1	UNK0	0.000	
36	   H	-1.888	1.898	1.156	 H	1	UNK0	0.000	
37	   H	0.211	0.320	2.660	 H	1	UNK0	0.000	
38	   H	-1.482	-0.060	2.296	 H	1	UNK0	0.000	
39	   H	1.131	4.688	-3.264	 H	1	UNK0	0.000	
40	   H	-0.966	5.873	-3.265	 H	1	UNK0	0.000	
41	   H	-2.646	5.380	-1.565	 H	1	UNK0	0.000	
42	   H	-2.172	3.652	0.155	 H	1	UNK0	0.000	
@<TRIPOS>BOND
1 1 2 1
2 2 3 2
3 2 7 1
4 3 4 1
5 4 5 2
6 4 13 1
7 5 6 1
8 5 8 1
9 6 7 2
10 8 9 1
11 8 12 1
12 9 10 2
13 10 11 1
14 11 12 2
15 13 14 2
16 13 15 1
17 15 16 1
18 15 20 1
19 16 17 1
20 17 18 1
21 18 19 1
22 18 21 1
23 19 20 1
24 21 22 2
25 21 26 1
26 22 23 1
27 23 24 2
28 24 25 1
29 25 26 2
30 3 27 1
31 6 28 1
32 7 29 1
33 12 30 1
34 16 31 1
35 16 32 1
36 17 33 1
37 17 34 1
38 19 35 1
39 19 36 1
40 20 37 1
41 20 38 1
42 23 39 1
43 24 40 1
44 25 41 1
45 26 42 1
@<TRIPOS>SUBSTRUCTURE
1	UNK0	1	GROUP	1 ****	UNK
