# created with PyMOL 2.3.2
@<TRIPOS>MOLECULE
99
46 49 1                 
SMALL
USER_CHARGES
@<TRIPOS>ATOM
1	  Br	1.622	3.413	-7.085	Br	1	UNK0	0.000	
2	   C	1.365	2.677	-5.344	C.2	1	UNK0	0.000	
3	   C	0.536	3.322	-4.449	C.2	1	UNK0	0.000	
4	   C	0.347	2.789	-3.172	C.2	1	UNK0	0.000	
5	   C	0.996	1.622	-2.832	C.2	1	UNK0	0.000	
6	   C	1.813	1.007	-3.752	C.2	1	UNK0	0.000	
7	   C	2.020	1.511	-5.021	C.2	1	UNK0	0.000	
8	   N	0.789	1.098	-1.533	N.pl3	1	UNK0	0.000	
9	   C	-0.094	0.084	-1.062	C.2	1	UNK0	0.000	
10	   O	-1.100	-0.306	-1.697	O.2	1	UNK0	0.000	
11	   C	0.360	-0.418	0.257	C.3	1	UNK0	0.000	
12	   C	-0.637	-0.277	1.345	C.3	1	UNK0	0.000	
13	   O	0.187	0.023	2.464	O.3	1	UNK0	0.000	
14	   C	0.766	1.192	1.915	C.3	1	UNK0	0.000	
15	   C	1.403	0.617	0.687	C.3	1	UNK0	0.000	
16	   C	1.539	1.583	-0.405	C.2	1	UNK0	0.000	
17	   O	2.206	2.632	-0.317	O.2	1	UNK0	0.000	
18	   C	-0.491	1.940	1.598	C.2	1	UNK0	0.000	
19	   C	-1.355	1.004	1.211	C.2	1	UNK0	0.000	
20	   C	-1.472	-1.446	1.676	C.3	1	UNK0	0.000	
21	   O	-2.343	-1.837	0.628	O.3	1	UNK0	0.000	
22	   C	-2.278	-3.138	0.145	C.2	1	UNK0	0.000	
23	   O	-1.424	-3.923	0.679	O.co2	1	UNK0	0.000	
24	   C	-3.106	-3.694	-0.928	C.3	1	UNK0	0.000	
25	   O	-2.232	-1.092	2.844	O.3	1	UNK0	0.000	
26	   C	-2.078	-1.730	4.061	C.2	1	UNK0	0.000	
27	   O	-1.239	-2.657	4.156	O.co2	1	UNK0	0.000	
28	   C	-2.868	-1.361	5.267	C.3	1	UNK0	0.000	
29	   N	-0.520	3.501	-2.286	N.pl3	1	UNK0	0.000	
30	   O	-1.173	2.832	-1.465	O.2	1	UNK0	0.000	
31	   O	-0.659	4.865	-2.309	O.2	1	UNK0	0.000	
32	   H	0.030	4.238	-4.719	 H	1	UNK0	0.000	
33	   H	2.302	0.108	-3.468	 H	1	UNK0	0.000	
34	   H	2.651	1.052	-5.762	 H	1	UNK0	0.000	
35	   H	0.819	-1.426	0.181	 H	1	UNK0	0.000	
36	   H	1.423	1.704	2.604	 H	1	UNK0	0.000	
37	   H	2.348	0.130	0.994	 H	1	UNK0	0.000	
38	   H	-0.701	2.999	1.656	 H	1	UNK0	0.000	
39	   H	-2.379	1.121	0.866	 H	1	UNK0	0.000	
40	   H	-0.810	-2.278	1.995	 H	1	UNK0	0.000	
41	   H	-2.424	-4.049	-1.733	 H	1	UNK0	0.000	
42	   H	-3.852	-2.986	-1.315	 H	1	UNK0	0.000	
43	   H	-3.608	-4.623	-0.537	 H	1	UNK0	0.000	
44	   H	-2.712	-2.093	6.055	 H	1	UNK0	0.000	
45	   H	-2.494	-0.376	5.672	 H	1	UNK0	0.000	
46	   H	-3.937	-1.189	5.015	 H	1	UNK0	0.000	
@<TRIPOS>BOND
1 1 2 1
2 2 3 2
3 2 7 1
4 3 4 1
5 4 5 2
6 4 29 1
7 5 6 1
8 5 8 1
9 6 7 2
10 8 9 1
11 8 16 1
12 9 10 2
13 9 11 1
14 11 12 1
15 11 15 1
16 12 13 1
17 12 19 1
18 12 20 1
19 13 14 1
20 14 15 1
21 14 18 1
22 15 16 1
23 16 17 2
24 18 19 2
25 20 21 1
26 20 25 1
27 21 22 1
28 22 23 2
29 22 24 1
30 25 26 1
31 26 27 2
32 26 28 1
33 29 30 2
34 29 31 1
35 3 32 1
36 6 33 1
37 7 34 1
38 11 35 1
39 14 36 1
40 15 37 1
41 18 38 1
42 19 39 1
43 20 40 1
44 24 41 1
45 24 42 1
46 24 43 1
47 28 44 1
48 28 45 1
49 28 46 1
@<TRIPOS>SUBSTRUCTURE
1	UNK0	1	GROUP	1 ****	UNK
