# created with PyMOL 2.3.2
@<TRIPOS>MOLECULE
100
31 34 1                 
SMALL
USER_CHARGES
@<TRIPOS>ATOM
1	  Br	-4.517	-4.843	-0.329	Br	1	UNK0	0.000	
2	   C	-3.428	-3.274	-0.176	C.2	1	UNK0	0.000	
3	   C	-3.826	-2.174	0.540	C.2	1	UNK0	0.000	
4	   C	-3.033	-1.018	0.653	C.2	1	UNK0	0.000	
5	   C	-1.816	-0.975	0.032	C.2	1	UNK0	0.000	
6	   C	-1.422	-2.105	-0.695	C.2	1	UNK0	0.000	
7	   C	-2.203	-3.232	-0.802	C.2	1	UNK0	0.000	
8	   N	-0.937	0.133	0.063	N.pl3	1	UNK0	0.000	
9	   C	-0.019	0.432	1.097	C.2	1	UNK0	0.000	
10	   O	0.089	-0.146	2.207	O.2	1	UNK0	0.000	
11	   C	0.827	1.551	0.688	C.3	1	UNK0	0.000	
12	   C	0.456	2.897	1.219	C.3	1	UNK0	0.000	
13	   O	1.159	3.694	0.268	O.3	1	UNK0	0.000	
14	   C	0.436	3.262	-0.868	C.3	1	UNK0	0.000	
15	   C	0.538	1.766	-0.812	C.3	1	UNK0	0.000	
16	   C	-0.796	1.146	-0.964	C.2	1	UNK0	0.000	
17	   O	-1.692	1.386	-1.788	O.2	1	UNK0	0.000	
18	   C	-0.958	3.591	-0.401	C.2	1	UNK0	0.000	
19	   C	-0.914	3.333	0.910	C.2	1	UNK0	0.000	
20	   N	-3.556	0.064	1.410	N.pl3	1	UNK0	0.000	
21	   O	-4.798	0.244	1.524	O.2	1	UNK0	0.000	
22	   O	-2.743	0.942	2.038	O.2	1	UNK0	0.000	
23	   H	-4.797	-2.172	1.055	 H	1	UNK0	0.000	
24	   H	-0.457	-2.127	-1.212	 H	1	UNK0	0.000	
25	   H	-1.895	-4.106	-1.367	 H	1	UNK0	0.000	
26	   H	1.907	1.393	0.862	 H	1	UNK0	0.000	
27	   H	0.783	3.095	2.238	 H	1	UNK0	0.000	
28	   H	0.714	3.732	-1.789	 H	1	UNK0	0.000	
29	   H	1.326	1.342	-1.429	 H	1	UNK0	0.000	
30	   H	-1.768	3.948	-1.014	 H	1	UNK0	0.000	
31	   H	-1.793	3.459	1.532	 H	1	UNK0	0.000	
@<TRIPOS>BOND
1 1 2 1
2 2 3 2
3 2 7 1
4 3 4 1
5 4 5 2
6 4 20 1
7 5 6 1
8 5 8 1
9 6 7 2
10 8 9 1
11 8 16 1
12 9 10 2
13 9 11 1
14 11 12 1
15 11 15 1
16 12 13 1
17 12 19 1
18 13 14 1
19 14 15 1
20 14 18 1
21 15 16 1
22 16 17 2
23 18 19 2
24 20 21 2
25 20 22 1
26 3 23 1
27 6 24 1
28 7 25 1
29 11 26 1
30 12 27 1
31 14 28 1
32 15 29 1
33 18 30 1
34 19 31 1
@<TRIPOS>SUBSTRUCTURE
1	UNK0	1	GROUP	1 ****	UNK
