# created with PyMOL 2.3.2
@<TRIPOS>MOLECULE
101
50 53 1                 
SMALL
USER_CHARGES
@<TRIPOS>ATOM
1	  Br	2.744	-2.102	-8.333	Br	1	UNK0	0.000	
2	   C	2.422	-1.648	-6.498	C.2	1	UNK0	0.000	
3	   C	3.268	-2.077	-5.498	C.2	1	UNK0	0.000	
4	   C	3.055	-1.763	-4.172	C.2	1	UNK0	0.000	
5	   C	1.955	-0.996	-3.876	C.2	1	UNK0	0.000	
6	   C	1.080	-0.543	-4.834	C.2	1	UNK0	0.000	
7	   C	1.327	-0.878	-6.154	C.2	1	UNK0	0.000	
8	   O	1.731	-0.675	-2.556	O.3	1	UNK0	0.000	
9	   C	0.605	0.123	-2.156	C.3	1	UNK0	0.000	
10	   C	0.609	0.310	-0.703	C.1	1	UNK0	0.000	
11	   C	0.601	0.451	0.496	C.1	1	UNK0	0.000	
12	   C	0.580	0.603	1.968	C.3	1	UNK0	0.000	
13	   N	1.921	0.739	2.490	N.4	1	UNK0	0.000	
14	   C	2.706	1.728	1.826	C.3	1	UNK0	0.000	
15	   C	1.916	2.864	1.246	C.3	1	UNK0	0.000	
16	   C	0.597	3.041	1.863	C.2	1	UNK0	0.000	
17	   C	-0.115	1.902	2.246	C.2	1	UNK0	0.000	
18	   C	-1.347	1.985	2.825	C.2	1	UNK0	0.000	
19	   C	-1.918	3.222	3.046	C.2	1	UNK0	0.000	
20	   C	-1.256	4.377	2.687	C.2	1	UNK0	0.000	
21	   C	-0.008	4.252	2.101	C.2	1	UNK0	0.000	
22	   O	-2.080	5.450	3.034	O.3	1	UNK0	0.000	
23	   C	-3.194	4.988	3.781	C.3	1	UNK0	0.000	
24	   O	-3.134	3.575	3.607	O.3	1	UNK0	0.000	
25	   O	-2.002	0.814	3.182	O.3	1	UNK0	0.000	
26	   C	-1.770	0.312	4.486	C.3	1	UNK0	0.000	
27	   C	2.576	-0.564	2.349	C.3	1	UNK0	0.000	
28	   C	3.968	-2.230	-3.126	C.2	1	UNK0	0.000	
29	   O	4.957	-2.926	-3.444	O.2	1	UNK0	0.000	
30	   H	4.133	-2.687	-5.780	 H	1	UNK0	0.000	
31	   H	0.228	0.059	-4.549	 H	1	UNK0	0.000	
32	   H	0.638	-0.525	-6.931	 H	1	UNK0	0.000	
33	   H	0.638	1.111	-2.692	 H	1	UNK0	0.000	
34	   H	-0.292	-0.465	-2.409	 H	1	UNK0	0.000	
35	   H	0.096	-0.249	2.444	 H	1	UNK0	0.000	
36	   H	1.846	0.953	3.494	 H	1	UNK0	0.000	
37	   H	3.273	1.240	0.991	 H	1	UNK0	0.000	
38	   H	3.482	2.107	2.531	 H	1	UNK0	0.000	
39	   H	1.854	2.789	0.142	 H	1	UNK0	0.000	
40	   H	2.493	3.815	1.439	 H	1	UNK0	0.000	
41	   H	0.526	5.146	1.813	 H	1	UNK0	0.000	
42	   H	-3.130	5.271	4.851	 H	1	UNK0	0.000	
43	   H	-4.163	5.321	3.319	 H	1	UNK0	0.000	
44	   H	-2.715	-0.003	4.978	 H	1	UNK0	0.000	
45	   H	-1.262	1.079	5.138	 H	1	UNK0	0.000	
46	   H	-1.109	-0.574	4.494	 H	1	UNK0	0.000	
47	   H	3.183	-0.812	3.249	 H	1	UNK0	0.000	
48	   H	3.237	-0.583	1.454	 H	1	UNK0	0.000	
49	   H	1.831	-1.383	2.240	 H	1	UNK0	0.000	
50	   H	3.777	-1.970	-2.109	 H	1	UNK0	0.000	
@<TRIPOS>BOND
1 1 2 1
2 2 3 2
3 2 7 1
4 3 4 1
5 4 5 2
6 4 28 1
7 5 6 1
8 5 8 1
9 6 7 2
10 8 9 1
11 9 10 1
12 10 11 3
13 11 12 1
14 12 13 1
15 12 17 1
16 13 14 1
17 13 27 1
18 14 15 1
19 15 16 1
20 16 17 2
21 16 21 1
22 17 18 1
23 18 19 2
24 18 25 1
25 19 20 1
26 19 24 1
27 20 21 2
28 20 22 1
29 22 23 1
30 23 24 1
31 25 26 1
32 28 29 2
33 3 30 1
34 6 31 1
35 7 32 1
36 9 33 1
37 9 34 1
38 12 35 1
39 13 36 1
40 14 37 1
41 14 38 1
42 15 39 1
43 15 40 1
44 21 41 1
45 23 42 1
46 23 43 1
47 26 44 1
48 26 45 1
49 26 46 1
50 27 47 1
51 27 48 1
52 27 49 1
53 28 50 1
@<TRIPOS>SUBSTRUCTURE
1	UNK0	1	GROUP	1 ****	UNK
