# created with PyMOL 2.3.2
@<TRIPOS>MOLECULE
109
41 44 1                 
SMALL
USER_CHARGES
@<TRIPOS>ATOM
1	  Br	0.241	5.619	-4.239	Br	1	UNK0	0.000	
2	   C	-0.661	4.185	-3.339	C.2	1	UNK0	0.000	
3	   C	0.019	3.056	-2.973	C.2	1	UNK0	0.000	
4	   C	-0.647	2.022	-2.320	C.2	1	UNK0	0.000	
5	   C	-1.992	2.204	-2.074	C.2	1	UNK0	0.000	
6	   C	-2.660	3.334	-2.443	C.2	1	UNK0	0.000	
7	   C	-2.010	4.370	-3.093	C.2	1	UNK0	0.000	
8	   O	-2.643	1.140	-1.411	O.3	1	UNK0	0.000	
9	   C	-4.023	1.212	-1.104	C.3	1	UNK0	0.000	
10	   C	0.045	0.779	-1.996	C.2	1	UNK0	0.000	
11	   N	0.530	0.277	-0.864	N.pl3	1	UNK0	0.000	
12	   C	1.103	-0.939	-1.102	C.2	1	UNK0	0.000	
13	   N	0.947	-1.149	-2.430	N.2	1	UNK0	0.000	
14	   N	0.322	-0.140	-2.973	N.2	1	UNK0	0.000	
15	   N	1.600	-1.458	0.031	N.pl3	1	UNK0	0.000	
16	   C	1.373	-0.611	1.028	C.2	1	UNK0	0.000	
17	   C	0.699	0.486	0.466	C.2	1	UNK0	0.000	
18	   N	0.349	1.516	1.247	N.pl3	1	UNK0	0.000	
19	   C	0.663	1.451	2.569	C.2	1	UNK0	0.000	
20	   O	0.317	2.441	3.286	O.2	1	UNK0	0.000	
21	   N	1.297	0.436	3.150	N.pl3	1	UNK0	0.000	
22	   C	1.650	-0.591	2.375	C.2	1	UNK0	0.000	
23	   O	2.252	-1.577	2.873	O.2	1	UNK0	0.000	
24	   C	1.599	0.443	4.592	C.3	1	UNK0	0.000	
25	   C	-0.307	2.683	0.733	C.3	1	UNK0	0.000	
26	   C	2.277	-2.731	0.172	C.3	1	UNK0	0.000	
27	   H	1.074	2.935	-3.177	 H	1	UNK0	0.000	
28	   H	-3.731	3.421	-2.220	 H	1	UNK0	0.000	
29	   H	-2.539	5.266	-3.385	 H	1	UNK0	0.000	
30	   H	-4.230	0.386	-0.384	 H	1	UNK0	0.000	
31	   H	-4.299	2.167	-0.631	 H	1	UNK0	0.000	
32	   H	-4.672	1.069	-1.971	 H	1	UNK0	0.000	
33	   H	2.445	1.089	4.832	 H	1	UNK0	0.000	
34	   H	0.670	0.826	5.098	 H	1	UNK0	0.000	
35	   H	1.703	-0.601	4.908	 H	1	UNK0	0.000	
36	   H	-0.274	3.463	1.583	 H	1	UNK0	0.000	
37	   H	-1.369	2.566	0.559	 H	1	UNK0	0.000	
38	   H	0.299	3.152	-0.031	 H	1	UNK0	0.000	
39	   H	3.123	-2.627	0.895	 H	1	UNK0	0.000	
40	   H	1.547	-3.460	0.579	 H	1	UNK0	0.000	
41	   H	2.740	-3.068	-0.780	 H	1	UNK0	0.000	
@<TRIPOS>BOND
1 1 2 1
2 2 3 2
3 2 7 1
4 3 4 1
5 4 5 2
6 4 10 1
7 5 6 1
8 5 8 1
9 6 7 2
10 8 9 1
11 10 11 1
12 10 14 2
13 11 12 1
14 11 17 1
15 12 13 2
16 12 15 1
17 13 14 1
18 15 16 1
19 15 26 1
20 16 17 2
21 16 22 1
22 17 18 1
23 18 19 1
24 18 25 1
25 19 20 2
26 19 21 1
27 21 22 1
28 21 24 1
29 22 23 2
30 3 27 1
31 6 28 1
32 7 29 1
33 9 30 1
34 9 31 1
35 9 32 1
36 24 33 1
37 24 34 1
38 24 35 1
39 25 36 1
40 25 37 1
41 25 38 1
42 26 39 1
43 26 40 1
44 26 41 1
@<TRIPOS>SUBSTRUCTURE
1	UNK0	1	GROUP	1 ****	UNK
