# created with PyMOL 2.3.2
@<TRIPOS>MOLECULE
110
48 51 1                 
SMALL
USER_CHARGES
@<TRIPOS>ATOM
1	  Br	1.522	-5.371	-0.009	Br	1	UNK0	0.000	
2	   C	0.148	-4.061	-0.322	C.2	1	UNK0	0.000	
3	   C	0.435	-2.739	-0.448	C.2	1	UNK0	0.000	
4	   C	-0.459	-1.720	-0.670	C.2	1	UNK0	0.000	
5	   C	-1.803	-2.161	-0.770	C.2	1	UNK0	0.000	
6	   C	-2.126	-3.488	-0.648	C.2	1	UNK0	0.000	
7	   C	-1.166	-4.451	-0.424	C.2	1	UNK0	0.000	
8	   O	-2.786	-1.201	-0.997	O.3	1	UNK0	0.000	
9	   C	-4.142	-1.513	-1.114	C.3	1	UNK0	0.000	
10	   C	-0.176	-0.319	-0.792	C.2	1	UNK0	0.000	
11	   N	0.410	0.618	-0.086	N.pl3	1	UNK0	0.000	
12	   C	0.366	1.805	-0.767	C.2	1	UNK0	0.000	
13	   N	-0.283	1.559	-1.929	N.2	1	UNK0	0.000	
14	   N	-0.610	0.308	-1.955	N.2	1	UNK0	0.000	
15	   N	0.958	2.768	-0.061	N.pl3	1	UNK0	0.000	
16	   C	1.379	2.210	1.076	C.2	1	UNK0	0.000	
17	   C	1.046	0.859	1.092	C.2	1	UNK0	0.000	
18	   N	1.335	0.071	2.134	N.pl3	1	UNK0	0.000	
19	   C	1.986	0.656	3.185	C.2	1	UNK0	0.000	
20	   O	2.265	-0.092	4.175	O.2	1	UNK0	0.000	
21	   N	2.326	1.950	3.202	N.pl3	1	UNK0	0.000	
22	   C	2.037	2.743	2.170	C.2	1	UNK0	0.000	
23	   O	2.335	3.966	2.139	O.2	1	UNK0	0.000	
24	   C	0.959	-1.313	2.283	C.3	1	UNK0	0.000	
25	   C	1.133	4.178	-0.431	C.3	1	UNK0	0.000	
26	   C	2.414	4.385	-1.151	C.3	1	UNK0	0.000	
27	   O	2.675	5.648	-1.501	O.3	1	UNK0	0.000	
28	   C	1.957	6.411	-2.321	C.3	1	UNK0	0.000	
29	   C	0.586	6.781	-1.873	C.3	1	UNK0	0.000	
30	   H	1.506	-2.479	-0.370	 H	1	UNK0	0.000	
31	   H	-3.174	-3.804	-0.729	 H	1	UNK0	0.000	
32	   H	-1.415	-5.496	-0.327	 H	1	UNK0	0.000	
33	   H	-4.521	-1.828	-0.105	 H	1	UNK0	0.000	
34	   H	-4.746	-0.711	-1.554	 H	1	UNK0	0.000	
35	   H	-4.251	-2.418	-1.764	 H	1	UNK0	0.000	
36	   H	2.815	2.329	4.021	 H	1	UNK0	0.000	
37	   H	-0.087	-1.512	2.036	 H	1	UNK0	0.000	
38	   H	1.718	-2.007	1.918	 H	1	UNK0	0.000	
39	   H	0.960	-1.523	3.420	 H	1	UNK0	0.000	
40	   H	1.069	4.852	0.428	 H	1	UNK0	0.000	
41	   H	0.287	4.455	-1.126	 H	1	UNK0	0.000	
42	   H	2.527	3.658	-2.015	 H	1	UNK0	0.000	
43	   H	3.280	4.044	-0.480	 H	1	UNK0	0.000	
44	   H	2.553	7.347	-2.546	 H	1	UNK0	0.000	
45	   H	1.845	5.956	-3.357	 H	1	UNK0	0.000	
46	   H	0.396	7.879	-2.154	 H	1	UNK0	0.000	
47	   H	-0.191	6.258	-2.460	 H	1	UNK0	0.000	
48	   H	0.413	6.750	-0.795	 H	1	UNK0	0.000	
@<TRIPOS>BOND
1 1 2 1
2 2 3 2
3 2 7 1
4 3 4 1
5 4 5 2
6 4 10 1
7 5 6 1
8 5 8 1
9 6 7 2
10 8 9 1
11 10 11 1
12 10 14 2
13 11 12 1
14 11 17 1
15 12 13 2
16 12 15 1
17 13 14 1
18 15 16 1
19 15 25 1
20 16 17 2
21 16 22 1
22 17 18 1
23 18 19 1
24 18 24 1
25 19 20 2
26 19 21 1
27 21 22 1
28 22 23 2
29 25 26 1
30 26 27 1
31 27 28 1
32 28 29 1
33 3 30 1
34 6 31 1
35 7 32 1
36 9 33 1
37 9 34 1
38 9 35 1
39 21 36 1
40 24 37 1
41 24 38 1
42 24 39 1
43 25 40 1
44 25 41 1
45 26 42 1
46 26 43 1
47 28 44 1
48 28 45 1
49 29 46 1
50 29 47 1
51 29 48 1
@<TRIPOS>SUBSTRUCTURE
1	UNK0	1	GROUP	1 ****	UNK
