# created with PyMOL 2.3.2
@<TRIPOS>MOLECULE
111
45 48 1                 
SMALL
USER_CHARGES
@<TRIPOS>ATOM
1	  Br	3.402	0.952	-5.349	Br	1	UNK0	0.000	
2	   C	3.384	0.147	-3.620	C.2	1	UNK0	0.000	
3	   C	2.484	0.571	-2.686	C.2	1	UNK0	0.000	
4	   C	2.351	0.095	-1.417	C.2	1	UNK0	0.000	
5	   C	3.271	-0.936	-1.117	C.2	1	UNK0	0.000	
6	   C	4.194	-1.395	-2.026	C.2	1	UNK0	0.000	
7	   C	4.257	-0.850	-3.299	C.2	1	UNK0	0.000	
8	   O	3.241	-1.508	0.143	O.3	1	UNK0	0.000	
9	   C	4.090	-2.529	0.566	C.3	1	UNK0	0.000	
10	   C	1.419	0.486	-0.398	C.2	1	UNK0	0.000	
11	   N	0.119	0.563	-0.213	N.pl3	1	UNK0	0.000	
12	   C	-0.160	1.046	1.039	C.2	1	UNK0	0.000	
13	   N	1.033	1.263	1.638	N.2	1	UNK0	0.000	
14	   N	1.967	0.939	0.810	N.2	1	UNK0	0.000	
15	   N	-1.482	1.117	1.210	N.pl3	1	UNK0	0.000	
16	   C	-2.049	0.677	0.075	C.2	1	UNK0	0.000	
17	   C	-1.062	0.318	-0.836	C.2	1	UNK0	0.000	
18	   N	-1.337	-0.171	-2.030	N.pl3	1	UNK0	0.000	
19	   C	-2.662	-0.308	-2.350	C.2	1	UNK0	0.000	
20	   O	-3.037	-0.761	-3.461	O.2	1	UNK0	0.000	
21	   N	-3.647	0.034	-1.493	N.pl3	1	UNK0	0.000	
22	   C	-3.373	0.522	-0.289	C.2	1	UNK0	0.000	
23	   O	-4.244	0.858	0.553	O.2	1	UNK0	0.000	
24	   C	-0.439	-0.654	-3.035	C.3	1	UNK0	0.000	
25	   C	-2.189	1.572	2.371	C.3	1	UNK0	0.000	
26	   C	-2.444	0.401	3.297	C.3	1	UNK0	0.000	
27	   O	-1.225	-0.134	3.664	O.3	1	UNK0	0.000	
28	   C	-1.380	-1.231	4.529	C.3	1	UNK0	0.000	
29	   H	1.803	1.370	-2.939	 H	1	UNK0	0.000	
30	   H	4.902	-2.178	-1.819	 H	1	UNK0	0.000	
31	   H	4.973	-1.198	-4.021	 H	1	UNK0	0.000	
32	   H	5.128	-2.428	0.189	 H	1	UNK0	0.000	
33	   H	4.181	-2.576	1.682	 H	1	UNK0	0.000	
34	   H	3.661	-3.506	0.250	 H	1	UNK0	0.000	
35	   H	-4.650	-0.075	-1.752	 H	1	UNK0	0.000	
36	   H	0.373	-1.276	-2.633	 H	1	UNK0	0.000	
37	   H	-1.048	-1.308	-3.751	 H	1	UNK0	0.000	
38	   H	-0.059	0.150	-3.656	 H	1	UNK0	0.000	
39	   H	-3.105	2.142	2.134	 H	1	UNK0	0.000	
40	   H	-1.484	2.249	2.938	 H	1	UNK0	0.000	
41	   H	-3.008	-0.411	2.775	 H	1	UNK0	0.000	
42	   H	-3.015	0.785	4.165	 H	1	UNK0	0.000	
43	   H	-1.912	-0.872	5.437	 H	1	UNK0	0.000	
44	   H	-0.396	-1.588	4.864	 H	1	UNK0	0.000	
45	   H	-1.941	-2.047	4.071	 H	1	UNK0	0.000	
@<TRIPOS>BOND
1 1 2 1
2 2 3 2
3 2 7 1
4 3 4 1
5 4 5 2
6 4 10 1
7 5 6 1
8 5 8 1
9 6 7 2
10 8 9 1
11 10 11 1
12 10 14 2
13 11 12 1
14 11 17 1
15 12 13 2
16 12 15 1
17 13 14 1
18 15 16 1
19 15 25 1
20 16 17 2
21 16 22 1
22 17 18 1
23 18 19 1
24 18 24 1
25 19 20 2
26 19 21 1
27 21 22 1
28 22 23 2
29 25 26 1
30 26 27 1
31 27 28 1
32 3 29 1
33 6 30 1
34 7 31 1
35 9 32 1
36 9 33 1
37 9 34 1
38 21 35 1
39 24 36 1
40 24 37 1
41 24 38 1
42 25 39 1
43 25 40 1
44 26 41 1
45 26 42 1
46 28 43 1
47 28 44 1
48 28 45 1
@<TRIPOS>SUBSTRUCTURE
1	UNK0	1	GROUP	1 ****	UNK
