# created with PyMOL 2.3.2
@<TRIPOS>MOLECULE
112
41 44 1                 
SMALL
USER_CHARGES
@<TRIPOS>ATOM
1	  Br	-5.875	0.495	-1.934	Br	1	UNK0	0.000	
2	   C	-4.709	0.324	-0.444	C.2	1	UNK0	0.000	
3	   C	-3.479	-0.289	-0.536	C.2	1	UNK0	0.000	
4	   C	-2.607	-0.435	0.505	C.2	1	UNK0	0.000	
5	   C	-3.068	0.102	1.724	C.2	1	UNK0	0.000	
6	   C	-4.288	0.720	1.852	C.2	1	UNK0	0.000	
7	   C	-5.128	0.841	0.769	C.2	1	UNK0	0.000	
8	   O	-2.257	0.001	2.829	O.3	1	UNK0	0.000	
9	   C	-2.654	0.516	4.081	C.3	1	UNK0	0.000	
10	   C	-1.300	-1.024	0.512	C.2	1	UNK0	0.000	
11	   N	-0.161	-0.936	-0.142	N.pl3	1	UNK0	0.000	
12	   C	0.745	-1.819	0.370	C.2	1	UNK0	0.000	
13	   N	0.135	-2.459	1.371	N.2	1	UNK0	0.000	
14	   N	-1.077	-2.005	1.477	N.2	1	UNK0	0.000	
15	   N	1.915	-1.767	-0.259	N.pl3	1	UNK0	0.000	
16	   C	1.754	-0.812	-1.204	C.2	1	UNK0	0.000	
17	   C	0.464	-0.282	-1.140	C.2	1	UNK0	0.000	
18	   N	0.056	0.697	-1.952	N.pl3	1	UNK0	0.000	
19	   C	0.963	1.153	-2.861	C.2	1	UNK0	0.000	
20	   O	0.604	2.078	-3.647	O.2	1	UNK0	0.000	
21	   N	2.211	0.658	-2.950	N.pl3	1	UNK0	0.000	
22	   C	2.626	-0.317	-2.137	C.2	1	UNK0	0.000	
23	   O	3.791	-0.805	-2.190	O.2	1	UNK0	0.000	
24	   C	-1.201	1.374	-1.927	C.3	1	UNK0	0.000	
25	   C	3.125	-2.530	-0.033	C.3	1	UNK0	0.000	
26	   C	4.052	-1.871	0.950	C.3	1	UNK0	0.000	
27	   H	-3.170	-0.704	-1.485	 H	1	UNK0	0.000	
28	   H	-4.642	1.133	2.790	 H	1	UNK0	0.000	
29	   H	-6.084	1.329	0.884	 H	1	UNK0	0.000	
30	   H	-3.046	1.570	3.982	 H	1	UNK0	0.000	
31	   H	-1.833	0.489	4.824	 H	1	UNK0	0.000	
32	   H	-3.488	-0.078	4.522	 H	1	UNK0	0.000	
33	   H	2.860	1.040	-3.660	 H	1	UNK0	0.000	
34	   H	-1.521	1.679	-0.912	 H	1	UNK0	0.000	
35	   H	-1.977	0.955	-2.581	 H	1	UNK0	0.000	
36	   H	-1.026	2.409	-2.405	 H	1	UNK0	0.000	
37	   H	3.654	-2.768	-0.957	 H	1	UNK0	0.000	
38	   H	2.806	-3.498	0.460	 H	1	UNK0	0.000	
39	   H	5.112	-1.863	0.587	 H	1	UNK0	0.000	
40	   H	4.076	-2.368	1.941	 H	1	UNK0	0.000	
41	   H	3.715	-0.806	1.097	 H	1	UNK0	0.000	
@<TRIPOS>BOND
1 1 2 1
2 2 3 2
3 2 7 1
4 3 4 1
5 4 5 2
6 4 10 1
7 5 6 1
8 5 8 1
9 6 7 2
10 8 9 1
11 10 11 1
12 10 14 2
13 11 12 1
14 11 17 1
15 12 13 2
16 12 15 1
17 13 14 1
18 15 16 1
19 15 25 1
20 16 17 2
21 16 22 1
22 17 18 1
23 18 19 1
24 18 24 1
25 19 20 2
26 19 21 1
27 21 22 1
28 22 23 2
29 25 26 1
30 3 27 1
31 6 28 1
32 7 29 1
33 9 30 1
34 9 31 1
35 9 32 1
36 21 33 1
37 24 34 1
38 24 35 1
39 24 36 1
40 25 37 1
41 25 38 1
42 26 39 1
43 26 40 1
44 26 41 1
@<TRIPOS>SUBSTRUCTURE
1	UNK0	1	GROUP	1 ****	UNK
