# created with PyMOL 2.3.2
@<TRIPOS>MOLECULE
113
38 41 1                 
SMALL
USER_CHARGES
@<TRIPOS>ATOM
1	  Br	5.306	-0.381	-0.178	Br	1	UNK0	0.000	
2	   C	3.628	-1.234	-0.603	C.2	1	UNK0	0.000	
3	   C	2.551	-1.115	0.237	C.2	1	UNK0	0.000	
4	   C	1.333	-1.685	0.009	C.2	1	UNK0	0.000	
5	   C	1.228	-2.434	-1.179	C.2	1	UNK0	0.000	
6	   C	2.287	-2.557	-2.018	C.2	1	UNK0	0.000	
7	   C	3.525	-1.966	-1.768	C.2	1	UNK0	0.000	
8	   O	0.012	-3.024	-1.443	O.3	1	UNK0	0.000	
9	   C	-0.286	-3.798	-2.559	C.3	1	UNK0	0.000	
10	   C	0.164	-1.577	0.873	C.2	1	UNK0	0.000	
11	   N	-0.588	-0.591	1.325	N.pl3	1	UNK0	0.000	
12	   C	-1.584	-1.090	2.122	C.2	1	UNK0	0.000	
13	   N	-1.406	-2.432	2.130	N.2	1	UNK0	0.000	
14	   N	-0.383	-2.736	1.400	N.2	1	UNK0	0.000	
15	   N	-2.365	-0.110	2.591	N.pl3	1	UNK0	0.000	
16	   C	-1.897	1.046	2.106	C.2	1	UNK0	0.000	
17	   C	-0.786	0.762	1.309	C.2	1	UNK0	0.000	
18	   N	-0.135	1.732	0.681	N.pl3	1	UNK0	0.000	
19	   C	-0.570	3.016	0.838	C.2	1	UNK0	0.000	
20	   O	0.020	3.988	0.261	O.2	1	UNK0	0.000	
21	   N	-1.629	3.300	1.603	N.pl3	1	UNK0	0.000	
22	   C	-2.312	2.350	2.247	C.2	1	UNK0	0.000	
23	   O	-3.316	2.616	2.970	O.2	1	UNK0	0.000	
24	   C	0.964	1.544	-0.209	C.3	1	UNK0	0.000	
25	   C	-3.498	-0.267	3.457	C.3	1	UNK0	0.000	
26	   H	2.650	-0.537	1.158	 H	1	UNK0	0.000	
27	   H	2.248	-3.128	-2.948	 H	1	UNK0	0.000	
28	   H	4.365	-2.068	-2.439	 H	1	UNK0	0.000	
29	   H	0.277	-3.480	-3.476	 H	1	UNK0	0.000	
30	   H	-0.160	-4.877	-2.436	 H	1	UNK0	0.000	
31	   H	-1.375	-3.624	-2.799	 H	1	UNK0	0.000	
32	   H	-1.916	4.307	1.687	 H	1	UNK0	0.000	
33	   H	0.752	0.767	-0.948	 H	1	UNK0	0.000	
34	   H	1.941	1.551	0.275	 H	1	UNK0	0.000	
35	   H	1.023	2.505	-0.857	 H	1	UNK0	0.000	
36	   H	-3.585	0.596	4.150	 H	1	UNK0	0.000	
37	   H	-3.402	-1.209	4.042	 H	1	UNK0	0.000	
38	   H	-4.430	-0.324	2.872	 H	1	UNK0	0.000	
@<TRIPOS>BOND
1 1 2 1
2 2 3 2
3 2 7 1
4 3 4 1
5 4 5 2
6 4 10 1
7 5 6 1
8 5 8 1
9 6 7 2
10 8 9 1
11 10 11 1
12 10 14 2
13 11 12 1
14 11 17 1
15 12 13 2
16 12 15 1
17 13 14 1
18 15 16 1
19 15 25 1
20 16 17 2
21 16 22 1
22 17 18 1
23 18 19 1
24 18 24 1
25 19 20 2
26 19 21 1
27 21 22 1
28 22 23 2
29 3 26 1
30 6 27 1
31 7 28 1
32 9 29 1
33 9 30 1
34 9 31 1
35 21 32 1
36 24 33 1
37 24 34 1
38 24 35 1
39 25 36 1
40 25 37 1
41 25 38 1
@<TRIPOS>SUBSTRUCTURE
1	UNK0	1	GROUP	1 ****	UNK
