# created with PyMOL 2.3.2
@<TRIPOS>MOLECULE
114
35 37 1                 
SMALL
USER_CHARGES
@<TRIPOS>ATOM
1	  Br	1.418	-3.047	-4.650	Br	1	UNK0	0.000	
2	   C	1.556	-1.505	-3.545	C.2	1	UNK0	0.000	
3	   C	1.241	-1.588	-2.187	C.2	1	UNK0	0.000	
4	   C	1.342	-0.470	-1.349	C.2	1	UNK0	0.000	
5	   C	1.766	0.701	-1.952	C.2	1	UNK0	0.000	
6	   C	2.074	0.762	-3.300	C.2	1	UNK0	0.000	
7	   C	1.969	-0.338	-4.104	C.2	1	UNK0	0.000	
8	   O	1.849	1.784	-1.124	O.3	1	UNK0	0.000	
9	   C	2.244	3.028	-1.636	C.3	1	UNK0	0.000	
10	   C	1.083	-0.686	0.070	C.3	1	UNK0	0.000	
11	   C	-0.158	-1.621	0.053	C.3	1	UNK0	0.000	
12	   C	-1.012	-0.808	-0.939	C.2	1	UNK0	0.000	
13	   O	-1.581	-1.293	-1.900	O.2	1	UNK0	0.000	
14	   N	-1.036	0.588	-0.563	N.pl3	1	UNK0	0.000	
15	   C	-0.667	0.836	0.843	C.3	1	UNK0	0.000	
16	   N	-1.447	-0.171	1.576	N.pl3	1	UNK0	0.000	
17	   C	-0.976	-1.505	1.299	C.2	1	UNK0	0.000	
18	   O	-1.222	-2.487	2.023	O.2	1	UNK0	0.000	
19	   C	0.810	0.380	0.990	C.3	1	UNK0	0.000	
20	   C	-0.868	2.206	1.321	C.3	1	UNK0	0.000	
21	   H	0.931	-2.562	-1.854	 H	1	UNK0	0.000	
22	   H	2.395	1.716	-3.670	 H	1	UNK0	0.000	
23	   H	2.229	-0.199	-5.169	 H	1	UNK0	0.000	
24	   H	3.145	2.932	-2.260	 H	1	UNK0	0.000	
25	   H	1.400	3.316	-2.349	 H	1	UNK0	0.000	
26	   H	2.311	3.818	-0.877	 H	1	UNK0	0.000	
27	   H	1.891	-1.370	0.439	 H	1	UNK0	0.000	
28	   H	0.011	-2.617	-0.248	 H	1	UNK0	0.000	
29	   H	-1.267	1.349	-1.207	 H	1	UNK0	0.000	
30	   H	-2.228	0.064	2.199	 H	1	UNK0	0.000	
31	   H	0.838	-0.065	2.037	 H	1	UNK0	0.000	
32	   H	1.504	1.209	1.091	 H	1	UNK0	0.000	
33	   H	-1.249	2.128	2.397	 H	1	UNK0	0.000	
34	   H	0.035	2.840	1.346	 H	1	UNK0	0.000	
35	   H	-1.633	2.733	0.757	 H	1	UNK0	0.000	
@<TRIPOS>BOND
1 1 2 1
2 2 3 2
3 2 7 1
4 3 4 1
5 4 5 2
6 4 10 1
7 5 6 1
8 5 8 1
9 6 7 2
10 8 9 1
11 10 11 1
12 10 19 1
13 11 12 1
14 11 17 1
15 12 13 2
16 12 14 1
17 14 15 1
18 15 16 1
19 15 19 1
20 15 20 1
21 16 17 1
22 17 18 2
23 3 21 1
24 6 22 1
25 7 23 1
26 9 24 1
27 9 25 1
28 9 26 1
29 10 27 1
30 11 28 1
31 14 29 1
32 16 30 1
33 19 31 1
34 19 32 1
35 20 33 1
36 20 34 1
37 20 35 1
@<TRIPOS>SUBSTRUCTURE
1	UNK0	1	GROUP	1 ****	UNK
