# created with PyMOL 2.3.2
@<TRIPOS>MOLECULE
115
54 57 1                 
SMALL
USER_CHARGES
@<TRIPOS>ATOM
1	  Br	-2.388	5.132	6.866	Br	1	UNK0	0.000	
2	   C	-1.689	3.485	6.247	C.2	1	UNK0	0.000	
3	   C	-1.281	3.340	4.948	C.2	1	UNK0	0.000	
4	   C	-0.760	2.136	4.460	C.2	1	UNK0	0.000	
5	   C	-0.669	1.095	5.336	C.2	1	UNK0	0.000	
6	   C	-1.082	1.225	6.674	C.2	1	UNK0	0.000	
7	   C	-1.590	2.422	7.121	C.2	1	UNK0	0.000	
8	   O	-0.174	-0.119	4.953	O.3	1	UNK0	0.000	
9	   C	-0.343	2.029	3.080	C.2	1	UNK0	0.000	
10	   N	-0.442	3.028	2.280	N.2	1	UNK0	0.000	
11	   N	-0.063	3.001	0.943	N.pl3	1	UNK0	0.000	
12	   C	-0.390	1.886	0.148	C.2	1	UNK0	0.000	
13	   O	-1.020	0.929	0.652	O.2	1	UNK0	0.000	
14	   C	-0.019	1.803	-1.258	C.2	1	UNK0	0.000	
15	   N	0.645	2.748	-1.902	N.2	1	UNK0	0.000	
16	   N	0.803	2.347	-3.126	N.2	1	UNK0	0.000	
17	   N	0.249	1.140	-3.305	N.pl3	1	UNK0	0.000	
18	   C	-0.280	0.757	-2.161	C.2	1	UNK0	0.000	
19	   C	-0.988	-0.432	-1.715	C.3	1	UNK0	0.000	
20	   N	-1.263	-1.449	-2.669	N.3	1	UNK0	0.000	
21	   C	-1.859	-2.559	-1.874	C.3	1	UNK0	0.000	
22	   C	-2.380	-3.638	-2.733	C.3	1	UNK0	0.000	
23	   C	-2.432	-3.348	-4.197	C.3	1	UNK0	0.000	
24	   C	-2.623	-1.927	-4.563	C.3	1	UNK0	0.000	
25	   C	-2.455	-0.994	-3.421	C.3	1	UNK0	0.000	
26	   C	-1.191	-3.945	-4.875	C.3	1	UNK0	0.000	
27	   C	0.270	0.434	-4.518	C.2	1	UNK0	0.000	
28	   N	-0.359	0.791	-5.644	N.2	1	UNK0	0.000	
29	   O	-0.132	-0.063	-6.597	O.3	1	UNK0	0.000	
30	   N	0.653	-0.996	-6.104	N.2	1	UNK0	0.000	
31	   C	0.930	-0.729	-4.813	C.2	1	UNK0	0.000	
32	   N	1.733	-1.469	-3.913	N.pl3	1	UNK0	0.000	
33	   H	-1.349	4.164	4.240	 H	1	UNK0	0.000	
34	   H	-1.008	0.394	7.368	 H	1	UNK0	0.000	
35	   H	-1.903	2.496	8.165	 H	1	UNK0	0.000	
36	   H	0.157	-0.376	4.060	 H	1	UNK0	0.000	
37	   H	0.054	1.100	2.720	 H	1	UNK0	0.000	
38	   H	0.459	3.804	0.540	 H	1	UNK0	0.000	
39	   H	-1.950	-0.178	-1.185	 H	1	UNK0	0.000	
40	   H	-0.364	-0.888	-0.888	 H	1	UNK0	0.000	
41	   H	-2.666	-2.052	-1.287	 H	1	UNK0	0.000	
42	   H	-1.127	-2.910	-1.113	 H	1	UNK0	0.000	
43	   H	-3.392	-3.953	-2.342	 H	1	UNK0	0.000	
44	   H	-1.741	-4.548	-2.592	 H	1	UNK0	0.000	
45	   H	-3.290	-3.926	-4.615	 H	1	UNK0	0.000	
46	   H	-1.958	-1.716	-5.435	 H	1	UNK0	0.000	
47	   H	-3.659	-1.722	-4.980	 H	1	UNK0	0.000	
48	   H	-2.430	0.061	-3.667	 H	1	UNK0	0.000	
49	   H	-3.378	-1.117	-2.776	 H	1	UNK0	0.000	
50	   H	-1.081	-3.583	-5.897	 H	1	UNK0	0.000	
51	   H	-0.297	-3.621	-4.277	 H	1	UNK0	0.000	
52	   H	-1.201	-5.043	-4.850	 H	1	UNK0	0.000	
53	   H	2.601	-1.931	-4.270	 H	1	UNK0	0.000	
54	   H	1.518	-1.586	-2.915	 H	1	UNK0	0.000	
@<TRIPOS>BOND
1 1 2 1
2 2 3 2
3 2 7 1
4 3 4 1
5 4 5 2
6 4 9 1
7 5 6 1
8 5 8 1
9 6 7 2
10 9 10 2
11 10 11 1
12 11 12 1
13 12 13 2
14 12 14 1
15 14 15 1
16 14 18 2
17 15 16 2
18 16 17 1
19 17 18 1
20 17 27 1
21 18 19 1
22 19 20 1
23 20 21 1
24 20 25 1
25 21 22 1
26 22 23 1
27 23 24 1
28 23 26 1
29 24 25 1
30 27 28 2
31 27 31 1
32 28 29 1
33 29 30 1
34 30 31 2
35 31 32 1
36 3 33 1
37 6 34 1
38 7 35 1
39 8 36 1
40 9 37 1
41 11 38 1
42 19 39 1
43 19 40 1
44 21 41 1
45 21 42 1
46 22 43 1
47 22 44 1
48 23 45 1
49 24 46 1
50 24 47 1
51 25 48 1
52 25 49 1
53 26 50 1
54 26 51 1
55 26 52 1
56 32 53 1
57 32 54 1
@<TRIPOS>SUBSTRUCTURE
1	UNK0	1	GROUP	1 ****	UNK
