# created with PyMOL 2.3.2
@<TRIPOS>MOLECULE
121
51 54 1                 
SMALL
USER_CHARGES
@<TRIPOS>ATOM
1	  Br	3.709	-5.636	-6.187	Br	1	UNK0	0.000	
2	   C	2.949	-4.649	-4.736	C.2	1	UNK0	0.000	
3	   C	3.412	-3.365	-4.444	C.2	1	UNK0	0.000	
4	   C	2.839	-2.625	-3.450	C.2	1	UNK0	0.000	
5	   C	1.822	-3.178	-2.757	C.2	1	UNK0	0.000	
6	   C	1.357	-4.444	-3.023	C.2	1	UNK0	0.000	
7	   C	1.894	-5.220	-4.012	C.2	1	UNK0	0.000	
8	   O	1.194	-2.470	-1.729	O.2	1	UNK0	0.000	
9	   C	3.290	-1.226	-3.241	C.2	1	UNK0	0.000	
10	   N	2.854	-0.464	-2.462	N.2	1	UNK0	0.000	
11	   N	2.502	0.488	-1.678	N.pl3	1	UNK0	0.000	
12	   C	2.166	1.446	-0.870	C.2	1	UNK0	0.000	
13	   O	2.764	1.763	0.287	O.2	1	UNK0	0.000	
14	   C	1.020	2.389	-1.045	C.2	1	UNK0	0.000	
15	   N	0.875	3.604	-1.443	N.2	1	UNK0	0.000	
16	   N	-0.315	3.975	-1.276	N.2	1	UNK0	0.000	
17	   N	-1.094	3.007	-0.725	N.pl3	1	UNK0	0.000	
18	   C	-0.271	1.987	-0.560	C.2	1	UNK0	0.000	
19	   C	-0.564	0.636	-0.075	C.3	1	UNK0	0.000	
20	   N	-0.665	0.406	1.298	N.4	1	UNK0	0.000	
21	   C	-1.547	-0.669	1.670	C.3	1	UNK0	0.000	
22	   C	-1.294	-0.990	3.154	C.3	1	UNK0	0.000	
23	   C	-1.683	0.126	4.037	C.3	1	UNK0	0.000	
24	   C	-1.286	1.441	3.497	C.3	1	UNK0	0.000	
25	   C	-0.626	1.534	2.159	C.3	1	UNK0	0.000	
26	   C	-2.496	3.227	-0.679	C.2	1	UNK0	0.000	
27	   N	-3.124	3.477	-1.965	N.2	1	UNK0	0.000	
28	   O	-4.365	3.577	-1.804	O.3	1	UNK0	0.000	
29	   N	-4.705	3.440	-0.591	N.2	1	UNK0	0.000	
30	   C	-3.542	3.226	0.118	C.2	1	UNK0	0.000	
31	   N	-3.540	3.030	1.534	N.pl3	1	UNK0	0.000	
32	   H	4.265	-2.976	-5.000	 H	1	UNK0	0.000	
33	   H	0.544	-4.892	-2.454	 H	1	UNK0	0.000	
34	   H	1.531	-6.212	-4.269	 H	1	UNK0	0.000	
35	   H	4.102	-0.802	-3.879	 H	1	UNK0	0.000	
36	   H	3.840	0.584	-1.233	 H	1	UNK0	0.000	
37	   H	-0.014	-0.112	-0.642	 H	1	UNK0	0.000	
38	   H	-1.653	0.451	-0.449	 H	1	UNK0	0.000	
39	   H	0.325	-0.091	1.594	 H	1	UNK0	0.000	
40	   H	-2.610	-0.540	1.535	 H	1	UNK0	0.000	
41	   H	-1.273	-1.619	1.148	 H	1	UNK0	0.000	
42	   H	-1.904	-1.918	3.358	 H	1	UNK0	0.000	
43	   H	-0.196	-1.165	3.236	 H	1	UNK0	0.000	
44	   H	-1.197	-0.094	5.040	 H	1	UNK0	0.000	
45	   H	-2.807	0.072	4.310	 H	1	UNK0	0.000	
46	   H	-2.151	2.199	3.632	 H	1	UNK0	0.000	
47	   H	-0.551	1.875	4.272	 H	1	UNK0	0.000	
48	   H	-1.070	2.390	1.634	 H	1	UNK0	0.000	
49	   H	0.482	1.855	2.363	 H	1	UNK0	0.000	
50	   H	-3.368	3.837	2.210	 H	1	UNK0	0.000	
51	   H	-3.737	2.103	1.962	 H	1	UNK0	0.000	
@<TRIPOS>BOND
1 1 2 1
2 2 3 2
3 2 7 1
4 3 4 1
5 4 5 2
6 4 9 1
7 5 6 1
8 5 8 1
9 6 7 2
10 9 10 2
11 10 11 1
12 11 12 1
13 12 13 2
14 12 14 1
15 14 15 1
16 14 18 2
17 15 16 2
18 16 17 1
19 17 18 1
20 17 26 1
21 18 19 1
22 19 20 1
23 20 21 1
24 20 25 1
25 21 22 1
26 22 23 1
27 23 24 1
28 24 25 1
29 26 27 2
30 26 30 1
31 27 28 1
32 28 29 1
33 29 30 2
34 30 31 1
35 3 32 1
36 6 33 1
37 7 34 1
38 9 35 1
39 11 36 1
40 19 37 1
41 19 38 1
42 20 39 1
43 21 40 1
44 21 41 1
45 22 42 1
46 22 43 1
47 23 44 1
48 23 45 1
49 24 46 1
50 24 47 1
51 25 48 1
52 25 49 1
53 31 50 1
54 31 51 1
@<TRIPOS>SUBSTRUCTURE
1	UNK0	1	GROUP	1 ****	UNK
