# created with PyMOL 2.3.2
@<TRIPOS>MOLECULE
122
43 46 1                 
SMALL
USER_CHARGES
@<TRIPOS>ATOM
1	  Br	6.979	2.883	4.882	Br	1	UNK0	0.000	
2	   C	5.920	2.863	3.267	C.2	1	UNK0	0.000	
3	   C	4.768	2.138	3.202	C.2	1	UNK0	0.000	
4	   C	3.976	2.116	2.039	C.2	1	UNK0	0.000	
5	   C	4.404	2.853	0.970	C.2	1	UNK0	0.000	
6	   C	5.550	3.590	1.000	C.2	1	UNK0	0.000	
7	   C	6.314	3.589	2.171	C.2	1	UNK0	0.000	
8	   O	3.668	2.884	-0.230	O.2	1	UNK0	0.000	
9	   C	2.741	1.362	1.966	C.2	1	UNK0	0.000	
10	   N	1.963	1.285	1.067	N.2	1	UNK0	0.000	
11	   N	0.952	0.954	0.394	N.pl3	1	UNK0	0.000	
12	   C	0.768	-0.215	-0.440	C.2	1	UNK0	0.000	
13	   O	1.659	-1.077	-0.565	O.2	1	UNK0	0.000	
14	   C	-0.505	-0.379	-1.157	C.2	1	UNK0	0.000	
15	   N	-1.319	0.695	-1.473	N.2	1	UNK0	0.000	
16	   N	-2.327	0.244	-2.149	N.2	1	UNK0	0.000	
17	   N	-2.275	-1.052	-2.322	N.pl3	1	UNK0	0.000	
18	   C	-1.124	-1.463	-1.694	C.2	1	UNK0	0.000	
19	   C	-0.838	-2.886	-1.521	C.2	1	UNK0	0.000	
20	   C	-0.343	-3.501	-0.407	C.2	1	UNK0	0.000	
21	   C	0.034	-4.833	-0.389	C.2	1	UNK0	0.000	
22	   C	-0.071	-5.628	-1.500	C.2	1	UNK0	0.000	
23	   C	-0.571	-5.033	-2.634	C.2	1	UNK0	0.000	
24	   C	-0.952	-3.700	-2.670	C.2	1	UNK0	0.000	
25	  Cl	-0.339	-2.586	1.112	Cl	1	UNK0	0.000	
26	   C	-3.247	-1.839	-3.014	C.2	1	UNK0	0.000	
27	   N	-3.593	-1.630	-4.312	N.2	1	UNK0	0.000	
28	   O	-4.493	-2.490	-4.642	O.3	1	UNK0	0.000	
29	   N	-4.794	-3.290	-3.637	N.2	1	UNK0	0.000	
30	   C	-4.016	-2.886	-2.611	C.2	1	UNK0	0.000	
31	   N	-4.011	-3.476	-1.321	N.4	1	UNK0	0.000	
32	   H	4.437	1.561	4.042	 H	1	UNK0	0.000	
33	   H	5.887	4.168	0.166	 H	1	UNK0	0.000	
34	   H	7.225	4.154	2.240	 H	1	UNK0	0.000	
35	   H	2.514	0.774	2.908	 H	1	UNK0	0.000	
36	   H	0.057	1.588	0.396	 H	1	UNK0	0.000	
37	   H	0.420	-5.259	0.513	 H	1	UNK0	0.000	
38	   H	0.216	-6.669	-1.516	 H	1	UNK0	0.000	
39	   H	-0.681	-5.626	-3.558	 H	1	UNK0	0.000	
40	   H	-1.336	-3.233	-3.565	 H	1	UNK0	0.000	
41	   H	-3.598	-2.786	-0.662	 H	1	UNK0	0.000	
42	   H	-5.026	-3.674	-1.048	 H	1	UNK0	0.000	
43	   H	-3.517	-4.383	-1.351	 H	1	UNK0	0.000	
@<TRIPOS>BOND
1 1 2 1
2 2 3 2
3 2 7 1
4 3 4 1
5 4 5 2
6 4 9 1
7 5 6 1
8 5 8 1
9 6 7 2
10 9 10 2
11 10 11 1
12 11 12 1
13 12 13 2
14 12 14 1
15 14 15 1
16 14 18 2
17 15 16 2
18 16 17 1
19 17 18 1
20 17 26 1
21 18 19 1
22 19 20 2
23 19 24 1
24 20 21 1
25 20 25 1
26 21 22 2
27 22 23 1
28 23 24 2
29 26 27 2
30 26 30 1
31 27 28 1
32 28 29 1
33 29 30 2
34 30 31 1
35 3 32 1
36 6 33 1
37 7 34 1
38 9 35 1
39 11 36 1
40 21 37 1
41 22 38 1
42 23 39 1
43 24 40 1
44 31 41 1
45 31 42 1
46 31 43 1
@<TRIPOS>SUBSTRUCTURE
1	UNK0	1	GROUP	1 ****	UNK
