# created with PyMOL 2.3.2
@<TRIPOS>MOLECULE
123
47 50 1                 
SMALL
USER_CHARGES
@<TRIPOS>ATOM
1	  Br	-7.494	1.107	-4.085	Br	1	UNK0	0.000	
2	   C	-6.376	-0.085	-3.060	C.2	1	UNK0	0.000	
3	   C	-5.032	0.055	-3.114	C.2	1	UNK0	0.000	
4	   C	-4.160	-0.786	-2.412	C.2	1	UNK0	0.000	
5	   C	-4.824	-1.762	-1.671	C.2	1	UNK0	0.000	
6	   C	-6.171	-1.897	-1.619	C.2	1	UNK0	0.000	
7	   C	-7.039	-1.067	-2.317	C.2	1	UNK0	0.000	
8	   O	-4.010	-2.657	-0.930	O.2	1	UNK0	0.000	
9	   C	-2.761	-0.641	-2.575	C.2	1	UNK0	0.000	
10	   N	-1.869	-1.440	-2.083	N.2	1	UNK0	0.000	
11	   N	-0.598	-1.496	-2.109	N.pl3	1	UNK0	0.000	
12	   C	0.779	-1.554	-2.147	C.2	1	UNK0	0.000	
13	   O	1.770	-1.443	-2.551	O.2	1	UNK0	0.000	
14	   C	1.096	-2.162	-0.629	C.2	1	UNK0	0.000	
15	   N	0.611	-3.320	-0.317	N.2	1	UNK0	0.000	
16	   N	0.955	-3.548	0.981	N.2	1	UNK0	0.000	
17	   N	1.644	-2.511	1.431	N.pl3	1	UNK0	0.000	
18	   C	1.729	-1.601	0.361	C.2	1	UNK0	0.000	
19	   C	2.466	-0.367	0.483	C.2	1	UNK0	0.000	
20	   C	3.135	0.270	-0.508	C.2	1	UNK0	0.000	
21	   C	3.724	1.549	-0.331	C.2	1	UNK0	0.000	
22	   C	3.635	2.195	0.877	C.2	1	UNK0	0.000	
23	   C	2.943	1.550	1.915	C.2	1	UNK0	0.000	
24	   C	2.378	0.310	1.712	C.2	1	UNK0	0.000	
25	   O	4.392	2.156	-1.372	O.3	1	UNK0	0.000	
26	   C	4.991	3.389	-1.315	C.3	1	UNK0	0.000	
27	   C	2.260	-2.378	2.694	C.2	1	UNK0	0.000	
28	   N	3.611	-2.171	2.818	N.2	1	UNK0	0.000	
29	   O	3.863	-2.116	4.080	O.3	1	UNK0	0.000	
30	   N	2.825	-2.267	4.824	N.2	1	UNK0	0.000	
31	   C	1.790	-2.436	3.984	C.2	1	UNK0	0.000	
32	   N	0.411	-2.633	4.312	N.4	1	UNK0	0.000	
33	   H	-4.604	0.854	-3.746	 H	1	UNK0	0.000	
34	   H	-6.639	-2.691	-0.991	 H	1	UNK0	0.000	
35	   H	-8.079	-1.166	-2.283	 H	1	UNK0	0.000	
36	   H	-2.353	0.193	-3.141	 H	1	UNK0	0.000	
37	   H	-0.542	-1.052	-3.404	 H	1	UNK0	0.000	
38	   H	3.336	-0.130	-1.493	 H	1	UNK0	0.000	
39	   H	4.068	3.157	1.081	 H	1	UNK0	0.000	
40	   H	2.867	2.051	2.889	 H	1	UNK0	0.000	
41	   H	1.832	-0.066	2.565	 H	1	UNK0	0.000	
42	   H	4.851	3.926	-2.305	 H	1	UNK0	0.000	
43	   H	6.093	3.372	-1.120	 H	1	UNK0	0.000	
44	   H	4.514	4.017	-0.539	 H	1	UNK0	0.000	
45	   H	0.035	-1.692	4.650	 H	1	UNK0	0.000	
46	   H	-0.142	-2.980	3.502	 H	1	UNK0	0.000	
47	   H	0.374	-3.266	5.145	 H	1	UNK0	0.000	
@<TRIPOS>BOND
1 1 2 1
2 2 3 2
3 2 7 1
4 3 4 1
5 4 5 2
6 4 9 1
7 5 6 1
8 5 8 1
9 6 7 2
10 9 10 2
11 10 11 1
12 11 12 1
13 12 13 2
14 12 14 1
15 14 15 1
16 14 18 2
17 15 16 2
18 16 17 1
19 17 18 1
20 17 27 1
21 18 19 1
22 19 20 2
23 19 24 1
24 20 21 1
25 21 22 2
26 21 25 1
27 22 23 1
28 23 24 2
29 25 26 1
30 27 28 2
31 27 31 1
32 28 29 1
33 29 30 1
34 30 31 2
35 31 32 1
36 3 33 1
37 6 34 1
38 7 35 1
39 9 36 1
40 11 37 1
41 20 38 1
42 22 39 1
43 23 40 1
44 24 41 1
45 26 42 1
46 26 43 1
47 26 44 1
48 32 45 1
49 32 46 1
50 32 47 1
@<TRIPOS>SUBSTRUCTURE
1	UNK0	1	GROUP	1 ****	UNK
