# created with PyMOL 2.3.2
@<TRIPOS>MOLECULE
124
46 49 1                 
SMALL
USER_CHARGES
@<TRIPOS>ATOM
1	  Br	2.670	-5.287	6.570	Br	1	UNK0	0.000	
2	   C	1.024	-4.541	5.970	C.2	1	UNK0	0.000	
3	   C	1.011	-3.706	4.847	C.2	1	UNK0	0.000	
4	   C	-0.174	-3.162	4.407	C.2	1	UNK0	0.000	
5	   C	-1.351	-3.432	5.061	C.2	1	UNK0	0.000	
6	   C	-1.334	-4.268	6.182	C.2	1	UNK0	0.000	
7	   C	-0.141	-4.820	6.632	C.2	1	UNK0	0.000	
8	   O	-2.536	-2.868	4.593	O.2	1	UNK0	0.000	
9	   C	-0.194	-2.280	3.223	C.2	1	UNK0	0.000	
10	   N	0.918	-2.030	2.613	N.2	1	UNK0	0.000	
11	   N	1.000	-1.206	1.483	N.pl3	1	UNK0	0.000	
12	   C	1.294	-1.685	0.199	C.2	1	UNK0	0.000	
13	   O	1.497	-2.953	0.134	O.2	1	UNK0	0.000	
14	   C	1.406	-0.943	-1.040	C.2	1	UNK0	0.000	
15	   N	2.291	-1.324	-2.038	N.2	1	UNK0	0.000	
16	   N	2.236	-0.516	-3.028	N.2	1	UNK0	0.000	
17	   N	1.330	0.421	-2.746	N.pl3	1	UNK0	0.000	
18	   C	0.786	0.187	-1.513	C.2	1	UNK0	0.000	
19	   C	-0.353	0.920	-0.943	C.2	1	UNK0	0.000	
20	   C	-1.252	0.364	-0.065	C.2	1	UNK0	0.000	
21	   C	-2.280	1.085	0.524	C.2	1	UNK0	0.000	
22	   C	-2.463	2.422	0.257	C.2	1	UNK0	0.000	
23	   C	-1.579	3.007	-0.619	C.2	1	UNK0	0.000	
24	   C	-0.545	2.265	-1.206	C.2	1	UNK0	0.000	
25	   C	-3.564	3.210	0.884	C.3	1	UNK0	0.000	
26	   C	1.030	1.455	-3.668	C.2	1	UNK0	0.000	
27	   N	1.796	2.515	-4.012	N.2	1	UNK0	0.000	
28	   O	1.161	3.214	-4.901	O.3	1	UNK0	0.000	
29	   N	0.020	2.679	-5.166	N.2	1	UNK0	0.000	
30	   C	-0.115	1.578	-4.424	C.2	1	UNK0	0.000	
31	   N	-1.219	0.678	-4.396	N.4	1	UNK0	0.000	
32	   H	1.931	-3.490	4.331	 H	1	UNK0	0.000	
33	   H	-2.250	-4.471	6.682	 H	1	UNK0	0.000	
34	   H	-0.188	-5.461	7.508	 H	1	UNK0	0.000	
35	   H	-1.096	-1.848	2.864	 H	1	UNK0	0.000	
36	   H	0.848	-0.185	1.650	 H	1	UNK0	0.000	
37	   H	-1.198	-0.701	0.173	 H	1	UNK0	0.000	
38	   H	-2.975	0.619	1.216	 H	1	UNK0	0.000	
39	   H	-1.697	4.045	-0.847	 H	1	UNK0	0.000	
40	   H	0.118	2.783	-1.863	 H	1	UNK0	0.000	
41	   H	-3.239	4.215	1.188	 H	1	UNK0	0.000	
42	   H	-4.453	3.255	0.216	 H	1	UNK0	0.000	
43	   H	-3.885	2.621	1.781	 H	1	UNK0	0.000	
44	   H	-1.974	1.126	-3.828	 H	1	UNK0	0.000	
45	   H	-1.593	0.568	-5.363	 H	1	UNK0	0.000	
46	   H	-0.952	-0.221	-3.970	 H	1	UNK0	0.000	
@<TRIPOS>BOND
1 1 2 1
2 2 3 2
3 2 7 1
4 3 4 1
5 4 5 2
6 4 9 1
7 5 6 1
8 5 8 1
9 6 7 2
10 9 10 2
11 10 11 1
12 11 12 1
13 12 13 2
14 12 14 1
15 14 15 1
16 14 18 2
17 15 16 2
18 16 17 1
19 17 18 1
20 17 26 1
21 18 19 1
22 19 20 2
23 19 24 1
24 20 21 1
25 21 22 2
26 22 23 1
27 22 25 1
28 23 24 2
29 26 27 2
30 26 30 1
31 27 28 1
32 28 29 1
33 29 30 2
34 30 31 1
35 3 32 1
36 6 33 1
37 7 34 1
38 9 35 1
39 11 36 1
40 20 37 1
41 21 38 1
42 23 39 1
43 24 40 1
44 25 41 1
45 25 42 1
46 25 43 1
47 31 44 1
48 31 45 1
49 31 46 1
@<TRIPOS>SUBSTRUCTURE
1	UNK0	1	GROUP	1 ****	UNK
