# created with PyMOL 2.3.2
@<TRIPOS>MOLECULE
126
53 56 1                 
SMALL
USER_CHARGES
@<TRIPOS>ATOM
1	  Br	6.537	-3.638	1.300	Br	1	UNK0	0.000	
2	   C	5.847	-2.603	-0.139	C.2	1	UNK0	0.000	
3	   C	5.219	-1.403	0.088	C.2	1	UNK0	0.000	
4	   C	4.718	-0.650	-0.973	C.2	1	UNK0	0.000	
5	   C	4.883	-1.164	-2.226	C.2	1	UNK0	0.000	
6	   C	5.521	-2.382	-2.462	C.2	1	UNK0	0.000	
7	   C	6.006	-3.108	-1.418	C.2	1	UNK0	0.000	
8	   C	4.043	0.607	-0.717	C.2	1	UNK0	0.000	
9	   C	3.669	1.422	-1.671	C.2	1	UNK0	0.000	
10	   N	3.757	0.969	0.651	N.pl3	1	UNK0	0.000	
11	   N	2.701	0.322	1.293	N.pl3	1	UNK0	0.000	
12	   C	1.349	0.640	1.024	C.2	1	UNK0	0.000	
13	   O	1.091	1.534	0.186	O.2	1	UNK0	0.000	
14	   C	0.242	-0.031	1.680	C.2	1	UNK0	0.000	
15	   N	0.385	-0.996	2.598	N.2	1	UNK0	0.000	
16	   N	-0.822	-1.362	2.946	N.2	1	UNK0	0.000	
17	   N	-1.733	-0.659	2.278	N.pl3	1	UNK0	0.000	
18	   C	-1.127	0.194	1.467	C.2	1	UNK0	0.000	
19	   C	-1.614	1.208	0.560	C.3	1	UNK0	0.000	
20	   N	-3.052	1.281	0.389	N.3	1	UNK0	0.000	
21	   C	-3.427	2.499	-0.323	C.3	1	UNK0	0.000	
22	   C	-2.578	2.716	-1.556	C.3	1	UNK0	0.000	
23	   C	-2.685	1.513	-2.476	C.3	1	UNK0	0.000	
24	   C	-3.619	0.483	-1.907	C.3	1	UNK0	0.000	
25	   C	-3.494	0.184	-0.467	C.3	1	UNK0	0.000	
26	   C	-3.128	-0.812	2.459	C.2	1	UNK0	0.000	
27	   N	-3.954	0.227	2.766	N.2	1	UNK0	0.000	
28	   O	-5.156	-0.246	2.866	O.3	1	UNK0	0.000	
29	   N	-5.183	-1.512	2.652	N.2	1	UNK0	0.000	
30	   C	-3.931	-1.912	2.392	C.2	1	UNK0	0.000	
31	   N	-3.494	-3.213	2.101	N.pl3	1	UNK0	0.000	
32	   H	5.113	-1.036	1.104	 H	1	UNK0	0.000	
33	   H	4.507	-0.612	-3.088	 H	1	UNK0	0.000	
34	   H	5.632	-2.759	-3.480	 H	1	UNK0	0.000	
35	   H	6.492	-4.038	-1.598	 H	1	UNK0	0.000	
36	   H	3.827	1.236	-2.712	 H	1	UNK0	0.000	
37	   H	3.162	2.364	-1.444	 H	1	UNK0	0.000	
38	   H	4.362	1.693	1.074	 H	1	UNK0	0.000	
39	   H	2.978	-0.418	1.992	 H	1	UNK0	0.000	
40	   H	-1.299	2.253	0.838	 H	1	UNK0	0.000	
41	   H	-1.191	1.054	-0.464	 H	1	UNK0	0.000	
42	   H	-3.314	3.360	0.354	 H	1	UNK0	0.000	
43	   H	-4.483	2.398	-0.601	 H	1	UNK0	0.000	
44	   H	-1.511	2.859	-1.321	 H	1	UNK0	0.000	
45	   H	-2.971	3.618	-2.052	 H	1	UNK0	0.000	
46	   H	-3.157	1.873	-3.418	 H	1	UNK0	0.000	
47	   H	-1.695	1.129	-2.781	 H	1	UNK0	0.000	
48	   H	-4.662	0.893	-2.062	 H	1	UNK0	0.000	
49	   H	-3.571	-0.398	-2.562	 H	1	UNK0	0.000	
50	   H	-2.721	-0.627	-0.358	 H	1	UNK0	0.000	
51	   H	-4.430	-0.227	-0.026	 H	1	UNK0	0.000	
52	   H	-3.627	-4.055	2.703	 H	1	UNK0	0.000	
53	   H	-2.985	-3.380	1.206	 H	1	UNK0	0.000	
@<TRIPOS>BOND
1 1 2 1
2 2 3 2
3 2 7 1
4 3 4 1
5 4 5 2
6 4 8 1
7 5 6 1
8 6 7 2
9 8 9 2
10 8 10 1
11 10 11 1
12 11 12 1
13 12 13 2
14 12 14 1
15 14 15 1
16 14 18 2
17 15 16 2
18 16 17 1
19 17 18 1
20 17 26 1
21 18 19 1
22 19 20 1
23 20 21 1
24 20 25 1
25 21 22 1
26 22 23 1
27 23 24 1
28 24 25 1
29 26 27 2
30 26 30 1
31 27 28 1
32 28 29 1
33 29 30 2
34 30 31 1
35 3 32 1
36 5 33 1
37 6 34 1
38 7 35 1
39 9 36 1
40 9 37 1
41 10 38 1
42 11 39 1
43 19 40 1
44 19 41 1
45 21 42 1
46 21 43 1
47 22 44 1
48 22 45 1
49 23 46 1
50 23 47 1
51 24 48 1
52 24 49 1
53 25 50 1
54 25 51 1
55 31 52 1
56 31 53 1
@<TRIPOS>SUBSTRUCTURE
1	UNK0	1	GROUP	1 ****	UNK
