# created with PyMOL 2.3.2
@<TRIPOS>MOLECULE
128
52 55 1                 
SMALL
USER_CHARGES
@<TRIPOS>ATOM
1	  Br	1.356	1.607	-5.024	Br	1	UNK0	0.000	
2	   C	-0.359	2.151	-4.310	C.2	1	UNK0	0.000	
3	   C	-0.537	2.328	-2.968	C.2	1	UNK0	0.000	
4	   C	-1.734	2.705	-2.430	C.2	1	UNK0	0.000	
5	   C	-2.785	2.903	-3.339	C.2	1	UNK0	0.000	
6	   C	-2.645	2.736	-4.689	C.2	1	UNK0	0.000	
7	   C	-1.414	2.356	-5.170	C.2	1	UNK0	0.000	
8	   C	-2.006	2.897	-1.029	C.2	1	UNK0	0.000	
9	   O	-3.245	3.254	-0.777	O.2	1	UNK0	0.000	
10	   C	-1.132	2.761	0.143	C.3	1	UNK0	0.000	
11	   N	-0.931	1.393	0.570	N.pl3	1	UNK0	0.000	
12	   C	-1.859	0.659	1.266	C.2	1	UNK0	0.000	
13	   C	-1.276	-0.545	1.536	C.2	1	UNK0	0.000	
14	   C	-1.997	-1.514	2.240	C.2	1	UNK0	0.000	
15	   C	-3.284	-1.238	2.650	C.2	1	UNK0	0.000	
16	   C	-3.875	-0.023	2.380	C.2	1	UNK0	0.000	
17	   C	-3.145	0.938	1.676	C.2	1	UNK0	0.000	
18	   N	-0.029	-0.526	1.016	N.pl3	1	UNK0	0.000	
19	   C	0.198	0.649	0.425	C.cat	1	UNK0	0.000	
20	   N	1.337	1.039	-0.102	N.pl3	1	UNK0	0.000	
21	   C	0.880	-1.649	1.167	C.3	1	UNK0	0.000	
22	   C	0.746	-2.727	0.172	C.3	1	UNK0	0.000	
23	   N	0.984	-2.446	-1.198	N.3	1	UNK0	0.000	
24	   C	0.560	-3.591	-2.044	C.3	1	UNK0	0.000	
25	   C	1.227	-4.865	-1.641	C.3	1	UNK0	0.000	
26	   O	2.582	-4.730	-1.948	O.3	1	UNK0	0.000	
27	   C	3.145	-3.653	-1.310	C.3	1	UNK0	0.000	
28	   C	2.421	-2.348	-1.504	C.3	1	UNK0	0.000	
29	   H	0.306	2.170	-2.342	 H	1	UNK0	0.000	
30	   H	-3.776	3.207	-3.008	 H	1	UNK0	0.000	
31	   H	-3.490	2.898	-5.377	 H	1	UNK0	0.000	
32	   H	-1.285	2.219	-6.246	 H	1	UNK0	0.000	
33	   H	-0.116	3.231	-0.048	 H	1	UNK0	0.000	
34	   H	-1.594	3.322	1.011	 H	1	UNK0	0.000	
35	   H	-1.524	-2.469	2.444	 H	1	UNK0	0.000	
36	   H	-3.818	-2.004	3.189	 H	1	UNK0	0.000	
37	   H	-4.885	0.169	2.711	 H	1	UNK0	0.000	
38	   H	-3.606	1.886	1.477	 H	1	UNK0	0.000	
39	   H	2.150	0.435	-0.186	 H	1	UNK0	0.000	
40	   H	1.420	2.015	-0.419	 H	1	UNK0	0.000	
41	   H	1.920	-1.258	1.211	 H	1	UNK0	0.000	
42	   H	0.703	-2.091	2.175	 H	1	UNK0	0.000	
43	   H	-0.250	-3.253	0.325	 H	1	UNK0	0.000	
44	   H	1.477	-3.538	0.477	 H	1	UNK0	0.000	
45	   H	-0.540	-3.655	-2.094	 H	1	UNK0	0.000	
46	   H	0.927	-3.325	-3.052	 H	1	UNK0	0.000	
47	   H	0.831	-5.664	-2.301	 H	1	UNK0	0.000	
48	   H	1.062	-5.190	-0.613	 H	1	UNK0	0.000	
49	   H	4.160	-3.510	-1.785	 H	1	UNK0	0.000	
50	   H	3.312	-3.908	-0.242	 H	1	UNK0	0.000	
51	   H	2.941	-1.578	-0.946	 H	1	UNK0	0.000	
52	   H	2.437	-2.157	-2.621	 H	1	UNK0	0.000	
@<TRIPOS>BOND
1 1 2 1
2 2 3 2
3 2 7 1
4 3 4 1
5 4 5 2
6 4 8 1
7 5 6 1
8 6 7 2
9 8 9 2
10 8 10 1
11 10 11 1
12 11 12 1
13 11 19 1
14 12 13 1
15 12 17 2
16 13 14 2
17 13 18 1
18 14 15 1
19 15 16 2
20 16 17 1
21 18 19 1
22 18 21 1
23 19 20 2
24 21 22 1
25 22 23 1
26 23 24 1
27 23 28 1
28 24 25 1
29 25 26 1
30 26 27 1
31 27 28 1
32 3 29 1
33 5 30 1
34 6 31 1
35 7 32 1
36 10 33 1
37 10 34 1
38 14 35 1
39 15 36 1
40 16 37 1
41 17 38 1
42 20 39 1
43 20 40 1
44 21 41 1
45 21 42 1
46 22 43 1
47 22 44 1
48 24 45 1
49 24 46 1
50 25 47 1
51 25 48 1
52 27 49 1
53 27 50 1
54 28 51 1
55 28 52 1
@<TRIPOS>SUBSTRUCTURE
1	UNK0	1	GROUP	1 ****	UNK
