# created with PyMOL 2.3.2
@<TRIPOS>MOLECULE
140
52 55 1                 
SMALL
USER_CHARGES
@<TRIPOS>ATOM
1	  Br	8.712	-0.973	1.985	Br	1	UNK0	0.000	
2	   C	7.377	0.393	1.799	C.2	1	UNK0	0.000	
3	   C	6.056	0.040	1.885	C.2	1	UNK0	0.000	
4	   C	5.087	1.025	1.751	C.2	1	UNK0	0.000	
5	   C	5.447	2.325	1.538	C.2	1	UNK0	0.000	
6	   C	6.795	2.679	1.452	C.2	1	UNK0	0.000	
7	   C	7.735	1.684	1.588	C.2	1	UNK0	0.000	
8	   C	3.670	0.640	1.844	C.2	1	UNK0	0.000	
9	   O	3.396	-0.595	2.043	O.2	1	UNK0	0.000	
10	   N	2.643	1.595	1.718	N.pl3	1	UNK0	0.000	
11	   C	1.256	1.189	1.813	C.3	1	UNK0	0.000	
12	   C	0.625	1.821	3.053	C.3	1	UNK0	0.000	
13	   C	0.511	1.595	0.592	C.2	1	UNK0	0.000	
14	   O	1.087	2.211	-0.335	O.2	1	UNK0	0.000	
15	   N	-0.865	1.298	0.445	N.pl3	1	UNK0	0.000	
16	   C	-1.598	1.696	-0.742	C.3	1	UNK0	0.000	
17	   C	-1.923	0.458	-1.520	C.3	1	UNK0	0.000	
18	   C	-2.237	-0.728	-0.594	C.3	1	UNK0	0.000	
19	   N	-1.044	-1.444	-0.416	N.3	1	UNK0	0.000	
20	   C	-0.778	-2.549	-1.240	C.3	1	UNK0	0.000	
21	   C	-1.895	-3.567	-1.264	C.3	1	UNK0	0.000	
22	   C	-3.163	-2.845	-1.520	C.2	1	UNK0	0.000	
23	   N	-4.321	-3.305	-2.067	N.pl3	1	UNK0	0.000	
24	   C	-5.204	-2.293	-2.104	C.2	1	UNK0	0.000	
25	   N	-4.597	-1.217	-1.584	N.2	1	UNK0	0.000	
26	   C	-3.327	-1.522	-1.210	C.2	1	UNK0	0.000	
27	   C	-2.705	-0.217	0.755	C.3	1	UNK0	0.000	
28	   C	-1.629	0.585	1.451	C.3	1	UNK0	0.000	
29	   H	5.741	-0.986	2.053	 H	1	UNK0	0.000	
30	   H	4.737	3.131	1.427	 H	1	UNK0	0.000	
31	   H	7.064	3.711	1.284	 H	1	UNK0	0.000	
32	   H	8.801	1.908	1.529	 H	1	UNK0	0.000	
33	   H	2.834	2.594	1.557	 H	1	UNK0	0.000	
34	   H	1.230	0.106	1.982	 H	1	UNK0	0.000	
35	   H	-0.131	2.556	2.731	 H	1	UNK0	0.000	
36	   H	1.436	2.341	3.638	 H	1	UNK0	0.000	
37	   H	0.142	1.066	3.701	 H	1	UNK0	0.000	
38	   H	-2.507	2.264	-0.467	 H	1	UNK0	0.000	
39	   H	-0.949	2.334	-1.368	 H	1	UNK0	0.000	
40	   H	-2.824	0.642	-2.108	 H	1	UNK0	0.000	
41	   H	-1.086	0.216	-2.197	 H	1	UNK0	0.000	
42	   H	-0.411	-1.207	0.331	 H	1	UNK0	0.000	
43	   H	0.163	-3.028	-0.932	 H	1	UNK0	0.000	
44	   H	-0.632	-2.177	-2.297	 H	1	UNK0	0.000	
45	   H	-1.721	-4.294	-2.082	 H	1	UNK0	0.000	
46	   H	-1.920	-4.059	-0.269	 H	1	UNK0	0.000	
47	   H	-4.471	-4.291	-2.397	 H	1	UNK0	0.000	
48	   H	-6.221	-2.309	-2.476	 H	1	UNK0	0.000	
49	   H	-3.538	0.499	0.543	 H	1	UNK0	0.000	
50	   H	-3.062	-1.059	1.362	 H	1	UNK0	0.000	
51	   H	-2.070	1.251	2.204	 H	1	UNK0	0.000	
52	   H	-0.987	-0.157	1.979	 H	1	UNK0	0.000	
@<TRIPOS>BOND
1 1 2 1
2 2 3 2
3 2 7 1
4 3 4 1
5 4 5 2
6 4 8 1
7 5 6 1
8 6 7 2
9 8 9 2
10 8 10 1
11 10 11 1
12 11 12 1
13 11 13 1
14 13 14 2
15 13 15 1
16 15 16 1
17 15 28 1
18 16 17 1
19 17 18 1
20 18 19 1
21 18 26 1
22 18 27 1
23 19 20 1
24 20 21 1
25 21 22 1
26 22 23 1
27 22 26 2
28 23 24 1
29 24 25 2
30 25 26 1
31 27 28 1
32 3 29 1
33 5 30 1
34 6 31 1
35 7 32 1
36 10 33 1
37 11 34 1
38 12 35 1
39 12 36 1
40 12 37 1
41 16 38 1
42 16 39 1
43 17 40 1
44 17 41 1
45 19 42 1
46 20 43 1
47 20 44 1
48 21 45 1
49 21 46 1
50 23 47 1
51 24 48 1
52 27 49 1
53 27 50 1
54 28 51 1
55 28 52 1
@<TRIPOS>SUBSTRUCTURE
1	UNK0	1	GROUP	1 ****	UNK
