# created with PyMOL 2.3.2
@<TRIPOS>MOLECULE
142
33 36 1                 
SMALL
USER_CHARGES
@<TRIPOS>ATOM
1	  Br	-1.755	4.962	4.311	Br	1	UNK0	0.000	
2	   C	-1.349	3.115	4.082	C.2	1	UNK0	0.000	
3	   C	-1.294	2.545	2.834	C.2	1	UNK0	0.000	
4	   C	-0.991	1.192	2.740	C.2	1	UNK0	0.000	
5	   C	-0.748	0.416	3.832	C.2	1	UNK0	0.000	
6	   C	-0.804	0.998	5.104	C.2	1	UNK0	0.000	
7	   C	-1.107	2.354	5.205	C.2	1	UNK0	0.000	
8	   C	-0.934	0.571	1.400	C.2	1	UNK0	0.000	
9	   O	-1.569	1.137	0.468	O.2	1	UNK0	0.000	
10	   N	-0.215	-0.591	1.139	N.pl3	1	UNK0	0.000	
11	   N	-0.084	-1.265	-0.072	N.pl3	1	UNK0	0.000	
12	   C	-0.604	-0.954	-1.355	C.2	1	UNK0	0.000	
13	   O	-0.915	0.183	-1.779	O.2	1	UNK0	0.000	
14	   C	-0.740	-2.191	-2.178	C.3	1	UNK0	0.000	
15	   C	0.009	-2.047	-3.489	C.3	1	UNK0	0.000	
16	   O	0.525	-3.335	-3.646	O.3	1	UNK0	0.000	
17	   C	1.251	-3.389	-2.425	C.3	1	UNK0	0.000	
18	   C	0.145	-3.193	-1.447	C.3	1	UNK0	0.000	
19	   C	0.659	-2.495	-0.258	C.2	1	UNK0	0.000	
20	   O	1.589	-2.913	0.463	O.2	1	UNK0	0.000	
21	   C	2.024	-2.129	-2.535	C.2	1	UNK0	0.000	
22	   C	1.261	-1.281	-3.213	C.2	1	UNK0	0.000	
23	   H	-1.480	3.116	1.942	 H	1	UNK0	0.000	
24	   H	-0.521	-0.613	3.759	 H	1	UNK0	0.000	
25	   H	-0.613	0.393	5.994	 H	1	UNK0	0.000	
26	   H	-1.154	2.816	6.172	 H	1	UNK0	0.000	
27	   H	0.299	-1.007	1.984	 H	1	UNK0	0.000	
28	   H	-1.761	-2.532	-2.319	 H	1	UNK0	0.000	
29	   H	-0.574	-1.688	-4.321	 H	1	UNK0	0.000	
30	   H	1.831	-4.291	-2.329	 H	1	UNK0	0.000	
31	   H	-0.410	-4.121	-1.204	 H	1	UNK0	0.000	
32	   H	3.014	-1.916	-2.152	 H	1	UNK0	0.000	
33	   H	1.441	-0.265	-3.520	 H	1	UNK0	0.000	
@<TRIPOS>BOND
1 1 2 1
2 2 3 2
3 2 7 1
4 3 4 1
5 4 5 2
6 4 8 1
7 5 6 1
8 6 7 2
9 8 9 2
10 8 10 1
11 10 11 1
12 11 12 1
13 11 19 1
14 12 13 2
15 12 14 1
16 14 15 1
17 14 18 1
18 15 16 1
19 15 22 1
20 16 17 1
21 17 18 1
22 17 21 1
23 18 19 1
24 19 20 2
25 21 22 2
26 3 23 1
27 5 24 1
28 6 25 1
29 7 26 1
30 10 27 1
31 14 28 1
32 15 29 1
33 17 30 1
34 18 31 1
35 21 32 1
36 22 33 1
@<TRIPOS>SUBSTRUCTURE
1	UNK0	1	GROUP	1 ****	UNK
