# created with PyMOL 2.3.2
@<TRIPOS>MOLECULE
143
56 59 1                 
SMALL
USER_CHARGES
@<TRIPOS>ATOM
1	  Br	0.188	-5.683	5.148	Br	1	UNK0	0.000	
2	   C	0.596	-3.825	5.084	C.2	1	UNK0	0.000	
3	   C	0.730	-3.188	3.857	C.2	1	UNK0	0.000	
4	   C	1.024	-1.852	3.752	C.2	1	UNK0	0.000	
5	   C	1.187	-1.138	4.918	C.2	1	UNK0	0.000	
6	   C	1.058	-1.755	6.166	C.2	1	UNK0	0.000	
7	   C	0.765	-3.090	6.228	C.2	1	UNK0	0.000	
8	   C	1.162	-1.192	2.482	C.3	1	UNK0	0.000	
9	   O	0.468	0.035	2.520	O.3	1	UNK0	0.000	
10	   C	2.534	-0.919	1.994	C.3	1	UNK0	0.000	
11	   N	2.424	-0.247	0.693	N.pl3	1	UNK0	0.000	
12	   C	2.378	-0.826	-0.520	C.2	1	UNK0	0.000	
13	   C	2.275	0.137	-1.500	C.2	1	UNK0	0.000	
14	   C	2.213	-0.179	-2.845	C.2	1	UNK0	0.000	
15	   C	2.256	-1.512	-3.198	C.2	1	UNK0	0.000	
16	   C	2.359	-2.489	-2.233	C.2	1	UNK0	0.000	
17	   C	2.421	-2.172	-0.885	C.2	1	UNK0	0.000	
18	   N	2.258	1.324	-0.869	N.pl3	1	UNK0	0.000	
19	   C	2.350	1.068	0.456	C.2	1	UNK0	0.000	
20	   N	2.365	1.974	1.390	N.2	1	UNK0	0.000	
21	   C	2.146	2.672	-1.418	C.3	1	UNK0	0.000	
22	   C	0.751	3.182	-1.489	C.3	1	UNK0	0.000	
23	   N	-0.171	2.439	-2.283	N.4	1	UNK0	0.000	
24	   C	-0.955	1.502	-1.460	C.3	1	UNK0	0.000	
25	   C	-1.578	0.524	-2.401	C.3	1	UNK0	0.000	
26	   C	-2.104	1.169	-3.645	C.3	1	UNK0	0.000	
27	   C	-2.257	2.648	-3.568	C.3	1	UNK0	0.000	
28	   C	-1.166	3.353	-2.821	C.3	1	UNK0	0.000	
29	   H	0.602	-3.745	2.958	 H	1	UNK0	0.000	
30	   H	1.420	-0.080	4.948	 H	1	UNK0	0.000	
31	   H	1.181	-1.221	7.093	 H	1	UNK0	0.000	
32	   H	0.660	-3.588	7.202	 H	1	UNK0	0.000	
33	   H	0.621	-1.795	1.699	 H	1	UNK0	0.000	
34	   H	-0.512	-0.160	2.466	 H	1	UNK0	0.000	
35	   H	3.175	-1.783	1.840	 H	1	UNK0	0.000	
36	   H	3.063	-0.213	2.669	 H	1	UNK0	0.000	
37	   H	2.140	0.614	-3.557	 H	1	UNK0	0.000	
38	   H	2.209	-1.776	-4.241	 H	1	UNK0	0.000	
39	   H	2.391	-3.534	-2.527	 H	1	UNK0	0.000	
40	   H	2.500	-2.918	-0.126	 H	1	UNK0	0.000	
41	   H	2.309	2.981	1.222	 H	1	UNK0	0.000	
42	   H	2.719	3.338	-0.742	 H	1	UNK0	0.000	
43	   H	2.679	2.728	-2.398	 H	1	UNK0	0.000	
44	   H	0.821	4.240	-1.870	 H	1	UNK0	0.000	
45	   H	0.348	3.305	-0.453	 H	1	UNK0	0.000	
46	   H	0.232	1.918	-3.064	 H	1	UNK0	0.000	
47	   H	-0.369	0.993	-0.703	 H	1	UNK0	0.000	
48	   H	-1.770	2.089	-0.964	 H	1	UNK0	0.000	
49	   H	-2.353	-0.082	-1.862	 H	1	UNK0	0.000	
50	   H	-0.790	-0.223	-2.687	 H	1	UNK0	0.000	
51	   H	-1.506	0.838	-4.544	 H	1	UNK0	0.000	
52	   H	-3.130	0.737	-3.831	 H	1	UNK0	0.000	
53	   H	-3.274	2.941	-3.208	 H	1	UNK0	0.000	
54	   H	-2.216	3.037	-4.629	 H	1	UNK0	0.000	
55	   H	-0.640	4.125	-3.405	 H	1	UNK0	0.000	
56	   H	-1.628	3.855	-1.947	 H	1	UNK0	0.000	
@<TRIPOS>BOND
1 1 2 1
2 2 3 2
3 2 7 1
4 3 4 1
5 4 5 2
6 4 8 1
7 5 6 1
8 6 7 2
9 8 9 1
10 8 10 1
11 10 11 1
12 11 12 1
13 11 19 1
14 12 13 1
15 12 17 2
16 13 14 2
17 13 18 1
18 14 15 1
19 15 16 2
20 16 17 1
21 18 19 1
22 18 21 1
23 19 20 2
24 21 22 1
25 22 23 1
26 23 24 1
27 23 28 1
28 24 25 1
29 25 26 1
30 26 27 1
31 27 28 1
32 3 29 1
33 5 30 1
34 6 31 1
35 7 32 1
36 8 33 1
37 9 34 1
38 10 35 1
39 10 36 1
40 14 37 1
41 15 38 1
42 16 39 1
43 17 40 1
44 20 41 1
45 21 42 1
46 21 43 1
47 22 44 1
48 22 45 1
49 23 46 1
50 24 47 1
51 24 48 1
52 25 49 1
53 25 50 1
54 26 51 1
55 26 52 1
56 27 53 1
57 27 54 1
58 28 55 1
59 28 56 1
@<TRIPOS>SUBSTRUCTURE
1	UNK0	1	GROUP	1 ****	UNK
