# created with PyMOL 2.3.2
@<TRIPOS>MOLECULE
144
46 49 1                 
SMALL
USER_CHARGES
@<TRIPOS>ATOM
1	  Br	-1.045	-5.801	1.512	Br	1	UNK0	0.000	
2	   C	-1.272	-4.243	2.611	C.2	1	UNK0	0.000	
3	   C	-1.677	-3.043	2.076	C.2	1	UNK0	0.000	
4	   C	-1.822	-1.962	2.916	C.2	1	UNK0	0.000	
5	   C	-1.565	-2.092	4.259	C.2	1	UNK0	0.000	
6	   C	-1.161	-3.288	4.794	C.2	1	UNK0	0.000	
7	   C	-1.015	-4.367	3.963	C.2	1	UNK0	0.000	
8	   C	-2.257	-0.632	2.415	C.3	1	UNK0	0.000	
9	   N	-1.205	0.192	1.925	N.pl3	1	UNK0	0.000	
10	   C	-0.275	0.901	2.692	C.2	1	UNK0	0.000	
11	   O	-0.282	0.875	3.951	O.2	1	UNK0	0.000	
12	   C	0.803	1.747	2.077	C.3	1	UNK0	0.000	
13	   N	0.716	1.709	0.625	N.pl3	1	UNK0	0.000	
14	   N	0.021	2.529	-0.148	N.2	1	UNK0	0.000	
15	   C	0.171	2.201	-1.442	C.2	1	UNK0	0.000	
16	   C	1.002	1.120	-1.502	C.2	1	UNK0	0.000	
17	   C	1.334	0.825	-0.196	C.2	1	UNK0	0.000	
18	   N	2.157	-0.220	-0.002	N.2	1	UNK0	0.000	
19	   C	2.654	-0.968	-1.004	C.2	1	UNK0	0.000	
20	   N	2.304	-0.645	-2.261	N.2	1	UNK0	0.000	
21	   C	1.488	0.378	-2.576	C.2	1	UNK0	0.000	
22	   N	1.135	0.697	-3.909	N.pl3	1	UNK0	0.000	
23	   C	-0.220	0.707	-4.409	C.3	1	UNK0	0.000	
24	   C	-0.324	-0.326	-5.510	C.3	1	UNK0	0.000	
25	   O	0.910	-0.582	-6.108	O.3	1	UNK0	0.000	
26	   C	1.700	0.558	-6.219	C.3	1	UNK0	0.000	
27	   C	2.180	1.036	-4.847	C.3	1	UNK0	0.000	
28	   H	-1.879	-2.939	1.022	 H	1	UNK0	0.000	
29	   H	-1.668	-1.261	4.965	 H	1	UNK0	0.000	
30	   H	-0.952	-3.422	5.844	 H	1	UNK0	0.000	
31	   H	-0.692	-5.344	4.355	 H	1	UNK0	0.000	
32	   H	-3.040	-0.845	1.646	 H	1	UNK0	0.000	
33	   H	-2.806	-0.134	3.240	 H	1	UNK0	0.000	
34	   H	-1.122	0.274	0.869	 H	1	UNK0	0.000	
35	   H	0.675	2.792	2.433	 H	1	UNK0	0.000	
36	   H	1.801	1.420	2.406	 H	1	UNK0	0.000	
37	   H	-0.257	2.663	-2.326	 H	1	UNK0	0.000	
38	   H	3.327	-1.817	-0.799	 H	1	UNK0	0.000	
39	   H	-0.415	1.729	-4.824	 H	1	UNK0	0.000	
40	   H	-0.961	0.436	-3.638	 H	1	UNK0	0.000	
41	   H	-0.647	-1.275	-5.037	 H	1	UNK0	0.000	
42	   H	-1.101	-0.060	-6.257	 H	1	UNK0	0.000	
43	   H	2.602	0.240	-6.810	 H	1	UNK0	0.000	
44	   H	1.169	1.388	-6.760	 H	1	UNK0	0.000	
45	   H	2.338	2.120	-4.930	 H	1	UNK0	0.000	
46	   H	3.132	0.513	-4.637	 H	1	UNK0	0.000	
@<TRIPOS>BOND
1 1 2 1
2 2 3 2
3 2 7 1
4 3 4 1
5 4 5 2
6 4 8 1
7 5 6 1
8 6 7 2
9 8 9 1
10 9 10 1
11 10 11 2
12 10 12 1
13 12 13 1
14 13 14 1
15 13 17 1
16 14 15 2
17 15 16 1
18 16 17 2
19 16 21 1
20 17 18 1
21 18 19 2
22 19 20 1
23 20 21 2
24 21 22 1
25 22 23 1
26 22 27 1
27 23 24 1
28 24 25 1
29 25 26 1
30 26 27 1
31 3 28 1
32 5 29 1
33 6 30 1
34 7 31 1
35 8 32 1
36 8 33 1
37 9 34 1
38 12 35 1
39 12 36 1
40 15 37 1
41 19 38 1
42 23 39 1
43 23 40 1
44 24 41 1
45 24 42 1
46 26 43 1
47 26 44 1
48 27 45 1
49 27 46 1
@<TRIPOS>SUBSTRUCTURE
1	UNK0	1	GROUP	1 ****	UNK
