# created with PyMOL 2.3.2
@<TRIPOS>MOLECULE
145
52 55 1                 
SMALL
USER_CHARGES
@<TRIPOS>ATOM
1	  Br	3.887	-3.185	-2.127	Br	1	UNK0	0.000	
2	   C	3.064	-3.175	-0.387	C.2	1	UNK0	0.000	
3	   C	2.796	-1.989	0.230	C.2	1	UNK0	0.000	
4	   C	2.196	-1.999	1.501	C.2	1	UNK0	0.000	
5	   C	1.909	-3.203	2.059	C.2	1	UNK0	0.000	
6	   C	2.196	-4.405	1.399	C.2	1	UNK0	0.000	
7	   C	2.781	-4.406	0.160	C.2	1	UNK0	0.000	
8	   C	1.903	-0.701	2.148	C.3	1	UNK0	0.000	
9	   N	0.505	-0.344	2.103	N.pl3	1	UNK0	0.000	
10	   C	-0.375	-0.569	3.113	C.2	1	UNK0	0.000	
11	   C	-1.589	-0.133	2.673	C.2	1	UNK0	0.000	
12	   N	-1.434	0.335	1.446	N.2	1	UNK0	0.000	
13	   C	-0.155	0.219	1.069	C.2	1	UNK0	0.000	
14	   N	0.425	0.598	-0.172	N.pl3	1	UNK0	0.000	
15	   C	0.326	-0.296	-1.300	C.3	1	UNK0	0.000	
16	   C	-0.565	0.421	-2.300	C.3	1	UNK0	0.000	
17	   N	-0.241	1.779	-2.475	N.3	1	UNK0	0.000	
18	   C	0.863	2.325	-1.790	C.3	1	UNK0	0.000	
19	   C	1.118	1.840	-0.403	C.3	1	UNK0	0.000	
20	   C	-1.381	2.632	-2.448	C.3	1	UNK0	0.000	
21	   C	-2.062	2.738	-1.114	C.3	1	UNK0	0.000	
22	   O	-3.160	3.593	-1.209	O.3	1	UNK0	0.000	
23	   N	-2.648	-0.245	3.526	N.pl3	1	UNK0	0.000	
24	   C	-2.549	-0.752	4.751	C.2	1	UNK0	0.000	
25	   O	-3.558	-0.844	5.524	O.2	1	UNK0	0.000	
26	   N	-1.371	-1.186	5.211	N.pl3	1	UNK0	0.000	
27	   C	-0.297	-1.090	4.391	C.2	1	UNK0	0.000	
28	   O	0.796	-1.492	4.830	O.2	1	UNK0	0.000	
29	   C	-3.940	0.224	3.043	C.3	1	UNK0	0.000	
30	   H	3.019	-1.034	-0.189	 H	1	UNK0	0.000	
31	   H	1.445	-3.291	3.033	 H	1	UNK0	0.000	
32	   H	1.962	-5.371	1.854	 H	1	UNK0	0.000	
33	   H	3.017	-5.327	-0.380	 H	1	UNK0	0.000	
34	   H	2.278	-0.752	3.195	 H	1	UNK0	0.000	
35	   H	2.453	0.105	1.608	 H	1	UNK0	0.000	
36	   H	-0.100	-1.280	-1.037	 H	1	UNK0	0.000	
37	   H	1.345	-0.448	-1.765	 H	1	UNK0	0.000	
38	   H	-1.603	0.306	-1.920	 H	1	UNK0	0.000	
39	   H	-0.498	-0.096	-3.282	 H	1	UNK0	0.000	
40	   H	0.871	3.445	-1.763	 H	1	UNK0	0.000	
41	   H	1.787	2.074	-2.391	 H	1	UNK0	0.000	
42	   H	2.216	1.645	-0.223	 H	1	UNK0	0.000	
43	   H	0.817	2.610	0.340	 H	1	UNK0	0.000	
44	   H	-2.108	2.301	-3.221	 H	1	UNK0	0.000	
45	   H	-1.046	3.655	-2.761	 H	1	UNK0	0.000	
46	   H	-1.395	3.177	-0.361	 H	1	UNK0	0.000	
47	   H	-2.414	1.765	-0.755	 H	1	UNK0	0.000	
48	   H	-3.437	3.787	-0.261	 H	1	UNK0	0.000	
49	   H	-1.262	-1.588	6.166	 H	1	UNK0	0.000	
50	   H	-4.541	0.617	3.905	 H	1	UNK0	0.000	
51	   H	-4.475	-0.598	2.558	 H	1	UNK0	0.000	
52	   H	-3.774	1.105	2.375	 H	1	UNK0	0.000	
@<TRIPOS>BOND
1 1 2 1
2 2 3 2
3 2 7 1
4 3 4 1
5 4 5 2
6 4 8 1
7 5 6 1
8 6 7 2
9 8 9 1
10 9 10 1
11 9 13 1
12 10 11 2
13 10 27 1
14 11 12 1
15 11 23 1
16 12 13 2
17 13 14 1
18 14 15 1
19 14 19 1
20 15 16 1
21 16 17 1
22 17 18 1
23 17 20 1
24 18 19 1
25 20 21 1
26 21 22 1
27 23 24 1
28 23 29 1
29 24 25 2
30 24 26 1
31 26 27 1
32 27 28 2
33 3 30 1
34 5 31 1
35 6 32 1
36 7 33 1
37 8 34 1
38 8 35 1
39 15 36 1
40 15 37 1
41 16 38 1
42 16 39 1
43 18 40 1
44 18 41 1
45 19 42 1
46 19 43 1
47 20 44 1
48 20 45 1
49 21 46 1
50 21 47 1
51 22 48 1
52 26 49 1
53 29 50 1
54 29 51 1
55 29 52 1
@<TRIPOS>SUBSTRUCTURE
1	UNK0	1	GROUP	1 ****	UNK
