# created with PyMOL 2.3.2
@<TRIPOS>MOLECULE
146
48 51 1                 
SMALL
USER_CHARGES
@<TRIPOS>ATOM
1	  Br	-3.003	-1.688	-3.105	Br	1	UNK0	0.000	
2	   C	-1.896	-0.138	-2.925	C.2	1	UNK0	0.000	
3	   C	-1.020	-0.015	-1.856	C.2	1	UNK0	0.000	
4	   C	-0.212	1.090	-1.690	C.2	1	UNK0	0.000	
5	   C	-0.331	2.072	-2.661	C.2	1	UNK0	0.000	
6	   C	-1.194	1.974	-3.734	C.2	1	UNK0	0.000	
7	   C	-1.989	0.852	-3.868	C.2	1	UNK0	0.000	
8	   C	0.767	1.287	-0.619	C.3	1	UNK0	0.000	
9	   N	0.314	1.026	0.706	N.pl3	1	UNK0	0.000	
10	   C	-0.344	1.900	1.479	C.2	1	UNK0	0.000	
11	   C	-0.579	1.292	2.692	C.2	1	UNK0	0.000	
12	   N	-0.061	0.072	2.630	N.2	1	UNK0	0.000	
13	   C	0.499	-0.120	1.413	C.2	1	UNK0	0.000	
14	   N	1.165	-1.326	0.997	N.pl3	1	UNK0	0.000	
15	   C	0.485	-2.529	0.600	C.3	1	UNK0	0.000	
16	   C	1.012	-3.019	-0.702	C.3	1	UNK0	0.000	
17	   N	2.427	-3.079	-0.808	N.3	1	UNK0	0.000	
18	   C	3.180	-2.052	-0.223	C.3	1	UNK0	0.000	
19	   C	2.617	-1.359	0.964	C.3	1	UNK0	0.000	
20	   C	2.990	-4.375	-0.896	C.3	1	UNK0	0.000	
21	   N	-1.236	1.974	3.648	N.pl3	1	UNK0	0.000	
22	   C	-1.672	3.252	3.438	C.2	1	UNK0	0.000	
23	   O	-2.282	3.839	4.374	O.2	1	UNK0	0.000	
24	   N	-1.462	3.879	2.270	N.pl3	1	UNK0	0.000	
25	   C	-0.805	3.194	1.319	C.2	1	UNK0	0.000	
26	   O	-0.605	3.781	0.217	O.2	1	UNK0	0.000	
27	   C	-1.470	1.296	4.919	C.3	1	UNK0	0.000	
28	   H	-0.992	-0.796	-1.150	 H	1	UNK0	0.000	
29	   H	0.269	2.993	-2.627	 H	1	UNK0	0.000	
30	   H	-1.254	2.785	-4.479	 H	1	UNK0	0.000	
31	   H	-2.662	0.799	-4.722	 H	1	UNK0	0.000	
32	   H	1.676	0.681	-0.854	 H	1	UNK0	0.000	
33	   H	1.129	2.344	-0.636	 H	1	UNK0	0.000	
34	   H	0.741	-3.289	1.404	 H	1	UNK0	0.000	
35	   H	-0.616	-2.421	0.530	 H	1	UNK0	0.000	
36	   H	0.637	-4.079	-0.835	 H	1	UNK0	0.000	
37	   H	0.616	-2.458	-1.559	 H	1	UNK0	0.000	
38	   H	3.474	-1.317	-1.036	 H	1	UNK0	0.000	
39	   H	4.183	-2.489	0.079	 H	1	UNK0	0.000	
40	   H	2.942	-1.908	1.886	 H	1	UNK0	0.000	
41	   H	3.048	-0.336	1.021	 H	1	UNK0	0.000	
42	   H	3.360	-4.800	0.034	 H	1	UNK0	0.000	
43	   H	3.764	-4.387	-1.699	 H	1	UNK0	0.000	
44	   H	2.181	-5.057	-1.289	 H	1	UNK0	0.000	
45	   H	-1.808	4.858	2.135	 H	1	UNK0	0.000	
46	   H	-2.300	0.557	4.825	 H	1	UNK0	0.000	
47	   H	-1.831	2.082	5.628	 H	1	UNK0	0.000	
48	   H	-0.557	0.863	5.358	 H	1	UNK0	0.000	
@<TRIPOS>BOND
1 1 2 1
2 2 3 2
3 2 7 1
4 3 4 1
5 4 5 2
6 4 8 1
7 5 6 1
8 6 7 2
9 8 9 1
10 9 10 1
11 9 13 1
12 10 11 2
13 10 25 1
14 11 12 1
15 11 21 1
16 12 13 2
17 13 14 1
18 14 15 1
19 14 19 1
20 15 16 1
21 16 17 1
22 17 18 1
23 17 20 1
24 18 19 1
25 21 22 1
26 21 27 1
27 22 23 2
28 22 24 1
29 24 25 1
30 25 26 2
31 3 28 1
32 5 29 1
33 6 30 1
34 7 31 1
35 8 32 1
36 8 33 1
37 15 34 1
38 15 35 1
39 16 36 1
40 16 37 1
41 18 38 1
42 18 39 1
43 19 40 1
44 19 41 1
45 20 42 1
46 20 43 1
47 20 44 1
48 24 45 1
49 27 46 1
50 27 47 1
51 27 48 1
@<TRIPOS>SUBSTRUCTURE
1	UNK0	1	GROUP	1 ****	UNK
