# created with PyMOL 2.3.2
@<TRIPOS>MOLECULE
151
48 51 1                 
SMALL
USER_CHARGES
@<TRIPOS>ATOM
1	  Br	-3.452	4.924	-3.046	Br	1	UNK0	0.000	
2	   C	-2.018	3.852	-2.379	C.2	1	UNK0	0.000	
3	   C	-1.432	4.143	-1.150	C.2	1	UNK0	0.000	
4	   C	-0.403	3.366	-0.666	C.2	1	UNK0	0.000	
5	   C	0.057	2.294	-1.391	C.2	1	UNK0	0.000	
6	   C	-0.534	2.020	-2.602	C.2	1	UNK0	0.000	
7	   C	-1.563	2.773	-3.121	C.2	1	UNK0	0.000	
8	   C	0.207	3.649	0.618	C.2	1	UNK0	0.000	
9	   C	0.582	2.663	1.435	C.2	1	UNK0	0.000	
10	   O	0.459	1.293	1.212	O.3	1	UNK0	0.000	
11	   C	0.960	0.584	2.269	C.2	1	UNK0	0.000	
12	   C	1.439	1.450	3.246	C.2	1	UNK0	0.000	
13	   C	1.992	0.903	4.393	C.2	1	UNK0	0.000	
14	   C	2.060	-0.463	4.546	C.2	1	UNK0	0.000	
15	   C	1.568	-1.302	3.543	C.2	1	UNK0	0.000	
16	   C	1.015	-0.788	2.400	C.2	1	UNK0	0.000	
17	   C	0.442	-1.708	1.416	C.3	1	UNK0	0.000	
18	   N	0.776	-1.470	0.059	N.4	1	UNK0	0.000	
19	   C	-0.458	-1.356	-0.701	C.3	1	UNK0	0.000	
20	   C	-0.427	-1.972	-2.057	C.3	1	UNK0	0.000	
21	   N	0.072	-3.301	-2.112	N.3	1	UNK0	0.000	
22	   C	0.752	-3.666	-0.913	C.3	1	UNK0	0.000	
23	   C	1.607	-2.535	-0.450	C.3	1	UNK0	0.000	
24	   C	0.903	-3.466	-3.286	C.3	1	UNK0	0.000	
25	   O	1.682	-2.661	3.792	O.2	1	UNK0	0.000	
26	   C	1.212	2.816	2.744	C.2	1	UNK0	0.000	
27	   O	1.515	3.868	3.364	O.2	1	UNK0	0.000	
28	   H	-1.822	5.004	-0.606	 H	1	UNK0	0.000	
29	   H	0.870	1.690	-1.010	 H	1	UNK0	0.000	
30	   H	-0.156	1.150	-3.157	 H	1	UNK0	0.000	
31	   H	-2.011	2.513	-4.085	 H	1	UNK0	0.000	
32	   H	0.360	4.665	0.927	 H	1	UNK0	0.000	
33	   H	2.356	1.606	5.128	 H	1	UNK0	0.000	
34	   H	2.500	-0.828	5.457	 H	1	UNK0	0.000	
35	   H	0.813	-2.754	1.695	 H	1	UNK0	0.000	
36	   H	-0.647	-1.770	1.560	 H	1	UNK0	0.000	
37	   H	1.355	-0.587	-0.075	 H	1	UNK0	0.000	
38	   H	-0.787	-0.312	-0.829	 H	1	UNK0	0.000	
39	   H	-1.315	-1.828	-0.135	 H	1	UNK0	0.000	
40	   H	-1.508	-2.004	-2.412	 H	1	UNK0	0.000	
41	   H	0.056	-1.307	-2.843	 H	1	UNK0	0.000	
42	   H	-0.027	-3.850	-0.113	 H	1	UNK0	0.000	
43	   H	1.343	-4.613	-1.008	 H	1	UNK0	0.000	
44	   H	2.276	-2.158	-1.283	 H	1	UNK0	0.000	
45	   H	2.289	-2.924	0.347	 H	1	UNK0	0.000	
46	   H	1.460	-2.536	-3.564	 H	1	UNK0	0.000	
47	   H	1.629	-4.303	-3.216	 H	1	UNK0	0.000	
48	   H	0.207	-3.627	-4.160	 H	1	UNK0	0.000	
@<TRIPOS>BOND
1 1 2 1
2 2 3 2
3 2 7 1
4 3 4 1
5 4 5 2
6 4 8 1
7 5 6 1
8 6 7 2
9 8 9 2
10 9 10 1
11 9 26 1
12 10 11 1
13 11 12 2
14 11 16 1
15 12 13 1
16 12 26 1
17 13 14 2
18 14 15 1
19 15 16 2
20 15 25 1
21 16 17 1
22 17 18 1
23 18 19 1
24 18 23 1
25 19 20 1
26 20 21 1
27 21 22 1
28 21 24 1
29 22 23 1
30 26 27 2
31 3 28 1
32 5 29 1
33 6 30 1
34 7 31 1
35 8 32 1
36 13 33 1
37 14 34 1
38 17 35 1
39 17 36 1
40 18 37 1
41 19 38 1
42 19 39 1
43 20 40 1
44 20 41 1
45 22 42 1
46 22 43 1
47 23 44 1
48 23 45 1
49 24 46 1
50 24 47 1
51 24 48 1
@<TRIPOS>SUBSTRUCTURE
1	UNK0	1	GROUP	1 ****	UNK
