# created with PyMOL 2.3.2
@<TRIPOS>MOLECULE
158
52 55 1                 
SMALL
USER_CHARGES
@<TRIPOS>ATOM
1	  Br	-5.042	0.194	3.733	Br	1	UNK0	0.000	
2	   C	-3.615	1.437	3.382	C.2	1	UNK0	0.000	
3	   C	-2.854	1.333	2.229	C.2	1	UNK0	0.000	
4	   C	-1.832	2.207	1.956	C.2	1	UNK0	0.000	
5	   C	-1.576	3.203	2.865	C.2	1	UNK0	0.000	
6	   C	-2.339	3.320	4.036	C.2	1	UNK0	0.000	
7	   C	-3.361	2.430	4.290	C.2	1	UNK0	0.000	
8	   C	-1.044	2.091	0.747	C.3	1	UNK0	0.000	
9	   N	-1.116	0.799	0.107	N.pl3	1	UNK0	0.000	
10	   C	-0.115	0.032	0.763	C.2	1	UNK0	0.000	
11	   O	-0.054	-1.230	0.873	O.2	1	UNK0	0.000	
12	   N	0.885	0.918	1.323	N.pl3	1	UNK0	0.000	
13	   C	0.419	2.226	0.961	C.2	1	UNK0	0.000	
14	   O	1.158	3.230	0.868	O.2	1	UNK0	0.000	
15	   C	2.037	0.541	2.090	C.3	1	UNK0	0.000	
16	   C	3.241	0.236	1.374	C.2	1	UNK0	0.000	
17	   O	4.244	-0.082	2.168	O.2	1	UNK0	0.000	
18	   N	3.598	0.197	0.020	N.pl3	1	UNK0	0.000	
19	   C	4.989	-0.171	-0.358	C.3	1	UNK0	0.000	
20	   C	5.034	-0.726	-1.744	C.3	1	UNK0	0.000	
21	   N	3.819	-1.445	-2.107	N.pl3	1	UNK0	0.000	
22	   C	2.512	-0.933	-1.759	C.3	1	UNK0	0.000	
23	   C	2.785	0.463	-1.136	C.3	1	UNK0	0.000	
24	   C	3.940	-2.650	-2.821	C.2	1	UNK0	0.000	
25	   O	5.143	-3.009	-3.106	O.2	1	UNK0	0.000	
26	   C	2.874	-3.512	-3.258	C.2	1	UNK0	0.000	
27	   O	3.130	-4.629	-3.957	O.3	1	UNK0	0.000	
28	   C	2.032	-5.259	-4.250	C.2	1	UNK0	0.000	
29	   C	0.947	-4.577	-3.748	C.2	1	UNK0	0.000	
30	   C	1.509	-3.470	-3.122	C.2	1	UNK0	0.000	
31	   C	-1.519	3.097	-0.311	C.3	1	UNK0	0.000	
32	   H	-3.106	0.521	1.548	 H	1	UNK0	0.000	
33	   H	-0.795	3.944	2.751	 H	1	UNK0	0.000	
34	   H	-2.127	4.115	4.750	 H	1	UNK0	0.000	
35	   H	-3.969	2.511	5.208	 H	1	UNK0	0.000	
36	   H	-1.745	0.507	-0.646	 H	1	UNK0	0.000	
37	   H	2.208	1.391	2.835	 H	1	UNK0	0.000	
38	   H	1.786	-0.386	2.718	 H	1	UNK0	0.000	
39	   H	5.408	-0.844	0.410	 H	1	UNK0	0.000	
40	   H	5.556	0.777	-0.317	 H	1	UNK0	0.000	
41	   H	5.886	-1.427	-1.825	 H	1	UNK0	0.000	
42	   H	5.184	0.061	-2.511	 H	1	UNK0	0.000	
43	   H	1.908	-0.678	-2.651	 H	1	UNK0	0.000	
44	   H	2.026	-1.517	-0.984	 H	1	UNK0	0.000	
45	   H	3.422	0.988	-1.917	 H	1	UNK0	0.000	
46	   H	1.877	1.010	-1.013	 H	1	UNK0	0.000	
47	   H	1.929	-6.190	-4.807	 H	1	UNK0	0.000	
48	   H	-0.101	-4.847	-3.828	 H	1	UNK0	0.000	
49	   H	0.909	-2.739	-2.625	 H	1	UNK0	0.000	
50	   H	-2.564	2.798	-0.558	 H	1	UNK0	0.000	
51	   H	-1.572	4.092	0.123	 H	1	UNK0	0.000	
52	   H	-0.853	3.002	-1.196	 H	1	UNK0	0.000	
@<TRIPOS>BOND
1 1 2 1
2 2 3 2
3 2 7 1
4 3 4 1
5 4 5 2
6 4 8 1
7 5 6 1
8 6 7 2
9 8 9 1
10 8 13 1
11 8 31 1
12 9 10 1
13 10 11 2
14 10 12 1
15 12 13 1
16 12 15 1
17 13 14 2
18 15 16 1
19 16 17 2
20 16 18 1
21 18 19 1
22 18 23 1
23 19 20 1
24 20 21 1
25 21 22 1
26 21 24 1
27 22 23 1
28 24 25 2
29 24 26 1
30 26 27 1
31 26 30 2
32 27 28 1
33 28 29 2
34 29 30 1
35 3 32 1
36 5 33 1
37 6 34 1
38 7 35 1
39 9 36 1
40 15 37 1
41 15 38 1
42 19 39 1
43 19 40 1
44 20 41 1
45 20 42 1
46 22 43 1
47 22 44 1
48 23 45 1
49 23 46 1
50 28 47 1
51 29 48 1
52 30 49 1
53 31 50 1
54 31 51 1
55 31 52 1
@<TRIPOS>SUBSTRUCTURE
1	UNK0	1	GROUP	1 ****	UNK
