# created with PyMOL 2.3.2
@<TRIPOS>MOLECULE
159
40 43 1                 
SMALL
USER_CHARGES
@<TRIPOS>ATOM
1	  Br	1.524	-2.700	7.594	Br	1	UNK0	0.000	
2	   C	1.015	-3.350	5.883	C.2	1	UNK0	0.000	
3	   C	0.880	-2.480	4.827	C.2	1	UNK0	0.000	
4	   C	0.513	-2.889	3.563	C.2	1	UNK0	0.000	
5	   C	0.286	-4.241	3.412	C.2	1	UNK0	0.000	
6	   C	0.416	-5.138	4.464	C.2	1	UNK0	0.000	
7	   C	0.787	-4.696	5.726	C.2	1	UNK0	0.000	
8	   C	0.376	-1.949	2.459	C.2	1	UNK0	0.000	
9	   C	0.032	-2.204	1.197	C.2	1	UNK0	0.000	
10	   C	0.041	-0.928	0.500	C.3	1	UNK0	0.000	
11	   N	0.673	0.034	1.356	N.pl3	1	UNK0	0.000	
12	   N	0.609	-0.548	2.602	N.pl3	1	UNK0	0.000	
13	   N	-1.274	-0.442	0.130	N.pl3	1	UNK0	0.000	
14	   N	-1.356	0.705	-0.634	N.2	1	UNK0	0.000	
15	   C	-0.432	1.109	-1.476	C.2	1	UNK0	0.000	
16	   N	0.710	0.265	-1.566	N.pl3	1	UNK0	0.000	
17	   C	0.820	-0.942	-0.779	C.2	1	UNK0	0.000	
18	   O	1.513	-1.891	-1.165	O.2	1	UNK0	0.000	
19	   C	-0.607	2.340	-2.228	C.2	1	UNK0	0.000	
20	   C	-0.178	2.435	-3.519	C.2	1	UNK0	0.000	
21	   C	-0.360	3.637	-4.199	C.2	1	UNK0	0.000	
22	   C	-0.960	4.720	-3.592	C.2	1	UNK0	0.000	
23	   C	-1.390	4.611	-2.286	C.2	1	UNK0	0.000	
24	   C	-1.215	3.420	-1.597	C.2	1	UNK0	0.000	
25	   N	0.427	1.309	-4.122	N.pl3	1	UNK0	0.000	
26	   H	1.067	-1.419	4.981	 H	1	UNK0	0.000	
27	   H	-0.003	-4.618	2.449	 H	1	UNK0	0.000	
28	   H	0.241	-6.201	4.364	 H	1	UNK0	0.000	
29	   H	0.888	-5.395	6.543	 H	1	UNK0	0.000	
30	   H	-0.203	-3.167	0.790	 H	1	UNK0	0.000	
31	   H	1.661	0.201	1.073	 H	1	UNK0	0.000	
32	   H	0.721	-0.001	3.498	 H	1	UNK0	0.000	
33	   H	-2.087	-1.001	0.469	 H	1	UNK0	0.000	
34	   H	1.489	0.513	-2.204	 H	1	UNK0	0.000	
35	   H	-0.031	3.745	-5.220	 H	1	UNK0	0.000	
36	   H	-1.084	5.637	-4.151	 H	1	UNK0	0.000	
37	   H	-1.855	5.485	-1.851	 H	1	UNK0	0.000	
38	   H	-1.554	3.340	-0.577	 H	1	UNK0	0.000	
39	   H	1.406	1.468	-4.504	 H	1	UNK0	0.000	
40	   H	-0.005	0.371	-4.215	 H	1	UNK0	0.000	
@<TRIPOS>BOND
1 1 2 1
2 2 3 2
3 2 7 1
4 3 4 1
5 4 5 2
6 4 8 1
7 5 6 1
8 6 7 2
9 8 9 2
10 8 12 1
11 9 10 1
12 10 11 1
13 10 13 1
14 10 17 1
15 11 12 1
16 13 14 1
17 14 15 2
18 15 16 1
19 15 19 1
20 16 17 1
21 17 18 2
22 19 20 2
23 19 24 1
24 20 21 1
25 20 25 1
26 21 22 2
27 22 23 1
28 23 24 2
29 3 26 1
30 5 27 1
31 6 28 1
32 7 29 1
33 9 30 1
34 11 31 1
35 12 32 1
36 13 33 1
37 16 34 1
38 21 35 1
39 22 36 1
40 23 37 1
41 24 38 1
42 25 39 1
43 25 40 1
@<TRIPOS>SUBSTRUCTURE
1	UNK0	1	GROUP	1 ****	UNK
