# created with PyMOL 2.3.2
@<TRIPOS>MOLECULE
160
39 42 1                 
SMALL
USER_CHARGES
@<TRIPOS>ATOM
1	  Br	-1.471	5.843	2.542	Br	1	UNK0	0.000	
2	   C	0.123	5.095	1.783	C.2	1	UNK0	0.000	
3	   C	0.050	4.378	0.582	C.2	1	UNK0	0.000	
4	   C	1.165	3.823	0.001	C.2	1	UNK0	0.000	
5	   C	2.372	4.015	0.673	C.2	1	UNK0	0.000	
6	   C	2.464	4.717	1.856	C.2	1	UNK0	0.000	
7	   C	1.332	5.264	2.420	C.2	1	UNK0	0.000	
8	   C	1.111	3.047	-1.261	C.3	1	UNK0	0.000	
9	   C	0.493	1.702	-1.345	C.3	1	UNK0	0.000	
10	   C	-0.140	2.929	-1.998	C.3	1	UNK0	0.000	
11	   C	-0.154	1.036	-0.214	C.2	1	UNK0	0.000	
12	   O	-0.685	1.671	0.749	O.2	1	UNK0	0.000	
13	   N	-0.197	-0.385	-0.180	N.pl3	1	UNK0	0.000	
14	   C	-0.805	-1.154	0.879	C.3	1	UNK0	0.000	
15	   C	-0.535	-2.591	0.586	C.3	1	UNK0	0.000	
16	   N	-1.536	-3.490	1.072	N.pl3	1	UNK0	0.000	
17	   C	-0.919	-4.469	1.888	C.2	1	UNK0	0.000	
18	   O	-1.450	-5.440	2.504	O.2	1	UNK0	0.000	
19	   N	0.493	-4.219	1.946	N.pl3	1	UNK0	0.000	
20	   C	0.755	-3.067	1.153	C.2	1	UNK0	0.000	
21	   O	1.845	-2.515	0.939	O.2	1	UNK0	0.000	
22	   C	-0.412	-2.620	-0.922	C.3	1	UNK0	0.000	
23	   C	0.344	-1.312	-1.170	C.3	1	UNK0	0.000	
24	   H	-0.911	4.272	0.101	 H	1	UNK0	0.000	
25	   H	3.257	3.568	0.201	 H	1	UNK0	0.000	
26	   H	3.396	4.857	2.361	 H	1	UNK0	0.000	
27	   H	1.369	5.828	3.359	 H	1	UNK0	0.000	
28	   H	2.085	3.123	-1.831	 H	1	UNK0	0.000	
29	   H	0.929	0.997	-2.117	 H	1	UNK0	0.000	
30	   H	-1.119	3.178	-1.593	 H	1	UNK0	0.000	
31	   H	-0.071	3.031	-3.114	 H	1	UNK0	0.000	
32	   H	-0.403	-0.910	1.873	 H	1	UNK0	0.000	
33	   H	-1.900	-0.956	0.918	 H	1	UNK0	0.000	
34	   H	-2.545	-3.444	0.869	 H	1	UNK0	0.000	
35	   H	1.206	-4.771	2.468	 H	1	UNK0	0.000	
36	   H	-1.405	-2.619	-1.372	 H	1	UNK0	0.000	
37	   H	0.234	-3.447	-1.281	 H	1	UNK0	0.000	
38	   H	1.423	-1.442	-1.094	 H	1	UNK0	0.000	
39	   H	0.106	-1.009	-2.204	 H	1	UNK0	0.000	
@<TRIPOS>BOND
1 1 2 1
2 2 3 2
3 2 7 1
4 3 4 1
5 4 5 2
6 4 8 1
7 5 6 1
8 6 7 2
9 8 9 1
10 8 10 1
11 9 10 1
12 9 11 1
13 11 12 2
14 11 13 1
15 13 14 1
16 13 23 1
17 14 15 1
18 15 16 1
19 15 20 1
20 15 22 1
21 16 17 1
22 17 18 2
23 17 19 1
24 19 20 1
25 20 21 2
26 22 23 1
27 3 24 1
28 5 25 1
29 6 26 1
30 7 27 1
31 8 28 1
32 9 29 1
33 10 30 1
34 10 31 1
35 14 32 1
36 14 33 1
37 16 34 1
38 19 35 1
39 22 36 1
40 22 37 1
41 23 38 1
42 23 39 1
@<TRIPOS>SUBSTRUCTURE
1	UNK0	1	GROUP	1 ****	UNK
