# created with PyMOL 2.3.2
@<TRIPOS>MOLECULE
161
35 38 1                 
SMALL
USER_CHARGES
@<TRIPOS>ATOM
1	  Br	-4.359	4.609	0.467	Br	1	UNK0	0.000	
2	   C	-2.661	3.933	0.988	C.2	1	UNK0	0.000	
3	   C	-2.417	2.581	0.969	C.2	1	UNK0	0.000	
4	   C	-1.187	2.042	1.343	C.2	1	UNK0	0.000	
5	   C	-0.219	2.942	1.735	C.2	1	UNK0	0.000	
6	   C	-0.468	4.299	1.752	C.2	1	UNK0	0.000	
7	   C	-1.692	4.826	1.380	C.2	1	UNK0	0.000	
8	   C	-0.929	0.588	1.332	C.3	1	UNK0	0.000	
9	   C	-1.992	-0.208	2.009	C.3	1	UNK0	0.000	
10	   C	-1.479	-1.634	2.049	C.2	1	UNK0	0.000	
11	   O	-1.416	-2.259	3.120	O.2	1	UNK0	0.000	
12	   N	-1.072	-2.241	0.834	N.pl3	1	UNK0	0.000	
13	   C	-0.616	-1.331	-0.181	C.2	1	UNK0	0.000	
14	   C	-0.579	0.024	0.032	C.2	1	UNK0	0.000	
15	   C	-0.162	0.813	-1.033	C.2	1	UNK0	0.000	
16	   O	-0.130	2.054	-0.840	O.2	1	UNK0	0.000	
17	   N	0.178	0.239	-2.188	N.pl3	1	UNK0	0.000	
18	   C	0.144	-1.087	-2.397	C.2	1	UNK0	0.000	
19	   N	-0.254	-1.870	-1.390	N.pl3	1	UNK0	0.000	
20	   N	-0.214	-3.116	-1.801	N.2	1	UNK0	0.000	
21	   C	0.207	-3.186	-3.078	C.2	1	UNK0	0.000	
22	   N	0.431	-1.895	-3.444	N.2	1	UNK0	0.000	
23	   C	0.610	1.102	-3.282	C.3	1	UNK0	0.000	
24	   H	-3.168	1.854	0.663	 H	1	UNK0	0.000	
25	   H	0.772	2.582	2.042	 H	1	UNK0	0.000	
26	   H	0.299	5.014	2.063	 H	1	UNK0	0.000	
27	   H	-1.855	5.900	1.405	 H	1	UNK0	0.000	
28	   H	-0.001	0.448	1.978	 H	1	UNK0	0.000	
29	   H	-2.079	0.158	3.061	 H	1	UNK0	0.000	
30	   H	-2.970	-0.158	1.491	 H	1	UNK0	0.000	
31	   H	-1.083	-3.243	0.645	 H	1	UNK0	0.000	
32	   H	0.344	-4.076	-3.696	 H	1	UNK0	0.000	
33	   H	1.372	1.806	-2.860	 H	1	UNK0	0.000	
34	   H	1.152	0.495	-4.057	 H	1	UNK0	0.000	
35	   H	-0.242	1.647	-3.718	 H	1	UNK0	0.000	
@<TRIPOS>BOND
1 1 2 1
2 2 3 2
3 2 7 1
4 3 4 1
5 4 5 2
6 4 8 1
7 5 6 1
8 6 7 2
9 8 9 1
10 8 14 1
11 9 10 1
12 10 11 2
13 10 12 1
14 12 13 1
15 13 14 2
16 13 19 1
17 14 15 1
18 15 16 2
19 15 17 1
20 17 18 1
21 17 23 1
22 18 19 1
23 18 22 2
24 19 20 1
25 20 21 2
26 21 22 1
27 3 24 1
28 5 25 1
29 6 26 1
30 7 27 1
31 8 28 1
32 9 29 1
33 9 30 1
34 12 31 1
35 21 32 1
36 23 33 1
37 23 34 1
38 23 35 1
@<TRIPOS>SUBSTRUCTURE
1	UNK0	1	GROUP	1 ****	UNK
