# created with PyMOL 2.3.2
@<TRIPOS>MOLECULE
172
60 63 1                 
SMALL
USER_CHARGES
@<TRIPOS>ATOM
1	  Br	2.024	-3.369	6.248	Br	1	UNK0	0.000	
2	   C	2.461	-2.444	4.650	C.2	1	UNK0	0.000	
3	   C	1.417	-1.980	3.842	C.2	1	UNK0	0.000	
4	   C	1.677	-1.304	2.672	C.2	1	UNK0	0.000	
5	   C	3.002	-1.111	2.348	C.2	1	UNK0	0.000	
6	   C	4.056	-1.569	3.148	C.2	1	UNK0	0.000	
7	   C	3.782	-2.246	4.316	C.2	1	UNK0	0.000	
8	   C	0.602	-0.784	1.768	C.3	1	UNK0	0.000	
9	   N	-0.451	-1.757	1.556	N.pl3	1	UNK0	0.000	
10	   C	0.062	-2.623	0.522	C.2	1	UNK0	0.000	
11	   O	-0.377	-3.790	0.335	O.2	1	UNK0	0.000	
12	   C	1.120	-1.908	-0.204	C.2	1	UNK0	0.000	
13	   O	1.772	-2.357	-1.161	O.2	1	UNK0	0.000	
14	   C	1.223	-0.596	0.430	C.2	1	UNK0	0.000	
15	   C	1.694	0.516	-0.067	C.2	1	UNK0	0.000	
16	   O	1.609	1.674	0.735	O.2	1	UNK0	0.000	
17	   C	2.296	0.571	-1.393	C.2	1	UNK0	0.000	
18	   C	1.787	1.440	-2.366	C.2	1	UNK0	0.000	
19	   C	2.330	1.575	-3.614	C.2	1	UNK0	0.000	
20	   C	3.437	0.830	-3.960	C.2	1	UNK0	0.000	
21	   C	3.954	-0.031	-3.016	C.2	1	UNK0	0.000	
22	   C	3.398	-0.168	-1.737	C.2	1	UNK0	0.000	
23	   O	1.825	2.436	-4.579	O.3	1	UNK0	0.000	
24	   C	0.698	3.207	-4.256	C.3	1	UNK0	0.000	
25	   C	-1.718	-1.799	2.244	C.3	1	UNK0	0.000	
26	   C	-2.676	-0.952	1.414	C.3	1	UNK0	0.000	
27	   C	-4.044	-0.907	2.020	C.3	1	UNK0	0.000	
28	   N	-4.917	-0.091	1.193	N.4	1	UNK0	0.000	
29	   C	-5.333	-0.772	-0.001	C.3	1	UNK0	0.000	
30	   C	-4.759	-0.292	-1.271	C.3	1	UNK0	0.000	
31	   O	-3.689	0.554	-1.177	O.3	1	UNK0	0.000	
32	   C	-3.897	1.593	-0.308	C.3	1	UNK0	0.000	
33	   C	-4.458	1.247	1.011	C.3	1	UNK0	0.000	
34	   H	0.387	-2.146	4.119	 H	1	UNK0	0.000	
35	   H	3.243	-0.579	1.426	 H	1	UNK0	0.000	
36	   H	5.081	-1.379	2.824	 H	1	UNK0	0.000	
37	   H	4.600	-2.600	4.934	 H	1	UNK0	0.000	
38	   H	0.214	0.136	2.222	 H	1	UNK0	0.000	
39	   H	0.921	2.021	-2.093	 H	1	UNK0	0.000	
40	   H	3.895	0.911	-4.943	 H	1	UNK0	0.000	
41	   H	4.818	-0.617	-3.273	 H	1	UNK0	0.000	
42	   H	3.872	-0.840	-1.038	 H	1	UNK0	0.000	
43	   H	0.422	3.927	-5.041	 H	1	UNK0	0.000	
44	   H	0.832	3.711	-3.262	 H	1	UNK0	0.000	
45	   H	-0.162	2.516	-4.133	 H	1	UNK0	0.000	
46	   H	-2.154	-2.815	2.275	 H	1	UNK0	0.000	
47	   H	-1.647	-1.368	3.242	 H	1	UNK0	0.000	
48	   H	-2.759	-1.466	0.436	 H	1	UNK0	0.000	
49	   H	-2.251	0.051	1.370	 H	1	UNK0	0.000	
50	   H	-4.057	-0.448	3.030	 H	1	UNK0	0.000	
51	   H	-4.511	-1.903	2.105	 H	1	UNK0	0.000	
52	   H	-5.805	-0.010	1.787	 H	1	UNK0	0.000	
53	   H	-6.452	-0.808	-0.119	 H	1	UNK0	0.000	
54	   H	-5.047	-1.856	0.138	 H	1	UNK0	0.000	
55	   H	-5.538	0.226	-1.905	 H	1	UNK0	0.000	
56	   H	-4.438	-1.162	-1.917	 H	1	UNK0	0.000	
57	   H	-2.908	2.129	-0.205	 H	1	UNK0	0.000	
58	   H	-4.540	2.345	-0.854	 H	1	UNK0	0.000	
59	   H	-5.252	2.015	1.256	 H	1	UNK0	0.000	
60	   H	-3.678	1.435	1.808	 H	1	UNK0	0.000	
@<TRIPOS>BOND
1 1 2 1
2 2 3 2
3 2 7 1
4 3 4 1
5 4 5 2
6 4 8 1
7 5 6 1
8 6 7 2
9 8 9 1
10 8 14 1
11 9 10 1
12 9 25 1
13 10 11 2
14 10 12 1
15 12 13 2
16 12 14 1
17 14 15 2
18 15 16 1
19 15 17 1
20 17 18 2
21 17 22 1
22 18 19 1
23 19 20 2
24 19 23 1
25 20 21 1
26 21 22 2
27 23 24 1
28 25 26 1
29 26 27 1
30 27 28 1
31 28 29 1
32 28 33 1
33 29 30 1
34 30 31 1
35 31 32 1
36 32 33 1
37 3 34 1
38 5 35 1
39 6 36 1
40 7 37 1
41 8 38 1
42 18 39 1
43 20 40 1
44 21 41 1
45 22 42 1
46 24 43 1
47 24 44 1
48 24 45 1
49 25 46 1
50 25 47 1
51 26 48 1
52 26 49 1
53 27 50 1
54 27 51 1
55 28 52 1
56 29 53 1
57 29 54 1
58 30 55 1
59 30 56 1
60 32 57 1
61 32 58 1
62 33 59 1
63 33 60 1
@<TRIPOS>SUBSTRUCTURE
1	UNK0	1	GROUP	1 ****	UNK
