# created with PyMOL 2.3.2
@<TRIPOS>MOLECULE
175
56 59 1                 
SMALL
USER_CHARGES
@<TRIPOS>ATOM
1	  Br	-3.083	0.093	-4.215	Br	1	UNK0	0.000	
2	   C	-1.435	0.762	-3.519	C.2	1	UNK0	0.000	
3	   C	-1.062	0.525	-2.200	C.2	1	UNK0	0.000	
4	   C	0.121	0.994	-1.668	C.2	1	UNK0	0.000	
5	   C	0.934	1.726	-2.522	C.2	1	UNK0	0.000	
6	   C	0.583	1.973	-3.832	C.2	1	UNK0	0.000	
7	   C	-0.604	1.485	-4.316	C.2	1	UNK0	0.000	
8	   C	0.518	0.738	-0.255	C.3	1	UNK0	0.000	
9	   N	0.306	-0.621	0.145	N.pl3	1	UNK0	0.000	
10	   C	-1.011	-0.681	0.671	C.2	1	UNK0	0.000	
11	   O	-1.697	-1.723	0.818	O.2	1	UNK0	0.000	
12	   C	-1.457	0.687	1.026	C.2	1	UNK0	0.000	
13	   O	-2.547	1.030	1.514	O.2	1	UNK0	0.000	
14	   C	-0.342	1.548	0.680	C.2	1	UNK0	0.000	
15	   C	-0.089	2.761	1.120	C.2	1	UNK0	0.000	
16	   O	1.065	3.406	0.729	O.2	1	UNK0	0.000	
17	   C	-0.994	3.450	2.004	C.2	1	UNK0	0.000	
18	   C	-2.301	3.754	1.755	C.2	1	UNK0	0.000	
19	   C	-3.068	4.386	2.716	C.2	1	UNK0	0.000	
20	   C	-2.589	4.746	3.955	C.2	1	UNK0	0.000	
21	   C	-1.268	4.439	4.205	C.2	1	UNK0	0.000	
22	   C	-0.489	3.812	3.264	C.2	1	UNK0	0.000	
23	   C	-3.437	5.427	4.973	C.3	1	UNK0	0.000	
24	   C	1.240	-1.760	0.044	C.3	1	UNK0	0.000	
25	   C	1.013	-2.406	-1.294	C.3	1	UNK0	0.000	
26	   N	1.831	-3.531	-1.570	N.4	1	UNK0	0.000	
27	   C	2.467	-4.141	-0.439	C.3	1	UNK0	0.000	
28	   C	1.674	-5.252	0.193	C.3	1	UNK0	0.000	
29	   O	1.066	-6.088	-0.717	O.3	1	UNK0	0.000	
30	   C	0.245	-5.407	-1.585	C.3	1	UNK0	0.000	
31	   C	1.103	-4.467	-2.389	C.3	1	UNK0	0.000	
32	   H	-1.727	-0.042	-1.599	 H	1	UNK0	0.000	
33	   H	1.867	2.115	-2.158	 H	1	UNK0	0.000	
34	   H	1.240	2.547	-4.471	 H	1	UNK0	0.000	
35	   H	-0.884	1.679	-5.354	 H	1	UNK0	0.000	
36	   H	1.576	0.976	-0.145	 H	1	UNK0	0.000	
37	   H	-2.699	3.510	0.775	 H	1	UNK0	0.000	
38	   H	-4.103	4.615	2.492	 H	1	UNK0	0.000	
39	   H	-0.877	4.723	5.188	 H	1	UNK0	0.000	
40	   H	0.544	3.599	3.526	 H	1	UNK0	0.000	
41	   H	-4.513	5.116	4.888	 H	1	UNK0	0.000	
42	   H	-3.132	5.066	5.999	 H	1	UNK0	0.000	
43	   H	-3.325	6.511	4.975	 H	1	UNK0	0.000	
44	   H	2.282	-1.366	0.049	 H	1	UNK0	0.000	
45	   H	1.005	-2.396	0.899	 H	1	UNK0	0.000	
46	   H	1.123	-1.581	-2.058	 H	1	UNK0	0.000	
47	   H	-0.071	-2.674	-1.340	 H	1	UNK0	0.000	
48	   H	2.615	-3.185	-2.201	 H	1	UNK0	0.000	
49	   H	2.692	-3.410	0.364	 H	1	UNK0	0.000	
50	   H	3.449	-4.578	-0.726	 H	1	UNK0	0.000	
51	   H	2.377	-5.885	0.796	 H	1	UNK0	0.000	
52	   H	0.914	-4.900	0.910	 H	1	UNK0	0.000	
53	   H	-0.604	-4.899	-1.089	 H	1	UNK0	0.000	
54	   H	-0.193	-6.139	-2.294	 H	1	UNK0	0.000	
55	   H	0.503	-3.859	-3.109	 H	1	UNK0	0.000	
56	   H	1.794	-5.080	-3.005	 H	1	UNK0	0.000	
@<TRIPOS>BOND
1 1 2 1
2 2 3 2
3 2 7 1
4 3 4 1
5 4 5 2
6 4 8 1
7 5 6 1
8 6 7 2
9 8 9 1
10 8 14 1
11 9 10 1
12 9 24 1
13 10 11 2
14 10 12 1
15 12 13 2
16 12 14 1
17 14 15 2
18 15 16 1
19 15 17 1
20 17 18 2
21 17 22 1
22 18 19 1
23 19 20 2
24 20 21 1
25 20 23 1
26 21 22 2
27 24 25 1
28 25 26 1
29 26 27 1
30 26 31 1
31 27 28 1
32 28 29 1
33 29 30 1
34 30 31 1
35 3 32 1
36 5 33 1
37 6 34 1
38 7 35 1
39 8 36 1
40 18 37 1
41 19 38 1
42 21 39 1
43 22 40 1
44 23 41 1
45 23 42 1
46 23 43 1
47 24 44 1
48 24 45 1
49 25 46 1
50 25 47 1
51 26 48 1
52 27 49 1
53 27 50 1
54 28 51 1
55 28 52 1
56 30 53 1
57 30 54 1
58 31 55 1
59 31 56 1
@<TRIPOS>SUBSTRUCTURE
1	UNK0	1	GROUP	1 ****	UNK
