# created with PyMOL 2.3.2
@<TRIPOS>MOLECULE
181
57 60 1                 
SMALL
USER_CHARGES
@<TRIPOS>ATOM
1	  Br	-5.107	0.403	-2.978	Br	1	UNK0	0.000	
2	   C	-4.351	0.874	-1.298	C.2	1	UNK0	0.000	
3	   C	-3.370	0.130	-0.675	C.2	1	UNK0	0.000	
4	   C	-2.842	0.509	0.555	C.2	1	UNK0	0.000	
5	   C	-3.349	1.663	1.117	C.2	1	UNK0	0.000	
6	   C	-4.315	2.420	0.532	C.2	1	UNK0	0.000	
7	   C	-4.827	2.031	-0.687	C.2	1	UNK0	0.000	
8	   C	-1.793	-0.275	1.236	C.3	1	UNK0	0.000	
9	   N	-2.080	-1.722	1.213	N.pl3	1	UNK0	0.000	
10	   C	-1.425	-2.245	0.067	C.2	1	UNK0	0.000	
11	   O	-1.633	-3.340	-0.542	O.2	1	UNK0	0.000	
12	   C	-0.398	-1.312	-0.380	C.2	1	UNK0	0.000	
13	   O	0.370	-1.451	-1.364	O.2	1	UNK0	0.000	
14	   C	-0.466	-0.195	0.562	C.2	1	UNK0	0.000	
15	   C	0.484	0.700	0.691	C.2	1	UNK0	0.000	
16	   O	0.233	1.755	1.590	O.2	1	UNK0	0.000	
17	   C	1.763	0.692	-0.004	C.2	1	UNK0	0.000	
18	   N	2.256	1.694	-0.768	N.pl3	1	UNK0	0.000	
19	   C	3.468	1.329	-1.188	C.2	1	UNK0	0.000	
20	   N	3.790	0.114	-0.722	N.2	1	UNK0	0.000	
21	   C	2.727	-0.288	0.020	C.2	1	UNK0	0.000	
22	   C	2.683	-1.576	0.754	C.3	1	UNK0	0.000	
23	   C	4.186	2.209	-2.003	C.2	1	UNK0	0.000	
24	   C	3.653	3.418	-2.361	C.2	1	UNK0	0.000	
25	   C	2.396	3.750	-1.902	C.2	1	UNK0	0.000	
26	   C	1.696	2.870	-1.095	C.2	1	UNK0	0.000	
27	   C	5.534	1.832	-2.484	C.3	1	UNK0	0.000	
28	   C	-2.864	-2.465	2.144	C.3	1	UNK0	0.000	
29	   C	-2.175	-3.034	3.319	C.3	1	UNK0	0.000	
30	   N	-1.126	-3.971	3.091	N.4	1	UNK0	0.000	
31	   C	-1.440	-5.047	2.197	C.3	1	UNK0	0.000	
32	   C	0.099	-3.357	2.649	C.3	1	UNK0	0.000	
33	   H	-2.998	-0.780	-1.160	 H	1	UNK0	0.000	
34	   H	-2.917	1.944	2.091	 H	1	UNK0	0.000	
35	   H	-4.666	3.323	1.040	 H	1	UNK0	0.000	
36	   H	-5.592	2.655	-1.122	 H	1	UNK0	0.000	
37	   H	-1.767	0.009	2.299	 H	1	UNK0	0.000	
38	   H	1.958	-1.421	1.597	 H	1	UNK0	0.000	
39	   H	3.674	-1.667	1.263	 H	1	UNK0	0.000	
40	   H	2.456	-2.424	0.110	 H	1	UNK0	0.000	
41	   H	4.233	4.088	-2.999	 H	1	UNK0	0.000	
42	   H	1.970	4.717	-2.188	 H	1	UNK0	0.000	
43	   H	0.712	3.110	-0.726	 H	1	UNK0	0.000	
44	   H	6.335	2.452	-2.052	 H	1	UNK0	0.000	
45	   H	5.629	1.916	-3.588	 H	1	UNK0	0.000	
46	   H	5.750	0.773	-2.227	 H	1	UNK0	0.000	
47	   H	-3.704	-1.777	2.476	 H	1	UNK0	0.000	
48	   H	-3.399	-3.275	1.604	 H	1	UNK0	0.000	
49	   H	-2.966	-3.562	3.934	 H	1	UNK0	0.000	
50	   H	-1.778	-2.267	4.023	 H	1	UNK0	0.000	
51	   H	-0.909	-4.419	4.042	 H	1	UNK0	0.000	
52	   H	-2.483	-5.062	1.838	 H	1	UNK0	0.000	
53	   H	-1.301	-6.008	2.732	 H	1	UNK0	0.000	
54	   H	-0.711	-5.109	1.338	 H	1	UNK0	0.000	
55	   H	0.870	-3.497	3.432	 H	1	UNK0	0.000	
56	   H	-0.053	-2.245	2.607	 H	1	UNK0	0.000	
57	   H	0.454	-3.747	1.663	 H	1	UNK0	0.000	
@<TRIPOS>BOND
1 1 2 1
2 2 3 2
3 2 7 1
4 3 4 1
5 4 5 2
6 4 8 1
7 5 6 1
8 6 7 2
9 8 9 1
10 8 14 1
11 9 10 1
12 9 28 1
13 10 11 2
14 10 12 1
15 12 13 2
16 12 14 1
17 14 15 2
18 15 16 1
19 15 17 1
20 17 18 1
21 17 21 2
22 18 19 1
23 18 26 1
24 19 20 2
25 19 23 1
26 20 21 1
27 21 22 1
28 23 24 2
29 23 27 1
30 24 25 1
31 25 26 2
32 28 29 1
33 29 30 1
34 30 31 1
35 30 32 1
36 3 33 1
37 5 34 1
38 6 35 1
39 7 36 1
40 8 37 1
41 22 38 1
42 22 39 1
43 22 40 1
44 24 41 1
45 25 42 1
46 26 43 1
47 27 44 1
48 27 45 1
49 27 46 1
50 28 47 1
51 28 48 1
52 29 49 1
53 29 50 1
54 30 51 1
55 31 52 1
56 31 53 1
57 31 54 1
58 32 55 1
59 32 56 1
60 32 57 1
@<TRIPOS>SUBSTRUCTURE
1	UNK0	1	GROUP	1 ****	UNK
