# created with PyMOL 2.3.2
@<TRIPOS>MOLECULE
184
57 60 1                 
SMALL
USER_CHARGES
@<TRIPOS>ATOM
1	  Br	1.726	-3.205	3.391	Br	1	UNK0	0.000	
2	   C	1.406	-1.352	3.121	C.2	1	UNK0	0.000	
3	   C	0.939	-0.912	1.882	C.2	1	UNK0	0.000	
4	   C	0.702	0.403	1.661	C.2	1	UNK0	0.000	
5	   C	0.940	1.300	2.708	C.2	1	UNK0	0.000	
6	   C	1.396	0.866	3.917	C.2	1	UNK0	0.000	
7	   C	1.643	-0.467	4.163	C.2	1	UNK0	0.000	
8	   C	0.204	0.952	0.394	C.3	1	UNK0	0.000	
9	   N	-0.993	0.313	-0.117	N.pl3	1	UNK0	0.000	
10	   C	-1.021	0.635	-1.514	C.2	1	UNK0	0.000	
11	   O	-2.014	0.689	-2.261	O.2	1	UNK0	0.000	
12	   C	0.356	0.894	-1.917	C.2	1	UNK0	0.000	
13	   O	0.837	1.217	-3.044	O.2	1	UNK0	0.000	
14	   C	1.169	0.712	-0.724	C.2	1	UNK0	0.000	
15	   C	2.460	0.446	-0.700	C.2	1	UNK0	0.000	
16	   O	3.050	0.377	0.570	O.2	1	UNK0	0.000	
17	   C	3.292	0.218	-1.872	C.2	1	UNK0	0.000	
18	   N	3.102	-0.682	-2.848	N.pl3	1	UNK0	0.000	
19	   C	4.063	-0.572	-3.801	C.2	1	UNK0	0.000	
20	   N	4.867	0.441	-3.374	N.2	1	UNK0	0.000	
21	   C	4.442	0.940	-2.226	C.2	1	UNK0	0.000	
22	   C	4.971	2.032	-1.379	C.3	1	UNK0	0.000	
23	   C	4.113	-1.391	-4.918	C.2	1	UNK0	0.000	
24	   C	3.157	-2.370	-5.093	C.2	1	UNK0	0.000	
25	   C	2.178	-2.477	-4.112	C.2	1	UNK0	0.000	
26	   C	2.160	-1.655	-3.028	C.2	1	UNK0	0.000	
27	   C	-1.985	-0.480	0.613	C.3	1	UNK0	0.000	
28	   C	-3.086	0.331	1.191	C.3	1	UNK0	0.000	
29	   C	-3.948	1.101	0.278	C.3	1	UNK0	0.000	
30	   N	-4.683	0.358	-0.685	N.4	1	UNK0	0.000	
31	   C	-5.169	1.235	-1.723	C.3	1	UNK0	0.000	
32	   C	-5.885	-0.210	-0.046	C.3	1	UNK0	0.000	
33	   H	0.784	-1.645	1.126	 H	1	UNK0	0.000	
34	   H	0.755	2.352	2.543	 H	1	UNK0	0.000	
35	   H	1.584	1.564	4.742	 H	1	UNK0	0.000	
36	   H	2.011	-0.822	5.136	 H	1	UNK0	0.000	
37	   H	0.005	2.021	0.451	 H	1	UNK0	0.000	
38	   H	6.021	2.209	-1.707	 H	1	UNK0	0.000	
39	   H	5.048	1.704	-0.315	 H	1	UNK0	0.000	
40	   H	4.410	2.975	-1.472	 H	1	UNK0	0.000	
41	   H	4.900	-1.261	-5.647	 H	1	UNK0	0.000	
42	   H	3.139	-3.041	-5.942	 H	1	UNK0	0.000	
43	   H	1.407	-3.247	-4.228	 H	1	UNK0	0.000	
44	   H	1.401	-1.728	-2.237	 H	1	UNK0	0.000	
45	   H	-2.329	-1.329	-0.016	 H	1	UNK0	0.000	
46	   H	-1.455	-0.951	1.464	 H	1	UNK0	0.000	
47	   H	-3.721	-0.262	1.898	 H	1	UNK0	0.000	
48	   H	-2.589	1.083	1.878	 H	1	UNK0	0.000	
49	   H	-4.693	1.652	0.916	 H	1	UNK0	0.000	
50	   H	-3.355	1.931	-0.207	 H	1	UNK0	0.000	
51	   H	-4.183	-0.477	-1.061	 H	1	UNK0	0.000	
52	   H	-6.277	1.261	-1.796	 H	1	UNK0	0.000	
53	   H	-4.838	2.264	-1.482	 H	1	UNK0	0.000	
54	   H	-4.747	1.003	-2.718	 H	1	UNK0	0.000	
55	   H	-5.594	-0.941	0.742	 H	1	UNK0	0.000	
56	   H	-6.515	0.619	0.360	 H	1	UNK0	0.000	
57	   H	-6.497	-0.772	-0.775	 H	1	UNK0	0.000	
@<TRIPOS>BOND
1 1 2 1
2 2 3 2
3 2 7 1
4 3 4 1
5 4 5 2
6 4 8 1
7 5 6 1
8 6 7 2
9 8 9 1
10 8 14 1
11 9 10 1
12 9 27 1
13 10 11 2
14 10 12 1
15 12 13 2
16 12 14 1
17 14 15 2
18 15 16 1
19 15 17 1
20 17 18 1
21 17 21 2
22 18 19 1
23 18 26 1
24 19 20 2
25 19 23 1
26 20 21 1
27 21 22 1
28 23 24 2
29 24 25 1
30 25 26 2
31 27 28 1
32 28 29 1
33 29 30 1
34 30 31 1
35 30 32 1
36 3 33 1
37 5 34 1
38 6 35 1
39 7 36 1
40 8 37 1
41 22 38 1
42 22 39 1
43 22 40 1
44 23 41 1
45 24 42 1
46 25 43 1
47 26 44 1
48 27 45 1
49 27 46 1
50 28 47 1
51 28 48 1
52 29 49 1
53 29 50 1
54 30 51 1
55 31 52 1
56 31 53 1
57 31 54 1
58 32 55 1
59 32 56 1
60 32 57 1
@<TRIPOS>SUBSTRUCTURE
1	UNK0	1	GROUP	1 ****	UNK
