# created with PyMOL 2.3.2
@<TRIPOS>MOLECULE
185
62 66 1                 
SMALL
USER_CHARGES
@<TRIPOS>ATOM
1	  Br	4.957	2.337	-0.420	Br	1	UNK0	0.000	
2	   C	3.533	1.298	-1.113	C.2	1	UNK0	0.000	
3	   C	2.373	1.179	-0.418	C.2	1	UNK0	0.000	
4	   C	1.318	0.413	-0.927	C.2	1	UNK0	0.000	
5	   C	1.478	-0.220	-2.149	C.2	1	UNK0	0.000	
6	   C	2.650	-0.105	-2.861	C.2	1	UNK0	0.000	
7	   C	3.677	0.652	-2.345	C.2	1	UNK0	0.000	
8	   C	0.072	0.289	-0.165	C.3	1	UNK0	0.000	
9	   N	-0.386	-1.076	-0.144	N.pl3	1	UNK0	0.000	
10	   C	-1.297	-1.299	-1.205	C.2	1	UNK0	0.000	
11	   O	-1.685	-2.376	-1.727	O.2	1	UNK0	0.000	
12	   C	-1.765	0.028	-1.649	C.2	1	UNK0	0.000	
13	   O	-2.572	0.239	-2.570	O.2	1	UNK0	0.000	
14	   C	-1.096	1.001	-0.806	C.2	1	UNK0	0.000	
15	   C	-1.420	2.261	-0.679	C.2	1	UNK0	0.000	
16	   O	-0.643	3.112	0.113	O.2	1	UNK0	0.000	
17	   C	-2.585	2.808	-1.338	C.2	1	UNK0	0.000	
18	   N	-3.875	2.387	-1.182	N.pl3	1	UNK0	0.000	
19	   C	-4.603	3.155	-2.004	C.2	1	UNK0	0.000	
20	   N	-3.801	4.030	-2.655	N.2	1	UNK0	0.000	
21	   C	-2.525	3.836	-2.255	C.2	1	UNK0	0.000	
22	   C	-1.314	4.595	-2.723	C.3	1	UNK0	0.000	
23	   C	-5.984	2.957	-2.048	C.2	1	UNK0	0.000	
24	   C	-6.562	1.995	-1.260	C.2	1	UNK0	0.000	
25	   C	-5.775	1.239	-0.438	C.2	1	UNK0	0.000	
26	   C	-4.416	1.425	-0.389	C.2	1	UNK0	0.000	
27	   C	0.010	-2.099	0.808	C.3	1	UNK0	0.000	
28	   C	1.218	-2.845	0.284	C.3	1	UNK0	0.000	
29	   C	1.692	-3.920	1.211	C.3	1	UNK0	0.000	
30	   N	2.083	-3.401	2.512	N.4	1	UNK0	0.000	
31	   C	2.566	-4.546	3.270	C.3	1	UNK0	0.000	
32	   C	3.066	-4.177	4.635	C.3	1	UNK0	0.000	
33	   O	4.102	-3.266	4.471	O.3	1	UNK0	0.000	
34	   C	3.704	-2.135	3.769	C.3	1	UNK0	0.000	
35	   C	3.175	-2.460	2.403	C.3	1	UNK0	0.000	
36	   H	2.235	1.671	0.544	 H	1	UNK0	0.000	
37	   H	0.676	-0.814	-2.559	 H	1	UNK0	0.000	
38	   H	2.789	-0.588	-3.806	 H	1	UNK0	0.000	
39	   H	4.627	0.793	-2.841	 H	1	UNK0	0.000	
40	   H	0.219	0.700	0.862	 H	1	UNK0	0.000	
41	   H	-0.490	3.937	-2.990	 H	1	UNK0	0.000	
42	   H	-1.639	5.256	-3.551	 H	1	UNK0	0.000	
43	   H	-0.987	5.229	-1.871	 H	1	UNK0	0.000	
44	   H	-6.561	3.598	-2.730	 H	1	UNK0	0.000	
45	   H	-7.632	1.828	-1.281	 H	1	UNK0	0.000	
46	   H	-6.164	0.454	0.216	 H	1	UNK0	0.000	
47	   H	-3.771	0.861	0.237	 H	1	UNK0	0.000	
48	   H	0.212	-1.634	1.807	 H	1	UNK0	0.000	
49	   H	-0.847	-2.782	0.946	 H	1	UNK0	0.000	
50	   H	0.910	-3.333	-0.668	 H	1	UNK0	0.000	
51	   H	2.051	-2.178	0.039	 H	1	UNK0	0.000	
52	   H	0.963	-4.750	1.320	 H	1	UNK0	0.000	
53	   H	2.590	-4.384	0.758	 H	1	UNK0	0.000	
54	   H	1.310	-2.928	3.008	 H	1	UNK0	0.000	
55	   H	3.407	-5.016	2.714	 H	1	UNK0	0.000	
56	   H	1.785	-5.332	3.361	 H	1	UNK0	0.000	
57	   H	3.490	-5.081	5.093	 H	1	UNK0	0.000	
58	   H	2.262	-3.736	5.254	 H	1	UNK0	0.000	
59	   H	4.610	-1.485	3.689	 H	1	UNK0	0.000	
60	   H	2.939	-1.540	4.299	 H	1	UNK0	0.000	
61	   H	2.746	-1.505	1.993	 H	1	UNK0	0.000	
62	   H	4.000	-2.835	1.764	 H	1	UNK0	0.000	
@<TRIPOS>BOND
1 1 2 1
2 2 3 2
3 2 7 1
4 3 4 1
5 4 5 2
6 4 8 1
7 5 6 1
8 6 7 2
9 8 9 1
10 8 14 1
11 9 10 1
12 9 27 1
13 10 11 2
14 10 12 1
15 12 13 2
16 12 14 1
17 14 15 2
18 15 16 1
19 15 17 1
20 17 18 1
21 17 21 2
22 18 19 1
23 18 26 1
24 19 20 2
25 19 23 1
26 20 21 1
27 21 22 1
28 23 24 2
29 24 25 1
30 25 26 2
31 27 28 1
32 28 29 1
33 29 30 1
34 30 31 1
35 30 35 1
36 31 32 1
37 32 33 1
38 33 34 1
39 34 35 1
40 3 36 1
41 5 37 1
42 6 38 1
43 7 39 1
44 8 40 1
45 22 41 1
46 22 42 1
47 22 43 1
48 23 44 1
49 24 45 1
50 25 46 1
51 26 47 1
52 27 48 1
53 27 49 1
54 28 50 1
55 28 51 1
56 29 52 1
57 29 53 1
58 30 54 1
59 31 55 1
60 31 56 1
61 32 57 1
62 32 58 1
63 34 59 1
64 34 60 1
65 35 61 1
66 35 62 1
@<TRIPOS>SUBSTRUCTURE
1	UNK0	1	GROUP	1 ****	UNK
