# created with PyMOL 2.3.2
@<TRIPOS>MOLECULE
186
60 63 1                 
SMALL
USER_CHARGES
@<TRIPOS>ATOM
1	  Br	1.591	0.642	4.906	Br	1	UNK0	0.000	
2	   C	1.031	1.367	3.220	C.2	1	UNK0	0.000	
3	   C	0.730	0.545	2.169	C.2	1	UNK0	0.000	
4	   C	0.329	1.083	0.958	C.2	1	UNK0	0.000	
5	   C	0.239	2.447	0.830	C.2	1	UNK0	0.000	
6	   C	0.540	3.310	1.887	C.2	1	UNK0	0.000	
7	   C	0.935	2.728	3.073	C.2	1	UNK0	0.000	
8	   C	0.004	0.142	-0.135	C.3	1	UNK0	0.000	
9	   N	0.592	0.494	-1.408	N.pl3	1	UNK0	0.000	
10	   C	-0.341	1.452	-1.955	C.2	1	UNK0	0.000	
11	   O	-0.078	2.304	-2.805	O.2	1	UNK0	0.000	
12	   C	-1.645	1.250	-1.341	C.2	1	UNK0	0.000	
13	   O	-2.741	1.852	-1.509	O.2	1	UNK0	0.000	
14	   C	-1.480	0.132	-0.399	C.2	1	UNK0	0.000	
15	   C	-2.412	-0.638	0.111	C.2	1	UNK0	0.000	
16	   O	-1.992	-1.598	1.049	O.2	1	UNK0	0.000	
17	   C	-3.818	-0.529	-0.263	C.2	1	UNK0	0.000	
18	   N	-4.313	-0.613	-1.510	N.pl3	1	UNK0	0.000	
19	   C	-5.642	-0.430	-1.448	C.2	1	UNK0	0.000	
20	   N	-5.977	-0.233	-0.167	N.2	1	UNK0	0.000	
21	   C	-4.890	-0.287	0.588	C.2	1	UNK0	0.000	
22	   C	-4.769	-0.130	2.045	C.3	1	UNK0	0.000	
23	   C	-6.409	-0.481	-2.621	C.2	1	UNK0	0.000	
24	   C	-5.850	-0.717	-3.858	C.2	1	UNK0	0.000	
25	   C	-4.483	-0.902	-3.881	C.2	1	UNK0	0.000	
26	   C	-3.754	-0.846	-2.723	C.2	1	UNK0	0.000	
27	   C	1.776	-0.025	-1.980	C.3	1	UNK0	0.000	
28	   C	3.061	0.655	-1.783	C.3	1	UNK0	0.000	
29	   N	3.545	0.782	-0.437	N.4	1	UNK0	0.000	
30	   C	4.878	0.173	-0.292	C.3	1	UNK0	0.000	
31	   C	4.774	-1.201	0.336	C.3	1	UNK0	0.000	
32	   C	3.760	2.195	-0.084	C.3	1	UNK0	0.000	
33	   C	3.981	2.383	1.385	C.3	1	UNK0	0.000	
34	   H	0.807	-0.557	2.285	 H	1	UNK0	0.000	
35	   H	-0.074	2.911	-0.105	 H	1	UNK0	0.000	
36	   H	0.459	4.379	1.749	 H	1	UNK0	0.000	
37	   H	1.179	3.378	3.924	 H	1	UNK0	0.000	
38	   H	0.319	-0.880	0.191	 H	1	UNK0	0.000	
39	   H	-5.655	-0.596	2.531	 H	1	UNK0	0.000	
40	   H	-3.812	-0.542	2.431	 H	1	UNK0	0.000	
41	   H	-4.857	0.965	2.273	 H	1	UNK0	0.000	
42	   H	-7.476	-0.328	-2.534	 H	1	UNK0	0.000	
43	   H	-6.435	-0.759	-4.770	 H	1	UNK0	0.000	
44	   H	-3.998	-1.092	-4.844	 H	1	UNK0	0.000	
45	   H	-2.689	-1.001	-2.799	 H	1	UNK0	0.000	
46	   H	1.613	-0.259	-3.081	 H	1	UNK0	0.000	
47	   H	1.900	-1.071	-1.550	 H	1	UNK0	0.000	
48	   H	3.843	0.058	-2.348	 H	1	UNK0	0.000	
49	   H	3.137	1.664	-2.244	 H	1	UNK0	0.000	
50	   H	2.973	0.305	0.287	 H	1	UNK0	0.000	
51	   H	5.563	0.786	0.300	 H	1	UNK0	0.000	
52	   H	5.287	0.059	-1.312	 H	1	UNK0	0.000	
53	   H	5.616	-1.397	1.034	 H	1	UNK0	0.000	
54	   H	4.806	-1.990	-0.439	 H	1	UNK0	0.000	
55	   H	3.783	-1.266	0.855	 H	1	UNK0	0.000	
56	   H	2.840	2.730	-0.387	 H	1	UNK0	0.000	
57	   H	4.576	2.620	-0.705	 H	1	UNK0	0.000	
58	   H	3.650	1.534	1.995	 H	1	UNK0	0.000	
59	   H	5.063	2.598	1.529	 H	1	UNK0	0.000	
60	   H	3.443	3.291	1.747	 H	1	UNK0	0.000	
@<TRIPOS>BOND
1 1 2 1
2 2 3 2
3 2 7 1
4 3 4 1
5 4 5 2
6 4 8 1
7 5 6 1
8 6 7 2
9 8 9 1
10 8 14 1
11 9 10 1
12 9 27 1
13 10 11 2
14 10 12 1
15 12 13 2
16 12 14 1
17 14 15 2
18 15 16 1
19 15 17 1
20 17 18 1
21 17 21 2
22 18 19 1
23 18 26 1
24 19 20 2
25 19 23 1
26 20 21 1
27 21 22 1
28 23 24 2
29 24 25 1
30 25 26 2
31 27 28 1
32 28 29 1
33 29 30 1
34 29 32 1
35 30 31 1
36 32 33 1
37 3 34 1
38 5 35 1
39 6 36 1
40 7 37 1
41 8 38 1
42 22 39 1
43 22 40 1
44 22 41 1
45 23 42 1
46 24 43 1
47 25 44 1
48 26 45 1
49 27 46 1
50 27 47 1
51 28 48 1
52 28 49 1
53 29 50 1
54 30 51 1
55 30 52 1
56 31 53 1
57 31 54 1
58 31 55 1
59 32 56 1
60 32 57 1
61 33 58 1
62 33 59 1
63 33 60 1
@<TRIPOS>SUBSTRUCTURE
1	UNK0	1	GROUP	1 ****	UNK
