# created with PyMOL 2.3.2
@<TRIPOS>MOLECULE
187
59 63 1                 
SMALL
USER_CHARGES
@<TRIPOS>ATOM
1	  Br	-2.312	3.080	2.612	Br	1	UNK0	0.000	
2	   C	-2.479	1.547	1.506	C.2	1	UNK0	0.000	
3	   C	-1.371	0.985	0.911	C.2	1	UNK0	0.000	
4	   C	-1.490	-0.145	0.091	C.2	1	UNK0	0.000	
5	   C	-2.773	-0.624	-0.058	C.2	1	UNK0	0.000	
6	   C	-3.896	-0.100	0.513	C.2	1	UNK0	0.000	
7	   C	-3.739	1.016	1.315	C.2	1	UNK0	0.000	
8	   C	-0.326	-0.695	-0.575	C.3	1	UNK0	0.000	
9	   N	0.333	-1.847	-0.140	N.pl3	1	UNK0	0.000	
10	   C	1.713	-1.467	0.147	C.2	1	UNK0	0.000	
11	   O	2.605	-2.167	0.689	O.2	1	UNK0	0.000	
12	   C	1.947	-0.102	-0.298	C.2	1	UNK0	0.000	
13	   O	3.039	0.551	-0.197	O.2	1	UNK0	0.000	
14	   C	0.705	0.354	-0.863	C.2	1	UNK0	0.000	
15	   C	0.520	1.507	-1.472	C.2	1	UNK0	0.000	
16	   O	-0.809	1.763	-1.884	O.2	1	UNK0	0.000	
17	   C	1.536	2.504	-1.753	C.2	1	UNK0	0.000	
18	   N	2.687	2.462	-2.442	N.pl3	1	UNK0	0.000	
19	   C	3.353	3.626	-2.407	C.2	1	UNK0	0.000	
20	   N	2.597	4.461	-1.660	N.2	1	UNK0	0.000	
21	   C	1.498	3.823	-1.250	C.2	1	UNK0	0.000	
22	   C	0.417	4.371	-0.419	C.3	1	UNK0	0.000	
23	   C	4.555	3.811	-3.063	C.2	1	UNK0	0.000	
24	   C	5.088	2.769	-3.773	C.2	1	UNK0	0.000	
25	   C	4.402	1.570	-3.810	C.2	1	UNK0	0.000	
26	   C	3.207	1.420	-3.146	C.2	1	UNK0	0.000	
27	   C	-0.137	-3.182	-0.067	C.3	1	UNK0	0.000	
28	   C	-0.522	-3.789	1.205	C.3	1	UNK0	0.000	
29	   N	-1.590	-3.239	1.987	N.4	1	UNK0	0.000	
30	   C	-2.190	-4.354	2.720	C.3	1	UNK0	0.000	
31	   C	-1.539	-4.595	4.044	C.3	1	UNK0	0.000	
32	   O	-0.335	-3.882	4.150	O.3	1	UNK0	0.000	
33	   C	-0.695	-2.553	4.143	C.3	1	UNK0	0.000	
34	   C	-1.197	-2.144	2.808	C.3	1	UNK0	0.000	
35	   H	-0.378	1.372	1.038	 H	1	UNK0	0.000	
36	   H	-2.898	-1.505	-0.692	 H	1	UNK0	0.000	
37	   H	-4.892	-0.510	0.367	 H	1	UNK0	0.000	
38	   H	-4.636	1.431	1.766	 H	1	UNK0	0.000	
39	   H	-0.736	-1.008	-1.635	 H	1	UNK0	0.000	
40	   H	-0.598	4.013	-0.702	 H	1	UNK0	0.000	
41	   H	0.653	4.146	0.648	 H	1	UNK0	0.000	
42	   H	0.410	5.478	-0.519	 H	1	UNK0	0.000	
43	   H	5.089	4.742	-3.033	 H	1	UNK0	0.000	
44	   H	6.027	2.830	-4.317	 H	1	UNK0	0.000	
45	   H	4.790	0.712	-4.364	 H	1	UNK0	0.000	
46	   H	2.651	0.471	-3.172	 H	1	UNK0	0.000	
47	   H	0.674	-3.832	-0.527	 H	1	UNK0	0.000	
48	   H	-0.987	-3.313	-0.793	 H	1	UNK0	0.000	
49	   H	-0.841	-4.852	0.951	 H	1	UNK0	0.000	
50	   H	0.363	-3.994	1.882	 H	1	UNK0	0.000	
51	   H	-2.394	-2.908	1.375	 H	1	UNK0	0.000	
52	   H	-3.252	-4.118	2.889	 H	1	UNK0	0.000	
53	   H	-2.160	-5.286	2.102	 H	1	UNK0	0.000	
54	   H	-2.207	-4.263	4.882	 H	1	UNK0	0.000	
55	   H	-1.288	-5.672	4.130	 H	1	UNK0	0.000	
56	   H	0.262	-1.991	4.390	 H	1	UNK0	0.000	
57	   H	-1.443	-2.350	4.965	 H	1	UNK0	0.000	
58	   H	-0.412	-1.507	2.326	 H	1	UNK0	0.000	
59	   H	-2.115	-1.506	2.991	 H	1	UNK0	0.000	
@<TRIPOS>BOND
1 1 2 1
2 2 3 2
3 2 7 1
4 3 4 1
5 4 5 2
6 4 8 1
7 5 6 1
8 6 7 2
9 8 9 1
10 8 14 1
11 9 10 1
12 9 27 1
13 10 11 2
14 10 12 1
15 12 13 2
16 12 14 1
17 14 15 2
18 15 16 1
19 15 17 1
20 17 18 1
21 17 21 2
22 18 19 1
23 18 26 1
24 19 20 2
25 19 23 1
26 20 21 1
27 21 22 1
28 23 24 2
29 24 25 1
30 25 26 2
31 27 28 1
32 28 29 1
33 29 30 1
34 29 34 1
35 30 31 1
36 31 32 1
37 32 33 1
38 33 34 1
39 3 35 1
40 5 36 1
41 6 37 1
42 7 38 1
43 8 39 1
44 22 40 1
45 22 41 1
46 22 42 1
47 23 43 1
48 24 44 1
49 25 45 1
50 26 46 1
51 27 47 1
52 27 48 1
53 28 49 1
54 28 50 1
55 29 51 1
56 30 52 1
57 30 53 1
58 31 54 1
59 31 55 1
60 33 56 1
61 33 57 1
62 34 58 1
63 34 59 1
@<TRIPOS>SUBSTRUCTURE
1	UNK0	1	GROUP	1 ****	UNK
