# created with PyMOL 2.3.2
@<TRIPOS>MOLECULE
188
53 56 1                 
SMALL
USER_CHARGES
@<TRIPOS>ATOM
1	  Br	-6.773	2.802	-0.121	Br	1	UNK0	0.000	
2	   C	-5.012	2.974	-0.861	C.2	1	UNK0	0.000	
3	   C	-3.997	2.091	-0.526	C.2	1	UNK0	0.000	
4	   C	-2.722	2.188	-1.038	C.2	1	UNK0	0.000	
5	   C	-2.468	3.219	-1.922	C.2	1	UNK0	0.000	
6	   C	-3.479	4.118	-2.270	C.2	1	UNK0	0.000	
7	   C	-4.752	4.002	-1.744	C.2	1	UNK0	0.000	
8	   C	-1.669	1.207	-0.641	C.3	1	UNK0	0.000	
9	   N	-1.682	0.971	0.795	N.pl3	1	UNK0	0.000	
10	   C	-1.092	2.179	1.331	C.2	1	UNK0	0.000	
11	   O	-1.262	2.645	2.478	O.2	1	UNK0	0.000	
12	   C	-0.252	2.784	0.306	C.2	1	UNK0	0.000	
13	   O	0.445	3.831	0.319	O.2	1	UNK0	0.000	
14	   C	-0.351	1.907	-0.860	C.2	1	UNK0	0.000	
15	   C	0.467	1.766	-1.863	C.2	1	UNK0	0.000	
16	   O	0.110	0.864	-2.888	O.2	1	UNK0	0.000	
17	   C	1.709	2.515	-1.918	C.2	1	UNK0	0.000	
18	   O	2.127	3.137	-2.988	O.3	1	UNK0	0.000	
19	   C	3.270	3.729	-2.775	C.2	1	UNK0	0.000	
20	   C	3.638	3.489	-1.486	C.2	1	UNK0	0.000	
21	   C	2.629	2.699	-0.923	C.2	1	UNK0	0.000	
22	   C	-2.159	-0.140	1.575	C.3	1	UNK0	0.000	
23	   C	-1.103	-1.181	1.867	C.3	1	UNK0	0.000	
24	   C	-0.583	-1.730	0.598	C.3	1	UNK0	0.000	
25	   N	0.417	-2.764	0.740	N.4	1	UNK0	0.000	
26	   C	1.189	-2.957	-0.465	C.3	1	UNK0	0.000	
27	   C	2.484	-2.227	-0.503	C.3	1	UNK0	0.000	
28	   O	3.204	-2.231	0.673	O.3	1	UNK0	0.000	
29	   C	2.457	-1.869	1.786	C.3	1	UNK0	0.000	
30	   C	1.206	-2.698	1.923	C.3	1	UNK0	0.000	
31	   H	-4.207	1.282	0.171	 H	1	UNK0	0.000	
32	   H	-1.474	3.306	-2.330	 H	1	UNK0	0.000	
33	   H	-3.267	4.914	-2.958	 H	1	UNK0	0.000	
34	   H	-5.554	4.684	-1.996	 H	1	UNK0	0.000	
35	   H	-1.659	0.316	-1.257	 H	1	UNK0	0.000	
36	   H	3.808	4.310	-3.528	 H	1	UNK0	0.000	
37	   H	4.526	3.835	-0.995	 H	1	UNK0	0.000	
38	   H	2.649	2.340	0.091	 H	1	UNK0	0.000	
39	   H	-2.518	0.241	2.578	 H	1	UNK0	0.000	
40	   H	-3.076	-0.601	1.134	 H	1	UNK0	0.000	
41	   H	-1.575	-2.011	2.442	 H	1	UNK0	0.000	
42	   H	-0.345	-0.640	2.477	 H	1	UNK0	0.000	
43	   H	-0.094	-0.950	-0.042	 H	1	UNK0	0.000	
44	   H	-1.430	-2.123	0.002	 H	1	UNK0	0.000	
45	   H	-0.157	-3.662	0.828	 H	1	UNK0	0.000	
46	   H	1.386	-4.038	-0.650	 H	1	UNK0	0.000	
47	   H	0.568	-2.614	-1.321	 H	1	UNK0	0.000	
48	   H	3.137	-2.749	-1.266	 H	1	UNK0	0.000	
49	   H	2.390	-1.184	-0.929	 H	1	UNK0	0.000	
50	   H	3.091	-2.106	2.680	 H	1	UNK0	0.000	
51	   H	2.217	-0.805	1.847	 H	1	UNK0	0.000	
52	   H	1.572	-3.738	2.184	 H	1	UNK0	0.000	
53	   H	0.632	-2.378	2.788	 H	1	UNK0	0.000	
@<TRIPOS>BOND
1 1 2 1
2 2 3 2
3 2 7 1
4 3 4 1
5 4 5 2
6 4 8 1
7 5 6 1
8 6 7 2
9 8 9 1
10 8 14 1
11 9 10 1
12 9 22 1
13 10 11 2
14 10 12 1
15 12 13 2
16 12 14 1
17 14 15 2
18 15 16 1
19 15 17 1
20 17 18 1
21 17 21 2
22 18 19 1
23 19 20 2
24 20 21 1
25 22 23 1
26 23 24 1
27 24 25 1
28 25 26 1
29 25 30 1
30 26 27 1
31 27 28 1
32 28 29 1
33 29 30 1
34 3 31 1
35 5 32 1
36 6 33 1
37 7 34 1
38 8 35 1
39 19 36 1
40 20 37 1
41 21 38 1
42 22 39 1
43 22 40 1
44 23 41 1
45 23 42 1
46 24 43 1
47 24 44 1
48 25 45 1
49 26 46 1
50 26 47 1
51 27 48 1
52 27 49 1
53 29 50 1
54 29 51 1
55 30 52 1
56 30 53 1
@<TRIPOS>SUBSTRUCTURE
1	UNK0	1	GROUP	1 ****	UNK
