# created with PyMOL 2.3.2
@<TRIPOS>MOLECULE
190
50 53 1                 
SMALL
USER_CHARGES
@<TRIPOS>ATOM
1	  Br	-5.203	0.877	-3.193	Br	1	UNK0	0.000	
2	   C	-3.516	0.942	-2.271	C.2	1	UNK0	0.000	
3	   C	-3.341	0.240	-1.110	C.2	1	UNK0	0.000	
4	   C	-2.134	0.251	-0.397	C.2	1	UNK0	0.000	
5	   C	-1.130	0.999	-0.913	C.2	1	UNK0	0.000	
6	   C	-1.272	1.715	-2.076	C.2	1	UNK0	0.000	
7	   C	-2.469	1.689	-2.760	C.2	1	UNK0	0.000	
8	   C	-2.110	-0.531	0.833	C.3	1	UNK0	0.000	
9	   N	-1.175	-1.628	0.888	N.pl3	1	UNK0	0.000	
10	   C	-1.026	-1.899	2.314	C.2	1	UNK0	0.000	
11	   O	-0.644	-3.006	2.769	O.2	1	UNK0	0.000	
12	   C	-1.389	-0.702	3.051	C.2	1	UNK0	0.000	
13	   O	-1.396	-0.524	4.304	O.2	1	UNK0	0.000	
14	   C	-1.752	0.273	2.033	C.2	1	UNK0	0.000	
15	   C	-1.774	1.601	2.207	C.2	1	UNK0	0.000	
16	   O	-2.190	2.382	1.132	O.2	1	UNK0	0.000	
17	   C	-1.372	2.192	3.477	C.2	1	UNK0	0.000	
18	   O	-0.409	1.859	4.262	O.3	1	UNK0	0.000	
19	   C	-0.339	2.614	5.326	C.2	1	UNK0	0.000	
20	   C	-1.357	3.555	5.256	C.2	1	UNK0	0.000	
21	   C	-2.010	3.267	4.060	C.2	1	UNK0	0.000	
22	   C	-0.538	-2.418	-0.146	C.3	1	UNK0	0.000	
23	   C	0.856	-1.989	-0.466	C.3	1	UNK0	0.000	
24	   N	1.455	-2.818	-1.502	N.4	1	UNK0	0.000	
25	   C	1.550	-2.013	-2.700	C.3	1	UNK0	0.000	
26	   C	2.944	-1.454	-2.880	C.3	1	UNK0	0.000	
27	   O	3.506	-1.017	-1.682	O.3	1	UNK0	0.000	
28	   C	3.654	-2.039	-0.752	C.3	1	UNK0	0.000	
29	   C	2.763	-3.222	-1.054	C.3	1	UNK0	0.000	
30	   H	-4.198	-0.349	-0.744	 H	1	UNK0	0.000	
31	   H	-0.197	1.036	-0.366	 H	1	UNK0	0.000	
32	   H	-0.471	2.319	-2.500	 H	1	UNK0	0.000	
33	   H	-2.635	2.234	-3.681	 H	1	UNK0	0.000	
34	   H	-3.116	-0.995	1.031	 H	1	UNK0	0.000	
35	   H	0.373	2.547	6.139	 H	1	UNK0	0.000	
36	   H	-1.560	4.317	5.985	 H	1	UNK0	0.000	
37	   H	-2.867	3.805	3.672	 H	1	UNK0	0.000	
38	   H	-1.147	-2.273	-1.071	 H	1	UNK0	0.000	
39	   H	-0.576	-3.517	0.115	 H	1	UNK0	0.000	
40	   H	0.930	-0.934	-0.715	 H	1	UNK0	0.000	
41	   H	1.450	-2.105	0.494	 H	1	UNK0	0.000	
42	   H	0.873	-3.657	-1.608	 H	1	UNK0	0.000	
43	   H	0.799	-1.198	-2.686	 H	1	UNK0	0.000	
44	   H	1.344	-2.669	-3.580	 H	1	UNK0	0.000	
45	   H	3.614	-2.164	-3.415	 H	1	UNK0	0.000	
46	   H	2.854	-0.557	-3.526	 H	1	UNK0	0.000	
47	   H	3.427	-1.592	0.243	 H	1	UNK0	0.000	
48	   H	4.708	-2.380	-0.702	 H	1	UNK0	0.000	
49	   H	2.611	-3.762	-0.075	 H	1	UNK0	0.000	
50	   H	3.255	-3.927	-1.754	 H	1	UNK0	0.000	
@<TRIPOS>BOND
1 1 2 1
2 2 3 2
3 2 7 1
4 3 4 1
5 4 5 2
6 4 8 1
7 5 6 1
8 6 7 2
9 8 9 1
10 8 14 1
11 9 10 1
12 9 22 1
13 10 11 2
14 10 12 1
15 12 13 2
16 12 14 1
17 14 15 2
18 15 16 1
19 15 17 1
20 17 18 1
21 17 21 2
22 18 19 1
23 19 20 2
24 20 21 1
25 22 23 1
26 23 24 1
27 24 25 1
28 24 29 1
29 25 26 1
30 26 27 1
31 27 28 1
32 28 29 1
33 3 30 1
34 5 31 1
35 6 32 1
36 7 33 1
37 8 34 1
38 19 35 1
39 20 36 1
40 21 37 1
41 22 38 1
42 22 39 1
43 23 40 1
44 23 41 1
45 24 42 1
46 25 43 1
47 25 44 1
48 26 45 1
49 26 46 1
50 28 47 1
51 28 48 1
52 29 49 1
53 29 50 1
@<TRIPOS>SUBSTRUCTURE
1	UNK0	1	GROUP	1 ****	UNK
