# created with PyMOL 2.3.2
@<TRIPOS>MOLECULE
196
51 54 1                 
SMALL
USER_CHARGES
@<TRIPOS>ATOM
1	  Br	5.628	1.555	-0.216	Br	1	UNK0	0.000	
2	   C	4.059	0.547	0.187	C.2	1	UNK0	0.000	
3	   C	2.913	1.118	0.664	C.2	1	UNK0	0.000	
4	   C	1.746	0.396	0.969	C.2	1	UNK0	0.000	
5	   C	1.839	-0.959	0.749	C.2	1	UNK0	0.000	
6	   C	2.985	-1.556	0.269	C.2	1	UNK0	0.000	
7	   C	4.123	-0.811	-0.022	C.2	1	UNK0	0.000	
8	   C	0.607	1.110	1.451	C.3	1	UNK0	0.000	
9	   N	-0.039	0.751	2.663	N.pl3	1	UNK0	0.000	
10	   C	-1.233	1.584	2.692	C.2	1	UNK0	0.000	
11	   O	-1.878	2.012	3.676	O.2	1	UNK0	0.000	
12	   C	-1.564	1.845	1.300	C.2	1	UNK0	0.000	
13	   O	-2.511	2.516	0.787	O.2	1	UNK0	0.000	
14	   C	-0.555	1.161	0.497	C.2	1	UNK0	0.000	
15	   C	-0.683	0.733	-0.741	C.2	1	UNK0	0.000	
16	   O	0.427	0.113	-1.325	O.2	1	UNK0	0.000	
17	   C	-1.936	0.894	-1.486	C.2	1	UNK0	0.000	
18	   O	-3.177	0.804	-1.083	O.3	1	UNK0	0.000	
19	   C	-4.042	1.007	-2.014	C.2	1	UNK0	0.000	
20	   C	-3.347	1.260	-3.176	C.2	1	UNK0	0.000	
21	   C	-2.009	1.186	-2.828	C.2	1	UNK0	0.000	
22	   C	-4.071	1.509	-4.320	C.2	1	UNK0	0.000	
23	   C	-5.456	1.503	-4.297	C.2	1	UNK0	0.000	
24	   C	-6.125	1.248	-3.132	C.2	1	UNK0	0.000	
25	   C	-5.422	0.999	-1.985	C.2	1	UNK0	0.000	
26	   C	0.243	-0.144	3.757	C.3	1	UNK0	0.000	
27	   C	-0.328	-1.506	3.687	C.3	1	UNK0	0.000	
28	   N	-1.760	-1.566	3.600	N.4	1	UNK0	0.000	
29	   C	-2.412	-1.998	4.819	C.3	1	UNK0	0.000	
30	   C	-2.109	-2.536	2.578	C.3	1	UNK0	0.000	
31	   H	2.930	2.191	0.807	 H	1	UNK0	0.000	
32	   H	0.980	-1.576	0.944	 H	1	UNK0	0.000	
33	   H	3.020	-2.637	0.108	 H	1	UNK0	0.000	
34	   H	5.028	-1.270	-0.399	 H	1	UNK0	0.000	
35	   H	0.875	2.210	1.572	 H	1	UNK0	0.000	
36	   H	-1.180	1.337	-3.522	 H	1	UNK0	0.000	
37	   H	-3.547	1.707	-5.229	 H	1	UNK0	0.000	
38	   H	-6.062	1.694	-5.175	 H	1	UNK0	0.000	
39	   H	-7.219	1.235	-3.070	 H	1	UNK0	0.000	
40	   H	-5.937	0.795	-1.048	 H	1	UNK0	0.000	
41	   H	-0.058	0.323	4.716	 H	1	UNK0	0.000	
42	   H	1.366	-0.262	3.774	 H	1	UNK0	0.000	
43	   H	0.094	-2.207	2.977	 H	1	UNK0	0.000	
44	   H	-0.097	-1.974	4.712	 H	1	UNK0	0.000	
45	   H	-2.200	-0.671	3.269	 H	1	UNK0	0.000	
46	   H	-3.218	-2.763	4.617	 H	1	UNK0	0.000	
47	   H	-1.742	-2.433	5.560	 H	1	UNK0	0.000	
48	   H	-2.968	-1.116	5.244	 H	1	UNK0	0.000	
49	   H	-1.849	-2.031	1.601	 H	1	UNK0	0.000	
50	   H	-3.201	-2.703	2.520	 H	1	UNK0	0.000	
51	   H	-1.531	-3.463	2.629	 H	1	UNK0	0.000	
@<TRIPOS>BOND
1 1 2 1
2 2 3 2
3 2 7 1
4 3 4 1
5 4 5 2
6 4 8 1
7 5 6 1
8 6 7 2
9 8 9 1
10 8 14 1
11 9 10 1
12 9 26 1
13 10 11 2
14 10 12 1
15 12 13 2
16 12 14 1
17 14 15 2
18 15 16 1
19 15 17 1
20 17 18 1
21 17 21 2
22 18 19 1
23 19 20 2
24 19 25 1
25 20 21 1
26 20 22 1
27 22 23 2
28 23 24 1
29 24 25 2
30 26 27 1
31 27 28 1
32 28 29 1
33 28 30 1
34 3 31 1
35 5 32 1
36 6 33 1
37 7 34 1
38 8 35 1
39 21 36 1
40 22 37 1
41 23 38 1
42 24 39 1
43 25 40 1
44 26 41 1
45 26 42 1
46 27 43 1
47 27 44 1
48 28 45 1
49 29 46 1
50 29 47 1
51 29 48 1
52 30 49 1
53 30 50 1
54 30 51 1
@<TRIPOS>SUBSTRUCTURE
1	UNK0	1	GROUP	1 ****	UNK
