# created with PyMOL 2.3.2
@<TRIPOS>MOLECULE
197
56 60 1                 
SMALL
USER_CHARGES
@<TRIPOS>ATOM
1	  Br	4.319	2.282	4.071	Br	1	UNK0	0.000	
2	   C	4.213	2.080	2.180	C.2	1	UNK0	0.000	
3	   C	3.058	1.607	1.574	C.2	1	UNK0	0.000	
4	   C	2.951	1.450	0.197	C.2	1	UNK0	0.000	
5	   C	4.058	1.792	-0.544	C.2	1	UNK0	0.000	
6	   C	5.226	2.271	0.070	C.2	1	UNK0	0.000	
7	   C	5.321	2.422	1.436	C.2	1	UNK0	0.000	
8	   C	1.705	0.928	-0.368	C.3	1	UNK0	0.000	
9	   N	1.132	1.695	-1.431	N.pl3	1	UNK0	0.000	
10	   C	0.237	2.621	-0.770	C.2	1	UNK0	0.000	
11	   O	-0.220	3.698	-1.218	O.2	1	UNK0	0.000	
12	   C	-0.072	2.093	0.565	C.2	1	UNK0	0.000	
13	   O	-0.801	2.577	1.445	O.2	1	UNK0	0.000	
14	   C	0.660	0.835	0.686	C.2	1	UNK0	0.000	
15	   C	0.422	-0.168	1.495	C.2	1	UNK0	0.000	
16	   O	1.231	-1.317	1.378	O.2	1	UNK0	0.000	
17	   C	-0.624	-0.174	2.522	C.2	1	UNK0	0.000	
18	   O	-1.589	-1.051	2.670	O.3	1	UNK0	0.000	
19	   C	-2.364	-0.795	3.678	C.2	1	UNK0	0.000	
20	   C	-1.893	0.353	4.274	C.2	1	UNK0	0.000	
21	   C	-0.774	0.746	3.525	C.2	1	UNK0	0.000	
22	   C	-2.525	0.874	5.386	C.2	1	UNK0	0.000	
23	   C	-3.637	0.267	5.931	C.2	1	UNK0	0.000	
24	   C	-4.127	-0.885	5.350	C.2	1	UNK0	0.000	
25	   C	-3.483	-1.389	4.241	C.2	1	UNK0	0.000	
26	   C	1.295	1.669	-2.851	C.3	1	UNK0	0.000	
27	   C	0.345	0.767	-3.589	C.3	1	UNK0	0.000	
28	   N	0.435	-0.616	-3.226	N.4	1	UNK0	0.000	
29	   C	-0.538	-1.348	-4.042	C.3	1	UNK0	0.000	
30	   C	0.121	-2.379	-4.930	C.3	1	UNK0	0.000	
31	   O	0.883	-3.296	-4.242	O.3	1	UNK0	0.000	
32	   C	1.647	-2.675	-3.265	C.3	1	UNK0	0.000	
33	   C	1.733	-1.187	-3.521	C.3	1	UNK0	0.000	
34	   H	2.192	1.345	2.186	 H	1	UNK0	0.000	
35	   H	4.003	1.679	-1.610	 H	1	UNK0	0.000	
36	   H	6.060	2.523	-0.559	 H	1	UNK0	0.000	
37	   H	6.234	2.794	1.878	 H	1	UNK0	0.000	
38	   H	1.879	-0.104	-0.727	 H	1	UNK0	0.000	
39	   H	-0.188	1.612	3.780	 H	1	UNK0	0.000	
40	   H	-2.095	1.786	5.804	 H	1	UNK0	0.000	
41	   H	-4.112	0.704	6.808	 H	1	UNK0	0.000	
42	   H	-5.002	-1.378	5.763	 H	1	UNK0	0.000	
43	   H	-3.884	-2.291	3.805	 H	1	UNK0	0.000	
44	   H	2.312	1.372	-3.197	 H	1	UNK0	0.000	
45	   H	1.129	2.705	-3.242	 H	1	UNK0	0.000	
46	   H	0.623	0.853	-4.672	 H	1	UNK0	0.000	
47	   H	-0.716	1.085	-3.517	 H	1	UNK0	0.000	
48	   H	0.201	-0.819	-2.249	 H	1	UNK0	0.000	
49	   H	-1.265	-1.914	-3.399	 H	1	UNK0	0.000	
50	   H	-1.136	-0.674	-4.668	 H	1	UNK0	0.000	
51	   H	0.661	-1.911	-5.794	 H	1	UNK0	0.000	
52	   H	-0.740	-2.935	-5.408	 H	1	UNK0	0.000	
53	   H	1.183	-2.785	-2.246	 H	1	UNK0	0.000	
54	   H	2.663	-3.123	-3.158	 H	1	UNK0	0.000	
55	   H	2.020	-1.012	-4.581	 H	1	UNK0	0.000	
56	   H	2.552	-0.782	-2.917	 H	1	UNK0	0.000	
@<TRIPOS>BOND
1 1 2 1
2 2 3 2
3 2 7 1
4 3 4 1
5 4 5 2
6 4 8 1
7 5 6 1
8 6 7 2
9 8 9 1
10 8 14 1
11 9 10 1
12 9 26 1
13 10 11 2
14 10 12 1
15 12 13 2
16 12 14 1
17 14 15 2
18 15 16 1
19 15 17 1
20 17 18 1
21 17 21 2
22 18 19 1
23 19 20 2
24 19 25 1
25 20 21 1
26 20 22 1
27 22 23 2
28 23 24 1
29 24 25 2
30 26 27 1
31 27 28 1
32 28 29 1
33 28 33 1
34 29 30 1
35 30 31 1
36 31 32 1
37 32 33 1
38 3 34 1
39 5 35 1
40 6 36 1
41 7 37 1
42 8 38 1
43 21 39 1
44 22 40 1
45 23 41 1
46 24 42 1
47 25 43 1
48 26 44 1
49 26 45 1
50 27 46 1
51 27 47 1
52 28 48 1
53 29 49 1
54 29 50 1
55 30 51 1
56 30 52 1
57 32 53 1
58 32 54 1
59 33 55 1
60 33 56 1
@<TRIPOS>SUBSTRUCTURE
1	UNK0	1	GROUP	1 ****	UNK
