# created with PyMOL 2.3.2
@<TRIPOS>MOLECULE
198
44 47 1                 
SMALL
USER_CHARGES
@<TRIPOS>ATOM
1	  Br	1.284	5.298	3.582	Br	1	UNK0	0.000	
2	   C	1.760	3.545	4.109	C.2	1	UNK0	0.000	
3	   C	1.217	2.421	3.545	C.2	1	UNK0	0.000	
4	   C	1.567	1.121	3.932	C.2	1	UNK0	0.000	
5	   C	2.499	0.997	4.924	C.2	1	UNK0	0.000	
6	   C	3.066	2.093	5.514	C.2	1	UNK0	0.000	
7	   C	2.693	3.360	5.102	C.2	1	UNK0	0.000	
8	   N	0.937	0.041	3.275	N.pl3	1	UNK0	0.000	
9	   C	1.125	-1.326	3.487	C.2	1	UNK0	0.000	
10	   O	1.920	-1.775	4.332	O.2	1	UNK0	0.000	
11	   C	0.372	-2.369	2.700	C.3	1	UNK0	0.000	
12	   N	-0.520	-1.682	1.751	N.pl3	1	UNK0	0.000	
13	   N	-0.115	-1.372	0.539	N.2	1	UNK0	0.000	
14	   C	-1.153	-0.757	-0.076	C.2	1	UNK0	0.000	
15	   N	-2.168	-0.717	0.800	N.pl3	1	UNK0	0.000	
16	   C	-3.342	-0.161	0.461	C.2	1	UNK0	0.000	
17	   C	-3.482	0.368	-0.803	C.2	1	UNK0	0.000	
18	   N	-2.464	0.322	-1.668	N.2	1	UNK0	0.000	
19	   C	-1.254	-0.234	-1.365	C.2	1	UNK0	0.000	
20	   N	-0.211	-0.254	-2.312	N.pl3	1	UNK0	0.000	
21	   C	-0.475	0.277	-3.642	C.3	1	UNK0	0.000	
22	   C	0.329	-0.621	-4.584	C.3	1	UNK0	0.000	
23	   O	0.439	-1.916	-4.085	O.3	1	UNK0	0.000	
24	   C	1.223	-2.018	-2.947	C.3	1	UNK0	0.000	
25	   C	1.113	-0.750	-2.104	C.3	1	UNK0	0.000	
26	   C	-1.786	-1.301	1.971	C.2	1	UNK0	0.000	
27	   O	-2.450	-1.458	3.027	O.2	1	UNK0	0.000	
28	   H	0.479	2.610	2.758	 H	1	UNK0	0.000	
29	   H	2.815	0.031	5.271	 H	1	UNK0	0.000	
30	   H	3.818	1.988	6.314	 H	1	UNK0	0.000	
31	   H	3.173	4.202	5.603	 H	1	UNK0	0.000	
32	   H	0.223	0.310	2.518	 H	1	UNK0	0.000	
33	   H	1.148	-2.954	2.171	 H	1	UNK0	0.000	
34	   H	-0.268	-2.980	3.337	 H	1	UNK0	0.000	
35	   H	-4.184	-0.119	1.166	 H	1	UNK0	0.000	
36	   H	-4.411	0.817	-1.095	 H	1	UNK0	0.000	
37	   H	-0.117	1.320	-3.705	 H	1	UNK0	0.000	
38	   H	-1.555	0.263	-3.892	 H	1	UNK0	0.000	
39	   H	-0.261	-0.697	-5.520	 H	1	UNK0	0.000	
40	   H	1.301	-0.173	-4.845	 H	1	UNK0	0.000	
41	   H	0.800	-2.832	-2.319	 H	1	UNK0	0.000	
42	   H	2.277	-2.219	-3.136	 H	1	UNK0	0.000	
43	   H	1.444	-0.900	-1.085	 H	1	UNK0	0.000	
44	   H	1.809	0.036	-2.538	 H	1	UNK0	0.000	
@<TRIPOS>BOND
1 1 2 1
2 2 3 2
3 2 7 1
4 3 4 1
5 4 5 2
6 4 8 1
7 5 6 1
8 6 7 2
9 8 9 1
10 9 10 2
11 9 11 1
12 11 12 1
13 12 13 1
14 12 26 1
15 13 14 2
16 14 15 1
17 14 19 1
18 15 16 1
19 15 26 1
20 16 17 2
21 17 18 1
22 18 19 2
23 19 20 1
24 20 21 1
25 20 25 1
26 21 22 1
27 22 23 1
28 23 24 1
29 24 25 1
30 26 27 2
31 3 28 1
32 5 29 1
33 6 30 1
34 7 31 1
35 8 32 1
36 11 33 1
37 11 34 1
38 16 35 1
39 17 36 1
40 21 37 1
41 21 38 1
42 22 39 1
43 22 40 1
44 24 41 1
45 24 42 1
46 25 43 1
47 25 44 1
@<TRIPOS>SUBSTRUCTURE
1	UNK0	1	GROUP	1 ****	UNK
