# created with PyMOL 2.3.2
@<TRIPOS>MOLECULE
202
43 46 1                 
SMALL
USER_CHARGES
@<TRIPOS>ATOM
1	  Br	-0.883	-0.880	-8.014	Br	1	UNK0	0.000	
2	   C	-1.397	0.312	-6.618	C.2	1	UNK0	0.000	
3	   C	-1.400	-0.121	-5.284	C.2	1	UNK0	0.000	
4	   C	-1.772	0.748	-4.287	C.2	1	UNK0	0.000	
5	   C	-2.135	2.026	-4.622	C.2	1	UNK0	0.000	
6	   C	-2.135	2.468	-5.951	C.2	1	UNK0	0.000	
7	   C	-1.761	1.592	-6.941	C.2	1	UNK0	0.000	
8	   N	-1.782	0.329	-2.933	N.pl3	1	UNK0	0.000	
9	   N	-2.496	0.877	-1.944	N.2	1	UNK0	0.000	
10	   N	-2.272	0.248	-0.812	N.2	1	UNK0	0.000	
11	   C	-1.394	-0.743	-1.023	C.2	1	UNK0	0.000	
12	   C	-1.097	-0.677	-2.364	C.2	1	UNK0	0.000	
13	   C	-0.859	-1.703	-0.030	C.2	1	UNK0	0.000	
14	   O	-0.028	-2.559	-0.496	O.2	1	UNK0	0.000	
15	   N	-1.204	-1.713	1.322	N.pl3	1	UNK0	0.000	
16	   C	-0.627	-2.696	2.197	C.3	1	UNK0	0.000	
17	   C	0.264	-1.991	3.182	C.3	1	UNK0	0.000	
18	   N	-0.408	-0.828	3.687	N.pl3	1	UNK0	0.000	
19	   C	-1.865	-0.785	3.455	C.3	1	UNK0	0.000	
20	   C	-2.125	-0.795	1.955	C.3	1	UNK0	0.000	
21	   C	0.151	0.259	4.359	C.2	1	UNK0	0.000	
22	   O	-0.699	1.163	4.740	O.2	1	UNK0	0.000	
23	   C	1.538	0.546	4.705	C.3	1	UNK0	0.000	
24	   C	2.563	-0.474	4.927	C.3	1	UNK0	0.000	
25	   C	2.670	0.489	3.748	C.3	1	UNK0	0.000	
26	   H	-1.100	-1.144	-5.109	 H	1	UNK0	0.000	
27	   H	-2.437	2.758	-3.891	 H	1	UNK0	0.000	
28	   H	-2.419	3.471	-6.221	 H	1	UNK0	0.000	
29	   H	-1.759	1.931	-7.981	 H	1	UNK0	0.000	
30	   H	-0.414	-1.336	-2.877	 H	1	UNK0	0.000	
31	   H	-0.114	-3.513	1.657	 H	1	UNK0	0.000	
32	   H	-1.482	-3.185	2.718	 H	1	UNK0	0.000	
33	   H	0.566	-2.688	4.010	 H	1	UNK0	0.000	
34	   H	1.192	-1.650	2.681	 H	1	UNK0	0.000	
35	   H	-2.290	-1.643	3.987	 H	1	UNK0	0.000	
36	   H	-2.227	0.169	3.843	 H	1	UNK0	0.000	
37	   H	-2.028	0.199	1.518	 H	1	UNK0	0.000	
38	   H	-3.143	-1.172	1.799	 H	1	UNK0	0.000	
39	   H	1.660	1.474	5.384	 H	1	UNK0	0.000	
40	   H	3.341	-0.315	5.744	 H	1	UNK0	0.000	
41	   H	2.468	-1.543	4.686	 H	1	UNK0	0.000	
42	   H	2.631	0.115	2.739	 H	1	UNK0	0.000	
43	   H	3.497	1.260	3.853	 H	1	UNK0	0.000	
@<TRIPOS>BOND
1 1 2 1
2 2 3 2
3 2 7 1
4 3 4 1
5 4 5 2
6 4 8 1
7 5 6 1
8 6 7 2
9 8 9 1
10 8 12 1
11 9 10 2
12 10 11 1
13 11 12 2
14 11 13 1
15 13 14 2
16 13 15 1
17 15 16 1
18 15 20 1
19 16 17 1
20 17 18 1
21 18 19 1
22 18 21 1
23 19 20 1
24 21 22 2
25 21 23 1
26 23 24 1
27 23 25 1
28 24 25 1
29 3 26 1
30 5 27 1
31 6 28 1
32 7 29 1
33 12 30 1
34 16 31 1
35 16 32 1
36 17 33 1
37 17 34 1
38 19 35 1
39 19 36 1
40 20 37 1
41 20 38 1
42 23 39 1
43 24 40 1
44 24 41 1
45 25 42 1
46 25 43 1
@<TRIPOS>SUBSTRUCTURE
1	UNK0	1	GROUP	1 ****	UNK
