# created with PyMOL 2.3.2
@<TRIPOS>MOLECULE
204
44 47 1                 
SMALL
USER_CHARGES
@<TRIPOS>ATOM
1	  Br	0.913	-3.143	-4.410	Br	1	UNK0	0.000	
2	   C	-0.213	-2.511	-3.012	C.2	1	UNK0	0.000	
3	   C	0.290	-2.233	-1.744	C.2	1	UNK0	0.000	
4	   C	-0.532	-1.775	-0.736	C.2	1	UNK0	0.000	
5	   C	-1.874	-1.612	-1.061	C.2	1	UNK0	0.000	
6	   C	-2.387	-1.879	-2.301	C.2	1	UNK0	0.000	
7	   C	-1.551	-2.335	-3.291	C.2	1	UNK0	0.000	
8	   N	-0.066	-1.478	0.581	N.pl3	1	UNK0	0.000	
9	   C	1.077	-0.680	0.863	C.2	1	UNK0	0.000	
10	   O	2.012	-0.499	0.046	O.2	1	UNK0	0.000	
11	   C	0.911	-0.168	2.218	C.3	1	UNK0	0.000	
12	   C	0.097	-1.250	2.896	C.3	1	UNK0	0.000	
13	   C	-0.655	-1.912	1.813	C.2	1	UNK0	0.000	
14	   O	-1.626	-2.706	1.926	O.2	1	UNK0	0.000	
15	   N	0.339	1.112	2.344	N.3	1	UNK0	0.000	
16	   C	-0.979	1.297	1.888	C.3	1	UNK0	0.000	
17	   C	-0.929	1.885	0.471	C.3	1	UNK0	0.000	
18	   N	0.393	2.433	0.213	N.pl3	1	UNK0	0.000	
19	   C	1.172	3.080	1.250	C.3	1	UNK0	0.000	
20	   C	1.139	2.243	2.507	C.3	1	UNK0	0.000	
21	   C	0.991	2.335	-1.087	C.2	1	UNK0	0.000	
22	   N	2.038	3.114	-1.431	N.2	1	UNK0	0.000	
23	   C	2.606	3.005	-2.648	C.2	1	UNK0	0.000	
24	   C	2.140	2.093	-3.588	C.2	1	UNK0	0.000	
25	   C	1.067	1.297	-3.228	C.2	1	UNK0	0.000	
26	   N	0.544	1.453	-1.999	N.2	1	UNK0	0.000	
27	   H	1.340	-2.378	-1.550	 H	1	UNK0	0.000	
28	   H	-2.530	-1.252	-0.269	 H	1	UNK0	0.000	
29	   H	-3.447	-1.748	-2.546	 H	1	UNK0	0.000	
30	   H	-1.963	-2.545	-4.268	 H	1	UNK0	0.000	
31	   H	1.915	-0.160	2.730	 H	1	UNK0	0.000	
32	   H	0.794	-1.997	3.310	 H	1	UNK0	0.000	
33	   H	-0.573	-0.824	3.674	 H	1	UNK0	0.000	
34	   H	-1.484	2.060	2.516	 H	1	UNK0	0.000	
35	   H	-1.602	0.416	1.895	 H	1	UNK0	0.000	
36	   H	-1.114	1.074	-0.280	 H	1	UNK0	0.000	
37	   H	-1.640	2.702	0.326	 H	1	UNK0	0.000	
38	   H	0.793	4.128	1.423	 H	1	UNK0	0.000	
39	   H	2.256	3.128	0.948	 H	1	UNK0	0.000	
40	   H	2.155	2.005	2.883	 H	1	UNK0	0.000	
41	   H	0.670	2.901	3.299	 H	1	UNK0	0.000	
42	   H	3.453	3.625	-2.941	 H	1	UNK0	0.000	
43	   H	2.623	2.028	-4.569	 H	1	UNK0	0.000	
44	   H	0.677	0.561	-3.943	 H	1	UNK0	0.000	
@<TRIPOS>BOND
1 1 2 1
2 2 3 2
3 2 7 1
4 3 4 1
5 4 5 2
6 4 8 1
7 5 6 1
8 6 7 2
9 8 9 1
10 8 13 1
11 9 10 2
12 9 11 1
13 11 12 1
14 11 15 1
15 12 13 1
16 13 14 2
17 15 16 1
18 15 20 1
19 16 17 1
20 17 18 1
21 18 19 1
22 18 21 1
23 19 20 1
24 21 22 2
25 21 26 1
26 22 23 1
27 23 24 2
28 24 25 1
29 25 26 2
30 3 27 1
31 5 28 1
32 6 29 1
33 7 30 1
34 11 31 1
35 12 32 1
36 12 33 1
37 16 34 1
38 16 35 1
39 17 36 1
40 17 37 1
41 19 38 1
42 19 39 1
43 20 40 1
44 20 41 1
45 23 42 1
46 24 43 1
47 25 44 1
@<TRIPOS>SUBSTRUCTURE
1	UNK0	1	GROUP	1 ****	UNK
