# created with PyMOL 2.3.2
@<TRIPOS>MOLECULE
206
37 40 1                 
SMALL
USER_CHARGES
@<TRIPOS>ATOM
1	  Br	6.067	2.062	-2.710	Br	1	UNK0	0.000	
2	   C	4.150	2.132	-2.803	C.2	1	UNK0	0.000	
3	   C	3.381	1.186	-2.165	C.2	1	UNK0	0.000	
4	   C	2.007	1.272	-2.243	C.2	1	UNK0	0.000	
5	   C	1.434	2.293	-2.953	C.2	1	UNK0	0.000	
6	   C	2.229	3.222	-3.579	C.2	1	UNK0	0.000	
7	   C	3.612	3.169	-3.523	C.2	1	UNK0	0.000	
8	   N	1.195	0.303	-1.585	N.pl3	1	UNK0	0.000	
9	   C	1.068	-1.089	-1.954	C.2	1	UNK0	0.000	
10	   O	1.325	-1.561	-3.085	O.2	1	UNK0	0.000	
11	   C	0.596	-1.810	-0.790	C.3	1	UNK0	0.000	
12	   O	-0.308	-2.817	-0.947	O.3	1	UNK0	0.000	
13	   N	-1.056	-2.744	0.214	N.pl3	1	UNK0	0.000	
14	   C	-1.260	-1.346	0.488	C.2	1	UNK0	0.000	
15	   C	-0.251	-0.734	-0.128	C.2	1	UNK0	0.000	
16	   C	0.375	0.540	-0.446	C.2	1	UNK0	0.000	
17	   O	0.194	1.601	0.191	O.2	1	UNK0	0.000	
18	   C	-2.314	-0.730	1.259	C.2	1	UNK0	0.000	
19	   C	-2.253	0.353	2.126	C.2	1	UNK0	0.000	
20	   N	-3.479	0.611	2.641	N.pl3	1	UNK0	0.000	
21	   N	-4.288	-0.275	2.122	N.2	1	UNK0	0.000	
22	   C	-3.638	-1.118	1.273	C.2	1	UNK0	0.000	
23	   C	-4.242	-2.242	0.521	C.3	1	UNK0	0.000	
24	   C	-3.760	1.689	3.592	C.3	1	UNK0	0.000	
25	   H	3.896	0.408	-1.625	 H	1	UNK0	0.000	
26	   H	0.379	2.357	-3.016	 H	1	UNK0	0.000	
27	   H	1.752	4.022	-4.134	 H	1	UNK0	0.000	
28	   H	4.195	3.910	-4.024	 H	1	UNK0	0.000	
29	   H	1.385	-2.038	-0.038	 H	1	UNK0	0.000	
30	   H	-1.372	-3.552	0.731	 H	1	UNK0	0.000	
31	   H	-1.344	0.887	2.339	 H	1	UNK0	0.000	
32	   H	-3.903	-3.235	0.903	 H	1	UNK0	0.000	
33	   H	-4.080	-2.111	-0.569	 H	1	UNK0	0.000	
34	   H	-5.350	-2.243	0.713	 H	1	UNK0	0.000	
35	   H	-4.723	1.550	4.089	 H	1	UNK0	0.000	
36	   H	-2.909	1.694	4.338	 H	1	UNK0	0.000	
37	   H	-3.697	2.655	3.049	 H	1	UNK0	0.000	
@<TRIPOS>BOND
1 1 2 1
2 2 3 2
3 2 7 1
4 3 4 1
5 4 5 2
6 4 8 1
7 5 6 1
8 6 7 2
9 8 9 1
10 8 16 1
11 9 10 2
12 9 11 1
13 11 12 1
14 11 15 1
15 12 13 1
16 13 14 1
17 14 15 2
18 14 18 1
19 15 16 1
20 16 17 2
21 18 19 2
22 18 22 1
23 19 20 1
24 20 21 1
25 20 24 1
26 21 22 2
27 22 23 1
28 3 25 1
29 5 26 1
30 6 27 1
31 7 28 1
32 11 29 1
33 13 30 1
34 19 31 1
35 23 32 1
36 23 33 1
37 23 34 1
38 24 35 1
39 24 36 1
40 24 37 1
@<TRIPOS>SUBSTRUCTURE
1	UNK0	1	GROUP	1 ****	UNK
