# created with PyMOL 2.3.2
@<TRIPOS>MOLECULE
212
37 40 1                 
SMALL
USER_CHARGES
@<TRIPOS>ATOM
1	  Br	-3.797	5.778	2.970	Br	1	UNK0	0.000	
2	   C	-3.761	4.362	1.691	C.2	1	UNK0	0.000	
3	   C	-2.845	3.338	1.734	C.2	1	UNK0	0.000	
4	   C	-2.800	2.305	0.821	C.2	1	UNK0	0.000	
5	   C	-3.767	2.350	-0.191	C.2	1	UNK0	0.000	
6	   C	-4.692	3.361	-0.257	C.2	1	UNK0	0.000	
7	   C	-4.704	4.370	0.672	C.2	1	UNK0	0.000	
8	   N	-1.861	1.264	0.874	N.pl3	1	UNK0	0.000	
9	   C	-1.740	0.240	1.880	C.2	1	UNK0	0.000	
10	   O	-2.129	0.385	3.077	O.2	1	UNK0	0.000	
11	   C	-1.102	-0.932	1.231	C.3	1	UNK0	0.000	
12	   O	-0.293	-1.696	2.019	O.3	1	UNK0	0.000	
13	   N	0.798	-1.994	1.237	N.pl3	1	UNK0	0.000	
14	   C	1.061	-0.856	0.404	C.2	1	UNK0	0.000	
15	   C	-0.074	-0.196	0.390	C.2	1	UNK0	0.000	
16	   C	-0.823	0.996	-0.059	C.2	1	UNK0	0.000	
17	   O	-0.556	1.642	-1.098	O.2	1	UNK0	0.000	
18	   C	2.294	-0.546	-0.276	C.2	1	UNK0	0.000	
19	   C	2.487	-0.209	-1.595	C.2	1	UNK0	0.000	
20	   N	3.802	0.028	-1.813	N.pl3	1	UNK0	0.000	
21	   N	4.463	-0.147	-0.677	N.2	1	UNK0	0.000	
22	   C	3.583	-0.492	0.264	C.2	1	UNK0	0.000	
23	   C	4.424	0.410	-3.056	C.3	1	UNK0	0.000	
24	   C	1.504	-0.113	-2.693	C.3	1	UNK0	0.000	
25	   H	-2.119	3.358	2.545	 H	1	UNK0	0.000	
26	   H	-3.738	1.547	-0.908	 H	1	UNK0	0.000	
27	   H	-5.422	3.374	-1.043	 H	1	UNK0	0.000	
28	   H	-5.431	5.158	0.617	 H	1	UNK0	0.000	
29	   H	-1.805	-1.493	0.585	 H	1	UNK0	0.000	
30	   H	1.316	-2.866	1.257	 H	1	UNK0	0.000	
31	   H	3.809	-0.707	1.294	 H	1	UNK0	0.000	
32	   H	3.901	-0.037	-3.926	 H	1	UNK0	0.000	
33	   H	5.480	0.071	-3.074	 H	1	UNK0	0.000	
34	   H	4.445	1.507	-3.207	 H	1	UNK0	0.000	
35	   H	1.938	-0.678	-3.556	 H	1	UNK0	0.000	
36	   H	1.351	0.933	-3.037	 H	1	UNK0	0.000	
37	   H	0.534	-0.586	-2.387	 H	1	UNK0	0.000	
@<TRIPOS>BOND
1 1 2 1
2 2 3 2
3 2 7 1
4 3 4 1
5 4 5 2
6 4 8 1
7 5 6 1
8 6 7 2
9 8 9 1
10 8 16 1
11 9 10 2
12 9 11 1
13 11 12 1
14 11 15 1
15 12 13 1
16 13 14 1
17 14 15 2
18 14 18 1
19 15 16 1
20 16 17 2
21 18 19 2
22 18 22 1
23 19 20 1
24 19 24 1
25 20 21 1
26 20 23 1
27 21 22 2
28 3 25 1
29 5 26 1
30 6 27 1
31 7 28 1
32 11 29 1
33 13 30 1
34 22 31 1
35 23 32 1
36 23 33 1
37 23 34 1
38 24 35 1
39 24 36 1
40 24 37 1
@<TRIPOS>SUBSTRUCTURE
1	UNK0	1	GROUP	1 ****	UNK
