# created with PyMOL 2.3.2
@<TRIPOS>MOLECULE
213
37 40 1                 
SMALL
USER_CHARGES
@<TRIPOS>ATOM
1	  Br	-2.293	1.667	-7.650	Br	1	UNK0	0.000	
2	   C	-1.068	1.896	-6.212	C.2	1	UNK0	0.000	
3	   C	-1.458	1.618	-4.898	C.2	1	UNK0	0.000	
4	   C	-0.587	1.776	-3.844	C.2	1	UNK0	0.000	
5	   C	0.681	2.218	-4.129	C.2	1	UNK0	0.000	
6	   C	1.076	2.498	-5.445	C.2	1	UNK0	0.000	
7	   C	0.202	2.339	-6.499	C.2	1	UNK0	0.000	
8	   N	-1.005	1.482	-2.526	N.pl3	1	UNK0	0.000	
9	   C	-2.245	0.843	-2.151	C.2	1	UNK0	0.000	
10	   O	-2.953	0.093	-2.832	O.2	1	UNK0	0.000	
11	   C	-2.551	1.247	-0.748	C.3	1	UNK0	0.000	
12	   O	-3.148	0.258	0.012	O.3	1	UNK0	0.000	
13	   N	-2.680	0.556	1.270	N.pl3	1	UNK0	0.000	
14	   C	-1.280	0.825	1.075	C.2	1	UNK0	0.000	
15	   C	-1.155	1.253	-0.158	C.2	1	UNK0	0.000	
16	   C	-0.331	1.735	-1.273	C.2	1	UNK0	0.000	
17	   O	0.770	2.270	-1.105	O.2	1	UNK0	0.000	
18	   C	-0.197	0.663	2.007	C.2	1	UNK0	0.000	
19	   C	-0.312	1.000	3.354	C.2	1	UNK0	0.000	
20	   N	0.845	0.730	3.985	N.pl3	1	UNK0	0.000	
21	   N	1.653	0.241	3.060	N.2	1	UNK0	0.000	
22	   C	1.082	0.178	1.859	C.2	1	UNK0	0.000	
23	   C	1.676	-0.324	0.574	C.3	1	UNK0	0.000	
24	   C	1.137	0.943	5.412	C.3	1	UNK0	0.000	
25	   H	-2.453	1.280	-4.728	 H	1	UNK0	0.000	
26	   H	1.378	2.350	-3.330	 H	1	UNK0	0.000	
27	   H	2.090	2.847	-5.638	 H	1	UNK0	0.000	
28	   H	0.527	2.560	-7.516	 H	1	UNK0	0.000	
29	   H	-3.026	2.233	-0.691	 H	1	UNK0	0.000	
30	   H	-3.187	0.587	2.161	 H	1	UNK0	0.000	
31	   H	-1.192	1.418	3.837	 H	1	UNK0	0.000	
32	   H	2.380	0.391	0.145	 H	1	UNK0	0.000	
33	   H	0.884	-0.659	-0.093	 H	1	UNK0	0.000	
34	   H	2.273	-1.226	0.868	 H	1	UNK0	0.000	
35	   H	0.833	-0.028	5.898	 H	1	UNK0	0.000	
36	   H	0.552	1.779	5.806	 H	1	UNK0	0.000	
37	   H	2.215	1.021	5.523	 H	1	UNK0	0.000	
@<TRIPOS>BOND
1 1 2 1
2 2 3 2
3 2 7 1
4 3 4 1
5 4 5 2
6 4 8 1
7 5 6 1
8 6 7 2
9 8 9 1
10 8 16 1
11 9 10 2
12 9 11 1
13 11 12 1
14 11 15 1
15 12 13 1
16 13 14 1
17 14 15 2
18 14 18 1
19 15 16 1
20 16 17 2
21 18 19 2
22 18 22 1
23 19 20 1
24 20 21 1
25 20 24 1
26 21 22 2
27 22 23 1
28 3 25 1
29 5 26 1
30 6 27 1
31 7 28 1
32 11 29 1
33 13 30 1
34 19 31 1
35 23 32 1
36 23 33 1
37 23 34 1
38 24 35 1
39 24 36 1
40 24 37 1
@<TRIPOS>SUBSTRUCTURE
1	UNK0	1	GROUP	1 ****	UNK
