# created with PyMOL 2.3.2
@<TRIPOS>MOLECULE
214
43 46 1                 
SMALL
USER_CHARGES
@<TRIPOS>ATOM
1	  Br	-3.511	0.007	3.531	Br	1	UNK0	0.000	
2	   C	-3.276	1.508	2.408	C.2	1	UNK0	0.000	
3	   C	-2.017	1.877	2.013	C.2	1	UNK0	0.000	
4	   C	-1.795	2.976	1.187	C.2	1	UNK0	0.000	
5	   C	-2.906	3.681	0.781	C.2	1	UNK0	0.000	
6	   C	-4.200	3.318	1.176	C.2	1	UNK0	0.000	
7	   C	-4.372	2.218	1.997	C.2	1	UNK0	0.000	
8	   N	-0.522	3.388	0.747	N.pl3	1	UNK0	0.000	
9	   C	-0.169	3.558	-0.647	C.3	1	UNK0	0.000	
10	   C	1.283	3.245	-0.771	C.3	1	UNK0	0.000	
11	   C	1.839	3.650	0.576	C.3	1	UNK0	0.000	
12	   C	0.652	3.720	1.484	C.2	1	UNK0	0.000	
13	   O	0.707	4.027	2.703	O.2	1	UNK0	0.000	
14	   C	1.452	1.803	-1.036	C.2	1	UNK0	0.000	
15	   O	0.414	1.058	-1.080	O.2	1	UNK0	0.000	
16	   N	2.679	1.166	-1.249	N.pl3	1	UNK0	0.000	
17	   C	2.854	-0.236	-1.508	C.3	1	UNK0	0.000	
18	   C	2.312	-1.020	-0.360	C.2	1	UNK0	0.000	
19	   N	1.536	-2.128	-0.401	N.pl3	1	UNK0	0.000	
20	   C	1.267	-2.526	0.877	C.2	1	UNK0	0.000	
21	   N	1.888	-1.650	1.678	N.2	1	UNK0	0.000	
22	   N	2.512	-0.749	0.936	N.2	1	UNK0	0.000	
23	   C	0.412	-3.749	0.844	C.3	1	UNK0	0.000	
24	   C	0.820	-4.314	-0.521	C.3	1	UNK0	0.000	
25	   C	0.892	-3.034	-1.330	C.3	1	UNK0	0.000	
26	   H	-1.106	1.350	2.309	 H	1	UNK0	0.000	
27	   H	-2.836	4.550	0.140	 H	1	UNK0	0.000	
28	   H	-5.061	3.878	0.850	 H	1	UNK0	0.000	
29	   H	-5.394	1.940	2.301	 H	1	UNK0	0.000	
30	   H	-0.733	2.776	-1.214	 H	1	UNK0	0.000	
31	   H	-0.435	4.575	-1.012	 H	1	UNK0	0.000	
32	   H	1.705	3.868	-1.584	 H	1	UNK0	0.000	
33	   H	2.272	4.666	0.505	 H	1	UNK0	0.000	
34	   H	2.591	2.915	0.942	 H	1	UNK0	0.000	
35	   H	3.552	1.758	-1.218	 H	1	UNK0	0.000	
36	   H	2.401	-0.559	-2.467	 H	1	UNK0	0.000	
37	   H	3.925	-0.512	-1.578	 H	1	UNK0	0.000	
38	   H	0.606	-4.445	1.657	 H	1	UNK0	0.000	
39	   H	-0.634	-3.424	0.747	 H	1	UNK0	0.000	
40	   H	0.075	-5.032	-0.900	 H	1	UNK0	0.000	
41	   H	1.825	-4.734	-0.426	 H	1	UNK0	0.000	
42	   H	-0.158	-2.733	-1.538	 H	1	UNK0	0.000	
43	   H	1.473	-3.173	-2.267	 H	1	UNK0	0.000	
@<TRIPOS>BOND
1 1 2 1
2 2 3 2
3 2 7 1
4 3 4 1
5 4 5 2
6 4 8 1
7 5 6 1
8 6 7 2
9 8 9 1
10 8 12 1
11 9 10 1
12 10 11 1
13 10 14 1
14 11 12 1
15 12 13 2
16 14 15 2
17 14 16 1
18 16 17 1
19 17 18 1
20 18 19 1
21 18 22 2
22 19 20 1
23 19 25 1
24 20 21 2
25 20 23 1
26 21 22 1
27 23 24 1
28 24 25 1
29 3 26 1
30 5 27 1
31 6 28 1
32 7 29 1
33 9 30 1
34 9 31 1
35 10 32 1
36 11 33 1
37 11 34 1
38 16 35 1
39 17 36 1
40 17 37 1
41 23 38 1
42 23 39 1
43 24 40 1
44 24 41 1
45 25 42 1
46 25 43 1
@<TRIPOS>SUBSTRUCTURE
1	UNK0	1	GROUP	1 ****	UNK
