# created with PyMOL 2.3.2
@<TRIPOS>MOLECULE
215
48 51 1                 
SMALL
USER_CHARGES
@<TRIPOS>ATOM
1	  Br	-2.328	2.688	3.841	Br	1	UNK0	0.000	
2	   C	-2.627	2.353	1.975	C.2	1	UNK0	0.000	
3	   C	-2.647	1.050	1.526	C.2	1	UNK0	0.000	
4	   C	-2.863	0.774	0.182	C.2	1	UNK0	0.000	
5	   C	-3.052	1.813	-0.656	C.2	1	UNK0	0.000	
6	   C	-3.036	3.144	-0.223	C.2	1	UNK0	0.000	
7	   C	-2.822	3.408	1.104	C.2	1	UNK0	0.000	
8	   N	-2.870	-0.597	-0.253	N.pl3	1	UNK0	0.000	
9	   C	-2.345	-1.734	0.456	C.3	1	UNK0	0.000	
10	   C	-1.938	-2.711	-0.604	C.3	1	UNK0	0.000	
11	   C	-2.594	-2.295	-1.854	C.3	1	UNK0	0.000	
12	   C	-3.398	-1.081	-1.473	C.2	1	UNK0	0.000	
13	   O	-4.368	-0.548	-2.084	O.2	1	UNK0	0.000	
14	   C	-0.471	-2.807	-0.609	C.2	1	UNK0	0.000	
15	   O	-0.045	-3.919	-0.065	O.2	1	UNK0	0.000	
16	   N	0.522	-1.973	-1.059	N.pl3	1	UNK0	0.000	
17	   C	1.927	-2.403	-0.850	C.3	1	UNK0	0.000	
18	   C	2.868	-1.264	-0.717	C.3	1	UNK0	0.000	
19	   N	2.211	-0.005	-0.345	N.pl3	1	UNK0	0.000	
20	   C	1.125	0.435	-1.170	C.3	1	UNK0	0.000	
21	   C	0.352	-0.735	-1.741	C.3	1	UNK0	0.000	
22	   C	2.689	0.707	0.805	C.2	1	UNK0	0.000	
23	   O	3.638	0.237	1.503	O.2	1	UNK0	0.000	
24	   C	2.133	2.003	1.248	C.3	1	UNK0	0.000	
25	   C	3.157	2.977	1.829	C.3	1	UNK0	0.000	
26	   C	2.133	2.383	2.690	C.3	1	UNK0	0.000	
27	   H	-2.491	0.249	2.227	 H	1	UNK0	0.000	
28	   H	-3.224	1.671	-1.714	 H	1	UNK0	0.000	
29	   H	-3.189	3.962	-0.914	 H	1	UNK0	0.000	
30	   H	-2.808	4.452	1.454	 H	1	UNK0	0.000	
31	   H	-1.475	-1.469	1.100	 H	1	UNK0	0.000	
32	   H	-3.155	-2.211	1.085	 H	1	UNK0	0.000	
33	   H	-2.382	-3.747	-0.343	 H	1	UNK0	0.000	
34	   H	-3.394	-3.050	-2.123	 H	1	UNK0	0.000	
35	   H	-1.946	-2.120	-2.731	 H	1	UNK0	0.000	
36	   H	1.977	-3.057	0.057	 H	1	UNK0	0.000	
37	   H	2.216	-3.061	-1.705	 H	1	UNK0	0.000	
38	   H	3.356	-1.034	-1.707	 H	1	UNK0	0.000	
39	   H	3.711	-1.456	-0.017	 H	1	UNK0	0.000	
40	   H	1.539	1.074	-2.001	 H	1	UNK0	0.000	
41	   H	0.464	1.102	-0.585	 H	1	UNK0	0.000	
42	   H	0.721	-0.843	-2.815	 H	1	UNK0	0.000	
43	   H	-0.686	-0.370	-1.838	 H	1	UNK0	0.000	
44	   H	1.335	2.406	0.614	 H	1	UNK0	0.000	
45	   H	3.085	3.990	1.374	 H	1	UNK0	0.000	
46	   H	4.206	2.595	1.959	 H	1	UNK0	0.000	
47	   H	2.451	1.682	3.485	 H	1	UNK0	0.000	
48	   H	1.301	3.075	2.999	 H	1	UNK0	0.000	
@<TRIPOS>BOND
1 1 2 1
2 2 3 2
3 2 7 1
4 3 4 1
5 4 5 2
6 4 8 1
7 5 6 1
8 6 7 2
9 8 9 1
10 8 12 1
11 9 10 1
12 10 11 1
13 10 14 1
14 11 12 1
15 12 13 2
16 14 15 2
17 14 16 1
18 16 17 1
19 16 21 1
20 17 18 1
21 18 19 1
22 19 20 1
23 19 22 1
24 20 21 1
25 22 23 2
26 22 24 1
27 24 25 1
28 24 26 1
29 25 26 1
30 3 27 1
31 5 28 1
32 6 29 1
33 7 30 1
34 9 31 1
35 9 32 1
36 10 33 1
37 11 34 1
38 11 35 1
39 17 36 1
40 17 37 1
41 18 38 1
42 18 39 1
43 20 40 1
44 20 41 1
45 21 42 1
46 21 43 1
47 24 44 1
48 25 45 1
49 25 46 1
50 26 47 1
51 26 48 1
@<TRIPOS>SUBSTRUCTURE
1	UNK0	1	GROUP	1 ****	UNK
