# created with PyMOL 2.3.2
@<TRIPOS>MOLECULE
216
52 55 1                 
SMALL
USER_CHARGES
@<TRIPOS>ATOM
1	  Br	-0.501	-2.317	-7.723	Br	1	UNK0	0.000	
2	   C	0.796	-2.169	-6.358	C.2	1	UNK0	0.000	
3	   C	0.814	-1.032	-5.558	C.2	1	UNK0	0.000	
4	   C	1.732	-0.852	-4.540	C.2	1	UNK0	0.000	
5	   C	2.637	-1.875	-4.361	C.2	1	UNK0	0.000	
6	   C	2.676	-3.029	-5.116	C.2	1	UNK0	0.000	
7	   C	1.742	-3.165	-6.120	C.2	1	UNK0	0.000	
8	   N	1.693	0.324	-3.757	N.pl3	1	UNK0	0.000	
9	   C	0.501	0.848	-3.107	C.3	1	UNK0	0.000	
10	   C	1.142	1.104	-1.727	C.3	1	UNK0	0.000	
11	   C	2.251	2.047	-2.207	C.3	1	UNK0	0.000	
12	   C	2.700	1.260	-3.389	C.2	1	UNK0	0.000	
13	   O	3.799	1.400	-3.973	O.2	1	UNK0	0.000	
14	   C	0.215	1.710	-0.792	C.2	1	UNK0	0.000	
15	   O	-0.930	2.020	-1.206	O.2	1	UNK0	0.000	
16	   N	0.609	1.935	0.544	N.pl3	1	UNK0	0.000	
17	   C	1.926	1.587	1.059	C.3	1	UNK0	0.000	
18	   C	1.810	1.302	2.551	C.3	1	UNK0	0.000	
19	   N	0.493	0.831	2.932	N.3	1	UNK0	0.000	
20	   C	-0.444	1.888	2.780	C.3	1	UNK0	0.000	
21	   C	-0.373	2.550	1.446	C.3	1	UNK0	0.000	
22	   C	0.169	-0.417	2.338	C.3	1	UNK0	0.000	
23	   C	-1.147	-0.993	2.795	C.3	1	UNK0	0.000	
24	   N	-1.218	-1.243	4.206	N.pl3	1	UNK0	0.000	
25	   C	-1.641	-0.428	5.174	C.2	1	UNK0	0.000	
26	   N	-1.536	-1.052	6.367	N.2	1	UNK0	0.000	
27	   C	-1.041	-2.277	6.155	C.2	1	UNK0	0.000	
28	   C	-0.845	-2.386	4.798	C.2	1	UNK0	0.000	
29	   H	0.092	-0.251	-5.725	 H	1	UNK0	0.000	
30	   H	3.370	-1.771	-3.577	 H	1	UNK0	0.000	
31	   H	3.393	-3.824	-4.963	 H	1	UNK0	0.000	
32	   H	1.727	-4.055	-6.745	 H	1	UNK0	0.000	
33	   H	-0.304	0.096	-3.023	 H	1	UNK0	0.000	
34	   H	0.203	1.789	-3.582	 H	1	UNK0	0.000	
35	   H	1.583	0.147	-1.441	 H	1	UNK0	0.000	
36	   H	1.819	3.027	-2.478	 H	1	UNK0	0.000	
37	   H	3.044	2.141	-1.446	 H	1	UNK0	0.000	
38	   H	2.584	2.458	0.869	 H	1	UNK0	0.000	
39	   H	2.379	0.712	0.598	 H	1	UNK0	0.000	
40	   H	2.015	2.230	3.084	 H	1	UNK0	0.000	
41	   H	2.562	0.556	2.888	 H	1	UNK0	0.000	
42	   H	-1.479	1.518	2.979	 H	1	UNK0	0.000	
43	   H	-0.212	2.638	3.588	 H	1	UNK0	0.000	
44	   H	-1.382	2.546	0.979	 H	1	UNK0	0.000	
45	   H	-0.068	3.628	1.595	 H	1	UNK0	0.000	
46	   H	0.101	-0.358	1.223	 H	1	UNK0	0.000	
47	   H	0.975	-1.180	2.552	 H	1	UNK0	0.000	
48	   H	-1.987	-0.340	2.440	 H	1	UNK0	0.000	
49	   H	-1.285	-1.951	2.213	 H	1	UNK0	0.000	
50	   H	-2.017	0.571	5.069	 H	1	UNK0	0.000	
51	   H	-0.841	-3.023	6.933	 H	1	UNK0	0.000	
52	   H	-0.444	-3.292	4.339	 H	1	UNK0	0.000	
@<TRIPOS>BOND
1 1 2 1
2 2 3 2
3 2 7 1
4 3 4 1
5 4 5 2
6 4 8 1
7 5 6 1
8 6 7 2
9 8 9 1
10 8 12 1
11 9 10 1
12 10 11 1
13 10 14 1
14 11 12 1
15 12 13 2
16 14 15 2
17 14 16 1
18 16 17 1
19 16 21 1
20 17 18 1
21 18 19 1
22 19 20 1
23 19 22 1
24 20 21 1
25 22 23 1
26 23 24 1
27 24 25 1
28 24 28 1
29 25 26 2
30 26 27 1
31 27 28 2
32 3 29 1
33 5 30 1
34 6 31 1
35 7 32 1
36 9 33 1
37 9 34 1
38 10 35 1
39 11 36 1
40 11 37 1
41 17 38 1
42 17 39 1
43 18 40 1
44 18 41 1
45 20 42 1
46 20 43 1
47 21 44 1
48 21 45 1
49 22 46 1
50 22 47 1
51 23 48 1
52 23 49 1
53 25 50 1
54 27 51 1
55 28 52 1
@<TRIPOS>SUBSTRUCTURE
1	UNK0	1	GROUP	1 ****	UNK
