# created with PyMOL 2.3.2
@<TRIPOS>MOLECULE
217
44 47 1                 
SMALL
USER_CHARGES
@<TRIPOS>ATOM
1	  Br	2.405	4.204	3.721	Br	1	UNK0	0.000	
2	   C	2.353	3.211	2.106	C.2	1	UNK0	0.000	
3	   C	1.503	3.567	1.085	C.2	1	UNK0	0.000	
4	   C	1.438	2.870	-0.094	C.2	1	UNK0	0.000	
5	   C	2.281	1.772	-0.210	C.2	1	UNK0	0.000	
6	   C	3.143	1.385	0.787	C.2	1	UNK0	0.000	
7	   C	3.162	2.125	1.945	C.2	1	UNK0	0.000	
8	   N	0.539	3.228	-1.142	N.pl3	1	UNK0	0.000	
9	   C	-0.841	3.687	-0.968	C.3	1	UNK0	0.000	
10	   C	-1.481	3.452	-2.320	C.3	1	UNK0	0.000	
11	   C	-0.475	2.751	-3.173	C.3	1	UNK0	0.000	
12	   C	0.820	3.213	-2.533	C.2	1	UNK0	0.000	
13	   O	1.895	3.512	-3.118	O.2	1	UNK0	0.000	
14	   C	-0.580	1.271	-3.128	C.2	1	UNK0	0.000	
15	   O	-0.658	0.638	-4.203	O.2	1	UNK0	0.000	
16	   N	-0.594	0.564	-1.908	N.pl3	1	UNK0	0.000	
17	   N	-0.674	-0.822	-1.768	N.pl3	1	UNK0	0.000	
18	   C	-0.616	-1.447	-0.485	C.2	1	UNK0	0.000	
19	   O	-0.488	-0.657	0.514	O.2	1	UNK0	0.000	
20	   C	-0.681	-2.844	-0.199	C.2	1	UNK0	0.000	
21	   C	-0.120	-3.319	0.983	C.2	1	UNK0	0.000	
22	   C	-0.175	-4.659	1.321	C.2	1	UNK0	0.000	
23	   C	-0.801	-5.572	0.472	C.2	1	UNK0	0.000	
24	   C	-1.349	-5.118	-0.681	C.2	1	UNK0	0.000	
25	   C	-1.293	-3.762	-1.021	C.2	1	UNK0	0.000	
26	   O	-0.717	-6.833	1.039	O.3	1	UNK0	0.000	
27	   C	0.244	-6.791	2.103	C.3	1	UNK0	0.000	
28	   O	0.281	-5.409	2.397	O.3	1	UNK0	0.000	
29	   H	0.877	4.413	1.238	 H	1	UNK0	0.000	
30	   H	2.284	1.175	-1.135	 H	1	UNK0	0.000	
31	   H	3.804	0.517	0.674	 H	1	UNK0	0.000	
32	   H	3.842	1.804	2.724	 H	1	UNK0	0.000	
33	   H	-0.743	4.805	-0.834	 H	1	UNK0	0.000	
34	   H	-1.365	3.201	-0.146	 H	1	UNK0	0.000	
35	   H	-2.380	2.807	-2.249	 H	1	UNK0	0.000	
36	   H	-1.835	4.425	-2.766	 H	1	UNK0	0.000	
37	   H	-0.570	3.114	-4.209	 H	1	UNK0	0.000	
38	   H	-0.549	1.112	-1.028	 H	1	UNK0	0.000	
39	   H	-0.776	-1.392	-2.656	 H	1	UNK0	0.000	
40	   H	0.381	-2.662	1.687	 H	1	UNK0	0.000	
41	   H	-1.847	-5.785	-1.380	 H	1	UNK0	0.000	
42	   H	-1.750	-3.457	-1.959	 H	1	UNK0	0.000	
43	   H	-0.091	-7.395	2.956	 H	1	UNK0	0.000	
44	   H	1.257	-7.078	1.739	 H	1	UNK0	0.000	
@<TRIPOS>BOND
1 1 2 1
2 2 3 2
3 2 7 1
4 3 4 1
5 4 5 2
6 4 8 1
7 5 6 1
8 6 7 2
9 8 9 1
10 8 12 1
11 9 10 1
12 10 11 1
13 11 12 1
14 11 14 1
15 12 13 2
16 14 15 2
17 14 16 1
18 16 17 1
19 17 18 1
20 18 19 2
21 18 20 1
22 20 21 2
23 20 25 1
24 21 22 1
25 22 23 2
26 22 28 1
27 23 24 1
28 23 26 1
29 24 25 2
30 26 27 1
31 27 28 1
32 3 29 1
33 5 30 1
34 6 31 1
35 7 32 1
36 9 33 1
37 9 34 1
38 10 35 1
39 10 36 1
40 11 37 1
41 16 38 1
42 17 39 1
43 21 40 1
44 24 41 1
45 25 42 1
46 27 43 1
47 27 44 1
@<TRIPOS>SUBSTRUCTURE
1	UNK0	1	GROUP	1 ****	UNK
