# created with PyMOL 2.3.2
@<TRIPOS>MOLECULE
218
51 54 1                 
SMALL
USER_CHARGES
@<TRIPOS>ATOM
1	  Br	-1.990	4.752	-1.727	Br	1	UNK0	0.000	
2	   C	-2.842	3.184	-2.393	C.2	1	UNK0	0.000	
3	   C	-2.411	1.894	-2.057	C.2	1	UNK0	0.000	
4	   C	-3.045	0.787	-2.559	C.2	1	UNK0	0.000	
5	   C	-4.115	0.952	-3.398	C.2	1	UNK0	0.000	
6	   C	-4.575	2.227	-3.754	C.2	1	UNK0	0.000	
7	   C	-3.929	3.330	-3.245	C.2	1	UNK0	0.000	
8	   N	-2.596	-0.504	-2.216	N.pl3	1	UNK0	0.000	
9	   C	-1.933	-1.400	-3.150	C.3	1	UNK0	0.000	
10	   C	-0.913	-2.129	-2.296	C.3	1	UNK0	0.000	
11	   C	-1.617	-2.343	-1.003	C.3	1	UNK0	0.000	
12	   C	-2.641	-1.233	-1.009	C.2	1	UNK0	0.000	
13	   O	-3.452	-0.961	-0.068	O.2	1	UNK0	0.000	
14	   C	-0.776	-2.161	0.196	C.2	1	UNK0	0.000	
15	   O	-1.267	-1.406	1.115	O.2	1	UNK0	0.000	
16	   N	0.471	-2.693	0.467	N.pl3	1	UNK0	0.000	
17	   C	1.278	-3.566	-0.377	C.3	1	UNK0	0.000	
18	   C	2.603	-2.831	-0.720	C.3	1	UNK0	0.000	
19	   N	2.440	-1.573	-0.048	N.3	1	UNK0	0.000	
20	   C	2.505	-1.747	1.342	C.3	1	UNK0	0.000	
21	   C	1.154	-2.373	1.740	C.3	1	UNK0	0.000	
22	   C	2.627	-0.398	-0.709	C.3	1	UNK0	0.000	
23	   C	2.192	0.774	0.098	C.2	1	UNK0	0.000	
24	   N	2.300	2.092	-0.261	N.2	1	UNK0	0.000	
25	   N	1.778	2.851	0.708	N.pl3	1	UNK0	0.000	
26	   C	1.328	2.062	1.697	C.2	1	UNK0	0.000	
27	   N	1.594	0.823	1.299	N.2	1	UNK0	0.000	
28	   C	0.662	2.438	2.990	C.3	1	UNK0	0.000	
29	   H	-1.559	1.864	-1.385	 H	1	UNK0	0.000	
30	   H	-4.670	0.136	-3.836	 H	1	UNK0	0.000	
31	   H	-5.417	2.349	-4.414	 H	1	UNK0	0.000	
32	   H	-4.265	4.320	-3.506	 H	1	UNK0	0.000	
33	   H	-1.400	-0.855	-3.924	 H	1	UNK0	0.000	
34	   H	-2.694	-2.100	-3.508	 H	1	UNK0	0.000	
35	   H	-0.736	-3.088	-2.862	 H	1	UNK0	0.000	
36	   H	0.008	-1.558	-2.166	 H	1	UNK0	0.000	
37	   H	-2.174	-3.278	-1.034	 H	1	UNK0	0.000	
38	   H	1.540	-4.444	0.267	 H	1	UNK0	0.000	
39	   H	0.779	-3.954	-1.252	 H	1	UNK0	0.000	
40	   H	2.789	-2.777	-1.782	 H	1	UNK0	0.000	
41	   H	3.436	-3.366	-0.229	 H	1	UNK0	0.000	
42	   H	3.243	-2.599	1.520	 H	1	UNK0	0.000	
43	   H	2.840	-0.960	1.988	 H	1	UNK0	0.000	
44	   H	1.286	-3.345	2.252	 H	1	UNK0	0.000	
45	   H	0.559	-1.686	2.351	 H	1	UNK0	0.000	
46	   H	3.671	-0.180	-1.030	 H	1	UNK0	0.000	
47	   H	1.999	-0.349	-1.639	 H	1	UNK0	0.000	
48	   H	1.718	3.907	0.712	 H	1	UNK0	0.000	
49	   H	1.413	2.936	3.632	 H	1	UNK0	0.000	
50	   H	-0.122	3.174	2.736	 H	1	UNK0	0.000	
51	   H	0.247	1.549	3.489	 H	1	UNK0	0.000	
@<TRIPOS>BOND
1 1 2 1
2 2 3 2
3 2 7 1
4 3 4 1
5 4 5 2
6 4 8 1
7 5 6 1
8 6 7 2
9 8 9 1
10 8 12 1
11 9 10 1
12 10 11 1
13 11 12 1
14 11 14 1
15 12 13 2
16 14 15 2
17 14 16 1
18 16 17 1
19 16 21 1
20 17 18 1
21 18 19 1
22 19 20 1
23 19 22 1
24 20 21 1
25 22 23 1
26 23 24 2
27 23 27 1
28 24 25 1
29 25 26 1
30 26 27 2
31 26 28 1
32 3 29 1
33 5 30 1
34 6 31 1
35 7 32 1
36 9 33 1
37 9 34 1
38 10 35 1
39 10 36 1
40 11 37 1
41 17 38 1
42 17 39 1
43 18 40 1
44 18 41 1
45 20 42 1
46 20 43 1
47 21 44 1
48 21 45 1
49 22 46 1
50 22 47 1
51 25 48 1
52 28 49 1
53 28 50 1
54 28 51 1
@<TRIPOS>SUBSTRUCTURE
1	UNK0	1	GROUP	1 ****	UNK
