# created with PyMOL 2.3.2
@<TRIPOS>MOLECULE
220
71 74 1                 
SMALL
USER_CHARGES
@<TRIPOS>ATOM
1	  Br	0.024	-4.631	-4.771	Br	1	UNK0	0.000	
2	   C	0.967	-3.904	-3.261	C.2	1	UNK0	0.000	
3	   C	0.283	-3.049	-2.433	C.2	1	UNK0	0.000	
4	   C	0.908	-2.498	-1.340	C.2	1	UNK0	0.000	
5	   C	2.221	-2.830	-1.111	C.2	1	UNK0	0.000	
6	   C	2.894	-3.688	-1.948	C.2	1	UNK0	0.000	
7	   C	2.284	-4.250	-3.049	C.2	1	UNK0	0.000	
8	   O	0.178	-1.657	-0.557	O.3	1	UNK0	0.000	
9	   C	0.531	-0.958	0.584	C.3	1	UNK0	0.000	
10	   C	-0.288	-1.344	1.802	C.3	1	UNK0	0.000	
11	   C	-1.314	-0.320	2.136	C.3	1	UNK0	0.000	
12	   N	-1.897	0.165	0.845	N.pl3	1	UNK0	0.000	
13	   C	-0.991	1.005	0.113	C.3	1	UNK0	0.000	
14	   C	0.442	0.537	0.330	C.3	1	UNK0	0.000	
15	   C	-3.172	-0.269	0.491	C.2	1	UNK0	0.000	
16	   O	-3.703	-1.132	1.316	O.2	1	UNK0	0.000	
17	   C	-3.991	0.091	-0.661	C.3	1	UNK0	0.000	
18	   N	-3.467	1.106	-1.475	N.3	1	UNK0	0.000	
19	   C	-3.562	2.452	-0.926	C.3	1	UNK0	0.000	
20	   C	-2.675	3.336	-1.764	C.3	1	UNK0	0.000	
21	   N	-2.219	2.812	-2.982	N.3	1	UNK0	0.000	
22	   C	-3.021	1.890	-3.668	C.3	1	UNK0	0.000	
23	   C	-4.032	1.166	-2.806	C.3	1	UNK0	0.000	
24	   C	-0.841	2.888	-3.291	C.3	1	UNK0	0.000	
25	   C	-0.336	4.295	-3.534	C.3	1	UNK0	0.000	
26	   C	0.594	-1.776	2.935	C.3	1	UNK0	0.000	
27	   C	1.543	-0.743	3.407	C.2	1	UNK0	0.000	
28	   O	1.044	0.361	3.747	O.2	1	UNK0	0.000	
29	   N	2.945	-0.906	3.498	N.pl3	1	UNK0	0.000	
30	   C	3.667	-2.108	3.141	C.3	1	UNK0	0.000	
31	   C	4.842	-1.642	2.266	C.3	1	UNK0	0.000	
32	   O	5.642	-0.732	2.933	O.3	1	UNK0	0.000	
33	   C	4.921	0.475	3.036	C.3	1	UNK0	0.000	
34	   C	3.761	0.191	3.980	C.3	1	UNK0	0.000	
35	   H	-0.774	-2.794	-2.635	 H	1	UNK0	0.000	
36	   H	2.753	-2.409	-0.248	 H	1	UNK0	0.000	
37	   H	3.949	-3.953	-1.761	 H	1	UNK0	0.000	
38	   H	2.818	-4.937	-3.723	 H	1	UNK0	0.000	
39	   H	1.587	-1.169	0.828	 H	1	UNK0	0.000	
40	   H	-0.857	-2.268	1.487	 H	1	UNK0	0.000	
41	   H	-0.941	0.599	2.616	 H	1	UNK0	0.000	
42	   H	-2.142	-0.694	2.755	 H	1	UNK0	0.000	
43	   H	-1.094	2.051	0.490	 H	1	UNK0	0.000	
44	   H	-1.173	0.998	-0.958	 H	1	UNK0	0.000	
45	   H	0.872	1.123	1.147	 H	1	UNK0	0.000	
46	   H	1.033	0.760	-0.581	 H	1	UNK0	0.000	
47	   H	-5.048	0.305	-0.311	 H	1	UNK0	0.000	
48	   H	-4.113	-0.837	-1.288	 H	1	UNK0	0.000	
49	   H	-3.394	2.510	0.150	 H	1	UNK0	0.000	
50	   H	-4.638	2.773	-1.163	 H	1	UNK0	0.000	
51	   H	-3.164	4.335	-1.945	 H	1	UNK0	0.000	
52	   H	-1.786	3.585	-1.133	 H	1	UNK0	0.000	
53	   H	-3.533	2.417	-4.525	 H	1	UNK0	0.000	
54	   H	-2.387	1.114	-4.143	 H	1	UNK0	0.000	
55	   H	-4.977	1.740	-2.855	 H	1	UNK0	0.000	
56	   H	-4.245	0.151	-3.182	 H	1	UNK0	0.000	
57	   H	-0.155	2.400	-2.591	 H	1	UNK0	0.000	
58	   H	-0.701	2.356	-4.280	 H	1	UNK0	0.000	
59	   H	0.790	4.251	-3.463	 H	1	UNK0	0.000	
60	   H	-0.668	5.014	-2.784	 H	1	UNK0	0.000	
61	   H	-0.597	4.687	-4.531	 H	1	UNK0	0.000	
62	   H	1.115	-2.714	2.586	 H	1	UNK0	0.000	
63	   H	-0.037	-2.161	3.796	 H	1	UNK0	0.000	
64	   H	4.126	-2.539	4.055	 H	1	UNK0	0.000	
65	   H	3.120	-2.823	2.533	 H	1	UNK0	0.000	
66	   H	4.376	-1.093	1.407	 H	1	UNK0	0.000	
67	   H	5.410	-2.487	1.857	 H	1	UNK0	0.000	
68	   H	5.597	1.174	3.573	 H	1	UNK0	0.000	
69	   H	4.600	0.855	2.060	 H	1	UNK0	0.000	
70	   H	4.234	-0.174	4.930	 H	1	UNK0	0.000	
71	   H	3.175	1.101	4.184	 H	1	UNK0	0.000	
@<TRIPOS>BOND
1 1 2 1
2 2 3 2
3 2 7 1
4 3 4 1
5 4 5 2
6 4 8 1
7 5 6 1
8 6 7 2
9 8 9 1
10 9 10 1
11 9 14 1
12 10 11 1
13 10 26 1
14 11 12 1
15 12 13 1
16 12 15 1
17 13 14 1
18 15 16 2
19 15 17 1
20 17 18 1
21 18 19 1
22 18 23 1
23 19 20 1
24 20 21 1
25 21 22 1
26 21 24 1
27 22 23 1
28 24 25 1
29 26 27 1
30 27 28 2
31 27 29 1
32 29 30 1
33 29 34 1
34 30 31 1
35 31 32 1
36 32 33 1
37 33 34 1
38 3 35 1
39 5 36 1
40 6 37 1
41 7 38 1
42 9 39 1
43 10 40 1
44 11 41 1
45 11 42 1
46 13 43 1
47 13 44 1
48 14 45 1
49 14 46 1
50 17 47 1
51 17 48 1
52 19 49 1
53 19 50 1
54 20 51 1
55 20 52 1
56 22 53 1
57 22 54 1
58 23 55 1
59 23 56 1
60 24 57 1
61 24 58 1
62 25 59 1
63 25 60 1
64 25 61 1
65 26 62 1
66 26 63 1
67 30 64 1
68 30 65 1
69 31 66 1
70 31 67 1
71 33 68 1
72 33 69 1
73 34 70 1
74 34 71 1
@<TRIPOS>SUBSTRUCTURE
1	UNK0	1	GROUP	1 ****	UNK
