# created with PyMOL 2.3.2
@<TRIPOS>MOLECULE
221
68 71 1                 
SMALL
USER_CHARGES
@<TRIPOS>ATOM
1	  Br	1.528	3.189	-4.792	Br	1	UNK0	0.000	
2	   C	0.009	2.149	-4.265	C.2	1	UNK0	0.000	
3	   C	0.091	1.352	-3.135	C.2	1	UNK0	0.000	
4	   C	-1.001	0.607	-2.762	C.2	1	UNK0	0.000	
5	   C	-2.138	0.687	-3.535	C.2	1	UNK0	0.000	
6	   C	-2.238	1.473	-4.660	C.2	1	UNK0	0.000	
7	   C	-1.149	2.207	-5.021	C.2	1	UNK0	0.000	
8	   O	-1.011	-0.199	-1.673	O.3	1	UNK0	0.000	
9	   C	-0.034	-0.466	-0.730	C.3	1	UNK0	0.000	
10	   C	0.359	-1.903	-0.616	C.3	1	UNK0	0.000	
11	   C	-0.732	-2.777	-0.088	C.3	1	UNK0	0.000	
12	   N	-1.880	-1.887	0.280	N.pl3	1	UNK0	0.000	
13	   C	-1.511	-0.912	1.272	C.3	1	UNK0	0.000	
14	   C	-0.536	0.065	0.614	C.3	1	UNK0	0.000	
15	   C	-3.106	-2.045	-0.376	C.2	1	UNK0	0.000	
16	   O	-3.060	-2.918	-1.355	O.2	1	UNK0	0.000	
17	   C	-4.387	-1.415	-0.160	C.3	1	UNK0	0.000	
18	   N	-4.477	-0.555	0.984	N.3	1	UNK0	0.000	
19	   C	-5.748	0.210	0.933	C.3	1	UNK0	0.000	
20	   C	-5.784	1.095	2.159	C.3	1	UNK0	0.000	
21	   O	-4.730	0.795	3.025	O.3	1	UNK0	0.000	
22	   C	-4.680	-0.528	3.369	C.3	1	UNK0	0.000	
23	   C	-4.742	-1.444	2.178	C.3	1	UNK0	0.000	
24	   C	1.604	-2.123	0.163	C.3	1	UNK0	0.000	
25	   C	2.829	-1.508	-0.345	C.2	1	UNK0	0.000	
26	   O	2.834	-0.880	-1.420	O.2	1	UNK0	0.000	
27	   N	4.051	-1.605	0.368	N.pl3	1	UNK0	0.000	
28	   C	5.277	-1.002	-0.119	C.3	1	UNK0	0.000	
29	   C	5.653	0.093	0.855	C.3	1	UNK0	0.000	
30	   N	5.280	-0.204	2.201	N.3	1	UNK0	0.000	
31	   C	5.162	-1.602	2.483	C.3	1	UNK0	0.000	
32	   C	4.149	-2.315	1.630	C.3	1	UNK0	0.000	
33	   C	4.217	0.602	2.727	C.3	1	UNK0	0.000	
34	   H	1.030	1.344	-2.576	 H	1	UNK0	0.000	
35	   H	-3.047	0.116	-3.292	 H	1	UNK0	0.000	
36	   H	-3.139	1.535	-5.270	 H	1	UNK0	0.000	
37	   H	-1.194	2.837	-5.903	 H	1	UNK0	0.000	
38	   H	0.861	0.134	-0.961	 H	1	UNK0	0.000	
39	   H	0.568	-2.253	-1.662	 H	1	UNK0	0.000	
40	   H	-1.110	-3.507	-0.832	 H	1	UNK0	0.000	
41	   H	-0.435	-3.377	0.813	 H	1	UNK0	0.000	
42	   H	-0.967	-1.480	2.080	 H	1	UNK0	0.000	
43	   H	-2.294	-0.370	1.768	 H	1	UNK0	0.000	
44	   H	-1.096	1.011	0.467	 H	1	UNK0	0.000	
45	   H	0.303	0.297	1.286	 H	1	UNK0	0.000	
46	   H	-5.195	-2.205	-0.043	 H	1	UNK0	0.000	
47	   H	-4.754	-0.826	-1.040	 H	1	UNK0	0.000	
48	   H	-6.596	-0.478	0.971	 H	1	UNK0	0.000	
49	   H	-5.720	0.804	0.010	 H	1	UNK0	0.000	
50	   H	-5.640	2.140	1.821	 H	1	UNK0	0.000	
51	   H	-6.773	1.038	2.652	 H	1	UNK0	0.000	
52	   H	-3.671	-0.703	3.841	 H	1	UNK0	0.000	
53	   H	-5.414	-0.816	4.150	 H	1	UNK0	0.000	
54	   H	-3.987	-2.228	2.215	 H	1	UNK0	0.000	
55	   H	-5.726	-1.926	2.038	 H	1	UNK0	0.000	
56	   H	1.427	-1.798	1.235	 H	1	UNK0	0.000	
57	   H	1.811	-3.230	0.289	 H	1	UNK0	0.000	
58	   H	6.124	-1.727	-0.142	 H	1	UNK0	0.000	
59	   H	5.156	-0.591	-1.143	 H	1	UNK0	0.000	
60	   H	5.180	1.051	0.508	 H	1	UNK0	0.000	
61	   H	6.759	0.308	0.799	 H	1	UNK0	0.000	
62	   H	4.859	-1.678	3.564	 H	1	UNK0	0.000	
63	   H	6.172	-2.054	2.437	 H	1	UNK0	0.000	
64	   H	4.576	-3.318	1.395	 H	1	UNK0	0.000	
65	   H	3.160	-2.397	2.125	 H	1	UNK0	0.000	
66	   H	4.264	0.570	3.841	 H	1	UNK0	0.000	
67	   H	4.414	1.656	2.452	 H	1	UNK0	0.000	
68	   H	3.227	0.255	2.401	 H	1	UNK0	0.000	
@<TRIPOS>BOND
1 1 2 1
2 2 3 2
3 2 7 1
4 3 4 1
5 4 5 2
6 4 8 1
7 5 6 1
8 6 7 2
9 8 9 1
10 9 10 1
11 9 14 1
12 10 11 1
13 10 24 1
14 11 12 1
15 12 13 1
16 12 15 1
17 13 14 1
18 15 16 2
19 15 17 1
20 17 18 1
21 18 19 1
22 18 23 1
23 19 20 1
24 20 21 1
25 21 22 1
26 22 23 1
27 24 25 1
28 25 26 2
29 25 27 1
30 27 28 1
31 27 32 1
32 28 29 1
33 29 30 1
34 30 31 1
35 30 33 1
36 31 32 1
37 3 34 1
38 5 35 1
39 6 36 1
40 7 37 1
41 9 38 1
42 10 39 1
43 11 40 1
44 11 41 1
45 13 42 1
46 13 43 1
47 14 44 1
48 14 45 1
49 17 46 1
50 17 47 1
51 19 48 1
52 19 49 1
53 20 50 1
54 20 51 1
55 22 52 1
56 22 53 1
57 23 54 1
58 23 55 1
59 24 56 1
60 24 57 1
61 28 58 1
62 28 59 1
63 29 60 1
64 29 61 1
65 31 62 1
66 31 63 1
67 32 64 1
68 32 65 1
69 33 66 1
70 33 67 1
71 33 68 1
@<TRIPOS>SUBSTRUCTURE
1	UNK0	1	GROUP	1 ****	UNK
