# created with PyMOL 2.3.2
@<TRIPOS>MOLECULE
226
50 53 1                 
SMALL
USER_CHARGES
@<TRIPOS>ATOM
1	  Br	-2.881	0.082	6.966	Br	1	UNK0	0.000	
2	   C	-1.983	0.187	5.293	C.2	1	UNK0	0.000	
3	   C	-0.641	0.535	5.241	C.2	1	UNK0	0.000	
4	   C	0.040	0.620	4.038	C.2	1	UNK0	0.000	
5	   C	-0.583	0.365	2.841	C.2	1	UNK0	0.000	
6	   C	-1.921	0.019	2.906	C.2	1	UNK0	0.000	
7	   C	-2.610	-0.070	4.094	C.2	1	UNK0	0.000	
8	   C	0.133	0.451	1.570	C.2	1	UNK0	0.000	
9	   O	1.333	0.770	1.586	O.2	1	UNK0	0.000	
10	   C	-0.564	0.162	0.278	C.3	1	UNK0	0.000	
11	   N	0.300	0.264	-0.864	N.pl3	1	UNK0	0.000	
12	   C	0.550	1.359	-1.601	C.2	1	UNK0	0.000	
13	   C	1.430	1.045	-2.619	C.2	1	UNK0	0.000	
14	   N	1.689	-0.259	-2.463	N.2	1	UNK0	0.000	
15	   C	1.019	-0.758	-1.409	C.2	1	UNK0	0.000	
16	   N	1.009	-2.082	-0.908	N.pl3	1	UNK0	0.000	
17	   C	2.027	-2.484	0.008	C.3	1	UNK0	0.000	
18	   C	1.794	-3.732	0.775	C.3	1	UNK0	0.000	
19	   N	0.904	-4.679	0.171	N.3	1	UNK0	0.000	
20	   C	-0.316	-3.982	-0.187	C.3	1	UNK0	0.000	
21	   C	-0.014	-2.995	-1.316	C.3	1	UNK0	0.000	
22	   C	1.483	-5.393	-0.931	C.3	1	UNK0	0.000	
23	   N	1.823	1.993	-3.489	N.pl3	1	UNK0	0.000	
24	   C	1.369	3.254	-3.381	C.2	1	UNK0	0.000	
25	   O	1.710	4.169	-4.171	O.2	1	UNK0	0.000	
26	   N	0.501	3.577	-2.383	N.pl3	1	UNK0	0.000	
27	   C	0.079	2.665	-1.489	C.2	1	UNK0	0.000	
28	   O	-0.732	3.007	-0.568	O.2	1	UNK0	0.000	
29	   C	2.745	1.696	-4.566	C.3	1	UNK0	0.000	
30	   H	-0.144	0.737	6.188	 H	1	UNK0	0.000	
31	   H	1.103	0.898	4.030	 H	1	UNK0	0.000	
32	   H	-2.432	-0.188	1.967	 H	1	UNK0	0.000	
33	   H	-3.651	-0.340	4.116	 H	1	UNK0	0.000	
34	   H	-1.080	-0.820	0.343	 H	1	UNK0	0.000	
35	   H	-1.374	0.910	0.186	 H	1	UNK0	0.000	
36	   H	2.960	-2.600	-0.607	 H	1	UNK0	0.000	
37	   H	2.234	-1.663	0.737	 H	1	UNK0	0.000	
38	   H	1.443	-3.525	1.816	 H	1	UNK0	0.000	
39	   H	2.787	-4.273	0.853	 H	1	UNK0	0.000	
40	   H	-0.588	-3.352	0.694	 H	1	UNK0	0.000	
41	   H	-1.153	-4.614	-0.460	 H	1	UNK0	0.000	
42	   H	0.250	-3.550	-2.251	 H	1	UNK0	0.000	
43	   H	-0.987	-2.506	-1.531	 H	1	UNK0	0.000	
44	   H	2.257	-4.737	-1.424	 H	1	UNK0	0.000	
45	   H	0.736	-5.708	-1.685	 H	1	UNK0	0.000	
46	   H	2.039	-6.295	-0.610	 H	1	UNK0	0.000	
47	   H	0.171	4.569	-2.335	 H	1	UNK0	0.000	
48	   H	3.756	1.655	-4.109	 H	1	UNK0	0.000	
49	   H	2.523	0.686	-4.963	 H	1	UNK0	0.000	
50	   H	2.703	2.473	-5.354	 H	1	UNK0	0.000	
@<TRIPOS>BOND
1 1 2 1
2 2 3 2
3 2 7 1
4 3 4 1
5 4 5 2
6 5 6 1
7 5 8 1
8 6 7 2
9 8 9 2
10 8 10 1
11 10 11 1
12 11 12 1
13 11 15 1
14 12 13 2
15 12 27 1
16 13 14 1
17 13 23 1
18 14 15 2
19 15 16 1
20 16 17 1
21 16 21 1
22 17 18 1
23 18 19 1
24 19 20 1
25 19 22 1
26 20 21 1
27 23 24 1
28 23 29 1
29 24 25 2
30 24 26 1
31 26 27 1
32 27 28 2
33 3 30 1
34 4 31 1
35 6 32 1
36 7 33 1
37 10 34 1
38 10 35 1
39 17 36 1
40 17 37 1
41 18 38 1
42 18 39 1
43 20 40 1
44 20 41 1
45 21 42 1
46 21 43 1
47 22 44 1
48 22 45 1
49 22 46 1
50 26 47 1
51 29 48 1
52 29 49 1
53 29 50 1
@<TRIPOS>SUBSTRUCTURE
1	UNK0	1	GROUP	1 ****	UNK
