# created with PyMOL 2.3.2
@<TRIPOS>MOLECULE
227
37 40 1                 
SMALL
USER_CHARGES
@<TRIPOS>ATOM
1	  Br	-5.529	-5.285	-2.580	Br	1	UNK0	0.000	
2	   C	-4.360	-4.012	-1.815	C.2	1	UNK0	0.000	
3	   C	-4.719	-3.185	-0.777	C.2	1	UNK0	0.000	
4	   C	-3.838	-2.281	-0.258	C.2	1	UNK0	0.000	
5	   C	-2.571	-2.164	-0.749	C.2	1	UNK0	0.000	
6	   C	-2.183	-2.980	-1.791	C.2	1	UNK0	0.000	
7	   C	-3.064	-3.890	-2.315	C.2	1	UNK0	0.000	
8	   C	-1.656	-1.199	-0.182	C.2	1	UNK0	0.000	
9	   O	-2.027	-0.458	0.777	O.2	1	UNK0	0.000	
10	   C	-0.287	-1.068	-0.714	C.3	1	UNK0	0.000	
11	   N	0.465	-0.046	-0.008	N.pl3	1	UNK0	0.000	
12	   C	1.580	-0.235	0.851	C.2	1	UNK0	0.000	
13	   C	1.983	1.002	1.305	C.2	1	UNK0	0.000	
14	   C	3.050	1.140	2.163	C.2	1	UNK0	0.000	
15	   C	3.731	0.003	2.576	C.2	1	UNK0	0.000	
16	   C	3.349	-1.247	2.137	C.2	1	UNK0	0.000	
17	   C	2.279	-1.362	1.279	C.2	1	UNK0	0.000	
18	   N	1.108	1.998	0.723	N.pl3	1	UNK0	0.000	
19	   C	0.846	3.414	0.674	C.3	1	UNK0	0.000	
20	   C	-0.318	3.543	-0.235	C.3	1	UNK0	0.000	
21	   N	-0.656	2.196	-0.648	N.pl3	1	UNK0	0.000	
22	   C	0.156	1.357	-0.099	C.cat	1	UNK0	0.000	
23	   H	-5.724	-3.267	-0.376	 H	1	UNK0	0.000	
24	   H	-4.141	-1.636	0.562	 H	1	UNK0	0.000	
25	   H	-1.185	-2.881	-2.171	 H	1	UNK0	0.000	
26	   H	-2.779	-4.539	-3.132	 H	1	UNK0	0.000	
27	   H	0.276	-2.010	-0.724	 H	1	UNK0	0.000	
28	   H	-0.377	-0.744	-1.779	 H	1	UNK0	0.000	
29	   H	3.346	2.129	2.505	 H	1	UNK0	0.000	
30	   H	4.585	0.093	3.260	 H	1	UNK0	0.000	
31	   H	3.917	-2.108	2.491	 H	1	UNK0	0.000	
32	   H	1.968	-2.335	0.927	 H	1	UNK0	0.000	
33	   H	1.734	3.999	0.358	 H	1	UNK0	0.000	
34	   H	0.521	3.700	1.710	 H	1	UNK0	0.000	
35	   H	-1.181	4.028	0.295	 H	1	UNK0	0.000	
36	   H	-0.089	4.176	-1.131	 H	1	UNK0	0.000	
37	   H	-1.454	1.982	-1.300	 H	1	UNK0	0.000	
@<TRIPOS>BOND
1 1 2 1
2 2 3 2
3 2 7 1
4 3 4 1
5 4 5 2
6 5 6 1
7 5 8 1
8 6 7 2
9 8 9 2
10 8 10 1
11 10 11 1
12 11 12 1
13 11 22 1
14 12 13 1
15 12 17 2
16 13 14 2
17 13 18 1
18 14 15 1
19 15 16 2
20 16 17 1
21 18 19 1
22 18 22 1
23 19 20 1
24 20 21 1
25 21 22 2
26 3 23 1
27 4 24 1
28 6 25 1
29 7 26 1
30 10 27 1
31 10 28 1
32 14 29 1
33 15 30 1
34 16 31 1
35 17 32 1
36 19 33 1
37 19 34 1
38 20 35 1
39 20 36 1
40 21 37 1
@<TRIPOS>SUBSTRUCTURE
1	UNK0	1	GROUP	1 ****	UNK
