# created with PyMOL 2.3.2
@<TRIPOS>MOLECULE
228
42 45 1                 
SMALL
USER_CHARGES
@<TRIPOS>ATOM
1	  Br	-1.634	-3.898	-4.252	Br	1	UNK0	0.000	
2	   C	-2.169	-2.487	-3.095	C.2	1	UNK0	0.000	
3	   C	-3.437	-1.947	-3.295	C.2	1	UNK0	0.000	
4	   C	-3.853	-0.931	-2.481	C.2	1	UNK0	0.000	
5	   C	-3.067	-0.391	-1.441	C.2	1	UNK0	0.000	
6	   C	-1.829	-0.951	-1.279	C.2	1	UNK0	0.000	
7	   C	-1.391	-1.981	-2.095	C.2	1	UNK0	0.000	
8	   C	-3.612	0.638	-0.601	C.2	1	UNK0	0.000	
9	   O	-4.874	0.874	-0.682	O.2	1	UNK0	0.000	
10	   C	-2.873	1.444	0.339	C.3	1	UNK0	0.000	
11	   O	-1.513	1.483	0.059	O.3	1	UNK0	0.000	
12	   C	-0.990	2.032	-1.117	C.2	1	UNK0	0.000	
13	   O	-1.785	2.500	-1.939	O.co2	1	UNK0	0.000	
14	   C	0.471	2.022	-1.307	C.3	1	UNK0	0.000	
15	   N	1.186	1.445	-0.206	N.pl3	1	UNK0	0.000	
16	   C	1.580	0.081	0.028	C.2	1	UNK0	0.000	
17	   O	1.644	-0.788	-0.851	O.2	1	UNK0	0.000	
18	   C	1.894	-0.108	1.470	C.3	1	UNK0	0.000	
19	   C	1.903	1.314	2.051	C.3	1	UNK0	0.000	
20	   C	3.321	1.473	2.490	C.3	1	UNK0	0.000	
21	   C	3.618	0.067	3.036	C.3	1	UNK0	0.000	
22	   C	3.287	-0.623	1.701	C.3	1	UNK0	0.000	
23	   C	4.195	0.138	0.802	C.2	1	UNK0	0.000	
24	   C	4.170	1.410	1.246	C.2	1	UNK0	0.000	
25	   C	1.649	2.213	0.921	C.2	1	UNK0	0.000	
26	   O	1.815	3.459	0.945	O.2	1	UNK0	0.000	
27	   H	-4.071	-2.330	-4.079	 H	1	UNK0	0.000	
28	   H	-4.832	-0.501	-2.622	 H	1	UNK0	0.000	
29	   H	-1.168	-0.642	-0.499	 H	1	UNK0	0.000	
30	   H	-0.403	-2.416	-1.955	 H	1	UNK0	0.000	
31	   H	-3.306	2.472	0.486	 H	1	UNK0	0.000	
32	   H	-2.949	0.967	1.371	 H	1	UNK0	0.000	
33	   H	0.880	3.056	-1.470	 H	1	UNK0	0.000	
34	   H	0.672	1.406	-2.225	 H	1	UNK0	0.000	
35	   H	1.173	-0.748	1.978	 H	1	UNK0	0.000	
36	   H	1.169	1.406	2.871	 H	1	UNK0	0.000	
37	   H	3.555	2.264	3.156	 H	1	UNK0	0.000	
38	   H	4.679	-0.000	3.279	 H	1	UNK0	0.000	
39	   H	2.922	-0.225	3.820	 H	1	UNK0	0.000	
40	   H	3.414	-1.680	1.715	 H	1	UNK0	0.000	
41	   H	4.772	-0.225	-0.045	 H	1	UNK0	0.000	
42	   H	4.675	2.228	0.783	 H	1	UNK0	0.000	
@<TRIPOS>BOND
1 1 2 1
2 2 3 2
3 2 7 1
4 3 4 1
5 4 5 2
6 5 6 1
7 5 8 1
8 6 7 2
9 8 9 2
10 8 10 1
11 10 11 1
12 11 12 1
13 12 13 2
14 12 14 1
15 14 15 1
16 15 16 1
17 15 25 1
18 16 17 2
19 16 18 1
20 18 19 1
21 18 22 1
22 19 20 1
23 19 25 1
24 20 21 1
25 20 24 1
26 21 22 1
27 22 23 1
28 23 24 2
29 25 26 2
30 3 27 1
31 4 28 1
32 6 29 1
33 7 30 1
34 10 31 1
35 10 32 1
36 14 33 1
37 14 34 1
38 18 35 1
39 19 36 1
40 20 37 1
41 21 38 1
42 21 39 1
43 22 40 1
44 23 41 1
45 24 42 1
@<TRIPOS>SUBSTRUCTURE
1	UNK0	1	GROUP	1 ****	UNK
