# created with PyMOL 2.3.2
@<TRIPOS>MOLECULE
230
61 64 1                 
SMALL
USER_CHARGES
@<TRIPOS>ATOM
1	  Br	1.212	4.207	-6.095	Br	1	UNK0	0.000	
2	   C	0.931	2.874	-4.731	C.2	1	UNK0	0.000	
3	   C	0.808	1.546	-5.048	C.2	1	UNK0	0.000	
4	   C	0.604	0.545	-4.104	C.2	1	UNK0	0.000	
5	   C	0.522	0.905	-2.778	C.2	1	UNK0	0.000	
6	   C	0.648	2.251	-2.470	C.2	1	UNK0	0.000	
7	   C	0.849	3.240	-3.404	C.2	1	UNK0	0.000	
8	   C	0.342	-0.080	-1.721	C.2	1	UNK0	0.000	
9	   O	0.144	0.416	-0.558	O.2	1	UNK0	0.000	
10	   C	0.373	-1.533	-1.888	C.3	1	UNK0	0.000	
11	   C	0.035	-2.321	-0.651	C.3	1	UNK0	0.000	
12	   N	1.227	-2.524	0.044	N.pl3	1	UNK0	0.000	
13	   C	2.178	-2.800	-1.060	C.2	1	UNK0	0.000	
14	   O	3.177	-3.568	-1.028	O.2	1	UNK0	0.000	
15	   C	1.740	-2.008	-2.198	C.2	1	UNK0	0.000	
16	   O	2.416	-1.784	-3.242	O.2	1	UNK0	0.000	
17	   C	1.747	-2.666	1.368	C.3	1	UNK0	0.000	
18	   C	2.655	-1.603	1.859	C.3	1	UNK0	0.000	
19	   N	2.261	-0.262	1.953	N.4	1	UNK0	0.000	
20	   C	2.498	0.312	3.284	C.3	1	UNK0	0.000	
21	   C	3.945	0.358	3.644	C.3	1	UNK0	0.000	
22	   O	4.708	0.019	2.550	O.3	1	UNK0	0.000	
23	   C	4.356	0.882	1.499	C.3	1	UNK0	0.000	
24	   C	2.986	0.541	0.952	C.3	1	UNK0	0.000	
25	   C	-1.263	-2.068	-0.078	C.2	1	UNK0	0.000	
26	   C	-1.503	-1.381	1.070	C.2	1	UNK0	0.000	
27	   C	-2.795	-1.175	1.528	C.2	1	UNK0	0.000	
28	   C	-3.872	-1.689	0.790	C.2	1	UNK0	0.000	
29	   C	-3.629	-2.379	-0.363	C.2	1	UNK0	0.000	
30	   C	-2.361	-2.579	-0.812	C.2	1	UNK0	0.000	
31	   O	-5.178	-1.513	1.202	O.2	1	UNK0	0.000	
32	   O	-3.067	-0.491	2.669	O.3	1	UNK0	0.000	
33	   C	-2.102	0.102	3.476	C.3	1	UNK0	0.000	
34	   C	-1.327	1.211	2.787	C.3	1	UNK0	0.000	
35	   H	0.871	1.240	-6.095	 H	1	UNK0	0.000	
36	   H	0.498	-0.475	-4.449	 H	1	UNK0	0.000	
37	   H	0.590	2.595	-1.425	 H	1	UNK0	0.000	
38	   H	0.944	4.288	-3.143	 H	1	UNK0	0.000	
39	   H	-0.317	-1.845	-2.738	 H	1	UNK0	0.000	
40	   H	-0.096	-3.428	-1.161	 H	1	UNK0	0.000	
41	   H	0.916	-2.747	2.129	 H	1	UNK0	0.000	
42	   H	2.339	-3.630	1.392	 H	1	UNK0	0.000	
43	   H	3.638	-1.611	1.260	 H	1	UNK0	0.000	
44	   H	3.076	-1.900	2.891	 H	1	UNK0	0.000	
45	   H	1.273	-0.126	1.754	 H	1	UNK0	0.000	
46	   H	1.855	-0.215	3.997	 H	1	UNK0	0.000	
47	   H	2.123	1.362	3.212	 H	1	UNK0	0.000	
48	   H	4.245	1.378	3.972	 H	1	UNK0	0.000	
49	   H	4.113	-0.396	4.450	 H	1	UNK0	0.000	
50	   H	4.361	1.933	1.793	 H	1	UNK0	0.000	
51	   H	5.088	0.681	0.684	 H	1	UNK0	0.000	
52	   H	2.388	1.434	0.693	 H	1	UNK0	0.000	
53	   H	3.031	-0.095	0.044	 H	1	UNK0	0.000	
54	   H	-0.702	-0.980	1.700	 H	1	UNK0	0.000	
55	   H	-4.477	-2.781	-0.941	 H	1	UNK0	0.000	
56	   H	-2.204	-3.132	-1.732	 H	1	UNK0	0.000	
57	   H	-2.546	0.525	4.408	 H	1	UNK0	0.000	
58	   H	-1.345	-0.642	3.829	 H	1	UNK0	0.000	
59	   H	-1.688	2.194	3.191	 H	1	UNK0	0.000	
60	   H	-0.258	1.125	3.030	 H	1	UNK0	0.000	
61	   H	-1.490	1.223	1.710	 H	1	UNK0	0.000	
@<TRIPOS>BOND
1 1 2 1
2 2 3 2
3 2 7 1
4 3 4 1
5 4 5 2
6 5 6 1
7 5 8 1
8 6 7 2
9 8 9 2
10 8 10 1
11 10 11 1
12 10 15 1
13 11 12 1
14 11 25 1
15 12 13 1
16 12 17 1
17 13 14 2
18 13 15 1
19 15 16 2
20 17 18 1
21 18 19 1
22 19 20 1
23 19 24 1
24 20 21 1
25 21 22 1
26 22 23 1
27 23 24 1
28 25 26 2
29 25 30 1
30 26 27 1
31 27 28 2
32 27 32 1
33 28 29 1
34 28 31 1
35 29 30 2
36 32 33 1
37 33 34 1
38 3 35 1
39 4 36 1
40 6 37 1
41 7 38 1
42 10 39 1
43 11 40 1
44 17 41 1
45 17 42 1
46 18 43 1
47 18 44 1
48 19 45 1
49 20 46 1
50 20 47 1
51 21 48 1
52 21 49 1
53 23 50 1
54 23 51 1
55 24 52 1
56 24 53 1
57 26 54 1
58 29 55 1
59 30 56 1
60 33 57 1
61 33 58 1
62 34 59 1
63 34 60 1
64 34 61 1
@<TRIPOS>SUBSTRUCTURE
1	UNK0	1	GROUP	1 ****	UNK
