# created with PyMOL 2.3.2
@<TRIPOS>MOLECULE
232
54 57 1                 
SMALL
USER_CHARGES
@<TRIPOS>ATOM
1	  Br	-3.480	-7.939	2.520	Br	1	UNK0	0.000	
2	   C	-2.404	-6.392	2.182	C.2	1	UNK0	0.000	
3	   C	-1.031	-6.434	2.312	C.2	1	UNK0	0.000	
4	   C	-0.256	-5.320	2.069	C.2	1	UNK0	0.000	
5	   C	-0.806	-4.103	1.683	C.2	1	UNK0	0.000	
6	   C	-2.177	-4.063	1.554	C.2	1	UNK0	0.000	
7	   C	-2.966	-5.192	1.801	C.2	1	UNK0	0.000	
8	   C	0.068	-2.963	1.430	C.2	1	UNK0	0.000	
9	   O	1.306	-3.122	1.531	O.2	1	UNK0	0.000	
10	   C	-0.484	-1.665	1.070	C.3	1	UNK0	0.000	
11	   C	0.555	-0.607	0.782	C.3	1	UNK0	0.000	
12	   N	-0.193	0.659	0.925	N.pl3	1	UNK0	0.000	
13	   C	-1.237	0.397	1.850	C.2	1	UNK0	0.000	
14	   O	-2.066	1.221	2.303	O.2	1	UNK0	0.000	
15	   C	-1.205	-1.030	2.216	C.2	1	UNK0	0.000	
16	   O	-1.673	-1.564	3.241	O.2	1	UNK0	0.000	
17	   C	0.112	1.895	0.238	C.3	1	UNK0	0.000	
18	   C	-0.617	1.984	-1.084	C.3	1	UNK0	0.000	
19	   N	-0.244	3.260	-1.694	N.4	1	UNK0	0.000	
20	   C	-0.990	3.353	-2.936	C.3	1	UNK0	0.000	
21	   C	-0.785	4.708	-3.596	C.3	1	UNK0	0.000	
22	   O	-0.210	5.608	-2.676	O.3	1	UNK0	0.000	
23	   C	-0.939	5.565	-1.486	C.3	1	UNK0	0.000	
24	   C	-0.578	4.295	-0.763	C.3	1	UNK0	0.000	
25	   C	1.709	-0.625	1.701	C.2	1	UNK0	0.000	
26	   C	1.615	-0.285	3.035	C.2	1	UNK0	0.000	
27	   C	2.694	-0.291	3.889	C.2	1	UNK0	0.000	
28	   C	3.927	-0.652	3.401	C.2	1	UNK0	0.000	
29	   C	4.033	-0.993	2.075	C.2	1	UNK0	0.000	
30	   C	2.957	-0.987	1.220	C.2	1	UNK0	0.000	
31	   O	2.575	0.054	5.223	O.2	1	UNK0	0.000	
32	   H	-0.608	-7.394	2.615	 H	1	UNK0	0.000	
33	   H	0.819	-5.370	2.174	 H	1	UNK0	0.000	
34	   H	-2.632	-3.132	1.250	 H	1	UNK0	0.000	
35	   H	-4.026	-5.141	1.696	 H	1	UNK0	0.000	
36	   H	-1.120	-1.772	0.179	 H	1	UNK0	0.000	
37	   H	0.910	-0.690	-0.251	 H	1	UNK0	0.000	
38	   H	-0.054	2.786	0.878	 H	1	UNK0	0.000	
39	   H	1.202	1.875	-0.001	 H	1	UNK0	0.000	
40	   H	-0.213	1.181	-1.737	 H	1	UNK0	0.000	
41	   H	-1.717	1.925	-0.966	 H	1	UNK0	0.000	
42	   H	0.781	3.226	-1.906	 H	1	UNK0	0.000	
43	   H	-2.068	3.183	-2.733	 H	1	UNK0	0.000	
44	   H	-0.642	2.566	-3.612	 H	1	UNK0	0.000	
45	   H	-1.753	5.131	-3.908	 H	1	UNK0	0.000	
46	   H	-0.116	4.585	-4.468	 H	1	UNK0	0.000	
47	   H	-2.024	5.673	-1.649	 H	1	UNK0	0.000	
48	   H	-0.611	6.451	-0.876	 H	1	UNK0	0.000	
49	   H	-1.421	4.037	-0.090	 H	1	UNK0	0.000	
50	   H	0.322	4.527	-0.142	 H	1	UNK0	0.000	
51	   H	0.648	0.006	3.447	 H	1	UNK0	0.000	
52	   H	4.825	-0.680	4.019	 H	1	UNK0	0.000	
53	   H	5.016	-1.283	1.674	 H	1	UNK0	0.000	
54	   H	3.080	-1.267	0.161	 H	1	UNK0	0.000	
@<TRIPOS>BOND
1 1 2 1
2 2 3 2
3 2 7 1
4 3 4 1
5 4 5 2
6 5 6 1
7 5 8 1
8 6 7 2
9 8 9 2
10 8 10 1
11 10 11 1
12 10 15 1
13 11 12 1
14 11 25 1
15 12 13 1
16 12 17 1
17 13 14 2
18 13 15 1
19 15 16 2
20 17 18 1
21 18 19 1
22 19 20 1
23 19 24 1
24 20 21 1
25 21 22 1
26 22 23 1
27 23 24 1
28 25 26 2
29 25 30 1
30 26 27 1
31 27 28 2
32 27 31 1
33 28 29 1
34 29 30 2
35 3 32 1
36 4 33 1
37 6 34 1
38 7 35 1
39 10 36 1
40 11 37 1
41 17 38 1
42 17 39 1
43 18 40 1
44 18 41 1
45 19 42 1
46 20 43 1
47 20 44 1
48 21 45 1
49 21 46 1
50 23 47 1
51 23 48 1
52 24 49 1
53 24 50 1
54 26 51 1
55 28 52 1
56 29 53 1
57 30 54 1
@<TRIPOS>SUBSTRUCTURE
1	UNK0	1	GROUP	1 ****	UNK
