# created with PyMOL 2.3.2
@<TRIPOS>MOLECULE
233
54 57 1                 
SMALL
USER_CHARGES
@<TRIPOS>ATOM
1	  Br	0.523	-8.404	0.039	Br	1	UNK0	0.000	
2	   C	0.057	-6.615	0.552	C.2	1	UNK0	0.000	
3	   C	0.377	-6.148	1.809	C.2	1	UNK0	0.000	
4	   C	0.062	-4.877	2.211	C.2	1	UNK0	0.000	
5	   C	-0.607	-3.974	1.364	C.2	1	UNK0	0.000	
6	   C	-0.911	-4.474	0.119	C.2	1	UNK0	0.000	
7	   C	-0.591	-5.761	-0.287	C.2	1	UNK0	0.000	
8	   C	-0.949	-2.654	1.853	C.2	1	UNK0	0.000	
9	   O	-0.755	-2.402	3.096	O.2	1	UNK0	0.000	
10	   C	-1.484	-1.652	0.968	C.3	1	UNK0	0.000	
11	   C	-0.472	-1.156	-0.032	C.3	1	UNK0	0.000	
12	   N	-1.143	0.050	-0.533	N.pl3	1	UNK0	0.000	
13	   C	-1.984	0.553	0.495	C.2	1	UNK0	0.000	
14	   O	-2.682	1.626	0.450	O.2	1	UNK0	0.000	
15	   C	-1.900	-0.387	1.614	C.2	1	UNK0	0.000	
16	   O	-2.137	-0.125	2.820	O.2	1	UNK0	0.000	
17	   C	-0.948	0.586	-1.842	C.3	1	UNK0	0.000	
18	   C	0.156	1.574	-1.962	C.3	1	UNK0	0.000	
19	   N	0.020	2.742	-1.148	N.4	1	UNK0	0.000	
20	   C	-1.021	3.635	-1.615	C.3	1	UNK0	0.000	
21	   C	-1.147	4.745	-0.593	C.3	1	UNK0	0.000	
22	   O	0.049	5.419	-0.515	O.3	1	UNK0	0.000	
23	   C	1.094	4.593	-0.092	C.3	1	UNK0	0.000	
24	   C	1.259	3.512	-1.159	C.3	1	UNK0	0.000	
25	   C	0.825	-0.807	0.603	C.2	1	UNK0	0.000	
26	   C	1.002	0.256	1.456	C.2	1	UNK0	0.000	
27	   C	2.220	0.554	2.033	C.2	1	UNK0	0.000	
28	   C	3.309	-0.224	1.760	C.2	1	UNK0	0.000	
29	   C	3.168	-1.293	0.912	C.2	1	UNK0	0.000	
30	   C	1.929	-1.588	0.332	C.2	1	UNK0	0.000	
31	   O	4.560	0.034	2.315	O.2	1	UNK0	0.000	
32	   H	0.895	-6.847	2.463	 H	1	UNK0	0.000	
33	   H	0.322	-4.530	3.202	 H	1	UNK0	0.000	
34	   H	-1.459	-3.824	-0.582	 H	1	UNK0	0.000	
35	   H	-0.865	-6.060	-1.268	 H	1	UNK0	0.000	
36	   H	-2.364	-2.027	0.396	 H	1	UNK0	0.000	
37	   H	-0.330	-1.893	-0.808	 H	1	UNK0	0.000	
38	   H	-0.788	-0.196	-2.619	 H	1	UNK0	0.000	
39	   H	-1.895	1.103	-2.140	 H	1	UNK0	0.000	
40	   H	1.164	1.152	-1.783	 H	1	UNK0	0.000	
41	   H	0.172	1.917	-3.035	 H	1	UNK0	0.000	
42	   H	-0.149	2.508	-0.138	 H	1	UNK0	0.000	
43	   H	-0.668	4.103	-2.563	 H	1	UNK0	0.000	
44	   H	-1.965	3.109	-1.788	 H	1	UNK0	0.000	
45	   H	-1.918	5.449	-0.947	 H	1	UNK0	0.000	
46	   H	-1.422	4.290	0.385	 H	1	UNK0	0.000	
47	   H	1.989	5.214	0.010	 H	1	UNK0	0.000	
48	   H	0.815	4.105	0.867	 H	1	UNK0	0.000	
49	   H	2.139	2.892	-0.927	 H	1	UNK0	0.000	
50	   H	1.394	4.034	-2.116	 H	1	UNK0	0.000	
51	   H	0.186	0.888	1.695	 H	1	UNK0	0.000	
52	   H	2.309	1.401	2.697	 H	1	UNK0	0.000	
53	   H	3.991	-1.940	0.661	 H	1	UNK0	0.000	
54	   H	1.856	-2.438	-0.330	 H	1	UNK0	0.000	
@<TRIPOS>BOND
1 1 2 1
2 2 3 2
3 2 7 1
4 3 4 1
5 4 5 2
6 5 6 1
7 5 8 1
8 6 7 2
9 8 9 2
10 8 10 1
11 10 11 1
12 10 15 1
13 11 12 1
14 11 25 1
15 12 13 1
16 12 17 1
17 13 14 2
18 13 15 1
19 15 16 2
20 17 18 1
21 18 19 1
22 19 20 1
23 19 24 1
24 20 21 1
25 21 22 1
26 22 23 1
27 23 24 1
28 25 26 2
29 25 30 1
30 26 27 1
31 27 28 2
32 28 29 1
33 28 31 1
34 29 30 2
35 3 32 1
36 4 33 1
37 6 34 1
38 7 35 1
39 10 36 1
40 11 37 1
41 17 38 1
42 17 39 1
43 18 40 1
44 18 41 1
45 19 42 1
46 20 43 1
47 20 44 1
48 21 45 1
49 21 46 1
50 23 47 1
51 23 48 1
52 24 49 1
53 24 50 1
54 26 51 1
55 27 52 1
56 29 53 1
57 30 54 1
@<TRIPOS>SUBSTRUCTURE
1	UNK0	1	GROUP	1 ****	UNK
