# created with PyMOL 2.3.2
@<TRIPOS>MOLECULE
234
61 64 1                 
SMALL
USER_CHARGES
@<TRIPOS>ATOM
1	  Br	3.579	2.769	-6.435	Br	1	UNK0	0.000	
2	   C	2.879	1.818	-4.910	C.2	1	UNK0	0.000	
3	   C	3.076	0.466	-4.767	C.2	1	UNK0	0.000	
4	   C	2.572	-0.230	-3.664	C.2	1	UNK0	0.000	
5	   C	1.863	0.428	-2.690	C.2	1	UNK0	0.000	
6	   C	1.686	1.778	-2.866	C.2	1	UNK0	0.000	
7	   C	2.168	2.477	-3.934	C.2	1	UNK0	0.000	
8	   C	1.363	-0.316	-1.544	C.2	1	UNK0	0.000	
9	   O	0.665	0.387	-0.755	O.2	1	UNK0	0.000	
10	   C	1.648	-1.750	-1.325	C.3	1	UNK0	0.000	
11	   C	1.002	-2.368	-0.138	C.3	1	UNK0	0.000	
12	   N	1.556	-1.689	0.977	N.pl3	1	UNK0	0.000	
13	   C	2.938	-1.471	0.581	C.2	1	UNK0	0.000	
14	   O	3.901	-1.055	1.274	O.2	1	UNK0	0.000	
15	   C	3.066	-1.831	-0.839	C.2	1	UNK0	0.000	
16	   O	4.105	-2.128	-1.468	O.2	1	UNK0	0.000	
17	   C	1.068	-1.265	2.244	C.3	1	UNK0	0.000	
18	   C	0.486	0.075	2.396	C.3	1	UNK0	0.000	
19	   N	1.285	1.218	2.172	N.3	1	UNK0	0.000	
20	   C	2.290	1.435	3.190	C.3	1	UNK0	0.000	
21	   C	2.722	2.882	3.076	C.3	1	UNK0	0.000	
22	   O	2.562	3.387	1.789	O.3	1	UNK0	0.000	
23	   C	1.205	3.608	1.587	C.3	1	UNK0	0.000	
24	   C	0.467	2.416	2.131	C.3	1	UNK0	0.000	
25	   C	-0.411	-2.639	-0.219	C.2	1	UNK0	0.000	
26	   C	-1.050	-3.355	0.757	C.2	1	UNK0	0.000	
27	   C	-2.405	-3.597	0.683	C.2	1	UNK0	0.000	
28	   C	-3.134	-3.115	-0.387	C.2	1	UNK0	0.000	
29	   C	-2.474	-2.387	-1.377	C.2	1	UNK0	0.000	
30	   C	-1.122	-2.152	-1.292	C.2	1	UNK0	0.000	
31	   O	-4.499	-3.337	-0.496	O.3	1	UNK0	0.000	
32	   C	-5.137	-4.078	0.525	C.3	1	UNK0	0.000	
33	   C	-6.584	-4.208	0.230	C.2	1	UNK0	0.000	
34	   O	-7.365	-4.825	0.998	O.2	1	UNK0	0.000	
35	   N	-7.142	-3.632	-0.945	N.pl3	1	UNK0	0.000	
36	   H	3.631	-0.053	-5.529	 H	1	UNK0	0.000	
37	   H	2.753	-1.292	-3.620	 H	1	UNK0	0.000	
38	   H	1.131	2.315	-2.111	 H	1	UNK0	0.000	
39	   H	2.019	3.550	-4.060	 H	1	UNK0	0.000	
40	   H	1.521	-2.346	-2.258	 H	1	UNK0	0.000	
41	   H	1.495	-3.421	-0.083	 H	1	UNK0	0.000	
42	   H	1.925	-1.315	3.009	 H	1	UNK0	0.000	
43	   H	0.347	-1.998	2.683	 H	1	UNK0	0.000	
44	   H	0.124	0.141	3.473	 H	1	UNK0	0.000	
45	   H	-0.489	0.210	1.838	 H	1	UNK0	0.000	
46	   H	1.749	1.303	4.169	 H	1	UNK0	0.000	
47	   H	3.106	0.726	3.100	 H	1	UNK0	0.000	
48	   H	3.768	2.981	3.410	 H	1	UNK0	0.000	
49	   H	2.073	3.496	3.764	 H	1	UNK0	0.000	
50	   H	0.850	4.540	2.110	 H	1	UNK0	0.000	
51	   H	0.927	3.726	0.532	 H	1	UNK0	0.000	
52	   H	0.221	2.655	3.207	 H	1	UNK0	0.000	
53	   H	-0.502	2.243	1.624	 H	1	UNK0	0.000	
54	   H	-0.558	-3.787	1.615	 H	1	UNK0	0.000	
55	   H	-2.924	-4.160	1.446	 H	1	UNK0	0.000	
56	   H	-3.011	-1.987	-2.241	 H	1	UNK0	0.000	
57	   H	-0.646	-1.576	-2.106	 H	1	UNK0	0.000	
58	   H	-4.984	-3.578	1.508	 H	1	UNK0	0.000	
59	   H	-4.702	-5.110	0.621	 H	1	UNK0	0.000	
60	   H	-7.380	-2.603	-0.892	 H	1	UNK0	0.000	
61	   H	-7.285	-4.226	-1.768	 H	1	UNK0	0.000	
@<TRIPOS>BOND
1 1 2 1
2 2 3 2
3 2 7 1
4 3 4 1
5 4 5 2
6 5 6 1
7 5 8 1
8 6 7 2
9 8 9 2
10 8 10 1
11 10 11 1
12 10 15 1
13 11 12 1
14 11 25 1
15 12 13 1
16 12 17 1
17 13 14 2
18 13 15 1
19 15 16 2
20 17 18 1
21 18 19 1
22 19 20 1
23 19 24 1
24 20 21 1
25 21 22 1
26 22 23 1
27 23 24 1
28 25 26 2
29 25 30 1
30 26 27 1
31 27 28 2
32 28 29 1
33 28 31 1
34 29 30 2
35 31 32 1
36 32 33 1
37 33 34 2
38 33 35 1
39 3 36 1
40 4 37 1
41 6 38 1
42 7 39 1
43 10 40 1
44 11 41 1
45 17 42 1
46 17 43 1
47 18 44 1
48 18 45 1
49 20 46 1
50 20 47 1
51 21 48 1
52 21 49 1
53 23 50 1
54 23 51 1
55 24 52 1
56 24 53 1
57 26 54 1
58 27 55 1
59 29 56 1
60 30 57 1
61 32 58 1
62 32 59 1
63 35 60 1
64 35 61 1
@<TRIPOS>SUBSTRUCTURE
1	UNK0	1	GROUP	1 ****	UNK
