# created with PyMOL 2.3.2
@<TRIPOS>MOLECULE
235
41 44 1                 
SMALL
USER_CHARGES
@<TRIPOS>ATOM
1	  Br	-0.093	-6.471	-1.344	Br	1	UNK0	0.000	
2	   C	-0.407	-4.745	-0.591	C.2	1	UNK0	0.000	
3	   C	-0.638	-3.648	-1.392	C.2	1	UNK0	0.000	
4	   C	-0.869	-2.385	-0.896	C.2	1	UNK0	0.000	
5	   C	-0.877	-2.170	0.458	C.2	1	UNK0	0.000	
6	   C	-0.646	-3.266	1.274	C.2	1	UNK0	0.000	
7	   C	-0.416	-4.525	0.769	C.2	1	UNK0	0.000	
8	   C	-1.109	-0.866	1.037	C.2	1	UNK0	0.000	
9	   O	-1.117	-0.766	2.307	O.2	1	UNK0	0.000	
10	   C	-1.341	0.373	0.282	C.3	1	UNK0	0.000	
11	   N	-1.644	1.486	1.168	N.pl3	1	UNK0	0.000	
12	   N	-1.885	1.670	2.514	N.2	1	UNK0	0.000	
13	   C	-2.020	2.826	3.062	C.2	1	UNK0	0.000	
14	   C	-1.931	4.017	2.249	C.2	1	UNK0	0.000	
15	   C	-1.731	3.923	0.955	C.2	1	UNK0	0.000	
16	   C	-1.603	2.645	0.280	C.3	1	UNK0	0.000	
17	   C	-0.327	2.407	-0.447	C.3	1	UNK0	0.000	
18	   C	-0.092	0.893	-0.395	C.3	1	UNK0	0.000	
19	   C	1.107	0.750	0.428	C.2	1	UNK0	0.000	
20	   O	1.513	-0.324	0.952	O.2	1	UNK0	0.000	
21	   N	1.737	2.011	0.543	N.pl3	1	UNK0	0.000	
22	   C	0.839	3.049	0.172	C.2	1	UNK0	0.000	
23	   O	1.003	4.282	0.338	O.2	1	UNK0	0.000	
24	   C	3.097	2.239	0.972	C.3	1	UNK0	0.000	
25	   C	4.088	2.238	-0.152	C.3	1	UNK0	0.000	
26	   H	-0.641	-3.774	-2.481	 H	1	UNK0	0.000	
27	   H	-1.054	-1.531	-1.559	 H	1	UNK0	0.000	
28	   H	-0.646	-3.125	2.366	 H	1	UNK0	0.000	
29	   H	-0.240	-5.351	1.438	 H	1	UNK0	0.000	
30	   H	-2.105	0.202	-0.472	 H	1	UNK0	0.000	
31	   H	-2.203	2.950	4.140	 H	1	UNK0	0.000	
32	   H	-2.034	4.990	2.737	 H	1	UNK0	0.000	
33	   H	-1.658	4.830	0.365	 H	1	UNK0	0.000	
34	   H	-2.497	2.517	-0.398	 H	1	UNK0	0.000	
35	   H	-0.386	2.775	-1.495	 H	1	UNK0	0.000	
36	   H	0.030	0.577	-1.436	 H	1	UNK0	0.000	
37	   H	3.433	1.490	1.725	 H	1	UNK0	0.000	
38	   H	3.195	3.233	1.487	 H	1	UNK0	0.000	
39	   H	3.764	1.607	-1.009	 H	1	UNK0	0.000	
40	   H	4.319	3.282	-0.478	 H	1	UNK0	0.000	
41	   H	5.067	1.817	0.197	 H	1	UNK0	0.000	
@<TRIPOS>BOND
1 1 2 1
2 2 3 2
3 2 7 1
4 3 4 1
5 4 5 2
6 5 6 1
7 5 8 1
8 6 7 2
9 8 9 2
10 8 10 1
11 10 11 1
12 10 18 1
13 11 12 1
14 11 16 1
15 12 13 2
16 13 14 1
17 14 15 2
18 15 16 1
19 16 17 1
20 17 18 1
21 17 22 1
22 18 19 1
23 19 20 2
24 19 21 1
25 21 22 1
26 21 24 1
27 22 23 2
28 24 25 1
29 3 26 1
30 4 27 1
31 6 28 1
32 7 29 1
33 10 30 1
34 13 31 1
35 14 32 1
36 15 33 1
37 16 34 1
38 17 35 1
39 18 36 1
40 24 37 1
41 24 38 1
42 25 39 1
43 25 40 1
44 25 41 1
@<TRIPOS>SUBSTRUCTURE
1	UNK0	1	GROUP	1 ****	UNK
