# created with PyMOL 2.3.2
@<TRIPOS>MOLECULE
236
52 55 1                 
SMALL
USER_CHARGES
@<TRIPOS>ATOM
1	  Br	-4.678	5.431	-5.337	Br	1	UNK0	0.000	
2	   C	-3.575	4.185	-4.415	C.2	1	UNK0	0.000	
3	   C	-2.636	4.646	-3.528	C.2	1	UNK0	0.000	
4	   C	-1.838	3.706	-2.862	C.2	1	UNK0	0.000	
5	   C	-2.004	2.366	-3.102	C.2	1	UNK0	0.000	
6	   C	-2.973	1.930	-4.013	C.2	1	UNK0	0.000	
7	   C	-3.759	2.842	-4.669	C.2	1	UNK0	0.000	
8	   C	-1.182	1.380	-2.421	C.2	1	UNK0	0.000	
9	   O	-1.410	0.142	-2.560	O.2	1	UNK0	0.000	
10	   N	-0.102	1.731	-1.583	N.pl3	1	UNK0	0.000	
11	   C	0.716	0.734	-0.905	C.3	1	UNK0	0.000	
12	   C	2.107	0.817	-1.438	C.3	1	UNK0	0.000	
13	   C	0.594	0.826	0.556	C.2	1	UNK0	0.000	
14	   O	-0.164	1.753	1.008	O.2	1	UNK0	0.000	
15	   N	1.231	-0.007	1.504	N.pl3	1	UNK0	0.000	
16	   C	1.042	0.172	2.916	C.3	1	UNK0	0.000	
17	   C	0.809	-1.089	3.695	C.3	1	UNK0	0.000	
18	   C	1.132	-2.268	2.832	C.3	1	UNK0	0.000	
19	   N	1.235	-3.501	3.606	N.3	1	UNK0	0.000	
20	   C	1.697	-4.576	2.799	C.3	1	UNK0	0.000	
21	   C	1.123	-4.681	1.425	C.3	1	UNK0	0.000	
22	   C	0.002	-3.690	1.217	C.2	1	UNK0	0.000	
23	   N	-1.105	-3.678	0.456	N.2	1	UNK0	0.000	
24	   C	-1.778	-2.526	0.658	C.2	1	UNK0	0.000	
25	   N	-1.088	-1.812	1.553	N.pl3	1	UNK0	0.000	
26	   C	-0.001	-2.499	1.908	C.2	1	UNK0	0.000	
27	   C	2.432	-1.954	2.135	C.3	1	UNK0	0.000	
28	   C	2.088	-1.063	0.958	C.3	1	UNK0	0.000	
29	   H	-2.496	5.709	-3.332	 H	1	UNK0	0.000	
30	   H	-1.108	4.092	-2.170	 H	1	UNK0	0.000	
31	   H	-3.080	0.863	-4.181	 H	1	UNK0	0.000	
32	   H	-4.510	2.473	-5.378	 H	1	UNK0	0.000	
33	   H	0.116	2.737	-1.448	 H	1	UNK0	0.000	
34	   H	0.299	-0.276	-1.195	 H	1	UNK0	0.000	
35	   H	2.524	-0.160	-1.768	 H	1	UNK0	0.000	
36	   H	2.779	1.354	-0.730	 H	1	UNK0	0.000	
37	   H	2.103	1.490	-2.347	 H	1	UNK0	0.000	
38	   H	0.130	0.823	3.052	 H	1	UNK0	0.000	
39	   H	1.875	0.754	3.367	 H	1	UNK0	0.000	
40	   H	-0.241	-1.200	4.039	 H	1	UNK0	0.000	
41	   H	1.426	-1.089	4.635	 H	1	UNK0	0.000	
42	   H	1.867	-3.376	4.404	 H	1	UNK0	0.000	
43	   H	2.814	-4.637	2.723	 H	1	UNK0	0.000	
44	   H	1.419	-5.530	3.338	 H	1	UNK0	0.000	
45	   H	0.656	-5.675	1.223	 H	1	UNK0	0.000	
46	   H	1.878	-4.548	0.611	 H	1	UNK0	0.000	
47	   H	-2.699	-2.215	0.200	 H	1	UNK0	0.000	
48	   H	-1.401	-0.853	1.895	 H	1	UNK0	0.000	
49	   H	3.079	-1.333	2.809	 H	1	UNK0	0.000	
50	   H	3.010	-2.817	1.827	 H	1	UNK0	0.000	
51	   H	1.444	-1.658	0.282	 H	1	UNK0	0.000	
52	   H	3.009	-0.672	0.504	 H	1	UNK0	0.000	
@<TRIPOS>BOND
1 1 2 1
2 2 3 2
3 2 7 1
4 3 4 1
5 4 5 2
6 5 6 1
7 5 8 1
8 6 7 2
9 8 9 2
10 8 10 1
11 10 11 1
12 11 12 1
13 11 13 1
14 13 14 2
15 13 15 1
16 15 16 1
17 15 28 1
18 16 17 1
19 17 18 1
20 18 19 1
21 18 26 1
22 18 27 1
23 19 20 1
24 20 21 1
25 21 22 1
26 22 23 1
27 22 26 2
28 23 24 2
29 24 25 1
30 25 26 1
31 27 28 1
32 3 29 1
33 4 30 1
34 6 31 1
35 7 32 1
36 10 33 1
37 11 34 1
38 12 35 1
39 12 36 1
40 12 37 1
41 16 38 1
42 16 39 1
43 17 40 1
44 17 41 1
45 19 42 1
46 20 43 1
47 20 44 1
48 21 45 1
49 21 46 1
50 24 47 1
51 25 48 1
52 27 49 1
53 27 50 1
54 28 51 1
55 28 52 1
@<TRIPOS>SUBSTRUCTURE
1	UNK0	1	GROUP	1 ****	UNK
