# created with PyMOL 2.3.2
@<TRIPOS>MOLECULE
241
49 52 1                 
SMALL
USER_CHARGES
@<TRIPOS>ATOM
1	  Br	2.421	5.079	7.671	Br	1	UNK0	0.000	
2	   C	2.425	4.002	6.097	C.2	1	UNK0	0.000	
3	   C	3.424	4.083	5.149	C.2	1	UNK0	0.000	
4	   C	3.421	3.303	4.015	C.2	1	UNK0	0.000	
5	   C	2.386	2.394	3.795	C.2	1	UNK0	0.000	
6	   C	1.379	2.293	4.724	C.2	1	UNK0	0.000	
7	   C	1.420	3.097	5.852	C.2	1	UNK0	0.000	
8	   C	2.441	1.594	2.583	C.2	1	UNK0	0.000	
9	   O	3.521	1.562	1.899	O.2	1	UNK0	0.000	
10	   N	1.299	0.868	2.183	N.pl3	1	UNK0	0.000	
11	   C	1.352	0.084	0.996	C.3	1	UNK0	0.000	
12	   C	0.255	0.422	0.008	C.3	1	UNK0	0.000	
13	   N	0.211	-0.774	-0.815	N.pl3	1	UNK0	0.000	
14	   C	0.877	-1.877	-0.151	C.3	1	UNK0	0.000	
15	   C	1.016	-1.389	1.270	C.3	1	UNK0	0.000	
16	   C	0.044	-3.072	-0.277	C.2	1	UNK0	0.000	
17	   O	-0.206	-3.877	0.672	O.2	1	UNK0	0.000	
18	   N	-0.527	-3.352	-1.550	N.pl3	1	UNK0	0.000	
19	   C	-0.905	-2.313	-2.464	C.3	1	UNK0	0.000	
20	   C	-0.358	-0.997	-2.099	C.2	1	UNK0	0.000	
21	   O	-0.399	-0.055	-2.946	O.2	1	UNK0	0.000	
22	   C	-2.437	-2.284	-2.493	C.3	1	UNK0	0.000	
23	   C	-2.933	-1.233	-3.417	C.2	1	UNK0	0.000	
24	   C	-3.176	-1.492	-4.750	C.2	1	UNK0	0.000	
25	   C	-3.636	-0.517	-5.605	C.2	1	UNK0	0.000	
26	   C	-3.865	0.751	-5.139	C.2	1	UNK0	0.000	
27	   C	-3.630	1.027	-3.816	C.2	1	UNK0	0.000	
28	   C	-3.170	0.047	-2.967	C.2	1	UNK0	0.000	
29	   O	-4.324	1.736	-5.976	O.3	1	UNK0	0.000	
30	   H	4.237	4.797	5.321	 H	1	UNK0	0.000	
31	   H	4.197	3.366	3.277	 H	1	UNK0	0.000	
32	   H	0.579	1.600	4.575	 H	1	UNK0	0.000	
33	   H	0.629	3.019	6.583	 H	1	UNK0	0.000	
34	   H	0.430	0.900	2.734	 H	1	UNK0	0.000	
35	   H	2.362	0.149	0.498	 H	1	UNK0	0.000	
36	   H	0.507	1.322	-0.591	 H	1	UNK0	0.000	
37	   H	-0.685	0.546	0.589	 H	1	UNK0	0.000	
38	   H	1.903	-2.007	-0.553	 H	1	UNK0	0.000	
39	   H	0.032	-1.371	1.795	 H	1	UNK0	0.000	
40	   H	1.809	-1.881	1.836	 H	1	UNK0	0.000	
41	   H	-0.699	-4.347	-1.879	 H	1	UNK0	0.000	
42	   H	-0.585	-2.520	-3.520	 H	1	UNK0	0.000	
43	   H	-2.810	-2.084	-1.452	 H	1	UNK0	0.000	
44	   H	-2.841	-3.244	-2.857	 H	1	UNK0	0.000	
45	   H	-2.997	-2.502	-5.140	 H	1	UNK0	0.000	
46	   H	-3.826	-0.719	-6.649	 H	1	UNK0	0.000	
47	   H	-3.817	2.039	-3.460	 H	1	UNK0	0.000	
48	   H	-2.991	0.305	-1.908	 H	1	UNK0	0.000	
49	   H	-3.735	2.353	-6.505	 H	1	UNK0	0.000	
@<TRIPOS>BOND
1 1 2 1
2 2 3 2
3 2 7 1
4 3 4 1
5 4 5 2
6 5 6 1
7 5 8 1
8 6 7 2
9 8 9 2
10 8 10 1
11 10 11 1
12 11 12 1
13 11 15 1
14 12 13 1
15 13 14 1
16 13 20 1
17 14 15 1
18 14 16 1
19 16 17 2
20 16 18 1
21 18 19 1
22 19 20 1
23 19 22 1
24 20 21 2
25 22 23 1
26 23 24 2
27 23 28 1
28 24 25 1
29 25 26 2
30 26 27 1
31 26 29 1
32 27 28 2
33 3 30 1
34 4 31 1
35 6 32 1
36 7 33 1
37 10 34 1
38 11 35 1
39 12 36 1
40 12 37 1
41 14 38 1
42 15 39 1
43 15 40 1
44 18 41 1
45 19 42 1
46 22 43 1
47 22 44 1
48 24 45 1
49 25 46 1
50 27 47 1
51 28 48 1
52 29 49 1
@<TRIPOS>SUBSTRUCTURE
1	UNK0	1	GROUP	1 ****	UNK
