# created with PyMOL 2.3.2
@<TRIPOS>MOLECULE
242
49 52 1                 
SMALL
USER_CHARGES
@<TRIPOS>ATOM
1	  Br	4.338	8.525	3.906	Br	1	UNK0	0.000	
2	   C	3.609	6.868	3.258	C.2	1	UNK0	0.000	
3	   C	2.759	6.957	2.176	C.2	1	UNK0	0.000	
4	   C	2.215	5.766	1.685	C.2	1	UNK0	0.000	
5	   C	2.501	4.541	2.241	C.2	1	UNK0	0.000	
6	   C	3.366	4.516	3.331	C.2	1	UNK0	0.000	
7	   C	3.925	5.658	3.848	C.2	1	UNK0	0.000	
8	   C	1.926	3.290	1.720	C.2	1	UNK0	0.000	
9	   O	2.247	2.222	2.309	O.2	1	UNK0	0.000	
10	   N	1.050	3.232	0.615	N.pl3	1	UNK0	0.000	
11	   C	0.534	1.998	0.166	C.3	1	UNK0	0.000	
12	   C	0.779	1.713	-1.297	C.3	1	UNK0	0.000	
13	   N	-0.244	0.737	-1.616	N.pl3	1	UNK0	0.000	
14	   C	-1.159	0.571	-0.489	C.3	1	UNK0	0.000	
15	   C	-0.999	1.939	0.191	C.3	1	UNK0	0.000	
16	   C	-2.513	0.346	-0.989	C.2	1	UNK0	0.000	
17	   O	-3.460	1.019	-0.507	O.2	1	UNK0	0.000	
18	   N	-2.697	-0.631	-2.006	N.pl3	1	UNK0	0.000	
19	   C	-1.567	-1.126	-2.765	C.3	1	UNK0	0.000	
20	   C	-0.525	-0.067	-2.771	C.2	1	UNK0	0.000	
21	   O	0.173	0.182	-3.804	O.2	1	UNK0	0.000	
22	   C	-0.990	-2.383	-2.148	C.3	1	UNK0	0.000	
23	   C	-1.964	-3.477	-2.079	C.2	1	UNK0	0.000	
24	   C	-2.782	-3.647	-0.977	C.2	1	UNK0	0.000	
25	   C	-3.696	-4.679	-0.918	C.2	1	UNK0	0.000	
26	   C	-3.819	-5.576	-1.964	C.2	1	UNK0	0.000	
27	   C	-2.992	-5.394	-3.063	C.2	1	UNK0	0.000	
28	   C	-2.074	-4.367	-3.136	C.2	1	UNK0	0.000	
29	   O	-4.727	-6.596	-1.897	O.3	1	UNK0	0.000	
30	   H	2.504	7.902	1.705	 H	1	UNK0	0.000	
31	   H	1.549	5.827	0.839	 H	1	UNK0	0.000	
32	   H	3.596	3.557	3.773	 H	1	UNK0	0.000	
33	   H	4.600	5.663	4.694	 H	1	UNK0	0.000	
34	   H	0.789	4.110	0.134	 H	1	UNK0	0.000	
35	   H	0.868	1.113	0.736	 H	1	UNK0	0.000	
36	   H	1.801	1.320	-1.458	 H	1	UNK0	0.000	
37	   H	0.614	2.675	-1.843	 H	1	UNK0	0.000	
38	   H	-0.800	-0.172	0.238	 H	1	UNK0	0.000	
39	   H	-1.446	2.669	-0.491	 H	1	UNK0	0.000	
40	   H	-1.398	1.947	1.202	 H	1	UNK0	0.000	
41	   H	-3.654	-0.993	-2.204	 H	1	UNK0	0.000	
42	   H	-1.843	-1.342	-3.827	 H	1	UNK0	0.000	
43	   H	-0.626	-2.143	-1.119	 H	1	UNK0	0.000	
44	   H	-0.109	-2.737	-2.719	 H	1	UNK0	0.000	
45	   H	-2.739	-2.982	-0.123	 H	1	UNK0	0.000	
46	   H	-4.346	-4.812	-0.041	 H	1	UNK0	0.000	
47	   H	-3.061	-6.076	-3.897	 H	1	UNK0	0.000	
48	   H	-1.421	-4.213	-3.989	 H	1	UNK0	0.000	
49	   H	-5.681	-6.548	-2.216	 H	1	UNK0	0.000	
@<TRIPOS>BOND
1 1 2 1
2 2 3 2
3 2 7 1
4 3 4 1
5 4 5 2
6 5 6 1
7 5 8 1
8 6 7 2
9 8 9 2
10 8 10 1
11 10 11 1
12 11 12 1
13 11 15 1
14 12 13 1
15 13 14 1
16 13 20 1
17 14 15 1
18 14 16 1
19 16 17 2
20 16 18 1
21 18 19 1
22 19 20 1
23 19 22 1
24 20 21 2
25 22 23 1
26 23 24 2
27 23 28 1
28 24 25 1
29 25 26 2
30 26 27 1
31 26 29 1
32 27 28 2
33 3 30 1
34 4 31 1
35 6 32 1
36 7 33 1
37 10 34 1
38 11 35 1
39 12 36 1
40 12 37 1
41 14 38 1
42 15 39 1
43 15 40 1
44 18 41 1
45 19 42 1
46 22 43 1
47 22 44 1
48 24 45 1
49 25 46 1
50 27 47 1
51 28 48 1
52 29 49 1
@<TRIPOS>SUBSTRUCTURE
1	UNK0	1	GROUP	1 ****	UNK
