# created with PyMOL 2.3.2
@<TRIPOS>MOLECULE
245
52 55 1                 
SMALL
USER_CHARGES
@<TRIPOS>ATOM
1	  Br	-5.630	-1.506	-3.937	Br	1	UNK0	0.000	
2	   C	-4.123	-2.054	-2.854	C.2	1	UNK0	0.000	
3	   C	-2.951	-2.473	-3.453	C.2	1	UNK0	0.000	
4	   C	-1.888	-2.843	-2.623	C.2	1	UNK0	0.000	
5	   C	-1.985	-2.797	-1.245	C.2	1	UNK0	0.000	
6	   C	-3.158	-2.384	-0.679	C.2	1	UNK0	0.000	
7	   C	-4.239	-2.009	-1.474	C.2	1	UNK0	0.000	
8	   C	-0.747	-3.078	-0.422	C.2	1	UNK0	0.000	
9	   O	-0.964	-3.649	0.658	O.2	1	UNK0	0.000	
10	   N	0.470	-2.656	-0.972	N.pl3	1	UNK0	0.000	
11	   C	1.834	-2.646	-0.672	C.3	1	UNK0	0.000	
12	   C	2.711	-2.921	-1.883	C.3	1	UNK0	0.000	
13	   C	2.408	-1.551	0.111	C.2	1	UNK0	0.000	
14	   O	2.952	-1.848	1.240	O.2	1	UNK0	0.000	
15	   N	2.445	-0.153	-0.253	N.pl3	1	UNK0	0.000	
16	   C	1.525	0.295	-1.277	C.3	1	UNK0	0.000	
17	   C	0.892	1.626	-0.890	C.3	1	UNK0	0.000	
18	   C	1.388	2.179	0.433	C.3	1	UNK0	0.000	
19	   N	1.083	1.331	1.551	N.3	1	UNK0	0.000	
20	   C	0.526	1.911	2.697	C.3	1	UNK0	0.000	
21	   C	1.100	3.306	2.959	C.3	1	UNK0	0.000	
22	   C	0.603	4.108	1.806	C.2	1	UNK0	0.000	
23	   N	-0.011	5.299	1.692	N.pl3	1	UNK0	0.000	
24	   C	-0.245	5.454	0.372	C.2	1	UNK0	0.000	
25	   N	0.216	4.389	-0.289	N.2	1	UNK0	0.000	
26	   C	0.756	3.516	0.573	C.2	1	UNK0	0.000	
27	   C	2.900	2.232	0.276	C.3	1	UNK0	0.000	
28	   C	3.381	0.791	0.309	C.3	1	UNK0	0.000	
29	   H	-2.910	-2.495	-4.525	 H	1	UNK0	0.000	
30	   H	-0.991	-3.187	-3.102	 H	1	UNK0	0.000	
31	   H	-3.247	-2.345	0.388	 H	1	UNK0	0.000	
32	   H	-5.184	-1.681	-1.050	 H	1	UNK0	0.000	
33	   H	0.292	-2.266	-2.006	 H	1	UNK0	0.000	
34	   H	1.942	-3.608	0.014	 H	1	UNK0	0.000	
35	   H	2.001	-3.082	-2.751	 H	1	UNK0	0.000	
36	   H	3.328	-2.073	-2.190	 H	1	UNK0	0.000	
37	   H	3.291	-3.878	-1.735	 H	1	UNK0	0.000	
38	   H	1.988	0.271	-2.246	 H	1	UNK0	0.000	
39	   H	0.603	-0.401	-1.193	 H	1	UNK0	0.000	
40	   H	1.265	2.336	-1.694	 H	1	UNK0	0.000	
41	   H	-0.209	1.620	-0.979	 H	1	UNK0	0.000	
42	   H	1.848	0.674	1.844	 H	1	UNK0	0.000	
43	   H	0.826	1.334	3.605	 H	1	UNK0	0.000	
44	   H	-0.587	2.031	2.615	 H	1	UNK0	0.000	
45	   H	2.201	3.291	2.987	 H	1	UNK0	0.000	
46	   H	0.710	3.701	3.923	 H	1	UNK0	0.000	
47	   H	-0.251	5.985	2.486	 H	1	UNK0	0.000	
48	   H	-0.744	6.309	-0.052	 H	1	UNK0	0.000	
49	   H	3.175	2.614	-0.752	 H	1	UNK0	0.000	
50	   H	3.400	2.858	1.000	 H	1	UNK0	0.000	
51	   H	4.296	0.698	-0.362	 H	1	UNK0	0.000	
52	   H	3.760	0.487	1.295	 H	1	UNK0	0.000	
@<TRIPOS>BOND
1 1 2 1
2 2 3 2
3 2 7 1
4 3 4 1
5 4 5 2
6 5 6 1
7 5 8 1
8 6 7 2
9 8 9 2
10 8 10 1
11 10 11 1
12 11 12 1
13 11 13 1
14 13 14 2
15 13 15 1
16 15 16 1
17 15 28 1
18 16 17 1
19 17 18 1
20 18 19 1
21 18 26 1
22 18 27 1
23 19 20 1
24 20 21 1
25 21 22 1
26 22 23 1
27 22 26 2
28 23 24 1
29 24 25 2
30 25 26 1
31 27 28 1
32 3 29 1
33 4 30 1
34 6 31 1
35 7 32 1
36 10 33 1
37 11 34 1
38 12 35 1
39 12 36 1
40 12 37 1
41 16 38 1
42 16 39 1
43 17 40 1
44 17 41 1
45 19 42 1
46 20 43 1
47 20 44 1
48 21 45 1
49 21 46 1
50 23 47 1
51 24 48 1
52 27 49 1
53 27 50 1
54 28 51 1
55 28 52 1
@<TRIPOS>SUBSTRUCTURE
1	UNK0	1	GROUP	1 ****	UNK
