# created with PyMOL 2.3.2
@<TRIPOS>MOLECULE
246
53 56 1                 
SMALL
USER_CHARGES
@<TRIPOS>ATOM
1	  Br	-2.427	-7.419	2.859	Br	1	UNK0	0.000	
2	   C	-2.388	-6.086	1.512	C.2	1	UNK0	0.000	
3	   C	-3.444	-6.026	0.609	C.2	1	UNK0	0.000	
4	   C	-3.502	-5.103	-0.393	C.2	1	UNK0	0.000	
5	   C	-2.490	-4.158	-0.563	C.2	1	UNK0	0.000	
6	   C	-1.441	-4.239	0.356	C.2	1	UNK0	0.000	
7	   C	-1.381	-5.167	1.362	C.2	1	UNK0	0.000	
8	   C	-2.509	-3.152	-1.616	C.2	1	UNK0	0.000	
9	   O	-2.699	-3.498	-2.796	O.2	1	UNK0	0.000	
10	   N	-2.311	-1.798	-1.260	N.pl3	1	UNK0	0.000	
11	   N	-2.303	-0.743	-2.160	N.pl3	1	UNK0	0.000	
12	   C	-1.382	0.324	-2.074	C.2	1	UNK0	0.000	
13	   O	-0.551	0.267	-1.135	O.2	1	UNK0	0.000	
14	   C	-1.355	1.458	-3.001	C.3	1	UNK0	0.000	
15	   N	-0.392	2.458	-2.788	N.3	1	UNK0	0.000	
16	   C	-0.576	3.293	-1.671	C.3	1	UNK0	0.000	
17	   C	0.474	3.218	-0.603	C.3	1	UNK0	0.000	
18	   N	1.746	3.082	-1.134	N.3	1	UNK0	0.000	
19	   C	1.961	3.094	-2.512	C.3	1	UNK0	0.000	
20	   C	0.950	2.194	-3.174	C.3	1	UNK0	0.000	
21	   C	2.800	2.655	-0.290	C.3	1	UNK0	0.000	
22	   C	2.553	1.331	0.324	C.2	1	UNK0	0.000	
23	   C	2.022	1.164	1.596	C.2	1	UNK0	0.000	
24	   C	1.783	-0.088	2.135	C.2	1	UNK0	0.000	
25	   C	2.072	-1.219	1.408	C.2	1	UNK0	0.000	
26	   C	2.597	-1.079	0.150	C.2	1	UNK0	0.000	
27	   C	2.830	0.162	-0.374	C.2	1	UNK0	0.000	
28	   O	1.749	-2.360	2.154	O.3	1	UNK0	0.000	
29	   C	1.515	-1.914	3.478	C.3	1	UNK0	0.000	
30	   O	1.270	-0.533	3.357	O.3	1	UNK0	0.000	
31	   H	-4.242	-6.745	0.718	 H	1	UNK0	0.000	
32	   H	-4.345	-5.081	-1.083	 H	1	UNK0	0.000	
33	   H	-0.649	-3.492	0.214	 H	1	UNK0	0.000	
34	   H	-0.554	-5.201	2.053	 H	1	UNK0	0.000	
35	   H	-2.160	-1.553	-0.244	 H	1	UNK0	0.000	
36	   H	-3.003	-0.734	-2.928	 H	1	UNK0	0.000	
37	   H	-2.382	1.968	-2.990	 H	1	UNK0	0.000	
38	   H	-1.294	1.120	-4.084	 H	1	UNK0	0.000	
39	   H	-1.608	3.187	-1.234	 H	1	UNK0	0.000	
40	   H	-0.591	4.369	-2.087	 H	1	UNK0	0.000	
41	   H	0.147	2.487	0.166	 H	1	UNK0	0.000	
42	   H	0.377	4.218	-0.045	 H	1	UNK0	0.000	
43	   H	3.001	2.806	-2.745	 H	1	UNK0	0.000	
44	   H	1.817	4.118	-2.911	 H	1	UNK0	0.000	
45	   H	1.251	1.121	-3.011	 H	1	UNK0	0.000	
46	   H	1.061	2.311	-4.297	 H	1	UNK0	0.000	
47	   H	3.732	2.614	-0.893	 H	1	UNK0	0.000	
48	   H	2.976	3.379	0.529	 H	1	UNK0	0.000	
49	   H	1.786	2.018	2.193	 H	1	UNK0	0.000	
50	   H	2.821	-1.963	-0.420	 H	1	UNK0	0.000	
51	   H	3.242	0.266	-1.362	 H	1	UNK0	0.000	
52	   H	0.666	-2.450	3.931	 H	1	UNK0	0.000	
53	   H	2.434	-2.136	4.062	 H	1	UNK0	0.000	
@<TRIPOS>BOND
1 1 2 1
2 2 3 2
3 2 7 1
4 3 4 1
5 4 5 2
6 5 6 1
7 5 8 1
8 6 7 2
9 8 9 2
10 8 10 1
11 10 11 1
12 11 12 1
13 12 13 2
14 12 14 1
15 14 15 1
16 15 16 1
17 15 20 1
18 16 17 1
19 17 18 1
20 18 19 1
21 18 21 1
22 19 20 1
23 21 22 1
24 22 23 2
25 22 27 1
26 23 24 1
27 24 25 2
28 24 30 1
29 25 26 1
30 25 28 1
31 26 27 2
32 28 29 1
33 29 30 1
34 3 31 1
35 4 32 1
36 6 33 1
37 7 34 1
38 10 35 1
39 11 36 1
40 14 37 1
41 14 38 1
42 16 39 1
43 16 40 1
44 17 41 1
45 17 42 1
46 19 43 1
47 19 44 1
48 20 45 1
49 20 46 1
50 21 47 1
51 21 48 1
52 23 49 1
53 26 50 1
54 27 51 1
55 29 52 1
56 29 53 1
@<TRIPOS>SUBSTRUCTURE
1	UNK0	1	GROUP	1 ****	UNK
