# created with PyMOL 2.3.2
@<TRIPOS>MOLECULE
248
59 62 1                 
SMALL
USER_CHARGES
@<TRIPOS>ATOM
1	  Br	-6.948	-0.631	1.845	Br	1	UNK0	0.000	
2	   C	-5.516	-0.710	0.584	C.2	1	UNK0	0.000	
3	   C	-5.300	0.285	-0.339	C.2	1	UNK0	0.000	
4	   C	-4.269	0.201	-1.229	C.2	1	UNK0	0.000	
5	   C	-3.380	-0.901	-1.249	C.2	1	UNK0	0.000	
6	   C	-3.633	-1.859	-0.316	C.2	1	UNK0	0.000	
7	   C	-4.692	-1.789	0.609	C.2	1	UNK0	0.000	
8	   C	-2.273	-0.876	-2.175	C.2	1	UNK0	0.000	
9	   O	-1.971	0.273	-2.723	O.2	1	UNK0	0.000	
10	   N	-1.499	-1.976	-2.535	N.pl3	1	UNK0	0.000	
11	   C	-0.308	-1.748	-3.438	C.3	1	UNK0	0.000	
12	   C	0.870	-2.130	-2.623	C.3	1	UNK0	0.000	
13	   C	0.748	-3.109	-1.544	C.3	1	UNK0	0.000	
14	   C	-0.523	-3.881	-1.389	C.3	1	UNK0	0.000	
15	   C	-1.634	-3.360	-2.264	C.3	1	UNK0	0.000	
16	   C	1.152	-2.519	-0.220	C.2	1	UNK0	0.000	
17	   O	0.180	-2.397	0.614	O.2	1	UNK0	0.000	
18	   N	2.418	-2.119	0.144	N.pl3	1	UNK0	0.000	
19	   C	3.569	-2.229	-0.704	C.3	1	UNK0	0.000	
20	   C	4.684	-1.304	-0.267	C.3	1	UNK0	0.000	
21	   N	4.270	-0.048	0.268	N.3	1	UNK0	0.000	
22	   C	3.234	-0.130	1.259	C.3	1	UNK0	0.000	
23	   C	2.674	-1.530	1.445	C.3	1	UNK0	0.000	
24	   C	4.001	0.947	-0.743	C.3	1	UNK0	0.000	
25	   C	3.691	2.254	-0.131	C.2	1	UNK0	0.000	
26	   O	3.714	2.365	1.117	O.2	1	UNK0	0.000	
27	   N	3.366	3.401	-0.904	N.pl3	1	UNK0	0.000	
28	   C	3.067	4.674	-0.280	C.3	1	UNK0	0.000	
29	   C	3.198	5.932	-1.045	C.3	1	UNK0	0.000	
30	   C	1.834	5.399	-0.852	C.3	1	UNK0	0.000	
31	   H	-5.993	1.142	-0.321	 H	1	UNK0	0.000	
32	   H	-4.104	0.989	-1.956	 H	1	UNK0	0.000	
33	   H	-2.979	-2.701	-0.230	 H	1	UNK0	0.000	
34	   H	-4.797	-2.608	1.300	 H	1	UNK0	0.000	
35	   H	-0.265	-0.699	-3.726	 H	1	UNK0	0.000	
36	   H	-0.480	-2.385	-4.323	 H	1	UNK0	0.000	
37	   H	1.667	-2.427	-3.379	 H	1	UNK0	0.000	
38	   H	1.288	-1.175	-2.199	 H	1	UNK0	0.000	
39	   H	1.559	-3.891	-1.698	 H	1	UNK0	0.000	
40	   H	-0.871	-3.818	-0.342	 H	1	UNK0	0.000	
41	   H	-0.404	-4.956	-1.614	 H	1	UNK0	0.000	
42	   H	-2.634	-3.668	-2.023	 H	1	UNK0	0.000	
43	   H	-1.488	-3.867	-3.306	 H	1	UNK0	0.000	
44	   H	3.975	-3.273	-0.510	 H	1	UNK0	0.000	
45	   H	3.388	-2.200	-1.773	 H	1	UNK0	0.000	
46	   H	5.316	-1.076	-1.176	 H	1	UNK0	0.000	
47	   H	5.387	-1.777	0.446	 H	1	UNK0	0.000	
48	   H	2.375	0.529	0.953	 H	1	UNK0	0.000	
49	   H	3.606	0.259	2.218	 H	1	UNK0	0.000	
50	   H	1.805	-1.543	2.108	 H	1	UNK0	0.000	
51	   H	3.478	-2.145	1.910	 H	1	UNK0	0.000	
52	   H	3.183	0.658	-1.427	 H	1	UNK0	0.000	
53	   H	4.915	1.057	-1.344	 H	1	UNK0	0.000	
54	   H	3.344	3.312	-1.949	 H	1	UNK0	0.000	
55	   H	3.154	4.675	0.821	 H	1	UNK0	0.000	
56	   H	3.562	5.926	-2.095	 H	1	UNK0	0.000	
57	   H	3.480	6.854	-0.486	 H	1	UNK0	0.000	
58	   H	1.178	5.871	-0.082	 H	1	UNK0	0.000	
59	   H	1.299	4.871	-1.672	 H	1	UNK0	0.000	
@<TRIPOS>BOND
1 1 2 1
2 2 3 2
3 2 7 1
4 3 4 1
5 4 5 2
6 5 6 1
7 5 8 1
8 6 7 2
9 8 9 2
10 8 10 1
11 10 11 1
12 10 15 1
13 11 12 1
14 12 13 1
15 13 14 1
16 13 16 1
17 14 15 1
18 16 17 2
19 16 18 1
20 18 19 1
21 18 23 1
22 19 20 1
23 20 21 1
24 21 22 1
25 21 24 1
26 22 23 1
27 24 25 1
28 25 26 2
29 25 27 1
30 27 28 1
31 28 29 1
32 28 30 1
33 29 30 1
34 3 31 1
35 4 32 1
36 6 33 1
37 7 34 1
38 11 35 1
39 11 36 1
40 12 37 1
41 12 38 1
42 13 39 1
43 14 40 1
44 14 41 1
45 15 42 1
46 15 43 1
47 19 44 1
48 19 45 1
49 20 46 1
50 20 47 1
51 22 48 1
52 22 49 1
53 23 50 1
54 23 51 1
55 24 52 1
56 24 53 1
57 27 54 1
58 28 55 1
59 29 56 1
60 29 57 1
61 30 58 1
62 30 59 1
@<TRIPOS>SUBSTRUCTURE
1	UNK0	1	GROUP	1 ****	UNK
