# created with PyMOL 2.3.2
@<TRIPOS>MOLECULE
249
57 60 1                 
SMALL
USER_CHARGES
@<TRIPOS>ATOM
1	  Br	-0.381	2.565	-9.499	Br	1	UNK0	0.000	
2	   C	-0.791	1.784	-7.811	C.2	1	UNK0	0.000	
3	   C	0.056	1.973	-6.747	C.2	1	UNK0	0.000	
4	   C	-0.251	1.400	-5.520	C.2	1	UNK0	0.000	
5	   C	-1.380	0.652	-5.343	C.2	1	UNK0	0.000	
6	   C	-2.232	0.475	-6.458	C.2	1	UNK0	0.000	
7	   C	-1.939	1.033	-7.671	C.2	1	UNK0	0.000	
8	   C	-1.803	0.066	-4.073	C.2	1	UNK0	0.000	
9	   O	-2.768	-0.806	-4.168	O.2	1	UNK0	0.000	
10	   N	-1.323	0.313	-2.815	N.pl3	1	UNK0	0.000	
11	   C	-0.347	1.217	-2.318	C.3	1	UNK0	0.000	
12	   C	0.908	0.368	-2.050	C.3	1	UNK0	0.000	
13	   N	0.488	-0.822	-1.374	N.3	1	UNK0	0.000	
14	   C	-0.766	-0.774	-0.703	C.3	1	UNK0	0.000	
15	   C	-1.882	-0.563	-1.722	C.3	1	UNK0	0.000	
16	   C	1.492	-1.628	-0.822	C.3	1	UNK0	0.000	
17	   C	2.355	-1.023	0.192	C.2	1	UNK0	0.000	
18	   N	3.530	-0.406	-0.034	N.2	1	UNK0	0.000	
19	   O	4.021	0.012	1.114	O.3	1	UNK0	0.000	
20	   C	3.218	-0.306	2.075	C.2	1	UNK0	0.000	
21	   N	2.179	-0.948	1.529	N.2	1	UNK0	0.000	
22	   C	3.397	-0.022	3.521	C.3	1	UNK0	0.000	
23	   C	2.234	-0.550	4.320	C.3	1	UNK0	0.000	
24	   C	0.951	0.047	3.921	C.2	1	UNK0	0.000	
25	   O	0.939	0.907	3.010	O.2	1	UNK0	0.000	
26	   N	-0.255	-0.345	4.556	N.pl3	1	UNK0	0.000	
27	   C	-0.297	-1.330	5.606	C.3	1	UNK0	0.000	
28	   C	-1.530	-2.208	5.371	C.3	1	UNK0	0.000	
29	   O	-2.626	-1.343	5.569	O.3	1	UNK0	0.000	
30	   C	-2.716	-0.544	4.454	C.3	1	UNK0	0.000	
31	   C	-1.502	0.266	4.142	C.3	1	UNK0	0.000	
32	   H	0.974	2.563	-6.829	 H	1	UNK0	0.000	
33	   H	0.446	1.523	-4.696	 H	1	UNK0	0.000	
34	   H	-3.149	-0.127	-6.336	 H	1	UNK0	0.000	
35	   H	-2.633	0.868	-8.511	 H	1	UNK0	0.000	
36	   H	-0.702	1.554	-1.257	 H	1	UNK0	0.000	
37	   H	-0.177	2.152	-2.815	 H	1	UNK0	0.000	
38	   H	1.275	0.050	-3.045	 H	1	UNK0	0.000	
39	   H	1.696	0.926	-1.553	 H	1	UNK0	0.000	
40	   H	-0.846	0.010	0.065	 H	1	UNK0	0.000	
41	   H	-0.946	-1.768	-0.248	 H	1	UNK0	0.000	
42	   H	-2.206	-1.523	-2.150	 H	1	UNK0	0.000	
43	   H	-2.674	0.002	-1.241	 H	1	UNK0	0.000	
44	   H	1.029	-2.572	-0.433	 H	1	UNK0	0.000	
45	   H	2.162	-1.986	-1.660	 H	1	UNK0	0.000	
46	   H	3.601	1.030	3.726	 H	1	UNK0	0.000	
47	   H	4.297	-0.593	3.843	 H	1	UNK0	0.000	
48	   H	2.429	-0.265	5.395	 H	1	UNK0	0.000	
49	   H	2.198	-1.649	4.315	 H	1	UNK0	0.000	
50	   H	-0.321	-0.893	6.619	 H	1	UNK0	0.000	
51	   H	0.566	-2.024	5.579	 H	1	UNK0	0.000	
52	   H	-1.512	-2.560	4.334	 H	1	UNK0	0.000	
53	   H	-1.514	-3.039	6.095	 H	1	UNK0	0.000	
54	   H	-3.093	-1.134	3.569	 H	1	UNK0	0.000	
55	   H	-3.546	0.194	4.658	 H	1	UNK0	0.000	
56	   H	-1.439	0.366	3.022	 H	1	UNK0	0.000	
57	   H	-1.580	1.322	4.504	 H	1	UNK0	0.000	
@<TRIPOS>BOND
1 1 2 1
2 2 3 2
3 2 7 1
4 3 4 1
5 4 5 2
6 5 6 1
7 5 8 1
8 6 7 2
9 8 9 2
10 8 10 1
11 10 11 1
12 10 15 1
13 11 12 1
14 12 13 1
15 13 14 1
16 13 16 1
17 14 15 1
18 16 17 1
19 17 18 2
20 17 21 1
21 18 19 1
22 19 20 1
23 20 21 2
24 20 22 1
25 22 23 1
26 23 24 1
27 24 25 2
28 24 26 1
29 26 27 1
30 26 31 1
31 27 28 1
32 28 29 1
33 29 30 1
34 30 31 1
35 3 32 1
36 4 33 1
37 6 34 1
38 7 35 1
39 11 36 1
40 11 37 1
41 12 38 1
42 12 39 1
43 14 40 1
44 14 41 1
45 15 42 1
46 15 43 1
47 16 44 1
48 16 45 1
49 22 46 1
50 22 47 1
51 23 48 1
52 23 49 1
53 27 50 1
54 27 51 1
55 28 52 1
56 28 53 1
57 30 54 1
58 30 55 1
59 31 56 1
60 31 57 1
@<TRIPOS>SUBSTRUCTURE
1	UNK0	1	GROUP	1 ****	UNK
