# created with PyMOL 2.3.2
@<TRIPOS>MOLECULE
250
38 41 1                 
SMALL
USER_CHARGES
@<TRIPOS>ATOM
1	  Br	-1.776	4.009	-4.414	Br	1	UNK0	0.000	
2	   C	-1.060	2.690	-3.233	C.2	1	UNK0	0.000	
3	   C	-0.609	1.507	-3.737	C.2	1	UNK0	0.000	
4	   C	-0.079	0.528	-2.867	C.2	1	UNK0	0.000	
5	   C	0.004	0.713	-1.509	C.2	1	UNK0	0.000	
6	   C	-0.459	1.916	-1.043	C.2	1	UNK0	0.000	
7	   C	-0.993	2.911	-1.895	C.2	1	UNK0	0.000	
8	   C	0.491	-0.301	-0.612	C.2	1	UNK0	0.000	
9	   N	0.644	-1.481	-1.071	N.2	1	UNK0	0.000	
10	   N	0.460	-2.091	-2.256	N.pl3	1	UNK0	0.000	
11	   C	0.851	-0.104	0.831	C.3	1	UNK0	0.000	
12	   C	1.414	-1.496	1.296	C.3	1	UNK0	0.000	
13	   N	1.951	-1.385	2.605	N.3	1	UNK0	0.000	
14	   C	0.888	-1.010	3.518	C.3	1	UNK0	0.000	
15	   N	0.282	0.247	3.107	N.3	1	UNK0	0.000	
16	   C	1.316	1.253	3.182	C.3	1	UNK0	0.000	
17	   N	2.441	0.930	2.343	N.3	1	UNK0	0.000	
18	   C	2.998	-0.368	2.574	C.3	1	UNK0	0.000	
19	   C	1.914	0.914	0.962	C.3	1	UNK0	0.000	
20	   C	-0.280	0.122	1.751	C.3	1	UNK0	0.000	
21	   H	-0.654	1.314	-4.791	 H	1	UNK0	0.000	
22	   H	0.267	-0.332	-3.373	 H	1	UNK0	0.000	
23	   H	-0.473	2.228	-0.020	 H	1	UNK0	0.000	
24	   H	-1.355	3.851	-1.512	 H	1	UNK0	0.000	
25	   H	1.224	-2.375	-2.940	 H	1	UNK0	0.000	
26	   H	-0.513	-2.346	-2.574	 H	1	UNK0	0.000	
27	   H	2.105	-1.839	0.525	 H	1	UNK0	0.000	
28	   H	0.492	-2.136	1.338	 H	1	UNK0	0.000	
29	   H	1.290	-0.841	4.536	 H	1	UNK0	0.000	
30	   H	0.173	-1.839	3.552	 H	1	UNK0	0.000	
31	   H	1.617	1.318	4.240	 H	1	UNK0	0.000	
32	   H	0.956	2.257	2.890	 H	1	UNK0	0.000	
33	   H	3.662	-0.428	3.451	 H	1	UNK0	0.000	
34	   H	3.630	-0.622	1.684	 H	1	UNK0	0.000	
35	   H	1.537	1.924	0.802	 H	1	UNK0	0.000	
36	   H	2.765	0.762	0.248	 H	1	UNK0	0.000	
37	   H	-0.908	-0.819	1.832	 H	1	UNK0	0.000	
38	   H	-0.928	0.975	1.635	 H	1	UNK0	0.000	
@<TRIPOS>BOND
1 1 2 1
2 2 3 2
3 2 7 1
4 3 4 1
5 4 5 2
6 5 6 1
7 5 8 1
8 6 7 2
9 8 9 2
10 8 11 1
11 9 10 1
12 11 12 1
13 11 19 1
14 11 20 1
15 12 13 1
16 13 14 1
17 13 18 1
18 14 15 1
19 15 16 1
20 15 20 1
21 16 17 1
22 17 18 1
23 17 19 1
24 3 21 1
25 4 22 1
26 6 23 1
27 7 24 1
28 10 25 1
29 10 26 1
30 12 27 1
31 12 28 1
32 14 29 1
33 14 30 1
34 16 31 1
35 16 32 1
36 18 33 1
37 18 34 1
38 19 35 1
39 19 36 1
40 20 37 1
41 20 38 1
@<TRIPOS>SUBSTRUCTURE
1	UNK0	1	GROUP	1 ****	UNK
