# created with PyMOL 2.3.2
@<TRIPOS>MOLECULE
251
58 61 1                 
SMALL
USER_CHARGES
@<TRIPOS>ATOM
1	  Br	3.757	5.947	0.744	Br	1	UNK0	0.000	
2	   C	2.704	4.614	-0.123	C.2	1	UNK0	0.000	
3	   C	3.264	3.844	-1.116	C.2	1	UNK0	0.000	
4	   C	2.522	2.875	-1.757	C.2	1	UNK0	0.000	
5	   C	1.209	2.668	-1.405	C.2	1	UNK0	0.000	
6	   C	0.649	3.438	-0.412	C.2	1	UNK0	0.000	
7	   C	1.388	4.400	0.221	C.2	1	UNK0	0.000	
8	   C	0.385	1.623	-2.027	C.2	1	UNK0	0.000	
9	   C	0.723	0.378	-1.926	C.2	1	UNK0	0.000	
10	   C	0.027	-0.839	-2.491	C.3	1	UNK0	0.000	
11	   N	0.156	-1.759	-1.389	N.pl3	1	UNK0	0.000	
12	   C	1.451	-1.585	-0.846	C.2	1	UNK0	0.000	
13	   O	2.160	-2.428	-0.199	O.2	1	UNK0	0.000	
14	   C	1.837	-0.197	-1.184	C.2	1	UNK0	0.000	
15	   O	2.928	0.327	-0.863	O.2	1	UNK0	0.000	
16	   C	-0.824	-2.712	-0.879	C.3	1	UNK0	0.000	
17	   C	-1.668	-2.047	0.187	C.3	1	UNK0	0.000	
18	   C	-0.753	-1.601	1.298	C.3	1	UNK0	0.000	
19	   N	-1.519	-0.945	2.370	N.4	1	UNK0	0.000	
20	   C	-2.313	-1.950	3.048	C.3	1	UNK0	0.000	
21	   C	-1.857	-2.041	4.508	C.3	1	UNK0	0.000	
22	   O	-2.077	-0.766	5.046	O.3	1	UNK0	0.000	
23	   C	-1.068	0.059	4.574	C.3	1	UNK0	0.000	
24	   C	-0.522	-0.347	3.248	C.3	1	UNK0	0.000	
25	   C	0.811	-1.360	-3.641	C.2	1	UNK0	0.000	
26	   C	0.778	-2.693	-4.048	C.2	1	UNK0	0.000	
27	   C	1.516	-3.145	-5.117	C.2	1	UNK0	0.000	
28	   C	2.324	-2.303	-5.841	C.2	1	UNK0	0.000	
29	   C	2.366	-0.970	-5.446	C.2	1	UNK0	0.000	
30	   C	1.625	-0.521	-4.373	C.2	1	UNK0	0.000	
31	   N	1.454	-4.506	-5.497	N.pl3	1	UNK0	0.000	
32	   O	2.084	-4.989	-6.442	O.2	1	UNK0	0.000	
33	   O	0.647	-5.383	-4.786	O.2	1	UNK0	0.000	
34	   O	-0.764	1.962	-2.730	O.2	1	UNK0	0.000	
35	   H	4.300	3.955	-1.444	 H	1	UNK0	0.000	
36	   H	2.979	2.287	-2.571	 H	1	UNK0	0.000	
37	   H	-0.397	3.277	-0.130	 H	1	UNK0	0.000	
38	   H	0.965	5.022	1.010	 H	1	UNK0	0.000	
39	   H	-1.016	-0.605	-2.757	 H	1	UNK0	0.000	
40	   H	-1.450	-3.151	-1.683	 H	1	UNK0	0.000	
41	   H	-0.280	-3.544	-0.413	 H	1	UNK0	0.000	
42	   H	-2.469	-2.712	0.532	 H	1	UNK0	0.000	
43	   H	-2.127	-1.152	-0.293	 H	1	UNK0	0.000	
44	   H	-0.188	-2.425	1.730	 H	1	UNK0	0.000	
45	   H	-0.110	-0.780	0.880	 H	1	UNK0	0.000	
46	   H	-2.114	-0.236	1.898	 H	1	UNK0	0.000	
47	   H	-3.379	-1.592	3.095	 H	1	UNK0	0.000	
48	   H	-2.208	-2.944	2.613	 H	1	UNK0	0.000	
49	   H	-2.473	-2.775	5.046	 H	1	UNK0	0.000	
50	   H	-0.778	-2.305	4.486	 H	1	UNK0	0.000	
51	   H	-1.374	1.141	4.602	 H	1	UNK0	0.000	
52	   H	-0.232	-0.007	5.325	 H	1	UNK0	0.000	
53	   H	0.353	-1.037	3.310	 H	1	UNK0	0.000	
54	   H	-0.135	0.548	2.679	 H	1	UNK0	0.000	
55	   H	0.133	-3.343	-3.463	 H	1	UNK0	0.000	
56	   H	2.911	-2.652	-6.689	 H	1	UNK0	0.000	
57	   H	3.002	-0.307	-6.016	 H	1	UNK0	0.000	
58	   H	1.655	0.533	-4.057	 H	1	UNK0	0.000	
@<TRIPOS>BOND
1 1 2 1
2 2 3 2
3 2 7 1
4 3 4 1
5 4 5 2
6 5 6 1
7 5 8 1
8 6 7 2
9 8 9 2
10 8 34 1
11 9 10 1
12 9 14 1
13 10 11 1
14 10 25 1
15 11 12 1
16 11 16 1
17 12 13 2
18 12 14 1
19 14 15 2
20 16 17 1
21 17 18 1
22 18 19 1
23 19 20 1
24 19 24 1
25 20 21 1
26 21 22 1
27 22 23 1
28 23 24 1
29 25 26 2
30 25 30 1
31 26 27 1
32 27 28 2
33 27 31 1
34 28 29 1
35 29 30 2
36 31 32 2
37 31 33 1
38 3 35 1
39 4 36 1
40 6 37 1
41 7 38 1
42 10 39 1
43 16 40 1
44 16 41 1
45 17 42 1
46 17 43 1
47 18 44 1
48 18 45 1
49 19 46 1
50 20 47 1
51 20 48 1
52 21 49 1
53 21 50 1
54 23 51 1
55 23 52 1
56 24 53 1
57 24 54 1
58 26 55 1
59 28 56 1
60 29 57 1
61 30 58 1
@<TRIPOS>SUBSTRUCTURE
1	UNK0	1	GROUP	1 ****	UNK
