# created with PyMOL 2.3.2
@<TRIPOS>MOLECULE
256
49 52 1                 
SMALL
USER_CHARGES
@<TRIPOS>ATOM
1	  Br	-3.470	-5.309	-4.771	Br	1	UNK0	0.000	
2	   C	-2.547	-3.955	-3.800	C.2	1	UNK0	0.000	
3	   C	-2.995	-2.655	-3.758	C.2	1	UNK0	0.000	
4	   C	-2.314	-1.671	-3.045	C.2	1	UNK0	0.000	
5	   C	-1.159	-1.945	-2.344	C.2	1	UNK0	0.000	
6	   C	-0.721	-3.280	-2.402	C.2	1	UNK0	0.000	
7	   C	-1.394	-4.250	-3.107	C.2	1	UNK0	0.000	
8	   C	-0.415	-1.002	-1.555	C.2	1	UNK0	0.000	
9	   C	-0.967	-0.340	-0.539	C.2	1	UNK0	0.000	
10	   C	-0.265	0.663	0.325	C.3	1	UNK0	0.000	
11	   N	-1.001	0.756	1.520	N.pl3	1	UNK0	0.000	
12	   C	-2.313	0.207	1.248	C.2	1	UNK0	0.000	
13	   O	-3.320	0.296	1.988	O.2	1	UNK0	0.000	
14	   C	-2.310	-0.481	-0.032	C.2	1	UNK0	0.000	
15	   O	-3.304	-1.078	-0.567	O.2	1	UNK0	0.000	
16	   C	-0.689	1.285	2.856	C.3	1	UNK0	0.000	
17	   C	-0.147	0.289	3.804	C.3	1	UNK0	0.000	
18	   C	1.177	-0.320	3.505	C.3	1	UNK0	0.000	
19	   N	2.241	0.675	3.517	N.pl3	1	UNK0	0.000	
20	   C	2.736	1.425	2.558	C.2	1	UNK0	0.000	
21	   N	3.727	2.205	3.079	N.pl3	1	UNK0	0.000	
22	   C	3.855	1.939	4.387	C.2	1	UNK0	0.000	
23	   C	2.926	0.982	4.661	C.2	1	UNK0	0.000	
24	   C	-0.081	1.943	-0.387	C.2	1	UNK0	0.000	
25	   C	1.141	2.283	-0.916	C.2	1	UNK0	0.000	
26	   N	1.305	3.471	-1.574	N.2	1	UNK0	0.000	
27	   C	0.272	4.329	-1.715	C.2	1	UNK0	0.000	
28	   C	-0.966	4.037	-1.206	C.2	1	UNK0	0.000	
29	   C	-1.127	2.820	-0.534	C.2	1	UNK0	0.000	
30	   O	0.944	-0.747	-1.837	O.2	1	UNK0	0.000	
31	   H	-3.900	-2.422	-4.302	 H	1	UNK0	0.000	
32	   H	-2.683	-0.642	-3.058	 H	1	UNK0	0.000	
33	   H	0.176	-3.532	-1.869	 H	1	UNK0	0.000	
34	   H	-1.058	-5.279	-3.152	 H	1	UNK0	0.000	
35	   H	0.744	0.205	0.557	 H	1	UNK0	0.000	
36	   H	-1.629	1.689	3.280	 H	1	UNK0	0.000	
37	   H	-0.011	2.170	2.713	 H	1	UNK0	0.000	
38	   H	-0.883	-0.578	3.834	 H	1	UNK0	0.000	
39	   H	-0.137	0.642	4.861	 H	1	UNK0	0.000	
40	   H	1.218	-0.919	2.570	 H	1	UNK0	0.000	
41	   H	1.409	-1.075	4.313	 H	1	UNK0	0.000	
42	   H	2.432	1.444	1.520	 H	1	UNK0	0.000	
43	   H	4.261	2.882	2.493	 H	1	UNK0	0.000	
44	   H	4.561	2.398	5.085	 H	1	UNK0	0.000	
45	   H	2.764	0.541	5.635	 H	1	UNK0	0.000	
46	   H	2.002	1.636	-0.834	 H	1	UNK0	0.000	
47	   H	0.397	5.284	-2.242	 H	1	UNK0	0.000	
48	   H	-1.794	4.719	-1.316	 H	1	UNK0	0.000	
49	   H	-2.073	2.561	-0.126	 H	1	UNK0	0.000	
@<TRIPOS>BOND
1 1 2 1
2 2 3 2
3 2 7 1
4 3 4 1
5 4 5 2
6 5 6 1
7 5 8 1
8 6 7 2
9 8 9 2
10 8 30 1
11 9 10 1
12 9 14 1
13 10 11 1
14 10 24 1
15 11 12 1
16 11 16 1
17 12 13 2
18 12 14 1
19 14 15 2
20 16 17 1
21 17 18 1
22 18 19 1
23 19 20 1
24 19 23 1
25 20 21 2
26 21 22 1
27 22 23 2
28 24 25 2
29 24 29 1
30 25 26 1
31 26 27 2
32 27 28 1
33 28 29 2
34 3 31 1
35 4 32 1
36 6 33 1
37 7 34 1
38 10 35 1
39 16 36 1
40 16 37 1
41 17 38 1
42 17 39 1
43 18 40 1
44 18 41 1
45 20 42 1
46 21 43 1
47 22 44 1
48 23 45 1
49 25 46 1
50 27 47 1
51 28 48 1
52 29 49 1
@<TRIPOS>SUBSTRUCTURE
1	UNK0	1	GROUP	1 ****	UNK
