# created with PyMOL 2.3.2
@<TRIPOS>MOLECULE
257
49 52 1                 
SMALL
USER_CHARGES
@<TRIPOS>ATOM
1	  Br	-6.832	3.785	-2.789	Br	1	UNK0	0.000	
2	   C	-5.040	3.355	-2.305	C.2	1	UNK0	0.000	
3	   C	-3.980	4.215	-2.497	C.2	1	UNK0	0.000	
4	   C	-2.690	3.887	-2.141	C.2	1	UNK0	0.000	
5	   C	-2.399	2.646	-1.560	C.2	1	UNK0	0.000	
6	   C	-3.470	1.798	-1.375	C.2	1	UNK0	0.000	
7	   C	-4.775	2.128	-1.735	C.2	1	UNK0	0.000	
8	   C	-1.034	2.342	-1.167	C.2	1	UNK0	0.000	
9	   C	-0.488	1.206	-1.517	C.2	1	UNK0	0.000	
10	   C	0.889	0.700	-1.214	C.3	1	UNK0	0.000	
11	   N	0.614	-0.711	-0.970	N.pl3	1	UNK0	0.000	
12	   C	-0.368	-1.060	-1.966	C.2	1	UNK0	0.000	
13	   O	-0.542	-2.207	-2.409	O.2	1	UNK0	0.000	
14	   C	-1.092	0.166	-2.336	C.2	1	UNK0	0.000	
15	   O	-2.023	0.293	-3.174	O.2	1	UNK0	0.000	
16	   C	1.206	-1.550	0.031	C.3	1	UNK0	0.000	
17	   C	2.472	-2.229	-0.468	C.3	1	UNK0	0.000	
18	   C	3.013	-3.093	0.671	C.3	1	UNK0	0.000	
19	   N	2.055	-4.103	1.077	N.pl3	1	UNK0	0.000	
20	   C	1.929	-5.360	0.591	C.2	1	UNK0	0.000	
21	   N	0.922	-5.976	1.233	N.pl3	1	UNK0	0.000	
22	   C	0.385	-5.140	2.134	C.2	1	UNK0	0.000	
23	   C	1.110	-3.971	2.020	C.2	1	UNK0	0.000	
24	   C	1.456	1.393	-0.031	C.2	1	UNK0	0.000	
25	   N	2.575	2.115	-0.202	N.2	1	UNK0	0.000	
26	   C	3.169	2.790	0.785	C.2	1	UNK0	0.000	
27	   C	2.602	2.738	2.037	C.2	1	UNK0	0.000	
28	   C	1.456	2.011	2.258	C.2	1	UNK0	0.000	
29	   C	0.885	1.336	1.210	C.2	1	UNK0	0.000	
30	   O	-0.272	3.251	-0.407	O.2	1	UNK0	0.000	
31	   H	-4.208	5.176	-2.947	 H	1	UNK0	0.000	
32	   H	-1.857	4.567	-2.294	 H	1	UNK0	0.000	
33	   H	-3.300	0.835	-0.912	 H	1	UNK0	0.000	
34	   H	-5.588	1.410	-1.562	 H	1	UNK0	0.000	
35	   H	1.561	0.836	-2.076	 H	1	UNK0	0.000	
36	   H	0.493	-2.394	0.232	 H	1	UNK0	0.000	
37	   H	1.432	-1.075	0.983	 H	1	UNK0	0.000	
38	   H	2.292	-2.900	-1.315	 H	1	UNK0	0.000	
39	   H	3.256	-1.484	-0.688	 H	1	UNK0	0.000	
40	   H	3.952	-3.561	0.298	 H	1	UNK0	0.000	
41	   H	3.315	-2.443	1.537	 H	1	UNK0	0.000	
42	   H	2.526	-5.819	-0.184	 H	1	UNK0	0.000	
43	   H	0.587	-6.967	1.070	 H	1	UNK0	0.000	
44	   H	-0.434	-5.306	2.818	 H	1	UNK0	0.000	
45	   H	0.947	-3.064	2.607	 H	1	UNK0	0.000	
46	   H	4.082	3.377	0.635	 H	1	UNK0	0.000	
47	   H	3.080	3.287	2.856	 H	1	UNK0	0.000	
48	   H	1.002	1.964	3.238	 H	1	UNK0	0.000	
49	   H	-0.027	0.749	1.319	 H	1	UNK0	0.000	
@<TRIPOS>BOND
1 1 2 1
2 2 3 2
3 2 7 1
4 3 4 1
5 4 5 2
6 5 6 1
7 5 8 1
8 6 7 2
9 8 9 2
10 8 30 1
11 9 10 1
12 9 14 1
13 10 11 1
14 10 24 1
15 11 12 1
16 11 16 1
17 12 13 2
18 12 14 1
19 14 15 2
20 16 17 1
21 17 18 1
22 18 19 1
23 19 20 1
24 19 23 1
25 20 21 2
26 21 22 1
27 22 23 2
28 24 25 2
29 24 29 1
30 25 26 1
31 26 27 2
32 27 28 1
33 28 29 2
34 3 31 1
35 4 32 1
36 6 33 1
37 7 34 1
38 10 35 1
39 16 36 1
40 16 37 1
41 17 38 1
42 17 39 1
43 18 40 1
44 18 41 1
45 20 42 1
46 21 43 1
47 22 44 1
48 23 45 1
49 26 46 1
50 27 47 1
51 28 48 1
52 29 49 1
@<TRIPOS>SUBSTRUCTURE
1	UNK0	1	GROUP	1 ****	UNK
