# created with PyMOL 2.3.2
@<TRIPOS>MOLECULE
258
53 56 1                 
SMALL
USER_CHARGES
@<TRIPOS>ATOM
1	  Br	-6.550	2.387	-3.997	Br	1	UNK0	0.000	
2	   C	-5.091	1.479	-3.173	C.2	1	UNK0	0.000	
3	   C	-4.623	0.274	-3.663	C.2	1	UNK0	0.000	
4	   C	-3.570	-0.378	-3.068	C.2	1	UNK0	0.000	
5	   C	-2.913	0.131	-1.941	C.2	1	UNK0	0.000	
6	   C	-3.388	1.334	-1.459	C.2	1	UNK0	0.000	
7	   C	-4.447	1.982	-2.065	C.2	1	UNK0	0.000	
8	   C	-1.831	-0.631	-1.346	C.2	1	UNK0	0.000	
9	   C	-0.636	-0.086	-1.124	C.2	1	UNK0	0.000	
10	   C	0.527	-0.797	-0.510	C.3	1	UNK0	0.000	
11	   N	1.528	0.186	-0.216	N.pl3	1	UNK0	0.000	
12	   C	1.163	1.385	-0.871	C.2	1	UNK0	0.000	
13	   O	1.848	2.451	-0.978	O.2	1	UNK0	0.000	
14	   C	-0.174	1.249	-1.446	C.2	1	UNK0	0.000	
15	   O	-0.822	2.111	-2.102	O.2	1	UNK0	0.000	
16	   C	2.689	-0.000	0.600	C.3	1	UNK0	0.000	
17	   C	2.516	0.266	2.055	C.3	1	UNK0	0.000	
18	   N	2.109	1.597	2.404	N.4	1	UNK0	0.000	
19	   C	0.694	1.679	2.711	C.3	1	UNK0	0.000	
20	   C	0.298	0.674	3.773	C.3	1	UNK0	0.000	
21	   O	1.341	0.408	4.648	O.3	1	UNK0	0.000	
22	   C	2.050	1.568	4.860	C.3	1	UNK0	0.000	
23	   C	2.807	2.029	3.629	C.3	1	UNK0	0.000	
24	   C	0.951	-1.981	-1.224	C.2	1	UNK0	0.000	
25	   C	1.086	-2.015	-2.579	C.2	1	UNK0	0.000	
26	   C	1.500	-3.172	-3.255	C.2	1	UNK0	0.000	
27	   C	1.784	-4.322	-2.558	C.2	1	UNK0	0.000	
28	   C	1.654	-4.308	-1.189	C.2	1	UNK0	0.000	
29	   C	1.247	-3.167	-0.539	C.2	1	UNK0	0.000	
30	  Cl	2.307	-5.793	-3.382	Cl	1	UNK0	0.000	
31	  Cl	0.742	-0.595	-3.514	Cl	1	UNK0	0.000	
32	   O	-2.060	-1.949	-1.007	O.2	1	UNK0	0.000	
33	   H	-5.127	-0.142	-4.549	 H	1	UNK0	0.000	
34	   H	-3.195	-1.327	-3.447	 H	1	UNK0	0.000	
35	   H	-2.928	1.757	-0.574	 H	1	UNK0	0.000	
36	   H	-4.804	2.930	-1.667	 H	1	UNK0	0.000	
37	   H	0.093	-1.171	0.484	 H	1	UNK0	0.000	
38	   H	3.553	0.617	0.251	 H	1	UNK0	0.000	
39	   H	3.059	-1.058	0.489	 H	1	UNK0	0.000	
40	   H	1.881	-0.500	2.567	 H	1	UNK0	0.000	
41	   H	3.535	0.118	2.522	 H	1	UNK0	0.000	
42	   H	2.340	2.305	1.700	 H	1	UNK0	0.000	
43	   H	0.509	2.687	3.130	 H	1	UNK0	0.000	
44	   H	0.079	1.582	1.803	 H	1	UNK0	0.000	
45	   H	-0.558	1.018	4.381	 H	1	UNK0	0.000	
46	   H	-0.041	-0.242	3.238	 H	1	UNK0	0.000	
47	   H	2.786	1.383	5.690	 H	1	UNK0	0.000	
48	   H	1.357	2.336	5.249	 H	1	UNK0	0.000	
49	   H	2.924	3.114	3.668	 H	1	UNK0	0.000	
50	   H	3.792	1.522	3.594	 H	1	UNK0	0.000	
51	   H	1.608	-3.203	-4.324	 H	1	UNK0	0.000	
52	   H	1.885	-5.227	-0.661	 H	1	UNK0	0.000	
53	   H	1.146	-3.157	0.539	 H	1	UNK0	0.000	
@<TRIPOS>BOND
1 1 2 1
2 2 3 2
3 2 7 1
4 3 4 1
5 4 5 2
6 5 6 1
7 5 8 1
8 6 7 2
9 8 9 2
10 8 32 1
11 9 10 1
12 9 14 1
13 10 11 1
14 10 24 1
15 11 12 1
16 11 16 1
17 12 13 2
18 12 14 1
19 14 15 2
20 16 17 1
21 17 18 1
22 18 19 1
23 18 23 1
24 19 20 1
25 20 21 1
26 21 22 1
27 22 23 1
28 24 25 2
29 24 29 1
30 25 26 1
31 25 31 1
32 26 27 2
33 27 28 1
34 27 30 1
35 28 29 2
36 3 33 1
37 4 34 1
38 6 35 1
39 7 36 1
40 10 37 1
41 16 38 1
42 16 39 1
43 17 40 1
44 17 41 1
45 18 42 1
46 19 43 1
47 19 44 1
48 20 45 1
49 20 46 1
50 22 47 1
51 22 48 1
52 23 49 1
53 23 50 1
54 26 51 1
55 28 52 1
56 29 53 1
@<TRIPOS>SUBSTRUCTURE
1	UNK0	1	GROUP	1 ****	UNK
