# created with PyMOL 2.3.2
@<TRIPOS>MOLECULE
259
53 56 1                 
SMALL
USER_CHARGES
@<TRIPOS>ATOM
1	  Br	5.025	-5.638	4.997	Br	1	UNK0	0.000	
2	   C	3.829	-4.312	4.299	C.2	1	UNK0	0.000	
3	   C	3.000	-3.589	5.128	C.2	1	UNK0	0.000	
4	   C	2.133	-2.631	4.643	C.2	1	UNK0	0.000	
5	   C	2.057	-2.352	3.274	C.2	1	UNK0	0.000	
6	   C	2.895	-3.088	2.474	C.2	1	UNK0	0.000	
7	   C	3.766	-4.047	2.945	C.2	1	UNK0	0.000	
8	   C	1.161	-1.310	2.866	C.2	1	UNK0	0.000	
9	   C	0.209	-1.519	1.968	C.2	1	UNK0	0.000	
10	   C	-0.766	-0.510	1.470	C.3	1	UNK0	0.000	
11	   N	-1.635	-1.148	0.610	N.pl3	1	UNK0	0.000	
12	   C	-1.266	-2.538	0.476	C.2	1	UNK0	0.000	
13	   O	-1.832	-3.414	-0.247	O.2	1	UNK0	0.000	
14	   C	-0.117	-2.761	1.328	C.2	1	UNK0	0.000	
15	   O	0.489	-3.893	1.469	O.2	1	UNK0	0.000	
16	   C	-2.845	-0.666	-0.016	C.3	1	UNK0	0.000	
17	   C	-2.935	-0.308	-1.395	C.3	1	UNK0	0.000	
18	   N	-2.240	0.677	-2.090	N.4	1	UNK0	0.000	
19	   C	-2.365	2.030	-1.672	C.3	1	UNK0	0.000	
20	   C	-1.355	2.982	-2.169	C.3	1	UNK0	0.000	
21	   O	-0.264	2.489	-2.823	O.3	1	UNK0	0.000	
22	   C	-0.552	1.358	-3.591	C.3	1	UNK0	0.000	
23	   C	-0.903	0.299	-2.532	C.3	1	UNK0	0.000	
24	   C	-0.166	0.788	1.240	C.2	1	UNK0	0.000	
25	   C	1.074	0.983	0.641	C.2	1	UNK0	0.000	
26	   C	1.614	2.242	0.460	C.2	1	UNK0	0.000	
27	   C	0.935	3.371	0.875	C.2	1	UNK0	0.000	
28	   C	-0.291	3.216	1.472	C.2	1	UNK0	0.000	
29	   C	-0.790	1.957	1.631	C.2	1	UNK0	0.000	
30	  Cl	1.996	-0.381	0.114	Cl	1	UNK0	0.000	
31	   O	1.219	-0.008	3.375	O.2	1	UNK0	0.000	
32	   H	3.061	-3.808	6.190	 H	1	UNK0	0.000	
33	   H	1.486	-2.072	5.322	 H	1	UNK0	0.000	
34	   H	2.910	-2.908	1.411	 H	1	UNK0	0.000	
35	   H	4.418	-4.617	2.296	 H	1	UNK0	0.000	
36	   H	-1.401	-0.343	2.457	 H	1	UNK0	0.000	
37	   H	-3.633	-1.462	0.195	 H	1	UNK0	0.000	
38	   H	-3.202	0.159	0.689	 H	1	UNK0	0.000	
39	   H	-2.851	-1.259	-2.024	 H	1	UNK0	0.000	
40	   H	-4.057	-0.073	-1.589	 H	1	UNK0	0.000	
41	   H	-2.744	0.695	-3.076	 H	1	UNK0	0.000	
42	   H	-2.497	2.156	-0.578	 H	1	UNK0	0.000	
43	   H	-3.367	2.408	-2.073	 H	1	UNK0	0.000	
44	   H	-0.947	3.606	-1.316	 H	1	UNK0	0.000	
45	   H	-1.787	3.779	-2.852	 H	1	UNK0	0.000	
46	   H	0.312	1.075	-4.184	 H	1	UNK0	0.000	
47	   H	-1.458	1.577	-4.192	 H	1	UNK0	0.000	
48	   H	-0.971	-0.647	-3.100	 H	1	UNK0	0.000	
49	   H	-0.134	0.338	-1.789	 H	1	UNK0	0.000	
50	   H	2.593	2.396	-0.014	 H	1	UNK0	0.000	
51	   H	1.321	4.369	0.753	 H	1	UNK0	0.000	
52	   H	-0.825	4.115	1.799	 H	1	UNK0	0.000	
53	   H	-1.775	1.858	2.112	 H	1	UNK0	0.000	
@<TRIPOS>BOND
1 1 2 1
2 2 3 2
3 2 7 1
4 3 4 1
5 4 5 2
6 5 6 1
7 5 8 1
8 6 7 2
9 8 9 2
10 8 31 1
11 9 10 1
12 9 14 1
13 10 11 1
14 10 24 1
15 11 12 1
16 11 16 1
17 12 13 2
18 12 14 1
19 14 15 2
20 16 17 1
21 17 18 1
22 18 19 1
23 18 23 1
24 19 20 1
25 20 21 1
26 21 22 1
27 22 23 1
28 24 25 2
29 24 29 1
30 25 26 1
31 25 30 1
32 26 27 2
33 27 28 1
34 28 29 2
35 3 32 1
36 4 33 1
37 6 34 1
38 7 35 1
39 10 36 1
40 16 37 1
41 16 38 1
42 17 39 1
43 17 40 1
44 18 41 1
45 19 42 1
46 19 43 1
47 20 44 1
48 20 45 1
49 22 46 1
50 22 47 1
51 23 48 1
52 23 49 1
53 26 50 1
54 27 51 1
55 28 52 1
56 29 53 1
@<TRIPOS>SUBSTRUCTURE
1	UNK0	1	GROUP	1 ****	UNK
