# created with PyMOL 2.3.2
@<TRIPOS>MOLECULE
260
55 58 1                 
SMALL
USER_CHARGES
@<TRIPOS>ATOM
1	  Br	2.966	7.835	-3.691	Br	1	UNK0	0.000	
2	   C	2.616	6.252	-2.670	C.2	1	UNK0	0.000	
3	   C	1.994	5.183	-3.262	C.2	1	UNK0	0.000	
4	   C	1.759	4.061	-2.497	C.2	1	UNK0	0.000	
5	   C	2.117	3.963	-1.169	C.2	1	UNK0	0.000	
6	   C	2.752	5.091	-0.621	C.2	1	UNK0	0.000	
7	   C	3.002	6.222	-1.347	C.2	1	UNK0	0.000	
8	   C	1.872	2.831	-0.312	C.2	1	UNK0	0.000	
9	   C	0.672	2.319	-0.132	C.2	1	UNK0	0.000	
10	   C	0.292	1.167	0.709	C.3	1	UNK0	0.000	
11	   N	-1.109	1.053	0.675	N.pl3	1	UNK0	0.000	
12	   C	-1.640	2.072	-0.160	C.2	1	UNK0	0.000	
13	   O	-2.859	2.286	-0.443	O.2	1	UNK0	0.000	
14	   C	-0.547	2.867	-0.667	C.2	1	UNK0	0.000	
15	   O	-0.739	3.869	-1.449	O.2	1	UNK0	0.000	
16	   C	-1.982	0.161	1.420	C.3	1	UNK0	0.000	
17	   C	-2.534	-1.018	0.775	C.3	1	UNK0	0.000	
18	   N	-1.726	-2.049	0.253	N.4	1	UNK0	0.000	
19	   C	-1.914	-2.245	-1.185	C.3	1	UNK0	0.000	
20	   C	-1.356	-3.577	-1.629	C.3	1	UNK0	0.000	
21	   O	-0.511	-4.127	-0.665	O.3	1	UNK0	0.000	
22	   C	-1.210	-4.402	0.509	C.3	1	UNK0	0.000	
23	   C	-2.229	-3.335	0.815	C.3	1	UNK0	0.000	
24	   C	1.138	0.001	0.716	C.2	1	UNK0	0.000	
25	   C	1.600	-0.680	-0.359	C.2	1	UNK0	0.000	
26	   C	2.481	-1.773	-0.162	C.2	1	UNK0	0.000	
27	   C	2.888	-2.179	1.076	C.2	1	UNK0	0.000	
28	   C	2.427	-1.503	2.182	C.2	1	UNK0	0.000	
29	   C	1.586	-0.459	1.977	C.2	1	UNK0	0.000	
30	   N	1.199	-0.400	-1.678	N.pl3	1	UNK0	0.000	
31	   O	0.921	0.624	-2.234	O.2	1	UNK0	0.000	
32	   O	1.110	-1.535	-2.518	O.2	1	UNK0	0.000	
33	   O	2.941	2.251	0.356	O.2	1	UNK0	0.000	
34	   H	1.683	5.198	-4.316	 H	1	UNK0	0.000	
35	   H	1.279	3.191	-2.983	 H	1	UNK0	0.000	
36	   H	3.065	5.080	0.434	 H	1	UNK0	0.000	
37	   H	3.504	7.099	-0.890	 H	1	UNK0	0.000	
38	   H	0.454	1.667	1.776	 H	1	UNK0	0.000	
39	   H	-1.480	-0.149	2.371	 H	1	UNK0	0.000	
40	   H	-2.841	0.798	1.788	 H	1	UNK0	0.000	
41	   H	-3.289	-0.774	-0.040	 H	1	UNK0	0.000	
42	   H	-3.231	-1.499	1.550	 H	1	UNK0	0.000	
43	   H	-0.755	-2.030	0.555	 H	1	UNK0	0.000	
44	   H	-1.496	-1.459	-1.799	 H	1	UNK0	0.000	
45	   H	-3.027	-2.316	-1.348	 H	1	UNK0	0.000	
46	   H	-0.783	-3.508	-2.570	 H	1	UNK0	0.000	
47	   H	-2.173	-4.325	-1.859	 H	1	UNK0	0.000	
48	   H	-1.748	-5.366	0.476	 H	1	UNK0	0.000	
49	   H	-0.445	-4.483	1.332	 H	1	UNK0	0.000	
50	   H	-2.398	-3.248	1.892	 H	1	UNK0	0.000	
51	   H	-3.152	-3.583	0.256	 H	1	UNK0	0.000	
52	   H	2.823	-2.282	-1.077	 H	1	UNK0	0.000	
53	   H	3.561	-3.015	1.205	 H	1	UNK0	0.000	
54	   H	2.717	-1.783	3.188	 H	1	UNK0	0.000	
55	   H	1.223	0.066	2.864	 H	1	UNK0	0.000	
@<TRIPOS>BOND
1 1 2 1
2 2 3 2
3 2 7 1
4 3 4 1
5 4 5 2
6 5 6 1
7 5 8 1
8 6 7 2
9 8 9 2
10 8 33 1
11 9 10 1
12 9 14 1
13 10 11 1
14 10 24 1
15 11 12 1
16 11 16 1
17 12 13 2
18 12 14 1
19 14 15 2
20 16 17 1
21 17 18 1
22 18 19 1
23 18 23 1
24 19 20 1
25 20 21 1
26 21 22 1
27 22 23 1
28 24 25 2
29 24 29 1
30 25 26 1
31 25 30 1
32 26 27 2
33 27 28 1
34 28 29 2
35 30 31 2
36 30 32 1
37 3 34 1
38 4 35 1
39 6 36 1
40 7 37 1
41 10 38 1
42 16 39 1
43 16 40 1
44 17 41 1
45 17 42 1
46 18 43 1
47 19 44 1
48 19 45 1
49 20 46 1
50 20 47 1
51 22 48 1
52 22 49 1
53 23 50 1
54 23 51 1
55 26 52 1
56 27 53 1
57 28 54 1
58 29 55 1
@<TRIPOS>SUBSTRUCTURE
1	UNK0	1	GROUP	1 ****	UNK
