# created with PyMOL 2.3.2
@<TRIPOS>MOLECULE
261
57 60 1                 
SMALL
USER_CHARGES
@<TRIPOS>ATOM
1	  Br	-8.573	-1.901	0.795	Br	1	UNK0	0.000	
2	   C	-6.732	-1.813	0.305	C.2	1	UNK0	0.000	
3	   C	-6.293	-0.805	-0.523	C.2	1	UNK0	0.000	
4	   C	-4.970	-0.718	-0.892	C.2	1	UNK0	0.000	
5	   C	-4.090	-1.657	-0.418	C.2	1	UNK0	0.000	
6	   C	-4.555	-2.656	0.408	C.2	1	UNK0	0.000	
7	   C	-5.876	-2.775	0.799	C.2	1	UNK0	0.000	
8	   C	-2.680	-1.648	-0.719	C.2	1	UNK0	0.000	
9	   C	-1.962	-0.558	-0.538	C.2	1	UNK0	0.000	
10	   C	-0.464	-0.448	-0.834	C.3	1	UNK0	0.000	
11	   N	-0.327	0.936	-1.115	N.pl3	1	UNK0	0.000	
12	   C	-1.330	1.686	-0.377	C.2	1	UNK0	0.000	
13	   O	-1.324	2.893	-0.103	O.2	1	UNK0	0.000	
14	   C	-2.388	0.719	-0.004	C.2	1	UNK0	0.000	
15	   O	-3.429	0.925	0.634	O.2	1	UNK0	0.000	
16	   C	0.572	1.583	-2.023	C.3	1	UNK0	0.000	
17	   C	1.815	2.142	-1.453	C.3	1	UNK0	0.000	
18	   N	2.740	1.275	-0.827	N.4	1	UNK0	0.000	
19	   C	4.113	1.467	-1.361	C.3	1	UNK0	0.000	
20	   C	4.904	0.268	-0.864	C.3	1	UNK0	0.000	
21	   O	4.385	-0.207	0.360	O.3	1	UNK0	0.000	
22	   C	4.122	0.898	1.165	C.3	1	UNK0	0.000	
23	   C	2.891	1.586	0.596	C.3	1	UNK0	0.000	
24	   C	0.289	-1.042	0.255	C.2	1	UNK0	0.000	
25	   C	0.140	-0.817	1.599	C.2	1	UNK0	0.000	
26	   C	0.874	-1.470	2.561	C.2	1	UNK0	0.000	
27	   C	1.809	-2.398	2.176	C.2	1	UNK0	0.000	
28	   C	1.993	-2.656	0.838	C.2	1	UNK0	0.000	
29	   C	1.257	-2.000	-0.090	C.2	1	UNK0	0.000	
30	   O	-0.788	0.108	2.010	O.3	1	UNK0	0.000	
31	   C	-1.012	0.408	3.371	C.3	1	UNK0	0.000	
32	   O	-2.039	-2.808	-1.213	O.2	1	UNK0	0.000	
33	   H	-7.001	-0.054	-0.900	 H	1	UNK0	0.000	
34	   H	-4.658	0.086	-1.565	 H	1	UNK0	0.000	
35	   H	-3.879	-3.430	0.808	 H	1	UNK0	0.000	
36	   H	-6.218	-3.574	1.453	 H	1	UNK0	0.000	
37	   H	-0.364	-1.084	-1.751	 H	1	UNK0	0.000	
38	   H	0.789	0.933	-2.920	 H	1	UNK0	0.000	
39	   H	0.023	2.457	-2.496	 H	1	UNK0	0.000	
40	   H	1.496	2.928	-0.699	 H	1	UNK0	0.000	
41	   H	2.389	2.762	-2.209	 H	1	UNK0	0.000	
42	   H	2.573	0.267	-0.978	 H	1	UNK0	0.000	
43	   H	4.548	2.415	-0.992	 H	1	UNK0	0.000	
44	   H	4.059	1.424	-2.465	 H	1	UNK0	0.000	
45	   H	4.746	-0.586	-1.581	 H	1	UNK0	0.000	
46	   H	5.972	0.477	-0.726	 H	1	UNK0	0.000	
47	   H	3.961	0.609	2.226	 H	1	UNK0	0.000	
48	   H	5.018	1.556	1.095	 H	1	UNK0	0.000	
49	   H	3.060	2.684	0.698	 H	1	UNK0	0.000	
50	   H	2.033	1.306	1.203	 H	1	UNK0	0.000	
51	   H	0.724	-1.261	3.611	 H	1	UNK0	0.000	
52	   H	2.423	-2.949	2.901	 H	1	UNK0	0.000	
53	   H	2.728	-3.387	0.512	 H	1	UNK0	0.000	
54	   H	1.412	-2.213	-1.154	 H	1	UNK0	0.000	
55	   H	-1.473	-0.481	3.862	 H	1	UNK0	0.000	
56	   H	-0.061	0.674	3.906	 H	1	UNK0	0.000	
57	   H	-1.733	1.243	3.493	 H	1	UNK0	0.000	
@<TRIPOS>BOND
1 1 2 1
2 2 3 2
3 2 7 1
4 3 4 1
5 4 5 2
6 5 6 1
7 5 8 1
8 6 7 2
9 8 9 2
10 8 32 1
11 9 10 1
12 9 14 1
13 10 11 1
14 10 24 1
15 11 12 1
16 11 16 1
17 12 13 2
18 12 14 1
19 14 15 2
20 16 17 1
21 17 18 1
22 18 19 1
23 18 23 1
24 19 20 1
25 20 21 1
26 21 22 1
27 22 23 1
28 24 25 2
29 24 29 1
30 25 26 1
31 25 30 1
32 26 27 2
33 27 28 1
34 28 29 2
35 30 31 1
36 3 33 1
37 4 34 1
38 6 35 1
39 7 36 1
40 10 37 1
41 16 38 1
42 16 39 1
43 17 40 1
44 17 41 1
45 18 42 1
46 19 43 1
47 19 44 1
48 20 45 1
49 20 46 1
50 22 47 1
51 22 48 1
52 23 49 1
53 23 50 1
54 26 51 1
55 27 52 1
56 28 53 1
57 29 54 1
58 31 55 1
59 31 56 1
60 31 57 1
@<TRIPOS>SUBSTRUCTURE
1	UNK0	1	GROUP	1 ****	UNK
