# created with PyMOL 2.3.2
@<TRIPOS>MOLECULE
262
61 64 1                 
SMALL
USER_CHARGES
@<TRIPOS>ATOM
1	  Br	0.438	-0.711	8.991	Br	1	UNK0	0.000	
2	   C	0.520	-0.220	7.146	C.2	1	UNK0	0.000	
3	   C	-0.644	-0.030	6.416	C.2	1	UNK0	0.000	
4	   C	-0.575	0.326	5.080	C.2	1	UNK0	0.000	
5	   C	0.631	0.501	4.445	C.2	1	UNK0	0.000	
6	   C	1.793	0.313	5.168	C.2	1	UNK0	0.000	
7	   C	1.752	-0.045	6.508	C.2	1	UNK0	0.000	
8	   C	0.766	0.899	3.050	C.2	1	UNK0	0.000	
9	   C	0.171	1.887	2.456	C.2	1	UNK0	0.000	
10	   C	0.221	2.378	1.056	C.3	1	UNK0	0.000	
11	   N	-0.917	3.214	0.843	N.pl3	1	UNK0	0.000	
12	   C	-1.314	3.671	2.163	C.2	1	UNK0	0.000	
13	   O	-2.103	4.614	2.429	O.2	1	UNK0	0.000	
14	   C	-0.654	2.864	3.176	C.2	1	UNK0	0.000	
15	   O	-0.773	2.989	4.444	O.2	1	UNK0	0.000	
16	   C	-1.471	3.629	-0.396	C.3	1	UNK0	0.000	
17	   C	-2.723	3.094	-0.901	C.3	1	UNK0	0.000	
18	   N	-2.941	1.713	-1.147	N.4	1	UNK0	0.000	
19	   C	-2.241	1.106	-2.214	C.3	1	UNK0	0.000	
20	   C	-2.478	-0.367	-2.372	C.3	1	UNK0	0.000	
21	   O	-2.574	-1.072	-1.202	O.3	1	UNK0	0.000	
22	   C	-3.351	-0.526	-0.224	C.3	1	UNK0	0.000	
23	   C	-3.114	0.931	0.060	C.3	1	UNK0	0.000	
24	   C	0.579	1.413	0.041	C.2	1	UNK0	0.000	
25	   C	1.402	1.840	-1.009	C.2	1	UNK0	0.000	
26	   C	1.830	1.041	-2.033	C.2	1	UNK0	0.000	
27	   C	1.423	-0.288	-2.038	C.2	1	UNK0	0.000	
28	   C	0.614	-0.733	-1.019	C.2	1	UNK0	0.000	
29	   C	0.192	0.093	0.009	C.2	1	UNK0	0.000	
30	   O	1.868	-1.078	-3.083	O.3	1	UNK0	0.000	
31	   C	1.517	-2.423	-3.184	C.3	1	UNK0	0.000	
32	   O	2.645	1.518	-3.047	O.3	1	UNK0	0.000	
33	   C	3.047	2.866	-3.028	C.3	1	UNK0	0.000	
34	   O	1.652	0.102	2.305	O.2	1	UNK0	0.000	
35	   H	-1.576	-0.171	6.931	 H	1	UNK0	0.000	
36	   H	-1.513	0.444	4.555	 H	1	UNK0	0.000	
37	   H	2.777	0.434	4.731	 H	1	UNK0	0.000	
38	   H	2.670	-0.190	7.069	 H	1	UNK0	0.000	
39	   H	1.096	3.169	1.029	 H	1	UNK0	0.000	
40	   H	-0.635	3.553	-1.145	 H	1	UNK0	0.000	
41	   H	-1.576	4.768	-0.298	 H	1	UNK0	0.000	
42	   H	-2.885	3.586	-1.931	 H	1	UNK0	0.000	
43	   H	-3.630	3.507	-0.354	 H	1	UNK0	0.000	
44	   H	-3.981	1.713	-1.532	 H	1	UNK0	0.000	
45	   H	-1.177	1.332	-2.188	 H	1	UNK0	0.000	
46	   H	-2.607	1.577	-3.188	 H	1	UNK0	0.000	
47	   H	-1.770	-0.832	-3.087	 H	1	UNK0	0.000	
48	   H	-3.488	-0.467	-2.875	 H	1	UNK0	0.000	
49	   H	-4.440	-0.750	-0.343	 H	1	UNK0	0.000	
50	   H	-3.080	-1.069	0.731	 H	1	UNK0	0.000	
51	   H	-4.079	1.264	0.586	 H	1	UNK0	0.000	
52	   H	-2.355	1.078	0.822	 H	1	UNK0	0.000	
53	   H	1.747	2.887	-1.043	 H	1	UNK0	0.000	
54	   H	0.304	-1.786	-1.042	 H	1	UNK0	0.000	
55	   H	-0.461	-0.316	0.783	 H	1	UNK0	0.000	
56	   H	1.542	-2.898	-2.204	 H	1	UNK0	0.000	
57	   H	0.495	-2.523	-3.650	 H	1	UNK0	0.000	
58	   H	2.199	-2.939	-3.893	 H	1	UNK0	0.000	
59	   H	3.734	3.085	-3.872	 H	1	UNK0	0.000	
60	   H	2.190	3.562	-3.139	 H	1	UNK0	0.000	
61	   H	3.528	3.078	-2.036	 H	1	UNK0	0.000	
@<TRIPOS>BOND
1 1 2 1
2 2 3 2
3 2 7 1
4 3 4 1
5 4 5 2
6 5 6 1
7 5 8 1
8 6 7 2
9 8 9 2
10 8 34 1
11 9 10 1
12 9 14 1
13 10 11 1
14 10 24 1
15 11 12 1
16 11 16 1
17 12 13 2
18 12 14 1
19 14 15 2
20 16 17 1
21 17 18 1
22 18 19 1
23 18 23 1
24 19 20 1
25 20 21 1
26 21 22 1
27 22 23 1
28 24 25 2
29 24 29 1
30 25 26 1
31 26 27 2
32 26 32 1
33 27 28 1
34 27 30 1
35 28 29 2
36 30 31 1
37 32 33 1
38 3 35 1
39 4 36 1
40 6 37 1
41 7 38 1
42 10 39 1
43 16 40 1
44 16 41 1
45 17 42 1
46 17 43 1
47 18 44 1
48 19 45 1
49 19 46 1
50 20 47 1
51 20 48 1
52 22 49 1
53 22 50 1
54 23 51 1
55 23 52 1
56 25 53 1
57 28 54 1
58 29 55 1
59 31 56 1
60 31 57 1
61 31 58 1
62 33 59 1
63 33 60 1
64 33 61 1
@<TRIPOS>SUBSTRUCTURE
1	UNK0	1	GROUP	1 ****	UNK
