# created with PyMOL 2.3.2
@<TRIPOS>MOLECULE
264
57 60 1                 
SMALL
USER_CHARGES
@<TRIPOS>ATOM
1	  Br	7.628	-5.450	-2.742	Br	1	UNK0	0.000	
2	   C	6.340	-4.201	-2.058	C.2	1	UNK0	0.000	
3	   C	6.133	-4.081	-0.700	C.2	1	UNK0	0.000	
4	   C	5.207	-3.184	-0.207	C.2	1	UNK0	0.000	
5	   C	4.452	-2.372	-1.050	C.2	1	UNK0	0.000	
6	   C	4.685	-2.517	-2.392	C.2	1	UNK0	0.000	
7	   C	5.607	-3.410	-2.908	C.2	1	UNK0	0.000	
8	   C	3.518	-1.419	-0.474	C.2	1	UNK0	0.000	
9	   C	2.254	-1.319	-0.851	C.2	1	UNK0	0.000	
10	   C	1.234	-0.363	-0.312	C.3	1	UNK0	0.000	
11	   N	0.196	-0.306	-1.339	N.pl3	1	UNK0	0.000	
12	   C	0.266	-1.488	-2.134	C.2	1	UNK0	0.000	
13	   O	-0.583	-1.923	-2.940	O.2	1	UNK0	0.000	
14	   C	1.542	-2.124	-1.833	C.2	1	UNK0	0.000	
15	   O	1.991	-3.206	-2.328	O.2	1	UNK0	0.000	
16	   C	-0.718	0.804	-1.446	C.3	1	UNK0	0.000	
17	   C	-1.961	0.688	-0.645	C.3	1	UNK0	0.000	
18	   N	-2.820	-0.423	-0.928	N.4	1	UNK0	0.000	
19	   C	-3.824	-0.566	0.109	C.3	1	UNK0	0.000	
20	   C	-5.104	0.120	-0.172	C.3	1	UNK0	0.000	
21	   O	-5.094	0.956	-1.275	O.3	1	UNK0	0.000	
22	   C	-4.669	0.272	-2.405	C.3	1	UNK0	0.000	
23	   C	-3.371	-0.429	-2.249	C.3	1	UNK0	0.000	
24	   C	1.849	0.964	-0.084	C.2	1	UNK0	0.000	
25	   C	2.053	1.508	1.159	C.2	1	UNK0	0.000	
26	   C	2.645	2.752	1.333	C.2	1	UNK0	0.000	
27	   C	3.033	3.447	0.219	C.2	1	UNK0	0.000	
28	   C	2.849	2.941	-1.045	C.2	1	UNK0	0.000	
29	   C	2.251	1.689	-1.182	C.2	1	UNK0	0.000	
30	   O	2.833	3.268	2.630	O.3	1	UNK0	0.000	
31	   C	3.435	4.533	2.824	C.3	1	UNK0	0.000	
32	   O	3.926	-0.527	0.544	O.2	1	UNK0	0.000	
33	   H	6.724	-4.716	-0.053	 H	1	UNK0	0.000	
34	   H	5.047	-3.092	0.870	 H	1	UNK0	0.000	
35	   H	4.146	-1.899	-3.090	 H	1	UNK0	0.000	
36	   H	5.781	-3.516	-3.969	 H	1	UNK0	0.000	
37	   H	0.822	-0.709	0.658	 H	1	UNK0	0.000	
38	   H	-0.886	0.951	-2.534	 H	1	UNK0	0.000	
39	   H	-0.177	1.714	-1.118	 H	1	UNK0	0.000	
40	   H	-1.690	0.771	0.428	 H	1	UNK0	0.000	
41	   H	-2.580	1.618	-0.835	 H	1	UNK0	0.000	
42	   H	-2.227	-1.283	-0.845	 H	1	UNK0	0.000	
43	   H	-3.382	-0.124	1.039	 H	1	UNK0	0.000	
44	   H	-4.025	-1.635	0.364	 H	1	UNK0	0.000	
45	   H	-5.449	0.749	0.694	 H	1	UNK0	0.000	
46	   H	-5.934	-0.616	-0.323	 H	1	UNK0	0.000	
47	   H	-4.663	1.028	-3.245	 H	1	UNK0	0.000	
48	   H	-5.521	-0.416	-2.681	 H	1	UNK0	0.000	
49	   H	-3.530	-1.496	-2.592	 H	1	UNK0	0.000	
50	   H	-2.656	-0.008	-2.985	 H	1	UNK0	0.000	
51	   H	1.748	0.963	2.037	 H	1	UNK0	0.000	
52	   H	3.500	4.424	0.335	 H	1	UNK0	0.000	
53	   H	3.167	3.518	-1.889	 H	1	UNK0	0.000	
54	   H	2.128	1.335	-2.197	 H	1	UNK0	0.000	
55	   H	4.477	4.465	2.444	 H	1	UNK0	0.000	
56	   H	3.384	4.790	3.885	 H	1	UNK0	0.000	
57	   H	2.930	5.293	2.176	 H	1	UNK0	0.000	
@<TRIPOS>BOND
1 1 2 1
2 2 3 2
3 2 7 1
4 3 4 1
5 4 5 2
6 5 6 1
7 5 8 1
8 6 7 2
9 8 9 2
10 8 32 1
11 9 10 1
12 9 14 1
13 10 11 1
14 10 24 1
15 11 12 1
16 11 16 1
17 12 13 2
18 12 14 1
19 14 15 2
20 16 17 1
21 17 18 1
22 18 19 1
23 18 23 1
24 19 20 1
25 20 21 1
26 21 22 1
27 22 23 1
28 24 25 2
29 24 29 1
30 25 26 1
31 26 27 2
32 26 30 1
33 27 28 1
34 28 29 2
35 30 31 1
36 3 33 1
37 4 34 1
38 6 35 1
39 7 36 1
40 10 37 1
41 16 38 1
42 16 39 1
43 17 40 1
44 17 41 1
45 18 42 1
46 19 43 1
47 19 44 1
48 20 45 1
49 20 46 1
50 22 47 1
51 22 48 1
52 23 49 1
53 23 50 1
54 25 51 1
55 27 52 1
56 28 53 1
57 29 54 1
58 31 55 1
59 31 56 1
60 31 57 1
@<TRIPOS>SUBSTRUCTURE
1	UNK0	1	GROUP	1 ****	UNK
