# created with PyMOL 2.3.2
@<TRIPOS>MOLECULE
266
65 68 1                 
SMALL
USER_CHARGES
@<TRIPOS>ATOM
1	  Br	4.409	5.911	-4.358	Br	1	UNK0	0.000	
2	   C	3.725	4.653	-3.071	C.2	1	UNK0	0.000	
3	   C	2.377	4.692	-2.761	C.2	1	UNK0	0.000	
4	   C	1.834	3.794	-1.834	C.2	1	UNK0	0.000	
5	   C	2.630	2.872	-1.229	C.2	1	UNK0	0.000	
6	   C	3.968	2.861	-1.559	C.2	1	UNK0	0.000	
7	   C	4.531	3.737	-2.471	C.2	1	UNK0	0.000	
8	   C	2.181	1.861	-0.287	C.2	1	UNK0	0.000	
9	   C	1.265	0.935	-0.523	C.2	1	UNK0	0.000	
10	   C	0.750	-0.123	0.384	C.3	1	UNK0	0.000	
11	   N	0.353	-1.208	-0.522	N.pl3	1	UNK0	0.000	
12	   C	0.055	-0.607	-1.765	C.2	1	UNK0	0.000	
13	   O	-0.584	-1.121	-2.714	O.2	1	UNK0	0.000	
14	   C	0.615	0.751	-1.809	C.2	1	UNK0	0.000	
15	   O	0.530	1.566	-2.789	O.2	1	UNK0	0.000	
16	   C	0.309	-2.611	-0.143	C.3	1	UNK0	0.000	
17	   C	1.544	-3.386	-0.243	C.3	1	UNK0	0.000	
18	   N	2.203	-3.548	-1.502	N.4	1	UNK0	0.000	
19	   C	2.933	-2.416	-1.939	C.3	1	UNK0	0.000	
20	   C	2.851	-2.109	-3.395	C.3	1	UNK0	0.000	
21	   O	2.768	-3.297	-4.157	O.3	1	UNK0	0.000	
22	   C	1.489	-3.793	-3.873	C.3	1	UNK0	0.000	
23	   C	1.454	-4.290	-2.482	C.3	1	UNK0	0.000	
24	   C	-0.417	0.363	1.177	C.2	1	UNK0	0.000	
25	   C	-0.379	0.484	2.549	C.2	1	UNK0	0.000	
26	   C	-1.452	0.958	3.296	C.2	1	UNK0	0.000	
27	   C	-2.618	1.331	2.664	C.2	1	UNK0	0.000	
28	   C	-2.676	1.217	1.296	C.2	1	UNK0	0.000	
29	   C	-1.594	0.740	0.564	C.2	1	UNK0	0.000	
30	   C	-3.773	1.862	3.421	C.3	1	UNK0	0.000	
31	   C	-3.287	2.976	4.373	C.3	1	UNK0	0.000	
32	   C	-4.790	2.521	2.526	C.3	1	UNK0	0.000	
33	   C	-4.469	0.843	4.288	C.3	1	UNK0	0.000	
34	   O	2.750	1.834	1.006	O.2	1	UNK0	0.000	
35	   H	1.714	5.426	-3.234	 H	1	UNK0	0.000	
36	   H	0.786	3.862	-1.592	 H	1	UNK0	0.000	
37	   H	4.656	2.157	-1.110	 H	1	UNK0	0.000	
38	   H	5.589	3.706	-2.718	 H	1	UNK0	0.000	
39	   H	1.494	-0.489	1.116	 H	1	UNK0	0.000	
40	   H	-0.565	-3.068	-0.659	 H	1	UNK0	0.000	
41	   H	-0.019	-2.598	0.943	 H	1	UNK0	0.000	
42	   H	1.345	-4.418	0.219	 H	1	UNK0	0.000	
43	   H	2.363	-3.008	0.452	 H	1	UNK0	0.000	
44	   H	2.995	-4.265	-1.239	 H	1	UNK0	0.000	
45	   H	2.666	-1.515	-1.361	 H	1	UNK0	0.000	
46	   H	4.058	-2.502	-1.738	 H	1	UNK0	0.000	
47	   H	3.772	-1.584	-3.762	 H	1	UNK0	0.000	
48	   H	1.974	-1.502	-3.643	 H	1	UNK0	0.000	
49	   H	0.770	-2.994	-4.120	 H	1	UNK0	0.000	
50	   H	1.287	-4.643	-4.572	 H	1	UNK0	0.000	
51	   H	0.395	-4.313	-2.151	 H	1	UNK0	0.000	
52	   H	1.751	-5.386	-2.519	 H	1	UNK0	0.000	
53	   H	0.536	0.201	3.044	 H	1	UNK0	0.000	
54	   H	-1.411	1.038	4.374	 H	1	UNK0	0.000	
55	   H	-3.609	1.523	0.823	 H	1	UNK0	0.000	
56	   H	-1.681	0.668	-0.511	 H	1	UNK0	0.000	
57	   H	-2.959	2.575	5.337	 H	1	UNK0	0.000	
58	   H	-4.037	3.759	4.494	 H	1	UNK0	0.000	
59	   H	-2.365	3.442	3.921	 H	1	UNK0	0.000	
60	   H	-4.300	3.238	1.799	 H	1	UNK0	0.000	
61	   H	-5.487	3.172	3.098	 H	1	UNK0	0.000	
62	   H	-5.370	1.834	1.923	 H	1	UNK0	0.000	
63	   H	-3.819	0.507	5.142	 H	1	UNK0	0.000	
64	   H	-5.338	1.363	4.734	 H	1	UNK0	0.000	
65	   H	-4.821	-0.042	3.737	 H	1	UNK0	0.000	
@<TRIPOS>BOND
1 1 2 1
2 2 3 2
3 2 7 1
4 3 4 1
5 4 5 2
6 5 6 1
7 5 8 1
8 6 7 2
9 8 9 2
10 8 34 1
11 9 10 1
12 9 14 1
13 10 11 1
14 10 24 1
15 11 12 1
16 11 16 1
17 12 13 2
18 12 14 1
19 14 15 2
20 16 17 1
21 17 18 1
22 18 19 1
23 18 23 1
24 19 20 1
25 20 21 1
26 21 22 1
27 22 23 1
28 24 25 2
29 24 29 1
30 25 26 1
31 26 27 2
32 27 28 1
33 27 30 1
34 28 29 2
35 30 31 1
36 30 32 1
37 30 33 1
38 3 35 1
39 4 36 1
40 6 37 1
41 7 38 1
42 10 39 1
43 16 40 1
44 16 41 1
45 17 42 1
46 17 43 1
47 18 44 1
48 19 45 1
49 19 46 1
50 20 47 1
51 20 48 1
52 22 49 1
53 22 50 1
54 23 51 1
55 23 52 1
56 25 53 1
57 26 54 1
58 28 55 1
59 29 56 1
60 31 57 1
61 31 58 1
62 31 59 1
63 32 60 1
64 32 61 1
65 32 62 1
66 33 63 1
67 33 64 1
68 33 65 1
@<TRIPOS>SUBSTRUCTURE
1	UNK0	1	GROUP	1 ****	UNK
