# created with PyMOL 2.3.2
@<TRIPOS>MOLECULE
272
60 63 1                 
SMALL
USER_CHARGES
@<TRIPOS>ATOM
1	  Br	-2.904	6.574	3.806	Br	1	UNK0	0.000	
2	   C	-2.081	4.966	3.202	C.2	1	UNK0	0.000	
3	   C	-1.635	4.037	4.110	C.2	1	UNK0	0.000	
4	   C	-1.028	2.852	3.675	C.2	1	UNK0	0.000	
5	   C	-0.859	2.575	2.347	C.2	1	UNK0	0.000	
6	   C	-1.314	3.526	1.428	C.2	1	UNK0	0.000	
7	   C	-1.918	4.707	1.863	C.2	1	UNK0	0.000	
8	   C	-0.268	1.336	1.884	C.2	1	UNK0	0.000	
9	   C	-0.869	0.196	2.155	C.2	1	UNK0	0.000	
10	   C	-0.457	-1.191	1.797	C.3	1	UNK0	0.000	
11	   N	-1.643	-1.702	1.258	N.pl3	1	UNK0	0.000	
12	   C	-2.661	-1.297	2.255	C.2	1	UNK0	0.000	
13	   O	-3.730	-1.898	2.534	O.2	1	UNK0	0.000	
14	   C	-2.152	-0.053	2.834	C.2	1	UNK0	0.000	
15	   O	-2.677	0.677	3.720	O.2	1	UNK0	0.000	
16	   C	-2.083	-2.475	0.119	C.3	1	UNK0	0.000	
17	   C	-2.709	-1.679	-0.988	C.3	1	UNK0	0.000	
18	   N	-1.843	-0.664	-1.494	N.4	1	UNK0	0.000	
19	   C	-2.649	0.528	-1.848	C.3	1	UNK0	0.000	
20	   C	-1.747	1.517	-2.518	C.3	1	UNK0	0.000	
21	   O	-1.257	1.008	-3.706	O.3	1	UNK0	0.000	
22	   C	-0.408	-0.072	-3.369	C.3	1	UNK0	0.000	
23	   C	-1.301	-1.119	-2.751	C.3	1	UNK0	0.000	
24	   C	0.871	-1.422	1.364	C.2	1	UNK0	0.000	
25	   C	1.863	-1.343	2.356	C.2	1	UNK0	0.000	
26	   C	3.189	-1.549	2.108	C.2	1	UNK0	0.000	
27	   C	3.601	-1.850	0.824	C.2	1	UNK0	0.000	
28	   C	2.632	-1.928	-0.146	C.2	1	UNK0	0.000	
29	   C	1.274	-1.719	0.101	C.2	1	UNK0	0.000	
30	   O	4.944	-2.057	0.572	O.3	1	UNK0	0.000	
31	   C	5.972	-1.990	1.508	C.3	1	UNK0	0.000	
32	   C	6.126	-0.664	2.178	C.3	1	UNK0	0.000	
33	   O	0.936	1.334	1.152	O.2	1	UNK0	0.000	
34	   H	-1.758	4.232	5.171	 H	1	UNK0	0.000	
35	   H	-0.666	2.165	4.412	 H	1	UNK0	0.000	
36	   H	-1.178	3.303	0.395	 H	1	UNK0	0.000	
37	   H	-2.257	5.415	1.126	 H	1	UNK0	0.000	
38	   H	-0.462	-1.691	2.886	 H	1	UNK0	0.000	
39	   H	-2.906	-3.157	0.491	 H	1	UNK0	0.000	
40	   H	-1.278	-3.095	-0.345	 H	1	UNK0	0.000	
41	   H	-3.683	-1.231	-0.655	 H	1	UNK0	0.000	
42	   H	-2.982	-2.421	-1.784	 H	1	UNK0	0.000	
43	   H	-1.084	-0.349	-0.880	 H	1	UNK0	0.000	
44	   H	-3.423	0.196	-2.538	 H	1	UNK0	0.000	
45	   H	-3.102	0.992	-0.976	 H	1	UNK0	0.000	
46	   H	-2.350	2.439	-2.726	 H	1	UNK0	0.000	
47	   H	-0.920	1.841	-1.839	 H	1	UNK0	0.000	
48	   H	0.021	-0.479	-4.296	 H	1	UNK0	0.000	
49	   H	0.339	0.316	-2.657	 H	1	UNK0	0.000	
50	   H	-2.171	-1.221	-3.461	 H	1	UNK0	0.000	
51	   H	-0.762	-2.060	-2.682	 H	1	UNK0	0.000	
52	   H	1.594	-1.106	3.398	 H	1	UNK0	0.000	
53	   H	3.916	-1.475	2.929	 H	1	UNK0	0.000	
54	   H	2.948	-2.163	-1.154	 H	1	UNK0	0.000	
55	   H	0.594	-1.817	-0.752	 H	1	UNK0	0.000	
56	   H	5.868	-2.747	2.324	 H	1	UNK0	0.000	
57	   H	6.918	-2.227	0.964	 H	1	UNK0	0.000	
58	   H	6.160	-0.731	3.297	 H	1	UNK0	0.000	
59	   H	5.366	0.085	1.843	 H	1	UNK0	0.000	
60	   H	7.102	-0.225	1.890	 H	1	UNK0	0.000	
@<TRIPOS>BOND
1 1 2 1
2 2 3 2
3 2 7 1
4 3 4 1
5 4 5 2
6 5 6 1
7 5 8 1
8 6 7 2
9 8 9 2
10 8 33 1
11 9 10 1
12 9 14 1
13 10 11 1
14 10 24 1
15 11 12 1
16 11 16 1
17 12 13 2
18 12 14 1
19 14 15 2
20 16 17 1
21 17 18 1
22 18 19 1
23 18 23 1
24 19 20 1
25 20 21 1
26 21 22 1
27 22 23 1
28 24 25 2
29 24 29 1
30 25 26 1
31 26 27 2
32 27 28 1
33 27 30 1
34 28 29 2
35 30 31 1
36 31 32 1
37 3 34 1
38 4 35 1
39 6 36 1
40 7 37 1
41 10 38 1
42 16 39 1
43 16 40 1
44 17 41 1
45 17 42 1
46 18 43 1
47 19 44 1
48 19 45 1
49 20 46 1
50 20 47 1
51 22 48 1
52 22 49 1
53 23 50 1
54 23 51 1
55 25 52 1
56 26 53 1
57 28 54 1
58 29 55 1
59 31 56 1
60 31 57 1
61 32 58 1
62 32 59 1
63 32 60 1
@<TRIPOS>SUBSTRUCTURE
1	UNK0	1	GROUP	1 ****	UNK
