# created with PyMOL 2.3.2
@<TRIPOS>MOLECULE
273
57 60 1                 
SMALL
USER_CHARGES
@<TRIPOS>ATOM
1	  Br	6.812	1.032	2.996	Br	1	UNK0	0.000	
2	   C	5.022	1.110	2.346	C.2	1	UNK0	0.000	
3	   C	4.191	2.105	2.856	C.2	1	UNK0	0.000	
4	   C	2.893	2.194	2.412	C.2	1	UNK0	0.000	
5	   C	2.382	1.308	1.457	C.2	1	UNK0	0.000	
6	   C	3.227	0.333	0.967	C.2	1	UNK0	0.000	
7	   C	4.536	0.229	1.404	C.2	1	UNK0	0.000	
8	   C	1.012	1.434	0.978	C.2	1	UNK0	0.000	
9	   C	0.201	0.407	0.891	C.2	1	UNK0	0.000	
10	   C	-1.198	0.255	0.448	C.3	1	UNK0	0.000	
11	   N	-1.082	-0.885	-0.382	N.pl3	1	UNK0	0.000	
12	   C	-0.330	-1.841	0.468	C.2	1	UNK0	0.000	
13	   O	-0.431	-3.086	0.438	O.2	1	UNK0	0.000	
14	   C	0.511	-0.993	1.297	C.2	1	UNK0	0.000	
15	   O	1.361	-1.325	2.201	O.2	1	UNK0	0.000	
16	   C	-1.536	-1.296	-1.705	C.3	1	UNK0	0.000	
17	   C	-0.487	-1.273	-2.770	C.3	1	UNK0	0.000	
18	   N	0.117	0.002	-2.940	N.4	1	UNK0	0.000	
19	   C	1.521	-0.293	-3.372	C.3	1	UNK0	0.000	
20	   C	2.127	1.034	-3.750	C.3	1	UNK0	0.000	
21	   O	1.332	2.105	-3.348	O.3	1	UNK0	0.000	
22	   C	0.129	2.106	-4.068	C.3	1	UNK0	0.000	
23	   C	-0.412	0.714	-4.116	C.3	1	UNK0	0.000	
24	   C	-2.016	1.390	0.239	C.2	1	UNK0	0.000	
25	   C	-2.260	1.952	-0.965	C.2	1	UNK0	0.000	
26	   C	-3.061	3.096	-1.097	C.2	1	UNK0	0.000	
27	   C	-3.639	3.702	-0.009	C.2	1	UNK0	0.000	
28	   C	-3.377	3.110	1.212	C.2	1	UNK0	0.000	
29	   C	-2.600	1.998	1.356	C.2	1	UNK0	0.000	
30	   O	-4.438	4.835	-0.102	O.3	1	UNK0	0.000	
31	   C	-4.739	5.479	-1.298	C.3	1	UNK0	0.000	
32	   O	0.549	2.682	0.601	O.2	1	UNK0	0.000	
33	   H	4.582	2.808	3.610	 H	1	UNK0	0.000	
34	   H	2.234	2.956	2.794	 H	1	UNK0	0.000	
35	   H	2.865	-0.372	0.204	 H	1	UNK0	0.000	
36	   H	5.207	-0.544	1.017	 H	1	UNK0	0.000	
37	   H	-1.685	-0.235	1.428	 H	1	UNK0	0.000	
38	   H	-2.362	-0.643	-2.034	 H	1	UNK0	0.000	
39	   H	-1.969	-2.344	-1.637	 H	1	UNK0	0.000	
40	   H	0.296	-2.063	-2.595	 H	1	UNK0	0.000	
41	   H	-1.025	-1.497	-3.732	 H	1	UNK0	0.000	
42	   H	0.143	0.607	-2.120	 H	1	UNK0	0.000	
43	   H	1.389	-0.913	-4.283	 H	1	UNK0	0.000	
44	   H	2.064	-0.841	-2.605	 H	1	UNK0	0.000	
45	   H	3.119	1.175	-3.244	 H	1	UNK0	0.000	
46	   H	2.272	1.098	-4.858	 H	1	UNK0	0.000	
47	   H	0.378	2.510	-5.080	 H	1	UNK0	0.000	
48	   H	-0.544	2.836	-3.604	 H	1	UNK0	0.000	
49	   H	-0.052	0.237	-5.049	 H	1	UNK0	0.000	
50	   H	-1.510	0.725	-4.126	 H	1	UNK0	0.000	
51	   H	-1.880	1.593	-1.914	 H	1	UNK0	0.000	
52	   H	-3.255	3.546	-2.071	 H	1	UNK0	0.000	
53	   H	-3.832	3.585	2.099	 H	1	UNK0	0.000	
54	   H	-2.421	1.563	2.365	 H	1	UNK0	0.000	
55	   H	-5.318	6.409	-1.054	 H	1	UNK0	0.000	
56	   H	-5.380	4.869	-1.984	 H	1	UNK0	0.000	
57	   H	-3.873	5.800	-1.893	 H	1	UNK0	0.000	
@<TRIPOS>BOND
1 1 2 1
2 2 3 2
3 2 7 1
4 3 4 1
5 4 5 2
6 5 6 1
7 5 8 1
8 6 7 2
9 8 9 2
10 8 32 1
11 9 10 1
12 9 14 1
13 10 11 1
14 10 24 1
15 11 12 1
16 11 16 1
17 12 13 2
18 12 14 1
19 14 15 2
20 16 17 1
21 17 18 1
22 18 19 1
23 18 23 1
24 19 20 1
25 20 21 1
26 21 22 1
27 22 23 1
28 24 25 2
29 24 29 1
30 25 26 1
31 26 27 2
32 27 28 1
33 27 30 1
34 28 29 2
35 30 31 1
36 3 33 1
37 4 34 1
38 6 35 1
39 7 36 1
40 10 37 1
41 16 38 1
42 16 39 1
43 17 40 1
44 17 41 1
45 18 42 1
46 19 43 1
47 19 44 1
48 20 45 1
49 20 46 1
50 22 47 1
51 22 48 1
52 23 49 1
53 23 50 1
54 25 51 1
55 26 52 1
56 28 53 1
57 29 54 1
58 31 55 1
59 31 56 1
60 31 57 1
@<TRIPOS>SUBSTRUCTURE
1	UNK0	1	GROUP	1 ****	UNK
