# created with PyMOL 2.3.2
@<TRIPOS>MOLECULE
275
52 55 1                 
SMALL
USER_CHARGES
@<TRIPOS>ATOM
1	  Br	4.042	1.380	6.297	Br	1	UNK0	0.000	
2	   C	3.470	1.014	4.502	C.2	1	UNK0	0.000	
3	   C	2.157	1.241	4.158	C.2	1	UNK0	0.000	
4	   C	1.733	0.979	2.857	C.2	1	UNK0	0.000	
5	   C	2.579	0.495	1.883	C.2	1	UNK0	0.000	
6	   C	3.895	0.276	2.257	C.2	1	UNK0	0.000	
7	   C	4.336	0.531	3.548	C.2	1	UNK0	0.000	
8	   C	2.152	0.190	0.523	C.2	1	UNK0	0.000	
9	   C	1.090	-0.532	0.230	C.2	1	UNK0	0.000	
10	   C	0.534	-0.918	-1.118	C.3	1	UNK0	0.000	
11	   N	-0.901	-0.996	-0.887	N.pl3	1	UNK0	0.000	
12	   C	-1.031	-1.458	0.470	C.2	1	UNK0	0.000	
13	   O	-2.074	-2.006	0.900	O.2	1	UNK0	0.000	
14	   C	0.202	-1.185	1.203	C.2	1	UNK0	0.000	
15	   O	0.482	-1.437	2.400	O.2	1	UNK0	0.000	
16	   C	-1.962	-0.695	-1.814	C.3	1	UNK0	0.000	
17	   C	-2.463	0.684	-1.758	C.3	1	UNK0	0.000	
18	   N	-1.587	1.763	-2.011	N.4	1	UNK0	0.000	
19	   C	-1.276	1.962	-3.396	C.3	1	UNK0	0.000	
20	   C	-0.738	3.295	-3.759	C.3	1	UNK0	0.000	
21	   O	-0.805	4.239	-2.751	O.3	1	UNK0	0.000	
22	   C	-2.101	4.175	-2.232	C.3	1	UNK0	0.000	
23	   C	-2.205	2.949	-1.394	C.3	1	UNK0	0.000	
24	   C	1.115	-2.202	-1.589	C.2	1	UNK0	0.000	
25	   C	2.021	-2.195	-2.634	C.2	1	UNK0	0.000	
26	   N	2.606	-3.292	-3.136	N.2	1	UNK0	0.000	
27	   C	2.316	-4.488	-2.613	C.2	1	UNK0	0.000	
28	   C	1.425	-4.546	-1.577	C.2	1	UNK0	0.000	
29	   C	0.811	-3.431	-1.045	C.2	1	UNK0	0.000	
30	   O	2.882	0.671	-0.588	O.2	1	UNK0	0.000	
31	   H	1.457	1.625	4.905	 H	1	UNK0	0.000	
32	   H	0.705	1.194	2.646	 H	1	UNK0	0.000	
33	   H	4.578	-0.103	1.514	 H	1	UNK0	0.000	
34	   H	5.362	0.354	3.817	 H	1	UNK0	0.000	
35	   H	0.779	-0.155	-1.881	 H	1	UNK0	0.000	
36	   H	-1.648	-1.058	-2.806	 H	1	UNK0	0.000	
37	   H	-2.820	-1.373	-1.526	 H	1	UNK0	0.000	
38	   H	-3.364	0.830	-2.423	 H	1	UNK0	0.000	
39	   H	-2.896	0.838	-0.724	 H	1	UNK0	0.000	
40	   H	-0.672	1.670	-1.504	 H	1	UNK0	0.000	
41	   H	-0.473	1.205	-3.642	 H	1	UNK0	0.000	
42	   H	-2.132	1.676	-4.049	 H	1	UNK0	0.000	
43	   H	0.327	3.282	-4.110	 H	1	UNK0	0.000	
44	   H	-1.317	3.708	-4.631	 H	1	UNK0	0.000	
45	   H	-2.793	4.119	-3.079	 H	1	UNK0	0.000	
46	   H	-2.292	5.049	-1.564	 H	1	UNK0	0.000	
47	   H	-1.753	3.161	-0.384	 H	1	UNK0	0.000	
48	   H	-3.289	2.777	-1.176	 H	1	UNK0	0.000	
49	   H	2.273	-1.239	-3.075	 H	1	UNK0	0.000	
50	   H	2.800	-5.354	-3.034	 H	1	UNK0	0.000	
51	   H	1.184	-5.523	-1.145	 H	1	UNK0	0.000	
52	   H	0.109	-3.490	-0.226	 H	1	UNK0	0.000	
@<TRIPOS>BOND
1 1 2 1
2 2 3 2
3 2 7 1
4 3 4 1
5 4 5 2
6 5 6 1
7 5 8 1
8 6 7 2
9 8 9 2
10 8 30 1
11 9 10 1
12 9 14 1
13 10 11 1
14 10 24 1
15 11 12 1
16 11 16 1
17 12 13 2
18 12 14 1
19 14 15 2
20 16 17 1
21 17 18 1
22 18 19 1
23 18 23 1
24 19 20 1
25 20 21 1
26 21 22 1
27 22 23 1
28 24 25 2
29 24 29 1
30 25 26 1
31 26 27 2
32 27 28 1
33 28 29 2
34 3 31 1
35 4 32 1
36 6 33 1
37 7 34 1
38 10 35 1
39 16 36 1
40 16 37 1
41 17 38 1
42 17 39 1
43 18 40 1
44 19 41 1
45 19 42 1
46 20 43 1
47 20 44 1
48 22 45 1
49 22 46 1
50 23 47 1
51 23 48 1
52 25 49 1
53 27 50 1
54 28 51 1
55 29 52 1
@<TRIPOS>SUBSTRUCTURE
1	UNK0	1	GROUP	1 ****	UNK
