# created with PyMOL 2.3.2
@<TRIPOS>MOLECULE
277
48 51 1                 
SMALL
USER_CHARGES
@<TRIPOS>ATOM
1	  Br	1.113	5.133	-3.058	Br	1	UNK0	0.000	
2	   C	0.187	3.627	-2.337	C.2	1	UNK0	0.000	
3	   C	0.741	2.809	-1.384	C.2	1	UNK0	0.000	
4	   C	0.079	1.708	-0.850	C.2	1	UNK0	0.000	
5	   C	-1.179	1.420	-1.286	C.2	1	UNK0	0.000	
6	   C	-1.775	2.215	-2.243	C.2	1	UNK0	0.000	
7	   C	-1.089	3.292	-2.746	C.2	1	UNK0	0.000	
8	   C	-1.916	0.267	-0.746	C.3	1	UNK0	0.000	
9	   O	-2.299	-0.490	-1.885	O.3	1	UNK0	0.000	
10	   C	-3.219	0.697	-0.123	C.2	1	UNK0	0.000	
11	   C	-4.401	0.018	-0.383	C.2	1	UNK0	0.000	
12	   C	-5.607	0.391	0.170	C.2	1	UNK0	0.000	
13	   C	-5.665	1.475	1.017	C.2	1	UNK0	0.000	
14	   C	-4.513	2.171	1.296	C.2	1	UNK0	0.000	
15	   C	-3.313	1.776	0.727	C.2	1	UNK0	0.000	
16	  Br	-7.360	1.939	1.747	Br	1	UNK0	0.000	
17	   C	-1.175	-0.623	0.141	C.2	1	UNK0	0.000	
18	   O	-0.957	-1.837	-0.211	O.2	1	UNK0	0.000	
19	   N	-0.651	-0.269	1.408	N.pl3	1	UNK0	0.000	
20	   N	0.043	-1.077	2.269	N.pl3	1	UNK0	0.000	
21	   C	1.291	-1.711	2.060	C.2	1	UNK0	0.000	
22	   N	1.998	-1.597	0.925	N.pl3	1	UNK0	0.000	
23	   C	3.191	-2.194	0.702	C.2	1	UNK0	0.000	
24	   C	3.764	-2.986	1.680	C.2	1	UNK0	0.000	
25	   C	3.056	-3.121	2.861	C.2	1	UNK0	0.000	
26	   C	1.849	-2.510	3.070	C.2	1	UNK0	0.000	
27	   C	4.975	-3.584	1.439	C.2	1	UNK0	0.000	
28	   C	5.660	-3.423	0.235	C.2	1	UNK0	0.000	
29	   C	5.086	-2.632	-0.739	C.2	1	UNK0	0.000	
30	   C	3.869	-2.029	-0.502	C.2	1	UNK0	0.000	
31	   H	1.748	3.043	-1.038	 H	1	UNK0	0.000	
32	   H	0.611	1.119	-0.097	 H	1	UNK0	0.000	
33	   H	-2.785	2.006	-2.612	 H	1	UNK0	0.000	
34	   H	-1.526	3.952	-3.510	 H	1	UNK0	0.000	
35	   H	-2.443	-1.403	-1.564	 H	1	UNK0	0.000	
36	   H	-4.334	-0.830	-1.050	 H	1	UNK0	0.000	
37	   H	-6.505	-0.195	-0.081	 H	1	UNK0	0.000	
38	   H	-4.584	3.017	1.962	 H	1	UNK0	0.000	
39	   H	-2.403	2.330	0.947	 H	1	UNK0	0.000	
40	   H	-0.823	0.732	1.726	 H	1	UNK0	0.000	
41	   H	-0.420	-1.248	3.214	 H	1	UNK0	0.000	
42	   H	1.610	-1.006	0.148	 H	1	UNK0	0.000	
43	   H	3.518	-3.748	3.625	 H	1	UNK0	0.000	
44	   H	1.309	-2.625	3.997	 H	1	UNK0	0.000	
45	   H	5.417	-4.206	2.219	 H	1	UNK0	0.000	
46	   H	6.615	-3.912	0.081	 H	1	UNK0	0.000	
47	   H	5.629	-2.514	-1.672	 H	1	UNK0	0.000	
48	   H	3.404	-1.408	-1.250	 H	1	UNK0	0.000	
@<TRIPOS>BOND
1 1 2 1
2 2 3 2
3 2 7 1
4 3 4 1
5 4 5 2
6 5 6 1
7 5 8 1
8 6 7 2
9 8 9 1
10 8 10 1
11 8 17 1
12 10 11 2
13 10 15 1
14 11 12 1
15 12 13 2
16 13 14 1
17 13 16 1
18 14 15 2
19 17 18 2
20 17 19 1
21 19 20 1
22 20 21 1
23 21 22 2
24 21 26 1
25 22 23 1
26 23 24 2
27 23 30 1
28 24 25 1
29 24 27 1
30 25 26 2
31 27 28 2
32 28 29 1
33 29 30 2
34 3 31 1
35 4 32 1
36 6 33 1
37 7 34 1
38 9 35 1
39 11 36 1
40 12 37 1
41 14 38 1
42 15 39 1
43 19 40 1
44 20 41 1
45 22 42 1
46 25 43 1
47 26 44 1
48 27 45 1
49 28 46 1
50 29 47 1
51 30 48 1
@<TRIPOS>SUBSTRUCTURE
1	UNK0	1	GROUP	1 ****	UNK
