# created with PyMOL 2.3.2
@<TRIPOS>MOLECULE
278
48 51 1                 
SMALL
USER_CHARGES
@<TRIPOS>ATOM
1	  Br	2.421	-3.323	7.205	Br	1	UNK0	0.000	
2	   C	1.681	-2.321	5.751	C.2	1	UNK0	0.000	
3	   C	0.374	-2.540	5.379	C.2	1	UNK0	0.000	
4	   C	-0.149	-1.820	4.338	C.2	1	UNK0	0.000	
5	   C	0.623	-0.896	3.679	C.2	1	UNK0	0.000	
6	   C	1.924	-0.705	4.078	C.2	1	UNK0	0.000	
7	   C	2.498	-1.409	5.125	C.2	1	UNK0	0.000	
8	   C	0.045	-0.106	2.528	C.3	1	UNK0	0.000	
9	   O	0.384	1.217	2.735	O.3	1	UNK0	0.000	
10	   C	0.511	-0.663	1.217	C.3	1	UNK0	0.000	
11	   N	-0.006	0.043	0.081	N.pl3	1	UNK0	0.000	
12	   C	-1.182	-0.294	-0.500	C.2	1	UNK0	0.000	
13	   C	-1.359	0.588	-1.554	C.2	1	UNK0	0.000	
14	   C	-2.499	0.477	-2.328	C.2	1	UNK0	0.000	
15	   C	-3.472	-0.498	-2.076	C.2	1	UNK0	0.000	
16	   C	-3.250	-1.358	-1.009	C.2	1	UNK0	0.000	
17	   C	-2.127	-1.270	-0.224	C.2	1	UNK0	0.000	
18	   N	-0.303	1.453	-1.620	N.pl3	1	UNK0	0.000	
19	   C	0.511	1.087	-0.594	C.cat	1	UNK0	0.000	
20	   N	1.625	1.683	-0.329	N.pl3	1	UNK0	0.000	
21	   C	-0.169	2.482	-2.607	C.3	1	UNK0	0.000	
22	   C	0.576	2.043	-3.837	C.2	1	UNK0	0.000	
23	   C	1.939	2.273	-3.913	C.2	1	UNK0	0.000	
24	   C	2.693	1.898	-5.008	C.2	1	UNK0	0.000	
25	   C	2.040	1.276	-6.043	C.2	1	UNK0	0.000	
26	   C	0.692	1.037	-5.994	C.2	1	UNK0	0.000	
27	   C	-0.027	1.421	-4.894	C.2	1	UNK0	0.000	
28	   H	-0.241	-3.289	5.919	 H	1	UNK0	0.000	
29	   H	-1.177	-1.981	4.034	 H	1	UNK0	0.000	
30	   H	2.560	0.032	3.557	 H	1	UNK0	0.000	
31	   H	3.536	-1.247	5.433	 H	1	UNK0	0.000	
32	   H	-1.070	-0.162	2.637	 H	1	UNK0	0.000	
33	   H	1.346	1.385	2.707	 H	1	UNK0	0.000	
34	   H	1.630	-0.508	1.197	 H	1	UNK0	0.000	
35	   H	0.370	-1.747	1.127	 H	1	UNK0	0.000	
36	   H	-2.634	1.175	-3.141	 H	1	UNK0	0.000	
37	   H	-4.335	-0.545	-2.701	 H	1	UNK0	0.000	
38	   H	-3.994	-2.119	-0.800	 H	1	UNK0	0.000	
39	   H	-1.989	-1.956	0.596	 H	1	UNK0	0.000	
40	   H	2.209	1.338	0.491	 H	1	UNK0	0.000	
41	   H	2.025	2.480	-0.829	 H	1	UNK0	0.000	
42	   H	0.381	3.364	-2.204	 H	1	UNK0	0.000	
43	   H	-1.180	2.799	-2.935	 H	1	UNK0	0.000	
44	   H	2.494	2.775	-3.103	 H	1	UNK0	0.000	
45	   H	3.774	2.087	-5.052	 H	1	UNK0	0.000	
46	   H	2.589	0.960	-6.929	 H	1	UNK0	0.000	
47	   H	0.211	0.533	-6.852	 H	1	UNK0	0.000	
48	   H	-1.073	1.229	-4.877	 H	1	UNK0	0.000	
@<TRIPOS>BOND
1 1 2 1
2 2 3 2
3 2 7 1
4 3 4 1
5 4 5 2
6 5 6 1
7 5 8 1
8 6 7 2
9 8 9 1
10 8 10 1
11 10 11 1
12 11 12 1
13 11 19 1
14 12 13 1
15 12 17 2
16 13 14 2
17 13 18 1
18 14 15 1
19 15 16 2
20 16 17 1
21 18 19 1
22 18 21 1
23 19 20 2
24 21 22 1
25 22 23 2
26 22 27 1
27 23 24 1
28 24 25 2
29 25 26 1
30 26 27 2
31 3 28 1
32 4 29 1
33 6 30 1
34 7 31 1
35 8 32 1
36 9 33 1
37 10 34 1
38 10 35 1
39 14 36 1
40 15 37 1
41 16 38 1
42 17 39 1
43 20 40 1
44 20 41 1
45 21 42 1
46 21 43 1
47 23 44 1
48 24 45 1
49 25 46 1
50 26 47 1
51 27 48 1
@<TRIPOS>SUBSTRUCTURE
1	UNK0	1	GROUP	1 ****	UNK
