# created with PyMOL 2.3.2
@<TRIPOS>MOLECULE
279
42 45 1                 
SMALL
USER_CHARGES
@<TRIPOS>ATOM
1	  Br	3.510	-5.944	-1.320	Br	1	UNK0	0.000	
2	   C	2.224	-4.799	-0.494	C.2	1	UNK0	0.000	
3	   C	1.420	-3.974	-1.267	C.2	1	UNK0	0.000	
4	   C	0.500	-3.154	-0.682	C.2	1	UNK0	0.000	
5	   C	0.312	-3.094	0.680	C.2	1	UNK0	0.000	
6	   C	1.103	-3.908	1.457	C.2	1	UNK0	0.000	
7	   C	2.051	-4.753	0.876	C.2	1	UNK0	0.000	
8	   C	-0.668	-2.219	1.339	C.3	1	UNK0	0.000	
9	   O	-1.882	-2.148	0.788	O.3	1	UNK0	0.000	
10	   C	-0.067	-0.858	1.570	C.3	1	UNK0	0.000	
11	   N	0.098	-0.057	0.381	N.pl3	1	UNK0	0.000	
12	   C	1.331	0.179	-0.325	C.2	1	UNK0	0.000	
13	   C	1.098	0.937	-1.447	C.2	1	UNK0	0.000	
14	   C	2.095	1.314	-2.316	C.2	1	UNK0	0.000	
15	   C	3.374	0.907	-2.029	C.2	1	UNK0	0.000	
16	   C	3.664	0.138	-0.902	C.2	1	UNK0	0.000	
17	   C	2.619	-0.224	-0.048	C.2	1	UNK0	0.000	
18	   N	-0.299	1.227	-1.517	N.pl3	1	UNK0	0.000	
19	   C	-1.099	1.972	-2.450	C.3	1	UNK0	0.000	
20	   C	-2.286	2.583	-1.719	C.3	1	UNK0	0.000	
21	   C	-3.034	1.474	-1.070	C.3	1	UNK0	0.000	
22	   N	-2.167	0.756	-0.158	N.pl3	1	UNK0	0.000	
23	   C	-0.905	0.615	-0.392	C.cat	1	UNK0	0.000	
24	   H	1.550	-4.004	-2.355	 H	1	UNK0	0.000	
25	   H	-0.128	-2.514	-1.280	 H	1	UNK0	0.000	
26	   H	1.032	-3.935	2.548	 H	1	UNK0	0.000	
27	   H	2.682	-5.400	1.466	 H	1	UNK0	0.000	
28	   H	-0.815	-2.635	2.390	 H	1	UNK0	0.000	
29	   H	-2.453	-2.921	0.792	 H	1	UNK0	0.000	
30	   H	-0.643	-0.284	2.336	 H	1	UNK0	0.000	
31	   H	0.951	-1.023	2.014	 H	1	UNK0	0.000	
32	   H	1.906	1.899	-3.181	 H	1	UNK0	0.000	
33	   H	4.160	1.202	-2.709	 H	1	UNK0	0.000	
34	   H	4.680	-0.183	-0.679	 H	1	UNK0	0.000	
35	   H	2.804	-0.820	0.835	 H	1	UNK0	0.000	
36	   H	-1.535	1.237	-3.188	 H	1	UNK0	0.000	
37	   H	-0.500	2.717	-2.983	 H	1	UNK0	0.000	
38	   H	-1.932	3.306	-0.960	 H	1	UNK0	0.000	
39	   H	-2.929	3.039	-2.500	 H	1	UNK0	0.000	
40	   H	-3.295	0.737	-1.888	 H	1	UNK0	0.000	
41	   H	-3.961	1.795	-0.559	 H	1	UNK0	0.000	
42	   H	-2.553	0.349	0.745	 H	1	UNK0	0.000	
@<TRIPOS>BOND
1 1 2 1
2 2 3 2
3 2 7 1
4 3 4 1
5 4 5 2
6 5 6 1
7 5 8 1
8 6 7 2
9 8 9 1
10 8 10 1
11 10 11 1
12 11 12 1
13 11 23 1
14 12 13 1
15 12 17 2
16 13 14 2
17 13 18 1
18 14 15 1
19 15 16 2
20 16 17 1
21 18 19 1
22 18 23 1
23 19 20 1
24 20 21 1
25 21 22 1
26 22 23 2
27 3 24 1
28 4 25 1
29 6 26 1
30 7 27 1
31 8 28 1
32 9 29 1
33 10 30 1
34 10 31 1
35 14 32 1
36 15 33 1
37 16 34 1
38 17 35 1
39 19 36 1
40 19 37 1
41 20 38 1
42 20 39 1
43 21 40 1
44 21 41 1
45 22 42 1
@<TRIPOS>SUBSTRUCTURE
1	UNK0	1	GROUP	1 ****	UNK
