# created with PyMOL 2.3.2
@<TRIPOS>MOLECULE
280
39 42 1                 
SMALL
USER_CHARGES
@<TRIPOS>ATOM
1	  Br	-5.534	3.075	-0.882	Br	1	UNK0	0.000	
2	   C	-4.235	2.025	0.044	C.2	1	UNK0	0.000	
3	   C	-3.566	0.988	-0.557	C.2	1	UNK0	0.000	
4	   C	-2.614	0.233	0.151	C.2	1	UNK0	0.000	
5	   C	-2.320	0.498	1.452	C.2	1	UNK0	0.000	
6	   C	-3.021	1.556	2.018	C.2	1	UNK0	0.000	
7	   C	-3.954	2.307	1.349	C.2	1	UNK0	0.000	
8	   C	-1.339	-0.236	2.207	C.3	1	UNK0	0.000	
9	   O	-0.667	0.535	3.166	O.3	1	UNK0	0.000	
10	   C	-0.336	-1.058	1.544	C.3	1	UNK0	0.000	
11	   N	0.753	-0.485	0.847	N.pl3	1	UNK0	0.000	
12	   C	0.987	-0.646	-0.547	C.2	1	UNK0	0.000	
13	   C	2.134	-0.002	-0.940	C.2	1	UNK0	0.000	
14	   C	2.609	-0.011	-2.256	C.2	1	UNK0	0.000	
15	   C	1.929	-0.684	-3.231	C.2	1	UNK0	0.000	
16	   C	0.775	-1.344	-2.878	C.2	1	UNK0	0.000	
17	   C	0.322	-1.324	-1.578	C.2	1	UNK0	0.000	
18	   N	2.684	0.603	0.225	N.pl3	1	UNK0	0.000	
19	   C	3.796	1.407	0.669	C.3	1	UNK0	0.000	
20	   C	3.552	1.569	2.132	C.3	1	UNK0	0.000	
21	   N	2.333	0.824	2.374	N.pl3	1	UNK0	0.000	
22	   C	1.844	0.309	1.319	C.cat	1	UNK0	0.000	
23	   H	-3.799	0.776	-1.591	 H	1	UNK0	0.000	
24	   H	-2.157	-0.562	-0.394	 H	1	UNK0	0.000	
25	   H	-2.812	1.789	3.039	 H	1	UNK0	0.000	
26	   H	-4.489	3.135	1.830	 H	1	UNK0	0.000	
27	   H	-1.946	-0.953	2.855	 H	1	UNK0	0.000	
28	   H	-0.613	0.141	4.041	 H	1	UNK0	0.000	
29	   H	-0.875	-1.766	0.846	 H	1	UNK0	0.000	
30	   H	0.069	-1.785	2.323	 H	1	UNK0	0.000	
31	   H	3.513	0.512	-2.505	 H	1	UNK0	0.000	
32	   H	2.291	-0.701	-4.277	 H	1	UNK0	0.000	
33	   H	0.222	-1.884	-3.638	 H	1	UNK0	0.000	
34	   H	-0.581	-1.873	-1.303	 H	1	UNK0	0.000	
35	   H	3.786	2.423	0.217	 H	1	UNK0	0.000	
36	   H	4.777	0.898	0.469	 H	1	UNK0	0.000	
37	   H	4.393	1.086	2.676	 H	1	UNK0	0.000	
38	   H	3.438	2.629	2.441	 H	1	UNK0	0.000	
39	   H	1.967	0.759	3.350	 H	1	UNK0	0.000	
@<TRIPOS>BOND
1 1 2 1
2 2 3 2
3 2 7 1
4 3 4 1
5 4 5 2
6 5 6 1
7 5 8 1
8 6 7 2
9 8 9 1
10 8 10 1
11 10 11 1
12 11 12 1
13 11 22 1
14 12 13 1
15 12 17 2
16 13 14 2
17 13 18 1
18 14 15 1
19 15 16 2
20 16 17 1
21 18 19 1
22 18 22 1
23 19 20 1
24 20 21 1
25 21 22 2
26 3 23 1
27 4 24 1
28 6 25 1
29 7 26 1
30 8 27 1
31 9 28 1
32 10 29 1
33 10 30 1
34 14 31 1
35 15 32 1
36 16 33 1
37 17 34 1
38 19 35 1
39 19 36 1
40 20 37 1
41 20 38 1
42 21 39 1
@<TRIPOS>SUBSTRUCTURE
1	UNK0	1	GROUP	1 ****	UNK
