# created with PyMOL 2.3.2
@<TRIPOS>MOLECULE
281
46 49 1                 
SMALL
USER_CHARGES
@<TRIPOS>ATOM
1	  Br	4.890	-2.086	-6.183	Br	1	UNK0	0.000	
2	   C	4.357	-2.013	-4.337	C.2	1	UNK0	0.000	
3	   C	3.578	-0.951	-3.880	C.2	1	UNK0	0.000	
4	   C	3.178	-0.865	-2.569	C.2	1	UNK0	0.000	
5	   C	3.559	-1.864	-1.671	C.2	1	UNK0	0.000	
6	   C	4.332	-2.903	-2.162	C.2	1	UNK0	0.000	
7	   C	4.738	-3.005	-3.459	C.2	1	UNK0	0.000	
8	   C	3.147	-1.806	-0.243	C.3	1	UNK0	0.000	
9	   N	2.435	-0.568	0.014	N.pl3	1	UNK0	0.000	
10	   C	3.086	0.679	0.144	C.2	1	UNK0	0.000	
11	   O	4.327	0.755	0.036	O.2	1	UNK0	0.000	
12	   C	2.297	1.901	0.408	C.3	1	UNK0	0.000	
13	   N	0.875	1.604	0.501	N.pl3	1	UNK0	0.000	
14	   N	-0.030	1.593	-0.444	N.2	1	UNK0	0.000	
15	   C	-1.249	1.264	0.056	C.2	1	UNK0	0.000	
16	   C	-1.111	1.049	1.408	C.2	1	UNK0	0.000	
17	   C	0.249	1.277	1.644	C.2	1	UNK0	0.000	
18	   N	0.679	1.150	2.916	N.2	1	UNK0	0.000	
19	   C	-0.144	0.824	3.907	C.2	1	UNK0	0.000	
20	   N	-1.440	0.608	3.674	N.2	1	UNK0	0.000	
21	   C	-1.979	0.711	2.412	C.2	1	UNK0	0.000	
22	   N	-3.343	0.428	2.206	N.pl3	1	UNK0	0.000	
23	   C	-4.243	0.701	3.290	C.3	1	UNK0	0.000	
24	   C	-5.186	-0.447	3.464	C.3	1	UNK0	0.000	
25	   O	-5.780	-0.817	2.254	O.3	1	UNK0	0.000	
26	   C	-4.866	-1.203	1.317	C.3	1	UNK0	0.000	
27	   C	-3.816	-0.139	0.994	C.3	1	UNK0	0.000	
28	   H	3.285	-0.178	-4.578	 H	1	UNK0	0.000	
29	   H	2.568	-0.034	-2.204	 H	1	UNK0	0.000	
30	   H	4.617	-3.675	-1.430	 H	1	UNK0	0.000	
31	   H	5.342	-3.836	-3.794	 H	1	UNK0	0.000	
32	   H	2.551	-2.683	0.043	 H	1	UNK0	0.000	
33	   H	4.070	-1.795	0.359	 H	1	UNK0	0.000	
34	   H	1.390	-0.635	0.103	 H	1	UNK0	0.000	
35	   H	2.632	2.314	1.381	 H	1	UNK0	0.000	
36	   H	2.421	2.659	-0.392	 H	1	UNK0	0.000	
37	   H	-2.177	1.193	-0.492	 H	1	UNK0	0.000	
38	   H	0.248	0.736	4.906	 H	1	UNK0	0.000	
39	   H	-3.722	0.868	4.254	 H	1	UNK0	0.000	
40	   H	-4.837	1.598	2.984	 H	1	UNK0	0.000	
41	   H	-4.695	-1.293	3.969	 H	1	UNK0	0.000	
42	   H	-6.019	-0.124	4.128	 H	1	UNK0	0.000	
43	   H	-4.363	-2.174	1.566	 H	1	UNK0	0.000	
44	   H	-5.416	-1.388	0.360	 H	1	UNK0	0.000	
45	   H	-3.020	-0.699	0.434	 H	1	UNK0	0.000	
46	   H	-4.316	0.599	0.332	 H	1	UNK0	0.000	
@<TRIPOS>BOND
1 1 2 1
2 2 3 2
3 2 7 1
4 3 4 1
5 4 5 2
6 5 6 1
7 5 8 1
8 6 7 2
9 8 9 1
10 9 10 1
11 10 11 2
12 10 12 1
13 12 13 1
14 13 14 1
15 13 17 1
16 14 15 2
17 15 16 1
18 16 17 2
19 16 21 1
20 17 18 1
21 18 19 2
22 19 20 1
23 20 21 2
24 21 22 1
25 22 23 1
26 22 27 1
27 23 24 1
28 24 25 1
29 25 26 1
30 26 27 1
31 3 28 1
32 4 29 1
33 6 30 1
34 7 31 1
35 8 32 1
36 8 33 1
37 9 34 1
38 12 35 1
39 12 36 1
40 15 37 1
41 19 38 1
42 23 39 1
43 23 40 1
44 24 41 1
45 24 42 1
46 26 43 1
47 26 44 1
48 27 45 1
49 27 46 1
@<TRIPOS>SUBSTRUCTURE
1	UNK0	1	GROUP	1 ****	UNK
