# created with PyMOL 2.3.2
@<TRIPOS>MOLECULE
286
48 51 1                 
SMALL
USER_CHARGES
@<TRIPOS>ATOM
1	  Br	-5.698	3.386	-2.816	Br	1	UNK0	0.000	
2	   C	-3.890	3.235	-2.232	C.2	1	UNK0	0.000	
3	   C	-3.398	3.980	-1.165	C.2	1	UNK0	0.000	
4	   C	-2.063	3.832	-0.793	C.2	1	UNK0	0.000	
5	   C	-1.198	2.990	-1.420	C.2	1	UNK0	0.000	
6	   C	-1.741	2.257	-2.493	C.2	1	UNK0	0.000	
7	   C	-3.051	2.371	-2.896	C.2	1	UNK0	0.000	
8	   C	0.208	2.815	-1.116	C.3	1	UNK0	0.000	
9	   N	0.562	1.918	-0.043	N.pl3	1	UNK0	0.000	
10	   C	0.778	2.247	1.239	C.2	1	UNK0	0.000	
11	   C	1.081	1.106	1.948	C.2	1	UNK0	0.000	
12	   N	1.040	0.114	1.072	N.2	1	UNK0	0.000	
13	   C	0.728	0.576	-0.147	C.2	1	UNK0	0.000	
14	   N	0.588	-0.193	-1.349	N.pl3	1	UNK0	0.000	
15	   C	-0.523	-1.115	-1.433	C.3	1	UNK0	0.000	
16	   C	0.047	-2.524	-1.505	C.3	1	UNK0	0.000	
17	   N	1.383	-2.558	-1.999	N.3	1	UNK0	0.000	
18	   C	1.731	-1.543	-2.937	C.3	1	UNK0	0.000	
19	   C	1.479	-0.130	-2.477	C.3	1	UNK0	0.000	
20	   C	2.397	-2.996	-1.117	C.3	1	UNK0	0.000	
21	   N	1.363	1.099	3.275	N.pl3	1	UNK0	0.000	
22	   C	1.341	2.284	3.906	C.2	1	UNK0	0.000	
23	   O	1.603	2.259	5.135	O.2	1	UNK0	0.000	
24	   N	1.056	3.433	3.269	N.pl3	1	UNK0	0.000	
25	   C	0.774	3.451	1.953	C.2	1	UNK0	0.000	
26	   O	0.510	4.492	1.336	O.2	1	UNK0	0.000	
27	   C	1.667	-0.152	3.937	C.3	1	UNK0	0.000	
28	   H	-4.048	4.659	-0.630	 H	1	UNK0	0.000	
29	   H	-1.753	4.430	0.022	 H	1	UNK0	0.000	
30	   H	-1.128	1.562	-3.058	 H	1	UNK0	0.000	
31	   H	-3.411	1.772	-3.740	 H	1	UNK0	0.000	
32	   H	0.723	2.403	-2.037	 H	1	UNK0	0.000	
33	   H	0.642	3.814	-0.866	 H	1	UNK0	0.000	
34	   H	-1.053	-0.902	-2.409	 H	1	UNK0	0.000	
35	   H	-1.276	-0.998	-0.642	 H	1	UNK0	0.000	
36	   H	0.038	-2.920	-0.470	 H	1	UNK0	0.000	
37	   H	-0.609	-3.171	-2.116	 H	1	UNK0	0.000	
38	   H	1.163	-1.730	-3.894	 H	1	UNK0	0.000	
39	   H	2.803	-1.644	-3.198	 H	1	UNK0	0.000	
40	   H	0.958	0.416	-3.315	 H	1	UNK0	0.000	
41	   H	2.446	0.359	-2.251	 H	1	UNK0	0.000	
42	   H	2.129	-3.006	-0.043	 H	1	UNK0	0.000	
43	   H	3.267	-2.302	-1.217	 H	1	UNK0	0.000	
44	   H	2.801	-4.012	-1.374	 H	1	UNK0	0.000	
45	   H	1.044	4.349	3.767	 H	1	UNK0	0.000	
46	   H	2.353	-0.002	4.804	 H	1	UNK0	0.000	
47	   H	1.998	-0.893	3.213	 H	1	UNK0	0.000	
48	   H	0.718	-0.517	4.391	 H	1	UNK0	0.000	
@<TRIPOS>BOND
1 1 2 1
2 2 3 2
3 2 7 1
4 3 4 1
5 4 5 2
6 5 6 1
7 5 8 1
8 6 7 2
9 8 9 1
10 9 10 1
11 9 13 1
12 10 11 2
13 10 25 1
14 11 12 1
15 11 21 1
16 12 13 2
17 13 14 1
18 14 15 1
19 14 19 1
20 15 16 1
21 16 17 1
22 17 18 1
23 17 20 1
24 18 19 1
25 21 22 1
26 21 27 1
27 22 23 2
28 22 24 1
29 24 25 1
30 25 26 2
31 3 28 1
32 4 29 1
33 6 30 1
34 7 31 1
35 8 32 1
36 8 33 1
37 15 34 1
38 15 35 1
39 16 36 1
40 16 37 1
41 18 38 1
42 18 39 1
43 19 40 1
44 19 41 1
45 20 42 1
46 20 43 1
47 20 44 1
48 24 45 1
49 27 46 1
50 27 47 1
51 27 48 1
@<TRIPOS>SUBSTRUCTURE
1	UNK0	1	GROUP	1 ****	UNK
