# created with PyMOL 2.3.2
@<TRIPOS>MOLECULE
290
38 41 1                 
SMALL
USER_CHARGES
@<TRIPOS>ATOM
1	  Br	-1.215	-5.527	3.942	Br	1	UNK0	0.000	
2	   C	-0.587	-4.201	2.724	C.2	1	UNK0	0.000	
3	   C	-0.328	-4.573	1.429	C.2	1	UNK0	0.000	
4	   C	0.134	-3.629	0.507	C.2	1	UNK0	0.000	
5	   C	0.336	-2.320	0.879	C.2	1	UNK0	0.000	
6	   C	0.073	-1.965	2.179	C.2	1	UNK0	0.000	
7	   C	-0.391	-2.903	3.110	C.2	1	UNK0	0.000	
8	   C	0.830	-1.344	-0.110	C.3	1	UNK0	0.000	
9	   N	0.541	-0.012	0.219	N.3	1	UNK0	0.000	
10	   C	-0.819	0.389	0.337	C.3	1	UNK0	0.000	
11	   C	-1.173	1.124	-0.954	C.3	1	UNK0	0.000	
12	   C	0.146	1.256	-1.667	C.3	1	UNK0	0.000	
13	   C	1.130	1.024	-0.551	C.3	1	UNK0	0.000	
14	   C	1.087	2.246	0.297	C.2	1	UNK0	0.000	
15	   O	1.924	3.138	0.155	O.2	1	UNK0	0.000	
16	   C	0.031	2.387	1.315	C.2	1	UNK0	0.000	
17	   C	-0.874	1.427	1.400	C.2	1	UNK0	0.000	
18	   C	0.102	0.203	-2.679	C.2	1	UNK0	0.000	
19	   O	1.079	-0.236	-3.322	O.2	1	UNK0	0.000	
20	   N	-1.229	-0.261	-2.834	N.pl3	1	UNK0	0.000	
21	   C	-2.047	0.333	-1.834	C.2	1	UNK0	0.000	
22	   O	-3.314	0.204	-1.717	O.2	1	UNK0	0.000	
23	   C	-1.705	-1.204	-3.857	C.3	1	UNK0	0.000	
24	   H	-0.487	-5.601	1.137	 H	1	UNK0	0.000	
25	   H	0.315	-3.994	-0.493	 H	1	UNK0	0.000	
26	   H	0.206	-0.964	2.559	 H	1	UNK0	0.000	
27	   H	-0.598	-2.623	4.133	 H	1	UNK0	0.000	
28	   H	1.955	-1.461	-0.132	 H	1	UNK0	0.000	
29	   H	0.411	-1.685	-1.097	 H	1	UNK0	0.000	
30	   H	-1.518	-0.446	0.535	 H	1	UNK0	0.000	
31	   H	-1.588	2.137	-0.764	 H	1	UNK0	0.000	
32	   H	0.273	2.276	-2.113	 H	1	UNK0	0.000	
33	   H	2.149	0.807	-0.918	 H	1	UNK0	0.000	
34	   H	-0.036	3.224	1.981	 H	1	UNK0	0.000	
35	   H	-1.622	1.344	2.157	 H	1	UNK0	0.000	
36	   H	-2.262	-2.051	-3.373	 H	1	UNK0	0.000	
37	   H	-0.811	-1.694	-4.325	 H	1	UNK0	0.000	
38	   H	-2.372	-0.732	-4.578	 H	1	UNK0	0.000	
@<TRIPOS>BOND
1 1 2 1
2 2 3 2
3 2 7 1
4 3 4 1
5 4 5 2
6 5 6 1
7 5 8 1
8 6 7 2
9 8 9 1
10 9 10 1
11 9 13 1
12 10 11 1
13 10 17 1
14 11 12 1
15 11 21 1
16 12 13 1
17 12 18 1
18 13 14 1
19 14 15 2
20 14 16 1
21 16 17 2
22 18 19 2
23 18 20 1
24 20 21 1
25 20 23 1
26 21 22 2
27 3 24 1
28 4 25 1
29 6 26 1
30 7 27 1
31 8 28 1
32 8 29 1
33 10 30 1
34 11 31 1
35 12 32 1
36 13 33 1
37 16 34 1
38 17 35 1
39 23 36 1
40 23 37 1
41 23 38 1
@<TRIPOS>SUBSTRUCTURE
1	UNK0	1	GROUP	1 ****	UNK
