# created with PyMOL 2.3.2
@<TRIPOS>MOLECULE
291
52 55 1                 
SMALL
USER_CHARGES
@<TRIPOS>ATOM
1	  Br	1.574	5.019	0.611	Br	1	UNK0	0.000	
2	   C	0.272	3.857	-0.150	C.2	1	UNK0	0.000	
3	   C	0.448	3.489	-1.466	C.2	1	UNK0	0.000	
4	   C	-0.456	2.657	-2.001	C.2	1	UNK0	0.000	
5	   C	-1.587	2.121	-1.278	C.2	1	UNK0	0.000	
6	   C	-1.733	2.488	-0.032	C.2	1	UNK0	0.000	
7	   C	-0.807	3.371	0.572	C.2	1	UNK0	0.000	
8	   C	-2.240	1.160	-2.190	C.2	1	UNK0	0.000	
9	   C	-1.944	-0.138	-2.044	C.2	1	UNK0	0.000	
10	   O	-1.099	-0.553	-1.013	O.3	1	UNK0	0.000	
11	   C	-0.923	-1.935	-1.127	C.2	1	UNK0	0.000	
12	   C	-1.599	-2.471	-2.171	C.2	1	UNK0	0.000	
13	   C	-1.454	-3.799	-2.450	C.2	1	UNK0	0.000	
14	   C	-0.612	-4.548	-1.625	C.2	1	UNK0	0.000	
15	   C	0.050	-4.003	-0.548	C.2	1	UNK0	0.000	
16	   C	-0.081	-2.675	-0.239	C.2	1	UNK0	0.000	
17	   C	0.062	-2.031	1.037	C.3	1	UNK0	0.000	
18	   N	1.220	-1.578	1.662	N.4	1	UNK0	0.000	
19	   C	0.698	-0.532	2.582	C.3	1	UNK0	0.000	
20	   C	1.465	0.674	2.800	C.3	1	UNK0	0.000	
21	   N	2.841	0.704	2.454	N.3	1	UNK0	0.000	
22	   C	3.149	-0.104	1.305	C.3	1	UNK0	0.000	
23	   C	2.069	-0.880	0.706	C.3	1	UNK0	0.000	
24	   C	3.703	0.290	3.563	C.3	1	UNK0	0.000	
25	   C	3.621	1.264	4.690	C.3	1	UNK0	0.000	
26	   O	3.971	2.573	4.342	O.3	1	UNK0	0.000	
27	   O	0.879	-4.784	0.255	O.2	1	UNK0	0.000	
28	   C	-2.301	-1.327	-2.802	C.2	1	UNK0	0.000	
29	   O	-3.059	-1.329	-3.790	O.2	1	UNK0	0.000	
30	   H	1.319	3.867	-2.036	 H	1	UNK0	0.000	
31	   H	-0.325	2.345	-3.016	 H	1	UNK0	0.000	
32	   H	-2.559	2.145	0.576	 H	1	UNK0	0.000	
33	   H	-0.951	3.662	1.609	 H	1	UNK0	0.000	
34	   H	-2.905	1.438	-2.935	 H	1	UNK0	0.000	
35	   H	-1.944	-4.242	-3.270	 H	1	UNK0	0.000	
36	   H	-0.482	-5.604	-1.869	 H	1	UNK0	0.000	
37	   H	-0.880	-1.429	1.358	 H	1	UNK0	0.000	
38	   H	-0.240	-2.952	1.802	 H	1	UNK0	0.000	
39	   H	1.784	-2.203	2.228	 H	1	UNK0	0.000	
40	   H	-0.279	-0.178	2.031	 H	1	UNK0	0.000	
41	   H	0.273	-1.085	3.414	 H	1	UNK0	0.000	
42	   H	1.350	0.938	3.907	 H	1	UNK0	0.000	
43	   H	1.011	1.605	2.322	 H	1	UNK0	0.000	
44	   H	3.526	0.640	0.526	 H	1	UNK0	0.000	
45	   H	4.054	-0.678	1.556	 H	1	UNK0	0.000	
46	   H	2.501	-1.676	0.018	 H	1	UNK0	0.000	
47	   H	1.435	-0.263	0.020	 H	1	UNK0	0.000	
48	   H	4.731	0.353	3.159	 H	1	UNK0	0.000	
49	   H	3.489	-0.716	3.882	 H	1	UNK0	0.000	
50	   H	4.437	0.953	5.424	 H	1	UNK0	0.000	
51	   H	2.698	1.205	5.293	 H	1	UNK0	0.000	
52	   H	3.256	2.975	3.750	 H	1	UNK0	0.000	
@<TRIPOS>BOND
1 1 2 1
2 2 3 2
3 2 7 1
4 3 4 1
5 4 5 2
6 5 6 1
7 5 8 1
8 6 7 2
9 8 9 2
10 9 10 1
11 9 28 1
12 10 11 1
13 11 12 2
14 11 16 1
15 12 13 1
16 12 28 1
17 13 14 2
18 14 15 1
19 15 16 2
20 15 27 1
21 16 17 1
22 17 18 1
23 18 19 1
24 18 23 1
25 19 20 1
26 20 21 1
27 21 22 1
28 21 24 1
29 22 23 1
30 24 25 1
31 25 26 1
32 28 29 2
33 3 30 1
34 4 31 1
35 6 32 1
36 7 33 1
37 8 34 1
38 13 35 1
39 14 36 1
40 17 37 1
41 17 38 1
42 18 39 1
43 19 40 1
44 19 41 1
45 20 42 1
46 20 43 1
47 22 44 1
48 22 45 1
49 23 46 1
50 23 47 1
51 24 48 1
52 24 49 1
53 25 50 1
54 25 51 1
55 26 52 1
@<TRIPOS>SUBSTRUCTURE
1	UNK0	1	GROUP	1 ****	UNK
