# created with PyMOL 2.3.2
@<TRIPOS>MOLECULE
292
48 51 1                 
SMALL
USER_CHARGES
@<TRIPOS>ATOM
1	  Br	-6.053	-2.387	-0.626	Br	1	UNK0	0.000	
2	   C	-4.281	-2.920	-1.095	C.2	1	UNK0	0.000	
3	   C	-3.393	-2.008	-1.660	C.2	1	UNK0	0.000	
4	   C	-2.121	-2.382	-2.001	C.2	1	UNK0	0.000	
5	   C	-1.674	-3.677	-1.796	C.2	1	UNK0	0.000	
6	   C	-2.520	-4.588	-1.247	C.2	1	UNK0	0.000	
7	   C	-3.800	-4.194	-0.908	C.2	1	UNK0	0.000	
8	   C	-0.288	-3.986	-2.191	C.2	1	UNK0	0.000	
9	   C	0.697	-3.144	-2.005	C.2	1	UNK0	0.000	
10	   O	0.577	-1.903	-1.436	O.3	1	UNK0	0.000	
11	   C	1.824	-1.239	-1.377	C.2	1	UNK0	0.000	
12	   C	2.786	-2.049	-1.915	C.2	1	UNK0	0.000	
13	   C	4.088	-1.598	-1.960	C.2	1	UNK0	0.000	
14	   C	4.434	-0.356	-1.477	C.2	1	UNK0	0.000	
15	   C	3.450	0.477	-0.925	C.2	1	UNK0	0.000	
16	   C	2.171	0.032	-0.881	C.2	1	UNK0	0.000	
17	   C	1.062	0.794	-0.336	C.3	1	UNK0	0.000	
18	   N	1.228	2.073	0.201	N.4	1	UNK0	0.000	
19	   C	1.586	2.128	1.597	C.3	1	UNK0	0.000	
20	   C	0.516	1.658	2.534	C.3	1	UNK0	0.000	
21	   N	-0.786	2.177	2.323	N.3	1	UNK0	0.000	
22	   C	-1.106	2.226	0.937	C.3	1	UNK0	0.000	
23	   C	-0.034	2.837	0.090	C.3	1	UNK0	0.000	
24	   C	-1.096	3.417	2.953	C.3	1	UNK0	0.000	
25	   O	3.866	1.740	-0.445	O.2	1	UNK0	0.000	
26	   C	2.131	-3.282	-2.335	C.2	1	UNK0	0.000	
27	   O	2.660	-4.286	-2.876	O.2	1	UNK0	0.000	
28	   H	-3.732	-0.982	-1.829	 H	1	UNK0	0.000	
29	   H	-1.495	-1.600	-2.441	 H	1	UNK0	0.000	
30	   H	-2.160	-5.597	-1.092	 H	1	UNK0	0.000	
31	   H	-4.471	-4.911	-0.471	 H	1	UNK0	0.000	
32	   H	-0.088	-4.933	-2.644	 H	1	UNK0	0.000	
33	   H	4.889	-2.207	-2.380	 H	1	UNK0	0.000	
34	   H	5.436	0.028	-1.497	 H	1	UNK0	0.000	
35	   H	0.495	0.186	0.457	 H	1	UNK0	0.000	
36	   H	0.269	0.810	-1.167	 H	1	UNK0	0.000	
37	   H	1.898	2.649	-0.337	 H	1	UNK0	0.000	
38	   H	2.503	1.584	1.865	 H	1	UNK0	0.000	
39	   H	1.806	3.202	1.822	 H	1	UNK0	0.000	
40	   H	0.449	0.540	2.460	 H	1	UNK0	0.000	
41	   H	0.907	1.865	3.569	 H	1	UNK0	0.000	
42	   H	-1.379	1.210	0.590	 H	1	UNK0	0.000	
43	   H	-2.012	2.883	0.814	 H	1	UNK0	0.000	
44	   H	-0.381	2.818	-0.968	 H	1	UNK0	0.000	
45	   H	0.205	3.842	0.435	 H	1	UNK0	0.000	
46	   H	-1.232	4.278	2.293	 H	1	UNK0	0.000	
47	   H	-0.373	3.710	3.740	 H	1	UNK0	0.000	
48	   H	-2.069	3.292	3.510	 H	1	UNK0	0.000	
@<TRIPOS>BOND
1 1 2 1
2 2 3 2
3 2 7 1
4 3 4 1
5 4 5 2
6 5 6 1
7 5 8 1
8 6 7 2
9 8 9 2
10 9 10 1
11 9 26 1
12 10 11 1
13 11 12 2
14 11 16 1
15 12 13 1
16 12 26 1
17 13 14 2
18 14 15 1
19 15 16 2
20 15 25 1
21 16 17 1
22 17 18 1
23 18 19 1
24 18 23 1
25 19 20 1
26 20 21 1
27 21 22 1
28 21 24 1
29 22 23 1
30 26 27 2
31 3 28 1
32 4 29 1
33 6 30 1
34 7 31 1
35 8 32 1
36 13 33 1
37 14 34 1
38 17 35 1
39 17 36 1
40 18 37 1
41 19 38 1
42 19 39 1
43 20 40 1
44 20 41 1
45 22 42 1
46 22 43 1
47 23 44 1
48 23 45 1
49 24 46 1
50 24 47 1
51 24 48 1
@<TRIPOS>SUBSTRUCTURE
1	UNK0	1	GROUP	1 ****	UNK
