# created with PyMOL 2.3.2
@<TRIPOS>MOLECULE
295
48 51 1                 
SMALL
USER_CHARGES
@<TRIPOS>ATOM
1	  Br	-2.661	-2.138	-9.163	Br	1	UNK0	0.000	
2	   C	-2.193	-1.755	-7.367	C.2	1	UNK0	0.000	
3	   C	-2.701	-0.645	-6.690	C.2	1	UNK0	0.000	
4	   C	-2.353	-0.377	-5.388	C.2	1	UNK0	0.000	
5	   C	-1.487	-1.200	-4.702	C.2	1	UNK0	0.000	
6	   C	-0.991	-2.293	-5.378	C.2	1	UNK0	0.000	
7	   C	-1.327	-2.577	-6.681	C.2	1	UNK0	0.000	
8	   C	-1.136	-0.891	-3.330	C.2	1	UNK0	0.000	
9	   N	-1.611	0.135	-2.723	N.2	1	UNK0	0.000	
10	   N	-1.236	0.399	-1.371	N.pl3	1	UNK0	0.000	
11	   C	-2.187	0.777	-0.428	C.2	1	UNK0	0.000	
12	   O	-3.393	0.864	-0.887	O.2	1	UNK0	0.000	
13	   C	-2.028	1.086	0.977	C.2	1	UNK0	0.000	
14	   N	-3.048	1.586	1.748	N.2	1	UNK0	0.000	
15	   N	-2.621	1.759	2.949	N.2	1	UNK0	0.000	
16	   N	-1.334	1.400	3.056	N.pl3	1	UNK0	0.000	
17	   C	-0.951	0.979	1.848	C.2	1	UNK0	0.000	
18	   C	0.381	0.504	1.444	C.3	1	UNK0	0.000	
19	   N	1.372	0.382	2.488	N.3	1	UNK0	0.000	
20	   C	2.658	0.210	1.726	C.3	1	UNK0	0.000	
21	   C	2.499	-0.891	0.737	C.3	1	UNK0	0.000	
22	   O	2.004	-2.066	1.198	O.3	1	UNK0	0.000	
23	   C	1.077	-2.062	2.184	C.3	1	UNK0	0.000	
24	   C	1.301	-0.930	3.143	C.3	1	UNK0	0.000	
25	   C	-0.585	1.526	4.286	C.2	1	UNK0	0.000	
26	   N	-0.829	0.821	5.399	N.2	1	UNK0	0.000	
27	   O	0.028	1.201	6.316	O.3	1	UNK0	0.000	
28	   N	0.825	2.118	5.873	N.2	1	UNK0	0.000	
29	   C	0.466	2.349	4.591	C.2	1	UNK0	0.000	
30	   N	1.045	3.285	3.680	N.pl3	1	UNK0	0.000	
31	   H	-3.374	-0.014	-7.240	 H	1	UNK0	0.000	
32	   H	-2.750	0.483	-4.874	 H	1	UNK0	0.000	
33	   H	-0.310	-2.947	-4.849	 H	1	UNK0	0.000	
34	   H	-0.936	-3.436	-7.206	 H	1	UNK0	0.000	
35	   H	-0.460	-1.535	-2.800	 H	1	UNK0	0.000	
36	   H	-0.238	0.304	-1.145	 H	1	UNK0	0.000	
37	   H	0.826	1.202	0.707	 H	1	UNK0	0.000	
38	   H	0.227	-0.463	0.920	 H	1	UNK0	0.000	
39	   H	3.483	0.060	2.435	 H	1	UNK0	0.000	
40	   H	2.801	1.165	1.193	 H	1	UNK0	0.000	
41	   H	1.943	-0.499	-0.143	 H	1	UNK0	0.000	
42	   H	3.549	-1.118	0.368	 H	1	UNK0	0.000	
43	   H	0.020	-2.203	1.883	 H	1	UNK0	0.000	
44	   H	1.281	-2.999	2.804	 H	1	UNK0	0.000	
45	   H	2.354	-1.088	3.544	 H	1	UNK0	0.000	
46	   H	0.680	-0.971	4.027	 H	1	UNK0	0.000	
47	   H	1.972	3.034	3.268	 H	1	UNK0	0.000	
48	   H	0.602	4.176	3.416	 H	1	UNK0	0.000	
@<TRIPOS>BOND
1 1 2 1
2 2 3 2
3 2 7 1
4 3 4 1
5 4 5 2
6 5 6 1
7 5 8 1
8 6 7 2
9 8 9 2
10 9 10 1
11 10 11 1
12 11 12 2
13 11 13 1
14 13 14 1
15 13 17 2
16 14 15 2
17 15 16 1
18 16 17 1
19 16 25 1
20 17 18 1
21 18 19 1
22 19 20 1
23 19 24 1
24 20 21 1
25 21 22 1
26 22 23 1
27 23 24 1
28 25 26 2
29 25 29 1
30 26 27 1
31 27 28 1
32 28 29 2
33 29 30 1
34 3 31 1
35 4 32 1
36 6 33 1
37 7 34 1
38 8 35 1
39 10 36 1
40 18 37 1
41 18 38 1
42 20 39 1
43 20 40 1
44 21 41 1
45 21 42 1
46 23 43 1
47 23 44 1
48 24 45 1
49 24 46 1
50 30 47 1
51 30 48 1
@<TRIPOS>SUBSTRUCTURE
1	UNK0	1	GROUP	1 ****	UNK
