# created with PyMOL 2.3.2
@<TRIPOS>MOLECULE
296
47 50 1                 
SMALL
USER_CHARGES
@<TRIPOS>ATOM
1	  Br	-4.576	6.775	0.343	Br	1	UNK0	0.000	
2	   C	-3.970	4.980	0.219	C.2	1	UNK0	0.000	
3	   C	-3.132	4.591	-0.828	C.2	1	UNK0	0.000	
4	   C	-2.684	3.290	-0.934	C.2	1	UNK0	0.000	
5	   C	-3.052	2.322	-0.000	C.2	1	UNK0	0.000	
6	   C	-3.870	2.687	1.030	C.2	1	UNK0	0.000	
7	   C	-4.316	4.005	1.126	C.2	1	UNK0	0.000	
8	   C	-2.533	0.967	-0.192	C.2	1	UNK0	0.000	
9	   N	-1.774	0.634	-1.149	N.2	1	UNK0	0.000	
10	   N	-1.239	-0.619	-1.408	N.pl3	1	UNK0	0.000	
11	   C	0.097	-0.684	-1.898	C.2	1	UNK0	0.000	
12	   N	1.109	-1.256	-1.212	N.pl3	1	UNK0	0.000	
13	   C	2.198	-1.107	-1.995	C.2	1	UNK0	0.000	
14	   N	3.458	-1.490	-1.802	N.2	1	UNK0	0.000	
15	   C	4.371	-1.225	-2.746	C.2	1	UNK0	0.000	
16	   N	4.066	-0.577	-3.899	N.2	1	UNK0	0.000	
17	   C	2.803	-0.164	-4.148	C.2	1	UNK0	0.000	
18	   C	1.862	-0.438	-3.176	C.2	1	UNK0	0.000	
19	   N	0.550	-0.197	-3.069	N.2	1	UNK0	0.000	
20	   N	2.401	0.521	-5.321	N.pl3	1	UNK0	0.000	
21	   C	1.017	-1.882	0.058	C.3	1	UNK0	0.000	
22	   O	1.224	-1.015	1.153	O.3	1	UNK0	0.000	
23	   C	1.012	-1.946	2.192	C.3	1	UNK0	0.000	
24	   C	2.075	-2.967	1.851	C.3	1	UNK0	0.000	
25	   C	1.908	-3.034	0.326	C.3	1	UNK0	0.000	
26	   O	1.291	-4.260	0.048	O.3	1	UNK0	0.000	
27	   O	1.832	-4.207	2.429	O.3	1	UNK0	0.000	
28	   C	1.229	-1.353	3.560	C.3	1	UNK0	0.000	
29	   O	2.503	-0.868	3.743	O.3	1	UNK0	0.000	
30	   H	-2.838	5.324	-1.556	 H	1	UNK0	0.000	
31	   H	-2.025	2.980	-1.758	 H	1	UNK0	0.000	
32	   H	-4.159	1.955	1.750	 H	1	UNK0	0.000	
33	   H	-4.971	4.313	1.938	 H	1	UNK0	0.000	
34	   H	-2.811	0.203	0.520	 H	1	UNK0	0.000	
35	   H	-1.730	-1.519	-1.276	 H	1	UNK0	0.000	
36	   H	5.411	-1.517	-2.637	 H	1	UNK0	0.000	
37	   H	2.116	1.540	-5.309	 H	1	UNK0	0.000	
38	   H	2.373	0.038	-6.246	 H	1	UNK0	0.000	
39	   H	-0.040	-2.257	0.223	 H	1	UNK0	0.000	
40	   H	0.012	-2.379	2.071	 H	1	UNK0	0.000	
41	   H	3.068	-2.554	2.060	 H	1	UNK0	0.000	
42	   H	2.876	-3.057	-0.159	 H	1	UNK0	0.000	
43	   H	1.021	-4.215	-0.907	 H	1	UNK0	0.000	
44	   H	2.458	-4.854	2.010	 H	1	UNK0	0.000	
45	   H	1.094	-2.196	4.278	 H	1	UNK0	0.000	
46	   H	0.477	-0.602	3.826	 H	1	UNK0	0.000	
47	   H	2.956	-0.528	2.947	 H	1	UNK0	0.000	
@<TRIPOS>BOND
1 1 2 1
2 2 3 2
3 2 7 1
4 3 4 1
5 4 5 2
6 5 6 1
7 5 8 1
8 6 7 2
9 8 9 2
10 9 10 1
11 10 11 1
12 11 12 1
13 11 19 2
14 12 13 1
15 12 21 1
16 13 14 2
17 13 18 1
18 14 15 1
19 15 16 2
20 16 17 1
21 17 18 2
22 17 20 1
23 18 19 1
24 21 22 1
25 21 25 1
26 22 23 1
27 23 24 1
28 23 28 1
29 24 25 1
30 24 27 1
31 25 26 1
32 28 29 1
33 3 30 1
34 4 31 1
35 6 32 1
36 7 33 1
37 8 34 1
38 10 35 1
39 15 36 1
40 20 37 1
41 20 38 1
42 21 39 1
43 23 40 1
44 24 41 1
45 25 42 1
46 26 43 1
47 27 44 1
48 28 45 1
49 28 46 1
50 29 47 1
@<TRIPOS>SUBSTRUCTURE
1	UNK0	1	GROUP	1 ****	UNK
