# created with PyMOL 2.3.2
@<TRIPOS>MOLECULE
301
52 56 1                 
SMALL
USER_CHARGES
@<TRIPOS>ATOM
1	  Br	4.438	5.875	1.319	Br	1	UNK0	0.000	
2	   C	3.370	4.318	1.297	C.2	1	UNK0	0.000	
3	   C	2.751	3.861	2.440	C.2	1	UNK0	0.000	
4	   C	1.961	2.705	2.414	C.2	1	UNK0	0.000	
5	   C	1.791	2.005	1.240	C.2	1	UNK0	0.000	
6	   C	2.423	2.488	0.116	C.2	1	UNK0	0.000	
7	   C	3.205	3.624	0.121	C.2	1	UNK0	0.000	
8	   C	0.965	0.797	1.214	C.2	1	UNK0	0.000	
9	   N	0.710	0.016	0.150	N.pl3	1	UNK0	0.000	
10	   C	-0.097	-1.023	0.490	C.cat	1	UNK0	0.000	
11	   N	-0.347	-0.879	1.805	N.pl3	1	UNK0	0.000	
12	   C	0.285	0.215	2.264	C.2	1	UNK0	0.000	
13	   C	-1.148	-1.895	2.189	C.2	1	UNK0	0.000	
14	   C	-1.379	-2.665	1.069	C.2	1	UNK0	0.000	
15	   C	-2.180	-3.777	1.204	C.2	1	UNK0	0.000	
16	   C	-2.750	-4.137	2.416	C.2	1	UNK0	0.000	
17	   C	-2.510	-3.358	3.530	C.2	1	UNK0	0.000	
18	   C	-1.699	-2.224	3.412	C.2	1	UNK0	0.000	
19	   N	-0.721	-2.118	0.004	N.pl3	1	UNK0	0.000	
20	   C	-0.722	-2.630	-1.332	C.3	1	UNK0	0.000	
21	   C	-1.830	-2.118	-2.205	C.3	1	UNK0	0.000	
22	   N	-1.752	-0.690	-2.323	N.4	1	UNK0	0.000	
23	   C	-0.709	-0.226	-3.191	C.3	1	UNK0	0.000	
24	   C	-0.630	1.280	-3.078	C.3	1	UNK0	0.000	
25	   C	-1.600	1.843	-2.088	C.3	1	UNK0	0.000	
26	   C	-3.009	1.328	-2.298	C.3	1	UNK0	0.000	
27	   C	-2.998	-0.106	-2.796	C.3	1	UNK0	0.000	
28	   H	2.896	4.421	3.346	 H	1	UNK0	0.000	
29	   H	1.502	2.395	3.341	 H	1	UNK0	0.000	
30	   H	2.297	1.948	-0.810	 H	1	UNK0	0.000	
31	   H	3.700	4.001	-0.764	 H	1	UNK0	0.000	
32	   H	1.102	0.216	-0.805	 H	1	UNK0	0.000	
33	   H	0.286	0.608	3.279	 H	1	UNK0	0.000	
34	   H	-2.351	-4.367	0.320	 H	1	UNK0	0.000	
35	   H	-3.381	-5.013	2.525	 H	1	UNK0	0.000	
36	   H	-2.953	-3.632	4.488	 H	1	UNK0	0.000	
37	   H	-1.502	-1.602	4.280	 H	1	UNK0	0.000	
38	   H	-0.737	-3.743	-1.308	 H	1	UNK0	0.000	
39	   H	0.245	-2.349	-1.824	 H	1	UNK0	0.000	
40	   H	-1.854	-2.642	-3.167	 H	1	UNK0	0.000	
41	   H	-2.829	-2.334	-1.722	 H	1	UNK0	0.000	
42	   H	-1.599	-0.297	-1.376	 H	1	UNK0	0.000	
43	   H	-1.033	-0.444	-4.251	 H	1	UNK0	0.000	
44	   H	0.275	-0.708	-3.025	 H	1	UNK0	0.000	
45	   H	-0.756	1.784	-4.070	 H	1	UNK0	0.000	
46	   H	0.403	1.523	-2.689	 H	1	UNK0	0.000	
47	   H	-1.260	1.735	-1.037	 H	1	UNK0	0.000	
48	   H	-1.638	2.954	-2.268	 H	1	UNK0	0.000	
49	   H	-3.540	1.989	-3.000	 H	1	UNK0	0.000	
50	   H	-3.500	1.314	-1.303	 H	1	UNK0	0.000	
51	   H	-2.961	-0.129	-3.909	 H	1	UNK0	0.000	
52	   H	-3.875	-0.680	-2.470	 H	1	UNK0	0.000	
@<TRIPOS>BOND
1 1 2 1
2 2 3 2
3 2 7 1
4 3 4 1
5 4 5 2
6 5 6 1
7 5 8 1
8 6 7 2
9 8 9 1
10 8 12 2
11 9 10 2
12 10 11 1
13 10 19 1
14 11 12 1
15 11 13 1
16 13 14 2
17 13 18 1
18 14 15 1
19 14 19 1
20 15 16 2
21 16 17 1
22 17 18 2
23 19 20 1
24 20 21 1
25 21 22 1
26 22 23 1
27 22 27 1
28 23 24 1
29 24 25 1
30 25 26 1
31 26 27 1
32 3 28 1
33 4 29 1
34 6 30 1
35 7 31 1
36 9 32 1
37 12 33 1
38 15 34 1
39 16 35 1
40 17 36 1
41 18 37 1
42 20 38 1
43 20 39 1
44 21 40 1
45 21 41 1
46 22 42 1
47 23 43 1
48 23 44 1
49 24 45 1
50 24 46 1
51 25 47 1
52 25 48 1
53 26 49 1
54 26 50 1
55 27 51 1
56 27 52 1
@<TRIPOS>SUBSTRUCTURE
1	UNK0	1	GROUP	1 ****	UNK
