# created with PyMOL 2.3.2
@<TRIPOS>MOLECULE
303
37 40 1                 
SMALL
USER_CHARGES
@<TRIPOS>ATOM
1	  Br	-3.199	5.886	2.887	Br	1	UNK0	0.000	
2	   C	-2.329	4.207	2.685	C.2	1	UNK0	0.000	
3	   C	-1.222	3.860	3.437	C.2	1	UNK0	0.000	
4	   C	-0.619	2.635	3.261	C.2	1	UNK0	0.000	
5	   C	-1.085	1.686	2.326	C.2	1	UNK0	0.000	
6	   C	-2.181	2.113	1.632	C.2	1	UNK0	0.000	
7	   C	-2.813	3.320	1.771	C.2	1	UNK0	0.000	
8	   C	-0.478	0.375	2.342	C.2	1	UNK0	0.000	
9	   N	-0.020	-0.470	1.442	N.pl3	1	UNK0	0.000	
10	   C	0.451	-1.602	2.044	C.2	1	UNK0	0.000	
11	   N	0.266	-1.408	3.369	N.2	1	UNK0	0.000	
12	   N	-0.273	-0.260	3.572	N.2	1	UNK0	0.000	
13	   N	0.929	-2.484	1.169	N.pl3	1	UNK0	0.000	
14	   C	0.774	-1.906	-0.028	C.2	1	UNK0	0.000	
15	   C	0.189	-0.646	0.115	C.2	1	UNK0	0.000	
16	   N	-0.028	0.133	-0.932	N.pl3	1	UNK0	0.000	
17	   C	0.334	-0.353	-2.159	C.2	1	UNK0	0.000	
18	   O	0.159	0.324	-3.212	O.2	1	UNK0	0.000	
19	   N	0.892	-1.562	-2.332	N.pl3	1	UNK0	0.000	
20	   C	1.130	-2.372	-1.288	C.2	1	UNK0	0.000	
21	   O	1.654	-3.511	-1.417	O.2	1	UNK0	0.000	
22	   C	1.268	-2.066	-3.634	C.3	1	UNK0	0.000	
23	   C	-0.499	1.475	-0.949	C.3	1	UNK0	0.000	
24	   C	1.501	-3.793	1.420	C.3	1	UNK0	0.000	
25	   H	-0.874	4.595	4.149	 H	1	UNK0	0.000	
26	   H	0.238	2.362	3.840	 H	1	UNK0	0.000	
27	   H	-2.620	1.426	0.929	 H	1	UNK0	0.000	
28	   H	-3.690	3.596	1.177	 H	1	UNK0	0.000	
29	   H	0.430	-2.739	-3.967	 H	1	UNK0	0.000	
30	   H	2.207	-2.627	-3.529	 H	1	UNK0	0.000	
31	   H	1.326	-1.260	-4.401	 H	1	UNK0	0.000	
32	   H	-0.064	2.116	-0.173	 H	1	UNK0	0.000	
33	   H	-0.107	2.000	-1.905	 H	1	UNK0	0.000	
34	   H	-1.576	1.512	-1.081	 H	1	UNK0	0.000	
35	   H	0.810	-4.609	1.099	 H	1	UNK0	0.000	
36	   H	1.714	-3.935	2.498	 H	1	UNK0	0.000	
37	   H	2.460	-3.889	0.865	 H	1	UNK0	0.000	
@<TRIPOS>BOND
1 1 2 1
2 2 3 2
3 2 7 1
4 3 4 1
5 4 5 2
6 5 6 1
7 5 8 1
8 6 7 2
9 8 9 1
10 8 12 2
11 9 10 1
12 9 15 1
13 10 11 2
14 10 13 1
15 11 12 1
16 13 14 1
17 13 24 1
18 14 15 2
19 14 20 1
20 15 16 1
21 16 17 1
22 16 23 1
23 17 18 2
24 17 19 1
25 19 20 1
26 19 22 1
27 20 21 2
28 3 25 1
29 4 26 1
30 6 27 1
31 7 28 1
32 22 29 1
33 22 30 1
34 22 31 1
35 23 32 1
36 23 33 1
37 23 34 1
38 24 35 1
39 24 36 1
40 24 37 1
@<TRIPOS>SUBSTRUCTURE
1	UNK0	1	GROUP	1 ****	UNK
