# created with PyMOL 2.3.2
@<TRIPOS>MOLECULE
304
44 47 1                 
SMALL
USER_CHARGES
@<TRIPOS>ATOM
1	  Br	-0.491	1.688	-7.113	Br	1	UNK0	0.000	
2	   C	-0.715	1.139	-5.302	C.2	1	UNK0	0.000	
3	   C	-0.934	-0.194	-4.948	C.2	1	UNK0	0.000	
4	   C	-1.089	-0.549	-3.646	C.2	1	UNK0	0.000	
5	   C	-1.038	0.364	-2.637	C.2	1	UNK0	0.000	
6	   C	-0.815	1.712	-3.012	C.2	1	UNK0	0.000	
7	   C	-0.655	2.101	-4.317	C.2	1	UNK0	0.000	
8	   C	-1.120	0.141	-1.222	C.2	1	UNK0	0.000	
9	   N	-0.601	-0.644	-0.309	N.pl3	1	UNK0	0.000	
10	   C	-1.138	-0.333	0.902	C.2	1	UNK0	0.000	
11	   N	-2.015	0.687	0.733	N.2	1	UNK0	0.000	
12	   N	-2.000	0.965	-0.522	N.2	1	UNK0	0.000	
13	   N	-0.643	-1.103	1.878	N.pl3	1	UNK0	0.000	
14	   C	0.233	-1.910	1.254	C.2	1	UNK0	0.000	
15	   C	0.278	-1.638	-0.112	C.2	1	UNK0	0.000	
16	   N	1.105	-2.296	-0.932	N.pl3	1	UNK0	0.000	
17	   C	1.889	-3.254	-0.348	C.2	1	UNK0	0.000	
18	   O	2.683	-3.902	-1.090	O.2	1	UNK0	0.000	
19	   N	1.859	-3.539	0.959	N.pl3	1	UNK0	0.000	
20	   C	1.038	-2.878	1.779	C.2	1	UNK0	0.000	
21	   O	0.979	-3.113	3.018	O.2	1	UNK0	0.000	
22	   C	1.315	-2.030	-2.332	C.3	1	UNK0	0.000	
23	   C	-0.989	-1.058	3.285	C.3	1	UNK0	0.000	
24	   C	-0.077	-0.087	4.034	C.3	1	UNK0	0.000	
25	   O	-0.214	1.197	3.496	O.3	1	UNK0	0.000	
26	   C	0.589	2.117	4.137	C.3	1	UNK0	0.000	
27	   C	0.272	2.234	5.621	C.3	1	UNK0	0.000	
28	   H	-0.975	-0.931	-5.769	 H	1	UNK0	0.000	
29	   H	-1.286	-1.573	-3.396	 H	1	UNK0	0.000	
30	   H	-0.763	2.496	-2.255	 H	1	UNK0	0.000	
31	   H	-0.485	3.143	-4.580	 H	1	UNK0	0.000	
32	   H	2.468	-4.279	1.386	 H	1	UNK0	0.000	
33	   H	0.719	-2.636	-3.008	 H	1	UNK0	0.000	
34	   H	2.387	-2.405	-2.556	 H	1	UNK0	0.000	
35	   H	1.429	-0.958	-2.556	 H	1	UNK0	0.000	
36	   H	-0.968	-2.045	3.746	 H	1	UNK0	0.000	
37	   H	-2.012	-0.591	3.346	 H	1	UNK0	0.000	
38	   H	0.976	-0.400	3.845	 H	1	UNK0	0.000	
39	   H	-0.250	-0.137	5.107	 H	1	UNK0	0.000	
40	   H	0.374	3.110	3.697	 H	1	UNK0	0.000	
41	   H	1.648	1.821	3.982	 H	1	UNK0	0.000	
42	   H	0.687	1.390	6.196	 H	1	UNK0	0.000	
43	   H	0.670	3.198	5.997	 H	1	UNK0	0.000	
44	   H	-0.840	2.231	5.705	 H	1	UNK0	0.000	
@<TRIPOS>BOND
1 1 2 1
2 2 3 2
3 2 7 1
4 3 4 1
5 4 5 2
6 5 6 1
7 5 8 1
8 6 7 2
9 8 9 1
10 8 12 2
11 9 10 1
12 9 15 1
13 10 11 2
14 10 13 1
15 11 12 1
16 13 14 1
17 13 23 1
18 14 15 2
19 14 20 1
20 15 16 1
21 16 17 1
22 16 22 1
23 17 18 2
24 17 19 1
25 19 20 1
26 20 21 2
27 23 24 1
28 24 25 1
29 25 26 1
30 26 27 1
31 3 28 1
32 4 29 1
33 6 30 1
34 7 31 1
35 19 32 1
36 22 33 1
37 22 34 1
38 22 35 1
39 23 36 1
40 23 37 1
41 24 38 1
42 24 39 1
43 26 40 1
44 26 41 1
45 27 42 1
46 27 43 1
47 27 44 1
@<TRIPOS>SUBSTRUCTURE
1	UNK0	1	GROUP	1 ****	UNK
