# created with PyMOL 2.3.2
@<TRIPOS>MOLECULE
306
37 40 1                 
SMALL
USER_CHARGES
@<TRIPOS>ATOM
1	  Br	-3.244	0.775	6.258	Br	1	UNK0	0.000	
2	   C	-2.650	0.193	4.529	C.2	1	UNK0	0.000	
3	   C	-2.626	1.106	3.494	C.2	1	UNK0	0.000	
4	   C	-2.198	0.681	2.253	C.2	1	UNK0	0.000	
5	   C	-1.791	-0.569	1.958	C.2	1	UNK0	0.000	
6	   C	-1.828	-1.481	3.039	C.2	1	UNK0	0.000	
7	   C	-2.248	-1.107	4.297	C.2	1	UNK0	0.000	
8	   C	-1.300	-1.040	0.721	C.2	1	UNK0	0.000	
9	   N	-0.418	-0.706	-0.201	N.pl3	1	UNK0	0.000	
10	   C	-0.442	-1.618	-1.186	C.2	1	UNK0	0.000	
11	   N	-1.352	-2.567	-0.894	N.2	1	UNK0	0.000	
12	   N	-1.867	-2.231	0.242	N.2	1	UNK0	0.000	
13	   N	0.440	-1.315	-2.137	N.pl3	1	UNK0	0.000	
14	   C	1.040	-0.190	-1.739	C.2	1	UNK0	0.000	
15	   C	0.516	0.218	-0.505	C.2	1	UNK0	0.000	
16	   N	0.972	1.289	0.111	N.pl3	1	UNK0	0.000	
17	   C	1.972	1.988	-0.517	C.2	1	UNK0	0.000	
18	   O	2.428	3.015	0.038	O.2	1	UNK0	0.000	
19	   N	2.487	1.627	-1.699	N.pl3	1	UNK0	0.000	
20	   C	2.045	0.540	-2.339	C.2	1	UNK0	0.000	
21	   O	2.488	0.154	-3.441	O.2	1	UNK0	0.000	
22	   C	0.595	1.735	1.416	C.3	1	UNK0	0.000	
23	   C	0.709	-2.050	-3.372	C.3	1	UNK0	0.000	
24	   C	-0.155	-1.567	-4.516	C.3	1	UNK0	0.000	
25	   H	-2.944	2.117	3.695	 H	1	UNK0	0.000	
26	   H	-2.224	1.414	1.458	 H	1	UNK0	0.000	
27	   H	-1.515	-2.501	2.868	 H	1	UNK0	0.000	
28	   H	-2.283	-1.786	5.135	 H	1	UNK0	0.000	
29	   H	3.245	2.180	-2.152	 H	1	UNK0	0.000	
30	   H	0.567	0.923	2.168	 H	1	UNK0	0.000	
31	   H	1.502	2.335	1.824	 H	1	UNK0	0.000	
32	   H	-0.185	2.494	1.461	 H	1	UNK0	0.000	
33	   H	1.765	-2.029	-3.621	 H	1	UNK0	0.000	
34	   H	0.349	-3.103	-3.168	 H	1	UNK0	0.000	
35	   H	0.298	-1.799	-5.480	 H	1	UNK0	0.000	
36	   H	-1.189	-1.977	-4.392	 H	1	UNK0	0.000	
37	   H	-0.280	-0.453	-4.372	 H	1	UNK0	0.000	
@<TRIPOS>BOND
1 1 2 1
2 2 3 2
3 2 7 1
4 3 4 1
5 4 5 2
6 5 6 1
7 5 8 1
8 6 7 2
9 8 9 1
10 8 12 2
11 9 10 1
12 9 15 1
13 10 11 2
14 10 13 1
15 11 12 1
16 13 14 1
17 13 23 1
18 14 15 2
19 14 20 1
20 15 16 1
21 16 17 1
22 16 22 1
23 17 18 2
24 17 19 1
25 19 20 1
26 20 21 2
27 23 24 1
28 3 25 1
29 4 26 1
30 6 27 1
31 7 28 1
32 19 29 1
33 22 30 1
34 22 31 1
35 22 32 1
36 23 33 1
37 23 34 1
38 24 35 1
39 24 36 1
40 24 37 1
@<TRIPOS>SUBSTRUCTURE
1	UNK0	1	GROUP	1 ****	UNK
