# created with PyMOL 2.3.2
@<TRIPOS>MOLECULE
310
51 54 1                 
SMALL
USER_CHARGES
@<TRIPOS>ATOM
1	  Br	-3.297	-4.604	6.308	Br	1	UNK0	0.000	
2	   C	-2.881	-3.211	5.029	C.2	1	UNK0	0.000	
3	   C	-1.681	-2.587	5.131	C.2	1	UNK0	0.000	
4	   C	-1.354	-1.610	4.190	C.2	1	UNK0	0.000	
5	   C	-2.230	-1.258	3.156	C.2	1	UNK0	0.000	
6	   C	-3.424	-1.898	3.076	C.2	1	UNK0	0.000	
7	   C	-3.789	-2.901	4.018	C.2	1	UNK0	0.000	
8	   C	-1.710	-0.337	2.134	C.2	1	UNK0	0.000	
9	   C	-1.493	-0.838	0.850	C.2	1	UNK0	0.000	
10	   O	-0.889	-0.146	-0.067	O.3	1	UNK0	0.000	
11	   C	-0.426	1.056	0.089	C.2	1	UNK0	0.000	
12	   C	-0.604	1.631	1.314	C.2	1	UNK0	0.000	
13	   C	-0.099	2.901	1.500	C.2	1	UNK0	0.000	
14	   C	0.558	3.550	0.489	C.2	1	UNK0	0.000	
15	   C	0.734	2.943	-0.761	C.2	1	UNK0	0.000	
16	   C	0.252	1.695	-0.976	C.2	1	UNK0	0.000	
17	   C	0.349	0.899	-2.191	C.3	1	UNK0	0.000	
18	   N	1.769	0.762	-2.618	N.4	1	UNK0	0.000	
19	   C	1.837	-0.711	-2.926	C.3	1	UNK0	0.000	
20	   C	1.904	-1.414	-1.575	C.3	1	UNK0	0.000	
21	   N	3.305	-1.353	-1.150	N.3	1	UNK0	0.000	
22	   C	3.770	-0.051	-1.383	C.3	1	UNK0	0.000	
23	   C	2.686	0.990	-1.507	C.3	1	UNK0	0.000	
24	   C	4.061	-2.470	-1.617	C.3	1	UNK0	0.000	
25	   O	1.407	3.674	-1.743	O.2	1	UNK0	0.000	
26	   C	-1.250	0.922	2.335	C.2	1	UNK0	0.000	
27	   O	-1.427	1.446	3.470	O.2	1	UNK0	0.000	
28	   C	-1.997	-2.230	0.559	C.3	1	UNK0	0.000	
29	   H	-0.932	-2.808	5.920	 H	1	UNK0	0.000	
30	   H	-0.396	-1.119	4.281	 H	1	UNK0	0.000	
31	   H	-4.128	-1.632	2.265	 H	1	UNK0	0.000	
32	   H	-4.714	-3.395	3.929	 H	1	UNK0	0.000	
33	   H	-0.238	3.352	2.481	 H	1	UNK0	0.000	
34	   H	0.943	4.558	0.665	 H	1	UNK0	0.000	
35	   H	-0.153	-0.067	-2.169	 H	1	UNK0	0.000	
36	   H	-0.162	1.479	-3.070	 H	1	UNK0	0.000	
37	   H	1.997	1.262	-3.450	 H	1	UNK0	0.000	
38	   H	0.965	-1.035	-3.510	 H	1	UNK0	0.000	
39	   H	2.746	-0.931	-3.481	 H	1	UNK0	0.000	
40	   H	1.375	-0.896	-0.771	 H	1	UNK0	0.000	
41	   H	1.539	-2.447	-1.752	 H	1	UNK0	0.000	
42	   H	4.340	0.271	-0.445	 H	1	UNK0	0.000	
43	   H	4.456	-0.020	-2.220	 H	1	UNK0	0.000	
44	   H	2.178	1.106	-0.539	 H	1	UNK0	0.000	
45	   H	3.214	1.922	-1.764	 H	1	UNK0	0.000	
46	   H	3.396	-3.300	-1.958	 H	1	UNK0	0.000	
47	   H	4.772	-2.154	-2.433	 H	1	UNK0	0.000	
48	   H	4.700	-2.862	-0.783	 H	1	UNK0	0.000	
49	   H	-3.042	-2.218	0.218	 H	1	UNK0	0.000	
50	   H	-1.790	-2.891	1.393	 H	1	UNK0	0.000	
51	   H	-1.413	-2.593	-0.330	 H	1	UNK0	0.000	
@<TRIPOS>BOND
1 1 2 1
2 2 3 2
3 2 7 1
4 3 4 1
5 4 5 2
6 5 6 1
7 5 8 1
8 6 7 2
9 8 9 2
10 8 26 1
11 9 10 1
12 9 28 1
13 10 11 1
14 11 12 2
15 11 16 1
16 12 13 1
17 12 26 1
18 13 14 2
19 14 15 1
20 15 16 2
21 15 25 1
22 16 17 1
23 17 18 1
24 18 19 1
25 18 23 1
26 19 20 1
27 20 21 1
28 21 22 1
29 21 24 1
30 22 23 1
31 26 27 2
32 3 29 1
33 4 30 1
34 6 31 1
35 7 32 1
36 13 33 1
37 14 34 1
38 17 35 1
39 17 36 1
40 18 37 1
41 19 38 1
42 19 39 1
43 20 40 1
44 20 41 1
45 22 42 1
46 22 43 1
47 23 44 1
48 23 45 1
49 24 46 1
50 24 47 1
51 24 48 1
52 28 49 1
53 28 50 1
54 28 51 1
@<TRIPOS>SUBSTRUCTURE
1	UNK0	1	GROUP	1 ****	UNK
