# created with PyMOL 2.3.2
@<TRIPOS>MOLECULE
311
47 50 1                 
SMALL
USER_CHARGES
@<TRIPOS>ATOM
1	  Br	-4.649	6.429	-1.742	Br	1	UNK0	0.000	
2	   C	-3.760	4.750	-1.487	C.2	1	UNK0	0.000	
3	   C	-3.038	4.164	-2.503	C.2	1	UNK0	0.000	
4	   C	-2.391	2.943	-2.319	C.2	1	UNK0	0.000	
5	   C	-2.451	2.278	-1.108	C.2	1	UNK0	0.000	
6	   C	-3.172	2.865	-0.096	C.2	1	UNK0	0.000	
7	   C	-3.820	4.087	-0.279	C.2	1	UNK0	0.000	
8	   C	-1.759	0.999	-0.945	C.2	1	UNK0	0.000	
9	   C	-0.410	0.962	-0.663	C.2	1	UNK0	0.000	
10	   O	0.264	-0.153	-0.510	O.3	1	UNK0	0.000	
11	   C	-0.319	-1.344	-0.620	C.2	1	UNK0	0.000	
12	   C	-1.662	-1.365	-0.900	C.2	1	UNK0	0.000	
13	   C	-2.242	-2.614	-1.010	C.2	1	UNK0	0.000	
14	   C	-1.550	-3.781	-0.854	C.2	1	UNK0	0.000	
15	   C	-0.180	-3.699	-0.568	C.2	1	UNK0	0.000	
16	   C	0.445	-2.506	-0.449	C.2	1	UNK0	0.000	
17	   C	1.853	-2.325	-0.154	C.3	1	UNK0	0.000	
18	   N	2.686	-3.473	0.026	N.4	1	UNK0	0.000	
19	   C	4.082	-3.112	-0.258	C.3	1	UNK0	0.000	
20	   C	4.787	-2.477	0.871	C.3	1	UNK0	0.000	
21	   O	3.971	-2.414	2.003	O.3	1	UNK0	0.000	
22	   C	3.640	-3.752	2.277	C.3	1	UNK0	0.000	
23	   C	2.554	-4.131	1.292	C.3	1	UNK0	0.000	
24	   O	0.466	-4.949	-0.421	O.2	1	UNK0	0.000	
25	   C	-2.404	-0.210	-1.068	C.2	1	UNK0	0.000	
26	   O	-3.632	-0.270	-1.324	O.2	1	UNK0	0.000	
27	   C	0.273	2.300	-0.533	C.3	1	UNK0	0.000	
28	   H	-2.998	4.698	-3.457	 H	1	UNK0	0.000	
29	   H	-1.834	2.505	-3.124	 H	1	UNK0	0.000	
30	   H	-3.235	2.368	0.860	 H	1	UNK0	0.000	
31	   H	-4.395	4.556	0.525	 H	1	UNK0	0.000	
32	   H	-3.321	-2.610	-1.236	 H	1	UNK0	0.000	
33	   H	-2.013	-4.751	-0.941	 H	1	UNK0	0.000	
34	   H	2.340	-1.591	-0.892	 H	1	UNK0	0.000	
35	   H	1.989	-1.723	0.817	 H	1	UNK0	0.000	
36	   H	2.479	-4.162	-0.717	 H	1	UNK0	0.000	
37	   H	4.045	-2.402	-1.113	 H	1	UNK0	0.000	
38	   H	4.659	-3.987	-0.616	 H	1	UNK0	0.000	
39	   H	5.215	-1.486	0.617	 H	1	UNK0	0.000	
40	   H	5.666	-3.101	1.178	 H	1	UNK0	0.000	
41	   H	3.323	-3.908	3.308	 H	1	UNK0	0.000	
42	   H	4.521	-4.377	2.028	 H	1	UNK0	0.000	
43	   H	1.601	-3.852	1.784	 H	1	UNK0	0.000	
44	   H	2.580	-5.238	1.247	 H	1	UNK0	0.000	
45	   H	0.189	2.648	0.525	 H	1	UNK0	0.000	
46	   H	1.356	2.133	-0.737	 H	1	UNK0	0.000	
47	   H	-0.102	3.025	-1.263	 H	1	UNK0	0.000	
@<TRIPOS>BOND
1 1 2 1
2 2 3 2
3 2 7 1
4 3 4 1
5 4 5 2
6 5 6 1
7 5 8 1
8 6 7 2
9 8 9 2
10 8 25 1
11 9 10 1
12 9 27 1
13 10 11 1
14 11 12 2
15 11 16 1
16 12 13 1
17 12 25 1
18 13 14 2
19 14 15 1
20 15 16 2
21 15 24 1
22 16 17 1
23 17 18 1
24 18 19 1
25 18 23 1
26 19 20 1
27 20 21 1
28 21 22 1
29 22 23 1
30 25 26 2
31 3 28 1
32 4 29 1
33 6 30 1
34 7 31 1
35 13 32 1
36 14 33 1
37 17 34 1
38 17 35 1
39 18 36 1
40 19 37 1
41 19 38 1
42 20 39 1
43 20 40 1
44 22 41 1
45 22 42 1
46 23 43 1
47 23 44 1
48 27 45 1
49 27 46 1
50 27 47 1
@<TRIPOS>SUBSTRUCTURE
1	UNK0	1	GROUP	1 ****	UNK
