# created with PyMOL 2.3.2
@<TRIPOS>MOLECULE
316
57 61 1                 
SMALL
USER_CHARGES
@<TRIPOS>ATOM
1	  Br	1.875	-5.730	-5.028	Br	1	UNK0	0.000	
2	   C	1.028	-4.670	-3.672	C.2	1	UNK0	0.000	
3	   C	0.797	-3.353	-3.871	C.2	1	UNK0	0.000	
4	   C	0.173	-2.586	-2.865	C.2	1	UNK0	0.000	
5	   C	-0.222	-3.091	-1.681	C.2	1	UNK0	0.000	
6	   C	0.024	-4.452	-1.493	C.2	1	UNK0	0.000	
7	   C	0.635	-5.214	-2.472	C.2	1	UNK0	0.000	
8	   C	-0.858	-2.310	-0.634	C.2	1	UNK0	0.000	
9	   C	-1.291	-2.913	0.570	C.2	1	UNK0	0.000	
10	   N	-1.824	-1.995	1.331	N.pl3	1	UNK0	0.000	
11	   C	-2.410	-1.831	2.536	C.2	1	UNK0	0.000	
12	   C	-2.720	-0.504	2.634	C.2	1	UNK0	0.000	
13	   N	-2.315	0.069	1.502	N.2	1	UNK0	0.000	
14	   C	-1.757	-0.837	0.682	C.2	1	UNK0	0.000	
15	   N	-1.159	-1.017	-0.540	N.pl3	1	UNK0	0.000	
16	   C	-0.927	0.066	-1.433	C.3	1	UNK0	0.000	
17	   C	0.348	0.831	-1.182	C.3	1	UNK0	0.000	
18	   C	1.618	0.122	-1.258	C.3	1	UNK0	0.000	
19	   N	2.794	0.953	-0.949	N.4	1	UNK0	0.000	
20	   C	2.969	2.029	-1.850	C.3	1	UNK0	0.000	
21	   C	2.822	3.416	-1.332	C.3	1	UNK0	0.000	
22	   N	2.381	3.549	0.019	N.4	1	UNK0	0.000	
23	   C	3.158	2.630	0.825	C.3	1	UNK0	0.000	
24	   C	2.856	1.222	0.445	C.3	1	UNK0	0.000	
25	   C	2.739	4.896	0.474	C.3	1	UNK0	0.000	
26	   C	-3.343	-0.073	3.805	C.2	1	UNK0	0.000	
27	   C	-3.631	-0.961	4.818	C.2	1	UNK0	0.000	
28	   C	-3.312	-2.307	4.708	C.2	1	UNK0	0.000	
29	   C	-2.698	-2.714	3.548	C.2	1	UNK0	0.000	
30	   H	1.099	-2.895	-4.818	 H	1	UNK0	0.000	
31	   H	0.044	-1.584	-3.127	 H	1	UNK0	0.000	
32	   H	-0.262	-4.928	-0.571	 H	1	UNK0	0.000	
33	   H	0.822	-6.265	-2.318	 H	1	UNK0	0.000	
34	   H	-1.202	-3.979	0.839	 H	1	UNK0	0.000	
35	   H	-1.788	0.827	-1.168	 H	1	UNK0	0.000	
36	   H	-1.201	-0.068	-2.493	 H	1	UNK0	0.000	
37	   H	0.185	1.418	-0.242	 H	1	UNK0	0.000	
38	   H	0.362	1.651	-1.969	 H	1	UNK0	0.000	
39	   H	1.747	-0.276	-2.311	 H	1	UNK0	0.000	
40	   H	1.671	-0.764	-0.607	 H	1	UNK0	0.000	
41	   H	3.605	0.280	-1.139	 H	1	UNK0	0.000	
42	   H	2.255	1.841	-2.711	 H	1	UNK0	0.000	
43	   H	3.973	1.994	-2.377	 H	1	UNK0	0.000	
44	   H	3.784	4.010	-1.404	 H	1	UNK0	0.000	
45	   H	2.133	3.983	-2.029	 H	1	UNK0	0.000	
46	   H	1.360	3.469	0.162	 H	1	UNK0	0.000	
47	   H	4.220	2.832	0.638	 H	1	UNK0	0.000	
48	   H	2.866	2.820	1.883	 H	1	UNK0	0.000	
49	   H	3.566	0.564	1.011	 H	1	UNK0	0.000	
50	   H	1.849	0.975	0.895	 H	1	UNK0	0.000	
51	   H	3.840	4.999	0.480	 H	1	UNK0	0.000	
52	   H	2.416	4.973	1.538	 H	1	UNK0	0.000	
53	   H	2.263	5.665	-0.168	 H	1	UNK0	0.000	
54	   H	-3.593	0.967	3.897	 H	1	UNK0	0.000	
55	   H	-4.113	-0.608	5.715	 H	1	UNK0	0.000	
56	   H	-3.543	-3.013	5.519	 H	1	UNK0	0.000	
57	   H	-2.443	-3.758	3.446	 H	1	UNK0	0.000	
@<TRIPOS>BOND
1 1 2 1
2 2 3 2
3 2 7 1
4 3 4 1
5 4 5 2
6 5 6 1
7 5 8 1
8 6 7 2
9 8 9 2
10 8 15 1
11 9 10 1
12 10 11 1
13 10 14 1
14 11 12 2
15 11 29 1
16 12 13 1
17 12 26 1
18 13 14 2
19 14 15 1
20 15 16 1
21 16 17 1
22 17 18 1
23 18 19 1
24 19 20 1
25 19 24 1
26 20 21 1
27 21 22 1
28 22 23 1
29 22 25 1
30 23 24 1
31 26 27 2
32 27 28 1
33 28 29 2
34 3 30 1
35 4 31 1
36 6 32 1
37 7 33 1
38 9 34 1
39 16 35 1
40 16 36 1
41 17 37 1
42 17 38 1
43 18 39 1
44 18 40 1
45 19 41 1
46 20 42 1
47 20 43 1
48 21 44 1
49 21 45 1
50 22 46 1
51 23 47 1
52 23 48 1
53 24 49 1
54 24 50 1
55 25 51 1
56 25 52 1
57 25 53 1
58 26 54 1
59 27 55 1
60 28 56 1
61 29 57 1
@<TRIPOS>SUBSTRUCTURE
1	UNK0	1	GROUP	1 ****	UNK
