# created with PyMOL 2.3.2
@<TRIPOS>MOLECULE
317
54 57 1                 
SMALL
USER_CHARGES
@<TRIPOS>ATOM
1	  Br	-4.920	-4.325	1.349	Br	1	UNK0	0.000	
2	   C	-3.444	-3.427	0.555	C.2	1	UNK0	0.000	
3	   C	-3.304	-2.073	0.714	C.2	1	UNK0	0.000	
4	   C	-2.201	-1.441	0.113	C.2	1	UNK0	0.000	
5	   C	-1.265	-2.108	-0.619	C.2	1	UNK0	0.000	
6	   C	-1.449	-3.489	-0.755	C.2	1	UNK0	0.000	
7	   C	-2.521	-4.115	-0.172	C.2	1	UNK0	0.000	
8	   C	-0.137	-1.469	-1.293	C.2	1	UNK0	0.000	
9	   C	0.889	-2.214	-1.879	C.2	1	UNK0	0.000	
10	   N	1.765	-1.387	-2.449	N.pl3	1	UNK0	0.000	
11	   C	2.925	-1.346	-3.154	C.2	1	UNK0	0.000	
12	   C	3.198	-0.019	-3.384	C.2	1	UNK0	0.000	
13	   N	2.191	0.682	-2.808	N.pl3	1	UNK0	0.000	
14	   C	1.307	-0.164	-2.231	C.cat	1	UNK0	0.000	
15	   N	0.127	-0.193	-1.515	N.pl3	1	UNK0	0.000	
16	   C	-0.583	1.013	-1.177	C.3	1	UNK0	0.000	
17	   C	-0.209	1.603	0.158	C.3	1	UNK0	0.000	
18	   C	-1.038	2.836	0.368	C.3	1	UNK0	0.000	
19	   N	-0.807	3.516	1.588	N.4	1	UNK0	0.000	
20	   C	0.044	4.693	1.438	C.3	1	UNK0	0.000	
21	   C	1.490	4.347	1.282	C.3	1	UNK0	0.000	
22	   C	-0.324	2.686	2.665	C.3	1	UNK0	0.000	
23	   C	-1.511	1.959	3.275	C.3	1	UNK0	0.000	
24	   C	4.333	0.331	-4.088	C.2	1	UNK0	0.000	
25	   C	5.214	-0.612	-4.576	C.2	1	UNK0	0.000	
26	   C	4.938	-1.955	-4.344	C.2	1	UNK0	0.000	
27	   C	3.804	-2.287	-3.641	C.2	1	UNK0	0.000	
28	   H	-4.014	-1.493	1.282	 H	1	UNK0	0.000	
29	   H	-2.164	-0.400	0.310	 H	1	UNK0	0.000	
30	   H	-0.718	-4.044	-1.336	 H	1	UNK0	0.000	
31	   H	-2.634	-5.192	-0.298	 H	1	UNK0	0.000	
32	   H	1.007	-3.289	-1.895	 H	1	UNK0	0.000	
33	   H	2.112	1.704	-2.809	 H	1	UNK0	0.000	
34	   H	-1.657	0.909	-1.270	 H	1	UNK0	0.000	
35	   H	-0.336	1.814	-1.971	 H	1	UNK0	0.000	
36	   H	-0.272	0.835	0.915	 H	1	UNK0	0.000	
37	   H	0.861	1.946	0.155	 H	1	UNK0	0.000	
38	   H	-0.819	3.526	-0.473	 H	1	UNK0	0.000	
39	   H	-2.116	2.546	0.239	 H	1	UNK0	0.000	
40	   H	-1.742	3.904	1.920	 H	1	UNK0	0.000	
41	   H	-0.354	5.221	0.524	 H	1	UNK0	0.000	
42	   H	-0.156	5.358	2.303	 H	1	UNK0	0.000	
43	   H	1.796	3.503	1.896	 H	1	UNK0	0.000	
44	   H	1.776	4.249	0.203	 H	1	UNK0	0.000	
45	   H	2.079	5.236	1.647	 H	1	UNK0	0.000	
46	   H	0.058	3.373	3.455	 H	1	UNK0	0.000	
47	   H	0.490	2.017	2.393	 H	1	UNK0	0.000	
48	   H	-2.175	1.625	2.452	 H	1	UNK0	0.000	
49	   H	-2.100	2.631	3.932	 H	1	UNK0	0.000	
50	   H	-1.189	1.106	3.906	 H	1	UNK0	0.000	
51	   H	4.498	1.392	-4.239	 H	1	UNK0	0.000	
52	   H	6.115	-0.321	-5.136	 H	1	UNK0	0.000	
53	   H	5.648	-2.667	-4.739	 H	1	UNK0	0.000	
54	   H	3.603	-3.331	-3.469	 H	1	UNK0	0.000	
@<TRIPOS>BOND
1 1 2 1
2 2 3 2
3 2 7 1
4 3 4 1
5 4 5 2
6 5 6 1
7 5 8 1
8 6 7 2
9 8 9 2
10 8 15 1
11 9 10 1
12 10 11 1
13 10 14 1
14 11 12 2
15 11 27 1
16 12 13 1
17 12 24 1
18 13 14 2
19 14 15 1
20 15 16 1
21 16 17 1
22 17 18 1
23 18 19 1
24 19 20 1
25 19 22 1
26 20 21 1
27 22 23 1
28 24 25 2
29 25 26 1
30 26 27 2
31 3 28 1
32 4 29 1
33 6 30 1
34 7 31 1
35 9 32 1
36 13 33 1
37 16 34 1
38 16 35 1
39 17 36 1
40 17 37 1
41 18 38 1
42 18 39 1
43 19 40 1
44 20 41 1
45 20 42 1
46 21 43 1
47 21 44 1
48 21 45 1
49 22 46 1
50 22 47 1
51 23 48 1
52 23 49 1
53 23 50 1
54 24 51 1
55 25 52 1
56 26 53 1
57 27 54 1
@<TRIPOS>SUBSTRUCTURE
1	UNK0	1	GROUP	1 ****	UNK
