# created with PyMOL 2.3.2
@<TRIPOS>MOLECULE
318
54 57 1                 
SMALL
USER_CHARGES
@<TRIPOS>ATOM
1	  Br	5.312	4.437	-2.001	Br	1	UNK0	0.000	
2	   C	3.664	3.496	-1.780	C.2	1	UNK0	0.000	
3	   C	2.994	3.544	-0.584	C.2	1	UNK0	0.000	
4	   C	1.773	2.858	-0.391	C.2	1	UNK0	0.000	
5	   C	1.217	2.121	-1.391	C.2	1	UNK0	0.000	
6	   C	1.938	2.100	-2.598	C.2	1	UNK0	0.000	
7	   C	3.114	2.756	-2.797	C.2	1	UNK0	0.000	
8	   C	-0.024	1.372	-1.308	C.2	1	UNK0	0.000	
9	   C	-0.551	0.663	-2.405	C.2	1	UNK0	0.000	
10	   N	-1.697	0.065	-2.052	N.pl3	1	UNK0	0.000	
11	   C	-2.703	-0.714	-2.480	C.2	1	UNK0	0.000	
12	   C	-3.597	-0.913	-1.426	C.2	1	UNK0	0.000	
13	   N	-3.089	-0.233	-0.380	N.pl3	1	UNK0	0.000	
14	   C	-1.937	0.351	-0.785	C.cat	1	UNK0	0.000	
15	   N	-0.910	1.148	-0.343	N.pl3	1	UNK0	0.000	
16	   C	-0.851	1.620	1.009	C.3	1	UNK0	0.000	
17	   C	-0.210	0.723	1.997	C.3	1	UNK0	0.000	
18	   C	1.194	0.325	1.811	C.3	1	UNK0	0.000	
19	   N	1.675	-0.607	2.824	N.4	1	UNK0	0.000	
20	   C	0.906	-1.782	3.008	C.3	1	UNK0	0.000	
21	   C	-0.056	-1.571	4.186	C.3	1	UNK0	0.000	
22	   C	1.896	-2.876	3.466	C.3	1	UNK0	0.000	
23	   C	0.202	-2.337	1.821	C.3	1	UNK0	0.000	
24	   C	-4.711	-1.691	-1.655	C.2	1	UNK0	0.000	
25	   C	-4.978	-2.279	-2.874	C.2	1	UNK0	0.000	
26	   C	-4.093	-2.081	-3.914	C.2	1	UNK0	0.000	
27	   C	-2.968	-1.301	-3.701	C.2	1	UNK0	0.000	
28	   H	3.377	4.104	0.242	 H	1	UNK0	0.000	
29	   H	1.300	2.931	0.551	 H	1	UNK0	0.000	
30	   H	1.564	1.536	-3.444	 H	1	UNK0	0.000	
31	   H	3.651	2.724	-3.738	 H	1	UNK0	0.000	
32	   H	-0.089	0.615	-3.390	 H	1	UNK0	0.000	
33	   H	-3.513	-0.180	0.547	 H	1	UNK0	0.000	
34	   H	-0.565	2.655	1.140	 H	1	UNK0	0.000	
35	   H	-1.959	1.667	1.377	 H	1	UNK0	0.000	
36	   H	-0.273	1.281	2.993	 H	1	UNK0	0.000	
37	   H	-0.905	-0.138	2.179	 H	1	UNK0	0.000	
38	   H	1.843	1.235	1.964	 H	1	UNK0	0.000	
39	   H	1.365	-0.135	0.832	 H	1	UNK0	0.000	
40	   H	1.765	-0.129	3.751	 H	1	UNK0	0.000	
41	   H	2.671	-0.890	2.573	 H	1	UNK0	0.000	
42	   H	-1.079	-1.865	3.813	 H	1	UNK0	0.000	
43	   H	0.191	-2.284	4.996	 H	1	UNK0	0.000	
44	   H	-0.002	-0.528	4.516	 H	1	UNK0	0.000	
45	   H	2.833	-2.445	3.824	 H	1	UNK0	0.000	
46	   H	1.397	-3.508	4.246	 H	1	UNK0	0.000	
47	   H	2.135	-3.559	2.626	 H	1	UNK0	0.000	
48	   H	0.261	-1.774	0.894	 H	1	UNK0	0.000	
49	   H	-0.871	-2.528	2.132	 H	1	UNK0	0.000	
50	   H	0.550	-3.382	1.547	 H	1	UNK0	0.000	
51	   H	-5.398	-1.838	-0.828	 H	1	UNK0	0.000	
52	   H	-5.865	-2.895	-3.044	 H	1	UNK0	0.000	
53	   H	-4.294	-2.541	-4.883	 H	1	UNK0	0.000	
54	   H	-2.301	-1.176	-4.556	 H	1	UNK0	0.000	
@<TRIPOS>BOND
1 1 2 1
2 2 3 2
3 2 7 1
4 3 4 1
5 4 5 2
6 5 6 1
7 5 8 1
8 6 7 2
9 8 9 2
10 8 15 1
11 9 10 1
12 10 11 1
13 10 14 1
14 11 12 2
15 11 27 1
16 12 13 1
17 12 24 1
18 13 14 2
19 14 15 1
20 15 16 1
21 16 17 1
22 17 18 1
23 18 19 1
24 19 20 1
25 20 21 1
26 20 22 1
27 20 23 1
28 24 25 2
29 25 26 1
30 26 27 2
31 3 28 1
32 4 29 1
33 6 30 1
34 7 31 1
35 9 32 1
36 13 33 1
37 16 34 1
38 16 35 1
39 17 36 1
40 17 37 1
41 18 38 1
42 18 39 1
43 19 40 1
44 19 41 1
45 21 42 1
46 21 43 1
47 21 44 1
48 22 45 1
49 22 46 1
50 22 47 1
51 23 48 1
52 23 49 1
53 23 50 1
54 24 51 1
55 25 52 1
56 26 53 1
57 27 54 1
@<TRIPOS>SUBSTRUCTURE
1	UNK0	1	GROUP	1 ****	UNK
