# created with PyMOL 2.3.2
@<TRIPOS>MOLECULE
323
53 57 1                 
SMALL
USER_CHARGES
@<TRIPOS>ATOM
1	  Br	-3.218	-5.916	1.758	Br	1	UNK0	0.000	
2	   C	-2.039	-4.433	1.666	C.2	1	UNK0	0.000	
3	   C	-0.961	-4.344	2.514	C.2	1	UNK0	0.000	
4	   C	-0.100	-3.270	2.453	C.2	1	UNK0	0.000	
5	   C	-0.247	-2.212	1.551	C.2	1	UNK0	0.000	
6	   C	-1.321	-2.314	0.717	C.2	1	UNK0	0.000	
7	   C	-2.202	-3.405	0.773	C.2	1	UNK0	0.000	
8	   C	0.740	-1.142	1.552	C.2	1	UNK0	0.000	
9	   C	1.919	-1.241	2.312	C.2	1	UNK0	0.000	
10	   N	2.597	-0.100	2.137	N.pl3	1	UNK0	0.000	
11	   C	3.738	0.525	2.504	C.2	1	UNK0	0.000	
12	   C	3.731	1.759	1.869	C.2	1	UNK0	0.000	
13	   N	2.582	1.804	1.156	N.pl3	1	UNK0	0.000	
14	   C	1.891	0.674	1.317	C.cat	1	UNK0	0.000	
15	   N	0.721	0.032	0.942	N.pl3	1	UNK0	0.000	
16	   C	-0.257	0.638	0.067	C.3	1	UNK0	0.000	
17	   C	-0.039	0.366	-1.390	C.3	1	UNK0	0.000	
18	   C	-1.079	1.045	-2.223	C.3	1	UNK0	0.000	
19	   N	-2.426	0.679	-2.013	N.4	1	UNK0	0.000	
20	   C	-2.904	-0.216	-3.058	C.3	1	UNK0	0.000	
21	   C	-3.040	0.479	-4.369	C.3	1	UNK0	0.000	
22	   O	-2.720	1.807	-4.369	O.3	1	UNK0	0.000	
23	   C	-3.300	2.539	-3.349	C.3	1	UNK0	0.000	
24	   C	-3.347	1.815	-2.042	C.3	1	UNK0	0.000	
25	   C	4.781	2.637	2.053	C.2	1	UNK0	0.000	
26	   C	5.861	2.339	2.854	C.2	1	UNK0	0.000	
27	   C	5.870	1.107	3.489	C.2	1	UNK0	0.000	
28	   C	4.816	0.222	3.306	C.2	1	UNK0	0.000	
29	   H	-0.777	-5.129	3.247	 H	1	UNK0	0.000	
30	   H	0.743	-3.230	3.149	 H	1	UNK0	0.000	
31	   H	-1.505	-1.570	-0.012	 H	1	UNK0	0.000	
32	   H	-3.040	-3.440	0.089	 H	1	UNK0	0.000	
33	   H	2.249	-2.057	2.922	 H	1	UNK0	0.000	
34	   H	2.302	2.610	0.576	 H	1	UNK0	0.000	
35	   H	-1.301	0.533	0.362	 H	1	UNK0	0.000	
36	   H	-0.124	1.800	0.195	 H	1	UNK0	0.000	
37	   H	-0.071	-0.713	-1.645	 H	1	UNK0	0.000	
38	   H	0.980	0.711	-1.724	 H	1	UNK0	0.000	
39	   H	-0.880	2.139	-2.142	 H	1	UNK0	0.000	
40	   H	-0.839	0.822	-3.309	 H	1	UNK0	0.000	
41	   H	-2.578	0.222	-1.112	 H	1	UNK0	0.000	
42	   H	-3.911	-0.555	-2.736	 H	1	UNK0	0.000	
43	   H	-2.278	-1.145	-3.119	 H	1	UNK0	0.000	
44	   H	-2.351	-0.032	-5.091	 H	1	UNK0	0.000	
45	   H	-4.063	0.327	-4.820	 H	1	UNK0	0.000	
46	   H	-2.693	3.458	-3.219	 H	1	UNK0	0.000	
47	   H	-4.312	2.891	-3.670	 H	1	UNK0	0.000	
48	   H	-3.215	2.467	-1.160	 H	1	UNK0	0.000	
49	   H	-4.368	1.367	-1.942	 H	1	UNK0	0.000	
50	   H	4.740	3.583	1.545	 H	1	UNK0	0.000	
51	   H	6.690	3.043	2.993	 H	1	UNK0	0.000	
52	   H	6.713	0.879	4.111	 H	1	UNK0	0.000	
53	   H	4.839	-0.732	3.808	 H	1	UNK0	0.000	
@<TRIPOS>BOND
1 1 2 1
2 2 3 2
3 2 7 1
4 3 4 1
5 4 5 2
6 5 6 1
7 5 8 1
8 6 7 2
9 8 9 2
10 8 15 1
11 9 10 1
12 10 11 1
13 10 14 1
14 11 12 2
15 11 28 1
16 12 13 1
17 12 25 1
18 13 14 2
19 14 15 1
20 15 16 1
21 16 17 1
22 17 18 1
23 18 19 1
24 19 20 1
25 19 24 1
26 20 21 1
27 21 22 1
28 22 23 1
29 23 24 1
30 25 26 2
31 26 27 1
32 27 28 2
33 3 29 1
34 4 30 1
35 6 31 1
36 7 32 1
37 9 33 1
38 13 34 1
39 16 35 1
40 16 36 1
41 17 37 1
42 17 38 1
43 18 39 1
44 18 40 1
45 19 41 1
46 20 42 1
47 20 43 1
48 21 44 1
49 21 45 1
50 23 46 1
51 23 47 1
52 24 48 1
53 24 49 1
54 25 50 1
55 26 51 1
56 27 52 1
57 28 53 1
@<TRIPOS>SUBSTRUCTURE
1	UNK0	1	GROUP	1 ****	UNK
