# created with PyMOL 2.3.2
@<TRIPOS>MOLECULE
325
51 54 1                 
SMALL
USER_CHARGES
@<TRIPOS>ATOM
1	  Br	4.703	-0.352	5.525	Br	1	UNK0	0.000	
2	   C	3.315	-0.307	4.205	C.2	1	UNK0	0.000	
3	   C	2.031	-0.629	4.555	C.2	1	UNK0	0.000	
4	   C	1.022	-0.604	3.632	C.2	1	UNK0	0.000	
5	   C	1.227	-0.257	2.305	C.2	1	UNK0	0.000	
6	   C	2.511	0.063	1.965	C.2	1	UNK0	0.000	
7	   C	3.561	0.042	2.905	C.2	1	UNK0	0.000	
8	   C	0.105	-0.299	1.375	C.2	1	UNK0	0.000	
9	   C	-1.127	-0.891	1.723	C.2	1	UNK0	0.000	
10	   N	-1.964	-0.738	0.697	N.pl3	1	UNK0	0.000	
11	   C	-3.229	-1.024	0.320	C.2	1	UNK0	0.000	
12	   C	-3.361	-0.511	-0.952	C.2	1	UNK0	0.000	
13	   N	-2.168	0.055	-1.271	N.pl3	1	UNK0	0.000	
14	   C	-1.311	-0.090	-0.246	C.cat	1	UNK0	0.000	
15	   N	-0.016	0.199	0.149	N.pl3	1	UNK0	0.000	
16	   C	0.914	0.933	-0.684	C.3	1	UNK0	0.000	
17	   C	1.757	0.063	-1.557	C.3	1	UNK0	0.000	
18	   N	2.682	0.831	-2.375	N.4	1	UNK0	0.000	
19	   C	3.038	-0.036	-3.509	C.3	1	UNK0	0.000	
20	   C	2.073	0.128	-4.647	C.3	1	UNK0	0.000	
21	   C	3.863	1.237	-1.675	C.3	1	UNK0	0.000	
22	   C	3.750	2.592	-1.025	C.3	1	UNK0	0.000	
23	   C	-4.562	-0.649	-1.614	C.2	1	UNK0	0.000	
24	   C	-5.650	-1.285	-1.050	C.2	1	UNK0	0.000	
25	   C	-5.514	-1.799	0.227	C.2	1	UNK0	0.000	
26	   C	-4.302	-1.664	0.903	C.2	1	UNK0	0.000	
27	   H	1.838	-0.904	5.585	 H	1	UNK0	0.000	
28	   H	0.016	-0.858	3.944	 H	1	UNK0	0.000	
29	   H	2.803	0.322	0.972	 H	1	UNK0	0.000	
30	   H	4.570	0.304	2.593	 H	1	UNK0	0.000	
31	   H	-1.346	-1.385	2.655	 H	1	UNK0	0.000	
32	   H	-1.931	0.532	-2.162	 H	1	UNK0	0.000	
33	   H	1.501	1.630	-0.090	 H	1	UNK0	0.000	
34	   H	0.255	1.601	-1.378	 H	1	UNK0	0.000	
35	   H	2.231	-0.786	-1.046	 H	1	UNK0	0.000	
36	   H	1.041	-0.426	-2.290	 H	1	UNK0	0.000	
37	   H	2.145	1.664	-2.741	 H	1	UNK0	0.000	
38	   H	4.063	0.232	-3.836	 H	1	UNK0	0.000	
39	   H	3.035	-1.104	-3.189	 H	1	UNK0	0.000	
40	   H	2.264	-0.709	-5.356	 H	1	UNK0	0.000	
41	   H	2.221	1.074	-5.191	 H	1	UNK0	0.000	
42	   H	1.030	0.001	-4.285	 H	1	UNK0	0.000	
43	   H	4.184	0.440	-0.992	 H	1	UNK0	0.000	
44	   H	4.687	1.333	-2.442	 H	1	UNK0	0.000	
45	   H	3.790	2.440	0.073	 H	1	UNK0	0.000	
46	   H	4.627	3.257	-1.267	 H	1	UNK0	0.000	
47	   H	2.852	3.159	-1.355	 H	1	UNK0	0.000	
48	   H	-4.660	-0.248	-2.605	 H	1	UNK0	0.000	
49	   H	-6.605	-1.397	-1.572	 H	1	UNK0	0.000	
50	   H	-6.372	-2.295	0.659	 H	1	UNK0	0.000	
51	   H	-4.191	-2.059	1.891	 H	1	UNK0	0.000	
@<TRIPOS>BOND
1 1 2 1
2 2 3 2
3 2 7 1
4 3 4 1
5 4 5 2
6 5 6 1
7 5 8 1
8 6 7 2
9 8 9 2
10 8 15 1
11 9 10 1
12 10 11 1
13 10 14 1
14 11 12 2
15 11 26 1
16 12 13 1
17 12 23 1
18 13 14 2
19 14 15 1
20 15 16 1
21 16 17 1
22 17 18 1
23 18 19 1
24 18 21 1
25 19 20 1
26 21 22 1
27 23 24 2
28 24 25 1
29 25 26 2
30 3 27 1
31 4 28 1
32 6 29 1
33 7 30 1
34 9 31 1
35 13 32 1
36 16 33 1
37 16 34 1
38 17 35 1
39 17 36 1
40 18 37 1
41 19 38 1
42 19 39 1
43 20 40 1
44 20 41 1
45 20 42 1
46 21 43 1
47 21 44 1
48 22 45 1
49 22 46 1
50 22 47 1
51 23 48 1
52 24 49 1
53 25 50 1
54 26 51 1
@<TRIPOS>SUBSTRUCTURE
1	UNK0	1	GROUP	1 ****	UNK
