# created with PyMOL 2.3.2
@<TRIPOS>MOLECULE
326
51 54 1                 
SMALL
USER_CHARGES
@<TRIPOS>ATOM
1	  Br	6.387	-2.610	3.175	Br	1	UNK0	0.000	
2	   C	4.776	-1.642	2.773	C.2	1	UNK0	0.000	
3	   C	3.674	-2.269	2.254	C.2	1	UNK0	0.000	
4	   C	2.489	-1.571	1.956	C.2	1	UNK0	0.000	
5	   C	2.379	-0.232	2.169	C.2	1	UNK0	0.000	
6	   C	3.514	0.396	2.701	C.2	1	UNK0	0.000	
7	   C	4.679	-0.292	2.994	C.2	1	UNK0	0.000	
8	   C	1.232	0.609	1.873	C.2	1	UNK0	0.000	
9	   C	1.126	1.962	2.230	C.2	1	UNK0	0.000	
10	   N	-0.027	2.469	1.802	N.pl3	1	UNK0	0.000	
11	   C	-0.794	3.600	1.760	C.2	1	UNK0	0.000	
12	   C	-1.929	3.256	1.085	C.2	1	UNK0	0.000	
13	   N	-1.829	1.954	0.741	N.pl3	1	UNK0	0.000	
14	   C	-0.653	1.468	1.184	C.cat	1	UNK0	0.000	
15	   N	0.116	0.333	1.227	N.pl3	1	UNK0	0.000	
16	   C	-0.329	-0.915	0.615	C.3	1	UNK0	0.000	
17	   C	-1.116	-1.733	1.583	C.3	1	UNK0	0.000	
18	   N	-1.631	-2.967	1.171	N.4	1	UNK0	0.000	
19	   C	-1.296	-3.560	-0.063	C.3	1	UNK0	0.000	
20	   C	-1.620	-2.836	-1.313	C.3	1	UNK0	0.000	
21	   C	0.122	-4.093	-0.081	C.3	1	UNK0	0.000	
22	   C	-2.172	-4.856	-0.107	C.3	1	UNK0	0.000	
23	   C	-2.891	4.237	0.900	C.2	1	UNK0	0.000	
24	   C	-2.664	5.513	1.401	C.2	1	UNK0	0.000	
25	   C	-1.509	5.836	2.079	C.2	1	UNK0	0.000	
26	   C	-0.548	4.862	2.266	C.2	1	UNK0	0.000	
27	   H	3.739	-3.329	2.076	 H	1	UNK0	0.000	
28	   H	1.683	-2.155	1.570	 H	1	UNK0	0.000	
29	   H	3.487	1.460	2.890	 H	1	UNK0	0.000	
30	   H	5.543	0.224	3.405	 H	1	UNK0	0.000	
31	   H	1.859	2.520	2.770	 H	1	UNK0	0.000	
32	   H	-2.562	1.434	0.214	 H	1	UNK0	0.000	
33	   H	0.435	-1.393	0.031	 H	1	UNK0	0.000	
34	   H	-1.111	-0.589	-0.172	 H	1	UNK0	0.000	
35	   H	-0.443	-1.905	2.481	 H	1	UNK0	0.000	
36	   H	-1.923	-1.072	2.077	 H	1	UNK0	0.000	
37	   H	-2.705	-2.897	1.271	 H	1	UNK0	0.000	
38	   H	-1.414	-3.695	1.925	 H	1	UNK0	0.000	
39	   H	-0.772	-2.302	-1.787	 H	1	UNK0	0.000	
40	   H	-1.921	-3.590	-2.112	 H	1	UNK0	0.000	
41	   H	-2.496	-2.173	-1.255	 H	1	UNK0	0.000	
42	   H	0.531	-4.136	0.964	 H	1	UNK0	0.000	
43	   H	0.789	-3.575	-0.785	 H	1	UNK0	0.000	
44	   H	0.168	-5.174	-0.410	 H	1	UNK0	0.000	
45	   H	-3.220	-4.592	0.074	 H	1	UNK0	0.000	
46	   H	-1.974	-5.416	-1.018	 H	1	UNK0	0.000	
47	   H	-1.815	-5.447	0.764	 H	1	UNK0	0.000	
48	   H	-3.808	3.995	0.366	 H	1	UNK0	0.000	
49	   H	-3.392	6.293	1.272	 H	1	UNK0	0.000	
50	   H	-1.364	6.838	2.456	 H	1	UNK0	0.000	
51	   H	0.381	5.084	2.800	 H	1	UNK0	0.000	
@<TRIPOS>BOND
1 1 2 1
2 2 3 2
3 2 7 1
4 3 4 1
5 4 5 2
6 5 6 1
7 5 8 1
8 6 7 2
9 8 9 2
10 8 15 1
11 9 10 1
12 10 11 1
13 10 14 1
14 11 12 2
15 11 26 1
16 12 13 1
17 12 23 1
18 13 14 2
19 14 15 1
20 15 16 1
21 16 17 1
22 17 18 1
23 18 19 1
24 19 20 1
25 19 21 1
26 19 22 1
27 23 24 2
28 24 25 1
29 25 26 2
30 3 27 1
31 4 28 1
32 6 29 1
33 7 30 1
34 9 31 1
35 13 32 1
36 16 33 1
37 16 34 1
38 17 35 1
39 17 36 1
40 18 37 1
41 18 38 1
42 20 39 1
43 20 40 1
44 20 41 1
45 21 42 1
46 21 43 1
47 21 44 1
48 22 45 1
49 22 46 1
50 22 47 1
51 23 48 1
52 24 49 1
53 25 50 1
54 26 51 1
@<TRIPOS>SUBSTRUCTURE
1	UNK0	1	GROUP	1 ****	UNK
