# created with PyMOL 2.3.2
@<TRIPOS>MOLECULE
331
44 47 1                 
SMALL
USER_CHARGES
@<TRIPOS>ATOM
1	  Br	-1.098	0.990	-7.261	Br	1	UNK0	0.000	
2	   C	-0.763	1.357	-5.428	C.2	1	UNK0	0.000	
3	   C	0.157	2.321	-4.983	C.2	1	UNK0	0.000	
4	   C	0.386	2.589	-3.617	C.2	1	UNK0	0.000	
5	   C	-0.281	1.919	-2.657	C.2	1	UNK0	0.000	
6	   C	-1.226	0.932	-3.118	C.2	1	UNK0	0.000	
7	   C	-1.448	0.672	-4.421	C.2	1	UNK0	0.000	
8	   C	-0.109	1.899	-1.191	C.2	1	UNK0	0.000	
9	   C	0.835	0.975	-0.688	C.2	1	UNK0	0.000	
10	   O	0.866	0.673	0.565	O.3	1	UNK0	0.000	
11	   C	0.052	1.177	1.466	C.2	1	UNK0	0.000	
12	   C	-0.877	2.092	1.049	C.2	1	UNK0	0.000	
13	   C	-1.730	2.575	2.000	C.2	1	UNK0	0.000	
14	   C	-1.657	2.145	3.326	C.2	1	UNK0	0.000	
15	   C	-0.686	1.195	3.700	C.2	1	UNK0	0.000	
16	   C	0.184	0.700	2.768	C.2	1	UNK0	0.000	
17	   C	1.319	-0.245	3.029	C.3	1	UNK0	0.000	
18	   N	0.799	-1.543	3.511	N.4	1	UNK0	0.000	
19	   C	-0.617	-1.677	3.317	C.3	1	UNK0	0.000	
20	   C	-0.980	-2.831	2.397	C.3	1	UNK0	0.000	
21	   O	-0.354	-2.602	1.150	O.3	1	UNK0	0.000	
22	   C	1.017	-2.711	1.309	C.3	1	UNK0	0.000	
23	   C	1.482	-2.571	2.703	C.3	1	UNK0	0.000	
24	   O	-0.575	0.731	5.018	O.2	1	UNK0	0.000	
25	   C	-0.958	2.459	-0.301	C.2	1	UNK0	0.000	
26	   O	-1.818	3.298	-0.677	O.2	1	UNK0	0.000	
27	   H	0.699	2.855	-5.734	 H	1	UNK0	0.000	
28	   H	1.102	3.353	-3.296	 H	1	UNK0	0.000	
29	   H	-1.727	0.388	-2.305	 H	1	UNK0	0.000	
30	   H	-2.164	-0.090	-4.762	 H	1	UNK0	0.000	
31	   H	1.508	0.553	-1.440	 H	1	UNK0	0.000	
32	   H	-2.498	3.317	1.747	 H	1	UNK0	0.000	
33	   H	-2.291	2.499	4.077	 H	1	UNK0	0.000	
34	   H	1.966	0.184	3.864	 H	1	UNK0	0.000	
35	   H	1.937	-0.401	2.168	 H	1	UNK0	0.000	
36	   H	1.046	-1.685	4.498	 H	1	UNK0	0.000	
37	   H	-1.087	-0.780	2.795	 H	1	UNK0	0.000	
38	   H	-1.168	-1.867	4.253	 H	1	UNK0	0.000	
39	   H	-2.092	-2.772	2.195	 H	1	UNK0	0.000	
40	   H	-0.764	-3.816	2.796	 H	1	UNK0	0.000	
41	   H	1.284	-3.777	1.004	 H	1	UNK0	0.000	
42	   H	1.552	-2.068	0.568	 H	1	UNK0	0.000	
43	   H	2.584	-2.259	2.630	 H	1	UNK0	0.000	
44	   H	1.478	-3.518	3.228	 H	1	UNK0	0.000	
@<TRIPOS>BOND
1 1 2 1
2 2 3 2
3 2 7 1
4 3 4 1
5 4 5 2
6 5 6 1
7 5 8 1
8 6 7 2
9 8 9 2
10 8 25 1
11 9 10 1
12 10 11 1
13 11 12 2
14 11 16 1
15 12 13 1
16 12 25 1
17 13 14 2
18 14 15 1
19 15 16 2
20 15 24 1
21 16 17 1
22 17 18 1
23 18 19 1
24 18 23 1
25 19 20 1
26 20 21 1
27 21 22 1
28 22 23 1
29 25 26 2
30 3 27 1
31 4 28 1
32 6 29 1
33 7 30 1
34 9 31 1
35 13 32 1
36 14 33 1
37 17 34 1
38 17 35 1
39 18 36 1
40 19 37 1
41 19 38 1
42 20 39 1
43 20 40 1
44 22 41 1
45 22 42 1
46 23 43 1
47 23 44 1
@<TRIPOS>SUBSTRUCTURE
1	UNK0	1	GROUP	1 ****	UNK
