# created with PyMOL 2.3.2
@<TRIPOS>MOLECULE
332
49 52 1                 
SMALL
USER_CHARGES
@<TRIPOS>ATOM
1	  Br	-10.400	-1.497	-1.890	Br	1	UNK0	0.000	
2	   C	-8.529	-1.272	-1.562	C.2	1	UNK0	0.000	
3	   C	-7.972	-0.028	-1.376	C.2	1	UNK0	0.000	
4	   C	-6.614	0.147	-1.137	C.2	1	UNK0	0.000	
5	   C	-5.772	-0.944	-1.079	C.2	1	UNK0	0.000	
6	   C	-6.335	-2.195	-1.266	C.2	1	UNK0	0.000	
7	   C	-7.683	-2.370	-1.503	C.2	1	UNK0	0.000	
8	   C	-4.349	-0.835	-0.834	C.2	1	UNK0	0.000	
9	   C	-3.697	-1.676	0.063	C.2	1	UNK0	0.000	
10	   O	-2.409	-1.594	0.299	O.3	1	UNK0	0.000	
11	   C	-1.632	-0.716	-0.290	C.2	1	UNK0	0.000	
12	   C	-2.187	0.159	-1.194	C.2	1	UNK0	0.000	
13	   C	-1.337	1.061	-1.786	C.2	1	UNK0	0.000	
14	   C	0.007	1.120	-1.518	C.2	1	UNK0	0.000	
15	   C	0.596	0.233	-0.594	C.2	1	UNK0	0.000	
16	   C	-0.261	-0.667	-0.006	C.2	1	UNK0	0.000	
17	   O	1.951	0.325	-0.352	O.3	1	UNK0	0.000	
18	   C	2.679	-0.448	0.504	C.3	1	UNK0	0.000	
19	   O	3.333	0.302	1.518	O.3	1	UNK0	0.000	
20	   C	3.555	-0.587	2.547	C.3	1	UNK0	0.000	
21	   C	4.488	-1.708	2.209	C.3	1	UNK0	0.000	
22	   C	4.216	-2.293	0.844	C.3	1	UNK0	0.000	
23	   C	3.801	-1.231	-0.153	C.3	1	UNK0	0.000	
24	   O	3.372	-1.872	-1.309	O.3	1	UNK0	0.000	
25	   O	5.323	-3.016	0.419	O.3	1	UNK0	0.000	
26	   O	4.255	-2.735	3.138	O.3	1	UNK0	0.000	
27	   C	4.004	0.085	3.820	C.3	1	UNK0	0.000	
28	   O	5.195	0.787	3.649	O.3	1	UNK0	0.000	
29	   C	-3.537	0.100	-1.465	C.2	1	UNK0	0.000	
30	   O	-4.047	0.901	-2.293	O.2	1	UNK0	0.000	
31	   H	-8.620	0.845	-1.419	 H	1	UNK0	0.000	
32	   H	-6.176	1.116	-0.992	 H	1	UNK0	0.000	
33	   H	-5.670	-3.060	-1.220	 H	1	UNK0	0.000	
34	   H	-8.124	-3.350	-1.650	 H	1	UNK0	0.000	
35	   H	-4.338	-2.411	0.558	 H	1	UNK0	0.000	
36	   H	-1.793	1.748	-2.502	 H	1	UNK0	0.000	
37	   H	0.670	1.834	-1.989	 H	1	UNK0	0.000	
38	   H	0.126	-1.370	0.707	 H	1	UNK0	0.000	
39	   H	2.050	-1.196	1.014	 H	1	UNK0	0.000	
40	   H	2.559	-1.057	2.782	 H	1	UNK0	0.000	
41	   H	5.565	-1.421	2.314	 H	1	UNK0	0.000	
42	   H	3.359	-2.992	0.934	 H	1	UNK0	0.000	
43	   H	4.616	-0.508	-0.369	 H	1	UNK0	0.000	
44	   H	4.070	-1.846	-2.005	 H	1	UNK0	0.000	
45	   H	5.988	-3.161	1.160	 H	1	UNK0	0.000	
46	   H	3.284	-2.884	3.258	 H	1	UNK0	0.000	
47	   H	4.070	-0.635	4.660	 H	1	UNK0	0.000	
48	   H	3.248	0.849	4.148	 H	1	UNK0	0.000	
49	   H	5.318	1.313	4.500	 H	1	UNK0	0.000	
@<TRIPOS>BOND
1 1 2 1
2 2 3 2
3 2 7 1
4 3 4 1
5 4 5 2
6 5 6 1
7 5 8 1
8 6 7 2
9 8 9 2
10 8 29 1
11 9 10 1
12 10 11 1
13 11 12 2
14 11 16 1
15 12 13 1
16 12 29 1
17 13 14 2
18 14 15 1
19 15 16 2
20 15 17 1
21 17 18 1
22 18 19 1
23 18 23 1
24 19 20 1
25 20 21 1
26 20 27 1
27 21 22 1
28 21 26 1
29 22 23 1
30 22 25 1
31 23 24 1
32 27 28 1
33 29 30 2
34 3 31 1
35 4 32 1
36 6 33 1
37 7 34 1
38 9 35 1
39 13 36 1
40 14 37 1
41 16 38 1
42 18 39 1
43 20 40 1
44 21 41 1
45 22 42 1
46 23 43 1
47 24 44 1
48 25 45 1
49 26 46 1
50 27 47 1
51 27 48 1
52 28 49 1
@<TRIPOS>SUBSTRUCTURE
1	UNK0	1	GROUP	1 ****	UNK
