# created with PyMOL 2.3.2
@<TRIPOS>MOLECULE
333
49 52 1                 
SMALL
USER_CHARGES
@<TRIPOS>ATOM
1	  Br	-0.807	5.420	-9.063	Br	1	UNK0	0.000	
2	   C	-0.767	4.440	-7.423	C.2	1	UNK0	0.000	
3	   C	-1.687	3.430	-7.165	C.2	1	UNK0	0.000	
4	   C	-1.636	2.739	-5.975	C.2	1	UNK0	0.000	
5	   C	-0.702	2.993	-4.996	C.2	1	UNK0	0.000	
6	   C	0.206	3.993	-5.257	C.2	1	UNK0	0.000	
7	   C	0.170	4.696	-6.445	C.2	1	UNK0	0.000	
8	   C	-0.629	2.274	-3.729	C.2	1	UNK0	0.000	
9	   C	-0.452	2.913	-2.513	C.2	1	UNK0	0.000	
10	   O	-0.385	2.272	-1.370	O.3	1	UNK0	0.000	
11	   C	-0.478	0.963	-1.263	C.2	1	UNK0	0.000	
12	   C	-0.656	0.252	-2.430	C.2	1	UNK0	0.000	
13	   C	-0.753	-1.119	-2.305	C.2	1	UNK0	0.000	
14	   C	-0.677	-1.754	-1.083	C.2	1	UNK0	0.000	
15	   C	-0.498	-1.041	0.099	C.2	1	UNK0	0.000	
16	   C	-0.401	0.327	-0.027	C.2	1	UNK0	0.000	
17	   O	-0.424	-1.701	1.314	O.3	1	UNK0	0.000	
18	   C	-0.250	-1.155	2.571	C.3	1	UNK0	0.000	
19	   O	0.965	-1.651	3.078	O.3	1	UNK0	0.000	
20	   C	1.374	-0.920	4.193	C.3	1	UNK0	0.000	
21	   C	0.362	-1.181	5.295	C.3	1	UNK0	0.000	
22	   C	-1.034	-0.805	4.851	C.3	1	UNK0	0.000	
23	   C	-1.343	-1.525	3.550	C.3	1	UNK0	0.000	
24	   O	-1.370	-2.881	3.819	O.3	1	UNK0	0.000	
25	   O	-1.912	-1.194	5.863	O.3	1	UNK0	0.000	
26	   O	0.743	-0.397	6.386	O.3	1	UNK0	0.000	
27	   C	2.682	-1.542	4.658	C.3	1	UNK0	0.000	
28	   O	2.370	-2.885	4.969	O.3	1	UNK0	0.000	
29	   C	-0.731	0.896	-3.649	C.2	1	UNK0	0.000	
30	   O	-0.894	0.228	-4.712	O.2	1	UNK0	0.000	
31	   H	-2.420	3.231	-7.933	 H	1	UNK0	0.000	
32	   H	-2.365	1.964	-5.807	 H	1	UNK0	0.000	
33	   H	0.960	4.226	-4.515	 H	1	UNK0	0.000	
34	   H	0.886	5.483	-6.650	 H	1	UNK0	0.000	
35	   H	-0.368	4.009	-2.547	 H	1	UNK0	0.000	
36	   H	-0.893	-1.683	-3.225	 H	1	UNK0	0.000	
37	   H	-0.755	-2.844	-0.995	 H	1	UNK0	0.000	
38	   H	-0.260	0.943	0.855	 H	1	UNK0	0.000	
39	   H	-0.160	-0.065	2.597	 H	1	UNK0	0.000	
40	   H	1.476	0.147	3.994	 H	1	UNK0	0.000	
41	   H	0.358	-2.239	5.557	 H	1	UNK0	0.000	
42	   H	-1.124	0.301	4.747	 H	1	UNK0	0.000	
43	   H	-2.319	-1.138	3.195	 H	1	UNK0	0.000	
44	   H	-0.612	-3.370	3.384	 H	1	UNK0	0.000	
45	   H	-2.826	-0.909	5.678	 H	1	UNK0	0.000	
46	   H	0.498	0.551	6.263	 H	1	UNK0	0.000	
47	   H	3.380	-1.503	3.806	 H	1	UNK0	0.000	
48	   H	3.075	-1.030	5.570	 H	1	UNK0	0.000	
49	   H	3.180	-3.366	5.248	 H	1	UNK0	0.000	
@<TRIPOS>BOND
1 1 2 1
2 2 3 2
3 2 7 1
4 3 4 1
5 4 5 2
6 5 6 1
7 5 8 1
8 6 7 2
9 8 9 2
10 8 29 1
11 9 10 1
12 10 11 1
13 11 12 2
14 11 16 1
15 12 13 1
16 12 29 1
17 13 14 2
18 14 15 1
19 15 16 2
20 15 17 1
21 17 18 1
22 18 19 1
23 18 23 1
24 19 20 1
25 20 21 1
26 20 27 1
27 21 22 1
28 21 26 1
29 22 23 1
30 22 25 1
31 23 24 1
32 27 28 1
33 29 30 2
34 3 31 1
35 4 32 1
36 6 33 1
37 7 34 1
38 9 35 1
39 13 36 1
40 14 37 1
41 16 38 1
42 18 39 1
43 20 40 1
44 21 41 1
45 22 42 1
46 23 43 1
47 24 44 1
48 25 45 1
49 26 46 1
50 27 47 1
51 27 48 1
52 28 49 1
@<TRIPOS>SUBSTRUCTURE
1	UNK0	1	GROUP	1 ****	UNK
