# created with PyMOL 2.3.2
@<TRIPOS>MOLECULE
334
39 43 1                 
SMALL
USER_CHARGES
@<TRIPOS>ATOM
1	  Br	0.138	-4.289	-3.288	Br	1	UNK0	0.000	
2	   C	0.290	-2.530	-2.545	C.2	1	UNK0	0.000	
3	   C	0.642	-2.316	-1.235	C.2	1	UNK0	0.000	
4	   C	0.743	-1.010	-0.727	C.2	1	UNK0	0.000	
5	   C	0.496	0.062	-1.514	C.2	1	UNK0	0.000	
6	   C	0.140	-0.206	-2.844	C.2	1	UNK0	0.000	
7	   C	0.036	-1.460	-3.359	C.2	1	UNK0	0.000	
8	   C	0.550	1.445	-1.143	C.2	1	UNK0	0.000	
9	   C	1.382	1.997	-0.297	C.2	1	UNK0	0.000	
10	   C	0.978	3.468	-0.318	C.3	1	UNK0	0.000	
11	   O	-0.348	3.362	-0.500	O.3	1	UNK0	0.000	
12	   N	-0.341	2.505	-1.592	N.pl3	1	UNK0	0.000	
13	   C	1.563	3.887	0.967	C.3	1	UNK0	0.000	
14	   O	2.879	3.363	0.711	O.3	1	UNK0	0.000	
15	   C	2.485	1.987	0.674	C.3	1	UNK0	0.000	
16	   C	2.089	1.910	2.114	C.3	1	UNK0	0.000	
17	   C	1.139	3.127	2.175	C.3	1	UNK0	0.000	
18	   C	-0.183	2.499	2.118	C.2	1	UNK0	0.000	
19	   O	-1.266	3.093	1.941	O.2	1	UNK0	0.000	
20	   N	-0.066	1.085	2.296	N.pl3	1	UNK0	0.000	
21	   C	1.317	0.775	2.546	C.2	1	UNK0	0.000	
22	   O	1.732	-0.287	3.045	O.2	1	UNK0	0.000	
23	   C	-1.150	0.122	2.233	C.3	1	UNK0	0.000	
24	   C	-1.775	-0.075	3.582	C.3	1	UNK0	0.000	
25	   H	0.841	-3.147	-0.592	 H	1	UNK0	0.000	
26	   H	1.021	-0.853	0.296	 H	1	UNK0	0.000	
27	   H	-0.073	0.623	-3.530	 H	1	UNK0	0.000	
28	   H	-0.248	-1.606	-4.413	 H	1	UNK0	0.000	
29	   H	1.526	3.974	-1.151	 H	1	UNK0	0.000	
30	   H	-0.818	2.562	-2.489	 H	1	UNK0	0.000	
31	   H	1.632	4.979	1.121	 H	1	UNK0	0.000	
32	   H	3.306	1.339	0.378	 H	1	UNK0	0.000	
33	   H	2.988	2.136	2.723	 H	1	UNK0	0.000	
34	   H	1.286	3.686	3.122	 H	1	UNK0	0.000	
35	   H	-1.939	0.412	1.522	 H	1	UNK0	0.000	
36	   H	-0.743	-0.894	1.945	 H	1	UNK0	0.000	
37	   H	-1.609	0.813	4.235	 H	1	UNK0	0.000	
38	   H	-2.886	-0.189	3.501	 H	1	UNK0	0.000	
39	   H	-1.412	-0.988	4.097	 H	1	UNK0	0.000	
@<TRIPOS>BOND
1 1 2 1
2 2 3 2
3 2 7 1
4 3 4 1
5 4 5 2
6 5 6 1
7 5 8 1
8 6 7 2
9 8 9 2
10 8 12 1
11 9 10 1
12 9 15 1
13 10 11 1
14 10 13 1
15 11 12 1
16 13 14 1
17 13 17 1
18 14 15 1
19 15 16 1
20 16 17 1
21 16 21 1
22 17 18 1
23 18 19 2
24 18 20 1
25 20 21 1
26 20 23 1
27 21 22 2
28 23 24 1
29 3 25 1
30 4 26 1
31 6 27 1
32 7 28 1
33 10 29 1
34 12 30 1
35 13 31 1
36 15 32 1
37 16 33 1
38 17 34 1
39 23 35 1
40 23 36 1
41 24 37 1
42 24 38 1
43 24 39 1
@<TRIPOS>SUBSTRUCTURE
1	UNK0	1	GROUP	1 ****	UNK
