# created with PyMOL 2.3.2
@<TRIPOS>MOLECULE
335
36 40 1                 
SMALL
USER_CHARGES
@<TRIPOS>ATOM
1	  Br	-5.484	1.253	-3.932	Br	1	UNK0	0.000	
2	   C	-4.138	0.677	-2.717	C.2	1	UNK0	0.000	
3	   C	-3.916	-0.657	-2.457	C.2	1	UNK0	0.000	
4	   C	-2.924	-1.045	-1.568	C.2	1	UNK0	0.000	
5	   C	-2.116	-0.143	-0.906	C.2	1	UNK0	0.000	
6	   C	-2.335	1.189	-1.165	C.2	1	UNK0	0.000	
7	   C	-3.315	1.590	-2.043	C.2	1	UNK0	0.000	
8	   C	-1.077	-0.594	0.037	C.2	1	UNK0	0.000	
9	   C	0.134	-0.193	0.188	C.2	1	UNK0	0.000	
10	   C	0.721	-1.032	1.326	C.3	1	UNK0	0.000	
11	   O	-0.051	-2.159	1.318	O.3	1	UNK0	0.000	
12	   N	-1.314	-1.690	0.963	N.pl3	1	UNK0	0.000	
13	   C	2.116	-1.091	0.852	C.3	1	UNK0	0.000	
14	   O	2.157	-0.514	-0.456	O.3	1	UNK0	0.000	
15	   C	1.296	0.609	-0.159	C.3	1	UNK0	0.000	
16	   C	1.974	1.228	1.038	C.3	1	UNK0	0.000	
17	   C	2.863	0.082	1.535	C.3	1	UNK0	0.000	
18	   C	4.152	0.224	0.812	C.2	1	UNK0	0.000	
19	   O	5.112	-0.561	0.903	O.2	1	UNK0	0.000	
20	   N	4.073	1.391	0.021	N.pl3	1	UNK0	0.000	
21	   C	3.010	2.179	0.559	C.2	1	UNK0	0.000	
22	   O	2.984	3.458	0.604	O.2	1	UNK0	0.000	
23	   C	4.904	1.747	-1.144	C.3	1	UNK0	0.000	
24	   H	-4.558	-1.362	-2.983	 H	1	UNK0	0.000	
25	   H	-2.770	-2.101	-1.381	 H	1	UNK0	0.000	
26	   H	-1.717	1.932	-0.660	 H	1	UNK0	0.000	
27	   H	-3.507	2.642	-2.260	 H	1	UNK0	0.000	
28	   H	0.646	-0.435	2.273	 H	1	UNK0	0.000	
29	   H	-2.215	-2.043	1.285	 H	1	UNK0	0.000	
30	   H	2.631	-2.028	0.929	 H	1	UNK0	0.000	
31	   H	1.203	1.254	-1.013	 H	1	UNK0	0.000	
32	   H	1.320	1.617	1.805	 H	1	UNK0	0.000	
33	   H	2.921	-0.011	2.605	 H	1	UNK0	0.000	
34	   H	5.036	2.832	-1.140	 H	1	UNK0	0.000	
35	   H	4.444	1.417	-2.098	 H	1	UNK0	0.000	
36	   H	5.851	1.177	-1.007	 H	1	UNK0	0.000	
@<TRIPOS>BOND
1 1 2 1
2 2 3 2
3 2 7 1
4 3 4 1
5 4 5 2
6 5 6 1
7 5 8 1
8 6 7 2
9 8 9 2
10 8 12 1
11 9 10 1
12 9 15 1
13 10 11 1
14 10 13 1
15 11 12 1
16 13 14 1
17 13 17 1
18 14 15 1
19 15 16 1
20 16 17 1
21 16 21 1
22 17 18 1
23 18 19 2
24 18 20 1
25 20 21 1
26 20 23 1
27 21 22 2
28 3 24 1
29 4 25 1
30 6 26 1
31 7 27 1
32 10 28 1
33 12 29 1
34 13 30 1
35 15 31 1
36 16 32 1
37 17 33 1
38 23 34 1
39 23 35 1
40 23 36 1
@<TRIPOS>SUBSTRUCTURE
1	UNK0	1	GROUP	1 ****	UNK
