# created with PyMOL 2.3.2
@<TRIPOS>MOLECULE
336
58 61 1                 
SMALL
USER_CHARGES
@<TRIPOS>ATOM
1	  Br	2.520	-4.263	6.483	Br	1	UNK0	0.000	
2	   C	2.026	-3.700	4.729	C.2	1	UNK0	0.000	
3	   C	2.231	-2.397	4.372	C.2	1	UNK0	0.000	
4	   C	1.873	-1.984	3.097	C.2	1	UNK0	0.000	
5	   C	1.328	-2.831	2.197	C.2	1	UNK0	0.000	
6	   C	1.143	-4.148	2.615	C.2	1	UNK0	0.000	
7	   C	1.477	-4.617	3.865	C.2	1	UNK0	0.000	
8	   C	0.996	-2.554	0.808	C.2	1	UNK0	0.000	
9	   N	0.075	-3.382	0.220	N.pl3	1	UNK0	0.000	
10	   C	-0.239	-3.357	-1.075	C.2	1	UNK0	0.000	
11	   C	0.408	-2.436	-1.861	C.2	1	UNK0	0.000	
12	   C	0.077	-2.411	-3.213	C.2	1	UNK0	0.000	
13	   C	-0.858	-3.266	-3.755	C.2	1	UNK0	0.000	
14	   C	-1.501	-4.186	-2.956	C.2	1	UNK0	0.000	
15	   C	-1.184	-4.223	-1.618	C.2	1	UNK0	0.000	
16	   C	1.330	-1.591	-1.316	C.2	1	UNK0	0.000	
17	   O	1.903	-0.762	-2.063	O.2	1	UNK0	0.000	
18	   N	1.611	-1.666	0.038	N.pl3	1	UNK0	0.000	
19	   C	2.513	-0.648	0.497	C.3	1	UNK0	0.000	
20	   C	1.898	0.717	0.551	C.3	1	UNK0	0.000	
21	   C	0.687	0.960	1.326	C.3	1	UNK0	0.000	
22	   C	0.145	2.371	1.343	C.3	1	UNK0	0.000	
23	   O	-0.200	3.005	0.241	O.3	1	UNK0	0.000	
24	   C	0.148	3.547	-0.914	C.2	1	UNK0	0.000	
25	   C	-0.860	4.093	-1.742	C.2	1	UNK0	0.000	
26	   C	-0.541	4.659	-2.943	C.2	1	UNK0	0.000	
27	   C	0.751	4.729	-3.409	C.2	1	UNK0	0.000	
28	   C	1.735	4.203	-2.614	C.2	1	UNK0	0.000	
29	   C	1.453	3.626	-1.399	C.2	1	UNK0	0.000	
30	   C	1.050	5.359	-4.733	C.3	1	UNK0	0.000	
31	   O	-2.172	4.021	-1.268	O.3	1	UNK0	0.000	
32	   C	-3.271	4.515	-1.967	C.3	1	UNK0	0.000	
33	   H	2.676	-1.669	5.081	 H	1	UNK0	0.000	
34	   H	2.033	-0.949	2.885	 H	1	UNK0	0.000	
35	   H	0.727	-4.919	1.944	 H	1	UNK0	0.000	
36	   H	1.314	-5.662	4.152	 H	1	UNK0	0.000	
37	   H	-0.442	-4.068	0.829	 H	1	UNK0	0.000	
38	   H	0.612	-1.665	-3.809	 H	1	UNK0	0.000	
39	   H	-1.091	-3.220	-4.810	 H	1	UNK0	0.000	
40	   H	-2.243	-4.865	-3.383	 H	1	UNK0	0.000	
41	   H	-1.677	-4.937	-0.971	 H	1	UNK0	0.000	
42	   H	3.232	-0.910	1.265	 H	1	UNK0	0.000	
43	   H	3.258	-0.539	-0.417	 H	1	UNK0	0.000	
44	   H	2.687	1.459	0.853	 H	1	UNK0	0.000	
45	   H	1.665	0.973	-0.550	 H	1	UNK0	0.000	
46	   H	0.700	0.660	2.408	 H	1	UNK0	0.000	
47	   H	-0.173	0.331	0.918	 H	1	UNK0	0.000	
48	   H	0.865	2.996	1.985	 H	1	UNK0	0.000	
49	   H	-0.762	2.292	2.054	 H	1	UNK0	0.000	
50	   H	-1.330	5.073	-3.563	 H	1	UNK0	0.000	
51	   H	2.757	4.254	-2.972	 H	1	UNK0	0.000	
52	   H	2.270	3.224	-0.773	 H	1	UNK0	0.000	
53	   H	2.096	5.684	-4.778	 H	1	UNK0	0.000	
54	   H	0.922	4.606	-5.564	 H	1	UNK0	0.000	
55	   H	0.386	6.209	-4.949	 H	1	UNK0	0.000	
56	   H	-3.206	5.623	-2.159	 H	1	UNK0	0.000	
57	   H	-4.166	4.395	-1.316	 H	1	UNK0	0.000	
58	   H	-3.409	3.968	-2.923	 H	1	UNK0	0.000	
@<TRIPOS>BOND
1 1 2 1
2 2 3 2
3 2 7 1
4 3 4 1
5 4 5 2
6 5 6 1
7 5 8 1
8 6 7 2
9 8 9 2
10 8 18 1
11 9 10 1
12 10 11 2
13 10 15 1
14 11 12 1
15 11 16 1
16 12 13 2
17 13 14 1
18 14 15 2
19 16 17 2
20 16 18 1
21 18 19 1
22 19 20 1
23 20 21 1
24 21 22 1
25 22 23 1
26 23 24 1
27 24 25 2
28 24 29 1
29 25 26 1
30 25 31 1
31 26 27 2
32 27 28 1
33 27 30 1
34 28 29 2
35 31 32 1
36 3 33 1
37 4 34 1
38 6 35 1
39 7 36 1
40 9 37 1
41 12 38 1
42 13 39 1
43 14 40 1
44 15 41 1
45 19 42 1
46 19 43 1
47 20 44 1
48 20 45 1
49 21 46 1
50 21 47 1
51 22 48 1
52 22 49 1
53 26 50 1
54 28 51 1
55 29 52 1
56 30 53 1
57 30 54 1
58 30 55 1
59 32 56 1
60 32 57 1
61 32 58 1
@<TRIPOS>SUBSTRUCTURE
1	UNK0	1	GROUP	1 ****	UNK
