# created with PyMOL 2.3.2
@<TRIPOS>MOLECULE
337
33 36 1                 
SMALL
USER_CHARGES
@<TRIPOS>ATOM
1	  Br	3.126	-3.576	4.221	Br	1	UNK0	0.000	
2	   C	2.366	-2.312	2.985	C.2	1	UNK0	0.000	
3	   C	2.450	-0.966	3.227	C.2	1	UNK0	0.000	
4	   C	1.905	-0.064	2.341	C.2	1	UNK0	0.000	
5	   C	1.257	-0.446	1.184	C.2	1	UNK0	0.000	
6	   C	1.195	-1.819	0.978	C.2	1	UNK0	0.000	
7	   C	1.726	-2.730	1.840	C.2	1	UNK0	0.000	
8	   C	0.689	0.528	0.264	C.3	1	UNK0	0.000	
9	   C	-0.495	0.524	-0.467	C.3	1	UNK0	0.000	
10	   C	-0.975	1.152	-1.724	C.3	1	UNK0	0.000	
11	   N	-0.805	-0.088	-2.531	N.2	1	UNK0	0.000	
12	   C	0.300	-0.627	-2.132	C.2	1	UNK0	0.000	
13	   C	0.873	0.182	-1.120	C.3	1	UNK0	0.000	
14	   C	1.617	1.284	-1.806	C.1	1	UNK0	0.000	
15	   N	2.225	2.150	-2.332	N.1	1	UNK0	0.000	
16	   N	0.787	-1.860	-2.692	N.pl3	1	UNK0	0.000	
17	   O	-2.352	1.399	-1.569	O.3	1	UNK0	0.000	
18	   C	-2.583	2.675	-2.077	C.3	1	UNK0	0.000	
19	   C	-1.383	2.846	-2.984	C.3	1	UNK0	0.000	
20	   O	-0.387	2.243	-2.203	O.3	1	UNK0	0.000	
21	   C	-1.372	-0.663	-0.185	C.1	1	UNK0	0.000	
22	   N	-2.047	-1.601	0.054	N.1	1	UNK0	0.000	
23	   H	2.960	-0.634	4.140	 H	1	UNK0	0.000	
24	   H	2.006	0.990	2.592	 H	1	UNK0	0.000	
25	   H	0.699	-2.133	0.090	 H	1	UNK0	0.000	
26	   H	1.635	-3.779	1.606	 H	1	UNK0	0.000	
27	   H	0.888	1.584	0.641	 H	1	UNK0	0.000	
28	   H	1.694	-1.821	-3.180	 H	1	UNK0	0.000	
29	   H	0.196	-2.699	-2.566	 H	1	UNK0	0.000	
30	   H	-2.520	3.457	-1.272	 H	1	UNK0	0.000	
31	   H	-3.539	2.731	-2.636	 H	1	UNK0	0.000	
32	   H	-1.156	3.897	-3.211	 H	1	UNK0	0.000	
33	   H	-1.542	2.210	-3.871	 H	1	UNK0	0.000	
@<TRIPOS>BOND
1 1 2 1
2 2 3 2
3 2 7 1
4 3 4 1
5 4 5 2
6 5 6 1
7 5 8 1
8 6 7 2
9 8 9 1
10 8 13 1
11 9 10 1
12 9 13 1
13 9 21 1
14 10 11 1
15 10 17 1
16 10 20 1
17 11 12 2
18 12 13 1
19 12 16 1
20 13 14 1
21 14 15 3
22 17 18 1
23 18 19 1
24 19 20 1
25 21 22 3
26 3 23 1
27 4 24 1
28 6 25 1
29 7 26 1
30 8 27 1
31 16 28 1
32 16 29 1
33 18 30 1
34 18 31 1
35 19 32 1
36 19 33 1
@<TRIPOS>SUBSTRUCTURE
1	UNK0	1	GROUP	1 ****	UNK
