# created with PyMOL 2.3.2
@<TRIPOS>MOLECULE
338
47 49 1                 
SMALL
USER_CHARGES
@<TRIPOS>ATOM
1	  Br	-1.732	-0.603	-5.089	Br	1	UNK0	0.000	
2	   C	-0.857	-0.781	-3.371	C.2	1	UNK0	0.000	
3	   C	0.388	-0.248	-3.180	C.2	1	UNK0	0.000	
4	   C	1.029	-0.360	-1.971	C.2	1	UNK0	0.000	
5	   C	0.431	-1.015	-0.920	C.2	1	UNK0	0.000	
6	   C	-0.830	-1.547	-1.137	C.2	1	UNK0	0.000	
7	   C	-1.472	-1.436	-2.340	C.2	1	UNK0	0.000	
8	   C	1.128	-1.140	0.418	C.3	1	UNK0	0.000	
9	   C	0.548	-0.070	1.253	C.2	1	UNK0	0.000	
10	   C	-0.123	-0.366	2.402	C.2	1	UNK0	0.000	
11	   C	-0.654	0.682	3.156	C.2	1	UNK0	0.000	
12	   C	-0.515	1.983	2.770	C.2	1	UNK0	0.000	
13	   C	0.164	2.254	1.611	C.2	1	UNK0	0.000	
14	   C	0.701	1.265	0.840	C.2	1	UNK0	0.000	
15	   O	-1.039	3.007	3.516	O.2	1	UNK0	0.000	
16	   O	-0.296	-1.681	2.846	O.3	1	UNK0	0.000	
17	   C	0.246	-2.688	2.068	C.2	1	UNK0	0.000	
18	   C	0.901	-2.472	0.956	C.2	1	UNK0	0.000	
19	   C	1.443	-3.609	0.194	C.1	1	UNK0	0.000	
20	   N	1.877	-4.489	-0.417	N.1	1	UNK0	0.000	
21	   N	0.111	-4.075	2.459	N.pl3	1	UNK0	0.000	
22	   N	0.387	-0.862	1.332	N.4	1	UNK0	0.000	
23	   C	-0.095	0.427	1.729	C.3	1	UNK0	0.000	
24	   C	-1.066	0.901	0.659	C.3	1	UNK0	0.000	
25	   O	-2.137	0.014	0.673	O.3	1	UNK0	0.000	
26	   C	-1.714	-1.164	0.088	C.3	1	UNK0	0.000	
27	   C	-0.245	-1.400	0.169	C.3	1	UNK0	0.000	
28	   H	0.859	0.275	-4.027	 H	1	UNK0	0.000	
29	   H	2.033	0.076	-1.847	 H	1	UNK0	0.000	
30	   H	-1.284	-2.063	-0.284	 H	1	UNK0	0.000	
31	   H	-2.440	-1.858	-2.471	 H	1	UNK0	0.000	
32	   H	2.226	-0.927	0.261	 H	1	UNK0	0.000	
33	   H	-1.187	0.400	4.072	 H	1	UNK0	0.000	
34	   H	0.302	3.289	1.260	 H	1	UNK0	0.000	
35	   H	1.237	1.442	-0.069	 H	1	UNK0	0.000	
36	   H	-0.078	-4.775	1.719	 H	1	UNK0	0.000	
37	   H	0.197	-4.385	3.447	 H	1	UNK0	0.000	
38	   H	1.422	-0.750	1.129	 H	1	UNK0	0.000	
39	   H	0.230	-1.545	2.119	 H	1	UNK0	0.000	
40	   H	-0.682	0.346	2.674	 H	1	UNK0	0.000	
41	   H	0.695	1.195	1.807	 H	1	UNK0	0.000	
42	   H	-1.373	1.956	0.813	 H	1	UNK0	0.000	
43	   H	-0.625	0.854	-0.357	 H	1	UNK0	0.000	
44	   H	-2.011	-1.101	-0.997	 H	1	UNK0	0.000	
45	   H	-2.297	-2.027	0.490	 H	1	UNK0	0.000	
46	   H	-0.085	-2.516	0.197	 H	1	UNK0	0.000	
47	   H	0.292	-1.045	-0.746	 H	1	UNK0	0.000	
@<TRIPOS>BOND
1 1 2 1
2 2 3 2
3 2 7 1
4 3 4 1
5 4 5 2
6 5 6 1
7 5 8 1
8 6 7 2
9 8 9 1
10 8 18 1
11 9 10 1
12 9 14 2
13 10 11 2
14 10 16 1
15 11 12 1
16 12 13 2
17 12 15 1
18 13 14 1
19 16 17 1
20 17 18 2
21 17 21 1
22 18 19 1
23 19 20 3
24 22 23 1
25 22 27 1
26 23 24 1
27 24 25 1
28 25 26 1
29 26 27 1
30 3 28 1
31 4 29 1
32 6 30 1
33 7 31 1
34 8 32 1
35 11 33 1
36 13 34 1
37 14 35 1
38 21 36 1
39 21 37 1
40 22 38 1
41 22 39 1
42 23 40 1
43 23 41 1
44 24 42 1
45 24 43 1
46 26 44 1
47 26 45 1
48 27 46 1
49 27 47 1
@<TRIPOS>SUBSTRUCTURE
1	UNK0	1	GROUP	1 ****	UNK
