# created with PyMOL 2.3.2
@<TRIPOS>MOLECULE
340
40 43 1                 
SMALL
USER_CHARGES
@<TRIPOS>ATOM
1	  Br	-1.914	-3.455	4.093	Br	1	UNK0	0.000	
2	   C	-1.555	-2.127	2.739	C.2	1	UNK0	0.000	
3	   C	-2.299	-2.063	1.602	C.2	1	UNK0	0.000	
4	   C	-2.024	-1.113	0.659	C.2	1	UNK0	0.000	
5	   C	-0.998	-0.187	0.807	C.2	1	UNK0	0.000	
6	   C	-0.274	-0.281	1.955	C.2	1	UNK0	0.000	
7	   C	-0.535	-1.242	2.934	C.2	1	UNK0	0.000	
8	   C	-0.764	0.814	-0.301	C.3	1	UNK0	0.000	
9	   C	0.700	0.899	-0.508	C.2	1	UNK0	0.000	
10	   C	1.320	-0.045	-1.290	C.2	1	UNK0	0.000	
11	   N	0.533	-0.862	-2.165	N.pl3	1	UNK0	0.000	
12	   C	-0.877	-0.685	-2.240	C.2	1	UNK0	0.000	
13	   C	-1.407	0.247	-1.495	C.2	1	UNK0	0.000	
14	   C	-2.719	0.566	-2.094	C.2	1	UNK0	0.000	
15	   O	-3.533	1.420	-1.660	O.co2	1	UNK0	0.000	
16	   O	-2.870	-0.261	-3.225	O.3	1	UNK0	0.000	
17	   C	-1.979	-1.347	-3.028	C.3	1	UNK0	0.000	
18	   N	2.668	-0.090	-1.374	N.pl3	1	UNK0	0.000	
19	   C	3.369	0.831	-0.666	C.2	1	UNK0	0.000	
20	   O	4.621	0.773	-0.756	O.2	1	UNK0	0.000	
21	   N	2.790	1.768	0.100	N.pl3	1	UNK0	0.000	
22	   C	1.457	1.839	0.207	C.2	1	UNK0	0.000	
23	   O	0.873	2.706	0.911	O.2	1	UNK0	0.000	
24	   C	3.274	-1.076	-2.196	C.3	1	UNK0	0.000	
25	   C	3.500	-2.318	-1.424	C.2	1	UNK0	0.000	
26	   C	3.135	-2.352	-0.154	C.2	1	UNK0	0.000	
27	   H	-3.099	-2.754	1.444	 H	1	UNK0	0.000	
28	   H	-2.625	-1.076	-0.233	 H	1	UNK0	0.000	
29	   H	0.542	0.412	2.114	 H	1	UNK0	0.000	
30	   H	0.079	-1.263	3.828	 H	1	UNK0	0.000	
31	   H	-1.207	1.794	-0.027	 H	1	UNK0	0.000	
32	   H	1.006	-1.571	-2.722	 H	1	UNK0	0.000	
33	   H	-1.618	-1.634	-4.045	 H	1	UNK0	0.000	
34	   H	-2.428	-2.182	-2.489	 H	1	UNK0	0.000	
35	   H	3.375	2.473	0.637	 H	1	UNK0	0.000	
36	   H	4.336	-0.687	-2.391	 H	1	UNK0	0.000	
37	   H	2.877	-1.213	-3.206	 H	1	UNK0	0.000	
38	   H	3.965	-3.205	-1.893	 H	1	UNK0	0.000	
39	   H	3.270	-3.233	0.479	 H	1	UNK0	0.000	
40	   H	2.683	-1.492	0.304	 H	1	UNK0	0.000	
@<TRIPOS>BOND
1 1 2 1
2 2 3 2
3 2 7 1
4 3 4 1
5 4 5 2
6 5 6 1
7 5 8 1
8 6 7 2
9 8 9 1
10 8 13 1
11 9 10 2
12 9 22 1
13 10 11 1
14 10 18 1
15 11 12 1
16 12 13 2
17 12 17 1
18 13 14 1
19 14 15 2
20 14 16 1
21 16 17 1
22 18 19 1
23 18 24 1
24 19 20 2
25 19 21 1
26 21 22 1
27 22 23 2
28 24 25 1
29 25 26 2
30 3 27 1
31 4 28 1
32 6 29 1
33 7 30 1
34 8 31 1
35 11 32 1
36 17 33 1
37 17 34 1
38 21 35 1
39 24 36 1
40 24 37 1
41 25 38 1
42 26 39 1
43 26 40 1
@<TRIPOS>SUBSTRUCTURE
1	UNK0	1	GROUP	1 ****	UNK
