# created with PyMOL 2.3.2
@<TRIPOS>MOLECULE
341
36 39 1                 
SMALL
USER_CHARGES
@<TRIPOS>ATOM
1	  Br	-4.187	-2.375	1.406	Br	1	UNK0	0.000	
2	   C	-2.345	-1.890	1.155	C.2	1	UNK0	0.000	
3	   C	-1.774	-2.092	-0.072	C.2	1	UNK0	0.000	
4	   C	-0.436	-1.749	-0.285	C.2	1	UNK0	0.000	
5	   C	0.343	-1.203	0.719	C.2	1	UNK0	0.000	
6	   C	-0.244	-1.012	1.924	C.2	1	UNK0	0.000	
7	   C	-1.592	-1.352	2.155	C.2	1	UNK0	0.000	
8	   C	1.772	-0.843	0.412	C.3	1	UNK0	0.000	
9	   C	2.000	0.516	0.968	C.2	1	UNK0	0.000	
10	   C	1.609	1.608	0.274	C.2	1	UNK0	0.000	
11	   N	1.313	1.529	-1.111	N.pl3	1	UNK0	0.000	
12	   C	1.457	0.270	-1.764	C.2	1	UNK0	0.000	
13	   C	1.868	-0.776	-1.066	C.2	1	UNK0	0.000	
14	   C	2.386	-1.753	-2.022	C.2	1	UNK0	0.000	
15	   O	2.879	-2.890	-1.811	O.co2	1	UNK0	0.000	
16	   O	2.238	-1.188	-3.291	O.3	1	UNK0	0.000	
17	   C	1.239	-0.167	-3.170	C.3	1	UNK0	0.000	
18	   N	1.692	2.829	0.888	N.pl3	1	UNK0	0.000	
19	   C	2.153	2.954	2.142	C.2	1	UNK0	0.000	
20	   O	2.225	4.079	2.698	O.2	1	UNK0	0.000	
21	   N	2.551	1.875	2.835	N.pl3	1	UNK0	0.000	
22	   C	2.485	0.664	2.275	C.2	1	UNK0	0.000	
23	   O	2.858	-0.351	2.908	O.2	1	UNK0	0.000	
24	   C	1.257	3.964	0.111	C.3	1	UNK0	0.000	
25	   H	-2.371	-2.519	-0.869	 H	1	UNK0	0.000	
26	   H	0.001	-1.916	-1.250	 H	1	UNK0	0.000	
27	   H	0.286	-0.584	2.762	 H	1	UNK0	0.000	
28	   H	-2.024	-1.189	3.118	 H	1	UNK0	0.000	
29	   H	2.482	-1.532	0.861	 H	1	UNK0	0.000	
30	   H	0.997	2.388	-1.620	 H	1	UNK0	0.000	
31	   H	1.523	0.613	-3.904	 H	1	UNK0	0.000	
32	   H	0.237	-0.545	-3.365	 H	1	UNK0	0.000	
33	   H	2.916	2.008	3.830	 H	1	UNK0	0.000	
34	   H	1.940	4.227	-0.709	 H	1	UNK0	0.000	
35	   H	0.254	3.798	-0.291	 H	1	UNK0	0.000	
36	   H	1.185	4.836	0.804	 H	1	UNK0	0.000	
@<TRIPOS>BOND
1 1 2 1
2 2 3 2
3 2 7 1
4 3 4 1
5 4 5 2
6 5 6 1
7 5 8 1
8 6 7 2
9 8 9 1
10 8 13 1
11 9 10 2
12 9 22 1
13 10 11 1
14 10 18 1
15 11 12 1
16 12 13 2
17 12 17 1
18 13 14 1
19 14 15 2
20 14 16 1
21 16 17 1
22 18 19 1
23 18 24 1
24 19 20 2
25 19 21 1
26 21 22 1
27 22 23 2
28 3 25 1
29 4 26 1
30 6 27 1
31 7 28 1
32 8 29 1
33 11 30 1
34 17 31 1
35 17 32 1
36 21 33 1
37 24 34 1
38 24 35 1
39 24 36 1
@<TRIPOS>SUBSTRUCTURE
1	UNK0	1	GROUP	1 ****	UNK
