# created with PyMOL 2.3.2
@<TRIPOS>MOLECULE
348
53 56 1                 
SMALL
USER_CHARGES
@<TRIPOS>ATOM
1	  Br	4.595	2.579	-0.037	Br	1	UNK0	0.000	
2	   C	2.877	1.766	0.068	C.2	1	UNK0	0.000	
3	   C	2.432	1.170	1.237	C.2	1	UNK0	0.000	
4	   C	1.191	0.582	1.311	C.2	1	UNK0	0.000	
5	   C	0.329	0.564	0.209	C.2	1	UNK0	0.000	
6	   C	0.795	1.160	-0.931	C.2	1	UNK0	0.000	
7	   C	2.052	1.758	-1.016	C.2	1	UNK0	0.000	
8	   C	-0.996	-0.043	0.264	C.3	1	UNK0	0.000	
9	   N	-1.273	-0.858	-0.876	N.pl3	1	UNK0	0.000	
10	   C	-1.800	-0.039	-1.930	C.2	1	UNK0	0.000	
11	   O	-1.872	-0.251	-3.157	O.2	1	UNK0	0.000	
12	   C	-2.283	1.195	-1.275	C.2	1	UNK0	0.000	
13	   O	-2.812	2.173	-1.844	O.2	1	UNK0	0.000	
14	   C	-2.024	1.055	0.148	C.2	1	UNK0	0.000	
15	   C	-2.557	1.768	1.099	C.2	1	UNK0	0.000	
16	   O	-2.156	1.530	2.429	O.2	1	UNK0	0.000	
17	   C	-3.543	2.786	0.864	C.2	1	UNK0	0.000	
18	   C	-4.676	2.637	0.124	C.2	1	UNK0	0.000	
19	   C	-5.528	3.707	-0.047	C.2	1	UNK0	0.000	
20	   C	-5.277	4.948	0.513	C.2	1	UNK0	0.000	
21	   C	-4.133	5.123	1.269	C.2	1	UNK0	0.000	
22	   C	-3.297	4.044	1.427	C.2	1	UNK0	0.000	
23	  Br	-6.491	6.411	0.248	Br	1	UNK0	0.000	
24	   C	-1.114	-2.279	-0.997	C.3	1	UNK0	0.000	
25	   C	0.159	-2.784	-1.549	C.3	1	UNK0	0.000	
26	   N	1.364	-2.513	-0.861	N.4	1	UNK0	0.000	
27	   C	1.329	-2.858	0.546	C.3	1	UNK0	0.000	
28	   C	2.727	-2.700	1.103	C.3	1	UNK0	0.000	
29	   O	3.651	-3.541	0.489	O.3	1	UNK0	0.000	
30	   C	3.736	-3.125	-0.851	C.3	1	UNK0	0.000	
31	   C	2.379	-3.411	-1.456	C.3	1	UNK0	0.000	
32	   H	3.114	1.194	2.082	 H	1	UNK0	0.000	
33	   H	0.900	0.135	2.248	 H	1	UNK0	0.000	
34	   H	0.214	1.211	-1.856	 H	1	UNK0	0.000	
35	   H	2.353	2.213	-1.960	 H	1	UNK0	0.000	
36	   H	-1.118	-0.579	1.234	 H	1	UNK0	0.000	
37	   H	-4.902	1.662	-0.309	 H	1	UNK0	0.000	
38	   H	-6.437	3.622	-0.631	 H	1	UNK0	0.000	
39	   H	-3.891	6.084	1.731	 H	1	UNK0	0.000	
40	   H	-2.384	4.174	2.027	 H	1	UNK0	0.000	
41	   H	-1.385	-2.786	-0.022	 H	1	UNK0	0.000	
42	   H	-1.933	-2.656	-1.685	 H	1	UNK0	0.000	
43	   H	0.287	-2.350	-2.589	 H	1	UNK0	0.000	
44	   H	0.052	-3.891	-1.777	 H	1	UNK0	0.000	
45	   H	1.731	-1.576	-1.005	 H	1	UNK0	0.000	
46	   H	0.655	-2.248	1.152	 H	1	UNK0	0.000	
47	   H	1.001	-3.912	0.671	 H	1	UNK0	0.000	
48	   H	3.037	-1.640	1.005	 H	1	UNK0	0.000	
49	   H	2.717	-2.899	2.211	 H	1	UNK0	0.000	
50	   H	4.480	-3.723	-1.377	 H	1	UNK0	0.000	
51	   H	3.980	-2.058	-0.942	 H	1	UNK0	0.000	
52	   H	2.073	-4.448	-1.291	 H	1	UNK0	0.000	
53	   H	2.382	-3.188	-2.533	 H	1	UNK0	0.000	
@<TRIPOS>BOND
1 1 2 1
2 2 3 2
3 2 7 1
4 3 4 1
5 4 5 2
6 5 6 1
7 5 8 1
8 6 7 2
9 8 9 1
10 8 14 1
11 9 10 1
12 9 24 1
13 10 11 2
14 10 12 1
15 12 13 2
16 12 14 1
17 14 15 2
18 15 16 1
19 15 17 1
20 17 18 2
21 17 22 1
22 18 19 1
23 19 20 2
24 20 21 1
25 20 23 1
26 21 22 2
27 24 25 1
28 25 26 1
29 26 27 1
30 26 31 1
31 27 28 1
32 28 29 1
33 29 30 1
34 30 31 1
35 3 32 1
36 4 33 1
37 6 34 1
38 7 35 1
39 8 36 1
40 18 37 1
41 19 38 1
42 21 39 1
43 22 40 1
44 24 41 1
45 24 42 1
46 25 43 1
47 25 44 1
48 26 45 1
49 27 46 1
50 27 47 1
51 28 48 1
52 28 49 1
53 30 50 1
54 30 51 1
55 31 52 1
56 31 53 1
@<TRIPOS>SUBSTRUCTURE
1	UNK0	1	GROUP	1 ****	UNK
