# created with PyMOL 2.3.2
@<TRIPOS>MOLECULE
353
57 60 1                 
SMALL
USER_CHARGES
@<TRIPOS>ATOM
1	  Br	-2.938	4.269	-4.105	Br	1	UNK0	0.000	
2	   C	-2.657	2.966	-2.746	C.2	1	UNK0	0.000	
3	   C	-1.502	2.208	-2.691	C.2	1	UNK0	0.000	
4	   C	-1.295	1.270	-1.714	C.2	1	UNK0	0.000	
5	   C	-2.203	1.011	-0.730	C.2	1	UNK0	0.000	
6	   C	-3.382	1.778	-0.778	C.2	1	UNK0	0.000	
7	   C	-3.583	2.718	-1.759	C.2	1	UNK0	0.000	
8	   C	-2.112	0.049	0.348	C.3	1	UNK0	0.000	
9	   N	-2.137	-1.356	0.060	N.pl3	1	UNK0	0.000	
10	   C	-1.567	-2.015	1.252	C.2	1	UNK0	0.000	
11	   O	-1.738	-3.188	1.625	O.2	1	UNK0	0.000	
12	   C	-0.749	-1.042	1.942	C.2	1	UNK0	0.000	
13	   O	-0.089	-1.225	3.020	O.2	1	UNK0	0.000	
14	   C	-0.836	0.183	1.162	C.2	1	UNK0	0.000	
15	   C	-0.002	1.192	1.235	C.2	1	UNK0	0.000	
16	   O	-0.268	2.358	0.482	O.2	1	UNK0	0.000	
17	   C	1.189	1.125	2.073	C.2	1	UNK0	0.000	
18	   C	1.488	2.171	2.954	C.2	1	UNK0	0.000	
19	   C	2.618	2.161	3.739	C.2	1	UNK0	0.000	
20	   C	3.521	1.118	3.700	C.2	1	UNK0	0.000	
21	   C	3.236	0.081	2.834	C.2	1	UNK0	0.000	
22	   C	2.103	0.095	2.050	C.2	1	UNK0	0.000	
23	   O	4.662	1.118	4.498	O.3	1	UNK0	0.000	
24	   C	5.553	0.023	4.418	C.3	1	UNK0	0.000	
25	   C	-2.668	-2.181	-0.970	C.3	1	UNK0	0.000	
26	   C	-1.816	-2.823	-1.966	C.3	1	UNK0	0.000	
27	   N	-1.006	-2.071	-2.853	N.4	1	UNK0	0.000	
28	   C	-0.995	-2.669	-4.199	C.3	1	UNK0	0.000	
29	   C	0.244	-3.493	-4.430	C.3	1	UNK0	0.000	
30	   O	1.397	-2.708	-4.472	O.3	1	UNK0	0.000	
31	   C	1.268	-1.636	-3.568	C.3	1	UNK0	0.000	
32	   C	0.379	-2.075	-2.432	C.3	1	UNK0	0.000	
33	   H	-0.737	2.361	-3.443	 H	1	UNK0	0.000	
34	   H	-0.385	0.724	-1.722	 H	1	UNK0	0.000	
35	   H	-4.170	1.651	-0.039	 H	1	UNK0	0.000	
36	   H	-4.497	3.319	-1.804	 H	1	UNK0	0.000	
37	   H	-2.970	0.218	1.090	 H	1	UNK0	0.000	
38	   H	0.780	2.991	2.985	 H	1	UNK0	0.000	
39	   H	2.847	2.975	4.423	 H	1	UNK0	0.000	
40	   H	3.951	-0.748	2.801	 H	1	UNK0	0.000	
41	   H	1.959	-0.744	1.385	 H	1	UNK0	0.000	
42	   H	4.954	-0.884	4.673	 H	1	UNK0	0.000	
43	   H	6.388	0.103	5.119	 H	1	UNK0	0.000	
44	   H	5.892	-0.119	3.360	 H	1	UNK0	0.000	
45	   H	-3.450	-1.572	-1.532	 H	1	UNK0	0.000	
46	   H	-3.271	-2.996	-0.443	 H	1	UNK0	0.000	
47	   H	-1.200	-3.681	-1.506	 H	1	UNK0	0.000	
48	   H	-2.523	-3.424	-2.646	 H	1	UNK0	0.000	
49	   H	-1.363	-1.109	-2.903	 H	1	UNK0	0.000	
50	   H	-1.889	-3.275	-4.383	 H	1	UNK0	0.000	
51	   H	-0.913	-1.794	-4.905	 H	1	UNK0	0.000	
52	   H	0.146	-3.954	-5.443	 H	1	UNK0	0.000	
53	   H	0.375	-4.326	-3.731	 H	1	UNK0	0.000	
54	   H	0.853	-0.775	-4.135	 H	1	UNK0	0.000	
55	   H	2.280	-1.372	-3.264	 H	1	UNK0	0.000	
56	   H	0.489	-1.443	-1.548	 H	1	UNK0	0.000	
57	   H	0.702	-3.103	-2.145	 H	1	UNK0	0.000	
@<TRIPOS>BOND
1 1 2 1
2 2 3 2
3 2 7 1
4 3 4 1
5 4 5 2
6 5 6 1
7 5 8 1
8 6 7 2
9 8 9 1
10 8 14 1
11 9 10 1
12 9 25 1
13 10 11 2
14 10 12 1
15 12 13 2
16 12 14 1
17 14 15 2
18 15 16 1
19 15 17 1
20 17 18 2
21 17 22 1
22 18 19 1
23 19 20 2
24 20 21 1
25 20 23 1
26 21 22 2
27 23 24 1
28 25 26 1
29 26 27 1
30 27 28 1
31 27 32 1
32 28 29 1
33 29 30 1
34 30 31 1
35 31 32 1
36 3 33 1
37 4 34 1
38 6 35 1
39 7 36 1
40 8 37 1
41 18 38 1
42 19 39 1
43 21 40 1
44 22 41 1
45 24 42 1
46 24 43 1
47 24 44 1
48 25 45 1
49 25 46 1
50 26 47 1
51 26 48 1
52 27 49 1
53 28 50 1
54 28 51 1
55 29 52 1
56 29 53 1
57 31 54 1
58 31 55 1
59 32 56 1
60 32 57 1
@<TRIPOS>SUBSTRUCTURE
1	UNK0	1	GROUP	1 ****	UNK
