# created with PyMOL 2.3.2
@<TRIPOS>MOLECULE
355
63 66 1                 
SMALL
USER_CHARGES
@<TRIPOS>ATOM
1	  Br	2.340	3.985	4.025	Br	1	UNK0	0.000	
2	   C	1.330	2.601	3.178	C.2	1	UNK0	0.000	
3	   C	0.097	2.185	3.659	C.2	1	UNK0	0.000	
4	   C	-0.617	1.182	3.031	C.2	1	UNK0	0.000	
5	   C	-0.133	0.554	1.903	C.2	1	UNK0	0.000	
6	   C	1.094	0.979	1.437	C.2	1	UNK0	0.000	
7	   C	1.825	1.979	2.048	C.2	1	UNK0	0.000	
8	   C	-0.931	-0.507	1.260	C.3	1	UNK0	0.000	
9	   N	-0.152	-1.699	0.941	N.pl3	1	UNK0	0.000	
10	   C	0.015	-1.767	-0.458	C.2	1	UNK0	0.000	
11	   O	0.724	-2.510	-1.181	O.2	1	UNK0	0.000	
12	   C	-0.847	-0.734	-1.080	C.2	1	UNK0	0.000	
13	   O	-0.954	-0.512	-2.293	O.2	1	UNK0	0.000	
14	   C	-1.543	-0.034	-0.016	C.2	1	UNK0	0.000	
15	   C	-2.550	0.817	-0.112	C.2	1	UNK0	0.000	
16	   O	-3.152	1.361	1.038	O.2	1	UNK0	0.000	
17	   C	-3.087	1.247	-1.387	C.2	1	UNK0	0.000	
18	   C	-2.378	1.838	-2.400	C.2	1	UNK0	0.000	
19	   C	-2.942	2.189	-3.603	C.2	1	UNK0	0.000	
20	   C	-4.281	1.942	-3.813	C.2	1	UNK0	0.000	
21	   C	-5.010	1.349	-2.806	C.2	1	UNK0	0.000	
22	   C	-4.451	0.996	-1.601	C.2	1	UNK0	0.000	
23	   O	-4.860	2.301	-5.046	O.3	1	UNK0	0.000	
24	   C	-4.071	2.628	-6.158	C.3	1	UNK0	0.000	
25	   C	-2.798	3.316	-5.779	C.3	1	UNK0	0.000	
26	   O	-2.217	2.777	-4.601	O.3	1	UNK0	0.000	
27	   C	0.367	-2.659	1.900	C.3	1	UNK0	0.000	
28	   C	1.693	-2.362	2.466	C.3	1	UNK0	0.000	
29	   C	2.897	-2.274	1.637	C.3	1	UNK0	0.000	
30	   N	3.425	-3.367	0.945	N.4	1	UNK0	0.000	
31	   C	3.767	-2.970	-0.428	C.3	1	UNK0	0.000	
32	   C	5.238	-2.890	-0.672	C.3	1	UNK0	0.000	
33	   C	2.697	-4.592	0.857	C.3	1	UNK0	0.000	
34	   C	2.549	-5.315	2.175	C.3	1	UNK0	0.000	
35	   H	-0.287	2.674	4.545	 H	1	UNK0	0.000	
36	   H	-1.587	0.904	3.468	 H	1	UNK0	0.000	
37	   H	1.484	0.512	0.568	 H	1	UNK0	0.000	
38	   H	2.800	2.280	1.635	 H	1	UNK0	0.000	
39	   H	-1.704	-0.840	1.981	 H	1	UNK0	0.000	
40	   H	-1.336	2.063	-2.238	 H	1	UNK0	0.000	
41	   H	-6.077	1.160	-2.991	 H	1	UNK0	0.000	
42	   H	-5.066	0.529	-0.833	 H	1	UNK0	0.000	
43	   H	-3.897	1.725	-6.805	 H	1	UNK0	0.000	
44	   H	-4.690	3.333	-6.785	 H	1	UNK0	0.000	
45	   H	-3.055	4.378	-5.521	 H	1	UNK0	0.000	
46	   H	-2.033	3.249	-6.575	 H	1	UNK0	0.000	
47	   H	-0.361	-2.562	2.790	 H	1	UNK0	0.000	
48	   H	0.177	-3.700	1.580	 H	1	UNK0	0.000	
49	   H	1.835	-3.081	3.330	 H	1	UNK0	0.000	
50	   H	1.555	-1.377	3.049	 H	1	UNK0	0.000	
51	   H	2.868	-1.395	0.923	 H	1	UNK0	0.000	
52	   H	3.732	-1.924	2.352	 H	1	UNK0	0.000	
53	   H	4.404	-3.657	1.353	 H	1	UNK0	0.000	
54	   H	3.252	-3.612	-1.173	 H	1	UNK0	0.000	
55	   H	3.351	-1.956	-0.576	 H	1	UNK0	0.000	
56	   H	5.619	-1.842	-0.667	 H	1	UNK0	0.000	
57	   H	5.824	-3.521	0.048	 H	1	UNK0	0.000	
58	   H	5.417	-3.261	-1.717	 H	1	UNK0	0.000	
59	   H	3.390	-5.299	0.258	 H	1	UNK0	0.000	
60	   H	1.802	-4.569	0.233	 H	1	UNK0	0.000	
61	   H	3.315	-4.901	2.883	 H	1	UNK0	0.000	
62	   H	1.536	-5.337	2.580	 H	1	UNK0	0.000	
63	   H	2.848	-6.406	2.103	 H	1	UNK0	0.000	
@<TRIPOS>BOND
1 1 2 1
2 2 3 2
3 2 7 1
4 3 4 1
5 4 5 2
6 5 6 1
7 5 8 1
8 6 7 2
9 8 9 1
10 8 14 1
11 9 10 1
12 9 27 1
13 10 11 2
14 10 12 1
15 12 13 2
16 12 14 1
17 14 15 2
18 15 16 1
19 15 17 1
20 17 18 2
21 17 22 1
22 18 19 1
23 19 20 2
24 19 26 1
25 20 21 1
26 20 23 1
27 21 22 2
28 23 24 1
29 24 25 1
30 25 26 1
31 27 28 1
32 28 29 1
33 29 30 1
34 30 31 1
35 30 33 1
36 31 32 1
37 33 34 1
38 3 35 1
39 4 36 1
40 6 37 1
41 7 38 1
42 8 39 1
43 18 40 1
44 21 41 1
45 22 42 1
46 24 43 1
47 24 44 1
48 25 45 1
49 25 46 1
50 27 47 1
51 27 48 1
52 28 49 1
53 28 50 1
54 29 51 1
55 29 52 1
56 30 53 1
57 31 54 1
58 31 55 1
59 32 56 1
60 32 57 1
61 32 58 1
62 33 59 1
63 33 60 1
64 34 61 1
65 34 62 1
66 34 63 1
@<TRIPOS>SUBSTRUCTURE
1	UNK0	1	GROUP	1 ****	UNK
