# created with PyMOL 2.3.2
@<TRIPOS>MOLECULE
356
57 60 1                 
SMALL
USER_CHARGES
@<TRIPOS>ATOM
1	  Br	3.864	-1.099	4.761	Br	1	UNK0	0.000	
2	   C	3.028	-0.813	3.083	C.2	1	UNK0	0.000	
3	   C	1.780	-0.209	3.069	C.2	1	UNK0	0.000	
4	   C	1.160	0.017	1.837	C.2	1	UNK0	0.000	
5	   C	1.762	-0.351	0.664	C.2	1	UNK0	0.000	
6	   C	2.986	-0.942	0.703	C.2	1	UNK0	0.000	
7	   C	3.621	-1.173	1.917	C.2	1	UNK0	0.000	
8	   C	1.118	-0.080	-0.600	C.3	1	UNK0	0.000	
9	   N	1.270	1.262	-1.088	N.pl3	1	UNK0	0.000	
10	   C	0.334	1.382	-2.162	C.2	1	UNK0	0.000	
11	   O	0.380	2.233	-3.113	O.2	1	UNK0	0.000	
12	   C	-0.675	0.355	-1.961	C.2	1	UNK0	0.000	
13	   O	-1.694	0.103	-2.685	O.2	1	UNK0	0.000	
14	   C	-0.297	-0.366	-0.741	C.2	1	UNK0	0.000	
15	   C	-1.132	-1.153	-0.039	C.2	1	UNK0	0.000	
16	   O	-0.633	-1.872	1.035	O.2	1	UNK0	0.000	
17	   C	-2.541	-1.284	-0.346	C.2	1	UNK0	0.000	
18	   C	-3.152	-2.504	-0.465	C.2	1	UNK0	0.000	
19	   C	-4.496	-2.667	-0.715	C.2	1	UNK0	0.000	
20	   C	-5.254	-1.519	-0.852	C.2	1	UNK0	0.000	
21	   C	-4.644	-0.282	-0.733	C.2	1	UNK0	0.000	
22	   C	-3.292	-0.140	-0.481	C.2	1	UNK0	0.000	
23	   O	-6.601	-1.671	-1.106	O.3	1	UNK0	0.000	
24	   C	-7.267	-2.927	-1.188	C.3	1	UNK0	0.000	
25	   C	-6.502	-3.932	-0.373	C.3	1	UNK0	0.000	
26	   O	-5.144	-3.901	-0.839	O.3	1	UNK0	0.000	
27	   C	2.212	2.319	-0.672	C.3	1	UNK0	0.000	
28	   C	1.633	3.302	0.308	C.3	1	UNK0	0.000	
29	   C	2.632	4.335	0.669	C.3	1	UNK0	0.000	
30	   N	3.832	3.944	1.295	N.4	1	UNK0	0.000	
31	   C	3.808	2.763	2.098	C.3	1	UNK0	0.000	
32	   C	4.896	3.809	0.315	C.3	1	UNK0	0.000	
33	   H	1.280	0.085	3.984	 H	1	UNK0	0.000	
34	   H	0.182	0.510	1.894	 H	1	UNK0	0.000	
35	   H	3.532	-1.270	-0.207	 H	1	UNK0	0.000	
36	   H	4.611	-1.653	1.910	 H	1	UNK0	0.000	
37	   H	1.636	-0.723	-1.389	 H	1	UNK0	0.000	
38	   H	-2.574	-3.424	-0.363	 H	1	UNK0	0.000	
39	   H	-5.256	0.607	-0.844	 H	1	UNK0	0.000	
40	   H	-2.857	0.868	-0.380	 H	1	UNK0	0.000	
41	   H	-7.239	-3.310	-2.253	 H	1	UNK0	0.000	
42	   H	-8.311	-2.814	-0.845	 H	1	UNK0	0.000	
43	   H	-6.919	-4.941	-0.403	 H	1	UNK0	0.000	
44	   H	-6.552	-3.549	0.687	 H	1	UNK0	0.000	
45	   H	2.592	2.879	-1.531	 H	1	UNK0	0.000	
46	   H	3.048	1.797	-0.114	 H	1	UNK0	0.000	
47	   H	0.714	3.773	-0.173	 H	1	UNK0	0.000	
48	   H	1.220	2.743	1.161	 H	1	UNK0	0.000	
49	   H	2.115	5.056	1.366	 H	1	UNK0	0.000	
50	   H	2.834	4.973	-0.238	 H	1	UNK0	0.000	
51	   H	4.186	4.730	1.944	 H	1	UNK0	0.000	
52	   H	2.797	2.392	2.345	 H	1	UNK0	0.000	
53	   H	4.483	1.948	1.759	 H	1	UNK0	0.000	
54	   H	4.236	3.027	3.112	 H	1	UNK0	0.000	
55	   H	5.200	2.742	0.199	 H	1	UNK0	0.000	
56	   H	4.513	4.200	-0.647	 H	1	UNK0	0.000	
57	   H	5.754	4.442	0.606	 H	1	UNK0	0.000	
@<TRIPOS>BOND
1 1 2 1
2 2 3 2
3 2 7 1
4 3 4 1
5 4 5 2
6 5 6 1
7 5 8 1
8 6 7 2
9 8 9 1
10 8 14 1
11 9 10 1
12 9 27 1
13 10 11 2
14 10 12 1
15 12 13 2
16 12 14 1
17 14 15 2
18 15 16 1
19 15 17 1
20 17 18 2
21 17 22 1
22 18 19 1
23 19 20 2
24 19 26 1
25 20 21 1
26 20 23 1
27 21 22 2
28 23 24 1
29 24 25 1
30 25 26 1
31 27 28 1
32 28 29 1
33 29 30 1
34 30 31 1
35 30 32 1
36 3 33 1
37 4 34 1
38 6 35 1
39 7 36 1
40 8 37 1
41 18 38 1
42 21 39 1
43 22 40 1
44 24 41 1
45 24 42 1
46 25 43 1
47 25 44 1
48 27 45 1
49 27 46 1
50 28 47 1
51 28 48 1
52 29 49 1
53 29 50 1
54 30 51 1
55 31 52 1
56 31 53 1
57 31 54 1
58 32 55 1
59 32 56 1
60 32 57 1
@<TRIPOS>SUBSTRUCTURE
1	UNK0	1	GROUP	1 ****	UNK
