# created with PyMOL 2.3.2
@<TRIPOS>MOLECULE
363
60 63 1                 
SMALL
USER_CHARGES
@<TRIPOS>ATOM
1	  Br	-4.379	-2.263	-5.771	Br	1	UNK0	0.000	
2	   C	-3.171	-1.465	-4.504	C.2	1	UNK0	0.000	
3	   C	-3.516	-1.386	-3.174	C.2	1	UNK0	0.000	
4	   C	-2.680	-0.824	-2.235	C.2	1	UNK0	0.000	
5	   C	-1.432	-0.306	-2.606	C.2	1	UNK0	0.000	
6	   C	-1.123	-0.402	-3.941	C.2	1	UNK0	0.000	
7	   C	-1.960	-0.965	-4.881	C.2	1	UNK0	0.000	
8	   C	-0.541	0.285	-1.571	C.3	1	UNK0	0.000	
9	   N	0.833	-0.131	-1.919	N.pl3	1	UNK0	0.000	
10	   C	0.928	-1.479	-1.494	C.2	1	UNK0	0.000	
11	   O	1.700	-2.346	-1.936	O.2	1	UNK0	0.000	
12	   C	-0.058	-1.704	-0.416	C.2	1	UNK0	0.000	
13	   O	-0.260	-2.768	0.210	O.2	1	UNK0	0.000	
14	   C	-0.719	-0.414	-0.262	C.2	1	UNK0	0.000	
15	   C	-1.292	0.010	0.840	C.2	1	UNK0	0.000	
16	   O	-1.833	1.308	0.854	O.2	1	UNK0	0.000	
17	   C	-1.427	-0.757	2.070	C.2	1	UNK0	0.000	
18	   N	-0.776	-0.322	3.189	N.pl3	1	UNK0	0.000	
19	   C	-1.099	-1.156	4.179	C.2	1	UNK0	0.000	
20	   N	-1.929	-2.096	3.716	N.2	1	UNK0	0.000	
21	   C	-2.134	-1.848	2.414	C.2	1	UNK0	0.000	
22	   C	-3.036	-2.645	1.544	C.3	1	UNK0	0.000	
23	   C	-0.552	-0.924	5.449	C.2	1	UNK0	0.000	
24	   C	0.296	0.125	5.706	C.2	1	UNK0	0.000	
25	   C	0.611	0.966	4.672	C.2	1	UNK0	0.000	
26	   C	0.068	0.727	3.429	C.2	1	UNK0	0.000	
27	   C	1.825	0.700	-2.570	C.3	1	UNK0	0.000	
28	   C	2.668	1.457	-1.637	C.3	1	UNK0	0.000	
29	   N	3.522	0.778	-0.720	N.4	1	UNK0	0.000	
30	   C	4.405	-0.186	-1.314	C.3	1	UNK0	0.000	
31	   C	5.758	-0.217	-0.623	C.3	1	UNK0	0.000	
32	   C	2.894	0.429	0.497	C.3	1	UNK0	0.000	
33	   C	3.129	-0.947	1.029	C.3	1	UNK0	0.000	
34	   H	-4.484	-1.791	-2.900	 H	1	UNK0	0.000	
35	   H	-2.951	-0.759	-1.210	 H	1	UNK0	0.000	
36	   H	-0.166	-0.016	-4.267	 H	1	UNK0	0.000	
37	   H	-1.645	-1.002	-5.901	 H	1	UNK0	0.000	
38	   H	-0.646	1.363	-1.528	 H	1	UNK0	0.000	
39	   H	-4.089	-2.649	1.902	 H	1	UNK0	0.000	
40	   H	-2.664	-3.709	1.622	 H	1	UNK0	0.000	
41	   H	-2.950	-2.392	0.489	 H	1	UNK0	0.000	
42	   H	-0.793	-1.580	6.274	 H	1	UNK0	0.000	
43	   H	0.732	0.330	6.670	 H	1	UNK0	0.000	
44	   H	1.277	1.805	4.837	 H	1	UNK0	0.000	
45	   H	0.338	1.411	2.637	 H	1	UNK0	0.000	
46	   H	2.383	0.096	-3.322	 H	1	UNK0	0.000	
47	   H	1.307	1.480	-3.220	 H	1	UNK0	0.000	
48	   H	3.235	2.279	-2.194	 H	1	UNK0	0.000	
49	   H	1.969	2.092	-0.993	 H	1	UNK0	0.000	
50	   H	4.229	1.568	-0.431	 H	1	UNK0	0.000	
51	   H	4.053	-1.199	-1.409	 H	1	UNK0	0.000	
52	   H	4.615	0.198	-2.358	 H	1	UNK0	0.000	
53	   H	6.556	0.272	-1.218	 H	1	UNK0	0.000	
54	   H	5.725	0.276	0.370	 H	1	UNK0	0.000	
55	   H	6.095	-1.264	-0.460	 H	1	UNK0	0.000	
56	   H	3.196	1.116	1.359	 H	1	UNK0	0.000	
57	   H	1.806	0.625	0.417	 H	1	UNK0	0.000	
58	   H	2.265	-1.174	1.723	 H	1	UNK0	0.000	
59	   H	3.161	-1.758	0.313	 H	1	UNK0	0.000	
60	   H	4.023	-0.947	1.720	 H	1	UNK0	0.000	
@<TRIPOS>BOND
1 1 2 1
2 2 3 2
3 2 7 1
4 3 4 1
5 4 5 2
6 5 6 1
7 5 8 1
8 6 7 2
9 8 9 1
10 8 14 1
11 9 10 1
12 9 27 1
13 10 11 2
14 10 12 1
15 12 13 2
16 12 14 1
17 14 15 2
18 15 16 1
19 15 17 1
20 17 18 1
21 17 21 2
22 18 19 1
23 18 26 1
24 19 20 2
25 19 23 1
26 20 21 1
27 21 22 1
28 23 24 2
29 24 25 1
30 25 26 2
31 27 28 1
32 28 29 1
33 29 30 1
34 29 32 1
35 30 31 1
36 32 33 1
37 3 34 1
38 4 35 1
39 6 36 1
40 7 37 1
41 8 38 1
42 22 39 1
43 22 40 1
44 22 41 1
45 23 42 1
46 24 43 1
47 25 44 1
48 26 45 1
49 27 46 1
50 27 47 1
51 28 48 1
52 28 49 1
53 29 50 1
54 30 51 1
55 30 52 1
56 31 53 1
57 31 54 1
58 31 55 1
59 32 56 1
60 32 57 1
61 33 58 1
62 33 59 1
63 33 60 1
@<TRIPOS>SUBSTRUCTURE
1	UNK0	1	GROUP	1 ****	UNK
