# created with PyMOL 2.3.2
@<TRIPOS>MOLECULE
365
59 63 1                 
SMALL
USER_CHARGES
@<TRIPOS>ATOM
1	  Br	4.421	4.618	4.653	Br	1	UNK0	0.000	
2	   C	3.304	3.644	3.473	C.2	1	UNK0	0.000	
3	   C	2.984	2.345	3.744	C.2	1	UNK0	0.000	
4	   C	2.175	1.606	2.909	C.2	1	UNK0	0.000	
5	   C	1.644	2.126	1.760	C.2	1	UNK0	0.000	
6	   C	1.979	3.457	1.492	C.2	1	UNK0	0.000	
7	   C	2.786	4.209	2.317	C.2	1	UNK0	0.000	
8	   C	0.774	1.387	0.828	C.3	1	UNK0	0.000	
9	   N	-0.271	0.633	1.493	N.pl3	1	UNK0	0.000	
10	   C	0.271	-0.624	1.915	C.2	1	UNK0	0.000	
11	   O	-0.150	-1.344	2.828	O.2	1	UNK0	0.000	
12	   C	1.419	-0.843	1.023	C.2	1	UNK0	0.000	
13	   O	2.202	-1.828	1.034	O.2	1	UNK0	0.000	
14	   C	1.500	0.292	0.113	C.2	1	UNK0	0.000	
15	   C	2.115	0.354	-1.051	C.2	1	UNK0	0.000	
16	   O	2.114	1.589	-1.731	O.2	1	UNK0	0.000	
17	   C	2.760	-0.816	-1.605	C.2	1	UNK0	0.000	
18	   N	4.067	-0.827	-1.989	N.pl3	1	UNK0	0.000	
19	   C	4.386	-2.028	-2.506	C.2	1	UNK0	0.000	
20	   N	3.260	-2.777	-2.444	N.2	1	UNK0	0.000	
21	   C	2.254	-2.065	-1.901	C.2	1	UNK0	0.000	
22	   C	0.854	-2.553	-1.703	C.3	1	UNK0	0.000	
23	   C	5.641	-2.342	-2.980	C.2	1	UNK0	0.000	
24	   C	6.636	-1.387	-2.930	C.2	1	UNK0	0.000	
25	   C	6.326	-0.158	-2.406	C.2	1	UNK0	0.000	
26	   C	5.059	0.097	-1.949	C.2	1	UNK0	0.000	
27	   C	-1.628	1.104	1.683	C.3	1	UNK0	0.000	
28	   C	-2.520	0.709	0.524	C.3	1	UNK0	0.000	
29	   N	-3.882	1.190	0.728	N.4	1	UNK0	0.000	
30	   C	-3.967	2.619	0.572	C.3	1	UNK0	0.000	
31	   C	-5.406	3.031	0.588	C.3	1	UNK0	0.000	
32	   O	-6.009	2.480	-0.564	O.3	1	UNK0	0.000	
33	   C	-6.054	1.103	-0.436	C.3	1	UNK0	0.000	
34	   C	-4.731	0.467	-0.168	C.3	1	UNK0	0.000	
35	   H	3.378	1.878	4.645	 H	1	UNK0	0.000	
36	   H	1.969	0.587	3.192	 H	1	UNK0	0.000	
37	   H	1.591	3.926	0.600	 H	1	UNK0	0.000	
38	   H	3.049	5.238	2.116	 H	1	UNK0	0.000	
39	   H	0.347	2.117	0.106	 H	1	UNK0	0.000	
40	   H	0.118	-1.747	-1.673	 H	1	UNK0	0.000	
41	   H	0.728	-3.199	-0.834	 H	1	UNK0	0.000	
42	   H	0.606	-3.174	-2.602	 H	1	UNK0	0.000	
43	   H	5.904	-3.306	-3.397	 H	1	UNK0	0.000	
44	   H	7.652	-1.612	-3.303	 H	1	UNK0	0.000	
45	   H	7.089	0.592	-2.361	 H	1	UNK0	0.000	
46	   H	4.783	1.075	-1.523	 H	1	UNK0	0.000	
47	   H	-2.041	0.701	2.622	 H	1	UNK0	0.000	
48	   H	-1.607	2.215	1.721	 H	1	UNK0	0.000	
49	   H	-2.139	1.065	-0.440	 H	1	UNK0	0.000	
50	   H	-2.552	-0.407	0.472	 H	1	UNK0	0.000	
51	   H	-4.182	0.970	1.715	 H	1	UNK0	0.000	
52	   H	-3.539	2.935	-0.402	 H	1	UNK0	0.000	
53	   H	-3.424	3.103	1.401	 H	1	UNK0	0.000	
54	   H	-5.980	2.661	1.443	 H	1	UNK0	0.000	
55	   H	-5.538	4.133	0.480	 H	1	UNK0	0.000	
56	   H	-6.828	0.788	0.316	 H	1	UNK0	0.000	
57	   H	-6.429	0.707	-1.421	 H	1	UNK0	0.000	
58	   H	-4.166	0.289	-1.120	 H	1	UNK0	0.000	
59	   H	-4.935	-0.532	0.314	 H	1	UNK0	0.000	
@<TRIPOS>BOND
1 1 2 1
2 2 3 2
3 2 7 1
4 3 4 1
5 4 5 2
6 5 6 1
7 5 8 1
8 6 7 2
9 8 9 1
10 8 14 1
11 9 10 1
12 9 27 1
13 10 11 2
14 10 12 1
15 12 13 2
16 12 14 1
17 14 15 2
18 15 16 1
19 15 17 1
20 17 18 1
21 17 21 2
22 18 19 1
23 18 26 1
24 19 20 2
25 19 23 1
26 20 21 1
27 21 22 1
28 23 24 2
29 24 25 1
30 25 26 2
31 27 28 1
32 28 29 1
33 29 30 1
34 29 34 1
35 30 31 1
36 31 32 1
37 32 33 1
38 33 34 1
39 3 35 1
40 4 36 1
41 6 37 1
42 7 38 1
43 8 39 1
44 22 40 1
45 22 41 1
46 22 42 1
47 23 43 1
48 24 44 1
49 25 45 1
50 26 46 1
51 27 47 1
52 27 48 1
53 28 49 1
54 28 50 1
55 29 51 1
56 30 52 1
57 30 53 1
58 31 54 1
59 31 55 1
60 33 56 1
61 33 57 1
62 34 58 1
63 34 59 1
@<TRIPOS>SUBSTRUCTURE
1	UNK0	1	GROUP	1 ****	UNK
