# created with PyMOL 2.3.2
@<TRIPOS>MOLECULE
366
42 45 1                 
SMALL
USER_CHARGES
@<TRIPOS>ATOM
1	  Br	5.145	2.962	-0.348	Br	1	UNK0	0.000	
2	   C	3.652	1.773	-0.386	C.2	1	UNK0	0.000	
3	   C	3.436	0.973	-1.501	C.2	1	UNK0	0.000	
4	   C	2.364	0.114	-1.553	C.2	1	UNK0	0.000	
5	   C	1.459	0.004	-0.516	C.2	1	UNK0	0.000	
6	   C	1.669	0.797	0.592	C.2	1	UNK0	0.000	
7	   C	2.742	1.658	0.648	C.2	1	UNK0	0.000	
8	   C	0.314	-0.923	-0.607	C.3	1	UNK0	0.000	
9	   N	0.216	-1.791	0.566	N.pl3	1	UNK0	0.000	
10	   C	-1.131	-2.271	0.556	C.2	1	UNK0	0.000	
11	   O	-1.531	-3.366	1.053	O.2	1	UNK0	0.000	
12	   C	-1.947	-1.281	-0.125	C.2	1	UNK0	0.000	
13	   O	-3.161	-1.241	-0.382	O.2	1	UNK0	0.000	
14	   C	-0.999	-0.212	-0.509	C.2	1	UNK0	0.000	
15	   C	-1.311	1.054	-0.732	C.2	1	UNK0	0.000	
16	   O	-0.267	1.909	-1.137	O.2	1	UNK0	0.000	
17	   C	-2.670	1.569	-0.561	C.2	1	UNK0	0.000	
18	   O	-3.372	1.277	0.539	O.3	1	UNK0	0.000	
19	   C	-4.555	1.824	0.498	C.2	1	UNK0	0.000	
20	   C	-4.638	2.511	-0.691	C.2	1	UNK0	0.000	
21	   C	-3.438	2.351	-1.366	C.2	1	UNK0	0.000	
22	   C	-5.644	1.741	1.539	C.3	1	UNK0	0.000	
23	   C	1.228	-2.113	1.522	C.cat	1	UNK0	0.000	
24	   N	2.440	-2.533	1.121	N.pl3	1	UNK0	0.000	
25	   C	3.420	-2.846	1.997	C.2	1	UNK0	0.000	
26	   C	3.194	-2.741	3.343	C.2	1	UNK0	0.000	
27	   C	1.948	-2.310	3.757	C.2	1	UNK0	0.000	
28	   N	1.021	-2.015	2.847	N.2	1	UNK0	0.000	
29	   H	4.109	1.002	-2.355	 H	1	UNK0	0.000	
30	   H	2.204	-0.501	-2.436	 H	1	UNK0	0.000	
31	   H	0.936	0.709	1.414	 H	1	UNK0	0.000	
32	   H	2.893	2.280	1.539	 H	1	UNK0	0.000	
33	   H	0.363	-1.507	-1.518	 H	1	UNK0	0.000	
34	   H	-5.459	3.099	-1.092	 H	1	UNK0	0.000	
35	   H	-3.138	2.752	-2.341	 H	1	UNK0	0.000	
36	   H	-5.380	2.299	2.455	 H	1	UNK0	0.000	
37	   H	-5.774	0.677	1.829	 H	1	UNK0	0.000	
38	   H	-6.587	2.096	1.090	 H	1	UNK0	0.000	
39	   H	2.680	-2.644	0.092	 H	1	UNK0	0.000	
40	   H	4.411	-3.192	1.653	 H	1	UNK0	0.000	
41	   H	3.958	-2.982	4.089	 H	1	UNK0	0.000	
42	   H	1.713	-2.210	4.834	 H	1	UNK0	0.000	
@<TRIPOS>BOND
1 1 2 1
2 2 3 2
3 2 7 1
4 3 4 1
5 4 5 2
6 5 6 1
7 5 8 1
8 6 7 2
9 8 9 1
10 8 14 1
11 9 10 1
12 9 23 1
13 10 11 2
14 10 12 1
15 12 13 2
16 12 14 1
17 14 15 2
18 15 16 1
19 15 17 1
20 17 18 1
21 17 21 2
22 18 19 1
23 19 20 2
24 19 22 1
25 20 21 1
26 23 24 2
27 23 28 1
28 24 25 1
29 25 26 2
30 26 27 1
31 27 28 2
32 3 29 1
33 4 30 1
34 6 31 1
35 7 32 1
36 8 33 1
37 20 34 1
38 21 35 1
39 22 36 1
40 22 37 1
41 22 38 1
42 24 39 1
43 25 40 1
44 26 41 1
45 27 42 1
@<TRIPOS>SUBSTRUCTURE
1	UNK0	1	GROUP	1 ****	UNK
