# created with PyMOL 2.3.2
@<TRIPOS>MOLECULE
367
53 56 1                 
SMALL
USER_CHARGES
@<TRIPOS>ATOM
1	  Br	0.923	4.720	-6.726	Br	1	UNK0	0.000	
2	   C	0.876	3.721	-5.117	C.2	1	UNK0	0.000	
3	   C	-0.326	3.556	-4.433	C.2	1	UNK0	0.000	
4	   C	-0.304	2.827	-3.279	C.2	1	UNK0	0.000	
5	   C	0.857	2.246	-2.761	C.2	1	UNK0	0.000	
6	   C	2.034	2.419	-3.450	C.2	1	UNK0	0.000	
7	   C	2.037	3.159	-4.629	C.2	1	UNK0	0.000	
8	   C	0.769	1.467	-1.485	C.3	1	UNK0	0.000	
9	   N	1.844	1.747	-0.579	N.pl3	1	UNK0	0.000	
10	   C	2.897	0.818	-0.936	C.2	1	UNK0	0.000	
11	   O	4.125	0.901	-0.704	O.2	1	UNK0	0.000	
12	   C	2.283	-0.307	-1.655	C.2	1	UNK0	0.000	
13	   O	2.826	-1.314	-2.126	O.2	1	UNK0	0.000	
14	   C	0.867	-0.002	-1.709	C.2	1	UNK0	0.000	
15	   C	-0.090	-0.883	-1.947	C.2	1	UNK0	0.000	
16	   O	-1.387	-0.302	-1.998	O.2	1	UNK0	0.000	
17	   C	0.076	-2.305	-2.141	C.2	1	UNK0	0.000	
18	   O	1.100	-3.027	-2.409	O.3	1	UNK0	0.000	
19	   C	0.815	-4.305	-2.504	C.2	1	UNK0	0.000	
20	   C	-0.553	-4.435	-2.273	C.2	1	UNK0	0.000	
21	   C	-1.021	-3.177	-2.043	C.2	1	UNK0	0.000	
22	   C	2.003	2.716	0.477	C.3	1	UNK0	0.000	
23	   C	1.659	2.153	1.826	C.3	1	UNK0	0.000	
24	   C	0.258	1.689	1.855	C.3	1	UNK0	0.000	
25	   N	-0.186	1.142	3.109	N.4	1	UNK0	0.000	
26	   C	0.344	-0.140	3.432	C.3	1	UNK0	0.000	
27	   C	-0.044	-1.222	2.484	C.3	1	UNK0	0.000	
28	   O	-1.100	-0.988	1.668	O.3	1	UNK0	0.000	
29	   C	-2.017	-0.057	2.003	C.3	1	UNK0	0.000	
30	   C	-1.636	0.968	3.012	C.3	1	UNK0	0.000	
31	   H	-1.241	4.004	-4.831	 H	1	UNK0	0.000	
32	   H	-1.240	2.707	-2.744	 H	1	UNK0	0.000	
33	   H	2.948	1.988	-3.088	 H	1	UNK0	0.000	
34	   H	2.952	3.300	-5.169	 H	1	UNK0	0.000	
35	   H	-0.236	1.662	-1.091	 H	1	UNK0	0.000	
36	   H	1.471	-5.134	-2.719	 H	1	UNK0	0.000	
37	   H	-1.142	-5.332	-2.272	 H	1	UNK0	0.000	
38	   H	-2.040	-2.896	-1.827	 H	1	UNK0	0.000	
39	   H	3.061	3.111	0.477	 H	1	UNK0	0.000	
40	   H	1.385	3.635	0.262	 H	1	UNK0	0.000	
41	   H	2.415	1.370	2.047	 H	1	UNK0	0.000	
42	   H	1.867	2.989	2.558	 H	1	UNK0	0.000	
43	   H	-0.410	2.526	1.594	 H	1	UNK0	0.000	
44	   H	0.106	0.906	1.061	 H	1	UNK0	0.000	
45	   H	-0.010	1.801	3.889	 H	1	UNK0	0.000	
46	   H	-0.123	-0.419	4.427	 H	1	UNK0	0.000	
47	   H	1.448	-0.140	3.659	 H	1	UNK0	0.000	
48	   H	0.857	-1.416	1.830	 H	1	UNK0	0.000	
49	   H	-0.203	-2.210	3.001	 H	1	UNK0	0.000	
50	   H	-3.025	-0.495	2.287	 H	1	UNK0	0.000	
51	   H	-2.271	0.510	1.054	 H	1	UNK0	0.000	
52	   H	-2.119	1.951	2.830	 H	1	UNK0	0.000	
53	   H	-1.980	0.634	4.024	 H	1	UNK0	0.000	
@<TRIPOS>BOND
1 1 2 1
2 2 3 2
3 2 7 1
4 3 4 1
5 4 5 2
6 5 6 1
7 5 8 1
8 6 7 2
9 8 9 1
10 8 14 1
11 9 10 1
12 9 22 1
13 10 11 2
14 10 12 1
15 12 13 2
16 12 14 1
17 14 15 2
18 15 16 1
19 15 17 1
20 17 18 1
21 17 21 2
22 18 19 1
23 19 20 2
24 20 21 1
25 22 23 1
26 23 24 1
27 24 25 1
28 25 26 1
29 25 30 1
30 26 27 1
31 27 28 1
32 28 29 1
33 29 30 1
34 3 31 1
35 4 32 1
36 6 33 1
37 7 34 1
38 8 35 1
39 19 36 1
40 20 37 1
41 21 38 1
42 22 39 1
43 22 40 1
44 23 41 1
45 23 42 1
46 24 43 1
47 24 44 1
48 25 45 1
49 26 46 1
50 26 47 1
51 27 48 1
52 27 49 1
53 29 50 1
54 29 51 1
55 30 52 1
56 30 53 1
@<TRIPOS>SUBSTRUCTURE
1	UNK0	1	GROUP	1 ****	UNK
