# created with PyMOL 2.3.2
@<TRIPOS>MOLECULE
368
58 61 1                 
SMALL
USER_CHARGES
@<TRIPOS>ATOM
1	  Br	-0.927	-0.046	-6.888	Br	1	UNK0	0.000	
2	   C	-0.516	-0.672	-5.141	C.2	1	UNK0	0.000	
3	   C	-0.106	0.193	-4.149	C.2	1	UNK0	0.000	
4	   C	0.194	-0.250	-2.877	C.2	1	UNK0	0.000	
5	   C	0.086	-1.581	-2.589	C.2	1	UNK0	0.000	
6	   C	-0.322	-2.452	-3.569	C.2	1	UNK0	0.000	
7	   C	-0.621	-2.009	-4.832	C.2	1	UNK0	0.000	
8	   C	0.410	-2.089	-1.286	C.3	1	UNK0	0.000	
9	   N	1.694	-1.897	-0.718	N.pl3	1	UNK0	0.000	
10	   C	1.537	-2.454	0.629	C.2	1	UNK0	0.000	
11	   O	2.450	-2.963	1.333	O.2	1	UNK0	0.000	
12	   C	0.132	-2.302	0.982	C.2	1	UNK0	0.000	
13	   O	-0.484	-2.638	2.050	O.2	1	UNK0	0.000	
14	   C	-0.488	-1.654	-0.185	C.2	1	UNK0	0.000	
15	   C	-1.581	-0.920	-0.199	C.2	1	UNK0	0.000	
16	   O	-2.086	-0.409	-1.375	O.2	1	UNK0	0.000	
17	   C	-2.312	-0.604	1.021	C.2	1	UNK0	0.000	
18	   O	-3.601	-0.663	1.251	O.3	1	UNK0	0.000	
19	   C	-3.852	-0.288	2.487	C.2	1	UNK0	0.000	
20	   C	-2.678	0.042	3.128	C.2	1	UNK0	0.000	
21	   C	-1.685	-0.165	2.170	C.2	1	UNK0	0.000	
22	   C	-2.641	0.470	4.436	C.2	1	UNK0	0.000	
23	   C	-3.796	0.590	5.175	C.2	1	UNK0	0.000	
24	   C	-4.970	0.259	4.534	C.2	1	UNK0	0.000	
25	   C	-5.027	-0.170	3.228	C.2	1	UNK0	0.000	
26	   O	-6.226	-0.504	2.586	O.3	1	UNK0	0.000	
27	   C	-7.463	-0.404	3.291	C.3	1	UNK0	0.000	
28	   C	2.961	-1.367	-1.190	C.3	1	UNK0	0.000	
29	   C	3.218	0.062	-0.878	C.3	1	UNK0	0.000	
30	   C	3.203	0.318	0.635	C.3	1	UNK0	0.000	
31	   N	3.455	1.717	0.916	N.4	1	UNK0	0.000	
32	   C	4.485	2.245	0.075	C.3	1	UNK0	0.000	
33	   C	3.734	1.917	2.322	C.3	1	UNK0	0.000	
34	   H	-0.011	1.271	-4.362	 H	1	UNK0	0.000	
35	   H	0.491	0.510	-2.157	 H	1	UNK0	0.000	
36	   H	-0.421	-3.541	-3.362	 H	1	UNK0	0.000	
37	   H	-0.947	-2.688	-5.625	 H	1	UNK0	0.000	
38	   H	0.265	-3.217	-1.302	 H	1	UNK0	0.000	
39	   H	-0.637	0.020	2.372	 H	1	UNK0	0.000	
40	   H	-1.710	0.722	4.912	 H	1	UNK0	0.000	
41	   H	-3.775	0.928	6.207	 H	1	UNK0	0.000	
42	   H	-5.882	0.350	5.104	 H	1	UNK0	0.000	
43	   H	-7.560	-1.238	4.024	 H	1	UNK0	0.000	
44	   H	-8.323	-0.440	2.606	 H	1	UNK0	0.000	
45	   H	-7.509	0.550	3.885	 H	1	UNK0	0.000	
46	   H	3.806	-1.948	-0.705	 H	1	UNK0	0.000	
47	   H	3.111	-1.603	-2.283	 H	1	UNK0	0.000	
48	   H	2.607	0.814	-1.342	 H	1	UNK0	0.000	
49	   H	4.293	0.298	-1.163	 H	1	UNK0	0.000	
50	   H	2.173	0.089	0.982	 H	1	UNK0	0.000	
51	   H	3.884	-0.363	1.161	 H	1	UNK0	0.000	
52	   H	2.560	2.245	0.717	 H	1	UNK0	0.000	
53	   H	4.094	2.342	-0.956	 H	1	UNK0	0.000	
54	   H	4.786	3.253	0.433	 H	1	UNK0	0.000	
55	   H	5.369	1.562	0.019	 H	1	UNK0	0.000	
56	   H	3.244	1.144	2.954	 H	1	UNK0	0.000	
57	   H	4.816	1.868	2.534	 H	1	UNK0	0.000	
58	   H	3.309	2.888	2.649	 H	1	UNK0	0.000	
@<TRIPOS>BOND
1 1 2 1
2 2 3 2
3 2 7 1
4 3 4 1
5 4 5 2
6 5 6 1
7 5 8 1
8 6 7 2
9 8 9 1
10 8 14 1
11 9 10 1
12 9 28 1
13 10 11 2
14 10 12 1
15 12 13 2
16 12 14 1
17 14 15 2
18 15 16 1
19 15 17 1
20 17 18 1
21 17 21 2
22 18 19 1
23 19 20 2
24 19 25 1
25 20 21 1
26 20 22 1
27 22 23 2
28 23 24 1
29 24 25 2
30 25 26 1
31 26 27 1
32 28 29 1
33 29 30 1
34 30 31 1
35 31 32 1
36 31 33 1
37 3 34 1
38 4 35 1
39 6 36 1
40 7 37 1
41 8 38 1
42 21 39 1
43 22 40 1
44 23 41 1
45 24 42 1
46 27 43 1
47 27 44 1
48 27 45 1
49 28 46 1
50 28 47 1
51 29 48 1
52 29 49 1
53 30 50 1
54 30 51 1
55 31 52 1
56 32 53 1
57 32 54 1
58 32 55 1
59 33 56 1
60 33 57 1
61 33 58 1
@<TRIPOS>SUBSTRUCTURE
1	UNK0	1	GROUP	1 ****	UNK
