# created with PyMOL 2.3.2
@<TRIPOS>MOLECULE
370
60 64 1                 
SMALL
USER_CHARGES
@<TRIPOS>ATOM
1	  Br	-4.423	-0.852	4.813	Br	1	UNK0	0.000	
2	   C	-2.797	-0.322	3.943	C.2	1	UNK0	0.000	
3	   C	-2.707	-0.225	2.574	C.2	1	UNK0	0.000	
4	   C	-1.517	0.161	1.980	C.2	1	UNK0	0.000	
5	   C	-0.417	0.452	2.746	C.2	1	UNK0	0.000	
6	   C	-0.532	0.346	4.122	C.2	1	UNK0	0.000	
7	   C	-1.700	-0.034	4.726	C.2	1	UNK0	0.000	
8	   C	0.877	0.896	2.169	C.3	1	UNK0	0.000	
9	   N	0.782	2.056	1.323	N.pl3	1	UNK0	0.000	
10	   C	1.218	1.730	0.031	C.2	1	UNK0	0.000	
11	   O	1.254	2.436	-1.021	O.2	1	UNK0	0.000	
12	   C	1.683	0.339	0.004	C.2	1	UNK0	0.000	
13	   O	2.143	-0.275	-1.012	O.2	1	UNK0	0.000	
14	   C	1.505	-0.153	1.355	C.2	1	UNK0	0.000	
15	   C	1.912	-1.360	1.749	C.2	1	UNK0	0.000	
16	   O	1.713	-1.635	3.120	O.2	1	UNK0	0.000	
17	   C	2.500	-2.307	0.848	C.2	1	UNK0	0.000	
18	   O	2.041	-2.702	-0.336	O.3	1	UNK0	0.000	
19	   C	2.790	-3.563	-0.913	C.2	1	UNK0	0.000	
20	   C	3.867	-3.807	-0.086	C.2	1	UNK0	0.000	
21	   C	3.657	-3.005	1.011	C.2	1	UNK0	0.000	
22	   C	4.806	-4.714	-0.520	C.2	1	UNK0	0.000	
23	   C	4.683	-5.354	-1.727	C.2	1	UNK0	0.000	
24	   C	3.580	-5.091	-2.551	C.2	1	UNK0	0.000	
25	   C	2.632	-4.194	-2.145	C.2	1	UNK0	0.000	
26	   O	1.522	-3.886	-2.902	O.3	1	UNK0	0.000	
27	   C	1.268	-4.454	-4.140	C.3	1	UNK0	0.000	
28	   C	0.357	3.361	1.762	C.3	1	UNK0	0.000	
29	   C	-1.061	3.732	1.574	C.3	1	UNK0	0.000	
30	   N	-1.536	3.851	0.224	N.4	1	UNK0	0.000	
31	   C	-2.511	4.958	0.250	C.3	1	UNK0	0.000	
32	   C	-3.018	5.311	-1.103	C.3	1	UNK0	0.000	
33	   O	-2.867	4.275	-2.025	O.3	1	UNK0	0.000	
34	   C	-3.270	3.112	-1.342	C.3	1	UNK0	0.000	
35	   C	-2.262	2.718	-0.276	C.3	1	UNK0	0.000	
36	   H	-3.566	-0.450	1.970	 H	1	UNK0	0.000	
37	   H	-1.416	0.234	0.922	 H	1	UNK0	0.000	
38	   H	0.320	0.570	4.741	 H	1	UNK0	0.000	
39	   H	-1.791	-0.117	5.822	 H	1	UNK0	0.000	
40	   H	1.592	1.094	3.016	 H	1	UNK0	0.000	
41	   H	4.363	-2.993	1.840	 H	1	UNK0	0.000	
42	   H	5.649	-4.905	0.115	 H	1	UNK0	0.000	
43	   H	5.409	-6.069	-2.082	 H	1	UNK0	0.000	
44	   H	3.532	-5.627	-3.495	 H	1	UNK0	0.000	
45	   H	2.111	-4.885	-4.674	 H	1	UNK0	0.000	
46	   H	0.458	-5.238	-4.095	 H	1	UNK0	0.000	
47	   H	0.846	-3.622	-4.783	 H	1	UNK0	0.000	
48	   H	0.976	4.174	1.306	 H	1	UNK0	0.000	
49	   H	0.606	3.438	2.860	 H	1	UNK0	0.000	
50	   H	-1.770	3.045	2.111	 H	1	UNK0	0.000	
51	   H	-1.203	4.707	2.144	 H	1	UNK0	0.000	
52	   H	-0.737	4.123	-0.418	 H	1	UNK0	0.000	
53	   H	-3.376	4.528	0.839	 H	1	UNK0	0.000	
54	   H	-2.123	5.807	0.815	 H	1	UNK0	0.000	
55	   H	-4.118	5.507	-1.041	 H	1	UNK0	0.000	
56	   H	-2.515	6.209	-1.491	 H	1	UNK0	0.000	
57	   H	-4.281	3.289	-0.939	 H	1	UNK0	0.000	
58	   H	-3.346	2.273	-2.068	 H	1	UNK0	0.000	
59	   H	-1.562	1.949	-0.665	 H	1	UNK0	0.000	
60	   H	-2.827	2.266	0.556	 H	1	UNK0	0.000	
@<TRIPOS>BOND
1 1 2 1
2 2 3 2
3 2 7 1
4 3 4 1
5 4 5 2
6 5 6 1
7 5 8 1
8 6 7 2
9 8 9 1
10 8 14 1
11 9 10 1
12 9 28 1
13 10 11 2
14 10 12 1
15 12 13 2
16 12 14 1
17 14 15 2
18 15 16 1
19 15 17 1
20 17 18 1
21 17 21 2
22 18 19 1
23 19 20 2
24 19 25 1
25 20 21 1
26 20 22 1
27 22 23 2
28 23 24 1
29 24 25 2
30 25 26 1
31 26 27 1
32 28 29 1
33 29 30 1
34 30 31 1
35 30 35 1
36 31 32 1
37 32 33 1
38 33 34 1
39 34 35 1
40 3 36 1
41 4 37 1
42 6 38 1
43 7 39 1
44 8 40 1
45 21 41 1
46 22 42 1
47 23 43 1
48 24 44 1
49 27 45 1
50 27 46 1
51 27 47 1
52 28 48 1
53 28 49 1
54 29 50 1
55 29 51 1
56 30 52 1
57 31 53 1
58 31 54 1
59 32 55 1
60 32 56 1
61 34 57 1
62 34 58 1
63 35 59 1
64 35 60 1
@<TRIPOS>SUBSTRUCTURE
1	UNK0	1	GROUP	1 ****	UNK
