# created with PyMOL 2.3.2
@<TRIPOS>MOLECULE
371
54 57 1                 
SMALL
USER_CHARGES
@<TRIPOS>ATOM
1	  Br	6.766	-3.358	-0.725	Br	1	UNK0	0.000	
2	   C	5.309	-2.310	-0.061	C.2	1	UNK0	0.000	
3	   C	4.289	-1.882	-0.876	C.2	1	UNK0	0.000	
4	   C	3.245	-1.123	-0.385	C.2	1	UNK0	0.000	
5	   C	3.167	-0.756	0.938	C.2	1	UNK0	0.000	
6	   C	4.219	-1.208	1.737	C.2	1	UNK0	0.000	
7	   C	5.265	-1.963	1.270	C.2	1	UNK0	0.000	
8	   C	2.123	0.057	1.541	C.3	1	UNK0	0.000	
9	   N	1.937	1.378	0.987	N.pl3	1	UNK0	0.000	
10	   C	0.636	1.800	1.480	C.2	1	UNK0	0.000	
11	   O	0.221	2.961	1.655	O.2	1	UNK0	0.000	
12	   C	-0.121	0.596	1.744	C.2	1	UNK0	0.000	
13	   O	-1.315	0.501	2.189	O.2	1	UNK0	0.000	
14	   C	0.761	-0.527	1.396	C.2	1	UNK0	0.000	
15	   C	0.360	-1.737	1.065	C.2	1	UNK0	0.000	
16	   O	1.334	-2.687	0.793	O.2	1	UNK0	0.000	
17	   C	-1.079	-2.078	0.982	C.2	1	UNK0	0.000	
18	   O	-2.018	-1.313	0.485	O.3	1	UNK0	0.000	
19	   C	-3.195	-1.877	0.546	C.2	1	UNK0	0.000	
20	   C	-3.058	-3.137	1.135	C.2	1	UNK0	0.000	
21	   C	-1.708	-3.235	1.400	C.2	1	UNK0	0.000	
22	   C	-4.176	-3.922	1.306	C.2	1	UNK0	0.000	
23	   C	-5.436	-3.525	0.922	C.2	1	UNK0	0.000	
24	   C	-5.579	-2.286	0.341	C.2	1	UNK0	0.000	
25	   C	-4.464	-1.485	0.162	C.2	1	UNK0	0.000	
26	   C	2.762	2.230	0.183	C.3	1	UNK0	0.000	
27	   C	2.548	2.212	-1.281	C.3	1	UNK0	0.000	
28	   C	1.146	2.609	-1.688	C.3	1	UNK0	0.000	
29	   N	1.059	2.556	-3.121	N.4	1	UNK0	0.000	
30	   C	0.595	1.278	-3.617	C.3	1	UNK0	0.000	
31	   C	0.071	3.549	-3.562	C.3	1	UNK0	0.000	
32	   H	4.342	-2.166	-1.919	 H	1	UNK0	0.000	
33	   H	2.450	-0.807	-1.026	 H	1	UNK0	0.000	
34	   H	4.226	-0.961	2.780	 H	1	UNK0	0.000	
35	   H	6.075	-2.308	1.905	 H	1	UNK0	0.000	
36	   H	2.355	0.176	2.638	 H	1	UNK0	0.000	
37	   H	-1.238	-4.091	1.861	 H	1	UNK0	0.000	
38	   H	-4.069	-4.894	1.762	 H	1	UNK0	0.000	
39	   H	-6.322	-4.150	1.058	 H	1	UNK0	0.000	
40	   H	-6.563	-1.959	0.033	 H	1	UNK0	0.000	
41	   H	-4.629	-0.504	-0.307	 H	1	UNK0	0.000	
42	   H	2.652	3.275	0.595	 H	1	UNK0	0.000	
43	   H	3.826	1.964	0.443	 H	1	UNK0	0.000	
44	   H	2.875	1.328	-1.827	 H	1	UNK0	0.000	
45	   H	3.208	3.048	-1.697	 H	1	UNK0	0.000	
46	   H	0.357	2.059	-1.180	 H	1	UNK0	0.000	
47	   H	1.036	3.685	-1.370	 H	1	UNK0	0.000	
48	   H	1.956	2.811	-3.578	 H	1	UNK0	0.000	
49	   H	-0.387	1.037	-3.180	 H	1	UNK0	0.000	
50	   H	1.281	0.453	-3.438	 H	1	UNK0	0.000	
51	   H	0.515	1.401	-4.731	 H	1	UNK0	0.000	
52	   H	-0.551	3.143	-4.401	 H	1	UNK0	0.000	
53	   H	-0.631	3.717	-2.708	 H	1	UNK0	0.000	
54	   H	0.581	4.483	-3.818	 H	1	UNK0	0.000	
@<TRIPOS>BOND
1 1 2 1
2 2 3 2
3 2 7 1
4 3 4 1
5 4 5 2
6 5 6 1
7 5 8 1
8 6 7 2
9 8 9 1
10 8 14 1
11 9 10 1
12 9 26 1
13 10 11 2
14 10 12 1
15 12 13 2
16 12 14 1
17 14 15 2
18 15 16 1
19 15 17 1
20 17 18 1
21 17 21 2
22 18 19 1
23 19 20 2
24 19 25 1
25 20 21 1
26 20 22 1
27 22 23 2
28 23 24 1
29 24 25 2
30 26 27 1
31 27 28 1
32 28 29 1
33 29 30 1
34 29 31 1
35 3 32 1
36 4 33 1
37 6 34 1
38 7 35 1
39 8 36 1
40 21 37 1
41 22 38 1
42 23 39 1
43 24 40 1
44 25 41 1
45 26 42 1
46 26 43 1
47 27 44 1
48 27 45 1
49 28 46 1
50 28 47 1
51 29 48 1
52 30 49 1
53 30 50 1
54 30 51 1
55 31 52 1
56 31 53 1
57 31 54 1
@<TRIPOS>SUBSTRUCTURE
1	UNK0	1	GROUP	1 ****	UNK
