# created with PyMOL 2.3.2
@<TRIPOS>MOLECULE
376
38 41 1                 
SMALL
USER_CHARGES
@<TRIPOS>ATOM
1	  Br	-0.173	0.639	-6.026	Br	1	UNK0	0.000	
2	   C	0.278	0.593	-4.165	C.2	1	UNK0	0.000	
3	   C	0.753	1.704	-3.497	C.2	1	UNK0	0.000	
4	   C	1.072	1.666	-2.174	C.2	1	UNK0	0.000	
5	   C	0.933	0.506	-1.440	C.2	1	UNK0	0.000	
6	   C	0.462	-0.612	-2.083	C.2	1	UNK0	0.000	
7	   C	0.142	-0.562	-3.424	C.2	1	UNK0	0.000	
8	   C	1.293	0.528	-0.020	C.3	1	UNK0	0.000	
9	   N	2.085	-0.633	0.371	N.4	1	UNK0	0.000	
10	   C	2.621	-0.458	1.685	C.3	1	UNK0	0.000	
11	   C	1.702	0.210	2.653	C.3	1	UNK0	0.000	
12	   C	0.317	0.342	2.207	C.2	1	UNK0	0.000	
13	   C	-0.910	0.347	2.820	C.2	1	UNK0	0.000	
14	   C	-1.853	0.511	1.839	C.2	1	UNK0	0.000	
15	   N	-1.224	0.605	0.640	N.pl3	1	UNK0	0.000	
16	   C	0.079	0.504	0.851	C.2	1	UNK0	0.000	
17	   C	-3.183	0.549	2.216	C.2	1	UNK0	0.000	
18	   C	-3.541	0.424	3.544	C.2	1	UNK0	0.000	
19	   C	-2.562	0.259	4.514	C.2	1	UNK0	0.000	
20	   C	-1.235	0.219	4.162	C.2	1	UNK0	0.000	
21	   C	3.917	0.289	1.554	C.2	1	UNK0	0.000	
22	   O	4.760	0.248	2.474	O.co2	1	UNK0	0.000	
23	   O	4.223	1.039	0.427	O.co2	1	UNK0	0.000	
24	   H	0.872	2.625	-4.043	 H	1	UNK0	0.000	
25	   H	1.447	2.577	-1.681	 H	1	UNK0	0.000	
26	   H	0.350	-1.537	-1.503	 H	1	UNK0	0.000	
27	   H	-0.228	-1.462	-3.907	 H	1	UNK0	0.000	
28	   H	1.852	1.429	0.240	 H	1	UNK0	0.000	
29	   H	2.825	-0.739	-0.341	 H	1	UNK0	0.000	
30	   H	1.418	-1.442	0.396	 H	1	UNK0	0.000	
31	   H	2.889	-1.480	2.082	 H	1	UNK0	0.000	
32	   H	1.735	-0.319	3.649	 H	1	UNK0	0.000	
33	   H	2.110	1.244	2.837	 H	1	UNK0	0.000	
34	   H	-1.714	0.734	-0.262	 H	1	UNK0	0.000	
35	   H	-3.926	0.680	1.421	 H	1	UNK0	0.000	
36	   H	-4.577	0.454	3.836	 H	1	UNK0	0.000	
37	   H	-2.834	0.162	5.550	 H	1	UNK0	0.000	
38	   H	-0.432	0.092	4.886	 H	1	UNK0	0.000	
@<TRIPOS>BOND
1 1 2 1
2 2 3 2
3 2 7 1
4 3 4 1
5 4 5 2
6 5 6 1
7 5 8 1
8 6 7 2
9 8 9 1
10 8 16 1
11 9 10 1
12 10 11 1
13 10 21 1
14 11 12 1
15 12 13 1
16 12 16 2
17 13 14 2
18 13 20 1
19 14 15 1
20 14 17 1
21 15 16 1
22 17 18 2
23 18 19 1
24 19 20 2
25 21 22 2
26 21 23 1
27 3 24 1
28 4 25 1
29 6 26 1
30 7 27 1
31 8 28 1
32 9 29 1
33 9 30 1
34 10 31 1
35 11 32 1
36 11 33 1
37 15 34 1
38 17 35 1
39 18 36 1
40 19 37 1
41 20 38 1
@<TRIPOS>SUBSTRUCTURE
1	UNK0	1	GROUP	1 ****	UNK
