# created with PyMOL 2.3.2
@<TRIPOS>MOLECULE
377
47 49 1                 
SMALL
USER_CHARGES
@<TRIPOS>ATOM
1	  Br	1.515	7.464	-1.651	Br	1	UNK0	0.000	
2	   C	1.278	5.772	-0.800	C.2	1	UNK0	0.000	
3	   C	1.058	4.616	-1.513	C.2	1	UNK0	0.000	
4	   C	0.883	3.378	-0.927	C.2	1	UNK0	0.000	
5	   C	0.924	3.260	0.445	C.2	1	UNK0	0.000	
6	   C	1.144	4.408	1.175	C.2	1	UNK0	0.000	
7	   C	1.321	5.660	0.567	C.2	1	UNK0	0.000	
8	   C	0.728	2.005	1.119	C.3	1	UNK0	0.000	
9	   N	0.198	2.042	2.467	N.4	1	UNK0	0.000	
10	   C	0.636	0.830	3.154	C.3	1	UNK0	0.000	
11	   C	0.851	-0.342	2.235	C.3	1	UNK0	0.000	
12	   C	-0.052	-0.261	1.037	C.2	1	UNK0	0.000	
13	   C	-0.862	-1.123	0.370	C.2	1	UNK0	0.000	
14	   C	-1.442	-0.390	-0.643	C.2	1	UNK0	0.000	
15	   N	-0.983	0.899	-0.581	N.pl3	1	UNK0	0.000	
16	   C	-0.133	1.001	0.433	C.2	1	UNK0	0.000	
17	   C	-2.321	-1.032	-1.483	C.2	1	UNK0	0.000	
18	   C	-2.589	-2.371	-1.285	C.2	1	UNK0	0.000	
19	   C	-2.006	-3.111	-0.266	C.2	1	UNK0	0.000	
20	   C	-1.123	-2.457	0.575	C.2	1	UNK0	0.000	
21	   O	-2.303	-4.464	-0.099	O.3	1	UNK0	0.000	
22	   C	-3.203	-5.062	-0.983	C.3	1	UNK0	0.000	
23	   O	-0.860	0.697	-1.928	O.co2	1	UNK0	0.000	
24	   C	0.527	0.607	-1.949	C.2	1	UNK0	0.000	
25	   O	1.236	1.209	-2.789	O.co2	1	UNK0	0.000	
26	   C	1.195	-0.236	-0.934	C.3	1	UNK0	0.000	
27	   H	1.025	4.711	-2.602	 H	1	UNK0	0.000	
28	   H	0.741	2.550	-1.602	 H	1	UNK0	0.000	
29	   H	1.205	4.453	2.253	 H	1	UNK0	0.000	
30	   H	1.493	6.559	1.140	 H	1	UNK0	0.000	
31	   H	1.742	1.508	1.221	 H	1	UNK0	0.000	
32	   H	-0.841	1.987	2.401	 H	1	UNK0	0.000	
33	   H	0.440	2.848	3.032	 H	1	UNK0	0.000	
34	   H	1.543	1.100	3.724	 H	1	UNK0	0.000	
35	   H	-0.123	0.519	3.908	 H	1	UNK0	0.000	
36	   H	0.610	-1.295	2.766	 H	1	UNK0	0.000	
37	   H	1.913	-0.357	1.935	 H	1	UNK0	0.000	
38	   H	-1.296	1.641	-1.242	 H	1	UNK0	0.000	
39	   H	-2.784	-0.472	-2.282	 H	1	UNK0	0.000	
40	   H	-3.278	-2.900	-1.934	 H	1	UNK0	0.000	
41	   H	-0.630	-2.968	1.390	 H	1	UNK0	0.000	
42	   H	-4.240	-4.626	-0.915	 H	1	UNK0	0.000	
43	   H	-2.908	-4.902	-2.059	 H	1	UNK0	0.000	
44	   H	-3.254	-6.163	-0.863	 H	1	UNK0	0.000	
45	   H	1.305	-1.265	-1.350	 H	1	UNK0	0.000	
46	   H	0.647	-0.276	0.015	 H	1	UNK0	0.000	
47	   H	2.223	0.137	-0.773	 H	1	UNK0	0.000	
@<TRIPOS>BOND
1 1 2 1
2 2 3 2
3 2 7 1
4 3 4 1
5 4 5 2
6 5 6 1
7 5 8 1
8 6 7 2
9 8 9 1
10 8 16 1
11 9 10 1
12 10 11 1
13 11 12 1
14 12 13 1
15 12 16 2
16 13 14 2
17 13 20 1
18 14 15 1
19 14 17 1
20 15 16 1
21 17 18 2
22 18 19 1
23 19 20 2
24 19 21 1
25 21 22 1
26 23 24 1
27 24 25 2
28 24 26 1
29 3 27 1
30 4 28 1
31 6 29 1
32 7 30 1
33 8 31 1
34 9 32 1
35 9 33 1
36 10 34 1
37 10 35 1
38 11 36 1
39 11 37 1
40 15 38 1
41 17 39 1
42 18 40 1
43 20 41 1
44 22 42 1
45 22 43 1
46 22 44 1
47 26 45 1
48 26 46 1
49 26 47 1
@<TRIPOS>SUBSTRUCTURE
1	UNK0	1	GROUP	1 ****	UNK
