# created with PyMOL 2.3.2
@<TRIPOS>MOLECULE
378
43 45 1                 
SMALL
USER_CHARGES
@<TRIPOS>ATOM
1	  Br	-4.614	-2.023	4.812	Br	1	UNK0	0.000	
2	   C	-3.076	-1.583	3.726	C.2	1	UNK0	0.000	
3	   C	-2.330	-0.462	3.995	C.2	1	UNK0	0.000	
4	   C	-1.217	-0.151	3.202	C.2	1	UNK0	0.000	
5	   C	-0.855	-0.954	2.154	C.2	1	UNK0	0.000	
6	   C	-1.600	-2.070	1.889	C.2	1	UNK0	0.000	
7	   C	-2.718	-2.390	2.678	C.2	1	UNK0	0.000	
8	   C	0.312	-0.622	1.330	C.3	1	UNK0	0.000	
9	   N	1.441	-0.252	2.151	N.4	1	UNK0	0.000	
10	   C	2.503	0.359	1.375	C.3	1	UNK0	0.000	
11	   C	2.087	1.706	0.837	C.3	1	UNK0	0.000	
12	   C	0.797	1.520	0.134	C.2	1	UNK0	0.000	
13	   C	0.229	2.372	-0.833	C.2	1	UNK0	0.000	
14	   C	-0.962	1.760	-1.169	C.2	1	UNK0	0.000	
15	   N	-1.092	0.630	-0.457	N.pl3	1	UNK0	0.000	
16	   C	-0.025	0.452	0.357	C.2	1	UNK0	0.000	
17	   C	-1.721	2.411	-2.118	C.2	1	UNK0	0.000	
18	   C	-1.341	3.597	-2.709	C.2	1	UNK0	0.000	
19	   C	-0.129	4.189	-2.345	C.2	1	UNK0	0.000	
20	   C	0.636	3.554	-1.403	C.2	1	UNK0	0.000	
21	   O	0.230	-1.508	-0.366	O.co2	1	UNK0	0.000	
22	   C	-0.005	-0.270	0.186	C.2	1	UNK0	0.000	
23	   O	0.601	0.069	1.224	O.co2	1	UNK0	0.000	
24	   C	-0.961	0.702	-0.402	C.3	1	UNK0	0.000	
25	   H	-2.623	0.162	4.821	 H	1	UNK0	0.000	
26	   H	-0.692	0.753	3.489	 H	1	UNK0	0.000	
27	   H	-1.390	-2.761	1.083	 H	1	UNK0	0.000	
28	   H	-3.312	-3.264	2.481	 H	1	UNK0	0.000	
29	   H	0.581	-1.537	0.716	 H	1	UNK0	0.000	
30	   H	1.222	0.344	2.950	 H	1	UNK0	0.000	
31	   H	1.844	-1.149	2.531	 H	1	UNK0	0.000	
32	   H	3.353	0.533	2.070	 H	1	UNK0	0.000	
33	   H	2.860	-0.305	0.585	 H	1	UNK0	0.000	
34	   H	2.894	2.039	0.133	 H	1	UNK0	0.000	
35	   H	2.031	2.463	1.637	 H	1	UNK0	0.000	
36	   H	-1.888	-0.041	-0.497	 H	1	UNK0	0.000	
37	   H	-2.663	1.982	-2.424	 H	1	UNK0	0.000	
38	   H	-1.954	4.077	-3.443	 H	1	UNK0	0.000	
39	   H	0.150	5.121	-2.822	 H	1	UNK0	0.000	
40	   H	1.568	3.986	-1.108	 H	1	UNK0	0.000	
41	   H	-0.739	1.720	-0.069	 H	1	UNK0	0.000	
42	   H	-0.890	0.614	-1.502	 H	1	UNK0	0.000	
43	   H	-1.994	0.461	-0.072	 H	1	UNK0	0.000	
@<TRIPOS>BOND
1 1 2 1
2 2 3 2
3 2 7 1
4 3 4 1
5 4 5 2
6 5 6 1
7 5 8 1
8 6 7 2
9 8 9 1
10 8 16 1
11 9 10 1
12 10 11 1
13 11 12 1
14 12 13 1
15 12 16 2
16 13 14 2
17 13 20 1
18 14 15 1
19 14 17 1
20 15 16 1
21 17 18 2
22 18 19 1
23 19 20 2
24 21 22 1
25 22 23 2
26 22 24 1
27 3 25 1
28 4 26 1
29 6 27 1
30 7 28 1
31 8 29 1
32 9 30 1
33 9 31 1
34 10 32 1
35 10 33 1
36 11 34 1
37 11 35 1
38 15 36 1
39 17 37 1
40 18 38 1
41 19 39 1
42 20 40 1
43 24 41 1
44 24 42 1
45 24 43 1
@<TRIPOS>SUBSTRUCTURE
1	UNK0	1	GROUP	1 ****	UNK
