# created with PyMOL 2.3.2
@<TRIPOS>MOLECULE
383
48 51 1                 
SMALL
USER_CHARGES
@<TRIPOS>ATOM
1	  Br	-0.811	-5.536	-6.710	Br	1	UNK0	0.000	
2	   C	-0.039	-5.115	-5.024	C.2	1	UNK0	0.000	
3	   C	-0.889	-4.773	-3.971	C.2	1	UNK0	0.000	
4	   C	-0.310	-4.469	-2.747	C.2	1	UNK0	0.000	
5	   C	1.053	-4.487	-2.523	C.2	1	UNK0	0.000	
6	   C	1.871	-4.834	-3.600	C.2	1	UNK0	0.000	
7	   C	1.327	-5.144	-4.839	C.2	1	UNK0	0.000	
8	   N	1.677	-4.171	-1.293	N.pl3	1	UNK0	0.000	
9	   C	1.051	-3.632	-0.148	C.2	1	UNK0	0.000	
10	   O	-0.154	-3.377	-0.128	O.2	1	UNK0	0.000	
11	   C	1.859	-3.367	1.052	C.3	1	UNK0	0.000	
12	   N	1.070	-2.816	2.135	N.pl3	1	UNK0	0.000	
13	   N	0.418	-3.428	3.102	N.pl3	1	UNK0	0.000	
14	   N	-0.154	-2.517	3.852	N.pl3	1	UNK0	0.000	
15	   C	0.131	-1.292	3.365	C.2	1	UNK0	0.000	
16	   C	0.888	-1.487	2.303	C.2	1	UNK0	0.000	
17	   C	1.177	-0.229	1.809	C.2	1	UNK0	0.000	
18	   O	1.894	-0.002	0.777	O.2	1	UNK0	0.000	
19	   N	0.605	0.732	2.556	N.pl3	1	UNK0	0.000	
20	   C	-0.050	0.075	3.530	C.2	1	UNK0	0.000	
21	   O	-0.724	0.600	4.451	O.2	1	UNK0	0.000	
22	   C	0.700	2.134	2.327	C.2	1	UNK0	0.000	
23	   C	-0.380	2.899	1.944	C.2	1	UNK0	0.000	
24	   C	-0.271	4.271	1.724	C.2	1	UNK0	0.000	
25	   C	0.932	4.922	1.881	C.2	1	UNK0	0.000	
26	   C	2.029	4.148	2.269	C.2	1	UNK0	0.000	
27	   C	1.899	2.796	2.481	C.2	1	UNK0	0.000	
28	   O	1.058	6.277	1.666	O.3	1	UNK0	0.000	
29	   C	0.043	7.155	1.271	C.3	1	UNK0	0.000	
30	   C	-0.577	6.837	-0.061	C.3	1	UNK0	0.000	
31	   H	-1.950	-4.744	-4.092	 H	1	UNK0	0.000	
32	   H	-0.992	-4.218	-1.962	 H	1	UNK0	0.000	
33	   H	2.933	-4.853	-3.447	 H	1	UNK0	0.000	
34	   H	2.009	-5.405	-5.635	 H	1	UNK0	0.000	
35	   H	2.736	-4.379	-1.254	 H	1	UNK0	0.000	
36	   H	2.735	-2.693	0.823	 H	1	UNK0	0.000	
37	   H	2.342	-4.300	1.463	 H	1	UNK0	0.000	
38	   H	0.384	-4.476	3.220	 H	1	UNK0	0.000	
39	   H	-0.736	-2.674	4.688	 H	1	UNK0	0.000	
40	   H	-1.340	2.446	1.806	 H	1	UNK0	0.000	
41	   H	-1.127	4.863	1.428	 H	1	UNK0	0.000	
42	   H	2.974	4.649	2.395	 H	1	UNK0	0.000	
43	   H	2.756	2.187	2.785	 H	1	UNK0	0.000	
44	   H	0.464	8.199	1.212	 H	1	UNK0	0.000	
45	   H	-0.765	7.239	2.032	 H	1	UNK0	0.000	
46	   H	-0.096	5.896	-0.454	 H	1	UNK0	0.000	
47	   H	-1.663	6.741	0.066	 H	1	UNK0	0.000	
48	   H	-0.371	7.682	-0.780	 H	1	UNK0	0.000	
@<TRIPOS>BOND
1 1 2 1
2 2 3 2
3 2 7 1
4 3 4 1
5 4 5 2
6 5 6 1
7 5 8 1
8 6 7 2
9 8 9 1
10 9 10 2
11 9 11 1
12 11 12 1
13 12 13 1
14 12 16 1
15 13 14 1
16 14 15 1
17 15 16 2
18 15 20 1
19 16 17 1
20 17 18 2
21 17 19 1
22 19 20 1
23 19 22 1
24 20 21 2
25 22 23 2
26 22 27 1
27 23 24 1
28 24 25 2
29 25 26 1
30 25 28 1
31 26 27 2
32 28 29 1
33 29 30 1
34 3 31 1
35 4 32 1
36 6 33 1
37 7 34 1
38 8 35 1
39 11 36 1
40 11 37 1
41 13 38 1
42 14 39 1
43 23 40 1
44 24 41 1
45 26 42 1
46 27 43 1
47 29 44 1
48 29 45 1
49 30 46 1
50 30 47 1
51 30 48 1
@<TRIPOS>SUBSTRUCTURE
1	UNK0	1	GROUP	1 ****	UNK
