# created with PyMOL 2.3.2
@<TRIPOS>MOLECULE
384
41 44 1                 
SMALL
USER_CHARGES
@<TRIPOS>ATOM
1	  Br	-4.497	6.594	-3.221	Br	1	UNK0	0.000	
2	   C	-2.995	5.481	-2.807	C.2	1	UNK0	0.000	
3	   C	-1.812	6.017	-2.359	C.2	1	UNK0	0.000	
4	   C	-0.722	5.235	-2.055	C.2	1	UNK0	0.000	
5	   C	-0.765	3.847	-2.190	C.2	1	UNK0	0.000	
6	   C	-1.955	3.318	-2.640	C.2	1	UNK0	0.000	
7	   C	-3.057	4.120	-2.946	C.2	1	UNK0	0.000	
8	   N	0.381	3.096	-1.870	N.pl3	1	UNK0	0.000	
9	   C	0.535	1.711	-1.826	C.2	1	UNK0	0.000	
10	   O	-0.410	0.940	-2.086	O.2	1	UNK0	0.000	
11	   C	1.841	1.093	-1.463	C.3	1	UNK0	0.000	
12	   N	2.023	0.946	-0.036	N.pl3	1	UNK0	0.000	
13	   N	2.588	1.864	0.758	N.pl3	1	UNK0	0.000	
14	   N	2.593	1.400	1.995	N.pl3	1	UNK0	0.000	
15	   C	2.030	0.176	2.013	C.2	1	UNK0	0.000	
16	   C	1.691	-0.081	0.766	C.2	1	UNK0	0.000	
17	   C	1.110	-1.349	0.796	C.2	1	UNK0	0.000	
18	   O	0.659	-1.934	-0.217	O.2	1	UNK0	0.000	
19	   N	1.106	-1.838	2.053	N.pl3	1	UNK0	0.000	
20	   C	1.672	-0.904	2.810	C.2	1	UNK0	0.000	
21	   O	1.857	-0.982	4.052	O.2	1	UNK0	0.000	
22	   C	0.584	-3.117	2.442	C.2	1	UNK0	0.000	
23	   C	-0.196	-3.227	3.572	C.2	1	UNK0	0.000	
24	   C	-0.714	-4.443	3.979	C.2	1	UNK0	0.000	
25	   C	-0.476	-5.604	3.274	C.2	1	UNK0	0.000	
26	   C	0.306	-5.495	2.141	C.2	1	UNK0	0.000	
27	   C	0.829	-4.270	1.730	C.2	1	UNK0	0.000	
28	   H	-1.773	7.113	-2.251	 H	1	UNK0	0.000	
29	   H	0.196	5.687	-1.704	 H	1	UNK0	0.000	
30	   H	-2.063	2.244	-2.774	 H	1	UNK0	0.000	
31	   H	-3.994	3.693	-3.303	 H	1	UNK0	0.000	
32	   H	1.261	3.656	-1.630	 H	1	UNK0	0.000	
33	   H	2.651	1.734	-1.904	 H	1	UNK0	0.000	
34	   H	1.913	0.129	-2.004	 H	1	UNK0	0.000	
35	   H	2.960	2.789	0.454	 H	1	UNK0	0.000	
36	   H	2.970	1.890	2.843	 H	1	UNK0	0.000	
37	   H	-0.378	-2.297	4.125	 H	1	UNK0	0.000	
38	   H	-1.326	-4.506	4.871	 H	1	UNK0	0.000	
39	   H	-0.870	-6.566	3.574	 H	1	UNK0	0.000	
40	   H	0.498	-6.405	1.583	 H	1	UNK0	0.000	
41	   H	1.447	-4.208	0.826	 H	1	UNK0	0.000	
@<TRIPOS>BOND
1 1 2 1
2 2 3 2
3 2 7 1
4 3 4 1
5 4 5 2
6 5 6 1
7 5 8 1
8 6 7 2
9 8 9 1
10 9 10 2
11 9 11 1
12 11 12 1
13 12 13 1
14 12 16 1
15 13 14 1
16 14 15 1
17 15 16 2
18 15 20 1
19 16 17 1
20 17 18 2
21 17 19 1
22 19 20 1
23 19 22 1
24 20 21 2
25 22 23 2
26 22 27 1
27 23 24 1
28 24 25 2
29 25 26 1
30 26 27 2
31 3 28 1
32 4 29 1
33 6 30 1
34 7 31 1
35 8 32 1
36 11 33 1
37 11 34 1
38 13 35 1
39 14 36 1
40 23 37 1
41 24 38 1
42 25 39 1
43 26 40 1
44 27 41 1
@<TRIPOS>SUBSTRUCTURE
1	UNK0	1	GROUP	1 ****	UNK
