# created with PyMOL 2.3.2
@<TRIPOS>MOLECULE
391
32 35 1                 
SMALL
USER_CHARGES
@<TRIPOS>ATOM
1	  Br	0.276	-4.406	5.382	Br	1	UNK0	0.000	
2	   C	-0.071	-3.193	3.949	C.2	1	UNK0	0.000	
3	   C	0.877	-2.920	2.990	C.2	1	UNK0	0.000	
4	   C	0.642	-2.046	1.947	C.2	1	UNK0	0.000	
5	   C	-0.583	-1.405	1.837	C.2	1	UNK0	0.000	
6	   C	-1.533	-1.678	2.798	C.2	1	UNK0	0.000	
7	   C	-1.292	-2.550	3.833	C.2	1	UNK0	0.000	
8	   N	-0.812	-0.510	0.763	N.pl3	1	UNK0	0.000	
9	   N	-0.827	-0.767	-0.534	N.pl3	1	UNK0	0.000	
10	   N	-1.082	0.383	-1.152	N.2	1	UNK0	0.000	
11	   C	-1.230	1.373	-0.255	C.2	1	UNK0	0.000	
12	   N	-1.057	0.797	0.948	N.2	1	UNK0	0.000	
13	   C	-1.517	2.784	-0.493	C.2	1	UNK0	0.000	
14	   C	-1.636	3.666	0.559	C.2	1	UNK0	0.000	
15	   C	-1.906	5.005	0.376	C.2	1	UNK0	0.000	
16	   C	-2.059	5.458	-0.914	C.2	1	UNK0	0.000	
17	   C	-1.950	4.615	-1.998	C.2	1	UNK0	0.000	
18	   C	-1.678	3.278	-1.768	C.2	1	UNK0	0.000	
19	   C	-0.606	-2.053	-1.124	C.2	1	UNK0	0.000	
20	   N	0.533	-2.666	-1.442	N.pl3	1	UNK0	0.000	
21	   N	0.219	-3.851	-1.967	N.2	1	UNK0	0.000	
22	   N	-1.082	-4.013	-1.994	N.2	1	UNK0	0.000	
23	   N	-1.597	-2.915	-1.479	N.2	1	UNK0	0.000	
24	   H	1.841	-3.402	3.046	 H	1	UNK0	0.000	
25	   H	1.389	-1.827	1.187	 H	1	UNK0	0.000	
26	   H	-2.496	-1.169	2.704	 H	1	UNK0	0.000	
27	   H	-2.056	-2.744	4.571	 H	1	UNK0	0.000	
28	   H	-1.516	3.321	1.596	 H	1	UNK0	0.000	
29	   H	-1.994	5.678	1.230	 H	1	UNK0	0.000	
30	   H	-2.275	6.517	-1.104	 H	1	UNK0	0.000	
31	   H	-2.076	5.001	-3.006	 H	1	UNK0	0.000	
32	   H	-1.590	2.608	-2.626	 H	1	UNK0	0.000	
@<TRIPOS>BOND
1 1 2 1
2 2 3 2
3 2 7 1
4 3 4 1
5 4 5 2
6 5 6 1
7 5 8 1
8 6 7 2
9 8 9 1
10 8 12 2
11 9 10 1
12 9 19 1
13 10 11 2
14 11 12 1
15 11 13 1
16 13 14 2
17 13 18 1
18 14 15 1
19 15 16 2
20 16 17 1
21 17 18 2
22 19 20 1
23 19 23 2
24 20 21 1
25 21 22 2
26 22 23 1
27 3 24 1
28 4 25 1
29 6 26 1
30 7 27 1
31 14 28 1
32 15 29 1
33 16 30 1
34 17 31 1
35 18 32 1
@<TRIPOS>SUBSTRUCTURE
1	UNK0	1	GROUP	1 ****	UNK
