# created with PyMOL 2.3.2
@<TRIPOS>MOLECULE
392
50 53 1                 
SMALL
USER_CHARGES
@<TRIPOS>ATOM
1	  Br	-8.319	1.616	0.691	Br	1	UNK0	0.000	
2	   C	-6.498	1.201	0.343	C.2	1	UNK0	0.000	
3	   C	-5.933	1.397	-0.922	C.2	1	UNK0	0.000	
4	   C	-4.605	1.078	-1.118	C.2	1	UNK0	0.000	
5	   C	-3.797	0.568	-0.117	C.2	1	UNK0	0.000	
6	   C	-4.385	0.388	1.115	C.2	1	UNK0	0.000	
7	   C	-5.724	0.700	1.347	C.2	1	UNK0	0.000	
8	   N	-2.428	0.243	-0.333	N.pl3	1	UNK0	0.000	
9	   C	-1.319	0.900	0.051	C.2	1	UNK0	0.000	
10	   C	-0.179	0.236	-0.368	C.2	1	UNK0	0.000	
11	   C	-0.632	-0.885	-1.044	C.2	1	UNK0	0.000	
12	   C	-2.012	-0.849	-1.003	C.2	1	UNK0	0.000	
13	   C	-2.915	-1.875	-1.614	C.3	1	UNK0	0.000	
14	   C	1.185	0.672	-0.122	C.2	1	UNK0	0.000	
15	   O	1.401	1.725	0.515	O.2	1	UNK0	0.000	
16	   C	2.328	-0.124	-0.623	C.3	1	UNK0	0.000	
17	   N	3.601	0.431	-0.303	N.4	1	UNK0	0.000	
18	   C	4.631	-0.421	-0.926	C.3	1	UNK0	0.000	
19	   C	5.989	-0.104	-0.305	C.3	1	UNK0	0.000	
20	   N	5.948	1.311	0.090	N.3	1	UNK0	0.000	
21	   C	5.083	1.451	1.253	C.3	1	UNK0	0.000	
22	   C	3.920	0.476	1.090	C.3	1	UNK0	0.000	
23	   C	5.311	2.004	-1.029	C.3	1	UNK0	0.000	
24	   C	3.807	1.747	-0.892	C.3	1	UNK0	0.000	
25	   C	-1.374	2.166	0.821	C.3	1	UNK0	0.000	
26	   H	-6.529	1.791	-1.727	 H	1	UNK0	0.000	
27	   H	-4.211	1.246	-2.112	 H	1	UNK0	0.000	
28	   H	-3.742	-0.011	1.889	 H	1	UNK0	0.000	
29	   H	-6.097	0.520	2.362	 H	1	UNK0	0.000	
30	   H	0.035	-1.605	-1.491	 H	1	UNK0	0.000	
31	   H	-3.949	-1.751	-1.234	 H	1	UNK0	0.000	
32	   H	-2.832	-1.914	-2.702	 H	1	UNK0	0.000	
33	   H	-2.574	-2.871	-1.229	 H	1	UNK0	0.000	
34	   H	2.277	-1.177	-0.275	 H	1	UNK0	0.000	
35	   H	2.284	-0.202	-1.749	 H	1	UNK0	0.000	
36	   H	4.651	-0.285	-2.025	 H	1	UNK0	0.000	
37	   H	4.334	-1.460	-0.735	 H	1	UNK0	0.000	
38	   H	6.164	-0.746	0.571	 H	1	UNK0	0.000	
39	   H	6.752	-0.215	-1.086	 H	1	UNK0	0.000	
40	   H	4.740	2.494	1.289	 H	1	UNK0	0.000	
41	   H	5.657	1.200	2.184	 H	1	UNK0	0.000	
42	   H	4.306	-0.515	1.405	 H	1	UNK0	0.000	
43	   H	3.117	0.756	1.764	 H	1	UNK0	0.000	
44	   H	5.534	3.082	-0.937	 H	1	UNK0	0.000	
45	   H	5.711	1.632	-1.979	 H	1	UNK0	0.000	
46	   H	3.372	1.817	-1.913	 H	1	UNK0	0.000	
47	   H	3.416	2.568	-0.298	 H	1	UNK0	0.000	
48	   H	-0.638	2.858	0.311	 H	1	UNK0	0.000	
49	   H	-0.954	2.052	1.842	 H	1	UNK0	0.000	
50	   H	-2.335	2.668	0.772	 H	1	UNK0	0.000	
@<TRIPOS>BOND
1 1 2 1
2 2 3 2
3 2 7 1
4 3 4 1
5 4 5 2
6 5 6 1
7 5 8 1
8 6 7 2
9 8 9 1
10 8 12 1
11 9 10 2
12 9 25 1
13 10 11 1
14 10 14 1
15 11 12 2
16 12 13 1
17 14 15 2
18 14 16 1
19 16 17 1
20 17 18 1
21 17 22 1
22 17 24 1
23 18 19 1
24 19 20 1
25 20 21 1
26 20 23 1
27 21 22 1
28 23 24 1
29 3 26 1
30 4 27 1
31 6 28 1
32 7 29 1
33 11 30 1
34 13 31 1
35 13 32 1
36 13 33 1
37 16 34 1
38 16 35 1
39 18 36 1
40 18 37 1
41 19 38 1
42 19 39 1
43 21 40 1
44 21 41 1
45 22 42 1
46 22 43 1
47 23 44 1
48 23 45 1
49 24 46 1
50 24 47 1
51 25 48 1
52 25 49 1
53 25 50 1
@<TRIPOS>SUBSTRUCTURE
1	UNK0	1	GROUP	1 ****	UNK
