# created with PyMOL 2.3.2
@<TRIPOS>MOLECULE
394
44 47 1                 
SMALL
USER_CHARGES
@<TRIPOS>ATOM
1	  Br	0.647	7.561	-2.145	Br	1	UNK0	0.000	
2	   C	-0.108	6.003	-1.327	C.2	1	UNK0	0.000	
3	   C	-0.421	4.879	-2.064	C.2	1	UNK0	0.000	
4	   C	-0.966	3.762	-1.457	C.2	1	UNK0	0.000	
5	   C	-1.220	3.719	-0.102	C.2	1	UNK0	0.000	
6	   C	-0.911	4.833	0.636	C.2	1	UNK0	0.000	
7	   C	-0.365	5.953	0.027	C.2	1	UNK0	0.000	
8	   N	-1.784	2.559	0.518	N.pl3	1	UNK0	0.000	
9	   N	-3.065	2.229	0.612	N.2	1	UNK0	0.000	
10	   N	-3.210	1.083	1.255	N.2	1	UNK0	0.000	
11	   C	-1.986	0.619	1.610	C.2	1	UNK0	0.000	
12	   C	-1.108	1.573	1.130	C.2	1	UNK0	0.000	
13	   N	0.207	1.337	1.362	N.2	1	UNK0	0.000	
14	   C	0.616	0.238	2.019	C.2	1	UNK0	0.000	
15	   N	-0.222	-0.700	2.492	N.pl3	1	UNK0	0.000	
16	   C	-1.536	-0.503	2.283	C.2	1	UNK0	0.000	
17	   O	-2.347	-1.356	2.710	O.2	1	UNK0	0.000	
18	   C	0.283	-1.882	3.203	C.3	1	UNK0	0.000	
19	   C	0.535	-2.955	2.215	C.2	1	UNK0	0.000	
20	   O	0.974	-4.069	2.594	O.2	1	UNK0	0.000	
21	   N	0.292	-2.762	0.839	N.pl3	1	UNK0	0.000	
22	   C	0.541	-3.814	-0.114	C.3	1	UNK0	0.000	
23	   C	0.205	-3.365	-1.516	C.3	1	UNK0	0.000	
24	   O	0.464	-4.417	-2.390	O.3	1	UNK0	0.000	
25	   C	-0.375	-4.263	-3.470	C.3	1	UNK0	0.000	
26	   C	-1.668	-3.664	-2.964	C.3	1	UNK0	0.000	
27	   C	-1.266	-3.044	-1.665	C.3	1	UNK0	0.000	
28	   H	-0.227	4.893	-3.145	 H	1	UNK0	0.000	
29	   H	-1.218	2.868	-2.029	 H	1	UNK0	0.000	
30	   H	-1.104	4.821	1.712	 H	1	UNK0	0.000	
31	   H	-0.117	6.843	0.610	 H	1	UNK0	0.000	
32	   H	1.675	0.082	2.186	 H	1	UNK0	0.000	
33	   H	-0.473	-2.253	3.941	 H	1	UNK0	0.000	
34	   H	1.221	-1.653	3.750	 H	1	UNK0	0.000	
35	   H	-0.071	-1.854	0.495	 H	1	UNK0	0.000	
36	   H	1.616	-4.117	-0.130	 H	1	UNK0	0.000	
37	   H	-0.085	-4.694	0.131	 H	1	UNK0	0.000	
38	   H	0.775	-2.467	-1.768	 H	1	UNK0	0.000	
39	   H	0.045	-3.599	-4.255	 H	1	UNK0	0.000	
40	   H	-0.628	-5.250	-3.903	 H	1	UNK0	0.000	
41	   H	-2.449	-4.445	-2.817	 H	1	UNK0	0.000	
42	   H	-2.057	-2.910	-3.692	 H	1	UNK0	0.000	
43	   H	-1.473	-1.959	-1.674	 H	1	UNK0	0.000	
44	   H	-1.840	-3.463	-0.793	 H	1	UNK0	0.000	
@<TRIPOS>BOND
1 1 2 1
2 2 3 2
3 2 7 1
4 3 4 1
5 4 5 2
6 5 6 1
7 5 8 1
8 6 7 2
9 8 9 1
10 8 12 1
11 9 10 2
12 10 11 1
13 11 12 2
14 11 16 1
15 12 13 1
16 13 14 2
17 14 15 1
18 15 16 1
19 15 18 1
20 16 17 2
21 18 19 1
22 19 20 2
23 19 21 1
24 21 22 1
25 22 23 1
26 23 24 1
27 23 27 1
28 24 25 1
29 25 26 1
30 26 27 1
31 3 28 1
32 4 29 1
33 6 30 1
34 7 31 1
35 14 32 1
36 18 33 1
37 18 34 1
38 21 35 1
39 22 36 1
40 22 37 1
41 23 38 1
42 25 39 1
43 25 40 1
44 26 41 1
45 26 42 1
46 27 43 1
47 27 44 1
@<TRIPOS>SUBSTRUCTURE
1	UNK0	1	GROUP	1 ****	UNK
