# created with PyMOL 2.3.2
@<TRIPOS>MOLECULE
395
47 50 1                 
SMALL
USER_CHARGES
@<TRIPOS>ATOM
1	  Br	8.011	-4.096	4.983	Br	1	UNK0	0.000	
2	   C	6.567	-2.886	4.638	C.2	1	UNK0	0.000	
3	   C	6.489	-1.666	5.276	C.2	1	UNK0	0.000	
4	   C	5.451	-0.777	5.039	C.2	1	UNK0	0.000	
5	   C	4.450	-1.091	4.144	C.2	1	UNK0	0.000	
6	   C	4.535	-2.314	3.509	C.2	1	UNK0	0.000	
7	   C	5.566	-3.200	3.743	C.2	1	UNK0	0.000	
8	   N	3.383	-0.170	3.905	N.pl3	1	UNK0	0.000	
9	   N	2.870	0.720	4.737	N.2	1	UNK0	0.000	
10	   N	1.890	1.403	4.170	N.2	1	UNK0	0.000	
11	   C	1.731	0.957	2.895	C.2	1	UNK0	0.000	
12	   C	2.688	-0.033	2.762	C.2	1	UNK0	0.000	
13	   N	2.757	-0.656	1.580	N.2	1	UNK0	0.000	
14	   C	1.927	-0.324	0.576	C.2	1	UNK0	0.000	
15	   N	0.989	0.643	0.698	N.pl3	1	UNK0	0.000	
16	   C	0.886	1.292	1.864	C.2	1	UNK0	0.000	
17	   O	0.020	2.187	1.980	O.2	1	UNK0	0.000	
18	   C	0.140	0.931	-0.443	C.3	1	UNK0	0.000	
19	   C	-1.098	0.072	-0.399	C.2	1	UNK0	0.000	
20	   O	-1.276	-0.749	0.540	O.2	1	UNK0	0.000	
21	   N	-2.084	0.169	-1.409	N.pl3	1	UNK0	0.000	
22	   C	-3.273	-0.649	-1.378	C.3	1	UNK0	0.000	
23	   C	-3.477	-1.184	-2.785	C.3	1	UNK0	0.000	
24	   O	-3.534	-0.204	-3.742	O.3	1	UNK0	0.000	
25	   C	-3.202	1.054	-3.303	C.3	1	UNK0	0.000	
26	   C	-1.916	1.097	-2.503	C.3	1	UNK0	0.000	
27	   C	-3.148	2.076	-4.400	C.3	1	UNK0	0.000	
28	   C	-4.839	-1.886	-2.779	C.3	1	UNK0	0.000	
29	   H	7.266	-1.414	5.975	 H	1	UNK0	0.000	
30	   H	5.398	0.175	5.543	 H	1	UNK0	0.000	
31	   H	3.767	-2.587	2.805	 H	1	UNK0	0.000	
32	   H	5.631	-4.166	3.240	 H	1	UNK0	0.000	
33	   H	2.009	-0.853	-0.382	 H	1	UNK0	0.000	
34	   H	-0.194	1.986	-0.446	 H	1	UNK0	0.000	
35	   H	0.652	0.660	-1.389	 H	1	UNK0	0.000	
36	   H	-4.163	-0.081	-1.035	 H	1	UNK0	0.000	
37	   H	-3.085	-1.480	-0.680	 H	1	UNK0	0.000	
38	   H	-2.690	-1.952	-2.968	 H	1	UNK0	0.000	
39	   H	-4.010	1.385	-2.588	 H	1	UNK0	0.000	
40	   H	-1.780	2.138	-2.157	 H	1	UNK0	0.000	
41	   H	-1.040	0.773	-3.089	 H	1	UNK0	0.000	
42	   H	-3.483	3.061	-4.011	 H	1	UNK0	0.000	
43	   H	-2.112	2.226	-4.792	 H	1	UNK0	0.000	
44	   H	-3.852	1.814	-5.229	 H	1	UNK0	0.000	
45	   H	-4.942	-2.353	-1.783	 H	1	UNK0	0.000	
46	   H	-5.662	-1.179	-2.918	 H	1	UNK0	0.000	
47	   H	-4.846	-2.713	-3.537	 H	1	UNK0	0.000	
@<TRIPOS>BOND
1 1 2 1
2 2 3 2
3 2 7 1
4 3 4 1
5 4 5 2
6 5 6 1
7 5 8 1
8 6 7 2
9 8 9 1
10 8 12 1
11 9 10 2
12 10 11 1
13 11 12 2
14 11 16 1
15 12 13 1
16 13 14 2
17 14 15 1
18 15 16 1
19 15 18 1
20 16 17 2
21 18 19 1
22 19 20 2
23 19 21 1
24 21 22 1
25 21 26 1
26 22 23 1
27 23 24 1
28 23 28 1
29 24 25 1
30 25 26 1
31 25 27 1
32 3 29 1
33 4 30 1
34 6 31 1
35 7 32 1
36 14 33 1
37 18 34 1
38 18 35 1
39 22 36 1
40 22 37 1
41 23 38 1
42 25 39 1
43 26 40 1
44 26 41 1
45 27 42 1
46 27 43 1
47 27 44 1
48 28 45 1
49 28 46 1
50 28 47 1
@<TRIPOS>SUBSTRUCTURE
1	UNK0	1	GROUP	1 ****	UNK
