# created with PyMOL 2.3.2
@<TRIPOS>MOLECULE
397
42 45 1                 
SMALL
USER_CHARGES
@<TRIPOS>ATOM
1	  Br	-1.791	-5.970	-3.365	Br	1	UNK0	0.000	
2	   C	-1.686	-4.144	-2.843	C.2	1	UNK0	0.000	
3	   C	-0.645	-3.326	-3.216	C.2	1	UNK0	0.000	
4	   C	-0.594	-2.004	-2.822	C.2	1	UNK0	0.000	
5	   C	-1.584	-1.441	-2.037	C.2	1	UNK0	0.000	
6	   C	-2.616	-2.279	-1.677	C.2	1	UNK0	0.000	
7	   C	-2.691	-3.598	-2.055	C.2	1	UNK0	0.000	
8	   N	-1.500	-0.072	-1.650	N.pl3	1	UNK0	0.000	
9	   C	-0.822	0.434	-0.507	C.2	1	UNK0	0.000	
10	   O	-0.189	-0.240	0.349	O.2	1	UNK0	0.000	
11	   C	-0.945	1.901	-0.425	C.2	1	UNK0	0.000	
12	   C	-1.673	2.245	-1.488	C.2	1	UNK0	0.000	
13	   C	-2.045	1.084	-2.278	C.2	1	UNK0	0.000	
14	   O	-2.721	1.026	-3.336	O.2	1	UNK0	0.000	
15	   N	-0.401	2.749	0.574	N.pl3	1	UNK0	0.000	
16	   C	0.789	3.540	0.384	C.3	1	UNK0	0.000	
17	   C	1.691	3.478	1.623	C.3	1	UNK0	0.000	
18	   N	1.262	2.306	2.359	N.pl3	1	UNK0	0.000	
19	   C	-0.095	2.289	2.875	C.3	1	UNK0	0.000	
20	   C	-1.081	2.816	1.848	C.3	1	UNK0	0.000	
21	   C	2.136	1.204	2.572	C.2	1	UNK0	0.000	
22	   N	3.387	1.226	2.081	N.2	1	UNK0	0.000	
23	   C	4.252	0.204	2.257	C.2	1	UNK0	0.000	
24	   C	3.856	-0.917	2.967	C.2	1	UNK0	0.000	
25	   C	2.572	-0.934	3.468	C.2	1	UNK0	0.000	
26	   N	1.766	0.122	3.252	N.2	1	UNK0	0.000	
27	   H	0.142	-3.771	-3.839	 H	1	UNK0	0.000	
28	   H	0.242	-1.398	-3.137	 H	1	UNK0	0.000	
29	   H	-3.407	-1.878	-1.066	 H	1	UNK0	0.000	
30	   H	-3.513	-4.250	-1.764	 H	1	UNK0	0.000	
31	   H	-1.956	3.269	-1.736	 H	1	UNK0	0.000	
32	   H	1.372	3.161	-0.469	 H	1	UNK0	0.000	
33	   H	0.540	4.623	0.211	 H	1	UNK0	0.000	
34	   H	1.482	4.353	2.287	 H	1	UNK0	0.000	
35	   H	2.728	3.434	1.303	 H	1	UNK0	0.000	
36	   H	-0.178	2.842	3.834	 H	1	UNK0	0.000	
37	   H	-0.380	1.244	3.099	 H	1	UNK0	0.000	
38	   H	-1.345	3.873	2.109	 H	1	UNK0	0.000	
39	   H	-1.979	2.172	1.874	 H	1	UNK0	0.000	
40	   H	5.260	0.212	1.867	 H	1	UNK0	0.000	
41	   H	4.554	-1.752	3.114	 H	1	UNK0	0.000	
42	   H	2.265	-1.808	4.021	 H	1	UNK0	0.000	
@<TRIPOS>BOND
1 1 2 1
2 2 3 2
3 2 7 1
4 3 4 1
5 4 5 2
6 5 6 1
7 5 8 1
8 6 7 2
9 8 9 1
10 8 13 1
11 9 10 2
12 9 11 1
13 11 12 2
14 11 15 1
15 12 13 1
16 13 14 2
17 15 16 1
18 15 20 1
19 16 17 1
20 17 18 1
21 18 19 1
22 18 21 1
23 19 20 1
24 21 22 2
25 21 26 1
26 22 23 1
27 23 24 2
28 24 25 1
29 25 26 2
30 3 27 1
31 4 28 1
32 6 29 1
33 7 30 1
34 12 31 1
35 16 32 1
36 16 33 1
37 17 34 1
38 17 35 1
39 19 36 1
40 19 37 1
41 20 38 1
42 20 39 1
43 23 40 1
44 24 41 1
45 25 42 1
@<TRIPOS>SUBSTRUCTURE
1	UNK0	1	GROUP	1 ****	UNK
