# created with PyMOL 2.3.2
@<TRIPOS>MOLECULE
398
47 50 1                 
SMALL
USER_CHARGES
@<TRIPOS>ATOM
1	  Br	-5.990	3.406	1.945	Br	1	UNK0	0.000	
2	   C	-4.149	3.299	1.390	C.2	1	UNK0	0.000	
3	   C	-3.667	2.146	0.814	C.2	1	UNK0	0.000	
4	   C	-2.351	2.073	0.417	C.2	1	UNK0	0.000	
5	   C	-1.478	3.126	0.574	C.2	1	UNK0	0.000	
6	   C	-1.969	4.276	1.151	C.2	1	UNK0	0.000	
7	   C	-3.296	4.360	1.556	C.2	1	UNK0	0.000	
8	   N	-0.105	3.013	0.141	N.pl3	1	UNK0	0.000	
9	   C	1.016	2.651	0.932	C.2	1	UNK0	0.000	
10	   O	1.157	2.879	2.168	O.2	1	UNK0	0.000	
11	   C	1.955	1.962	-0.007	C.3	1	UNK0	0.000	
12	   C	1.847	2.882	-1.185	C.3	1	UNK0	0.000	
13	   C	0.391	3.250	-1.169	C.2	1	UNK0	0.000	
14	   O	-0.279	3.696	-2.157	O.2	1	UNK0	0.000	
15	   N	1.431	0.651	-0.188	N.4	1	UNK0	0.000	
16	   C	1.804	-0.143	0.971	C.3	1	UNK0	0.000	
17	   C	1.668	-1.594	0.657	C.3	1	UNK0	0.000	
18	   N	0.681	-1.899	-0.343	N.pl3	1	UNK0	0.000	
19	   C	0.684	-1.123	-1.568	C.3	1	UNK0	0.000	
20	   C	1.777	-0.059	-1.358	C.3	1	UNK0	0.000	
21	   C	-0.248	-2.941	-0.087	C.2	1	UNK0	0.000	
22	   C	0.217	-4.223	0.114	C.2	1	UNK0	0.000	
23	   C	-0.654	-5.276	0.370	C.2	1	UNK0	0.000	
24	   C	-2.013	-5.063	0.429	C.2	1	UNK0	0.000	
25	   C	-2.473	-3.780	0.227	C.2	1	UNK0	0.000	
26	   C	-1.614	-2.729	-0.027	C.2	1	UNK0	0.000	
27	   O	1.592	-4.483	0.063	O.2	1	UNK0	0.000	
28	   H	-4.299	1.272	0.657	 H	1	UNK0	0.000	
29	   H	-1.988	1.160	-0.034	 H	1	UNK0	0.000	
30	   H	-1.322	5.113	1.290	 H	1	UNK0	0.000	
31	   H	-3.675	5.270	2.010	 H	1	UNK0	0.000	
32	   H	2.981	1.949	0.431	 H	1	UNK0	0.000	
33	   H	2.478	3.779	-0.995	 H	1	UNK0	0.000	
34	   H	2.134	2.490	-2.148	 H	1	UNK0	0.000	
35	   H	0.372	0.715	-0.152	 H	1	UNK0	0.000	
36	   H	1.162	0.082	1.858	 H	1	UNK0	0.000	
37	   H	2.861	0.038	1.280	 H	1	UNK0	0.000	
38	   H	1.455	-2.153	1.609	 H	1	UNK0	0.000	
39	   H	2.639	-2.054	0.310	 H	1	UNK0	0.000	
40	   H	0.839	-1.710	-2.470	 H	1	UNK0	0.000	
41	   H	-0.278	-0.545	-1.559	 H	1	UNK0	0.000	
42	   H	2.708	-0.659	-1.163	 H	1	UNK0	0.000	
43	   H	1.969	0.496	-2.268	 H	1	UNK0	0.000	
44	   H	-0.249	-6.266	0.522	 H	1	UNK0	0.000	
45	   H	-2.696	-5.873	0.627	 H	1	UNK0	0.000	
46	   H	-3.533	-3.606	0.272	 H	1	UNK0	0.000	
47	   H	-1.972	-1.711	-0.188	 H	1	UNK0	0.000	
@<TRIPOS>BOND
1 1 2 1
2 2 3 2
3 2 7 1
4 3 4 1
5 4 5 2
6 5 6 1
7 5 8 1
8 6 7 2
9 8 9 1
10 8 13 1
11 9 10 2
12 9 11 1
13 11 12 1
14 11 15 1
15 12 13 1
16 13 14 2
17 15 16 1
18 15 20 1
19 16 17 1
20 17 18 1
21 18 19 1
22 18 21 1
23 19 20 1
24 21 22 2
25 21 26 1
26 22 23 1
27 22 27 1
28 23 24 2
29 24 25 1
30 25 26 2
31 3 28 1
32 4 29 1
33 6 30 1
34 7 31 1
35 11 32 1
36 12 33 1
37 12 34 1
38 15 35 1
39 16 36 1
40 16 37 1
41 17 38 1
42 17 39 1
43 19 40 1
44 19 41 1
45 20 42 1
46 20 43 1
47 23 44 1
48 24 45 1
49 25 46 1
50 26 47 1
@<TRIPOS>SUBSTRUCTURE
1	UNK0	1	GROUP	1 ****	UNK
