# created with PyMOL 2.3.2
@<TRIPOS>MOLECULE
400
56 59 1                 
SMALL
USER_CHARGES
@<TRIPOS>ATOM
1	  Br	4.105	-5.017	2.443	Br	1	UNK0	0.000	
2	   C	3.880	-3.440	1.385	C.2	1	UNK0	0.000	
3	   C	4.622	-2.302	1.601	C.2	1	UNK0	0.000	
4	   C	4.451	-1.151	0.822	C.2	1	UNK0	0.000	
5	   C	3.530	-1.121	-0.191	C.2	1	UNK0	0.000	
6	   C	2.792	-2.265	-0.398	C.2	1	UNK0	0.000	
7	   C	2.953	-3.410	0.366	C.2	1	UNK0	0.000	
8	   N	3.369	0.064	-0.975	N.pl3	1	UNK0	0.000	
9	   C	2.412	0.278	-2.018	C.2	1	UNK0	0.000	
10	   O	1.863	-0.586	-2.744	O.2	1	UNK0	0.000	
11	   C	2.162	1.740	-2.107	C.3	1	UNK0	0.000	
12	   C	3.244	2.415	-1.294	C.3	1	UNK0	0.000	
13	   C	4.112	1.274	-0.898	C.2	1	UNK0	0.000	
14	   O	5.340	1.347	-0.539	O.2	1	UNK0	0.000	
15	   N	0.854	2.024	-1.675	N.3	1	UNK0	0.000	
16	   C	0.484	1.728	-0.350	C.3	1	UNK0	0.000	
17	   C	-1.017	2.003	-0.188	C.3	1	UNK0	0.000	
18	   C	-1.842	1.027	-0.997	C.3	1	UNK0	0.000	
19	   C	-1.205	0.810	-2.310	C.3	1	UNK0	0.000	
20	   C	-0.181	1.871	-2.626	C.3	1	UNK0	0.000	
21	   N	-2.080	-0.112	-0.211	N.3	1	UNK0	0.000	
22	   C	-2.809	0.027	0.979	C.3	1	UNK0	0.000	
23	   C	-1.936	-0.554	2.105	C.3	1	UNK0	0.000	
24	   C	-1.816	-2.035	1.808	C.3	1	UNK0	0.000	
25	   C	-2.189	-2.393	0.408	C.3	1	UNK0	0.000	
26	   C	-1.687	-1.371	-0.623	C.3	1	UNK0	0.000	
27	   C	-3.164	1.713	-1.221	C.2	1	UNK0	0.000	
28	   O	-3.209	2.797	-1.877	O.2	1	UNK0	0.000	
29	   N	-4.388	1.202	-0.728	N.pl3	1	UNK0	0.000	
30	   H	5.340	-2.334	2.396	 H	1	UNK0	0.000	
31	   H	5.073	-0.293	1.054	 H	1	UNK0	0.000	
32	   H	2.059	-2.272	-1.185	 H	1	UNK0	0.000	
33	   H	2.356	-4.306	0.183	 H	1	UNK0	0.000	
34	   H	2.352	2.016	-3.180	 H	1	UNK0	0.000	
35	   H	2.866	2.862	-0.351	 H	1	UNK0	0.000	
36	   H	3.853	3.099	-1.897	 H	1	UNK0	0.000	
37	   H	0.654	0.642	-0.141	 H	1	UNK0	0.000	
38	   H	0.966	2.365	0.435	 H	1	UNK0	0.000	
39	   H	-1.165	3.004	-0.675	 H	1	UNK0	0.000	
40	   H	-1.293	2.055	0.863	 H	1	UNK0	0.000	
41	   H	-1.996	0.930	-3.112	 H	1	UNK0	0.000	
42	   H	-0.828	-0.215	-2.487	 H	1	UNK0	0.000	
43	   H	0.203	1.744	-3.681	 H	1	UNK0	0.000	
44	   H	-0.707	2.875	-2.686	 H	1	UNK0	0.000	
45	   H	-3.015	1.075	1.203	 H	1	UNK0	0.000	
46	   H	-3.724	-0.599	0.926	 H	1	UNK0	0.000	
47	   H	-0.908	-0.111	2.058	 H	1	UNK0	0.000	
48	   H	-2.409	-0.345	3.077	 H	1	UNK0	0.000	
49	   H	-0.830	-2.440	2.117	 H	1	UNK0	0.000	
50	   H	-2.554	-2.535	2.497	 H	1	UNK0	0.000	
51	   H	-1.675	-3.360	0.153	 H	1	UNK0	0.000	
52	   H	-3.286	-2.558	0.264	 H	1	UNK0	0.000	
53	   H	-2.030	-1.735	-1.599	 H	1	UNK0	0.000	
54	   H	-0.576	-1.462	-0.629	 H	1	UNK0	0.000	
55	   H	-4.929	1.747	-0.046	 H	1	UNK0	0.000	
56	   H	-4.750	0.283	-1.047	 H	1	UNK0	0.000	
@<TRIPOS>BOND
1 1 2 1
2 2 3 2
3 2 7 1
4 3 4 1
5 4 5 2
6 5 6 1
7 5 8 1
8 6 7 2
9 8 9 1
10 8 13 1
11 9 10 2
12 9 11 1
13 11 12 1
14 11 15 1
15 12 13 1
16 13 14 2
17 15 16 1
18 15 20 1
19 16 17 1
20 17 18 1
21 18 19 1
22 18 21 1
23 18 27 1
24 19 20 1
25 21 22 1
26 21 26 1
27 22 23 1
28 23 24 1
29 24 25 1
30 25 26 1
31 27 28 2
32 27 29 1
33 3 30 1
34 4 31 1
35 6 32 1
36 7 33 1
37 11 34 1
38 12 35 1
39 12 36 1
40 16 37 1
41 16 38 1
42 17 39 1
43 17 40 1
44 19 41 1
45 19 42 1
46 20 43 1
47 20 44 1
48 22 45 1
49 22 46 1
50 23 47 1
51 23 48 1
52 24 49 1
53 24 50 1
54 25 51 1
55 25 52 1
56 26 53 1
57 26 54 1
58 29 55 1
59 29 56 1
@<TRIPOS>SUBSTRUCTURE
1	UNK0	1	GROUP	1 ****	UNK
