# created with PyMOL 2.3.2
@<TRIPOS>MOLECULE
401
43 46 1                 
SMALL
USER_CHARGES
@<TRIPOS>ATOM
1	  Br	1.654	6.907	0.757	Br	1	UNK0	0.000	
2	   C	1.108	5.322	-0.173	C.2	1	UNK0	0.000	
3	   C	1.979	4.619	-0.973	C.2	1	UNK0	0.000	
4	   C	1.578	3.473	-1.644	C.2	1	UNK0	0.000	
5	   C	0.286	2.990	-1.535	C.2	1	UNK0	0.000	
6	   C	-0.572	3.709	-0.728	C.2	1	UNK0	0.000	
7	   C	-0.183	4.852	-0.057	C.2	1	UNK0	0.000	
8	   N	-0.129	1.814	-2.223	N.pl3	1	UNK0	0.000	
9	   C	0.632	0.624	-2.429	C.2	1	UNK0	0.000	
10	   O	1.893	0.621	-2.453	O.2	1	UNK0	0.000	
11	   C	-0.325	-0.498	-2.592	C.3	1	UNK0	0.000	
12	   C	-1.563	0.150	-3.168	C.3	1	UNK0	0.000	
13	   C	-1.399	1.611	-2.838	C.2	1	UNK0	0.000	
14	   O	-2.283	2.475	-3.089	O.2	1	UNK0	0.000	
15	   N	-0.576	-1.219	-1.369	N.3	1	UNK0	0.000	
16	   C	-1.180	-0.450	-0.330	C.3	1	UNK0	0.000	
17	   C	-0.471	-0.618	1.004	C.3	1	UNK0	0.000	
18	   C	-0.394	-2.119	1.247	C.3	1	UNK0	0.000	
19	   O	0.042	-2.420	2.516	O.3	1	UNK0	0.000	
20	   C	-0.770	-3.441	3.006	C.3	1	UNK0	0.000	
21	   C	-2.084	-3.144	2.314	C.3	1	UNK0	0.000	
22	   O	-1.648	-2.651	1.082	O.3	1	UNK0	0.000	
23	   C	0.610	-2.659	0.254	C.3	1	UNK0	0.000	
24	   C	0.679	-1.827	-0.982	C.3	1	UNK0	0.000	
25	   H	2.989	4.992	-1.060	 H	1	UNK0	0.000	
26	   H	2.278	2.923	-2.276	 H	1	UNK0	0.000	
27	   H	-1.588	3.340	-0.635	 H	1	UNK0	0.000	
28	   H	-0.878	5.411	0.583	 H	1	UNK0	0.000	
29	   H	0.083	-1.225	-3.314	 H	1	UNK0	0.000	
30	   H	-1.625	-0.004	-4.261	 H	1	UNK0	0.000	
31	   H	-2.504	-0.199	-2.718	 H	1	UNK0	0.000	
32	   H	-1.324	0.616	-0.567	 H	1	UNK0	0.000	
33	   H	-2.218	-0.867	-0.166	 H	1	UNK0	0.000	
34	   H	-1.085	-0.180	1.795	 H	1	UNK0	0.000	
35	   H	0.550	-0.188	0.934	 H	1	UNK0	0.000	
36	   H	-0.377	-4.391	2.618	 H	1	UNK0	0.000	
37	   H	-0.866	-3.408	4.111	 H	1	UNK0	0.000	
38	   H	-2.711	-4.053	2.202	 H	1	UNK0	0.000	
39	   H	-2.599	-2.342	2.876	 H	1	UNK0	0.000	
40	   H	1.614	-2.604	0.765	 H	1	UNK0	0.000	
41	   H	0.448	-3.742	0.033	 H	1	UNK0	0.000	
42	   H	1.479	-1.042	-0.872	 H	1	UNK0	0.000	
43	   H	0.972	-2.505	-1.824	 H	1	UNK0	0.000	
@<TRIPOS>BOND
1 1 2 1
2 2 3 2
3 2 7 1
4 3 4 1
5 4 5 2
6 5 6 1
7 5 8 1
8 6 7 2
9 8 9 1
10 8 13 1
11 9 10 2
12 9 11 1
13 11 12 1
14 11 15 1
15 12 13 1
16 13 14 2
17 15 16 1
18 15 24 1
19 16 17 1
20 17 18 1
21 18 19 1
22 18 22 1
23 18 23 1
24 19 20 1
25 20 21 1
26 21 22 1
27 23 24 1
28 3 25 1
29 4 26 1
30 6 27 1
31 7 28 1
32 11 29 1
33 12 30 1
34 12 31 1
35 16 32 1
36 16 33 1
37 17 34 1
38 17 35 1
39 20 36 1
40 20 37 1
41 21 38 1
42 21 39 1
43 23 40 1
44 23 41 1
45 24 42 1
46 24 43 1
@<TRIPOS>SUBSTRUCTURE
1	UNK0	1	GROUP	1 ****	UNK
