# created with PyMOL 2.3.2
@<TRIPOS>MOLECULE
406
49 52 1                 
SMALL
USER_CHARGES
@<TRIPOS>ATOM
1	  Br	-6.385	-5.088	-3.182	Br	1	UNK0	0.000	
2	   C	-4.913	-4.602	-2.081	C.2	1	UNK0	0.000	
3	   C	-4.806	-3.350	-1.513	C.2	1	UNK0	0.000	
4	   C	-3.718	-3.053	-0.727	C.2	1	UNK0	0.000	
5	   C	-2.701	-3.945	-0.462	C.2	1	UNK0	0.000	
6	   C	-2.806	-5.207	-1.032	C.2	1	UNK0	0.000	
7	   C	-3.908	-5.512	-1.830	C.2	1	UNK0	0.000	
8	   N	-1.572	-3.632	0.355	N.pl3	1	UNK0	0.000	
9	   C	-0.433	-3.045	-0.051	C.2	1	UNK0	0.000	
10	   O	-0.152	-2.665	-1.221	O.2	1	UNK0	0.000	
11	   C	0.449	-2.893	1.011	C.2	1	UNK0	0.000	
12	   C	-0.179	-3.398	2.056	C.2	1	UNK0	0.000	
13	   N	0.683	-3.249	3.102	N.pl3	1	UNK0	0.000	
14	   N	1.787	-2.669	2.667	N.pl3	1	UNK0	0.000	
15	   N	1.663	-2.435	1.353	N.pl3	1	UNK0	0.000	
16	   C	2.700	-1.814	0.555	C.3	1	UNK0	0.000	
17	   C	2.475	-0.311	0.548	C.2	1	UNK0	0.000	
18	   O	2.627	0.277	1.628	O.2	1	UNK0	0.000	
19	   N	2.114	0.356	-0.627	N.pl3	1	UNK0	0.000	
20	   C	1.867	1.732	-0.764	C.2	1	UNK0	0.000	
21	   C	1.574	2.226	-2.031	C.2	1	UNK0	0.000	
22	   C	1.314	3.548	-2.203	C.2	1	UNK0	0.000	
23	   C	1.335	4.431	-1.109	C.2	1	UNK0	0.000	
24	   C	1.626	3.915	0.119	C.2	1	UNK0	0.000	
25	   C	1.895	2.580	0.325	C.2	1	UNK0	0.000	
26	   O	1.069	5.766	-1.297	O.3	1	UNK0	0.000	
27	   C	1.050	6.772	-0.331	C.3	1	UNK0	0.000	
28	   O	1.558	1.323	-3.112	O.3	1	UNK0	0.000	
29	   C	1.261	1.814	-4.423	C.3	1	UNK0	0.000	
30	   C	-1.423	-3.859	1.680	C.2	1	UNK0	0.000	
31	   O	-2.248	-4.391	2.459	O.2	1	UNK0	0.000	
32	   H	-5.601	-2.629	-1.711	 H	1	UNK0	0.000	
33	   H	-3.643	-2.072	-0.286	 H	1	UNK0	0.000	
34	   H	-2.023	-5.914	-0.837	 H	1	UNK0	0.000	
35	   H	-4.005	-6.486	-2.281	 H	1	UNK0	0.000	
36	   H	0.485	-3.552	4.088	 H	1	UNK0	0.000	
37	   H	2.653	-2.414	3.229	 H	1	UNK0	0.000	
38	   H	2.646	-2.182	-0.491	 H	1	UNK0	0.000	
39	   H	3.667	-2.081	0.992	 H	1	UNK0	0.000	
40	   H	2.023	-0.264	-1.494	 H	1	UNK0	0.000	
41	   H	1.088	3.943	-3.165	 H	1	UNK0	0.000	
42	   H	1.651	4.564	1.009	 H	1	UNK0	0.000	
43	   H	2.111	2.288	1.336	 H	1	UNK0	0.000	
44	   H	1.598	7.655	-0.750	 H	1	UNK0	0.000	
45	   H	-0.009	7.118	-0.132	 H	1	UNK0	0.000	
46	   H	1.566	6.504	0.607	 H	1	UNK0	0.000	
47	   H	0.281	2.316	-4.412	 H	1	UNK0	0.000	
48	   H	1.207	0.948	-5.107	 H	1	UNK0	0.000	
49	   H	2.024	2.562	-4.734	 H	1	UNK0	0.000	
@<TRIPOS>BOND
1 1 2 1
2 2 3 2
3 2 7 1
4 3 4 1
5 4 5 2
6 5 6 1
7 5 8 1
8 6 7 2
9 8 9 1
10 8 30 1
11 9 10 2
12 9 11 1
13 11 12 2
14 11 15 1
15 12 13 1
16 12 30 1
17 13 14 1
18 14 15 1
19 15 16 1
20 16 17 1
21 17 18 2
22 17 19 1
23 19 20 1
24 20 21 2
25 20 25 1
26 21 22 1
27 21 28 1
28 22 23 2
29 23 24 1
30 23 26 1
31 24 25 2
32 26 27 1
33 28 29 1
34 30 31 2
35 3 32 1
36 4 33 1
37 6 34 1
38 7 35 1
39 13 36 1
40 14 37 1
41 16 38 1
42 16 39 1
43 19 40 1
44 22 41 1
45 24 42 1
46 25 43 1
47 27 44 1
48 27 45 1
49 27 46 1
50 29 47 1
51 29 48 1
52 29 49 1
@<TRIPOS>SUBSTRUCTURE
1	UNK0	1	GROUP	1 ****	UNK
