# created with PyMOL 2.3.2
@<TRIPOS>MOLECULE
407
48 51 1                 
SMALL
USER_CHARGES
@<TRIPOS>ATOM
1	  Br	-7.183	1.653	-5.393	Br	1	UNK0	0.000	
2	   C	-5.374	1.734	-4.792	C.2	1	UNK0	0.000	
3	   C	-4.431	0.911	-5.375	C.2	1	UNK0	0.000	
4	   C	-3.129	0.953	-4.959	C.2	1	UNK0	0.000	
5	   C	-2.785	1.821	-3.961	C.2	1	UNK0	0.000	
6	   C	-3.732	2.645	-3.378	C.2	1	UNK0	0.000	
7	   C	-5.051	2.610	-3.792	C.2	1	UNK0	0.000	
8	   N	-1.441	1.897	-3.498	N.pl3	1	UNK0	0.000	
9	   C	-0.697	0.879	-3.015	C.2	1	UNK0	0.000	
10	   O	-1.128	-0.306	-2.915	O.2	1	UNK0	0.000	
11	   C	0.550	1.342	-2.670	C.2	1	UNK0	0.000	
12	   C	0.593	2.630	-2.930	C.2	1	UNK0	0.000	
13	   N	1.821	3.053	-2.583	N.pl3	1	UNK0	0.000	
14	   N	2.493	2.007	-2.120	N.pl3	1	UNK0	0.000	
15	   N	1.741	0.935	-2.158	N.pl3	1	UNK0	0.000	
16	   C	2.064	-0.414	-1.754	C.3	1	UNK0	0.000	
17	   C	1.723	-0.631	-0.319	C.2	1	UNK0	0.000	
18	   O	1.231	0.312	0.326	O.2	1	UNK0	0.000	
19	   N	1.958	-1.879	0.280	N.pl3	1	UNK0	0.000	
20	   C	1.707	-2.275	1.603	C.2	1	UNK0	0.000	
21	   C	2.034	-3.591	1.957	C.2	1	UNK0	0.000	
22	   C	1.824	-4.063	3.224	C.2	1	UNK0	0.000	
23	   C	1.277	-3.242	4.201	C.2	1	UNK0	0.000	
24	   C	0.958	-1.952	3.849	C.2	1	UNK0	0.000	
25	   C	1.172	-1.467	2.552	C.2	1	UNK0	0.000	
26	   C	0.369	-1.070	4.899	C.3	1	UNK0	0.000	
27	   O	2.585	-4.459	1.022	O.3	1	UNK0	0.000	
28	   C	2.920	-5.774	1.346	C.3	1	UNK0	0.000	
29	   C	-0.633	2.997	-3.446	C.2	1	UNK0	0.000	
30	   O	-0.997	4.152	-3.823	O.2	1	UNK0	0.000	
31	   H	-4.719	0.229	-6.165	 H	1	UNK0	0.000	
32	   H	-2.371	0.322	-5.397	 H	1	UNK0	0.000	
33	   H	-3.485	3.341	-2.586	 H	1	UNK0	0.000	
34	   H	-5.798	3.254	-3.338	 H	1	UNK0	0.000	
35	   H	2.135	4.044	-2.684	 H	1	UNK0	0.000	
36	   H	3.466	2.056	-1.783	 H	1	UNK0	0.000	
37	   H	3.135	-0.620	-1.965	 H	1	UNK0	0.000	
38	   H	1.498	-1.142	-2.406	 H	1	UNK0	0.000	
39	   H	2.388	-2.609	-0.393	 H	1	UNK0	0.000	
40	   H	2.069	-5.081	3.528	 H	1	UNK0	0.000	
41	   H	1.116	-3.629	5.199	 H	1	UNK0	0.000	
42	   H	0.899	-0.460	2.361	 H	1	UNK0	0.000	
43	   H	0.349	-0.003	4.550	 H	1	UNK0	0.000	
44	   H	0.993	-1.181	5.805	 H	1	UNK0	0.000	
45	   H	-0.671	-1.391	5.125	 H	1	UNK0	0.000	
46	   H	3.507	-5.881	2.276	 H	1	UNK0	0.000	
47	   H	3.482	-6.237	0.509	 H	1	UNK0	0.000	
48	   H	1.962	-6.351	1.450	 H	1	UNK0	0.000	
@<TRIPOS>BOND
1 1 2 1
2 2 3 2
3 2 7 1
4 3 4 1
5 4 5 2
6 5 6 1
7 5 8 1
8 6 7 2
9 8 9 1
10 8 29 1
11 9 10 2
12 9 11 1
13 11 12 2
14 11 15 1
15 12 13 1
16 12 29 1
17 13 14 1
18 14 15 1
19 15 16 1
20 16 17 1
21 17 18 2
22 17 19 1
23 19 20 1
24 20 21 2
25 20 25 1
26 21 22 1
27 21 27 1
28 22 23 2
29 23 24 1
30 24 25 2
31 24 26 1
32 27 28 1
33 29 30 2
34 3 31 1
35 4 32 1
36 6 33 1
37 7 34 1
38 13 35 1
39 14 36 1
40 16 37 1
41 16 38 1
42 19 39 1
43 22 40 1
44 23 41 1
45 25 42 1
46 26 43 1
47 26 44 1
48 26 45 1
49 28 46 1
50 28 47 1
51 28 48 1
@<TRIPOS>SUBSTRUCTURE
1	UNK0	1	GROUP	1 ****	UNK
