# created with PyMOL 2.3.2
@<TRIPOS>MOLECULE
408
44 47 1                 
SMALL
USER_CHARGES
@<TRIPOS>ATOM
1	  Br	-1.729	-6.056	4.849	Br	1	UNK0	0.000	
2	   C	-1.649	-4.553	3.657	C.2	1	UNK0	0.000	
3	   C	-2.793	-3.884	3.278	C.2	1	UNK0	0.000	
4	   C	-2.738	-2.802	2.420	C.2	1	UNK0	0.000	
5	   C	-1.536	-2.346	1.906	C.2	1	UNK0	0.000	
6	   C	-0.403	-3.030	2.298	C.2	1	UNK0	0.000	
7	   C	-0.448	-4.108	3.152	C.2	1	UNK0	0.000	
8	   N	-1.504	-1.228	1.023	N.pl3	1	UNK0	0.000	
9	   C	-1.021	0.000	1.277	C.2	1	UNK0	0.000	
10	   O	-0.507	0.339	2.387	O.2	1	UNK0	0.000	
11	   C	-1.163	0.833	0.167	C.2	1	UNK0	0.000	
12	   C	-1.742	0.083	-0.766	C.2	1	UNK0	0.000	
13	   N	-1.869	0.904	-1.824	N.pl3	1	UNK0	0.000	
14	   N	-1.384	2.101	-1.538	N.pl3	1	UNK0	0.000	
15	   N	-0.943	2.067	-0.304	N.pl3	1	UNK0	0.000	
16	   C	-0.331	3.142	0.435	C.3	1	UNK0	0.000	
17	   C	1.160	3.161	0.263	C.2	1	UNK0	0.000	
18	   O	1.742	4.080	0.887	O.2	1	UNK0	0.000	
19	   N	1.838	2.230	-0.528	N.pl3	1	UNK0	0.000	
20	   C	3.217	2.156	-0.757	C.2	1	UNK0	0.000	
21	   C	3.674	1.125	-1.594	C.2	1	UNK0	0.000	
22	   C	5.018	1.015	-1.846	C.2	1	UNK0	0.000	
23	   C	5.953	1.877	-1.313	C.2	1	UNK0	0.000	
24	   C	5.517	2.880	-0.499	C.2	1	UNK0	0.000	
25	   C	4.168	3.000	-0.238	C.2	1	UNK0	0.000	
26	   C	2.740	0.160	-2.206	C.3	1	UNK0	0.000	
27	   C	-1.955	-1.180	-0.251	C.2	1	UNK0	0.000	
28	   O	-2.478	-2.155	-0.834	O.2	1	UNK0	0.000	
29	   H	-3.758	-4.208	3.658	 H	1	UNK0	0.000	
30	   H	-3.640	-2.266	2.115	 H	1	UNK0	0.000	
31	   H	0.545	-2.698	1.915	 H	1	UNK0	0.000	
32	   H	0.441	-4.656	3.469	 H	1	UNK0	0.000	
33	   H	-2.303	0.573	-2.723	 H	1	UNK0	0.000	
34	   H	-1.382	2.894	-2.220	 H	1	UNK0	0.000	
35	   H	-0.677	4.138	0.044	 H	1	UNK0	0.000	
36	   H	-0.609	3.014	1.504	 H	1	UNK0	0.000	
37	   H	1.202	1.503	-1.000	 H	1	UNK0	0.000	
38	   H	5.416	0.223	-2.496	 H	1	UNK0	0.000	
39	   H	7.022	1.778	-1.522	 H	1	UNK0	0.000	
40	   H	6.246	3.573	-0.066	 H	1	UNK0	0.000	
41	   H	3.883	3.804	0.406	 H	1	UNK0	0.000	
42	   H	3.308	-0.687	-2.637	 H	1	UNK0	0.000	
43	   H	2.076	-0.287	-1.425	 H	1	UNK0	0.000	
44	   H	2.124	0.587	-3.013	 H	1	UNK0	0.000	
@<TRIPOS>BOND
1 1 2 1
2 2 3 2
3 2 7 1
4 3 4 1
5 4 5 2
6 5 6 1
7 5 8 1
8 6 7 2
9 8 9 1
10 8 27 1
11 9 10 2
12 9 11 1
13 11 12 2
14 11 15 1
15 12 13 1
16 12 27 1
17 13 14 1
18 14 15 1
19 15 16 1
20 16 17 1
21 17 18 2
22 17 19 1
23 19 20 1
24 20 21 2
25 20 25 1
26 21 22 1
27 21 26 1
28 22 23 2
29 23 24 1
30 24 25 2
31 27 28 2
32 3 29 1
33 4 30 1
34 6 31 1
35 7 32 1
36 13 33 1
37 14 34 1
38 16 35 1
39 16 36 1
40 19 37 1
41 22 38 1
42 23 39 1
43 24 40 1
44 25 41 1
45 26 42 1
46 26 43 1
47 26 44 1
@<TRIPOS>SUBSTRUCTURE
1	UNK0	1	GROUP	1 ****	UNK
