# created with PyMOL 2.3.2
@<TRIPOS>MOLECULE
409
43 46 1                 
SMALL
USER_CHARGES
@<TRIPOS>ATOM
1	  Br	4.117	-4.000	4.650	Br	1	UNK0	0.000	
2	   C	3.534	-2.895	3.213	C.2	1	UNK0	0.000	
3	   C	2.970	-1.644	3.428	C.2	1	UNK0	0.000	
4	   C	2.572	-0.910	2.334	C.2	1	UNK0	0.000	
5	   C	2.693	-1.327	1.026	C.2	1	UNK0	0.000	
6	   C	3.257	-2.571	0.841	C.2	1	UNK0	0.000	
7	   C	3.673	-3.349	1.921	C.2	1	UNK0	0.000	
8	   N	2.269	-0.533	-0.073	N.pl3	1	UNK0	0.000	
9	   C	1.108	-0.594	-0.761	C.2	1	UNK0	0.000	
10	   O	0.209	-1.421	-0.494	O.2	1	UNK0	0.000	
11	   C	1.073	0.361	-1.762	C.2	1	UNK0	0.000	
12	   C	2.220	1.008	-1.684	C.2	1	UNK0	0.000	
13	   N	2.178	1.943	-2.659	N.pl3	1	UNK0	0.000	
14	   N	1.032	1.846	-3.296	N.pl3	1	UNK0	0.000	
15	   N	0.311	0.877	-2.774	N.pl3	1	UNK0	0.000	
16	   C	-0.988	0.378	-3.121	C.3	1	UNK0	0.000	
17	   C	-2.072	1.036	-2.309	C.2	1	UNK0	0.000	
18	   O	-2.359	2.195	-2.658	O.2	1	UNK0	0.000	
19	   N	-2.693	0.374	-1.247	N.pl3	1	UNK0	0.000	
20	   C	-3.705	0.860	-0.397	C.2	1	UNK0	0.000	
21	   C	-4.256	0.040	0.566	C.2	1	UNK0	0.000	
22	   C	-5.263	0.552	1.383	C.2	1	UNK0	0.000	
23	   C	-5.747	1.830	1.291	C.2	1	UNK0	0.000	
24	   C	-5.171	2.622	0.315	C.2	1	UNK0	0.000	
25	   C	-4.169	2.174	-0.527	C.2	1	UNK0	0.000	
26	   N	-3.843	-1.297	0.736	N.pl3	1	UNK0	0.000	
27	   O	-2.724	-1.780	0.627	O.2	1	UNK0	0.000	
28	   O	-4.878	-2.178	1.122	O.2	1	UNK0	0.000	
29	   C	2.956	0.465	-0.652	C.2	1	UNK0	0.000	
30	   O	4.121	0.851	-0.296	O.2	1	UNK0	0.000	
31	   H	2.862	-1.297	4.442	 H	1	UNK0	0.000	
32	   H	2.135	0.060	2.512	 H	1	UNK0	0.000	
33	   H	3.369	-2.933	-0.169	 H	1	UNK0	0.000	
34	   H	4.113	-4.323	1.775	 H	1	UNK0	0.000	
35	   H	2.985	2.601	-2.813	 H	1	UNK0	0.000	
36	   H	0.741	2.442	-4.086	 H	1	UNK0	0.000	
37	   H	-1.197	0.593	-4.183	 H	1	UNK0	0.000	
38	   H	-1.013	-0.725	-3.003	 H	1	UNK0	0.000	
39	   H	-2.345	-0.620	-1.093	 H	1	UNK0	0.000	
40	   H	-5.673	-0.113	2.123	 H	1	UNK0	0.000	
41	   H	-6.530	2.214	1.933	 H	1	UNK0	0.000	
42	   H	-5.517	3.646	0.200	 H	1	UNK0	0.000	
43	   H	-3.779	2.869	-1.255	 H	1	UNK0	0.000	
@<TRIPOS>BOND
1 1 2 1
2 2 3 2
3 2 7 1
4 3 4 1
5 4 5 2
6 5 6 1
7 5 8 1
8 6 7 2
9 8 9 1
10 8 29 1
11 9 10 2
12 9 11 1
13 11 12 2
14 11 15 1
15 12 13 1
16 12 29 1
17 13 14 1
18 14 15 1
19 15 16 1
20 16 17 1
21 17 18 2
22 17 19 1
23 19 20 1
24 20 21 2
25 20 25 1
26 21 22 1
27 21 26 1
28 22 23 2
29 23 24 1
30 24 25 2
31 26 27 2
32 26 28 1
33 29 30 2
34 3 31 1
35 4 32 1
36 6 33 1
37 7 34 1
38 13 35 1
39 14 36 1
40 16 37 1
41 16 38 1
42 19 39 1
43 22 40 1
44 23 41 1
45 24 42 1
46 25 43 1
@<TRIPOS>SUBSTRUCTURE
1	UNK0	1	GROUP	1 ****	UNK
