# created with PyMOL 2.3.2
@<TRIPOS>MOLECULE
413
45 48 1                 
SMALL
USER_CHARGES
@<TRIPOS>ATOM
1	  Br	-2.249	5.214	5.771	Br	1	UNK0	0.000	
2	   C	-1.442	4.344	4.268	C.2	1	UNK0	0.000	
3	   C	-1.565	2.995	4.078	C.2	1	UNK0	0.000	
4	   C	-0.963	2.423	2.978	C.2	1	UNK0	0.000	
5	   C	-0.240	3.152	2.057	C.2	1	UNK0	0.000	
6	   C	-0.128	4.511	2.266	C.2	1	UNK0	0.000	
7	   C	-0.719	5.124	3.361	C.2	1	UNK0	0.000	
8	   N	0.387	2.562	0.914	N.pl3	1	UNK0	0.000	
9	   C	0.905	1.325	0.831	C.2	1	UNK0	0.000	
10	   O	0.911	0.493	1.773	O.2	1	UNK0	0.000	
11	   C	1.436	1.073	-0.424	C.2	1	UNK0	0.000	
12	   C	1.235	2.185	-1.121	C.2	1	UNK0	0.000	
13	   N	1.748	1.946	-2.338	N.pl3	1	UNK0	0.000	
14	   N	2.244	0.721	-2.368	N.pl3	1	UNK0	0.000	
15	   N	2.060	0.162	-1.190	N.pl3	1	UNK0	0.000	
16	   C	2.452	-1.166	-0.800	C.3	1	UNK0	0.000	
17	   C	1.348	-2.134	-1.088	C.2	1	UNK0	0.000	
18	   O	0.311	-1.683	-1.593	O.2	1	UNK0	0.000	
19	   N	1.577	-3.478	-0.762	N.pl3	1	UNK0	0.000	
20	   C	0.644	-4.514	-0.970	C.2	1	UNK0	0.000	
21	   C	0.931	-5.815	-0.518	C.2	1	UNK0	0.000	
22	   C	0.066	-6.857	-0.698	C.2	1	UNK0	0.000	
23	   C	-1.133	-6.649	-1.341	C.2	1	UNK0	0.000	
24	   C	-1.471	-5.398	-1.806	C.2	1	UNK0	0.000	
25	   C	-0.561	-4.359	-1.603	C.2	1	UNK0	0.000	
26	   O	0.354	-8.137	-0.251	O.3	1	UNK0	0.000	
27	   C	1.571	-8.382	0.409	C.3	1	UNK0	0.000	
28	   C	0.586	3.111	-0.298	C.2	1	UNK0	0.000	
29	   O	0.253	4.259	-0.654	O.2	1	UNK0	0.000	
30	   H	-2.134	2.417	4.800	 H	1	UNK0	0.000	
31	   H	-1.051	1.360	2.815	 H	1	UNK0	0.000	
32	   H	0.447	5.082	1.531	 H	1	UNK0	0.000	
33	   H	-0.633	6.169	3.522	 H	1	UNK0	0.000	
34	   H	1.750	2.633	-3.135	 H	1	UNK0	0.000	
35	   H	2.717	0.244	-3.194	 H	1	UNK0	0.000	
36	   H	2.734	-1.200	0.282	 H	1	UNK0	0.000	
37	   H	3.386	-1.471	-1.353	 H	1	UNK0	0.000	
38	   H	2.510	-3.772	-0.326	 H	1	UNK0	0.000	
39	   H	1.880	-5.991	-0.007	 H	1	UNK0	0.000	
40	   H	-1.808	-7.488	-1.476	 H	1	UNK0	0.000	
41	   H	-2.402	-5.234	-2.306	 H	1	UNK0	0.000	
42	   H	-0.881	-3.417	-1.991	 H	1	UNK0	0.000	
43	   H	1.659	-9.438	0.687	 H	1	UNK0	0.000	
44	   H	1.652	-7.735	1.330	 H	1	UNK0	0.000	
45	   H	2.419	-8.147	-0.285	 H	1	UNK0	0.000	
@<TRIPOS>BOND
1 1 2 1
2 2 3 2
3 2 7 1
4 3 4 1
5 4 5 2
6 5 6 1
7 5 8 1
8 6 7 2
9 8 9 1
10 8 28 1
11 9 10 2
12 9 11 1
13 11 12 2
14 11 15 1
15 12 13 1
16 12 28 1
17 13 14 1
18 14 15 1
19 15 16 1
20 16 17 1
21 17 18 2
22 17 19 1
23 19 20 1
24 20 21 2
25 20 25 1
26 21 22 1
27 22 23 2
28 22 26 1
29 23 24 1
30 24 25 2
31 26 27 1
32 28 29 2
33 3 30 1
34 4 31 1
35 6 32 1
36 7 33 1
37 13 34 1
38 14 35 1
39 16 36 1
40 16 37 1
41 19 38 1
42 21 39 1
43 23 40 1
44 24 41 1
45 25 42 1
46 27 43 1
47 27 44 1
48 27 45 1
@<TRIPOS>SUBSTRUCTURE
1	UNK0	1	GROUP	1 ****	UNK
