# created with PyMOL 2.3.2
@<TRIPOS>MOLECULE
415
44 47 1                 
SMALL
USER_CHARGES
@<TRIPOS>ATOM
1	  Br	-2.247	7.221	-0.576	Br	1	UNK0	0.000	
2	   C	-1.211	5.613	-0.609	C.2	1	UNK0	0.000	
3	   C	-0.996	4.951	0.591	C.2	1	UNK0	0.000	
4	   C	-0.253	3.792	0.587	C.2	1	UNK0	0.000	
5	   C	0.288	3.258	-0.559	C.2	1	UNK0	0.000	
6	   C	0.059	3.935	-1.730	C.2	1	UNK0	0.000	
7	   C	-0.692	5.115	-1.759	C.2	1	UNK0	0.000	
8	   N	1.047	2.059	-0.556	N.pl3	1	UNK0	0.000	
9	   C	1.132	1.097	-1.489	C.2	1	UNK0	0.000	
10	   O	0.533	1.102	-2.591	O.2	1	UNK0	0.000	
11	   C	1.969	0.073	-1.102	C.2	1	UNK0	0.000	
12	   C	2.413	0.412	0.099	C.2	1	UNK0	0.000	
13	   N	3.229	-0.583	0.508	N.pl3	1	UNK0	0.000	
14	   N	3.256	-1.489	-0.454	N.pl3	1	UNK0	0.000	
15	   N	2.479	-1.110	-1.474	N.pl3	1	UNK0	0.000	
16	   C	2.355	-1.901	-2.655	C.3	1	UNK0	0.000	
17	   C	1.174	-2.825	-2.668	C.2	1	UNK0	0.000	
18	   O	1.313	-3.725	-3.580	O.2	1	UNK0	0.000	
19	   N	0.127	-2.724	-1.849	N.pl3	1	UNK0	0.000	
20	   C	-0.954	-2.619	-1.004	C.2	1	UNK0	0.000	
21	   C	-2.239	-3.043	-1.234	C.2	1	UNK0	0.000	
22	   C	-3.282	-2.874	-0.318	C.2	1	UNK0	0.000	
23	   C	-3.016	-2.258	0.861	C.2	1	UNK0	0.000	
24	   C	-1.729	-1.809	1.146	C.2	1	UNK0	0.000	
25	   C	-0.713	-1.977	0.248	C.2	1	UNK0	0.000	
26	   C	-4.073	-2.040	1.892	C.3	1	UNK0	0.000	
27	   C	1.861	1.621	0.449	C.2	1	UNK0	0.000	
28	   O	2.045	2.264	1.515	O.2	1	UNK0	0.000	
29	   H	-1.413	5.360	1.480	 H	1	UNK0	0.000	
30	   H	-0.097	3.295	1.529	 H	1	UNK0	0.000	
31	   H	0.444	3.585	-2.664	 H	1	UNK0	0.000	
32	   H	-0.856	5.625	-2.704	 H	1	UNK0	0.000	
33	   H	3.721	-0.571	1.427	 H	1	UNK0	0.000	
34	   H	3.809	-2.352	-0.387	 H	1	UNK0	0.000	
35	   H	3.254	-2.517	-2.857	 H	1	UNK0	0.000	
36	   H	2.299	-1.164	-3.511	 H	1	UNK0	0.000	
37	   H	-0.356	-3.933	-2.281	 H	1	UNK0	0.000	
38	   H	-2.544	-3.538	-2.151	 H	1	UNK0	0.000	
39	   H	-4.281	-3.217	-0.531	 H	1	UNK0	0.000	
40	   H	-1.556	-1.316	2.113	 H	1	UNK0	0.000	
41	   H	0.269	-1.617	0.503	 H	1	UNK0	0.000	
42	   H	-4.925	-2.727	1.737	 H	1	UNK0	0.000	
43	   H	-3.595	-2.244	2.868	 H	1	UNK0	0.000	
44	   H	-4.412	-0.969	1.920	 H	1	UNK0	0.000	
@<TRIPOS>BOND
1 1 2 1
2 2 3 2
3 2 7 1
4 3 4 1
5 4 5 2
6 5 6 1
7 5 8 1
8 6 7 2
9 8 9 1
10 8 27 1
11 9 10 2
12 9 11 1
13 11 12 2
14 11 15 1
15 12 13 1
16 12 27 1
17 13 14 1
18 14 15 1
19 15 16 1
20 16 17 1
21 17 18 2
22 17 19 1
23 19 20 1
24 20 21 2
25 20 25 1
26 21 22 1
27 22 23 2
28 23 24 1
29 23 26 1
30 24 25 2
31 27 28 2
32 3 29 1
33 4 30 1
34 6 31 1
35 7 32 1
36 13 33 1
37 14 34 1
38 16 35 1
39 16 36 1
40 19 37 1
41 21 38 1
42 22 39 1
43 24 40 1
44 25 41 1
45 26 42 1
46 26 43 1
47 26 44 1
@<TRIPOS>SUBSTRUCTURE
1	UNK0	1	GROUP	1 ****	UNK
