# created with PyMOL 2.3.2
@<TRIPOS>MOLECULE
416
48 51 1                 
SMALL
USER_CHARGES
@<TRIPOS>ATOM
1	  Br	2.258	-6.087	-4.971	Br	1	UNK0	0.000	
2	   C	1.126	-4.642	-4.449	C.2	1	UNK0	0.000	
3	   C	1.098	-3.446	-5.135	C.2	1	UNK0	0.000	
4	   C	0.267	-2.407	-4.744	C.2	1	UNK0	0.000	
5	   C	-0.572	-2.514	-3.654	C.2	1	UNK0	0.000	
6	   C	-0.546	-3.712	-2.963	C.2	1	UNK0	0.000	
7	   C	0.281	-4.746	-3.351	C.2	1	UNK0	0.000	
8	   N	-1.444	-1.473	-3.223	N.pl3	1	UNK0	0.000	
9	   C	-1.794	-1.152	-1.946	C.2	1	UNK0	0.000	
10	   O	-1.369	-1.759	-0.934	O.2	1	UNK0	0.000	
11	   C	-2.666	-0.085	-1.928	C.2	1	UNK0	0.000	
12	   C	-2.853	0.251	-3.196	C.2	1	UNK0	0.000	
13	   N	-3.704	1.293	-3.210	N.pl3	1	UNK0	0.000	
14	   N	-4.024	1.578	-1.956	N.pl3	1	UNK0	0.000	
15	   N	-3.402	0.748	-1.140	N.pl3	1	UNK0	0.000	
16	   C	-3.472	0.693	0.291	C.3	1	UNK0	0.000	
17	   C	-2.419	1.532	0.976	C.2	1	UNK0	0.000	
18	   O	-2.645	2.761	1.010	O.2	1	UNK0	0.000	
19	   N	-1.275	0.966	1.535	N.pl3	1	UNK0	0.000	
20	   C	-0.203	1.572	2.212	C.2	1	UNK0	0.000	
21	   C	0.770	0.784	2.827	C.2	1	UNK0	0.000	
22	   C	1.821	1.332	3.512	C.2	1	UNK0	0.000	
23	   C	1.948	2.718	3.616	C.2	1	UNK0	0.000	
24	   C	0.975	3.466	2.999	C.2	1	UNK0	0.000	
25	   C	-0.082	2.921	2.308	C.2	1	UNK0	0.000	
26	   O	3.017	3.226	4.317	O.3	1	UNK0	0.000	
27	   C	3.313	4.568	4.530	C.3	1	UNK0	0.000	
28	   C	3.547	5.353	3.285	C.3	1	UNK0	0.000	
29	   C	-2.108	-0.594	-3.987	C.2	1	UNK0	0.000	
30	   O	-2.033	-0.577	-5.256	O.2	1	UNK0	0.000	
31	   H	1.759	-3.360	-5.995	 H	1	UNK0	0.000	
32	   H	0.247	-1.473	-5.282	 H	1	UNK0	0.000	
33	   H	-1.206	-3.792	-2.106	 H	1	UNK0	0.000	
34	   H	0.282	-5.670	-2.796	 H	1	UNK0	0.000	
35	   H	-4.064	1.808	-4.032	 H	1	UNK0	0.000	
36	   H	-4.681	2.359	-1.664	 H	1	UNK0	0.000	
37	   H	-4.470	1.069	0.643	 H	1	UNK0	0.000	
38	   H	-3.322	-0.346	0.692	 H	1	UNK0	0.000	
39	   H	-1.196	-0.106	1.432	 H	1	UNK0	0.000	
40	   H	0.693	-0.286	2.761	 H	1	UNK0	0.000	
41	   H	2.570	0.683	3.985	 H	1	UNK0	0.000	
42	   H	1.031	4.540	3.053	 H	1	UNK0	0.000	
43	   H	-0.823	3.578	1.833	 H	1	UNK0	0.000	
44	   H	2.425	5.037	5.052	 H	1	UNK0	0.000	
45	   H	4.184	4.700	5.207	 H	1	UNK0	0.000	
46	   H	2.790	6.134	3.072	 H	1	UNK0	0.000	
47	   H	4.518	5.898	3.344	 H	1	UNK0	0.000	
48	   H	3.629	4.723	2.360	 H	1	UNK0	0.000	
@<TRIPOS>BOND
1 1 2 1
2 2 3 2
3 2 7 1
4 3 4 1
5 4 5 2
6 5 6 1
7 5 8 1
8 6 7 2
9 8 9 1
10 8 29 1
11 9 10 2
12 9 11 1
13 11 12 2
14 11 15 1
15 12 13 1
16 12 29 1
17 13 14 1
18 14 15 1
19 15 16 1
20 16 17 1
21 17 18 2
22 17 19 1
23 19 20 1
24 20 21 2
25 20 25 1
26 21 22 1
27 22 23 2
28 23 24 1
29 23 26 1
30 24 25 2
31 26 27 1
32 27 28 1
33 29 30 2
34 3 31 1
35 4 32 1
36 6 33 1
37 7 34 1
38 13 35 1
39 14 36 1
40 16 37 1
41 16 38 1
42 19 39 1
43 21 40 1
44 22 41 1
45 24 42 1
46 25 43 1
47 27 44 1
48 27 45 1
49 28 46 1
50 28 47 1
51 28 48 1
@<TRIPOS>SUBSTRUCTURE
1	UNK0	1	GROUP	1 ****	UNK
