# created with PyMOL 2.3.2
@<TRIPOS>MOLECULE
421
36 39 1                 
SMALL
USER_CHARGES
@<TRIPOS>ATOM
1	  Br	-5.404	0.824	-5.803	Br	1	UNK0	0.000	
2	   C	-3.975	0.539	-4.561	C.2	1	UNK0	0.000	
3	   C	-4.199	0.002	-3.310	C.2	1	UNK0	0.000	
4	   C	-3.150	-0.199	-2.417	C.2	1	UNK0	0.000	
5	   C	-1.854	0.131	-2.754	C.2	1	UNK0	0.000	
6	   C	-1.645	0.667	-4.008	C.2	1	UNK0	0.000	
7	   C	-2.680	0.871	-4.901	C.2	1	UNK0	0.000	
8	   N	-0.752	-0.064	-1.858	N.pl3	1	UNK0	0.000	
9	   C	-0.787	0.072	-0.514	C.2	1	UNK0	0.000	
10	   O	-1.785	0.394	0.207	O.2	1	UNK0	0.000	
11	   C	0.453	-0.190	0.039	C.2	1	UNK0	0.000	
12	   C	1.239	-0.488	-0.998	C.2	1	UNK0	0.000	
13	   N	2.455	-0.746	-0.459	N.pl3	1	UNK0	0.000	
14	   N	2.373	-0.601	0.853	N.pl3	1	UNK0	0.000	
15	   N	1.142	-0.256	1.192	N.pl3	1	UNK0	0.000	
16	   C	0.654	-0.007	2.516	C.2	1	UNK0	0.000	
17	   C	-0.095	-0.951	3.188	C.2	1	UNK0	0.000	
18	   C	-0.581	-0.739	4.472	C.2	1	UNK0	0.000	
19	   C	-0.320	0.449	5.121	C.2	1	UNK0	0.000	
20	   C	0.428	1.394	4.452	C.2	1	UNK0	0.000	
21	   C	0.912	1.179	3.171	C.2	1	UNK0	0.000	
22	   N	-0.805	0.696	6.438	N.pl3	1	UNK0	0.000	
23	   O	-1.483	-0.141	7.063	O.2	1	UNK0	0.000	
24	   O	-0.523	1.882	7.038	O.2	1	UNK0	0.000	
25	   C	0.509	-0.413	-2.165	C.2	1	UNK0	0.000	
26	   O	0.900	-0.624	-3.340	O.2	1	UNK0	0.000	
27	   H	-5.225	-0.255	-3.055	 H	1	UNK0	0.000	
28	   H	-3.320	-0.614	-1.451	 H	1	UNK0	0.000	
29	   H	-0.625	0.933	-4.289	 H	1	UNK0	0.000	
30	   H	-2.499	1.297	-5.893	 H	1	UNK0	0.000	
31	   H	3.307	-1.015	-1.017	 H	1	UNK0	0.000	
32	   H	3.143	-0.729	1.560	 H	1	UNK0	0.000	
33	   H	-0.310	-1.886	2.699	 H	1	UNK0	0.000	
34	   H	-1.175	-1.501	4.991	 H	1	UNK0	0.000	
35	   H	0.623	2.318	4.976	 H	1	UNK0	0.000	
36	   H	1.497	1.926	2.656	 H	1	UNK0	0.000	
@<TRIPOS>BOND
1 1 2 1
2 2 3 2
3 2 7 1
4 3 4 1
5 4 5 2
6 5 6 1
7 5 8 1
8 6 7 2
9 8 9 1
10 8 25 1
11 9 10 2
12 9 11 1
13 11 12 2
14 11 15 1
15 12 13 1
16 12 25 1
17 13 14 1
18 14 15 1
19 15 16 1
20 16 17 2
21 16 21 1
22 17 18 1
23 18 19 2
24 19 20 1
25 19 22 1
26 20 21 2
27 22 23 2
28 22 24 1
29 25 26 2
30 3 27 1
31 4 28 1
32 6 29 1
33 7 30 1
34 13 31 1
35 14 32 1
36 17 33 1
37 18 34 1
38 20 35 1
39 21 36 1
@<TRIPOS>SUBSTRUCTURE
1	UNK0	1	GROUP	1 ****	UNK
