# created with PyMOL 2.3.2
@<TRIPOS>MOLECULE
422
36 39 1                 
SMALL
USER_CHARGES
@<TRIPOS>ATOM
1	  Br	-3.113	6.638	-1.475	Br	1	UNK0	0.000	
2	   C	-2.204	5.025	-0.995	C.2	1	UNK0	0.000	
3	   C	-2.907	3.981	-0.432	C.2	1	UNK0	0.000	
4	   C	-2.261	2.813	-0.082	C.2	1	UNK0	0.000	
5	   C	-0.906	2.628	-0.271	C.2	1	UNK0	0.000	
6	   C	-0.217	3.682	-0.835	C.2	1	UNK0	0.000	
7	   C	-0.849	4.862	-1.193	C.2	1	UNK0	0.000	
8	   N	-0.235	1.414	0.092	N.pl3	1	UNK0	0.000	
9	   C	0.863	0.831	-0.628	C.2	1	UNK0	0.000	
10	   O	1.687	1.420	-1.371	O.2	1	UNK0	0.000	
11	   C	0.856	-0.596	-0.344	C.3	1	UNK0	0.000	
12	   C	-0.146	-1.399	-1.124	C.3	1	UNK0	0.000	
13	   O	-0.190	-2.556	-0.301	O.3	1	UNK0	0.000	
14	   C	-0.679	-1.893	0.855	C.3	1	UNK0	0.000	
15	   C	0.249	-0.723	1.064	C.3	1	UNK0	0.000	
16	   C	-0.490	0.556	1.189	C.2	1	UNK0	0.000	
17	   O	-1.245	0.842	2.143	O.2	1	UNK0	0.000	
18	   C	-1.936	-1.312	0.261	C.2	1	UNK0	0.000	
19	   C	-1.536	-0.915	-0.952	C.2	1	UNK0	0.000	
20	   C	-0.890	-2.764	2.007	C.3	1	UNK0	0.000	
21	   C	0.229	-1.698	-2.516	C.3	1	UNK0	0.000	
22	   O	-0.740	-2.592	-3.032	O.3	1	UNK0	0.000	
23	   H	-3.971	4.127	-0.284	 H	1	UNK0	0.000	
24	   H	-2.835	2.018	0.355	 H	1	UNK0	0.000	
25	   H	0.859	3.574	-1.001	 H	1	UNK0	0.000	
26	   H	-0.283	5.669	-1.634	 H	1	UNK0	0.000	
27	   H	1.830	-1.094	-0.397	 H	1	UNK0	0.000	
28	   H	1.002	-0.886	1.827	 H	1	UNK0	0.000	
29	   H	-2.879	-1.267	0.755	 H	1	UNK0	0.000	
30	   H	-2.177	-0.345	-1.627	 H	1	UNK0	0.000	
31	   H	-1.943	-3.112	2.096	 H	1	UNK0	0.000	
32	   H	-0.602	-2.283	2.953	 H	1	UNK0	0.000	
33	   H	-0.283	-3.712	1.952	 H	1	UNK0	0.000	
34	   H	1.188	-2.204	-2.588	 H	1	UNK0	0.000	
35	   H	0.261	-0.777	-3.093	 H	1	UNK0	0.000	
36	   H	-1.540	-2.035	-3.254	 H	1	UNK0	0.000	
@<TRIPOS>BOND
1 1 2 1
2 2 3 2
3 2 7 1
4 3 4 1
5 4 5 2
6 5 6 1
7 5 8 1
8 6 7 2
9 8 9 1
10 8 16 1
11 9 10 2
12 9 11 1
13 11 12 1
14 11 15 1
15 12 13 1
16 12 19 1
17 12 21 1
18 13 14 1
19 14 15 1
20 14 18 1
21 14 20 1
22 15 16 1
23 16 17 2
24 18 19 2
25 21 22 1
26 3 23 1
27 4 24 1
28 6 25 1
29 7 26 1
30 11 27 1
31 15 28 1
32 18 29 1
33 19 30 1
34 20 31 1
35 20 32 1
36 20 33 1
37 21 34 1
38 21 35 1
39 22 36 1
@<TRIPOS>SUBSTRUCTURE
1	UNK0	1	GROUP	1 ****	UNK
