# created with PyMOL 2.3.2
@<TRIPOS>MOLECULE
423
44 47 1                 
SMALL
USER_CHARGES
@<TRIPOS>ATOM
1	  Br	-4.578	-6.900	0.047	Br	1	UNK0	0.000	
2	   C	-3.936	-5.102	0.142	C.2	1	UNK0	0.000	
3	   C	-3.142	-4.668	1.187	C.2	1	UNK0	0.000	
4	   C	-2.698	-3.354	1.215	C.2	1	UNK0	0.000	
5	   C	-3.032	-2.442	0.207	C.2	1	UNK0	0.000	
6	   C	-3.822	-2.906	-0.815	C.2	1	UNK0	0.000	
7	   C	-4.277	-4.217	-0.862	C.2	1	UNK0	0.000	
8	   N	-2.540	-1.113	0.291	N.pl3	1	UNK0	0.000	
9	   C	-1.154	-0.771	0.071	C.2	1	UNK0	0.000	
10	   O	-0.388	-1.515	-0.597	O.2	1	UNK0	0.000	
11	   C	-0.873	0.491	0.727	C.3	1	UNK0	0.000	
12	   C	-0.363	1.584	-0.123	C.3	1	UNK0	0.000	
13	   O	-1.504	2.035	-0.783	O.3	1	UNK0	0.000	
14	   C	-2.265	2.328	0.377	C.3	1	UNK0	0.000	
15	   C	-2.248	1.010	1.125	C.3	1	UNK0	0.000	
16	   C	-3.258	0.070	0.595	C.2	1	UNK0	0.000	
17	   O	-4.477	0.275	0.450	O.2	1	UNK0	0.000	
18	   C	-1.322	3.232	1.083	C.2	1	UNK0	0.000	
19	   C	-0.116	2.834	0.714	C.2	1	UNK0	0.000	
20	   C	0.798	1.314	-1.014	C.3	1	UNK0	0.000	
21	   O	0.513	0.371	-2.022	O.3	1	UNK0	0.000	
22	   C	0.567	0.682	-3.362	C.2	1	UNK0	0.000	
23	   O	0.887	1.871	-3.665	O.co2	1	UNK0	0.000	
24	   C	0.268	-0.300	-4.438	C.3	1	UNK0	0.000	
25	   O	1.888	0.945	-0.221	O.3	1	UNK0	0.000	
26	   C	3.080	1.567	-0.066	C.2	1	UNK0	0.000	
27	   O	3.289	2.648	-0.714	O.co2	1	UNK0	0.000	
28	   C	4.175	1.074	0.816	C.3	1	UNK0	0.000	
29	   H	-2.898	-5.391	1.952	 H	1	UNK0	0.000	
30	   H	-2.080	-3.071	2.059	 H	1	UNK0	0.000	
31	   H	-4.084	-2.198	-1.602	 H	1	UNK0	0.000	
32	   H	-4.898	-4.572	-1.671	 H	1	UNK0	0.000	
33	   H	-0.243	0.349	1.661	 H	1	UNK0	0.000	
34	   H	-3.237	2.717	0.165	 H	1	UNK0	0.000	
35	   H	-2.275	1.122	2.215	 H	1	UNK0	0.000	
36	   H	-1.558	4.054	1.763	 H	1	UNK0	0.000	
37	   H	0.845	3.239	0.914	 H	1	UNK0	0.000	
38	   H	1.052	2.264	-1.527	 H	1	UNK0	0.000	
39	   H	0.582	0.153	-5.399	 H	1	UNK0	0.000	
40	   H	0.728	-1.293	-4.265	 H	1	UNK0	0.000	
41	   H	-0.839	-0.449	-4.460	 H	1	UNK0	0.000	
42	   H	4.995	1.795	0.876	 H	1	UNK0	0.000	
43	   H	3.808	0.899	1.854	 H	1	UNK0	0.000	
44	   H	4.560	0.090	0.469	 H	1	UNK0	0.000	
@<TRIPOS>BOND
1 1 2 1
2 2 3 2
3 2 7 1
4 3 4 1
5 4 5 2
6 5 6 1
7 5 8 1
8 6 7 2
9 8 9 1
10 8 16 1
11 9 10 2
12 9 11 1
13 11 12 1
14 11 15 1
15 12 13 1
16 12 19 1
17 12 20 1
18 13 14 1
19 14 15 1
20 14 18 1
21 15 16 1
22 16 17 2
23 18 19 2
24 20 21 1
25 20 25 1
26 21 22 1
27 22 23 2
28 22 24 1
29 25 26 1
30 26 27 2
31 26 28 1
32 3 29 1
33 4 30 1
34 6 31 1
35 7 32 1
36 11 33 1
37 14 34 1
38 15 35 1
39 18 36 1
40 19 37 1
41 20 38 1
42 24 39 1
43 24 40 1
44 24 41 1
45 28 42 1
46 28 43 1
47 28 44 1
@<TRIPOS>SUBSTRUCTURE
1	UNK0	1	GROUP	1 ****	UNK
