# created with PyMOL 2.3.2
@<TRIPOS>MOLECULE
424
33 36 1                 
SMALL
USER_CHARGES
@<TRIPOS>ATOM
1	  Br	2.075	-4.155	4.394	Br	1	UNK0	0.000	
2	   C	1.507	-2.948	3.021	C.2	1	UNK0	0.000	
3	   C	0.668	-3.343	2.002	C.2	1	UNK0	0.000	
4	   C	0.253	-2.456	0.997	C.2	1	UNK0	0.000	
5	   C	0.678	-1.160	1.005	C.2	1	UNK0	0.000	
6	   C	1.520	-0.771	2.031	C.2	1	UNK0	0.000	
7	   C	1.933	-1.633	3.022	C.2	1	UNK0	0.000	
8	   N	0.263	-0.230	-0.008	N.pl3	1	UNK0	0.000	
9	   C	-0.809	-0.343	-0.921	C.2	1	UNK0	0.000	
10	   O	-1.299	-1.411	-1.356	O.2	1	UNK0	0.000	
11	   C	-1.282	0.998	-1.300	C.3	1	UNK0	0.000	
12	   C	-2.365	1.386	-0.342	C.3	1	UNK0	0.000	
13	   O	-1.590	1.630	0.816	O.3	1	UNK0	0.000	
14	   C	-0.795	2.669	0.261	C.3	1	UNK0	0.000	
15	   C	-0.153	1.915	-0.877	C.3	1	UNK0	0.000	
16	   C	0.880	1.035	-0.287	C.2	1	UNK0	0.000	
17	   O	2.082	1.339	-0.070	O.2	1	UNK0	0.000	
18	   C	-1.862	3.573	-0.236	C.2	1	UNK0	0.000	
19	   C	-2.883	2.763	-0.565	C.2	1	UNK0	0.000	
20	   C	-3.405	0.350	-0.120	C.3	1	UNK0	0.000	
21	   O	-4.166	0.105	-1.243	O.3	1	UNK0	0.000	
22	   H	0.326	-4.366	1.986	 H	1	UNK0	0.000	
23	   H	-0.405	-2.809	0.213	 H	1	UNK0	0.000	
24	   H	1.842	0.260	2.015	 H	1	UNK0	0.000	
25	   H	2.596	-1.332	3.832	 H	1	UNK0	0.000	
26	   H	-1.545	1.101	-2.352	 H	1	UNK0	0.000	
27	   H	-0.109	3.101	0.973	 H	1	UNK0	0.000	
28	   H	0.214	2.548	-1.687	 H	1	UNK0	0.000	
29	   H	-1.786	4.650	-0.300	 H	1	UNK0	0.000	
30	   H	-3.820	3.141	-0.904	 H	1	UNK0	0.000	
31	   H	-4.077	0.678	0.703	 H	1	UNK0	0.000	
32	   H	-2.897	-0.603	0.207	 H	1	UNK0	0.000	
33	   H	-3.627	0.068	-2.071	 H	1	UNK0	0.000	
@<TRIPOS>BOND
1 1 2 1
2 2 3 2
3 2 7 1
4 3 4 1
5 4 5 2
6 5 6 1
7 5 8 1
8 6 7 2
9 8 9 1
10 8 16 1
11 9 10 2
12 9 11 1
13 11 12 1
14 11 15 1
15 12 13 1
16 12 19 1
17 12 20 1
18 13 14 1
19 14 15 1
20 14 18 1
21 15 16 1
22 16 17 2
23 18 19 2
24 20 21 1
25 3 22 1
26 4 23 1
27 6 24 1
28 7 25 1
29 11 26 1
30 14 27 1
31 15 28 1
32 18 29 1
33 19 30 1
34 20 31 1
35 20 32 1
36 21 33 1
@<TRIPOS>SUBSTRUCTURE
1	UNK0	1	GROUP	1 ****	UNK
