# created with PyMOL 2.3.2
@<TRIPOS>MOLECULE
426
41 44 1                 
SMALL
USER_CHARGES
@<TRIPOS>ATOM
1	  Br	6.990	0.310	5.595	Br	1	UNK0	0.000	
2	   C	5.905	-0.238	4.099	C.2	1	UNK0	0.000	
3	   C	4.586	0.134	4.047	C.2	1	UNK0	0.000	
4	   C	3.837	-0.262	2.986	C.2	1	UNK0	0.000	
5	   C	4.327	-1.036	1.927	C.2	1	UNK0	0.000	
6	   C	5.646	-1.394	2.002	C.2	1	UNK0	0.000	
7	   C	6.427	-1.002	3.073	C.2	1	UNK0	0.000	
8	   N	3.476	-1.403	0.861	N.pl3	1	UNK0	0.000	
9	   C	3.169	-2.723	0.372	C.2	1	UNK0	0.000	
10	   O	3.236	-3.798	1.033	O.2	1	UNK0	0.000	
11	   C	2.763	-2.572	-1.044	C.3	1	UNK0	0.000	
12	   N	1.745	-3.508	-1.479	N.pl3	1	UNK0	0.000	
13	   N	1.020	-2.645	-2.358	N.pl3	1	UNK0	0.000	
14	   C	0.921	-1.357	-1.750	C.2	1	UNK0	0.000	
15	   C	1.973	-1.287	-0.942	C.2	1	UNK0	0.000	
16	   C	2.724	-0.507	0.034	C.2	1	UNK0	0.000	
17	   O	2.656	0.753	0.066	O.2	1	UNK0	0.000	
18	   C	-0.096	-0.333	-1.962	C.2	1	UNK0	0.000	
19	   O	-0.067	0.762	-1.353	O.co2	1	UNK0	0.000	
20	   O	-1.150	-0.511	-2.846	O.3	1	UNK0	0.000	
21	   C	-2.137	0.492	-3.043	C.3	1	UNK0	0.000	
22	   C	-2.833	0.764	-1.741	C.2	1	UNK0	0.000	
23	   C	-2.974	-0.248	-0.793	C.2	1	UNK0	0.000	
24	   C	-3.597	-0.041	0.408	C.2	1	UNK0	0.000	
25	   C	-4.109	1.222	0.693	C.2	1	UNK0	0.000	
26	   C	-3.968	2.219	-0.247	C.2	1	UNK0	0.000	
27	   C	-3.329	1.997	-1.469	C.2	1	UNK0	0.000	
28	   H	4.170	0.738	4.854	 H	1	UNK0	0.000	
29	   H	2.797	0.030	2.941	 H	1	UNK0	0.000	
30	   H	6.099	-1.992	1.221	 H	1	UNK0	0.000	
31	   H	7.469	-1.280	3.140	 H	1	UNK0	0.000	
32	   H	3.597	-2.489	-1.743	 H	1	UNK0	0.000	
33	   H	1.108	-3.629	-0.642	 H	1	UNK0	0.000	
34	   H	0.626	-2.901	-3.284	 H	1	UNK0	0.000	
35	   H	-1.736	1.406	-3.480	 H	1	UNK0	0.000	
36	   H	-2.904	0.082	-3.728	 H	1	UNK0	0.000	
37	   H	-2.584	-1.220	-1.001	 H	1	UNK0	0.000	
38	   H	-3.711	-0.820	1.146	 H	1	UNK0	0.000	
39	   H	-4.612	1.421	1.638	 H	1	UNK0	0.000	
40	   H	-4.340	3.210	-0.085	 H	1	UNK0	0.000	
41	   H	-3.235	2.800	-2.182	 H	1	UNK0	0.000	
@<TRIPOS>BOND
1 1 2 1
2 2 3 2
3 2 7 1
4 3 4 1
5 4 5 2
6 5 6 1
7 5 8 1
8 6 7 2
9 8 9 1
10 8 16 1
11 9 10 2
12 9 11 1
13 11 12 1
14 11 15 1
15 12 13 1
16 13 14 1
17 14 15 2
18 14 18 1
19 15 16 1
20 16 17 2
21 18 19 2
22 18 20 1
23 20 21 1
24 21 22 1
25 22 23 2
26 22 27 1
27 23 24 1
28 24 25 2
29 25 26 1
30 26 27 2
31 3 28 1
32 4 29 1
33 6 30 1
34 7 31 1
35 11 32 1
36 12 33 1
37 13 34 1
38 21 35 1
39 21 36 1
40 23 37 1
41 24 38 1
42 25 39 1
43 26 40 1
44 27 41 1
@<TRIPOS>SUBSTRUCTURE
1	UNK0	1	GROUP	1 ****	UNK
