# created with PyMOL 2.3.2
@<TRIPOS>MOLECULE
427
37 40 1                 
SMALL
USER_CHARGES
@<TRIPOS>ATOM
1	  Br	-2.306	5.992	-3.074	Br	1	UNK0	0.000	
2	   C	-1.907	4.609	-1.826	C.2	1	UNK0	0.000	
3	   C	-2.214	4.756	-0.479	C.2	1	UNK0	0.000	
4	   C	-1.929	3.759	0.427	C.2	1	UNK0	0.000	
5	   C	-1.324	2.570	0.026	C.2	1	UNK0	0.000	
6	   C	-1.038	2.472	-1.323	C.2	1	UNK0	0.000	
7	   C	-1.318	3.462	-2.245	C.2	1	UNK0	0.000	
8	   N	-1.038	1.546	0.955	N.pl3	1	UNK0	0.000	
9	   C	-0.887	1.624	2.394	C.2	1	UNK0	0.000	
10	   O	-0.545	2.649	3.024	O.2	1	UNK0	0.000	
11	   C	-1.204	0.300	2.963	C.3	1	UNK0	0.000	
12	   O	-0.505	-0.085	4.078	O.3	1	UNK0	0.000	
13	   N	-0.321	-1.446	3.880	N.pl3	1	UNK0	0.000	
14	   C	-0.036	-1.632	2.478	C.2	1	UNK0	0.000	
15	   C	-0.570	-0.568	1.901	C.2	1	UNK0	0.000	
16	   C	-0.836	0.168	0.675	C.2	1	UNK0	0.000	
17	   O	-0.867	-0.418	-0.458	O.2	1	UNK0	0.000	
18	   C	0.684	-2.718	1.833	C.2	1	UNK0	0.000	
19	   C	1.715	-2.749	0.922	C.2	1	UNK0	0.000	
20	   N	2.007	-4.017	0.575	N.pl3	1	UNK0	0.000	
21	   N	1.189	-4.797	1.244	N.2	1	UNK0	0.000	
22	   C	0.379	-4.061	2.010	C.2	1	UNK0	0.000	
23	   C	3.044	-4.452	-0.383	C.3	1	UNK0	0.000	
24	   C	2.412	-1.514	0.438	C.3	1	UNK0	0.000	
25	   H	-2.682	5.688	-0.201	 H	1	UNK0	0.000	
26	   H	-2.172	3.888	1.474	 H	1	UNK0	0.000	
27	   H	-0.568	1.575	-1.711	 H	1	UNK0	0.000	
28	   H	-1.076	3.342	-3.298	 H	1	UNK0	0.000	
29	   H	-2.288	0.093	3.068	 H	1	UNK0	0.000	
30	   H	-0.367	-2.221	4.560	 H	1	UNK0	0.000	
31	   H	-0.383	-4.501	2.655	 H	1	UNK0	0.000	
32	   H	3.334	-3.630	-1.066	 H	1	UNK0	0.000	
33	   H	3.898	-4.912	0.110	 H	1	UNK0	0.000	
34	   H	2.502	-5.208	-1.033	 H	1	UNK0	0.000	
35	   H	1.776	-0.795	-0.058	 H	1	UNK0	0.000	
36	   H	2.913	-1.064	1.347	 H	1	UNK0	0.000	
37	   H	3.265	-1.821	-0.201	 H	1	UNK0	0.000	
@<TRIPOS>BOND
1 1 2 1
2 2 3 2
3 2 7 1
4 3 4 1
5 4 5 2
6 5 6 1
7 5 8 1
8 6 7 2
9 8 9 1
10 8 16 1
11 9 10 2
12 9 11 1
13 11 12 1
14 11 15 1
15 12 13 1
16 13 14 1
17 14 15 2
18 14 18 1
19 15 16 1
20 16 17 2
21 18 19 2
22 18 22 1
23 19 20 1
24 19 24 1
25 20 21 1
26 20 23 1
27 21 22 2
28 3 25 1
29 4 26 1
30 6 27 1
31 7 28 1
32 11 29 1
33 13 30 1
34 22 31 1
35 23 32 1
36 23 33 1
37 23 34 1
38 24 35 1
39 24 36 1
40 24 37 1
@<TRIPOS>SUBSTRUCTURE
1	UNK0	1	GROUP	1 ****	UNK
