# created with PyMOL 2.3.2
@<TRIPOS>MOLECULE
430
43 46 1                 
SMALL
USER_CHARGES
@<TRIPOS>ATOM
1	  Br	-1.869	-3.514	3.973	Br	1	UNK0	0.000	
2	   C	-0.482	-2.734	2.885	C.2	1	UNK0	0.000	
3	   C	-0.739	-2.196	1.648	C.2	1	UNK0	0.000	
4	   C	0.209	-1.624	0.834	C.2	1	UNK0	0.000	
5	   C	1.510	-1.587	1.291	C.2	1	UNK0	0.000	
6	   C	1.810	-2.125	2.545	C.2	1	UNK0	0.000	
7	   C	0.827	-2.695	3.340	C.2	1	UNK0	0.000	
8	   N	2.519	-0.997	0.503	N.pl3	1	UNK0	0.000	
9	   C	3.062	0.309	0.709	C.3	1	UNK0	0.000	
10	   C	3.441	0.726	-0.701	C.3	1	UNK0	0.000	
11	   C	4.165	-0.566	-1.146	C.3	1	UNK0	0.000	
12	   C	3.166	-1.565	-0.615	C.2	1	UNK0	0.000	
13	   O	2.997	-2.690	-1.134	O.2	1	UNK0	0.000	
14	   C	2.278	0.864	-1.578	C.2	1	UNK0	0.000	
15	   O	2.262	0.291	-2.691	O.2	1	UNK0	0.000	
16	   N	1.162	1.636	-1.197	N.pl3	1	UNK0	0.000	
17	   C	0.000	1.787	-2.054	C.3	1	UNK0	0.000	
18	   C	-1.016	2.612	-1.354	C.2	1	UNK0	0.000	
19	   N	-2.359	2.348	-1.323	N.pl3	1	UNK0	0.000	
20	   C	-2.950	3.290	-0.606	C.2	1	UNK0	0.000	
21	   N	-2.014	4.143	-0.185	N.2	1	UNK0	0.000	
22	   N	-0.844	3.733	-0.637	N.2	1	UNK0	0.000	
23	   C	-4.431	3.044	-0.539	C.3	1	UNK0	0.000	
24	   C	-4.612	2.215	-1.803	C.3	1	UNK0	0.000	
25	   C	-3.349	1.391	-1.802	C.3	1	UNK0	0.000	
26	   H	-1.774	-2.230	1.293	 H	1	UNK0	0.000	
27	   H	-0.024	-1.202	-0.154	 H	1	UNK0	0.000	
28	   H	2.843	-2.096	2.903	 H	1	UNK0	0.000	
29	   H	1.020	-3.120	4.315	 H	1	UNK0	0.000	
30	   H	2.396	1.024	1.204	 H	1	UNK0	0.000	
31	   H	4.011	0.277	1.290	 H	1	UNK0	0.000	
32	   H	4.121	1.580	-0.720	 H	1	UNK0	0.000	
33	   H	5.086	-0.704	-0.575	 H	1	UNK0	0.000	
34	   H	4.252	-0.623	-2.230	 H	1	UNK0	0.000	
35	   H	1.163	2.112	-0.283	 H	1	UNK0	0.000	
36	   H	0.339	2.403	-2.938	 H	1	UNK0	0.000	
37	   H	-0.404	0.844	-2.425	 H	1	UNK0	0.000	
38	   H	-4.604	2.436	0.385	 H	1	UNK0	0.000	
39	   H	-5.021	3.961	-0.534	 H	1	UNK0	0.000	
40	   H	-5.524	1.591	-1.785	 H	1	UNK0	0.000	
41	   H	-4.584	2.900	-2.661	 H	1	UNK0	0.000	
42	   H	-3.079	0.993	-2.799	 H	1	UNK0	0.000	
43	   H	-3.404	0.595	-1.027	 H	1	UNK0	0.000	
@<TRIPOS>BOND
1 1 2 1
2 2 3 2
3 2 7 1
4 3 4 1
5 4 5 2
6 5 6 1
7 5 8 1
8 6 7 2
9 8 9 1
10 8 12 1
11 9 10 1
12 10 11 1
13 10 14 1
14 11 12 1
15 12 13 2
16 14 15 2
17 14 16 1
18 16 17 1
19 17 18 1
20 18 19 1
21 18 22 2
22 19 20 1
23 19 25 1
24 20 21 2
25 20 23 1
26 21 22 1
27 23 24 1
28 24 25 1
29 3 26 1
30 4 27 1
31 6 28 1
32 7 29 1
33 9 30 1
34 9 31 1
35 10 32 1
36 11 33 1
37 11 34 1
38 16 35 1
39 17 36 1
40 17 37 1
41 23 38 1
42 23 39 1
43 24 40 1
44 24 41 1
45 25 42 1
46 25 43 1
@<TRIPOS>SUBSTRUCTURE
1	UNK0	1	GROUP	1 ****	UNK
