# created with PyMOL 2.3.2
@<TRIPOS>MOLECULE
431
46 49 1                 
SMALL
USER_CHARGES
@<TRIPOS>ATOM
1	  Br	-1.374	-6.081	-2.149	Br	1	UNK0	0.000	
2	   C	-0.153	-4.705	-1.648	C.2	1	UNK0	0.000	
3	   C	-0.094	-3.494	-2.329	C.2	1	UNK0	0.000	
4	   C	0.801	-2.523	-1.936	C.2	1	UNK0	0.000	
5	   C	1.671	-2.674	-0.879	C.2	1	UNK0	0.000	
6	   C	1.599	-3.882	-0.212	C.2	1	UNK0	0.000	
7	   C	0.706	-4.874	-0.590	C.2	1	UNK0	0.000	
8	   N	2.591	-1.667	-0.489	N.pl3	1	UNK0	0.000	
9	   C	2.713	-0.289	-0.867	C.3	1	UNK0	0.000	
10	   C	3.108	0.417	0.381	C.3	1	UNK0	0.000	
11	   C	4.065	-0.589	1.041	C.3	1	UNK0	0.000	
12	   C	3.673	-1.878	0.421	C.2	1	UNK0	0.000	
13	   O	4.269	-2.955	0.716	O.2	1	UNK0	0.000	
14	   C	2.088	0.767	1.358	C.2	1	UNK0	0.000	
15	   O	2.618	1.112	2.525	O.2	1	UNK0	0.000	
16	   N	0.716	0.831	1.354	N.pl3	1	UNK0	0.000	
17	   C	0.044	1.337	2.576	C.3	1	UNK0	0.000	
18	   C	-1.097	2.223	2.278	C.3	1	UNK0	0.000	
19	   C	-1.519	2.446	0.893	C.3	1	UNK0	0.000	
20	   N	-1.712	3.856	0.538	N.pl3	1	UNK0	0.000	
21	   C	-2.530	3.803	-0.621	C.2	1	UNK0	0.000	
22	   O	-2.586	4.644	-1.562	O.2	1	UNK0	0.000	
23	   N	-3.326	2.600	-0.573	N.pl3	1	UNK0	0.000	
24	   C	-2.936	1.967	0.646	C.2	1	UNK0	0.000	
25	   O	-3.595	1.200	1.355	O.2	1	UNK0	0.000	
26	   C	-0.708	1.832	-0.203	C.3	1	UNK0	0.000	
27	   C	-0.242	0.473	0.336	C.3	1	UNK0	0.000	
28	   H	-0.792	-3.396	-3.155	 H	1	UNK0	0.000	
29	   H	0.792	-1.604	-2.511	 H	1	UNK0	0.000	
30	   H	2.256	-4.056	0.629	 H	1	UNK0	0.000	
31	   H	0.674	-5.819	-0.042	 H	1	UNK0	0.000	
32	   H	1.913	0.142	-1.459	 H	1	UNK0	0.000	
33	   H	3.652	-0.255	-1.536	 H	1	UNK0	0.000	
34	   H	3.729	1.341	0.107	 H	1	UNK0	0.000	
35	   H	3.811	-0.690	2.140	 H	1	UNK0	0.000	
36	   H	5.118	-0.336	0.890	 H	1	UNK0	0.000	
37	   H	0.787	1.788	3.266	 H	1	UNK0	0.000	
38	   H	-0.319	0.419	3.079	 H	1	UNK0	0.000	
39	   H	-2.004	1.871	2.864	 H	1	UNK0	0.000	
40	   H	-0.856	3.231	2.741	 H	1	UNK0	0.000	
41	   H	-1.370	4.722	0.975	 H	1	UNK0	0.000	
42	   H	-4.028	2.269	-1.275	 H	1	UNK0	0.000	
43	   H	-1.301	1.737	-1.114	 H	1	UNK0	0.000	
44	   H	0.195	2.475	-0.424	 H	1	UNK0	0.000	
45	   H	-1.167	0.085	0.885	 H	1	UNK0	0.000	
46	   H	0.035	-0.251	-0.396	 H	1	UNK0	0.000	
@<TRIPOS>BOND
1 1 2 1
2 2 3 2
3 2 7 1
4 3 4 1
5 4 5 2
6 5 6 1
7 5 8 1
8 6 7 2
9 8 9 1
10 8 12 1
11 9 10 1
12 10 11 1
13 10 14 1
14 11 12 1
15 12 13 2
16 14 15 2
17 14 16 1
18 16 17 1
19 16 27 1
20 17 18 1
21 18 19 1
22 19 20 1
23 19 24 1
24 19 26 1
25 20 21 1
26 21 22 2
27 21 23 1
28 23 24 1
29 24 25 2
30 26 27 1
31 3 28 1
32 4 29 1
33 6 30 1
34 7 31 1
35 9 32 1
36 9 33 1
37 10 34 1
38 11 35 1
39 11 36 1
40 17 37 1
41 17 38 1
42 18 39 1
43 18 40 1
44 20 41 1
45 23 42 1
46 26 43 1
47 26 44 1
48 27 45 1
49 27 46 1
@<TRIPOS>SUBSTRUCTURE
1	UNK0	1	GROUP	1 ****	UNK
