# created with PyMOL 2.3.2
@<TRIPOS>MOLECULE
437
36 39 1                 
SMALL
USER_CHARGES
@<TRIPOS>ATOM
1	  Br	-2.360	-4.236	6.081	Br	1	UNK0	0.000	
2	   C	-1.406	-3.201	4.775	C.2	1	UNK0	0.000	
3	   C	-0.881	-3.799	3.632	C.2	1	UNK0	0.000	
4	   C	-0.201	-3.083	2.680	C.2	1	UNK0	0.000	
5	   C	-0.002	-1.701	2.812	C.2	1	UNK0	0.000	
6	   C	-0.532	-1.146	3.950	C.2	1	UNK0	0.000	
7	   C	-1.216	-1.857	4.913	C.2	1	UNK0	0.000	
8	   N	0.692	-0.970	1.823	N.pl3	1	UNK0	0.000	
9	   C	1.618	-1.518	0.810	C.3	1	UNK0	0.000	
10	   C	1.205	-0.719	-0.345	C.3	1	UNK0	0.000	
11	   O	-0.048	-1.088	-0.902	O.3	1	UNK0	0.000	
12	   C	-0.146	0.048	-1.752	C.3	1	UNK0	0.000	
13	   C	-0.178	1.112	-0.683	C.3	1	UNK0	0.000	
14	   C	0.994	0.715	0.168	C.3	1	UNK0	0.000	
15	   C	0.646	0.428	1.583	C.2	1	UNK0	0.000	
16	   O	0.348	1.273	2.466	O.2	1	UNK0	0.000	
17	   C	-0.158	2.484	-1.170	C.2	1	UNK0	0.000	
18	   O	-1.132	3.250	-0.848	O.co2	1	UNK0	0.000	
19	   O	0.837	3.041	-1.961	O.3	1	UNK0	0.000	
20	   C	0.727	4.405	-2.360	C.3	1	UNK0	0.000	
21	   C	1.200	-0.048	-2.434	C.2	1	UNK0	0.000	
22	   C	2.003	-0.629	-1.541	C.2	1	UNK0	0.000	
23	   H	-1.056	-4.866	3.567	 H	1	UNK0	0.000	
24	   H	0.193	-3.571	1.802	 H	1	UNK0	0.000	
25	   H	-0.421	-0.075	4.141	 H	1	UNK0	0.000	
26	   H	-1.612	-1.342	5.804	 H	1	UNK0	0.000	
27	   H	1.477	-2.577	0.627	 H	1	UNK0	0.000	
28	   H	2.653	-1.285	1.077	 H	1	UNK0	0.000	
29	   H	-0.980	0.024	-2.420	 H	1	UNK0	0.000	
30	   H	-1.091	0.906	-0.079	 H	1	UNK0	0.000	
31	   H	1.895	1.317	0.046	 H	1	UNK0	0.000	
32	   H	-0.162	4.885	-1.919	 H	1	UNK0	0.000	
33	   H	0.598	4.409	-3.456	 H	1	UNK0	0.000	
34	   H	1.601	4.995	-2.040	 H	1	UNK0	0.000	
35	   H	1.407	0.301	-3.442	 H	1	UNK0	0.000	
36	   H	3.007	-0.938	-1.723	 H	1	UNK0	0.000	
@<TRIPOS>BOND
1 1 2 1
2 2 3 2
3 2 7 1
4 3 4 1
5 4 5 2
6 5 6 1
7 5 8 1
8 6 7 2
9 8 9 1
10 8 15 1
11 9 10 1
12 10 11 1
13 10 14 1
14 10 22 1
15 11 12 1
16 12 13 1
17 12 21 1
18 13 14 1
19 13 17 1
20 14 15 1
21 15 16 2
22 17 18 2
23 17 19 1
24 19 20 1
25 21 22 2
26 3 23 1
27 4 24 1
28 6 25 1
29 7 26 1
30 9 27 1
31 9 28 1
32 12 29 1
33 13 30 1
34 14 31 1
35 20 32 1
36 20 33 1
37 20 34 1
38 21 35 1
39 22 36 1
@<TRIPOS>SUBSTRUCTURE
1	UNK0	1	GROUP	1 ****	UNK
