# created with PyMOL 2.3.2
@<TRIPOS>MOLECULE
438
45 48 1                 
SMALL
USER_CHARGES
@<TRIPOS>ATOM
1	  Br	5.229	-3.116	4.069	Br	1	UNK0	0.000	
2	   C	4.467	-1.819	2.882	C.2	1	UNK0	0.000	
3	   C	3.246	-2.083	2.301	C.2	1	UNK0	0.000	
4	   C	2.678	-1.173	1.449	C.2	1	UNK0	0.000	
5	   C	3.286	0.042	1.129	C.2	1	UNK0	0.000	
6	   C	4.506	0.289	1.720	C.2	1	UNK0	0.000	
7	   C	5.104	-0.631	2.594	C.2	1	UNK0	0.000	
8	   N	2.687	0.971	0.253	N.pl3	1	UNK0	0.000	
9	   C	2.668	2.319	0.389	C.2	1	UNK0	0.000	
10	   C	1.971	2.832	-0.690	C.2	1	UNK0	0.000	
11	   N	1.569	1.789	-1.477	N.pl3	1	UNK0	0.000	
12	   N	0.905	2.304	-2.498	N.pl3	1	UNK0	0.000	
13	   C	0.889	3.653	-2.354	C.2	1	UNK0	0.000	
14	   O	0.345	4.485	-3.137	O.2	1	UNK0	0.000	
15	   N	1.547	3.981	-1.237	N.pl3	1	UNK0	0.000	
16	   C	0.295	1.597	-3.577	C.3	1	UNK0	0.000	
17	   C	-1.096	1.197	-3.325	C.2	1	UNK0	0.000	
18	   O	-2.016	2.013	-3.573	O.2	1	UNK0	0.000	
19	   N	-1.479	-0.070	-2.811	N.pl3	1	UNK0	0.000	
20	   C	-2.838	-0.441	-2.568	C.3	1	UNK0	0.000	
21	   C	-2.914	-1.843	-2.033	C.3	1	UNK0	0.000	
22	   O	-2.211	-1.971	-0.846	O.3	1	UNK0	0.000	
23	   C	-2.980	-1.323	0.111	C.3	1	UNK0	0.000	
24	   C	-4.414	-1.548	-0.243	C.3	1	UNK0	0.000	
25	   C	-4.326	-2.198	-1.590	C.3	1	UNK0	0.000	
26	   C	2.022	0.669	-0.874	C.2	1	UNK0	0.000	
27	   O	1.856	-0.505	-1.291	O.2	1	UNK0	0.000	
28	   H	2.738	-3.023	2.525	 H	1	UNK0	0.000	
29	   H	1.721	-1.348	0.975	 H	1	UNK0	0.000	
30	   H	5.032	1.220	1.511	 H	1	UNK0	0.000	
31	   H	6.059	-0.445	3.062	 H	1	UNK0	0.000	
32	   H	3.100	2.899	1.171	 H	1	UNK0	0.000	
33	   H	1.695	4.945	-0.874	 H	1	UNK0	0.000	
34	   H	0.947	0.724	-3.847	 H	1	UNK0	0.000	
35	   H	0.286	2.220	-4.519	 H	1	UNK0	0.000	
36	   H	-0.688	-0.744	-2.611	 H	1	UNK0	0.000	
37	   H	-3.251	0.237	-1.780	 H	1	UNK0	0.000	
38	   H	-3.474	-0.397	-3.475	 H	1	UNK0	0.000	
39	   H	-2.622	-2.572	-2.805	 H	1	UNK0	0.000	
40	   H	-2.728	-0.260	0.126	 H	1	UNK0	0.000	
41	   H	-2.776	-1.785	1.120	 H	1	UNK0	0.000	
42	   H	-4.977	-0.586	-0.364	 H	1	UNK0	0.000	
43	   H	-4.940	-2.200	0.511	 H	1	UNK0	0.000	
44	   H	-5.080	-1.797	-2.301	 H	1	UNK0	0.000	
45	   H	-4.367	-3.297	-1.493	 H	1	UNK0	0.000	
@<TRIPOS>BOND
1 1 2 1
2 2 3 2
3 2 7 1
4 3 4 1
5 4 5 2
6 5 6 1
7 5 8 1
8 6 7 2
9 8 9 1
10 8 26 1
11 9 10 2
12 10 11 1
13 10 15 1
14 11 12 1
15 11 26 1
16 12 13 1
17 12 16 1
18 13 14 2
19 13 15 1
20 16 17 1
21 17 18 2
22 17 19 1
23 19 20 1
24 20 21 1
25 21 22 1
26 21 25 1
27 22 23 1
28 23 24 1
29 24 25 1
30 26 27 2
31 3 28 1
32 4 29 1
33 6 30 1
34 7 31 1
35 9 32 1
36 15 33 1
37 16 34 1
38 16 35 1
39 19 36 1
40 20 37 1
41 20 38 1
42 21 39 1
43 23 40 1
44 23 41 1
45 24 42 1
46 24 43 1
47 25 44 1
48 25 45 1
@<TRIPOS>SUBSTRUCTURE
1	UNK0	1	GROUP	1 ****	UNK
