# created with PyMOL 2.3.2
@<TRIPOS>MOLECULE
440
47 51 1                 
SMALL
USER_CHARGES
@<TRIPOS>ATOM
1	  Br	0.656	-7.220	4.685	Br	1	UNK0	0.000	
2	   C	0.516	-5.505	3.864	C.2	1	UNK0	0.000	
3	   C	0.590	-4.349	4.611	C.2	1	UNK0	0.000	
4	   C	0.485	-3.125	3.990	C.2	1	UNK0	0.000	
5	   C	0.305	-3.017	2.611	C.2	1	UNK0	0.000	
6	   C	0.238	-4.195	1.906	C.2	1	UNK0	0.000	
7	   C	0.338	-5.448	2.486	C.2	1	UNK0	0.000	
8	   N	0.200	-1.739	1.993	N.pl3	1	UNK0	0.000	
9	   N	-0.494	-0.714	2.412	N.pl3	1	UNK0	0.000	
10	   C	-0.383	0.369	1.589	C.2	1	UNK0	0.000	
11	   C	-0.974	1.527	1.765	C.2	1	UNK0	0.000	
12	   C	0.439	-0.001	0.582	C.2	1	UNK0	0.000	
13	   C	0.862	0.707	-0.444	C.2	1	UNK0	0.000	
14	   N	0.511	2.053	-0.683	N.pl3	1	UNK0	0.000	
15	   C	-0.381	2.267	-1.819	C.3	1	UNK0	0.000	
16	   C	0.327	1.787	-3.074	C.3	1	UNK0	0.000	
17	   N	-0.556	1.945	-4.186	N.3	1	UNK0	0.000	
18	   C	-0.910	3.326	-4.304	C.3	1	UNK0	0.000	
19	   N	-1.687	3.734	-3.145	N.3	1	UNK0	0.000	
20	   C	-2.826	2.870	-2.993	C.3	1	UNK0	0.000	
21	   N	-2.457	1.468	-2.833	N.3	1	UNK0	0.000	
22	   C	-1.706	1.080	-3.996	C.3	1	UNK0	0.000	
23	   C	-1.608	1.408	-1.652	C.3	1	UNK0	0.000	
24	   C	-0.847	3.689	-1.949	C.3	1	UNK0	0.000	
25	   C	0.790	-1.337	0.866	C.2	1	UNK0	0.000	
26	   O	1.542	-2.028	0.158	O.2	1	UNK0	0.000	
27	   H	0.729	-4.452	5.677	 H	1	UNK0	0.000	
28	   H	0.543	-2.221	4.578	 H	1	UNK0	0.000	
29	   H	0.097	-4.099	0.831	 H	1	UNK0	0.000	
30	   H	0.276	-6.342	1.870	 H	1	UNK0	0.000	
31	   H	-1.070	-0.708	3.272	 H	1	UNK0	0.000	
32	   H	-0.869	2.334	1.117	 H	1	UNK0	0.000	
33	   H	-1.605	1.659	2.628	 H	1	UNK0	0.000	
34	   H	1.538	0.168	-1.140	 H	1	UNK0	0.000	
35	   H	0.873	2.879	-0.123	 H	1	UNK0	0.000	
36	   H	0.520	0.705	-2.936	 H	1	UNK0	0.000	
37	   H	1.292	2.275	-3.224	 H	1	UNK0	0.000	
38	   H	-0.000	3.930	-4.314	 H	1	UNK0	0.000	
39	   H	-1.538	3.460	-5.207	 H	1	UNK0	0.000	
40	   H	-3.459	2.935	-3.888	 H	1	UNK0	0.000	
41	   H	-3.356	3.177	-2.057	 H	1	UNK0	0.000	
42	   H	-1.383	0.041	-4.001	 H	1	UNK0	0.000	
43	   H	-2.377	1.233	-4.879	 H	1	UNK0	0.000	
44	   H	-1.306	0.361	-1.475	 H	1	UNK0	0.000	
45	   H	-2.204	1.769	-0.782	 H	1	UNK0	0.000	
46	   H	-1.508	3.902	-1.079	 H	1	UNK0	0.000	
47	   H	-0.021	4.399	-2.054	 H	1	UNK0	0.000	
@<TRIPOS>BOND
1 1 2 1
2 2 3 2
3 2 7 1
4 3 4 1
5 4 5 2
6 5 6 1
7 5 8 1
8 6 7 2
9 8 9 1
10 8 25 1
11 9 10 1
12 10 11 2
13 10 12 1
14 12 13 2
15 12 25 1
16 13 14 1
17 14 15 1
18 15 16 1
19 15 23 1
20 15 24 1
21 16 17 1
22 17 18 1
23 17 22 1
24 18 19 1
25 19 20 1
26 19 24 1
27 20 21 1
28 21 22 1
29 21 23 1
30 25 26 2
31 3 27 1
32 4 28 1
33 6 29 1
34 7 30 1
35 9 31 1
36 11 32 1
37 11 33 1
38 13 34 1
39 14 35 1
40 16 36 1
41 16 37 1
42 18 38 1
43 18 39 1
44 20 40 1
45 20 41 1
46 22 42 1
47 22 43 1
48 23 44 1
49 23 45 1
50 24 46 1
51 24 47 1
@<TRIPOS>SUBSTRUCTURE
1	UNK0	1	GROUP	1 ****	UNK
