# created with PyMOL 2.3.2
@<TRIPOS>MOLECULE
442
56 60 1                 
SMALL
USER_CHARGES
@<TRIPOS>ATOM
1	  Br	3.263	1.254	-5.635	Br	1	UNK0	0.000	
2	   C	3.327	1.474	-3.733	C.2	1	UNK0	0.000	
3	   C	4.321	0.889	-2.970	C.2	1	UNK0	0.000	
4	   C	4.324	1.075	-1.614	C.2	1	UNK0	0.000	
5	   C	3.372	1.829	-0.945	C.2	1	UNK0	0.000	
6	   C	2.385	2.409	-1.707	C.2	1	UNK0	0.000	
7	   C	2.369	2.228	-3.094	C.2	1	UNK0	0.000	
8	   O	3.453	1.961	0.408	O.3	1	UNK0	0.000	
9	   C	2.604	2.655	1.268	C.3	1	UNK0	0.000	
10	   C	1.231	2.123	1.248	C.2	1	UNK0	0.000	
11	   O	0.986	1.117	0.533	O.2	1	UNK0	0.000	
12	   N	0.162	2.678	1.990	N.pl3	1	UNK0	0.000	
13	   C	-1.144	2.139	1.947	C.2	1	UNK0	0.000	
14	   N	-1.364	1.067	1.176	N.2	1	UNK0	0.000	
15	   C	-2.563	0.480	1.065	C.2	1	UNK0	0.000	
16	   N	-3.022	-0.572	0.379	N.pl3	1	UNK0	0.000	
17	   C	-4.325	-0.677	0.674	C.2	1	UNK0	0.000	
18	   N	-4.681	0.295	1.533	N.2	1	UNK0	0.000	
19	   C	-3.609	1.035	1.800	C.2	1	UNK0	0.000	
20	   C	-3.408	2.139	2.602	C.2	1	UNK0	0.000	
21	   N	-2.171	2.651	2.642	N.2	1	UNK0	0.000	
22	   O	-4.429	2.704	3.336	O.3	1	UNK0	0.000	
23	   C	-2.275	-1.442	-0.515	C.3	1	UNK0	0.000	
24	   O	-1.328	-0.726	-1.190	O.3	1	UNK0	0.000	
25	   C	-0.233	-1.556	-1.403	C.3	1	UNK0	0.000	
26	   C	-0.177	-2.482	-0.212	C.3	1	UNK0	0.000	
27	   O	0.473	-1.919	0.869	O.3	1	UNK0	0.000	
28	   C	-0.196	-2.496	1.946	C.3	1	UNK0	0.000	
29	   O	-1.560	-2.318	1.608	O.3	1	UNK0	0.000	
30	   C	-1.610	-2.534	0.230	C.3	1	UNK0	0.000	
31	   C	0.042	-1.777	3.241	C.3	1	UNK0	0.000	
32	   C	0.166	-3.958	2.016	C.3	1	UNK0	0.000	
33	   C	-0.558	-2.412	-2.611	C.3	1	UNK0	0.000	
34	   O	0.500	-3.257	-2.868	O.3	1	UNK0	0.000	
35	   H	5.070	0.297	-3.490	 H	1	UNK0	0.000	
36	   H	5.118	0.606	-1.015	 H	1	UNK0	0.000	
37	   H	1.610	3.018	-1.275	 H	1	UNK0	0.000	
38	   H	1.568	2.706	-3.656	 H	1	UNK0	0.000	
39	   H	2.598	3.748	1.037	 H	1	UNK0	0.000	
40	   H	3.054	2.592	2.302	 H	1	UNK0	0.000	
41	   H	0.311	3.515	2.600	 H	1	UNK0	0.000	
42	   H	-5.032	-1.410	0.308	 H	1	UNK0	0.000	
43	   H	-4.589	2.382	4.284	 H	1	UNK0	0.000	
44	   H	-3.004	-1.933	-1.235	 H	1	UNK0	0.000	
45	   H	0.698	-1.023	-1.606	 H	1	UNK0	0.000	
46	   H	0.231	-3.479	-0.475	 H	1	UNK0	0.000	
47	   H	-2.052	-3.531	-0.005	 H	1	UNK0	0.000	
48	   H	0.778	-2.349	3.879	 H	1	UNK0	0.000	
49	   H	-0.869	-1.673	3.866	 H	1	UNK0	0.000	
50	   H	0.416	-0.727	3.085	 H	1	UNK0	0.000	
51	   H	-0.704	-4.626	1.804	 H	1	UNK0	0.000	
52	   H	0.956	-4.221	1.280	 H	1	UNK0	0.000	
53	   H	0.586	-4.236	3.012	 H	1	UNK0	0.000	
54	   H	-0.836	-1.766	-3.466	 H	1	UNK0	0.000	
55	   H	-1.451	-3.032	-2.306	 H	1	UNK0	0.000	
56	   H	0.761	-3.140	-3.824	 H	1	UNK0	0.000	
@<TRIPOS>BOND
1 1 2 1
2 2 3 2
3 2 7 1
4 3 4 1
5 4 5 2
6 5 6 1
7 5 8 1
8 6 7 2
9 8 9 1
10 9 10 1
11 10 11 2
12 10 12 1
13 12 13 1
14 13 14 2
15 13 21 1
16 14 15 1
17 15 16 1
18 15 19 2
19 16 17 1
20 16 23 1
21 17 18 2
22 18 19 1
23 19 20 1
24 20 21 2
25 20 22 1
26 23 24 1
27 23 30 1
28 24 25 1
29 25 26 1
30 25 33 1
31 26 27 1
32 26 30 1
33 27 28 1
34 28 29 1
35 28 31 1
36 28 32 1
37 29 30 1
38 33 34 1
39 3 35 1
40 4 36 1
41 6 37 1
42 7 38 1
43 9 39 1
44 9 40 1
45 12 41 1
46 17 42 1
47 22 43 1
48 23 44 1
49 25 45 1
50 26 46 1
51 30 47 1
52 31 48 1
53 31 49 1
54 31 50 1
55 32 51 1
56 32 52 1
57 32 53 1
58 33 54 1
59 33 55 1
60 34 56 1
@<TRIPOS>SUBSTRUCTURE
1	UNK0	1	GROUP	1 ****	UNK
