# created with PyMOL 2.3.2
@<TRIPOS>MOLECULE
443
60 63 1                 
SMALL
USER_CHARGES
@<TRIPOS>ATOM
1	  Br	-2.521	4.947	-4.163	Br	1	UNK0	0.000	
2	   C	-2.243	4.368	-2.370	C.2	1	UNK0	0.000	
3	   C	-1.148	4.790	-1.653	C.2	1	UNK0	0.000	
4	   C	-0.980	4.346	-0.351	C.2	1	UNK0	0.000	
5	   C	-1.890	3.488	0.243	C.2	1	UNK0	0.000	
6	   C	-2.993	3.080	-0.520	C.2	1	UNK0	0.000	
7	   C	-3.154	3.514	-1.785	C.2	1	UNK0	0.000	
8	   O	-1.771	3.020	1.519	O.3	1	UNK0	0.000	
9	   C	-0.857	3.179	2.507	C.3	1	UNK0	0.000	
10	   C	0.531	2.701	2.295	C.3	1	UNK0	0.000	
11	   O	1.226	3.009	3.510	O.3	1	UNK0	0.000	
12	   C	0.646	1.211	2.106	C.3	1	UNK0	0.000	
13	   N	-0.065	0.665	1.002	N.pl3	1	UNK0	0.000	
14	   C	-1.322	0.124	1.120	C.2	1	UNK0	0.000	
15	   C	-1.733	-0.283	-0.125	C.2	1	UNK0	0.000	
16	   N	-0.754	0.002	-0.967	N.2	1	UNK0	0.000	
17	   C	0.299	0.595	-0.285	C.2	1	UNK0	0.000	
18	   N	1.478	1.018	-0.900	N.pl3	1	UNK0	0.000	
19	   C	2.640	1.664	-0.411	C.3	1	UNK0	0.000	
20	   C	3.896	0.957	-0.929	C.3	1	UNK0	0.000	
21	   N	3.471	-0.394	-1.293	N.3	1	UNK0	0.000	
22	   C	2.626	-0.353	-2.480	C.3	1	UNK0	0.000	
23	   C	1.584	0.754	-2.372	C.3	1	UNK0	0.000	
24	   C	4.683	-1.103	-1.658	C.3	1	UNK0	0.000	
25	   C	4.355	-2.532	-2.064	C.3	1	UNK0	0.000	
26	   O	5.588	-3.126	-2.395	O.3	1	UNK0	0.000	
27	   N	-2.932	-0.859	-0.287	N.pl3	1	UNK0	0.000	
28	   C	-3.740	-1.041	0.767	C.2	1	UNK0	0.000	
29	   O	-4.883	-1.589	0.614	O.2	1	UNK0	0.000	
30	   N	-3.394	-0.668	1.993	N.pl3	1	UNK0	0.000	
31	   C	-2.182	-0.083	2.175	C.2	1	UNK0	0.000	
32	   O	-1.917	0.243	3.353	O.2	1	UNK0	0.000	
33	   C	-3.408	-1.303	-1.580	C.3	1	UNK0	0.000	
34	   H	-0.451	5.455	-2.129	 H	1	UNK0	0.000	
35	   H	-0.113	4.703	0.209	 H	1	UNK0	0.000	
36	   H	-3.700	2.416	-0.062	 H	1	UNK0	0.000	
37	   H	-4.022	3.189	-2.376	 H	1	UNK0	0.000	
38	   H	-0.752	4.315	2.676	 H	1	UNK0	0.000	
39	   H	-1.289	2.859	3.488	 H	1	UNK0	0.000	
40	   H	1.064	3.279	1.541	 H	1	UNK0	0.000	
41	   H	0.587	2.983	4.264	 H	1	UNK0	0.000	
42	   H	1.694	0.839	2.235	 H	1	UNK0	0.000	
43	   H	0.206	0.808	3.095	 H	1	UNK0	0.000	
44	   H	2.728	1.920	0.628	 H	1	UNK0	0.000	
45	   H	2.680	2.693	-0.928	 H	1	UNK0	0.000	
46	   H	4.209	1.450	-1.867	 H	1	UNK0	0.000	
47	   H	4.716	0.952	-0.213	 H	1	UNK0	0.000	
48	   H	2.070	-1.307	-2.511	 H	1	UNK0	0.000	
49	   H	3.219	-0.252	-3.410	 H	1	UNK0	0.000	
50	   H	1.913	1.649	-2.900	 H	1	UNK0	0.000	
51	   H	0.641	0.416	-2.787	 H	1	UNK0	0.000	
52	   H	5.388	-1.181	-0.795	 H	1	UNK0	0.000	
53	   H	5.237	-0.580	-2.462	 H	1	UNK0	0.000	
54	   H	3.941	-3.111	-1.239	 H	1	UNK0	0.000	
55	   H	3.660	-2.527	-2.916	 H	1	UNK0	0.000	
56	   H	5.535	-3.366	-3.350	 H	1	UNK0	0.000	
57	   H	-4.019	-0.806	2.831	 H	1	UNK0	0.000	
58	   H	-4.118	-0.534	-1.989	 H	1	UNK0	0.000	
59	   H	-2.604	-1.548	-2.276	 H	1	UNK0	0.000	
60	   H	-4.056	-2.213	-1.414	 H	1	UNK0	0.000	
@<TRIPOS>BOND
1 1 2 1
2 2 3 2
3 2 7 1
4 3 4 1
5 4 5 2
6 5 6 1
7 5 8 1
8 6 7 2
9 8 9 1
10 9 10 1
11 10 11 1
12 10 12 1
13 12 13 1
14 13 14 1
15 13 17 1
16 14 15 2
17 14 31 1
18 15 16 1
19 15 27 1
20 16 17 2
21 17 18 1
22 18 19 1
23 18 23 1
24 19 20 1
25 20 21 1
26 21 22 1
27 21 24 1
28 22 23 1
29 24 25 1
30 25 26 1
31 27 28 1
32 27 33 1
33 28 29 2
34 28 30 1
35 30 31 1
36 31 32 2
37 3 34 1
38 4 35 1
39 6 36 1
40 7 37 1
41 9 38 1
42 9 39 1
43 10 40 1
44 11 41 1
45 12 42 1
46 12 43 1
47 19 44 1
48 19 45 1
49 20 46 1
50 20 47 1
51 22 48 1
52 22 49 1
53 23 50 1
54 23 51 1
55 24 52 1
56 24 53 1
57 25 54 1
58 25 55 1
59 26 56 1
60 30 57 1
61 33 58 1
62 33 59 1
63 33 60 1
@<TRIPOS>SUBSTRUCTURE
1	UNK0	1	GROUP	1 ****	UNK
