# created with PyMOL 2.3.2
@<TRIPOS>MOLECULE
445
48 51 1                 
SMALL
USER_CHARGES
@<TRIPOS>ATOM
1	  Br	-1.858	-0.139	8.976	Br	1	UNK0	0.000	
2	   C	-1.633	0.449	7.183	C.2	1	UNK0	0.000	
3	   C	-1.523	1.799	6.909	C.2	1	UNK0	0.000	
4	   C	-1.362	2.233	5.627	C.2	1	UNK0	0.000	
5	   C	-1.299	1.336	4.523	C.2	1	UNK0	0.000	
6	   C	-1.412	-0.009	4.836	C.2	1	UNK0	0.000	
7	   C	-1.575	-0.442	6.133	C.2	1	UNK0	0.000	
8	   O	-1.141	1.805	3.311	O.3	1	UNK0	0.000	
9	   C	-1.024	1.663	2.015	C.3	1	UNK0	0.000	
10	   C	-2.139	1.099	1.187	C.3	1	UNK0	0.000	
11	   O	-3.315	1.828	1.321	O.3	1	UNK0	0.000	
12	   C	-2.392	-0.351	1.339	C.3	1	UNK0	0.000	
13	   N	-1.230	-1.155	0.981	N.pl3	1	UNK0	0.000	
14	   N	-0.227	-1.589	1.692	N.2	1	UNK0	0.000	
15	   N	0.600	-2.285	0.940	N.2	1	UNK0	0.000	
16	   C	0.099	-2.304	-0.351	C.2	1	UNK0	0.000	
17	   N	-1.016	-1.596	-0.247	N.2	1	UNK0	0.000	
18	   C	0.711	-2.979	-1.486	C.3	1	UNK0	0.000	
19	   C	0.031	-2.840	-2.790	C.3	1	UNK0	0.000	
20	   N	-0.100	-1.515	-3.335	N.pl3	1	UNK0	0.000	
21	   C	-1.137	-0.565	-3.299	C.2	1	UNK0	0.000	
22	   O	-2.264	-0.683	-2.780	O.2	1	UNK0	0.000	
23	   C	-0.674	0.652	-4.005	C.2	1	UNK0	0.000	
24	   C	0.606	0.444	-4.457	C.2	1	UNK0	0.000	
25	   C	1.282	1.444	-5.161	C.2	1	UNK0	0.000	
26	   C	0.672	2.660	-5.415	C.2	1	UNK0	0.000	
27	   C	-0.615	2.879	-4.965	C.2	1	UNK0	0.000	
28	   C	-1.253	1.876	-4.275	C.2	1	UNK0	0.000	
29	   C	0.981	-0.889	-4.054	C.2	1	UNK0	0.000	
30	   O	2.105	-1.399	-4.314	O.2	1	UNK0	0.000	
31	   H	-1.565	2.534	7.724	 H	1	UNK0	0.000	
32	   H	-1.272	3.285	5.378	 H	1	UNK0	0.000	
33	   H	-1.355	-0.730	4.047	 H	1	UNK0	0.000	
34	   H	-1.665	-1.498	6.384	 H	1	UNK0	0.000	
35	   H	-0.743	2.686	1.553	 H	1	UNK0	0.000	
36	   H	-0.066	1.084	1.761	 H	1	UNK0	0.000	
37	   H	-1.856	1.240	0.082	 H	1	UNK0	0.000	
38	   H	-3.783	1.977	0.460	 H	1	UNK0	0.000	
39	   H	-2.812	-0.613	2.315	 H	1	UNK0	0.000	
40	   H	-3.236	-0.599	0.593	 H	1	UNK0	0.000	
41	   H	1.785	-2.625	-1.615	 H	1	UNK0	0.000	
42	   H	0.770	-4.100	-1.285	 H	1	UNK0	0.000	
43	   H	0.597	-3.436	-3.551	 H	1	UNK0	0.000	
44	   H	-0.977	-3.340	-2.735	 H	1	UNK0	0.000	
45	   H	2.290	1.263	-5.509	 H	1	UNK0	0.000	
46	   H	1.195	3.434	-5.960	 H	1	UNK0	0.000	
47	   H	-1.132	3.816	-5.141	 H	1	UNK0	0.000	
48	   H	-2.259	2.029	-3.916	 H	1	UNK0	0.000	
@<TRIPOS>BOND
1 1 2 1
2 2 3 2
3 2 7 1
4 3 4 1
5 4 5 2
6 5 6 1
7 5 8 1
8 6 7 2
9 8 9 1
10 9 10 1
11 10 11 1
12 10 12 1
13 12 13 1
14 13 14 1
15 13 17 1
16 14 15 2
17 15 16 1
18 16 17 2
19 16 18 1
20 18 19 1
21 19 20 1
22 20 21 1
23 20 29 1
24 21 22 2
25 21 23 1
26 23 24 2
27 23 28 1
28 24 25 1
29 24 29 1
30 25 26 2
31 26 27 1
32 27 28 2
33 29 30 2
34 3 31 1
35 4 32 1
36 6 33 1
37 7 34 1
38 9 35 1
39 9 36 1
40 10 37 1
41 11 38 1
42 12 39 1
43 12 40 1
44 18 41 1
45 18 42 1
46 19 43 1
47 19 44 1
48 25 45 1
49 26 46 1
50 27 47 1
51 28 48 1
@<TRIPOS>SUBSTRUCTURE
1	UNK0	1	GROUP	1 ****	UNK
