# created with PyMOL 2.3.2
@<TRIPOS>MOLECULE
446
40 43 1                 
SMALL
USER_CHARGES
@<TRIPOS>ATOM
1	  Br	3.646	3.098	4.117	Br	1	UNK0	0.000	
2	   C	3.262	2.890	2.253	C.2	1	UNK0	0.000	
3	   C	2.897	3.973	1.480	C.2	1	UNK0	0.000	
4	   C	2.612	3.862	0.131	C.2	1	UNK0	0.000	
5	   C	2.705	2.601	-0.451	C.2	1	UNK0	0.000	
6	   C	3.063	1.494	0.269	C.2	1	UNK0	0.000	
7	   C	3.341	1.659	1.633	C.2	1	UNK0	0.000	
8	   C	3.157	0.141	-0.301	C.3	1	UNK0	0.000	
9	   N	1.836	-0.441	-0.418	N.pl3	1	UNK0	0.000	
10	   C	1.059	-0.363	-1.509	C.2	1	UNK0	0.000	
11	   C	-0.216	-0.927	-1.569	C.2	1	UNK0	0.000	
12	   C	-0.719	-1.630	-0.398	C.2	1	UNK0	0.000	
13	   N	-1.947	-2.062	-0.732	N.2	1	UNK0	0.000	
14	   N	-2.260	-1.709	-1.971	N.pl3	1	UNK0	0.000	
15	   C	-1.219	-1.013	-2.508	C.2	1	UNK0	0.000	
16	   O	-1.172	-0.529	-3.660	O.2	1	UNK0	0.000	
17	   C	0.102	-1.693	0.705	C.2	1	UNK0	0.000	
18	   C	1.324	-1.110	0.659	C.2	1	UNK0	0.000	
19	   C	-0.379	-2.398	1.904	C.2	1	UNK0	0.000	
20	   O	-1.506	-2.928	1.927	O.co2	1	UNK0	0.000	
21	   O	0.408	-2.495	3.046	O.3	1	UNK0	0.000	
22	   C	-0.094	-3.181	4.173	C.3	1	UNK0	0.000	
23	   O	2.417	2.535	-1.794	O.3	1	UNK0	0.000	
24	   C	2.393	3.737	-2.544	C.3	1	UNK0	0.000	
25	   O	1.674	4.727	-1.879	O.3	1	UNK0	0.000	
26	   C	2.224	5.047	-0.669	C.3	1	UNK0	0.000	
27	   H	2.833	4.942	1.959	 H	1	UNK0	0.000	
28	   H	3.625	0.809	2.225	 H	1	UNK0	0.000	
29	   H	3.599	0.198	-1.321	 H	1	UNK0	0.000	
30	   H	3.826	-0.518	0.294	 H	1	UNK0	0.000	
31	   H	1.419	0.143	-2.393	 H	1	UNK0	0.000	
32	   H	-3.175	-1.959	-2.401	 H	1	UNK0	0.000	
33	   H	1.973	-1.163	1.537	 H	1	UNK0	0.000	
34	   H	0.693	-3.772	4.686	 H	1	UNK0	0.000	
35	   H	-0.922	-3.885	3.877	 H	1	UNK0	0.000	
36	   H	-0.495	-2.463	4.899	 H	1	UNK0	0.000	
37	   H	3.446	4.049	-2.761	 H	1	UNK0	0.000	
38	   H	1.872	3.552	-3.501	 H	1	UNK0	0.000	
39	   H	3.136	5.704	-0.776	 H	1	UNK0	0.000	
40	   H	1.500	5.649	-0.078	 H	1	UNK0	0.000	
@<TRIPOS>BOND
1 1 2 1
2 2 3 2
3 2 7 1
4 3 4 1
5 4 5 2
6 4 26 1
7 5 6 1
8 5 23 1
9 6 7 2
10 6 8 1
11 8 9 1
12 9 10 1
13 9 18 1
14 10 11 2
15 11 12 1
16 11 15 1
17 12 13 2
18 12 17 1
19 13 14 1
20 14 15 1
21 15 16 2
22 17 18 2
23 17 19 1
24 19 20 2
25 19 21 1
26 21 22 1
27 23 24 1
28 24 25 1
29 25 26 1
30 3 27 1
31 7 28 1
32 8 29 1
33 8 30 1
34 10 31 1
35 14 32 1
36 18 33 1
37 22 34 1
38 22 35 1
39 22 36 1
40 24 37 1
41 24 38 1
42 26 39 1
43 26 40 1
@<TRIPOS>SUBSTRUCTURE
1	UNK0	1	GROUP	1 ****	UNK
