# created with PyMOL 2.3.2
@<TRIPOS>MOLECULE
451
53 56 1                 
SMALL
USER_CHARGES
@<TRIPOS>ATOM
1	  Br	6.346	-2.615	1.100	Br	1	UNK0	0.000	
2	   C	4.753	-1.556	1.007	C.2	1	UNK0	0.000	
3	   C	3.518	-2.154	0.978	C.2	1	UNK0	0.000	
4	   C	2.341	-1.410	0.918	C.2	1	UNK0	0.000	
5	   C	2.478	-0.014	0.883	C.2	1	UNK0	0.000	
6	   C	3.698	0.586	0.910	C.2	1	UNK0	0.000	
7	   C	4.849	-0.164	0.974	C.2	1	UNK0	0.000	
8	   N	3.753	2.023	0.961	N.pl3	1	UNK0	0.000	
9	   O	2.710	2.676	1.131	O.2	1	UNK0	0.000	
10	   O	4.904	2.707	0.762	O.2	1	UNK0	0.000	
11	   O	1.286	0.706	0.821	O.3	1	UNK0	0.000	
12	   C	0.149	0.067	1.231	C.3	1	UNK0	0.000	
13	   C	-0.159	-1.154	0.400	C.3	1	UNK0	0.000	
14	   C	1.054	-2.037	1.011	C.2	1	UNK0	0.000	
15	   O	0.851	-3.121	1.497	O.2	1	UNK0	0.000	
16	   C	-1.379	-1.864	0.906	C.3	1	UNK0	0.000	
17	   N	-2.530	-1.042	0.963	N.3	1	UNK0	0.000	
18	   C	-3.593	-1.579	1.799	C.3	1	UNK0	0.000	
19	   C	-4.622	-0.449	1.883	C.3	1	UNK0	0.000	
20	   O	-4.106	0.759	1.402	O.3	1	UNK0	0.000	
21	   C	-3.798	0.718	0.044	C.3	1	UNK0	0.000	
22	   C	-3.150	-0.649	-0.261	C.3	1	UNK0	0.000	
23	   C	0.158	-1.255	-1.015	C.3	1	UNK0	0.000	
24	   N	1.563	-1.455	-1.373	N.3	1	UNK0	0.000	
25	   C	1.906	-0.815	-2.596	C.3	1	UNK0	0.000	
26	   C	1.241	-1.247	-3.839	C.3	1	UNK0	0.000	
27	   O	0.374	-2.329	-3.640	O.3	1	UNK0	0.000	
28	   C	1.103	-3.316	-3.005	C.3	1	UNK0	0.000	
29	   C	1.655	-2.937	-1.676	C.3	1	UNK0	0.000	
30	   H	3.395	-3.231	0.979	 H	1	UNK0	0.000	
31	   H	5.819	0.273	0.995	 H	1	UNK0	0.000	
32	   H	-0.765	0.746	1.238	 H	1	UNK0	0.000	
33	   H	0.246	-0.297	2.283	 H	1	UNK0	0.000	
34	   H	-1.537	-2.700	0.110	 H	1	UNK0	0.000	
35	   H	-1.209	-2.419	1.838	 H	1	UNK0	0.000	
36	   H	-4.078	-2.468	1.424	 H	1	UNK0	0.000	
37	   H	-3.204	-1.810	2.822	 H	1	UNK0	0.000	
38	   H	-5.585	-0.724	1.425	 H	1	UNK0	0.000	
39	   H	-4.807	-0.251	2.978	 H	1	UNK0	0.000	
40	   H	-2.953	1.449	-0.128	 H	1	UNK0	0.000	
41	   H	-4.631	0.945	-0.618	 H	1	UNK0	0.000	
42	   H	-4.043	-1.307	-0.491	 H	1	UNK0	0.000	
43	   H	-2.483	-0.514	-1.106	 H	1	UNK0	0.000	
44	   H	-0.102	-0.218	-1.488	 H	1	UNK0	0.000	
45	   H	-0.439	-2.024	-1.517	 H	1	UNK0	0.000	
46	   H	1.750	0.280	-2.461	 H	1	UNK0	0.000	
47	   H	3.030	-0.928	-2.763	 H	1	UNK0	0.000	
48	   H	0.659	-0.444	-4.322	 H	1	UNK0	0.000	
49	   H	1.974	-1.624	-4.618	 H	1	UNK0	0.000	
50	   H	0.373	-4.190	-2.908	 H	1	UNK0	0.000	
51	   H	1.887	-3.752	-3.685	 H	1	UNK0	0.000	
52	   H	1.075	-3.497	-0.928	 H	1	UNK0	0.000	
53	   H	2.713	-3.211	-1.551	 H	1	UNK0	0.000	
@<TRIPOS>BOND
1 1 2 1
2 2 3 2
3 2 7 1
4 3 4 1
5 4 5 2
6 4 14 1
7 5 6 1
8 5 11 1
9 6 7 2
10 6 8 1
11 8 9 2
12 8 10 1
13 11 12 1
14 12 13 1
15 13 14 1
16 13 16 1
17 13 23 1
18 14 15 2
19 16 17 1
20 17 18 1
21 17 22 1
22 18 19 1
23 19 20 1
24 20 21 1
25 21 22 1
26 23 24 1
27 24 25 1
28 24 29 1
29 25 26 1
30 26 27 1
31 27 28 1
32 28 29 1
33 3 30 1
34 7 31 1
35 12 32 1
36 12 33 1
37 16 34 1
38 16 35 1
39 18 36 1
40 18 37 1
41 19 38 1
42 19 39 1
43 21 40 1
44 21 41 1
45 22 42 1
46 22 43 1
47 23 44 1
48 23 45 1
49 25 46 1
50 25 47 1
51 26 48 1
52 26 49 1
53 28 50 1
54 28 51 1
55 29 52 1
56 29 53 1
@<TRIPOS>SUBSTRUCTURE
1	UNK0	1	GROUP	1 ****	UNK
