# created with PyMOL 2.3.2
@<TRIPOS>MOLECULE
452
33 36 1                 
SMALL
USER_CHARGES
@<TRIPOS>ATOM
1	  Br	-5.863	3.575	2.424	Br	1	UNK0	0.000	
2	   C	-4.002	3.273	2.234	C.2	1	UNK0	0.000	
3	   C	-3.531	2.114	1.638	C.2	1	UNK0	0.000	
4	   C	-2.178	1.902	1.503	C.2	1	UNK0	0.000	
5	   C	-1.329	2.878	1.979	C.2	1	UNK0	0.000	
6	   C	-1.790	4.053	2.582	C.2	1	UNK0	0.000	
7	   C	-3.138	4.239	2.704	C.2	1	UNK0	0.000	
8	   O	-0.892	5.004	3.044	O.3	1	UNK0	0.000	
9	   C	-1.395	6.171	3.644	C.3	1	UNK0	0.000	
10	   O	-0.042	2.676	1.850	O.3	1	UNK0	0.000	
11	   C	0.470	1.594	1.293	C.2	1	UNK0	0.000	
12	   O	1.725	1.474	1.206	O.co2	1	UNK0	0.000	
13	   C	-0.317	0.578	0.796	C.2	1	UNK0	0.000	
14	   C	-1.682	0.740	0.906	C.2	1	UNK0	0.000	
15	   C	0.260	-0.616	0.181	C.2	1	UNK0	0.000	
16	   N	1.556	-0.923	-0.001	N.2	1	UNK0	0.000	
17	   C	1.686	-2.116	-0.607	C.2	1	UNK0	0.000	
18	   N	0.404	-2.532	-0.790	N.2	1	UNK0	0.000	
19	   O	-0.409	-1.625	-0.315	O.3	1	UNK0	0.000	
20	   C	2.890	-2.833	-0.993	C.2	1	UNK0	0.000	
21	   N	4.145	-2.400	-0.801	N.2	1	UNK0	0.000	
22	   O	4.991	-3.293	-1.269	O.3	1	UNK0	0.000	
23	   N	4.323	-4.284	-1.756	N.2	1	UNK0	0.000	
24	   C	2.997	-4.055	-1.613	C.2	1	UNK0	0.000	
25	   N	1.928	-4.902	-2.019	N.pl3	1	UNK0	0.000	
26	   H	-4.189	1.351	1.266	 H	1	UNK0	0.000	
27	   H	-3.537	5.150	3.172	 H	1	UNK0	0.000	
28	   H	-1.958	6.753	2.857	 H	1	UNK0	0.000	
29	   H	-2.154	5.941	4.446	 H	1	UNK0	0.000	
30	   H	-0.624	6.846	4.020	 H	1	UNK0	0.000	
31	   H	-2.353	-0.012	0.540	 H	1	UNK0	0.000	
32	   H	1.391	-5.475	-1.347	 H	1	UNK0	0.000	
33	   H	1.651	-4.968	-3.033	 H	1	UNK0	0.000	
@<TRIPOS>BOND
1 1 2 1
2 2 3 2
3 2 7 1
4 3 4 1
5 4 5 2
6 4 14 1
7 5 6 1
8 5 10 1
9 6 7 2
10 6 8 1
11 8 9 1
12 10 11 1
13 11 12 2
14 11 13 1
15 13 14 2
16 13 15 1
17 15 16 2
18 15 19 1
19 16 17 1
20 17 18 2
21 17 20 1
22 18 19 1
23 20 21 2
24 20 24 1
25 21 22 1
26 22 23 1
27 23 24 2
28 24 25 1
29 3 26 1
30 7 27 1
31 9 28 1
32 9 29 1
33 9 30 1
34 14 31 1
35 25 32 1
36 25 33 1
@<TRIPOS>SUBSTRUCTURE
1	UNK0	1	GROUP	1 ****	UNK
