# created with PyMOL 2.3.2
@<TRIPOS>MOLECULE
456
46 49 1                 
SMALL
USER_CHARGES
@<TRIPOS>ATOM
1	  Br	-1.250	2.244	3.822	Br	1	UNK0	0.000	
2	   C	-1.782	1.508	2.190	C.2	1	UNK0	0.000	
3	   C	-3.029	1.764	1.594	C.2	1	UNK0	0.000	
4	   C	-3.387	1.196	0.383	C.2	1	UNK0	0.000	
5	   C	-2.481	0.327	-0.246	C.2	1	UNK0	0.000	
6	   C	-1.270	0.102	0.362	C.2	1	UNK0	0.000	
7	   C	-0.909	0.660	1.515	C.2	1	UNK0	0.000	
8	   C	0.480	0.542	2.089	C.3	1	UNK0	0.000	
9	   N	1.281	1.231	1.181	N.3	1	UNK0	0.000	
10	   C	2.654	1.373	1.219	C.3	1	UNK0	0.000	
11	   C	3.260	0.484	0.114	C.3	1	UNK0	0.000	
12	   N	2.245	0.089	-0.796	N.3	1	UNK0	0.000	
13	   C	1.395	1.125	-1.223	C.3	1	UNK0	0.000	
14	   C	0.756	1.826	-0.008	C.3	1	UNK0	0.000	
15	   C	2.592	-0.872	-1.734	C.3	1	UNK0	0.000	
16	   C	2.638	-2.292	-1.337	C.2	1	UNK0	0.000	
17	   O	3.096	-3.058	-2.279	O.2	1	UNK0	0.000	
18	   N	2.240	-2.853	-0.113	N.pl3	1	UNK0	0.000	
19	   C	2.370	-4.300	0.055	C.3	1	UNK0	0.000	
20	   C	1.276	-5.107	0.566	C.3	1	UNK0	0.000	
21	   C	1.359	-5.024	-0.904	C.3	1	UNK0	0.000	
22	   O	-3.128	-0.088	-1.427	O.3	1	UNK0	0.000	
23	   C	-3.962	1.078	-1.785	C.3	1	UNK0	0.000	
24	   O	-4.516	1.301	-0.452	O.3	1	UNK0	0.000	
25	   H	-3.697	2.467	2.073	 H	1	UNK0	0.000	
26	   H	-0.549	-0.568	-0.112	 H	1	UNK0	0.000	
27	   H	0.739	-0.572	2.131	 H	1	UNK0	0.000	
28	   H	0.502	0.894	3.099	 H	1	UNK0	0.000	
29	   H	3.092	1.304	2.184	 H	1	UNK0	0.000	
30	   H	2.868	2.443	0.853	 H	1	UNK0	0.000	
31	   H	3.693	-0.365	0.649	 H	1	UNK0	0.000	
32	   H	4.074	1.088	-0.403	 H	1	UNK0	0.000	
33	   H	1.826	1.832	-1.945	 H	1	UNK0	0.000	
34	   H	0.538	0.646	-1.780	 H	1	UNK0	0.000	
35	   H	1.274	2.853	-0.052	 H	1	UNK0	0.000	
36	   H	-0.281	2.063	-0.091	 H	1	UNK0	0.000	
37	   H	1.932	-0.842	-2.648	 H	1	UNK0	0.000	
38	   H	3.616	-0.646	-2.162	 H	1	UNK0	0.000	
39	   H	1.881	-2.290	0.654	 H	1	UNK0	0.000	
40	   H	3.396	-4.709	-0.136	 H	1	UNK0	0.000	
41	   H	1.462	-6.109	0.992	 H	1	UNK0	0.000	
42	   H	0.374	-4.646	1.034	 H	1	UNK0	0.000	
43	   H	1.833	-5.828	-1.510	 H	1	UNK0	0.000	
44	   H	0.711	-4.384	-1.473	 H	1	UNK0	0.000	
45	   H	-4.692	0.889	-2.525	 H	1	UNK0	0.000	
46	   H	-3.213	1.888	-1.978	 H	1	UNK0	0.000	
@<TRIPOS>BOND
1 1 2 1
2 2 3 2
3 2 7 1
4 3 4 1
5 4 5 2
6 4 24 1
7 5 6 1
8 5 22 1
9 6 7 2
10 7 8 1
11 8 9 1
12 9 10 1
13 9 14 1
14 10 11 1
15 11 12 1
16 12 13 1
17 12 15 1
18 13 14 1
19 15 16 1
20 16 17 2
21 16 18 1
22 18 19 1
23 19 20 1
24 19 21 1
25 20 21 1
26 22 23 1
27 23 24 1
28 3 25 1
29 6 26 1
30 8 27 1
31 8 28 1
32 10 29 1
33 10 30 1
34 11 31 1
35 11 32 1
36 13 33 1
37 13 34 1
38 14 35 1
39 14 36 1
40 15 37 1
41 15 38 1
42 18 39 1
43 19 40 1
44 20 41 1
45 20 42 1
46 21 43 1
47 21 44 1
48 23 45 1
49 23 46 1
@<TRIPOS>SUBSTRUCTURE
1	UNK0	1	GROUP	1 ****	UNK
