# created with PyMOL 2.3.2
@<TRIPOS>MOLECULE
457
43 46 1                 
SMALL
USER_CHARGES
@<TRIPOS>ATOM
1	  Br	0.174	-3.077	-2.407	Br	1	UNK0	0.000	
2	   C	-0.496	-1.230	-2.209	C.2	1	UNK0	0.000	
3	   C	-1.518	-0.822	-2.987	C.2	1	UNK0	0.000	
4	   C	-1.942	0.504	-2.911	C.2	1	UNK0	0.000	
5	   C	-1.340	1.389	-2.073	C.2	1	UNK0	0.000	
6	   C	-0.295	0.932	-1.279	C.2	1	UNK0	0.000	
7	   C	0.140	-0.373	-1.328	C.2	1	UNK0	0.000	
8	   C	1.172	-0.929	-0.462	C.3	1	UNK0	0.000	
9	   N	0.836	-0.945	0.893	N.3	1	UNK0	0.000	
10	   C	0.619	0.063	1.786	C.3	1	UNK0	0.000	
11	   C	-0.800	0.572	1.921	C.3	1	UNK0	0.000	
12	   N	-1.794	-0.460	2.028	N.3	1	UNK0	0.000	
13	   C	-1.513	-1.640	1.300	C.3	1	UNK0	0.000	
14	   C	-0.108	-2.035	1.174	C.3	1	UNK0	0.000	
15	   C	-2.235	-2.740	2.088	C.3	1	UNK0	0.000	
16	   C	-2.183	-2.268	3.513	C.3	1	UNK0	0.000	
17	   C	-2.242	-0.766	3.344	C.3	1	UNK0	0.000	
18	   O	-0.994	-2.629	4.134	O.3	1	UNK0	0.000	
19	   C	1.598	1.169	1.977	C.3	1	UNK0	0.000	
20	   O	-2.027	2.579	-2.299	O.3	1	UNK0	0.000	
21	   C	-3.293	2.323	-2.882	C.3	1	UNK0	0.000	
22	   O	-2.990	1.123	-3.629	O.3	1	UNK0	0.000	
23	   H	-2.009	-1.539	-3.621	 H	1	UNK0	0.000	
24	   H	0.214	1.673	-0.661	 H	1	UNK0	0.000	
25	   H	1.552	-1.886	-0.797	 H	1	UNK0	0.000	
26	   H	2.072	-0.237	-0.612	 H	1	UNK0	0.000	
27	   H	0.705	-0.502	2.824	 H	1	UNK0	0.000	
28	   H	-0.816	1.098	2.924	 H	1	UNK0	0.000	
29	   H	-1.103	1.347	1.231	 H	1	UNK0	0.000	
30	   H	-2.072	-1.621	0.319	 H	1	UNK0	0.000	
31	   H	0.240	-2.434	2.145	 H	1	UNK0	0.000	
32	   H	-0.022	-2.834	0.461	 H	1	UNK0	0.000	
33	   H	-3.311	-2.806	1.816	 H	1	UNK0	0.000	
34	   H	-1.809	-3.732	1.942	 H	1	UNK0	0.000	
35	   H	-3.050	-2.679	4.062	 H	1	UNK0	0.000	
36	   H	-1.714	-0.266	4.159	 H	1	UNK0	0.000	
37	   H	-3.329	-0.497	3.465	 H	1	UNK0	0.000	
38	   H	-0.949	-2.206	5.007	 H	1	UNK0	0.000	
39	   H	1.051	2.073	2.289	 H	1	UNK0	0.000	
40	   H	2.349	0.959	2.786	 H	1	UNK0	0.000	
41	   H	2.185	1.416	1.072	 H	1	UNK0	0.000	
42	   H	-3.583	3.160	-3.533	 H	1	UNK0	0.000	
43	   H	-3.955	2.066	-2.066	 H	1	UNK0	0.000	
@<TRIPOS>BOND
1 1 2 1
2 2 3 2
3 2 7 1
4 3 4 1
5 4 5 2
6 4 22 1
7 5 6 1
8 5 20 1
9 6 7 2
10 7 8 1
11 8 9 1
12 9 10 1
13 9 14 1
14 10 11 1
15 10 19 1
16 11 12 1
17 12 13 1
18 12 17 1
19 13 14 1
20 13 15 1
21 15 16 1
22 16 17 1
23 16 18 1
24 20 21 1
25 21 22 1
26 3 23 1
27 6 24 1
28 8 25 1
29 8 26 1
30 10 27 1
31 11 28 1
32 11 29 1
33 13 30 1
34 14 31 1
35 14 32 1
36 15 33 1
37 15 34 1
38 16 35 1
39 17 36 1
40 17 37 1
41 18 38 1
42 19 39 1
43 19 40 1
44 19 41 1
45 21 42 1
46 21 43 1
@<TRIPOS>SUBSTRUCTURE
1	UNK0	1	GROUP	1 ****	UNK
