# created with PyMOL 2.3.2
@<TRIPOS>MOLECULE
458
43 46 1                 
SMALL
USER_CHARGES
@<TRIPOS>ATOM
1	  Br	2.352	3.885	-1.862	Br	1	UNK0	0.000	
2	   C	0.940	3.364	-0.691	C.2	1	UNK0	0.000	
3	   C	0.618	4.107	0.458	C.2	1	UNK0	0.000	
4	   C	-0.427	3.701	1.263	C.2	1	UNK0	0.000	
5	   C	-1.179	2.561	0.940	C.2	1	UNK0	0.000	
6	   C	-0.825	1.884	-0.192	C.2	1	UNK0	0.000	
7	   C	0.208	2.249	-0.998	C.2	1	UNK0	0.000	
8	   C	0.695	1.370	-2.150	C.3	1	UNK0	0.000	
9	   N	1.210	0.220	-1.539	N.3	1	UNK0	0.000	
10	   C	1.903	-0.733	-2.273	C.3	1	UNK0	0.000	
11	   C	1.276	-2.123	-2.033	C.3	1	UNK0	0.000	
12	   N	-0.113	-1.865	-1.798	N.3	1	UNK0	0.000	
13	   C	-0.279	-1.338	-0.448	C.3	1	UNK0	0.000	
14	   C	0.785	-0.277	-0.300	C.3	1	UNK0	0.000	
15	   C	-0.180	-2.521	0.434	C.3	1	UNK0	0.000	
16	   C	-1.103	-3.478	-0.343	C.3	1	UNK0	0.000	
17	   C	-0.972	-3.001	-1.779	C.3	1	UNK0	0.000	
18	   O	-2.418	-3.304	0.099	O.3	1	UNK0	0.000	
19	   C	1.960	-0.476	-3.737	C.3	1	UNK0	0.000	
20	   O	-2.170	2.405	1.955	O.3	1	UNK0	0.000	
21	   C	-1.431	2.892	3.127	C.3	1	UNK0	0.000	
22	   O	-1.010	4.131	2.457	O.3	1	UNK0	0.000	
23	   H	1.194	4.970	0.696	 H	1	UNK0	0.000	
24	   H	-1.483	1.086	-0.515	 H	1	UNK0	0.000	
25	   H	1.324	1.877	-2.825	 H	1	UNK0	0.000	
26	   H	-0.326	1.115	-2.646	 H	1	UNK0	0.000	
27	   H	2.976	-0.788	-1.900	 H	1	UNK0	0.000	
28	   H	1.795	-2.511	-1.108	 H	1	UNK0	0.000	
29	   H	1.520	-2.812	-2.824	 H	1	UNK0	0.000	
30	   H	-1.315	-0.992	-0.387	 H	1	UNK0	0.000	
31	   H	1.700	-0.903	0.081	 H	1	UNK0	0.000	
32	   H	0.656	0.413	0.527	 H	1	UNK0	0.000	
33	   H	-0.747	-2.287	1.389	 H	1	UNK0	0.000	
34	   H	0.809	-2.911	0.629	 H	1	UNK0	0.000	
35	   H	-0.792	-4.512	-0.273	 H	1	UNK0	0.000	
36	   H	-0.680	-3.778	-2.487	 H	1	UNK0	0.000	
37	   H	-1.989	-2.606	-2.091	 H	1	UNK0	0.000	
38	   H	-2.741	-2.387	-0.108	 H	1	UNK0	0.000	
39	   H	0.920	-0.283	-4.117	 H	1	UNK0	0.000	
40	   H	2.629	0.395	-3.983	 H	1	UNK0	0.000	
41	   H	2.346	-1.372	-4.229	 H	1	UNK0	0.000	
42	   H	-2.021	3.025	3.988	 H	1	UNK0	0.000	
43	   H	-0.506	2.280	3.181	 H	1	UNK0	0.000	
@<TRIPOS>BOND
1 1 2 1
2 2 3 2
3 2 7 1
4 3 4 1
5 4 5 2
6 4 22 1
7 5 6 1
8 5 20 1
9 6 7 2
10 7 8 1
11 8 9 1
12 9 10 1
13 9 14 1
14 10 11 1
15 10 19 1
16 11 12 1
17 12 13 1
18 12 17 1
19 13 14 1
20 13 15 1
21 15 16 1
22 16 17 1
23 16 18 1
24 20 21 1
25 21 22 1
26 3 23 1
27 6 24 1
28 8 25 1
29 8 26 1
30 10 27 1
31 11 28 1
32 11 29 1
33 13 30 1
34 14 31 1
35 14 32 1
36 15 33 1
37 15 34 1
38 16 35 1
39 17 36 1
40 17 37 1
41 18 38 1
42 19 39 1
43 19 40 1
44 19 41 1
45 21 42 1
46 21 43 1
@<TRIPOS>SUBSTRUCTURE
1	UNK0	1	GROUP	1 ****	UNK
