# created with PyMOL 2.3.2
@<TRIPOS>MOLECULE
466
53 57 1                 
SMALL
USER_CHARGES
@<TRIPOS>ATOM
1	  Br	-3.984	0.202	0.283	Br	1	UNK0	0.000	
2	   C	-3.962	-0.550	-1.462	C.2	1	UNK0	0.000	
3	   C	-5.009	-1.370	-1.809	C.2	1	UNK0	0.000	
4	   C	-5.024	-1.946	-3.085	C.2	1	UNK0	0.000	
5	   C	-3.977	-1.668	-3.952	C.2	1	UNK0	0.000	
6	   C	-2.945	-0.833	-3.547	C.2	1	UNK0	0.000	
7	   C	-2.917	-0.260	-2.301	C.2	1	UNK0	0.000	
8	   C	-1.852	0.585	-1.879	C.2	1	UNK0	0.000	
9	   N	-0.831	0.929	-2.559	N.2	1	UNK0	0.000	
10	   N	0.154	1.764	-2.029	N.pl3	1	UNK0	0.000	
11	   C	0.904	1.315	-0.920	C.2	1	UNK0	0.000	
12	   N	1.901	0.391	-1.066	N.2	1	UNK0	0.000	
13	   C	2.621	-0.072	-0.060	C.2	1	UNK0	0.000	
14	   N	2.363	0.384	1.157	N.2	1	UNK0	0.000	
15	   C	1.394	1.298	1.388	C.2	1	UNK0	0.000	
16	   N	0.676	1.749	0.330	N.2	1	UNK0	0.000	
17	   N	1.138	1.751	2.678	N.pl3	1	UNK0	0.000	
18	   C	1.867	1.257	3.812	C.3	1	UNK0	0.000	
19	   C	1.139	1.512	5.106	C.3	1	UNK0	0.000	
20	   O	-0.183	1.728	5.061	O.3	1	UNK0	0.000	
21	   C	-0.831	2.081	3.936	C.3	1	UNK0	0.000	
22	   C	0.106	2.743	2.956	C.3	1	UNK0	0.000	
23	   N	3.647	-1.077	-0.298	N.pl3	1	UNK0	0.000	
24	   C	4.038	-1.284	-1.666	C.3	1	UNK0	0.000	
25	   C	5.478	-1.707	-1.731	C.3	1	UNK0	0.000	
26	   O	5.696	-2.744	-0.824	O.3	1	UNK0	0.000	
27	   C	5.594	-2.279	0.483	C.3	1	UNK0	0.000	
28	   C	4.196	-1.825	0.771	C.3	1	UNK0	0.000	
29	   O	-4.295	-2.383	-5.107	O.3	1	UNK0	0.000	
30	   C	-5.135	-3.491	-4.716	C.3	1	UNK0	0.000	
31	   O	-5.919	-2.799	-3.726	O.3	1	UNK0	0.000	
32	   H	-5.810	-1.570	-1.116	 H	1	UNK0	0.000	
33	   H	-2.171	-0.669	-4.286	 H	1	UNK0	0.000	
34	   H	-1.893	1.005	-0.857	 H	1	UNK0	0.000	
35	   H	0.334	2.684	-2.438	 H	1	UNK0	0.000	
36	   H	2.205	0.204	3.693	 H	1	UNK0	0.000	
37	   H	2.821	1.866	3.863	 H	1	UNK0	0.000	
38	   H	1.327	0.585	5.732	 H	1	UNK0	0.000	
39	   H	1.603	2.342	5.715	 H	1	UNK0	0.000	
40	   H	-1.431	1.277	3.460	 H	1	UNK0	0.000	
41	   H	-1.590	2.862	4.217	 H	1	UNK0	0.000	
42	   H	0.571	3.602	3.499	 H	1	UNK0	0.000	
43	   H	-0.424	3.102	2.075	 H	1	UNK0	0.000	
44	   H	3.382	-2.074	-2.123	 H	1	UNK0	0.000	
45	   H	3.907	-0.324	-2.248	 H	1	UNK0	0.000	
46	   H	5.649	-2.116	-2.750	 H	1	UNK0	0.000	
47	   H	6.166	-0.860	-1.610	 H	1	UNK0	0.000	
48	   H	6.285	-1.447	0.711	 H	1	UNK0	0.000	
49	   H	5.782	-3.163	1.131	 H	1	UNK0	0.000	
50	   H	3.579	-2.776	0.839	 H	1	UNK0	0.000	
51	   H	4.124	-1.304	1.758	 H	1	UNK0	0.000	
52	   H	-4.539	-4.284	-4.258	 H	1	UNK0	0.000	
53	   H	-5.738	-3.772	-5.585	 H	1	UNK0	0.000	
@<TRIPOS>BOND
1 1 2 1
2 2 3 2
3 2 7 1
4 3 4 1
5 4 5 2
6 4 31 1
7 5 6 1
8 5 29 1
9 6 7 2
10 7 8 1
11 8 9 2
12 9 10 1
13 10 11 1
14 11 12 2
15 11 16 1
16 12 13 1
17 13 14 2
18 13 23 1
19 14 15 1
20 15 16 2
21 15 17 1
22 17 18 1
23 17 22 1
24 18 19 1
25 19 20 1
26 20 21 1
27 21 22 1
28 23 24 1
29 23 28 1
30 24 25 1
31 25 26 1
32 26 27 1
33 27 28 1
34 29 30 1
35 30 31 1
36 3 32 1
37 6 33 1
38 8 34 1
39 10 35 1
40 18 36 1
41 18 37 1
42 19 38 1
43 19 39 1
44 21 40 1
45 21 41 1
46 22 42 1
47 22 43 1
48 24 44 1
49 24 45 1
50 25 46 1
51 25 47 1
52 27 48 1
53 27 49 1
54 28 50 1
55 28 51 1
56 30 52 1
57 30 53 1
@<TRIPOS>SUBSTRUCTURE
1	UNK0	1	GROUP	1 ****	UNK
