# created with PyMOL 2.3.2
@<TRIPOS>MOLECULE
468
39 42 1                 
SMALL
USER_CHARGES
@<TRIPOS>ATOM
1	  Br	0.187	-2.133	2.416	Br	1	UNK0	0.000	
2	   C	0.871	-0.347	2.361	C.2	1	UNK0	0.000	
3	   C	2.084	-0.058	2.947	C.2	1	UNK0	0.000	
4	   C	2.619	1.212	2.938	C.2	1	UNK0	0.000	
5	   C	1.901	2.213	2.317	C.2	1	UNK0	0.000	
6	   C	0.689	1.913	1.734	C.2	1	UNK0	0.000	
7	   C	0.123	0.649	1.725	C.2	1	UNK0	0.000	
8	   C	-1.165	0.350	1.098	C.3	1	UNK0	0.000	
9	   C	-2.226	1.379	1.400	C.3	1	UNK0	0.000	
10	   C	-3.514	0.773	0.962	C.2	1	UNK0	0.000	
11	   O	-4.496	0.588	1.708	O.2	1	UNK0	0.000	
12	   N	-3.572	0.400	-0.409	N.pl3	1	UNK0	0.000	
13	   C	-2.330	0.030	-1.041	C.2	1	UNK0	0.000	
14	   C	-1.155	0.042	-0.323	C.2	1	UNK0	0.000	
15	   C	0.009	-0.277	-0.983	C.2	1	UNK0	0.000	
16	   O	1.072	-0.264	-0.335	O.2	1	UNK0	0.000	
17	   N	-0.022	-0.590	-2.289	N.pl3	1	UNK0	0.000	
18	   C	-1.179	-0.601	-2.984	C.2	1	UNK0	0.000	
19	   O	-1.200	-0.893	-4.198	O.2	1	UNK0	0.000	
20	   N	-2.322	-0.291	-2.354	N.pl3	1	UNK0	0.000	
21	   C	-3.596	-0.286	-3.052	C.3	1	UNK0	0.000	
22	   C	1.204	-0.924	-2.976	C.3	1	UNK0	0.000	
23	   O	2.658	3.371	2.453	O.3	1	UNK0	0.000	
24	   C	4.016	3.028	2.765	C.3	1	UNK0	0.000	
25	   O	3.796	1.779	3.439	O.3	1	UNK0	0.000	
26	   H	2.672	-0.821	3.442	 H	1	UNK0	0.000	
27	   H	0.127	2.702	1.247	 H	1	UNK0	0.000	
28	   H	-1.549	-0.591	1.627	 H	1	UNK0	0.000	
29	   H	-2.044	2.264	0.759	 H	1	UNK0	0.000	
30	   H	-2.251	1.646	2.480	 H	1	UNK0	0.000	
31	   H	-4.432	0.374	-0.967	 H	1	UNK0	0.000	
32	   H	-3.420	-0.660	-4.083	 H	1	UNK0	0.000	
33	   H	-4.363	-0.891	-2.569	 H	1	UNK0	0.000	
34	   H	-3.874	0.790	-3.169	 H	1	UNK0	0.000	
35	   H	1.866	-1.497	-2.311	 H	1	UNK0	0.000	
36	   H	0.961	-1.524	-3.899	 H	1	UNK0	0.000	
37	   H	1.757	-0.013	-3.321	 H	1	UNK0	0.000	
38	   H	4.500	3.765	3.404	 H	1	UNK0	0.000	
39	   H	4.505	2.854	1.791	 H	1	UNK0	0.000	
@<TRIPOS>BOND
1 1 2 1
2 2 3 2
3 2 7 1
4 3 4 1
5 4 5 2
6 4 25 1
7 5 6 1
8 5 23 1
9 6 7 2
10 7 8 1
11 8 9 1
12 8 14 1
13 9 10 1
14 10 11 2
15 10 12 1
16 12 13 1
17 13 14 2
18 13 20 1
19 14 15 1
20 15 16 2
21 15 17 1
22 17 18 1
23 17 22 1
24 18 19 2
25 18 20 1
26 20 21 1
27 23 24 1
28 24 25 1
29 3 26 1
30 6 27 1
31 8 28 1
32 9 29 1
33 9 30 1
34 12 31 1
35 21 32 1
36 21 33 1
37 21 34 1
38 22 35 1
39 22 36 1
40 22 37 1
41 24 38 1
42 24 39 1
@<TRIPOS>SUBSTRUCTURE
1	UNK0	1	GROUP	1 ****	UNK
