# created with PyMOL 2.3.2
@<TRIPOS>MOLECULE
470
48 51 1                 
SMALL
USER_CHARGES
@<TRIPOS>ATOM
1	  Br	3.392	-1.672	2.244	Br	1	UNK0	0.000	
2	   C	1.721	-2.539	1.943	C.2	1	UNK0	0.000	
3	   C	0.778	-2.014	1.100	C.2	1	UNK0	0.000	
4	   C	-0.465	-2.601	0.838	C.2	1	UNK0	0.000	
5	   C	-0.690	-3.793	1.513	C.2	1	UNK0	0.000	
6	   C	0.243	-4.347	2.370	C.2	1	UNK0	0.000	
7	   C	1.450	-3.724	2.588	C.2	1	UNK0	0.000	
8	   C	-2.029	-4.239	1.129	C.2	1	UNK0	0.000	
9	   O	-2.613	-5.282	1.523	O.2	1	UNK0	0.000	
10	   C	-2.588	-3.285	0.214	C.2	1	UNK0	0.000	
11	   O	-3.698	-3.241	-0.376	O.2	1	UNK0	0.000	
12	   N	-1.590	-2.252	0.036	N.pl3	1	UNK0	0.000	
13	   C	-1.723	-1.067	-0.751	C.3	1	UNK0	0.000	
14	   N	-1.389	-1.142	-2.114	N.3	1	UNK0	0.000	
15	   C	-0.043	-1.534	-2.364	C.3	1	UNK0	0.000	
16	   C	0.906	-0.389	-2.533	C.3	1	UNK0	0.000	
17	   N	0.459	0.791	-1.786	N.pl3	1	UNK0	0.000	
18	   C	-0.870	1.237	-2.119	C.3	1	UNK0	0.000	
19	   C	-1.624	0.096	-2.839	C.3	1	UNK0	0.000	
20	   C	1.298	1.401	-0.840	C.2	1	UNK0	0.000	
21	   O	2.465	0.854	-0.651	O.2	1	UNK0	0.000	
22	   N	1.070	2.532	-0.050	N.pl3	1	UNK0	0.000	
23	   C	2.098	2.998	0.911	C.3	1	UNK0	0.000	
24	   C	2.518	4.411	0.584	C.3	1	UNK0	0.000	
25	   O	1.419	5.199	0.288	O.3	1	UNK0	0.000	
26	   C	0.239	4.630	0.711	C.3	1	UNK0	0.000	
27	   C	-0.113	3.355	-0.067	C.3	1	UNK0	0.000	
28	   H	0.967	-1.084	0.582	 H	1	UNK0	0.000	
29	   H	0.039	-5.275	2.879	 H	1	UNK0	0.000	
30	   H	2.177	-4.170	3.265	 H	1	UNK0	0.000	
31	   H	-2.744	-0.655	-0.554	 H	1	UNK0	0.000	
32	   H	-1.035	-0.292	-0.285	 H	1	UNK0	0.000	
33	   H	0.271	-2.277	-1.590	 H	1	UNK0	0.000	
34	   H	-0.062	-2.114	-3.364	 H	1	UNK0	0.000	
35	   H	1.931	-0.678	-2.221	 H	1	UNK0	0.000	
36	   H	0.980	-0.158	-3.619	 H	1	UNK0	0.000	
37	   H	-0.796	2.090	-2.815	 H	1	UNK0	0.000	
38	   H	-1.485	1.546	-1.258	 H	1	UNK0	0.000	
39	   H	-1.145	-0.001	-3.826	 H	1	UNK0	0.000	
40	   H	-2.659	0.385	-2.946	 H	1	UNK0	0.000	
41	   H	1.651	2.996	1.921	 H	1	UNK0	0.000	
42	   H	2.966	2.324	0.913	 H	1	UNK0	0.000	
43	   H	3.196	4.443	-0.297	 H	1	UNK0	0.000	
44	   H	3.050	4.896	1.412	 H	1	UNK0	0.000	
45	   H	0.258	4.461	1.791	 H	1	UNK0	0.000	
46	   H	-0.581	5.342	0.502	 H	1	UNK0	0.000	
47	   H	-0.450	3.621	-1.080	 H	1	UNK0	0.000	
48	   H	-0.915	2.886	0.525	 H	1	UNK0	0.000	
@<TRIPOS>BOND
1 1 2 1
2 2 3 2
3 2 7 1
4 3 4 1
5 4 5 2
6 4 12 1
7 5 6 1
8 5 8 1
9 6 7 2
10 8 9 2
11 8 10 1
12 10 11 2
13 10 12 1
14 12 13 1
15 13 14 1
16 14 15 1
17 14 19 1
18 15 16 1
19 16 17 1
20 17 18 1
21 17 20 1
22 18 19 1
23 20 21 2
24 20 22 1
25 22 23 1
26 22 27 1
27 23 24 1
28 24 25 1
29 25 26 1
30 26 27 1
31 3 28 1
32 6 29 1
33 7 30 1
34 13 31 1
35 13 32 1
36 15 33 1
37 15 34 1
38 16 35 1
39 16 36 1
40 18 37 1
41 18 38 1
42 19 39 1
43 19 40 1
44 23 41 1
45 23 42 1
46 24 43 1
47 24 44 1
48 26 45 1
49 26 46 1
50 27 47 1
51 27 48 1
@<TRIPOS>SUBSTRUCTURE
1	UNK0	1	GROUP	1 ****	UNK
