# created with PyMOL 2.3.2
@<TRIPOS>MOLECULE
472
50 53 1                 
SMALL
USER_CHARGES
@<TRIPOS>ATOM
1	  Br	3.311	3.290	-5.762	Br	1	UNK0	0.000	
2	   C	2.664	1.665	-5.030	C.2	1	UNK0	0.000	
3	   C	3.383	0.984	-4.101	C.2	1	UNK0	0.000	
4	   C	2.920	-0.219	-3.548	C.2	1	UNK0	0.000	
5	   C	1.706	-0.694	-3.978	C.2	1	UNK0	0.000	
6	   C	0.971	-0.005	-4.922	C.2	1	UNK0	0.000	
7	   C	1.455	1.166	-5.439	C.2	1	UNK0	0.000	
8	   C	1.490	-1.927	-3.248	C.2	1	UNK0	0.000	
9	   O	0.449	-2.653	-3.393	O.2	1	UNK0	0.000	
10	   N	2.583	-2.186	-2.381	N.pl3	1	UNK0	0.000	
11	   C	3.499	-1.119	-2.553	C.2	1	UNK0	0.000	
12	   O	4.590	-0.938	-1.994	O.2	1	UNK0	0.000	
13	   C	2.720	-3.328	-1.493	C.3	1	UNK0	0.000	
14	   C	2.130	-3.051	-0.127	C.3	1	UNK0	0.000	
15	   C	0.659	-2.726	-0.216	C.3	1	UNK0	0.000	
16	   C	0.075	-2.455	1.124	C.2	1	UNK0	0.000	
17	   O	0.862	-2.540	2.115	O.2	1	UNK0	0.000	
18	   N	-1.269	-2.118	1.332	N.pl3	1	UNK0	0.000	
19	   C	-2.173	-2.016	0.218	C.3	1	UNK0	0.000	
20	   C	-2.737	-0.630	0.155	C.3	1	UNK0	0.000	
21	   N	-2.855	-0.069	1.460	N.pl3	1	UNK0	0.000	
22	   C	-2.990	-0.952	2.617	C.3	1	UNK0	0.000	
23	   C	-1.762	-1.870	2.659	C.3	1	UNK0	0.000	
24	   C	-2.848	1.334	1.701	C.2	1	UNK0	0.000	
25	   O	-2.952	1.806	2.875	O.2	1	UNK0	0.000	
26	   C	-2.720	2.346	0.622	C.3	1	UNK0	0.000	
27	   C	-1.925	3.592	0.925	C.3	1	UNK0	0.000	
28	   C	-3.391	3.676	0.767	C.3	1	UNK0	0.000	
29	   H	4.338	1.386	-3.783	 H	1	UNK0	0.000	
30	   H	0.011	-0.421	-5.234	 H	1	UNK0	0.000	
31	   H	0.855	1.681	-6.177	 H	1	UNK0	0.000	
32	   H	3.733	-3.726	-1.439	 H	1	UNK0	0.000	
33	   H	2.091	-4.158	-1.931	 H	1	UNK0	0.000	
34	   H	2.697	-2.321	0.447	 H	1	UNK0	0.000	
35	   H	2.213	-4.027	0.435	 H	1	UNK0	0.000	
36	   H	0.104	-3.505	-0.777	 H	1	UNK0	0.000	
37	   H	0.573	-1.780	-0.791	 H	1	UNK0	0.000	
38	   H	-3.035	-2.716	0.394	 H	1	UNK0	0.000	
39	   H	-1.721	-2.348	-0.737	 H	1	UNK0	0.000	
40	   H	-2.060	0.027	-0.452	 H	1	UNK0	0.000	
41	   H	-3.697	-0.660	-0.405	 H	1	UNK0	0.000	
42	   H	-3.032	-0.416	3.566	 H	1	UNK0	0.000	
43	   H	-3.924	-1.544	2.492	 H	1	UNK0	0.000	
44	   H	-2.111	-2.842	3.063	 H	1	UNK0	0.000	
45	   H	-0.985	-1.449	3.329	 H	1	UNK0	0.000	
46	   H	-2.630	1.980	-0.419	 H	1	UNK0	0.000	
47	   H	-1.217	3.994	0.189	 H	1	UNK0	0.000	
48	   H	-1.552	3.658	1.989	 H	1	UNK0	0.000	
49	   H	-4.048	3.871	1.645	 H	1	UNK0	0.000	
50	   H	-3.747	4.204	-0.149	 H	1	UNK0	0.000	
@<TRIPOS>BOND
1 1 2 1
2 2 3 2
3 2 7 1
4 3 4 1
5 4 5 2
6 4 11 1
7 5 6 1
8 5 8 1
9 6 7 2
10 8 9 2
11 8 10 1
12 10 11 1
13 10 13 1
14 11 12 2
15 13 14 1
16 14 15 1
17 15 16 1
18 16 17 2
19 16 18 1
20 18 19 1
21 18 23 1
22 19 20 1
23 20 21 1
24 21 22 1
25 21 24 1
26 22 23 1
27 24 25 2
28 24 26 1
29 26 27 1
30 26 28 1
31 27 28 1
32 3 29 1
33 6 30 1
34 7 31 1
35 13 32 1
36 13 33 1
37 14 34 1
38 14 35 1
39 15 36 1
40 15 37 1
41 19 38 1
42 19 39 1
43 20 40 1
44 20 41 1
45 22 42 1
46 22 43 1
47 23 44 1
48 23 45 1
49 26 46 1
50 27 47 1
51 27 48 1
52 28 49 1
53 28 50 1
@<TRIPOS>SUBSTRUCTURE
1	UNK0	1	GROUP	1 ****	UNK
