# created with PyMOL 2.3.2
@<TRIPOS>MOLECULE
474
45 48 1                 
SMALL
USER_CHARGES
@<TRIPOS>ATOM
1	  Br	1.296	2.611	-7.701	Br	1	UNK0	0.000	
2	   C	0.232	2.586	-6.114	C.2	1	UNK0	0.000	
3	   C	0.200	1.461	-5.315	C.2	1	UNK0	0.000	
4	   C	-0.575	1.490	-4.191	C.2	1	UNK0	0.000	
5	   C	-1.313	2.586	-3.834	C.2	1	UNK0	0.000	
6	   C	-1.285	3.705	-4.625	C.2	1	UNK0	0.000	
7	   C	-0.498	3.687	-5.774	C.2	1	UNK0	0.000	
8	   C	-2.019	2.269	-2.582	C.2	1	UNK0	0.000	
9	   O	-2.778	3.035	-1.974	O.2	1	UNK0	0.000	
10	   N	-1.686	0.947	-2.190	N.pl3	1	UNK0	0.000	
11	   C	-0.794	0.456	-3.178	C.2	1	UNK0	0.000	
12	   O	-0.274	-0.683	-3.184	O.2	1	UNK0	0.000	
13	   C	-2.115	0.177	-1.042	C.3	1	UNK0	0.000	
14	   C	-1.171	0.382	0.152	C.3	1	UNK0	0.000	
15	   C	-1.713	-0.458	1.270	C.3	1	UNK0	0.000	
16	   C	-0.914	-0.374	2.507	C.2	1	UNK0	0.000	
17	   O	-1.313	-1.059	3.484	O.co2	1	UNK0	0.000	
18	   O	0.214	0.384	2.662	O.3	1	UNK0	0.000	
19	   C	0.888	0.376	3.899	C.3	1	UNK0	0.000	
20	   C	1.361	-0.997	4.272	C.2	1	UNK0	0.000	
21	   N	2.570	-1.549	3.949	N.pl3	1	UNK0	0.000	
22	   C	2.654	-2.791	4.445	C.2	1	UNK0	0.000	
23	   N	1.495	-3.017	5.080	N.2	1	UNK0	0.000	
24	   N	0.723	-1.946	4.976	N.2	1	UNK0	0.000	
25	   C	3.889	-3.580	4.213	C.3	1	UNK0	0.000	
26	   O	4.417	-3.151	2.986	O.3	1	UNK0	0.000	
27	   C	4.838	-1.844	3.197	C.3	1	UNK0	0.000	
28	   C	3.639	-0.940	3.191	C.3	1	UNK0	0.000	
29	   H	0.779	0.588	-5.585	 H	1	UNK0	0.000	
30	   H	-1.865	4.571	-4.348	 H	1	UNK0	0.000	
31	   H	-0.452	4.558	-6.424	 H	1	UNK0	0.000	
32	   H	-2.179	-0.899	-1.298	 H	1	UNK0	0.000	
33	   H	-3.154	0.468	-0.734	 H	1	UNK0	0.000	
34	   H	-1.211	1.441	0.479	 H	1	UNK0	0.000	
35	   H	-0.152	0.128	-0.146	 H	1	UNK0	0.000	
36	   H	-2.767	-0.179	1.449	 H	1	UNK0	0.000	
37	   H	-1.671	-1.527	0.932	 H	1	UNK0	0.000	
38	   H	1.773	1.062	3.854	 H	1	UNK0	0.000	
39	   H	0.237	0.774	4.711	 H	1	UNK0	0.000	
40	   H	4.647	-3.343	4.992	 H	1	UNK0	0.000	
41	   H	3.678	-4.681	4.164	 H	1	UNK0	0.000	
42	   H	5.384	-1.805	4.155	 H	1	UNK0	0.000	
43	   H	5.499	-1.518	2.368	 H	1	UNK0	0.000	
44	   H	3.887	0.032	3.683	 H	1	UNK0	0.000	
45	   H	3.312	-0.713	2.159	 H	1	UNK0	0.000	
@<TRIPOS>BOND
1 1 2 1
2 2 3 2
3 2 7 1
4 3 4 1
5 4 5 2
6 4 11 1
7 5 6 1
8 5 8 1
9 6 7 2
10 8 9 2
11 8 10 1
12 10 11 1
13 10 13 1
14 11 12 2
15 13 14 1
16 14 15 1
17 15 16 1
18 16 17 2
19 16 18 1
20 18 19 1
21 19 20 1
22 20 21 1
23 20 24 2
24 21 22 1
25 21 28 1
26 22 23 2
27 22 25 1
28 23 24 1
29 25 26 1
30 26 27 1
31 27 28 1
32 3 29 1
33 6 30 1
34 7 31 1
35 13 32 1
36 13 33 1
37 14 34 1
38 14 35 1
39 15 36 1
40 15 37 1
41 19 38 1
42 19 39 1
43 25 40 1
44 25 41 1
45 27 42 1
46 27 43 1
47 28 44 1
48 28 45 1
@<TRIPOS>SUBSTRUCTURE
1	UNK0	1	GROUP	1 ****	UNK
