# created with PyMOL 2.3.2
@<TRIPOS>MOLECULE
475
41 44 1                 
SMALL
USER_CHARGES
@<TRIPOS>ATOM
1	  Br	-8.266	2.153	-0.033	Br	1	UNK0	0.000	
2	   C	-6.536	1.333	-0.007	C.2	1	UNK0	0.000	
3	   C	-6.267	0.177	-0.705	C.2	1	UNK0	0.000	
4	   C	-5.009	-0.426	-0.691	C.2	1	UNK0	0.000	
5	   C	-3.989	0.150	0.047	C.2	1	UNK0	0.000	
6	   C	-4.262	1.306	0.743	C.2	1	UNK0	0.000	
7	   C	-5.505	1.899	0.727	C.2	1	UNK0	0.000	
8	   C	-2.775	-0.663	-0.097	C.2	1	UNK0	0.000	
9	   N	-1.623	-0.477	0.419	N.2	1	UNK0	0.000	
10	   N	-0.519	-1.314	0.221	N.pl3	1	UNK0	0.000	
11	   C	0.760	-0.668	0.086	C.2	1	UNK0	0.000	
12	   N	1.942	-1.286	-0.109	N.pl3	1	UNK0	0.000	
13	   C	2.922	-0.373	-0.189	C.2	1	UNK0	0.000	
14	   C	2.340	0.877	-0.037	C.2	1	UNK0	0.000	
15	   N	1.042	0.646	0.124	N.2	1	UNK0	0.000	
16	   N	3.045	2.018	-0.066	N.pl3	1	UNK0	0.000	
17	   C	4.366	1.927	-0.250	C.2	1	UNK0	0.000	
18	   O	5.132	2.939	-0.294	O.2	1	UNK0	0.000	
19	   N	4.988	0.728	-0.403	N.pl3	1	UNK0	0.000	
20	   C	4.293	-0.417	-0.376	C.2	1	UNK0	0.000	
21	   O	4.811	-1.548	-0.512	O.2	1	UNK0	0.000	
22	   C	6.431	0.656	-0.602	C.3	1	UNK0	0.000	
23	   C	2.423	3.310	0.093	C.3	1	UNK0	0.000	
24	   C	2.160	-2.721	-0.222	C.3	1	UNK0	0.000	
25	   C	-3.113	-1.778	-0.972	C.2	1	UNK0	0.000	
26	   O	-2.329	-2.701	-1.337	O.2	1	UNK0	0.000	
27	   N	-4.482	-1.598	-1.312	N.pl3	1	UNK0	0.000	
28	   H	-7.063	-0.272	-1.280	 H	1	UNK0	0.000	
29	   H	-3.468	1.755	1.318	 H	1	UNK0	0.000	
30	   H	-5.723	2.803	1.270	 H	1	UNK0	0.000	
31	   H	-0.579	-2.337	0.170	 H	1	UNK0	0.000	
32	   H	6.685	0.106	-1.527	 H	1	UNK0	0.000	
33	   H	6.911	0.104	0.243	 H	1	UNK0	0.000	
34	   H	6.877	1.674	-0.602	 H	1	UNK0	0.000	
35	   H	2.857	4.056	-0.604	 H	1	UNK0	0.000	
36	   H	2.457	3.666	1.152	 H	1	UNK0	0.000	
37	   H	1.332	3.263	-0.160	 H	1	UNK0	0.000	
38	   H	2.842	-3.013	0.595	 H	1	UNK0	0.000	
39	   H	1.221	-3.273	-0.259	 H	1	UNK0	0.000	
40	   H	2.701	-2.872	-1.190	 H	1	UNK0	0.000	
41	   H	-5.036	-2.225	-1.927	 H	1	UNK0	0.000	
@<TRIPOS>BOND
1 1 2 1
2 2 3 2
3 2 7 1
4 3 4 1
5 4 5 2
6 4 27 1
7 5 6 1
8 5 8 1
9 6 7 2
10 8 9 2
11 8 25 1
12 9 10 1
13 10 11 1
14 11 12 1
15 11 15 2
16 12 13 1
17 12 24 1
18 13 14 2
19 13 20 1
20 14 15 1
21 14 16 1
22 16 17 1
23 16 23 1
24 17 18 2
25 17 19 1
26 19 20 1
27 19 22 1
28 20 21 2
29 25 26 2
30 25 27 1
31 3 28 1
32 6 29 1
33 7 30 1
34 10 31 1
35 22 32 1
36 22 33 1
37 22 34 1
38 23 35 1
39 23 36 1
40 23 37 1
41 24 38 1
42 24 39 1
43 24 40 1
44 27 41 1
@<TRIPOS>SUBSTRUCTURE
1	UNK0	1	GROUP	1 ****	UNK
