# created with PyMOL 2.3.2
@<TRIPOS>MOLECULE
476
40 43 1                 
SMALL
USER_CHARGES
@<TRIPOS>ATOM
1	  Br	6.292	0.026	-2.241	Br	1	UNK0	0.000	
2	   C	4.528	-0.375	-1.656	C.2	1	UNK0	0.000	
3	   C	4.108	-0.137	-0.338	C.2	1	UNK0	0.000	
4	   C	2.837	-0.433	0.060	C.2	1	UNK0	0.000	
5	   C	1.933	-0.976	-0.825	C.2	1	UNK0	0.000	
6	   C	2.317	-1.223	-2.137	C.2	1	UNK0	0.000	
7	   C	3.609	-0.918	-2.528	C.2	1	UNK0	0.000	
8	   C	0.578	-1.268	-0.293	C.3	1	UNK0	0.000	
9	   C	-0.003	-0.082	0.493	C.3	1	UNK0	0.000	
10	   C	1.082	0.614	1.281	C.3	1	UNK0	0.000	
11	   C	2.349	-0.196	1.428	C.3	1	UNK0	0.000	
12	   O	-0.532	0.760	-0.476	O.3	1	UNK0	0.000	
13	   C	-1.088	-0.565	1.369	C.2	1	UNK0	0.000	
14	   O	-0.657	-1.382	2.286	O.2	1	UNK0	0.000	
15	   N	-2.445	-0.287	1.360	N.pl3	1	UNK0	0.000	
16	   C	-3.297	-0.949	2.386	C.3	1	UNK0	0.000	
17	   C	-4.682	-1.176	1.891	C.3	1	UNK0	0.000	
18	   N	-4.827	-1.188	0.453	N.pl3	1	UNK0	0.000	
19	   N	-5.563	-1.898	-0.413	N.2	1	UNK0	0.000	
20	   N	-5.330	-1.515	-1.652	N.2	1	UNK0	0.000	
21	   C	-4.412	-0.524	-1.600	C.2	1	UNK0	0.000	
22	   C	-4.106	-0.329	-0.282	C.2	1	UNK0	0.000	
23	   C	-3.194	0.576	0.482	C.3	1	UNK0	0.000	
24	   H	4.859	0.290	0.316	 H	1	UNK0	0.000	
25	   H	1.603	-1.645	-2.811	 H	1	UNK0	0.000	
26	   H	3.890	-1.124	-3.571	 H	1	UNK0	0.000	
27	   H	-0.094	-1.558	-1.112	 H	1	UNK0	0.000	
28	   H	0.693	-2.087	0.456	 H	1	UNK0	0.000	
29	   H	0.751	0.874	2.308	 H	1	UNK0	0.000	
30	   H	1.364	1.530	0.705	 H	1	UNK0	0.000	
31	   H	3.054	0.381	2.050	 H	1	UNK0	0.000	
32	   H	2.055	-1.157	1.895	 H	1	UNK0	0.000	
33	   H	-0.704	0.308	-1.340	 H	1	UNK0	0.000	
34	   H	-2.783	-1.845	2.730	 H	1	UNK0	0.000	
35	   H	-3.336	-0.218	3.225	 H	1	UNK0	0.000	
36	   H	-5.370	-0.392	2.271	 H	1	UNK0	0.000	
37	   H	-5.101	-2.146	2.277	 H	1	UNK0	0.000	
38	   H	-4.002	0.012	-2.467	 H	1	UNK0	0.000	
39	   H	-3.881	1.192	1.127	 H	1	UNK0	0.000	
40	   H	-2.654	1.174	-0.227	 H	1	UNK0	0.000	
@<TRIPOS>BOND
1 1 2 1
2 2 3 2
3 2 7 1
4 3 4 1
5 4 5 2
6 4 11 1
7 5 6 1
8 5 8 1
9 6 7 2
10 8 9 1
11 9 10 1
12 9 12 1
13 9 13 1
14 10 11 1
15 13 14 2
16 13 15 1
17 15 16 1
18 15 23 1
19 16 17 1
20 17 18 1
21 18 19 1
22 18 22 1
23 19 20 2
24 20 21 1
25 21 22 2
26 22 23 1
27 3 24 1
28 6 25 1
29 7 26 1
30 8 27 1
31 8 28 1
32 10 29 1
33 10 30 1
34 11 31 1
35 11 32 1
36 12 33 1
37 16 34 1
38 16 35 1
39 17 36 1
40 17 37 1
41 21 38 1
42 23 39 1
43 23 40 1
@<TRIPOS>SUBSTRUCTURE
1	UNK0	1	GROUP	1 ****	UNK
