# created with PyMOL 2.3.2
@<TRIPOS>MOLECULE
481
37 40 1                 
SMALL
USER_CHARGES
@<TRIPOS>ATOM
1	  Br	-3.943	-5.600	3.353	Br	1	UNK0	0.000	
2	   C	-2.536	-4.559	2.637	C.2	1	UNK0	0.000	
3	   C	-2.408	-4.381	1.278	C.2	1	UNK0	0.000	
4	   C	-1.351	-3.602	0.792	C.2	1	UNK0	0.000	
5	   C	-0.444	-3.018	1.648	C.2	1	UNK0	0.000	
6	   C	-0.576	-3.201	3.029	C.2	1	UNK0	0.000	
7	   C	-1.611	-3.961	3.475	C.2	1	UNK0	0.000	
8	   N	0.499	-2.301	0.861	N.pl3	1	UNK0	0.000	
9	   C	0.171	-2.442	-0.514	C.2	1	UNK0	0.000	
10	   O	0.794	-1.938	-1.506	O.2	1	UNK0	0.000	
11	   C	-1.020	-3.277	-0.599	C.2	1	UNK0	0.000	
12	   O	-1.610	-3.627	-1.643	O.2	1	UNK0	0.000	
13	   C	1.618	-1.545	1.400	C.3	1	UNK0	0.000	
14	   C	1.209	-0.127	1.668	C.2	1	UNK0	0.000	
15	   O	2.039	0.680	2.136	O.co2	1	UNK0	0.000	
16	   O	-0.076	0.327	1.412	O.3	1	UNK0	0.000	
17	   C	-0.468	1.657	1.661	C.3	1	UNK0	0.000	
18	   N	0.276	2.634	0.936	N.pl3	1	UNK0	0.000	
19	   N	1.378	3.214	1.348	N.2	1	UNK0	0.000	
20	   N	1.819	4.079	0.427	N.2	1	UNK0	0.000	
21	   C	0.985	4.066	-0.613	C.2	1	UNK0	0.000	
22	   C	-0.002	3.134	-0.275	C.2	1	UNK0	0.000	
23	   C	-1.034	2.895	-1.181	C.2	1	UNK0	0.000	
24	   C	-1.114	3.541	-2.391	C.2	1	UNK0	0.000	
25	   C	-0.145	4.453	-2.716	C.2	1	UNK0	0.000	
26	   C	0.888	4.705	-1.831	C.2	1	UNK0	0.000	
27	   H	-3.108	-4.828	0.559	 H	1	UNK0	0.000	
28	   H	0.163	-2.722	3.675	 H	1	UNK0	0.000	
29	   H	-1.728	-4.114	4.542	 H	1	UNK0	0.000	
30	   H	1.932	-1.967	2.378	 H	1	UNK0	0.000	
31	   H	2.421	-1.535	0.649	 H	1	UNK0	0.000	
32	   H	-1.558	1.797	1.523	 H	1	UNK0	0.000	
33	   H	-0.296	1.823	2.766	 H	1	UNK0	0.000	
34	   H	-1.769	2.159	-0.857	 H	1	UNK0	0.000	
35	   H	-1.941	3.304	-3.039	 H	1	UNK0	0.000	
36	   H	-0.167	4.996	-3.674	 H	1	UNK0	0.000	
37	   H	1.661	5.424	-2.077	 H	1	UNK0	0.000	
@<TRIPOS>BOND
1 1 2 1
2 2 3 2
3 2 7 1
4 3 4 1
5 4 5 2
6 4 11 1
7 5 6 1
8 5 8 1
9 6 7 2
10 8 9 1
11 8 13 1
12 9 10 2
13 9 11 1
14 11 12 2
15 13 14 1
16 14 15 2
17 14 16 1
18 16 17 1
19 17 18 1
20 18 19 1
21 18 22 1
22 19 20 2
23 20 21 1
24 21 22 2
25 21 26 1
26 22 23 1
27 23 24 2
28 24 25 1
29 25 26 2
30 3 27 1
31 6 28 1
32 7 29 1
33 13 30 1
34 13 31 1
35 17 32 1
36 17 33 1
37 23 34 1
38 24 35 1
39 25 36 1
40 26 37 1
@<TRIPOS>SUBSTRUCTURE
1	UNK0	1	GROUP	1 ****	UNK
