# created with PyMOL 2.3.2
@<TRIPOS>MOLECULE
482
56 59 1                 
SMALL
USER_CHARGES
@<TRIPOS>ATOM
1	  Br	5.393	-7.027	0.024	Br	1	UNK0	0.000	
2	   C	4.337	-5.430	0.059	C.2	1	UNK0	0.000	
3	   C	3.598	-5.096	-1.050	C.2	1	UNK0	0.000	
4	   C	2.832	-3.932	-1.018	C.2	1	UNK0	0.000	
5	   C	2.806	-3.124	0.093	C.2	1	UNK0	0.000	
6	   C	3.556	-3.469	1.210	C.2	1	UNK0	0.000	
7	   C	4.310	-4.627	1.162	C.2	1	UNK0	0.000	
8	   N	1.944	-1.984	-0.120	N.pl3	1	UNK0	0.000	
9	   C	1.433	-2.122	-1.423	C.2	1	UNK0	0.000	
10	   O	0.633	-1.308	-1.973	O.2	1	UNK0	0.000	
11	   C	1.964	-3.333	-2.024	C.2	1	UNK0	0.000	
12	   O	1.722	-3.780	-3.190	O.2	1	UNK0	0.000	
13	   C	1.714	-0.946	0.881	C.3	1	UNK0	0.000	
14	   N	0.643	-1.195	1.752	N.3	1	UNK0	0.000	
15	   C	0.416	-0.207	2.749	C.3	1	UNK0	0.000	
16	   C	-1.096	0.027	2.783	C.3	1	UNK0	0.000	
17	   N	-1.411	0.381	1.380	N.3	1	UNK0	0.000	
18	   C	-1.637	-0.971	0.792	C.3	1	UNK0	0.000	
19	   C	-0.494	-1.840	1.228	C.3	1	UNK0	0.000	
20	   C	-2.665	1.094	1.343	C.3	1	UNK0	0.000	
21	   C	-2.912	1.826	0.114	C.2	1	UNK0	0.000	
22	   O	-4.119	2.356	0.039	O.2	1	UNK0	0.000	
23	   N	-2.132	2.088	-1.004	N.pl3	1	UNK0	0.000	
24	   C	-2.886	2.792	-2.083	C.3	1	UNK0	0.000	
25	   C	-2.495	4.242	-2.014	C.3	1	UNK0	0.000	
26	   C	-1.005	4.420	-2.188	C.3	1	UNK0	0.000	
27	   C	-0.245	4.276	-0.916	C.3	1	UNK0	0.000	
28	   C	0.125	2.900	-0.516	C.3	1	UNK0	0.000	
29	   C	-0.748	1.803	-1.119	C.3	1	UNK0	0.000	
30	   H	3.576	-5.689	-1.952	 H	1	UNK0	0.000	
31	   H	3.541	-2.835	2.093	 H	1	UNK0	0.000	
32	   H	4.909	-4.921	2.029	 H	1	UNK0	0.000	
33	   H	1.605	0.002	0.313	 H	1	UNK0	0.000	
34	   H	2.651	-0.799	1.496	 H	1	UNK0	0.000	
35	   H	0.859	0.762	2.437	 H	1	UNK0	0.000	
36	   H	0.795	-0.476	3.756	 H	1	UNK0	0.000	
37	   H	-1.376	0.809	3.484	 H	1	UNK0	0.000	
38	   H	-1.559	-0.937	3.028	 H	1	UNK0	0.000	
39	   H	-1.823	-0.905	-0.268	 H	1	UNK0	0.000	
40	   H	-2.575	-1.371	1.283	 H	1	UNK0	0.000	
41	   H	-0.156	-2.485	0.363	 H	1	UNK0	0.000	
42	   H	-0.857	-2.631	1.966	 H	1	UNK0	0.000	
43	   H	-2.636	1.797	2.211	 H	1	UNK0	0.000	
44	   H	-3.526	0.405	1.596	 H	1	UNK0	0.000	
45	   H	-3.972	2.706	-1.908	 H	1	UNK0	0.000	
46	   H	-2.556	2.367	-3.044	 H	1	UNK0	0.000	
47	   H	-2.851	4.701	-1.074	 H	1	UNK0	0.000	
48	   H	-3.014	4.766	-2.856	 H	1	UNK0	0.000	
49	   H	-0.856	5.468	-2.563	 H	1	UNK0	0.000	
50	   H	-0.633	3.753	-2.983	 H	1	UNK0	0.000	
51	   H	0.715	4.859	-1.039	 H	1	UNK0	0.000	
52	   H	-0.786	4.777	-0.087	 H	1	UNK0	0.000	
53	   H	0.093	2.747	0.587	 H	1	UNK0	0.000	
54	   H	1.181	2.628	-0.817	 H	1	UNK0	0.000	
55	   H	-0.448	1.743	-2.202	 H	1	UNK0	0.000	
56	   H	-0.365	0.878	-0.687	 H	1	UNK0	0.000	
@<TRIPOS>BOND
1 1 2 1
2 2 3 2
3 2 7 1
4 3 4 1
5 4 5 2
6 4 11 1
7 5 6 1
8 5 8 1
9 6 7 2
10 8 9 1
11 8 13 1
12 9 10 2
13 9 11 1
14 11 12 2
15 13 14 1
16 14 15 1
17 14 19 1
18 15 16 1
19 16 17 1
20 17 18 1
21 17 20 1
22 18 19 1
23 20 21 1
24 21 22 2
25 21 23 1
26 23 24 1
27 23 29 1
28 24 25 1
29 25 26 1
30 26 27 1
31 27 28 1
32 28 29 1
33 3 30 1
34 6 31 1
35 7 32 1
36 13 33 1
37 13 34 1
38 15 35 1
39 15 36 1
40 16 37 1
41 16 38 1
42 18 39 1
43 18 40 1
44 19 41 1
45 19 42 1
46 20 43 1
47 20 44 1
48 24 45 1
49 24 46 1
50 25 47 1
51 25 48 1
52 26 49 1
53 26 50 1
54 27 51 1
55 27 52 1
56 28 53 1
57 28 54 1
58 29 55 1
59 29 56 1
@<TRIPOS>SUBSTRUCTURE
1	UNK0	1	GROUP	1 ****	UNK
