# created with PyMOL 2.3.2
@<TRIPOS>MOLECULE
486
55 58 1                 
SMALL
USER_CHARGES
@<TRIPOS>ATOM
1	  Br	-5.991	2.973	2.107	Br	1	UNK0	0.000	
2	   C	-4.109	2.786	1.908	C.2	1	UNK0	0.000	
3	   C	-3.494	1.549	1.738	C.2	1	UNK0	0.000	
4	   C	-2.129	1.428	1.595	C.2	1	UNK0	0.000	
5	   C	-1.350	2.572	1.621	C.2	1	UNK0	0.000	
6	   C	-1.963	3.798	1.789	C.2	1	UNK0	0.000	
7	   C	-3.327	3.924	1.933	C.2	1	UNK0	0.000	
8	   N	0.018	2.219	1.457	N.pl3	1	UNK0	0.000	
9	   C	0.078	0.779	1.324	C.2	1	UNK0	0.000	
10	   O	1.118	0.096	1.164	O.2	1	UNK0	0.000	
11	   C	-1.277	0.257	1.409	C.2	1	UNK0	0.000	
12	   N	-1.594	-0.997	1.327	N.2	1	UNK0	0.000	
13	   N	-0.637	-2.001	1.147	N.pl3	1	UNK0	0.000	
14	   C	-0.227	-2.412	-0.150	C.2	1	UNK0	0.000	
15	   O	-0.724	-1.875	-1.175	O.2	1	UNK0	0.000	
16	   C	0.793	-3.481	-0.294	C.3	1	UNK0	0.000	
17	   O	1.085	-3.757	-1.639	O.3	1	UNK0	0.000	
18	   C	2.004	-4.713	-2.039	C.2	1	UNK0	0.000	
19	   C	2.255	-4.945	-3.372	C.2	1	UNK0	0.000	
20	   C	3.185	-5.913	-3.749	C.2	1	UNK0	0.000	
21	   C	3.846	-6.631	-2.765	C.2	1	UNK0	0.000	
22	   C	3.609	-6.415	-1.430	C.2	1	UNK0	0.000	
23	   C	2.676	-5.442	-1.085	C.2	1	UNK0	0.000	
24	   O	1.576	-4.208	-4.328	O.3	1	UNK0	0.000	
25	   C	1.817	-4.427	-5.706	C.3	1	UNK0	0.000	
26	   C	1.198	3.057	1.415	C.3	1	UNK0	0.000	
27	   N	1.512	3.492	0.117	N.3	1	UNK0	0.000	
28	   C	2.644	4.295	-0.096	C.3	1	UNK0	0.000	
29	   C	3.705	3.498	-0.830	C.3	1	UNK0	0.000	
30	   O	3.190	2.951	-1.997	O.3	1	UNK0	0.000	
31	   C	2.148	2.075	-1.695	C.3	1	UNK0	0.000	
32	   C	0.999	2.824	-1.003	C.3	1	UNK0	0.000	
33	   H	-4.102	0.655	1.718	 H	1	UNK0	0.000	
34	   H	-1.365	4.711	1.813	 H	1	UNK0	0.000	
35	   H	-3.808	4.898	2.069	 H	1	UNK0	0.000	
36	   H	-0.222	-2.450	1.992	 H	1	UNK0	0.000	
37	   H	1.669	-3.197	0.314	 H	1	UNK0	0.000	
38	   H	0.402	-4.427	0.153	 H	1	UNK0	0.000	
39	   H	3.403	-6.118	-4.789	 H	1	UNK0	0.000	
40	   H	4.582	-7.398	-3.031	 H	1	UNK0	0.000	
41	   H	4.124	-6.975	-0.660	 H	1	UNK0	0.000	
42	   H	2.466	-5.247	-0.045	 H	1	UNK0	0.000	
43	   H	2.924	-4.467	-5.880	 H	1	UNK0	0.000	
44	   H	1.372	-5.389	-6.060	 H	1	UNK0	0.000	
45	   H	1.441	-3.589	-6.329	 H	1	UNK0	0.000	
46	   H	2.089	2.514	1.839	 H	1	UNK0	0.000	
47	   H	0.956	3.934	2.086	 H	1	UNK0	0.000	
48	   H	3.109	4.644	0.851	 H	1	UNK0	0.000	
49	   H	2.398	5.156	-0.769	 H	1	UNK0	0.000	
50	   H	4.505	4.226	-1.103	 H	1	UNK0	0.000	
51	   H	4.157	2.716	-0.209	 H	1	UNK0	0.000	
52	   H	2.462	1.189	-1.124	 H	1	UNK0	0.000	
53	   H	1.722	1.731	-2.664	 H	1	UNK0	0.000	
54	   H	0.249	2.057	-0.762	 H	1	UNK0	0.000	
55	   H	0.584	3.504	-1.786	 H	1	UNK0	0.000	
@<TRIPOS>BOND
1 1 2 1
2 2 3 2
3 2 7 1
4 3 4 1
5 4 5 2
6 4 11 1
7 5 6 1
8 5 8 1
9 6 7 2
10 8 9 1
11 8 26 1
12 9 10 2
13 9 11 1
14 11 12 2
15 12 13 1
16 13 14 1
17 14 15 2
18 14 16 1
19 16 17 1
20 17 18 1
21 18 19 2
22 18 23 1
23 19 20 1
24 19 24 1
25 20 21 2
26 21 22 1
27 22 23 2
28 24 25 1
29 26 27 1
30 27 28 1
31 27 32 1
32 28 29 1
33 29 30 1
34 30 31 1
35 31 32 1
36 3 33 1
37 6 34 1
38 7 35 1
39 13 36 1
40 16 37 1
41 16 38 1
42 20 39 1
43 21 40 1
44 22 41 1
45 23 42 1
46 25 43 1
47 25 44 1
48 25 45 1
49 26 46 1
50 26 47 1
51 28 48 1
52 28 49 1
53 29 50 1
54 29 51 1
55 31 52 1
56 31 53 1
57 32 54 1
58 32 55 1
@<TRIPOS>SUBSTRUCTURE
1	UNK0	1	GROUP	1 ****	UNK
