# created with PyMOL 2.3.2
@<TRIPOS>MOLECULE
487
59 62 1                 
SMALL
USER_CHARGES
@<TRIPOS>ATOM
1	  Br	-0.775	0.510	-6.523	Br	1	UNK0	0.000	
2	   C	-0.642	-0.355	-4.828	C.2	1	UNK0	0.000	
3	   C	-0.391	0.340	-3.671	C.2	1	UNK0	0.000	
4	   C	-0.304	-0.330	-2.470	C.2	1	UNK0	0.000	
5	   C	-0.469	-1.694	-2.429	C.2	1	UNK0	0.000	
6	   C	-0.722	-2.397	-3.595	C.2	1	UNK0	0.000	
7	   C	-0.807	-1.713	-4.789	C.2	1	UNK0	0.000	
8	   N	-0.335	-2.170	-1.069	N.pl3	1	UNK0	0.000	
9	   C	-0.077	-1.029	-0.256	C.2	1	UNK0	0.000	
10	   O	0.101	-1.006	0.993	O.2	1	UNK0	0.000	
11	   C	-0.047	0.162	-1.094	C.2	1	UNK0	0.000	
12	   N	0.152	1.397	-0.796	N.2	1	UNK0	0.000	
13	   N	0.384	1.742	0.537	N.pl3	1	UNK0	0.000	
14	   C	1.693	1.698	1.085	C.2	1	UNK0	0.000	
15	   O	2.638	1.328	0.323	O.2	1	UNK0	0.000	
16	   C	2.009	2.055	2.481	C.3	1	UNK0	0.000	
17	   O	0.955	2.588	3.213	O.3	1	UNK0	0.000	
18	   C	0.348	3.789	2.858	C.2	1	UNK0	0.000	
19	   C	-0.710	4.282	3.602	C.2	1	UNK0	0.000	
20	   C	-1.321	5.472	3.264	C.2	1	UNK0	0.000	
21	   C	-0.875	6.175	2.176	C.2	1	UNK0	0.000	
22	   C	0.167	5.712	1.423	C.2	1	UNK0	0.000	
23	   C	0.775	4.519	1.768	C.2	1	UNK0	0.000	
24	   O	-1.487	7.361	1.843	O.3	1	UNK0	0.000	
25	   C	-1.043	8.094	0.733	C.3	1	UNK0	0.000	
26	   C	-0.438	-3.553	-0.678	C.3	1	UNK0	0.000	
27	   N	0.756	-4.271	-0.728	N.3	1	UNK0	0.000	
28	   C	1.863	-3.896	0.024	C.3	1	UNK0	0.000	
29	   C	3.204	-4.340	-0.475	C.3	1	UNK0	0.000	
30	   N	3.173	-5.609	-1.157	N.3	1	UNK0	0.000	
31	   C	1.946	-6.335	-0.918	C.3	1	UNK0	0.000	
32	   C	0.743	-5.541	-1.349	C.3	1	UNK0	0.000	
33	   C	3.503	-5.518	-2.555	C.3	1	UNK0	0.000	
34	   H	-0.263	1.412	-3.711	 H	1	UNK0	0.000	
35	   H	-0.849	-3.455	-3.552	 H	1	UNK0	0.000	
36	   H	-1.005	-2.254	-5.712	 H	1	UNK0	0.000	
37	   H	-0.424	2.028	1.137	 H	1	UNK0	0.000	
38	   H	2.828	2.822	2.490	 H	1	UNK0	0.000	
39	   H	2.434	1.192	3.043	 H	1	UNK0	0.000	
40	   H	-1.061	3.720	4.468	 H	1	UNK0	0.000	
41	   H	-2.161	5.833	3.881	 H	1	UNK0	0.000	
42	   H	0.546	6.258	0.543	 H	1	UNK0	0.000	
43	   H	1.601	4.167	1.162	 H	1	UNK0	0.000	
44	   H	0.065	8.293	0.814	 H	1	UNK0	0.000	
45	   H	-1.542	9.061	0.613	 H	1	UNK0	0.000	
46	   H	-1.152	7.506	-0.219	 H	1	UNK0	0.000	
47	   H	-0.885	-3.620	0.335	 H	1	UNK0	0.000	
48	   H	-1.173	-4.032	-1.385	 H	1	UNK0	0.000	
49	   H	1.922	-2.788	0.106	 H	1	UNK0	0.000	
50	   H	1.729	-4.266	1.084	 H	1	UNK0	0.000	
51	   H	3.871	-4.453	0.405	 H	1	UNK0	0.000	
52	   H	3.668	-3.587	-1.138	 H	1	UNK0	0.000	
53	   H	1.871	-6.563	0.154	 H	1	UNK0	0.000	
54	   H	1.999	-7.288	-1.477	 H	1	UNK0	0.000	
55	   H	-0.153	-6.123	-0.983	 H	1	UNK0	0.000	
56	   H	0.732	-5.485	-2.449	 H	1	UNK0	0.000	
57	   H	3.020	-4.666	-3.065	 H	1	UNK0	0.000	
58	   H	4.607	-5.463	-2.641	 H	1	UNK0	0.000	
59	   H	3.218	-6.497	-3.015	 H	1	UNK0	0.000	
@<TRIPOS>BOND
1 1 2 1
2 2 3 2
3 2 7 1
4 3 4 1
5 4 5 2
6 4 11 1
7 5 6 1
8 5 8 1
9 6 7 2
10 8 9 1
11 8 26 1
12 9 10 2
13 9 11 1
14 11 12 2
15 12 13 1
16 13 14 1
17 14 15 2
18 14 16 1
19 16 17 1
20 17 18 1
21 18 19 2
22 18 23 1
23 19 20 1
24 20 21 2
25 21 22 1
26 21 24 1
27 22 23 2
28 24 25 1
29 26 27 1
30 27 28 1
31 27 32 1
32 28 29 1
33 29 30 1
34 30 31 1
35 30 33 1
36 31 32 1
37 3 34 1
38 6 35 1
39 7 36 1
40 13 37 1
41 16 38 1
42 16 39 1
43 19 40 1
44 20 41 1
45 22 42 1
46 23 43 1
47 25 44 1
48 25 45 1
49 25 46 1
50 26 47 1
51 26 48 1
52 28 49 1
53 28 50 1
54 29 51 1
55 29 52 1
56 31 53 1
57 31 54 1
58 32 55 1
59 32 56 1
60 33 57 1
61 33 58 1
62 33 59 1
@<TRIPOS>SUBSTRUCTURE
1	UNK0	1	GROUP	1 ****	UNK
