# created with PyMOL 2.3.2
@<TRIPOS>MOLECULE
488
55 58 1                 
SMALL
USER_CHARGES
@<TRIPOS>ATOM
1	  Br	-7.812	0.002	-0.115	Br	1	UNK0	0.000	
2	   C	-6.058	-0.776	0.012	C.2	1	UNK0	0.000	
3	   C	-5.135	-0.651	-1.006	C.2	1	UNK0	0.000	
4	   C	-3.868	-1.194	-0.954	C.2	1	UNK0	0.000	
5	   C	-3.490	-1.902	0.171	C.2	1	UNK0	0.000	
6	   C	-4.391	-2.043	1.203	C.2	1	UNK0	0.000	
7	   C	-5.673	-1.484	1.130	C.2	1	UNK0	0.000	
8	   N	-2.152	-2.382	0.038	N.pl3	1	UNK0	0.000	
9	   C	-1.697	-1.932	-1.255	C.2	1	UNK0	0.000	
10	   O	-0.573	-2.126	-1.792	O.2	1	UNK0	0.000	
11	   C	-2.757	-1.176	-1.911	C.2	1	UNK0	0.000	
12	   N	-2.680	-0.634	-3.076	N.2	1	UNK0	0.000	
13	   N	-1.532	-0.709	-3.873	N.pl3	1	UNK0	0.000	
14	   C	-0.818	0.500	-4.100	C.2	1	UNK0	0.000	
15	   O	-1.226	1.573	-3.593	O.2	1	UNK0	0.000	
16	   C	0.416	0.501	-4.939	C.3	1	UNK0	0.000	
17	   O	1.041	1.756	-4.993	O.3	1	UNK0	0.000	
18	   C	1.543	2.343	-3.836	C.2	1	UNK0	0.000	
19	   C	1.492	1.759	-2.593	C.2	1	UNK0	0.000	
20	   C	1.996	2.359	-1.444	C.2	1	UNK0	0.000	
21	   C	2.582	3.598	-1.525	C.2	1	UNK0	0.000	
22	   C	2.643	4.198	-2.763	C.2	1	UNK0	0.000	
23	   C	2.145	3.608	-3.901	C.2	1	UNK0	0.000	
24	   O	3.098	4.226	-0.386	O.3	1	UNK0	0.000	
25	   C	3.042	3.624	0.886	C.3	1	UNK0	0.000	
26	   C	-1.421	-3.147	0.993	C.3	1	UNK0	0.000	
27	   N	-0.670	-2.413	1.944	N.3	1	UNK0	0.000	
28	   C	0.029	-3.261	2.882	C.3	1	UNK0	0.000	
29	   C	0.560	-2.478	4.064	C.3	1	UNK0	0.000	
30	   O	0.815	-1.150	3.726	O.3	1	UNK0	0.000	
31	   C	1.328	-1.081	2.433	C.3	1	UNK0	0.000	
32	   C	0.250	-1.451	1.436	C.3	1	UNK0	0.000	
33	   H	-5.424	-0.101	-1.885	 H	1	UNK0	0.000	
34	   H	-4.150	-2.580	2.094	 H	1	UNK0	0.000	
35	   H	-6.395	-1.583	1.929	 H	1	UNK0	0.000	
36	   H	-1.217	-1.625	-4.284	 H	1	UNK0	0.000	
37	   H	1.128	-0.190	-4.424	 H	1	UNK0	0.000	
38	   H	0.142	0.160	-5.951	 H	1	UNK0	0.000	
39	   H	1.064	0.794	-2.457	 H	1	UNK0	0.000	
40	   H	1.928	1.852	-0.484	 H	1	UNK0	0.000	
41	   H	3.113	5.191	-2.826	 H	1	UNK0	0.000	
42	   H	2.188	4.070	-4.877	 H	1	UNK0	0.000	
43	   H	3.416	2.562	0.864	 H	1	UNK0	0.000	
44	   H	3.692	4.205	1.574	 H	1	UNK0	0.000	
45	   H	2.017	3.597	1.306	 H	1	UNK0	0.000	
46	   H	-2.145	-3.820	1.505	 H	1	UNK0	0.000	
47	   H	-0.728	-3.836	0.436	 H	1	UNK0	0.000	
48	   H	0.857	-3.741	2.362	 H	1	UNK0	0.000	
49	   H	-0.701	-3.992	3.285	 H	1	UNK0	0.000	
50	   H	-0.096	-2.509	4.936	 H	1	UNK0	0.000	
51	   H	1.533	-2.931	4.342	 H	1	UNK0	0.000	
52	   H	1.637	-0.044	2.203	 H	1	UNK0	0.000	
53	   H	2.173	-1.772	2.286	 H	1	UNK0	0.000	
54	   H	-0.312	-0.556	1.093	 H	1	UNK0	0.000	
55	   H	0.778	-1.917	0.570	 H	1	UNK0	0.000	
@<TRIPOS>BOND
1 1 2 1
2 2 3 2
3 2 7 1
4 3 4 1
5 4 5 2
6 4 11 1
7 5 6 1
8 5 8 1
9 6 7 2
10 8 9 1
11 8 26 1
12 9 10 2
13 9 11 1
14 11 12 2
15 12 13 1
16 13 14 1
17 14 15 2
18 14 16 1
19 16 17 1
20 17 18 1
21 18 19 2
22 18 23 1
23 19 20 1
24 20 21 2
25 21 22 1
26 21 24 1
27 22 23 2
28 24 25 1
29 26 27 1
30 27 28 1
31 27 32 1
32 28 29 1
33 29 30 1
34 30 31 1
35 31 32 1
36 3 33 1
37 6 34 1
38 7 35 1
39 13 36 1
40 16 37 1
41 16 38 1
42 19 39 1
43 20 40 1
44 22 41 1
45 23 42 1
46 25 43 1
47 25 44 1
48 25 45 1
49 26 46 1
50 26 47 1
51 28 48 1
52 28 49 1
53 29 50 1
54 29 51 1
55 31 52 1
56 31 53 1
57 32 54 1
58 32 55 1
@<TRIPOS>SUBSTRUCTURE
1	UNK0	1	GROUP	1 ****	UNK
