# created with PyMOL 2.3.2
@<TRIPOS>MOLECULE
489
62 65 1                 
SMALL
USER_CHARGES
@<TRIPOS>ATOM
1	  Br	-2.301	3.839	-4.476	Br	1	UNK0	0.000	
2	   C	-0.957	2.853	-3.499	C.2	1	UNK0	0.000	
3	   C	-0.921	1.477	-3.584	C.2	1	UNK0	0.000	
4	   C	0.014	0.761	-2.867	C.2	1	UNK0	0.000	
5	   C	0.942	1.387	-2.046	C.2	1	UNK0	0.000	
6	   C	0.874	2.780	-1.990	C.2	1	UNK0	0.000	
7	   C	-0.047	3.497	-2.692	C.2	1	UNK0	0.000	
8	   N	1.724	0.431	-1.379	N.pl3	1	UNK0	0.000	
9	   C	1.244	-0.870	-1.813	C.2	1	UNK0	0.000	
10	   O	1.715	-1.961	-1.414	O.2	1	UNK0	0.000	
11	   C	0.161	-0.683	-2.759	C.2	1	UNK0	0.000	
12	   N	-0.485	-1.620	-3.444	N.2	1	UNK0	0.000	
13	   N	-0.152	-2.958	-3.099	N.pl3	1	UNK0	0.000	
14	   C	-1.040	-4.034	-3.259	C.2	1	UNK0	0.000	
15	   O	-2.124	-3.939	-3.840	O.2	1	UNK0	0.000	
16	   C	-0.635	-5.357	-2.644	C.3	1	UNK0	0.000	
17	   O	0.518	-4.951	-1.803	O.3	1	UNK0	0.000	
18	   N	0.101	-4.540	-0.612	N.2	1	UNK0	0.000	
19	   C	0.539	-4.280	0.509	C.2	1	UNK0	0.000	
20	   C	-0.391	-3.813	1.553	C.2	1	UNK0	0.000	
21	   C	0.010	-3.482	2.815	C.2	1	UNK0	0.000	
22	   C	-0.870	-2.983	3.749	C.2	1	UNK0	0.000	
23	   C	-2.200	-2.809	3.411	C.2	1	UNK0	0.000	
24	   C	-2.622	-3.135	2.155	C.2	1	UNK0	0.000	
25	   C	-1.724	-3.627	1.254	C.2	1	UNK0	0.000	
26	   O	-3.098	-2.310	4.332	O.3	1	UNK0	0.000	
27	   C	-4.441	-2.125	3.993	C.3	1	UNK0	0.000	
28	   C	2.774	0.636	-0.429	C.3	1	UNK0	0.000	
29	   N	2.405	0.800	0.895	N.3	1	UNK0	0.000	
30	   C	1.562	-0.080	1.586	C.3	1	UNK0	0.000	
31	   C	0.383	0.697	2.197	C.3	1	UNK0	0.000	
32	   N	0.741	1.999	2.624	N.3	1	UNK0	0.000	
33	   C	2.139	2.244	2.846	C.3	1	UNK0	0.000	
34	   C	3.009	1.827	1.681	C.3	1	UNK0	0.000	
35	   C	0.087	3.083	1.925	C.3	1	UNK0	0.000	
36	   H	-1.646	1.022	-4.233	 H	1	UNK0	0.000	
37	   H	1.574	3.310	-1.357	 H	1	UNK0	0.000	
38	   H	-0.116	4.591	-2.642	 H	1	UNK0	0.000	
39	   H	0.814	-3.182	-2.757	 H	1	UNK0	0.000	
40	   H	-1.353	-5.808	-2.001	 H	1	UNK0	0.000	
41	   H	-0.212	-6.012	-3.397	 H	1	UNK0	0.000	
42	   H	1.581	-4.397	0.703	 H	1	UNK0	0.000	
43	   H	1.056	-3.604	3.103	 H	1	UNK0	0.000	
44	   H	-0.550	-2.721	4.732	 H	1	UNK0	0.000	
45	   H	-3.666	-3.007	1.868	 H	1	UNK0	0.000	
46	   H	-2.069	-3.882	0.252	 H	1	UNK0	0.000	
47	   H	-4.532	-1.248	3.343	 H	1	UNK0	0.000	
48	   H	-5.012	-2.006	4.963	 H	1	UNK0	0.000	
49	   H	-4.890	-2.979	3.448	 H	1	UNK0	0.000	
50	   H	3.528	-0.220	-0.475	 H	1	UNK0	0.000	
51	   H	3.430	1.520	-0.725	 H	1	UNK0	0.000	
52	   H	2.096	-0.558	2.430	 H	1	UNK0	0.000	
53	   H	1.147	-0.847	0.940	 H	1	UNK0	0.000	
54	   H	0.019	0.102	3.052	 H	1	UNK0	0.000	
55	   H	-0.414	0.693	1.421	 H	1	UNK0	0.000	
56	   H	2.265	3.354	2.968	 H	1	UNK0	0.000	
57	   H	2.454	1.786	3.793	 H	1	UNK0	0.000	
58	   H	3.933	1.374	2.151	 H	1	UNK0	0.000	
59	   H	3.365	2.707	1.116	 H	1	UNK0	0.000	
60	   H	-0.666	3.508	2.617	 H	1	UNK0	0.000	
61	   H	-0.424	2.797	1.001	 H	1	UNK0	0.000	
62	   H	0.795	3.905	1.674	 H	1	UNK0	0.000	
@<TRIPOS>BOND
1 1 2 1
2 2 3 2
3 2 7 1
4 3 4 1
5 4 5 2
6 4 11 1
7 5 6 1
8 5 8 1
9 6 7 2
10 8 9 1
11 8 28 1
12 9 10 2
13 9 11 1
14 11 12 2
15 12 13 1
16 13 14 1
17 14 15 2
18 14 16 1
19 16 17 1
20 17 18 1
21 18 19 2
22 19 20 1
23 20 21 2
24 20 25 1
25 21 22 1
26 22 23 2
27 23 24 1
28 23 26 1
29 24 25 2
30 26 27 1
31 28 29 1
32 29 30 1
33 29 34 1
34 30 31 1
35 31 32 1
36 32 33 1
37 32 35 1
38 33 34 1
39 3 36 1
40 6 37 1
41 7 38 1
42 13 39 1
43 16 40 1
44 16 41 1
45 19 42 1
46 21 43 1
47 22 44 1
48 24 45 1
49 25 46 1
50 27 47 1
51 27 48 1
52 27 49 1
53 28 50 1
54 28 51 1
55 30 52 1
56 30 53 1
57 31 54 1
58 31 55 1
59 33 56 1
60 33 57 1
61 34 58 1
62 34 59 1
63 35 60 1
64 35 61 1
65 35 62 1
@<TRIPOS>SUBSTRUCTURE
1	UNK0	1	GROUP	1 ****	UNK
