# created with PyMOL 2.3.2
@<TRIPOS>MOLECULE
490
50 53 1                 
SMALL
USER_CHARGES
@<TRIPOS>ATOM
1	  Br	-2.568	-0.934	7.041	Br	1	UNK0	0.000	
2	   C	-1.568	-0.524	5.457	C.2	1	UNK0	0.000	
3	   C	-2.291	-0.249	4.321	C.2	1	UNK0	0.000	
4	   C	-1.586	0.050	3.160	C.2	1	UNK0	0.000	
5	   C	-0.207	0.067	3.166	C.2	1	UNK0	0.000	
6	   C	0.497	-0.213	4.319	C.2	1	UNK0	0.000	
7	   C	-0.179	-0.513	5.483	C.2	1	UNK0	0.000	
8	   N	0.254	0.405	1.837	N.pl3	1	UNK0	0.000	
9	   C	-0.883	0.597	1.013	C.2	1	UNK0	0.000	
10	   O	-0.995	0.901	-0.203	O.2	1	UNK0	0.000	
11	   C	-2.092	0.375	1.837	C.2	1	UNK0	0.000	
12	   N	-3.314	0.461	1.429	N.2	1	UNK0	0.000	
13	   N	-3.615	0.789	0.104	N.pl3	1	UNK0	0.000	
14	   C	-4.125	-0.219	-0.739	C.2	1	UNK0	0.000	
15	   O	-4.294	-1.374	-0.280	O.2	1	UNK0	0.000	
16	   C	-4.469	0.013	-2.130	C.2	1	UNK0	0.000	
17	   C	-4.973	-1.012	-2.936	C.2	1	UNK0	0.000	
18	   C	-5.293	-0.769	-4.254	C.2	1	UNK0	0.000	
19	   N	-5.144	0.433	-4.822	N.2	1	UNK0	0.000	
20	   C	-4.668	1.435	-4.091	C.2	1	UNK0	0.000	
21	   C	-4.336	1.230	-2.767	C.2	1	UNK0	0.000	
22	   C	1.617	0.524	1.389	C.3	1	UNK0	0.000	
23	   N	2.225	-0.661	0.915	N.3	1	UNK0	0.000	
24	   C	1.615	-1.280	-0.201	C.3	1	UNK0	0.000	
25	   C	1.932	-0.462	-1.430	C.3	1	UNK0	0.000	
26	   N	3.342	-0.366	-1.685	N.3	1	UNK0	0.000	
27	   C	4.157	-0.157	-0.540	C.3	1	UNK0	0.000	
28	   C	3.632	-0.602	0.758	C.3	1	UNK0	0.000	
29	   C	3.519	0.729	-2.653	C.3	1	UNK0	0.000	
30	   H	-3.374	-0.256	4.292	 H	1	UNK0	0.000	
31	   H	1.578	-0.209	4.358	 H	1	UNK0	0.000	
32	   H	0.327	-0.740	6.418	 H	1	UNK0	0.000	
33	   H	-3.479	1.744	-0.289	 H	1	UNK0	0.000	
34	   H	-5.109	-1.997	-2.518	 H	1	UNK0	0.000	
35	   H	-5.690	-1.566	-4.897	 H	1	UNK0	0.000	
36	   H	-4.537	2.421	-4.530	 H	1	UNK0	0.000	
37	   H	-3.955	2.080	-2.226	 H	1	UNK0	0.000	
38	   H	2.278	0.959	2.190	 H	1	UNK0	0.000	
39	   H	1.670	1.277	0.546	 H	1	UNK0	0.000	
40	   H	0.514	-1.337	-0.112	 H	1	UNK0	0.000	
41	   H	2.048	-2.297	-0.356	 H	1	UNK0	0.000	
42	   H	1.462	0.534	-1.342	 H	1	UNK0	0.000	
43	   H	1.464	-0.972	-2.296	 H	1	UNK0	0.000	
44	   H	5.137	-0.689	-0.726	 H	1	UNK0	0.000	
45	   H	4.438	0.925	-0.511	 H	1	UNK0	0.000	
46	   H	4.035	0.077	1.566	 H	1	UNK0	0.000	
47	   H	4.049	-1.613	1.036	 H	1	UNK0	0.000	
48	   H	3.936	1.609	-2.107	 H	1	UNK0	0.000	
49	   H	4.203	0.382	-3.437	 H	1	UNK0	0.000	
50	   H	2.562	1.044	-3.093	 H	1	UNK0	0.000	
@<TRIPOS>BOND
1 1 2 1
2 2 3 2
3 2 7 1
4 3 4 1
5 4 5 2
6 4 11 1
7 5 6 1
8 5 8 1
9 6 7 2
10 8 9 1
11 8 22 1
12 9 10 2
13 9 11 1
14 11 12 2
15 12 13 1
16 13 14 1
17 14 15 2
18 14 16 1
19 16 17 2
20 16 21 1
21 17 18 1
22 18 19 2
23 19 20 1
24 20 21 2
25 22 23 1
26 23 24 1
27 23 28 1
28 24 25 1
29 25 26 1
30 26 27 1
31 26 29 1
32 27 28 1
33 3 30 1
34 6 31 1
35 7 32 1
36 13 33 1
37 17 34 1
38 18 35 1
39 20 36 1
40 21 37 1
41 22 38 1
42 22 39 1
43 24 40 1
44 24 41 1
45 25 42 1
46 25 43 1
47 27 44 1
48 27 45 1
49 28 46 1
50 28 47 1
51 29 48 1
52 29 49 1
53 29 50 1
@<TRIPOS>SUBSTRUCTURE
1	UNK0	1	GROUP	1 ****	UNK
