# created with PyMOL 2.3.2
@<TRIPOS>MOLECULE
491
46 49 1                 
SMALL
USER_CHARGES
@<TRIPOS>ATOM
1	  Br	-6.264	2.276	1.253	Br	1	UNK0	0.000	
2	   C	-4.674	1.265	1.480	C.2	1	UNK0	0.000	
3	   C	-3.951	0.848	0.399	C.2	1	UNK0	0.000	
4	   C	-2.785	0.107	0.541	C.2	1	UNK0	0.000	
5	   C	-2.312	-0.236	1.791	C.2	1	UNK0	0.000	
6	   C	-3.044	0.187	2.876	C.2	1	UNK0	0.000	
7	   C	-4.212	0.928	2.753	C.2	1	UNK0	0.000	
8	   N	-1.090	-1.002	1.671	N.pl3	1	UNK0	0.000	
9	   C	-0.840	-1.111	0.272	C.2	1	UNK0	0.000	
10	   O	0.134	-1.709	-0.248	O.2	1	UNK0	0.000	
11	   C	-1.888	-0.422	-0.477	C.2	1	UNK0	0.000	
12	   N	-1.930	-0.349	-1.750	N.2	1	UNK0	0.000	
13	   N	-0.953	-0.937	-2.579	N.pl3	1	UNK0	0.000	
14	   C	0.266	-0.251	-2.745	C.2	1	UNK0	0.000	
15	   O	0.438	0.846	-2.155	O.2	1	UNK0	0.000	
16	   C	1.339	-0.770	-3.577	C.2	1	UNK0	0.000	
17	   C	1.229	-1.956	-4.251	C.2	1	UNK0	0.000	
18	   C	2.301	-2.394	-5.034	C.2	1	UNK0	0.000	
19	   N	3.435	-1.711	-5.159	N.2	1	UNK0	0.000	
20	   C	3.568	-0.555	-4.516	C.2	1	UNK0	0.000	
21	   C	2.537	-0.083	-3.731	C.2	1	UNK0	0.000	
22	   C	-0.314	-1.512	2.776	C.3	1	UNK0	0.000	
23	   N	0.629	-0.553	3.226	N.3	1	UNK0	0.000	
24	   C	1.582	-0.074	2.279	C.3	1	UNK0	0.000	
25	   C	2.239	1.160	2.930	C.3	1	UNK0	0.000	
26	   O	2.995	0.697	3.975	O.3	1	UNK0	0.000	
27	   C	2.233	0.050	4.946	C.3	1	UNK0	0.000	
28	   C	1.364	-1.023	4.393	C.3	1	UNK0	0.000	
29	   H	-4.285	1.095	-0.595	 H	1	UNK0	0.000	
30	   H	-2.716	-0.056	3.870	 H	1	UNK0	0.000	
31	   H	-4.794	1.265	3.591	 H	1	UNK0	0.000	
32	   H	-1.128	-1.854	-3.057	 H	1	UNK0	0.000	
33	   H	0.350	-2.569	-4.204	 H	1	UNK0	0.000	
34	   H	2.183	-3.334	-5.552	 H	1	UNK0	0.000	
35	   H	4.458	0.068	-4.561	 H	1	UNK0	0.000	
36	   H	2.605	0.860	-3.187	 H	1	UNK0	0.000	
37	   H	-0.967	-1.761	3.655	 H	1	UNK0	0.000	
38	   H	0.234	-2.410	2.421	 H	1	UNK0	0.000	
39	   H	2.394	-0.822	2.184	 H	1	UNK0	0.000	
40	   H	1.134	0.220	1.306	 H	1	UNK0	0.000	
41	   H	2.868	1.700	2.224	 H	1	UNK0	0.000	
42	   H	1.363	1.775	3.285	 H	1	UNK0	0.000	
43	   H	2.977	-0.442	5.633	 H	1	UNK0	0.000	
44	   H	1.669	0.760	5.581	 H	1	UNK0	0.000	
45	   H	0.714	-1.408	5.177	 H	1	UNK0	0.000	
46	   H	2.031	-1.860	4.052	 H	1	UNK0	0.000	
@<TRIPOS>BOND
1 1 2 1
2 2 3 2
3 2 7 1
4 3 4 1
5 4 5 2
6 4 11 1
7 5 6 1
8 5 8 1
9 6 7 2
10 8 9 1
11 8 22 1
12 9 10 2
13 9 11 1
14 11 12 2
15 12 13 1
16 13 14 1
17 14 15 2
18 14 16 1
19 16 17 2
20 16 21 1
21 17 18 1
22 18 19 2
23 19 20 1
24 20 21 2
25 22 23 1
26 23 24 1
27 23 28 1
28 24 25 1
29 25 26 1
30 26 27 1
31 27 28 1
32 3 29 1
33 6 30 1
34 7 31 1
35 13 32 1
36 17 33 1
37 18 34 1
38 20 35 1
39 21 36 1
40 22 37 1
41 22 38 1
42 24 39 1
43 24 40 1
44 25 41 1
45 25 42 1
46 27 43 1
47 27 44 1
48 28 45 1
49 28 46 1
@<TRIPOS>SUBSTRUCTURE
1	UNK0	1	GROUP	1 ****	UNK
