# created with PyMOL 2.3.2
@<TRIPOS>MOLECULE
496
44 47 1                 
SMALL
USER_CHARGES
@<TRIPOS>ATOM
1	  Br	2.115	-5.947	-2.058	Br	1	UNK0	0.000	
2	   C	1.577	-4.236	-1.413	C.2	1	UNK0	0.000	
3	   C	2.193	-3.063	-1.794	C.2	1	UNK0	0.000	
4	   C	1.770	-1.845	-1.302	C.2	1	UNK0	0.000	
5	   C	0.713	-1.789	-0.411	C.2	1	UNK0	0.000	
6	   C	0.115	-2.976	-0.046	C.2	1	UNK0	0.000	
7	   C	0.520	-4.203	-0.524	C.2	1	UNK0	0.000	
8	   N	0.448	-0.443	-0.038	N.pl3	1	UNK0	0.000	
9	   C	1.403	0.375	-0.746	C.2	1	UNK0	0.000	
10	   O	1.536	1.619	-0.719	O.2	1	UNK0	0.000	
11	   C	2.263	-0.489	-1.562	C.2	1	UNK0	0.000	
12	   N	3.228	-0.107	-2.328	N.2	1	UNK0	0.000	
13	   N	3.571	1.241	-2.464	N.pl3	1	UNK0	0.000	
14	   C	2.756	2.095	-3.253	C.2	1	UNK0	0.000	
15	   O	1.735	1.635	-3.823	O.2	1	UNK0	0.000	
16	   C	3.073	3.518	-3.428	C.2	1	UNK0	0.000	
17	   O	2.407	4.402	-4.124	O.3	1	UNK0	0.000	
18	   C	2.946	5.574	-4.078	C.2	1	UNK0	0.000	
19	   C	4.065	5.497	-3.294	C.2	1	UNK0	0.000	
20	   C	4.152	4.195	-2.878	C.2	1	UNK0	0.000	
21	   C	-0.555	0.099	0.854	C.3	1	UNK0	0.000	
22	   N	-0.115	0.214	2.200	N.3	1	UNK0	0.000	
23	   C	-1.183	0.757	3.015	C.3	1	UNK0	0.000	
24	   C	-2.355	-0.204	3.089	C.3	1	UNK0	0.000	
25	   O	-1.985	-1.515	2.813	O.3	1	UNK0	0.000	
26	   C	-0.751	-1.849	3.343	C.3	1	UNK0	0.000	
27	   C	0.362	-0.974	2.824	C.3	1	UNK0	0.000	
28	   H	3.014	-3.136	-2.490	 H	1	UNK0	0.000	
29	   H	-0.714	-2.966	0.648	 H	1	UNK0	0.000	
30	   H	0.024	-5.136	-0.215	 H	1	UNK0	0.000	
31	   H	4.410	1.662	-2.007	 H	1	UNK0	0.000	
32	   H	2.622	6.503	-4.553	 H	1	UNK0	0.000	
33	   H	4.730	6.297	-3.060	 H	1	UNK0	0.000	
34	   H	4.916	3.787	-2.246	 H	1	UNK0	0.000	
35	   H	-1.462	-0.522	0.720	 H	1	UNK0	0.000	
36	   H	-0.868	1.133	0.530	 H	1	UNK0	0.000	
37	   H	-0.869	0.956	4.054	 H	1	UNK0	0.000	
38	   H	-1.472	1.729	2.569	 H	1	UNK0	0.000	
39	   H	-2.922	-0.104	4.038	 H	1	UNK0	0.000	
40	   H	-3.060	0.107	2.277	 H	1	UNK0	0.000	
41	   H	-0.829	-1.861	4.444	 H	1	UNK0	0.000	
42	   H	-0.524	-2.889	3.035	 H	1	UNK0	0.000	
43	   H	0.928	-0.639	3.745	 H	1	UNK0	0.000	
44	   H	1.121	-1.513	2.229	 H	1	UNK0	0.000	
@<TRIPOS>BOND
1 1 2 1
2 2 3 2
3 2 7 1
4 3 4 1
5 4 5 2
6 4 11 1
7 5 6 1
8 5 8 1
9 6 7 2
10 8 9 1
11 8 21 1
12 9 10 2
13 9 11 1
14 11 12 2
15 12 13 1
16 13 14 1
17 14 15 2
18 14 16 1
19 16 17 1
20 16 20 2
21 17 18 1
22 18 19 2
23 19 20 1
24 21 22 1
25 22 23 1
26 22 27 1
27 23 24 1
28 24 25 1
29 25 26 1
30 26 27 1
31 3 28 1
32 6 29 1
33 7 30 1
34 13 31 1
35 18 32 1
36 19 33 1
37 20 34 1
38 21 35 1
39 21 36 1
40 23 37 1
41 23 38 1
42 24 39 1
43 24 40 1
44 26 41 1
45 26 42 1
46 27 43 1
47 27 44 1
@<TRIPOS>SUBSTRUCTURE
1	UNK0	1	GROUP	1 ****	UNK
