# created with PyMOL 2.3.2
@<TRIPOS>MOLECULE
497
47 50 1                 
SMALL
USER_CHARGES
@<TRIPOS>ATOM
1	  Br	-3.645	2.608	4.292	Br	1	UNK0	0.000	
2	   C	-3.494	1.620	2.644	C.2	1	UNK0	0.000	
3	   C	-4.560	0.951	2.113	C.2	1	UNK0	0.000	
4	   C	-4.456	0.234	0.920	C.2	1	UNK0	0.000	
5	   C	-3.257	0.193	0.253	C.2	1	UNK0	0.000	
6	   C	-2.192	0.891	0.832	C.2	1	UNK0	0.000	
7	   C	-2.283	1.597	2.003	C.2	1	UNK0	0.000	
8	   N	-3.087	-0.499	-0.978	N.pl3	1	UNK0	0.000	
9	   C	-4.240	-1.155	-1.492	C.2	1	UNK0	0.000	
10	   O	-4.116	-2.162	-2.221	O.2	1	UNK0	0.000	
11	   C	-5.569	-0.561	-1.102	C.3	1	UNK0	0.000	
12	   C	-5.618	-0.504	0.393	C.3	1	UNK0	0.000	
13	   C	-1.809	-0.511	-1.603	C.3	1	UNK0	0.000	
14	   C	-0.924	-1.594	-1.187	C.2	1	UNK0	0.000	
15	   O	-1.309	-2.428	-0.339	O.2	1	UNK0	0.000	
16	   N	0.370	-1.707	-1.740	N.pl3	1	UNK0	0.000	
17	   C	0.821	-0.743	-2.724	C.3	1	UNK0	0.000	
18	   C	2.050	0.004	-2.258	C.3	1	UNK0	0.000	
19	   N	2.740	-0.863	-1.330	N.pl3	1	UNK0	0.000	
20	   C	2.741	-2.273	-1.636	C.3	1	UNK0	0.000	
21	   C	1.305	-2.755	-1.377	C.3	1	UNK0	0.000	
22	   C	3.401	-0.417	-0.159	C.2	1	UNK0	0.000	
23	   N	4.031	-1.238	0.684	N.2	1	UNK0	0.000	
24	   C	4.662	-0.866	1.789	C.2	1	UNK0	0.000	
25	   C	4.691	0.456	2.128	C.2	1	UNK0	0.000	
26	   C	4.049	1.346	1.282	C.2	1	UNK0	0.000	
27	   N	3.425	0.907	0.173	N.2	1	UNK0	0.000	
28	   H	-5.518	0.971	2.625	 H	1	UNK0	0.000	
29	   H	-1.221	0.881	0.346	 H	1	UNK0	0.000	
30	   H	-1.413	2.110	2.385	 H	1	UNK0	0.000	
31	   H	-6.408	-1.158	-1.469	 H	1	UNK0	0.000	
32	   H	-5.644	0.487	-1.486	 H	1	UNK0	0.000	
33	   H	-5.509	-1.555	0.780	 H	1	UNK0	0.000	
34	   H	-6.559	-0.043	0.760	 H	1	UNK0	0.000	
35	   H	-1.363	0.496	-1.552	 H	1	UNK0	0.000	
36	   H	-2.035	-0.697	-2.715	 H	1	UNK0	0.000	
37	   H	1.071	-1.302	-3.650	 H	1	UNK0	0.000	
38	   H	-0.012	-0.055	-2.989	 H	1	UNK0	0.000	
39	   H	2.747	0.169	-3.125	 H	1	UNK0	0.000	
40	   H	1.824	1.000	-1.847	 H	1	UNK0	0.000	
41	   H	3.002	-2.418	-2.708	 H	1	UNK0	0.000	
42	   H	3.452	-2.778	-0.962	 H	1	UNK0	0.000	
43	   H	1.172	-3.131	-0.362	 H	1	UNK0	0.000	
44	   H	1.158	-3.615	-2.081	 H	1	UNK0	0.000	
45	   H	5.136	-1.652	2.386	 H	1	UNK0	0.000	
46	   H	5.205	0.756	3.027	 H	1	UNK0	0.000	
47	   H	4.080	2.397	1.563	 H	1	UNK0	0.000	
@<TRIPOS>BOND
1 1 2 1
2 2 3 2
3 2 7 1
4 3 4 1
5 4 5 2
6 4 12 1
7 5 6 1
8 5 8 1
9 6 7 2
10 8 9 1
11 8 13 1
12 9 10 2
13 9 11 1
14 11 12 1
15 13 14 1
16 14 15 2
17 14 16 1
18 16 17 1
19 16 21 1
20 17 18 1
21 18 19 1
22 19 20 1
23 19 22 1
24 20 21 1
25 22 23 2
26 22 27 1
27 23 24 1
28 24 25 2
29 25 26 1
30 26 27 2
31 3 28 1
32 6 29 1
33 7 30 1
34 11 31 1
35 11 32 1
36 12 33 1
37 12 34 1
38 13 35 1
39 13 36 1
40 17 37 1
41 17 38 1
42 18 39 1
43 18 40 1
44 20 41 1
45 20 42 1
46 21 43 1
47 21 44 1
48 24 45 1
49 25 46 1
50 26 47 1
@<TRIPOS>SUBSTRUCTURE
1	UNK0	1	GROUP	1 ****	UNK
