# created with PyMOL 2.3.2
@<TRIPOS>MOLECULE
498
47 50 1                 
SMALL
USER_CHARGES
@<TRIPOS>ATOM
1	  Br	-0.227	-6.290	0.633	Br	1	UNK0	0.000	
2	   C	-0.159	-4.778	-0.528	C.2	1	UNK0	0.000	
3	   C	0.492	-4.808	-1.735	C.2	1	UNK0	0.000	
4	   C	0.525	-3.700	-2.555	C.2	1	UNK0	0.000	
5	   C	-0.117	-2.545	-2.134	C.2	1	UNK0	0.000	
6	   C	-0.766	-2.533	-0.917	C.2	1	UNK0	0.000	
7	   C	-0.801	-3.628	-0.104	C.2	1	UNK0	0.000	
8	   N	-0.075	-1.388	-2.984	N.pl3	1	UNK0	0.000	
9	   C	0.622	-1.471	-4.219	C.2	1	UNK0	0.000	
10	   O	0.368	-0.643	-5.120	O.2	1	UNK0	0.000	
11	   C	1.629	-2.539	-4.399	C.3	1	UNK0	0.000	
12	   O	1.181	-3.719	-3.779	O.3	1	UNK0	0.000	
13	   C	-0.743	-0.188	-2.544	C.3	1	UNK0	0.000	
14	   C	0.155	0.685	-1.741	C.2	1	UNK0	0.000	
15	   O	1.346	0.350	-1.514	O.2	1	UNK0	0.000	
16	   N	-0.299	1.914	-1.210	N.pl3	1	UNK0	0.000	
17	   C	0.558	2.773	-0.429	C.3	1	UNK0	0.000	
18	   C	0.750	4.128	-1.104	C.3	1	UNK0	0.000	
19	   C	-0.016	3.024	0.934	C.2	1	UNK0	0.000	
20	   N	0.628	2.989	2.107	N.pl3	1	UNK0	0.000	
21	   C	-0.216	3.267	3.105	C.2	1	UNK0	0.000	
22	   N	-1.419	3.481	2.532	N.2	1	UNK0	0.000	
23	   N	-1.293	3.333	1.223	N.2	1	UNK0	0.000	
24	   C	0.303	3.280	4.497	C.3	1	UNK0	0.000	
25	   C	1.594	4.015	4.560	C.3	1	UNK0	0.000	
26	   C	2.529	3.741	3.427	C.3	1	UNK0	0.000	
27	   C	2.007	2.716	2.454	C.3	1	UNK0	0.000	
28	   H	0.981	-5.715	-2.037	 H	1	UNK0	0.000	
29	   H	-1.253	-1.587	-0.638	 H	1	UNK0	0.000	
30	   H	-1.322	-3.591	0.853	 H	1	UNK0	0.000	
31	   H	1.837	-2.748	-5.472	 H	1	UNK0	0.000	
32	   H	2.583	-2.250	-3.898	 H	1	UNK0	0.000	
33	   H	-0.966	0.369	-3.514	 H	1	UNK0	0.000	
34	   H	-1.737	-0.337	-2.107	 H	1	UNK0	0.000	
35	   H	-1.281	2.196	-1.394	 H	1	UNK0	0.000	
36	   H	1.571	2.342	-0.319	 H	1	UNK0	0.000	
37	   H	1.781	4.271	-1.465	 H	1	UNK0	0.000	
38	   H	0.444	4.962	-0.438	 H	1	UNK0	0.000	
39	   H	0.057	4.164	-1.979	 H	1	UNK0	0.000	
40	   H	-0.461	3.805	5.123	 H	1	UNK0	0.000	
41	   H	0.412	2.264	4.919	 H	1	UNK0	0.000	
42	   H	1.362	5.115	4.603	 H	1	UNK0	0.000	
43	   H	2.058	3.796	5.563	 H	1	UNK0	0.000	
44	   H	2.828	4.697	2.918	 H	1	UNK0	0.000	
45	   H	3.474	3.326	3.853	 H	1	UNK0	0.000	
46	   H	2.148	1.715	2.897	 H	1	UNK0	0.000	
47	   H	2.628	2.789	1.535	 H	1	UNK0	0.000	
@<TRIPOS>BOND
1 1 2 1
2 2 3 2
3 2 7 1
4 3 4 1
5 4 5 2
6 4 12 1
7 5 6 1
8 5 8 1
9 6 7 2
10 8 9 1
11 8 13 1
12 9 10 2
13 9 11 1
14 11 12 1
15 13 14 1
16 14 15 2
17 14 16 1
18 16 17 1
19 17 18 1
20 17 19 1
21 19 20 1
22 19 23 2
23 20 21 1
24 20 27 1
25 21 22 2
26 21 24 1
27 22 23 1
28 24 25 1
29 25 26 1
30 26 27 1
31 3 28 1
32 6 29 1
33 7 30 1
34 11 31 1
35 11 32 1
36 13 33 1
37 13 34 1
38 16 35 1
39 17 36 1
40 18 37 1
41 18 38 1
42 18 39 1
43 24 40 1
44 24 41 1
45 25 42 1
46 25 43 1
47 26 44 1
48 26 45 1
49 27 46 1
50 27 47 1
@<TRIPOS>SUBSTRUCTURE
1	UNK0	1	GROUP	1 ****	UNK
