# created with PyMOL 2.3.2
@<TRIPOS>MOLECULE
499
41 44 1                 
SMALL
USER_CHARGES
@<TRIPOS>ATOM
1	  Br	-1.062	-0.029	-7.007	Br	1	UNK0	0.000	
2	   C	-0.428	0.439	-5.270	C.2	1	UNK0	0.000	
3	   C	-0.395	1.757	-4.868	C.2	1	UNK0	0.000	
4	   C	0.075	2.038	-3.599	C.2	1	UNK0	0.000	
5	   C	0.502	1.027	-2.752	C.2	1	UNK0	0.000	
6	   C	0.462	-0.307	-3.173	C.2	1	UNK0	0.000	
7	   C	-0.002	-0.582	-4.426	C.2	1	UNK0	0.000	
8	   N	0.977	1.322	-1.445	N.pl3	1	UNK0	0.000	
9	   C	1.002	2.705	-1.023	C.2	1	UNK0	0.000	
10	   O	1.714	3.004	-0.049	O.2	1	UNK0	0.000	
11	   C	0.186	3.687	-1.767	C.3	1	UNK0	0.000	
12	   O	0.136	3.348	-3.128	O.3	1	UNK0	0.000	
13	   C	1.420	0.272	-0.565	C.3	1	UNK0	0.000	
14	   C	0.271	-0.228	0.231	C.2	1	UNK0	0.000	
15	   O	-0.870	0.268	0.070	O.2	1	UNK0	0.000	
16	   N	0.409	-1.273	1.193	N.pl3	1	UNK0	0.000	
17	   C	1.732	-1.840	1.372	C.3	1	UNK0	0.000	
18	   C	1.598	-3.260	1.896	C.3	1	UNK0	0.000	
19	   C	0.899	-3.143	3.199	C.2	1	UNK0	0.000	
20	   N	1.353	-3.732	4.314	N.2	1	UNK0	0.000	
21	   C	0.696	-3.612	5.504	C.2	1	UNK0	0.000	
22	   N	-0.428	-2.873	5.492	N.2	1	UNK0	0.000	
23	   C	-0.923	-2.264	4.401	C.2	1	UNK0	0.000	
24	   C	-0.254	-2.390	3.207	C.2	1	UNK0	0.000	
25	   C	-0.751	-1.740	1.961	C.3	1	UNK0	0.000	
26	   O	-2.083	-1.508	4.418	O.3	1	UNK0	0.000	
27	   H	-0.728	2.561	-5.527	 H	1	UNK0	0.000	
28	   H	0.800	-1.069	-2.480	 H	1	UNK0	0.000	
29	   H	-0.037	-1.602	-4.762	 H	1	UNK0	0.000	
30	   H	-0.864	3.697	-1.382	 H	1	UNK0	0.000	
31	   H	0.652	4.684	-1.677	 H	1	UNK0	0.000	
32	   H	2.102	0.770	0.190	 H	1	UNK0	0.000	
33	   H	1.999	-0.524	-1.017	 H	1	UNK0	0.000	
34	   H	2.273	-1.279	2.190	 H	1	UNK0	0.000	
35	   H	2.325	-1.889	0.453	 H	1	UNK0	0.000	
36	   H	0.887	-3.777	1.207	 H	1	UNK0	0.000	
37	   H	2.564	-3.765	1.969	 H	1	UNK0	0.000	
38	   H	1.055	-4.084	6.409	 H	1	UNK0	0.000	
39	   H	-1.407	-0.886	2.173	 H	1	UNK0	0.000	
40	   H	-1.263	-2.491	1.307	 H	1	UNK0	0.000	
41	   H	-2.202	-0.605	4.031	 H	1	UNK0	0.000	
@<TRIPOS>BOND
1 1 2 1
2 2 3 2
3 2 7 1
4 3 4 1
5 4 5 2
6 4 12 1
7 5 6 1
8 5 8 1
9 6 7 2
10 8 9 1
11 8 13 1
12 9 10 2
13 9 11 1
14 11 12 1
15 13 14 1
16 14 15 2
17 14 16 1
18 16 17 1
19 16 25 1
20 17 18 1
21 18 19 1
22 19 20 2
23 19 24 1
24 20 21 1
25 21 22 2
26 22 23 1
27 23 24 2
28 23 26 1
29 24 25 1
30 3 27 1
31 6 28 1
32 7 29 1
33 11 30 1
34 11 31 1
35 13 32 1
36 13 33 1
37 17 34 1
38 17 35 1
39 18 36 1
40 18 37 1
41 21 38 1
42 25 39 1
43 25 40 1
44 26 41 1
@<TRIPOS>SUBSTRUCTURE
1	UNK0	1	GROUP	1 ****	UNK
