# created with PyMOL 2.3.2
@<TRIPOS>MOLECULE
501
42 45 1                 
SMALL
USER_CHARGES
@<TRIPOS>ATOM
1	  Br	-3.714	2.012	3.342	Br	1	UNK0	0.000	
2	   C	-2.440	1.855	1.937	C.2	1	UNK0	0.000	
3	   C	-1.845	0.623	1.641	C.2	1	UNK0	0.000	
4	   C	-0.926	0.560	0.592	C.2	1	UNK0	0.000	
5	   C	-0.592	1.657	-0.145	C.2	1	UNK0	0.000	
6	   C	-1.188	2.890	0.146	C.2	1	UNK0	0.000	
7	   C	-2.100	2.954	1.185	C.2	1	UNK0	0.000	
8	   N	0.419	1.296	-1.089	N.pl3	1	UNK0	0.000	
9	   C	0.729	-0.063	-0.923	C.2	1	UNK0	0.000	
10	   O	1.660	-0.667	-1.502	O.2	1	UNK0	0.000	
11	   C	-0.213	-0.636	0.023	C.3	1	UNK0	0.000	
12	   C	0.323	-1.489	1.059	C.2	1	UNK0	0.000	
13	   C	-0.128	-2.771	1.231	C.2	1	UNK0	0.000	
14	   N	0.552	-3.314	2.276	N.2	1	UNK0	0.000	
15	   N	1.393	-2.436	2.754	N.pl3	1	UNK0	0.000	
16	   C	1.291	-1.291	2.036	C.2	1	UNK0	0.000	
17	   C	2.100	-0.083	2.214	C.3	1	UNK0	0.000	
18	   C	3.286	-0.106	1.292	C.2	1	UNK0	0.000	
19	   O	3.801	0.982	0.933	O.co2	1	UNK0	0.000	
20	   O	3.748	-1.352	0.885	O.3	1	UNK0	0.000	
21	   C	4.865	-1.464	0.015	C.3	1	UNK0	0.000	
22	   O	-1.117	-3.329	0.431	O.3	1	UNK0	0.000	
23	   C	-1.658	-2.552	-0.572	C.2	1	UNK0	0.000	
24	   C	-1.271	-1.330	-0.783	C.2	1	UNK0	0.000	
25	   C	-1.923	-0.566	-1.859	C.1	1	UNK0	0.000	
26	   N	-2.424	0.039	-2.702	N.1	1	UNK0	0.000	
27	   N	-2.683	-3.079	-1.430	N.pl3	1	UNK0	0.000	
28	   C	0.986	2.250	-2.058	C.3	1	UNK0	0.000	
29	   H	-2.084	-0.251	2.220	 H	1	UNK0	0.000	
30	   H	-0.900	3.744	-0.465	 H	1	UNK0	0.000	
31	   H	-2.553	3.907	1.409	 H	1	UNK0	0.000	
32	   H	2.016	-2.629	3.555	 H	1	UNK0	0.000	
33	   H	1.528	0.861	2.098	 H	1	UNK0	0.000	
34	   H	2.515	-0.089	3.250	 H	1	UNK0	0.000	
35	   H	4.509	-1.875	-0.944	 H	1	UNK0	0.000	
36	   H	5.373	-0.489	-0.147	 H	1	UNK0	0.000	
37	   H	5.535	-2.227	0.480	 H	1	UNK0	0.000	
38	   H	-2.648	-4.061	-1.815	 H	1	UNK0	0.000	
39	   H	-3.493	-2.471	-1.687	 H	1	UNK0	0.000	
40	   H	0.916	3.266	-1.615	 H	1	UNK0	0.000	
41	   H	0.377	2.237	-3.014	 H	1	UNK0	0.000	
42	   H	1.998	1.954	-2.311	 H	1	UNK0	0.000	
@<TRIPOS>BOND
1 1 2 1
2 2 3 2
3 2 7 1
4 3 4 1
5 4 5 2
6 4 11 1
7 5 6 1
8 5 8 1
9 6 7 2
10 8 9 1
11 8 28 1
12 9 10 2
13 9 11 1
14 11 12 1
15 11 24 1
16 12 13 1
17 12 16 2
18 13 14 2
19 13 22 1
20 14 15 1
21 15 16 1
22 16 17 1
23 17 18 1
24 18 19 2
25 18 20 1
26 20 21 1
27 22 23 1
28 23 24 2
29 23 27 1
30 24 25 1
31 25 26 3
32 3 29 1
33 6 30 1
34 7 31 1
35 15 32 1
36 17 33 1
37 17 34 1
38 21 35 1
39 21 36 1
40 21 37 1
41 27 38 1
42 27 39 1
43 28 40 1
44 28 41 1
45 28 42 1
@<TRIPOS>SUBSTRUCTURE
1	UNK0	1	GROUP	1 ****	UNK
