# created with PyMOL 2.3.2
@<TRIPOS>MOLECULE
503
36 39 1                 
SMALL
USER_CHARGES
@<TRIPOS>ATOM
1	  Br	-3.955	-1.443	-1.503	Br	1	UNK0	0.000	
2	   C	-2.175	-0.857	-1.895	C.2	1	UNK0	0.000	
3	   C	-1.351	-0.371	-0.907	C.2	1	UNK0	0.000	
4	   C	-0.058	0.057	-1.176	C.2	1	UNK0	0.000	
5	   C	0.410	-0.004	-2.448	C.2	1	UNK0	0.000	
6	   C	-0.397	-0.493	-3.493	C.2	1	UNK0	0.000	
7	   C	-1.664	-0.901	-3.166	C.2	1	UNK0	0.000	
8	   N	1.752	0.482	-2.505	N.pl3	1	UNK0	0.000	
9	   C	2.130	0.858	-1.216	C.2	1	UNK0	0.000	
10	   O	3.238	1.327	-0.888	O.2	1	UNK0	0.000	
11	   C	1.016	0.616	-0.294	C.3	1	UNK0	0.000	
12	   C	0.558	1.814	0.401	C.2	1	UNK0	0.000	
13	   C	0.571	1.918	1.753	C.2	1	UNK0	0.000	
14	   N	0.087	3.144	2.124	N.pl3	1	UNK0	0.000	
15	   N	-0.222	3.794	1.017	N.2	1	UNK0	0.000	
16	   C	0.045	3.031	-0.047	C.2	1	UNK0	0.000	
17	   C	-0.152	3.374	-1.451	C.3	1	UNK0	0.000	
18	   O	1.022	0.891	2.569	O.3	1	UNK0	0.000	
19	   C	1.464	-0.260	1.944	C.2	1	UNK0	0.000	
20	   C	1.479	-0.426	0.651	C.2	1	UNK0	0.000	
21	   C	1.976	-1.705	0.099	C.1	1	UNK0	0.000	
22	   N	2.358	-2.690	-0.350	N.1	1	UNK0	0.000	
23	   N	1.947	-1.370	2.735	N.pl3	1	UNK0	0.000	
24	   C	2.547	0.548	-3.749	C.3	1	UNK0	0.000	
25	   H	-1.691	-0.308	0.121	 H	1	UNK0	0.000	
26	   H	-0.028	-0.544	-4.510	 H	1	UNK0	0.000	
27	   H	-2.326	-1.288	-3.943	 H	1	UNK0	0.000	
28	   H	-0.002	3.464	3.110	 H	1	UNK0	0.000	
29	   H	-1.160	3.049	-1.840	 H	1	UNK0	0.000	
30	   H	-0.168	4.491	-1.536	 H	1	UNK0	0.000	
31	   H	0.666	3.041	-2.120	 H	1	UNK0	0.000	
32	   H	1.569	-2.307	2.534	 H	1	UNK0	0.000	
33	   H	2.650	-1.245	3.482	 H	1	UNK0	0.000	
34	   H	3.247	-0.311	-3.808	 H	1	UNK0	0.000	
35	   H	3.109	1.520	-3.764	 H	1	UNK0	0.000	
36	   H	1.870	0.475	-4.617	 H	1	UNK0	0.000	
@<TRIPOS>BOND
1 1 2 1
2 2 3 2
3 2 7 1
4 3 4 1
5 4 5 2
6 4 11 1
7 5 6 1
8 5 8 1
9 6 7 2
10 8 9 1
11 8 24 1
12 9 10 2
13 9 11 1
14 11 12 1
15 11 20 1
16 12 13 2
17 12 16 1
18 13 14 1
19 13 18 1
20 14 15 1
21 15 16 2
22 16 17 1
23 18 19 1
24 19 20 2
25 19 23 1
26 20 21 1
27 21 22 3
28 3 25 1
29 6 26 1
30 7 27 1
31 14 28 1
32 17 29 1
33 17 30 1
34 17 31 1
35 23 32 1
36 23 33 1
37 24 34 1
38 24 35 1
39 24 36 1
@<TRIPOS>SUBSTRUCTURE
1	UNK0	1	GROUP	1 ****	UNK
