# created with PyMOL 2.3.2
@<TRIPOS>MOLECULE
506
44 48 1                 
SMALL
USER_CHARGES
@<TRIPOS>ATOM
1	  Br	-0.818	3.813	-3.355	Br	1	UNK0	0.000	
2	   C	-0.406	3.495	-1.502	C.2	1	UNK0	0.000	
3	   C	-0.376	2.211	-1.000	C.2	1	UNK0	0.000	
4	   C	-0.075	1.994	0.347	C.2	1	UNK0	0.000	
5	   C	0.189	3.052	1.165	C.2	1	UNK0	0.000	
6	   C	0.149	4.346	0.617	C.2	1	UNK0	0.000	
7	   C	-0.144	4.576	-0.702	C.2	1	UNK0	0.000	
8	   N	0.474	2.617	2.484	N.pl3	1	UNK0	0.000	
9	   C	0.386	1.215	2.491	C.2	1	UNK0	0.000	
10	   O	0.621	0.553	3.559	O.2	1	UNK0	0.000	
11	   C	0.010	0.753	1.148	C.3	1	UNK0	0.000	
12	   N	0.963	-0.206	0.638	N.3	1	UNK0	0.000	
13	   C	0.523	-0.763	-0.599	C.3	1	UNK0	0.000	
14	   C	-0.902	-1.244	-0.561	C.3	1	UNK0	0.000	
15	   C	-1.882	-0.300	0.049	C.3	1	UNK0	0.000	
16	   N	-1.326	0.163	1.310	N.3	1	UNK0	0.000	
17	   C	-1.308	-0.918	2.239	C.3	1	UNK0	0.000	
18	   C	-0.329	-1.973	1.775	C.3	1	UNK0	0.000	
19	   C	1.020	-1.337	1.559	C.3	1	UNK0	0.000	
20	   C	-0.848	-2.408	0.421	C.2	1	UNK0	0.000	
21	   O	-1.176	-3.512	0.142	O.2	1	UNK0	0.000	
22	   C	-0.224	-3.118	2.714	C.3	1	UNK0	0.000	
23	   C	-1.347	-1.697	-1.912	C.3	1	UNK0	0.000	
24	   C	0.795	3.513	3.595	C.3	1	UNK0	0.000	
25	   H	-0.605	1.432	-1.710	 H	1	UNK0	0.000	
26	   H	0.369	5.169	1.311	 H	1	UNK0	0.000	
27	   H	-0.172	5.560	-1.110	 H	1	UNK0	0.000	
28	   H	0.734	-0.250	-1.515	 H	1	UNK0	0.000	
29	   H	1.122	-1.759	-0.717	 H	1	UNK0	0.000	
30	   H	-2.753	-0.968	0.389	 H	1	UNK0	0.000	
31	   H	-2.304	0.475	-0.563	 H	1	UNK0	0.000	
32	   H	-1.148	-0.647	3.265	 H	1	UNK0	0.000	
33	   H	-2.339	-1.410	2.234	 H	1	UNK0	0.000	
34	   H	1.630	-2.116	0.989	 H	1	UNK0	0.000	
35	   H	1.576	-1.177	2.468	 H	1	UNK0	0.000	
36	   H	-1.086	-3.218	3.380	 H	1	UNK0	0.000	
37	   H	0.692	-3.025	3.309	 H	1	UNK0	0.000	
38	   H	-0.171	-4.069	2.120	 H	1	UNK0	0.000	
39	   H	-0.936	-1.040	-2.703	 H	1	UNK0	0.000	
40	   H	-2.467	-1.557	-1.957	 H	1	UNK0	0.000	
41	   H	-1.158	-2.765	-2.101	 H	1	UNK0	0.000	
42	   H	-0.200	3.850	4.002	 H	1	UNK0	0.000	
43	   H	1.348	2.963	4.365	 H	1	UNK0	0.000	
44	   H	1.321	4.408	3.260	 H	1	UNK0	0.000	
@<TRIPOS>BOND
1 1 2 1
2 2 3 2
3 2 7 1
4 3 4 1
5 4 5 2
6 4 11 1
7 5 6 1
8 5 8 1
9 6 7 2
10 8 9 1
11 8 24 1
12 9 10 2
13 9 11 1
14 11 12 1
15 11 16 1
16 12 13 1
17 12 19 1
18 13 14 1
19 14 15 1
20 14 20 1
21 14 23 1
22 15 16 1
23 16 17 1
24 17 18 1
25 18 19 1
26 18 20 1
27 18 22 1
28 20 21 2
29 3 25 1
30 6 26 1
31 7 27 1
32 13 28 1
33 13 29 1
34 15 30 1
35 15 31 1
36 17 32 1
37 17 33 1
38 19 34 1
39 19 35 1
40 22 36 1
41 22 37 1
42 22 38 1
43 23 39 1
44 23 40 1
45 23 41 1
46 24 42 1
47 24 43 1
48 24 44 1
@<TRIPOS>SUBSTRUCTURE
1	UNK0	1	GROUP	1 ****	UNK
