# created with PyMOL 2.3.2
@<TRIPOS>MOLECULE
511
44 47 1                 
SMALL
USER_CHARGES
@<TRIPOS>ATOM
1	  Br	-0.582	-5.506	-0.359	Br	1	UNK0	0.000	
2	   C	0.026	-3.941	-1.304	C.2	1	UNK0	0.000	
3	   C	0.444	-2.882	-0.552	C.2	1	UNK0	0.000	
4	   C	0.887	-1.740	-1.218	C.2	1	UNK0	0.000	
5	   C	0.900	-1.691	-2.588	C.2	1	UNK0	0.000	
6	   C	0.466	-2.793	-3.347	C.2	1	UNK0	0.000	
7	   C	0.033	-3.908	-2.678	C.2	1	UNK0	0.000	
8	   N	1.380	-0.433	-3.045	N.pl3	1	UNK0	0.000	
9	   C	1.681	0.342	-1.900	C.2	1	UNK0	0.000	
10	   O	2.122	1.544	-1.956	O.2	1	UNK0	0.000	
11	   C	1.409	-0.448	-0.716	C.3	1	UNK0	0.000	
12	   N	0.626	0.162	0.283	N.3	1	UNK0	0.000	
13	   C	-0.688	0.539	0.004	C.3	1	UNK0	0.000	
14	   C	-1.531	0.485	1.286	C.3	1	UNK0	0.000	
15	   C	-1.430	1.811	2.003	C.3	1	UNK0	0.000	
16	   N	-1.011	1.745	3.357	N.3	1	UNK0	0.000	
17	   C	0.192	1.041	3.642	C.3	1	UNK0	0.000	
18	   C	0.486	-0.060	2.655	C.3	1	UNK0	0.000	
19	   C	1.245	0.564	1.474	C.3	1	UNK0	0.000	
20	   C	-0.847	-0.525	2.161	C.2	1	UNK0	0.000	
21	   O	-1.297	-1.595	2.449	O.2	1	UNK0	0.000	
22	   C	1.266	-1.204	3.198	C.3	1	UNK0	0.000	
23	   C	-2.930	0.043	1.015	C.3	1	UNK0	0.000	
24	   O	2.669	-0.767	-0.142	O.3	1	UNK0	0.000	
25	   H	0.462	-2.839	0.527	 H	1	UNK0	0.000	
26	   H	0.477	-2.756	-4.447	 H	1	UNK0	0.000	
27	   H	-0.303	-4.758	-3.223	 H	1	UNK0	0.000	
28	   H	1.484	-0.153	-4.066	 H	1	UNK0	0.000	
29	   H	-1.119	-0.165	-0.758	 H	1	UNK0	0.000	
30	   H	-0.777	1.562	-0.400	 H	1	UNK0	0.000	
31	   H	-2.481	2.225	2.019	 H	1	UNK0	0.000	
32	   H	-0.848	2.573	1.435	 H	1	UNK0	0.000	
33	   H	-1.765	1.653	4.056	 H	1	UNK0	0.000	
34	   H	1.085	1.669	3.785	 H	1	UNK0	0.000	
35	   H	0.043	0.524	4.637	 H	1	UNK0	0.000	
36	   H	1.359	1.664	1.623	 H	1	UNK0	0.000	
37	   H	2.286	0.164	1.491	 H	1	UNK0	0.000	
38	   H	2.135	-0.889	3.810	 H	1	UNK0	0.000	
39	   H	0.616	-1.927	3.701	 H	1	UNK0	0.000	
40	   H	1.696	-1.754	2.307	 H	1	UNK0	0.000	
41	   H	-3.020	-1.052	1.166	 H	1	UNK0	0.000	
42	   H	-3.169	0.341	-0.048	 H	1	UNK0	0.000	
43	   H	-3.693	0.512	1.664	 H	1	UNK0	0.000	
44	   H	3.258	0.006	-0.296	 H	1	UNK0	0.000	
@<TRIPOS>BOND
1 1 2 1
2 2 3 2
3 2 7 1
4 3 4 1
5 4 5 2
6 4 11 1
7 5 6 1
8 5 8 1
9 6 7 2
10 8 9 1
11 9 10 2
12 9 11 1
13 11 12 1
14 11 24 1
15 12 13 1
16 12 19 1
17 13 14 1
18 14 15 1
19 14 20 1
20 14 23 1
21 15 16 1
22 16 17 1
23 17 18 1
24 18 19 1
25 18 20 1
26 18 22 1
27 20 21 2
28 3 25 1
29 6 26 1
30 7 27 1
31 8 28 1
32 13 29 1
33 13 30 1
34 15 31 1
35 15 32 1
36 16 33 1
37 17 34 1
38 17 35 1
39 19 36 1
40 19 37 1
41 22 38 1
42 22 39 1
43 22 40 1
44 23 41 1
45 23 42 1
46 23 43 1
47 24 44 1
@<TRIPOS>SUBSTRUCTURE
1	UNK0	1	GROUP	1 ****	UNK
