# created with PyMOL 2.3.2
@<TRIPOS>MOLECULE
512
44 47 1                 
SMALL
USER_CHARGES
@<TRIPOS>ATOM
1	  Br	3.878	2.998	3.904	Br	1	UNK0	0.000	
2	   C	2.507	3.121	2.586	C.2	1	UNK0	0.000	
3	   C	2.499	2.288	1.482	C.2	1	UNK0	0.000	
4	   C	1.522	2.352	0.512	C.2	1	UNK0	0.000	
5	   C	0.538	3.298	0.696	C.2	1	UNK0	0.000	
6	   C	0.508	4.148	1.783	C.2	1	UNK0	0.000	
7	   C	1.496	4.063	2.736	C.2	1	UNK0	0.000	
8	   N	-0.373	3.222	-0.390	N.pl3	1	UNK0	0.000	
9	   C	0.029	2.206	-1.298	C.2	1	UNK0	0.000	
10	   O	-0.584	1.902	-2.368	O.2	1	UNK0	0.000	
11	   C	1.261	1.608	-0.747	C.3	1	UNK0	0.000	
12	   N	1.142	0.198	-0.495	N.3	1	UNK0	0.000	
13	   C	0.906	-0.615	-1.597	C.3	1	UNK0	0.000	
14	   C	-0.099	-1.729	-1.429	C.3	1	UNK0	0.000	
15	   C	-1.520	-1.209	-1.421	C.3	1	UNK0	0.000	
16	   N	-1.817	-0.440	-0.258	N.3	1	UNK0	0.000	
17	   C	-1.548	-1.041	0.999	C.3	1	UNK0	0.000	
18	   C	-0.043	-1.370	1.034	C.3	1	UNK0	0.000	
19	   C	0.649	-0.056	0.781	C.3	1	UNK0	0.000	
20	   C	0.168	-2.295	-0.093	C.2	1	UNK0	0.000	
21	   O	0.526	-3.413	0.060	O.2	1	UNK0	0.000	
22	   C	0.337	-2.013	2.324	C.3	1	UNK0	0.000	
23	   C	0.056	-2.702	-2.560	C.3	1	UNK0	0.000	
24	   O	2.368	1.830	-1.598	O.3	1	UNK0	0.000	
25	   H	3.297	1.567	1.395	 H	1	UNK0	0.000	
26	   H	-0.275	4.888	1.912	 H	1	UNK0	0.000	
27	   H	1.463	4.728	3.575	 H	1	UNK0	0.000	
28	   H	-1.233	3.831	-0.519	 H	1	UNK0	0.000	
29	   H	0.633	-0.085	-2.553	 H	1	UNK0	0.000	
30	   H	1.875	-1.138	-1.864	 H	1	UNK0	0.000	
31	   H	-2.183	-2.105	-1.506	 H	1	UNK0	0.000	
32	   H	-1.746	-0.591	-2.307	 H	1	UNK0	0.000	
33	   H	-2.728	0.018	-0.352	 H	1	UNK0	0.000	
34	   H	-1.695	-0.288	1.788	 H	1	UNK0	0.000	
35	   H	-2.156	-1.924	1.248	 H	1	UNK0	0.000	
36	   H	1.506	-0.021	1.517	 H	1	UNK0	0.000	
37	   H	0.001	0.814	1.102	 H	1	UNK0	0.000	
38	   H	-0.244	-2.948	2.414	 H	1	UNK0	0.000	
39	   H	1.419	-2.235	2.291	 H	1	UNK0	0.000	
40	   H	0.089	-1.354	3.182	 H	1	UNK0	0.000	
41	   H	1.120	-2.902	-2.713	 H	1	UNK0	0.000	
42	   H	-0.469	-3.650	-2.330	 H	1	UNK0	0.000	
43	   H	-0.410	-2.237	-3.455	 H	1	UNK0	0.000	
44	   H	2.774	2.678	-1.350	 H	1	UNK0	0.000	
@<TRIPOS>BOND
1 1 2 1
2 2 3 2
3 2 7 1
4 3 4 1
5 4 5 2
6 4 11 1
7 5 6 1
8 5 8 1
9 6 7 2
10 8 9 1
11 9 10 2
12 9 11 1
13 11 12 1
14 11 24 1
15 12 13 1
16 12 19 1
17 13 14 1
18 14 15 1
19 14 20 1
20 14 23 1
21 15 16 1
22 16 17 1
23 17 18 1
24 18 19 1
25 18 20 1
26 18 22 1
27 20 21 2
28 3 25 1
29 6 26 1
30 7 27 1
31 8 28 1
32 13 29 1
33 13 30 1
34 15 31 1
35 15 32 1
36 16 33 1
37 17 34 1
38 17 35 1
39 19 36 1
40 19 37 1
41 22 38 1
42 22 39 1
43 22 40 1
44 23 41 1
45 23 42 1
46 23 43 1
47 24 44 1
@<TRIPOS>SUBSTRUCTURE
1	UNK0	1	GROUP	1 ****	UNK
