# created with PyMOL 2.3.2
@<TRIPOS>MOLECULE
513
46 49 1                 
SMALL
USER_CHARGES
@<TRIPOS>ATOM
1	  Br	-1.568	4.805	2.428	Br	1	UNK0	0.000	
2	   C	-1.143	4.104	0.698	C.2	1	UNK0	0.000	
3	   C	-1.679	2.888	0.275	C.2	1	UNK0	0.000	
4	   C	-1.407	2.332	-0.956	C.2	1	UNK0	0.000	
5	   C	-0.564	3.036	-1.783	C.2	1	UNK0	0.000	
6	   C	-0.007	4.262	-1.391	C.2	1	UNK0	0.000	
7	   C	-0.307	4.776	-0.156	C.2	1	UNK0	0.000	
8	   N	-0.420	2.289	-2.983	N.pl3	1	UNK0	0.000	
9	   C	-1.181	1.097	-2.917	C.2	1	UNK0	0.000	
10	   O	-1.302	0.195	-3.781	O.2	1	UNK0	0.000	
11	   C	-1.842	1.089	-1.602	C.2	1	UNK0	0.000	
12	   C	-2.643	0.151	-1.145	C.2	1	UNK0	0.000	
13	   N	-3.266	0.159	0.110	N.pl3	1	UNK0	0.000	
14	   N	-2.688	-0.323	1.270	N.pl3	1	UNK0	0.000	
15	   C	-1.311	-0.653	1.387	C.2	1	UNK0	0.000	
16	   O	-0.605	-0.504	0.377	O.2	1	UNK0	0.000	
17	   C	-0.700	-1.152	2.639	C.3	1	UNK0	0.000	
18	   N	-0.144	-2.415	2.492	N.pl3	1	UNK0	0.000	
19	   C	1.100	-2.820	2.241	C.2	1	UNK0	0.000	
20	   C	1.108	-4.204	2.130	C.2	1	UNK0	0.000	
21	   N	-0.160	-4.614	2.322	N.2	1	UNK0	0.000	
22	   C	-0.905	-3.554	2.538	C.2	1	UNK0	0.000	
23	   C	2.291	-4.870	1.879	C.2	1	UNK0	0.000	
24	   O	2.266	-6.124	1.781	O.2	1	UNK0	0.000	
25	   N	3.389	-4.140	1.753	N.pl3	1	UNK0	0.000	
26	   C	3.370	-2.800	1.865	C.2	1	UNK0	0.000	
27	   O	4.433	-2.147	1.740	O.2	1	UNK0	0.000	
28	   N	2.230	-2.095	2.112	N.pl3	1	UNK0	0.000	
29	   C	2.249	-0.668	2.262	C.3	1	UNK0	0.000	
30	   C	4.677	-4.800	1.482	C.3	1	UNK0	0.000	
31	   H	-2.343	2.359	0.939	 H	1	UNK0	0.000	
32	   H	0.648	4.784	-2.066	 H	1	UNK0	0.000	
33	   H	0.138	5.737	0.134	 H	1	UNK0	0.000	
34	   H	0.161	2.568	-3.808	 H	1	UNK0	0.000	
35	   H	-2.842	-0.696	-1.786	 H	1	UNK0	0.000	
36	   H	-4.240	0.567	0.142	 H	1	UNK0	0.000	
37	   H	-3.282	-0.462	2.116	 H	1	UNK0	0.000	
38	   H	-0.118	-0.337	3.050	 H	1	UNK0	0.000	
39	   H	-1.582	-1.233	3.365	 H	1	UNK0	0.000	
40	   H	-1.967	-3.599	2.725	 H	1	UNK0	0.000	
41	   H	3.329	-0.361	2.030	 H	1	UNK0	0.000	
42	   H	1.702	-0.078	1.544	 H	1	UNK0	0.000	
43	   H	2.198	-0.344	3.328	 H	1	UNK0	0.000	
44	   H	4.527	-5.517	0.650	 H	1	UNK0	0.000	
45	   H	5.006	-5.399	2.359	 H	1	UNK0	0.000	
46	   H	5.460	-4.060	1.221	 H	1	UNK0	0.000	
@<TRIPOS>BOND
1 1 2 1
2 2 3 2
3 2 7 1
4 3 4 1
5 4 5 2
6 4 11 1
7 5 6 1
8 5 8 1
9 6 7 2
10 8 9 1
11 9 10 2
12 9 11 1
13 11 12 2
14 12 13 1
15 13 14 1
16 14 15 1
17 15 16 2
18 15 17 1
19 17 18 1
20 18 19 1
21 18 22 1
22 19 20 2
23 19 28 1
24 20 21 1
25 20 23 1
26 21 22 2
27 23 24 2
28 23 25 1
29 25 26 1
30 25 30 1
31 26 27 2
32 26 28 1
33 28 29 1
34 3 31 1
35 6 32 1
36 7 33 1
37 8 34 1
38 12 35 1
39 13 36 1
40 14 37 1
41 17 38 1
42 17 39 1
43 22 40 1
44 29 41 1
45 29 42 1
46 29 43 1
47 30 44 1
48 30 45 1
49 30 46 1
@<TRIPOS>SUBSTRUCTURE
1	UNK0	1	GROUP	1 ****	UNK
