# created with PyMOL 2.3.2
@<TRIPOS>MOLECULE
514
53 57 1                 
SMALL
USER_CHARGES
@<TRIPOS>ATOM
1	  Br	-0.621	3.942	2.827	Br	1	UNK0	0.000	
2	   C	-1.941	2.659	2.273	C.2	1	UNK0	0.000	
3	   C	-1.811	2.024	1.063	C.2	1	UNK0	0.000	
4	   C	-2.743	1.115	0.665	C.2	1	UNK0	0.000	
5	   C	-3.854	0.807	1.479	C.2	1	UNK0	0.000	
6	   C	-3.963	1.457	2.689	C.2	1	UNK0	0.000	
7	   C	-3.029	2.375	3.099	C.2	1	UNK0	0.000	
8	   N	-4.669	-0.164	0.842	N.pl3	1	UNK0	0.000	
9	   C	-4.078	-0.482	-0.390	C.2	1	UNK0	0.000	
10	   O	-4.452	-1.292	-1.286	O.2	1	UNK0	0.000	
11	   C	-2.828	0.317	-0.555	C.2	1	UNK0	0.000	
12	   N	-2.037	0.305	-1.524	N.2	1	UNK0	0.000	
13	   N	-0.900	1.046	-1.659	N.pl3	1	UNK0	0.000	
14	   C	-1.076	2.347	-2.287	C.3	1	UNK0	0.000	
15	   C	0.416	0.682	-1.298	C.2	1	UNK0	0.000	
16	   N	0.869	-0.464	-0.761	N.pl3	1	UNK0	0.000	
17	   C	2.195	-0.345	-0.591	C.2	1	UNK0	0.000	
18	   N	3.127	-1.172	-0.103	N.2	1	UNK0	0.000	
19	   C	4.410	-0.779	-0.049	C.2	1	UNK0	0.000	
20	   N	4.819	0.440	-0.474	N.2	1	UNK0	0.000	
21	   C	3.903	1.277	-0.963	C.2	1	UNK0	0.000	
22	   C	2.595	0.891	-1.023	C.2	1	UNK0	0.000	
23	   N	1.478	1.492	-1.450	N.2	1	UNK0	0.000	
24	   O	4.245	2.542	-1.417	O.3	1	UNK0	0.000	
25	   N	5.442	-1.630	0.465	N.pl3	1	UNK0	0.000	
26	   C	0.023	-1.595	-0.446	C.3	1	UNK0	0.000	
27	   O	-0.481	-1.441	0.809	O.3	1	UNK0	0.000	
28	   C	-0.289	-2.589	1.538	C.3	1	UNK0	0.000	
29	   C	0.854	-3.338	0.913	C.3	1	UNK0	0.000	
30	   C	0.772	-2.901	-0.518	C.3	1	UNK0	0.000	
31	   O	-0.002	-3.879	-1.186	O.3	1	UNK0	0.000	
32	   O	0.680	-4.730	1.027	O.3	1	UNK0	0.000	
33	   C	0.054	-2.167	2.974	C.3	1	UNK0	0.000	
34	   O	1.221	-1.398	2.904	O.3	1	UNK0	0.000	
35	   H	-0.968	2.281	0.487	 H	1	UNK0	0.000	
36	   H	-4.795	1.257	3.349	 H	1	UNK0	0.000	
37	   H	-3.076	2.911	4.044	 H	1	UNK0	0.000	
38	   H	-5.538	-0.555	1.230	 H	1	UNK0	0.000	
39	   H	-1.172	2.126	-3.391	 H	1	UNK0	0.000	
40	   H	-2.015	2.848	-1.957	 H	1	UNK0	0.000	
41	   H	-0.194	2.993	-2.195	 H	1	UNK0	0.000	
42	   H	3.822	3.330	-0.955	 H	1	UNK0	0.000	
43	   H	5.851	-2.335	-0.174	 H	1	UNK0	0.000	
44	   H	5.785	-1.562	1.439	 H	1	UNK0	0.000	
45	   H	-0.813	-1.673	-1.169	 H	1	UNK0	0.000	
46	   H	-1.165	-3.260	1.582	 H	1	UNK0	0.000	
47	   H	1.786	-3.096	1.423	 H	1	UNK0	0.000	
48	   H	1.729	-2.846	-1.043	 H	1	UNK0	0.000	
49	   H	-0.767	-4.092	-0.580	 H	1	UNK0	0.000	
50	   H	0.875	-4.933	1.989	 H	1	UNK0	0.000	
51	   H	-0.784	-1.583	3.403	 H	1	UNK0	0.000	
52	   H	0.183	-3.056	3.631	 H	1	UNK0	0.000	
53	   H	1.848	-1.614	3.639	 H	1	UNK0	0.000	
@<TRIPOS>BOND
1 1 2 1
2 2 3 2
3 2 7 1
4 3 4 1
5 4 5 2
6 4 11 1
7 5 6 1
8 5 8 1
9 6 7 2
10 8 9 1
11 9 10 2
12 9 11 1
13 11 12 2
14 12 13 1
15 13 14 1
16 13 15 1
17 15 16 1
18 15 23 2
19 16 17 1
20 16 26 1
21 17 18 2
22 17 22 1
23 18 19 1
24 19 20 2
25 19 25 1
26 20 21 1
27 21 22 2
28 21 24 1
29 22 23 1
30 26 27 1
31 26 30 1
32 27 28 1
33 28 29 1
34 28 33 1
35 29 30 1
36 29 32 1
37 30 31 1
38 33 34 1
39 3 35 1
40 6 36 1
41 7 37 1
42 8 38 1
43 14 39 1
44 14 40 1
45 14 41 1
46 24 42 1
47 25 43 1
48 25 44 1
49 26 45 1
50 28 46 1
51 29 47 1
52 30 48 1
53 31 49 1
54 32 50 1
55 33 51 1
56 33 52 1
57 34 53 1
@<TRIPOS>SUBSTRUCTURE
1	UNK0	1	GROUP	1 ****	UNK
