# created with PyMOL 2.3.2
@<TRIPOS>MOLECULE
515
44 47 1                 
SMALL
USER_CHARGES
@<TRIPOS>ATOM
1	  Br	1.151	-3.633	4.445	Br	1	UNK0	0.000	
2	   C	1.042	-4.489	2.747	C.2	1	UNK0	0.000	
3	   C	1.487	-3.824	1.618	C.2	1	UNK0	0.000	
4	   C	1.438	-4.384	0.363	C.2	1	UNK0	0.000	
5	   C	0.914	-5.674	0.247	C.2	1	UNK0	0.000	
6	   C	0.467	-6.342	1.379	C.2	1	UNK0	0.000	
7	   C	0.533	-5.751	2.610	C.2	1	UNK0	0.000	
8	   N	0.940	-6.089	-1.111	N.pl3	1	UNK0	0.000	
9	   C	1.497	-5.027	-1.868	C.2	1	UNK0	0.000	
10	   O	1.685	-5.009	-3.094	O.2	1	UNK0	0.000	
11	   C	1.825	-3.927	-0.966	C.2	1	UNK0	0.000	
12	   N	2.336	-2.796	-1.212	N.2	1	UNK0	0.000	
13	   N	2.620	-1.804	-0.306	N.pl3	1	UNK0	0.000	
14	   C	1.803	-0.657	-0.127	C.2	1	UNK0	0.000	
15	   O	0.773	-0.564	-0.844	O.2	1	UNK0	0.000	
16	   C	2.142	0.395	0.862	C.3	1	UNK0	0.000	
17	   N	1.179	1.464	0.874	N.pl3	1	UNK0	0.000	
18	   C	0.939	2.224	-0.288	C.2	1	UNK0	0.000	
19	   O	1.577	1.960	-1.340	O.2	1	UNK0	0.000	
20	   C	-0.030	3.331	-0.355	C.2	1	UNK0	0.000	
21	   C	-0.792	3.706	0.732	C.2	1	UNK0	0.000	
22	   C	-1.694	4.754	0.631	C.2	1	UNK0	0.000	
23	   C	-1.887	5.473	-0.526	C.2	1	UNK0	0.000	
24	   C	-1.113	5.089	-1.617	C.2	1	UNK0	0.000	
25	   C	-0.214	4.046	-1.522	C.2	1	UNK0	0.000	
26	   O	-2.795	6.520	-0.605	O.3	1	UNK0	0.000	
27	   C	-3.720	6.665	0.458	C.3	1	UNK0	0.000	
28	   C	-2.928	6.501	1.751	C.3	1	UNK0	0.000	
29	   O	-2.473	5.139	1.739	O.3	1	UNK0	0.000	
30	   H	1.880	-2.841	1.743	 H	1	UNK0	0.000	
31	   H	0.063	-7.347	1.263	 H	1	UNK0	0.000	
32	   H	0.176	-6.297	3.479	 H	1	UNK0	0.000	
33	   H	0.616	-6.997	-1.494	 H	1	UNK0	0.000	
34	   H	3.477	-1.880	0.281	 H	1	UNK0	0.000	
35	   H	2.281	-0.064	1.868	 H	1	UNK0	0.000	
36	   H	3.160	0.771	0.577	 H	1	UNK0	0.000	
37	   H	0.651	1.686	1.735	 H	1	UNK0	0.000	
38	   H	-0.693	3.182	1.680	 H	1	UNK0	0.000	
39	   H	-1.261	5.653	-2.535	 H	1	UNK0	0.000	
40	   H	0.381	3.761	-2.387	 H	1	UNK0	0.000	
41	   H	-4.268	7.610	0.421	 H	1	UNK0	0.000	
42	   H	-4.395	5.767	0.411	 H	1	UNK0	0.000	
43	   H	-3.541	6.661	2.638	 H	1	UNK0	0.000	
44	   H	-2.061	7.180	1.684	 H	1	UNK0	0.000	
@<TRIPOS>BOND
1 1 2 1
2 2 3 2
3 2 7 1
4 3 4 1
5 4 5 2
6 4 11 1
7 5 6 1
8 5 8 1
9 6 7 2
10 8 9 1
11 9 10 2
12 9 11 1
13 11 12 2
14 12 13 1
15 13 14 1
16 14 15 2
17 14 16 1
18 16 17 1
19 17 18 1
20 18 19 2
21 18 20 1
22 20 21 2
23 20 25 1
24 21 22 1
25 22 23 2
26 22 29 1
27 23 24 1
28 23 26 1
29 24 25 2
30 26 27 1
31 27 28 1
32 28 29 1
33 3 30 1
34 6 31 1
35 7 32 1
36 8 33 1
37 13 34 1
38 16 35 1
39 16 36 1
40 17 37 1
41 21 38 1
42 24 39 1
43 25 40 1
44 27 41 1
45 27 42 1
46 28 43 1
47 28 44 1
@<TRIPOS>SUBSTRUCTURE
1	UNK0	1	GROUP	1 ****	UNK
