# created with PyMOL 2.3.2
@<TRIPOS>MOLECULE
516
39 42 1                 
SMALL
USER_CHARGES
@<TRIPOS>ATOM
1	  Br	3.057	-0.982	0.200	Br	1	UNK0	0.000	
2	   C	1.633	-1.641	1.314	C.2	1	UNK0	0.000	
3	   C	0.391	-1.049	1.305	C.2	1	UNK0	0.000	
4	   C	-0.593	-1.549	2.112	C.2	1	UNK0	0.000	
5	   C	-0.373	-2.645	2.947	C.2	1	UNK0	0.000	
6	   C	0.888	-3.231	2.944	C.2	1	UNK0	0.000	
7	   C	1.877	-2.727	2.130	C.2	1	UNK0	0.000	
8	   N	-1.554	-2.962	3.678	N.pl3	1	UNK0	0.000	
9	   C	-2.546	-2.036	3.290	C.2	1	UNK0	0.000	
10	   O	-3.714	-2.004	3.723	O.2	1	UNK0	0.000	
11	   C	-1.974	-1.111	2.288	C.2	1	UNK0	0.000	
12	   N	-2.566	-0.143	1.707	N.2	1	UNK0	0.000	
13	   N	-1.965	0.680	0.779	N.pl3	1	UNK0	0.000	
14	   C	-1.491	1.990	1.060	C.2	1	UNK0	0.000	
15	   O	-1.643	2.402	2.239	O.2	1	UNK0	0.000	
16	   C	-0.853	2.860	0.071	C.3	1	UNK0	0.000	
17	   N	-0.748	2.261	-1.235	N.pl3	1	UNK0	0.000	
18	   N	-1.680	2.372	-2.169	N.2	1	UNK0	0.000	
19	   N	-1.310	1.721	-3.260	N.2	1	UNK0	0.000	
20	   C	-0.103	1.167	-3.039	C.2	1	UNK0	0.000	
21	   N	0.207	1.527	-1.772	N.2	1	UNK0	0.000	
22	   C	0.694	0.358	-3.960	C.2	1	UNK0	0.000	
23	   C	0.220	0.087	-5.224	C.2	1	UNK0	0.000	
24	   C	0.960	-0.683	-6.124	C.2	1	UNK0	0.000	
25	   C	2.189	-1.196	-5.777	C.2	1	UNK0	0.000	
26	   C	2.666	-0.926	-4.512	C.2	1	UNK0	0.000	
27	   C	1.922	-0.156	-3.617	C.2	1	UNK0	0.000	
28	   H	0.279	-0.212	0.645	 H	1	UNK0	0.000	
29	   H	1.089	-4.086	3.582	 H	1	UNK0	0.000	
30	   H	2.882	-3.163	2.102	 H	1	UNK0	0.000	
31	   H	-1.604	-3.750	4.360	 H	1	UNK0	0.000	
32	   H	-1.853	0.330	-0.194	 H	1	UNK0	0.000	
33	   H	0.182	3.130	0.404	 H	1	UNK0	0.000	
34	   H	-1.404	3.833	0.032	 H	1	UNK0	0.000	
35	   H	-0.740	0.482	-5.509	 H	1	UNK0	0.000	
36	   H	0.584	-0.891	-7.109	 H	1	UNK0	0.000	
37	   H	2.769	-1.797	-6.479	 H	1	UNK0	0.000	
38	   H	3.632	-1.334	-4.253	 H	1	UNK0	0.000	
39	   H	2.325	0.036	-2.635	 H	1	UNK0	0.000	
@<TRIPOS>BOND
1 1 2 1
2 2 3 2
3 2 7 1
4 3 4 1
5 4 5 2
6 4 11 1
7 5 6 1
8 5 8 1
9 6 7 2
10 8 9 1
11 9 10 2
12 9 11 1
13 11 12 2
14 12 13 1
15 13 14 1
16 14 15 2
17 14 16 1
18 16 17 1
19 17 18 1
20 17 21 1
21 18 19 2
22 19 20 1
23 20 21 2
24 20 22 1
25 22 23 2
26 22 27 1
27 23 24 1
28 24 25 2
29 25 26 1
30 26 27 2
31 3 28 1
32 6 29 1
33 7 30 1
34 8 31 1
35 13 32 1
36 16 33 1
37 16 34 1
38 23 35 1
39 24 36 1
40 25 37 1
41 26 38 1
42 27 39 1
@<TRIPOS>SUBSTRUCTURE
1	UNK0	1	GROUP	1 ****	UNK
