# created with PyMOL 2.3.2
@<TRIPOS>MOLECULE
517
35 38 1                 
SMALL
USER_CHARGES
@<TRIPOS>ATOM
1	  Br	1.084	-3.054	-1.097	Br	1	UNK0	0.000	
2	   C	2.019	-1.391	-1.136	C.2	1	UNK0	0.000	
3	   C	1.371	-0.220	-0.769	C.2	1	UNK0	0.000	
4	   C	2.078	0.952	-0.810	C.2	1	UNK0	0.000	
5	   C	3.418	0.985	-1.211	C.2	1	UNK0	0.000	
6	   C	4.045	-0.190	-1.572	C.2	1	UNK0	0.000	
7	   C	3.337	-1.370	-1.531	C.2	1	UNK0	0.000	
8	   N	3.898	2.322	-1.160	N.pl3	1	UNK0	0.000	
9	   C	2.840	3.149	-0.719	C.2	1	UNK0	0.000	
10	   O	2.831	4.401	-0.533	O.2	1	UNK0	0.000	
11	   C	1.647	2.309	-0.481	C.2	1	UNK0	0.000	
12	   N	0.490	2.695	-0.075	N.2	1	UNK0	0.000	
13	   N	-0.586	1.837	0.124	N.pl3	1	UNK0	0.000	
14	   C	-0.901	1.431	1.445	C.2	1	UNK0	0.000	
15	   O	-0.195	1.860	2.435	O.2	1	UNK0	0.000	
16	   C	-1.991	0.540	1.805	C.2	1	UNK0	0.000	
17	   N	-2.348	0.189	3.063	N.2	1	UNK0	0.000	
18	   N	-3.368	-0.627	3.044	N.pl3	1	UNK0	0.000	
19	   C	-3.747	-0.866	1.783	C.2	1	UNK0	0.000	
20	   C	-2.882	-0.132	0.978	C.2	1	UNK0	0.000	
21	   C	-3.272	-0.375	-0.422	C.3	1	UNK0	0.000	
22	   C	-3.882	-1.779	-0.353	C.3	1	UNK0	0.000	
23	   C	-4.731	-1.609	0.910	C.3	1	UNK0	0.000	
24	   H	0.328	-0.302	-0.465	 H	1	UNK0	0.000	
25	   H	5.076	-0.228	-1.889	 H	1	UNK0	0.000	
26	   H	3.839	-2.306	-1.820	 H	1	UNK0	0.000	
27	   H	4.854	2.630	-1.403	 H	1	UNK0	0.000	
28	   H	-1.149	1.515	-0.673	 H	1	UNK0	0.000	
29	   H	-3.830	-1.039	3.882	 H	1	UNK0	0.000	
30	   H	-2.436	-0.360	-1.149	 H	1	UNK0	0.000	
31	   H	-4.074	0.292	-0.784	 H	1	UNK0	0.000	
32	   H	-3.088	-2.517	-0.133	 H	1	UNK0	0.000	
33	   H	-4.490	-2.006	-1.228	 H	1	UNK0	0.000	
34	   H	-4.956	-2.602	1.300	 H	1	UNK0	0.000	
35	   H	-5.588	-0.963	0.712	 H	1	UNK0	0.000	
@<TRIPOS>BOND
1 1 2 1
2 2 3 2
3 2 7 1
4 3 4 1
5 4 5 2
6 4 11 1
7 5 6 1
8 5 8 1
9 6 7 2
10 8 9 1
11 9 10 2
12 9 11 1
13 11 12 2
14 12 13 1
15 13 14 1
16 14 15 2
17 14 16 1
18 16 17 2
19 16 20 1
20 17 18 1
21 18 19 1
22 19 20 2
23 19 23 1
24 20 21 1
25 21 22 1
26 22 23 1
27 3 24 1
28 6 25 1
29 7 26 1
30 8 27 1
31 13 28 1
32 18 29 1
33 21 30 1
34 21 31 1
35 22 32 1
36 22 33 1
37 23 34 1
38 23 35 1
@<TRIPOS>SUBSTRUCTURE
1	UNK0	1	GROUP	1 ****	UNK
