# created with PyMOL 2.3.2
@<TRIPOS>MOLECULE
518
42 45 1                 
SMALL
USER_CHARGES
@<TRIPOS>ATOM
1	  Br	-3.558	-2.069	-2.894	Br	1	UNK0	0.000	
2	   C	-2.367	-3.013	-1.742	C.2	1	UNK0	0.000	
3	   C	-1.959	-2.397	-0.581	C.2	1	UNK0	0.000	
4	   C	-1.087	-3.042	0.303	C.2	1	UNK0	0.000	
5	   C	-0.645	-4.319	-0.025	C.2	1	UNK0	0.000	
6	   C	-1.054	-4.935	-1.188	C.2	1	UNK0	0.000	
7	   C	-1.911	-4.271	-2.030	C.2	1	UNK0	0.000	
8	   N	0.229	-4.742	1.042	N.pl3	1	UNK0	0.000	
9	   C	0.340	-3.754	2.026	C.2	1	UNK0	0.000	
10	   O	0.980	-3.708	3.097	O.2	1	UNK0	0.000	
11	   C	-0.510	-2.627	1.572	C.2	1	UNK0	0.000	
12	   N	-0.685	-1.521	2.190	N.2	1	UNK0	0.000	
13	   N	-1.480	-0.506	1.734	N.pl3	1	UNK0	0.000	
14	   C	-1.023	0.679	1.118	C.2	1	UNK0	0.000	
15	   O	0.204	0.838	0.965	O.2	1	UNK0	0.000	
16	   C	-1.967	1.686	0.676	C.3	1	UNK0	0.000	
17	   C	-1.364	2.905	0.045	C.3	1	UNK0	0.000	
18	   C	-2.343	4.004	0.380	C.3	1	UNK0	0.000	
19	   N	-3.325	3.461	1.288	N.pl3	1	UNK0	0.000	
20	   C	-2.862	2.209	1.754	C.2	1	UNK0	0.000	
21	   O	-3.129	1.624	2.847	O.2	1	UNK0	0.000	
22	   C	-0.039	3.250	0.538	C.2	1	UNK0	0.000	
23	   C	1.027	3.395	-0.312	C.2	1	UNK0	0.000	
24	   C	2.301	3.728	0.156	C.2	1	UNK0	0.000	
25	   C	2.497	3.917	1.510	C.2	1	UNK0	0.000	
26	   C	1.422	3.770	2.368	C.2	1	UNK0	0.000	
27	   C	0.153	3.437	1.885	C.2	1	UNK0	0.000	
28	   H	-2.285	-1.413	-0.305	 H	1	UNK0	0.000	
29	   H	-0.672	-5.925	-1.377	 H	1	UNK0	0.000	
30	   H	-2.230	-4.770	-2.951	 H	1	UNK0	0.000	
31	   H	0.716	-5.668	1.073	 H	1	UNK0	0.000	
32	   H	-2.523	-0.620	1.870	 H	1	UNK0	0.000	
33	   H	-2.650	1.231	-0.094	 H	1	UNK0	0.000	
34	   H	-1.326	2.817	-1.067	 H	1	UNK0	0.000	
35	   H	-1.816	4.822	0.952	 H	1	UNK0	0.000	
36	   H	-2.829	4.411	-0.531	 H	1	UNK0	0.000	
37	   H	-4.205	3.922	1.541	 H	1	UNK0	0.000	
38	   H	0.948	3.264	-1.377	 H	1	UNK0	0.000	
39	   H	3.146	3.844	-0.508	 H	1	UNK0	0.000	
40	   H	3.478	4.174	1.887	 H	1	UNK0	0.000	
41	   H	1.548	3.912	3.432	 H	1	UNK0	0.000	
42	   H	-0.644	3.338	2.614	 H	1	UNK0	0.000	
@<TRIPOS>BOND
1 1 2 1
2 2 3 2
3 2 7 1
4 3 4 1
5 4 5 2
6 4 11 1
7 5 6 1
8 5 8 1
9 6 7 2
10 8 9 1
11 9 10 2
12 9 11 1
13 11 12 2
14 12 13 1
15 13 14 1
16 14 15 2
17 14 16 1
18 16 17 1
19 16 20 1
20 17 18 1
21 17 22 1
22 18 19 1
23 19 20 1
24 20 21 2
25 22 23 2
26 22 27 1
27 23 24 1
28 24 25 2
29 25 26 1
30 26 27 2
31 3 28 1
32 6 29 1
33 7 30 1
34 8 31 1
35 13 32 1
36 16 33 1
37 17 34 1
38 18 35 1
39 18 36 1
40 19 37 1
41 23 38 1
42 24 39 1
43 25 40 1
44 26 41 1
45 27 42 1
@<TRIPOS>SUBSTRUCTURE
1	UNK0	1	GROUP	1 ****	UNK
