# created with PyMOL 2.3.2
@<TRIPOS>MOLECULE
519
46 49 1                 
SMALL
USER_CHARGES
@<TRIPOS>ATOM
1	  Br	-0.343	-0.967	5.398	Br	1	UNK0	0.000	
2	   C	-1.047	-2.096	4.022	C.2	1	UNK0	0.000	
3	   C	-0.514	-2.122	2.761	C.2	1	UNK0	0.000	
4	   C	-1.048	-2.940	1.804	C.2	1	UNK0	0.000	
5	   C	-2.148	-3.766	2.095	C.2	1	UNK0	0.000	
6	   C	-2.672	-3.727	3.370	C.2	1	UNK0	0.000	
7	   C	-2.121	-2.896	4.321	C.2	1	UNK0	0.000	
8	   N	-2.517	-4.517	0.945	N.pl3	1	UNK0	0.000	
9	   C	-1.628	-4.154	-0.095	C.2	1	UNK0	0.000	
10	   O	-1.664	-4.625	-1.255	O.2	1	UNK0	0.000	
11	   C	-0.665	-3.146	0.400	C.2	1	UNK0	0.000	
12	   N	0.271	-2.577	-0.234	N.2	1	UNK0	0.000	
13	   N	1.122	-1.629	0.310	N.pl3	1	UNK0	0.000	
14	   C	0.905	-0.221	0.078	C.2	1	UNK0	0.000	
15	   N	0.935	0.390	-1.151	N.pl3	1	UNK0	0.000	
16	   C	0.706	1.694	-1.020	C.2	1	UNK0	0.000	
17	   C	0.525	1.927	0.349	C.2	1	UNK0	0.000	
18	   N	0.654	0.740	0.969	N.2	1	UNK0	0.000	
19	   N	0.268	3.179	0.729	N.pl3	1	UNK0	0.000	
20	   C	0.175	4.212	-0.141	C.2	1	UNK0	0.000	
21	   O	-0.074	5.378	0.303	O.2	1	UNK0	0.000	
22	   N	0.339	4.022	-1.460	N.pl3	1	UNK0	0.000	
23	   C	0.601	2.774	-1.883	C.2	1	UNK0	0.000	
24	   O	0.748	2.610	-3.118	O.2	1	UNK0	0.000	
25	   C	0.085	3.424	2.147	C.3	1	UNK0	0.000	
26	   C	1.150	-0.345	-2.380	C.3	1	UNK0	0.000	
27	   C	2.587	-0.652	-2.664	C.3	1	UNK0	0.000	
28	   O	3.082	-1.423	-1.564	O.3	1	UNK0	0.000	
29	   C	3.509	0.484	-2.882	C.3	1	UNK0	0.000	
30	   O	3.188	1.248	-3.982	O.3	1	UNK0	0.000	
31	   H	0.324	-1.491	2.571	 H	1	UNK0	0.000	
32	   H	-3.517	-4.330	3.675	 H	1	UNK0	0.000	
33	   H	-2.561	-2.886	5.335	 H	1	UNK0	0.000	
34	   H	-3.310	-5.197	0.932	 H	1	UNK0	0.000	
35	   H	1.944	-1.954	0.899	 H	1	UNK0	0.000	
36	   H	0.269	4.803	-2.136	 H	1	UNK0	0.000	
37	   H	0.149	4.516	2.314	 H	1	UNK0	0.000	
38	   H	0.905	2.878	2.676	 H	1	UNK0	0.000	
39	   H	-0.888	3.011	2.431	 H	1	UNK0	0.000	
40	   H	0.618	-1.329	-2.280	 H	1	UNK0	0.000	
41	   H	0.692	0.147	-3.264	 H	1	UNK0	0.000	
42	   H	2.632	-1.314	-3.554	 H	1	UNK0	0.000	
43	   H	4.070	-1.389	-1.669	 H	1	UNK0	0.000	
44	   H	3.681	1.104	-1.970	 H	1	UNK0	0.000	
45	   H	4.526	0.046	-3.099	 H	1	UNK0	0.000	
46	   H	3.931	1.446	-4.584	 H	1	UNK0	0.000	
@<TRIPOS>BOND
1 1 2 1
2 2 3 2
3 2 7 1
4 3 4 1
5 4 5 2
6 4 11 1
7 5 6 1
8 5 8 1
9 6 7 2
10 8 9 1
11 9 10 2
12 9 11 1
13 11 12 2
14 12 13 1
15 13 14 1
16 14 15 1
17 14 18 2
18 15 16 1
19 15 26 1
20 16 17 2
21 16 23 1
22 17 18 1
23 17 19 1
24 19 20 1
25 19 25 1
26 20 21 2
27 20 22 1
28 22 23 1
29 23 24 2
30 26 27 1
31 27 28 1
32 27 29 1
33 29 30 1
34 3 31 1
35 6 32 1
36 7 33 1
37 8 34 1
38 13 35 1
39 22 36 1
40 25 37 1
41 25 38 1
42 25 39 1
43 26 40 1
44 26 41 1
45 27 42 1
46 28 43 1
47 29 44 1
48 29 45 1
49 30 46 1
@<TRIPOS>SUBSTRUCTURE
1	UNK0	1	GROUP	1 ****	UNK
