# created with PyMOL 2.3.2
@<TRIPOS>MOLECULE
520
45 48 1                 
SMALL
USER_CHARGES
@<TRIPOS>ATOM
1	  Br	-1.906	-5.357	0.277	Br	1	UNK0	0.000	
2	   C	-2.035	-4.261	-1.273	C.2	1	UNK0	0.000	
3	   C	-1.998	-2.895	-1.098	C.2	1	UNK0	0.000	
4	   C	-2.089	-2.066	-2.193	C.2	1	UNK0	0.000	
5	   C	-2.219	-2.613	-3.484	C.2	1	UNK0	0.000	
6	   C	-2.251	-3.992	-3.608	C.2	1	UNK0	0.000	
7	   C	-2.162	-4.832	-2.528	C.2	1	UNK0	0.000	
8	   N	-2.293	-1.573	-4.445	N.pl3	1	UNK0	0.000	
9	   C	-2.211	-0.336	-3.772	C.2	1	UNK0	0.000	
10	   O	-2.240	0.813	-4.270	O.2	1	UNK0	0.000	
11	   C	-2.080	-0.617	-2.324	C.2	1	UNK0	0.000	
12	   N	-1.985	0.209	-1.366	N.2	1	UNK0	0.000	
13	   N	-1.872	-0.093	-0.014	N.pl3	1	UNK0	0.000	
14	   C	-0.632	-0.024	0.715	C.2	1	UNK0	0.000	
15	   N	0.136	1.061	0.722	N.pl3	1	UNK0	0.000	
16	   C	1.195	0.757	1.496	C.2	1	UNK0	0.000	
17	   C	1.067	-0.548	1.972	C.2	1	UNK0	0.000	
18	   N	-0.089	-1.003	1.462	N.2	1	UNK0	0.000	
19	   N	1.993	-1.102	2.773	N.pl3	1	UNK0	0.000	
20	   C	3.056	-0.356	3.106	C.2	1	UNK0	0.000	
21	   O	3.958	-0.838	3.861	O.2	1	UNK0	0.000	
22	   N	3.216	0.914	2.664	N.pl3	1	UNK0	0.000	
23	   C	2.301	1.459	1.874	C.2	1	UNK0	0.000	
24	   O	2.398	2.651	1.426	O.2	1	UNK0	0.000	
25	   C	1.827	-2.463	3.250	C.3	1	UNK0	0.000	
26	   C	-0.091	2.313	0.060	C.3	1	UNK0	0.000	
27	   C	-0.861	3.288	0.951	C.3	1	UNK0	0.000	
28	   O	-2.074	2.711	1.263	O.3	1	UNK0	0.000	
29	   C	-2.848	3.538	2.083	C.3	1	UNK0	0.000	
30	   H	-1.896	-2.463	-0.122	 H	1	UNK0	0.000	
31	   H	-2.350	-4.423	-4.588	 H	1	UNK0	0.000	
32	   H	-2.187	-5.918	-2.617	 H	1	UNK0	0.000	
33	   H	-2.390	-1.704	-5.460	 H	1	UNK0	0.000	
34	   H	-2.707	-0.385	0.575	 H	1	UNK0	0.000	
35	   H	4.056	1.498	2.929	 H	1	UNK0	0.000	
36	   H	1.388	-2.441	4.271	 H	1	UNK0	0.000	
37	   H	2.795	-2.996	3.323	 H	1	UNK0	0.000	
38	   H	1.117	-2.997	2.595	 H	1	UNK0	0.000	
39	   H	-0.746	2.165	-0.835	 H	1	UNK0	0.000	
40	   H	0.810	2.821	-0.272	 H	1	UNK0	0.000	
41	   H	-1.005	4.235	0.401	 H	1	UNK0	0.000	
42	   H	-0.274	3.544	1.867	 H	1	UNK0	0.000	
43	   H	-3.809	3.051	2.312	 H	1	UNK0	0.000	
44	   H	-3.107	4.443	1.467	 H	1	UNK0	0.000	
45	   H	-2.322	3.822	3.016	 H	1	UNK0	0.000	
@<TRIPOS>BOND
1 1 2 1
2 2 3 2
3 2 7 1
4 3 4 1
5 4 5 2
6 4 11 1
7 5 6 1
8 5 8 1
9 6 7 2
10 8 9 1
11 9 10 2
12 9 11 1
13 11 12 2
14 12 13 1
15 13 14 1
16 14 15 1
17 14 18 2
18 15 16 1
19 15 26 1
20 16 17 2
21 16 23 1
22 17 18 1
23 17 19 1
24 19 20 1
25 19 25 1
26 20 21 2
27 20 22 1
28 22 23 1
29 23 24 2
30 26 27 1
31 27 28 1
32 28 29 1
33 3 30 1
34 6 31 1
35 7 32 1
36 8 33 1
37 13 34 1
38 22 35 1
39 25 36 1
40 25 37 1
41 25 38 1
42 26 39 1
43 26 40 1
44 27 41 1
45 27 42 1
46 29 43 1
47 29 44 1
48 29 45 1
@<TRIPOS>SUBSTRUCTURE
1	UNK0	1	GROUP	1 ****	UNK
