# created with PyMOL 2.3.2
@<TRIPOS>MOLECULE
521
42 45 1                 
SMALL
USER_CHARGES
@<TRIPOS>ATOM
1	  Br	2.849	-2.425	2.117	Br	1	UNK0	0.000	
2	   C	1.261	-2.884	1.166	C.2	1	UNK0	0.000	
3	   C	0.686	-2.011	0.285	C.2	1	UNK0	0.000	
4	   C	-0.454	-2.371	-0.380	C.2	1	UNK0	0.000	
5	   C	-1.044	-3.629	-0.167	C.2	1	UNK0	0.000	
6	   C	-0.434	-4.488	0.733	C.2	1	UNK0	0.000	
7	   C	0.714	-4.127	1.402	C.2	1	UNK0	0.000	
8	   N	-2.207	-3.762	-0.967	N.pl3	1	UNK0	0.000	
9	   C	-2.360	-2.563	-1.703	C.2	1	UNK0	0.000	
10	   O	-3.272	-2.268	-2.537	O.2	1	UNK0	0.000	
11	   C	-1.255	-1.646	-1.355	C.2	1	UNK0	0.000	
12	   N	-1.015	-0.479	-1.799	N.2	1	UNK0	0.000	
13	   N	0.034	0.363	-1.475	N.pl3	1	UNK0	0.000	
14	   C	-0.324	1.552	-0.722	C.2	1	UNK0	0.000	
15	   N	0.458	2.591	-0.382	N.pl3	1	UNK0	0.000	
16	   C	-0.259	3.524	0.317	C.2	1	UNK0	0.000	
17	   C	-1.531	3.022	0.400	C.2	1	UNK0	0.000	
18	   N	-1.545	1.840	-0.229	N.2	1	UNK0	0.000	
19	   N	-2.439	3.766	1.050	N.pl3	1	UNK0	0.000	
20	   C	-2.116	4.971	1.605	C.2	1	UNK0	0.000	
21	   O	-3.000	5.664	2.221	O.2	1	UNK0	0.000	
22	   N	-0.866	5.459	1.519	N.pl3	1	UNK0	0.000	
23	   C	0.068	4.739	0.875	C.2	1	UNK0	0.000	
24	   O	1.231	5.171	0.785	O.2	1	UNK0	0.000	
25	   C	-3.793	3.253	1.151	C.3	1	UNK0	0.000	
26	   C	1.857	2.766	-0.661	C.3	1	UNK0	0.000	
27	   C	2.791	2.323	0.423	C.3	1	UNK0	0.000	
28	   O	2.696	0.993	0.759	O.3	1	UNK0	0.000	
29	   H	1.125	-1.063	0.128	 H	1	UNK0	0.000	
30	   H	-0.847	-5.465	0.935	 H	1	UNK0	0.000	
31	   H	1.178	-4.827	2.112	 H	1	UNK0	0.000	
32	   H	-2.834	-4.574	-1.014	 H	1	UNK0	0.000	
33	   H	1.040	0.226	-1.742	 H	1	UNK0	0.000	
34	   H	-0.661	6.384	1.959	 H	1	UNK0	0.000	
35	   H	-3.849	2.353	1.809	 H	1	UNK0	0.000	
36	   H	-4.198	3.020	0.134	 H	1	UNK0	0.000	
37	   H	-4.430	4.083	1.526	 H	1	UNK0	0.000	
38	   H	2.085	3.823	-0.920	 H	1	UNK0	0.000	
39	   H	2.124	2.161	-1.567	 H	1	UNK0	0.000	
40	   H	3.831	2.482	-0.004	 H	1	UNK0	0.000	
41	   H	2.785	2.989	1.317	 H	1	UNK0	0.000	
42	   H	2.572	0.953	1.759	 H	1	UNK0	0.000	
@<TRIPOS>BOND
1 1 2 1
2 2 3 2
3 2 7 1
4 3 4 1
5 4 5 2
6 4 11 1
7 5 6 1
8 5 8 1
9 6 7 2
10 8 9 1
11 9 10 2
12 9 11 1
13 11 12 2
14 12 13 1
15 13 14 1
16 14 15 1
17 14 18 2
18 15 16 1
19 15 26 1
20 16 17 2
21 16 23 1
22 17 18 1
23 17 19 1
24 19 20 1
25 19 25 1
26 20 21 2
27 20 22 1
28 22 23 1
29 23 24 2
30 26 27 1
31 27 28 1
32 3 29 1
33 6 30 1
34 7 31 1
35 8 32 1
36 13 33 1
37 22 34 1
38 25 35 1
39 25 36 1
40 25 37 1
41 26 38 1
42 26 39 1
43 27 40 1
44 27 41 1
45 28 42 1
@<TRIPOS>SUBSTRUCTURE
1	UNK0	1	GROUP	1 ****	UNK
