# created with PyMOL 2.3.2
@<TRIPOS>MOLECULE
527
44 47 1                 
SMALL
USER_CHARGES
@<TRIPOS>ATOM
1	  Br	-3.221	-3.579	-5.315	Br	1	UNK0	0.000	
2	   C	-4.245	-2.298	-4.348	C.2	1	UNK0	0.000	
3	   C	-3.824	-1.786	-3.134	C.2	1	UNK0	0.000	
4	   C	-4.553	-0.857	-2.418	C.2	1	UNK0	0.000	
5	   C	-5.753	-0.424	-2.943	C.2	1	UNK0	0.000	
6	   C	-6.180	-0.929	-4.152	C.2	1	UNK0	0.000	
7	   C	-5.451	-1.859	-4.869	C.2	1	UNK0	0.000	
8	   N	-6.311	0.521	-2.033	N.pl3	1	UNK0	0.000	
9	   C	-5.436	0.687	-0.904	C.2	1	UNK0	0.000	
10	   O	-5.611	1.432	0.078	O.2	1	UNK0	0.000	
11	   C	-4.306	-0.185	-1.130	C.2	1	UNK0	0.000	
12	   N	-3.286	-0.344	-0.361	N.2	1	UNK0	0.000	
13	   N	-3.140	0.341	0.848	N.pl3	1	UNK0	0.000	
14	   C	-1.890	0.830	1.306	C.2	1	UNK0	0.000	
15	   O	-0.887	0.627	0.581	O.2	1	UNK0	0.000	
16	   C	-1.720	1.550	2.567	C.3	1	UNK0	0.000	
17	   N	-0.380	1.953	2.841	N.pl3	1	UNK0	0.000	
18	   C	0.715	1.056	2.971	C.2	1	UNK0	0.000	
19	   O	0.442	-0.175	2.828	O.2	1	UNK0	0.000	
20	   C	2.095	1.521	3.256	C.3	1	UNK0	0.000	
21	   O	2.924	0.386	3.323	O.3	1	UNK0	0.000	
22	   C	3.684	-0.087	2.284	C.2	1	UNK0	0.000	
23	   C	3.825	0.702	1.175	C.2	1	UNK0	0.000	
24	   C	4.596	0.205	0.137	C.2	1	UNK0	0.000	
25	   C	5.183	-1.026	0.235	C.2	1	UNK0	0.000	
26	   C	5.054	-1.833	1.338	C.2	1	UNK0	0.000	
27	   C	4.274	-1.329	2.386	C.2	1	UNK0	0.000	
28	   O	3.212	1.932	1.131	O.3	1	UNK0	0.000	
29	   C	2.573	2.530	2.242	C.3	1	UNK0	0.000	
30	   H	-2.883	-2.127	-2.726	 H	1	UNK0	0.000	
31	   H	-7.116	-0.608	-4.586	 H	1	UNK0	0.000	
32	   H	-5.778	-2.264	-5.823	 H	1	UNK0	0.000	
33	   H	-7.225	1.021	-2.167	 H	1	UNK0	0.000	
34	   H	-3.973	0.510	1.456	 H	1	UNK0	0.000	
35	   H	-2.040	0.861	3.390	 H	1	UNK0	0.000	
36	   H	-2.386	2.424	2.578	 H	1	UNK0	0.000	
37	   H	-0.165	2.968	2.957	 H	1	UNK0	0.000	
38	   H	2.131	2.018	4.254	 H	1	UNK0	0.000	
39	   H	4.704	0.829	-0.732	 H	1	UNK0	0.000	
40	   H	5.788	-1.410	-0.585	 H	1	UNK0	0.000	
41	   H	5.505	-2.809	1.442	 H	1	UNK0	0.000	
42	   H	4.164	-1.953	3.258	 H	1	UNK0	0.000	
43	   H	1.729	3.133	1.831	 H	1	UNK0	0.000	
44	   H	3.292	3.258	2.671	 H	1	UNK0	0.000	
@<TRIPOS>BOND
1 1 2 1
2 2 3 2
3 2 7 1
4 3 4 1
5 4 5 2
6 4 11 1
7 5 6 1
8 5 8 1
9 6 7 2
10 8 9 1
11 9 10 2
12 9 11 1
13 11 12 2
14 12 13 1
15 13 14 1
16 14 15 2
17 14 16 1
18 16 17 1
19 17 18 1
20 18 19 2
21 18 20 1
22 20 21 1
23 20 29 1
24 21 22 1
25 22 23 2
26 22 27 1
27 23 24 1
28 23 28 1
29 24 25 2
30 25 26 1
31 26 27 2
32 28 29 1
33 3 30 1
34 6 31 1
35 7 32 1
36 8 33 1
37 13 34 1
38 16 35 1
39 16 36 1
40 17 37 1
41 20 38 1
42 24 39 1
43 25 40 1
44 26 41 1
45 27 42 1
46 29 43 1
47 29 44 1
@<TRIPOS>SUBSTRUCTURE
1	UNK0	1	GROUP	1 ****	UNK
