# created with PyMOL 2.3.2
@<TRIPOS>MOLECULE
528
43 46 1                 
SMALL
USER_CHARGES
@<TRIPOS>ATOM
1	  Br	-7.158	-4.460	0.382	Br	1	UNK0	0.000	
2	   C	-6.342	-2.775	0.706	C.2	1	UNK0	0.000	
3	   C	-5.025	-2.543	0.416	C.2	1	UNK0	0.000	
4	   C	-4.420	-1.339	0.644	C.2	1	UNK0	0.000	
5	   C	-5.167	-0.316	1.188	C.2	1	UNK0	0.000	
6	   C	-6.498	-0.511	1.493	C.2	1	UNK0	0.000	
7	   C	-7.080	-1.737	1.252	C.2	1	UNK0	0.000	
8	   N	-4.295	0.817	1.332	N.pl3	1	UNK0	0.000	
9	   C	-2.997	0.478	0.870	C.2	1	UNK0	0.000	
10	   O	-1.986	1.246	0.855	O.2	1	UNK0	0.000	
11	   C	-3.043	-0.880	0.427	C.2	1	UNK0	0.000	
12	   N	-2.091	-1.616	-0.077	N.2	1	UNK0	0.000	
13	   N	-0.811	-1.008	-0.217	N.pl3	1	UNK0	0.000	
14	   C	-0.242	-0.745	-1.452	C.2	1	UNK0	0.000	
15	   O	-0.966	-1.113	-2.465	O.2	1	UNK0	0.000	
16	   C	1.012	-0.136	-1.815	C.2	1	UNK0	0.000	
17	   N	1.477	-0.047	-3.118	N.2	1	UNK0	0.000	
18	   N	2.611	0.572	-3.147	N.2	1	UNK0	0.000	
19	   N	2.993	0.942	-1.903	N.pl3	1	UNK0	0.000	
20	   C	2.011	0.505	-1.095	C.2	1	UNK0	0.000	
21	   C	1.996	0.638	0.370	C.3	1	UNK0	0.000	
22	   C	2.868	1.762	0.914	C.3	1	UNK0	0.000	
23	   C	2.498	-0.641	1.044	C.3	1	UNK0	0.000	
24	   C	4.206	1.632	-1.653	C.2	1	UNK0	0.000	
25	   N	5.420	1.153	-1.356	N.2	1	UNK0	0.000	
26	   O	6.246	2.176	-1.253	O.3	1	UNK0	0.000	
27	   N	5.631	3.295	-1.467	N.2	1	UNK0	0.000	
28	   C	4.362	3.008	-1.719	C.2	1	UNK0	0.000	
29	   N	3.299	3.920	-2.020	N.pl3	1	UNK0	0.000	
30	   H	-4.439	-3.361	-0.018	 H	1	UNK0	0.000	
31	   H	-7.105	0.280	1.920	 H	1	UNK0	0.000	
32	   H	-8.138	-1.918	1.487	 H	1	UNK0	0.000	
33	   H	-4.632	1.734	1.731	 H	1	UNK0	0.000	
34	   H	-0.366	-0.803	0.679	 H	1	UNK0	0.000	
35	   H	0.994	0.842	0.762	 H	1	UNK0	0.000	
36	   H	2.584	2.675	0.397	 H	1	UNK0	0.000	
37	   H	2.618	1.895	2.011	 H	1	UNK0	0.000	
38	   H	3.917	1.525	0.793	 H	1	UNK0	0.000	
39	   H	1.798	-1.476	1.000	 H	1	UNK0	0.000	
40	   H	3.445	-0.982	0.562	 H	1	UNK0	0.000	
41	   H	2.766	-0.441	2.105	 H	1	UNK0	0.000	
42	   H	2.433	3.612	-2.499	 H	1	UNK0	0.000	
43	   H	3.388	4.915	-1.753	 H	1	UNK0	0.000	
@<TRIPOS>BOND
1 1 2 1
2 2 3 2
3 2 7 1
4 3 4 1
5 4 5 2
6 4 11 1
7 5 6 1
8 5 8 1
9 6 7 2
10 8 9 1
11 9 10 2
12 9 11 1
13 11 12 2
14 12 13 1
15 13 14 1
16 14 15 2
17 14 16 1
18 16 17 1
19 16 20 2
20 17 18 2
21 18 19 1
22 19 20 1
23 19 24 1
24 20 21 1
25 21 22 1
26 21 23 1
27 24 25 2
28 24 28 1
29 25 26 1
30 26 27 1
31 27 28 2
32 28 29 1
33 3 30 1
34 6 31 1
35 7 32 1
36 8 33 1
37 13 34 1
38 21 35 1
39 22 36 1
40 22 37 1
41 22 38 1
42 23 39 1
43 23 40 1
44 23 41 1
45 29 42 1
46 29 43 1
@<TRIPOS>SUBSTRUCTURE
1	UNK0	1	GROUP	1 ****	UNK
