# created with PyMOL 2.3.2
@<TRIPOS>MOLECULE
529
43 46 1                 
SMALL
USER_CHARGES
@<TRIPOS>ATOM
1	  Br	4.549	5.474	-1.805	Br	1	UNK0	0.000	
2	   C	5.108	3.662	-1.593	C.2	1	UNK0	0.000	
3	   C	4.143	2.687	-1.462	C.2	1	UNK0	0.000	
4	   C	4.454	1.365	-1.294	C.2	1	UNK0	0.000	
5	   C	5.786	0.974	-1.251	C.2	1	UNK0	0.000	
6	   C	6.770	1.957	-1.380	C.2	1	UNK0	0.000	
7	   C	6.446	3.281	-1.551	C.2	1	UNK0	0.000	
8	   N	5.791	-0.422	-1.071	N.pl3	1	UNK0	0.000	
9	   C	4.452	-0.956	-0.993	C.2	1	UNK0	0.000	
10	   O	4.132	-2.153	-0.835	O.2	1	UNK0	0.000	
11	   C	3.584	0.172	-1.132	C.2	1	UNK0	0.000	
12	   N	2.377	0.205	-1.099	N.2	1	UNK0	0.000	
13	   N	1.361	-0.717	-0.969	N.pl3	1	UNK0	0.000	
14	   C	0.420	-1.571	-0.849	C.2	1	UNK0	0.000	
15	   O	0.603	-2.849	-0.684	O.2	1	UNK0	0.000	
16	   C	-1.028	-1.261	-0.875	C.2	1	UNK0	0.000	
17	   N	-1.589	-0.533	-1.896	N.2	1	UNK0	0.000	
18	   N	-2.860	-0.369	-1.579	N.2	1	UNK0	0.000	
19	   N	-3.149	-0.929	-0.443	N.pl3	1	UNK0	0.000	
20	   C	-1.980	-1.508	0.028	C.2	1	UNK0	0.000	
21	   C	-2.019	-2.162	1.339	C.3	1	UNK0	0.000	
22	   C	-0.754	-2.456	2.039	C.3	1	UNK0	0.000	
23	   C	0.089	-1.222	2.273	C.3	1	UNK0	0.000	
24	   C	-4.431	-0.905	0.190	C.2	1	UNK0	0.000	
25	   N	-5.516	-1.661	-0.001	N.2	1	UNK0	0.000	
26	   O	-6.479	-1.292	0.811	O.3	1	UNK0	0.000	
27	   N	-6.044	-0.290	1.541	N.2	1	UNK0	0.000	
28	   C	-4.798	-0.013	1.205	C.2	1	UNK0	0.000	
29	   N	-3.936	0.968	1.722	N.pl3	1	UNK0	0.000	
30	   H	3.103	2.994	-1.506	 H	1	UNK0	0.000	
31	   H	7.818	1.652	-1.357	 H	1	UNK0	0.000	
32	   H	7.188	4.050	-1.652	 H	1	UNK0	0.000	
33	   H	6.640	-1.054	-0.996	 H	1	UNK0	0.000	
34	   H	2.234	-1.634	-1.480	 H	1	UNK0	0.000	
35	   H	-2.679	-1.567	2.036	 H	1	UNK0	0.000	
36	   H	-2.593	-3.118	1.198	 H	1	UNK0	0.000	
37	   H	-1.053	-2.750	3.134	 H	1	UNK0	0.000	
38	   H	-0.172	-3.323	1.740	 H	1	UNK0	0.000	
39	   H	-0.336	-0.373	1.671	 H	1	UNK0	0.000	
40	   H	1.136	-1.370	1.932	 H	1	UNK0	0.000	
41	   H	0.157	-0.913	3.326	 H	1	UNK0	0.000	
42	   H	-3.685	1.868	1.229	 H	1	UNK0	0.000	
43	   H	-3.470	0.867	2.665	 H	1	UNK0	0.000	
@<TRIPOS>BOND
1 1 2 1
2 2 3 2
3 2 7 1
4 3 4 1
5 4 5 2
6 4 11 1
7 5 6 1
8 5 8 1
9 6 7 2
10 8 9 1
11 9 10 2
12 9 11 1
13 11 12 2
14 12 13 1
15 13 14 1
16 14 15 2
17 14 16 1
18 16 17 1
19 16 20 2
20 17 18 2
21 18 19 1
22 19 20 1
23 19 24 1
24 20 21 1
25 21 22 1
26 22 23 1
27 24 25 2
28 24 28 1
29 25 26 1
30 26 27 1
31 27 28 2
32 28 29 1
33 3 30 1
34 6 31 1
35 7 32 1
36 8 33 1
37 13 34 1
38 21 35 1
39 21 36 1
40 22 37 1
41 22 38 1
42 23 39 1
43 23 40 1
44 23 41 1
45 29 42 1
46 29 43 1
@<TRIPOS>SUBSTRUCTURE
1	UNK0	1	GROUP	1 ****	UNK
