# created with PyMOL 2.3.2
@<TRIPOS>MOLECULE
530
45 48 1                 
SMALL
USER_CHARGES
@<TRIPOS>ATOM
1	  Br	-3.661	0.140	6.682	Br	1	UNK0	0.000	
2	   C	-3.598	-0.112	4.767	C.2	1	UNK0	0.000	
3	   C	-2.712	-1.007	4.185	C.2	1	UNK0	0.000	
4	   C	-2.691	-1.137	2.783	C.2	1	UNK0	0.000	
5	   C	-3.541	-0.383	2.028	C.2	1	UNK0	0.000	
6	   C	-4.418	0.494	2.603	C.2	1	UNK0	0.000	
7	   C	-4.460	0.643	3.961	C.2	1	UNK0	0.000	
8	   N	-3.272	-0.665	0.664	N.pl3	1	UNK0	0.000	
9	   C	-2.206	-1.646	0.605	C.2	1	UNK0	0.000	
10	   O	-1.760	-2.091	-0.465	O.2	1	UNK0	0.000	
11	   C	-1.823	-1.961	1.976	C.2	1	UNK0	0.000	
12	   N	-0.941	-2.945	2.294	N.2	1	UNK0	0.000	
13	   N	-0.342	-3.338	0.988	N.pl3	1	UNK0	0.000	
14	   C	0.571	-2.266	0.661	C.2	1	UNK0	0.000	
15	   O	0.750	-1.441	1.658	O.2	1	UNK0	0.000	
16	   C	1.247	-1.976	-0.545	C.2	1	UNK0	0.000	
17	   N	1.469	-2.600	-1.698	N.2	1	UNK0	0.000	
18	   N	2.004	-1.762	-2.604	N.2	1	UNK0	0.000	
19	   N	2.152	-0.584	-2.085	N.pl3	1	UNK0	0.000	
20	   C	1.731	-0.618	-0.824	C.2	1	UNK0	0.000	
21	   C	1.602	0.451	0.147	C.3	1	UNK0	0.000	
22	   N	2.763	1.152	0.539	N.3	1	UNK0	0.000	
23	   C	3.793	1.668	-0.164	C.3	1	UNK0	0.000	
24	   C	2.677	1.537	1.927	C.3	1	UNK0	0.000	
25	   C	2.415	0.651	-2.814	C.2	1	UNK0	0.000	
26	   N	3.428	1.272	-3.332	N.2	1	UNK0	0.000	
27	   O	3.011	2.420	-3.894	O.3	1	UNK0	0.000	
28	   N	1.749	2.535	-3.740	N.2	1	UNK0	0.000	
29	   C	1.280	1.506	-3.090	C.2	1	UNK0	0.000	
30	   N	-0.028	1.179	-2.714	N.pl3	1	UNK0	0.000	
31	   H	-2.048	-1.587	4.782	 H	1	UNK0	0.000	
32	   H	-5.085	1.100	1.971	 H	1	UNK0	0.000	
33	   H	-5.141	1.324	4.414	 H	1	UNK0	0.000	
34	   H	-3.744	-0.263	-0.160	 H	1	UNK0	0.000	
35	   H	-0.548	-4.117	0.494	 H	1	UNK0	0.000	
36	   H	0.925	0.278	0.965	 H	1	UNK0	0.000	
37	   H	0.998	1.316	-0.435	 H	1	UNK0	0.000	
38	   H	4.654	2.000	0.525	 H	1	UNK0	0.000	
39	   H	4.319	0.937	-0.867	 H	1	UNK0	0.000	
40	   H	3.550	2.550	-0.765	 H	1	UNK0	0.000	
41	   H	1.574	1.628	2.193	 H	1	UNK0	0.000	
42	   H	3.100	2.512	2.176	 H	1	UNK0	0.000	
43	   H	3.121	0.773	2.615	 H	1	UNK0	0.000	
44	   H	-0.643	1.865	-2.221	 H	1	UNK0	0.000	
45	   H	-0.459	0.278	-2.912	 H	1	UNK0	0.000	
@<TRIPOS>BOND
1 1 2 1
2 2 3 2
3 2 7 1
4 3 4 1
5 4 5 2
6 4 11 1
7 5 6 1
8 5 8 1
9 6 7 2
10 8 9 1
11 9 10 2
12 9 11 1
13 11 12 2
14 12 13 1
15 13 14 1
16 14 15 2
17 14 16 1
18 16 17 1
19 16 20 2
20 17 18 2
21 18 19 1
22 19 20 1
23 19 25 1
24 20 21 1
25 21 22 1
26 22 23 1
27 22 24 1
28 25 26 2
29 25 29 1
30 26 27 1
31 27 28 1
32 28 29 2
33 29 30 1
34 3 31 1
35 6 32 1
36 7 33 1
37 8 34 1
38 13 35 1
39 21 36 1
40 21 37 1
41 23 38 1
42 23 39 1
43 23 40 1
44 24 41 1
45 24 42 1
46 24 43 1
47 30 44 1
48 30 45 1
@<TRIPOS>SUBSTRUCTURE
1	UNK0	1	GROUP	1 ****	UNK
