# created with PyMOL 2.3.2
@<TRIPOS>MOLECULE
531
41 44 1                 
SMALL
USER_CHARGES
@<TRIPOS>ATOM
1	  Br	2.251	8.959	1.489	Br	1	UNK0	0.000	
2	   C	2.152	7.274	2.399	C.2	1	UNK0	0.000	
3	   C	2.224	6.094	1.677	C.2	1	UNK0	0.000	
4	   C	2.151	4.869	2.337	C.2	1	UNK0	0.000	
5	   C	2.008	4.896	3.707	C.2	1	UNK0	0.000	
6	   C	1.936	6.085	4.420	C.2	1	UNK0	0.000	
7	   C	2.008	7.296	3.769	C.2	1	UNK0	0.000	
8	   N	1.964	3.526	4.109	N.pl3	1	UNK0	0.000	
9	   C	2.078	2.662	3.004	C.2	1	UNK0	0.000	
10	   O	2.079	1.397	2.974	O.2	1	UNK0	0.000	
11	   C	2.201	3.505	1.839	C.2	1	UNK0	0.000	
12	   N	2.330	3.082	0.603	N.2	1	UNK0	0.000	
13	   N	2.351	1.675	0.385	N.pl3	1	UNK0	0.000	
14	   C	1.143	1.036	-0.005	C.2	1	UNK0	0.000	
15	   O	0.090	1.685	-0.161	O.2	1	UNK0	0.000	
16	   C	1.158	-0.419	-0.226	C.2	1	UNK0	0.000	
17	   N	2.156	-1.277	-0.004	N.2	1	UNK0	0.000	
18	   N	1.789	-2.486	-0.341	N.2	1	UNK0	0.000	
19	   N	0.514	-2.473	-0.806	N.pl3	1	UNK0	0.000	
20	   C	0.100	-1.201	-0.745	C.2	1	UNK0	0.000	
21	   C	-1.158	-0.583	-1.176	C.3	1	UNK0	0.000	
22	   O	-2.182	-1.345	-1.590	O.3	1	UNK0	0.000	
23	   C	-2.898	-2.056	-0.674	C.3	1	UNK0	0.000	
24	   C	-0.140	-3.639	-1.286	C.2	1	UNK0	0.000	
25	   N	-0.516	-3.908	-2.562	N.2	1	UNK0	0.000	
26	   O	-1.069	-5.075	-2.613	O.3	1	UNK0	0.000	
27	   N	-1.100	-5.635	-1.438	N.2	1	UNK0	0.000	
28	   C	-0.520	-4.753	-0.577	C.2	1	UNK0	0.000	
29	   N	-0.343	-4.939	0.827	N.pl3	1	UNK0	0.000	
30	   H	2.335	6.065	0.608	 H	1	UNK0	0.000	
31	   H	1.823	6.102	5.494	 H	1	UNK0	0.000	
32	   H	1.956	8.257	4.295	 H	1	UNK0	0.000	
33	   H	1.860	3.237	5.100	 H	1	UNK0	0.000	
34	   H	3.213	1.137	0.484	 H	1	UNK0	0.000	
35	   H	-1.564	0.095	-0.356	 H	1	UNK0	0.000	
36	   H	-0.922	0.171	-1.991	 H	1	UNK0	0.000	
37	   H	-3.649	-2.675	-1.251	 H	1	UNK0	0.000	
38	   H	-3.579	-1.333	-0.090	 H	1	UNK0	0.000	
39	   H	-2.325	-2.652	-0.004	 H	1	UNK0	0.000	
40	   H	-1.174	-5.185	1.427	 H	1	UNK0	0.000	
41	   H	0.605	-4.823	1.221	 H	1	UNK0	0.000	
@<TRIPOS>BOND
1 1 2 1
2 2 3 2
3 2 7 1
4 3 4 1
5 4 5 2
6 4 11 1
7 5 6 1
8 5 8 1
9 6 7 2
10 8 9 1
11 9 10 2
12 9 11 1
13 11 12 2
14 12 13 1
15 13 14 1
16 14 15 2
17 14 16 1
18 16 17 1
19 16 20 2
20 17 18 2
21 18 19 1
22 19 20 1
23 19 24 1
24 20 21 1
25 21 22 1
26 22 23 1
27 24 25 2
28 24 28 1
29 25 26 1
30 26 27 1
31 27 28 2
32 28 29 1
33 3 30 1
34 6 31 1
35 7 32 1
36 8 33 1
37 13 34 1
38 21 35 1
39 21 36 1
40 23 37 1
41 23 38 1
42 23 39 1
43 29 40 1
44 29 41 1
@<TRIPOS>SUBSTRUCTURE
1	UNK0	1	GROUP	1 ****	UNK
