# created with PyMOL 2.3.2
@<TRIPOS>MOLECULE
532
44 48 1                 
SMALL
USER_CHARGES
@<TRIPOS>ATOM
1	  Br	-4.317	6.461	3.195	Br	1	UNK0	0.000	
2	   C	-2.454	6.154	2.909	C.2	1	UNK0	0.000	
3	   C	-2.067	5.033	2.202	C.2	1	UNK0	0.000	
4	   C	-0.738	4.762	1.966	C.2	1	UNK0	0.000	
5	   C	0.196	5.648	2.461	C.2	1	UNK0	0.000	
6	   C	-0.195	6.779	3.174	C.2	1	UNK0	0.000	
7	   C	-1.528	7.049	3.410	C.2	1	UNK0	0.000	
8	   N	1.468	5.139	2.082	N.pl3	1	UNK0	0.000	
9	   C	1.338	3.933	1.349	C.2	1	UNK0	0.000	
10	   O	2.256	3.208	0.856	O.2	1	UNK0	0.000	
11	   C	-0.081	3.666	1.260	C.2	1	UNK0	0.000	
12	   N	-0.622	2.653	0.667	N.2	1	UNK0	0.000	
13	   N	0.107	1.661	0.020	N.pl3	1	UNK0	0.000	
14	   C	-0.258	0.296	0.147	C.2	1	UNK0	0.000	
15	   O	-1.243	0.021	0.849	O.2	1	UNK0	0.000	
16	   C	0.486	-0.768	-0.520	C.2	1	UNK0	0.000	
17	   N	1.766	-0.600	-0.998	N.2	1	UNK0	0.000	
18	   N	2.162	-1.721	-1.489	N.2	1	UNK0	0.000	
19	   N	1.230	-2.679	-1.387	N.pl3	1	UNK0	0.000	
20	   C	0.172	-2.072	-0.776	C.2	1	UNK0	0.000	
21	   C	-1.109	-2.753	-0.632	C.2	1	UNK0	0.000	
22	   C	-1.142	-4.115	-0.426	C.2	1	UNK0	0.000	
23	   C	-2.337	-4.800	-0.391	C.2	1	UNK0	0.000	
24	   C	-3.536	-4.120	-0.564	C.2	1	UNK0	0.000	
25	   C	-3.552	-2.760	-0.773	C.2	1	UNK0	0.000	
26	   C	-2.314	-2.108	-0.801	C.2	1	UNK0	0.000	
27	   C	1.400	-4.006	-1.868	C.2	1	UNK0	0.000	
28	   N	0.727	-4.669	-2.826	N.2	1	UNK0	0.000	
29	   O	1.195	-5.865	-2.983	O.3	1	UNK0	0.000	
30	   N	2.174	-6.023	-2.148	N.2	1	UNK0	0.000	
31	   C	2.350	-4.905	-1.427	C.2	1	UNK0	0.000	
32	   N	3.350	-4.772	-0.429	N.pl3	1	UNK0	0.000	
33	   H	-2.800	4.334	1.811	 H	1	UNK0	0.000	
34	   H	0.526	7.482	3.568	 H	1	UNK0	0.000	
35	   H	-1.854	7.929	3.967	 H	1	UNK0	0.000	
36	   H	2.378	5.607	2.321	 H	1	UNK0	0.000	
37	   H	0.920	1.912	-0.557	 H	1	UNK0	0.000	
38	   H	-0.238	-4.714	-0.257	 H	1	UNK0	0.000	
39	   H	-2.341	-5.889	-0.226	 H	1	UNK0	0.000	
40	   H	-4.453	-4.698	-0.529	 H	1	UNK0	0.000	
41	   H	-4.479	-2.233	-0.906	 H	1	UNK0	0.000	
42	   H	-2.408	-1.050	-1.021	 H	1	UNK0	0.000	
43	   H	4.166	-4.113	-0.510	 H	1	UNK0	0.000	
44	   H	3.291	-5.348	0.439	 H	1	UNK0	0.000	
@<TRIPOS>BOND
1 1 2 1
2 2 3 2
3 2 7 1
4 3 4 1
5 4 5 2
6 4 11 1
7 5 6 1
8 5 8 1
9 6 7 2
10 8 9 1
11 9 10 2
12 9 11 1
13 11 12 2
14 12 13 1
15 13 14 1
16 14 15 2
17 14 16 1
18 16 17 1
19 16 20 2
20 17 18 2
21 18 19 1
22 19 20 1
23 19 27 1
24 20 21 1
25 21 22 2
26 21 26 1
27 22 23 1
28 23 24 2
29 24 25 1
30 25 26 2
31 27 28 2
32 27 31 1
33 28 29 1
34 29 30 1
35 30 31 2
36 31 32 1
37 3 33 1
38 6 34 1
39 7 35 1
40 8 36 1
41 13 37 1
42 22 38 1
43 23 39 1
44 24 40 1
45 25 41 1
46 26 42 1
47 32 43 1
48 32 44 1
@<TRIPOS>SUBSTRUCTURE
1	UNK0	1	GROUP	1 ****	UNK
