# created with PyMOL 2.3.2
@<TRIPOS>MOLECULE
533
35 38 1                 
SMALL
USER_CHARGES
@<TRIPOS>ATOM
1	  Br	5.126	4.924	-1.388	Br	1	UNK0	0.000	
2	   C	4.640	3.224	-2.162	C.2	1	UNK0	0.000	
3	   C	3.731	2.405	-1.523	C.2	1	UNK0	0.000	
4	   C	3.354	1.206	-2.028	C.2	1	UNK0	0.000	
5	   C	3.894	0.772	-3.235	C.2	1	UNK0	0.000	
6	   C	4.793	1.571	-3.874	C.2	1	UNK0	0.000	
7	   C	5.206	2.822	-3.376	C.2	1	UNK0	0.000	
8	   N	3.320	-0.511	-3.536	N.pl3	1	UNK0	0.000	
9	   C	2.395	-0.904	-2.499	C.2	1	UNK0	0.000	
10	   O	1.695	-1.931	-2.378	O.2	1	UNK0	0.000	
11	   C	2.422	0.186	-1.549	C.2	1	UNK0	0.000	
12	   N	1.673	0.151	-0.489	N.2	1	UNK0	0.000	
13	   N	0.891	-0.472	0.116	N.pl3	1	UNK0	0.000	
14	   C	0.231	-1.678	0.612	C.2	1	UNK0	0.000	
15	   O	0.564	-2.825	0.254	O.2	1	UNK0	0.000	
16	   C	-0.871	-1.605	1.589	C.2	1	UNK0	0.000	
17	   N	-1.273	-0.548	2.296	N.2	1	UNK0	0.000	
18	   N	-2.290	-0.837	3.080	N.pl3	1	UNK0	0.000	
19	   C	-2.622	-2.129	2.928	C.2	1	UNK0	0.000	
20	   C	-1.729	-2.644	1.974	C.2	1	UNK0	0.000	
21	   C	-2.047	-4.048	1.753	C.3	1	UNK0	0.000	
22	   C	-3.539	-4.101	2.107	C.3	1	UNK0	0.000	
23	   C	-3.557	-3.207	3.354	C.3	1	UNK0	0.000	
24	   H	3.325	2.749	-0.591	 H	1	UNK0	0.000	
25	   H	5.250	1.286	-4.808	 H	1	UNK0	0.000	
26	   H	5.909	3.437	-3.909	 H	1	UNK0	0.000	
27	   H	3.515	-1.094	-4.358	 H	1	UNK0	0.000	
28	   H	0.140	0.322	0.711	 H	1	UNK0	0.000	
29	   H	-2.809	-0.192	3.743	 H	1	UNK0	0.000	
30	   H	-1.875	-4.360	0.694	 H	1	UNK0	0.000	
31	   H	-1.569	-4.753	2.465	 H	1	UNK0	0.000	
32	   H	-3.913	-5.097	2.318	 H	1	UNK0	0.000	
33	   H	-4.070	-3.573	1.285	 H	1	UNK0	0.000	
34	   H	-3.108	-3.763	4.181	 H	1	UNK0	0.000	
35	   H	-4.583	-2.824	3.528	 H	1	UNK0	0.000	
@<TRIPOS>BOND
1 1 2 1
2 2 3 2
3 2 7 1
4 3 4 1
5 4 5 2
6 4 11 1
7 5 6 1
8 5 8 1
9 6 7 2
10 8 9 1
11 9 10 2
12 9 11 1
13 11 12 2
14 12 13 1
15 13 14 1
16 14 15 2
17 14 16 1
18 16 17 2
19 16 20 1
20 17 18 1
21 18 19 1
22 19 20 2
23 19 23 1
24 20 21 1
25 21 22 1
26 22 23 1
27 3 24 1
28 6 25 1
29 7 26 1
30 8 27 1
31 13 28 1
32 18 29 1
33 21 30 1
34 21 31 1
35 22 32 1
36 22 33 1
37 23 34 1
38 23 35 1
@<TRIPOS>SUBSTRUCTURE
1	UNK0	1	GROUP	1 ****	UNK
