# created with PyMOL 2.3.2
@<TRIPOS>MOLECULE
534
46 49 1                 
SMALL
USER_CHARGES
@<TRIPOS>ATOM
1	  Br	-7.093	0.707	-1.616	Br	1	UNK0	0.000	
2	   C	-5.338	0.875	-2.325	C.2	1	UNK0	0.000	
3	   C	-4.303	0.265	-1.683	C.2	1	UNK0	0.000	
4	   C	-3.018	0.368	-2.173	C.2	1	UNK0	0.000	
5	   C	-2.714	1.078	-3.313	C.2	1	UNK0	0.000	
6	   C	-3.802	1.690	-3.944	C.2	1	UNK0	0.000	
7	   C	-5.077	1.592	-3.464	C.2	1	UNK0	0.000	
8	   N	-1.322	1.018	-3.588	N.pl3	1	UNK0	0.000	
9	   C	-0.673	0.224	-2.574	C.2	1	UNK0	0.000	
10	   O	0.531	-0.055	-2.472	O.2	1	UNK0	0.000	
11	   C	-1.742	-0.189	-1.677	C.2	1	UNK0	0.000	
12	   N	-1.571	-0.904	-0.653	N.2	1	UNK0	0.000	
13	   N	-0.388	-1.436	-0.169	N.pl3	1	UNK0	0.000	
14	   C	0.567	-0.599	0.442	C.2	1	UNK0	0.000	
15	   N	1.719	-0.989	1.013	N.pl3	1	UNK0	0.000	
16	   C	2.286	0.169	1.478	C.2	1	UNK0	0.000	
17	   C	1.498	1.248	1.197	C.2	1	UNK0	0.000	
18	   N	0.431	0.754	0.551	N.2	1	UNK0	0.000	
19	   N	1.806	2.525	1.538	N.pl3	1	UNK0	0.000	
20	   C	2.962	2.722	2.193	C.2	1	UNK0	0.000	
21	   O	3.290	3.889	2.530	O.2	1	UNK0	0.000	
22	   N	3.779	1.681	2.494	N.pl3	1	UNK0	0.000	
23	   C	3.466	0.419	2.153	C.2	1	UNK0	0.000	
24	   O	4.225	-0.515	2.438	O.2	1	UNK0	0.000	
25	   C	0.932	3.639	1.215	C.3	1	UNK0	0.000	
26	   C	2.352	-2.259	1.168	C.3	1	UNK0	0.000	
27	   C	3.349	-2.623	0.133	C.3	1	UNK0	0.000	
28	   O	3.880	-3.899	0.468	O.3	1	UNK0	0.000	
29	   C	2.797	-2.807	-1.260	C.3	1	UNK0	0.000	
30	   O	1.841	-3.792	-1.360	O.3	1	UNK0	0.000	
31	   H	-4.471	-0.308	-0.784	 H	1	UNK0	0.000	
32	   H	-3.595	2.253	-4.838	 H	1	UNK0	0.000	
33	   H	-5.913	2.080	-3.973	 H	1	UNK0	0.000	
34	   H	-0.820	1.465	-4.388	 H	1	UNK0	0.000	
35	   H	-0.184	-2.465	-0.237	 H	1	UNK0	0.000	
36	   H	4.680	1.882	3.011	 H	1	UNK0	0.000	
37	   H	1.406	4.340	0.480	 H	1	UNK0	0.000	
38	   H	0.802	4.234	2.148	 H	1	UNK0	0.000	
39	   H	-0.072	3.307	0.914	 H	1	UNK0	0.000	
40	   H	1.589	-3.105	1.170	 H	1	UNK0	0.000	
41	   H	2.796	-2.328	2.185	 H	1	UNK0	0.000	
42	   H	4.237	-1.953	0.107	 H	1	UNK0	0.000	
43	   H	3.073	-4.404	0.798	 H	1	UNK0	0.000	
44	   H	2.350	-1.872	-1.651	 H	1	UNK0	0.000	
45	   H	3.662	-3.016	-1.961	 H	1	UNK0	0.000	
46	   H	2.234	-4.636	-1.656	 H	1	UNK0	0.000	
@<TRIPOS>BOND
1 1 2 1
2 2 3 2
3 2 7 1
4 3 4 1
5 4 5 2
6 4 11 1
7 5 6 1
8 5 8 1
9 6 7 2
10 8 9 1
11 9 10 2
12 9 11 1
13 11 12 2
14 12 13 1
15 13 14 1
16 14 15 1
17 14 18 2
18 15 16 1
19 15 26 1
20 16 17 2
21 16 23 1
22 17 18 1
23 17 19 1
24 19 20 1
25 19 25 1
26 20 21 2
27 20 22 1
28 22 23 1
29 23 24 2
30 26 27 1
31 27 28 1
32 27 29 1
33 29 30 1
34 3 31 1
35 6 32 1
36 7 33 1
37 8 34 1
38 13 35 1
39 22 36 1
40 25 37 1
41 25 38 1
42 25 39 1
43 26 40 1
44 26 41 1
45 27 42 1
46 28 43 1
47 29 44 1
48 29 45 1
49 30 46 1
@<TRIPOS>SUBSTRUCTURE
1	UNK0	1	GROUP	1 ****	UNK
