# created with PyMOL 2.3.2
@<TRIPOS>MOLECULE
535
45 48 1                 
SMALL
USER_CHARGES
@<TRIPOS>ATOM
1	  Br	0.827	-6.978	0.446	Br	1	UNK0	0.000	
2	   C	-0.474	-5.858	-0.396	C.2	1	UNK0	0.000	
3	   C	-0.214	-4.517	-0.493	C.2	1	UNK0	0.000	
4	   C	-1.143	-3.693	-1.099	C.2	1	UNK0	0.000	
5	   C	-2.311	-4.235	-1.594	C.2	1	UNK0	0.000	
6	   C	-2.572	-5.589	-1.496	C.2	1	UNK0	0.000	
7	   C	-1.650	-6.418	-0.893	C.2	1	UNK0	0.000	
8	   N	-3.070	-3.169	-2.156	N.pl3	1	UNK0	0.000	
9	   C	-2.366	-1.937	-2.010	C.2	1	UNK0	0.000	
10	   O	-2.695	-0.787	-2.370	O.2	1	UNK0	0.000	
11	   C	-1.115	-2.247	-1.329	C.2	1	UNK0	0.000	
12	   N	-0.193	-1.399	-1.009	N.2	1	UNK0	0.000	
13	   N	-0.290	-0.035	-1.289	N.pl3	1	UNK0	0.000	
14	   C	0.081	0.912	-0.299	C.2	1	UNK0	0.000	
15	   N	0.034	2.269	-0.445	N.pl3	1	UNK0	0.000	
16	   C	0.470	2.796	0.724	C.2	1	UNK0	0.000	
17	   C	0.794	1.775	1.612	C.2	1	UNK0	0.000	
18	   N	0.537	0.634	0.934	N.2	1	UNK0	0.000	
19	   N	1.255	2.051	2.845	N.pl3	1	UNK0	0.000	
20	   C	1.423	3.314	3.271	C.2	1	UNK0	0.000	
21	   O	1.863	3.554	4.447	O.2	1	UNK0	0.000	
22	   N	1.125	4.332	2.448	N.pl3	1	UNK0	0.000	
23	   C	0.660	4.077	1.207	C.2	1	UNK0	0.000	
24	   O	0.375	5.040	0.419	O.2	1	UNK0	0.000	
25	   C	1.591	0.985	3.768	C.3	1	UNK0	0.000	
26	   C	-0.389	3.005	-1.618	C.3	1	UNK0	0.000	
27	   C	-1.893	3.256	-1.620	C.3	1	UNK0	0.000	
28	   O	-2.332	3.980	-0.533	O.3	1	UNK0	0.000	
29	   C	-3.703	4.135	-0.660	C.3	1	UNK0	0.000	
30	   H	0.711	-4.073	-0.103	 H	1	UNK0	0.000	
31	   H	-3.475	-6.047	-1.872	 H	1	UNK0	0.000	
32	   H	-1.780	-7.479	-0.779	 H	1	UNK0	0.000	
33	   H	-4.004	-3.243	-2.612	 H	1	UNK0	0.000	
34	   H	-0.630	0.297	-2.212	 H	1	UNK0	0.000	
35	   H	1.263	5.299	2.798	 H	1	UNK0	0.000	
36	   H	0.776	0.798	4.511	 H	1	UNK0	0.000	
37	   H	1.824	0.041	3.211	 H	1	UNK0	0.000	
38	   H	2.497	1.323	4.331	 H	1	UNK0	0.000	
39	   H	0.172	3.960	-1.692	 H	1	UNK0	0.000	
40	   H	-0.088	2.408	-2.500	 H	1	UNK0	0.000	
41	   H	-2.411	2.267	-1.584	 H	1	UNK0	0.000	
42	   H	-2.220	3.752	-2.537	 H	1	UNK0	0.000	
43	   H	-4.143	3.099	-0.676	 H	1	UNK0	0.000	
44	   H	-3.978	4.593	-1.641	 H	1	UNK0	0.000	
45	   H	-4.176	4.656	0.180	 H	1	UNK0	0.000	
@<TRIPOS>BOND
1 1 2 1
2 2 3 2
3 2 7 1
4 3 4 1
5 4 5 2
6 4 11 1
7 5 6 1
8 5 8 1
9 6 7 2
10 8 9 1
11 9 10 2
12 9 11 1
13 11 12 2
14 12 13 1
15 13 14 1
16 14 15 1
17 14 18 2
18 15 16 1
19 15 26 1
20 16 17 2
21 16 23 1
22 17 18 1
23 17 19 1
24 19 20 1
25 19 25 1
26 20 21 2
27 20 22 1
28 22 23 1
29 23 24 2
30 26 27 1
31 27 28 1
32 28 29 1
33 3 30 1
34 6 31 1
35 7 32 1
36 8 33 1
37 13 34 1
38 22 35 1
39 25 36 1
40 25 37 1
41 25 38 1
42 26 39 1
43 26 40 1
44 27 41 1
45 27 42 1
46 29 43 1
47 29 44 1
48 29 45 1
@<TRIPOS>SUBSTRUCTURE
1	UNK0	1	GROUP	1 ****	UNK
