# created with PyMOL 2.3.2
@<TRIPOS>MOLECULE
536
42 45 1                 
SMALL
USER_CHARGES
@<TRIPOS>ATOM
1	  Br	1.516	3.546	6.285	Br	1	UNK0	0.000	
2	   C	2.033	1.916	5.449	C.2	1	UNK0	0.000	
3	   C	1.446	1.533	4.262	C.2	1	UNK0	0.000	
4	   C	1.802	0.360	3.637	C.2	1	UNK0	0.000	
5	   C	2.767	-0.410	4.247	C.2	1	UNK0	0.000	
6	   C	3.364	-0.030	5.443	C.2	1	UNK0	0.000	
7	   C	2.999	1.148	6.061	C.2	1	UNK0	0.000	
8	   N	2.952	-1.551	3.399	N.pl3	1	UNK0	0.000	
9	   C	2.096	-1.482	2.263	C.2	1	UNK0	0.000	
10	   O	2.001	-2.322	1.316	O.2	1	UNK0	0.000	
11	   C	1.339	-0.248	2.396	C.2	1	UNK0	0.000	
12	   N	0.451	0.178	1.567	N.2	1	UNK0	0.000	
13	   N	0.125	-0.532	0.415	N.pl3	1	UNK0	0.000	
14	   C	0.062	0.171	-0.823	C.2	1	UNK0	0.000	
15	   N	-0.985	0.406	-1.622	N.pl3	1	UNK0	0.000	
16	   C	-0.529	1.137	-2.658	C.2	1	UNK0	0.000	
17	   C	0.813	1.374	-2.530	C.2	1	UNK0	0.000	
18	   N	1.167	0.767	-1.387	N.2	1	UNK0	0.000	
19	   N	1.528	2.088	-3.437	N.pl3	1	UNK0	0.000	
20	   C	0.882	2.578	-4.500	C.2	1	UNK0	0.000	
21	   O	1.512	3.244	-5.360	O.2	1	UNK0	0.000	
22	   N	-0.445	2.353	-4.641	N.pl3	1	UNK0	0.000	
23	   C	-1.172	1.648	-3.755	C.2	1	UNK0	0.000	
24	   O	-2.384	1.466	-3.923	O.2	1	UNK0	0.000	
25	   C	2.941	2.302	-3.232	C.3	1	UNK0	0.000	
26	   C	-2.327	-0.054	-1.396	C.3	1	UNK0	0.000	
27	   C	-2.562	-1.422	-2.049	C.3	1	UNK0	0.000	
28	   O	-1.701	-2.390	-1.546	O.3	1	UNK0	0.000	
29	   H	0.679	2.138	3.773	 H	1	UNK0	0.000	
30	   H	4.118	-0.630	5.921	 H	1	UNK0	0.000	
31	   H	3.459	1.466	7.009	 H	1	UNK0	0.000	
32	   H	3.633	-2.312	3.622	 H	1	UNK0	0.000	
33	   H	-0.063	-1.539	0.480	 H	1	UNK0	0.000	
34	   H	-0.925	2.747	-5.476	 H	1	UNK0	0.000	
35	   H	3.144	3.408	-3.243	 H	1	UNK0	0.000	
36	   H	3.259	1.839	-2.275	 H	1	UNK0	0.000	
37	   H	3.527	1.855	-4.060	 H	1	UNK0	0.000	
38	   H	-3.095	0.614	-1.796	 H	1	UNK0	0.000	
39	   H	-2.485	-0.158	-0.307	 H	1	UNK0	0.000	
40	   H	-2.391	-1.327	-3.161	 H	1	UNK0	0.000	
41	   H	-3.602	-1.742	-1.853	 H	1	UNK0	0.000	
42	   H	-0.861	-2.428	-2.089	 H	1	UNK0	0.000	
@<TRIPOS>BOND
1 1 2 1
2 2 3 2
3 2 7 1
4 3 4 1
5 4 5 2
6 4 11 1
7 5 6 1
8 5 8 1
9 6 7 2
10 8 9 1
11 9 10 2
12 9 11 1
13 11 12 2
14 12 13 1
15 13 14 1
16 14 15 1
17 14 18 2
18 15 16 1
19 15 26 1
20 16 17 2
21 16 23 1
22 17 18 1
23 17 19 1
24 19 20 1
25 19 25 1
26 20 21 2
27 20 22 1
28 22 23 1
29 23 24 2
30 26 27 1
31 27 28 1
32 3 29 1
33 6 30 1
34 7 31 1
35 8 32 1
36 13 33 1
37 22 34 1
38 25 35 1
39 25 36 1
40 25 37 1
41 26 38 1
42 26 39 1
43 27 40 1
44 27 41 1
45 28 42 1
@<TRIPOS>SUBSTRUCTURE
1	UNK0	1	GROUP	1 ****	UNK
