# created with PyMOL 2.3.2
@<TRIPOS>MOLECULE
541
38 41 1                 
SMALL
USER_CHARGES
@<TRIPOS>ATOM
1	  Br	1.821	-5.383	2.339	Br	1	UNK0	0.000	
2	   C	1.670	-3.482	2.581	C.2	1	UNK0	0.000	
3	   C	0.863	-2.760	1.732	C.2	1	UNK0	0.000	
4	   C	0.782	-1.378	1.941	C.2	1	UNK0	0.000	
5	   C	1.486	-0.776	2.961	C.2	1	UNK0	0.000	
6	   C	2.292	-1.546	3.803	C.2	1	UNK0	0.000	
7	   C	2.386	-2.903	3.615	C.2	1	UNK0	0.000	
8	   N	1.196	0.640	2.907	N.pl3	1	UNK0	0.000	
9	   C	0.294	0.885	1.823	C.2	1	UNK0	0.000	
10	   O	-0.180	1.985	1.462	O.2	1	UNK0	0.000	
11	   C	0.011	-0.399	1.184	C.2	1	UNK0	0.000	
12	   N	-0.764	-0.592	0.176	N.2	1	UNK0	0.000	
13	   N	-1.461	0.390	-0.495	N.pl3	1	UNK0	0.000	
14	   C	-1.091	1.014	-1.783	C.3	1	UNK0	0.000	
15	   C	-2.287	1.695	-2.298	C.3	1	UNK0	0.000	
16	   C	-3.379	1.463	-1.320	C.2	1	UNK0	0.000	
17	   O	-4.601	1.628	-1.501	O.2	1	UNK0	0.000	
18	   C	-2.672	0.993	-0.099	C.2	1	UNK0	0.000	
19	   O	-3.092	1.115	1.094	O.2	1	UNK0	0.000	
20	   O	-0.819	-0.104	-2.624	O.3	1	UNK0	0.000	
21	   C	0.160	1.752	-1.692	C.2	1	UNK0	0.000	
22	   C	0.177	3.124	-1.653	C.2	1	UNK0	0.000	
23	   C	1.431	3.745	-1.548	C.2	1	UNK0	0.000	
24	   C	2.610	3.057	-1.484	C.2	1	UNK0	0.000	
25	   C	2.570	1.678	-1.526	C.2	1	UNK0	0.000	
26	   C	1.363	1.029	-1.628	C.2	1	UNK0	0.000	
27	   H	0.310	-3.206	0.924	 H	1	UNK0	0.000	
28	   H	2.843	-1.090	4.598	 H	1	UNK0	0.000	
29	   H	3.002	-3.547	4.252	 H	1	UNK0	0.000	
30	   H	1.588	1.347	3.561	 H	1	UNK0	0.000	
31	   H	-2.238	2.815	-2.376	 H	1	UNK0	0.000	
32	   H	-2.576	1.268	-3.298	 H	1	UNK0	0.000	
33	   H	-0.591	-0.897	-2.110	 H	1	UNK0	0.000	
34	   H	-0.691	3.762	-1.691	 H	1	UNK0	0.000	
35	   H	1.486	4.833	-1.510	 H	1	UNK0	0.000	
36	   H	3.556	3.622	-1.400	 H	1	UNK0	0.000	
37	   H	3.532	1.181	-1.473	 H	1	UNK0	0.000	
38	   H	1.388	-0.041	-1.654	 H	1	UNK0	0.000	
@<TRIPOS>BOND
1 1 2 1
2 2 3 2
3 2 7 1
4 3 4 1
5 4 5 2
6 4 11 1
7 5 6 1
8 5 8 1
9 6 7 2
10 8 9 1
11 9 10 2
12 9 11 1
13 11 12 2
14 12 13 1
15 13 14 1
16 13 18 1
17 14 15 1
18 14 20 1
19 14 21 1
20 15 16 1
21 16 17 2
22 16 18 1
23 18 19 2
24 21 22 2
25 21 26 1
26 22 23 1
27 23 24 2
28 24 25 1
29 25 26 2
30 3 27 1
31 6 28 1
32 7 29 1
33 8 30 1
34 15 31 1
35 15 32 1
36 20 33 1
37 22 34 1
38 23 35 1
39 24 36 1
40 25 37 1
41 26 38 1
@<TRIPOS>SUBSTRUCTURE
1	UNK0	1	GROUP	1 ****	UNK
