# created with PyMOL 2.3.2
@<TRIPOS>MOLECULE
542
46 49 1                 
SMALL
USER_CHARGES
@<TRIPOS>ATOM
1	  Br	2.567	-0.429	5.348	Br	1	UNK0	0.000	
2	   C	1.162	-1.313	4.398	C.2	1	UNK0	0.000	
3	   C	1.205	-1.354	3.033	C.2	1	UNK0	0.000	
4	   C	0.206	-1.979	2.333	C.2	1	UNK0	0.000	
5	   C	-0.857	-2.581	3.019	C.2	1	UNK0	0.000	
6	   C	-0.919	-2.551	4.391	C.2	1	UNK0	0.000	
7	   C	0.110	-1.906	5.062	C.2	1	UNK0	0.000	
8	   N	-1.864	-3.312	2.309	N.pl3	1	UNK0	0.000	
9	   C	-1.737	-3.402	0.897	C.2	1	UNK0	0.000	
10	   O	-2.691	-3.656	0.141	O.2	1	UNK0	0.000	
11	   C	-0.388	-3.181	0.280	C.3	1	UNK0	0.000	
12	   N	0.202	-1.983	0.922	N.pl3	1	UNK0	0.000	
13	   C	0.616	-0.930	0.140	C.2	1	UNK0	0.000	
14	   O	0.785	-1.201	-1.139	O.2	1	UNK0	0.000	
15	   C	0.905	0.472	0.443	C.3	1	UNK0	0.000	
16	   N	1.297	1.220	-0.769	N.pl3	1	UNK0	0.000	
17	   C	0.418	1.906	-1.643	C.2	1	UNK0	0.000	
18	   O	-0.844	1.969	-1.497	O.2	1	UNK0	0.000	
19	   N	1.193	2.501	-2.696	N.pl3	1	UNK0	0.000	
20	   C	2.511	1.943	-2.673	C.3	1	UNK0	0.000	
21	   C	3.588	2.965	-2.947	C.3	1	UNK0	0.000	
22	   C	3.728	3.076	-4.449	C.3	1	UNK0	0.000	
23	   C	4.310	1.822	-5.047	C.3	1	UNK0	0.000	
24	   C	4.078	0.650	-4.116	C.3	1	UNK0	0.000	
25	   C	2.652	0.752	-3.617	C.3	1	UNK0	0.000	
26	   C	2.607	1.399	-1.292	C.2	1	UNK0	0.000	
27	   O	3.643	1.117	-0.627	O.2	1	UNK0	0.000	
28	   H	2.036	-0.932	2.459	 H	1	UNK0	0.000	
29	   H	-1.750	-3.020	4.926	 H	1	UNK0	0.000	
30	   H	0.064	-1.879	6.155	 H	1	UNK0	0.000	
31	   H	-2.659	-3.762	2.789	 H	1	UNK0	0.000	
32	   H	0.257	-4.026	0.559	 H	1	UNK0	0.000	
33	   H	-0.444	-3.088	-0.801	 H	1	UNK0	0.000	
34	   H	1.550	0.723	1.263	 H	1	UNK0	0.000	
35	   H	-0.106	0.926	0.722	 H	1	UNK0	0.000	
36	   H	0.772	3.227	-3.338	 H	1	UNK0	0.000	
37	   H	3.281	3.921	-2.525	 H	1	UNK0	0.000	
38	   H	4.520	2.585	-2.484	 H	1	UNK0	0.000	
39	   H	4.356	3.938	-4.753	 H	1	UNK0	0.000	
40	   H	2.697	3.241	-4.846	 H	1	UNK0	0.000	
41	   H	5.410	1.922	-5.234	 H	1	UNK0	0.000	
42	   H	3.830	1.572	-6.016	 H	1	UNK0	0.000	
43	   H	4.128	-0.289	-4.728	 H	1	UNK0	0.000	
44	   H	4.815	0.613	-3.289	 H	1	UNK0	0.000	
45	   H	2.015	0.971	-4.503	 H	1	UNK0	0.000	
46	   H	2.389	-0.196	-3.133	 H	1	UNK0	0.000	
@<TRIPOS>BOND
1 1 2 1
2 2 3 2
3 2 7 1
4 3 4 1
5 4 5 2
6 4 12 1
7 5 6 1
8 5 8 1
9 6 7 2
10 8 9 1
11 9 10 2
12 9 11 1
13 11 12 1
14 12 13 1
15 13 14 2
16 13 15 1
17 15 16 1
18 16 17 1
19 16 26 1
20 17 18 2
21 17 19 1
22 19 20 1
23 20 21 1
24 20 25 1
25 20 26 1
26 21 22 1
27 22 23 1
28 23 24 1
29 24 25 1
30 26 27 2
31 3 28 1
32 6 29 1
33 7 30 1
34 8 31 1
35 11 32 1
36 11 33 1
37 15 34 1
38 15 35 1
39 19 36 1
40 21 37 1
41 21 38 1
42 22 39 1
43 22 40 1
44 23 41 1
45 23 42 1
46 24 43 1
47 24 44 1
48 25 45 1
49 25 46 1
@<TRIPOS>SUBSTRUCTURE
1	UNK0	1	GROUP	1 ****	UNK
