# created with PyMOL 2.3.2
@<TRIPOS>MOLECULE
543
37 40 1                 
SMALL
USER_CHARGES
@<TRIPOS>ATOM
1	  Br	-4.075	-2.058	1.058	Br	1	UNK0	0.000	
2	   C	-2.572	-1.953	-0.111	C.2	1	UNK0	0.000	
3	   C	-1.546	-1.087	0.137	C.2	1	UNK0	0.000	
4	   C	-0.435	-1.000	-0.716	C.2	1	UNK0	0.000	
5	   C	-0.332	-1.778	-1.829	C.2	1	UNK0	0.000	
6	   C	-1.383	-2.668	-2.089	C.2	1	UNK0	0.000	
7	   C	-2.464	-2.741	-1.244	C.2	1	UNK0	0.000	
8	   N	0.879	-1.515	-2.516	N.pl3	1	UNK0	0.000	
9	   C	1.574	-0.516	-1.791	C.2	1	UNK0	0.000	
10	   O	2.723	-0.094	-2.176	O.2	1	UNK0	0.000	
11	   C	0.776	-0.131	-0.646	C.3	1	UNK0	0.000	
12	   N	1.392	-0.430	0.628	N.3	1	UNK0	0.000	
13	   C	1.178	0.664	1.521	C.3	1	UNK0	0.000	
14	   C	1.054	1.883	0.627	C.3	1	UNK0	0.000	
15	   C	0.360	1.323	-0.603	C.3	1	UNK0	0.000	
16	   C	0.602	2.088	-1.814	C.2	1	UNK0	0.000	
17	   O	-0.390	2.562	-2.473	O.2	1	UNK0	0.000	
18	   N	1.870	2.387	-2.385	N.pl3	1	UNK0	0.000	
19	   C	2.415	0.721	2.403	C.3	1	UNK0	0.000	
20	   C	3.128	-0.579	2.081	C.3	1	UNK0	0.000	
21	   C	2.798	-0.684	0.581	C.3	1	UNK0	0.000	
22	   H	-1.583	-0.444	1.016	 H	1	UNK0	0.000	
23	   H	-1.307	-3.288	-2.972	 H	1	UNK0	0.000	
24	   H	-3.287	-3.428	-1.434	 H	1	UNK0	0.000	
25	   H	1.153	-2.006	-3.401	 H	1	UNK0	0.000	
26	   H	0.275	0.581	2.124	 H	1	UNK0	0.000	
27	   H	2.030	2.335	0.398	 H	1	UNK0	0.000	
28	   H	0.443	2.643	1.148	 H	1	UNK0	0.000	
29	   H	-0.735	1.366	-0.354	 H	1	UNK0	0.000	
30	   H	2.659	2.733	-1.797	 H	1	UNK0	0.000	
31	   H	1.992	2.252	-3.408	 H	1	UNK0	0.000	
32	   H	2.091	0.714	3.450	 H	1	UNK0	0.000	
33	   H	3.025	1.602	2.191	 H	1	UNK0	0.000	
34	   H	2.603	-1.420	2.572	 H	1	UNK0	0.000	
35	   H	4.202	-0.543	2.252	 H	1	UNK0	0.000	
36	   H	3.387	0.084	0.036	 H	1	UNK0	0.000	
37	   H	3.023	-1.709	0.284	 H	1	UNK0	0.000	
@<TRIPOS>BOND
1 1 2 1
2 2 3 2
3 2 7 1
4 3 4 1
5 4 5 2
6 4 11 1
7 5 6 1
8 5 8 1
9 6 7 2
10 8 9 1
11 9 10 2
12 9 11 1
13 11 12 1
14 11 15 1
15 12 13 1
16 12 21 1
17 13 14 1
18 13 19 1
19 14 15 1
20 15 16 1
21 16 17 2
22 16 18 1
23 19 20 1
24 20 21 1
25 3 22 1
26 6 23 1
27 7 24 1
28 8 25 1
29 13 26 1
30 14 27 1
31 14 28 1
32 15 29 1
33 18 30 1
34 18 31 1
35 19 32 1
36 19 33 1
37 20 34 1
38 20 35 1
39 21 36 1
40 21 37 1
@<TRIPOS>SUBSTRUCTURE
1	UNK0	1	GROUP	1 ****	UNK
