# created with PyMOL 2.3.2
@<TRIPOS>MOLECULE
544
41 44 1                 
SMALL
USER_CHARGES
@<TRIPOS>ATOM
1	  Br	6.964	3.280	-2.481	Br	1	UNK0	0.000	
2	   C	5.280	2.391	-2.334	C.2	1	UNK0	0.000	
3	   C	4.549	2.545	-1.174	C.2	1	UNK0	0.000	
4	   C	3.350	1.912	-1.069	C.2	1	UNK0	0.000	
5	   C	2.873	1.130	-2.106	C.2	1	UNK0	0.000	
6	   C	3.599	0.975	-3.261	C.2	1	UNK0	0.000	
7	   C	4.812	1.609	-3.381	C.2	1	UNK0	0.000	
8	   N	1.637	0.395	-2.166	N.pl3	1	UNK0	0.000	
9	   C	0.581	0.435	-1.223	C.2	1	UNK0	0.000	
10	   O	-0.575	0.307	-1.771	O.2	1	UNK0	0.000	
11	   C	0.573	0.589	0.211	C.3	1	UNK0	0.000	
12	   N	1.582	1.407	0.807	N.pl3	1	UNK0	0.000	
13	   C	1.615	1.588	2.232	C.3	1	UNK0	0.000	
14	   C	1.125	0.425	3.049	C.3	1	UNK0	0.000	
15	   N	0.234	-0.432	2.255	N.pl3	1	UNK0	0.000	
16	   C	0.692	-0.758	0.955	C.3	1	UNK0	0.000	
17	   C	-0.937	-0.894	2.845	C.2	1	UNK0	0.000	
18	   O	-1.128	-0.614	4.110	O.2	1	UNK0	0.000	
19	   C	-2.019	-1.661	2.270	C.2	1	UNK0	0.000	
20	   C	-2.913	-2.293	3.149	C.2	1	UNK0	0.000	
21	   N	-3.980	-2.971	2.706	N.2	1	UNK0	0.000	
22	   C	-4.263	-3.090	1.405	C.2	1	UNK0	0.000	
23	   C	-3.420	-2.490	0.503	C.2	1	UNK0	0.000	
24	   C	-2.307	-1.779	0.930	C.2	1	UNK0	0.000	
25	   C	2.651	2.136	0.197	C.2	1	UNK0	0.000	
26	   O	3.061	3.128	0.847	O.2	1	UNK0	0.000	
27	   H	4.879	3.147	-0.333	 H	1	UNK0	0.000	
28	   H	3.223	0.367	-4.061	 H	1	UNK0	0.000	
29	   H	5.439	1.526	-4.276	 H	1	UNK0	0.000	
30	   H	1.514	-0.237	-3.007	 H	1	UNK0	0.000	
31	   H	-0.413	1.060	0.505	 H	1	UNK0	0.000	
32	   H	0.937	2.462	2.453	 H	1	UNK0	0.000	
33	   H	2.619	1.912	2.599	 H	1	UNK0	0.000	
34	   H	1.980	-0.207	3.335	 H	1	UNK0	0.000	
35	   H	0.644	0.781	3.972	 H	1	UNK0	0.000	
36	   H	1.844	-0.928	1.106	 H	1	UNK0	0.000	
37	   H	0.316	-1.610	0.434	 H	1	UNK0	0.000	
38	   H	-2.750	-2.246	4.237	 H	1	UNK0	0.000	
39	   H	-5.143	-3.651	1.051	 H	1	UNK0	0.000	
40	   H	-3.657	-2.591	-0.553	 H	1	UNK0	0.000	
41	   H	-1.728	-1.307	0.168	 H	1	UNK0	0.000	
@<TRIPOS>BOND
1 1 2 1
2 2 3 2
3 2 7 1
4 3 4 1
5 4 5 2
6 4 25 1
7 5 6 1
8 5 8 1
9 6 7 2
10 8 9 1
11 9 10 2
12 9 11 1
13 11 12 1
14 11 16 1
15 12 13 1
16 12 25 1
17 13 14 1
18 14 15 1
19 15 16 1
20 15 17 1
21 17 18 2
22 17 19 1
23 19 20 2
24 19 24 1
25 20 21 1
26 21 22 2
27 22 23 1
28 23 24 2
29 25 26 2
30 3 27 1
31 6 28 1
32 7 29 1
33 8 30 1
34 11 31 1
35 13 32 1
36 13 33 1
37 14 34 1
38 14 35 1
39 16 36 1
40 16 37 1
41 20 38 1
42 22 39 1
43 23 40 1
44 24 41 1
@<TRIPOS>SUBSTRUCTURE
1	UNK0	1	GROUP	1 ****	UNK
