# created with PyMOL 2.3.2
@<TRIPOS>MOLECULE
545
47 50 1                 
SMALL
USER_CHARGES
@<TRIPOS>ATOM
1	  Br	-4.132	-0.953	5.196	Br	1	UNK0	0.000	
2	   C	-2.593	-0.308	4.266	C.2	1	UNK0	0.000	
3	   C	-2.764	0.340	3.072	C.2	1	UNK0	0.000	
4	   C	-1.670	0.815	2.381	C.2	1	UNK0	0.000	
5	   C	-0.408	0.657	2.858	C.2	1	UNK0	0.000	
6	   C	-0.215	-0.001	4.073	C.2	1	UNK0	0.000	
7	   C	-1.314	-0.472	4.757	C.2	1	UNK0	0.000	
8	   N	0.829	1.070	2.301	N.pl3	1	UNK0	0.000	
9	   C	1.029	1.687	1.035	C.2	1	UNK0	0.000	
10	   O	2.205	2.161	0.926	O.2	1	UNK0	0.000	
11	   C	0.208	1.899	-0.149	C.3	1	UNK0	0.000	
12	   N	-1.204	1.827	0.020	N.pl3	1	UNK0	0.000	
13	   C	-2.023	2.158	-1.127	C.3	1	UNK0	0.000	
14	   C	-1.802	1.065	-2.149	C.3	1	UNK0	0.000	
15	   N	-0.588	0.317	-1.847	N.pl3	1	UNK0	0.000	
16	   C	0.584	0.976	-1.298	C.3	1	UNK0	0.000	
17	   C	-0.601	-1.079	-2.106	C.2	1	UNK0	0.000	
18	   O	-1.621	-1.664	-2.570	O.2	1	UNK0	0.000	
19	   C	0.580	-1.887	-1.841	C.3	1	UNK0	0.000	
20	   C	1.785	-1.563	-2.697	C.3	1	UNK0	0.000	
21	   C	2.999	-2.000	-1.869	C.3	1	UNK0	0.000	
22	   N	2.609	-3.186	-1.163	N.3	1	UNK0	0.000	
23	   C	1.706	-4.036	-1.916	C.3	1	UNK0	0.000	
24	   C	0.325	-3.382	-2.059	C.3	1	UNK0	0.000	
25	   C	-2.038	1.484	1.118	C.2	1	UNK0	0.000	
26	   O	-3.268	1.767	1.058	O.2	1	UNK0	0.000	
27	   H	-3.737	0.512	2.615	 H	1	UNK0	0.000	
28	   H	0.797	-0.143	4.483	 H	1	UNK0	0.000	
29	   H	-1.209	-0.996	5.718	 H	1	UNK0	0.000	
30	   H	1.680	0.894	2.900	 H	1	UNK0	0.000	
31	   H	0.431	2.945	-0.514	 H	1	UNK0	0.000	
32	   H	-1.656	3.122	-1.587	 H	1	UNK0	0.000	
33	   H	-3.093	2.250	-0.846	 H	1	UNK0	0.000	
34	   H	-1.754	1.489	-3.185	 H	1	UNK0	0.000	
35	   H	-2.678	0.375	-2.054	 H	1	UNK0	0.000	
36	   H	1.278	0.244	-0.874	 H	1	UNK0	0.000	
37	   H	1.074	1.518	-2.126	 H	1	UNK0	0.000	
38	   H	0.858	-1.820	-0.747	 H	1	UNK0	0.000	
39	   H	1.846	-0.543	-3.054	 H	1	UNK0	0.000	
40	   H	1.823	-2.248	-3.596	 H	1	UNK0	0.000	
41	   H	3.174	-1.198	-1.123	 H	1	UNK0	0.000	
42	   H	3.889	-2.139	-2.515	 H	1	UNK0	0.000	
43	   H	3.425	-3.790	-0.899	 H	1	UNK0	0.000	
44	   H	2.120	-4.341	-2.880	 H	1	UNK0	0.000	
45	   H	1.552	-4.951	-1.307	 H	1	UNK0	0.000	
46	   H	0.025	-3.537	-3.116	 H	1	UNK0	0.000	
47	   H	-0.387	-3.780	-1.331	 H	1	UNK0	0.000	
@<TRIPOS>BOND
1 1 2 1
2 2 3 2
3 2 7 1
4 3 4 1
5 4 5 2
6 4 25 1
7 5 6 1
8 5 8 1
9 6 7 2
10 8 9 1
11 9 10 2
12 9 11 1
13 11 12 1
14 11 16 1
15 12 13 1
16 12 25 1
17 13 14 1
18 14 15 1
19 15 16 1
20 15 17 1
21 17 18 2
22 17 19 1
23 19 20 1
24 19 24 1
25 20 21 1
26 21 22 1
27 22 23 1
28 23 24 1
29 25 26 2
30 3 27 1
31 6 28 1
32 7 29 1
33 8 30 1
34 11 31 1
35 13 32 1
36 13 33 1
37 14 34 1
38 14 35 1
39 16 36 1
40 16 37 1
41 19 38 1
42 20 39 1
43 20 40 1
44 21 41 1
45 21 42 1
46 22 43 1
47 23 44 1
48 23 45 1
49 24 46 1
50 24 47 1
@<TRIPOS>SUBSTRUCTURE
1	UNK0	1	GROUP	1 ****	UNK
