# created with PyMOL 2.3.2
@<TRIPOS>MOLECULE
546
47 50 1                 
SMALL
USER_CHARGES
@<TRIPOS>ATOM
1	  Br	4.457	3.161	1.757	Br	1	UNK0	0.000	
2	   C	3.055	1.894	2.132	C.2	1	UNK0	0.000	
3	   C	2.185	1.491	1.139	C.2	1	UNK0	0.000	
4	   C	1.181	0.587	1.398	C.2	1	UNK0	0.000	
5	   C	1.021	0.065	2.649	C.2	1	UNK0	0.000	
6	   C	1.913	0.485	3.643	C.2	1	UNK0	0.000	
7	   C	2.924	1.388	3.407	C.2	1	UNK0	0.000	
8	   N	-0.072	-0.839	2.684	N.pl3	1	UNK0	0.000	
9	   C	-0.624	-0.881	1.379	C.2	1	UNK0	0.000	
10	   O	-1.637	-1.626	1.137	O.2	1	UNK0	0.000	
11	   C	0.136	0.003	0.517	C.3	1	UNK0	0.000	
12	   N	-0.684	1.104	-0.055	N.3	1	UNK0	0.000	
13	   C	-1.420	0.419	-1.081	C.3	1	UNK0	0.000	
14	   C	-0.319	-0.373	-1.773	C.3	1	UNK0	0.000	
15	   C	0.720	-0.603	-0.716	C.3	1	UNK0	0.000	
16	   C	0.945	-2.065	-0.639	C.2	1	UNK0	0.000	
17	   O	1.585	-2.617	0.282	O.2	1	UNK0	0.000	
18	   N	0.299	-2.629	-1.787	N.pl3	1	UNK0	0.000	
19	   C	-0.722	-1.704	-2.217	C.2	1	UNK0	0.000	
20	   O	-1.746	-2.050	-2.853	O.2	1	UNK0	0.000	
21	   C	0.639	-3.898	-2.380	C.3	1	UNK0	0.000	
22	   C	-0.136	-5.021	-1.801	C.2	1	UNK0	0.000	
23	   C	-1.019	-4.781	-0.854	C.2	1	UNK0	0.000	
24	   C	-2.114	1.241	-2.086	C.3	1	UNK0	0.000	
25	   C	-3.168	2.174	-1.676	C.3	1	UNK0	0.000	
26	   C	-2.864	3.257	-0.761	C.2	1	UNK0	0.000	
27	   O	-1.730	3.547	-0.313	O.2	1	UNK0	0.000	
28	   N	-3.931	4.117	-0.287	N.pl3	1	UNK0	0.000	
29	   H	2.291	1.892	0.135	 H	1	UNK0	0.000	
30	   H	1.798	0.081	4.635	 H	1	UNK0	0.000	
31	   H	3.625	1.728	4.155	 H	1	UNK0	0.000	
32	   H	-0.398	-1.375	3.546	 H	1	UNK0	0.000	
33	   H	0.087	1.629	-0.597	 H	1	UNK0	0.000	
34	   H	-2.183	-0.284	-0.643	 H	1	UNK0	0.000	
35	   H	0.105	0.189	-2.630	 H	1	UNK0	0.000	
36	   H	1.668	-0.056	-0.935	 H	1	UNK0	0.000	
37	   H	0.540	-3.862	-3.494	 H	1	UNK0	0.000	
38	   H	1.721	-4.140	-2.200	 H	1	UNK0	0.000	
39	   H	0.024	-6.025	-2.154	 H	1	UNK0	0.000	
40	   H	-1.577	-5.605	-0.441	 H	1	UNK0	0.000	
41	   H	-1.226	-3.793	-0.459	 H	1	UNK0	0.000	
42	   H	-2.585	0.515	-2.823	 H	1	UNK0	0.000	
43	   H	-1.343	1.764	-2.723	 H	1	UNK0	0.000	
44	   H	-3.546	2.669	-2.629	 H	1	UNK0	0.000	
45	   H	-4.104	1.656	-1.306	 H	1	UNK0	0.000	
46	   H	-3.772	5.124	-0.246	 H	1	UNK0	0.000	
47	   H	-4.838	3.719	0.004	 H	1	UNK0	0.000	
@<TRIPOS>BOND
1 1 2 1
2 2 3 2
3 2 7 1
4 3 4 1
5 4 5 2
6 4 11 1
7 5 6 1
8 5 8 1
9 6 7 2
10 8 9 1
11 9 10 2
12 9 11 1
13 11 12 1
14 11 15 1
15 12 13 1
16 13 14 1
17 13 24 1
18 14 15 1
19 14 19 1
20 15 16 1
21 16 17 2
22 16 18 1
23 18 19 1
24 18 21 1
25 19 20 2
26 21 22 1
27 22 23 2
28 24 25 1
29 25 26 1
30 26 27 2
31 26 28 1
32 3 29 1
33 6 30 1
34 7 31 1
35 8 32 1
36 12 33 1
37 13 34 1
38 14 35 1
39 15 36 1
40 21 37 1
41 21 38 1
42 22 39 1
43 23 40 1
44 23 41 1
45 24 42 1
46 24 43 1
47 25 44 1
48 25 45 1
49 28 46 1
50 28 47 1
@<TRIPOS>SUBSTRUCTURE
1	UNK0	1	GROUP	1 ****	UNK
