# created with PyMOL 2.3.2
@<TRIPOS>MOLECULE
547
51 55 1                 
SMALL
USER_CHARGES
@<TRIPOS>ATOM
1	  Br	-2.564	-3.648	-5.298	Br	1	UNK0	0.000	
2	   C	-2.182	-1.806	-4.921	C.2	1	UNK0	0.000	
3	   C	-1.452	-1.469	-3.802	C.2	1	UNK0	0.000	
4	   C	-1.158	-0.149	-3.499	C.2	1	UNK0	0.000	
5	   C	-1.580	0.865	-4.295	C.2	1	UNK0	0.000	
6	   C	-2.320	0.503	-5.430	C.2	1	UNK0	0.000	
7	   C	-2.622	-0.797	-5.748	C.2	1	UNK0	0.000	
8	   N	-1.210	2.125	-3.763	N.pl3	1	UNK0	0.000	
9	   C	-0.518	1.885	-2.554	C.2	1	UNK0	0.000	
10	   O	-0.136	2.823	-1.775	O.2	1	UNK0	0.000	
11	   C	-0.347	0.439	-2.397	C.3	1	UNK0	0.000	
12	   N	-0.827	-0.029	-1.107	N.3	1	UNK0	0.000	
13	   C	0.175	-0.849	-0.514	C.3	1	UNK0	0.000	
14	   C	1.267	-1.058	-1.522	C.3	1	UNK0	0.000	
15	   C	1.092	0.068	-2.532	C.3	1	UNK0	0.000	
16	   C	2.009	1.102	-2.055	C.2	1	UNK0	0.000	
17	   O	2.202	2.270	-2.545	O.2	1	UNK0	0.000	
18	   N	2.730	0.642	-0.896	N.pl3	1	UNK0	0.000	
19	   C	2.608	-0.772	-0.906	C.2	1	UNK0	0.000	
20	   O	3.420	-1.648	-0.498	O.2	1	UNK0	0.000	
21	   C	3.449	1.393	0.104	C.3	1	UNK0	0.000	
22	   C	2.648	1.795	1.297	C.3	1	UNK0	0.000	
23	   O	3.441	2.512	2.182	O.3	1	UNK0	0.000	
24	   C	2.605	3.143	3.069	C.3	1	UNK0	0.000	
25	   C	1.313	3.416	2.370	C.3	1	UNK0	0.000	
26	   C	1.505	2.713	1.020	C.3	1	UNK0	0.000	
27	   C	-0.333	-2.197	-0.049	C.3	1	UNK0	0.000	
28	   O	0.787	-2.859	0.504	O.3	1	UNK0	0.000	
29	   C	-1.392	-2.094	1.000	C.3	1	UNK0	0.000	
30	   H	-1.125	-2.294	-3.178	 H	1	UNK0	0.000	
31	   H	-2.664	1.316	-6.078	 H	1	UNK0	0.000	
32	   H	-3.196	-1.070	-6.629	 H	1	UNK0	0.000	
33	   H	-1.427	3.069	-4.213	 H	1	UNK0	0.000	
34	   H	-0.964	0.814	-0.506	 H	1	UNK0	0.000	
35	   H	0.647	-0.340	0.380	 H	1	UNK0	0.000	
36	   H	1.238	-2.012	-2.048	 H	1	UNK0	0.000	
37	   H	1.346	-0.293	-3.560	 H	1	UNK0	0.000	
38	   H	4.314	0.785	0.490	 H	1	UNK0	0.000	
39	   H	3.918	2.281	-0.374	 H	1	UNK0	0.000	
40	   H	2.212	0.887	1.793	 H	1	UNK0	0.000	
41	   H	2.475	2.553	4.018	 H	1	UNK0	0.000	
42	   H	3.009	4.132	3.414	 H	1	UNK0	0.000	
43	   H	0.513	2.844	2.925	 H	1	UNK0	0.000	
44	   H	1.062	4.474	2.253	 H	1	UNK0	0.000	
45	   H	1.742	3.511	0.289	 H	1	UNK0	0.000	
46	   H	0.564	2.169	0.775	 H	1	UNK0	0.000	
47	   H	-0.661	-2.808	-0.888	 H	1	UNK0	0.000	
48	   H	0.633	-3.082	1.445	 H	1	UNK0	0.000	
49	   H	-1.423	-3.037	1.598	 H	1	UNK0	0.000	
50	   H	-2.413	-1.964	0.590	 H	1	UNK0	0.000	
51	   H	-1.225	-1.256	1.705	 H	1	UNK0	0.000	
@<TRIPOS>BOND
1 1 2 1
2 2 3 2
3 2 7 1
4 3 4 1
5 4 5 2
6 4 11 1
7 5 6 1
8 5 8 1
9 6 7 2
10 8 9 1
11 9 10 2
12 9 11 1
13 11 12 1
14 11 15 1
15 12 13 1
16 13 14 1
17 13 27 1
18 14 15 1
19 14 19 1
20 15 16 1
21 16 17 2
22 16 18 1
23 18 19 1
24 18 21 1
25 19 20 2
26 21 22 1
27 22 23 1
28 22 26 1
29 23 24 1
30 24 25 1
31 25 26 1
32 27 28 1
33 27 29 1
34 3 30 1
35 6 31 1
36 7 32 1
37 8 33 1
38 12 34 1
39 13 35 1
40 14 36 1
41 15 37 1
42 21 38 1
43 21 39 1
44 22 40 1
45 24 41 1
46 24 42 1
47 25 43 1
48 25 44 1
49 26 45 1
50 26 46 1
51 27 47 1
52 28 48 1
53 29 49 1
54 29 50 1
55 29 51 1
@<TRIPOS>SUBSTRUCTURE
1	UNK0	1	GROUP	1 ****	UNK
