# created with PyMOL 2.3.2
@<TRIPOS>MOLECULE
548
51 55 1                 
SMALL
USER_CHARGES
@<TRIPOS>ATOM
1	  Br	-4.995	-0.784	4.681	Br	1	UNK0	0.000	
2	   C	-3.228	-1.094	4.035	C.2	1	UNK0	0.000	
3	   C	-2.871	-0.748	2.754	C.2	1	UNK0	0.000	
4	   C	-1.575	-0.978	2.290	C.2	1	UNK0	0.000	
5	   C	-0.671	-1.549	3.120	C.2	1	UNK0	0.000	
6	   C	-1.023	-1.907	4.428	C.2	1	UNK0	0.000	
7	   C	-2.294	-1.679	4.879	C.2	1	UNK0	0.000	
8	   N	0.596	-1.694	2.454	N.pl3	1	UNK0	0.000	
9	   C	0.438	-1.179	1.149	C.2	1	UNK0	0.000	
10	   O	1.411	-1.167	0.319	O.2	1	UNK0	0.000	
11	   C	-0.923	-0.720	0.991	C.3	1	UNK0	0.000	
12	   N	-1.554	-1.504	-0.072	N.3	1	UNK0	0.000	
13	   C	-1.019	-0.911	-1.270	C.3	1	UNK0	0.000	
14	   C	-1.021	0.551	-0.982	C.3	1	UNK0	0.000	
15	   C	-1.087	0.684	0.519	C.3	1	UNK0	0.000	
16	   C	-0.041	1.618	0.905	C.2	1	UNK0	0.000	
17	   O	0.162	2.052	2.054	O.2	1	UNK0	0.000	
18	   N	0.755	1.991	-0.237	N.pl3	1	UNK0	0.000	
19	   C	0.287	1.178	-1.298	C.2	1	UNK0	0.000	
20	   O	0.908	1.006	-2.392	O.2	1	UNK0	0.000	
21	   C	1.780	3.018	-0.268	C.3	1	UNK0	0.000	
22	   C	3.122	2.595	0.117	C.3	1	UNK0	0.000	
23	   O	3.286	2.087	1.401	O.3	1	UNK0	0.000	
24	   C	4.540	1.482	1.423	C.3	1	UNK0	0.000	
25	   C	4.953	1.181	0.006	C.3	1	UNK0	0.000	
26	   C	3.714	1.571	-0.807	C.3	1	UNK0	0.000	
27	   C	-1.896	-1.264	-2.459	C.3	1	UNK0	0.000	
28	   C	-3.273	-0.785	-2.305	C.2	1	UNK0	0.000	
29	   O	-4.174	-1.370	-1.669	O.2	1	UNK0	0.000	
30	   N	-3.634	0.462	-2.932	N.pl3	1	UNK0	0.000	
31	   H	-3.593	-0.283	2.066	 H	1	UNK0	0.000	
32	   H	-0.275	-2.371	5.091	 H	1	UNK0	0.000	
33	   H	-2.603	-1.942	5.883	 H	1	UNK0	0.000	
34	   H	1.463	-2.117	2.901	 H	1	UNK0	0.000	
35	   H	-2.578	-1.420	0.011	 H	1	UNK0	0.000	
36	   H	-0.000	-1.320	-1.474	 H	1	UNK0	0.000	
37	   H	-1.863	1.092	-1.474	 H	1	UNK0	0.000	
38	   H	-2.097	1.028	0.824	 H	1	UNK0	0.000	
39	   H	1.840	3.349	-1.350	 H	1	UNK0	0.000	
40	   H	1.472	3.918	0.311	 H	1	UNK0	0.000	
41	   H	3.796	3.507	0.056	 H	1	UNK0	0.000	
42	   H	4.443	0.522	1.978	 H	1	UNK0	0.000	
43	   H	5.242	2.162	1.946	 H	1	UNK0	0.000	
44	   H	5.172	0.114	-0.178	 H	1	UNK0	0.000	
45	   H	5.788	1.778	-0.359	 H	1	UNK0	0.000	
46	   H	3.046	0.698	-0.830	 H	1	UNK0	0.000	
47	   H	3.957	1.937	-1.809	 H	1	UNK0	0.000	
48	   H	-1.949	-2.386	-2.463	 H	1	UNK0	0.000	
49	   H	-1.428	-0.917	-3.400	 H	1	UNK0	0.000	
50	   H	-3.257	0.755	-3.852	 H	1	UNK0	0.000	
51	   H	-4.302	1.130	-2.474	 H	1	UNK0	0.000	
@<TRIPOS>BOND
1 1 2 1
2 2 3 2
3 2 7 1
4 3 4 1
5 4 5 2
6 4 11 1
7 5 6 1
8 5 8 1
9 6 7 2
10 8 9 1
11 9 10 2
12 9 11 1
13 11 12 1
14 11 15 1
15 12 13 1
16 13 14 1
17 13 27 1
18 14 15 1
19 14 19 1
20 15 16 1
21 16 17 2
22 16 18 1
23 18 19 1
24 18 21 1
25 19 20 2
26 21 22 1
27 22 23 1
28 22 26 1
29 23 24 1
30 24 25 1
31 25 26 1
32 27 28 1
33 28 29 2
34 28 30 1
35 3 31 1
36 6 32 1
37 7 33 1
38 8 34 1
39 12 35 1
40 13 36 1
41 14 37 1
42 15 38 1
43 21 39 1
44 21 40 1
45 22 41 1
46 24 42 1
47 24 43 1
48 25 44 1
49 25 45 1
50 26 46 1
51 26 47 1
52 27 48 1
53 27 49 1
54 30 50 1
55 30 51 1
@<TRIPOS>SUBSTRUCTURE
1	UNK0	1	GROUP	1 ****	UNK
