# created with PyMOL 2.3.2
@<TRIPOS>MOLECULE
549
54 58 1                 
SMALL
USER_CHARGES
@<TRIPOS>ATOM
1	  Br	7.070	-0.887	1.256	Br	1	UNK0	0.000	
2	   C	5.303	-1.339	1.867	C.2	1	UNK0	0.000	
3	   C	4.214	-0.589	1.486	C.2	1	UNK0	0.000	
4	   C	2.935	-0.941	1.946	C.2	1	UNK0	0.000	
5	   C	2.751	-2.019	2.770	C.2	1	UNK0	0.000	
6	   C	3.862	-2.782	3.156	C.2	1	UNK0	0.000	
7	   C	5.106	-2.421	2.694	C.2	1	UNK0	0.000	
8	   N	1.377	-2.157	3.110	N.pl3	1	UNK0	0.000	
9	   C	0.670	-1.114	2.470	C.2	1	UNK0	0.000	
10	   O	-0.580	-0.982	2.632	O.2	1	UNK0	0.000	
11	   C	1.612	-0.336	1.686	C.3	1	UNK0	0.000	
12	   N	1.593	1.026	2.222	N.3	1	UNK0	0.000	
13	   C	0.534	1.635	1.337	C.3	1	UNK0	0.000	
14	   C	1.180	1.302	0.018	C.3	1	UNK0	0.000	
15	   C	1.324	-0.233	0.215	C.3	1	UNK0	0.000	
16	   C	0.009	-0.700	-0.185	C.2	1	UNK0	0.000	
17	   O	-0.647	-1.742	0.154	O.2	1	UNK0	0.000	
18	   N	-0.552	0.227	-1.107	N.pl3	1	UNK0	0.000	
19	   C	0.316	1.351	-1.165	C.2	1	UNK0	0.000	
20	   O	0.362	2.240	-2.052	O.2	1	UNK0	0.000	
21	   C	-1.787	0.111	-1.849	C.3	1	UNK0	0.000	
22	   C	-1.714	-0.591	-3.143	C.3	1	UNK0	0.000	
23	   O	-1.283	-1.924	-3.059	O.3	1	UNK0	0.000	
24	   C	-1.182	-2.316	-4.392	C.3	1	UNK0	0.000	
25	   C	-0.793	-1.137	-5.220	C.3	1	UNK0	0.000	
26	   C	-0.889	0.025	-4.223	C.3	1	UNK0	0.000	
27	   C	0.421	3.072	1.674	C.3	1	UNK0	0.000	
28	   C	-0.595	3.845	0.921	C.3	1	UNK0	0.000	
29	   C	-1.967	3.314	1.119	C.2	1	UNK0	0.000	
30	   O	-2.199	2.389	1.926	O.2	1	UNK0	0.000	
31	   N	-3.035	3.873	0.374	N.pl3	1	UNK0	0.000	
32	   H	4.329	0.280	0.828	 H	1	UNK0	0.000	
33	   H	3.711	-3.640	3.811	 H	1	UNK0	0.000	
34	   H	5.979	-2.995	2.979	 H	1	UNK0	0.000	
35	   H	0.997	-2.922	3.736	 H	1	UNK0	0.000	
36	   H	2.484	1.472	1.851	 H	1	UNK0	0.000	
37	   H	-0.391	1.076	1.453	 H	1	UNK0	0.000	
38	   H	2.157	1.768	-0.106	 H	1	UNK0	0.000	
39	   H	2.137	-0.566	-0.427	 H	1	UNK0	0.000	
40	   H	-2.187	1.140	-2.049	 H	1	UNK0	0.000	
41	   H	-2.580	-0.375	-1.221	 H	1	UNK0	0.000	
42	   H	-2.768	-0.673	-3.551	 H	1	UNK0	0.000	
43	   H	-0.403	-3.130	-4.427	 H	1	UNK0	0.000	
44	   H	-2.178	-2.737	-4.664	 H	1	UNK0	0.000	
45	   H	0.252	-1.261	-5.569	 H	1	UNK0	0.000	
46	   H	-1.423	-0.970	-6.102	 H	1	UNK0	0.000	
47	   H	-1.396	0.847	-4.755	 H	1	UNK0	0.000	
48	   H	0.113	0.360	-3.926	 H	1	UNK0	0.000	
49	   H	0.179	3.122	2.776	 H	1	UNK0	0.000	
50	   H	1.416	3.586	1.559	 H	1	UNK0	0.000	
51	   H	-0.578	4.942	1.215	 H	1	UNK0	0.000	
52	   H	-0.351	3.876	-0.156	 H	1	UNK0	0.000	
53	   H	-3.942	3.362	0.222	 H	1	UNK0	0.000	
54	   H	-2.934	4.823	-0.044	 H	1	UNK0	0.000	
@<TRIPOS>BOND
1 1 2 1
2 2 3 2
3 2 7 1
4 3 4 1
5 4 5 2
6 4 11 1
7 5 6 1
8 5 8 1
9 6 7 2
10 8 9 1
11 9 10 2
12 9 11 1
13 11 12 1
14 11 15 1
15 12 13 1
16 13 14 1
17 13 27 1
18 14 15 1
19 14 19 1
20 15 16 1
21 16 17 2
22 16 18 1
23 18 19 1
24 18 21 1
25 19 20 2
26 21 22 1
27 22 23 1
28 22 26 1
29 23 24 1
30 24 25 1
31 25 26 1
32 27 28 1
33 28 29 1
34 29 30 2
35 29 31 1
36 3 32 1
37 6 33 1
38 7 34 1
39 8 35 1
40 12 36 1
41 13 37 1
42 14 38 1
43 15 39 1
44 21 40 1
45 21 41 1
46 22 42 1
47 24 43 1
48 24 44 1
49 25 45 1
50 25 46 1
51 26 47 1
52 26 48 1
53 27 49 1
54 27 50 1
55 28 51 1
56 28 52 1
57 31 53 1
58 31 54 1
@<TRIPOS>SUBSTRUCTURE
1	UNK0	1	GROUP	1 ****	UNK
