# created with PyMOL 2.3.2
@<TRIPOS>MOLECULE
550
51 56 1                 
SMALL
USER_CHARGES
@<TRIPOS>ATOM
1	  Br	-4.356	4.365	0.760	Br	1	UNK0	0.000	
2	   C	-2.714	3.886	-0.084	C.2	1	UNK0	0.000	
3	   C	-1.982	2.770	0.304	C.2	1	UNK0	0.000	
4	   C	-0.804	2.432	-0.306	C.2	1	UNK0	0.000	
5	   C	-0.364	3.251	-1.335	C.2	1	UNK0	0.000	
6	   C	-1.085	4.360	-1.725	C.2	1	UNK0	0.000	
7	   C	-2.267	4.690	-1.104	C.2	1	UNK0	0.000	
8	   N	0.870	2.758	-1.863	N.pl3	1	UNK0	0.000	
9	   C	1.231	1.592	-1.154	C.2	1	UNK0	0.000	
10	   O	2.251	0.925	-1.379	O.2	1	UNK0	0.000	
11	   C	0.177	1.362	-0.143	C.3	1	UNK0	0.000	
12	   N	0.823	1.289	1.133	N.3	1	UNK0	0.000	
13	   C	1.442	-0.035	1.142	C.3	1	UNK0	0.000	
14	   C	0.546	-0.924	0.344	C.3	1	UNK0	0.000	
15	   C	-0.453	-0.003	-0.266	C.3	1	UNK0	0.000	
16	   C	-0.594	-0.459	-1.645	C.2	1	UNK0	0.000	
17	   O	-1.439	-0.057	-2.476	O.2	1	UNK0	0.000	
18	   N	0.379	-1.437	-1.915	N.pl3	1	UNK0	0.000	
19	   C	1.263	-1.585	-0.793	C.2	1	UNK0	0.000	
20	   O	2.391	-2.136	-0.742	O.2	1	UNK0	0.000	
21	   C	0.500	-2.194	-3.121	C.3	1	UNK0	0.000	
22	   C	-0.256	-3.472	-3.147	C.3	1	UNK0	0.000	
23	   O	-1.628	-3.317	-2.985	O.3	1	UNK0	0.000	
24	   C	-2.085	-4.615	-2.801	C.3	1	UNK0	0.000	
25	   C	-1.062	-5.362	-2.004	C.3	1	UNK0	0.000	
26	   C	0.193	-4.506	-2.172	C.3	1	UNK0	0.000	
27	   C	1.398	-0.494	2.592	C.3	1	UNK0	0.000	
28	   C	0.772	0.644	3.371	C.3	1	UNK0	0.000	
29	   C	-0.075	1.295	2.269	C.3	1	UNK0	0.000	
30	   H	-2.414	2.191	1.122	 H	1	UNK0	0.000	
31	   H	-0.752	5.022	-2.538	 H	1	UNK0	0.000	
32	   H	-2.838	5.581	-1.424	 H	1	UNK0	0.000	
33	   H	1.409	3.212	-2.658	 H	1	UNK0	0.000	
34	   H	2.476	0.009	0.768	 H	1	UNK0	0.000	
35	   H	0.072	-1.718	0.982	 H	1	UNK0	0.000	
36	   H	-1.411	0.024	0.291	 H	1	UNK0	0.000	
37	   H	0.126	-1.560	-3.955	 H	1	UNK0	0.000	
38	   H	1.561	-2.426	-3.385	 H	1	UNK0	0.000	
39	   H	-0.124	-3.911	-4.175	 H	1	UNK0	0.000	
40	   H	-3.010	-4.540	-2.161	 H	1	UNK0	0.000	
41	   H	-2.366	-5.112	-3.751	 H	1	UNK0	0.000	
42	   H	-0.878	-6.389	-2.380	 H	1	UNK0	0.000	
43	   H	-1.306	-5.353	-0.921	 H	1	UNK0	0.000	
44	   H	0.568	-4.134	-1.221	 H	1	UNK0	0.000	
45	   H	1.016	-5.142	-2.614	 H	1	UNK0	0.000	
46	   H	2.382	-0.792	2.971	 H	1	UNK0	0.000	
47	   H	0.728	-1.381	2.722	 H	1	UNK0	0.000	
48	   H	1.497	1.355	3.771	 H	1	UNK0	0.000	
49	   H	0.101	0.317	4.164	 H	1	UNK0	0.000	
50	   H	-0.370	2.293	2.594	 H	1	UNK0	0.000	
51	   H	-0.948	0.642	2.164	 H	1	UNK0	0.000	
@<TRIPOS>BOND
1 1 2 1
2 2 3 2
3 2 7 1
4 3 4 1
5 4 5 2
6 4 11 1
7 5 6 1
8 5 8 1
9 6 7 2
10 8 9 1
11 9 10 2
12 9 11 1
13 11 12 1
14 11 15 1
15 12 13 1
16 12 29 1
17 13 14 1
18 13 27 1
19 14 15 1
20 14 19 1
21 15 16 1
22 16 17 2
23 16 18 1
24 18 19 1
25 18 21 1
26 19 20 2
27 21 22 1
28 22 23 1
29 22 26 1
30 23 24 1
31 24 25 1
32 25 26 1
33 27 28 1
34 28 29 1
35 3 30 1
36 6 31 1
37 7 32 1
38 8 33 1
39 13 34 1
40 14 35 1
41 15 36 1
42 21 37 1
43 21 38 1
44 22 39 1
45 24 40 1
46 24 41 1
47 25 42 1
48 25 43 1
49 26 44 1
50 26 45 1
51 27 46 1
52 27 47 1
53 28 48 1
54 28 49 1
55 29 50 1
56 29 51 1
@<TRIPOS>SUBSTRUCTURE
1	UNK0	1	GROUP	1 ****	UNK
