# created with PyMOL 2.3.2
@<TRIPOS>MOLECULE
551
50 53 1                 
SMALL
USER_CHARGES
@<TRIPOS>ATOM
1	  Br	0.696	-7.107	6.212	Br	1	UNK0	0.000	
2	   C	0.098	-5.344	5.714	C.2	1	UNK0	0.000	
3	   C	0.048	-4.956	4.391	C.2	1	UNK0	0.000	
4	   C	-0.382	-3.691	4.046	C.2	1	UNK0	0.000	
5	   C	-0.776	-2.775	5.032	C.2	1	UNK0	0.000	
6	   C	-0.729	-3.152	6.340	C.2	1	UNK0	0.000	
7	   C	-0.296	-4.420	6.658	C.2	1	UNK0	0.000	
8	   N	-1.239	-1.441	4.804	N.pl3	1	UNK0	0.000	
9	   C	-1.145	-0.661	3.618	C.2	1	UNK0	0.000	
10	   O	-1.928	0.317	3.542	O.2	1	UNK0	0.000	
11	   C	-0.202	-0.909	2.473	C.3	1	UNK0	0.000	
12	   N	-0.446	-2.189	1.893	N.pl3	1	UNK0	0.000	
13	   C	-0.806	-2.465	0.524	C.3	1	UNK0	0.000	
14	   C	-0.468	-1.357	-0.404	C.3	1	UNK0	0.000	
15	   C	-0.709	0.014	0.173	C.3	1	UNK0	0.000	
16	   C	-0.145	0.224	1.523	C.3	1	UNK0	0.000	
17	   N	-0.102	0.964	-0.738	N.pl3	1	UNK0	0.000	
18	   C	-0.847	1.921	-1.468	C.2	1	UNK0	0.000	
19	   O	-2.096	1.969	-1.337	O.2	1	UNK0	0.000	
20	   C	-0.165	2.874	-2.390	C.3	1	UNK0	0.000	
21	   C	0.548	2.066	-3.425	C.3	1	UNK0	0.000	
22	   C	2.020	2.412	-3.526	C.3	1	UNK0	0.000	
23	   N	2.070	3.881	-3.598	N.3	1	UNK0	0.000	
24	   C	1.879	4.348	-2.247	C.3	1	UNK0	0.000	
25	   C	0.695	3.764	-1.571	C.3	1	UNK0	0.000	
26	   C	-0.372	-3.444	2.595	C.2	1	UNK0	0.000	
27	   O	-0.287	-4.501	1.910	O.2	1	UNK0	0.000	
28	   H	0.340	-5.623	3.596	 H	1	UNK0	0.000	
29	   H	-1.038	-2.429	7.090	 H	1	UNK0	0.000	
30	   H	-0.264	-4.703	7.699	 H	1	UNK0	0.000	
31	   H	-1.704	-1.016	5.643	 H	1	UNK0	0.000	
32	   H	0.815	-0.969	2.968	 H	1	UNK0	0.000	
33	   H	-1.893	-2.737	0.439	 H	1	UNK0	0.000	
34	   H	-0.234	-3.379	0.194	 H	1	UNK0	0.000	
35	   H	-1.152	-1.440	-1.300	 H	1	UNK0	0.000	
36	   H	0.557	-1.440	-0.822	 H	1	UNK0	0.000	
37	   H	-1.817	0.144	0.218	 H	1	UNK0	0.000	
38	   H	-0.712	1.083	1.992	 H	1	UNK0	0.000	
39	   H	0.899	0.643	1.409	 H	1	UNK0	0.000	
40	   H	0.927	0.923	-0.845	 H	1	UNK0	0.000	
41	   H	-0.936	3.497	-2.922	 H	1	UNK0	0.000	
42	   H	0.498	0.967	-3.225	 H	1	UNK0	0.000	
43	   H	0.119	2.209	-4.439	 H	1	UNK0	0.000	
44	   H	2.469	1.962	-4.411	 H	1	UNK0	0.000	
45	   H	2.495	2.068	-2.578	 H	1	UNK0	0.000	
46	   H	2.964	4.213	-3.974	 H	1	UNK0	0.000	
47	   H	2.795	4.014	-1.676	 H	1	UNK0	0.000	
48	   H	1.917	5.463	-2.195	 H	1	UNK0	0.000	
49	   H	0.049	4.625	-1.227	 H	1	UNK0	0.000	
50	   H	0.968	3.247	-0.603	 H	1	UNK0	0.000	
@<TRIPOS>BOND
1 1 2 1
2 2 3 2
3 2 7 1
4 3 4 1
5 4 5 2
6 4 26 1
7 5 6 1
8 5 8 1
9 6 7 2
10 8 9 1
11 9 10 2
12 9 11 1
13 11 12 1
14 11 16 1
15 12 13 1
16 12 26 1
17 13 14 1
18 14 15 1
19 15 16 1
20 15 17 1
21 17 18 1
22 18 19 2
23 18 20 1
24 20 21 1
25 20 25 1
26 21 22 1
27 22 23 1
28 23 24 1
29 24 25 1
30 26 27 2
31 3 28 1
32 6 29 1
33 7 30 1
34 8 31 1
35 11 32 1
36 13 33 1
37 13 34 1
38 14 35 1
39 14 36 1
40 15 37 1
41 16 38 1
42 16 39 1
43 17 40 1
44 20 41 1
45 21 42 1
46 21 43 1
47 22 44 1
48 22 45 1
49 23 46 1
50 24 47 1
51 24 48 1
52 25 49 1
53 25 50 1
@<TRIPOS>SUBSTRUCTURE
1	UNK0	1	GROUP	1 ****	UNK
