# created with PyMOL 2.3.2
@<TRIPOS>MOLECULE
556
41 44 1                 
SMALL
USER_CHARGES
@<TRIPOS>ATOM
1	  Br	3.330	3.856	-1.783	Br	1	UNK0	0.000	
2	   C	2.710	2.702	-0.397	C.2	1	UNK0	0.000	
3	   C	2.410	1.408	-0.746	C.2	1	UNK0	0.000	
4	   C	1.952	0.523	0.236	C.2	1	UNK0	0.000	
5	   C	1.813	0.963	1.512	C.2	1	UNK0	0.000	
6	   C	2.115	2.285	1.891	C.2	1	UNK0	0.000	
7	   C	2.563	3.132	0.905	C.2	1	UNK0	0.000	
8	   N	1.335	-0.073	2.350	N.pl3	1	UNK0	0.000	
9	   C	1.167	-1.211	1.559	C.2	1	UNK0	0.000	
10	   O	0.740	-2.369	1.940	O.2	1	UNK0	0.000	
11	   C	1.570	-0.878	0.160	C.3	1	UNK0	0.000	
12	   C	2.601	-1.819	-0.192	C.2	1	UNK0	0.000	
13	   C	2.400	-2.760	-1.131	C.2	1	UNK0	0.000	
14	   N	3.564	-3.484	-1.226	N.pl3	1	UNK0	0.000	
15	   N	4.433	-2.991	-0.370	N.2	1	UNK0	0.000	
16	   C	3.913	-1.964	0.303	C.2	1	UNK0	0.000	
17	   C	4.550	-1.125	1.359	C.3	1	UNK0	0.000	
18	   O	1.191	-2.904	-1.836	O.3	1	UNK0	0.000	
19	   C	0.183	-2.005	-1.511	C.2	1	UNK0	0.000	
20	   C	0.320	-1.077	-0.613	C.2	1	UNK0	0.000	
21	   C	-0.826	-0.162	-0.340	C.2	1	UNK0	0.000	
22	   O	-1.873	-0.332	-0.990	O.co2	1	UNK0	0.000	
23	   O	-0.778	0.844	0.586	O.3	1	UNK0	0.000	
24	   C	-1.838	1.725	0.871	C.3	1	UNK0	0.000	
25	   C	-3.018	0.874	1.352	C.3	1	UNK0	0.000	
26	   N	-1.089	-2.089	-2.192	N.pl3	1	UNK0	0.000	
27	   H	2.522	1.051	-1.777	 H	1	UNK0	0.000	
28	   H	2.003	2.626	2.902	 H	1	UNK0	0.000	
29	   H	2.810	4.159	1.142	 H	1	UNK0	0.000	
30	   H	1.130	-0.031	3.389	 H	1	UNK0	0.000	
31	   H	3.727	-4.291	-1.870	 H	1	UNK0	0.000	
32	   H	5.624	-1.382	1.453	 H	1	UNK0	0.000	
33	   H	4.069	-1.403	2.319	 H	1	UNK0	0.000	
34	   H	4.503	-0.047	1.133	 H	1	UNK0	0.000	
35	   H	-2.118	2.351	0.018	 H	1	UNK0	0.000	
36	   H	-1.549	2.366	1.732	 H	1	UNK0	0.000	
37	   H	-2.657	-0.017	1.904	 H	1	UNK0	0.000	
38	   H	-3.683	1.447	2.025	 H	1	UNK0	0.000	
39	   H	-3.631	0.586	0.465	 H	1	UNK0	0.000	
40	   H	-1.860	-2.562	-1.715	 H	1	UNK0	0.000	
41	   H	-1.186	-1.678	-3.121	 H	1	UNK0	0.000	
@<TRIPOS>BOND
1 1 2 1
2 2 3 2
3 2 7 1
4 3 4 1
5 4 5 2
6 4 11 1
7 5 6 1
8 5 8 1
9 6 7 2
10 8 9 1
11 9 10 2
12 9 11 1
13 11 12 1
14 11 20 1
15 12 13 2
16 12 16 1
17 13 14 1
18 13 18 1
19 14 15 1
20 15 16 2
21 16 17 1
22 18 19 1
23 19 20 2
24 19 26 1
25 20 21 1
26 21 22 2
27 21 23 1
28 23 24 1
29 24 25 1
30 3 27 1
31 6 28 1
32 7 29 1
33 8 30 1
34 14 31 1
35 17 32 1
36 17 33 1
37 17 34 1
38 24 35 1
39 24 36 1
40 25 37 1
41 25 38 1
42 25 39 1
43 26 40 1
44 26 41 1
@<TRIPOS>SUBSTRUCTURE
1	UNK0	1	GROUP	1 ****	UNK
