# created with PyMOL 2.3.2
@<TRIPOS>MOLECULE
557
39 42 1                 
SMALL
USER_CHARGES
@<TRIPOS>ATOM
1	  Br	-3.590	-4.169	-0.572	Br	1	UNK0	0.000	
2	   C	-2.504	-2.826	-1.385	C.2	1	UNK0	0.000	
3	   C	-2.187	-1.668	-0.718	C.2	1	UNK0	0.000	
4	   C	-1.388	-0.675	-1.310	C.2	1	UNK0	0.000	
5	   C	-0.897	-0.821	-2.566	C.2	1	UNK0	0.000	
6	   C	-1.219	-2.005	-3.255	C.2	1	UNK0	0.000	
7	   C	-2.001	-2.963	-2.659	C.2	1	UNK0	0.000	
8	   N	-0.118	0.303	-2.944	N.pl3	1	UNK0	0.000	
9	   C	-0.119	1.205	-1.868	C.2	1	UNK0	0.000	
10	   O	0.498	2.325	-1.870	O.2	1	UNK0	0.000	
11	   C	-0.933	0.643	-0.774	C.3	1	UNK0	0.000	
12	   C	-0.102	0.318	0.408	C.2	1	UNK0	0.000	
13	   C	-0.399	0.789	1.648	C.2	1	UNK0	0.000	
14	   N	0.394	0.465	2.715	N.pl3	1	UNK0	0.000	
15	   C	1.458	-0.315	2.526	C.2	1	UNK0	0.000	
16	   O	2.204	-0.627	3.496	O.2	1	UNK0	0.000	
17	   N	1.757	-0.784	1.301	N.pl3	1	UNK0	0.000	
18	   C	1.013	-0.496	0.227	C.2	1	UNK0	0.000	
19	   O	1.308	-0.945	-0.919	O.2	1	UNK0	0.000	
20	   C	2.946	-1.644	1.149	C.3	1	UNK0	0.000	
21	   C	0.029	0.995	4.010	C.3	1	UNK0	0.000	
22	   O	-1.507	1.612	1.896	O.3	1	UNK0	0.000	
23	   C	-2.282	1.916	0.792	C.2	1	UNK0	0.000	
24	   C	-2.055	1.500	-0.419	C.2	1	UNK0	0.000	
25	   C	-2.932	1.873	-1.531	C.1	1	UNK0	0.000	
26	   N	-3.635	2.165	-2.406	N.1	1	UNK0	0.000	
27	   N	-3.456	2.763	0.932	N.pl3	1	UNK0	0.000	
28	   H	-2.559	-1.503	0.298	 H	1	UNK0	0.000	
29	   H	-0.822	-2.120	-4.265	 H	1	UNK0	0.000	
30	   H	-2.249	-3.881	-3.195	 H	1	UNK0	0.000	
31	   H	0.354	0.393	-3.880	 H	1	UNK0	0.000	
32	   H	2.998	-2.350	2.001	 H	1	UNK0	0.000	
33	   H	3.829	-0.996	1.093	 H	1	UNK0	0.000	
34	   H	2.838	-2.202	0.210	 H	1	UNK0	0.000	
35	   H	-0.252	0.111	4.638	 H	1	UNK0	0.000	
36	   H	0.912	1.442	4.531	 H	1	UNK0	0.000	
37	   H	-0.768	1.731	3.928	 H	1	UNK0	0.000	
38	   H	-3.320	3.795	0.999	 H	1	UNK0	0.000	
39	   H	-4.407	2.388	0.968	 H	1	UNK0	0.000	
@<TRIPOS>BOND
1 1 2 1
2 2 3 2
3 2 7 1
4 3 4 1
5 4 5 2
6 4 11 1
7 5 6 1
8 5 8 1
9 6 7 2
10 8 9 1
11 9 10 2
12 9 11 1
13 11 12 1
14 11 24 1
15 12 13 2
16 12 18 1
17 13 14 1
18 13 22 1
19 14 15 1
20 14 21 1
21 15 16 2
22 15 17 1
23 17 18 1
24 17 20 1
25 18 19 2
26 22 23 1
27 23 24 2
28 23 27 1
29 24 25 1
30 25 26 3
31 3 28 1
32 6 29 1
33 7 30 1
34 8 31 1
35 20 32 1
36 20 33 1
37 20 34 1
38 21 35 1
39 21 36 1
40 21 37 1
41 27 38 1
42 27 39 1
@<TRIPOS>SUBSTRUCTURE
1	UNK0	1	GROUP	1 ****	UNK
