# created with PyMOL 2.3.2
@<TRIPOS>MOLECULE
560
52 55 1                 
SMALL
USER_CHARGES
@<TRIPOS>ATOM
1	  Br	-0.273	-5.972	-1.779	Br	1	UNK0	0.000	
2	   C	0.541	-4.353	-2.411	C.2	1	UNK0	0.000	
3	   C	0.342	-3.162	-1.758	C.2	1	UNK0	0.000	
4	   C	0.931	-1.970	-2.209	C.2	1	UNK0	0.000	
5	   C	1.715	-1.988	-3.318	C.2	1	UNK0	0.000	
6	   C	1.924	-3.212	-3.992	C.2	1	UNK0	0.000	
7	   C	1.340	-4.369	-3.534	C.2	1	UNK0	0.000	
8	   N	2.162	-0.679	-3.638	N.pl3	1	UNK0	0.000	
9	   C	1.620	0.198	-2.678	C.2	1	UNK0	0.000	
10	   O	1.741	1.488	-2.695	O.2	1	UNK0	0.000	
11	   C	0.911	-0.609	-1.678	C.3	1	UNK0	0.000	
12	   N	-0.438	-0.100	-1.579	N.3	1	UNK0	0.000	
13	   C	-0.344	1.031	-0.727	C.3	1	UNK0	0.000	
14	   C	0.655	0.673	0.292	C.3	1	UNK0	0.000	
15	   C	1.465	-0.442	-0.305	C.3	1	UNK0	0.000	
16	   C	1.354	-1.591	0.562	C.2	1	UNK0	0.000	
17	   O	1.949	-2.721	0.548	O.2	1	UNK0	0.000	
18	   N	0.381	-1.286	1.571	N.pl3	1	UNK0	0.000	
19	   C	-0.045	0.067	1.481	C.2	1	UNK0	0.000	
20	   O	-0.845	0.713	2.206	O.2	1	UNK0	0.000	
21	   C	-0.106	-2.231	2.572	C.3	1	UNK0	0.000	
22	   C	1.036	-2.731	3.438	C.3	1	UNK0	0.000	
23	   C	-0.786	-3.417	1.931	C.3	1	UNK0	0.000	
24	   C	-1.145	-1.588	3.463	C.3	1	UNK0	0.000	
25	   C	-1.684	1.470	-0.183	C.3	1	UNK0	0.000	
26	   C	-2.568	1.831	-1.385	C.3	1	UNK0	0.000	
27	   C	-3.880	2.260	-0.843	C.2	1	UNK0	0.000	
28	   O	-4.130	2.291	0.383	O.2	1	UNK0	0.000	
29	   N	-4.893	2.651	-1.750	N.pl3	1	UNK0	0.000	
30	   H	-0.295	-3.167	-0.889	 H	1	UNK0	0.000	
31	   H	2.560	-3.192	-4.877	 H	1	UNK0	0.000	
32	   H	1.505	-5.302	-4.056	 H	1	UNK0	0.000	
33	   H	2.789	-0.396	-4.450	 H	1	UNK0	0.000	
34	   H	-0.864	0.132	-2.497	 H	1	UNK0	0.000	
35	   H	0.005	1.930	-1.325	 H	1	UNK0	0.000	
36	   H	1.295	1.525	0.626	 H	1	UNK0	0.000	
37	   H	2.544	-0.097	-0.338	 H	1	UNK0	0.000	
38	   H	0.852	-3.792	3.662	 H	1	UNK0	0.000	
39	   H	1.028	-2.115	4.368	 H	1	UNK0	0.000	
40	   H	1.983	-2.618	2.879	 H	1	UNK0	0.000	
41	   H	-0.083	-4.064	1.410	 H	1	UNK0	0.000	
42	   H	-1.519	-3.019	1.173	 H	1	UNK0	0.000	
43	   H	-1.386	-3.926	2.710	 H	1	UNK0	0.000	
44	   H	-0.709	-0.727	4.009	 H	1	UNK0	0.000	
45	   H	-1.975	-1.202	2.832	 H	1	UNK0	0.000	
46	   H	-1.527	-2.360	4.170	 H	1	UNK0	0.000	
47	   H	-1.606	2.387	0.425	 H	1	UNK0	0.000	
48	   H	-2.238	0.727	0.373	 H	1	UNK0	0.000	
49	   H	-2.102	2.712	-1.884	 H	1	UNK0	0.000	
50	   H	-2.714	0.974	-2.045	 H	1	UNK0	0.000	
51	   H	-5.506	3.479	-1.563	 H	1	UNK0	0.000	
52	   H	-4.992	2.059	-2.623	 H	1	UNK0	0.000	
@<TRIPOS>BOND
1 1 2 1
2 2 3 2
3 2 7 1
4 3 4 1
5 4 5 2
6 4 11 1
7 5 6 1
8 5 8 1
9 6 7 2
10 8 9 1
11 9 10 2
12 9 11 1
13 11 12 1
14 11 15 1
15 12 13 1
16 13 14 1
17 13 25 1
18 14 15 1
19 14 19 1
20 15 16 1
21 16 17 2
22 16 18 1
23 18 19 1
24 18 21 1
25 19 20 2
26 21 22 1
27 21 23 1
28 21 24 1
29 25 26 1
30 26 27 1
31 27 28 2
32 27 29 1
33 3 30 1
34 6 31 1
35 7 32 1
36 8 33 1
37 12 34 1
38 13 35 1
39 14 36 1
40 15 37 1
41 22 38 1
42 22 39 1
43 22 40 1
44 23 41 1
45 23 42 1
46 23 43 1
47 24 44 1
48 24 45 1
49 24 46 1
50 25 47 1
51 25 48 1
52 26 49 1
53 26 50 1
54 29 51 1
55 29 52 1
@<TRIPOS>SUBSTRUCTURE
1	UNK0	1	GROUP	1 ****	UNK
