# created with PyMOL 2.3.2
@<TRIPOS>MOLECULE
561
45 48 1                 
SMALL
USER_CHARGES
@<TRIPOS>ATOM
1	  Br	3.059	-1.955	-3.068	Br	1	UNK0	0.000	
2	   C	1.567	-2.337	-1.946	C.2	1	UNK0	0.000	
3	   C	1.315	-1.585	-0.791	C.2	1	UNK0	0.000	
4	   C	0.242	-1.853	0.023	C.2	1	UNK0	0.000	
5	   C	-0.601	-2.884	-0.303	C.2	1	UNK0	0.000	
6	   C	-0.335	-3.627	-1.461	C.2	1	UNK0	0.000	
7	   C	0.733	-3.374	-2.289	C.2	1	UNK0	0.000	
8	   N	-1.645	-2.990	0.658	N.pl3	1	UNK0	0.000	
9	   C	-1.443	-1.988	1.616	C.2	1	UNK0	0.000	
10	   O	-2.216	-1.807	2.609	O.2	1	UNK0	0.000	
11	   C	-0.220	-1.232	1.257	C.3	1	UNK0	0.000	
12	   N	0.739	-1.206	2.306	N.3	1	UNK0	0.000	
13	   C	1.343	0.094	2.269	C.3	1	UNK0	0.000	
14	   C	0.219	1.020	1.974	C.3	1	UNK0	0.000	
15	   C	-0.656	0.195	1.099	C.3	1	UNK0	0.000	
16	   C	-0.531	0.731	-0.264	C.2	1	UNK0	0.000	
17	   O	-0.805	0.101	-1.310	O.2	1	UNK0	0.000	
18	   N	-0.054	2.068	-0.177	N.pl3	1	UNK0	0.000	
19	   C	0.581	2.149	1.092	C.2	1	UNK0	0.000	
20	   O	1.375	3.091	1.437	O.2	1	UNK0	0.000	
21	   C	-0.189	3.122	-1.179	C.3	1	UNK0	0.000	
22	   C	0.456	4.407	-0.707	C.3	1	UNK0	0.000	
23	   C	-1.633	3.398	-1.453	C.3	1	UNK0	0.000	
24	   C	0.472	2.734	-2.481	C.3	1	UNK0	0.000	
25	   C	1.895	0.490	3.637	C.3	1	UNK0	0.000	
26	   H	2.040	-0.798	-0.631	 H	1	UNK0	0.000	
27	   H	-1.018	-4.430	-1.689	 H	1	UNK0	0.000	
28	   H	0.917	-3.974	-3.191	 H	1	UNK0	0.000	
29	   H	-2.424	-3.719	0.616	 H	1	UNK0	0.000	
30	   H	1.418	-1.987	2.295	 H	1	UNK0	0.000	
31	   H	2.112	0.232	1.483	 H	1	UNK0	0.000	
32	   H	-0.286	1.408	2.881	 H	1	UNK0	0.000	
33	   H	-1.727	0.368	1.399	 H	1	UNK0	0.000	
34	   H	0.040	4.634	0.293	 H	1	UNK0	0.000	
35	   H	1.538	4.222	-0.607	 H	1	UNK0	0.000	
36	   H	0.214	5.184	-1.457	 H	1	UNK0	0.000	
37	   H	-2.056	2.768	-2.264	 H	1	UNK0	0.000	
38	   H	-2.217	3.186	-0.532	 H	1	UNK0	0.000	
39	   H	-1.779	4.456	-1.738	 H	1	UNK0	0.000	
40	   H	1.549	2.948	-2.432	 H	1	UNK0	0.000	
41	   H	0.240	1.696	-2.786	 H	1	UNK0	0.000	
42	   H	0.030	3.391	-3.263	 H	1	UNK0	0.000	
43	   H	1.581	1.509	3.921	 H	1	UNK0	0.000	
44	   H	1.602	-0.223	4.417	 H	1	UNK0	0.000	
45	   H	2.996	0.506	3.539	 H	1	UNK0	0.000	
@<TRIPOS>BOND
1 1 2 1
2 2 3 2
3 2 7 1
4 3 4 1
5 4 5 2
6 4 11 1
7 5 6 1
8 5 8 1
9 6 7 2
10 8 9 1
11 9 10 2
12 9 11 1
13 11 12 1
14 11 15 1
15 12 13 1
16 13 14 1
17 13 25 1
18 14 15 1
19 14 19 1
20 15 16 1
21 16 17 2
22 16 18 1
23 18 19 1
24 18 21 1
25 19 20 2
26 21 22 1
27 21 23 1
28 21 24 1
29 3 26 1
30 6 27 1
31 7 28 1
32 8 29 1
33 12 30 1
34 13 31 1
35 14 32 1
36 15 33 1
37 22 34 1
38 22 35 1
39 22 36 1
40 23 37 1
41 23 38 1
42 23 39 1
43 24 40 1
44 24 41 1
45 24 42 1
46 25 43 1
47 25 44 1
48 25 45 1
@<TRIPOS>SUBSTRUCTURE
1	UNK0	1	GROUP	1 ****	UNK
