# created with PyMOL 2.3.2
@<TRIPOS>MOLECULE
562
49 52 1                 
SMALL
USER_CHARGES
@<TRIPOS>ATOM
1	  Br	1.821	2.201	6.198	Br	1	UNK0	0.000	
2	   C	0.460	1.952	4.902	C.2	1	UNK0	0.000	
3	   C	0.777	1.318	3.725	C.2	1	UNK0	0.000	
4	   C	-0.200	1.125	2.764	C.2	1	UNK0	0.000	
5	   C	-1.465	1.572	3.007	C.2	1	UNK0	0.000	
6	   C	-1.813	2.219	4.193	C.2	1	UNK0	0.000	
7	   C	-0.817	2.395	5.129	C.2	1	UNK0	0.000	
8	   N	-2.320	1.297	1.911	N.pl3	1	UNK0	0.000	
9	   C	-1.558	0.650	0.939	C.2	1	UNK0	0.000	
10	   O	-1.993	0.264	-0.202	O.2	1	UNK0	0.000	
11	   C	-0.185	0.483	1.424	C.3	1	UNK0	0.000	
12	   N	0.244	-0.855	1.574	N.3	1	UNK0	0.000	
13	   C	1.108	-1.262	0.497	C.3	1	UNK0	0.000	
14	   C	1.573	-0.030	-0.074	C.3	1	UNK0	0.000	
15	   C	0.783	1.125	0.495	C.3	1	UNK0	0.000	
16	   C	0.139	1.781	-0.666	C.2	1	UNK0	0.000	
17	   O	-0.672	2.733	-0.523	O.2	1	UNK0	0.000	
18	   N	0.613	1.139	-1.844	N.pl3	1	UNK0	0.000	
19	   C	1.596	0.174	-1.507	C.2	1	UNK0	0.000	
20	   O	2.332	-0.378	-2.336	O.2	1	UNK0	0.000	
21	   C	0.127	1.461	-3.200	C.3	1	UNK0	0.000	
22	   C	0.299	2.925	-3.499	C.3	1	UNK0	0.000	
23	   C	1.800	3.224	-3.390	C.3	1	UNK0	0.000	
24	   C	-1.352	1.151	-3.259	C.3	1	UNK0	0.000	
25	   C	0.410	-2.319	-0.249	C.3	1	UNK0	0.000	
26	   O	0.178	-3.373	0.683	O.3	1	UNK0	0.000	
27	   C	1.081	-2.939	-1.407	C.3	1	UNK0	0.000	
28	   H	1.760	0.951	3.494	 H	1	UNK0	0.000	
29	   H	-2.822	2.563	4.360	 H	1	UNK0	0.000	
30	   H	-1.056	2.885	6.042	 H	1	UNK0	0.000	
31	   H	-3.346	1.521	1.807	 H	1	UNK0	0.000	
32	   H	0.664	-0.992	2.516	 H	1	UNK0	0.000	
33	   H	1.983	-1.776	1.023	 H	1	UNK0	0.000	
34	   H	2.639	0.189	0.268	 H	1	UNK0	0.000	
35	   H	1.385	1.844	1.087	 H	1	UNK0	0.000	
36	   H	0.631	0.845	-3.957	 H	1	UNK0	0.000	
37	   H	0.042	3.130	-4.559	 H	1	UNK0	0.000	
38	   H	-0.306	3.580	-2.876	 H	1	UNK0	0.000	
39	   H	1.969	4.276	-3.092	 H	1	UNK0	0.000	
40	   H	2.295	2.495	-2.697	 H	1	UNK0	0.000	
41	   H	2.291	3.086	-4.376	 H	1	UNK0	0.000	
42	   H	-1.561	0.076	-3.095	 H	1	UNK0	0.000	
43	   H	-1.966	1.812	-2.637	 H	1	UNK0	0.000	
44	   H	-1.660	1.346	-4.327	 H	1	UNK0	0.000	
45	   H	-0.619	-2.049	-0.565	 H	1	UNK0	0.000	
46	   H	1.054	-3.682	1.056	 H	1	UNK0	0.000	
47	   H	0.817	-4.020	-1.424	 H	1	UNK0	0.000	
48	   H	2.207	-2.938	-1.346	 H	1	UNK0	0.000	
49	   H	0.721	-2.581	-2.396	 H	1	UNK0	0.000	
@<TRIPOS>BOND
1 1 2 1
2 2 3 2
3 2 7 1
4 3 4 1
5 4 5 2
6 4 11 1
7 5 6 1
8 5 8 1
9 6 7 2
10 8 9 1
11 9 10 2
12 9 11 1
13 11 12 1
14 11 15 1
15 12 13 1
16 13 14 1
17 13 25 1
18 14 15 1
19 14 19 1
20 15 16 1
21 16 17 2
22 16 18 1
23 18 19 1
24 18 21 1
25 19 20 2
26 21 22 1
27 21 24 1
28 22 23 1
29 25 26 1
30 25 27 1
31 3 28 1
32 6 29 1
33 7 30 1
34 8 31 1
35 12 32 1
36 13 33 1
37 14 34 1
38 15 35 1
39 21 36 1
40 22 37 1
41 22 38 1
42 23 39 1
43 23 40 1
44 23 41 1
45 24 42 1
46 24 43 1
47 24 44 1
48 25 45 1
49 26 46 1
50 27 47 1
51 27 48 1
52 27 49 1
@<TRIPOS>SUBSTRUCTURE
1	UNK0	1	GROUP	1 ****	UNK
