# created with PyMOL 2.3.2
@<TRIPOS>MOLECULE
563
49 52 1                 
SMALL
USER_CHARGES
@<TRIPOS>ATOM
1	  Br	-1.912	1.985	5.264	Br	1	UNK0	0.000	
2	   C	-2.427	1.701	3.447	C.2	1	UNK0	0.000	
3	   C	-1.676	0.891	2.623	C.2	1	UNK0	0.000	
4	   C	-2.066	0.701	1.319	C.2	1	UNK0	0.000	
5	   C	-3.189	1.313	0.849	C.2	1	UNK0	0.000	
6	   C	-3.925	2.120	1.696	C.2	1	UNK0	0.000	
7	   C	-3.557	2.323	2.994	C.2	1	UNK0	0.000	
8	   N	-3.400	1.003	-0.524	N.pl3	1	UNK0	0.000	
9	   C	-2.363	0.160	-0.935	C.2	1	UNK0	0.000	
10	   O	-2.222	-0.286	-2.103	O.2	1	UNK0	0.000	
11	   C	-1.474	-0.113	0.226	C.3	1	UNK0	0.000	
12	   N	-1.429	-1.509	0.526	N.3	1	UNK0	0.000	
13	   C	-0.138	-1.807	1.000	C.3	1	UNK0	0.000	
14	   C	0.790	-0.870	0.334	C.3	1	UNK0	0.000	
15	   C	-0.073	0.308	-0.015	C.3	1	UNK0	0.000	
16	   C	0.220	0.663	-1.411	C.2	1	UNK0	0.000	
17	   O	-0.362	1.571	-2.043	O.2	1	UNK0	0.000	
18	   N	1.247	-0.197	-1.868	N.pl3	1	UNK0	0.000	
19	   C	1.295	-1.292	-0.973	C.2	1	UNK0	0.000	
20	   O	1.717	-2.439	-1.288	O.2	1	UNK0	0.000	
21	   C	2.105	0.003	-3.052	C.3	1	UNK0	0.000	
22	   C	1.275	0.020	-4.311	C.3	1	UNK0	0.000	
23	   C	0.531	-1.288	-4.480	C.3	1	UNK0	0.000	
24	   C	2.862	1.277	-2.921	C.3	1	UNK0	0.000	
25	   C	0.230	-3.269	0.795	C.3	1	UNK0	0.000	
26	   C	1.577	-3.507	1.326	C.2	1	UNK0	0.000	
27	   O	2.189	-4.601	1.153	O.2	1	UNK0	0.000	
28	   N	2.256	-2.514	2.063	N.pl3	1	UNK0	0.000	
29	   H	-0.767	0.402	2.997	 H	1	UNK0	0.000	
30	   H	-4.834	2.619	1.330	 H	1	UNK0	0.000	
31	   H	-4.141	2.957	3.649	 H	1	UNK0	0.000	
32	   H	-4.225	1.377	-1.091	 H	1	UNK0	0.000	
33	   H	-1.647	-2.022	-0.380	 H	1	UNK0	0.000	
34	   H	-0.088	-1.646	2.105	 H	1	UNK0	0.000	
35	   H	1.638	-0.561	0.994	 H	1	UNK0	0.000	
36	   H	0.255	1.154	0.635	 H	1	UNK0	0.000	
37	   H	2.821	-0.832	-3.157	 H	1	UNK0	0.000	
38	   H	1.937	0.113	-5.195	 H	1	UNK0	0.000	
39	   H	0.601	0.896	-4.341	 H	1	UNK0	0.000	
40	   H	0.287	-1.501	-5.540	 H	1	UNK0	0.000	
41	   H	1.222	-2.110	-4.144	 H	1	UNK0	0.000	
42	   H	-0.347	-1.310	-3.825	 H	1	UNK0	0.000	
43	   H	3.171	1.525	-1.880	 H	1	UNK0	0.000	
44	   H	2.360	2.145	-3.414	 H	1	UNK0	0.000	
45	   H	3.831	1.156	-3.488	 H	1	UNK0	0.000	
46	   H	-0.471	-3.822	1.497	 H	1	UNK0	0.000	
47	   H	0.045	-3.634	-0.218	 H	1	UNK0	0.000	
48	   H	1.786	-2.088	2.888	 H	1	UNK0	0.000	
49	   H	3.198	-2.216	1.792	 H	1	UNK0	0.000	
@<TRIPOS>BOND
1 1 2 1
2 2 3 2
3 2 7 1
4 3 4 1
5 4 5 2
6 4 11 1
7 5 6 1
8 5 8 1
9 6 7 2
10 8 9 1
11 9 10 2
12 9 11 1
13 11 12 1
14 11 15 1
15 12 13 1
16 13 14 1
17 13 25 1
18 14 15 1
19 14 19 1
20 15 16 1
21 16 17 2
22 16 18 1
23 18 19 1
24 18 21 1
25 19 20 2
26 21 22 1
27 21 24 1
28 22 23 1
29 25 26 1
30 26 27 2
31 26 28 1
32 3 29 1
33 6 30 1
34 7 31 1
35 8 32 1
36 12 33 1
37 13 34 1
38 14 35 1
39 15 36 1
40 21 37 1
41 22 38 1
42 22 39 1
43 23 40 1
44 23 41 1
45 23 42 1
46 24 43 1
47 24 44 1
48 24 45 1
49 25 46 1
50 25 47 1
51 28 48 1
52 28 49 1
@<TRIPOS>SUBSTRUCTURE
1	UNK0	1	GROUP	1 ****	UNK
