# created with PyMOL 2.3.2
@<TRIPOS>MOLECULE
564
52 55 1                 
SMALL
USER_CHARGES
@<TRIPOS>ATOM
1	  Br	-0.263	2.516	5.619	Br	1	UNK0	0.000	
2	   C	-1.113	1.147	4.621	C.2	1	UNK0	0.000	
3	   C	-0.858	1.028	3.276	C.2	1	UNK0	0.000	
4	   C	-1.462	0.035	2.501	C.2	1	UNK0	0.000	
5	   C	-2.317	-0.810	3.150	C.2	1	UNK0	0.000	
6	   C	-2.580	-0.689	4.526	C.2	1	UNK0	0.000	
7	   C	-1.972	0.299	5.265	C.2	1	UNK0	0.000	
8	   N	-2.812	-1.778	2.226	N.pl3	1	UNK0	0.000	
9	   C	-2.248	-1.540	0.950	C.2	1	UNK0	0.000	
10	   O	-2.481	-2.296	-0.027	O.2	1	UNK0	0.000	
11	   C	-1.423	-0.327	1.066	C.3	1	UNK0	0.000	
12	   N	-0.062	-0.570	0.615	N.3	1	UNK0	0.000	
13	   C	0.456	0.638	0.074	C.3	1	UNK0	0.000	
14	   C	-0.706	1.585	-0.113	C.3	1	UNK0	0.000	
15	   C	-1.930	0.851	0.286	C.3	1	UNK0	0.000	
16	   C	-2.632	0.557	-0.951	C.2	1	UNK0	0.000	
17	   O	-3.609	-0.226	-1.054	O.2	1	UNK0	0.000	
18	   N	-2.064	1.274	-2.023	N.pl3	1	UNK0	0.000	
19	   C	-0.931	1.959	-1.504	C.2	1	UNK0	0.000	
20	   O	-0.205	2.784	-2.145	O.2	1	UNK0	0.000	
21	   C	-2.484	1.361	-3.406	C.3	1	UNK0	0.000	
22	   C	-2.524	0.055	-4.128	C.3	1	UNK0	0.000	
23	   C	-1.163	-0.601	-4.156	C.3	1	UNK0	0.000	
24	   C	-3.855	2.046	-3.508	C.3	1	UNK0	0.000	
25	   C	1.266	0.510	-1.171	C.3	1	UNK0	0.000	
26	   C	2.482	-0.349	-1.012	C.3	1	UNK0	0.000	
27	   C	2.262	-1.745	-0.686	C.2	1	UNK0	0.000	
28	   O	1.157	-2.298	-0.817	O.2	1	UNK0	0.000	
29	   N	3.356	-2.513	-0.199	N.pl3	1	UNK0	0.000	
30	   H	-0.181	1.692	2.759	 H	1	UNK0	0.000	
31	   H	-3.255	-1.356	5.038	 H	1	UNK0	0.000	
32	   H	-2.190	0.379	6.339	 H	1	UNK0	0.000	
33	   H	-3.488	-2.535	2.488	 H	1	UNK0	0.000	
34	   H	0.481	-0.915	1.460	 H	1	UNK0	0.000	
35	   H	1.138	1.097	0.858	 H	1	UNK0	0.000	
36	   H	-0.601	2.491	0.558	 H	1	UNK0	0.000	
37	   H	-2.565	1.448	1.003	 H	1	UNK0	0.000	
38	   H	-1.794	2.021	-3.967	 H	1	UNK0	0.000	
39	   H	-3.236	-0.672	-3.729	 H	1	UNK0	0.000	
40	   H	-2.838	0.281	-5.178	 H	1	UNK0	0.000	
41	   H	-1.097	-1.205	-5.084	 H	1	UNK0	0.000	
42	   H	-1.072	-1.199	-3.233	 H	1	UNK0	0.000	
43	   H	-0.415	0.226	-4.213	 H	1	UNK0	0.000	
44	   H	-4.326	1.738	-4.463	 H	1	UNK0	0.000	
45	   H	-4.489	1.783	-2.638	 H	1	UNK0	0.000	
46	   H	-3.729	3.148	-3.540	 H	1	UNK0	0.000	
47	   H	0.665	0.136	-2.035	 H	1	UNK0	0.000	
48	   H	1.627	1.558	-1.408	 H	1	UNK0	0.000	
49	   H	3.181	0.151	-0.281	 H	1	UNK0	0.000	
50	   H	3.034	-0.282	-2.006	 H	1	UNK0	0.000	
51	   H	3.334	-3.114	0.648	 H	1	UNK0	0.000	
52	   H	4.257	-2.469	-0.736	 H	1	UNK0	0.000	
@<TRIPOS>BOND
1 1 2 1
2 2 3 2
3 2 7 1
4 3 4 1
5 4 5 2
6 4 11 1
7 5 6 1
8 5 8 1
9 6 7 2
10 8 9 1
11 9 10 2
12 9 11 1
13 11 12 1
14 11 15 1
15 12 13 1
16 13 14 1
17 13 25 1
18 14 15 1
19 14 19 1
20 15 16 1
21 16 17 2
22 16 18 1
23 18 19 1
24 18 21 1
25 19 20 2
26 21 22 1
27 21 24 1
28 22 23 1
29 25 26 1
30 26 27 1
31 27 28 2
32 27 29 1
33 3 30 1
34 6 31 1
35 7 32 1
36 8 33 1
37 12 34 1
38 13 35 1
39 14 36 1
40 15 37 1
41 21 38 1
42 22 39 1
43 22 40 1
44 23 41 1
45 23 42 1
46 23 43 1
47 24 44 1
48 24 45 1
49 24 46 1
50 25 47 1
51 25 48 1
52 26 49 1
53 26 50 1
54 29 51 1
55 29 52 1
@<TRIPOS>SUBSTRUCTURE
1	UNK0	1	GROUP	1 ****	UNK
