# created with PyMOL 2.3.2
@<TRIPOS>MOLECULE
565
45 48 1                 
SMALL
USER_CHARGES
@<TRIPOS>ATOM
1	  Br	-3.778	0.168	4.646	Br	1	UNK0	0.000	
2	   C	-2.162	-0.516	3.860	C.2	1	UNK0	0.000	
3	   C	-1.985	-0.374	2.504	C.2	1	UNK0	0.000	
4	   C	-0.834	-0.852	1.891	C.2	1	UNK0	0.000	
5	   C	0.082	-1.456	2.699	C.2	1	UNK0	0.000	
6	   C	-0.110	-1.595	4.091	C.2	1	UNK0	0.000	
7	   C	-1.250	-1.120	4.691	C.2	1	UNK0	0.000	
8	   N	1.161	-1.930	1.895	N.pl3	1	UNK0	0.000	
9	   C	0.902	-1.614	0.547	C.2	1	UNK0	0.000	
10	   O	1.684	-2.007	-0.378	O.2	1	UNK0	0.000	
11	   C	-0.327	-0.825	0.498	C.3	1	UNK0	0.000	
12	   N	-0.050	0.552	0.143	N.3	1	UNK0	0.000	
13	   C	-1.289	1.099	-0.293	C.3	1	UNK0	0.000	
14	   C	-2.097	-0.062	-0.796	C.3	1	UNK0	0.000	
15	   C	-1.337	-1.321	-0.489	C.3	1	UNK0	0.000	
16	   C	-0.792	-1.781	-1.755	C.2	1	UNK0	0.000	
17	   O	-0.163	-2.898	-1.911	O.2	1	UNK0	0.000	
18	   N	-1.058	-0.832	-2.769	N.pl3	1	UNK0	0.000	
19	   C	-2.125	0.008	-2.283	C.2	1	UNK0	0.000	
20	   O	-2.944	0.686	-2.925	O.2	1	UNK0	0.000	
21	   C	-0.440	-0.667	-4.053	C.3	1	UNK0	0.000	
22	   C	0.953	-0.151	-4.084	C.3	1	UNK0	0.000	
23	   C	2.018	-0.924	-3.416	C.3	1	UNK0	0.000	
24	   C	-0.624	-1.873	-4.955	C.3	1	UNK0	0.000	
25	   C	-1.072	2.128	-1.412	C.3	1	UNK0	0.000	
26	   H	-2.722	0.096	1.876	 H	1	UNK0	0.000	
27	   H	0.651	-2.084	4.693	 H	1	UNK0	0.000	
28	   H	-1.423	-1.213	5.757	 H	1	UNK0	0.000	
29	   H	2.012	-2.440	2.285	 H	1	UNK0	0.000	
30	   H	0.388	1.025	0.952	 H	1	UNK0	0.000	
31	   H	-1.809	1.691	0.500	 H	1	UNK0	0.000	
32	   H	-3.137	-0.091	-0.391	 H	1	UNK0	0.000	
33	   H	-2.051	-2.047	-0.024	 H	1	UNK0	0.000	
34	   H	-1.029	0.176	-4.578	 H	1	UNK0	0.000	
35	   H	0.949	0.924	-3.773	 H	1	UNK0	0.000	
36	   H	1.232	-0.102	-5.184	 H	1	UNK0	0.000	
37	   H	3.016	-0.817	-3.972	 H	1	UNK0	0.000	
38	   H	1.877	-1.994	-3.345	 H	1	UNK0	0.000	
39	   H	2.252	-0.406	-2.444	 H	1	UNK0	0.000	
40	   H	-0.144	-2.768	-4.551	 H	1	UNK0	0.000	
41	   H	-0.157	-1.620	-5.929	 H	1	UNK0	0.000	
42	   H	-1.713	-1.994	-5.128	 H	1	UNK0	0.000	
43	   H	-2.015	2.729	-1.473	 H	1	UNK0	0.000	
44	   H	-0.843	1.623	-2.353	 H	1	UNK0	0.000	
45	   H	-0.277	2.821	-1.093	 H	1	UNK0	0.000	
@<TRIPOS>BOND
1 1 2 1
2 2 3 2
3 2 7 1
4 3 4 1
5 4 5 2
6 4 11 1
7 5 6 1
8 5 8 1
9 6 7 2
10 8 9 1
11 9 10 2
12 9 11 1
13 11 12 1
14 11 15 1
15 12 13 1
16 13 14 1
17 13 25 1
18 14 15 1
19 14 19 1
20 15 16 1
21 16 17 2
22 16 18 1
23 18 19 1
24 18 21 1
25 19 20 2
26 21 22 1
27 21 24 1
28 22 23 1
29 3 26 1
30 6 27 1
31 7 28 1
32 8 29 1
33 12 30 1
34 13 31 1
35 14 32 1
36 15 33 1
37 21 34 1
38 22 35 1
39 22 36 1
40 23 37 1
41 23 38 1
42 23 39 1
43 24 40 1
44 24 41 1
45 24 42 1
46 25 43 1
47 25 44 1
48 25 45 1
@<TRIPOS>SUBSTRUCTURE
1	UNK0	1	GROUP	1 ****	UNK
