# created with PyMOL 2.3.2
@<TRIPOS>MOLECULE
572
53 57 1                 
SMALL
USER_CHARGES
@<TRIPOS>ATOM
1	  Br	2.382	-3.731	-0.601	Br	1	UNK0	0.000	
2	   C	2.681	-1.858	-0.919	C.2	1	UNK0	0.000	
3	   C	1.647	-0.954	-1.013	C.2	1	UNK0	0.000	
4	   C	1.884	0.407	-1.259	C.2	1	UNK0	0.000	
5	   C	3.151	0.879	-1.415	C.2	1	UNK0	0.000	
6	   C	4.200	-0.045	-1.316	C.2	1	UNK0	0.000	
7	   C	3.970	-1.378	-1.075	C.2	1	UNK0	0.000	
8	   N	3.144	2.270	-1.714	N.pl3	1	UNK0	0.000	
9	   C	1.815	2.684	-1.751	C.2	1	UNK0	0.000	
10	   O	1.441	3.851	-2.054	O.2	1	UNK0	0.000	
11	   C	0.948	1.528	-1.378	C.3	1	UNK0	0.000	
12	   N	-0.038	1.283	-2.411	N.3	1	UNK0	0.000	
13	   C	-1.250	1.024	-1.682	C.3	1	UNK0	0.000	
14	   C	-1.256	2.063	-0.571	C.3	1	UNK0	0.000	
15	   C	0.213	1.941	-0.176	C.3	1	UNK0	0.000	
16	   C	0.235	1.065	1.008	C.2	1	UNK0	0.000	
17	   O	1.173	0.308	1.334	O.2	1	UNK0	0.000	
18	   N	-1.026	1.276	1.679	N.pl3	1	UNK0	0.000	
19	   C	-1.963	1.627	0.643	C.2	1	UNK0	0.000	
20	   O	-3.197	1.559	0.789	O.2	1	UNK0	0.000	
21	   C	-1.238	1.146	3.080	C.3	1	UNK0	0.000	
22	   C	-1.700	-0.174	3.577	C.3	1	UNK0	0.000	
23	   C	-0.790	-1.273	3.279	C.2	1	UNK0	0.000	
24	   C	-0.983	-1.988	2.125	C.2	1	UNK0	0.000	
25	   C	-0.168	-3.032	1.806	C.2	1	UNK0	0.000	
26	   C	0.862	-3.386	2.638	C.2	1	UNK0	0.000	
27	   C	1.070	-2.675	3.806	C.2	1	UNK0	0.000	
28	   C	0.237	-1.615	4.122	C.2	1	UNK0	0.000	
29	   C	-2.456	1.137	-2.572	C.3	1	UNK0	0.000	
30	   C	-2.303	0.135	-3.660	C.2	1	UNK0	0.000	
31	   O	-1.534	0.298	-4.637	O.2	1	UNK0	0.000	
32	   N	-3.044	-1.100	-3.647	N.pl3	1	UNK0	0.000	
33	   H	0.647	-1.349	-0.888	 H	1	UNK0	0.000	
34	   H	5.213	0.328	-1.438	 H	1	UNK0	0.000	
35	   H	4.772	-2.101	-0.997	 H	1	UNK0	0.000	
36	   H	4.035	2.823	-1.867	 H	1	UNK0	0.000	
37	   H	0.292	0.456	-2.955	 H	1	UNK0	0.000	
38	   H	-1.287	0.037	-1.185	 H	1	UNK0	0.000	
39	   H	-1.528	3.061	-0.909	 H	1	UNK0	0.000	
40	   H	0.508	2.961	0.189	 H	1	UNK0	0.000	
41	   H	-0.283	1.372	3.651	 H	1	UNK0	0.000	
42	   H	-1.958	1.918	3.472	 H	1	UNK0	0.000	
43	   H	-1.736	-0.091	4.704	 H	1	UNK0	0.000	
44	   H	-2.756	-0.386	3.275	 H	1	UNK0	0.000	
45	   H	-1.787	-1.753	1.421	 H	1	UNK0	0.000	
46	   H	-0.314	-3.614	0.886	 H	1	UNK0	0.000	
47	   H	1.537	-4.220	2.412	 H	1	UNK0	0.000	
48	   H	1.890	-2.972	4.448	 H	1	UNK0	0.000	
49	   H	0.420	-1.072	5.046	 H	1	UNK0	0.000	
50	   H	-3.359	0.877	-2.011	 H	1	UNK0	0.000	
51	   H	-2.532	2.126	-3.061	 H	1	UNK0	0.000	
52	   H	-2.958	-1.806	-2.907	 H	1	UNK0	0.000	
53	   H	-3.694	-1.275	-4.432	 H	1	UNK0	0.000	
@<TRIPOS>BOND
1 1 2 1
2 2 3 2
3 2 7 1
4 3 4 1
5 4 5 2
6 4 11 1
7 5 6 1
8 5 8 1
9 6 7 2
10 8 9 1
11 9 10 2
12 9 11 1
13 11 12 1
14 11 15 1
15 12 13 1
16 13 14 1
17 13 29 1
18 14 15 1
19 14 19 1
20 15 16 1
21 16 17 2
22 16 18 1
23 18 19 1
24 18 21 1
25 19 20 2
26 21 22 1
27 22 23 1
28 23 24 2
29 23 28 1
30 24 25 1
31 25 26 2
32 26 27 1
33 27 28 2
34 29 30 1
35 30 31 2
36 30 32 1
37 3 33 1
38 6 34 1
39 7 35 1
40 8 36 1
41 12 37 1
42 13 38 1
43 14 39 1
44 15 40 1
45 21 41 1
46 21 42 1
47 22 43 1
48 22 44 1
49 24 45 1
50 25 46 1
51 26 47 1
52 27 48 1
53 28 49 1
54 29 50 1
55 29 51 1
56 32 52 1
57 32 53 1
@<TRIPOS>SUBSTRUCTURE
1	UNK0	1	GROUP	1 ****	UNK
