# created with PyMOL 2.3.2
@<TRIPOS>MOLECULE
573
49 52 1                 
SMALL
USER_CHARGES
@<TRIPOS>ATOM
1	  Br	4.342	-0.551	-4.472	Br	1	UNK0	0.000	
2	   C	4.104	-0.633	-2.585	C.2	1	UNK0	0.000	
3	   C	2.826	-0.655	-2.070	C.2	1	UNK0	0.000	
4	   C	2.570	-0.715	-0.693	C.2	1	UNK0	0.000	
5	   C	3.665	-0.751	0.124	C.2	1	UNK0	0.000	
6	   C	4.968	-0.728	-0.405	C.2	1	UNK0	0.000	
7	   C	5.203	-0.669	-1.760	C.2	1	UNK0	0.000	
8	   N	3.227	-0.806	1.482	N.pl3	1	UNK0	0.000	
9	   C	1.814	-0.804	1.502	C.2	1	UNK0	0.000	
10	   O	1.152	-0.842	2.569	O.2	1	UNK0	0.000	
11	   C	1.353	-0.751	0.104	C.3	1	UNK0	0.000	
12	   N	0.461	-1.834	-0.222	N.3	1	UNK0	0.000	
13	   C	-0.636	-1.227	-0.871	C.3	1	UNK0	0.000	
14	   C	-0.860	0.052	-0.189	C.3	1	UNK0	0.000	
15	   C	0.595	0.560	-0.168	C.3	1	UNK0	0.000	
16	   C	0.675	1.459	0.986	C.2	1	UNK0	0.000	
17	   O	1.582	2.300	1.185	O.2	1	UNK0	0.000	
18	   N	-0.453	1.179	1.791	N.pl3	1	UNK0	0.000	
19	   C	-1.158	0.073	1.232	C.2	1	UNK0	0.000	
20	   O	-1.870	-0.654	1.991	O.2	1	UNK0	0.000	
21	   C	-0.803	1.934	3.004	C.3	1	UNK0	0.000	
22	   C	-1.706	3.096	2.663	C.3	1	UNK0	0.000	
23	   O	-1.073	3.971	1.767	O.3	1	UNK0	0.000	
24	   C	-1.914	5.038	1.458	C.3	1	UNK0	0.000	
25	   C	-1.798	-2.100	-1.165	C.3	1	UNK0	0.000	
26	   C	-1.268	-3.217	-2.084	C.3	1	UNK0	0.000	
27	   C	-2.481	-2.770	-0.041	C.3	1	UNK0	0.000	
28	   H	1.946	-0.626	-2.700	 H	1	UNK0	0.000	
29	   H	5.820	-0.758	0.262	 H	1	UNK0	0.000	
30	   H	6.220	-0.654	-2.134	 H	1	UNK0	0.000	
31	   H	3.890	-0.841	2.303	 H	1	UNK0	0.000	
32	   H	0.226	-2.444	0.577	 H	1	UNK0	0.000	
33	   H	-0.261	-0.936	-1.908	 H	1	UNK0	0.000	
34	   H	-1.464	0.777	-0.780	 H	1	UNK0	0.000	
35	   H	0.885	1.026	-1.106	 H	1	UNK0	0.000	
36	   H	0.130	2.368	3.441	 H	1	UNK0	0.000	
37	   H	-1.324	1.304	3.739	 H	1	UNK0	0.000	
38	   H	-2.608	2.703	2.163	 H	1	UNK0	0.000	
39	   H	-1.932	3.639	3.592	 H	1	UNK0	0.000	
40	   H	-2.828	4.581	0.995	 H	1	UNK0	0.000	
41	   H	-1.433	5.664	0.690	 H	1	UNK0	0.000	
42	   H	-2.204	5.628	2.348	 H	1	UNK0	0.000	
43	   H	-2.528	-1.539	-1.761	 H	1	UNK0	0.000	
44	   H	-2.089	-3.905	-2.375	 H	1	UNK0	0.000	
45	   H	-0.728	-2.800	-2.947	 H	1	UNK0	0.000	
46	   H	-0.538	-3.785	-1.469	 H	1	UNK0	0.000	
47	   H	-1.850	-3.112	0.784	 H	1	UNK0	0.000	
48	   H	-2.962	-3.717	-0.439	 H	1	UNK0	0.000	
49	   H	-3.385	-2.178	0.294	 H	1	UNK0	0.000	
@<TRIPOS>BOND
1 1 2 1
2 2 3 2
3 2 7 1
4 3 4 1
5 4 5 2
6 4 11 1
7 5 6 1
8 5 8 1
9 6 7 2
10 8 9 1
11 9 10 2
12 9 11 1
13 11 12 1
14 11 15 1
15 12 13 1
16 13 14 1
17 13 25 1
18 14 15 1
19 14 19 1
20 15 16 1
21 16 17 2
22 16 18 1
23 18 19 1
24 18 21 1
25 19 20 2
26 21 22 1
27 22 23 1
28 23 24 1
29 25 26 1
30 25 27 1
31 3 28 1
32 6 29 1
33 7 30 1
34 8 31 1
35 12 32 1
36 13 33 1
37 14 34 1
38 15 35 1
39 21 36 1
40 21 37 1
41 22 38 1
42 22 39 1
43 24 40 1
44 24 41 1
45 24 42 1
46 25 43 1
47 26 44 1
48 26 45 1
49 26 46 1
50 27 47 1
51 27 48 1
52 27 49 1
@<TRIPOS>SUBSTRUCTURE
1	UNK0	1	GROUP	1 ****	UNK
