# created with PyMOL 2.3.2
@<TRIPOS>MOLECULE
574
47 50 1                 
SMALL
USER_CHARGES
@<TRIPOS>ATOM
1	  Br	-0.543	-0.593	-4.970	Br	1	UNK0	0.000	
2	   C	0.136	0.572	-3.602	C.2	1	UNK0	0.000	
3	   C	-0.447	0.597	-2.359	C.2	1	UNK0	0.000	
4	   C	0.042	1.444	-1.353	C.2	1	UNK0	0.000	
5	   C	1.108	2.268	-1.577	C.2	1	UNK0	0.000	
6	   C	1.696	2.234	-2.852	C.2	1	UNK0	0.000	
7	   C	1.209	1.400	-3.829	C.2	1	UNK0	0.000	
8	   N	1.413	3.028	-0.416	N.pl3	1	UNK0	0.000	
9	   C	0.502	2.665	0.574	C.2	1	UNK0	0.000	
10	   O	0.497	3.165	1.738	O.2	1	UNK0	0.000	
11	   C	-0.417	1.630	0.026	C.3	1	UNK0	0.000	
12	   N	-1.781	2.038	0.132	N.3	1	UNK0	0.000	
13	   C	-2.558	0.851	0.349	C.3	1	UNK0	0.000	
14	   C	-1.671	-0.152	0.996	C.3	1	UNK0	0.000	
15	   C	-0.292	0.394	0.863	C.3	1	UNK0	0.000	
16	   C	0.553	-0.638	0.256	C.2	1	UNK0	0.000	
17	   O	1.747	-0.521	-0.075	O.2	1	UNK0	0.000	
18	   N	-0.236	-1.797	0.115	N.pl3	1	UNK0	0.000	
19	   C	-1.625	-1.448	0.273	C.2	1	UNK0	0.000	
20	   O	-2.592	-2.152	-0.147	O.2	1	UNK0	0.000	
21	   C	0.294	-3.121	-0.148	C.3	1	UNK0	0.000	
22	   C	0.591	-3.852	1.146	C.3	1	UNK0	0.000	
23	   O	1.100	-5.115	0.966	O.3	1	UNK0	0.000	
24	   C	0.279	-5.982	0.275	C.3	1	UNK0	0.000	
25	   C	-3.812	1.138	1.159	C.3	1	UNK0	0.000	
26	   O	-4.555	-0.024	1.361	O.3	1	UNK0	0.000	
27	   C	-3.488	1.709	2.513	C.3	1	UNK0	0.000	
28	   H	-1.286	-0.065	-2.217	 H	1	UNK0	0.000	
29	   H	2.554	2.897	-3.030	 H	1	UNK0	0.000	
30	   H	1.663	1.376	-4.808	 H	1	UNK0	0.000	
31	   H	2.210	3.725	-0.391	 H	1	UNK0	0.000	
32	   H	-2.095	2.601	-0.693	 H	1	UNK0	0.000	
33	   H	-2.943	0.404	-0.602	 H	1	UNK0	0.000	
34	   H	-1.941	-0.348	2.064	 H	1	UNK0	0.000	
35	   H	0.111	0.708	1.866	 H	1	UNK0	0.000	
36	   H	1.214	-2.998	-0.750	 H	1	UNK0	0.000	
37	   H	-0.479	-3.632	-0.762	 H	1	UNK0	0.000	
38	   H	-0.348	-3.850	1.762	 H	1	UNK0	0.000	
39	   H	1.357	-3.253	1.675	 H	1	UNK0	0.000	
40	   H	0.787	-6.983	0.188	 H	1	UNK0	0.000	
41	   H	-0.675	-6.130	0.797	 H	1	UNK0	0.000	
42	   H	0.046	-5.591	-0.753	 H	1	UNK0	0.000	
43	   H	-4.435	1.836	0.571	 H	1	UNK0	0.000	
44	   H	-4.948	-0.382	0.542	 H	1	UNK0	0.000	
45	   H	-4.452	2.029	2.967	 H	1	UNK0	0.000	
46	   H	-3.068	0.941	3.174	 H	1	UNK0	0.000	
47	   H	-2.865	2.623	2.448	 H	1	UNK0	0.000	
@<TRIPOS>BOND
1 1 2 1
2 2 3 2
3 2 7 1
4 3 4 1
5 4 5 2
6 4 11 1
7 5 6 1
8 5 8 1
9 6 7 2
10 8 9 1
11 9 10 2
12 9 11 1
13 11 12 1
14 11 15 1
15 12 13 1
16 13 14 1
17 13 25 1
18 14 15 1
19 14 19 1
20 15 16 1
21 16 17 2
22 16 18 1
23 18 19 1
24 18 21 1
25 19 20 2
26 21 22 1
27 22 23 1
28 23 24 1
29 25 26 1
30 25 27 1
31 3 28 1
32 6 29 1
33 7 30 1
34 8 31 1
35 12 32 1
36 13 33 1
37 14 34 1
38 15 35 1
39 21 36 1
40 21 37 1
41 22 38 1
42 22 39 1
43 24 40 1
44 24 41 1
45 24 42 1
46 25 43 1
47 26 44 1
48 27 45 1
49 27 46 1
50 27 47 1
@<TRIPOS>SUBSTRUCTURE
1	UNK0	1	GROUP	1 ****	UNK
