# created with PyMOL 2.3.2
@<TRIPOS>MOLECULE
575
47 50 1                 
SMALL
USER_CHARGES
@<TRIPOS>ATOM
1	  Br	5.688	-2.107	0.450	Br	1	UNK0	0.000	
2	   C	4.328	-1.823	-0.879	C.2	1	UNK0	0.000	
3	   C	3.458	-0.766	-0.751	C.2	1	UNK0	0.000	
4	   C	2.474	-0.583	-1.738	C.2	1	UNK0	0.000	
5	   C	2.373	-1.427	-2.804	C.2	1	UNK0	0.000	
6	   C	3.272	-2.496	-2.911	C.2	1	UNK0	0.000	
7	   C	4.236	-2.686	-1.954	C.2	1	UNK0	0.000	
8	   N	1.305	-1.022	-3.666	N.pl3	1	UNK0	0.000	
9	   C	0.727	0.127	-3.096	C.2	1	UNK0	0.000	
10	   O	-0.245	0.697	-3.700	O.2	1	UNK0	0.000	
11	   C	1.404	0.441	-1.864	C.3	1	UNK0	0.000	
12	   N	2.099	1.723	-1.906	N.3	1	UNK0	0.000	
13	   C	1.297	2.574	-1.007	C.3	1	UNK0	0.000	
14	   C	0.957	1.640	0.116	C.3	1	UNK0	0.000	
15	   C	0.589	0.378	-0.621	C.3	1	UNK0	0.000	
16	   C	-0.855	0.497	-0.770	C.2	1	UNK0	0.000	
17	   O	-1.681	0.082	-1.620	O.2	1	UNK0	0.000	
18	   N	-1.321	1.266	0.344	N.pl3	1	UNK0	0.000	
19	   C	-0.252	2.056	0.842	C.2	1	UNK0	0.000	
20	   O	-0.294	2.945	1.728	O.2	1	UNK0	0.000	
21	   C	-2.660	1.278	0.916	C.3	1	UNK0	0.000	
22	   C	-2.756	0.210	2.014	C.3	1	UNK0	0.000	
23	   O	-1.800	0.553	2.963	O.3	1	UNK0	0.000	
24	   C	-1.766	-0.328	4.028	C.3	1	UNK0	0.000	
25	   C	1.973	3.831	-0.650	C.3	1	UNK0	0.000	
26	   C	3.246	3.741	0.034	C.2	1	UNK0	0.000	
27	   O	3.763	2.644	0.311	O.2	1	UNK0	0.000	
28	   N	3.933	4.918	0.403	N.pl3	1	UNK0	0.000	
29	   H	3.521	-0.078	0.097	 H	1	UNK0	0.000	
30	   H	3.197	-3.170	-3.753	 H	1	UNK0	0.000	
31	   H	4.943	-3.514	-2.024	 H	1	UNK0	0.000	
32	   H	1.057	-1.539	-4.545	 H	1	UNK0	0.000	
33	   H	2.049	2.062	-2.878	 H	1	UNK0	0.000	
34	   H	0.358	2.761	-1.568	 H	1	UNK0	0.000	
35	   H	1.819	1.454	0.794	 H	1	UNK0	0.000	
36	   H	0.838	-0.528	-0.004	 H	1	UNK0	0.000	
37	   H	-3.428	1.101	0.141	 H	1	UNK0	0.000	
38	   H	-2.871	2.263	1.377	 H	1	UNK0	0.000	
39	   H	-2.478	-0.746	1.531	 H	1	UNK0	0.000	
40	   H	-3.736	0.211	2.488	 H	1	UNK0	0.000	
41	   H	-1.532	-1.371	3.732	 H	1	UNK0	0.000	
42	   H	-0.933	0.006	4.693	 H	1	UNK0	0.000	
43	   H	-2.709	-0.249	4.618	 H	1	UNK0	0.000	
44	   H	2.159	4.391	-1.615	 H	1	UNK0	0.000	
45	   H	1.229	4.496	-0.119	 H	1	UNK0	0.000	
46	   H	3.865	5.386	1.319	 H	1	UNK0	0.000	
47	   H	4.564	5.356	-0.310	 H	1	UNK0	0.000	
@<TRIPOS>BOND
1 1 2 1
2 2 3 2
3 2 7 1
4 3 4 1
5 4 5 2
6 4 11 1
7 5 6 1
8 5 8 1
9 6 7 2
10 8 9 1
11 9 10 2
12 9 11 1
13 11 12 1
14 11 15 1
15 12 13 1
16 13 14 1
17 13 25 1
18 14 15 1
19 14 19 1
20 15 16 1
21 16 17 2
22 16 18 1
23 18 19 1
24 18 21 1
25 19 20 2
26 21 22 1
27 22 23 1
28 23 24 1
29 25 26 1
30 26 27 2
31 26 28 1
32 3 29 1
33 6 30 1
34 7 31 1
35 8 32 1
36 12 33 1
37 13 34 1
38 14 35 1
39 15 36 1
40 21 37 1
41 21 38 1
42 22 39 1
43 22 40 1
44 24 41 1
45 24 42 1
46 24 43 1
47 25 44 1
48 25 45 1
49 28 46 1
50 28 47 1
@<TRIPOS>SUBSTRUCTURE
1	UNK0	1	GROUP	1 ****	UNK
