# created with PyMOL 2.3.2
@<TRIPOS>MOLECULE
576
43 46 1                 
SMALL
USER_CHARGES
@<TRIPOS>ATOM
1	  Br	2.594	-0.048	3.556	Br	1	UNK0	0.000	
2	   C	0.844	-0.738	3.215	C.2	1	UNK0	0.000	
3	   C	0.048	-0.123	2.287	C.2	1	UNK0	0.000	
4	   C	-1.233	-0.612	2.025	C.2	1	UNK0	0.000	
5	   C	-1.651	-1.709	2.719	C.2	1	UNK0	0.000	
6	   C	-0.845	-2.355	3.679	C.2	1	UNK0	0.000	
7	   C	0.409	-1.845	3.910	C.2	1	UNK0	0.000	
8	   N	-2.976	-2.047	2.315	N.pl3	1	UNK0	0.000	
9	   C	-3.393	-1.125	1.333	C.2	1	UNK0	0.000	
10	   O	-4.544	-1.154	0.768	O.2	1	UNK0	0.000	
11	   C	-2.299	-0.186	1.111	C.3	1	UNK0	0.000	
12	   N	-2.656	1.191	1.248	N.3	1	UNK0	0.000	
13	   C	-2.937	1.735	-0.041	C.3	1	UNK0	0.000	
14	   C	-2.319	0.824	-1.058	C.3	1	UNK0	0.000	
15	   C	-1.845	-0.359	-0.313	C.3	1	UNK0	0.000	
16	   C	-0.387	-0.376	-0.477	C.2	1	UNK0	0.000	
17	   O	0.428	-1.320	-0.163	O.2	1	UNK0	0.000	
18	   N	0.011	0.854	-1.057	N.pl3	1	UNK0	0.000	
19	   C	-1.130	1.397	-1.702	C.2	1	UNK0	0.000	
20	   O	-1.138	2.214	-2.648	O.2	1	UNK0	0.000	
21	   C	1.360	1.437	-0.990	C.3	1	UNK0	0.000	
22	   C	2.164	0.932	-2.196	C.3	1	UNK0	0.000	
23	   O	2.179	-0.475	-2.051	O.3	1	UNK0	0.000	
24	   C	2.900	-0.976	-3.127	C.3	1	UNK0	0.000	
25	   C	-4.435	1.742	-0.255	C.3	1	UNK0	0.000	
26	   H	0.345	0.747	1.719	 H	1	UNK0	0.000	
27	   H	-1.213	-3.230	4.215	 H	1	UNK0	0.000	
28	   H	1.037	-2.338	4.648	 H	1	UNK0	0.000	
29	   H	-3.546	-2.862	2.697	 H	1	UNK0	0.000	
30	   H	-3.356	1.391	1.971	 H	1	UNK0	0.000	
31	   H	-2.523	2.780	-0.164	 H	1	UNK0	0.000	
32	   H	-3.048	0.486	-1.824	 H	1	UNK0	0.000	
33	   H	-2.236	-1.329	-0.742	 H	1	UNK0	0.000	
34	   H	1.896	1.107	-0.078	 H	1	UNK0	0.000	
35	   H	1.298	2.522	-1.062	 H	1	UNK0	0.000	
36	   H	3.202	1.251	-2.149	 H	1	UNK0	0.000	
37	   H	1.643	1.136	-3.138	 H	1	UNK0	0.000	
38	   H	2.401	-0.678	-4.086	 H	1	UNK0	0.000	
39	   H	3.940	-0.599	-3.065	 H	1	UNK0	0.000	
40	   H	2.954	-2.090	-3.071	 H	1	UNK0	0.000	
41	   H	-4.758	0.947	-0.983	 H	1	UNK0	0.000	
42	   H	-4.783	2.743	-0.625	 H	1	UNK0	0.000	
43	   H	-5.005	1.549	0.677	 H	1	UNK0	0.000	
@<TRIPOS>BOND
1 1 2 1
2 2 3 2
3 2 7 1
4 3 4 1
5 4 5 2
6 4 11 1
7 5 6 1
8 5 8 1
9 6 7 2
10 8 9 1
11 9 10 2
12 9 11 1
13 11 12 1
14 11 15 1
15 12 13 1
16 13 14 1
17 13 25 1
18 14 15 1
19 14 19 1
20 15 16 1
21 16 17 2
22 16 18 1
23 18 19 1
24 18 21 1
25 19 20 2
26 21 22 1
27 22 23 1
28 23 24 1
29 3 26 1
30 6 27 1
31 7 28 1
32 8 29 1
33 12 30 1
34 13 31 1
35 14 32 1
36 15 33 1
37 21 34 1
38 21 35 1
39 22 36 1
40 22 37 1
41 24 38 1
42 24 39 1
43 24 40 1
44 25 41 1
45 25 42 1
46 25 43 1
@<TRIPOS>SUBSTRUCTURE
1	UNK0	1	GROUP	1 ****	UNK
