# created with PyMOL 2.3.2
@<TRIPOS>MOLECULE
577
49 52 1                 
SMALL
USER_CHARGES
@<TRIPOS>ATOM
1	  Br	-2.062	-4.993	1.277	Br	1	UNK0	0.000	
2	   C	-2.534	-3.502	0.175	C.2	1	UNK0	0.000	
3	   C	-1.584	-2.606	-0.246	C.2	1	UNK0	0.000	
4	   C	-1.909	-1.500	-1.058	C.2	1	UNK0	0.000	
5	   C	-3.194	-1.281	-1.456	C.2	1	UNK0	0.000	
6	   C	-4.158	-2.201	-1.021	C.2	1	UNK0	0.000	
7	   C	-3.835	-3.280	-0.228	C.2	1	UNK0	0.000	
8	   N	-3.280	-0.109	-2.252	N.pl3	1	UNK0	0.000	
9	   C	-1.975	0.427	-2.352	C.2	1	UNK0	0.000	
10	   O	-1.787	1.498	-3.010	O.2	1	UNK0	0.000	
11	   C	-1.068	-0.425	-1.628	C.3	1	UNK0	0.000	
12	   N	-0.165	-1.061	-2.594	N.3	1	UNK0	0.000	
13	   C	1.110	-0.407	-2.329	C.3	1	UNK0	0.000	
14	   C	1.147	-0.286	-0.835	C.3	1	UNK0	0.000	
15	   C	-0.262	0.187	-0.549	C.3	1	UNK0	0.000	
16	   C	-0.132	1.635	-0.542	C.2	1	UNK0	0.000	
17	   O	-0.950	2.572	-0.781	O.2	1	UNK0	0.000	
18	   N	1.213	1.934	-0.186	N.pl3	1	UNK0	0.000	
19	   C	2.038	0.823	-0.416	C.2	1	UNK0	0.000	
20	   O	3.280	0.738	-0.303	O.2	1	UNK0	0.000	
21	   C	1.735	3.199	0.350	C.3	1	UNK0	0.000	
22	   C	2.344	2.937	1.705	C.3	1	UNK0	0.000	
23	   C	1.324	2.385	2.658	C.3	1	UNK0	0.000	
24	   C	2.859	3.707	-0.547	C.3	1	UNK0	0.000	
25	   C	2.215	-1.126	-2.985	C.3	1	UNK0	0.000	
26	   C	2.324	-2.521	-2.540	C.2	1	UNK0	0.000	
27	   O	1.491	-2.985	-1.731	O.2	1	UNK0	0.000	
28	   N	3.365	-3.388	-3.003	N.pl3	1	UNK0	0.000	
29	   H	-0.548	-2.761	0.065	 H	1	UNK0	0.000	
30	   H	-5.189	-2.011	-1.350	 H	1	UNK0	0.000	
31	   H	-4.614	-3.970	0.086	 H	1	UNK0	0.000	
32	   H	-4.179	0.251	-2.670	 H	1	UNK0	0.000	
33	   H	-0.460	-0.837	-3.550	 H	1	UNK0	0.000	
34	   H	1.078	0.635	-2.766	 H	1	UNK0	0.000	
35	   H	1.378	-1.224	-0.297	 H	1	UNK0	0.000	
36	   H	-0.515	-0.180	0.470	 H	1	UNK0	0.000	
37	   H	0.942	3.955	0.462	 H	1	UNK0	0.000	
38	   H	2.755	3.884	2.111	 H	1	UNK0	0.000	
39	   H	3.203	2.235	1.639	 H	1	UNK0	0.000	
40	   H	1.570	2.672	3.711	 H	1	UNK0	0.000	
41	   H	0.307	2.775	2.435	 H	1	UNK0	0.000	
42	   H	1.371	1.276	2.612	 H	1	UNK0	0.000	
43	   H	2.857	4.798	-0.638	 H	1	UNK0	0.000	
44	   H	2.692	3.288	-1.551	 H	1	UNK0	0.000	
45	   H	3.840	3.376	-0.176	 H	1	UNK0	0.000	
46	   H	1.975	-1.179	-4.091	 H	1	UNK0	0.000	
47	   H	3.193	-0.597	-2.954	 H	1	UNK0	0.000	
48	   H	3.659	-3.323	-3.980	 H	1	UNK0	0.000	
49	   H	3.798	-4.056	-2.360	 H	1	UNK0	0.000	
@<TRIPOS>BOND
1 1 2 1
2 2 3 2
3 2 7 1
4 3 4 1
5 4 5 2
6 4 11 1
7 5 6 1
8 5 8 1
9 6 7 2
10 8 9 1
11 9 10 2
12 9 11 1
13 11 12 1
14 11 15 1
15 12 13 1
16 13 14 1
17 13 25 1
18 14 15 1
19 14 19 1
20 15 16 1
21 16 17 2
22 16 18 1
23 18 19 1
24 18 21 1
25 19 20 2
26 21 22 1
27 21 24 1
28 22 23 1
29 25 26 1
30 26 27 2
31 26 28 1
32 3 29 1
33 6 30 1
34 7 31 1
35 8 32 1
36 12 33 1
37 13 34 1
38 14 35 1
39 15 36 1
40 21 37 1
41 22 38 1
42 22 39 1
43 23 40 1
44 23 41 1
45 23 42 1
46 24 43 1
47 24 44 1
48 24 45 1
49 25 46 1
50 25 47 1
51 28 48 1
52 28 49 1
@<TRIPOS>SUBSTRUCTURE
1	UNK0	1	GROUP	1 ****	UNK
