# created with PyMOL 2.3.2
@<TRIPOS>MOLECULE
579
47 50 1                 
SMALL
USER_CHARGES
@<TRIPOS>ATOM
1	  Br	5.998	-1.275	2.196	Br	1	UNK0	0.000	
2	   C	4.494	-2.021	1.291	C.2	1	UNK0	0.000	
3	   C	3.332	-1.317	1.066	C.2	1	UNK0	0.000	
4	   C	2.236	-1.868	0.403	C.2	1	UNK0	0.000	
5	   C	2.307	-3.163	-0.046	C.2	1	UNK0	0.000	
6	   C	3.463	-3.897	0.166	C.2	1	UNK0	0.000	
7	   C	4.549	-3.319	0.834	C.2	1	UNK0	0.000	
8	   N	1.086	-3.525	-0.698	N.pl3	1	UNK0	0.000	
9	   C	0.213	-2.409	-0.655	C.2	1	UNK0	0.000	
10	   O	-0.929	-2.414	-1.154	O.2	1	UNK0	0.000	
11	   C	0.891	-1.331	0.047	C.3	1	UNK0	0.000	
12	   N	1.015	-0.215	-0.890	N.3	1	UNK0	0.000	
13	   C	0.800	0.969	-0.113	C.3	1	UNK0	0.000	
14	   C	-0.248	0.571	0.861	C.3	1	UNK0	0.000	
15	   C	0.191	-0.816	1.269	C.3	1	UNK0	0.000	
16	   C	-1.042	-1.501	1.632	C.2	1	UNK0	0.000	
17	   O	-1.127	-2.548	2.309	O.2	1	UNK0	0.000	
18	   N	-2.127	-0.767	1.078	N.pl3	1	UNK0	0.000	
19	   C	-1.587	0.311	0.277	C.2	1	UNK0	0.000	
20	   O	-2.211	0.822	-0.667	O.2	1	UNK0	0.000	
21	   C	-3.510	-1.074	1.302	C.3	1	UNK0	0.000	
22	   C	-4.120	-2.026	0.328	C.3	1	UNK0	0.000	
23	   O	-3.501	-3.265	0.311	O.3	1	UNK0	0.000	
24	   C	-4.096	-4.125	-0.609	C.3	1	UNK0	0.000	
25	   C	0.491	2.177	-0.929	C.3	1	UNK0	0.000	
26	   C	1.604	2.460	-1.842	C.2	1	UNK0	0.000	
27	   O	2.621	1.710	-1.839	O.2	1	UNK0	0.000	
28	   N	1.554	3.571	-2.735	N.pl3	1	UNK0	0.000	
29	   H	3.310	-0.297	1.434	 H	1	UNK0	0.000	
30	   H	3.505	-4.915	-0.193	 H	1	UNK0	0.000	
31	   H	5.443	-3.909	0.990	 H	1	UNK0	0.000	
32	   H	0.897	-4.473	-1.128	 H	1	UNK0	0.000	
33	   H	0.261	-0.264	-1.616	 H	1	UNK0	0.000	
34	   H	1.713	1.223	0.492	 H	1	UNK0	0.000	
35	   H	-0.314	1.256	1.737	 H	1	UNK0	0.000	
36	   H	0.891	-0.675	2.125	 H	1	UNK0	0.000	
37	   H	-4.099	-0.131	1.233	 H	1	UNK0	0.000	
38	   H	-3.647	-1.533	2.318	 H	1	UNK0	0.000	
39	   H	-4.178	-1.613	-0.705	 H	1	UNK0	0.000	
40	   H	-5.170	-2.195	0.642	 H	1	UNK0	0.000	
41	   H	-3.522	-5.092	-0.542	 H	1	UNK0	0.000	
42	   H	-5.133	-4.374	-0.367	 H	1	UNK0	0.000	
43	   H	-3.948	-3.780	-1.657	 H	1	UNK0	0.000	
44	   H	-0.470	2.152	-1.463	 H	1	UNK0	0.000	
45	   H	0.422	3.045	-0.222	 H	1	UNK0	0.000	
46	   H	2.051	3.533	-3.648	 H	1	UNK0	0.000	
47	   H	1.016	4.420	-2.466	 H	1	UNK0	0.000	
@<TRIPOS>BOND
1 1 2 1
2 2 3 2
3 2 7 1
4 3 4 1
5 4 5 2
6 4 11 1
7 5 6 1
8 5 8 1
9 6 7 2
10 8 9 1
11 9 10 2
12 9 11 1
13 11 12 1
14 11 15 1
15 12 13 1
16 13 14 1
17 13 25 1
18 14 15 1
19 14 19 1
20 15 16 1
21 16 17 2
22 16 18 1
23 18 19 1
24 18 21 1
25 19 20 2
26 21 22 1
27 22 23 1
28 23 24 1
29 25 26 1
30 26 27 2
31 26 28 1
32 3 29 1
33 6 30 1
34 7 31 1
35 8 32 1
36 12 33 1
37 13 34 1
38 14 35 1
39 15 36 1
40 21 37 1
41 21 38 1
42 22 39 1
43 22 40 1
44 24 41 1
45 24 42 1
46 24 43 1
47 25 44 1
48 25 45 1
49 28 46 1
50 28 47 1
@<TRIPOS>SUBSTRUCTURE
1	UNK0	1	GROUP	1 ****	UNK
