# created with PyMOL 2.3.2
@<TRIPOS>MOLECULE
580
51 55 1                 
SMALL
USER_CHARGES
@<TRIPOS>ATOM
1	  Br	-4.092	2.193	-3.592	Br	1	UNK0	0.000	
2	   C	-3.810	1.393	-1.890	C.2	1	UNK0	0.000	
3	   C	-2.533	1.199	-1.417	C.2	1	UNK0	0.000	
4	   C	-2.299	0.613	-0.168	C.2	1	UNK0	0.000	
5	   C	-3.391	0.236	0.570	C.2	1	UNK0	0.000	
6	   C	-4.687	0.442	0.068	C.2	1	UNK0	0.000	
7	   C	-4.912	1.019	-1.160	C.2	1	UNK0	0.000	
8	   N	-2.946	-0.337	1.797	N.pl3	1	UNK0	0.000	
9	   C	-1.531	-0.319	1.830	C.2	1	UNK0	0.000	
10	   O	-0.850	-0.761	2.792	O.2	1	UNK0	0.000	
11	   C	-1.067	0.285	0.586	C.3	1	UNK0	0.000	
12	   N	-0.227	1.446	0.796	N.3	1	UNK0	0.000	
13	   C	0.824	1.428	-0.181	C.3	1	UNK0	0.000	
14	   C	1.048	0.028	-0.601	C.3	1	UNK0	0.000	
15	   C	-0.252	-0.663	-0.255	C.3	1	UNK0	0.000	
16	   C	0.150	-1.895	0.455	C.2	1	UNK0	0.000	
17	   O	-0.640	-2.687	1.012	O.2	1	UNK0	0.000	
18	   N	1.595	-2.008	0.387	N.pl3	1	UNK0	0.000	
19	   C	2.098	-0.716	0.090	C.2	1	UNK0	0.000	
20	   O	3.233	-0.308	0.375	O.2	1	UNK0	0.000	
21	   C	2.259	-3.272	0.582	C.3	1	UNK0	0.000	
22	   C	2.618	-3.620	1.975	C.3	1	UNK0	0.000	
23	   O	1.541	-3.663	2.851	O.3	1	UNK0	0.000	
24	   C	1.823	-2.842	3.932	C.3	1	UNK0	0.000	
25	   C	2.912	-1.879	3.492	C.3	1	UNK0	0.000	
26	   C	3.693	-2.801	2.571	C.3	1	UNK0	0.000	
27	   C	2.027	2.148	0.367	C.3	1	UNK0	0.000	
28	   O	1.586	3.465	0.645	O.3	1	UNK0	0.000	
29	   C	3.124	2.310	-0.657	C.3	1	UNK0	0.000	
30	   H	-1.653	1.484	-1.973	 H	1	UNK0	0.000	
31	   H	-5.536	0.138	0.665	 H	1	UNK0	0.000	
32	   H	-5.933	1.167	-1.524	 H	1	UNK0	0.000	
33	   H	-3.617	-0.702	2.533	 H	1	UNK0	0.000	
34	   H	0.176	1.378	1.759	 H	1	UNK0	0.000	
35	   H	0.486	2.038	-1.071	 H	1	UNK0	0.000	
36	   H	1.214	0.003	-1.712	 H	1	UNK0	0.000	
37	   H	-0.768	-0.942	-1.197	 H	1	UNK0	0.000	
38	   H	3.216	-3.280	-0.019	 H	1	UNK0	0.000	
39	   H	1.684	-4.126	0.154	 H	1	UNK0	0.000	
40	   H	2.973	-4.704	1.930	 H	1	UNK0	0.000	
41	   H	0.950	-2.239	4.228	 H	1	UNK0	0.000	
42	   H	2.189	-3.436	4.808	 H	1	UNK0	0.000	
43	   H	2.463	-1.055	2.941	 H	1	UNK0	0.000	
44	   H	3.534	-1.609	4.347	 H	1	UNK0	0.000	
45	   H	4.373	-3.467	3.185	 H	1	UNK0	0.000	
46	   H	4.294	-2.270	1.834	 H	1	UNK0	0.000	
47	   H	2.360	1.725	1.323	 H	1	UNK0	0.000	
48	   H	1.245	3.792	-0.247	 H	1	UNK0	0.000	
49	   H	3.130	3.340	-1.124	 H	1	UNK0	0.000	
50	   H	4.143	2.206	-0.230	 H	1	UNK0	0.000	
51	   H	2.958	1.637	-1.535	 H	1	UNK0	0.000	
@<TRIPOS>BOND
1 1 2 1
2 2 3 2
3 2 7 1
4 3 4 1
5 4 5 2
6 4 11 1
7 5 6 1
8 5 8 1
9 6 7 2
10 8 9 1
11 9 10 2
12 9 11 1
13 11 12 1
14 11 15 1
15 12 13 1
16 13 14 1
17 13 27 1
18 14 15 1
19 14 19 1
20 15 16 1
21 16 17 2
22 16 18 1
23 18 19 1
24 18 21 1
25 19 20 2
26 21 22 1
27 22 23 1
28 22 26 1
29 23 24 1
30 24 25 1
31 25 26 1
32 27 28 1
33 27 29 1
34 3 30 1
35 6 31 1
36 7 32 1
37 8 33 1
38 12 34 1
39 13 35 1
40 14 36 1
41 15 37 1
42 21 38 1
43 21 39 1
44 22 40 1
45 24 41 1
46 24 42 1
47 25 43 1
48 25 44 1
49 26 45 1
50 26 46 1
51 27 47 1
52 28 48 1
53 29 49 1
54 29 50 1
55 29 51 1
@<TRIPOS>SUBSTRUCTURE
1	UNK0	1	GROUP	1 ****	UNK
