# created with PyMOL 2.3.2
@<TRIPOS>MOLECULE
581
47 51 1                 
SMALL
USER_CHARGES
@<TRIPOS>ATOM
1	  Br	-1.002	-4.507	0.381	Br	1	UNK0	0.000	
2	   C	0.570	-3.654	1.036	C.2	1	UNK0	0.000	
3	   C	0.749	-2.326	0.832	C.2	1	UNK0	0.000	
4	   C	1.857	-1.587	1.262	C.2	1	UNK0	0.000	
5	   C	2.796	-2.327	1.939	C.2	1	UNK0	0.000	
6	   C	2.646	-3.708	2.171	C.2	1	UNK0	0.000	
7	   C	1.526	-4.354	1.712	C.2	1	UNK0	0.000	
8	   N	3.864	-1.500	2.374	N.pl3	1	UNK0	0.000	
9	   C	3.565	-0.198	1.949	C.2	1	UNK0	0.000	
10	   O	4.291	0.804	2.220	O.2	1	UNK0	0.000	
11	   C	2.312	-0.227	1.171	C.3	1	UNK0	0.000	
12	   N	2.713	0.133	-0.178	N.3	1	UNK0	0.000	
13	   C	2.712	1.583	-0.166	C.3	1	UNK0	0.000	
14	   C	1.563	1.991	0.671	C.3	1	UNK0	0.000	
15	   C	1.409	0.845	1.650	C.3	1	UNK0	0.000	
16	   C	-0.004	0.561	1.748	C.2	1	UNK0	0.000	
17	   O	-0.530	-0.268	2.536	O.2	1	UNK0	0.000	
18	   N	-0.709	1.363	0.818	N.pl3	1	UNK0	0.000	
19	   C	0.257	2.067	0.006	C.2	1	UNK0	0.000	
20	   O	-0.112	2.605	-1.069	O.2	1	UNK0	0.000	
21	   C	-2.155	1.442	0.723	C.3	1	UNK0	0.000	
22	   C	-2.700	0.403	-0.236	C.3	1	UNK0	0.000	
23	   O	-4.088	0.509	-0.301	O.3	1	UNK0	0.000	
24	   C	-4.646	-0.416	-1.163	C.3	1	UNK0	0.000	
25	   C	2.655	1.904	-1.617	C.3	1	UNK0	0.000	
26	   C	2.375	0.610	-2.374	C.3	1	UNK0	0.000	
27	   C	1.844	-0.279	-1.222	C.3	1	UNK0	0.000	
28	   H	-0.002	-1.775	0.308	 H	1	UNK0	0.000	
29	   H	3.385	-4.290	2.702	 H	1	UNK0	0.000	
30	   H	1.363	-5.417	1.864	 H	1	UNK0	0.000	
31	   H	4.723	-1.834	2.922	 H	1	UNK0	0.000	
32	   H	3.645	1.941	0.317	 H	1	UNK0	0.000	
33	   H	1.827	2.939	1.201	 H	1	UNK0	0.000	
34	   H	1.785	1.232	2.645	 H	1	UNK0	0.000	
35	   H	-2.503	2.442	0.411	 H	1	UNK0	0.000	
36	   H	-2.595	1.227	1.729	 H	1	UNK0	0.000	
37	   H	-2.287	0.533	-1.250	 H	1	UNK0	0.000	
38	   H	-2.460	-0.618	0.087	 H	1	UNK0	0.000	
39	   H	-5.732	-0.284	-1.171	 H	1	UNK0	0.000	
40	   H	-4.396	-1.430	-0.740	 H	1	UNK0	0.000	
41	   H	-4.235	-0.367	-2.191	 H	1	UNK0	0.000	
42	   H	3.706	2.197	-1.919	 H	1	UNK0	0.000	
43	   H	2.038	2.743	-1.920	 H	1	UNK0	0.000	
44	   H	3.318	0.120	-2.688	 H	1	UNK0	0.000	
45	   H	1.632	0.726	-3.164	 H	1	UNK0	0.000	
46	   H	1.954	-1.339	-1.464	 H	1	UNK0	0.000	
47	   H	0.767	-0.067	-1.073	 H	1	UNK0	0.000	
@<TRIPOS>BOND
1 1 2 1
2 2 3 2
3 2 7 1
4 3 4 1
5 4 5 2
6 4 11 1
7 5 6 1
8 5 8 1
9 6 7 2
10 8 9 1
11 9 10 2
12 9 11 1
13 11 12 1
14 11 15 1
15 12 13 1
16 12 27 1
17 13 14 1
18 13 25 1
19 14 15 1
20 14 19 1
21 15 16 1
22 16 17 2
23 16 18 1
24 18 19 1
25 18 21 1
26 19 20 2
27 21 22 1
28 22 23 1
29 23 24 1
30 25 26 1
31 26 27 1
32 3 28 1
33 6 29 1
34 7 30 1
35 8 31 1
36 13 32 1
37 14 33 1
38 15 34 1
39 21 35 1
40 21 36 1
41 22 37 1
42 22 38 1
43 24 39 1
44 24 40 1
45 24 41 1
46 25 42 1
47 25 43 1
48 26 44 1
49 26 45 1
50 27 46 1
51 27 47 1
@<TRIPOS>SUBSTRUCTURE
1	UNK0	1	GROUP	1 ****	UNK
