# created with PyMOL 2.3.2
@<TRIPOS>MOLECULE
586
45 48 1                 
SMALL
USER_CHARGES
@<TRIPOS>ATOM
1	  Br	4.789	-0.376	3.633	Br	1	UNK0	0.000	
2	   C	2.949	0.028	3.262	C.2	1	UNK0	0.000	
3	   C	2.595	1.434	3.359	C.2	1	UNK0	0.000	
4	   C	1.348	1.726	2.833	C.2	1	UNK0	0.000	
5	   C	0.544	0.818	2.208	C.2	1	UNK0	0.000	
6	   C	0.908	-0.472	2.102	C.2	1	UNK0	0.000	
7	   C	2.169	-0.856	2.676	C.2	1	UNK0	0.000	
8	   N	-0.654	1.300	1.557	N.pl3	1	UNK0	0.000	
9	   C	-0.604	2.677	1.041	C.3	1	UNK0	0.000	
10	   N	-0.316	3.477	2.186	N.pl3	1	UNK0	0.000	
11	   C	0.901	3.163	2.846	C.2	1	UNK0	0.000	
12	   O	1.638	3.979	3.430	O.2	1	UNK0	0.000	
13	   C	0.590	2.789	0.044	C.3	1	UNK0	0.000	
14	   C	0.395	1.756	-1.111	C.3	1	UNK0	0.000	
15	   N	-0.908	1.334	-0.960	N.3	1	UNK0	0.000	
16	   C	-1.968	2.270	-0.954	C.3	1	UNK0	0.000	
17	   C	-1.853	3.048	0.346	C.3	1	UNK0	0.000	
18	   C	-1.335	0.107	-1.077	C.3	1	UNK0	0.000	
19	   C	-1.824	-1.293	-1.307	C.2	1	UNK0	0.000	
20	   O	-2.110	-1.707	-2.247	O.2	1	UNK0	0.000	
21	   N	-1.730	-1.887	0.140	N.pl3	1	UNK0	0.000	
22	   C	-1.591	-3.339	-0.032	C.3	1	UNK0	0.000	
23	   C	-1.511	-4.265	-1.164	C.3	1	UNK0	0.000	
24	   C	-0.256	-3.499	-0.934	C.3	1	UNK0	0.000	
25	   H	3.230	2.105	3.788	 H	1	UNK0	0.000	
26	   H	0.304	-1.228	1.772	 H	1	UNK0	0.000	
27	   H	2.396	-1.914	2.538	 H	1	UNK0	0.000	
28	   H	-1.448	0.701	1.558	 H	1	UNK0	0.000	
29	   H	-0.957	4.188	2.497	 H	1	UNK0	0.000	
30	   H	1.508	2.614	0.586	 H	1	UNK0	0.000	
31	   H	0.565	3.810	-0.453	 H	1	UNK0	0.000	
32	   H	1.047	0.944	-0.787	 H	1	UNK0	0.000	
33	   H	0.658	2.176	-2.027	 H	1	UNK0	0.000	
34	   H	-2.888	1.649	-0.882	 H	1	UNK0	0.000	
35	   H	-2.099	3.009	-1.803	 H	1	UNK0	0.000	
36	   H	-1.770	4.154	0.019	 H	1	UNK0	0.000	
37	   H	-2.778	2.991	0.924	 H	1	UNK0	0.000	
38	   H	-0.106	-0.436	-0.729	 H	1	UNK0	0.000	
39	   H	-0.690	-0.060	-2.306	 H	1	UNK0	0.000	
40	   H	-1.974	-1.312	0.806	 H	1	UNK0	0.000	
41	   H	-1.212	-3.786	0.985	 H	1	UNK0	0.000	
42	   H	-2.202	-4.013	-2.023	 H	1	UNK0	0.000	
43	   H	-1.397	-5.381	-0.974	 H	1	UNK0	0.000	
44	   H	0.578	-4.032	-0.551	 H	1	UNK0	0.000	
45	   H	-0.016	-2.804	-1.753	 H	1	UNK0	0.000	
@<TRIPOS>BOND
1 1 2 1
2 2 3 2
3 2 7 1
4 3 4 1
5 4 5 2
6 4 11 1
7 5 6 1
8 5 8 1
9 6 7 2
10 8 9 1
11 9 10 1
12 9 13 1
13 9 17 1
14 10 11 1
15 11 12 2
16 13 14 1
17 14 15 1
18 15 16 1
19 15 18 1
20 16 17 1
21 18 19 1
22 19 20 2
23 19 21 1
24 21 22 1
25 22 23 1
26 22 24 1
27 23 24 1
28 3 25 1
29 6 26 1
30 7 27 1
31 8 28 1
32 10 29 1
33 13 30 1
34 13 31 1
35 14 32 1
36 14 33 1
37 16 34 1
38 16 35 1
39 17 36 1
40 17 37 1
41 18 38 1
42 18 39 1
43 21 40 1
44 22 41 1
45 23 42 1
46 23 43 1
47 24 44 1
48 24 45 1
@<TRIPOS>SUBSTRUCTURE
1	UNK0	1	GROUP	1 ****	UNK
