# created with PyMOL 2.3.2
@<TRIPOS>MOLECULE
587
49 52 1                 
SMALL
USER_CHARGES
@<TRIPOS>ATOM
1	  Br	-5.861	-4.575	-0.106	Br	1	UNK0	0.000	
2	   C	-4.781	-3.022	0.121	C.2	1	UNK0	0.000	
3	   C	-5.227	-1.813	-0.348	C.2	1	UNK0	0.000	
4	   C	-4.441	-0.689	-0.182	C.2	1	UNK0	0.000	
5	   C	-3.198	-0.773	0.458	C.2	1	UNK0	0.000	
6	   C	-2.784	-2.006	0.916	C.2	1	UNK0	0.000	
7	   C	-3.564	-3.114	0.750	C.2	1	UNK0	0.000	
8	   N	-2.413	0.408	0.611	N.pl3	1	UNK0	0.000	
9	   C	-2.582	1.491	-0.331	C.3	1	UNK0	0.000	
10	   N	-3.991	1.741	-0.444	N.pl3	1	UNK0	0.000	
11	   C	-4.848	0.628	-0.651	C.2	1	UNK0	0.000	
12	   O	-5.960	0.711	-1.225	O.2	1	UNK0	0.000	
13	   C	-2.074	1.125	-1.710	C.3	1	UNK0	0.000	
14	   C	-1.115	2.149	-2.239	C.3	1	UNK0	0.000	
15	   N	0.030	2.241	-1.369	N.3	1	UNK0	0.000	
16	   C	-0.330	2.336	0.009	C.3	1	UNK0	0.000	
17	   C	-1.801	2.677	0.147	C.3	1	UNK0	0.000	
18	   C	0.940	1.186	-1.680	C.3	1	UNK0	0.000	
19	   C	2.153	1.163	-0.866	C.2	1	UNK0	0.000	
20	   O	2.320	2.034	0.020	O.2	1	UNK0	0.000	
21	   N	3.157	0.185	-1.044	N.pl3	1	UNK0	0.000	
22	   C	3.072	-0.873	-2.040	C.3	1	UNK0	0.000	
23	   C	4.417	-1.470	-2.276	C.3	1	UNK0	0.000	
24	   O	5.130	-1.799	-1.162	O.3	1	UNK0	0.000	
25	   C	4.681	-1.283	0.024	C.3	1	UNK0	0.000	
26	   C	4.347	0.191	-0.219	C.3	1	UNK0	0.000	
27	   H	-6.175	-1.670	-0.853	 H	1	UNK0	0.000	
28	   H	-1.803	-2.044	1.416	 H	1	UNK0	0.000	
29	   H	-3.234	-4.075	1.110	 H	1	UNK0	0.000	
30	   H	-1.746	0.426	1.408	 H	1	UNK0	0.000	
31	   H	-4.428	2.688	-0.384	 H	1	UNK0	0.000	
32	   H	-1.557	0.165	-1.633	 H	1	UNK0	0.000	
33	   H	-2.911	1.012	-2.447	 H	1	UNK0	0.000	
34	   H	-0.741	1.795	-3.225	 H	1	UNK0	0.000	
35	   H	-1.589	3.132	-2.433	 H	1	UNK0	0.000	
36	   H	-0.175	1.368	0.518	 H	1	UNK0	0.000	
37	   H	0.305	3.082	0.564	 H	1	UNK0	0.000	
38	   H	-2.048	3.610	-0.400	 H	1	UNK0	0.000	
39	   H	-2.036	2.907	1.226	 H	1	UNK0	0.000	
40	   H	1.264	1.307	-2.750	 H	1	UNK0	0.000	
41	   H	0.482	0.169	-1.642	 H	1	UNK0	0.000	
42	   H	2.723	-0.439	-3.015	 H	1	UNK0	0.000	
43	   H	2.355	-1.665	-1.745	 H	1	UNK0	0.000	
44	   H	5.065	-0.837	-2.937	 H	1	UNK0	0.000	
45	   H	4.270	-2.417	-2.873	 H	1	UNK0	0.000	
46	   H	3.764	-1.856	0.317	 H	1	UNK0	0.000	
47	   H	5.491	-1.378	0.787	 H	1	UNK0	0.000	
48	   H	5.207	0.605	-0.779	 H	1	UNK0	0.000	
49	   H	4.195	0.741	0.727	 H	1	UNK0	0.000	
@<TRIPOS>BOND
1 1 2 1
2 2 3 2
3 2 7 1
4 3 4 1
5 4 5 2
6 4 11 1
7 5 6 1
8 5 8 1
9 6 7 2
10 8 9 1
11 9 10 1
12 9 13 1
13 9 17 1
14 10 11 1
15 11 12 2
16 13 14 1
17 14 15 1
18 15 16 1
19 15 18 1
20 16 17 1
21 18 19 1
22 19 20 2
23 19 21 1
24 21 22 1
25 21 26 1
26 22 23 1
27 23 24 1
28 24 25 1
29 25 26 1
30 3 27 1
31 6 28 1
32 7 29 1
33 8 30 1
34 10 31 1
35 13 32 1
36 13 33 1
37 14 34 1
38 14 35 1
39 16 36 1
40 16 37 1
41 17 38 1
42 17 39 1
43 18 40 1
44 18 41 1
45 22 42 1
46 22 43 1
47 23 44 1
48 23 45 1
49 25 46 1
50 25 47 1
51 26 48 1
52 26 49 1
@<TRIPOS>SUBSTRUCTURE
1	UNK0	1	GROUP	1 ****	UNK
