# created with PyMOL 2.3.2
@<TRIPOS>MOLECULE
588
39 42 1                 
SMALL
USER_CHARGES
@<TRIPOS>ATOM
1	  Br	4.243	-4.413	0.103	Br	1	UNK0	0.000	
2	   C	3.066	-3.151	0.911	C.2	1	UNK0	0.000	
3	   C	2.012	-2.687	0.179	C.2	1	UNK0	0.000	
4	   C	1.141	-1.769	0.741	C.2	1	UNK0	0.000	
5	   C	1.337	-1.322	2.042	C.2	1	UNK0	0.000	
6	   C	2.398	-1.782	2.795	C.2	1	UNK0	0.000	
7	   C	3.238	-2.693	2.195	C.2	1	UNK0	0.000	
8	   N	0.516	-0.391	2.718	N.pl3	1	UNK0	0.000	
9	   N	0.483	-0.343	4.055	N.2	1	UNK0	0.000	
10	   N	-0.358	0.608	4.359	N.2	1	UNK0	0.000	
11	   N	-0.852	1.157	3.261	N.2	1	UNK0	0.000	
12	   C	-0.291	0.516	2.195	C.2	1	UNK0	0.000	
13	   C	-0.632	0.891	0.779	C.3	1	UNK0	0.000	
14	   N	-0.802	-0.303	-0.045	N.pl3	1	UNK0	0.000	
15	   C	0.084	-1.404	-0.210	C.2	1	UNK0	0.000	
16	   O	-0.043	-2.119	-1.243	O.2	1	UNK0	0.000	
17	   C	0.575	1.607	0.236	C.3	1	UNK0	0.000	
18	   C	0.182	2.437	-0.942	C.3	1	UNK0	0.000	
19	   O	-0.700	3.385	-0.495	O.3	1	UNK0	0.000	
20	   C	-1.904	2.910	-0.050	C.3	1	UNK0	0.000	
21	   C	-1.882	1.692	0.769	C.3	1	UNK0	0.000	
22	   C	1.413	3.188	-1.465	C.3	1	UNK0	0.000	
23	   C	-0.340	1.628	-2.099	C.3	1	UNK0	0.000	
24	   H	1.806	-2.997	-0.839	 H	1	UNK0	0.000	
25	   H	2.518	-1.411	3.803	 H	1	UNK0	0.000	
26	   H	4.070	-3.060	2.771	 H	1	UNK0	0.000	
27	   H	-1.704	-0.378	-0.606	 H	1	UNK0	0.000	
28	   H	1.311	0.838	-0.093	 H	1	UNK0	0.000	
29	   H	1.020	2.286	0.993	 H	1	UNK0	0.000	
30	   H	-2.556	2.783	-0.966	 H	1	UNK0	0.000	
31	   H	-2.401	3.766	0.499	 H	1	UNK0	0.000	
32	   H	-2.181	1.959	1.827	 H	1	UNK0	0.000	
33	   H	-2.730	1.024	0.433	 H	1	UNK0	0.000	
34	   H	2.089	3.478	-0.645	 H	1	UNK0	0.000	
35	   H	1.136	3.993	-2.147	 H	1	UNK0	0.000	
36	   H	1.974	2.425	-2.078	 H	1	UNK0	0.000	
37	   H	-0.137	2.212	-3.045	 H	1	UNK0	0.000	
38	   H	-1.439	1.494	-2.083	 H	1	UNK0	0.000	
39	   H	0.206	0.683	-2.219	 H	1	UNK0	0.000	
@<TRIPOS>BOND
1 1 2 1
2 2 3 2
3 2 7 1
4 3 4 1
5 4 5 2
6 4 15 1
7 5 6 1
8 5 8 1
9 6 7 2
10 8 9 1
11 8 12 1
12 9 10 2
13 10 11 1
14 11 12 2
15 12 13 1
16 13 14 1
17 13 17 1
18 13 21 1
19 14 15 1
20 15 16 2
21 17 18 1
22 18 19 1
23 18 22 1
24 18 23 1
25 19 20 1
26 20 21 1
27 3 24 1
28 6 25 1
29 7 26 1
30 14 27 1
31 17 28 1
32 17 29 1
33 20 30 1
34 20 31 1
35 21 32 1
36 21 33 1
37 22 34 1
38 22 35 1
39 22 36 1
40 23 37 1
41 23 38 1
42 23 39 1
@<TRIPOS>SUBSTRUCTURE
1	UNK0	1	GROUP	1 ****	UNK
