# created with PyMOL 2.3.2
@<TRIPOS>MOLECULE
589
43 46 1                 
SMALL
USER_CHARGES
@<TRIPOS>ATOM
1	  Br	4.714	-4.293	-3.626	Br	1	UNK0	0.000	
2	   C	3.071	-3.341	-3.432	C.2	1	UNK0	0.000	
3	   C	2.388	-3.438	-2.245	C.2	1	UNK0	0.000	
4	   C	1.204	-2.754	-2.102	C.2	1	UNK0	0.000	
5	   C	0.702	-1.969	-3.150	C.2	1	UNK0	0.000	
6	   C	1.376	-1.867	-4.335	C.2	1	UNK0	0.000	
7	   C	2.565	-2.561	-4.463	C.2	1	UNK0	0.000	
8	   N	-0.528	-1.215	-3.105	N.pl3	1	UNK0	0.000	
9	   N	-1.156	-0.919	-4.249	N.2	1	UNK0	0.000	
10	   N	-2.229	-0.240	-3.890	N.2	1	UNK0	0.000	
11	   N	-2.279	-0.112	-2.576	N.2	1	UNK0	0.000	
12	   C	-1.201	-0.728	-2.055	C.2	1	UNK0	0.000	
13	   C	-0.851	-0.827	-0.623	C.3	1	UNK0	0.000	
14	   N	-0.509	-2.179	-0.240	N.pl3	1	UNK0	0.000	
15	   C	0.578	-2.947	-0.780	C.2	1	UNK0	0.000	
16	   O	1.056	-3.871	-0.083	O.2	1	UNK0	0.000	
17	   C	0.362	0.084	-0.414	C.3	1	UNK0	0.000	
18	   C	-0.152	1.402	0.080	C.3	1	UNK0	0.000	
19	   N	-0.549	1.271	1.446	N.3	1	UNK0	0.000	
20	   C	-1.408	0.128	1.582	C.3	1	UNK0	0.000	
21	   C	-1.980	-0.333	0.255	C.3	1	UNK0	0.000	
22	   C	0.509	1.185	2.389	C.3	1	UNK0	0.000	
23	   C	1.393	2.401	2.455	C.3	1	UNK0	0.000	
24	   C	-0.121	0.957	3.768	C.3	1	UNK0	0.000	
25	   H	2.748	-4.027	-1.436	 H	1	UNK0	0.000	
26	   H	0.956	-1.256	-5.109	 H	1	UNK0	0.000	
27	   H	3.113	-2.497	-5.384	 H	1	UNK0	0.000	
28	   H	-1.077	-2.672	0.492	 H	1	UNK0	0.000	
29	   H	1.031	-0.431	0.280	 H	1	UNK0	0.000	
30	   H	0.875	0.293	-1.399	 H	1	UNK0	0.000	
31	   H	0.554	2.237	-0.099	 H	1	UNK0	0.000	
32	   H	-1.073	1.668	-0.511	 H	1	UNK0	0.000	
33	   H	-0.814	-0.751	1.966	 H	1	UNK0	0.000	
34	   H	-2.217	0.291	2.310	 H	1	UNK0	0.000	
35	   H	-2.605	-1.230	0.488	 H	1	UNK0	0.000	
36	   H	-2.637	0.394	-0.224	 H	1	UNK0	0.000	
37	   H	1.107	0.273	2.192	 H	1	UNK0	0.000	
38	   H	2.336	2.279	1.854	 H	1	UNK0	0.000	
39	   H	0.880	3.334	2.216	 H	1	UNK0	0.000	
40	   H	1.743	2.482	3.517	 H	1	UNK0	0.000	
41	   H	-0.824	1.763	4.019	 H	1	UNK0	0.000	
42	   H	-0.536	-0.058	3.864	 H	1	UNK0	0.000	
43	   H	0.749	1.030	4.485	 H	1	UNK0	0.000	
@<TRIPOS>BOND
1 1 2 1
2 2 3 2
3 2 7 1
4 3 4 1
5 4 5 2
6 4 15 1
7 5 6 1
8 5 8 1
9 6 7 2
10 8 9 1
11 8 12 1
12 9 10 2
13 10 11 1
14 11 12 2
15 12 13 1
16 13 14 1
17 13 17 1
18 13 21 1
19 14 15 1
20 15 16 2
21 17 18 1
22 18 19 1
23 19 20 1
24 19 22 1
25 20 21 1
26 22 23 1
27 22 24 1
28 3 25 1
29 6 26 1
30 7 27 1
31 14 28 1
32 17 29 1
33 17 30 1
34 18 31 1
35 18 32 1
36 20 33 1
37 20 34 1
38 21 35 1
39 21 36 1
40 22 37 1
41 23 38 1
42 23 39 1
43 23 40 1
44 24 41 1
45 24 42 1
46 24 43 1
@<TRIPOS>SUBSTRUCTURE
1	UNK0	1	GROUP	1 ****	UNK
