# created with PyMOL 2.3.2
@<TRIPOS>MOLECULE
590
40 43 1                 
SMALL
USER_CHARGES
@<TRIPOS>ATOM
1	  Br	1.203	0.154	6.367	Br	1	UNK0	0.000	
2	   C	0.250	0.245	4.735	C.2	1	UNK0	0.000	
3	   C	0.582	1.223	3.823	C.2	1	UNK0	0.000	
4	   C	-0.143	1.243	2.652	C.2	1	UNK0	0.000	
5	   C	-1.163	0.318	2.401	C.2	1	UNK0	0.000	
6	   C	-1.469	-0.637	3.319	C.2	1	UNK0	0.000	
7	   C	-0.750	-0.676	4.511	C.2	1	UNK0	0.000	
8	   N	-1.996	0.208	1.243	N.pl3	1	UNK0	0.000	
9	   N	-3.214	-0.306	1.249	N.2	1	UNK0	0.000	
10	   N	-3.695	-0.235	0.003	N.2	1	UNK0	0.000	
11	   N	-2.767	0.321	-0.752	N.2	1	UNK0	0.000	
12	   C	-1.678	0.618	-0.020	C.2	1	UNK0	0.000	
13	   C	-0.419	1.254	-0.513	C.3	1	UNK0	0.000	
14	   N	-0.024	2.382	0.314	N.pl3	1	UNK0	0.000	
15	   C	0.248	2.308	1.706	C.2	1	UNK0	0.000	
16	   O	0.894	3.227	2.255	O.2	1	UNK0	0.000	
17	   C	0.762	0.269	-0.452	C.3	1	UNK0	0.000	
18	   C	0.255	-1.053	-0.927	C.3	1	UNK0	0.000	
19	   N	-0.692	-0.853	-1.979	N.3	1	UNK0	0.000	
20	   C	-0.482	0.344	-2.764	C.3	1	UNK0	0.000	
21	   C	-0.597	1.613	-1.946	C.3	1	UNK0	0.000	
22	   C	-0.735	-2.014	-2.803	C.3	1	UNK0	0.000	
23	   C	-1.356	-3.128	-1.947	C.3	1	UNK0	0.000	
24	   H	1.350	1.961	3.953	 H	1	UNK0	0.000	
25	   H	-2.252	-1.327	3.101	 H	1	UNK0	0.000	
26	   H	-1.018	-1.443	5.213	 H	1	UNK0	0.000	
27	   H	0.073	3.306	-0.109	 H	1	UNK0	0.000	
28	   H	1.548	0.617	-1.160	 H	1	UNK0	0.000	
29	   H	1.178	0.241	0.577	 H	1	UNK0	0.000	
30	   H	-0.237	-1.548	-0.042	 H	1	UNK0	0.000	
31	   H	1.075	-1.723	-1.285	 H	1	UNK0	0.000	
32	   H	0.477	0.309	-3.329	 H	1	UNK0	0.000	
33	   H	-1.304	0.382	-3.512	 H	1	UNK0	0.000	
34	   H	0.182	2.350	-2.286	 H	1	UNK0	0.000	
35	   H	-1.563	2.148	-2.135	 H	1	UNK0	0.000	
36	   H	0.300	-2.334	-3.054	 H	1	UNK0	0.000	
37	   H	-1.368	-1.905	-3.715	 H	1	UNK0	0.000	
38	   H	-1.559	-4.036	-2.530	 H	1	UNK0	0.000	
39	   H	-2.257	-2.722	-1.424	 H	1	UNK0	0.000	
40	   H	-0.628	-3.369	-1.118	 H	1	UNK0	0.000	
@<TRIPOS>BOND
1 1 2 1
2 2 3 2
3 2 7 1
4 3 4 1
5 4 5 2
6 4 15 1
7 5 6 1
8 5 8 1
9 6 7 2
10 8 9 1
11 8 12 1
12 9 10 2
13 10 11 1
14 11 12 2
15 12 13 1
16 13 14 1
17 13 17 1
18 13 21 1
19 14 15 1
20 15 16 2
21 17 18 1
22 18 19 1
23 19 20 1
24 19 22 1
25 20 21 1
26 22 23 1
27 3 24 1
28 6 25 1
29 7 26 1
30 14 27 1
31 17 28 1
32 17 29 1
33 18 30 1
34 18 31 1
35 20 32 1
36 20 33 1
37 21 34 1
38 21 35 1
39 22 36 1
40 22 37 1
41 23 38 1
42 23 39 1
43 23 40 1
@<TRIPOS>SUBSTRUCTURE
1	UNK0	1	GROUP	1 ****	UNK
