# created with PyMOL 2.3.2
@<TRIPOS>MOLECULE
591
37 40 1                 
SMALL
USER_CHARGES
@<TRIPOS>ATOM
1	  Br	6.094	-0.047	3.945	Br	1	UNK0	0.000	
2	   C	4.868	0.071	2.472	C.2	1	UNK0	0.000	
3	   C	3.600	-0.460	2.575	C.2	1	UNK0	0.000	
4	   C	2.723	-0.372	1.514	C.2	1	UNK0	0.000	
5	   C	3.054	0.236	0.318	C.2	1	UNK0	0.000	
6	   C	4.339	0.766	0.231	C.2	1	UNK0	0.000	
7	   C	5.221	0.683	1.288	C.2	1	UNK0	0.000	
8	   N	2.287	0.409	-0.851	N.pl3	1	UNK0	0.000	
9	   N	2.801	0.775	-2.014	N.2	1	UNK0	0.000	
10	   N	1.810	0.843	-2.889	N.2	1	UNK0	0.000	
11	   N	0.692	0.524	-2.282	N.2	1	UNK0	0.000	
12	   C	0.955	0.241	-0.982	C.2	1	UNK0	0.000	
13	   C	-0.123	-0.146	-0.070	C.3	1	UNK0	0.000	
14	   N	0.233	-0.987	1.020	N.pl3	1	UNK0	0.000	
15	   C	1.423	-0.986	1.792	C.2	1	UNK0	0.000	
16	   O	1.424	-1.590	2.898	O.2	1	UNK0	0.000	
17	   C	-0.813	1.084	0.540	C.3	1	UNK0	0.000	
18	   C	-2.273	0.768	0.744	C.3	1	UNK0	0.000	
19	   N	-2.922	0.864	-0.544	N.3	1	UNK0	0.000	
20	   C	-2.154	0.128	-1.513	C.3	1	UNK0	0.000	
21	   C	-1.196	-0.856	-0.888	C.3	1	UNK0	0.000	
22	   C	-3.012	2.282	-0.889	C.3	1	UNK0	0.000	
23	   H	3.258	-0.955	3.478	 H	1	UNK0	0.000	
24	   H	4.604	1.243	-0.702	 H	1	UNK0	0.000	
25	   H	6.209	1.103	1.192	 H	1	UNK0	0.000	
26	   H	-0.479	-1.698	1.285	 H	1	UNK0	0.000	
27	   H	-0.392	1.290	1.562	 H	1	UNK0	0.000	
28	   H	-0.621	1.964	-0.068	 H	1	UNK0	0.000	
29	   H	-2.355	-0.267	1.112	 H	1	UNK0	0.000	
30	   H	-2.721	1.431	1.486	 H	1	UNK0	0.000	
31	   H	-1.665	0.837	-2.187	 H	1	UNK0	0.000	
32	   H	-2.868	-0.463	-2.120	 H	1	UNK0	0.000	
33	   H	-1.744	-1.606	-0.320	 H	1	UNK0	0.000	
34	   H	-0.676	-1.374	-1.722	 H	1	UNK0	0.000	
35	   H	-2.405	2.424	-1.811	 H	1	UNK0	0.000	
36	   H	-4.063	2.606	-1.039	 H	1	UNK0	0.000	
37	   H	-2.602	2.924	-0.072	 H	1	UNK0	0.000	
@<TRIPOS>BOND
1 1 2 1
2 2 3 2
3 2 7 1
4 3 4 1
5 4 5 2
6 4 15 1
7 5 6 1
8 5 8 1
9 6 7 2
10 8 9 1
11 8 12 1
12 9 10 2
13 10 11 1
14 11 12 2
15 12 13 1
16 13 14 1
17 13 17 1
18 13 21 1
19 14 15 1
20 15 16 2
21 17 18 1
22 18 19 1
23 19 20 1
24 19 22 1
25 20 21 1
26 3 23 1
27 6 24 1
28 7 25 1
29 14 26 1
30 17 27 1
31 17 28 1
32 18 29 1
33 18 30 1
34 20 31 1
35 20 32 1
36 21 33 1
37 21 34 1
38 22 35 1
39 22 36 1
40 22 37 1
@<TRIPOS>SUBSTRUCTURE
1	UNK0	1	GROUP	1 ****	UNK
