# created with PyMOL 2.3.2
@<TRIPOS>MOLECULE
593
50 52 1                 
SMALL
USER_CHARGES
@<TRIPOS>ATOM
1	  Br	4.272	3.904	2.952	Br	1	UNK0	0.000	
2	   C	3.835	2.973	1.346	C.2	1	UNK0	0.000	
3	   C	2.685	2.221	1.213	C.2	1	UNK0	0.000	
4	   C	2.401	1.561	0.037	C.2	1	UNK0	0.000	
5	   C	3.244	1.617	-1.061	C.2	1	UNK0	0.000	
6	   C	4.391	2.374	-0.915	C.2	1	UNK0	0.000	
7	   C	4.683	3.037	0.259	C.2	1	UNK0	0.000	
8	   O	2.989	0.996	-2.184	O.3	1	UNK0	0.000	
9	   C	1.907	0.255	-2.390	C.2	1	UNK0	0.000	
10	   C	1.028	0.159	-1.336	C.2	1	UNK0	0.000	
11	   C	1.263	0.806	-0.118	C.2	1	UNK0	0.000	
12	   N	0.398	0.672	0.826	N.pl3	1	UNK0	0.000	
13	   C	-0.807	-0.154	0.595	C.3	1	UNK0	0.000	
14	   C	-1.714	-0.104	1.796	C.3	1	UNK0	0.000	
15	   C	-2.929	-0.895	1.650	C.2	1	UNK0	0.000	
16	   C	-2.932	-2.222	2.049	C.2	1	UNK0	0.000	
17	   C	-4.069	-2.993	1.922	C.2	1	UNK0	0.000	
18	   C	-5.246	-2.476	1.394	C.2	1	UNK0	0.000	
19	   C	-5.241	-1.152	0.996	C.2	1	UNK0	0.000	
20	   C	-4.103	-0.380	1.123	C.2	1	UNK0	0.000	
21	   C	1.703	-0.406	-3.685	C.2	1	UNK0	0.000	
22	   C	2.655	-0.234	-4.665	C.2	1	UNK0	0.000	
23	   C	2.517	-0.830	-5.901	C.2	1	UNK0	0.000	
24	   C	1.419	-1.614	-6.185	C.2	1	UNK0	0.000	
25	   C	0.450	-1.799	-5.215	C.2	1	UNK0	0.000	
26	   C	0.623	-1.187	-3.991	C.2	1	UNK0	0.000	
27	  Cl	-0.986	0.891	-1.339	Cl	1	UNK0	0.000	
28	   O	-2.638	0.457	-1.354	 O	1	UNK0	0.000	
29	   O	-0.667	2.117	-0.217	 O	1	UNK0	0.000	
30	   O	-0.499	1.358	-2.910	 O	1	UNK0	0.000	
31	   O	-0.114	-0.518	-0.924	 O	1	UNK0	0.000	
32	   H	2.044	2.189	2.075	 H	1	UNK0	0.000	
33	   H	5.059	2.421	-1.778	 H	1	UNK0	0.000	
34	   H	5.590	3.629	0.360	 H	1	UNK0	0.000	
35	   H	0.142	-0.437	-1.476	 H	1	UNK0	0.000	
36	   H	0.559	1.138	1.714	 H	1	UNK0	0.000	
37	   H	-1.319	0.306	-0.273	 H	1	UNK0	0.000	
38	   H	-0.508	-1.169	0.306	 H	1	UNK0	0.000	
39	   H	-1.106	-0.483	2.668	 H	1	UNK0	0.000	
40	   H	-1.947	0.948	2.013	 H	1	UNK0	0.000	
41	   H	-2.008	-2.644	2.469	 H	1	UNK0	0.000	
42	   H	-4.065	-4.024	2.235	 H	1	UNK0	0.000	
43	   H	-6.142	-3.077	1.291	 H	1	UNK0	0.000	
44	   H	-6.132	-0.672	0.569	 H	1	UNK0	0.000	
45	   H	-4.066	0.668	0.819	 H	1	UNK0	0.000	
46	   H	3.518	0.380	-4.447	 H	1	UNK0	0.000	
47	   H	3.261	-0.701	-6.678	 H	1	UNK0	0.000	
48	   H	1.266	-2.104	-7.144	 H	1	UNK0	0.000	
49	   H	-0.434	-2.406	-5.384	 H	1	UNK0	0.000	
50	   H	-0.137	-1.339	-3.245	 H	1	UNK0	0.000	
@<TRIPOS>BOND
1 1 2 1
2 2 3 2
3 2 7 1
4 3 4 1
5 4 5 2
6 4 11 1
7 5 6 1
8 5 8 1
9 6 7 2
10 8 9 1
11 9 10 2
12 9 21 1
13 10 11 1
14 11 12 2
15 12 13 1
16 13 14 1
17 14 15 1
18 15 16 2
19 15 20 1
20 16 17 1
21 17 18 2
22 18 19 1
23 19 20 2
24 21 22 2
25 21 26 1
26 22 23 1
27 23 24 2
28 24 25 1
29 25 26 2
30 27 28 1
31 27 29 1
32 27 30 1
33 27 31 1
34 3 32 1
35 6 33 1
36 7 34 1
37 10 35 1
38 12 36 1
39 13 37 1
40 13 38 1
41 14 39 1
42 14 40 1
43 16 41 1
44 17 42 1
45 18 43 1
46 19 44 1
47 20 45 1
48 22 46 1
49 23 47 1
50 24 48 1
51 25 49 1
52 26 50 1
@<TRIPOS>SUBSTRUCTURE
1	UNK0	1	GROUP	1 ****	UNK
