# created with PyMOL 2.3.2
@<TRIPOS>MOLECULE
594
38 41 1                 
SMALL
USER_CHARGES
@<TRIPOS>ATOM
1	  Br	1.290	7.984	3.350	Br	1	UNK0	0.000	
2	   C	2.021	6.302	2.807	C.2	1	UNK0	0.000	
3	   C	1.251	5.138	2.818	C.2	1	UNK0	0.000	
4	   C	1.776	3.943	2.419	C.2	1	UNK0	0.000	
5	   C	3.089	3.905	2.004	C.2	1	UNK0	0.000	
6	   C	3.886	5.062	1.985	C.2	1	UNK0	0.000	
7	   C	3.339	6.249	2.388	C.2	1	UNK0	0.000	
8	   O	3.609	2.773	1.612	O.3	1	UNK0	0.000	
9	   C	2.947	1.630	1.581	C.2	1	UNK0	0.000	
10	   O	3.521	0.574	1.196	O.co2	1	UNK0	0.000	
11	   C	1.620	1.574	1.972	C.2	1	UNK0	0.000	
12	   C	1.038	2.743	2.396	C.2	1	UNK0	0.000	
13	   C	0.823	0.339	1.794	C.2	1	UNK0	0.000	
14	   O	-0.155	0.042	2.493	O.2	1	UNK0	0.000	
15	   N	1.169	-0.583	0.755	N.pl3	1	UNK0	0.000	
16	   N	0.443	-1.772	0.564	N.pl3	1	UNK0	0.000	
17	   C	-0.424	-1.972	-0.525	C.2	1	UNK0	0.000	
18	   O	-0.544	-1.029	-1.346	O.2	1	UNK0	0.000	
19	   C	-1.175	-3.193	-0.745	C.2	1	UNK0	0.000	
20	   C	-2.473	-3.149	-1.273	C.2	1	UNK0	0.000	
21	   C	-3.180	-4.305	-1.513	C.2	1	UNK0	0.000	
22	   C	-2.654	-5.554	-1.251	C.2	1	UNK0	0.000	
23	   C	-1.380	-5.618	-0.732	C.2	1	UNK0	0.000	
24	   C	-0.662	-4.439	-0.488	C.2	1	UNK0	0.000	
25	   O	-3.623	-6.517	-1.609	O.3	1	UNK0	0.000	
26	   C	-4.411	-5.876	-2.627	C.3	1	UNK0	0.000	
27	   O	-4.474	-4.558	-2.026	O.3	1	UNK0	0.000	
28	   H	0.201	5.167	3.149	 H	1	UNK0	0.000	
29	   H	4.917	5.038	1.659	 H	1	UNK0	0.000	
30	   H	3.940	7.169	2.375	 H	1	UNK0	0.000	
31	   H	0.017	2.747	2.712	 H	1	UNK0	0.000	
32	   H	1.939	-0.424	0.089	 H	1	UNK0	0.000	
33	   H	0.567	-2.526	1.265	 H	1	UNK0	0.000	
34	   H	-2.881	-2.171	-1.471	 H	1	UNK0	0.000	
35	   H	-0.970	-6.586	-0.526	 H	1	UNK0	0.000	
36	   H	0.342	-4.489	-0.081	 H	1	UNK0	0.000	
37	   H	-5.421	-6.316	-2.612	 H	1	UNK0	0.000	
38	   H	-3.910	-5.840	-3.598	 H	1	UNK0	0.000	
@<TRIPOS>BOND
1 1 2 1
2 2 3 2
3 2 7 1
4 3 4 1
5 4 5 2
6 4 12 1
7 5 6 1
8 5 8 1
9 6 7 2
10 8 9 1
11 9 10 2
12 9 11 1
13 11 12 2
14 11 13 1
15 13 14 2
16 13 15 1
17 15 16 1
18 16 17 1
19 17 18 2
20 17 19 1
21 19 20 2
22 19 24 1
23 20 21 1
24 21 22 2
25 21 27 1
26 22 23 1
27 22 25 1
28 23 24 2
29 25 26 1
30 26 27 1
31 3 28 1
32 6 29 1
33 7 30 1
34 12 31 1
35 15 32 1
36 16 33 1
37 20 34 1
38 23 35 1
39 24 36 1
40 26 37 1
41 26 38 1
@<TRIPOS>SUBSTRUCTURE
1	UNK0	1	GROUP	1 ****	UNK
