# created with PyMOL 2.3.2
@<TRIPOS>MOLECULE
595
29 32 1                 
SMALL
USER_CHARGES
@<TRIPOS>ATOM
1	  Br	-5.225	2.317	3.837	Br	1	UNK0	0.000	
2	   C	-4.107	1.133	2.858	C.2	1	UNK0	0.000	
3	   C	-2.974	1.597	2.195	C.2	1	UNK0	0.000	
4	   C	-2.158	0.747	1.483	C.2	1	UNK0	0.000	
5	   C	-2.493	-0.589	1.441	C.2	1	UNK0	0.000	
6	   C	-3.626	-1.050	2.104	C.2	1	UNK0	0.000	
7	   C	-4.447	-0.201	2.819	C.2	1	UNK0	0.000	
8	   O	-1.713	-1.394	0.761	O.3	1	UNK0	0.000	
9	   C	-0.631	-0.996	0.119	C.2	1	UNK0	0.000	
10	   O	0.101	-1.810	-0.530	O.co2	1	UNK0	0.000	
11	   C	-0.227	0.323	0.112	C.2	1	UNK0	0.000	
12	   C	-1.022	1.203	0.817	C.2	1	UNK0	0.000	
13	   C	0.973	0.742	-0.604	C.2	1	UNK0	0.000	
14	   N	1.831	-0.000	-1.323	N.2	1	UNK0	0.000	
15	   C	2.810	0.774	-1.821	C.2	1	UNK0	0.000	
16	   N	2.529	2.015	-1.387	N.2	1	UNK0	0.000	
17	   O	1.432	1.968	-0.666	O.3	1	UNK0	0.000	
18	   C	3.947	0.377	-2.657	C.2	1	UNK0	0.000	
19	   N	4.915	1.168	-3.145	N.2	1	UNK0	0.000	
20	   O	5.741	0.466	-3.835	O.3	1	UNK0	0.000	
21	   N	5.360	-0.774	-3.827	N.2	1	UNK0	0.000	
22	   C	4.230	-0.898	-3.099	C.2	1	UNK0	0.000	
23	   N	3.481	-2.085	-2.836	N.pl3	1	UNK0	0.000	
24	   H	-2.697	2.653	2.220	 H	1	UNK0	0.000	
25	   H	-3.891	-2.106	2.070	 H	1	UNK0	0.000	
26	   H	-5.331	-0.570	3.335	 H	1	UNK0	0.000	
27	   H	-0.753	2.243	0.844	 H	1	UNK0	0.000	
28	   H	2.737	-2.422	-3.484	 H	1	UNK0	0.000	
29	   H	3.699	-2.616	-1.966	 H	1	UNK0	0.000	
@<TRIPOS>BOND
1 1 2 1
2 2 3 2
3 2 7 1
4 3 4 1
5 4 5 2
6 4 12 1
7 5 6 1
8 5 8 1
9 6 7 2
10 8 9 1
11 9 10 2
12 9 11 1
13 11 12 2
14 11 13 1
15 13 14 2
16 13 17 1
17 14 15 1
18 15 16 2
19 15 18 1
20 16 17 1
21 18 19 2
22 18 22 1
23 19 20 1
24 20 21 1
25 21 22 2
26 22 23 1
27 3 24 1
28 6 25 1
29 7 26 1
30 12 27 1
31 23 28 1
32 23 29 1
@<TRIPOS>SUBSTRUCTURE
1	UNK0	1	GROUP	1 ****	UNK
