# created with PyMOL 2.3.2
@<TRIPOS>MOLECULE
596
44 47 1                 
SMALL
USER_CHARGES
@<TRIPOS>ATOM
1	  Br	-0.739	3.080	-7.895	Br	1	UNK0	0.000	
2	   C	0.181	3.273	-6.250	C.2	1	UNK0	0.000	
3	   C	-0.188	2.555	-5.127	C.2	1	UNK0	0.000	
4	   C	0.461	2.655	-3.910	C.2	1	UNK0	0.000	
5	   C	1.533	3.520	-3.826	C.2	1	UNK0	0.000	
6	   C	1.949	4.267	-4.918	C.2	1	UNK0	0.000	
7	   C	1.275	4.139	-6.110	C.2	1	UNK0	0.000	
8	   O	2.177	3.636	-2.663	O.3	1	UNK0	0.000	
9	   C	1.849	2.979	-1.607	C.2	1	UNK0	0.000	
10	   O	2.458	3.082	-0.497	O.co2	1	UNK0	0.000	
11	   C	0.787	2.100	-1.625	C.2	1	UNK0	0.000	
12	   C	0.086	1.942	-2.799	C.2	1	UNK0	0.000	
13	   C	0.391	1.378	-0.417	C.2	1	UNK0	0.000	
14	   C	0.129	2.052	0.765	C.2	1	UNK0	0.000	
15	   C	-0.299	1.363	1.880	C.2	1	UNK0	0.000	
16	   O	-0.521	2.051	2.926	O.co2	1	UNK0	0.000	
17	   O	-0.461	0.076	1.844	O.3	1	UNK0	0.000	
18	   C	-0.236	-0.605	0.787	C.2	1	UNK0	0.000	
19	   C	0.203	0.018	-0.397	C.2	1	UNK0	0.000	
20	   C	0.447	-0.737	-1.507	C.2	1	UNK0	0.000	
21	   C	0.241	-2.118	-1.417	C.2	1	UNK0	0.000	
22	   C	-0.194	-2.698	-0.242	C.2	1	UNK0	0.000	
23	   C	-0.447	-1.967	0.897	C.2	1	UNK0	0.000	
24	   C	-0.993	-2.629	2.051	C.3	1	UNK0	0.000	
25	   N	-0.518	-2.451	3.362	N.4	1	UNK0	0.000	
26	   C	0.885	-2.192	3.532	C.3	1	UNK0	0.000	
27	   C	-1.369	-1.522	4.149	C.3	1	UNK0	0.000	
28	   O	-0.375	-4.098	-0.260	O.2	1	UNK0	0.000	
29	   H	-1.031	1.849	-5.172	 H	1	UNK0	0.000	
30	   H	2.788	4.930	-4.778	 H	1	UNK0	0.000	
31	   H	1.543	4.691	-7.003	 H	1	UNK0	0.000	
32	   H	-0.793	1.268	-2.879	 H	1	UNK0	0.000	
33	   H	0.283	3.129	0.781	 H	1	UNK0	0.000	
34	   H	0.815	-0.290	-2.422	 H	1	UNK0	0.000	
35	   H	0.434	-2.686	-2.316	 H	1	UNK0	0.000	
36	   H	-0.880	-3.761	1.842	 H	1	UNK0	0.000	
37	   H	-2.117	-2.542	2.061	 H	1	UNK0	0.000	
38	   H	-0.656	-3.374	3.867	 H	1	UNK0	0.000	
39	   H	1.133	-1.108	3.677	 H	1	UNK0	0.000	
40	   H	1.538	-2.651	2.755	 H	1	UNK0	0.000	
41	   H	1.296	-2.644	4.499	 H	1	UNK0	0.000	
42	   H	-2.187	-1.099	3.509	 H	1	UNK0	0.000	
43	   H	-1.954	-2.056	4.943	 H	1	UNK0	0.000	
44	   H	-0.756	-0.783	4.671	 H	1	UNK0	0.000	
@<TRIPOS>BOND
1 1 2 1
2 2 3 2
3 2 7 1
4 3 4 1
5 4 5 2
6 4 12 1
7 5 6 1
8 5 8 1
9 6 7 2
10 8 9 1
11 9 10 2
12 9 11 1
13 11 12 2
14 11 13 1
15 13 14 2
16 13 19 1
17 14 15 1
18 15 16 2
19 15 17 1
20 17 18 1
21 18 19 2
22 18 23 1
23 19 20 1
24 20 21 2
25 21 22 1
26 22 23 2
27 22 28 1
28 23 24 1
29 24 25 1
30 25 26 1
31 25 27 1
32 3 29 1
33 6 30 1
34 7 31 1
35 12 32 1
36 14 33 1
37 20 34 1
38 21 35 1
39 24 36 1
40 24 37 1
41 25 38 1
42 26 39 1
43 26 40 1
44 26 41 1
45 27 42 1
46 27 43 1
47 27 44 1
@<TRIPOS>SUBSTRUCTURE
1	UNK0	1	GROUP	1 ****	UNK
