# created with PyMOL 2.3.2
@<TRIPOS>MOLECULE
601
50 53 1                 
SMALL
USER_CHARGES
@<TRIPOS>ATOM
1	  Br	-4.374	4.805	-0.568	Br	1	UNK0	0.000	
2	   C	-3.325	3.624	0.544	C.2	1	UNK0	0.000	
3	   C	-2.817	2.457	0.031	C.2	1	UNK0	0.000	
4	   C	-2.080	1.621	0.825	C.2	1	UNK0	0.000	
5	   C	-1.860	1.970	2.138	C.2	1	UNK0	0.000	
6	   C	-2.366	3.146	2.677	C.2	1	UNK0	0.000	
7	   C	-3.102	3.969	1.859	C.2	1	UNK0	0.000	
8	   O	-1.103	1.063	2.868	O.3	1	UNK0	0.000	
9	   C	0.078	0.496	2.271	C.3	1	UNK0	0.000	
10	   C	-0.007	0.371	0.791	C.3	1	UNK0	0.000	
11	   C	-1.487	0.345	0.361	C.3	1	UNK0	0.000	
12	   O	-1.560	0.161	-0.997	O.3	1	UNK0	0.000	
13	   N	0.652	-0.785	0.230	N.3	1	UNK0	0.000	
14	   C	0.056	-2.049	0.477	C.3	1	UNK0	0.000	
15	   C	0.235	-2.710	1.785	C.3	1	UNK0	0.000	
16	   O	1.562	-2.670	2.244	O.3	1	UNK0	0.000	
17	   C	2.381	-2.211	1.226	C.3	1	UNK0	0.000	
18	   C	2.014	-0.823	0.747	C.3	1	UNK0	0.000	
19	   C	0.548	1.604	0.148	C.3	1	UNK0	0.000	
20	   N	0.531	1.709	-1.242	N.3	1	UNK0	0.000	
21	   C	1.339	0.943	-2.078	C.3	1	UNK0	0.000	
22	   C	1.464	1.474	-3.493	C.3	1	UNK0	0.000	
23	   O	0.360	2.071	-4.002	O.3	1	UNK0	0.000	
24	   C	-0.484	2.720	-3.151	C.3	1	UNK0	0.000	
25	   C	0.202	2.979	-1.821	C.3	1	UNK0	0.000	
26	   H	-2.984	2.169	-0.998	 H	1	UNK0	0.000	
27	   H	-2.167	3.381	3.715	 H	1	UNK0	0.000	
28	   H	-3.505	4.887	2.253	 H	1	UNK0	0.000	
29	   H	0.304	-0.382	2.852	 H	1	UNK0	0.000	
30	   H	0.884	1.246	2.580	 H	1	UNK0	0.000	
31	   H	-2.034	-0.454	0.909	 H	1	UNK0	0.000	
32	   H	-2.524	0.085	-1.226	 H	1	UNK0	0.000	
33	   H	0.500	-2.748	-0.304	 H	1	UNK0	0.000	
34	   H	-1.031	-2.085	0.228	 H	1	UNK0	0.000	
35	   H	-0.515	-2.511	2.560	 H	1	UNK0	0.000	
36	   H	0.086	-3.833	1.587	 H	1	UNK0	0.000	
37	   H	2.443	-2.906	0.377	 H	1	UNK0	0.000	
38	   H	3.413	-2.133	1.645	 H	1	UNK0	0.000	
39	   H	2.174	-0.068	1.544	 H	1	UNK0	0.000	
40	   H	2.750	-0.596	-0.047	 H	1	UNK0	0.000	
41	   H	1.557	1.812	0.611	 H	1	UNK0	0.000	
42	   H	-0.097	2.456	0.553	 H	1	UNK0	0.000	
43	   H	1.042	-0.121	-2.060	 H	1	UNK0	0.000	
44	   H	2.406	0.984	-1.683	 H	1	UNK0	0.000	
45	   H	2.408	2.083	-3.614	 H	1	UNK0	0.000	
46	   H	1.669	0.570	-4.138	 H	1	UNK0	0.000	
47	   H	-0.908	3.669	-3.563	 H	1	UNK0	0.000	
48	   H	-1.376	2.059	-2.963	 H	1	UNK0	0.000	
49	   H	1.109	3.596	-2.043	 H	1	UNK0	0.000	
50	   H	-0.438	3.612	-1.168	 H	1	UNK0	0.000	
@<TRIPOS>BOND
1 1 2 1
2 2 3 2
3 2 7 1
4 3 4 1
5 4 5 2
6 4 11 1
7 5 6 1
8 5 8 1
9 6 7 2
10 8 9 1
11 9 10 1
12 10 11 1
13 10 13 1
14 10 19 1
15 11 12 1
16 13 14 1
17 13 18 1
18 14 15 1
19 15 16 1
20 16 17 1
21 17 18 1
22 19 20 1
23 20 21 1
24 20 25 1
25 21 22 1
26 22 23 1
27 23 24 1
28 24 25 1
29 3 26 1
30 6 27 1
31 7 28 1
32 9 29 1
33 9 30 1
34 11 31 1
35 12 32 1
36 14 33 1
37 14 34 1
38 15 35 1
39 15 36 1
40 17 37 1
41 17 38 1
42 18 39 1
43 18 40 1
44 19 41 1
45 19 42 1
46 21 43 1
47 21 44 1
48 22 45 1
49 22 46 1
50 24 47 1
51 24 48 1
52 25 49 1
53 25 50 1
@<TRIPOS>SUBSTRUCTURE
1	UNK0	1	GROUP	1 ****	UNK
