# created with PyMOL 2.3.2
@<TRIPOS>MOLECULE
602
69 72 1                 
SMALL
USER_CHARGES
@<TRIPOS>ATOM
1	  Br	-2.607	-0.658	-6.253	Br	1	UNK0	0.000	
2	   C	-2.029	-1.858	-4.868	C.2	1	UNK0	0.000	
3	   C	-0.672	-1.857	-4.509	C.2	1	UNK0	0.000	
4	   C	-0.244	-2.691	-3.503	C.2	1	UNK0	0.000	
5	   C	-1.079	-3.543	-2.812	C.2	1	UNK0	0.000	
6	   C	-2.436	-3.495	-3.222	C.2	1	UNK0	0.000	
7	   C	-2.863	-2.668	-4.222	C.2	1	UNK0	0.000	
8	   O	-0.774	-4.369	-1.844	O.3	1	UNK0	0.000	
9	   C	0.185	-5.075	-1.190	C.3	1	UNK0	0.000	
10	   C	0.085	-4.944	0.303	C.2	1	UNK0	0.000	
11	   C	0.052	-3.827	1.017	C.2	1	UNK0	0.000	
12	   C	0.969	-2.711	0.995	C.3	1	UNK0	0.000	
13	   C	1.358	-1.997	2.228	C.3	1	UNK0	0.000	
14	   C	2.750	-1.403	1.940	C.3	1	UNK0	0.000	
15	   C	3.078	-1.285	0.519	C.3	1	UNK0	0.000	
16	   N	1.942	-1.021	-0.352	N.pl3	1	UNK0	0.000	
17	   C	0.655	-1.577	0.023	C.3	1	UNK0	0.000	
18	   C	2.197	-0.261	-1.518	C.2	1	UNK0	0.000	
19	   O	3.233	0.524	-1.549	O.2	1	UNK0	0.000	
20	   C	1.390	-0.266	-2.745	C.3	1	UNK0	0.000	
21	   N	1.794	-1.343	-3.607	N.3	1	UNK0	0.000	
22	   C	1.243	-2.604	-3.266	C.3	1	UNK0	0.000	
23	   C	0.550	-0.899	2.704	C.3	1	UNK0	0.000	
24	   C	-0.836	-0.993	3.174	C.2	1	UNK0	0.000	
25	   O	-1.202	-1.935	3.871	O.2	1	UNK0	0.000	
26	   N	-1.694	0.090	2.767	N.pl3	1	UNK0	0.000	
27	   C	-2.471	1.059	2.407	C.3	1	UNK0	0.000	
28	   C	-2.060	1.797	1.120	C.3	1	UNK0	0.000	
29	   N	-0.802	2.335	1.012	N.3	1	UNK0	0.000	
30	   C	-0.525	2.734	-0.389	C.3	1	UNK0	0.000	
31	   C	0.893	3.177	-0.475	C.3	1	UNK0	0.000	
32	   O	1.104	4.321	0.280	O.3	1	UNK0	0.000	
33	   C	0.088	4.554	1.190	C.3	1	UNK0	0.000	
34	   C	-0.289	3.268	1.930	C.3	1	UNK0	0.000	
35	   H	-0.019	-1.190	-5.058	 H	1	UNK0	0.000	
36	   H	-3.199	-4.123	-2.807	 H	1	UNK0	0.000	
37	   H	-3.927	-2.643	-4.512	 H	1	UNK0	0.000	
38	   H	1.230	-4.979	-1.485	 H	1	UNK0	0.000	
39	   H	-0.036	-6.180	-1.474	 H	1	UNK0	0.000	
40	   H	0.022	-5.939	0.818	 H	1	UNK0	0.000	
41	   H	-0.782	-3.774	1.716	 H	1	UNK0	0.000	
42	   H	1.971	-3.131	0.579	 H	1	UNK0	0.000	
43	   H	1.452	-2.782	3.042	 H	1	UNK0	0.000	
44	   H	2.862	-0.395	2.446	 H	1	UNK0	0.000	
45	   H	3.499	-2.058	2.455	 H	1	UNK0	0.000	
46	   H	3.692	-2.127	0.128	 H	1	UNK0	0.000	
47	   H	3.750	-0.369	0.426	 H	1	UNK0	0.000	
48	   H	0.103	-0.828	0.584	 H	1	UNK0	0.000	
49	   H	0.010	-1.866	-0.789	 H	1	UNK0	0.000	
50	   H	1.580	0.666	-3.298	 H	1	UNK0	0.000	
51	   H	0.308	-0.250	-2.517	 H	1	UNK0	0.000	
52	   H	1.923	-1.099	-4.591	 H	1	UNK0	0.000	
53	   H	1.678	-3.392	-3.951	 H	1	UNK0	0.000	
54	   H	1.585	-2.846	-2.279	 H	1	UNK0	0.000	
55	   H	1.098	-0.596	3.706	 H	1	UNK0	0.000	
56	   H	0.714	0.118	2.175	 H	1	UNK0	0.000	
57	   H	-2.638	-0.347	3.726	 H	1	UNK0	0.000	
58	   H	-2.612	1.876	3.208	 H	1	UNK0	0.000	
59	   H	-3.566	0.768	2.158	 H	1	UNK0	0.000	
60	   H	-2.234	1.050	0.276	 H	1	UNK0	0.000	
61	   H	-2.855	2.623	1.003	 H	1	UNK0	0.000	
62	   H	-1.186	3.530	-0.651	 H	1	UNK0	0.000	
63	   H	-0.675	1.828	-1.019	 H	1	UNK0	0.000	
64	   H	1.600	2.368	-0.142	 H	1	UNK0	0.000	
65	   H	1.168	3.341	-1.527	 H	1	UNK0	0.000	
66	   H	0.490	5.268	1.921	 H	1	UNK0	0.000	
67	   H	-0.859	4.921	0.750	 H	1	UNK0	0.000	
68	   H	-0.858	3.480	2.850	 H	1	UNK0	0.000	
69	   H	0.722	2.873	2.335	 H	1	UNK0	0.000	
@<TRIPOS>BOND
1 1 2 1
2 2 3 2
3 2 7 1
4 3 4 1
5 4 5 2
6 4 22 1
7 5 6 1
8 5 8 1
9 6 7 2
10 8 9 1
11 9 10 1
12 10 11 2
13 11 12 1
14 12 13 1
15 12 17 1
16 13 14 1
17 13 23 1
18 14 15 1
19 15 16 1
20 16 17 1
21 16 18 1
22 18 19 2
23 18 20 1
24 20 21 1
25 21 22 1
26 23 24 1
27 24 25 2
28 24 26 1
29 26 27 1
30 27 28 1
31 28 29 1
32 29 30 1
33 29 34 1
34 30 31 1
35 31 32 1
36 32 33 1
37 33 34 1
38 3 35 1
39 6 36 1
40 7 37 1
41 9 38 1
42 9 39 1
43 10 40 1
44 11 41 1
45 12 42 1
46 13 43 1
47 14 44 1
48 14 45 1
49 15 46 1
50 15 47 1
51 17 48 1
52 17 49 1
53 20 50 1
54 20 51 1
55 21 52 1
56 22 53 1
57 22 54 1
58 23 55 1
59 23 56 1
60 26 57 1
61 27 58 1
62 27 59 1
63 28 60 1
64 28 61 1
65 30 62 1
66 30 63 1
67 31 64 1
68 31 65 1
69 33 66 1
70 33 67 1
71 34 68 1
72 34 69 1
@<TRIPOS>SUBSTRUCTURE
1	UNK0	1	GROUP	1 ****	UNK
