# created with PyMOL 2.3.2
@<TRIPOS>MOLECULE
603
44 47 1                 
SMALL
USER_CHARGES
@<TRIPOS>ATOM
1	  Br	-1.229	3.493	5.807	Br	1	UNK0	0.000	
2	   C	-0.437	3.756	4.093	C.2	1	UNK0	0.000	
3	   C	-1.196	3.442	2.980	C.2	1	UNK0	0.000	
4	   C	-0.653	3.621	1.740	C.2	1	UNK0	0.000	
5	   C	0.620	4.103	1.621	C.2	1	UNK0	0.000	
6	   C	1.363	4.411	2.731	C.2	1	UNK0	0.000	
7	   C	0.848	4.243	3.998	C.2	1	UNK0	0.000	
8	   O	0.985	4.210	0.285	O.3	1	UNK0	0.000	
9	   C	-0.049	3.768	-0.572	C.3	1	UNK0	0.000	
10	   C	-1.156	3.402	0.369	C.3	1	UNK0	0.000	
11	   C	-1.771	2.103	0.132	C.2	1	UNK0	0.000	
12	   O	-2.979	2.132	-0.306	O.2	1	UNK0	0.000	
13	   N	-1.206	0.827	0.325	N.pl3	1	UNK0	0.000	
14	   C	0.144	0.687	0.820	C.3	1	UNK0	0.000	
15	   C	0.807	-0.619	0.352	C.3	1	UNK0	0.000	
16	   N	0.120	-0.946	-0.892	N.pl3	1	UNK0	0.000	
17	   C	-1.236	-1.447	-0.636	C.3	1	UNK0	0.000	
18	   C	-2.006	-0.361	0.023	C.3	1	UNK0	0.000	
19	   C	0.711	-0.812	-2.149	C.2	1	UNK0	0.000	
20	   C	-0.010	-0.726	-3.306	C.2	1	UNK0	0.000	
21	   N	0.620	-0.629	-4.479	N.2	1	UNK0	0.000	
22	   C	1.945	-0.606	-4.627	C.2	1	UNK0	0.000	
23	   N	2.694	-0.687	-3.516	N.2	1	UNK0	0.000	
24	   C	2.093	-0.789	-2.292	C.2	1	UNK0	0.000	
25	   O	2.575	-0.503	-5.860	O.3	1	UNK0	0.000	
26	   N	-1.414	-0.719	-3.315	N.pl3	1	UNK0	0.000	
27	   H	-2.228	3.052	3.109	 H	1	UNK0	0.000	
28	   H	2.388	4.800	2.659	 H	1	UNK0	0.000	
29	   H	1.440	4.489	4.871	 H	1	UNK0	0.000	
30	   H	0.239	2.980	-1.265	 H	1	UNK0	0.000	
31	   H	-0.291	4.673	-1.206	 H	1	UNK0	0.000	
32	   H	-1.936	4.219	0.231	 H	1	UNK0	0.000	
33	   H	0.835	1.477	0.466	 H	1	UNK0	0.000	
34	   H	0.133	0.614	1.933	 H	1	UNK0	0.000	
35	   H	0.592	-1.422	1.111	 H	1	UNK0	0.000	
36	   H	1.878	-0.482	0.273	 H	1	UNK0	0.000	
37	   H	-1.694	-1.982	-1.449	 H	1	UNK0	0.000	
38	   H	-1.089	-2.242	0.172	 H	1	UNK0	0.000	
39	   H	-2.821	-0.040	-0.655	 H	1	UNK0	0.000	
40	   H	-2.505	-0.675	0.964	 H	1	UNK0	0.000	
41	   H	2.697	-0.860	-1.413	 H	1	UNK0	0.000	
42	   H	3.503	-0.082	-5.893	 H	1	UNK0	0.000	
43	   H	-2.036	-0.015	-2.915	 H	1	UNK0	0.000	
44	   H	-1.886	-1.541	-3.795	 H	1	UNK0	0.000	
@<TRIPOS>BOND
1 1 2 1
2 2 3 2
3 2 7 1
4 3 4 1
5 4 5 2
6 4 10 1
7 5 6 1
8 5 8 1
9 6 7 2
10 8 9 1
11 9 10 1
12 10 11 1
13 11 12 2
14 11 13 1
15 13 14 1
16 13 18 1
17 14 15 1
18 15 16 1
19 16 17 1
20 16 19 1
21 17 18 1
22 19 20 2
23 19 24 1
24 20 21 1
25 20 26 1
26 21 22 2
27 22 23 1
28 22 25 1
29 23 24 2
30 3 27 1
31 6 28 1
32 7 29 1
33 9 30 1
34 9 31 1
35 10 32 1
36 14 33 1
37 14 34 1
38 15 35 1
39 15 36 1
40 17 37 1
41 17 38 1
42 18 39 1
43 18 40 1
44 24 41 1
45 25 42 1
46 26 43 1
47 26 44 1
@<TRIPOS>SUBSTRUCTURE
1	UNK0	1	GROUP	1 ****	UNK
