# created with PyMOL 2.3.2
@<TRIPOS>MOLECULE
604
50 53 1                 
SMALL
USER_CHARGES
@<TRIPOS>ATOM
1	  Br	3.212	-0.521	7.233	Br	1	UNK0	0.000	
2	   C	2.136	-1.103	5.754	C.2	1	UNK0	0.000	
3	   C	1.749	-0.203	4.786	C.2	1	UNK0	0.000	
4	   C	0.971	-0.670	3.734	C.2	1	UNK0	0.000	
5	   C	0.563	-1.981	3.599	C.2	1	UNK0	0.000	
6	   C	0.982	-2.851	4.606	C.2	1	UNK0	0.000	
7	   C	1.752	-2.417	5.659	C.2	1	UNK0	0.000	
8	   O	-0.203	-2.423	2.556	O.3	1	UNK0	0.000	
9	   C	0.094	-2.300	1.159	C.3	1	UNK0	0.000	
10	   C	-1.082	-2.052	0.308	C.3	1	UNK0	0.000	
11	   C	-1.179	-0.792	-0.456	C.3	1	UNK0	0.000	
12	   O	-2.124	-0.982	-1.497	O.3	1	UNK0	0.000	
13	   C	-1.739	-1.718	-2.603	C.2	1	UNK0	0.000	
14	   O	-2.565	-2.491	-3.158	O.co2	1	UNK0	0.000	
15	   C	-0.334	-1.543	-3.082	C.3	1	UNK0	0.000	
16	   C	0.104	-0.211	-2.558	C.3	1	UNK0	0.000	
17	   C	0.037	-0.211	-1.021	C.3	1	UNK0	0.000	
18	   C	0.130	1.283	-0.714	C.3	1	UNK0	0.000	
19	   N	1.536	1.609	-0.945	N.pl3	1	UNK0	0.000	
20	   C	2.092	1.302	-2.232	C.3	1	UNK0	0.000	
21	   C	1.499	0.151	-2.935	C.3	1	UNK0	0.000	
22	   C	2.240	2.204	0.136	C.2	1	UNK0	0.000	
23	   O	3.316	2.809	-0.184	O.2	1	UNK0	0.000	
24	   C	1.766	2.135	1.546	C.3	1	UNK0	0.000	
25	   N	1.757	0.779	2.017	N.3	1	UNK0	0.000	
26	   C	0.599	0.406	2.752	C.3	1	UNK0	0.000	
27	   O	-1.316	-3.111	-0.604	O.3	1	UNK0	0.000	
28	   H	2.054	0.854	4.856	 H	1	UNK0	0.000	
29	   H	0.728	-3.908	4.626	 H	1	UNK0	0.000	
30	   H	2.079	-3.113	6.451	 H	1	UNK0	0.000	
31	   H	0.454	-3.352	0.906	 H	1	UNK0	0.000	
32	   H	0.974	-1.693	1.022	 H	1	UNK0	0.000	
33	   H	-1.989	-2.099	0.986	 H	1	UNK0	0.000	
34	   H	-1.665	-0.023	0.216	 H	1	UNK0	0.000	
35	   H	-0.322	-1.507	-4.184	 H	1	UNK0	0.000	
36	   H	0.319	-2.363	-2.763	 H	1	UNK0	0.000	
37	   H	-0.579	0.561	-2.974	 H	1	UNK0	0.000	
38	   H	0.991	-0.678	-0.722	 H	1	UNK0	0.000	
39	   H	-0.436	1.880	-1.473	 H	1	UNK0	0.000	
40	   H	-0.251	1.568	0.255	 H	1	UNK0	0.000	
41	   H	3.184	1.139	-2.102	 H	1	UNK0	0.000	
42	   H	2.011	2.203	-2.898	 H	1	UNK0	0.000	
43	   H	2.131	-0.773	-2.783	 H	1	UNK0	0.000	
44	   H	1.529	0.307	-4.053	 H	1	UNK0	0.000	
45	   H	2.525	2.690	2.165	 H	1	UNK0	0.000	
46	   H	0.774	2.584	1.693	 H	1	UNK0	0.000	
47	   H	2.653	0.428	2.363	 H	1	UNK0	0.000	
48	   H	0.150	1.281	3.311	 H	1	UNK0	0.000	
49	   H	-0.247	0.006	2.162	 H	1	UNK0	0.000	
50	   H	-0.419	-3.548	-0.707	 H	1	UNK0	0.000	
@<TRIPOS>BOND
1 1 2 1
2 2 3 2
3 2 7 1
4 3 4 1
5 4 5 2
6 4 26 1
7 5 6 1
8 5 8 1
9 6 7 2
10 8 9 1
11 9 10 1
12 10 11 1
13 10 27 1
14 11 12 1
15 11 17 1
16 12 13 1
17 13 14 2
18 13 15 1
19 15 16 1
20 16 17 1
21 16 21 1
22 17 18 1
23 18 19 1
24 19 20 1
25 19 22 1
26 20 21 1
27 22 23 2
28 22 24 1
29 24 25 1
30 25 26 1
31 3 28 1
32 6 29 1
33 7 30 1
34 9 31 1
35 9 32 1
36 10 33 1
37 11 34 1
38 15 35 1
39 15 36 1
40 16 37 1
41 17 38 1
42 18 39 1
43 18 40 1
44 20 41 1
45 20 42 1
46 21 43 1
47 21 44 1
48 24 45 1
49 24 46 1
50 25 47 1
51 26 48 1
52 26 49 1
53 27 50 1
@<TRIPOS>SUBSTRUCTURE
1	UNK0	1	GROUP	1 ****	UNK
