# created with PyMOL 2.3.2
@<TRIPOS>MOLECULE
605
35 38 1                 
SMALL
USER_CHARGES
@<TRIPOS>ATOM
1	  Br	-1.200	2.711	-3.941	Br	1	UNK0	0.000	
2	   C	-0.729	1.217	-2.839	C.2	1	UNK0	0.000	
3	   C	-0.858	1.302	-1.475	C.2	1	UNK0	0.000	
4	   C	-0.512	0.212	-0.692	C.2	1	UNK0	0.000	
5	   C	-0.043	-0.951	-1.270	C.2	1	UNK0	0.000	
6	   C	0.077	-1.005	-2.671	C.2	1	UNK0	0.000	
7	   C	-0.262	0.068	-3.456	C.2	1	UNK0	0.000	
8	   O	0.308	-2.050	-0.509	O.3	1	UNK0	0.000	
9	   C	0.179	-1.966	0.882	C.2	1	UNK0	0.000	
10	   N	0.520	-3.037	1.650	N.2	1	UNK0	0.000	
11	   C	0.430	-3.046	2.984	C.2	1	UNK0	0.000	
12	   N	-0.025	-1.926	3.576	N.2	1	UNK0	0.000	
13	   C	-0.381	-0.833	2.898	C.2	1	UNK0	0.000	
14	   C	-0.280	-0.844	1.513	C.2	1	UNK0	0.000	
15	   C	-0.674	0.358	0.751	C.3	1	UNK0	0.000	
16	   C	-0.052	1.592	1.278	C.2	1	UNK0	0.000	
17	   C	-0.831	2.674	1.645	C.2	1	UNK0	0.000	
18	   N	-0.199	3.779	2.119	N.2	1	UNK0	0.000	
19	   C	1.134	3.847	2.240	C.2	1	UNK0	0.000	
20	   N	1.860	2.778	1.875	N.2	1	UNK0	0.000	
21	   C	1.319	1.649	1.397	C.2	1	UNK0	0.000	
22	   O	2.056	0.544	1.019	O.3	1	UNK0	0.000	
23	   O	1.720	5.007	2.732	O.3	1	UNK0	0.000	
24	   O	-2.201	2.613	1.525	O.3	1	UNK0	0.000	
25	   O	-0.852	0.322	3.538	O.3	1	UNK0	0.000	
26	   O	0.792	-4.171	3.735	O.3	1	UNK0	0.000	
27	   H	-1.217	2.185	-0.993	 H	1	UNK0	0.000	
28	   H	0.452	-1.939	-3.099	 H	1	UNK0	0.000	
29	   H	-0.163	0.005	-4.514	 H	1	UNK0	0.000	
30	   H	-1.792	0.454	0.927	 H	1	UNK0	0.000	
31	   H	2.513	0.025	1.785	 H	1	UNK0	0.000	
32	   H	2.245	5.619	2.104	 H	1	UNK0	0.000	
33	   H	-2.842	2.891	2.251	 H	1	UNK0	0.000	
34	   H	-1.567	0.154	4.242	 H	1	UNK0	0.000	
35	   H	1.744	-4.515	3.585	 H	1	UNK0	0.000	
@<TRIPOS>BOND
1 1 2 1
2 2 3 2
3 2 7 1
4 3 4 1
5 4 5 2
6 4 15 1
7 5 6 1
8 5 8 1
9 6 7 2
10 8 9 1
11 9 10 2
12 9 14 1
13 10 11 1
14 11 12 2
15 11 26 1
16 12 13 1
17 13 14 2
18 13 25 1
19 14 15 1
20 15 16 1
21 16 17 2
22 16 21 1
23 17 18 1
24 17 24 1
25 18 19 2
26 19 20 1
27 19 23 1
28 20 21 2
29 21 22 1
30 3 27 1
31 6 28 1
32 7 29 1
33 15 30 1
34 22 31 1
35 23 32 1
36 24 33 1
37 25 34 1
38 26 35 1
@<TRIPOS>SUBSTRUCTURE
1	UNK0	1	GROUP	1 ****	UNK
