# created with PyMOL 2.3.2
@<TRIPOS>MOLECULE
606
57 60 1                 
SMALL
USER_CHARGES
@<TRIPOS>ATOM
1	  Br	-1.847	-3.328	5.894	Br	1	UNK0	0.000	
2	   C	-0.497	-3.380	4.550	C.2	1	UNK0	0.000	
3	   C	0.686	-2.685	4.681	C.2	1	UNK0	0.000	
4	   C	1.657	-2.732	3.700	C.2	1	UNK0	0.000	
5	   C	1.476	-3.470	2.569	C.2	1	UNK0	0.000	
6	   N	2.560	-3.342	1.791	N.pl3	1	UNK0	0.000	
7	   C	3.434	-2.538	2.397	C.2	1	UNK0	0.000	
8	   C	2.892	-2.147	3.589	C.2	1	UNK0	0.000	
9	   C	2.717	-4.009	0.533	C.3	1	UNK0	0.000	
10	   C	2.268	-3.366	-0.687	C.2	1	UNK0	0.000	
11	   O	2.468	-4.118	-1.746	O.2	1	UNK0	0.000	
12	   N	1.686	-2.153	-0.965	N.pl3	1	UNK0	0.000	
13	   C	1.321	-1.081	-0.089	C.3	1	UNK0	0.000	
14	   C	-0.155	-0.800	-0.442	C.3	1	UNK0	0.000	
15	   N	-0.150	-0.035	-1.646	N.3	1	UNK0	0.000	
16	   C	0.885	-0.445	-2.536	C.3	1	UNK0	0.000	
17	   C	1.358	-1.846	-2.388	C.3	1	UNK0	0.000	
18	   C	-0.112	1.390	-1.418	C.3	1	UNK0	0.000	
19	   C	-1.342	1.911	-0.816	C.2	1	UNK0	0.000	
20	   O	-2.271	1.102	-0.566	O.2	1	UNK0	0.000	
21	   N	-1.556	3.274	-0.494	N.pl3	1	UNK0	0.000	
22	   C	-0.535	4.270	-0.755	C.3	1	UNK0	0.000	
23	   C	-0.309	5.052	0.505	C.3	1	UNK0	0.000	
24	   N	-1.494	5.435	1.203	N.3	1	UNK0	0.000	
25	   C	-2.707	5.182	0.484	C.3	1	UNK0	0.000	
26	   C	-2.792	3.734	0.105	C.3	1	UNK0	0.000	
27	   C	-1.541	4.739	2.476	C.3	1	UNK0	0.000	
28	   C	0.277	-4.175	2.435	C.2	1	UNK0	0.000	
29	   C	-0.686	-4.124	3.417	C.2	1	UNK0	0.000	
30	   H	0.848	-2.102	5.556	 H	1	UNK0	0.000	
31	   H	4.411	-2.221	2.053	 H	1	UNK0	0.000	
32	   H	3.299	-1.496	4.359	 H	1	UNK0	0.000	
33	   H	3.823	-4.216	0.449	 H	1	UNK0	0.000	
34	   H	2.282	-5.051	0.590	 H	1	UNK0	0.000	
35	   H	1.938	-0.194	-0.451	 H	1	UNK0	0.000	
36	   H	1.460	-1.192	0.964	 H	1	UNK0	0.000	
37	   H	-0.652	-1.768	-0.634	 H	1	UNK0	0.000	
38	   H	-0.671	-0.325	0.407	 H	1	UNK0	0.000	
39	   H	1.770	0.250	-2.548	 H	1	UNK0	0.000	
40	   H	0.468	-0.361	-3.581	 H	1	UNK0	0.000	
41	   H	0.656	-2.617	-2.701	 H	1	UNK0	0.000	
42	   H	2.302	-1.964	-2.940	 H	1	UNK0	0.000	
43	   H	0.074	1.856	-2.429	 H	1	UNK0	0.000	
44	   H	0.759	1.695	-0.803	 H	1	UNK0	0.000	
45	   H	-0.830	4.928	-1.599	 H	1	UNK0	0.000	
46	   H	0.433	3.771	-0.998	 H	1	UNK0	0.000	
47	   H	0.233	6.007	0.238	 H	1	UNK0	0.000	
48	   H	0.407	4.499	1.153	 H	1	UNK0	0.000	
49	   H	-2.836	5.871	-0.388	 H	1	UNK0	0.000	
50	   H	-3.598	5.377	1.149	 H	1	UNK0	0.000	
51	   H	-3.629	3.588	-0.611	 H	1	UNK0	0.000	
52	   H	-3.033	3.166	1.028	 H	1	UNK0	0.000	
53	   H	-1.132	5.373	3.290	 H	1	UNK0	0.000	
54	   H	-0.995	3.775	2.380	 H	1	UNK0	0.000	
55	   H	-2.603	4.521	2.747	 H	1	UNK0	0.000	
56	   H	0.121	-4.757	1.555	 H	1	UNK0	0.000	
57	   H	-1.618	-4.681	3.296	 H	1	UNK0	0.000	
@<TRIPOS>BOND
1 1 2 1
2 2 3 2
3 2 29 1
4 3 4 1
5 4 5 2
6 4 8 1
7 5 6 1
8 5 28 1
9 6 7 1
10 6 9 1
11 7 8 2
12 9 10 1
13 10 11 2
14 10 12 1
15 12 13 1
16 12 17 1
17 13 14 1
18 14 15 1
19 15 16 1
20 15 18 1
21 16 17 1
22 18 19 1
23 19 20 2
24 19 21 1
25 21 22 1
26 21 26 1
27 22 23 1
28 23 24 1
29 24 25 1
30 24 27 1
31 25 26 1
32 28 29 2
33 3 30 1
34 7 31 1
35 8 32 1
36 9 33 1
37 9 34 1
38 13 35 1
39 13 36 1
40 14 37 1
41 14 38 1
42 16 39 1
43 16 40 1
44 17 41 1
45 17 42 1
46 18 43 1
47 18 44 1
48 22 45 1
49 22 46 1
50 23 47 1
51 23 48 1
52 25 49 1
53 25 50 1
54 26 51 1
55 26 52 1
56 27 53 1
57 27 54 1
58 27 55 1
59 28 56 1
60 29 57 1
@<TRIPOS>SUBSTRUCTURE
1	UNK0	1	GROUP	1 ****	UNK
