# created with PyMOL 2.3.2
@<TRIPOS>MOLECULE
608
61 65 1                 
SMALL
USER_CHARGES
@<TRIPOS>ATOM
1	  Br	-3.287	-5.128	4.015	Br	1	UNK0	0.000	
2	   C	-1.737	-4.287	3.268	C.2	1	UNK0	0.000	
3	   C	-0.721	-3.821	4.079	C.2	1	UNK0	0.000	
4	   C	0.399	-3.212	3.523	C.2	1	UNK0	0.000	
5	   C	0.522	-3.061	2.161	C.2	1	UNK0	0.000	
6	   N	1.684	-2.458	1.872	N.pl3	1	UNK0	0.000	
7	   C	2.307	-2.225	3.067	C.2	1	UNK0	0.000	
8	   C	1.541	-2.677	4.093	C.2	1	UNK0	0.000	
9	   C	1.947	-2.560	5.405	C.2	1	UNK0	0.000	
10	   C	3.160	-1.972	5.699	C.2	1	UNK0	0.000	
11	   C	3.946	-1.509	4.663	C.2	1	UNK0	0.000	
12	   C	3.526	-1.633	3.355	C.2	1	UNK0	0.000	
13	   C	2.212	-2.084	0.602	C.3	1	UNK0	0.000	
14	   C	1.907	-0.686	0.244	C.3	1	UNK0	0.000	
15	   O	2.455	-0.331	-1.022	O.3	1	UNK0	0.000	
16	   C	0.616	-0.078	0.494	C.3	1	UNK0	0.000	
17	   N	-0.515	-0.257	-0.328	N.4	1	UNK0	0.000	
18	   C	-1.475	0.762	0.138	C.3	1	UNK0	0.000	
19	   C	-2.581	1.071	-0.760	C.3	1	UNK0	0.000	
20	   N	-2.348	1.117	-2.163	N.4	1	UNK0	0.000	
21	   C	-1.518	0.057	-2.574	C.3	1	UNK0	0.000	
22	   C	-0.326	-0.245	-1.730	C.3	1	UNK0	0.000	
23	   C	-2.068	2.420	-2.700	C.3	1	UNK0	0.000	
24	   C	-0.686	2.843	-2.758	C.2	1	UNK0	0.000	
25	   C	-0.123	3.503	-1.689	C.2	1	UNK0	0.000	
26	   C	1.192	3.938	-1.681	C.2	1	UNK0	0.000	
27	   C	1.972	3.708	-2.776	C.2	1	UNK0	0.000	
28	   C	1.436	3.043	-3.878	C.2	1	UNK0	0.000	
29	   C	0.114	2.619	-3.856	C.2	1	UNK0	0.000	
30	   C	-0.518	-3.542	1.368	C.2	1	UNK0	0.000	
31	   C	-1.625	-4.142	1.896	C.2	1	UNK0	0.000	
32	   H	-0.776	-3.918	5.153	 H	1	UNK0	0.000	
33	   H	1.306	-2.934	6.202	 H	1	UNK0	0.000	
34	   H	3.497	-1.871	6.741	 H	1	UNK0	0.000	
35	   H	4.899	-1.049	4.935	 H	1	UNK0	0.000	
36	   H	4.164	-1.260	2.541	 H	1	UNK0	0.000	
37	   H	1.996	-2.828	-0.198	 H	1	UNK0	0.000	
38	   H	3.341	-2.168	0.681	 H	1	UNK0	0.000	
39	   H	2.634	-0.094	0.913	 H	1	UNK0	0.000	
40	   H	3.408	-0.539	-1.044	 H	1	UNK0	0.000	
41	   H	0.299	-0.338	1.552	 H	1	UNK0	0.000	
42	   H	0.784	1.044	0.585	 H	1	UNK0	0.000	
43	   H	-0.990	-1.144	-0.065	 H	1	UNK0	0.000	
44	   H	-1.922	0.415	1.121	 H	1	UNK0	0.000	
45	   H	-0.936	1.689	0.418	 H	1	UNK0	0.000	
46	   H	-2.952	2.106	-0.485	 H	1	UNK0	0.000	
47	   H	-3.481	0.428	-0.507	 H	1	UNK0	0.000	
48	   H	-3.326	0.920	-2.579	 H	1	UNK0	0.000	
49	   H	-2.160	-0.873	-2.682	 H	1	UNK0	0.000	
50	   H	-1.174	0.249	-3.611	 H	1	UNK0	0.000	
51	   H	0.024	-1.242	-2.074	 H	1	UNK0	0.000	
52	   H	0.495	0.455	-1.982	 H	1	UNK0	0.000	
53	   H	-2.732	3.132	-2.125	 H	1	UNK0	0.000	
54	   H	-2.482	2.496	-3.751	 H	1	UNK0	0.000	
55	   H	-0.681	3.727	-0.782	 H	1	UNK0	0.000	
56	   H	1.605	4.453	-0.824	 H	1	UNK0	0.000	
57	   H	3.001	4.043	-2.782	 H	1	UNK0	0.000	
58	   H	2.071	2.873	-4.729	 H	1	UNK0	0.000	
59	   H	-0.229	2.114	-4.749	 H	1	UNK0	0.000	
60	   H	-0.428	-3.431	0.295	 H	1	UNK0	0.000	
61	   H	-2.429	-4.510	1.242	 H	1	UNK0	0.000	
@<TRIPOS>BOND
1 1 2 1
2 2 3 2
3 2 31 1
4 3 4 1
5 4 5 2
6 4 8 1
7 5 6 1
8 5 30 1
9 6 7 1
10 6 13 1
11 7 8 2
12 7 12 1
13 8 9 1
14 9 10 2
15 10 11 1
16 11 12 2
17 13 14 1
18 14 15 1
19 14 16 1
20 16 17 1
21 17 18 1
22 17 22 1
23 18 19 1
24 19 20 1
25 20 21 1
26 20 23 1
27 21 22 1
28 23 24 1
29 24 25 2
30 24 29 1
31 25 26 1
32 26 27 2
33 27 28 1
34 28 29 2
35 30 31 2
36 3 32 1
37 9 33 1
38 10 34 1
39 11 35 1
40 12 36 1
41 13 37 1
42 13 38 1
43 14 39 1
44 15 40 1
45 16 41 1
46 16 42 1
47 17 43 1
48 18 44 1
49 18 45 1
50 19 46 1
51 19 47 1
52 20 48 1
53 21 49 1
54 21 50 1
55 22 51 1
56 22 52 1
57 23 53 1
58 23 54 1
59 25 55 1
60 26 56 1
61 27 57 1
62 28 58 1
63 29 59 1
64 30 60 1
65 31 61 1
@<TRIPOS>SUBSTRUCTURE
1	UNK0	1	GROUP	1 ****	UNK
