# created with PyMOL 2.3.2
@<TRIPOS>MOLECULE
609
54 56 1                 
SMALL
USER_CHARGES
@<TRIPOS>ATOM
1	  Br	6.060	0.950	-0.622	Br	1	UNK0	0.000	
2	   C	4.360	0.093	-0.718	C.2	1	UNK0	0.000	
3	   C	3.611	0.098	-1.886	C.2	1	UNK0	0.000	
4	   C	2.385	-0.527	-1.936	C.2	1	UNK0	0.000	
5	   C	1.888	-1.171	-0.808	C.2	1	UNK0	0.000	
6	   N	0.679	-1.702	-1.116	N.pl3	1	UNK0	0.000	
7	   C	0.418	-1.397	-2.421	C.2	1	UNK0	0.000	
8	   C	1.456	-0.671	-2.953	C.2	1	UNK0	0.000	
9	   C	1.431	-0.241	-4.262	C.2	1	UNK0	0.000	
10	   C	0.361	-0.521	-5.097	C.2	1	UNK0	0.000	
11	   C	-0.679	-1.248	-4.568	C.2	1	UNK0	0.000	
12	   C	-0.660	-1.680	-3.261	C.2	1	UNK0	0.000	
13	   C	-0.223	-2.449	-0.272	C.3	1	UNK0	0.000	
14	   C	-1.214	-1.531	0.407	C.3	1	UNK0	0.000	
15	   O	-2.034	-2.378	1.196	O.3	1	UNK0	0.000	
16	   C	-0.592	-0.490	1.248	C.3	1	UNK0	0.000	
17	   N	-1.482	0.396	1.943	N.4	1	UNK0	0.000	
18	   C	-0.785	1.628	2.266	C.3	1	UNK0	0.000	
19	   C	-1.660	2.841	2.039	C.3	1	UNK0	0.000	
20	   N	-1.977	2.797	0.602	N.4	1	UNK0	0.000	
21	   C	-2.898	1.726	0.406	C.3	1	UNK0	0.000	
22	   C	-2.763	0.595	1.379	C.3	1	UNK0	0.000	
23	   C	2.649	-1.162	0.338	C.2	1	UNK0	0.000	
24	   C	3.871	-0.541	0.393	C.2	1	UNK0	0.000	
25	   O	-0.091	-1.491	-0.170	O.co2	1	UNK0	0.000	
26	   C	-0.570	-0.199	0.009	C.2	1	UNK0	0.000	
27	   O	0.175	0.595	0.637	O.co2	1	UNK0	0.000	
28	   C	-1.875	0.209	-0.512	C.2	1	UNK0	0.000	
29	   O	-2.624	-0.560	-1.135	O.co2	1	UNK0	0.000	
30	   O	-2.288	1.515	-0.297	O.co2	1	UNK0	0.000	
31	   H	3.979	0.592	-2.773	 H	1	UNK0	0.000	
32	   H	2.242	0.329	-4.685	 H	1	UNK0	0.000	
33	   H	0.342	-0.180	-6.135	 H	1	UNK0	0.000	
34	   H	-1.516	-1.470	-5.210	 H	1	UNK0	0.000	
35	   H	-1.484	-2.254	-2.847	 H	1	UNK0	0.000	
36	   H	0.362	-2.986	0.502	 H	1	UNK0	0.000	
37	   H	-0.783	-3.163	-0.920	 H	1	UNK0	0.000	
38	   H	-1.882	-1.168	-0.391	 H	1	UNK0	0.000	
39	   H	-1.373	-2.927	1.727	 H	1	UNK0	0.000	
40	   H	0.110	-1.008	1.954	 H	1	UNK0	0.000	
41	   H	0.074	0.124	0.605	 H	1	UNK0	0.000	
42	   H	-1.628	-0.064	2.896	 H	1	UNK0	0.000	
43	   H	-0.319	1.629	3.252	 H	1	UNK0	0.000	
44	   H	0.062	1.726	1.524	 H	1	UNK0	0.000	
45	   H	-2.583	2.834	2.617	 H	1	UNK0	0.000	
46	   H	-1.023	3.732	2.197	 H	1	UNK0	0.000	
47	   H	-1.095	2.659	0.061	 H	1	UNK0	0.000	
48	   H	-2.350	3.731	0.358	 H	1	UNK0	0.000	
49	   H	-3.930	2.184	0.458	 H	1	UNK0	0.000	
50	   H	-2.818	1.403	-0.660	 H	1	UNK0	0.000	
51	   H	-3.476	0.855	2.221	 H	1	UNK0	0.000	
52	   H	-3.155	-0.339	0.970	 H	1	UNK0	0.000	
53	   H	2.270	-1.662	1.213	 H	1	UNK0	0.000	
54	   H	4.481	-0.533	1.306	 H	1	UNK0	0.000	
@<TRIPOS>BOND
1 1 2 1
2 2 3 2
3 2 24 1
4 3 4 1
5 4 5 2
6 4 8 1
7 5 6 1
8 5 23 1
9 6 7 1
10 6 13 1
11 7 8 2
12 7 12 1
13 8 9 1
14 9 10 2
15 10 11 1
16 11 12 2
17 13 14 1
18 14 15 1
19 14 16 1
20 16 17 1
21 17 18 1
22 17 22 1
23 18 19 1
24 19 20 1
25 20 21 1
26 21 22 1
27 23 24 2
28 25 26 1
29 26 27 2
30 26 28 1
31 28 29 2
32 28 30 1
33 3 31 1
34 9 32 1
35 10 33 1
36 11 34 1
37 12 35 1
38 13 36 1
39 13 37 1
40 14 38 1
41 15 39 1
42 16 40 1
43 16 41 1
44 17 42 1
45 18 43 1
46 18 44 1
47 19 45 1
48 19 46 1
49 20 47 1
50 20 48 1
51 21 49 1
52 21 50 1
53 22 51 1
54 22 52 1
55 23 53 1
56 24 54 1
@<TRIPOS>SUBSTRUCTURE
1	UNK0	1	GROUP	1 ****	UNK
