# created with PyMOL 2.3.2
@<TRIPOS>MOLECULE
616
50 53 1                 
SMALL
USER_CHARGES
@<TRIPOS>ATOM
1	  Br	-4.734	3.542	-7.120	Br	1	UNK0	0.000	
2	   C	-3.989	2.959	-5.451	C.2	1	UNK0	0.000	
3	   C	-2.761	3.387	-5.017	C.2	1	UNK0	0.000	
4	   C	-2.225	2.957	-3.800	C.2	1	UNK0	0.000	
5	   C	-2.933	2.089	-3.015	C.2	1	UNK0	0.000	
6	   N	-2.197	1.826	-1.891	N.pl3	1	UNK0	0.000	
7	   C	-1.036	2.486	-1.909	C.2	1	UNK0	0.000	
8	   C	-1.061	3.206	-3.130	C.2	1	UNK0	0.000	
9	   C	0.071	2.531	-0.974	C.2	1	UNK0	0.000	
10	   O	1.077	3.289	-1.251	O.2	1	UNK0	0.000	
11	   N	0.161	1.820	0.223	N.pl3	1	UNK0	0.000	
12	   C	-0.814	0.902	0.747	C.3	1	UNK0	0.000	
13	   C	-0.354	0.257	2.061	C.3	1	UNK0	0.000	
14	   N	1.008	-0.224	1.888	N.pl3	1	UNK0	0.000	
15	   C	1.994	0.614	1.204	C.3	1	UNK0	0.000	
16	   C	1.358	2.002	1.087	C.3	1	UNK0	0.000	
17	   C	1.402	-1.493	2.366	C.2	1	UNK0	0.000	
18	   O	0.528	-2.185	2.941	O.2	1	UNK0	0.000	
19	   C	2.774	-1.935	2.173	C.3	1	UNK0	0.000	
20	   N	3.069	-3.256	2.682	N.3	1	UNK0	0.000	
21	   C	4.502	-3.516	2.527	C.3	1	UNK0	0.000	
22	   C	4.775	-4.296	1.288	C.3	1	UNK0	0.000	
23	   O	3.901	-3.925	0.269	O.3	1	UNK0	0.000	
24	   C	2.598	-4.349	0.540	C.3	1	UNK0	0.000	
25	   C	2.305	-4.300	2.022	C.3	1	UNK0	0.000	
26	   C	-4.172	1.653	-3.445	C.2	1	UNK0	0.000	
27	   C	-4.696	2.085	-4.655	C.2	1	UNK0	0.000	
28	   H	-2.180	4.074	-5.617	 H	1	UNK0	0.000	
29	   H	-2.555	1.193	-1.161	 H	1	UNK0	0.000	
30	   H	-0.278	3.850	-3.471	 H	1	UNK0	0.000	
31	   H	-0.937	0.090	-0.020	 H	1	UNK0	0.000	
32	   H	-1.749	1.426	0.998	 H	1	UNK0	0.000	
33	   H	-0.373	0.989	2.888	 H	1	UNK0	0.000	
34	   H	-1.031	-0.566	2.280	 H	1	UNK0	0.000	
35	   H	2.926	0.708	1.804	 H	1	UNK0	0.000	
36	   H	2.225	0.269	0.190	 H	1	UNK0	0.000	
37	   H	1.057	2.391	2.069	 H	1	UNK0	0.000	
38	   H	2.053	2.697	0.617	 H	1	UNK0	0.000	
39	   H	3.437	-1.232	2.750	 H	1	UNK0	0.000	
40	   H	3.122	-1.876	1.120	 H	1	UNK0	0.000	
41	   H	5.036	-2.538	2.454	 H	1	UNK0	0.000	
42	   H	4.854	-4.034	3.441	 H	1	UNK0	0.000	
43	   H	5.802	-4.036	0.943	 H	1	UNK0	0.000	
44	   H	4.702	-5.401	1.438	 H	1	UNK0	0.000	
45	   H	1.907	-3.774	-0.080	 H	1	UNK0	0.000	
46	   H	2.531	-5.409	0.223	 H	1	UNK0	0.000	
47	   H	1.243	-4.198	2.186	 H	1	UNK0	0.000	
48	   H	2.652	-5.259	2.460	 H	1	UNK0	0.000	
49	   H	-4.736	0.959	-2.816	 H	1	UNK0	0.000	
50	   H	-5.679	1.742	-4.999	 H	1	UNK0	0.000	
@<TRIPOS>BOND
1 1 2 1
2 2 3 2
3 2 27 1
4 3 4 1
5 4 5 2
6 4 8 1
7 5 6 1
8 5 26 1
9 6 7 1
10 7 8 2
11 7 9 1
12 9 10 2
13 9 11 1
14 11 12 1
15 11 16 1
16 12 13 1
17 13 14 1
18 14 15 1
19 14 17 1
20 15 16 1
21 17 18 2
22 17 19 1
23 19 20 1
24 20 21 1
25 20 25 1
26 21 22 1
27 22 23 1
28 23 24 1
29 24 25 1
30 26 27 2
31 3 28 1
32 6 29 1
33 8 30 1
34 12 31 1
35 12 32 1
36 13 33 1
37 13 34 1
38 15 35 1
39 15 36 1
40 16 37 1
41 16 38 1
42 19 39 1
43 19 40 1
44 21 41 1
45 21 42 1
46 22 43 1
47 22 44 1
48 24 45 1
49 24 46 1
50 25 47 1
51 25 48 1
52 26 49 1
53 27 50 1
@<TRIPOS>SUBSTRUCTURE
1	UNK0	1	GROUP	1 ****	UNK
