# created with PyMOL 2.3.2
@<TRIPOS>MOLECULE
618
43 46 1                 
SMALL
USER_CHARGES
@<TRIPOS>ATOM
1	  Br	-5.394	-3.390	-2.191	Br	1	UNK0	0.000	
2	   C	-4.455	-2.351	-0.904	C.2	1	UNK0	0.000	
3	   C	-3.078	-2.231	-0.909	C.2	1	UNK0	0.000	
4	   C	-2.416	-1.472	0.032	C.2	1	UNK0	0.000	
5	   C	-3.111	-0.795	1.029	C.2	1	UNK0	0.000	
6	   O	-2.279	-0.152	1.800	O.3	1	UNK0	0.000	
7	   C	-1.043	-0.328	1.416	C.2	1	UNK0	0.000	
8	   C	-1.076	-1.155	0.299	C.2	1	UNK0	0.000	
9	   C	0.085	-1.596	-0.478	C.3	1	UNK0	0.000	
10	   N	0.201	-0.840	-1.720	N.pl3	1	UNK0	0.000	
11	   C	0.851	0.356	-1.755	C.2	1	UNK0	0.000	
12	   C	1.022	1.100	-2.901	C.2	1	UNK0	0.000	
13	   C	0.526	0.650	-4.100	C.2	1	UNK0	0.000	
14	   C	-0.132	-0.553	-4.087	C.2	1	UNK0	0.000	
15	   C	-0.280	-1.273	-2.896	C.2	1	UNK0	0.000	
16	   C	0.696	1.395	-5.252	C.2	1	UNK0	0.000	
17	   C	1.359	2.605	-5.259	C.2	1	UNK0	0.000	
18	   C	1.853	3.047	-4.049	C.2	1	UNK0	0.000	
19	   C	1.690	2.314	-2.895	C.2	1	UNK0	0.000	
20	   C	0.151	0.232	2.041	C.2	1	UNK0	0.000	
21	   O	1.317	0.053	1.701	O.co2	1	UNK0	0.000	
22	   O	0.013	1.083	3.167	O.3	1	UNK0	0.000	
23	   C	1.113	1.654	3.816	C.3	1	UNK0	0.000	
24	   C	2.089	0.690	4.388	C.3	1	UNK0	0.000	
25	   C	-4.501	-0.915	1.034	C.2	1	UNK0	0.000	
26	   C	-5.139	-1.678	0.084	C.2	1	UNK0	0.000	
27	   H	-2.516	-2.756	-1.655	 H	1	UNK0	0.000	
28	   H	1.032	-1.549	0.088	 H	1	UNK0	0.000	
29	   H	-0.070	-2.660	-0.807	 H	1	UNK0	0.000	
30	   H	1.259	0.755	-0.848	 H	1	UNK0	0.000	
31	   H	-0.531	-0.930	-5.019	 H	1	UNK0	0.000	
32	   H	-0.787	-2.223	-2.963	 H	1	UNK0	0.000	
33	   H	0.305	1.040	-6.196	 H	1	UNK0	0.000	
34	   H	1.503	3.204	-6.152	 H	1	UNK0	0.000	
35	   H	2.376	4.006	-4.062	 H	1	UNK0	0.000	
36	   H	2.083	2.676	-1.962	 H	1	UNK0	0.000	
37	   H	0.761	2.343	4.605	 H	1	UNK0	0.000	
38	   H	1.660	2.278	3.061	 H	1	UNK0	0.000	
39	   H	2.272	-0.217	3.812	 H	1	UNK0	0.000	
40	   H	1.679	0.345	5.382	 H	1	UNK0	0.000	
41	   H	3.013	1.247	4.649	 H	1	UNK0	0.000	
42	   H	-5.040	-0.383	1.817	 H	1	UNK0	0.000	
43	   H	-6.235	-1.743	0.127	 H	1	UNK0	0.000	
@<TRIPOS>BOND
1 1 2 1
2 2 3 2
3 2 26 1
4 3 4 1
5 4 5 2
6 4 8 1
7 5 6 1
8 5 25 1
9 6 7 1
10 7 8 2
11 7 20 1
12 8 9 1
13 9 10 1
14 10 11 2
15 10 15 1
16 11 12 1
17 12 13 2
18 12 19 1
19 13 14 1
20 13 16 1
21 14 15 2
22 16 17 2
23 17 18 1
24 18 19 2
25 20 21 2
26 20 22 1
27 22 23 1
28 23 24 1
29 25 26 2
30 3 27 1
31 9 28 1
32 9 29 1
33 11 30 1
34 14 31 1
35 15 32 1
36 16 33 1
37 17 34 1
38 18 35 1
39 19 36 1
40 23 37 1
41 23 38 1
42 24 39 1
43 24 40 1
44 24 41 1
45 25 42 1
46 26 43 1
@<TRIPOS>SUBSTRUCTURE
1	UNK0	1	GROUP	1 ****	UNK
