# created with PyMOL 2.3.2
@<TRIPOS>MOLECULE
619
49 52 1                 
SMALL
USER_CHARGES
@<TRIPOS>ATOM
1	  Br	0.223	7.170	-4.315	Br	1	UNK0	0.000	
2	   C	-0.026	5.453	-3.526	C.2	1	UNK0	0.000	
3	   C	-0.651	5.282	-2.308	C.2	1	UNK0	0.000	
4	   C	-0.796	4.018	-1.770	C.2	1	UNK0	0.000	
5	   C	-0.315	2.880	-2.444	C.2	1	UNK0	0.000	
6	   O	-0.580	1.823	-1.719	O.3	1	UNK0	0.000	
7	   C	-1.188	2.102	-0.623	C.2	1	UNK0	0.000	
8	   C	-1.352	3.490	-0.605	C.2	1	UNK0	0.000	
9	   C	-1.986	4.288	0.447	C.3	1	UNK0	0.000	
10	   C	-1.668	1.208	0.490	C.2	1	UNK0	0.000	
11	   O	-2.709	1.727	1.072	O.2	1	UNK0	0.000	
12	   N	-1.067	0.060	0.801	N.pl3	1	UNK0	0.000	
13	   C	-0.457	-1.109	1.119	C.3	1	UNK0	0.000	
14	   C	0.249	-2.275	1.356	C.3	1	UNK0	0.000	
15	   N	0.345	-3.168	0.198	N.4	1	UNK0	0.000	
16	   C	1.639	-3.295	-0.353	C.3	1	UNK0	0.000	
17	   C	1.792	-3.363	-1.812	C.3	1	UNK0	0.000	
18	   O	0.682	-3.595	-2.586	O.3	1	UNK0	0.000	
19	   C	-0.495	-3.752	-1.930	C.3	1	UNK0	0.000	
20	   C	-0.573	-2.694	-0.851	C.3	1	UNK0	0.000	
21	   C	1.576	-2.141	2.043	C.2	1	UNK0	0.000	
22	   O	2.444	-3.073	2.287	O.3	1	UNK0	0.000	
23	   C	3.494	-2.626	2.902	C.2	1	UNK0	0.000	
24	   C	3.332	-1.249	3.097	C.2	1	UNK0	0.000	
25	   C	2.088	-0.968	2.533	C.2	1	UNK0	0.000	
26	   C	0.296	3.109	-3.654	C.2	1	UNK0	0.000	
27	   C	0.463	4.352	-4.229	C.2	1	UNK0	0.000	
28	   H	-1.028	6.128	-1.769	 H	1	UNK0	0.000	
29	   H	-1.915	5.384	0.215	 H	1	UNK0	0.000	
30	   H	-3.094	4.071	0.506	 H	1	UNK0	0.000	
31	   H	-1.580	4.035	1.451	 H	1	UNK0	0.000	
32	   H	-2.123	-0.227	1.663	 H	1	UNK0	0.000	
33	   H	-0.169	-0.589	2.350	 H	1	UNK0	0.000	
34	   H	0.763	-0.422	0.851	 H	1	UNK0	0.000	
35	   H	-0.331	-2.908	2.154	 H	1	UNK0	0.000	
36	   H	-0.016	-4.105	0.464	 H	1	UNK0	0.000	
37	   H	2.095	-4.245	0.072	 H	1	UNK0	0.000	
38	   H	2.270	-2.453	0.065	 H	1	UNK0	0.000	
39	   H	2.246	-2.414	-2.184	 H	1	UNK0	0.000	
40	   H	2.537	-4.162	-2.129	 H	1	UNK0	0.000	
41	   H	-0.639	-4.751	-1.432	 H	1	UNK0	0.000	
42	   H	-1.336	-3.558	-2.638	 H	1	UNK0	0.000	
43	   H	-1.613	-2.668	-0.475	 H	1	UNK0	0.000	
44	   H	-0.230	-1.765	-1.323	 H	1	UNK0	0.000	
45	   H	4.399	-3.159	3.248	 H	1	UNK0	0.000	
46	   H	4.042	-0.604	3.577	 H	1	UNK0	0.000	
47	   H	1.700	0.060	2.545	 H	1	UNK0	0.000	
48	   H	0.681	2.256	-4.223	 H	1	UNK0	0.000	
49	   H	0.939	4.494	-5.189	 H	1	UNK0	0.000	
@<TRIPOS>BOND
1 1 2 1
2 2 3 2
3 2 27 1
4 3 4 1
5 4 5 2
6 4 8 1
7 5 6 1
8 5 26 1
9 6 7 1
10 7 8 2
11 7 10 1
12 8 9 1
13 10 11 2
14 10 12 1
15 12 13 1
16 13 14 1
17 14 15 1
18 14 21 1
19 15 16 1
20 15 20 1
21 16 17 1
22 17 18 1
23 18 19 1
24 19 20 1
25 21 22 1
26 21 25 2
27 22 23 1
28 23 24 2
29 24 25 1
30 26 27 2
31 3 28 1
32 9 29 1
33 9 30 1
34 9 31 1
35 12 32 1
36 13 33 1
37 13 34 1
38 14 35 1
39 15 36 1
40 16 37 1
41 16 38 1
42 17 39 1
43 17 40 1
44 19 41 1
45 19 42 1
46 20 43 1
47 20 44 1
48 23 45 1
49 24 46 1
50 25 47 1
51 26 48 1
52 27 49 1
@<TRIPOS>SUBSTRUCTURE
1	UNK0	1	GROUP	1 ****	UNK
