# created with PyMOL 2.3.2
@<TRIPOS>MOLECULE
620
51 54 1                 
SMALL
USER_CHARGES
@<TRIPOS>ATOM
1	  Br	-7.040	4.598	-2.835	Br	1	UNK0	0.000	
2	   C	-5.353	4.066	-2.109	C.2	1	UNK0	0.000	
3	   C	-5.345	3.463	-0.875	C.2	1	UNK0	0.000	
4	   C	-4.147	3.061	-0.311	C.2	1	UNK0	0.000	
5	   C	-2.990	3.284	-1.018	C.2	1	UNK0	0.000	
6	   O	-2.006	2.830	-0.299	O.3	1	UNK0	0.000	
7	   C	-2.411	2.318	0.836	C.2	1	UNK0	0.000	
8	   C	-3.790	2.450	0.863	C.2	1	UNK0	0.000	
9	   C	-4.703	2.027	1.924	C.3	1	UNK0	0.000	
10	   C	-1.569	1.727	1.863	C.2	1	UNK0	0.000	
11	   O	-2.172	1.278	2.901	O.2	1	UNK0	0.000	
12	   N	-0.178	1.590	1.854	N.pl3	1	UNK0	0.000	
13	   C	0.659	2.045	0.769	C.3	1	UNK0	0.000	
14	   C	1.123	0.762	0.054	C.3	1	UNK0	0.000	
15	   N	1.755	-0.054	1.064	N.pl3	1	UNK0	0.000	
16	   C	1.845	0.359	2.449	C.3	1	UNK0	0.000	
17	   C	0.556	0.959	2.951	C.3	1	UNK0	0.000	
18	   C	2.310	-1.322	0.693	C.2	1	UNK0	0.000	
19	   O	2.849	-1.982	1.602	O.2	1	UNK0	0.000	
20	   C	2.258	-1.826	-0.651	C.2	1	UNK0	0.000	
21	   O	1.663	-1.107	-1.553	O.2	1	UNK0	0.000	
22	   N	2.781	-3.024	-1.121	N.pl3	1	UNK0	0.000	
23	   C	3.502	-3.978	-0.324	C.3	1	UNK0	0.000	
24	   C	2.534	-5.162	-0.149	C.3	1	UNK0	0.000	
25	   O	1.738	-5.288	-1.265	O.3	1	UNK0	0.000	
26	   C	2.357	-4.936	-2.461	C.3	1	UNK0	0.000	
27	   C	2.617	-3.441	-2.534	C.3	1	UNK0	0.000	
28	   C	-3.020	3.902	-2.277	C.2	1	UNK0	0.000	
29	   C	-4.209	4.303	-2.842	C.2	1	UNK0	0.000	
30	   H	-6.234	3.273	-0.297	 H	1	UNK0	0.000	
31	   H	-5.725	1.939	1.520	 H	1	UNK0	0.000	
32	   H	-4.416	1.023	2.297	 H	1	UNK0	0.000	
33	   H	-4.713	2.762	2.771	 H	1	UNK0	0.000	
34	   H	1.627	2.440	1.215	 H	1	UNK0	0.000	
35	   H	0.217	2.760	0.086	 H	1	UNK0	0.000	
36	   H	0.237	0.211	-0.312	 H	1	UNK0	0.000	
37	   H	1.815	1.030	-0.772	 H	1	UNK0	0.000	
38	   H	2.652	1.110	2.556	 H	1	UNK0	0.000	
39	   H	2.107	-0.497	3.098	 H	1	UNK0	0.000	
40	   H	0.735	1.741	3.711	 H	1	UNK0	0.000	
41	   H	-0.126	0.214	3.397	 H	1	UNK0	0.000	
42	   H	3.874	-3.626	0.626	 H	1	UNK0	0.000	
43	   H	4.347	-4.353	-0.984	 H	1	UNK0	0.000	
44	   H	3.128	-6.090	-0.054	 H	1	UNK0	0.000	
45	   H	1.939	-4.961	0.749	 H	1	UNK0	0.000	
46	   H	3.295	-5.483	-2.627	 H	1	UNK0	0.000	
47	   H	1.639	-5.180	-3.271	 H	1	UNK0	0.000	
48	   H	3.566	-3.297	-3.073	 H	1	UNK0	0.000	
49	   H	1.829	-2.893	-3.042	 H	1	UNK0	0.000	
50	   H	-2.099	4.073	-2.824	 H	1	UNK0	0.000	
51	   H	-4.263	4.785	-3.816	 H	1	UNK0	0.000	
@<TRIPOS>BOND
1 1 2 1
2 2 3 2
3 2 29 1
4 3 4 1
5 4 5 2
6 4 8 1
7 5 6 1
8 5 28 1
9 6 7 1
10 7 8 2
11 7 10 1
12 8 9 1
13 10 11 2
14 10 12 1
15 12 13 1
16 12 17 1
17 13 14 1
18 14 15 1
19 15 16 1
20 15 18 1
21 16 17 1
22 18 19 2
23 18 20 1
24 20 21 2
25 20 22 1
26 22 23 1
27 22 27 1
28 23 24 1
29 24 25 1
30 25 26 1
31 26 27 1
32 28 29 2
33 3 30 1
34 9 31 1
35 9 32 1
36 9 33 1
37 13 34 1
38 13 35 1
39 14 36 1
40 14 37 1
41 16 38 1
42 16 39 1
43 17 40 1
44 17 41 1
45 23 42 1
46 23 43 1
47 24 44 1
48 24 45 1
49 26 46 1
50 26 47 1
51 27 48 1
52 27 49 1
53 28 50 1
54 29 51 1
@<TRIPOS>SUBSTRUCTURE
1	UNK0	1	GROUP	1 ****	UNK
