# created with PyMOL 2.3.2
@<TRIPOS>MOLECULE
621
55 59 1                 
SMALL
USER_CHARGES
@<TRIPOS>ATOM
1	  Br	0.208	5.842	5.072	Br	1	UNK0	0.000	
2	   C	-1.021	4.738	4.124	C.2	1	UNK0	0.000	
3	   C	-1.137	4.769	2.761	C.2	1	UNK0	0.000	
4	   C	-2.045	3.939	2.083	C.2	1	UNK0	0.000	
5	   C	-2.869	3.055	2.741	C.2	1	UNK0	0.000	
6	   O	-3.599	2.420	1.819	O.3	1	UNK0	0.000	
7	   C	-3.343	2.781	0.651	C.2	1	UNK0	0.000	
8	   C	-2.326	3.787	0.758	C.2	1	UNK0	0.000	
9	   C	-3.772	2.485	-0.740	C.2	1	UNK0	0.000	
10	   C	-2.917	1.873	-1.558	C.2	1	UNK0	0.000	
11	   O	-1.656	1.418	-1.310	O.3	1	UNK0	0.000	
12	   C	-1.049	0.846	-2.409	C.2	1	UNK0	0.000	
13	   C	-1.934	0.922	-3.458	C.2	1	UNK0	0.000	
14	   C	-1.579	0.410	-4.709	C.2	1	UNK0	0.000	
15	   C	-0.330	-0.184	-4.892	C.2	1	UNK0	0.000	
16	   C	0.535	-0.242	-3.791	C.2	1	UNK0	0.000	
17	   C	0.205	0.258	-2.543	C.2	1	UNK0	0.000	
18	   C	1.142	0.202	-1.422	C.3	1	UNK0	0.000	
19	   N	0.696	-0.630	-0.342	N.4	1	UNK0	0.000	
20	   C	0.041	-1.831	-0.583	C.3	1	UNK0	0.000	
21	   C	0.872	-3.044	-0.722	C.3	1	UNK0	0.000	
22	   N	1.965	-3.075	0.192	N.3	1	UNK0	0.000	
23	   C	2.713	-1.862	0.272	C.3	1	UNK0	0.000	
24	   C	1.759	-0.753	0.628	C.3	1	UNK0	0.000	
25	   C	2.756	-4.274	0.129	C.3	1	UNK0	0.000	
26	   C	3.507	-4.384	-1.181	C.3	1	UNK0	0.000	
27	   O	4.257	-5.581	-1.145	O.3	1	UNK0	0.000	
28	   O	1.778	-0.837	-4.060	O.2	1	UNK0	0.000	
29	   C	-3.149	1.560	-3.008	C.2	1	UNK0	0.000	
30	   O	-4.201	1.819	-3.632	O.2	1	UNK0	0.000	
31	   C	-2.756	3.023	4.106	C.2	1	UNK0	0.000	
32	   C	-1.867	3.833	4.760	C.2	1	UNK0	0.000	
33	   H	-0.550	5.431	2.158	 H	1	UNK0	0.000	
34	   H	-1.897	4.301	-0.078	 H	1	UNK0	0.000	
35	   H	-4.749	2.737	-1.083	 H	1	UNK0	0.000	
36	   H	-2.233	0.433	-5.551	 H	1	UNK0	0.000	
37	   H	-0.054	-0.598	-5.877	 H	1	UNK0	0.000	
38	   H	2.021	-0.455	-1.848	 H	1	UNK0	0.000	
39	   H	1.611	1.091	-1.112	 H	1	UNK0	0.000	
40	   H	-0.025	-0.015	0.232	 H	1	UNK0	0.000	
41	   H	-0.682	-2.016	0.282	 H	1	UNK0	0.000	
42	   H	-0.644	-1.785	-1.475	 H	1	UNK0	0.000	
43	   H	0.212	-3.927	-0.445	 H	1	UNK0	0.000	
44	   H	1.151	-3.245	-1.778	 H	1	UNK0	0.000	
45	   H	3.428	-1.942	1.105	 H	1	UNK0	0.000	
46	   H	3.306	-1.638	-0.629	 H	1	UNK0	0.000	
47	   H	1.327	-0.994	1.617	 H	1	UNK0	0.000	
48	   H	2.301	0.200	0.669	 H	1	UNK0	0.000	
49	   H	2.129	-5.153	0.333	 H	1	UNK0	0.000	
50	   H	3.512	-4.206	0.920	 H	1	UNK0	0.000	
51	   H	2.862	-4.450	-2.056	 H	1	UNK0	0.000	
52	   H	4.263	-3.580	-1.267	 H	1	UNK0	0.000	
53	   H	3.983	-6.233	-1.826	 H	1	UNK0	0.000	
54	   H	-3.401	2.310	4.644	 H	1	UNK0	0.000	
55	   H	-1.811	3.764	5.832	 H	1	UNK0	0.000	
@<TRIPOS>BOND
1 1 2 1
2 2 3 2
3 2 32 1
4 3 4 1
5 4 5 2
6 4 8 1
7 5 6 1
8 5 31 1
9 6 7 1
10 7 8 2
11 7 9 1
12 9 10 2
13 10 11 1
14 10 29 1
15 11 12 1
16 12 13 2
17 12 17 1
18 13 14 1
19 13 29 1
20 14 15 2
21 15 16 1
22 16 17 2
23 16 28 1
24 17 18 1
25 18 19 1
26 19 20 1
27 19 24 1
28 20 21 1
29 21 22 1
30 22 23 1
31 22 25 1
32 23 24 1
33 25 26 1
34 26 27 1
35 29 30 2
36 31 32 2
37 3 33 1
38 8 34 1
39 9 35 1
40 14 36 1
41 15 37 1
42 18 38 1
43 18 39 1
44 19 40 1
45 20 41 1
46 20 42 1
47 21 43 1
48 21 44 1
49 23 45 1
50 23 46 1
51 24 47 1
52 24 48 1
53 25 49 1
54 25 50 1
55 26 51 1
56 26 52 1
57 27 53 1
58 31 54 1
59 32 55 1
@<TRIPOS>SUBSTRUCTURE
1	UNK0	1	GROUP	1 ****	UNK
