# created with PyMOL 2.3.2
@<TRIPOS>MOLECULE
623
41 44 1                 
SMALL
USER_CHARGES
@<TRIPOS>ATOM
1	  Br	3.802	-4.663	3.223	Br	1	UNK0	0.000	
2	   C	2.551	-3.821	2.057	C.2	1	UNK0	0.000	
3	   C	2.401	-4.307	0.778	C.2	1	UNK0	0.000	
4	   C	1.480	-3.681	-0.070	C.2	1	UNK0	0.000	
5	   C	0.774	-2.613	0.428	C.2	1	UNK0	0.000	
6	   C	0.905	-2.108	1.703	C.2	1	UNK0	0.000	
7	   C	1.814	-2.728	2.533	C.2	1	UNK0	0.000	
8	   C	0.130	-1.011	2.101	C.2	1	UNK0	0.000	
9	   O	0.258	-0.567	3.252	O.2	1	UNK0	0.000	
10	   C	-0.754	-0.456	1.199	C.2	1	UNK0	0.000	
11	   C	-0.830	-1.013	-0.055	C.2	1	UNK0	0.000	
12	   N	-0.069	-2.090	-0.443	N.pl3	1	UNK0	0.000	
13	   C	0.016	-2.824	-1.681	C.3	1	UNK0	0.000	
14	   C	1.040	-3.893	-1.467	C.3	1	UNK0	0.000	
15	   C	-1.586	0.699	1.582	C.2	1	UNK0	0.000	
16	   O	-2.708	0.560	2.089	O.2	1	UNK0	0.000	
17	   N	-1.068	2.005	1.357	N.pl3	1	UNK0	0.000	
18	   C	-1.824	3.193	1.705	C.3	1	UNK0	0.000	
19	   C	-1.264	4.312	0.818	C.3	1	UNK0	0.000	
20	   N	0.094	4.583	1.184	N.3	1	UNK0	0.000	
21	   C	0.857	3.395	1.517	C.3	1	UNK0	0.000	
22	   C	0.239	2.233	0.768	C.3	1	UNK0	0.000	
23	   C	0.818	5.274	0.134	C.3	1	UNK0	0.000	
24	   H	2.960	-5.145	0.400	 H	1	UNK0	0.000	
25	   H	1.936	-2.353	3.537	 H	1	UNK0	0.000	
26	   H	-1.520	-0.583	-0.763	 H	1	UNK0	0.000	
27	   H	0.310	-2.105	-2.482	 H	1	UNK0	0.000	
28	   H	-0.972	-3.298	-1.943	 H	1	UNK0	0.000	
29	   H	1.893	-3.667	-2.149	 H	1	UNK0	0.000	
30	   H	0.645	-4.917	-1.634	 H	1	UNK0	0.000	
31	   H	-1.554	3.473	2.747	 H	1	UNK0	0.000	
32	   H	-2.900	3.069	1.552	 H	1	UNK0	0.000	
33	   H	-1.912	5.185	1.001	 H	1	UNK0	0.000	
34	   H	-1.364	4.045	-0.253	 H	1	UNK0	0.000	
35	   H	0.720	3.238	2.625	 H	1	UNK0	0.000	
36	   H	1.935	3.507	1.295	 H	1	UNK0	0.000	
37	   H	0.871	1.336	0.764	 H	1	UNK0	0.000	
38	   H	0.142	2.558	-0.304	 H	1	UNK0	0.000	
39	   H	0.588	4.839	-0.879	 H	1	UNK0	0.000	
40	   H	0.598	6.377	0.143	 H	1	UNK0	0.000	
41	   H	1.913	5.107	0.282	 H	1	UNK0	0.000	
@<TRIPOS>BOND
1 1 2 1
2 2 3 2
3 2 7 1
4 3 4 1
5 4 5 2
6 4 14 1
7 5 6 1
8 5 12 1
9 6 7 2
10 6 8 1
11 8 9 2
12 8 10 1
13 10 11 2
14 10 15 1
15 11 12 1
16 12 13 1
17 13 14 1
18 15 16 2
19 15 17 1
20 17 18 1
21 17 22 1
22 18 19 1
23 19 20 1
24 20 21 1
25 20 23 1
26 21 22 1
27 3 24 1
28 7 25 1
29 11 26 1
30 13 27 1
31 13 28 1
32 14 29 1
33 14 30 1
34 18 31 1
35 18 32 1
36 19 33 1
37 19 34 1
38 21 35 1
39 21 36 1
40 22 37 1
41 22 38 1
42 23 39 1
43 23 40 1
44 23 41 1
@<TRIPOS>SUBSTRUCTURE
1	UNK0	1	GROUP	1 ****	UNK
