# created with PyMOL 2.3.2
@<TRIPOS>MOLECULE
624
37 40 1                 
SMALL
USER_CHARGES
@<TRIPOS>ATOM
1	  Br	2.381	5.151	-1.512	Br	1	UNK0	0.000	
2	   C	1.193	4.005	-0.562	C.2	1	UNK0	0.000	
3	   C	0.174	4.567	0.178	C.2	1	UNK0	0.000	
4	   C	-0.716	3.751	0.888	C.2	1	UNK0	0.000	
5	   C	-0.544	2.406	0.823	C.2	1	UNK0	0.000	
6	   C	0.458	1.799	0.098	C.2	1	UNK0	0.000	
7	   C	1.317	2.618	-0.588	C.2	1	UNK0	0.000	
8	   C	0.516	0.431	0.121	C.2	1	UNK0	0.000	
9	   O	1.414	-0.129	-0.529	O.2	1	UNK0	0.000	
10	   C	-0.384	-0.345	0.836	C.2	1	UNK0	0.000	
11	   C	-1.362	0.324	1.540	C.2	1	UNK0	0.000	
12	   N	-1.428	1.694	1.524	N.pl3	1	UNK0	0.000	
13	   C	-2.329	2.631	2.157	C.3	1	UNK0	0.000	
14	   C	-1.880	4.009	1.753	C.3	1	UNK0	0.000	
15	   C	-0.309	-1.802	0.849	C.2	1	UNK0	0.000	
16	   O	0.380	-2.370	1.727	O.2	1	UNK0	0.000	
17	   N	-1.012	-2.582	-0.128	N.pl3	1	UNK0	0.000	
18	   C	-0.954	-4.028	-0.138	C.3	1	UNK0	0.000	
19	   C	-0.511	-4.425	-1.552	C.3	1	UNK0	0.000	
20	   O	-1.341	-3.831	-2.472	O.3	1	UNK0	0.000	
21	   C	-1.270	-2.454	-2.492	C.3	1	UNK0	0.000	
22	   C	-1.815	-1.947	-1.154	C.3	1	UNK0	0.000	
23	   H	0.021	5.634	0.242	 H	1	UNK0	0.000	
24	   H	2.103	2.168	-1.159	 H	1	UNK0	0.000	
25	   H	-2.105	-0.191	2.125	 H	1	UNK0	0.000	
26	   H	-2.249	2.529	3.277	 H	1	UNK0	0.000	
27	   H	-3.387	2.442	1.877	 H	1	UNK0	0.000	
28	   H	-2.695	4.551	1.219	 H	1	UNK0	0.000	
29	   H	-1.541	4.609	2.645	 H	1	UNK0	0.000	
30	   H	-2.009	-4.421	-0.058	 H	1	UNK0	0.000	
31	   H	-0.287	-4.447	0.623	 H	1	UNK0	0.000	
32	   H	-0.539	-5.511	-1.685	 H	1	UNK0	0.000	
33	   H	0.519	-4.089	-1.724	 H	1	UNK0	0.000	
34	   H	-1.972	-2.092	-3.270	 H	1	UNK0	0.000	
35	   H	-0.231	-2.067	-2.642	 H	1	UNK0	0.000	
36	   H	-2.839	-2.416	-1.074	 H	1	UNK0	0.000	
37	   H	-1.834	-0.861	-1.096	 H	1	UNK0	0.000	
@<TRIPOS>BOND
1 1 2 1
2 2 3 2
3 2 7 1
4 3 4 1
5 4 5 2
6 4 14 1
7 5 6 1
8 5 12 1
9 6 7 2
10 6 8 1
11 8 9 2
12 8 10 1
13 10 11 2
14 10 15 1
15 11 12 1
16 12 13 1
17 13 14 1
18 15 16 2
19 15 17 1
20 17 18 1
21 17 22 1
22 18 19 1
23 19 20 1
24 20 21 1
25 21 22 1
26 3 23 1
27 7 24 1
28 11 25 1
29 13 26 1
30 13 27 1
31 14 28 1
32 14 29 1
33 18 30 1
34 18 31 1
35 19 32 1
36 19 33 1
37 21 34 1
38 21 35 1
39 22 36 1
40 22 37 1
@<TRIPOS>SUBSTRUCTURE
1	UNK0	1	GROUP	1 ****	UNK
