# created with PyMOL 2.3.2
@<TRIPOS>MOLECULE
631
43 46 1                 
SMALL
USER_CHARGES
@<TRIPOS>ATOM
1	  Br	-5.976	2.473	-2.695	Br	1	UNK0	0.000	
2	   C	-4.828	2.151	-1.196	C.2	1	UNK0	0.000	
3	   C	-5.008	2.836	0.004	C.2	1	UNK0	0.000	
4	   C	-4.142	2.550	1.034	C.2	1	UNK0	0.000	
5	   N	-4.033	3.015	2.291	N.2	1	UNK0	0.000	
6	   N	-3.016	2.415	2.903	N.pl3	1	UNK0	0.000	
7	   C	-2.414	1.536	2.089	C.2	1	UNK0	0.000	
8	   C	-3.143	1.627	0.887	C.2	1	UNK0	0.000	
9	   C	-2.958	0.949	-0.285	C.2	1	UNK0	0.000	
10	   C	-3.809	1.218	-1.328	C.2	1	UNK0	0.000	
11	   N	-1.309	0.694	2.311	N.pl3	1	UNK0	0.000	
12	   C	-0.000	0.948	1.670	C.3	1	UNK0	0.000	
13	   C	0.485	-0.450	1.321	C.3	1	UNK0	0.000	
14	   C	-0.082	-1.291	2.445	C.3	1	UNK0	0.000	
15	   C	-1.160	-0.494	3.085	C.2	1	UNK0	0.000	
16	   O	-1.813	-0.786	4.096	O.2	1	UNK0	0.000	
17	   C	1.954	-0.363	1.304	C.2	1	UNK0	0.000	
18	   O	2.662	-1.224	1.876	O.2	1	UNK0	0.000	
19	   N	2.552	0.728	0.617	N.pl3	1	UNK0	0.000	
20	   C	3.988	0.885	0.544	C.3	1	UNK0	0.000	
21	   C	4.665	-0.265	-0.171	C.3	1	UNK0	0.000	
22	   C	4.191	-0.368	-1.565	C.2	1	UNK0	0.000	
23	   N	4.768	0.265	-2.599	N.2	1	UNK0	0.000	
24	   C	4.123	-0.023	-3.730	C.2	1	UNK0	0.000	
25	   N	3.101	-0.865	-3.418	N.pl3	1	UNK0	0.000	
26	   C	3.153	-1.068	-2.098	C.2	1	UNK0	0.000	
27	   H	-5.813	3.547	0.045	 H	1	UNK0	0.000	
28	   H	-2.752	2.626	3.885	 H	1	UNK0	0.000	
29	   H	-2.151	0.221	-0.356	 H	1	UNK0	0.000	
30	   H	-3.691	0.699	-2.266	 H	1	UNK0	0.000	
31	   H	-0.142	1.559	0.785	 H	1	UNK0	0.000	
32	   H	0.629	1.463	2.404	 H	1	UNK0	0.000	
33	   H	0.130	-0.772	0.337	 H	1	UNK0	0.000	
34	   H	-0.626	-2.148	1.943	 H	1	UNK0	0.000	
35	   H	0.647	-1.717	3.124	 H	1	UNK0	0.000	
36	   H	1.927	1.423	0.164	 H	1	UNK0	0.000	
37	   H	4.220	1.805	-0.010	 H	1	UNK0	0.000	
38	   H	4.428	0.985	1.560	 H	1	UNK0	0.000	
39	   H	5.748	-0.033	-0.195	 H	1	UNK0	0.000	
40	   H	4.590	-1.222	0.395	 H	1	UNK0	0.000	
41	   H	4.370	0.344	-4.711	 H	1	UNK0	0.000	
42	   H	2.442	-1.237	-4.139	 H	1	UNK0	0.000	
43	   H	2.463	-1.699	-1.566	 H	1	UNK0	0.000	
@<TRIPOS>BOND
1 1 2 1
2 2 3 2
3 2 10 1
4 3 4 1
5 4 5 2
6 4 8 1
7 5 6 1
8 6 7 1
9 7 8 2
10 7 11 1
11 8 9 1
12 9 10 2
13 11 12 1
14 11 15 1
15 12 13 1
16 13 14 1
17 13 17 1
18 14 15 1
19 15 16 2
20 17 18 2
21 17 19 1
22 19 20 1
23 20 21 1
24 21 22 1
25 22 23 1
26 22 26 2
27 23 24 2
28 24 25 1
29 25 26 1
30 3 27 1
31 6 28 1
32 9 29 1
33 10 30 1
34 12 31 1
35 12 32 1
36 13 33 1
37 14 34 1
38 14 35 1
39 19 36 1
40 20 37 1
41 20 38 1
42 21 39 1
43 21 40 1
44 24 41 1
45 25 42 1
46 26 43 1
@<TRIPOS>SUBSTRUCTURE
1	UNK0	1	GROUP	1 ****	UNK
