# created with PyMOL 2.3.2
@<TRIPOS>MOLECULE
633
37 40 1                 
SMALL
USER_CHARGES
@<TRIPOS>ATOM
1	  Br	-2.894	-6.500	2.447	Br	1	UNK0	0.000	
2	   C	-2.069	-5.055	1.486	C.2	1	UNK0	0.000	
3	   C	-0.706	-4.857	1.503	C.2	1	UNK0	0.000	
4	   C	-0.152	-3.805	0.798	C.2	1	UNK0	0.000	
5	   N	1.112	-3.375	0.632	N.2	1	UNK0	0.000	
6	   N	1.135	-2.304	-0.148	N.pl3	1	UNK0	0.000	
7	   C	-0.110	-1.975	-0.536	C.2	1	UNK0	0.000	
8	   C	-0.927	-2.924	0.062	C.2	1	UNK0	0.000	
9	   C	-2.279	-3.121	0.047	C.2	1	UNK0	0.000	
10	   C	-2.841	-4.175	0.752	C.2	1	UNK0	0.000	
11	   N	-0.533	-0.888	-1.382	N.pl3	1	UNK0	0.000	
12	   C	-0.177	-0.631	-2.749	C.3	1	UNK0	0.000	
13	   C	-0.264	0.865	-2.938	C.3	1	UNK0	0.000	
14	   C	-1.390	1.247	-2.004	C.3	1	UNK0	0.000	
15	   C	-1.412	0.170	-1.017	C.2	1	UNK0	0.000	
16	   O	-2.116	0.146	0.048	O.2	1	UNK0	0.000	
17	   C	0.948	1.569	-2.520	C.2	1	UNK0	0.000	
18	   O	1.599	2.258	-3.340	O.2	1	UNK0	0.000	
19	   N	1.403	1.485	-1.191	N.pl3	1	UNK0	0.000	
20	   C	2.595	2.160	-0.718	C.3	1	UNK0	0.000	
21	   C	2.675	2.650	0.680	C.3	1	UNK0	0.000	
22	   C	3.444	1.408	0.300	C.3	1	UNK0	0.000	
23	   H	-0.109	-5.550	2.079	 H	1	UNK0	0.000	
24	   H	1.998	-1.760	-0.445	 H	1	UNK0	0.000	
25	   H	-2.888	-2.431	-0.530	 H	1	UNK0	0.000	
26	   H	-3.932	-4.305	0.718	 H	1	UNK0	0.000	
27	   H	0.815	-1.038	-3.024	 H	1	UNK0	0.000	
28	   H	-0.993	-1.073	-3.380	 H	1	UNK0	0.000	
29	   H	-0.561	1.120	-3.990	 H	1	UNK0	0.000	
30	   H	-2.351	1.359	-2.556	 H	1	UNK0	0.000	
31	   H	-1.147	2.224	-1.497	 H	1	UNK0	0.000	
32	   H	0.870	0.916	-0.508	 H	1	UNK0	0.000	
33	   H	3.135	2.754	-1.490	 H	1	UNK0	0.000	
34	   H	3.300	3.562	0.857	 H	1	UNK0	0.000	
35	   H	1.832	2.512	1.379	 H	1	UNK0	0.000	
36	   H	4.555	1.506	0.224	 H	1	UNK0	0.000	
37	   H	3.073	0.430	0.678	 H	1	UNK0	0.000	
@<TRIPOS>BOND
1 1 2 1
2 2 3 2
3 2 10 1
4 3 4 1
5 4 5 2
6 4 8 1
7 5 6 1
8 6 7 1
9 7 8 2
10 7 11 1
11 8 9 1
12 9 10 2
13 11 12 1
14 11 15 1
15 12 13 1
16 13 14 1
17 13 17 1
18 14 15 1
19 15 16 2
20 17 18 2
21 17 19 1
22 19 20 1
23 20 21 1
24 20 22 1
25 21 22 1
26 3 23 1
27 6 24 1
28 9 25 1
29 10 26 1
30 12 27 1
31 12 28 1
32 13 29 1
33 14 30 1
34 14 31 1
35 19 32 1
36 20 33 1
37 21 34 1
38 21 35 1
39 22 36 1
40 22 37 1
@<TRIPOS>SUBSTRUCTURE
1	UNK0	1	GROUP	1 ****	UNK
