# created with PyMOL 2.3.2
@<TRIPOS>MOLECULE
634
41 44 1                 
SMALL
USER_CHARGES
@<TRIPOS>ATOM
1	  Br	0.670	-3.611	-6.154	Br	1	UNK0	0.000	
2	   C	0.792	-2.667	-4.498	C.2	1	UNK0	0.000	
3	   C	1.488	-3.279	-3.459	C.2	1	UNK0	0.000	
4	   C	1.590	-2.619	-2.252	C.2	1	UNK0	0.000	
5	   N	2.186	-2.935	-1.065	N.2	1	UNK0	0.000	
6	   N	1.985	-1.945	-0.213	N.pl3	1	UNK0	0.000	
7	   C	1.261	-0.954	-0.801	C.2	1	UNK0	0.000	
8	   C	1.012	-1.371	-2.072	C.2	1	UNK0	0.000	
9	   C	0.324	-0.770	-3.102	C.2	1	UNK0	0.000	
10	   C	0.226	-1.428	-4.298	C.2	1	UNK0	0.000	
11	   N	0.845	0.257	-0.223	N.pl3	1	UNK0	0.000	
12	   C	-0.394	0.978	-0.197	C.3	1	UNK0	0.000	
13	   C	-0.420	1.489	1.231	C.3	1	UNK0	0.000	
14	   C	0.965	2.064	1.349	C.3	1	UNK0	0.000	
15	   C	1.751	1.078	0.553	C.2	1	UNK0	0.000	
16	   O	3.007	1.011	0.588	O.2	1	UNK0	0.000	
17	   C	-0.589	0.321	2.119	C.2	1	UNK0	0.000	
18	   O	0.449	-0.126	2.716	O.2	1	UNK0	0.000	
19	   N	-1.808	-0.353	2.366	N.pl3	1	UNK0	0.000	
20	   C	-3.095	0.020	1.830	C.3	1	UNK0	0.000	
21	   C	-4.006	0.370	2.984	C.3	1	UNK0	0.000	
22	   O	-3.740	-0.393	4.081	O.3	1	UNK0	0.000	
23	   C	-3.210	-1.629	3.817	C.3	1	UNK0	0.000	
24	   C	-1.826	-1.557	3.218	C.3	1	UNK0	0.000	
25	   H	1.939	-4.245	-3.589	 H	1	UNK0	0.000	
26	   H	2.304	-1.856	0.785	 H	1	UNK0	0.000	
27	   H	-0.109	0.205	-2.914	 H	1	UNK0	0.000	
28	   H	-0.310	-0.957	-5.096	 H	1	UNK0	0.000	
29	   H	-0.326	1.895	-0.841	 H	1	UNK0	0.000	
30	   H	-1.283	0.391	-0.343	 H	1	UNK0	0.000	
31	   H	-1.213	2.250	1.376	 H	1	UNK0	0.000	
32	   H	1.316	2.169	2.379	 H	1	UNK0	0.000	
33	   H	0.991	3.017	0.765	 H	1	UNK0	0.000	
34	   H	-3.061	0.837	1.082	 H	1	UNK0	0.000	
35	   H	-3.550	-0.841	1.301	 H	1	UNK0	0.000	
36	   H	-5.088	0.288	2.671	 H	1	UNK0	0.000	
37	   H	-3.825	1.435	3.241	 H	1	UNK0	0.000	
38	   H	-3.096	-2.168	4.794	 H	1	UNK0	0.000	
39	   H	-3.885	-2.290	3.208	 H	1	UNK0	0.000	
40	   H	-1.028	-1.540	3.962	 H	1	UNK0	0.000	
41	   H	-1.747	-2.410	2.495	 H	1	UNK0	0.000	
@<TRIPOS>BOND
1 1 2 1
2 2 3 2
3 2 10 1
4 3 4 1
5 4 5 2
6 4 8 1
7 5 6 1
8 6 7 1
9 7 8 2
10 7 11 1
11 8 9 1
12 9 10 2
13 11 12 1
14 11 15 1
15 12 13 1
16 13 14 1
17 13 17 1
18 14 15 1
19 15 16 2
20 17 18 2
21 17 19 1
22 19 20 1
23 19 24 1
24 20 21 1
25 21 22 1
26 22 23 1
27 23 24 1
28 3 25 1
29 6 26 1
30 9 27 1
31 10 28 1
32 12 29 1
33 12 30 1
34 13 31 1
35 14 32 1
36 14 33 1
37 20 34 1
38 20 35 1
39 21 36 1
40 21 37 1
41 23 38 1
42 23 39 1
43 24 40 1
44 24 41 1
@<TRIPOS>SUBSTRUCTURE
1	UNK0	1	GROUP	1 ****	UNK
