# created with PyMOL 2.3.2
@<TRIPOS>MOLECULE
636
52 55 1                 
SMALL
USER_CHARGES
@<TRIPOS>ATOM
1	  Br	-1.459	2.343	-5.974	Br	1	UNK0	0.000	
2	   C	-0.494	2.504	-4.325	C.2	1	UNK0	0.000	
3	   C	-0.916	3.336	-3.324	C.2	1	UNK0	0.000	
4	   C	-0.230	3.471	-2.118	C.2	1	UNK0	0.000	
5	   N	-0.438	4.198	-1.021	N.pl3	1	UNK0	0.000	
6	   N	0.514	3.961	-0.152	N.2	1	UNK0	0.000	
7	   C	1.406	3.052	-0.649	C.2	1	UNK0	0.000	
8	   C	0.924	2.748	-1.898	C.2	1	UNK0	0.000	
9	   C	1.349	1.907	-2.910	C.2	1	UNK0	0.000	
10	   C	0.666	1.779	-4.100	C.2	1	UNK0	0.000	
11	   N	2.561	2.541	-0.009	N.pl3	1	UNK0	0.000	
12	   C	3.016	1.153	-0.004	C.3	1	UNK0	0.000	
13	   C	3.662	1.000	1.372	C.3	1	UNK0	0.000	
14	   C	4.297	2.341	1.649	C.3	1	UNK0	0.000	
15	   C	3.510	3.253	0.760	C.2	1	UNK0	0.000	
16	   O	3.675	4.515	0.706	O.2	1	UNK0	0.000	
17	   C	2.568	0.717	2.347	C.2	1	UNK0	0.000	
18	   O	2.413	1.552	3.302	O.2	1	UNK0	0.000	
19	   N	1.732	-0.425	2.227	N.pl3	1	UNK0	0.000	
20	   C	0.707	-0.617	3.192	C.3	1	UNK0	0.000	
21	   C	-0.126	-1.845	2.994	C.3	1	UNK0	0.000	
22	   C	-0.843	-1.904	1.695	C.3	1	UNK0	0.000	
23	   N	-1.757	-0.829	1.451	N.3	1	UNK0	0.000	
24	   C	-2.916	-0.801	2.282	C.3	1	UNK0	0.000	
25	   C	-4.000	-1.764	1.860	C.3	1	UNK0	0.000	
26	   O	-3.631	-2.500	0.728	O.3	1	UNK0	0.000	
27	   C	-3.331	-1.575	-0.266	C.3	1	UNK0	0.000	
28	   C	-2.136	-0.721	0.055	C.3	1	UNK0	0.000	
29	   H	-1.815	3.935	-3.430	 H	1	UNK0	0.000	
30	   H	-1.243	4.862	-0.874	 H	1	UNK0	0.000	
31	   H	2.240	1.347	-2.739	 H	1	UNK0	0.000	
32	   H	1.006	1.115	-4.894	 H	1	UNK0	0.000	
33	   H	2.122	0.518	-0.050	 H	1	UNK0	0.000	
34	   H	3.796	0.948	-0.744	 H	1	UNK0	0.000	
35	   H	4.430	0.226	1.416	 H	1	UNK0	0.000	
36	   H	5.371	2.364	1.398	 H	1	UNK0	0.000	
37	   H	4.141	2.677	2.706	 H	1	UNK0	0.000	
38	   H	1.927	-1.060	1.425	 H	1	UNK0	0.000	
39	   H	0.056	0.304	3.163	 H	1	UNK0	0.000	
40	   H	1.169	-0.604	4.198	 H	1	UNK0	0.000	
41	   H	0.562	-2.725	3.042	 H	1	UNK0	0.000	
42	   H	-0.793	-1.938	3.876	 H	1	UNK0	0.000	
43	   H	-1.426	-2.846	1.631	 H	1	UNK0	0.000	
44	   H	-0.129	-1.936	0.848	 H	1	UNK0	0.000	
45	   H	-3.344	0.230	2.200	 H	1	UNK0	0.000	
46	   H	-2.650	-0.918	3.349	 H	1	UNK0	0.000	
47	   H	-4.316	-2.439	2.706	 H	1	UNK0	0.000	
48	   H	-4.949	-1.233	1.573	 H	1	UNK0	0.000	
49	   H	-3.116	-2.173	-1.198	 H	1	UNK0	0.000	
50	   H	-4.241	-0.983	-0.460	 H	1	UNK0	0.000	
51	   H	-2.295	0.358	-0.175	 H	1	UNK0	0.000	
52	   H	-1.251	-1.071	-0.550	 H	1	UNK0	0.000	
@<TRIPOS>BOND
1 1 2 1
2 2 3 2
3 2 10 1
4 3 4 1
5 4 5 1
6 4 8 2
7 5 6 1
8 6 7 2
9 7 8 1
10 7 11 1
11 8 9 1
12 9 10 2
13 11 12 1
14 11 15 1
15 12 13 1
16 13 14 1
17 13 17 1
18 14 15 1
19 15 16 2
20 17 18 2
21 17 19 1
22 19 20 1
23 20 21 1
24 21 22 1
25 22 23 1
26 23 24 1
27 23 28 1
28 24 25 1
29 25 26 1
30 26 27 1
31 27 28 1
32 3 29 1
33 5 30 1
34 9 31 1
35 10 32 1
36 12 33 1
37 12 34 1
38 13 35 1
39 14 36 1
40 14 37 1
41 19 38 1
42 20 39 1
43 20 40 1
44 21 41 1
45 21 42 1
46 22 43 1
47 22 44 1
48 24 45 1
49 24 46 1
50 25 47 1
51 25 48 1
52 27 49 1
53 27 50 1
54 28 51 1
55 28 52 1
@<TRIPOS>SUBSTRUCTURE
1	UNK0	1	GROUP	1 ****	UNK
