# created with PyMOL 2.3.2
@<TRIPOS>MOLECULE
637
43 46 1                 
SMALL
USER_CHARGES
@<TRIPOS>ATOM
1	  Br	-5.148	-5.960	-2.839	Br	1	UNK0	0.000	
2	   C	-3.935	-4.696	-2.036	C.2	1	UNK0	0.000	
3	   C	-3.284	-4.989	-0.858	C.2	1	UNK0	0.000	
4	   C	-2.410	-4.062	-0.290	C.2	1	UNK0	0.000	
5	   N	-1.652	-4.067	0.821	N.pl3	1	UNK0	0.000	
6	   N	-0.979	-2.910	0.917	N.2	1	UNK0	0.000	
7	   C	-1.280	-2.123	-0.126	C.2	1	UNK0	0.000	
8	   C	-2.175	-2.840	-0.886	C.2	1	UNK0	0.000	
9	   C	-2.826	-2.550	-2.060	C.2	1	UNK0	0.000	
10	   C	-3.700	-3.474	-2.630	C.2	1	UNK0	0.000	
11	   N	-0.735	-0.826	-0.326	N.pl3	1	UNK0	0.000	
12	   C	0.668	-0.455	-0.489	C.3	1	UNK0	0.000	
13	   C	0.627	0.726	-1.432	C.3	1	UNK0	0.000	
14	   C	-0.719	1.359	-1.285	C.3	1	UNK0	0.000	
15	   C	-1.447	0.406	-0.411	C.2	1	UNK0	0.000	
16	   O	-2.544	0.662	0.171	O.2	1	UNK0	0.000	
17	   C	1.658	1.738	-1.090	C.2	1	UNK0	0.000	
18	   O	2.430	1.508	-0.118	O.2	1	UNK0	0.000	
19	   N	1.768	2.930	-1.839	N.pl3	1	UNK0	0.000	
20	   C	2.725	3.961	-1.593	C.3	1	UNK0	0.000	
21	   C	2.652	4.593	-0.236	C.3	1	UNK0	0.000	
22	   C	1.338	5.234	0.037	C.2	1	UNK0	0.000	
23	   N	0.994	6.516	-0.242	N.2	1	UNK0	0.000	
24	   C	-0.265	6.705	0.157	C.2	1	UNK0	0.000	
25	   N	-0.773	5.578	0.695	N.pl3	1	UNK0	0.000	
26	   C	0.220	4.679	0.618	C.2	1	UNK0	0.000	
27	   H	-3.473	-5.945	-0.399	 H	1	UNK0	0.000	
28	   H	-1.624	-4.873	1.481	 H	1	UNK0	0.000	
29	   H	-2.632	-1.590	-2.514	 H	1	UNK0	0.000	
30	   H	-4.199	-3.236	-3.542	 H	1	UNK0	0.000	
31	   H	1.222	-1.321	-0.897	 H	1	UNK0	0.000	
32	   H	1.132	-0.197	0.479	 H	1	UNK0	0.000	
33	   H	0.786	0.304	-2.451	 H	1	UNK0	0.000	
34	   H	-0.717	2.359	-0.844	 H	1	UNK0	0.000	
35	   H	-1.210	1.330	-2.287	 H	1	UNK0	0.000	
36	   H	1.104	3.073	-2.630	 H	1	UNK0	0.000	
37	   H	2.732	4.739	-2.380	 H	1	UNK0	0.000	
38	   H	3.739	3.470	-1.677	 H	1	UNK0	0.000	
39	   H	3.409	5.399	-0.145	 H	1	UNK0	0.000	
40	   H	2.885	3.875	0.583	 H	1	UNK0	0.000	
41	   H	-0.846	7.612	0.082	 H	1	UNK0	0.000	
42	   H	-1.739	5.463	1.083	 H	1	UNK0	0.000	
43	   H	0.166	3.657	0.960	 H	1	UNK0	0.000	
@<TRIPOS>BOND
1 1 2 1
2 2 3 2
3 2 10 1
4 3 4 1
5 4 5 1
6 4 8 2
7 5 6 1
8 6 7 2
9 7 8 1
10 7 11 1
11 8 9 1
12 9 10 2
13 11 12 1
14 11 15 1
15 12 13 1
16 13 14 1
17 13 17 1
18 14 15 1
19 15 16 2
20 17 18 2
21 17 19 1
22 19 20 1
23 20 21 1
24 21 22 1
25 22 23 1
26 22 26 2
27 23 24 2
28 24 25 1
29 25 26 1
30 3 27 1
31 5 28 1
32 9 29 1
33 10 30 1
34 12 31 1
35 12 32 1
36 13 33 1
37 14 34 1
38 14 35 1
39 19 36 1
40 20 37 1
41 20 38 1
42 21 39 1
43 21 40 1
44 24 41 1
45 25 42 1
46 26 43 1
@<TRIPOS>SUBSTRUCTURE
1	UNK0	1	GROUP	1 ****	UNK
