# created with PyMOL 2.3.2
@<TRIPOS>MOLECULE
638
49 52 1                 
SMALL
USER_CHARGES
@<TRIPOS>ATOM
1	  Br	5.551	-1.862	-0.341	Br	1	UNK0	0.000	
2	   C	3.951	-1.546	-1.322	C.2	1	UNK0	0.000	
3	   C	3.233	-2.592	-1.857	C.2	1	UNK0	0.000	
4	   C	2.085	-2.384	-2.562	C.2	1	UNK0	0.000	
5	   N	1.181	-3.185	-3.194	N.pl3	1	UNK0	0.000	
6	   N	0.229	-2.438	-3.732	N.2	1	UNK0	0.000	
7	   C	0.456	-1.141	-3.486	C.2	1	UNK0	0.000	
8	   C	1.631	-1.101	-2.745	C.2	1	UNK0	0.000	
9	   C	2.336	-0.027	-2.216	C.2	1	UNK0	0.000	
10	   C	3.495	-0.239	-1.504	C.2	1	UNK0	0.000	
11	   N	-0.287	0.009	-3.856	N.pl3	1	UNK0	0.000	
12	   C	-1.660	0.335	-3.475	C.3	1	UNK0	0.000	
13	   C	-1.600	1.827	-3.235	C.3	1	UNK0	0.000	
14	   C	-0.746	2.306	-4.403	C.3	1	UNK0	0.000	
15	   C	0.120	1.106	-4.679	C.2	1	UNK0	0.000	
16	   O	1.072	1.063	-5.514	O.2	1	UNK0	0.000	
17	   C	-0.941	2.154	-1.948	C.2	1	UNK0	0.000	
18	   O	0.052	2.923	-1.969	O.2	1	UNK0	0.000	
19	   N	-1.386	1.635	-0.711	N.pl3	1	UNK0	0.000	
20	   C	-0.751	1.949	0.543	C.3	1	UNK0	0.000	
21	   C	-1.465	1.227	1.666	C.3	1	UNK0	0.000	
22	   N	-0.888	1.492	2.961	N.3	1	UNK0	0.000	
23	   C	-1.659	0.739	3.944	C.3	1	UNK0	0.000	
24	   C	-1.149	-0.697	4.030	C.3	1	UNK0	0.000	
25	   O	0.116	-0.779	4.563	O.3	1	UNK0	0.000	
26	   C	0.760	0.426	4.405	C.3	1	UNK0	0.000	
27	   C	0.485	1.050	3.052	C.3	1	UNK0	0.000	
28	   H	3.576	-3.609	-1.722	 H	1	UNK0	0.000	
29	   H	1.313	-4.227	-3.194	 H	1	UNK0	0.000	
30	   H	1.959	0.996	-2.372	 H	1	UNK0	0.000	
31	   H	4.037	0.618	-1.095	 H	1	UNK0	0.000	
32	   H	-2.018	-0.241	-2.614	 H	1	UNK0	0.000	
33	   H	-2.343	0.157	-4.330	 H	1	UNK0	0.000	
34	   H	-2.599	2.282	-3.336	 H	1	UNK0	0.000	
35	   H	-0.050	3.077	-4.012	 H	1	UNK0	0.000	
36	   H	-1.332	2.611	-5.266	 H	1	UNK0	0.000	
37	   H	-2.219	0.993	-0.733	 H	1	UNK0	0.000	
38	   H	-0.946	3.043	0.723	 H	1	UNK0	0.000	
39	   H	0.327	1.801	0.558	 H	1	UNK0	0.000	
40	   H	-1.365	0.123	1.498	 H	1	UNK0	0.000	
41	   H	-2.551	1.444	1.669	 H	1	UNK0	0.000	
42	   H	-1.643	1.171	4.942	 H	1	UNK0	0.000	
43	   H	-2.703	0.689	3.561	 H	1	UNK0	0.000	
44	   H	-1.880	-1.224	4.708	 H	1	UNK0	0.000	
45	   H	-1.152	-1.193	3.039	 H	1	UNK0	0.000	
46	   H	0.520	1.164	5.194	 H	1	UNK0	0.000	
47	   H	1.855	0.217	4.476	 H	1	UNK0	0.000	
48	   H	1.202	1.905	2.964	 H	1	UNK0	0.000	
49	   H	0.752	0.329	2.246	 H	1	UNK0	0.000	
@<TRIPOS>BOND
1 1 2 1
2 2 3 2
3 2 10 1
4 3 4 1
5 4 5 1
6 4 8 2
7 5 6 1
8 6 7 2
9 7 8 1
10 7 11 1
11 8 9 1
12 9 10 2
13 11 12 1
14 11 15 1
15 12 13 1
16 13 14 1
17 13 17 1
18 14 15 1
19 15 16 2
20 17 18 2
21 17 19 1
22 19 20 1
23 20 21 1
24 21 22 1
25 22 23 1
26 22 27 1
27 23 24 1
28 24 25 1
29 25 26 1
30 26 27 1
31 3 28 1
32 5 29 1
33 9 30 1
34 10 31 1
35 12 32 1
36 12 33 1
37 13 34 1
38 14 35 1
39 14 36 1
40 19 37 1
41 20 38 1
42 20 39 1
43 21 40 1
44 21 41 1
45 23 42 1
46 23 43 1
47 24 44 1
48 24 45 1
49 26 46 1
50 26 47 1
51 27 48 1
52 27 49 1
@<TRIPOS>SUBSTRUCTURE
1	UNK0	1	GROUP	1 ****	UNK
