# created with PyMOL 2.3.2
@<TRIPOS>MOLECULE
639
36 39 1                 
SMALL
USER_CHARGES
@<TRIPOS>ATOM
1	  Br	2.067	-5.966	2.716	Br	1	UNK0	0.000	
2	   C	0.941	-4.661	1.874	C.2	1	UNK0	0.000	
3	   C	-0.386	-4.934	1.598	C.2	1	UNK0	0.000	
4	   C	-1.209	-4.005	0.992	C.2	1	UNK0	0.000	
5	   N	-2.499	-3.988	0.611	N.pl3	1	UNK0	0.000	
6	   N	-2.804	-2.826	0.062	N.2	1	UNK0	0.000	
7	   C	-1.730	-1.997	0.045	C.2	1	UNK0	0.000	
8	   C	-0.720	-2.753	0.637	C.2	1	UNK0	0.000	
9	   C	0.603	-2.492	0.917	C.2	1	UNK0	0.000	
10	   C	1.423	-3.418	1.521	C.2	1	UNK0	0.000	
11	   N	-1.651	-0.674	-0.456	N.pl3	1	UNK0	0.000	
12	   C	-0.793	-0.217	-1.520	C.3	1	UNK0	0.000	
13	   C	-0.746	1.285	-1.386	C.3	1	UNK0	0.000	
14	   C	-2.054	1.644	-0.713	C.3	1	UNK0	0.000	
15	   C	-2.421	0.414	0.022	C.2	1	UNK0	0.000	
16	   O	-3.297	0.394	0.932	O.2	1	UNK0	0.000	
17	   C	0.422	1.698	-0.604	C.2	1	UNK0	0.000	
18	   O	1.281	2.445	-1.126	O.2	1	UNK0	0.000	
19	   N	0.610	1.275	0.730	N.pl3	1	UNK0	0.000	
20	   C	1.745	1.680	1.485	C.2	1	UNK0	0.000	
21	   N	2.744	2.474	1.069	N.2	1	UNK0	0.000	
22	   N	3.630	2.631	2.049	N.pl3	1	UNK0	0.000	
23	   C	3.179	1.923	3.098	C.2	1	UNK0	0.000	
24	   N	2.014	1.330	2.761	N.2	1	UNK0	0.000	
25	   H	-0.781	-5.914	1.872	 H	1	UNK0	0.000	
26	   H	-3.121	-4.823	0.762	 H	1	UNK0	0.000	
27	   H	0.958	-1.499	0.627	 H	1	UNK0	0.000	
28	   H	2.457	-3.144	1.712	 H	1	UNK0	0.000	
29	   H	-1.253	-0.497	-2.498	 H	1	UNK0	0.000	
30	   H	0.237	-0.601	-1.468	 H	1	UNK0	0.000	
31	   H	-0.702	1.709	-2.391	 H	1	UNK0	0.000	
32	   H	-1.908	2.504	-0.033	 H	1	UNK0	0.000	
33	   H	-2.814	1.905	-1.477	 H	1	UNK0	0.000	
34	   H	-0.106	0.648	1.176	 H	1	UNK0	0.000	
35	   H	4.488	3.212	1.940	 H	1	UNK0	0.000	
36	   H	3.698	1.860	4.056	 H	1	UNK0	0.000	
@<TRIPOS>BOND
1 1 2 1
2 2 3 2
3 2 10 1
4 3 4 1
5 4 5 1
6 4 8 2
7 5 6 1
8 6 7 2
9 7 8 1
10 7 11 1
11 8 9 1
12 9 10 2
13 11 12 1
14 11 15 1
15 12 13 1
16 13 14 1
17 13 17 1
18 14 15 1
19 15 16 2
20 17 18 2
21 17 19 1
22 19 20 1
23 20 21 2
24 20 24 1
25 21 22 1
26 22 23 1
27 23 24 2
28 3 25 1
29 5 26 1
30 9 27 1
31 10 28 1
32 12 29 1
33 12 30 1
34 13 31 1
35 14 32 1
36 14 33 1
37 19 34 1
38 22 35 1
39 23 36 1
@<TRIPOS>SUBSTRUCTURE
1	UNK0	1	GROUP	1 ****	UNK
