# created with PyMOL 2.3.2
@<TRIPOS>MOLECULE
640
36 39 1                 
SMALL
USER_CHARGES
@<TRIPOS>ATOM
1	  Br	4.137	6.041	2.007	Br	1	UNK0	0.000	
2	   C	2.724	4.737	2.131	C.2	1	UNK0	0.000	
3	   C	2.434	4.124	3.331	C.2	1	UNK0	0.000	
4	   C	1.414	3.194	3.380	C.2	1	UNK0	0.000	
5	   N	0.923	2.457	4.380	N.pl3	1	UNK0	0.000	
6	   N	-0.065	1.701	3.930	N.2	1	UNK0	0.000	
7	   C	-0.253	1.924	2.599	C.2	1	UNK0	0.000	
8	   C	0.688	2.871	2.261	C.2	1	UNK0	0.000	
9	   C	0.959	3.473	1.042	C.2	1	UNK0	0.000	
10	   C	1.979	4.397	1.017	C.2	1	UNK0	0.000	
11	   N	-1.235	1.267	1.823	N.pl3	1	UNK0	0.000	
12	   C	-1.556	-0.171	1.812	C.3	1	UNK0	0.000	
13	   C	-1.642	-0.375	0.277	C.3	1	UNK0	0.000	
14	   C	-2.525	0.795	-0.108	C.3	1	UNK0	0.000	
15	   C	-2.134	1.848	0.879	C.2	1	UNK0	0.000	
16	   O	-2.522	3.056	0.894	O.2	1	UNK0	0.000	
17	   C	-0.287	-0.260	-0.263	C.2	1	UNK0	0.000	
18	   O	0.660	0.079	0.592	O.2	1	UNK0	0.000	
19	   N	0.191	-0.448	-1.550	N.pl3	1	UNK0	0.000	
20	   C	-0.544	-0.830	-2.678	C.2	1	UNK0	0.000	
21	   N	-1.823	-1.118	-2.874	N.pl3	1	UNK0	0.000	
22	   C	-2.033	-1.441	-4.173	C.2	1	UNK0	0.000	
23	   N	-0.875	-1.356	-4.809	N.2	1	UNK0	0.000	
24	   N	0.013	-0.995	-3.934	N.2	1	UNK0	0.000	
25	   H	3.029	4.408	4.182	 H	1	UNK0	0.000	
26	   H	1.255	2.468	5.354	 H	1	UNK0	0.000	
27	   H	0.379	3.212	0.161	 H	1	UNK0	0.000	
28	   H	2.243	4.902	0.104	 H	1	UNK0	0.000	
29	   H	-0.759	-0.782	2.236	 H	1	UNK0	0.000	
30	   H	-2.544	-0.263	2.271	 H	1	UNK0	0.000	
31	   H	-2.168	-1.303	0.061	 H	1	UNK0	0.000	
32	   H	-2.327	1.159	-1.143	 H	1	UNK0	0.000	
33	   H	-3.588	0.596	0.014	 H	1	UNK0	0.000	
34	   H	1.240	-0.302	-1.718	 H	1	UNK0	0.000	
35	   H	-2.576	-1.109	-2.161	 H	1	UNK0	0.000	
36	   H	-2.990	-1.716	-4.597	 H	1	UNK0	0.000	
@<TRIPOS>BOND
1 1 2 1
2 2 3 2
3 2 10 1
4 3 4 1
5 4 5 1
6 4 8 2
7 5 6 1
8 6 7 2
9 7 8 1
10 7 11 1
11 8 9 1
12 9 10 2
13 11 12 1
14 11 15 1
15 12 13 1
16 13 14 1
17 13 17 1
18 14 15 1
19 15 16 2
20 17 18 2
21 17 19 1
22 19 20 1
23 20 21 1
24 20 24 2
25 21 22 1
26 22 23 2
27 23 24 1
28 3 25 1
29 5 26 1
30 9 27 1
31 10 28 1
32 12 29 1
33 12 30 1
34 13 31 1
35 14 32 1
36 14 33 1
37 19 34 1
38 21 35 1
39 22 36 1
@<TRIPOS>SUBSTRUCTURE
1	UNK0	1	GROUP	1 ****	UNK
