# created with PyMOL 2.3.2
@<TRIPOS>MOLECULE
641
37 40 1                 
SMALL
USER_CHARGES
@<TRIPOS>ATOM
1	  Br	6.591	-2.030	-5.132	Br	1	UNK0	0.000	
2	   C	5.114	-1.700	-3.964	C.2	1	UNK0	0.000	
3	   C	5.297	-1.374	-2.635	C.2	1	UNK0	0.000	
4	   C	4.218	-1.134	-1.816	C.2	1	UNK0	0.000	
5	   N	4.100	-0.805	-0.517	N.pl3	1	UNK0	0.000	
6	   N	2.825	-0.682	-0.186	N.2	1	UNK0	0.000	
7	   C	2.022	-0.926	-1.258	C.2	1	UNK0	0.000	
8	   C	2.909	-1.210	-2.280	C.2	1	UNK0	0.000	
9	   C	2.724	-1.532	-3.592	C.2	1	UNK0	0.000	
10	   C	3.802	-1.776	-4.431	C.2	1	UNK0	0.000	
11	   N	0.597	-0.889	-1.272	N.pl3	1	UNK0	0.000	
12	   C	-0.263	0.287	-1.151	C.3	1	UNK0	0.000	
13	   C	-1.577	-0.246	-0.613	C.3	1	UNK0	0.000	
14	   C	-1.532	-1.736	-0.637	C.3	1	UNK0	0.000	
15	   C	-0.288	-1.989	-1.404	C.2	1	UNK0	0.000	
16	   O	-0.054	-3.018	-2.070	O.2	1	UNK0	0.000	
17	   C	-1.902	0.291	0.730	C.2	1	UNK0	0.000	
18	   O	-1.535	-0.347	1.739	O.2	1	UNK0	0.000	
19	   N	-2.603	1.492	0.892	N.pl3	1	UNK0	0.000	
20	   C	-2.946	2.102	2.166	C.3	1	UNK0	0.000	
21	   C	-4.407	2.324	2.463	C.3	1	UNK0	0.000	
22	   C	-3.505	3.475	2.201	C.3	1	UNK0	0.000	
23	   H	6.324	-1.322	-2.293	 H	1	UNK0	0.000	
24	   H	4.912	-0.663	0.142	 H	1	UNK0	0.000	
25	   H	1.695	-1.587	-3.945	 H	1	UNK0	0.000	
26	   H	3.615	-2.029	-5.463	 H	1	UNK0	0.000	
27	   H	-0.397	0.687	-2.166	 H	1	UNK0	0.000	
28	   H	0.183	1.046	-0.492	 H	1	UNK0	0.000	
29	   H	-2.367	0.046	-1.357	 H	1	UNK0	0.000	
30	   H	-2.359	-2.190	-1.231	 H	1	UNK0	0.000	
31	   H	-1.466	-2.187	0.381	 H	1	UNK0	0.000	
32	   H	-2.919	2.022	0.040	 H	1	UNK0	0.000	
33	   H	-2.402	1.706	3.055	 H	1	UNK0	0.000	
34	   H	-4.766	2.198	3.512	 H	1	UNK0	0.000	
35	   H	-5.097	1.907	1.730	 H	1	UNK0	0.000	
36	   H	-3.305	4.165	3.059	 H	1	UNK0	0.000	
37	   H	-3.546	4.003	1.216	 H	1	UNK0	0.000	
@<TRIPOS>BOND
1 1 2 1
2 2 3 2
3 2 10 1
4 3 4 1
5 4 5 1
6 4 8 2
7 5 6 1
8 6 7 2
9 7 8 1
10 7 11 1
11 8 9 1
12 9 10 2
13 11 12 1
14 11 15 1
15 12 13 1
16 13 14 1
17 13 17 1
18 14 15 1
19 15 16 2
20 17 18 2
21 17 19 1
22 19 20 1
23 20 21 1
24 20 22 1
25 21 22 1
26 3 23 1
27 5 24 1
28 9 25 1
29 10 26 1
30 12 27 1
31 12 28 1
32 13 29 1
33 14 30 1
34 14 31 1
35 19 32 1
36 20 33 1
37 21 34 1
38 21 35 1
39 22 36 1
40 22 37 1
@<TRIPOS>SUBSTRUCTURE
1	UNK0	1	GROUP	1 ****	UNK
