# created with PyMOL 2.3.2
@<TRIPOS>MOLECULE
646
39 43 1                 
SMALL
USER_CHARGES
@<TRIPOS>ATOM
1	  Br	4.956	-2.433	-1.107	Br	1	UNK0	0.000	
2	   C	4.844	-1.275	0.401	C.2	1	UNK0	0.000	
3	   C	5.888	-0.953	1.265	C.2	1	UNK0	0.000	
4	   N	5.364	-0.117	2.171	N.pl3	1	UNK0	0.000	
5	   N	4.089	0.077	1.905	N.2	1	UNK0	0.000	
6	   C	3.716	-0.622	0.811	C.2	1	UNK0	0.000	
7	   C	2.375	-0.626	0.250	C.2	1	UNK0	0.000	
8	   O	2.146	-1.315	-0.766	O.2	1	UNK0	0.000	
9	   N	1.329	0.131	0.828	N.pl3	1	UNK0	0.000	
10	   N	0.044	0.114	0.273	N.pl3	1	UNK0	0.000	
11	   C	-0.746	1.217	-0.141	C.2	1	UNK0	0.000	
12	   O	-0.310	2.375	-0.317	O.2	1	UNK0	0.000	
13	   C	-2.152	0.803	-0.337	C.3	1	UNK0	0.000	
14	   C	-2.615	0.993	-1.760	C.3	1	UNK0	0.000	
15	   C	-3.528	-0.179	-1.931	C.3	1	UNK0	0.000	
16	   C	-2.545	-1.230	-1.558	C.3	1	UNK0	0.000	
17	   C	-2.128	-0.726	-0.180	C.3	1	UNK0	0.000	
18	   C	-0.717	-1.086	0.025	C.2	1	UNK0	0.000	
19	   O	-0.204	-2.227	0.000	O.2	1	UNK0	0.000	
20	   C	-1.416	-0.851	-2.466	C.2	1	UNK0	0.000	
21	   C	-1.463	0.493	-2.607	C.2	1	UNK0	0.000	
22	   C	-4.911	-0.234	-2.138	C.3	1	UNK0	0.000	
23	   C	-4.081	-0.350	-3.363	C.3	1	UNK0	0.000	
24	   C	6.031	0.520	3.300	C.3	1	UNK0	0.000	
25	   H	6.899	-1.295	1.223	 H	1	UNK0	0.000	
26	   H	1.538	0.710	1.689	 H	1	UNK0	0.000	
27	   H	-2.835	1.244	0.415	 H	1	UNK0	0.000	
28	   H	-2.980	1.952	-2.027	 H	1	UNK0	0.000	
29	   H	-2.845	-2.248	-1.599	 H	1	UNK0	0.000	
30	   H	-2.807	-1.056	0.610	 H	1	UNK0	0.000	
31	   H	-0.683	-1.493	-2.938	 H	1	UNK0	0.000	
32	   H	-0.838	1.134	-3.187	 H	1	UNK0	0.000	
33	   H	-5.490	-1.125	-1.797	 H	1	UNK0	0.000	
34	   H	-5.518	0.695	-2.050	 H	1	UNK0	0.000	
35	   H	-3.942	0.486	-4.069	 H	1	UNK0	0.000	
36	   H	-4.009	-1.350	-3.814	 H	1	UNK0	0.000	
37	   H	7.053	0.783	2.948	 H	1	UNK0	0.000	
38	   H	6.146	-0.214	4.128	 H	1	UNK0	0.000	
39	   H	5.507	1.444	3.610	 H	1	UNK0	0.000	
@<TRIPOS>BOND
1 1 2 1
2 2 3 2
3 2 6 1
4 3 4 1
5 4 5 1
6 4 24 1
7 5 6 2
8 6 7 1
9 7 8 2
10 7 9 1
11 9 10 1
12 10 11 1
13 10 18 1
14 11 12 2
15 11 13 1
16 13 14 1
17 13 17 1
18 14 15 1
19 14 21 1
20 15 16 1
21 15 22 1
22 15 23 1
23 16 17 1
24 16 20 1
25 17 18 1
26 18 19 2
27 20 21 2
28 22 23 1
29 3 25 1
30 9 26 1
31 13 27 1
32 14 28 1
33 16 29 1
34 17 30 1
35 20 31 1
36 21 32 1
37 22 33 1
38 22 34 1
39 23 35 1
40 23 36 1
41 24 37 1
42 24 38 1
43 24 39 1
@<TRIPOS>SUBSTRUCTURE
1	UNK0	1	GROUP	1 ****	UNK
