# created with PyMOL 2.3.2
@<TRIPOS>MOLECULE
647
39 43 1                 
SMALL
USER_CHARGES
@<TRIPOS>ATOM
1	  Br	3.776	-2.374	1.487	Br	1	UNK0	0.000	
2	   C	4.362	-0.588	1.762	C.2	1	UNK0	0.000	
3	   C	5.637	-0.220	2.211	C.2	1	UNK0	0.000	
4	   N	5.709	1.106	2.309	N.pl3	1	UNK0	0.000	
5	   N	4.516	1.584	1.934	N.2	1	UNK0	0.000	
6	   C	3.693	0.591	1.604	C.2	1	UNK0	0.000	
7	   C	2.325	0.787	1.136	C.2	1	UNK0	0.000	
8	   O	1.737	1.887	1.370	O.2	1	UNK0	0.000	
9	   N	1.654	-0.240	0.427	N.pl3	1	UNK0	0.000	
10	   N	0.315	-0.026	0.006	N.pl3	1	UNK0	0.000	
11	   C	-0.754	-0.078	0.976	C.2	1	UNK0	0.000	
12	   O	-0.694	-0.587	2.109	O.2	1	UNK0	0.000	
13	   C	-1.920	0.579	0.381	C.3	1	UNK0	0.000	
14	   C	-3.165	-0.272	0.581	C.3	1	UNK0	0.000	
15	   C	-4.260	0.360	-0.234	C.3	1	UNK0	0.000	
16	   C	-3.921	0.351	-1.702	C.3	1	UNK0	0.000	
17	   C	-2.509	-0.222	-1.890	C.3	1	UNK0	0.000	
18	   C	-1.596	0.681	-1.083	C.3	1	UNK0	0.000	
19	   C	-0.199	0.255	-1.248	C.2	1	UNK0	0.000	
20	   O	0.405	0.168	-2.331	O.2	1	UNK0	0.000	
21	   C	-2.460	-1.584	-1.283	C.2	1	UNK0	0.000	
22	   C	-2.849	-1.621	-0.010	C.2	1	UNK0	0.000	
23	   C	-5.003	-0.495	-1.163	C.3	1	UNK0	0.000	
24	   C	6.827	1.941	2.683	C.3	1	UNK0	0.000	
25	   H	6.414	-0.903	2.441	 H	1	UNK0	0.000	
26	   H	2.050	-1.147	0.162	 H	1	UNK0	0.000	
27	   H	-2.034	1.579	0.836	 H	1	UNK0	0.000	
28	   H	-3.455	-0.312	1.632	 H	1	UNK0	0.000	
29	   H	-4.658	1.315	0.156	 H	1	UNK0	0.000	
30	   H	-4.104	1.231	-2.317	 H	1	UNK0	0.000	
31	   H	-2.275	-0.200	-2.961	 H	1	UNK0	0.000	
32	   H	-1.768	1.731	-1.409	 H	1	UNK0	0.000	
33	   H	-2.140	-2.465	-1.808	 H	1	UNK0	0.000	
34	   H	-2.934	-2.536	0.561	 H	1	UNK0	0.000	
35	   H	-4.844	-1.587	-1.056	 H	1	UNK0	0.000	
36	   H	-6.035	-0.160	-1.477	 H	1	UNK0	0.000	
37	   H	6.708	2.886	2.102	 H	1	UNK0	0.000	
38	   H	6.873	2.097	3.761	 H	1	UNK0	0.000	
39	   H	7.755	1.477	2.243	 H	1	UNK0	0.000	
@<TRIPOS>BOND
1 1 2 1
2 2 3 2
3 2 6 1
4 3 4 1
5 4 5 1
6 4 24 1
7 5 6 2
8 6 7 1
9 7 8 2
10 7 9 1
11 9 10 1
12 10 11 1
13 10 19 1
14 11 12 2
15 11 13 1
16 13 14 1
17 13 18 1
18 14 15 1
19 14 22 1
20 15 16 1
21 15 23 1
22 16 17 1
23 16 23 1
24 17 18 1
25 17 21 1
26 18 19 1
27 19 20 2
28 21 22 2
29 3 25 1
30 9 26 1
31 13 27 1
32 14 28 1
33 15 29 1
34 16 30 1
35 17 31 1
36 18 32 1
37 21 33 1
38 22 34 1
39 23 35 1
40 23 36 1
41 24 37 1
42 24 38 1
43 24 39 1
@<TRIPOS>SUBSTRUCTURE
1	UNK0	1	GROUP	1 ****	UNK
