# created with PyMOL 2.3.2
@<TRIPOS>MOLECULE
649
35 38 1                 
SMALL
USER_CHARGES
@<TRIPOS>ATOM
1	  Br	-5.473	-0.845	-2.799	Br	1	UNK0	0.000	
2	   C	-3.576	-0.858	-2.612	C.2	1	UNK0	0.000	
3	   C	-2.770	-1.931	-2.933	C.2	1	UNK0	0.000	
4	   N	-1.485	-1.615	-2.684	N.pl3	1	UNK0	0.000	
5	   N	-1.487	-0.367	-2.216	N.2	1	UNK0	0.000	
6	   C	-2.730	0.119	-2.159	C.2	1	UNK0	0.000	
7	   C	-3.188	1.467	-1.700	C.3	1	UNK0	0.000	
8	   C	-0.336	-2.482	-2.892	C.3	1	UNK0	0.000	
9	   C	-0.021	-3.305	-1.678	C.3	1	UNK0	0.000	
10	   C	0.285	-2.429	-0.516	C.2	1	UNK0	0.000	
11	   N	1.470	-1.929	-0.113	N.2	1	UNK0	0.000	
12	   N	1.298	-1.191	0.977	N.pl3	1	UNK0	0.000	
13	   C	-0.008	-1.201	1.300	C.2	1	UNK0	0.000	
14	   N	-0.619	-1.967	0.370	N.2	1	UNK0	0.000	
15	   C	-0.433	-0.495	2.408	C.2	1	UNK0	0.000	
16	   C	0.444	0.220	3.197	C.2	1	UNK0	0.000	
17	   N	-0.245	0.812	4.212	N.pl3	1	UNK0	0.000	
18	   N	-1.522	0.484	4.076	N.2	1	UNK0	0.000	
19	   C	-1.675	-0.317	2.981	C.2	1	UNK0	0.000	
20	   C	0.315	1.651	5.257	C.3	1	UNK0	0.000	
21	   N	1.739	0.199	2.834	N.2	1	UNK0	0.000	
22	   C	2.148	-0.489	1.753	C.2	1	UNK0	0.000	
23	   H	-3.086	-2.885	-3.323	 H	1	UNK0	0.000	
24	   H	-2.973	2.255	-2.452	 H	1	UNK0	0.000	
25	   H	-2.638	1.735	-0.772	 H	1	UNK0	0.000	
26	   H	-4.262	1.432	-1.428	 H	1	UNK0	0.000	
27	   H	0.538	-1.923	-3.263	 H	1	UNK0	0.000	
28	   H	-0.597	-3.208	-3.714	 H	1	UNK0	0.000	
29	   H	0.826	-3.962	-1.918	 H	1	UNK0	0.000	
30	   H	-0.922	-3.895	-1.428	 H	1	UNK0	0.000	
31	   H	-2.595	-0.744	2.613	 H	1	UNK0	0.000	
32	   H	-0.481	1.983	5.923	 H	1	UNK0	0.000	
33	   H	0.994	1.002	5.864	 H	1	UNK0	0.000	
34	   H	0.911	2.481	4.825	 H	1	UNK0	0.000	
35	   H	3.200	-0.516	1.444	 H	1	UNK0	0.000	
@<TRIPOS>BOND
1 1 2 1
2 2 3 2
3 2 6 1
4 3 4 1
5 4 5 1
6 4 8 1
7 5 6 2
8 6 7 1
9 8 9 1
10 9 10 1
11 10 11 2
12 10 14 1
13 11 12 1
14 12 13 1
15 12 22 1
16 13 14 2
17 13 15 1
18 15 16 2
19 15 19 1
20 16 17 1
21 16 21 1
22 17 18 1
23 17 20 1
24 18 19 2
25 21 22 2
26 3 23 1
27 7 24 1
28 7 25 1
29 7 26 1
30 8 27 1
31 8 28 1
32 9 29 1
33 9 30 1
34 19 31 1
35 20 32 1
36 20 33 1
37 20 34 1
38 22 35 1
@<TRIPOS>SUBSTRUCTURE
1	UNK0	1	GROUP	1 ****	UNK
