# created with PyMOL 2.3.2
@<TRIPOS>MOLECULE
650
32 35 1                 
SMALL
USER_CHARGES
@<TRIPOS>ATOM
1	  Br	4.054	0.146	-4.718	Br	1	UNK0	0.000	
2	   C	2.500	0.937	-3.949	C.2	1	UNK0	0.000	
3	   C	2.322	1.390	-2.644	C.2	1	UNK0	0.000	
4	   N	1.070	1.877	-2.531	N.pl3	1	UNK0	0.000	
5	   N	0.468	1.742	-3.713	N.2	1	UNK0	0.000	
6	   C	1.308	1.174	-4.600	C.2	1	UNK0	0.000	
7	   C	1.069	0.836	-6.023	C.3	1	UNK0	0.000	
8	   C	0.463	2.451	-1.341	C.3	1	UNK0	0.000	
9	   C	-0.220	1.416	-0.517	C.2	1	UNK0	0.000	
10	   N	-1.494	0.996	-0.585	N.2	1	UNK0	0.000	
11	   N	-1.727	0.043	0.333	N.pl3	1	UNK0	0.000	
12	   C	-0.576	-0.148	1.002	C.2	1	UNK0	0.000	
13	   N	0.336	0.692	0.478	N.2	1	UNK0	0.000	
14	   C	-0.568	-1.093	2.010	C.2	1	UNK0	0.000	
15	   C	-1.691	-1.829	2.338	C.2	1	UNK0	0.000	
16	   N	-1.414	-2.678	3.351	N.pl3	1	UNK0	0.000	
17	   N	-0.145	-2.478	3.653	N.2	1	UNK0	0.000	
18	   C	0.409	-1.533	2.872	C.2	1	UNK0	0.000	
19	   C	-2.352	-3.614	3.967	C.3	1	UNK0	0.000	
20	   N	-2.806	-1.585	1.628	N.2	1	UNK0	0.000	
21	   C	-2.826	-0.669	0.646	C.2	1	UNK0	0.000	
22	   H	3.094	1.339	-1.884	 H	1	UNK0	0.000	
23	   H	0.612	-0.167	-6.159	 H	1	UNK0	0.000	
24	   H	1.991	0.868	-6.625	 H	1	UNK0	0.000	
25	   H	0.321	1.588	-6.397	 H	1	UNK0	0.000	
26	   H	-0.246	3.281	-1.610	 H	1	UNK0	0.000	
27	   H	1.270	2.970	-0.746	 H	1	UNK0	0.000	
28	   H	1.412	-1.146	2.867	 H	1	UNK0	0.000	
29	   H	-1.814	-4.464	4.439	 H	1	UNK0	0.000	
30	   H	-2.994	-4.093	3.172	 H	1	UNK0	0.000	
31	   H	-2.977	-3.145	4.734	 H	1	UNK0	0.000	
32	   H	-3.717	-0.457	0.061	 H	1	UNK0	0.000	
@<TRIPOS>BOND
1 1 2 1
2 2 3 2
3 2 6 1
4 3 4 1
5 4 5 1
6 4 8 1
7 5 6 2
8 6 7 1
9 8 9 1
10 9 10 2
11 9 13 1
12 10 11 1
13 11 12 1
14 11 21 1
15 12 13 2
16 12 14 1
17 14 15 2
18 14 18 1
19 15 16 1
20 15 20 1
21 16 17 1
22 16 19 1
23 17 18 2
24 20 21 2
25 3 22 1
26 7 23 1
27 7 24 1
28 7 25 1
29 8 26 1
30 8 27 1
31 18 28 1
32 19 29 1
33 19 30 1
34 19 31 1
35 21 32 1
@<TRIPOS>SUBSTRUCTURE
1	UNK0	1	GROUP	1 ****	UNK
