# created with PyMOL 2.3.2
@<TRIPOS>MOLECULE
651
32 35 1                 
SMALL
USER_CHARGES
@<TRIPOS>ATOM
1	  Br	-2.209	0.558	4.202	Br	1	UNK0	0.000	
2	   C	-0.522	1.032	3.460	C.2	1	UNK0	0.000	
3	   C	0.592	1.496	4.122	C.2	1	UNK0	0.000	
4	   N	1.579	1.715	3.237	N.pl3	1	UNK0	0.000	
5	   N	1.085	1.393	2.057	N.2	1	UNK0	0.000	
6	   C	-0.185	0.972	2.125	C.2	1	UNK0	0.000	
7	   C	-1.045	0.536	1.024	C.2	1	UNK0	0.000	
8	   N	-0.717	0.477	-0.279	N.2	1	UNK0	0.000	
9	   N	-1.757	0.033	-0.982	N.pl3	1	UNK0	0.000	
10	   C	-2.778	-0.202	-0.137	C.2	1	UNK0	0.000	
11	   N	-2.320	0.113	1.084	N.2	1	UNK0	0.000	
12	   C	-3.973	-0.674	-0.650	C.2	1	UNK0	0.000	
13	   C	-4.167	-0.915	-1.994	C.2	1	UNK0	0.000	
14	   N	-5.425	-1.368	-2.200	N.pl3	1	UNK0	0.000	
15	   N	-6.019	-1.417	-1.029	N.2	1	UNK0	0.000	
16	   C	-5.169	-1.000	-0.046	C.2	1	UNK0	0.000	
17	   C	-6.020	-1.738	-3.487	C.3	1	UNK0	0.000	
18	   N	-3.120	-0.666	-2.799	N.2	1	UNK0	0.000	
19	   C	-1.943	-0.202	-2.299	C.2	1	UNK0	0.000	
20	   C	2.933	2.212	3.530	C.3	1	UNK0	0.000	
21	   C	3.878	1.067	3.811	C.3	1	UNK0	0.000	
22	   H	0.621	1.647	5.198	 H	1	UNK0	0.000	
23	   H	-5.384	-0.936	1.003	 H	1	UNK0	0.000	
24	   H	-6.317	-0.821	-4.027	 H	1	UNK0	0.000	
25	   H	-6.852	-2.443	-3.321	 H	1	UNK0	0.000	
26	   H	-5.254	-2.260	-4.096	 H	1	UNK0	0.000	
27	   H	-1.107	-0.005	-2.962	 H	1	UNK0	0.000	
28	   H	3.319	2.814	2.683	 H	1	UNK0	0.000	
29	   H	2.854	2.811	4.459	 H	1	UNK0	0.000	
30	   H	4.914	1.440	3.663	 H	1	UNK0	0.000	
31	   H	3.699	0.207	3.113	 H	1	UNK0	0.000	
32	   H	3.817	0.710	4.863	 H	1	UNK0	0.000	
@<TRIPOS>BOND
1 1 2 1
2 2 3 2
3 2 6 1
4 3 4 1
5 4 5 1
6 4 20 1
7 5 6 2
8 6 7 1
9 7 8 2
10 7 11 1
11 8 9 1
12 9 10 1
13 9 19 1
14 10 11 2
15 10 12 1
16 12 13 2
17 12 16 1
18 13 14 1
19 13 18 1
20 14 15 1
21 14 17 1
22 15 16 2
23 18 19 2
24 20 21 1
25 3 22 1
26 16 23 1
27 17 24 1
28 17 25 1
29 17 26 1
30 19 27 1
31 20 28 1
32 20 29 1
33 21 30 1
34 21 31 1
35 21 32 1
@<TRIPOS>SUBSTRUCTURE
1	UNK0	1	GROUP	1 ****	UNK
