# created with PyMOL 2.3.2
@<TRIPOS>MOLECULE
652
32 35 1                 
SMALL
USER_CHARGES
@<TRIPOS>ATOM
1	  Br	6.277	-2.525	0.060	Br	1	UNK0	0.000	
2	   C	5.241	-1.000	-0.365	C.2	1	UNK0	0.000	
3	   C	4.072	-1.005	-1.090	C.2	1	UNK0	0.000	
4	   N	3.649	0.269	-1.171	N.pl3	1	UNK0	0.000	
5	   N	4.504	1.049	-0.530	N.2	1	UNK0	0.000	
6	   C	5.510	0.320	-0.010	C.2	1	UNK0	0.000	
7	   C	2.427	0.641	-1.876	C.3	1	UNK0	0.000	
8	   C	2.226	-0.244	-3.087	C.3	1	UNK0	0.000	
9	   C	1.261	0.532	-0.959	C.2	1	UNK0	0.000	
10	   N	0.485	-0.537	-0.753	N.2	1	UNK0	0.000	
11	   N	-0.461	-0.275	0.132	N.pl3	1	UNK0	0.000	
12	   C	-0.305	1.004	0.521	C.2	1	UNK0	0.000	
13	   N	0.751	1.502	-0.147	N.2	1	UNK0	0.000	
14	   C	-1.197	1.491	1.453	C.2	1	UNK0	0.000	
15	   C	-2.218	0.723	1.983	C.2	1	UNK0	0.000	
16	   N	-2.932	1.446	2.864	N.pl3	1	UNK0	0.000	
17	   N	-2.381	2.648	2.896	N.2	1	UNK0	0.000	
18	   C	-1.327	2.720	2.057	C.2	1	UNK0	0.000	
19	   C	-4.096	0.998	3.641	C.3	1	UNK0	0.000	
20	   N	-2.324	-0.552	1.555	N.2	1	UNK0	0.000	
21	   C	-1.454	-1.035	0.643	C.2	1	UNK0	0.000	
22	   H	3.613	-1.888	-1.501	 H	1	UNK0	0.000	
23	   H	6.364	0.640	0.565	 H	1	UNK0	0.000	
24	   H	2.507	1.691	-2.237	 H	1	UNK0	0.000	
25	   H	1.483	0.267	-3.741	 H	1	UNK0	0.000	
26	   H	3.187	-0.280	-3.653	 H	1	UNK0	0.000	
27	   H	1.873	-1.255	-2.801	 H	1	UNK0	0.000	
28	   H	-0.670	3.554	1.854	 H	1	UNK0	0.000	
29	   H	-4.788	1.839	3.751	 H	1	UNK0	0.000	
30	   H	-3.802	0.670	4.657	 H	1	UNK0	0.000	
31	   H	-4.562	0.131	3.142	 H	1	UNK0	0.000	
32	   H	-1.532	-2.072	0.287	 H	1	UNK0	0.000	
@<TRIPOS>BOND
1 1 2 1
2 2 3 2
3 2 6 1
4 3 4 1
5 4 5 1
6 4 7 1
7 5 6 2
8 7 8 1
9 7 9 1
10 9 10 2
11 9 13 1
12 10 11 1
13 11 12 1
14 11 21 1
15 12 13 2
16 12 14 1
17 14 15 2
18 14 18 1
19 15 16 1
20 15 20 1
21 16 17 1
22 16 19 1
23 17 18 2
24 20 21 2
25 3 22 1
26 6 23 1
27 7 24 1
28 8 25 1
29 8 26 1
30 8 27 1
31 18 28 1
32 19 29 1
33 19 30 1
34 19 31 1
35 21 32 1
@<TRIPOS>SUBSTRUCTURE
1	UNK0	1	GROUP	1 ****	UNK
