# created with PyMOL 2.3.2
@<TRIPOS>MOLECULE
654
55 59 1                 
SMALL
USER_CHARGES
@<TRIPOS>ATOM
1	  Br	-1.873	3.418	-4.753	Br	1	UNK0	0.000	
2	   C	-0.038	3.524	-4.249	C.2	1	UNK0	0.000	
3	   C	0.554	3.222	-3.039	C.2	1	UNK0	0.000	
4	   N	1.891	3.445	-3.119	N.pl3	1	UNK0	0.000	
5	   N	2.136	3.871	-4.328	N.2	1	UNK0	0.000	
6	   C	1.014	3.943	-5.067	C.2	1	UNK0	0.000	
7	   C	2.886	3.261	-2.089	C.3	1	UNK0	0.000	
8	   C	3.482	1.872	-2.098	C.3	1	UNK0	0.000	
9	   C	4.151	1.565	-3.395	C.3	1	UNK0	0.000	
10	   C	2.420	0.882	-1.756	C.2	1	UNK0	0.000	
11	   O	2.178	-0.004	-2.614	O.2	1	UNK0	0.000	
12	   N	1.711	0.928	-0.532	N.pl3	1	UNK0	0.000	
13	   N	0.723	0.043	-0.163	N.pl3	1	UNK0	0.000	
14	   C	0.203	0.028	1.140	C.2	1	UNK0	0.000	
15	   O	0.668	0.855	1.982	O.2	1	UNK0	0.000	
16	   C	-0.859	-0.894	1.606	C.3	1	UNK0	0.000	
17	   C	-1.205	-0.622	3.056	C.3	1	UNK0	0.000	
18	   C	-2.273	-1.563	3.537	C.3	1	UNK0	0.000	
19	   C	-3.526	-1.282	2.705	C.3	1	UNK0	0.000	
20	   C	-3.231	-1.522	1.259	C.3	1	UNK0	0.000	
21	   C	-2.106	-0.628	0.791	C.3	1	UNK0	0.000	
22	   C	-2.835	-2.968	1.069	C.3	1	UNK0	0.000	
23	   C	-1.594	-3.221	1.893	C.3	1	UNK0	0.000	
24	   C	-1.913	-3.004	3.350	C.3	1	UNK0	0.000	
25	   C	-0.465	-2.343	1.423	C.3	1	UNK0	0.000	
26	   N	-2.543	-1.235	4.923	N.pl3	1	UNK0	0.000	
27	   N	-2.203	-1.873	6.029	N.2	1	UNK0	0.000	
28	   N	-2.631	-1.264	7.094	N.2	1	UNK0	0.000	
29	   C	-3.282	-0.181	6.708	C.2	1	UNK0	0.000	
30	   N	-3.228	-0.160	5.347	N.2	1	UNK0	0.000	
31	   H	0.044	2.866	-2.168	 H	1	UNK0	0.000	
32	   H	0.879	4.253	-6.093	 H	1	UNK0	0.000	
33	   H	2.399	3.404	-1.110	 H	1	UNK0	0.000	
34	   H	3.711	4.002	-2.162	 H	1	UNK0	0.000	
35	   H	4.242	1.807	-1.291	 H	1	UNK0	0.000	
36	   H	4.855	2.419	-3.604	 H	1	UNK0	0.000	
37	   H	4.818	0.680	-3.287	 H	1	UNK0	0.000	
38	   H	3.471	1.506	-4.252	 H	1	UNK0	0.000	
39	   H	1.972	1.704	0.139	 H	1	UNK0	0.000	
40	   H	0.348	-0.634	-0.871	 H	1	UNK0	0.000	
41	   H	-0.286	-0.671	3.695	 H	1	UNK0	0.000	
42	   H	-1.661	0.402	3.078	 H	1	UNK0	0.000	
43	   H	-4.372	-1.892	3.033	 H	1	UNK0	0.000	
44	   H	-3.710	-0.186	2.831	 H	1	UNK0	0.000	
45	   H	-4.118	-1.284	0.650	 H	1	UNK0	0.000	
46	   H	-1.944	-0.787	-0.296	 H	1	UNK0	0.000	
47	   H	-2.411	0.424	0.991	 H	1	UNK0	0.000	
48	   H	-3.672	-3.588	1.479	 H	1	UNK0	0.000	
49	   H	-2.671	-3.148	0.002	 H	1	UNK0	0.000	
50	   H	-1.302	-4.294	1.701	 H	1	UNK0	0.000	
51	   H	-1.059	-3.309	3.977	 H	1	UNK0	0.000	
52	   H	-2.821	-3.598	3.590	 H	1	UNK0	0.000	
53	   H	-0.292	-2.502	0.356	 H	1	UNK0	0.000	
54	   H	0.415	-2.555	2.057	 H	1	UNK0	0.000	
55	   H	-3.757	0.535	7.361	 H	1	UNK0	0.000	
@<TRIPOS>BOND
1 1 2 1
2 2 3 2
3 2 6 1
4 3 4 1
5 4 5 1
6 4 7 1
7 5 6 2
8 7 8 1
9 8 9 1
10 8 10 1
11 10 11 2
12 10 12 1
13 12 13 1
14 13 14 1
15 14 15 2
16 14 16 1
17 16 17 1
18 16 21 1
19 16 25 1
20 17 18 1
21 18 19 1
22 18 24 1
23 18 26 1
24 19 20 1
25 20 21 1
26 20 22 1
27 22 23 1
28 23 24 1
29 23 25 1
30 26 27 1
31 26 30 1
32 27 28 2
33 28 29 1
34 29 30 2
35 3 31 1
36 6 32 1
37 7 33 1
38 7 34 1
39 8 35 1
40 9 36 1
41 9 37 1
42 9 38 1
43 12 39 1
44 13 40 1
45 17 41 1
46 17 42 1
47 19 43 1
48 19 44 1
49 20 45 1
50 21 46 1
51 21 47 1
52 22 48 1
53 22 49 1
54 23 50 1
55 24 51 1
56 24 52 1
57 25 53 1
58 25 54 1
59 29 55 1
@<TRIPOS>SUBSTRUCTURE
1	UNK0	1	GROUP	1 ****	UNK
