# created with PyMOL 2.3.2
@<TRIPOS>MOLECULE
655
35 38 1                 
SMALL
USER_CHARGES
@<TRIPOS>ATOM
1	  Br	1.006	-1.531	6.030	Br	1	UNK0	0.000	
2	   C	1.560	-1.426	4.210	C.2	1	UNK0	0.000	
3	   C	1.630	-2.467	3.312	C.2	1	UNK0	0.000	
4	   N	2.072	-1.974	2.118	N.pl3	1	UNK0	0.000	
5	   N	2.261	-0.681	2.294	N.2	1	UNK0	0.000	
6	   C	1.965	-0.303	3.543	C.2	1	UNK0	0.000	
7	   C	2.294	-2.721	0.898	C.3	1	UNK0	0.000	
8	   C	1.023	-2.739	0.071	C.3	1	UNK0	0.000	
9	   C	-0.040	-3.415	0.948	C.3	1	UNK0	0.000	
10	   C	0.552	-1.378	-0.294	C.2	1	UNK0	0.000	
11	   N	0.232	-0.350	0.525	N.2	1	UNK0	0.000	
12	   N	-0.147	0.705	-0.181	N.pl3	1	UNK0	0.000	
13	   C	-0.082	0.386	-1.487	C.2	1	UNK0	0.000	
14	   N	0.345	-0.887	-1.552	N.2	1	UNK0	0.000	
15	   C	-0.438	1.352	-2.409	C.2	1	UNK0	0.000	
16	   C	-0.852	2.617	-2.032	C.2	1	UNK0	0.000	
17	   N	-1.134	3.346	-3.128	N.pl3	1	UNK0	0.000	
18	   N	-0.908	2.574	-4.177	N.2	1	UNK0	0.000	
19	   C	-0.482	1.350	-3.782	C.2	1	UNK0	0.000	
20	   C	-1.603	4.733	-3.177	C.3	1	UNK0	0.000	
21	   N	-0.895	2.874	-0.715	N.2	1	UNK0	0.000	
22	   C	-0.549	1.936	0.206	C.2	1	UNK0	0.000	
23	   H	1.379	-3.511	3.505	 H	1	UNK0	0.000	
24	   H	2.026	0.687	3.961	 H	1	UNK0	0.000	
25	   H	2.482	-3.773	1.193	 H	1	UNK0	0.000	
26	   H	3.151	-2.319	0.319	 H	1	UNK0	0.000	
27	   H	1.162	-3.306	-0.873	 H	1	UNK0	0.000	
28	   H	0.440	-4.303	1.405	 H	1	UNK0	0.000	
29	   H	-0.270	-2.666	1.747	 H	1	UNK0	0.000	
30	   H	-0.921	-3.686	0.349	 H	1	UNK0	0.000	
31	   H	-0.213	0.493	-4.377	 H	1	UNK0	0.000	
32	   H	-0.766	5.450	-3.039	 H	1	UNK0	0.000	
33	   H	-2.301	4.929	-2.313	 H	1	UNK0	0.000	
34	   H	-2.141	4.950	-4.097	 H	1	UNK0	0.000	
35	   H	-0.582	2.138	1.269	 H	1	UNK0	0.000	
@<TRIPOS>BOND
1 1 2 1
2 2 3 2
3 2 6 1
4 3 4 1
5 4 5 1
6 4 7 1
7 5 6 2
8 7 8 1
9 8 9 1
10 8 10 1
11 10 11 2
12 10 14 1
13 11 12 1
14 12 13 1
15 12 22 1
16 13 14 2
17 13 15 1
18 15 16 2
19 15 19 1
20 16 17 1
21 16 21 1
22 17 18 1
23 17 20 1
24 18 19 2
25 21 22 2
26 3 23 1
27 6 24 1
28 7 25 1
29 7 26 1
30 8 27 1
31 9 28 1
32 9 29 1
33 9 30 1
34 19 31 1
35 20 32 1
36 20 33 1
37 20 34 1
38 22 35 1
@<TRIPOS>SUBSTRUCTURE
1	UNK0	1	GROUP	1 ****	UNK
