# created with PyMOL 2.3.2
@<TRIPOS>MOLECULE
656
29 32 1                 
SMALL
USER_CHARGES
@<TRIPOS>ATOM
1	  Br	-4.128	-3.921	0.276	Br	1	UNK0	0.000	
2	   C	-3.836	-2.049	0.075	C.2	1	UNK0	0.000	
3	   C	-2.903	-1.460	-0.756	C.2	1	UNK0	0.000	
4	   N	-2.981	-0.118	-0.638	N.pl3	1	UNK0	0.000	
5	   N	-3.929	0.138	0.237	N.2	1	UNK0	0.000	
6	   C	-4.483	-0.997	0.704	C.2	1	UNK0	0.000	
7	   C	-2.171	0.855	-1.344	C.3	1	UNK0	0.000	
8	   C	-0.941	1.138	-0.522	C.2	1	UNK0	0.000	
9	   N	-0.794	2.088	0.425	N.2	1	UNK0	0.000	
10	   N	0.439	2.022	0.924	N.pl3	1	UNK0	0.000	
11	   C	1.108	1.030	0.309	C.2	1	UNK0	0.000	
12	   N	0.244	0.500	-0.575	N.2	1	UNK0	0.000	
13	   C	2.417	0.779	0.671	C.2	1	UNK0	0.000	
14	   C	3.077	1.504	1.644	C.2	1	UNK0	0.000	
15	   N	4.341	1.040	1.789	N.pl3	1	UNK0	0.000	
16	   N	4.488	0.034	0.922	N.2	1	UNK0	0.000	
17	   C	3.346	-0.144	0.238	C.2	1	UNK0	0.000	
18	   C	5.350	1.539	2.710	C.3	1	UNK0	0.000	
19	   N	2.366	2.488	2.233	N.2	1	UNK0	0.000	
20	   C	1.089	2.730	1.875	C.2	1	UNK0	0.000	
21	   H	-2.218	-2.007	-1.402	 H	1	UNK0	0.000	
22	   H	-5.281	-1.131	1.429	 H	1	UNK0	0.000	
23	   H	-1.897	0.442	-2.338	 H	1	UNK0	0.000	
24	   H	-2.707	1.823	-1.408	 H	1	UNK0	0.000	
25	   H	3.183	-0.888	-0.525	 H	1	UNK0	0.000	
26	   H	6.113	2.161	2.207	 H	1	UNK0	0.000	
27	   H	5.815	0.690	3.275	 H	1	UNK0	0.000	
28	   H	4.844	2.158	3.486	 H	1	UNK0	0.000	
29	   H	0.531	3.532	2.366	 H	1	UNK0	0.000	
@<TRIPOS>BOND
1 1 2 1
2 2 3 2
3 2 6 1
4 3 4 1
5 4 5 1
6 4 7 1
7 5 6 2
8 7 8 1
9 8 9 2
10 8 12 1
11 9 10 1
12 10 11 1
13 10 20 1
14 11 12 2
15 11 13 1
16 13 14 2
17 13 17 1
18 14 15 1
19 14 19 1
20 15 16 1
21 15 18 1
22 16 17 2
23 19 20 2
24 3 21 1
25 6 22 1
26 7 23 1
27 7 24 1
28 17 25 1
29 18 26 1
30 18 27 1
31 18 28 1
32 20 29 1
@<TRIPOS>SUBSTRUCTURE
1	UNK0	1	GROUP	1 ****	UNK
