# created with PyMOL 2.3.2
@<TRIPOS>MOLECULE
661
36 40 1                 
SMALL
USER_CHARGES
@<TRIPOS>ATOM
1	  Br	0.461	7.808	1.485	Br	1	UNK0	0.000	
2	   C	0.949	6.762	-0.036	C.2	1	UNK0	0.000	
3	   C	1.705	5.616	0.021	C.2	1	UNK0	0.000	
4	   N	1.824	5.184	-1.250	N.pl3	1	UNK0	0.000	
5	   N	1.186	5.996	-2.080	N.2	1	UNK0	0.000	
6	   C	0.627	6.990	-1.370	C.2	1	UNK0	0.000	
7	   C	2.554	3.990	-1.643	C.3	1	UNK0	0.000	
8	   N	1.608	2.864	-1.612	N.pl3	1	UNK0	0.000	
9	   N	1.343	2.073	-0.586	N.2	1	UNK0	0.000	
10	   C	0.426	1.146	-0.906	C.2	1	UNK0	0.000	
11	   C	0.112	1.395	-2.226	C.2	1	UNK0	0.000	
12	   C	0.866	2.488	-2.671	C.2	1	UNK0	0.000	
13	   C	-0.135	0.093	-0.063	C.2	1	UNK0	0.000	
14	   N	0.176	-0.145	1.224	N.2	1	UNK0	0.000	
15	   N	-0.537	-1.188	1.665	N.pl3	1	UNK0	0.000	
16	   C	-1.321	-1.642	0.669	C.2	1	UNK0	0.000	
17	   N	-1.052	-0.835	-0.381	N.2	1	UNK0	0.000	
18	   C	-2.168	-2.726	0.859	C.2	1	UNK0	0.000	
19	   C	-2.243	-3.380	2.070	C.2	1	UNK0	0.000	
20	   N	-3.134	-4.389	1.992	N.pl3	1	UNK0	0.000	
21	   N	-3.631	-4.392	0.750	N.2	1	UNK0	0.000	
22	   C	-3.055	-3.381	0.036	C.2	1	UNK0	0.000	
23	   C	-3.487	-5.306	3.065	C.3	1	UNK0	0.000	
24	   N	-1.442	-2.895	3.044	N.2	1	UNK0	0.000	
25	   C	-0.626	-1.842	2.841	C.2	1	UNK0	0.000	
26	   H	2.111	5.175	0.923	 H	1	UNK0	0.000	
27	   H	0.031	7.832	-1.725	 H	1	UNK0	0.000	
28	   H	2.999	4.076	-2.641	 H	1	UNK0	0.000	
29	   H	3.357	3.821	-0.910	 H	1	UNK0	0.000	
30	   H	-0.603	0.828	-2.807	 H	1	UNK0	0.000	
31	   H	0.842	2.924	-3.664	 H	1	UNK0	0.000	
32	   H	-3.233	-3.108	-0.996	 H	1	UNK0	0.000	
33	   H	-4.609	-5.417	3.011	 H	1	UNK0	0.000	
34	   H	-3.003	-6.269	2.907	 H	1	UNK0	0.000	
35	   H	-3.193	-4.850	4.040	 H	1	UNK0	0.000	
36	   H	0.021	-1.457	3.642	 H	1	UNK0	0.000	
@<TRIPOS>BOND
1 1 2 1
2 2 3 2
3 2 6 1
4 3 4 1
5 4 5 1
6 4 7 1
7 5 6 2
8 7 8 1
9 8 9 1
10 8 12 1
11 9 10 2
12 10 11 1
13 10 13 1
14 11 12 2
15 13 14 2
16 13 17 1
17 14 15 1
18 15 16 1
19 15 25 1
20 16 17 2
21 16 18 1
22 18 19 2
23 18 22 1
24 19 20 1
25 19 24 1
26 20 21 1
27 20 23 1
28 21 22 2
29 24 25 2
30 3 26 1
31 6 27 1
32 7 28 1
33 7 29 1
34 11 30 1
35 12 31 1
36 22 32 1
37 23 33 1
38 23 34 1
39 23 35 1
40 25 36 1
@<TRIPOS>SUBSTRUCTURE
1	UNK0	1	GROUP	1 ****	UNK
