# created with PyMOL 2.3.2
@<TRIPOS>MOLECULE
664
42 45 1                 
SMALL
USER_CHARGES
@<TRIPOS>ATOM
1	  Br	-1.543	3.415	5.602	Br	1	UNK0	0.000	
2	   C	-0.488	2.763	4.153	C.2	1	UNK0	0.000	
3	   C	-0.897	2.218	2.953	C.2	1	UNK0	0.000	
4	   N	0.167	1.875	2.188	N.pl3	1	UNK0	0.000	
5	   N	1.231	2.202	2.900	N.2	1	UNK0	0.000	
6	   C	0.897	2.738	4.086	C.2	1	UNK0	0.000	
7	   C	0.141	1.284	0.883	C.2	1	UNK0	0.000	
8	   N	1.157	1.416	0.031	N.2	1	UNK0	0.000	
9	   C	1.139	0.853	-1.217	C.2	1	UNK0	0.000	
10	   N	0.029	0.156	-1.535	N.2	1	UNK0	0.000	
11	   C	-1.022	-0.009	-0.719	C.2	1	UNK0	0.000	
12	   N	-0.915	0.587	0.506	N.2	1	UNK0	0.000	
13	   N	-2.175	-0.739	-1.061	N.pl3	1	UNK0	0.000	
14	   C	-3.253	-0.865	-0.127	C.3	1	UNK0	0.000	
15	   C	-3.500	-2.364	0.028	C.3	1	UNK0	0.000	
16	   O	-3.845	-2.839	-1.236	O.3	1	UNK0	0.000	
17	   C	-2.773	-2.801	-2.118	C.3	1	UNK0	0.000	
18	   C	-2.304	-1.368	-2.336	C.3	1	UNK0	0.000	
19	   N	2.227	1.009	-2.097	N.pl3	1	UNK0	0.000	
20	   C	3.382	1.758	-1.714	C.3	1	UNK0	0.000	
21	   C	4.597	0.863	-1.951	C.3	1	UNK0	0.000	
22	   O	4.223	-0.408	-2.374	O.3	1	UNK0	0.000	
23	   C	3.496	-0.377	-3.559	C.3	1	UNK0	0.000	
24	   C	2.196	0.417	-3.397	C.3	1	UNK0	0.000	
25	   H	-1.927	2.078	2.653	 H	1	UNK0	0.000	
26	   H	1.568	3.093	4.865	 H	1	UNK0	0.000	
27	   H	-4.185	-0.401	-0.506	 H	1	UNK0	0.000	
28	   H	-2.976	-0.492	0.881	 H	1	UNK0	0.000	
29	   H	-2.522	-2.790	0.357	 H	1	UNK0	0.000	
30	   H	-4.321	-2.581	0.726	 H	1	UNK0	0.000	
31	   H	-1.970	-3.427	-1.727	 H	1	UNK0	0.000	
32	   H	-3.146	-3.174	-3.095	 H	1	UNK0	0.000	
33	   H	-1.366	-1.390	-2.922	 H	1	UNK0	0.000	
34	   H	-3.103	-0.840	-2.904	 H	1	UNK0	0.000	
35	   H	3.337	2.118	-0.664	 H	1	UNK0	0.000	
36	   H	3.469	2.661	-2.386	 H	1	UNK0	0.000	
37	   H	5.287	1.332	-2.676	 H	1	UNK0	0.000	
38	   H	5.096	0.743	-0.967	 H	1	UNK0	0.000	
39	   H	3.207	-1.439	-3.770	 H	1	UNK0	0.000	
40	   H	4.138	0.058	-4.338	 H	1	UNK0	0.000	
41	   H	2.188	1.256	-4.149	 H	1	UNK0	0.000	
42	   H	1.313	-0.238	-3.533	 H	1	UNK0	0.000	
@<TRIPOS>BOND
1 1 2 1
2 2 3 2
3 2 6 1
4 3 4 1
5 4 5 1
6 4 7 1
7 5 6 2
8 7 8 2
9 7 12 1
10 8 9 1
11 9 10 2
12 9 19 1
13 10 11 1
14 11 12 2
15 11 13 1
16 13 14 1
17 13 18 1
18 14 15 1
19 15 16 1
20 16 17 1
21 17 18 1
22 19 20 1
23 19 24 1
24 20 21 1
25 21 22 1
26 22 23 1
27 23 24 1
28 3 25 1
29 6 26 1
30 14 27 1
31 14 28 1
32 15 29 1
33 15 30 1
34 17 31 1
35 17 32 1
36 18 33 1
37 18 34 1
38 20 35 1
39 20 36 1
40 21 37 1
41 21 38 1
42 23 39 1
43 23 40 1
44 24 41 1
45 24 42 1
@<TRIPOS>SUBSTRUCTURE
1	UNK0	1	GROUP	1 ****	UNK
