# created with PyMOL 2.3.2
@<TRIPOS>MOLECULE
665
41 43 1                 
SMALL
USER_CHARGES
@<TRIPOS>ATOM
1	  Br	-1.495	-0.410	5.550	Br	1	UNK0	0.000	
2	   C	-1.233	-1.145	3.814	C.2	1	UNK0	0.000	
3	   C	-1.720	-2.393	3.454	C.2	1	UNK0	0.000	
4	   N	-1.554	-2.925	2.258	N.2	1	UNK0	0.000	
5	   C	-0.867	-2.258	1.259	C.2	1	UNK0	0.000	
6	   C	-0.392	-1.036	1.623	C.2	1	UNK0	0.000	
7	   C	-0.539	-0.427	2.868	C.2	1	UNK0	0.000	
8	   N	0.007	0.863	3.122	N.pl3	1	UNK0	0.000	
9	   C	-0.765	2.014	3.507	C.3	1	UNK0	0.000	
10	   C	1.441	1.020	2.981	C.3	1	UNK0	0.000	
11	   N	-0.672	-2.928	0.029	N.pl3	1	UNK0	0.000	
12	   C	-0.301	-2.612	-1.245	C.2	1	UNK0	0.000	
13	   O	-0.069	-3.741	-1.961	O.2	1	UNK0	0.000	
14	   N	-0.092	-1.510	-2.044	N.pl3	1	UNK0	0.000	
15	   C	-0.327	-0.133	-1.786	C.3	1	UNK0	0.000	
16	   C	0.988	0.647	-1.757	C.3	1	UNK0	0.000	
17	   N	1.898	0.027	-2.712	N.3	1	UNK0	0.000	
18	   C	1.112	-0.463	-3.839	C.3	1	UNK0	0.000	
19	   C	0.489	-1.766	-3.400	C.3	1	UNK0	0.000	
20	   C	-0.024	0.545	-4.110	C.3	1	UNK0	0.000	
21	   C	-1.093	0.379	-3.051	C.3	1	UNK0	0.000	
22	   H	-2.267	-2.920	4.253	 H	1	UNK0	0.000	
23	   H	0.206	-0.487	0.893	 H	1	UNK0	0.000	
24	   H	-0.347	2.965	3.095	 H	1	UNK0	0.000	
25	   H	-0.722	2.097	4.605	 H	1	UNK0	0.000	
26	   H	-1.815	1.973	3.116	 H	1	UNK0	0.000	
27	   H	1.781	2.037	3.244	 H	1	UNK0	0.000	
28	   H	1.959	0.230	3.544	 H	1	UNK0	0.000	
29	   H	1.665	0.829	1.896	 H	1	UNK0	0.000	
30	   H	-0.729	-4.038	0.191	 H	1	UNK0	0.000	
31	   H	-0.903	0.140	-0.912	 H	1	UNK0	0.000	
32	   H	1.434	0.576	-0.767	 H	1	UNK0	0.000	
33	   H	0.759	1.700	-2.010	 H	1	UNK0	0.000	
34	   H	2.664	0.652	-3.003	 H	1	UNK0	0.000	
35	   H	1.724	-0.526	-4.734	 H	1	UNK0	0.000	
36	   H	1.323	-2.479	-3.196	 H	1	UNK0	0.000	
37	   H	-0.269	-2.151	-4.077	 H	1	UNK0	0.000	
38	   H	0.400	1.556	-4.003	 H	1	UNK0	0.000	
39	   H	-0.445	0.334	-5.100	 H	1	UNK0	0.000	
40	   H	-1.570	1.332	-2.771	 H	1	UNK0	0.000	
41	   H	-1.812	-0.432	-3.277	 H	1	UNK0	0.000	
@<TRIPOS>BOND
1 1 2 1
2 2 3 2
3 2 7 1
4 3 4 1
5 4 5 2
6 5 6 1
7 5 11 1
8 6 7 2
9 7 8 1
10 8 9 1
11 8 10 1
12 11 12 1
13 12 13 2
14 12 14 1
15 14 15 1
16 14 19 1
17 15 16 1
18 15 21 1
19 16 17 1
20 17 18 1
21 18 19 1
22 18 20 1
23 20 21 1
24 3 22 1
25 6 23 1
26 9 24 1
27 9 25 1
28 9 26 1
29 10 27 1
30 10 28 1
31 10 29 1
32 11 30 1
33 15 31 1
34 16 32 1
35 16 33 1
36 17 34 1
37 18 35 1
38 19 36 1
39 19 37 1
40 20 38 1
41 20 39 1
42 21 40 1
43 21 41 1
@<TRIPOS>SUBSTRUCTURE
1	UNK0	1	GROUP	1 ****	UNK
