# created with PyMOL 2.3.2
@<TRIPOS>MOLECULE
667
40 43 1                 
SMALL
USER_CHARGES
@<TRIPOS>ATOM
1	  Br	7.261	1.074	-1.719	Br	1	UNK0	0.000	
2	   C	5.618	0.776	-0.824	C.2	1	UNK0	0.000	
3	   C	4.971	-0.435	-0.967	C.2	1	UNK0	0.000	
4	   N	3.807	-0.615	-0.319	N.2	1	UNK0	0.000	
5	   C	3.226	0.302	0.461	C.2	1	UNK0	0.000	
6	   C	3.882	1.504	0.594	C.2	1	UNK0	0.000	
7	   C	5.084	1.777	-0.036	C.2	1	UNK0	0.000	
8	   N	1.995	0.102	1.144	N.pl3	1	UNK0	0.000	
9	   C	1.435	1.167	1.900	C.3	1	UNK0	0.000	
10	   C	0.036	1.014	2.380	C.3	1	UNK0	0.000	
11	   N	-0.570	-0.030	1.490	N.pl3	1	UNK0	0.000	
12	   C	0.065	-1.296	1.651	C.3	1	UNK0	0.000	
13	   C	1.423	-1.234	0.987	C.3	1	UNK0	0.000	
14	   C	-1.647	0.270	0.682	C.2	1	UNK0	0.000	
15	   O	-2.135	1.478	0.823	O.2	1	UNK0	0.000	
16	   C	-2.319	-0.539	-0.295	C.2	1	UNK0	0.000	
17	   C	-1.867	-1.716	-0.833	C.2	1	UNK0	0.000	
18	   N	-2.598	-2.444	-1.702	N.2	1	UNK0	0.000	
19	   C	-3.809	-2.044	-2.081	C.2	1	UNK0	0.000	
20	   N	-4.710	-2.585	-2.917	N.2	1	UNK0	0.000	
21	   C	-5.789	-1.772	-2.954	C.2	1	UNK0	0.000	
22	   N	-5.549	-0.727	-2.138	N.pl3	1	UNK0	0.000	
23	   C	-4.344	-0.862	-1.586	C.2	1	UNK0	0.000	
24	   C	-3.592	-0.135	-0.707	C.2	1	UNK0	0.000	
25	   O	-6.959	-1.957	-3.699	O.3	1	UNK0	0.000	
26	   H	5.437	-1.178	-1.595	 H	1	UNK0	0.000	
27	   H	3.480	2.300	1.208	 H	1	UNK0	0.000	
28	   H	5.623	2.707	0.047	 H	1	UNK0	0.000	
29	   H	2.073	1.378	2.806	 H	1	UNK0	0.000	
30	   H	1.464	2.146	1.333	 H	1	UNK0	0.000	
31	   H	-0.551	1.934	2.302	 H	1	UNK0	0.000	
32	   H	0.028	0.567	3.392	 H	1	UNK0	0.000	
33	   H	0.312	-1.393	2.789	 H	1	UNK0	0.000	
34	   H	-0.468	-2.196	1.449	 H	1	UNK0	0.000	
35	   H	2.108	-1.937	1.489	 H	1	UNK0	0.000	
36	   H	1.416	-1.458	-0.088	 H	1	UNK0	0.000	
37	   H	-0.885	-2.070	-0.603	 H	1	UNK0	0.000	
38	   H	-6.235	0.060	-1.984	 H	1	UNK0	0.000	
39	   H	-4.027	0.783	-0.330	 H	1	UNK0	0.000	
40	   H	-6.942	-2.303	-4.647	 H	1	UNK0	0.000	
@<TRIPOS>BOND
1 1 2 1
2 2 3 2
3 2 7 1
4 3 4 1
5 4 5 2
6 5 6 1
7 5 8 1
8 6 7 2
9 8 9 1
10 8 13 1
11 9 10 1
12 10 11 1
13 11 12 1
14 11 14 1
15 12 13 1
16 14 15 2
17 14 16 1
18 16 17 2
19 16 24 1
20 17 18 1
21 18 19 2
22 19 20 1
23 19 23 1
24 20 21 2
25 21 22 1
26 21 25 1
27 22 23 1
28 23 24 2
29 3 26 1
30 6 27 1
31 7 28 1
32 9 29 1
33 9 30 1
34 10 31 1
35 10 32 1
36 12 33 1
37 12 34 1
38 13 35 1
39 13 36 1
40 17 37 1
41 22 38 1
42 24 39 1
43 25 40 1
@<TRIPOS>SUBSTRUCTURE
1	UNK0	1	GROUP	1 ****	UNK
