# created with PyMOL 2.3.2
@<TRIPOS>MOLECULE
668
40 43 1                 
SMALL
USER_CHARGES
@<TRIPOS>ATOM
1	  Br	7.713	-1.677	-0.688	Br	1	UNK0	0.000	
2	   C	5.819	-1.469	-0.479	C.2	1	UNK0	0.000	
3	   C	5.274	-0.241	-0.167	C.2	1	UNK0	0.000	
4	   N	3.959	-0.053	-0.013	N.2	1	UNK0	0.000	
5	   C	3.046	-1.068	-0.153	C.2	1	UNK0	0.000	
6	   C	3.579	-2.294	-0.464	C.2	1	UNK0	0.000	
7	   C	4.949	-2.513	-0.629	C.2	1	UNK0	0.000	
8	   N	1.671	-0.787	0.032	N.pl3	1	UNK0	0.000	
9	   C	0.673	-1.775	-0.238	C.3	1	UNK0	0.000	
10	   C	-0.311	-1.106	-1.221	C.3	1	UNK0	0.000	
11	   N	-0.933	-0.039	-0.525	N.3	1	UNK0	0.000	
12	   C	-0.053	0.985	-0.063	C.3	1	UNK0	0.000	
13	   C	1.228	0.510	0.510	C.3	1	UNK0	0.000	
14	   C	-1.994	-0.393	0.354	C.3	1	UNK0	0.000	
15	   C	-3.060	-1.056	-0.433	C.2	1	UNK0	0.000	
16	   N	-4.084	-0.452	-1.058	N.pl3	1	UNK0	0.000	
17	   N	-4.849	-1.352	-1.666	N.2	1	UNK0	0.000	
18	   N	-4.295	-2.521	-1.417	N.2	1	UNK0	0.000	
19	   N	-3.197	-2.364	-0.662	N.2	1	UNK0	0.000	
20	   C	-4.316	0.993	-1.062	C.3	1	UNK0	0.000	
21	   C	-3.476	1.834	-1.997	C.3	1	UNK0	0.000	
22	   C	-4.921	1.557	-2.299	C.3	1	UNK0	0.000	
23	   H	5.993	0.570	-0.054	 H	1	UNK0	0.000	
24	   H	2.896	-3.148	-0.585	 H	1	UNK0	0.000	
25	   H	5.310	-3.496	-0.873	 H	1	UNK0	0.000	
26	   H	1.015	-2.696	-0.711	 H	1	UNK0	0.000	
27	   H	0.116	-2.057	0.686	 H	1	UNK0	0.000	
28	   H	-1.055	-1.814	-1.588	 H	1	UNK0	0.000	
29	   H	0.293	-0.704	-2.060	 H	1	UNK0	0.000	
30	   H	0.166	1.651	-0.949	 H	1	UNK0	0.000	
31	   H	-0.608	1.602	0.685	 H	1	UNK0	0.000	
32	   H	1.096	0.409	1.620	 H	1	UNK0	0.000	
33	   H	2.056	1.254	0.353	 H	1	UNK0	0.000	
34	   H	-1.663	-1.057	1.186	 H	1	UNK0	0.000	
35	   H	-2.409	0.522	0.812	 H	1	UNK0	0.000	
36	   H	-4.614	1.468	-0.118	 H	1	UNK0	0.000	
37	   H	-2.747	1.286	-2.636	 H	1	UNK0	0.000	
38	   H	-3.186	2.839	-1.682	 H	1	UNK0	0.000	
39	   H	-5.674	2.370	-2.197	 H	1	UNK0	0.000	
40	   H	-5.189	0.830	-3.098	 H	1	UNK0	0.000	
@<TRIPOS>BOND
1 1 2 1
2 2 3 2
3 2 7 1
4 3 4 1
5 4 5 2
6 5 6 1
7 5 8 1
8 6 7 2
9 8 9 1
10 8 13 1
11 9 10 1
12 10 11 1
13 11 12 1
14 11 14 1
15 12 13 1
16 14 15 1
17 15 16 1
18 15 19 2
19 16 17 1
20 16 20 1
21 17 18 2
22 18 19 1
23 20 21 1
24 20 22 1
25 21 22 1
26 3 23 1
27 6 24 1
28 7 25 1
29 9 26 1
30 9 27 1
31 10 28 1
32 10 29 1
33 12 30 1
34 12 31 1
35 13 32 1
36 13 33 1
37 14 34 1
38 14 35 1
39 20 36 1
40 21 37 1
41 21 38 1
42 22 39 1
43 22 40 1
@<TRIPOS>SUBSTRUCTURE
1	UNK0	1	GROUP	1 ****	UNK
