# created with PyMOL 2.3.2
@<TRIPOS>MOLECULE
669
44 47 1                 
SMALL
USER_CHARGES
@<TRIPOS>ATOM
1	  Br	3.733	-3.230	-3.274	Br	1	UNK0	0.000	
2	   C	2.348	-2.010	-2.869	C.2	1	UNK0	0.000	
3	   C	2.476	-0.674	-3.166	C.2	1	UNK0	0.000	
4	   N	1.463	0.181	-2.864	N.2	1	UNK0	0.000	
5	   C	0.340	-0.275	-2.278	C.2	1	UNK0	0.000	
6	   N	0.209	-1.576	-1.986	N.2	1	UNK0	0.000	
7	   C	1.183	-2.470	-2.264	C.2	1	UNK0	0.000	
8	   N	-0.710	0.625	-1.967	N.pl3	1	UNK0	0.000	
9	   C	-2.026	0.560	-1.363	C.3	1	UNK0	0.000	
10	   C	-1.789	1.964	-0.867	C.3	1	UNK0	0.000	
11	   C	-0.968	2.067	-2.111	C.3	1	UNK0	0.000	
12	   C	-1.150	2.114	0.452	C.3	1	UNK0	0.000	
13	   N	0.148	1.570	0.641	N.pl3	1	UNK0	0.000	
14	   N	0.327	0.315	0.991	N.2	1	UNK0	0.000	
15	   C	1.509	-0.287	1.176	C.2	1	UNK0	0.000	
16	   C	2.626	0.515	0.972	C.2	1	UNK0	0.000	
17	   C	2.507	1.838	0.605	C.2	1	UNK0	0.000	
18	   C	1.229	2.334	0.447	C.2	1	UNK0	0.000	
19	   O	1.106	3.565	0.108	O.2	1	UNK0	0.000	
20	   N	1.645	-1.651	1.555	N.pl3	1	UNK0	0.000	
21	   N	2.795	-2.235	1.850	N.2	1	UNK0	0.000	
22	   C	2.628	-3.514	2.171	C.2	1	UNK0	0.000	
23	   C	1.302	-3.783	2.081	C.2	1	UNK0	0.000	
24	   C	0.711	-2.594	1.693	C.2	1	UNK0	0.000	
25	   C	-0.743	-2.419	1.471	C.3	1	UNK0	0.000	
26	   C	3.671	-4.499	2.559	C.3	1	UNK0	0.000	
27	   H	3.386	-0.335	-3.636	 H	1	UNK0	0.000	
28	   H	1.054	-3.500	-2.022	 H	1	UNK0	0.000	
29	   H	-2.814	0.564	-2.143	 H	1	UNK0	0.000	
30	   H	-2.196	-0.212	-0.623	 H	1	UNK0	0.000	
31	   H	-2.750	2.550	-0.900	 H	1	UNK0	0.000	
32	   H	-0.092	2.702	-2.133	 H	1	UNK0	0.000	
33	   H	-1.660	2.171	-2.994	 H	1	UNK0	0.000	
34	   H	-1.874	1.725	1.230	 H	1	UNK0	0.000	
35	   H	-1.144	3.225	0.677	 H	1	UNK0	0.000	
36	   H	3.609	0.112	1.099	 H	1	UNK0	0.000	
37	   H	3.330	2.512	0.431	 H	1	UNK0	0.000	
38	   H	0.782	-4.706	2.264	 H	1	UNK0	0.000	
39	   H	-1.265	-3.408	1.462	 H	1	UNK0	0.000	
40	   H	-0.978	-1.932	0.524	 H	1	UNK0	0.000	
41	   H	-1.149	-1.865	2.340	 H	1	UNK0	0.000	
42	   H	4.653	-3.967	2.670	 H	1	UNK0	0.000	
43	   H	3.377	-5.005	3.508	 H	1	UNK0	0.000	
44	   H	3.838	-5.262	1.748	 H	1	UNK0	0.000	
@<TRIPOS>BOND
1 1 2 1
2 2 3 2
3 2 7 1
4 3 4 1
5 4 5 2
6 5 6 1
7 5 8 1
8 6 7 2
9 8 9 1
10 8 11 1
11 9 10 1
12 10 11 1
13 10 12 1
14 12 13 1
15 13 14 1
16 13 18 1
17 14 15 2
18 15 16 1
19 15 20 1
20 16 17 2
21 17 18 1
22 18 19 2
23 20 21 1
24 20 24 1
25 21 22 2
26 22 23 1
27 22 26 1
28 23 24 2
29 24 25 1
30 3 27 1
31 7 28 1
32 9 29 1
33 9 30 1
34 10 31 1
35 11 32 1
36 11 33 1
37 12 34 1
38 12 35 1
39 16 36 1
40 17 37 1
41 23 38 1
42 25 39 1
43 25 40 1
44 25 41 1
45 26 42 1
46 26 43 1
47 26 44 1
@<TRIPOS>SUBSTRUCTURE
1	UNK0	1	GROUP	1 ****	UNK
