# created with PyMOL 2.3.2
@<TRIPOS>MOLECULE
671
38 41 1                 
SMALL
USER_CHARGES
@<TRIPOS>ATOM
1	  Br	-3.389	4.030	-1.029	Br	1	UNK0	0.000	
2	   C	-1.713	3.173	-1.313	C.2	1	UNK0	0.000	
3	   C	-1.655	2.007	-2.043	C.2	1	UNK0	0.000	
4	   N	-0.479	1.413	-2.238	N.2	1	UNK0	0.000	
5	   C	0.684	1.888	-1.756	C.2	1	UNK0	0.000	
6	   N	0.628	3.029	-1.041	N.2	1	UNK0	0.000	
7	   C	-0.531	3.669	-0.815	C.2	1	UNK0	0.000	
8	   N	1.922	1.218	-1.989	N.pl3	1	UNK0	0.000	
9	   C	2.293	0.017	-2.692	C.3	1	UNK0	0.000	
10	   C	3.480	-0.094	-1.720	C.3	1	UNK0	0.000	
11	   C	3.324	1.390	-1.675	C.3	1	UNK0	0.000	
12	   C	3.195	-0.860	-0.487	C.3	1	UNK0	0.000	
13	   N	2.147	-0.360	0.370	N.pl3	1	UNK0	0.000	
14	   N	0.799	-0.732	0.180	N.pl3	1	UNK0	0.000	
15	   C	-0.280	-0.258	0.988	C.2	1	UNK0	0.000	
16	   C	-1.586	-0.476	0.981	C.2	1	UNK0	0.000	
17	   C	-2.288	0.262	2.040	C.3	1	UNK0	0.000	
18	   C	-1.225	1.015	2.762	C.3	1	UNK0	0.000	
19	   C	0.032	0.662	2.069	C.2	1	UNK0	0.000	
20	   C	1.309	1.029	2.269	C.2	1	UNK0	0.000	
21	   C	2.398	0.543	1.445	C.2	1	UNK0	0.000	
22	   O	3.594	0.900	1.655	O.2	1	UNK0	0.000	
23	   H	-2.593	1.606	-2.443	 H	1	UNK0	0.000	
24	   H	-0.586	4.591	-0.238	 H	1	UNK0	0.000	
25	   H	1.602	-0.822	-2.680	 H	1	UNK0	0.000	
26	   H	2.699	0.304	-3.689	 H	1	UNK0	0.000	
27	   H	4.417	-0.416	-2.258	 H	1	UNK0	0.000	
28	   H	3.910	1.821	-2.552	 H	1	UNK0	0.000	
29	   H	3.553	1.934	-0.766	 H	1	UNK0	0.000	
30	   H	4.147	-0.878	0.124	 H	1	UNK0	0.000	
31	   H	2.973	-1.937	-0.675	 H	1	UNK0	0.000	
32	   H	0.602	-1.384	-0.588	 H	1	UNK0	0.000	
33	   H	-2.016	-1.150	0.230	 H	1	UNK0	0.000	
34	   H	-3.013	1.003	1.570	 H	1	UNK0	0.000	
35	   H	-2.860	-0.429	2.707	 H	1	UNK0	0.000	
36	   H	-1.397	2.116	2.769	 H	1	UNK0	0.000	
37	   H	-1.187	0.607	3.799	 H	1	UNK0	0.000	
38	   H	1.528	1.709	3.070	 H	1	UNK0	0.000	
@<TRIPOS>BOND
1 1 2 1
2 2 3 2
3 2 7 1
4 3 4 1
5 4 5 2
6 5 6 1
7 5 8 1
8 6 7 2
9 8 9 1
10 8 11 1
11 9 10 1
12 10 11 1
13 10 12 1
14 12 13 1
15 13 14 1
16 13 21 1
17 14 15 1
18 15 16 2
19 15 19 1
20 16 17 1
21 17 18 1
22 18 19 1
23 19 20 2
24 20 21 1
25 21 22 2
26 3 23 1
27 7 24 1
28 9 25 1
29 9 26 1
30 10 27 1
31 11 28 1
32 11 29 1
33 12 30 1
34 12 31 1
35 14 32 1
36 16 33 1
37 17 34 1
38 17 35 1
39 18 36 1
40 18 37 1
41 20 38 1
@<TRIPOS>SUBSTRUCTURE
1	UNK0	1	GROUP	1 ****	UNK
