# created with PyMOL 2.3.2
@<TRIPOS>MOLECULE
676
41 44 1                 
SMALL
USER_CHARGES
@<TRIPOS>ATOM
1	  Br	0.879	-3.140	-5.483	Br	1	UNK0	0.000	
2	   C	-0.858	-2.456	-5.080	C.2	1	UNK0	0.000	
3	   C	-1.668	-2.061	-6.121	C.2	1	UNK0	0.000	
4	   N	-2.904	-1.571	-5.868	N.2	1	UNK0	0.000	
5	   C	-3.311	-1.484	-4.588	C.2	1	UNK0	0.000	
6	   C	-2.559	-1.857	-3.511	C.2	1	UNK0	0.000	
7	   C	-1.296	-2.358	-3.759	C.2	1	UNK0	0.000	
8	   C	-3.098	-1.720	-2.166	C.2	1	UNK0	0.000	
9	   O	-4.276	-1.246	-2.046	O.2	1	UNK0	0.000	
10	   N	-2.367	-2.090	-1.006	N.pl3	1	UNK0	0.000	
11	   C	-3.003	-1.910	0.290	C.3	1	UNK0	0.000	
12	   C	-2.083	-2.354	1.405	C.3	1	UNK0	0.000	
13	   N	-0.883	-1.516	1.299	N.pl3	1	UNK0	0.000	
14	   N	0.218	-1.748	0.604	N.2	1	UNK0	0.000	
15	   N	1.083	-0.755	0.759	N.2	1	UNK0	0.000	
16	   C	0.555	0.169	1.577	C.2	1	UNK0	0.000	
17	   C	-0.686	-0.319	1.913	C.2	1	UNK0	0.000	
18	   C	1.158	1.415	2.015	C.2	1	UNK0	0.000	
19	   N	2.372	1.891	1.685	N.2	1	UNK0	0.000	
20	   C	2.566	3.073	2.292	C.2	1	UNK0	0.000	
21	   N	1.448	3.308	2.997	N.2	1	UNK0	0.000	
22	   O	0.638	2.311	2.812	O.3	1	UNK0	0.000	
23	   C	3.763	3.937	2.203	C.2	1	UNK0	0.000	
24	   C	4.832	3.547	1.430	C.2	1	UNK0	0.000	
25	   N	5.927	4.326	1.341	N.2	1	UNK0	0.000	
26	   C	6.044	5.505	1.985	C.2	1	UNK0	0.000	
27	   C	4.965	5.888	2.758	C.2	1	UNK0	0.000	
28	   C	3.832	5.126	2.876	C.2	1	UNK0	0.000	
29	   H	-1.342	-2.129	-7.169	 H	1	UNK0	0.000	
30	   H	-4.318	-1.082	-4.439	 H	1	UNK0	0.000	
31	   H	-0.651	-2.671	-2.952	 H	1	UNK0	0.000	
32	   H	-1.406	-2.477	-1.088	 H	1	UNK0	0.000	
33	   H	-3.155	-0.806	0.425	 H	1	UNK0	0.000	
34	   H	-3.978	-2.432	0.307	 H	1	UNK0	0.000	
35	   H	-2.600	-2.177	2.362	 H	1	UNK0	0.000	
36	   H	-1.749	-3.396	1.291	 H	1	UNK0	0.000	
37	   H	-1.400	0.159	2.558	 H	1	UNK0	0.000	
38	   H	4.769	2.589	0.890	 H	1	UNK0	0.000	
39	   H	6.938	6.122	1.901	 H	1	UNK0	0.000	
40	   H	5.026	6.834	3.291	 H	1	UNK0	0.000	
41	   H	2.978	5.424	3.485	 H	1	UNK0	0.000	
@<TRIPOS>BOND
1 1 2 1
2 2 3 2
3 2 7 1
4 3 4 1
5 4 5 2
6 5 6 1
7 6 7 2
8 6 8 1
9 8 9 2
10 8 10 1
11 10 11 1
12 11 12 1
13 12 13 1
14 13 14 1
15 13 17 1
16 14 15 2
17 15 16 1
18 16 17 2
19 16 18 1
20 18 19 2
21 18 22 1
22 19 20 1
23 20 21 2
24 20 23 1
25 21 22 1
26 23 24 2
27 23 28 1
28 24 25 1
29 25 26 2
30 26 27 1
31 27 28 2
32 3 29 1
33 5 30 1
34 7 31 1
35 10 32 1
36 11 33 1
37 11 34 1
38 12 35 1
39 12 36 1
40 17 37 1
41 24 38 1
42 26 39 1
43 27 40 1
44 28 41 1
@<TRIPOS>SUBSTRUCTURE
1	UNK0	1	GROUP	1 ****	UNK
