# created with PyMOL 2.3.2
@<TRIPOS>MOLECULE
678
50 53 1                 
SMALL
USER_CHARGES
@<TRIPOS>ATOM
1	  Br	0.392	7.323	2.602	Br	1	UNK0	0.000	
2	   C	1.366	5.700	2.588	C.2	1	UNK0	0.000	
3	   C	2.141	5.332	3.659	C.2	1	UNK0	0.000	
4	   N	2.822	4.158	3.605	N.2	1	UNK0	0.000	
5	   C	2.772	3.329	2.536	C.2	1	UNK0	0.000	
6	   C	2.007	3.667	1.448	C.2	1	UNK0	0.000	
7	   C	1.308	4.868	1.500	C.2	1	UNK0	0.000	
8	   C	1.928	2.802	0.287	C.2	1	UNK0	0.000	
9	   O	1.218	3.206	-0.698	O.2	1	UNK0	0.000	
10	   N	2.589	1.547	0.187	N.pl3	1	UNK0	0.000	
11	   C	2.483	0.713	-0.994	C.3	1	UNK0	0.000	
12	   C	1.147	0.039	-1.008	C.2	1	UNK0	0.000	
13	   N	0.237	0.293	-0.059	N.2	1	UNK0	0.000	
14	   C	-0.981	-0.303	-0.043	C.2	1	UNK0	0.000	
15	   N	-1.235	-1.172	-1.038	N.2	1	UNK0	0.000	
16	   C	-0.371	-1.476	-2.025	C.2	1	UNK0	0.000	
17	   N	0.831	-0.839	-1.974	N.2	1	UNK0	0.000	
18	   N	-0.669	-2.393	-3.056	N.pl3	1	UNK0	0.000	
19	   C	-1.945	-3.046	-3.124	C.3	1	UNK0	0.000	
20	   C	-1.854	-4.449	-3.675	C.3	1	UNK0	0.000	
21	   O	-1.140	-4.409	-4.850	O.3	1	UNK0	0.000	
22	   C	0.170	-4.033	-4.676	C.3	1	UNK0	0.000	
23	   C	0.328	-2.673	-4.050	C.3	1	UNK0	0.000	
24	   N	-1.924	-0.012	0.977	N.pl3	1	UNK0	0.000	
25	   C	-3.230	-0.597	1.111	C.3	1	UNK0	0.000	
26	   C	-3.707	-0.369	2.514	C.3	1	UNK0	0.000	
27	   C	-2.696	0.540	3.143	C.3	1	UNK0	0.000	
28	   C	-1.719	0.924	2.049	C.3	1	UNK0	0.000	
29	   H	2.217	5.968	4.554	 H	1	UNK0	0.000	
30	   H	3.356	2.402	2.583	 H	1	UNK0	0.000	
31	   H	0.702	5.136	0.639	 H	1	UNK0	0.000	
32	   H	3.165	1.208	0.977	 H	1	UNK0	0.000	
33	   H	2.615	1.324	-1.914	 H	1	UNK0	0.000	
34	   H	3.299	-0.033	-0.984	 H	1	UNK0	0.000	
35	   H	-2.707	-2.450	-3.672	 H	1	UNK0	0.000	
36	   H	-2.340	-3.132	-2.073	 H	1	UNK0	0.000	
37	   H	-1.472	-5.171	-2.945	 H	1	UNK0	0.000	
38	   H	-2.898	-4.773	-3.941	 H	1	UNK0	0.000	
39	   H	0.670	-4.772	-4.009	 H	1	UNK0	0.000	
40	   H	0.688	-4.053	-5.655	 H	1	UNK0	0.000	
41	   H	1.325	-2.631	-3.525	 H	1	UNK0	0.000	
42	   H	0.350	-1.857	-4.815	 H	1	UNK0	0.000	
43	   H	-3.209	-1.708	0.935	 H	1	UNK0	0.000	
44	   H	-3.942	-0.204	0.355	 H	1	UNK0	0.000	
45	   H	-4.709	0.111	2.549	 H	1	UNK0	0.000	
46	   H	-3.809	-1.329	3.073	 H	1	UNK0	0.000	
47	   H	-2.184	-0.006	3.978	 H	1	UNK0	0.000	
48	   H	-3.156	1.436	3.589	 H	1	UNK0	0.000	
49	   H	-0.706	0.887	2.483	 H	1	UNK0	0.000	
50	   H	-1.907	1.966	1.731	 H	1	UNK0	0.000	
@<TRIPOS>BOND
1 1 2 1
2 2 3 2
3 2 7 1
4 3 4 1
5 4 5 2
6 5 6 1
7 6 7 2
8 6 8 1
9 8 9 2
10 8 10 1
11 10 11 1
12 11 12 1
13 12 13 2
14 12 17 1
15 13 14 1
16 14 15 2
17 14 24 1
18 15 16 1
19 16 17 2
20 16 18 1
21 18 19 1
22 18 23 1
23 19 20 1
24 20 21 1
25 21 22 1
26 22 23 1
27 24 25 1
28 24 28 1
29 25 26 1
30 26 27 1
31 27 28 1
32 3 29 1
33 5 30 1
34 7 31 1
35 10 32 1
36 11 33 1
37 11 34 1
38 19 35 1
39 19 36 1
40 20 37 1
41 20 38 1
42 22 39 1
43 22 40 1
44 23 41 1
45 23 42 1
46 25 43 1
47 25 44 1
48 26 45 1
49 26 46 1
50 27 47 1
51 27 48 1
52 28 49 1
53 28 50 1
@<TRIPOS>SUBSTRUCTURE
1	UNK0	1	GROUP	1 ****	UNK
