# created with PyMOL 2.3.2
@<TRIPOS>MOLECULE
679
42 45 1                 
SMALL
USER_CHARGES
@<TRIPOS>ATOM
1	  Br	2.336	2.743	-9.270	Br	1	UNK0	0.000	
2	   C	2.059	3.097	-7.418	C.2	1	UNK0	0.000	
3	   C	1.860	4.395	-7.035	C.2	1	UNK0	0.000	
4	   N	1.669	4.594	-5.713	N.2	1	UNK0	0.000	
5	   C	1.673	3.583	-4.828	C.2	1	UNK0	0.000	
6	   C	1.869	2.267	-5.176	C.2	1	UNK0	0.000	
7	   C	2.069	2.051	-6.546	C.2	1	UNK0	0.000	
8	   C	1.862	1.152	-4.244	C.2	1	UNK0	0.000	
9	   O	2.140	0.007	-4.769	O.2	1	UNK0	0.000	
10	   N	1.590	1.204	-2.863	N.pl3	1	UNK0	0.000	
11	   C	1.585	0.145	-1.839	C.3	1	UNK0	0.000	
12	   C	0.623	0.968	-1.056	C.3	1	UNK0	0.000	
13	   C	1.212	2.128	-1.845	C.3	1	UNK0	0.000	
14	   N	0.913	1.072	0.360	N.pl3	1	UNK0	0.000	
15	   N	1.849	1.837	0.880	N.2	1	UNK0	0.000	
16	   N	1.869	1.714	2.214	N.2	1	UNK0	0.000	
17	   C	0.917	0.844	2.572	C.2	1	UNK0	0.000	
18	   C	0.321	0.446	1.393	C.2	1	UNK0	0.000	
19	   C	0.561	0.386	3.961	C.3	1	UNK0	0.000	
20	   N	-0.528	-0.567	3.917	N.pl3	1	UNK0	0.000	
21	   C	-0.349	-1.999	3.799	C.3	1	UNK0	0.000	
22	   C	-1.694	-2.586	3.527	C.3	1	UNK0	0.000	
23	   C	-2.663	-1.466	3.346	C.3	1	UNK0	0.000	
24	   C	-1.928	-0.316	3.978	C.2	1	UNK0	0.000	
25	   O	-2.418	0.721	4.491	O.2	1	UNK0	0.000	
26	   H	1.855	5.215	-7.740	 H	1	UNK0	0.000	
27	   H	1.525	3.849	-3.810	 H	1	UNK0	0.000	
28	   H	2.229	1.016	-6.864	 H	1	UNK0	0.000	
29	   H	2.575	0.093	-1.350	 H	1	UNK0	0.000	
30	   H	1.189	-0.821	-2.219	 H	1	UNK0	0.000	
31	   H	-0.419	0.724	-1.313	 H	1	UNK0	0.000	
32	   H	0.418	2.877	-2.086	 H	1	UNK0	0.000	
33	   H	2.101	2.541	-1.322	 H	1	UNK0	0.000	
34	   H	-0.498	-0.258	1.276	 H	1	UNK0	0.000	
35	   H	1.434	0.005	4.497	 H	1	UNK0	0.000	
36	   H	0.179	1.275	4.538	 H	1	UNK0	0.000	
37	   H	0.110	-2.454	4.687	 H	1	UNK0	0.000	
38	   H	0.347	-2.159	2.934	 H	1	UNK0	0.000	
39	   H	-2.020	-3.199	4.410	 H	1	UNK0	0.000	
40	   H	-1.665	-3.275	2.632	 H	1	UNK0	0.000	
41	   H	-3.627	-1.613	3.852	 H	1	UNK0	0.000	
42	   H	-2.847	-1.229	2.276	 H	1	UNK0	0.000	
@<TRIPOS>BOND
1 1 2 1
2 2 3 2
3 2 7 1
4 3 4 1
5 4 5 2
6 5 6 1
7 6 7 2
8 6 8 1
9 8 9 2
10 8 10 1
11 10 11 1
12 10 13 1
13 11 12 1
14 12 13 1
15 12 14 1
16 14 15 1
17 14 18 1
18 15 16 2
19 16 17 1
20 17 18 2
21 17 19 1
22 19 20 1
23 20 21 1
24 20 24 1
25 21 22 1
26 22 23 1
27 23 24 1
28 24 25 2
29 3 26 1
30 5 27 1
31 7 28 1
32 11 29 1
33 11 30 1
34 12 31 1
35 13 32 1
36 13 33 1
37 18 34 1
38 19 35 1
39 19 36 1
40 21 37 1
41 21 38 1
42 22 39 1
43 22 40 1
44 23 41 1
45 23 42 1
@<TRIPOS>SUBSTRUCTURE
1	UNK0	1	GROUP	1 ****	UNK
