# created with PyMOL 2.3.2
@<TRIPOS>MOLECULE
682
45 48 1                 
SMALL
USER_CHARGES
@<TRIPOS>ATOM
1	  Br	4.564	-5.230	0.094	Br	1	UNK0	0.000	
2	   C	2.866	-4.372	0.390	C.2	1	UNK0	0.000	
3	   C	1.689	-5.071	0.208	C.2	1	UNK0	0.000	
4	   N	0.539	-4.410	0.432	N.2	1	UNK0	0.000	
5	   C	0.486	-3.132	0.815	C.2	1	UNK0	0.000	
6	   C	1.635	-2.415	1.004	C.2	1	UNK0	0.000	
7	   C	2.835	-3.069	0.781	C.2	1	UNK0	0.000	
8	   C	1.650	-1.025	1.462	C.2	1	UNK0	0.000	
9	   O	2.825	-0.480	1.400	O.2	1	UNK0	0.000	
10	   N	0.644	-0.216	1.938	N.pl3	1	UNK0	0.000	
11	   C	-0.740	-0.451	2.205	C.3	1	UNK0	0.000	
12	   C	-1.557	0.052	1.000	C.3	1	UNK0	0.000	
13	   N	-0.816	1.215	0.517	N.pl3	1	UNK0	0.000	
14	   C	-0.080	2.005	1.467	C.3	1	UNK0	0.000	
15	   C	1.028	1.217	2.181	C.3	1	UNK0	0.000	
16	   C	-0.849	1.505	-0.860	C.2	1	UNK0	0.000	
17	   O	-1.495	0.738	-1.622	O.2	1	UNK0	0.000	
18	   C	-0.166	2.667	-1.485	C.3	1	UNK0	0.000	
19	   O	-0.341	2.591	-2.908	O.3	1	UNK0	0.000	
20	   C	-1.592	2.923	-3.451	C.2	1	UNK0	0.000	
21	   C	-2.230	4.033	-2.898	C.2	1	UNK0	0.000	
22	   C	-3.451	4.446	-3.350	C.2	1	UNK0	0.000	
23	   C	-4.031	3.728	-4.369	C.2	1	UNK0	0.000	
24	   C	-3.416	2.629	-4.926	C.2	1	UNK0	0.000	
25	   C	-2.174	2.207	-4.470	C.2	1	UNK0	0.000	
26	   O	-1.528	4.668	-1.872	O.3	1	UNK0	0.000	
27	   C	-0.765	3.939	-0.936	C.3	1	UNK0	0.000	
28	   H	1.737	-6.097	-0.099	 H	1	UNK0	0.000	
29	   H	-0.483	-2.710	0.935	 H	1	UNK0	0.000	
30	   H	3.778	-2.550	0.915	 H	1	UNK0	0.000	
31	   H	-1.046	-1.412	2.560	 H	1	UNK0	0.000	
32	   H	-1.059	0.261	3.056	 H	1	UNK0	0.000	
33	   H	-2.539	0.373	1.373	 H	1	UNK0	0.000	
34	   H	-1.652	-0.729	0.244	 H	1	UNK0	0.000	
35	   H	-0.731	2.437	2.258	 H	1	UNK0	0.000	
36	   H	0.434	2.860	1.008	 H	1	UNK0	0.000	
37	   H	1.986	1.450	1.734	 H	1	UNK0	0.000	
38	   H	0.963	1.325	3.279	 H	1	UNK0	0.000	
39	   H	0.911	2.690	-1.306	 H	1	UNK0	0.000	
40	   H	-3.925	5.316	-2.899	 H	1	UNK0	0.000	
41	   H	-5.010	4.037	-4.750	 H	1	UNK0	0.000	
42	   H	-3.902	2.076	-5.738	 H	1	UNK0	0.000	
43	   H	-1.668	1.343	-4.893	 H	1	UNK0	0.000	
44	   H	-1.486	3.692	-0.110	 H	1	UNK0	0.000	
45	   H	0.001	4.638	-0.514	 H	1	UNK0	0.000	
@<TRIPOS>BOND
1 1 2 1
2 2 3 2
3 2 7 1
4 3 4 1
5 4 5 2
6 5 6 1
7 6 7 2
8 6 8 1
9 8 9 2
10 8 10 1
11 10 11 1
12 10 15 1
13 11 12 1
14 12 13 1
15 13 14 1
16 13 16 1
17 14 15 1
18 16 17 2
19 16 18 1
20 18 19 1
21 18 27 1
22 19 20 1
23 20 21 2
24 20 25 1
25 21 22 1
26 21 26 1
27 22 23 2
28 23 24 1
29 24 25 2
30 26 27 1
31 3 28 1
32 5 29 1
33 7 30 1
34 11 31 1
35 11 32 1
36 12 33 1
37 12 34 1
38 14 35 1
39 14 36 1
40 15 37 1
41 15 38 1
42 18 39 1
43 22 40 1
44 23 41 1
45 24 42 1
46 25 43 1
47 27 44 1
48 27 45 1
@<TRIPOS>SUBSTRUCTURE
1	UNK0	1	GROUP	1 ****	UNK
