# created with PyMOL 2.3.2
@<TRIPOS>MOLECULE
685
39 42 1                 
SMALL
USER_CHARGES
@<TRIPOS>ATOM
1	  Br	1.414	6.148	4.794	Br	1	UNK0	0.000	
2	   C	1.261	4.444	3.930	C.2	1	UNK0	0.000	
3	   C	1.572	3.305	4.636	C.2	1	UNK0	0.000	
4	   N	1.456	2.132	4.008	N.2	1	UNK0	0.000	
5	   C	1.041	2.040	2.699	C.2	1	UNK0	0.000	
6	   C	0.720	3.128	1.948	C.2	1	UNK0	0.000	
7	   C	0.846	4.355	2.620	C.2	1	UNK0	0.000	
8	   C	0.299	3.116	0.562	C.2	1	UNK0	0.000	
9	   N	0.201	2.162	-0.382	N.pl3	1	UNK0	0.000	
10	   C	-0.248	2.670	-1.544	C.2	1	UNK0	0.000	
11	   N	-0.437	3.996	-1.317	N.2	1	UNK0	0.000	
12	   N	-0.118	4.265	-0.084	N.2	1	UNK0	0.000	
13	   C	-0.477	1.855	-2.782	C.3	1	UNK0	0.000	
14	   N	-0.567	0.477	-2.265	N.pl3	1	UNK0	0.000	
15	   C	0.583	0.037	-1.573	C.3	1	UNK0	0.000	
16	   C	0.554	0.751	-0.206	C.3	1	UNK0	0.000	
17	   C	-1.727	-0.239	-2.496	C.2	1	UNK0	0.000	
18	   O	-2.700	0.304	-3.179	O.2	1	UNK0	0.000	
19	   C	-2.029	-1.610	-2.046	C.3	1	UNK0	0.000	
20	   O	-1.101	-2.242	-1.300	O.3	1	UNK0	0.000	
21	   C	-1.702	-3.048	-0.368	C.3	1	UNK0	0.000	
22	   C	-3.180	-2.947	-0.511	C.3	1	UNK0	0.000	
23	   C	-3.344	-1.641	-1.281	C.3	1	UNK0	0.000	
24	   H	1.901	3.384	5.677	 H	1	UNK0	0.000	
25	   H	0.958	1.059	2.267	 H	1	UNK0	0.000	
26	   H	0.602	5.252	2.064	 H	1	UNK0	0.000	
27	   H	0.344	1.953	-3.506	 H	1	UNK0	0.000	
28	   H	-1.413	2.149	-3.291	 H	1	UNK0	0.000	
29	   H	1.523	0.455	-2.065	 H	1	UNK0	0.000	
30	   H	0.706	-1.039	-1.432	 H	1	UNK0	0.000	
31	   H	1.606	0.646	0.172	 H	1	UNK0	0.000	
32	   H	-0.206	0.275	0.429	 H	1	UNK0	0.000	
33	   H	-2.187	-2.221	-2.990	 H	1	UNK0	0.000	
34	   H	-1.381	-4.123	-0.479	 H	1	UNK0	0.000	
35	   H	-1.379	-2.744	0.660	 H	1	UNK0	0.000	
36	   H	-3.635	-2.861	0.511	 H	1	UNK0	0.000	
37	   H	-3.638	-3.798	-1.071	 H	1	UNK0	0.000	
38	   H	-3.339	-0.837	-0.515	 H	1	UNK0	0.000	
39	   H	-4.220	-1.632	-1.927	 H	1	UNK0	0.000	
@<TRIPOS>BOND
1 1 2 1
2 2 3 2
3 2 7 1
4 3 4 1
5 4 5 2
6 5 6 1
7 6 7 2
8 6 8 1
9 8 9 1
10 8 12 2
11 9 10 1
12 9 16 1
13 10 11 2
14 10 13 1
15 11 12 1
16 13 14 1
17 14 15 1
18 14 17 1
19 15 16 1
20 17 18 2
21 17 19 1
22 19 20 1
23 19 23 1
24 20 21 1
25 21 22 1
26 22 23 1
27 3 24 1
28 5 25 1
29 7 26 1
30 13 27 1
31 13 28 1
32 15 29 1
33 15 30 1
34 16 31 1
35 16 32 1
36 19 33 1
37 21 34 1
38 21 35 1
39 22 36 1
40 22 37 1
41 23 38 1
42 23 39 1
@<TRIPOS>SUBSTRUCTURE
1	UNK0	1	GROUP	1 ****	UNK
