# created with PyMOL 2.3.2
@<TRIPOS>MOLECULE
686
41 44 1                 
SMALL
USER_CHARGES
@<TRIPOS>ATOM
1	  Br	2.644	6.184	3.705	Br	1	UNK0	0.000	
2	   C	1.558	4.719	3.153	C.2	1	UNK0	0.000	
3	   C	0.306	4.495	3.717	C.2	1	UNK0	0.000	
4	   N	-0.465	3.464	3.333	N.2	1	UNK0	0.000	
5	   C	-0.081	2.581	2.380	C.2	1	UNK0	0.000	
6	   N	-0.863	1.555	2.006	N.2	1	UNK0	0.000	
7	   C	-0.499	0.653	1.050	C.2	1	UNK0	0.000	
8	   C	0.736	0.846	0.470	C.2	1	UNK0	0.000	
9	   N	1.522	1.883	0.849	N.2	1	UNK0	0.000	
10	   C	1.152	2.755	1.786	C.2	1	UNK0	0.000	
11	   C	1.950	3.819	2.181	C.2	1	UNK0	0.000	
12	   N	1.219	-0.023	-0.535	N.pl3	1	UNK0	0.000	
13	   C	0.519	-0.197	-1.783	C.3	1	UNK0	0.000	
14	   C	1.462	-0.324	-2.957	C.3	1	UNK0	0.000	
15	   O	2.586	-1.068	-2.680	O.3	1	UNK0	0.000	
16	   C	2.457	-1.804	-1.494	C.3	1	UNK0	0.000	
17	   C	2.455	-0.791	-0.367	C.3	1	UNK0	0.000	
18	   N	-1.352	-0.416	0.689	N.pl3	1	UNK0	0.000	
19	   C	-0.972	-1.794	0.861	C.3	1	UNK0	0.000	
20	   C	-2.096	-2.644	0.263	C.3	1	UNK0	0.000	
21	   O	-3.292	-2.337	0.887	O.3	1	UNK0	0.000	
22	   C	-3.653	-1.018	0.850	C.3	1	UNK0	0.000	
23	   C	-2.653	-0.142	0.128	C.3	1	UNK0	0.000	
24	   H	-0.034	5.193	4.493	 H	1	UNK0	0.000	
25	   H	2.916	3.965	1.723	 H	1	UNK0	0.000	
26	   H	-0.150	-1.064	-1.812	 H	1	UNK0	0.000	
27	   H	-0.083	0.744	-1.935	 H	1	UNK0	0.000	
28	   H	1.790	0.702	-3.222	 H	1	UNK0	0.000	
29	   H	0.917	-0.720	-3.853	 H	1	UNK0	0.000	
30	   H	1.484	-2.297	-1.506	 H	1	UNK0	0.000	
31	   H	3.316	-2.497	-1.430	 H	1	UNK0	0.000	
32	   H	2.539	-1.248	0.627	 H	1	UNK0	0.000	
33	   H	3.278	-0.052	-0.557	 H	1	UNK0	0.000	
34	   H	-0.017	-2.069	0.414	 H	1	UNK0	0.000	
35	   H	-0.921	-2.090	1.933	 H	1	UNK0	0.000	
36	   H	-1.861	-3.723	0.356	 H	1	UNK0	0.000	
37	   H	-2.182	-2.381	-0.810	 H	1	UNK0	0.000	
38	   H	-3.771	-0.656	1.910	 H	1	UNK0	0.000	
39	   H	-4.667	-0.946	0.389	 H	1	UNK0	0.000	
40	   H	-2.705	-0.422	-0.956	 H	1	UNK0	0.000	
41	   H	-2.961	0.917	0.276	 H	1	UNK0	0.000	
@<TRIPOS>BOND
1 1 2 1
2 2 3 2
3 2 11 1
4 3 4 1
5 4 5 2
6 5 6 1
7 5 10 1
8 6 7 2
9 7 8 1
10 7 18 1
11 8 9 2
12 8 12 1
13 9 10 1
14 10 11 2
15 12 13 1
16 12 17 1
17 13 14 1
18 14 15 1
19 15 16 1
20 16 17 1
21 18 19 1
22 18 23 1
23 19 20 1
24 20 21 1
25 21 22 1
26 22 23 1
27 3 24 1
28 11 25 1
29 13 26 1
30 13 27 1
31 14 28 1
32 14 29 1
33 16 30 1
34 16 31 1
35 17 32 1
36 17 33 1
37 19 34 1
38 19 35 1
39 20 36 1
40 20 37 1
41 22 38 1
42 22 39 1
43 23 40 1
44 23 41 1
@<TRIPOS>SUBSTRUCTURE
1	UNK0	1	GROUP	1 ****	UNK
