# created with PyMOL 2.3.2
@<TRIPOS>MOLECULE
691
42 45 1                 
SMALL
USER_CHARGES
@<TRIPOS>ATOM
1	  Br	2.375	-0.628	3.049	Br	1	UNK0	0.000	
2	   C	1.362	-1.750	1.864	C.2	1	UNK0	0.000	
3	   C	0.279	-1.263	1.168	C.2	1	UNK0	0.000	
4	   C	-0.419	-2.132	0.335	C.2	1	UNK0	0.000	
5	   C	-0.045	-3.451	0.199	C.2	1	UNK0	0.000	
6	   C	1.038	-3.945	0.892	C.2	1	UNK0	0.000	
7	   C	1.707	-3.075	1.704	C.2	1	UNK0	0.000	
8	   O	2.816	-3.533	2.429	O.2	1	UNK0	0.000	
9	  Br	1.574	-5.779	0.717	Br	1	UNK0	0.000	
10	   O	-1.485	-1.437	-0.277	O.3	1	UNK0	0.000	
11	   C	-1.122	-0.075	-0.264	C.3	1	UNK0	0.000	
12	   C	-0.390	0.004	1.049	C.3	1	UNK0	0.000	
13	   C	0.303	1.283	1.159	C.3	1	UNK0	0.000	
14	   C	-0.421	2.247	2.112	C.3	1	UNK0	0.000	
15	   C	-1.899	2.174	2.059	C.3	1	UNK0	0.000	
16	   N	-2.497	1.928	0.780	N.pl3	1	UNK0	0.000	
17	   C	-2.273	0.850	-0.117	C.2	1	UNK0	0.000	
18	   O	-3.205	0.648	-0.919	O.2	1	UNK0	0.000	
19	   N	-0.390	0.218	-1.429	N.4	1	UNK0	0.000	
20	   C	-0.928	-0.646	-2.502	C.3	1	UNK0	0.000	
21	   C	-0.216	-0.307	-3.794	C.3	1	UNK0	0.000	
22	   O	1.064	-0.817	-3.708	O.3	1	UNK0	0.000	
23	   C	1.477	-1.031	-2.413	C.3	1	UNK0	0.000	
24	   C	1.005	0.092	-1.470	C.3	1	UNK0	0.000	
25	   H	-0.576	-4.147	-0.446	 H	1	UNK0	0.000	
26	   H	-1.205	-0.014	1.841	 H	1	UNK0	0.000	
27	   H	0.298	1.883	0.189	 H	1	UNK0	0.000	
28	   H	1.341	1.150	1.511	 H	1	UNK0	0.000	
29	   H	-0.060	2.006	3.120	 H	1	UNK0	0.000	
30	   H	-0.075	3.300	1.908	 H	1	UNK0	0.000	
31	   H	-2.306	1.476	2.852	 H	1	UNK0	0.000	
32	   H	-2.279	3.181	2.412	 H	1	UNK0	0.000	
33	   H	-3.197	2.612	0.428	 H	1	UNK0	0.000	
34	   H	-0.671	1.194	-1.755	 H	1	UNK0	0.000	
35	   H	-0.781	-1.717	-2.218	 H	1	UNK0	0.000	
36	   H	-1.995	-0.491	-2.651	 H	1	UNK0	0.000	
37	   H	-0.180	0.788	-3.891	 H	1	UNK0	0.000	
38	   H	-0.722	-0.807	-4.635	 H	1	UNK0	0.000	
39	   H	1.276	-2.022	-2.013	 H	1	UNK0	0.000	
40	   H	2.602	-0.919	-2.418	 H	1	UNK0	0.000	
41	   H	1.551	-0.060	-0.546	 H	1	UNK0	0.000	
42	   H	1.472	1.016	-1.932	 H	1	UNK0	0.000	
@<TRIPOS>BOND
1 1 2 1
2 2 3 2
3 2 7 1
4 3 4 1
5 3 12 1
6 4 5 2
7 4 10 1
8 5 6 1
9 6 7 2
10 6 9 1
11 7 8 1
12 10 11 1
13 11 12 1
14 11 17 1
15 11 19 1
16 12 13 1
17 13 14 1
18 14 15 1
19 15 16 1
20 16 17 1
21 17 18 2
22 19 20 1
23 19 24 1
24 20 21 1
25 21 22 1
26 22 23 1
27 23 24 1
28 5 25 1
29 12 26 1
30 13 27 1
31 13 28 1
32 14 29 1
33 14 30 1
34 15 31 1
35 15 32 1
36 16 33 1
37 19 34 1
38 20 35 1
39 20 36 1
40 21 37 1
41 21 38 1
42 23 39 1
43 23 40 1
44 24 41 1
45 24 42 1
@<TRIPOS>SUBSTRUCTURE
1	UNK0	1	GROUP	1 ****	UNK
