# created with PyMOL 2.3.2
@<TRIPOS>MOLECULE
692
57 60 1                 
SMALL
USER_CHARGES
@<TRIPOS>ATOM
1	  Br	0.265	-5.531	2.929	Br	1	UNK0	0.000	
2	   C	1.134	-4.746	1.433	C.2	1	UNK0	0.000	
3	   C	0.712	-3.514	0.971	C.2	1	UNK0	0.000	
4	   C	1.309	-2.880	-0.129	C.2	1	UNK0	0.000	
5	   C	2.350	-3.501	-0.773	C.2	1	UNK0	0.000	
6	   C	2.777	-4.733	-0.316	C.2	1	UNK0	0.000	
7	   C	2.191	-5.356	0.764	C.2	1	UNK0	0.000	
8	  Br	4.218	-5.622	-1.185	Br	1	UNK0	0.000	
9	   C	0.819	-1.586	-0.588	C.2	1	UNK0	0.000	
10	   O	1.074	-1.296	-1.789	O.2	1	UNK0	0.000	
11	   C	0.079	-0.676	0.279	C.3	1	UNK0	0.000	
12	   C	-0.210	-1.398	1.622	C.3	1	UNK0	0.000	
13	   O	-0.320	-2.770	1.516	O.3	1	UNK0	0.000	
14	   C	0.732	0.566	0.680	C.3	1	UNK0	0.000	
15	   N	1.210	1.564	-0.159	N.4	1	UNK0	0.000	
16	   C	0.372	2.143	-1.162	C.3	1	UNK0	0.000	
17	   C	0.955	3.551	-1.447	C.3	1	UNK0	0.000	
18	   C	2.225	3.300	-2.233	C.3	1	UNK0	0.000	
19	   C	2.700	1.871	-2.091	C.3	1	UNK0	0.000	
20	   C	2.559	1.369	-0.670	C.3	1	UNK0	0.000	
21	   C	-1.248	-0.366	-0.396	C.3	1	UNK0	0.000	
22	   N	-2.054	-1.541	-0.619	N.4	1	UNK0	0.000	
23	   C	-2.657	-1.424	-1.939	C.3	1	UNK0	0.000	
24	   C	-3.381	-0.122	-2.031	C.3	1	UNK0	0.000	
25	   C	-4.369	0.130	-0.952	C.3	1	UNK0	0.000	
26	   C	-4.002	-0.400	0.391	C.3	1	UNK0	0.000	
27	   C	-3.185	-1.668	0.282	C.3	1	UNK0	0.000	
28	   H	2.833	-3.023	-1.637	 H	1	UNK0	0.000	
29	   H	2.522	-6.321	1.126	 H	1	UNK0	0.000	
30	   H	-1.081	-0.907	2.116	 H	1	UNK0	0.000	
31	   H	0.646	-1.146	2.280	 H	1	UNK0	0.000	
32	   H	1.601	0.315	1.377	 H	1	UNK0	0.000	
33	   H	0.018	1.056	1.429	 H	1	UNK0	0.000	
34	   H	1.354	2.406	0.512	 H	1	UNK0	0.000	
35	   H	-0.656	2.296	-0.814	 H	1	UNK0	0.000	
36	   H	0.457	1.684	-2.172	 H	1	UNK0	0.000	
37	   H	1.163	4.072	-0.494	 H	1	UNK0	0.000	
38	   H	0.202	4.102	-2.045	 H	1	UNK0	0.000	
39	   H	1.946	3.423	-3.317	 H	1	UNK0	0.000	
40	   H	3.010	4.042	-2.032	 H	1	UNK0	0.000	
41	   H	3.814	1.912	-2.282	 H	1	UNK0	0.000	
42	   H	2.308	1.187	-2.847	 H	1	UNK0	0.000	
43	   H	3.332	1.952	-0.083	 H	1	UNK0	0.000	
44	   H	2.918	0.341	-0.622	 H	1	UNK0	0.000	
45	   H	-1.781	0.435	0.123	 H	1	UNK0	0.000	
46	   H	-0.966	0.005	-1.400	 H	1	UNK0	0.000	
47	   H	-1.500	-2.410	-0.519	 H	1	UNK0	0.000	
48	   H	-1.923	-1.500	-2.746	 H	1	UNK0	0.000	
49	   H	-3.431	-2.233	-2.010	 H	1	UNK0	0.000	
50	   H	-3.937	-0.136	-3.015	 H	1	UNK0	0.000	
51	   H	-2.717	0.762	-2.108	 H	1	UNK0	0.000	
52	   H	-4.516	1.244	-0.836	 H	1	UNK0	0.000	
53	   H	-5.380	-0.235	-1.290	 H	1	UNK0	0.000	
54	   H	-4.970	-0.718	0.884	 H	1	UNK0	0.000	
55	   H	-3.572	0.342	1.085	 H	1	UNK0	0.000	
56	   H	-2.964	-2.103	1.251	 H	1	UNK0	0.000	
57	   H	-3.874	-2.412	-0.223	 H	1	UNK0	0.000	
@<TRIPOS>BOND
1 1 2 1
2 2 3 2
3 2 7 1
4 3 4 1
5 3 13 1
6 4 5 2
7 4 9 1
8 5 6 1
9 6 7 2
10 6 8 1
11 9 10 2
12 9 11 1
13 11 12 1
14 11 14 1
15 11 21 1
16 12 13 1
17 14 15 1
18 15 16 1
19 15 20 1
20 16 17 1
21 17 18 1
22 18 19 1
23 19 20 1
24 21 22 1
25 22 23 1
26 22 27 1
27 23 24 1
28 24 25 1
29 25 26 1
30 26 27 1
31 5 28 1
32 7 29 1
33 12 30 1
34 12 31 1
35 14 32 1
36 14 33 1
37 15 34 1
38 16 35 1
39 16 36 1
40 17 37 1
41 17 38 1
42 18 39 1
43 18 40 1
44 19 41 1
45 19 42 1
46 20 43 1
47 20 44 1
48 21 45 1
49 21 46 1
50 22 47 1
51 23 48 1
52 23 49 1
53 24 50 1
54 24 51 1
55 25 52 1
56 25 53 1
57 26 54 1
58 26 55 1
59 27 56 1
60 27 57 1
@<TRIPOS>SUBSTRUCTURE
1	UNK0	1	GROUP	1 ****	UNK
