# created with PyMOL 2.3.2
@<TRIPOS>MOLECULE
694
53 56 1                 
SMALL
USER_CHARGES
@<TRIPOS>ATOM
1	  Br	-3.066	0.720	-4.706	Br	1	UNK0	0.000	
2	   C	-1.307	1.115	-4.099	C.2	1	UNK0	0.000	
3	   C	-1.015	1.116	-2.737	C.2	1	UNK0	0.000	
4	   C	0.251	1.401	-2.277	C.2	1	UNK0	0.000	
5	   C	1.257	1.692	-3.167	C.2	1	UNK0	0.000	
6	   C	0.997	1.699	-4.528	C.2	1	UNK0	0.000	
7	   C	-0.281	1.410	-4.972	C.2	1	UNK0	0.000	
8	  Br	2.380	2.102	-5.794	Br	1	UNK0	0.000	
9	   C	0.513	1.401	-0.843	C.3	1	UNK0	0.000	
10	   C	-0.270	0.378	-0.048	C.3	1	UNK0	0.000	
11	   C	-1.589	0.029	-0.665	C.3	1	UNK0	0.000	
12	   O	-1.962	0.833	-1.762	O.3	1	UNK0	0.000	
13	   C	0.507	-0.929	0.110	C.3	1	UNK0	0.000	
14	   N	0.839	-1.566	-1.110	N.4	1	UNK0	0.000	
15	   C	2.229	-1.466	-1.486	C.3	1	UNK0	0.000	
16	   C	2.950	-2.110	-0.352	C.3	1	UNK0	0.000	
17	   C	1.937	-3.158	0.114	C.3	1	UNK0	0.000	
18	   C	0.786	-3.026	-0.875	C.3	1	UNK0	0.000	
19	   C	-0.540	1.013	1.283	C.3	1	UNK0	0.000	
20	   N	-1.261	0.263	2.220	N.4	1	UNK0	0.000	
21	   C	-0.458	0.005	3.428	C.3	1	UNK0	0.000	
22	   C	-1.471	-0.712	4.299	C.3	1	UNK0	0.000	
23	   C	-2.756	-0.006	3.943	C.3	1	UNK0	0.000	
24	   C	-2.389	0.976	2.823	C.3	1	UNK0	0.000	
25	   O	0.147	2.694	-0.384	O.3	1	UNK0	0.000	
26	   H	2.269	1.924	-2.865	 H	1	UNK0	0.000	
27	   H	-0.500	1.413	-6.048	 H	1	UNK0	0.000	
28	   H	1.593	1.339	-0.582	 H	1	UNK0	0.000	
29	   H	-1.632	-1.046	-1.010	 H	1	UNK0	0.000	
30	   H	-2.426	0.106	0.072	 H	1	UNK0	0.000	
31	   H	-0.167	-1.599	0.685	 H	1	UNK0	0.000	
32	   H	1.380	-0.712	0.755	 H	1	UNK0	0.000	
33	   H	0.275	-1.339	-1.931	 H	1	UNK0	0.000	
34	   H	2.352	-2.145	-2.381	 H	1	UNK0	0.000	
35	   H	2.569	-0.491	-1.785	 H	1	UNK0	0.000	
36	   H	3.866	-2.598	-0.759	 H	1	UNK0	0.000	
37	   H	3.265	-1.443	0.446	 H	1	UNK0	0.000	
38	   H	2.430	-4.144	0.035	 H	1	UNK0	0.000	
39	   H	1.588	-2.951	1.148	 H	1	UNK0	0.000	
40	   H	-0.160	-3.323	-0.411	 H	1	UNK0	0.000	
41	   H	1.026	-3.564	-1.808	 H	1	UNK0	0.000	
42	   H	-1.054	1.978	1.089	 H	1	UNK0	0.000	
43	   H	0.456	1.302	1.724	 H	1	UNK0	0.000	
44	   H	-1.622	-0.657	1.927	 H	1	UNK0	0.000	
45	   H	0.406	-0.627	3.212	 H	1	UNK0	0.000	
46	   H	-0.175	0.973	3.913	 H	1	UNK0	0.000	
47	   H	-1.511	-1.782	3.982	 H	1	UNK0	0.000	
48	   H	-1.234	-0.606	5.378	 H	1	UNK0	0.000	
49	   H	-3.515	-0.742	3.592	 H	1	UNK0	0.000	
50	   H	-3.197	0.536	4.795	 H	1	UNK0	0.000	
51	   H	-2.067	1.942	3.224	 H	1	UNK0	0.000	
52	   H	-3.259	1.015	2.152	 H	1	UNK0	0.000	
53	   H	0.876	3.343	-0.527	 H	1	UNK0	0.000	
@<TRIPOS>BOND
1 1 2 1
2 2 3 2
3 2 7 1
4 3 4 1
5 3 12 1
6 4 5 2
7 4 9 1
8 5 6 1
9 6 7 2
10 6 8 1
11 9 10 1
12 9 25 1
13 10 11 1
14 10 13 1
15 10 19 1
16 11 12 1
17 13 14 1
18 14 15 1
19 14 18 1
20 15 16 1
21 16 17 1
22 17 18 1
23 19 20 1
24 20 21 1
25 20 24 1
26 21 22 1
27 22 23 1
28 23 24 1
29 5 26 1
30 7 27 1
31 9 28 1
32 11 29 1
33 11 30 1
34 13 31 1
35 13 32 1
36 14 33 1
37 15 34 1
38 15 35 1
39 16 36 1
40 16 37 1
41 17 38 1
42 17 39 1
43 18 40 1
44 18 41 1
45 19 42 1
46 19 43 1
47 20 44 1
48 21 45 1
49 21 46 1
50 22 47 1
51 22 48 1
52 23 49 1
53 23 50 1
54 24 51 1
55 24 52 1
56 25 53 1
@<TRIPOS>SUBSTRUCTURE
1	UNK0	1	GROUP	1 ****	UNK
