# created with PyMOL 2.3.2
@<TRIPOS>MOLECULE
696
56 59 1                 
SMALL
USER_CHARGES
@<TRIPOS>ATOM
1	  Br	1.544	-5.049	0.329	Br	1	UNK0	0.000	
2	   C	0.458	-3.760	1.202	C.2	1	UNK0	0.000	
3	   C	-0.029	-2.668	0.471	C.2	1	UNK0	0.000	
4	   C	-0.819	-1.717	1.041	C.2	1	UNK0	0.000	
5	   C	-1.142	-1.841	2.381	C.2	1	UNK0	0.000	
6	   C	-0.663	-2.921	3.114	C.2	1	UNK0	0.000	
7	   C	0.134	-3.881	2.535	C.2	1	UNK0	0.000	
8	   C	-0.988	-3.091	4.559	C.3	1	UNK0	0.000	
9	   C	-1.359	-0.589	0.234	C.3	1	UNK0	0.000	
10	   C	-0.524	-0.123	-0.904	C.3	1	UNK0	0.000	
11	   C	0.609	-1.131	-1.213	C.3	1	UNK0	0.000	
12	   O	0.246	-2.459	-0.873	O.3	1	UNK0	0.000	
13	   C	0.241	1.150	-0.595	C.3	1	UNK0	0.000	
14	   N	1.140	1.054	0.535	N.4	1	UNK0	0.000	
15	   C	0.719	1.993	1.575	C.3	1	UNK0	0.000	
16	   C	1.905	2.303	2.411	C.3	1	UNK0	0.000	
17	   C	3.044	1.691	1.668	C.3	1	UNK0	0.000	
18	   C	2.463	1.585	0.252	C.3	1	UNK0	0.000	
19	   C	-1.282	-0.052	-2.175	C.3	1	UNK0	0.000	
20	   N	-2.370	0.711	-2.510	N.4	1	UNK0	0.000	
21	   C	-3.456	-0.149	-3.032	C.3	1	UNK0	0.000	
22	   C	-4.729	0.469	-2.601	C.3	1	UNK0	0.000	
23	   C	-4.422	1.283	-1.403	C.3	1	UNK0	0.000	
24	   C	-2.930	1.574	-1.554	C.3	1	UNK0	0.000	
25	   O	-2.634	-1.082	-0.162	O.3	1	UNK0	0.000	
26	   H	-1.755	-1.133	2.895	 H	1	UNK0	0.000	
27	   H	0.523	-4.731	3.070	 H	1	UNK0	0.000	
28	   H	-1.239	-2.127	5.037	 H	1	UNK0	0.000	
29	   H	-1.833	-3.826	4.632	 H	1	UNK0	0.000	
30	   H	-0.131	-3.596	5.087	 H	1	UNK0	0.000	
31	   H	-1.621	0.244	0.950	 H	1	UNK0	0.000	
32	   H	1.570	-0.809	-0.816	 H	1	UNK0	0.000	
33	   H	0.744	-1.137	-2.329	 H	1	UNK0	0.000	
34	   H	0.927	1.356	-1.480	 H	1	UNK0	0.000	
35	   H	-0.328	2.056	-0.498	 H	1	UNK0	0.000	
36	   H	1.277	0.106	0.914	 H	1	UNK0	0.000	
37	   H	-0.103	1.630	2.182	 H	1	UNK0	0.000	
38	   H	0.361	2.902	1.029	 H	1	UNK0	0.000	
39	   H	1.785	1.948	3.445	 H	1	UNK0	0.000	
40	   H	2.046	3.420	2.487	 H	1	UNK0	0.000	
41	   H	3.203	0.647	2.051	 H	1	UNK0	0.000	
42	   H	3.969	2.281	1.669	 H	1	UNK0	0.000	
43	   H	2.398	2.616	-0.162	 H	1	UNK0	0.000	
44	   H	3.096	0.951	-0.360	 H	1	UNK0	0.000	
45	   H	-0.510	0.120	-3.047	 H	1	UNK0	0.000	
46	   H	-1.566	-1.140	-2.495	 H	1	UNK0	0.000	
47	   H	-2.178	1.300	-3.435	 H	1	UNK0	0.000	
48	   H	-3.467	-0.164	-4.154	 H	1	UNK0	0.000	
49	   H	-3.356	-1.192	-2.737	 H	1	UNK0	0.000	
50	   H	-5.167	1.130	-3.384	 H	1	UNK0	0.000	
51	   H	-5.496	-0.299	-2.317	 H	1	UNK0	0.000	
52	   H	-4.952	2.250	-1.385	 H	1	UNK0	0.000	
53	   H	-4.638	0.766	-0.438	 H	1	UNK0	0.000	
54	   H	-2.544	1.552	-0.541	 H	1	UNK0	0.000	
55	   H	-2.822	2.670	-1.871	 H	1	UNK0	0.000	
56	   H	-3.285	-0.993	0.555	 H	1	UNK0	0.000	
@<TRIPOS>BOND
1 1 2 1
2 2 3 2
3 2 7 1
4 3 4 1
5 3 12 1
6 4 5 2
7 4 9 1
8 5 6 1
9 6 7 2
10 6 8 1
11 9 10 1
12 9 25 1
13 10 11 1
14 10 13 1
15 10 19 1
16 11 12 1
17 13 14 1
18 14 15 1
19 14 18 1
20 15 16 1
21 16 17 1
22 17 18 1
23 19 20 1
24 20 21 1
25 20 24 1
26 21 22 1
27 22 23 1
28 23 24 1
29 5 26 1
30 7 27 1
31 8 28 1
32 8 29 1
33 8 30 1
34 9 31 1
35 11 32 1
36 11 33 1
37 13 34 1
38 13 35 1
39 14 36 1
40 15 37 1
41 15 38 1
42 16 39 1
43 16 40 1
44 17 41 1
45 17 42 1
46 18 43 1
47 18 44 1
48 19 45 1
49 19 46 1
50 20 47 1
51 21 48 1
52 21 49 1
53 22 50 1
54 22 51 1
55 23 52 1
56 23 53 1
57 24 54 1
58 24 55 1
59 25 56 1
@<TRIPOS>SUBSTRUCTURE
1	UNK0	1	GROUP	1 ****	UNK
