# created with PyMOL 2.3.2
@<TRIPOS>MOLECULE
697
53 56 1                 
SMALL
USER_CHARGES
@<TRIPOS>ATOM
1	  Br	1.135	0.872	5.221	Br	1	UNK0	0.000	
2	   C	1.940	-0.025	3.771	C.2	1	UNK0	0.000	
3	   C	1.144	-0.367	2.682	C.2	1	UNK0	0.000	
4	   C	1.737	-1.025	1.615	C.2	1	UNK0	0.000	
5	   C	3.094	-1.355	1.594	C.2	1	UNK0	0.000	
6	   C	3.853	-1.007	2.677	C.2	1	UNK0	0.000	
7	   C	3.285	-0.352	3.748	C.2	1	UNK0	0.000	
8	   N	5.234	-1.330	2.684	N.pl3	1	UNK0	0.000	
9	   O	5.775	-1.918	1.721	O.2	1	UNK0	0.000	
10	   O	6.043	-1.015	3.745	O.2	1	UNK0	0.000	
11	   C	0.895	-1.373	0.481	C.2	1	UNK0	0.000	
12	   O	1.235	-2.291	-0.285	O.2	1	UNK0	0.000	
13	   C	-0.381	-0.579	0.294	C.3	1	UNK0	0.000	
14	   C	-1.094	-0.575	1.674	C.3	1	UNK0	0.000	
15	   O	-0.213	-0.064	2.650	O.3	1	UNK0	0.000	
16	   C	-1.267	-1.406	-0.589	C.3	1	UNK0	0.000	
17	   N	-0.729	-1.762	-1.847	N.3	1	UNK0	0.000	
18	   C	-1.541	-2.841	-2.479	C.3	1	UNK0	0.000	
19	   C	-0.633	-3.375	-3.599	C.3	1	UNK0	0.000	
20	   O	0.575	-2.681	-3.659	O.3	1	UNK0	0.000	
21	   C	0.421	-1.339	-3.898	C.3	1	UNK0	0.000	
22	   C	-0.589	-0.795	-2.871	C.3	1	UNK0	0.000	
23	   C	-0.100	0.822	-0.016	C.3	1	UNK0	0.000	
24	   N	-1.090	1.756	-0.168	N.3	1	UNK0	0.000	
25	   C	-2.050	1.906	-1.140	C.3	1	UNK0	0.000	
26	   C	-3.247	2.638	-0.499	C.3	1	UNK0	0.000	
27	   O	-3.167	2.528	0.894	O.3	1	UNK0	0.000	
28	   C	-2.075	3.238	1.391	C.3	1	UNK0	0.000	
29	   C	-0.849	3.033	0.517	C.3	1	UNK0	0.000	
30	   H	3.476	-1.873	0.715	 H	1	UNK0	0.000	
31	   H	3.872	-0.058	4.633	 H	1	UNK0	0.000	
32	   H	-1.466	-1.573	1.881	 H	1	UNK0	0.000	
33	   H	-1.942	0.145	1.536	 H	1	UNK0	0.000	
34	   H	-2.324	-1.044	-0.621	 H	1	UNK0	0.000	
35	   H	-1.396	-2.407	-0.033	 H	1	UNK0	0.000	
36	   H	-1.791	-3.628	-1.751	 H	1	UNK0	0.000	
37	   H	-2.450	-2.451	-2.956	 H	1	UNK0	0.000	
38	   H	-1.109	-3.322	-4.589	 H	1	UNK0	0.000	
39	   H	-0.350	-4.439	-3.402	 H	1	UNK0	0.000	
40	   H	0.126	-1.091	-4.926	 H	1	UNK0	0.000	
41	   H	1.392	-0.831	-3.653	 H	1	UNK0	0.000	
42	   H	-1.556	-0.755	-3.473	 H	1	UNK0	0.000	
43	   H	-0.370	0.228	-2.614	 H	1	UNK0	0.000	
44	   H	0.530	1.194	0.913	 H	1	UNK0	0.000	
45	   H	0.699	0.967	-0.800	 H	1	UNK0	0.000	
46	   H	-1.681	2.676	-1.903	 H	1	UNK0	0.000	
47	   H	-2.422	1.016	-1.689	 H	1	UNK0	0.000	
48	   H	-4.150	2.077	-0.796	 H	1	UNK0	0.000	
49	   H	-3.323	3.683	-0.820	 H	1	UNK0	0.000	
50	   H	-1.812	2.798	2.372	 H	1	UNK0	0.000	
51	   H	-2.385	4.304	1.464	 H	1	UNK0	0.000	
52	   H	0.078	2.987	1.141	 H	1	UNK0	0.000	
53	   H	-0.808	3.809	-0.271	 H	1	UNK0	0.000	
@<TRIPOS>BOND
1 1 2 1
2 2 3 2
3 2 7 1
4 3 4 1
5 3 15 1
6 4 5 2
7 4 11 1
8 5 6 1
9 6 7 2
10 6 8 1
11 8 9 2
12 8 10 1
13 11 12 2
14 11 13 1
15 13 14 1
16 13 16 1
17 13 23 1
18 14 15 1
19 16 17 1
20 17 18 1
21 17 22 1
22 18 19 1
23 19 20 1
24 20 21 1
25 21 22 1
26 23 24 1
27 24 25 1
28 24 29 1
29 25 26 1
30 26 27 1
31 27 28 1
32 28 29 1
33 5 30 1
34 7 31 1
35 14 32 1
36 14 33 1
37 16 34 1
38 16 35 1
39 18 36 1
40 18 37 1
41 19 38 1
42 19 39 1
43 21 40 1
44 21 41 1
45 22 42 1
46 22 43 1
47 23 44 1
48 23 45 1
49 25 46 1
50 25 47 1
51 26 48 1
52 26 49 1
53 28 50 1
54 28 51 1
55 29 52 1
56 29 53 1
@<TRIPOS>SUBSTRUCTURE
1	UNK0	1	GROUP	1 ****	UNK
