# created with PyMOL 2.3.2
@<TRIPOS>MOLECULE
698
42 45 1                 
SMALL
USER_CHARGES
@<TRIPOS>ATOM
1	  Br	-1.782	-0.198	2.779	Br	1	UNK0	0.000	
2	   C	-1.646	-1.735	1.681	C.2	1	UNK0	0.000	
3	   C	-1.729	-1.617	0.278	C.2	1	UNK0	0.000	
4	   C	-1.617	-2.697	-0.530	C.2	1	UNK0	0.000	
5	   C	-1.421	-3.955	0.061	C.2	1	UNK0	0.000	
6	   C	-1.345	-4.045	1.444	C.2	1	UNK0	0.000	
7	   C	-1.453	-2.960	2.275	C.2	1	UNK0	0.000	
8	   C	-1.379	-3.106	3.770	C.3	1	UNK0	0.000	
9	   N	-1.642	-2.284	-1.890	N.pl3	1	UNK0	0.000	
10	   C	-1.769	-0.895	-1.911	C.2	1	UNK0	0.000	
11	   O	-1.671	-0.098	-2.914	O.2	1	UNK0	0.000	
12	   C	-2.044	-0.418	-0.573	C.3	1	UNK0	0.000	
13	   C	-1.184	0.646	-0.066	C.2	1	UNK0	0.000	
14	   C	-1.733	1.775	0.463	C.2	1	UNK0	0.000	
15	   N	-0.669	2.572	0.853	N.2	1	UNK0	0.000	
16	   N	0.442	1.939	0.567	N.pl3	1	UNK0	0.000	
17	   C	0.187	0.731	-0.009	C.2	1	UNK0	0.000	
18	   C	1.275	-0.126	-0.402	C.3	1	UNK0	0.000	
19	   C	1.753	-0.236	-1.732	C.2	1	UNK0	0.000	
20	   O	1.234	-1.019	-2.604	O.co2	1	UNK0	0.000	
21	   O	2.838	0.505	-2.235	O.3	1	UNK0	0.000	
22	   C	3.223	0.317	-3.606	C.3	1	UNK0	0.000	
23	   O	-3.092	2.008	0.565	O.3	1	UNK0	0.000	
24	   C	-3.928	1.013	0.093	C.2	1	UNK0	0.000	
25	   C	-3.474	-0.085	-0.422	C.2	1	UNK0	0.000	
26	   C	-4.401	-1.102	-0.915	C.1	1	UNK0	0.000	
27	   N	-5.119	-1.927	-1.317	N.1	1	UNK0	0.000	
28	   N	-5.368	1.181	0.164	N.pl3	1	UNK0	0.000	
29	   H	-1.343	-4.790	-0.614	 H	1	UNK0	0.000	
30	   H	-1.195	-5.027	1.872	 H	1	UNK0	0.000	
31	   H	-0.389	-3.518	4.027	 H	1	UNK0	0.000	
32	   H	-2.185	-3.761	4.154	 H	1	UNK0	0.000	
33	   H	-1.566	-2.099	4.211	 H	1	UNK0	0.000	
34	   H	-1.576	-2.932	-2.736	 H	1	UNK0	0.000	
35	   H	1.387	2.359	0.778	 H	1	UNK0	0.000	
36	   H	0.856	-1.185	-0.142	 H	1	UNK0	0.000	
37	   H	2.166	-0.134	0.293	 H	1	UNK0	0.000	
38	   H	4.077	0.961	-3.797	 H	1	UNK0	0.000	
39	   H	2.419	0.545	-4.312	 H	1	UNK0	0.000	
40	   H	3.465	-0.759	-3.685	 H	1	UNK0	0.000	
41	   H	-5.864	1.794	-0.501	 H	1	UNK0	0.000	
42	   H	-5.880	0.677	0.894	 H	1	UNK0	0.000	
@<TRIPOS>BOND
1 1 2 1
2 2 3 2
3 2 7 1
4 3 4 1
5 3 12 1
6 4 5 2
7 4 9 1
8 5 6 1
9 6 7 2
10 7 8 1
11 9 10 1
12 10 11 2
13 10 12 1
14 12 13 1
15 12 25 1
16 13 14 1
17 13 17 2
18 14 15 2
19 14 23 1
20 15 16 1
21 16 17 1
22 17 18 1
23 18 19 1
24 19 20 2
25 19 21 1
26 21 22 1
27 23 24 1
28 24 25 2
29 24 28 1
30 25 26 1
31 26 27 3
32 5 29 1
33 6 30 1
34 8 31 1
35 8 32 1
36 8 33 1
37 9 34 1
38 16 35 1
39 18 36 1
40 18 37 1
41 22 38 1
42 22 39 1
43 22 40 1
44 28 41 1
45 28 42 1
@<TRIPOS>SUBSTRUCTURE
1	UNK0	1	GROUP	1 ****	UNK
