# created with PyMOL 2.3.2
@<TRIPOS>MOLECULE
699
56 59 1                 
SMALL
USER_CHARGES
@<TRIPOS>ATOM
1	  Br	-3.073	1.887	-3.753	Br	1	UNK0	0.000	
2	   C	-3.658	0.237	-3.008	C.2	1	UNK0	0.000	
3	   C	-4.982	0.091	-2.644	C.2	1	UNK0	0.000	
4	   C	-5.434	-1.094	-2.102	C.2	1	UNK0	0.000	
5	   C	-4.510	-2.107	-1.946	C.2	1	UNK0	0.000	
6	   C	-3.188	-1.953	-2.313	C.2	1	UNK0	0.000	
7	   C	-2.726	-0.771	-2.856	C.2	1	UNK0	0.000	
8	   O	-1.394	-0.603	-3.230	O.3	1	UNK0	0.000	
9	   C	-0.515	-1.694	-3.035	C.3	1	UNK0	0.000	
10	   C	0.890	-1.377	-3.481	C.3	1	UNK0	0.000	
11	   O	1.761	-2.420	-3.301	O.3	1	UNK0	0.000	
12	   C	1.375	-0.117	-2.852	C.3	1	UNK0	0.000	
13	   N	1.574	-0.214	-1.423	N.4	1	UNK0	0.000	
14	   C	1.494	1.136	-0.894	C.3	1	UNK0	0.000	
15	   C	1.939	1.205	0.574	C.3	1	UNK0	0.000	
16	   N	3.264	0.707	0.674	N.pl3	1	UNK0	0.000	
17	   C	3.835	0.207	-0.594	C.3	1	UNK0	0.000	
18	   C	2.888	-0.789	-1.176	C.3	1	UNK0	0.000	
19	   C	4.026	0.665	1.847	C.2	1	UNK0	0.000	
20	   O	5.232	0.151	1.667	O.2	1	UNK0	0.000	
21	   C	3.749	1.067	3.188	C.2	1	UNK0	0.000	
22	   C	2.593	1.626	3.653	C.2	1	UNK0	0.000	
23	   C	2.388	1.996	4.975	C.2	1	UNK0	0.000	
24	   C	3.369	1.808	5.895	C.2	1	UNK0	0.000	
25	   C	4.550	1.245	5.457	C.2	1	UNK0	0.000	
26	   C	4.753	0.880	4.150	C.2	1	UNK0	0.000	
27	   C	-6.762	-1.240	-1.737	C.2	1	UNK0	0.000	
28	   C	-7.687	-0.228	-1.893	C.2	1	UNK0	0.000	
29	   C	-7.235	0.959	-2.435	C.2	1	UNK0	0.000	
30	   C	-5.911	1.105	-2.799	C.2	1	UNK0	0.000	
31	   H	-4.857	-3.041	-1.521	 H	1	UNK0	0.000	
32	   H	-2.462	-2.755	-2.188	 H	1	UNK0	0.000	
33	   H	-0.507	-1.917	-1.949	 H	1	UNK0	0.000	
34	   H	-0.934	-2.562	-3.589	 H	1	UNK0	0.000	
35	   H	0.820	-1.172	-4.589	 H	1	UNK0	0.000	
36	   H	1.519	-3.043	-2.592	 H	1	UNK0	0.000	
37	   H	0.589	0.671	-3.006	 H	1	UNK0	0.000	
38	   H	2.334	0.205	-3.293	 H	1	UNK0	0.000	
39	   H	0.853	-0.787	-0.936	 H	1	UNK0	0.000	
40	   H	2.042	1.843	-1.536	 H	1	UNK0	0.000	
41	   H	0.420	1.418	-0.895	 H	1	UNK0	0.000	
42	   H	1.930	2.283	0.820	 H	1	UNK0	0.000	
43	   H	1.175	0.682	1.178	 H	1	UNK0	0.000	
44	   H	3.897	1.084	-1.262	 H	1	UNK0	0.000	
45	   H	4.808	-0.249	-0.429	 H	1	UNK0	0.000	
46	   H	2.827	-1.668	-0.504	 H	1	UNK0	0.000	
47	   H	3.341	-1.158	-2.131	 H	1	UNK0	0.000	
48	   H	1.772	1.810	3.006	 H	1	UNK0	0.000	
49	   H	1.442	2.437	5.281	 H	1	UNK0	0.000	
50	   H	3.245	2.084	6.932	 H	1	UNK0	0.000	
51	   H	5.331	1.097	6.192	 H	1	UNK0	0.000	
52	   H	5.715	0.449	3.919	 H	1	UNK0	0.000	
53	   H	-7.118	-2.169	-1.312	 H	1	UNK0	0.000	
54	   H	-8.720	-0.374	-1.597	 H	1	UNK0	0.000	
55	   H	-7.970	1.752	-2.555	 H	1	UNK0	0.000	
56	   H	-5.558	2.037	-3.225	 H	1	UNK0	0.000	
@<TRIPOS>BOND
1 1 2 1
2 2 3 2
3 2 7 1
4 3 4 1
5 3 30 1
6 4 5 2
7 4 27 1
8 5 6 1
9 6 7 2
10 7 8 1
11 8 9 1
12 9 10 1
13 10 11 1
14 10 12 1
15 12 13 1
16 13 14 1
17 13 18 1
18 14 15 1
19 15 16 1
20 16 17 1
21 16 19 1
22 17 18 1
23 19 20 2
24 19 21 1
25 21 22 2
26 21 26 1
27 22 23 1
28 23 24 2
29 24 25 1
30 25 26 2
31 27 28 2
32 28 29 1
33 29 30 2
34 5 31 1
35 6 32 1
36 9 33 1
37 9 34 1
38 10 35 1
39 11 36 1
40 12 37 1
41 12 38 1
42 13 39 1
43 14 40 1
44 14 41 1
45 15 42 1
46 15 43 1
47 17 44 1
48 17 45 1
49 18 46 1
50 18 47 1
51 22 48 1
52 23 49 1
53 24 50 1
54 25 51 1
55 26 52 1
56 27 53 1
57 28 54 1
58 29 55 1
59 30 56 1
@<TRIPOS>SUBSTRUCTURE
1	UNK0	1	GROUP	1 ****	UNK
