# created with PyMOL 2.3.2
@<TRIPOS>MOLECULE
700
36 39 1                 
SMALL
USER_CHARGES
@<TRIPOS>ATOM
1	  Br	-0.591	-5.694	-0.166	Br	1	UNK0	0.000	
2	   C	-0.854	-4.074	-1.131	C.2	1	UNK0	0.000	
3	   C	-0.034	-2.951	-0.913	C.2	1	UNK0	0.000	
4	   C	-0.213	-1.790	-1.596	C.2	1	UNK0	0.000	
5	   C	-1.252	-1.753	-2.534	C.2	1	UNK0	0.000	
6	   C	-2.055	-2.851	-2.749	C.2	1	UNK0	0.000	
7	   C	-1.870	-4.025	-2.054	C.2	1	UNK0	0.000	
8	   C	0.761	-0.796	-1.183	C.3	1	UNK0	0.000	
9	   C	1.228	-1.321	0.158	C.3	1	UNK0	0.000	
10	   C	1.096	-2.835	0.036	C.3	1	UNK0	0.000	
11	   N	0.279	0.541	-1.098	N.pl3	1	UNK0	0.000	
12	   C	-0.879	0.942	-0.336	C.2	1	UNK0	0.000	
13	   O	-1.638	0.220	0.360	O.2	1	UNK0	0.000	
14	   N	-1.046	2.346	-0.493	N.pl3	1	UNK0	0.000	
15	   C	-0.198	2.747	-1.623	C.3	1	UNK0	0.000	
16	   C	0.367	4.047	-1.111	C.3	1	UNK0	0.000	
17	   C	-0.889	4.695	-0.514	C.3	1	UNK0	0.000	
18	   C	-1.718	3.538	0.016	C.3	1	UNK0	0.000	
19	   O	-1.615	5.325	-1.506	O.3	1	UNK0	0.000	
20	   C	0.829	1.678	-1.724	C.2	1	UNK0	0.000	
21	   O	1.963	1.822	-2.279	O.2	1	UNK0	0.000	
22	   H	-1.377	-0.822	-3.066	 H	1	UNK0	0.000	
23	   H	-2.867	-2.806	-3.489	 H	1	UNK0	0.000	
24	   H	-2.525	-4.886	-2.245	 H	1	UNK0	0.000	
25	   H	1.673	-0.811	-1.844	 H	1	UNK0	0.000	
26	   H	0.586	-1.013	0.991	 H	1	UNK0	0.000	
27	   H	2.304	-1.115	0.343	 H	1	UNK0	0.000	
28	   H	0.741	-3.266	1.016	 H	1	UNK0	0.000	
29	   H	2.021	-3.309	-0.317	 H	1	UNK0	0.000	
30	   H	-0.787	2.866	-2.544	 H	1	UNK0	0.000	
31	   H	1.082	3.842	-0.305	 H	1	UNK0	0.000	
32	   H	0.751	4.685	-1.914	 H	1	UNK0	0.000	
33	   H	-0.615	5.367	0.326	 H	1	UNK0	0.000	
34	   H	-1.671	3.531	1.126	 H	1	UNK0	0.000	
35	   H	-2.753	3.546	-0.361	 H	1	UNK0	0.000	
36	   H	-1.107	5.523	-2.319	 H	1	UNK0	0.000	
@<TRIPOS>BOND
1 1 2 1
2 2 3 2
3 2 7 1
4 3 4 1
5 3 10 1
6 4 5 2
7 4 8 1
8 5 6 1
9 6 7 2
10 8 9 1
11 8 11 1
12 9 10 1
13 11 12 1
14 11 20 1
15 12 13 2
16 12 14 1
17 14 15 1
18 14 18 1
19 15 16 1
20 15 20 1
21 16 17 1
22 17 18 1
23 17 19 1
24 20 21 2
25 5 22 1
26 6 23 1
27 7 24 1
28 8 25 1
29 9 26 1
30 9 27 1
31 10 28 1
32 10 29 1
33 15 30 1
34 16 31 1
35 16 32 1
36 17 33 1
37 18 34 1
38 18 35 1
39 19 36 1
@<TRIPOS>SUBSTRUCTURE
1	UNK0	1	GROUP	1 ****	UNK
