# created with PyMOL 2.3.2
@<TRIPOS>MOLECULE
701
41 44 1                 
SMALL
USER_CHARGES
@<TRIPOS>ATOM
1	  Br	4.351	0.387	3.392	Br	1	UNK0	0.000	
2	   C	3.703	0.180	1.614	C.2	1	UNK0	0.000	
3	   C	2.927	-0.935	1.291	C.2	1	UNK0	0.000	
4	   C	2.445	-1.110	0.012	C.2	1	UNK0	0.000	
5	   C	2.771	-0.129	-0.920	C.2	1	UNK0	0.000	
6	   C	3.536	0.964	-0.590	C.2	1	UNK0	0.000	
7	   C	4.014	1.140	0.677	C.2	1	UNK0	0.000	
8	   N	1.689	-2.316	-0.058	N.pl3	1	UNK0	0.000	
9	   C	1.691	-2.926	1.219	C.2	1	UNK0	0.000	
10	   O	1.131	-4.018	1.579	O.2	1	UNK0	0.000	
11	   C	2.473	-2.066	2.093	C.2	1	UNK0	0.000	
12	   O	2.706	-2.272	3.316	O.2	1	UNK0	0.000	
13	   C	1.047	-2.810	-1.230	C.3	1	UNK0	0.000	
14	   N	-0.276	-2.421	-1.476	N.3	1	UNK0	0.000	
15	   C	-1.284	-2.737	-0.540	C.3	1	UNK0	0.000	
16	   C	-1.514	-1.626	0.481	C.3	1	UNK0	0.000	
17	   N	-0.883	-0.400	0.055	N.pl3	1	UNK0	0.000	
18	   C	-0.757	-0.042	-1.324	C.3	1	UNK0	0.000	
19	   C	-0.528	-1.230	-2.193	C.3	1	UNK0	0.000	
20	   C	-0.367	0.485	1.051	C.2	1	UNK0	0.000	
21	   N	0.232	1.642	0.728	N.2	1	UNK0	0.000	
22	   C	0.731	2.504	1.629	C.2	1	UNK0	0.000	
23	   C	0.631	2.199	2.984	C.2	1	UNK0	0.000	
24	   C	0.018	1.016	3.307	C.2	1	UNK0	0.000	
25	   N	-0.464	0.189	2.370	N.2	1	UNK0	0.000	
26	   H	2.408	-0.242	-1.924	 H	1	UNK0	0.000	
27	   H	3.774	1.718	-1.345	 H	1	UNK0	0.000	
28	   H	4.621	2.003	0.947	 H	1	UNK0	0.000	
29	   H	1.645	-2.603	-2.166	 H	1	UNK0	0.000	
30	   H	1.074	-3.938	-1.159	 H	1	UNK0	0.000	
31	   H	-2.261	-2.820	-1.102	 H	1	UNK0	0.000	
32	   H	-1.158	-3.708	-0.038	 H	1	UNK0	0.000	
33	   H	-1.053	-1.975	1.437	 H	1	UNK0	0.000	
34	   H	-2.591	-1.416	0.630	 H	1	UNK0	0.000	
35	   H	0.057	0.685	-1.519	 H	1	UNK0	0.000	
36	   H	-1.699	0.515	-1.593	 H	1	UNK0	0.000	
37	   H	0.253	-1.059	-2.970	 H	1	UNK0	0.000	
38	   H	-1.491	-1.394	-2.766	 H	1	UNK0	0.000	
39	   H	1.212	3.433	1.342	 H	1	UNK0	0.000	
40	   H	1.028	2.882	3.735	 H	1	UNK0	0.000	
41	   H	-0.075	0.752	4.344	 H	1	UNK0	0.000	
@<TRIPOS>BOND
1 1 2 1
2 2 3 2
3 2 7 1
4 3 4 1
5 3 11 1
6 4 5 2
7 4 8 1
8 5 6 1
9 6 7 2
10 8 9 1
11 8 13 1
12 9 10 2
13 9 11 1
14 11 12 2
15 13 14 1
16 14 15 1
17 14 19 1
18 15 16 1
19 16 17 1
20 17 18 1
21 17 20 1
22 18 19 1
23 20 21 2
24 20 25 1
25 21 22 1
26 22 23 2
27 23 24 1
28 24 25 2
29 5 26 1
30 6 27 1
31 7 28 1
32 13 29 1
33 13 30 1
34 15 31 1
35 15 32 1
36 16 33 1
37 16 34 1
38 18 35 1
39 18 36 1
40 19 37 1
41 19 38 1
42 22 39 1
43 23 40 1
44 24 41 1
@<TRIPOS>SUBSTRUCTURE
1	UNK0	1	GROUP	1 ****	UNK
