# created with PyMOL 2.3.2
@<TRIPOS>MOLECULE
707
46 49 1                 
SMALL
USER_CHARGES
@<TRIPOS>ATOM
1	  Br	-1.520	3.015	0.786	Br	1	UNK0	0.000	
2	   C	-2.079	1.971	-0.712	C.2	1	UNK0	0.000	
3	   N	-2.383	0.653	-0.625	N.pl3	1	UNK0	0.000	
4	   C	-2.727	0.294	-1.882	C.2	1	UNK0	0.000	
5	   C	-2.640	1.368	-2.743	C.2	1	UNK0	0.000	
6	   N	-2.231	2.406	-1.976	N.2	1	UNK0	0.000	
7	   N	-2.932	1.272	-4.060	N.pl3	1	UNK0	0.000	
8	   C	-3.320	0.073	-4.530	C.2	1	UNK0	0.000	
9	   O	-3.608	-0.093	-5.745	O.2	1	UNK0	0.000	
10	   N	-3.417	-1.010	-3.711	N.pl3	1	UNK0	0.000	
11	   C	-3.129	-0.924	-2.404	C.2	1	UNK0	0.000	
12	   O	-3.203	-1.889	-1.611	O.2	1	UNK0	0.000	
13	   C	-2.836	2.413	-4.951	C.3	1	UNK0	0.000	
14	   C	-2.357	-0.208	0.533	C.3	1	UNK0	0.000	
15	   C	-0.996	-0.869	0.704	C.3	1	UNK0	0.000	
16	   C	-0.978	-1.765	1.914	C.3	1	UNK0	0.000	
17	   C	0.335	-2.440	2.177	C.3	1	UNK0	0.000	
18	   N	1.358	-1.473	2.398	N.pl3	1	UNK0	0.000	
19	   C	2.235	-0.925	1.559	C.2	1	UNK0	0.000	
20	   C	3.003	0.001	2.256	C.2	1	UNK0	0.000	
21	   N	2.553	-0.026	3.507	N.2	1	UNK0	0.000	
22	   C	1.560	-0.910	3.616	C.2	1	UNK0	0.000	
23	  Br	0.623	-1.274	5.236	Br	1	UNK0	0.000	
24	   N	3.967	0.692	1.641	N.pl3	1	UNK0	0.000	
25	   C	4.222	0.510	0.331	C.2	1	UNK0	0.000	
26	   O	5.130	1.164	-0.240	O.2	1	UNK0	0.000	
27	   N	3.492	-0.378	-0.351	N.pl3	1	UNK0	0.000	
28	   C	2.515	-1.092	0.228	C.2	1	UNK0	0.000	
29	   O	1.846	-1.918	-0.424	O.2	1	UNK0	0.000	
30	   C	4.787	1.670	2.348	C.3	1	UNK0	0.000	
31	   H	-3.722	-1.927	-4.114	 H	1	UNK0	0.000	
32	   H	-2.875	3.372	-4.394	 H	1	UNK0	0.000	
33	   H	-1.834	2.405	-5.468	 H	1	UNK0	0.000	
34	   H	-3.663	2.450	-5.690	 H	1	UNK0	0.000	
35	   H	-3.170	-0.931	0.526	 H	1	UNK0	0.000	
36	   H	-2.482	0.458	1.424	 H	1	UNK0	0.000	
37	   H	-0.801	-1.559	-0.170	 H	1	UNK0	0.000	
38	   H	-0.179	-0.139	0.742	 H	1	UNK0	0.000	
39	   H	-1.352	-1.202	2.797	 H	1	UNK0	0.000	
40	   H	-1.726	-2.606	1.804	 H	1	UNK0	0.000	
41	   H	0.180	-3.096	3.070	 H	1	UNK0	0.000	
42	   H	0.545	-3.133	1.340	 H	1	UNK0	0.000	
43	   H	3.660	-0.552	-1.383	 H	1	UNK0	0.000	
44	   H	4.335	1.817	3.354	 H	1	UNK0	0.000	
45	   H	4.710	2.614	1.763	 H	1	UNK0	0.000	
46	   H	5.838	1.344	2.424	 H	1	UNK0	0.000	
@<TRIPOS>BOND
1 1 2 1
2 2 3 1
3 2 6 2
4 3 4 1
5 3 14 1
6 4 5 2
7 4 11 1
8 5 6 1
9 5 7 1
10 7 8 1
11 7 13 1
12 8 9 2
13 8 10 1
14 10 11 1
15 11 12 2
16 14 15 1
17 15 16 1
18 16 17 1
19 17 18 1
20 18 19 1
21 18 22 1
22 19 20 2
23 19 28 1
24 20 21 1
25 20 24 1
26 21 22 2
27 22 23 1
28 24 25 1
29 24 30 1
30 25 26 2
31 25 27 1
32 27 28 1
33 28 29 2
34 10 31 1
35 13 32 1
36 13 33 1
37 13 34 1
38 14 35 1
39 14 36 1
40 15 37 1
41 15 38 1
42 16 39 1
43 16 40 1
44 17 41 1
45 17 42 1
46 27 43 1
47 30 44 1
48 30 45 1
49 30 46 1
@<TRIPOS>SUBSTRUCTURE
1	UNK0	1	GROUP	1 ****	UNK
