# created with PyMOL 2.3.2
@<TRIPOS>MOLECULE
708
43 46 1                 
SMALL
USER_CHARGES
@<TRIPOS>ATOM
1	  Br	-1.272	-2.056	4.119	Br	1	UNK0	0.000	
2	   C	0.200	-2.477	2.987	C.2	1	UNK0	0.000	
3	   N	1.016	-1.522	2.445	N.pl3	1	UNK0	0.000	
4	   C	1.918	-2.214	1.721	C.2	1	UNK0	0.000	
5	   C	1.677	-3.576	1.802	C.2	1	UNK0	0.000	
6	   N	0.596	-3.699	2.602	N.2	1	UNK0	0.000	
7	   N	2.419	-4.513	1.187	N.pl3	1	UNK0	0.000	
8	   C	3.457	-4.072	0.454	C.2	1	UNK0	0.000	
9	   O	4.192	-4.923	-0.151	O.2	1	UNK0	0.000	
10	   N	3.728	-2.758	0.349	N.pl3	1	UNK0	0.000	
11	   C	2.978	-1.806	0.971	C.2	1	UNK0	0.000	
12	   O	3.244	-0.591	0.865	O.2	1	UNK0	0.000	
13	   C	2.159	-5.934	1.276	C.3	1	UNK0	0.000	
14	   C	0.883	-0.097	2.668	C.3	1	UNK0	0.000	
15	   C	-0.080	0.577	1.735	C.3	1	UNK0	0.000	
16	   C	0.274	0.463	0.280	C.3	1	UNK0	0.000	
17	   N	-0.731	1.135	-0.532	N.pl3	1	UNK0	0.000	
18	   C	-1.861	0.619	-1.067	C.2	1	UNK0	0.000	
19	   C	-2.542	1.587	-1.768	C.2	1	UNK0	0.000	
20	   N	-1.803	2.706	-1.650	N.2	1	UNK0	0.000	
21	   C	-0.713	2.425	-0.904	C.2	1	UNK0	0.000	
22	  Br	0.680	3.636	-0.414	Br	1	UNK0	0.000	
23	   N	-3.704	1.365	-2.410	N.pl3	1	UNK0	0.000	
24	   C	-4.202	0.106	-2.341	C.2	1	UNK0	0.000	
25	   O	-5.298	-0.107	-2.944	O.2	1	UNK0	0.000	
26	   N	-3.566	-0.873	-1.664	N.pl3	1	UNK0	0.000	
27	   C	-2.402	-0.639	-1.024	C.2	1	UNK0	0.000	
28	   O	-1.786	-1.527	-0.386	O.2	1	UNK0	0.000	
29	   C	-4.392	2.425	-3.143	C.3	1	UNK0	0.000	
30	   H	4.528	-2.400	-0.215	 H	1	UNK0	0.000	
31	   H	1.138	-6.138	1.661	 H	1	UNK0	0.000	
32	   H	2.158	-6.349	0.228	 H	1	UNK0	0.000	
33	   H	2.882	-6.463	1.928	 H	1	UNK0	0.000	
34	   H	1.886	0.384	2.665	 H	1	UNK0	0.000	
35	   H	0.441	0.020	3.700	 H	1	UNK0	0.000	
36	   H	-0.269	1.634	2.027	 H	1	UNK0	0.000	
37	   H	-1.083	0.066	1.852	 H	1	UNK0	0.000	
38	   H	1.226	1.045	0.098	 H	1	UNK0	0.000	
39	   H	0.395	-0.571	-0.039	 H	1	UNK0	0.000	
40	   H	-3.996	-1.819	-1.645	 H	1	UNK0	0.000	
41	   H	-4.747	3.221	-2.455	 H	1	UNK0	0.000	
42	   H	-3.726	2.900	-3.889	 H	1	UNK0	0.000	
43	   H	-5.280	1.969	-3.607	 H	1	UNK0	0.000	
@<TRIPOS>BOND
1 1 2 1
2 2 3 1
3 2 6 2
4 3 4 1
5 3 14 1
6 4 5 2
7 4 11 1
8 5 6 1
9 5 7 1
10 7 8 1
11 7 13 1
12 8 9 2
13 8 10 1
14 10 11 1
15 11 12 2
16 14 15 1
17 15 16 1
18 16 17 1
19 17 18 1
20 17 21 1
21 18 19 2
22 18 27 1
23 19 20 1
24 19 23 1
25 20 21 2
26 21 22 1
27 23 24 1
28 23 29 1
29 24 25 2
30 24 26 1
31 26 27 1
32 27 28 2
33 10 30 1
34 13 31 1
35 13 32 1
36 13 33 1
37 14 34 1
38 14 35 1
39 15 36 1
40 15 37 1
41 16 38 1
42 16 39 1
43 26 40 1
44 29 41 1
45 29 42 1
46 29 43 1
@<TRIPOS>SUBSTRUCTURE
1	UNK0	1	GROUP	1 ****	UNK
