# created with PyMOL 2.3.2
@<TRIPOS>MOLECULE
710
40 43 1                 
SMALL
USER_CHARGES
@<TRIPOS>ATOM
1	  Br	0.474	0.738	-2.572	Br	1	UNK0	0.000	
2	   C	1.484	0.478	-0.962	C.2	1	UNK0	0.000	
3	   N	1.069	0.936	0.232	N.pl3	1	UNK0	0.000	
4	   C	2.034	0.568	1.120	C.2	1	UNK0	0.000	
5	   C	3.047	-0.118	0.476	C.2	1	UNK0	0.000	
6	   N	2.664	-0.154	-0.832	N.2	1	UNK0	0.000	
7	   N	4.119	-0.588	1.138	N.pl3	1	UNK0	0.000	
8	   C	4.221	-0.392	2.463	C.2	1	UNK0	0.000	
9	   O	5.227	-0.827	3.121	O.2	1	UNK0	0.000	
10	   N	3.266	0.268	3.143	N.pl3	1	UNK0	0.000	
11	   C	2.191	0.742	2.491	C.2	1	UNK0	0.000	
12	   O	1.264	1.369	3.079	O.2	1	UNK0	0.000	
13	   C	5.156	-1.300	0.424	C.3	1	UNK0	0.000	
14	   C	-0.117	1.661	0.607	C.3	1	UNK0	0.000	
15	   C	-1.270	0.771	1.014	C.3	1	UNK0	0.000	
16	   N	-1.706	-0.126	-0.003	N.pl3	1	UNK0	0.000	
17	   C	-2.662	0.111	-0.941	C.2	1	UNK0	0.000	
18	   C	-2.811	-0.993	-1.753	C.2	1	UNK0	0.000	
19	   N	-1.934	-1.908	-1.301	N.2	1	UNK0	0.000	
20	   C	-1.280	-1.378	-0.255	C.2	1	UNK0	0.000	
21	   N	-3.706	-1.014	-2.772	N.pl3	1	UNK0	0.000	
22	   C	-4.479	0.050	-3.022	C.2	1	UNK0	0.000	
23	   O	-5.327	0.075	-3.961	O.2	1	UNK0	0.000	
24	   N	-4.342	1.135	-2.233	N.pl3	1	UNK0	0.000	
25	   C	-3.471	1.203	-1.214	C.2	1	UNK0	0.000	
26	   O	-3.341	2.210	-0.479	O.2	1	UNK0	0.000	
27	   C	-3.853	-2.182	-3.621	C.3	1	UNK0	0.000	
28	   H	3.356	0.414	4.170	 H	1	UNK0	0.000	
29	   H	5.679	-2.034	1.090	 H	1	UNK0	0.000	
30	   H	5.870	-0.582	-0.040	 H	1	UNK0	0.000	
31	   H	4.688	-1.906	-0.394	 H	1	UNK0	0.000	
32	   H	-0.475	2.189	-0.326	 H	1	UNK0	0.000	
33	   H	0.049	2.411	1.387	 H	1	UNK0	0.000	
34	   H	-0.985	0.136	1.905	 H	1	UNK0	0.000	
35	   H	-2.063	1.443	1.397	 H	1	UNK0	0.000	
36	   H	-0.508	-1.941	0.285	 H	1	UNK0	0.000	
37	   H	-4.937	1.997	-2.399	 H	1	UNK0	0.000	
38	   H	-3.449	-3.061	-3.054	 H	1	UNK0	0.000	
39	   H	-3.197	-2.056	-4.502	 H	1	UNK0	0.000	
40	   H	-4.915	-2.327	-3.898	 H	1	UNK0	0.000	
@<TRIPOS>BOND
1 1 2 1
2 2 3 1
3 2 6 2
4 3 4 1
5 3 14 1
6 4 5 2
7 4 11 1
8 5 6 1
9 5 7 1
10 7 8 1
11 7 13 1
12 8 9 2
13 8 10 1
14 10 11 1
15 11 12 2
16 14 15 1
17 15 16 1
18 16 17 1
19 16 20 1
20 17 18 2
21 17 25 1
22 18 19 1
23 18 21 1
24 19 20 2
25 21 22 1
26 21 27 1
27 22 23 2
28 22 24 1
29 24 25 1
30 25 26 2
31 10 28 1
32 13 29 1
33 13 30 1
34 13 31 1
35 14 32 1
36 14 33 1
37 15 34 1
38 15 35 1
39 20 36 1
40 24 37 1
41 27 38 1
42 27 39 1
43 27 40 1
@<TRIPOS>SUBSTRUCTURE
1	UNK0	1	GROUP	1 ****	UNK
