# created with PyMOL 2.3.2
@<TRIPOS>MOLECULE
711
38 41 1                 
SMALL
USER_CHARGES
@<TRIPOS>ATOM
1	  Br	0.806	-4.515	0.895	Br	1	UNK0	0.000	
2	   C	0.881	-2.828	-0.036	C.2	1	UNK0	0.000	
3	   N	-0.154	-2.017	-0.329	N.pl3	1	UNK0	0.000	
4	   C	0.343	-0.956	-0.981	C.2	1	UNK0	0.000	
5	   C	1.721	-1.105	-1.097	C.2	1	UNK0	0.000	
6	   N	2.013	-2.273	-0.502	N.2	1	UNK0	0.000	
7	   N	2.513	-0.201	-1.710	N.pl3	1	UNK0	0.000	
8	   C	1.901	0.880	-2.218	C.2	1	UNK0	0.000	
9	   O	2.658	1.725	-2.793	O.2	1	UNK0	0.000	
10	   N	0.573	1.066	-2.130	N.pl3	1	UNK0	0.000	
11	   C	-0.235	0.181	-1.526	C.2	1	UNK0	0.000	
12	   O	-1.477	0.345	-1.440	O.2	1	UNK0	0.000	
13	   C	3.947	-0.415	-1.797	C.3	1	UNK0	0.000	
14	   C	-1.514	-2.313	0.016	C.3	1	UNK0	0.000	
15	   C	-1.932	-1.865	1.375	C.3	1	UNK0	0.000	
16	   N	-1.847	-0.455	1.630	N.pl3	1	UNK0	0.000	
17	   C	-2.813	0.563	1.458	C.2	1	UNK0	0.000	
18	   O	-3.978	0.392	1.030	O.2	1	UNK0	0.000	
19	   C	-2.207	1.816	1.865	C.2	1	UNK0	0.000	
20	   C	-0.915	1.586	2.273	C.2	1	UNK0	0.000	
21	   C	-0.126	2.656	2.714	C.2	1	UNK0	0.000	
22	   C	-0.591	3.950	2.758	C.2	1	UNK0	0.000	
23	   C	-1.886	4.180	2.349	C.2	1	UNK0	0.000	
24	   C	-2.668	3.138	1.915	C.2	1	UNK0	0.000	
25	   C	-0.674	0.160	2.131	C.2	1	UNK0	0.000	
26	   O	0.432	-0.390	2.424	O.2	1	UNK0	0.000	
27	   H	0.142	1.931	-2.546	 H	1	UNK0	0.000	
28	   H	4.215	-1.270	-2.440	 H	1	UNK0	0.000	
29	   H	4.423	-0.447	-0.795	 H	1	UNK0	0.000	
30	   H	4.381	0.495	-2.299	 H	1	UNK0	0.000	
31	   H	-1.656	-3.433	-0.007	 H	1	UNK0	0.000	
32	   H	-2.203	-1.949	-0.787	 H	1	UNK0	0.000	
33	   H	-1.355	-2.383	2.179	 H	1	UNK0	0.000	
34	   H	-2.996	-2.200	1.574	 H	1	UNK0	0.000	
35	   H	0.883	2.396	3.020	 H	1	UNK0	0.000	
36	   H	0.071	4.731	3.110	 H	1	UNK0	0.000	
37	   H	-2.243	5.203	2.388	 H	1	UNK0	0.000	
38	   H	-3.680	3.351	1.600	 H	1	UNK0	0.000	
@<TRIPOS>BOND
1 1 2 1
2 2 3 1
3 2 6 2
4 3 4 1
5 3 14 1
6 4 5 2
7 4 11 1
8 5 6 1
9 5 7 1
10 7 8 1
11 7 13 1
12 8 9 2
13 8 10 1
14 10 11 1
15 11 12 2
16 14 15 1
17 15 16 1
18 16 17 1
19 16 25 1
20 17 18 2
21 17 19 1
22 19 20 2
23 19 24 1
24 20 21 1
25 20 25 1
26 21 22 2
27 22 23 1
28 23 24 2
29 25 26 2
30 10 27 1
31 13 28 1
32 13 29 1
33 13 30 1
34 14 31 1
35 14 32 1
36 15 33 1
37 15 34 1
38 21 35 1
39 22 36 1
40 23 37 1
41 24 38 1
@<TRIPOS>SUBSTRUCTURE
1	UNK0	1	GROUP	1 ****	UNK
