# created with PyMOL 2.3.2
@<TRIPOS>MOLECULE
712
47 50 1                 
SMALL
USER_CHARGES
@<TRIPOS>ATOM
1	  Br	-2.552	-0.133	0.496	Br	1	UNK0	0.000	
2	   C	-0.973	-1.161	0.169	C.2	1	UNK0	0.000	
3	   N	0.279	-0.843	0.491	N.pl3	1	UNK0	0.000	
4	   C	1.043	-1.902	0.104	C.2	1	UNK0	0.000	
5	   C	0.203	-2.841	-0.454	C.2	1	UNK0	0.000	
6	   N	-1.040	-2.381	-0.413	N.2	1	UNK0	0.000	
7	   N	0.732	-4.007	-0.919	N.pl3	1	UNK0	0.000	
8	   C	2.045	-4.205	-0.819	C.2	1	UNK0	0.000	
9	   O	2.507	-5.297	-1.260	O.2	1	UNK0	0.000	
10	   N	2.872	-3.297	-0.277	N.pl3	1	UNK0	0.000	
11	   C	2.404	-2.111	0.206	C.2	1	UNK0	0.000	
12	   O	3.186	-1.269	0.714	O.2	1	UNK0	0.000	
13	   C	-0.117	-5.019	-1.513	C.3	1	UNK0	0.000	
14	   C	0.830	0.328	1.085	C.3	1	UNK0	0.000	
15	   C	1.348	1.386	0.202	C.3	1	UNK0	0.000	
16	   O	0.549	2.086	-0.640	O.3	1	UNK0	0.000	
17	   C	-0.317	2.915	0.054	C.3	1	UNK0	0.000	
18	   C	-1.083	3.755	-0.924	C.3	1	UNK0	0.000	
19	   N	-1.859	2.961	-1.823	N.pl3	1	UNK0	0.000	
20	   C	-3.142	2.614	-1.655	C.2	1	UNK0	0.000	
21	   C	-3.510	1.855	-2.722	C.2	1	UNK0	0.000	
22	   N	-2.444	1.758	-3.512	N.2	1	UNK0	0.000	
23	   C	-1.404	2.429	-2.990	C.2	1	UNK0	0.000	
24	  Br	0.358	2.642	-3.666	Br	1	UNK0	0.000	
25	   N	-4.762	1.373	-2.806	N.pl3	1	UNK0	0.000	
26	   C	-5.629	1.650	-1.835	C.2	1	UNK0	0.000	
27	   O	-6.799	1.192	-1.927	O.2	1	UNK0	0.000	
28	   N	-5.290	2.389	-0.786	N.pl3	1	UNK0	0.000	
29	   C	-4.058	2.889	-0.659	C.2	1	UNK0	0.000	
30	   O	-3.773	3.593	0.362	O.2	1	UNK0	0.000	
31	   C	-5.172	0.563	-3.934	C.3	1	UNK0	0.000	
32	   H	3.898	-3.466	-0.205	 H	1	UNK0	0.000	
33	   H	-1.093	-5.062	-0.978	 H	1	UNK0	0.000	
34	   H	0.339	-6.013	-1.454	 H	1	UNK0	0.000	
35	   H	-0.291	-4.799	-2.597	 H	1	UNK0	0.000	
36	   H	-0.018	0.786	1.686	 H	1	UNK0	0.000	
37	   H	1.566	0.068	1.914	 H	1	UNK0	0.000	
38	   H	1.883	2.195	0.830	 H	1	UNK0	0.000	
39	   H	2.267	0.986	-0.372	 H	1	UNK0	0.000	
40	   H	0.324	3.617	0.686	 H	1	UNK0	0.000	
41	   H	-0.897	2.335	0.753	 H	1	UNK0	0.000	
42	   H	-1.720	4.456	-0.316	 H	1	UNK0	0.000	
43	   H	-0.325	4.375	-1.461	 H	1	UNK0	0.000	
44	   H	-5.984	2.595	-0.035	 H	1	UNK0	0.000	
45	   H	-5.614	1.226	-4.693	 H	1	UNK0	0.000	
46	   H	-4.303	0.020	-4.346	 H	1	UNK0	0.000	
47	   H	-5.912	-0.179	-3.527	 H	1	UNK0	0.000	
@<TRIPOS>BOND
1 1 2 1
2 2 3 1
3 2 6 2
4 3 4 1
5 3 14 1
6 4 5 2
7 4 11 1
8 5 6 1
9 5 7 1
10 7 8 1
11 7 13 1
12 8 9 2
13 8 10 1
14 10 11 1
15 11 12 2
16 14 15 1
17 15 16 1
18 16 17 1
19 17 18 1
20 18 19 1
21 19 20 1
22 19 23 1
23 20 21 2
24 20 29 1
25 21 22 1
26 21 25 1
27 22 23 2
28 23 24 1
29 25 26 1
30 25 31 1
31 26 27 2
32 26 28 1
33 28 29 1
34 29 30 2
35 10 32 1
36 13 33 1
37 13 34 1
38 13 35 1
39 14 36 1
40 14 37 1
41 15 38 1
42 15 39 1
43 17 40 1
44 17 41 1
45 18 42 1
46 18 43 1
47 28 44 1
48 31 45 1
49 31 46 1
50 31 47 1
@<TRIPOS>SUBSTRUCTURE
1	UNK0	1	GROUP	1 ****	UNK
