# created with PyMOL 2.3.2
@<TRIPOS>MOLECULE
713
34 37 1                 
SMALL
USER_CHARGES
@<TRIPOS>ATOM
1	  Br	2.571	3.227	2.326	Br	1	UNK0	0.000	
2	   C	2.635	1.939	0.946	C.2	1	UNK0	0.000	
3	   N	1.776	1.849	-0.101	N.pl3	1	UNK0	0.000	
4	   C	2.187	0.807	-0.823	C.2	1	UNK0	0.000	
5	   C	3.311	0.227	-0.239	C.2	1	UNK0	0.000	
6	   N	3.562	0.956	0.858	N.2	1	UNK0	0.000	
7	   N	3.912	-0.839	-0.776	N.pl3	1	UNK0	0.000	
8	   C	3.403	-1.350	-1.911	C.2	1	UNK0	0.000	
9	   O	3.932	-2.353	-2.457	O.2	1	UNK0	0.000	
10	   N	2.311	-0.812	-2.507	N.pl3	1	UNK0	0.000	
11	   C	1.681	0.264	-1.990	C.2	1	UNK0	0.000	
12	   O	0.676	0.782	-2.513	O.2	1	UNK0	0.000	
13	   C	5.081	-1.474	-0.206	C.3	1	UNK0	0.000	
14	   C	0.644	2.704	-0.382	C.3	1	UNK0	0.000	
15	   C	-0.609	2.164	0.258	C.2	1	UNK0	0.000	
16	   N	-1.078	2.438	1.487	N.pl3	1	UNK0	0.000	
17	   C	-2.224	1.774	1.720	C.2	1	UNK0	0.000	
18	   C	-2.505	1.039	0.587	C.2	1	UNK0	0.000	
19	   N	-1.492	1.307	-0.280	N.2	1	UNK0	0.000	
20	   C	-3.634	0.239	0.513	C.2	1	UNK0	0.000	
21	   C	-4.510	0.157	1.572	C.2	1	UNK0	0.000	
22	   C	-4.246	0.887	2.720	C.2	1	UNK0	0.000	
23	   C	-3.117	1.673	2.765	C.2	1	UNK0	0.000	
24	   H	1.944	-1.228	-3.378	 H	1	UNK0	0.000	
25	   H	5.994	-0.969	-0.558	 H	1	UNK0	0.000	
26	   H	5.055	-2.549	-0.452	 H	1	UNK0	0.000	
27	   H	5.079	-1.398	0.906	 H	1	UNK0	0.000	
28	   H	0.837	3.730	0.041	 H	1	UNK0	0.000	
29	   H	0.451	2.827	-1.465	 H	1	UNK0	0.000	
30	   H	-0.627	3.083	2.192	 H	1	UNK0	0.000	
31	   H	-3.790	-0.306	-0.401	 H	1	UNK0	0.000	
32	   H	-5.411	-0.472	1.532	 H	1	UNK0	0.000	
33	   H	-4.948	0.810	3.544	 H	1	UNK0	0.000	
34	   H	-2.925	2.236	3.664	 H	1	UNK0	0.000	
@<TRIPOS>BOND
1 1 2 1
2 2 3 1
3 2 6 2
4 3 4 1
5 3 14 1
6 4 5 2
7 4 11 1
8 5 6 1
9 5 7 1
10 7 8 1
11 7 13 1
12 8 9 2
13 8 10 1
14 10 11 1
15 11 12 2
16 14 15 1
17 15 16 1
18 15 19 2
19 16 17 1
20 17 18 2
21 17 23 1
22 18 19 1
23 18 20 1
24 20 21 2
25 21 22 1
26 22 23 2
27 10 24 1
28 13 25 1
29 13 26 1
30 13 27 1
31 14 28 1
32 14 29 1
33 16 30 1
34 20 31 1
35 21 32 1
36 22 33 1
37 23 34 1
@<TRIPOS>SUBSTRUCTURE
1	UNK0	1	GROUP	1 ****	UNK
