# created with PyMOL 2.3.2
@<TRIPOS>MOLECULE
715
44 47 1                 
SMALL
USER_CHARGES
@<TRIPOS>ATOM
1	  Br	-1.753	3.893	-0.831	Br	1	UNK0	0.000	
2	   C	-0.760	2.346	-1.331	C.2	1	UNK0	0.000	
3	   N	-0.172	1.436	-0.511	N.2	1	UNK0	0.000	
4	   C	0.434	0.490	-1.248	C.2	1	UNK0	0.000	
5	   N	0.214	0.826	-2.538	N.pl3	1	UNK0	0.000	
6	   C	-0.515	1.959	-2.612	C.2	1	UNK0	0.000	
7	   C	-0.877	2.517	-3.837	C.2	1	UNK0	0.000	
8	   N	-0.474	1.884	-4.942	N.2	1	UNK0	0.000	
9	   C	0.253	0.753	-4.878	C.2	1	UNK0	0.000	
10	   C	0.612	0.202	-3.658	C.2	1	UNK0	0.000	
11	   N	-1.647	3.714	-3.841	N.pl3	1	UNK0	0.000	
12	   C	1.181	-0.669	-0.699	C.3	1	UNK0	0.000	
13	   C	0.309	-1.541	0.204	C.3	1	UNK0	0.000	
14	   N	1.075	-1.940	1.367	N.pl3	1	UNK0	0.000	
15	   C	2.404	-2.458	1.052	C.3	1	UNK0	0.000	
16	   C	3.228	-1.266	0.612	C.3	1	UNK0	0.000	
17	   C	2.376	-0.140	0.069	C.3	1	UNK0	0.000	
18	   C	0.642	-1.861	2.702	C.2	1	UNK0	0.000	
19	   O	1.431	-2.266	3.601	O.2	1	UNK0	0.000	
20	   C	-0.655	-1.345	3.156	C.3	1	UNK0	0.000	
21	   C	-0.833	0.107	2.902	C.3	1	UNK0	0.000	
22	   O	-0.227	0.365	4.155	O.3	1	UNK0	0.000	
23	   C	-0.648	-0.869	4.574	C.3	1	UNK0	0.000	
24	   C	-1.846	-2.227	2.917	C.3	1	UNK0	0.000	
25	   H	0.573	0.252	-5.782	 H	1	UNK0	0.000	
26	   H	1.192	-0.701	-3.579	 H	1	UNK0	0.000	
27	   H	-1.219	4.659	-3.944	 H	1	UNK0	0.000	
28	   H	-2.685	3.674	-3.737	 H	1	UNK0	0.000	
29	   H	1.595	-1.312	-1.506	 H	1	UNK0	0.000	
30	   H	-0.603	-0.989	0.410	 H	1	UNK0	0.000	
31	   H	0.093	-2.513	-0.335	 H	1	UNK0	0.000	
32	   H	2.855	-3.013	1.873	 H	1	UNK0	0.000	
33	   H	2.344	-3.137	0.158	 H	1	UNK0	0.000	
34	   H	4.001	-1.578	-0.117	 H	1	UNK0	0.000	
35	   H	3.738	-0.883	1.523	 H	1	UNK0	0.000	
36	   H	2.078	0.583	0.860	 H	1	UNK0	0.000	
37	   H	3.001	0.413	-0.663	 H	1	UNK0	0.000	
38	   H	-1.841	0.521	2.904	 H	1	UNK0	0.000	
39	   H	-0.129	0.563	2.144	 H	1	UNK0	0.000	
40	   H	-1.693	-0.788	4.987	 H	1	UNK0	0.000	
41	   H	0.025	-1.416	5.265	 H	1	UNK0	0.000	
42	   H	-1.956	-2.588	1.899	 H	1	UNK0	0.000	
43	   H	-1.785	-3.136	3.575	 H	1	UNK0	0.000	
44	   H	-2.754	-1.644	3.183	 H	1	UNK0	0.000	
@<TRIPOS>BOND
1 1 2 1
2 2 3 1
3 2 6 2
4 3 4 2
5 4 5 1
6 4 12 1
7 5 6 1
8 5 10 1
9 6 7 1
10 7 8 2
11 7 11 1
12 8 9 1
13 9 10 2
14 12 13 1
15 12 17 1
16 13 14 1
17 14 15 1
18 14 18 1
19 15 16 1
20 16 17 1
21 18 19 2
22 18 20 1
23 20 21 1
24 20 23 1
25 20 24 1
26 21 22 1
27 22 23 1
28 9 25 1
29 10 26 1
30 11 27 1
31 11 28 1
32 12 29 1
33 13 30 1
34 13 31 1
35 15 32 1
36 15 33 1
37 16 34 1
38 16 35 1
39 17 36 1
40 17 37 1
41 21 38 1
42 21 39 1
43 23 40 1
44 23 41 1
45 24 42 1
46 24 43 1
47 24 44 1
@<TRIPOS>SUBSTRUCTURE
1	UNK0	1	GROUP	1 ****	UNK
