# created with PyMOL 2.3.2
@<TRIPOS>MOLECULE
721
34 37 1                 
SMALL
USER_CHARGES
@<TRIPOS>ATOM
1	  Br	-1.281	3.261	2.153	Br	1	UNK0	0.000	
2	   C	-0.692	3.164	0.344	C.2	1	UNK0	0.000	
3	   N	-0.581	4.219	-0.520	N.2	1	UNK0	0.000	
4	   N	-0.147	3.803	-1.686	N.pl3	1	UNK0	0.000	
5	   C	0.030	2.476	-1.592	C.2	1	UNK0	0.000	
6	   N	0.453	1.564	-2.482	N.2	1	UNK0	0.000	
7	   C	0.556	0.260	-2.169	C.2	1	UNK0	0.000	
8	   N	0.226	-0.146	-0.932	N.2	1	UNK0	0.000	
9	   C	-0.214	0.703	0.042	C.2	1	UNK0	0.000	
10	   C	-0.309	2.035	-0.310	C.2	1	UNK0	0.000	
11	   N	-0.549	0.220	1.331	N.pl3	1	UNK0	0.000	
12	   C	-0.388	-1.230	1.532	C.3	1	UNK0	0.000	
13	   C	-0.767	-1.635	2.924	C.3	1	UNK0	0.000	
14	   N	0.288	-1.445	3.886	N.pl3	1	UNK0	0.000	
15	   N	0.366	-0.907	5.084	N.2	1	UNK0	0.000	
16	   C	1.622	-1.006	5.531	C.2	1	UNK0	0.000	
17	   N	2.342	-1.630	4.565	N.2	1	UNK0	0.000	
18	   C	1.517	-1.902	3.548	C.2	1	UNK0	0.000	
19	   C	1.633	-2.550	2.216	C.3	1	UNK0	0.000	
20	   C	1.029	-1.571	1.212	C.3	1	UNK0	0.000	
21	   C	0.090	4.655	-2.845	C.3	1	UNK0	0.000	
22	   H	0.903	-0.412	-2.934	 H	1	UNK0	0.000	
23	   H	-0.884	0.825	2.092	 H	1	UNK0	0.000	
24	   H	-1.102	-1.702	0.818	 H	1	UNK0	0.000	
25	   H	-0.973	-2.744	2.890	 H	1	UNK0	0.000	
26	   H	-1.715	-1.165	3.229	 H	1	UNK0	0.000	
27	   H	1.997	-0.655	6.482	 H	1	UNK0	0.000	
28	   H	1.144	-3.539	2.178	 H	1	UNK0	0.000	
29	   H	2.705	-2.653	1.962	 H	1	UNK0	0.000	
30	   H	1.709	-0.680	1.220	 H	1	UNK0	0.000	
31	   H	1.075	-2.059	0.202	 H	1	UNK0	0.000	
32	   H	0.189	5.706	-2.544	 H	1	UNK0	0.000	
33	   H	-0.700	4.503	-3.628	 H	1	UNK0	0.000	
34	   H	1.040	4.339	-3.328	 H	1	UNK0	0.000	
@<TRIPOS>BOND
1 1 2 1
2 2 3 2
3 2 10 1
4 3 4 1
5 4 5 1
6 4 21 1
7 5 6 1
8 5 10 2
9 6 7 2
10 7 8 1
11 8 9 2
12 9 10 1
13 9 11 1
14 11 12 1
15 12 13 1
16 12 20 1
17 13 14 1
18 14 15 1
19 14 18 1
20 15 16 2
21 16 17 1
22 17 18 2
23 18 19 1
24 19 20 1
25 7 22 1
26 11 23 1
27 12 24 1
28 13 25 1
29 13 26 1
30 16 27 1
31 19 28 1
32 19 29 1
33 20 30 1
34 20 31 1
35 21 32 1
36 21 33 1
37 21 34 1
@<TRIPOS>SUBSTRUCTURE
1	UNK0	1	GROUP	1 ****	UNK
