# created with PyMOL 2.3.2
@<TRIPOS>MOLECULE
722
37 40 1                 
SMALL
USER_CHARGES
@<TRIPOS>ATOM
1	  Br	-0.247	2.538	-0.345	Br	1	UNK0	0.000	
2	   C	0.220	2.006	1.418	C.2	1	UNK0	0.000	
3	   N	0.598	2.823	2.433	N.2	1	UNK0	0.000	
4	   N	0.814	2.132	3.517	N.pl3	1	UNK0	0.000	
5	   C	0.590	0.829	3.266	C.2	1	UNK0	0.000	
6	   N	0.653	-0.273	4.032	N.2	1	UNK0	0.000	
7	   C	0.355	-1.474	3.528	C.2	1	UNK0	0.000	
8	   N	-0.004	-1.579	2.261	N.2	1	UNK0	0.000	
9	   C	-0.091	-0.499	1.413	C.2	1	UNK0	0.000	
10	   C	0.206	0.739	1.910	C.2	1	UNK0	0.000	
11	   N	-0.421	-0.735	0.072	N.pl3	1	UNK0	0.000	
12	   C	0.488	-1.077	-0.999	C.3	1	UNK0	0.000	
13	   C	-0.235	-2.406	-1.419	C.3	1	UNK0	0.000	
14	   C	-1.655	-1.911	-1.541	C.3	1	UNK0	0.000	
15	   C	-1.737	-0.782	-0.527	C.3	1	UNK0	0.000	
16	   C	0.507	-0.218	-2.172	C.2	1	UNK0	0.000	
17	   N	1.638	0.252	-2.732	N.pl3	1	UNK0	0.000	
18	   C	1.305	0.998	-3.795	C.2	1	UNK0	0.000	
19	   N	-0.021	0.973	-3.870	N.2	1	UNK0	0.000	
20	   N	-0.506	0.250	-2.905	N.2	1	UNK0	0.000	
21	   C	3.011	0.036	-2.319	C.3	1	UNK0	0.000	
22	   C	1.236	2.661	4.821	C.3	1	UNK0	0.000	
23	   H	0.415	-2.372	4.187	 H	1	UNK0	0.000	
24	   H	1.470	-1.405	-0.670	 H	1	UNK0	0.000	
25	   H	0.219	-2.668	-2.379	 H	1	UNK0	0.000	
26	   H	-0.111	-3.136	-0.620	 H	1	UNK0	0.000	
27	   H	-1.879	-1.623	-2.564	 H	1	UNK0	0.000	
28	   H	-2.356	-2.742	-1.278	 H	1	UNK0	0.000	
29	   H	-2.062	0.156	-0.967	 H	1	UNK0	0.000	
30	   H	-2.519	-1.077	0.213	 H	1	UNK0	0.000	
31	   H	1.974	1.525	-4.471	 H	1	UNK0	0.000	
32	   H	3.148	-0.840	-1.684	 H	1	UNK0	0.000	
33	   H	3.605	-0.134	-3.246	 H	1	UNK0	0.000	
34	   H	3.400	0.950	-1.784	 H	1	UNK0	0.000	
35	   H	0.835	3.691	4.893	 H	1	UNK0	0.000	
36	   H	2.348	2.761	4.838	 H	1	UNK0	0.000	
37	   H	0.832	2.039	5.617	 H	1	UNK0	0.000	
@<TRIPOS>BOND
1 1 2 1
2 2 3 2
3 2 10 1
4 3 4 1
5 4 5 1
6 4 22 1
7 5 6 1
8 5 10 2
9 6 7 2
10 7 8 1
11 8 9 2
12 9 10 1
13 9 11 1
14 11 12 1
15 11 15 1
16 12 13 1
17 12 16 1
18 13 14 1
19 14 15 1
20 16 17 1
21 16 20 2
22 17 18 1
23 17 21 1
24 18 19 2
25 19 20 1
26 7 23 1
27 12 24 1
28 13 25 1
29 13 26 1
30 14 27 1
31 14 28 1
32 15 29 1
33 15 30 1
34 18 31 1
35 21 32 1
36 21 33 1
37 21 34 1
38 22 35 1
39 22 36 1
40 22 37 1
@<TRIPOS>SUBSTRUCTURE
1	UNK0	1	GROUP	1 ****	UNK
