# created with PyMOL 2.3.2
@<TRIPOS>MOLECULE
723
37 40 1                 
SMALL
USER_CHARGES
@<TRIPOS>ATOM
1	  Br	1.196	-1.407	2.328	Br	1	UNK0	0.000	
2	   C	1.390	0.164	1.271	C.2	1	UNK0	0.000	
3	   N	1.207	1.444	1.665	N.2	1	UNK0	0.000	
4	   N	1.454	2.287	0.689	N.pl3	1	UNK0	0.000	
5	   C	1.807	1.539	-0.372	C.2	1	UNK0	0.000	
6	   N	2.175	1.874	-1.613	N.2	1	UNK0	0.000	
7	   C	2.508	0.941	-2.523	C.2	1	UNK0	0.000	
8	   N	2.479	-0.366	-2.208	N.2	1	UNK0	0.000	
9	   C	2.112	-0.786	-0.958	C.2	1	UNK0	0.000	
10	   C	1.779	0.177	-0.047	C.2	1	UNK0	0.000	
11	   N	2.043	-2.196	-0.697	N.pl3	1	UNK0	0.000	
12	   C	0.825	-2.932	-0.829	C.3	1	UNK0	0.000	
13	   C	0.729	-4.082	0.098	C.3	1	UNK0	0.000	
14	   O	1.855	-4.420	0.798	O.3	1	UNK0	0.000	
15	   C	3.023	-4.259	0.061	C.3	1	UNK0	0.000	
16	   C	3.266	-2.833	-0.316	C.3	1	UNK0	0.000	
17	   C	-0.358	-2.043	-0.796	C.2	1	UNK0	0.000	
18	   N	-0.491	-0.890	-1.453	N.2	1	UNK0	0.000	
19	   C	-1.727	-0.408	-1.137	C.2	1	UNK0	0.000	
20	   N	-2.282	-1.301	-0.298	N.2	1	UNK0	0.000	
21	   O	-1.439	-2.274	-0.109	O.3	1	UNK0	0.000	
22	   C	-2.349	0.848	-1.615	C.3	1	UNK0	0.000	
23	   C	1.358	3.733	0.762	C.3	1	UNK0	0.000	
24	   H	2.799	1.296	-3.518	 H	1	UNK0	0.000	
25	   H	0.891	-3.409	-1.881	 H	1	UNK0	0.000	
26	   H	0.273	-4.996	-0.395	 H	1	UNK0	0.000	
27	   H	-0.056	-3.816	0.870	 H	1	UNK0	0.000	
28	   H	3.860	-4.587	0.716	 H	1	UNK0	0.000	
29	   H	3.051	-4.945	-0.822	 H	1	UNK0	0.000	
30	   H	3.819	-2.269	0.473	 H	1	UNK0	0.000	
31	   H	3.941	-2.765	-1.224	 H	1	UNK0	0.000	
32	   H	-1.531	1.605	-1.784	 H	1	UNK0	0.000	
33	   H	-3.039	1.284	-0.871	 H	1	UNK0	0.000	
34	   H	-2.880	0.711	-2.589	 H	1	UNK0	0.000	
35	   H	0.752	4.015	1.645	 H	1	UNK0	0.000	
36	   H	0.847	4.111	-0.158	 H	1	UNK0	0.000	
37	   H	2.361	4.210	0.904	 H	1	UNK0	0.000	
@<TRIPOS>BOND
1 1 2 1
2 2 3 2
3 2 10 1
4 3 4 1
5 4 5 1
6 4 23 1
7 5 6 1
8 5 10 2
9 6 7 2
10 7 8 1
11 8 9 2
12 9 10 1
13 9 11 1
14 11 12 1
15 11 16 1
16 12 13 1
17 12 17 1
18 13 14 1
19 14 15 1
20 15 16 1
21 17 18 2
22 17 21 1
23 18 19 1
24 19 20 2
25 19 22 1
26 20 21 1
27 7 24 1
28 12 25 1
29 13 26 1
30 13 27 1
31 15 28 1
32 15 29 1
33 16 30 1
34 16 31 1
35 22 32 1
36 22 33 1
37 22 34 1
38 23 35 1
39 23 36 1
40 23 37 1
@<TRIPOS>SUBSTRUCTURE
1	UNK0	1	GROUP	1 ****	UNK
