# created with PyMOL 2.3.2
@<TRIPOS>MOLECULE
724
35 38 1                 
SMALL
USER_CHARGES
@<TRIPOS>ATOM
1	  Br	3.476	2.345	0.053	Br	1	UNK0	0.000	
2	   C	2.511	2.549	1.667	C.2	1	UNK0	0.000	
3	   N	2.961	3.154	2.811	N.2	1	UNK0	0.000	
4	   N	2.027	3.149	3.737	N.pl3	1	UNK0	0.000	
5	   C	0.962	2.540	3.200	C.2	1	UNK0	0.000	
6	   N	-0.244	2.312	3.761	N.2	1	UNK0	0.000	
7	   C	-1.182	1.686	3.007	C.2	1	UNK0	0.000	
8	   N	-0.924	1.313	1.774	N.2	1	UNK0	0.000	
9	   C	0.280	1.507	1.124	C.2	1	UNK0	0.000	
10	   C	1.227	2.145	1.894	C.2	1	UNK0	0.000	
11	   N	0.456	1.016	-0.171	N.pl3	1	UNK0	0.000	
12	   C	-0.566	0.846	-1.240	C.3	1	UNK0	0.000	
13	   C	0.150	-0.459	-1.510	C.3	1	UNK0	0.000	
14	   C	1.353	0.445	-1.096	C.3	1	UNK0	0.000	
15	   N	0.200	-0.881	-2.871	N.pl3	1	UNK0	0.000	
16	   N	0.844	-0.331	-3.888	N.2	1	UNK0	0.000	
17	   C	0.629	-1.049	-5.020	C.2	1	UNK0	0.000	
18	   C	-0.203	-2.117	-4.692	C.2	1	UNK0	0.000	
19	   C	-0.443	-1.969	-3.341	C.2	1	UNK0	0.000	
20	   C	-0.707	-3.170	-5.613	C.3	1	UNK0	0.000	
21	   C	2.132	3.705	5.096	C.3	1	UNK0	0.000	
22	   H	-2.144	1.510	3.469	 H	1	UNK0	0.000	
23	   H	-1.592	0.793	-0.895	 H	1	UNK0	0.000	
24	   H	-0.422	1.583	-2.039	 H	1	UNK0	0.000	
25	   H	0.027	-1.214	-0.735	 H	1	UNK0	0.000	
26	   H	2.194	-0.186	-0.747	 H	1	UNK0	0.000	
27	   H	1.600	1.145	-1.936	 H	1	UNK0	0.000	
28	   H	1.046	-0.806	-5.990	 H	1	UNK0	0.000	
29	   H	-1.062	-2.645	-2.767	 H	1	UNK0	0.000	
30	   H	-1.676	-2.898	-6.080	 H	1	UNK0	0.000	
31	   H	-0.783	-4.157	-5.082	 H	1	UNK0	0.000	
32	   H	0.015	-3.328	-6.444	 H	1	UNK0	0.000	
33	   H	2.540	4.734	5.046	 H	1	UNK0	0.000	
34	   H	2.713	3.029	5.743	 H	1	UNK0	0.000	
35	   H	1.104	3.755	5.507	 H	1	UNK0	0.000	
@<TRIPOS>BOND
1 1 2 1
2 2 3 2
3 2 10 1
4 3 4 1
5 4 5 1
6 4 21 1
7 5 6 1
8 5 10 2
9 6 7 2
10 7 8 1
11 8 9 2
12 9 10 1
13 9 11 1
14 11 12 1
15 11 14 1
16 12 13 1
17 13 14 1
18 13 15 1
19 15 16 1
20 15 19 1
21 16 17 2
22 17 18 1
23 18 19 2
24 18 20 1
25 7 22 1
26 12 23 1
27 12 24 1
28 13 25 1
29 14 26 1
30 14 27 1
31 17 28 1
32 19 29 1
33 20 30 1
34 20 31 1
35 20 32 1
36 21 33 1
37 21 34 1
38 21 35 1
@<TRIPOS>SUBSTRUCTURE
1	UNK0	1	GROUP	1 ****	UNK
