# created with PyMOL 2.3.2
@<TRIPOS>MOLECULE
725
32 35 1                 
SMALL
USER_CHARGES
@<TRIPOS>ATOM
1	  Br	3.343	-1.657	0.101	Br	1	UNK0	0.000	
2	   C	1.752	-2.318	0.888	C.2	1	UNK0	0.000	
3	   N	1.648	-3.359	1.766	N.2	1	UNK0	0.000	
4	   N	0.393	-3.543	2.082	N.pl3	1	UNK0	0.000	
5	   C	-0.407	-2.654	1.447	C.2	1	UNK0	0.000	
6	   N	-1.741	-2.472	1.456	N.2	1	UNK0	0.000	
7	   C	-2.217	-1.488	0.688	C.2	1	UNK0	0.000	
8	   N	-1.413	-0.723	-0.049	N.2	1	UNK0	0.000	
9	   C	-0.043	-0.865	-0.095	C.2	1	UNK0	0.000	
10	   C	0.477	-1.873	0.685	C.2	1	UNK0	0.000	
11	   N	0.762	0.009	-0.858	N.pl3	1	UNK0	0.000	
12	   C	0.194	0.850	-1.958	C.3	1	UNK0	0.000	
13	   C	1.179	1.913	-1.740	C.3	1	UNK0	0.000	
14	   C	1.948	0.653	-1.224	C.3	1	UNK0	0.000	
15	   N	0.773	2.799	-0.665	N.pl3	1	UNK0	0.000	
16	   N	-0.456	3.055	-0.245	N.2	1	UNK0	0.000	
17	   C	-0.451	3.921	0.766	C.2	1	UNK0	0.000	
18	   C	0.845	4.249	1.022	C.2	1	UNK0	0.000	
19	   C	1.605	3.527	0.104	C.2	1	UNK0	0.000	
20	   C	-0.148	-4.559	2.996	C.3	1	UNK0	0.000	
21	   H	-3.298	-1.328	0.684	 H	1	UNK0	0.000	
22	   H	0.333	0.356	-2.951	 H	1	UNK0	0.000	
23	   H	-0.826	1.180	-1.807	 H	1	UNK0	0.000	
24	   H	1.677	2.383	-2.593	 H	1	UNK0	0.000	
25	   H	2.616	1.149	-0.501	 H	1	UNK0	0.000	
26	   H	2.470	0.221	-2.104	 H	1	UNK0	0.000	
27	   H	-1.343	4.274	1.266	 H	1	UNK0	0.000	
28	   H	1.185	4.933	1.788	 H	1	UNK0	0.000	
29	   H	2.684	3.602	0.086	 H	1	UNK0	0.000	
30	   H	-0.927	-5.170	2.507	 H	1	UNK0	0.000	
31	   H	0.663	-5.221	3.330	 H	1	UNK0	0.000	
32	   H	-0.647	-4.061	3.873	 H	1	UNK0	0.000	
@<TRIPOS>BOND
1 1 2 1
2 2 3 2
3 2 10 1
4 3 4 1
5 4 5 1
6 4 20 1
7 5 6 1
8 5 10 2
9 6 7 2
10 7 8 1
11 8 9 2
12 9 10 1
13 9 11 1
14 11 12 1
15 11 14 1
16 12 13 1
17 13 14 1
18 13 15 1
19 15 16 1
20 15 19 1
21 16 17 2
22 17 18 1
23 18 19 2
24 7 21 1
25 12 22 1
26 12 23 1
27 13 24 1
28 14 25 1
29 14 26 1
30 17 27 1
31 18 28 1
32 19 29 1
33 20 30 1
34 20 31 1
35 20 32 1
@<TRIPOS>SUBSTRUCTURE
1	UNK0	1	GROUP	1 ****	UNK
