# created with PyMOL 2.3.2
@<TRIPOS>MOLECULE
726
33 36 1                 
SMALL
USER_CHARGES
@<TRIPOS>ATOM
1	  Br	0.174	1.050	-1.595	Br	1	UNK0	0.000	
2	   C	1.063	0.700	0.039	C.2	1	UNK0	0.000	
3	   N	2.338	0.996	0.369	N.2	1	UNK0	0.000	
4	   N	2.632	0.592	1.577	N.pl3	1	UNK0	0.000	
5	   C	1.519	0.012	2.062	C.2	1	UNK0	0.000	
6	   N	1.268	-0.578	3.245	N.2	1	UNK0	0.000	
7	   C	0.066	-1.110	3.515	C.2	1	UNK0	0.000	
8	   N	-0.919	-1.063	2.604	N.2	1	UNK0	0.000	
9	   C	-0.744	-0.479	1.376	C.2	1	UNK0	0.000	
10	   C	0.484	0.056	1.113	C.2	1	UNK0	0.000	
11	   N	-1.838	-0.427	0.468	N.pl3	1	UNK0	0.000	
12	   C	-2.580	0.757	0.181	C.3	1	UNK0	0.000	
13	   C	-3.368	0.714	-1.075	C.3	1	UNK0	0.000	
14	   C	-2.986	-0.339	-2.034	C.2	1	UNK0	0.000	
15	   C	-2.407	-1.498	-1.573	C.2	1	UNK0	0.000	
16	   N	-2.046	-2.446	-2.445	N.2	1	UNK0	0.000	
17	   C	-2.245	-2.280	-3.792	C.2	1	UNK0	0.000	
18	   N	-2.804	-1.171	-4.278	N.2	1	UNK0	0.000	
19	   C	-3.169	-0.214	-3.406	C.2	1	UNK0	0.000	
20	   C	-2.211	-1.682	-0.134	C.3	1	UNK0	0.000	
21	   C	3.898	0.720	2.303	C.3	1	UNK0	0.000	
22	   H	-0.092	-1.581	4.492	 H	1	UNK0	0.000	
23	   H	-3.339	0.806	1.055	 H	1	UNK0	0.000	
24	   H	-2.018	1.705	0.345	 H	1	UNK0	0.000	
25	   H	-3.345	1.707	-1.601	 H	1	UNK0	0.000	
26	   H	-4.470	0.575	-0.860	 H	1	UNK0	0.000	
27	   H	-1.947	-3.057	-4.485	 H	1	UNK0	0.000	
28	   H	-3.621	0.682	-3.809	 H	1	UNK0	0.000	
29	   H	-3.171	-2.022	0.363	 H	1	UNK0	0.000	
30	   H	-1.477	-2.496	0.091	 H	1	UNK0	0.000	
31	   H	3.694	0.624	3.370	 H	1	UNK0	0.000	
32	   H	4.613	-0.070	2.014	 H	1	UNK0	0.000	
33	   H	4.374	1.697	2.088	 H	1	UNK0	0.000	
@<TRIPOS>BOND
1 1 2 1
2 2 3 2
3 2 10 1
4 3 4 1
5 4 5 1
6 4 21 1
7 5 6 1
8 5 10 2
9 6 7 2
10 7 8 1
11 8 9 2
12 9 10 1
13 9 11 1
14 11 12 1
15 11 20 1
16 12 13 1
17 13 14 1
18 14 15 2
19 14 19 1
20 15 16 1
21 15 20 1
22 16 17 2
23 17 18 1
24 18 19 2
25 7 22 1
26 12 23 1
27 12 24 1
28 13 25 1
29 13 26 1
30 17 27 1
31 19 28 1
32 20 29 1
33 20 30 1
34 21 31 1
35 21 32 1
36 21 33 1
@<TRIPOS>SUBSTRUCTURE
1	UNK0	1	GROUP	1 ****	UNK
