# created with PyMOL 2.3.2
@<TRIPOS>MOLECULE
728
45 49 1                 
SMALL
USER_CHARGES
@<TRIPOS>ATOM
1	  Br	-1.260	4.100	-0.893	Br	1	UNK0	0.000	
2	   C	-2.230	3.620	-2.465	C.2	1	UNK0	0.000	
3	   N	-2.819	4.482	-3.343	N.2	1	UNK0	0.000	
4	   N	-3.381	3.799	-4.316	N.pl3	1	UNK0	0.000	
5	   C	-3.164	2.482	-4.083	C.2	1	UNK0	0.000	
6	   N	-3.523	1.387	-4.781	N.2	1	UNK0	0.000	
7	   C	-3.196	0.151	-4.379	C.2	1	UNK0	0.000	
8	   N	-2.496	0.030	-3.251	N.2	1	UNK0	0.000	
9	   C	-2.096	1.102	-2.487	C.2	1	UNK0	0.000	
10	   C	-2.446	2.358	-2.928	C.2	1	UNK0	0.000	
11	   N	-1.389	0.874	-1.294	N.pl3	1	UNK0	0.000	
12	   C	-2.011	1.058	-0.012	C.3	1	UNK0	0.000	
13	   C	-2.077	-0.397	0.533	C.3	1	UNK0	0.000	
14	   N	-0.651	-0.797	0.774	N.pl3	1	UNK0	0.000	
15	   C	0.387	-0.271	-0.034	C.3	1	UNK0	0.000	
16	   C	-0.042	0.416	-1.323	C.3	1	UNK0	0.000	
17	   C	-0.508	-1.722	1.824	C.2	1	UNK0	0.000	
18	   O	-1.650	-2.092	2.370	O.2	1	UNK0	0.000	
19	   C	0.631	-2.341	2.414	C.2	1	UNK0	0.000	
20	   C	0.446	-3.350	3.372	C.2	1	UNK0	0.000	
21	   C	1.492	-3.969	4.001	C.2	1	UNK0	0.000	
22	   N	1.611	-4.935	4.929	N.2	1	UNK0	0.000	
23	   C	2.936	-5.146	5.179	C.2	1	UNK0	0.000	
24	   N	3.661	-4.319	4.416	N.pl3	1	UNK0	0.000	
25	   C	2.775	-3.591	3.688	C.2	1	UNK0	0.000	
26	   C	2.976	-2.620	2.768	C.2	1	UNK0	0.000	
27	   C	1.913	-1.992	2.129	C.2	1	UNK0	0.000	
28	   C	-4.113	4.381	-5.451	C.3	1	UNK0	0.000	
29	   H	-3.519	-0.667	-4.990	 H	1	UNK0	0.000	
30	   H	-1.300	1.598	0.690	 H	1	UNK0	0.000	
31	   H	-3.000	1.502	-0.013	 H	1	UNK0	0.000	
32	   H	-2.410	-1.012	-0.313	 H	1	UNK0	0.000	
33	   H	-2.667	-0.452	1.436	 H	1	UNK0	0.000	
34	   H	1.025	-1.124	-0.410	 H	1	UNK0	0.000	
35	   H	0.994	0.452	0.521	 H	1	UNK0	0.000	
36	   H	0.121	-0.247	-2.226	 H	1	UNK0	0.000	
37	   H	0.605	1.324	-1.504	 H	1	UNK0	0.000	
38	   H	-0.565	-3.689	3.656	 H	1	UNK0	0.000	
39	   H	3.323	-5.866	5.882	 H	1	UNK0	0.000	
40	   H	4.699	-4.279	4.416	 H	1	UNK0	0.000	
41	   H	4.009	-2.333	2.532	 H	1	UNK0	0.000	
42	   H	2.195	-1.219	1.427	 H	1	UNK0	0.000	
43	   H	-4.441	3.539	-6.098	 H	1	UNK0	0.000	
44	   H	-3.467	5.027	-6.064	 H	1	UNK0	0.000	
45	   H	-5.033	4.897	-5.106	 H	1	UNK0	0.000	
@<TRIPOS>BOND
1 1 2 1
2 2 3 2
3 2 10 1
4 3 4 1
5 4 5 1
6 4 28 1
7 5 6 1
8 5 10 2
9 6 7 2
10 7 8 1
11 8 9 2
12 9 10 1
13 9 11 1
14 11 12 1
15 11 16 1
16 12 13 1
17 13 14 1
18 14 15 1
19 14 17 1
20 15 16 1
21 17 18 2
22 17 19 1
23 19 20 2
24 19 27 1
25 20 21 1
26 21 22 1
27 21 25 2
28 22 23 2
29 23 24 1
30 24 25 1
31 25 26 1
32 26 27 2
33 7 29 1
34 12 30 1
35 12 31 1
36 13 32 1
37 13 33 1
38 15 34 1
39 15 35 1
40 16 36 1
41 16 37 1
42 20 38 1
43 23 39 1
44 24 40 1
45 26 41 1
46 27 42 1
47 28 43 1
48 28 44 1
49 28 45 1
@<TRIPOS>SUBSTRUCTURE
1	UNK0	1	GROUP	1 ****	UNK
