# created with PyMOL 2.3.2
@<TRIPOS>MOLECULE
730
32 35 1                 
SMALL
USER_CHARGES
@<TRIPOS>ATOM
1	  Br	1.667	-0.730	0.058	Br	1	UNK0	0.000	
2	   C	0.642	-1.412	-1.406	C.2	1	UNK0	0.000	
3	   N	1.043	-2.310	-2.324	N.2	1	UNK0	0.000	
4	   N	0.081	-2.575	-3.171	N.pl3	1	UNK0	0.000	
5	   C	-1.012	-1.846	-2.836	C.2	1	UNK0	0.000	
6	   N	-2.237	-1.755	-3.353	N.2	1	UNK0	0.000	
7	   C	-3.133	-0.940	-2.782	C.2	1	UNK0	0.000	
8	   N	-2.831	-0.214	-1.709	N.2	1	UNK0	0.000	
9	   C	-1.588	-0.275	-1.147	C.2	1	UNK0	0.000	
10	   C	-0.663	-1.094	-1.704	C.2	1	UNK0	0.000	
11	   N	-1.273	0.546	-0.037	N.pl3	1	UNK0	0.000	
12	   C	-0.570	1.804	-0.120	C.3	1	UNK0	0.000	
13	   C	-0.174	2.048	1.302	C.2	1	UNK0	0.000	
14	   N	0.576	2.846	2.107	N.pl3	1	UNK0	0.000	
15	   N	0.454	2.467	3.362	N.2	1	UNK0	0.000	
16	   C	-0.371	1.412	3.458	C.2	1	UNK0	0.000	
17	   C	-0.774	1.142	2.142	C.2	1	UNK0	0.000	
18	   C	-1.607	0.241	1.332	C.3	1	UNK0	0.000	
19	   C	-0.795	0.661	4.667	C.3	1	UNK0	0.000	
20	   C	0.181	-3.501	-4.286	C.3	1	UNK0	0.000	
21	   H	-4.155	-0.854	-3.198	 H	1	UNK0	0.000	
22	   H	0.311	1.834	-0.739	 H	1	UNK0	0.000	
23	   H	-1.270	2.625	-0.460	 H	1	UNK0	0.000	
24	   H	1.157	3.640	1.766	 H	1	UNK0	0.000	
25	   H	-2.674	0.411	1.565	 H	1	UNK0	0.000	
26	   H	-1.381	-0.842	1.503	 H	1	UNK0	0.000	
27	   H	-0.903	1.438	5.480	 H	1	UNK0	0.000	
28	   H	-1.807	0.226	4.556	 H	1	UNK0	0.000	
29	   H	-0.070	-0.105	4.977	 H	1	UNK0	0.000	
30	   H	0.575	-2.970	-5.201	 H	1	UNK0	0.000	
31	   H	0.863	-4.335	-4.101	 H	1	UNK0	0.000	
32	   H	-0.828	-3.915	-4.526	 H	1	UNK0	0.000	
@<TRIPOS>BOND
1 1 2 1
2 2 3 2
3 2 10 1
4 3 4 1
5 4 5 1
6 4 20 1
7 5 6 1
8 5 10 2
9 6 7 2
10 7 8 1
11 8 9 2
12 9 10 1
13 9 11 1
14 11 12 1
15 11 18 1
16 12 13 1
17 13 14 1
18 13 17 2
19 14 15 1
20 15 16 2
21 16 17 1
22 16 19 1
23 17 18 1
24 7 21 1
25 12 22 1
26 12 23 1
27 14 24 1
28 18 25 1
29 18 26 1
30 19 27 1
31 19 28 1
32 19 29 1
33 20 30 1
34 20 31 1
35 20 32 1
@<TRIPOS>SUBSTRUCTURE
1	UNK0	1	GROUP	1 ****	UNK
