# created with PyMOL 2.3.2
@<TRIPOS>MOLECULE
731
35 38 1                 
SMALL
USER_CHARGES
@<TRIPOS>ATOM
1	  Br	-0.099	-2.642	3.362	Br	1	UNK0	0.000	
2	   C	1.327	-1.403	3.149	C.2	1	UNK0	0.000	
3	   N	2.556	-1.388	3.686	N.pl3	1	UNK0	0.000	
4	   O	3.221	-0.342	3.267	O.3	1	UNK0	0.000	
5	   N	2.452	0.331	2.465	N.2	1	UNK0	0.000	
6	   C	1.253	-0.275	2.346	C.2	1	UNK0	0.000	
7	   C	0.140	0.197	1.528	C.3	1	UNK0	0.000	
8	   C	-1.115	0.487	2.307	C.3	1	UNK0	0.000	
9	   C	-2.210	0.883	1.371	C.3	1	UNK0	0.000	
10	   C	-2.420	-0.069	0.237	C.3	1	UNK0	0.000	
11	   C	-1.120	-0.287	-0.528	C.3	1	UNK0	0.000	
12	   C	-0.115	-0.827	0.442	C.3	1	UNK0	0.000	
13	   C	-0.738	1.020	-1.143	C.3	1	UNK0	0.000	
14	   C	-0.549	2.042	-0.022	C.3	1	UNK0	0.000	
15	   C	-1.829	2.231	0.768	C.3	1	UNK0	0.000	
16	   C	0.545	1.497	0.867	C.3	1	UNK0	0.000	
17	   O	-3.426	1.029	2.067	O.3	1	UNK0	0.000	
18	   N	-3.992	-0.002	2.753	N.pl3	1	UNK0	0.000	
19	   O	-5.000	0.225	3.473	O.2	1	UNK0	0.000	
20	   O	-3.549	-1.296	2.727	O.2	1	UNK0	0.000	
21	   O	2.991	-2.376	4.556	O.2	1	UNK0	0.000	
22	   H	-0.888	1.389	2.945	 H	1	UNK0	0.000	
23	   H	-1.417	-0.306	2.989	 H	1	UNK0	0.000	
24	   H	-3.103	0.446	-0.498	 H	1	UNK0	0.000	
25	   H	-2.903	-1.009	0.499	 H	1	UNK0	0.000	
26	   H	-1.356	-1.032	-1.316	 H	1	UNK0	0.000	
27	   H	-0.581	-1.705	0.946	 H	1	UNK0	0.000	
28	   H	0.847	-1.108	-0.013	 H	1	UNK0	0.000	
29	   H	-1.520	1.324	-1.842	 H	1	UNK0	0.000	
30	   H	0.257	0.914	-1.620	 H	1	UNK0	0.000	
31	   H	-0.197	3.014	-0.416	 H	1	UNK0	0.000	
32	   H	-2.596	2.593	0.068	 H	1	UNK0	0.000	
33	   H	-1.606	2.935	1.578	 H	1	UNK0	0.000	
34	   H	0.728	2.227	1.691	 H	1	UNK0	0.000	
35	   H	1.444	1.382	0.229	 H	1	UNK0	0.000	
@<TRIPOS>BOND
1 1 2 1
2 2 3 2
3 2 6 1
4 3 4 1
5 3 21 1
6 4 5 1
7 5 6 2
8 6 7 1
9 7 8 1
10 7 12 1
11 7 16 1
12 8 9 1
13 9 10 1
14 9 15 1
15 9 17 1
16 10 11 1
17 11 12 1
18 11 13 1
19 13 14 1
20 14 15 1
21 14 16 1
22 17 18 1
23 18 19 2
24 18 20 1
25 8 22 1
26 8 23 1
27 10 24 1
28 10 25 1
29 11 26 1
30 12 27 1
31 12 28 1
32 13 29 1
33 13 30 1
34 14 31 1
35 15 32 1
36 15 33 1
37 16 34 1
38 16 35 1
@<TRIPOS>SUBSTRUCTURE
1	UNK0	1	GROUP	1 ****	UNK
