# created with PyMOL 2.3.2
@<TRIPOS>MOLECULE
736
32 35 1                 
SMALL
USER_CHARGES
@<TRIPOS>ATOM
1	  Br	2.946	-2.473	5.024	Br	1	UNK0	0.000	
2	   C	1.586	-1.290	4.392	C.2	1	UNK0	0.000	
3	   N	1.584	-0.585	3.246	N.pl3	1	UNK0	0.000	
4	   C	0.442	0.100	3.217	C.2	1	UNK0	0.000	
5	   N	-0.290	-0.154	4.328	N.2	1	UNK0	0.000	
6	   C	0.404	-1.025	5.085	C.2	1	UNK0	0.000	
7	   C	0.054	1.020	2.087	C.3	1	UNK0	0.000	
8	   N	0.924	0.589	0.973	N.pl3	1	UNK0	0.000	
9	   C	2.326	0.625	1.289	C.3	1	UNK0	0.000	
10	   C	2.603	-0.545	2.211	C.3	1	UNK0	0.000	
11	   C	0.324	0.203	-0.229	C.2	1	UNK0	0.000	
12	   O	-0.953	0.247	-0.308	O.2	1	UNK0	0.000	
13	   C	1.010	-0.255	-1.432	C.2	1	UNK0	0.000	
14	   N	2.334	-0.355	-1.500	N.2	1	UNK0	0.000	
15	   C	3.009	-0.769	-2.577	C.2	1	UNK0	0.000	
16	   C	2.264	-1.113	-3.689	C.2	1	UNK0	0.000	
17	   N	0.930	-1.027	-3.662	N.pl3	1	UNK0	0.000	
18	   C	0.279	-0.610	-2.571	C.2	1	UNK0	0.000	
19	   N	-1.028	-0.634	-2.856	N.2	1	UNK0	0.000	
20	   C	-1.224	-1.065	-4.125	C.2	1	UNK0	0.000	
21	   C	0.025	-1.317	-4.644	C.2	1	UNK0	0.000	
22	   H	0.132	-1.454	6.043	 H	1	UNK0	0.000	
23	   H	0.394	2.041	2.357	 H	1	UNK0	0.000	
24	   H	-1.002	0.942	1.834	 H	1	UNK0	0.000	
25	   H	3.014	0.678	0.456	 H	1	UNK0	0.000	
26	   H	2.511	1.570	1.892	 H	1	UNK0	0.000	
27	   H	2.509	-1.476	1.626	 H	1	UNK0	0.000	
28	   H	3.628	-0.521	2.630	 H	1	UNK0	0.000	
29	   H	4.091	-0.842	-2.607	 H	1	UNK0	0.000	
30	   H	2.756	-1.457	-4.595	 H	1	UNK0	0.000	
31	   H	-2.164	-1.195	-4.654	 H	1	UNK0	0.000	
32	   H	0.257	-1.677	-5.638	 H	1	UNK0	0.000	
@<TRIPOS>BOND
1 1 2 1
2 2 3 1
3 2 6 2
4 3 4 1
5 3 10 1
6 4 5 2
7 4 7 1
8 5 6 1
9 7 8 1
10 8 9 1
11 8 11 1
12 9 10 1
13 11 12 2
14 11 13 1
15 13 14 2
16 13 18 1
17 14 15 1
18 15 16 2
19 16 17 1
20 17 18 1
21 17 21 1
22 18 19 2
23 19 20 1
24 20 21 2
25 6 22 1
26 7 23 1
27 7 24 1
28 9 25 1
29 9 26 1
30 10 27 1
31 10 28 1
32 15 29 1
33 16 30 1
34 20 31 1
35 21 32 1
@<TRIPOS>SUBSTRUCTURE
1	UNK0	1	GROUP	1 ****	UNK
