# created with PyMOL 2.3.2
@<TRIPOS>MOLECULE
738
49 52 1                 
SMALL
USER_CHARGES
@<TRIPOS>ATOM
1	  Br	3.267	-6.449	-5.744	Br	1	UNK0	0.000	
2	   C	2.456	-4.751	-5.383	C.2	1	UNK0	0.000	
3	   O	1.795	-4.481	-4.285	O.3	1	UNK0	0.000	
4	   C	1.355	-3.241	-4.319	C.2	1	UNK0	0.000	
5	   C	1.756	-2.686	-5.505	C.2	1	UNK0	0.000	
6	   C	2.463	-3.633	-6.204	C.2	1	UNK0	0.000	
7	   C	0.577	-2.631	-3.238	C.2	1	UNK0	0.000	
8	   O	0.282	-3.270	-2.197	O.2	1	UNK0	0.000	
9	   N	0.122	-1.291	-3.319	N.pl3	1	UNK0	0.000	
10	   C	-0.640	-0.641	-2.297	C.3	1	UNK0	0.000	
11	   C	-1.981	-0.271	-2.914	C.3	1	UNK0	0.000	
12	   C	0.066	0.567	-1.794	C.2	1	UNK0	0.000	
13	   O	1.169	0.863	-2.321	O.2	1	UNK0	0.000	
14	   N	-0.434	1.389	-0.765	N.pl3	1	UNK0	0.000	
15	   C	0.310	2.554	-0.343	C.3	1	UNK0	0.000	
16	   C	-0.089	2.978	1.066	C.3	1	UNK0	0.000	
17	   C	-0.338	1.788	1.936	C.3	1	UNK0	0.000	
18	   N	0.838	0.953	2.097	N.3	1	UNK0	0.000	
19	   C	1.953	1.602	2.695	C.3	1	UNK0	0.000	
20	   C	1.679	2.571	3.780	C.3	1	UNK0	0.000	
21	   C	0.273	2.599	4.171	C.2	1	UNK0	0.000	
22	   N	-0.286	2.961	5.351	N.2	1	UNK0	0.000	
23	   C	-1.609	2.823	5.220	C.2	1	UNK0	0.000	
24	   N	-1.873	2.378	3.970	N.pl3	1	UNK0	0.000	
25	   C	-0.719	2.230	3.295	C.2	1	UNK0	0.000	
26	   C	-1.423	0.900	1.383	C.3	1	UNK0	0.000	
27	   C	-1.683	1.112	-0.093	C.3	1	UNK0	0.000	
28	   H	1.560	-1.687	-5.843	 H	1	UNK0	0.000	
29	   H	2.935	-3.568	-7.176	 H	1	UNK0	0.000	
30	   H	0.362	-0.752	-4.178	 H	1	UNK0	0.000	
31	   H	-0.815	-1.329	-1.446	 H	1	UNK0	0.000	
32	   H	-2.241	0.790	-2.779	 H	1	UNK0	0.000	
33	   H	-1.994	-0.504	-4.019	 H	1	UNK0	0.000	
34	   H	-2.798	-0.898	-2.501	 H	1	UNK0	0.000	
35	   H	1.404	2.407	-0.373	 H	1	UNK0	0.000	
36	   H	-0.019	3.397	-1.007	 H	1	UNK0	0.000	
37	   H	0.747	3.570	1.457	 H	1	UNK0	0.000	
38	   H	-1.010	3.593	1.066	 H	1	UNK0	0.000	
39	   H	1.110	0.625	1.146	 H	1	UNK0	0.000	
40	   H	2.600	0.782	3.134	 H	1	UNK0	0.000	
41	   H	2.626	2.081	1.937	 H	1	UNK0	0.000	
42	   H	2.320	2.369	4.693	 H	1	UNK0	0.000	
43	   H	1.966	3.626	3.513	 H	1	UNK0	0.000	
44	   H	-2.322	3.038	5.998	 H	1	UNK0	0.000	
45	   H	-2.822	2.187	3.604	 H	1	UNK0	0.000	
46	   H	-2.399	1.126	1.906	 H	1	UNK0	0.000	
47	   H	-1.226	-0.172	1.629	 H	1	UNK0	0.000	
48	   H	-2.188	0.198	-0.466	 H	1	UNK0	0.000	
49	   H	-2.391	1.969	-0.184	 H	1	UNK0	0.000	
@<TRIPOS>BOND
1 1 2 1
2 2 3 1
3 2 6 2
4 3 4 1
5 4 5 2
6 4 7 1
7 5 6 1
8 7 8 2
9 7 9 1
10 9 10 1
11 10 11 1
12 10 12 1
13 12 13 2
14 12 14 1
15 14 15 1
16 14 27 1
17 15 16 1
18 16 17 1
19 17 18 1
20 17 25 1
21 17 26 1
22 18 19 1
23 19 20 1
24 20 21 1
25 21 22 1
26 21 25 2
27 22 23 2
28 23 24 1
29 24 25 1
30 26 27 1
31 5 28 1
32 6 29 1
33 9 30 1
34 10 31 1
35 11 32 1
36 11 33 1
37 11 34 1
38 15 35 1
39 15 36 1
40 16 37 1
41 16 38 1
42 18 39 1
43 19 40 1
44 19 41 1
45 20 42 1
46 20 43 1
47 23 44 1
48 24 45 1
49 26 46 1
50 26 47 1
51 27 48 1
52 27 49 1
@<TRIPOS>SUBSTRUCTURE
1	UNK0	1	GROUP	1 ****	UNK
