# created with PyMOL 2.3.2
@<TRIPOS>MOLECULE
739
46 49 1                 
SMALL
USER_CHARGES
@<TRIPOS>ATOM
1	  Br	-4.854	0.956	5.167	Br	1	UNK0	0.000	
2	   C	-3.349	1.420	4.089	C.2	1	UNK0	0.000	
3	   O	-2.238	0.769	3.898	O.3	1	UNK0	0.000	
4	   C	-1.430	1.406	3.084	C.2	1	UNK0	0.000	
5	   C	-2.071	2.557	2.722	C.2	1	UNK0	0.000	
6	   C	-3.289	2.587	3.348	C.2	1	UNK0	0.000	
7	   C	-0.125	0.991	2.647	C.2	1	UNK0	0.000	
8	   O	0.554	1.697	1.858	O.2	1	UNK0	0.000	
9	   N	0.483	-0.230	3.069	N.pl3	1	UNK0	0.000	
10	   C	1.776	-0.660	2.639	C.3	1	UNK0	0.000	
11	   C	2.001	-0.985	1.254	C.2	1	UNK0	0.000	
12	   O	3.255	-1.248	0.973	O.2	1	UNK0	0.000	
13	   N	1.145	-1.072	0.179	N.pl3	1	UNK0	0.000	
14	   C	-0.272	-0.959	0.069	C.3	1	UNK0	0.000	
15	   C	-0.769	0.130	-0.824	C.3	1	UNK0	0.000	
16	   C	0.111	0.490	-1.960	C.3	1	UNK0	0.000	
17	   N	-0.507	0.009	-3.184	N.3	1	UNK0	0.000	
18	   C	-1.698	0.749	-3.538	C.3	1	UNK0	0.000	
19	   C	-1.200	2.055	-4.175	C.3	1	UNK0	0.000	
20	   C	-0.355	2.685	-3.114	C.2	1	UNK0	0.000	
21	   N	-0.056	3.983	-2.981	N.2	1	UNK0	0.000	
22	   C	0.723	4.079	-1.896	C.2	1	UNK0	0.000	
23	   N	0.907	2.877	-1.364	N.pl3	1	UNK0	0.000	
24	   C	0.242	1.986	-2.109	C.2	1	UNK0	0.000	
25	   C	1.503	-0.044	-1.920	C.3	1	UNK0	0.000	
26	   C	1.719	-1.316	-1.193	C.3	1	UNK0	0.000	
27	   H	-1.695	3.317	2.062	 H	1	UNK0	0.000	
28	   H	-4.066	3.358	3.289	 H	1	UNK0	0.000	
29	   H	-0.066	-0.820	3.724	 H	1	UNK0	0.000	
30	   H	2.492	0.172	2.986	 H	1	UNK0	0.000	
31	   H	2.148	-1.508	3.323	 H	1	UNK0	0.000	
32	   H	-0.866	-1.006	0.977	 H	1	UNK0	0.000	
33	   H	-0.570	-1.958	-0.447	 H	1	UNK0	0.000	
34	   H	-1.785	-0.222	-1.188	 H	1	UNK0	0.000	
35	   H	-1.012	1.035	-0.241	 H	1	UNK0	0.000	
36	   H	0.162	0.004	-3.962	 H	1	UNK0	0.000	
37	   H	-2.299	1.068	-2.671	 H	1	UNK0	0.000	
38	   H	-2.306	0.171	-4.252	 H	1	UNK0	0.000	
39	   H	-2.054	2.697	-4.436	 H	1	UNK0	0.000	
40	   H	-0.556	1.850	-5.038	 H	1	UNK0	0.000	
41	   H	1.139	5.013	-1.515	 H	1	UNK0	0.000	
42	   H	1.488	2.728	-0.506	 H	1	UNK0	0.000	
43	   H	2.207	0.720	-1.492	 H	1	UNK0	0.000	
44	   H	1.870	-0.192	-2.979	 H	1	UNK0	0.000	
45	   H	1.168	-2.146	-1.646	 H	1	UNK0	0.000	
46	   H	2.791	-1.491	-1.089	 H	1	UNK0	0.000	
@<TRIPOS>BOND
1 1 2 1
2 2 3 1
3 2 6 2
4 3 4 1
5 4 5 2
6 4 7 1
7 5 6 1
8 7 8 2
9 7 9 1
10 9 10 1
11 10 11 1
12 11 12 2
13 11 13 1
14 13 14 1
15 13 26 1
16 14 15 1
17 15 16 1
18 16 17 1
19 16 24 1
20 16 25 1
21 17 18 1
22 18 19 1
23 19 20 1
24 20 21 1
25 20 24 2
26 21 22 2
27 22 23 1
28 23 24 1
29 25 26 1
30 5 27 1
31 6 28 1
32 9 29 1
33 10 30 1
34 10 31 1
35 14 32 1
36 14 33 1
37 15 34 1
38 15 35 1
39 17 36 1
40 18 37 1
41 18 38 1
42 19 39 1
43 19 40 1
44 22 41 1
45 23 42 1
46 25 43 1
47 25 44 1
48 26 45 1
49 26 46 1
@<TRIPOS>SUBSTRUCTURE
1	UNK0	1	GROUP	1 ****	UNK
