# created with PyMOL 2.3.2
@<TRIPOS>MOLECULE
740
46 49 1                 
SMALL
USER_CHARGES
@<TRIPOS>ATOM
1	  Br	-8.974	1.216	2.388	Br	1	UNK0	0.000	
2	   C	-7.253	0.396	2.569	C.2	1	UNK0	0.000	
3	   O	-6.468	0.123	1.581	O.3	1	UNK0	0.000	
4	   C	-5.357	-0.432	1.972	C.2	1	UNK0	0.000	
5	   C	-5.426	-0.530	3.345	C.2	1	UNK0	0.000	
6	   C	-6.630	-0.004	3.720	C.2	1	UNK0	0.000	
7	   C	-4.285	-0.848	1.088	C.2	1	UNK0	0.000	
8	   O	-4.363	-0.694	-0.162	O.2	1	UNK0	0.000	
9	   N	-3.126	-1.442	1.648	N.pl3	1	UNK0	0.000	
10	   C	-2.022	-1.875	0.779	C.3	1	UNK0	0.000	
11	   C	-1.476	-0.731	0.018	C.2	1	UNK0	0.000	
12	   O	-1.986	0.399	0.193	O.2	1	UNK0	0.000	
13	   N	-0.408	-0.866	-0.892	N.pl3	1	UNK0	0.000	
14	   C	0.185	-2.175	-1.097	C.3	1	UNK0	0.000	
15	   C	1.668	-2.018	-1.026	C.3	1	UNK0	0.000	
16	   C	2.093	-0.663	-0.491	C.3	1	UNK0	0.000	
17	   N	1.452	-0.445	0.759	N.3	1	UNK0	0.000	
18	   C	2.007	0.514	1.633	C.3	1	UNK0	0.000	
19	   C	3.329	1.092	1.282	C.3	1	UNK0	0.000	
20	   C	4.178	0.143	0.527	C.2	1	UNK0	0.000	
21	   N	5.529	-0.066	0.516	N.pl3	1	UNK0	0.000	
22	   C	5.744	-1.055	-0.363	C.2	1	UNK0	0.000	
23	   N	4.575	-1.457	-0.889	N.2	1	UNK0	0.000	
24	   C	3.569	-0.724	-0.350	C.2	1	UNK0	0.000	
25	   C	1.644	0.367	-1.493	C.3	1	UNK0	0.000	
26	   C	0.144	0.234	-1.648	C.3	1	UNK0	0.000	
27	   H	-4.645	-0.955	3.984	 H	1	UNK0	0.000	
28	   H	-7.034	0.090	4.716	 H	1	UNK0	0.000	
29	   H	-3.078	-1.563	2.682	 H	1	UNK0	0.000	
30	   H	-2.408	-2.671	0.084	 H	1	UNK0	0.000	
31	   H	-1.281	-2.356	1.445	 H	1	UNK0	0.000	
32	   H	-0.202	-2.932	-0.394	 H	1	UNK0	0.000	
33	   H	-0.164	-2.502	-2.116	 H	1	UNK0	0.000	
34	   H	2.168	-2.837	-0.445	 H	1	UNK0	0.000	
35	   H	2.075	-2.093	-2.059	 H	1	UNK0	0.000	
36	   H	1.097	-1.312	1.219	 H	1	UNK0	0.000	
37	   H	1.298	1.357	1.825	 H	1	UNK0	0.000	
38	   H	2.124	0.021	2.644	 H	1	UNK0	0.000	
39	   H	3.207	2.040	0.693	 H	1	UNK0	0.000	
40	   H	3.894	1.424	2.194	 H	1	UNK0	0.000	
41	   H	6.200	0.478	1.105	 H	1	UNK0	0.000	
42	   H	6.710	-1.456	-0.602	 H	1	UNK0	0.000	
43	   H	1.866	1.392	-1.177	 H	1	UNK0	0.000	
44	   H	2.161	0.135	-2.468	 H	1	UNK0	0.000	
45	   H	-0.366	1.200	-1.381	 H	1	UNK0	0.000	
46	   H	-0.075	0.116	-2.750	 H	1	UNK0	0.000	
@<TRIPOS>BOND
1 1 2 1
2 2 3 1
3 2 6 2
4 3 4 1
5 4 5 2
6 4 7 1
7 5 6 1
8 7 8 2
9 7 9 1
10 9 10 1
11 10 11 1
12 11 12 2
13 11 13 1
14 13 14 1
15 13 26 1
16 14 15 1
17 15 16 1
18 16 17 1
19 16 24 1
20 16 25 1
21 17 18 1
22 18 19 1
23 19 20 1
24 20 21 1
25 20 24 2
26 21 22 1
27 22 23 2
28 23 24 1
29 25 26 1
30 5 27 1
31 6 28 1
32 9 29 1
33 10 30 1
34 10 31 1
35 14 32 1
36 14 33 1
37 15 34 1
38 15 35 1
39 17 36 1
40 18 37 1
41 18 38 1
42 19 39 1
43 19 40 1
44 21 41 1
45 22 42 1
46 25 43 1
47 25 44 1
48 26 45 1
49 26 46 1
@<TRIPOS>SUBSTRUCTURE
1	UNK0	1	GROUP	1 ****	UNK
