# created with PyMOL 2.3.2
@<TRIPOS>MOLECULE
741
50 53 1                 
SMALL
USER_CHARGES
@<TRIPOS>ATOM
1	  Br	-1.315	-6.979	2.562	Br	1	UNK0	0.000	
2	   C	0.177	-5.854	2.990	C.2	1	UNK0	0.000	
3	   O	0.224	-4.557	2.800	O.3	1	UNK0	0.000	
4	   C	1.392	-4.077	3.200	C.2	1	UNK0	0.000	
5	   C	2.129	-5.128	3.669	C.2	1	UNK0	0.000	
6	   C	1.365	-6.267	3.540	C.2	1	UNK0	0.000	
7	   C	1.796	-2.683	3.140	C.2	1	UNK0	0.000	
8	   O	2.920	-2.355	3.545	O.2	1	UNK0	0.000	
9	   N	0.876	-1.700	2.608	N.pl3	1	UNK0	0.000	
10	   C	1.365	-0.360	2.592	C.3	1	UNK0	0.000	
11	   C	0.584	0.733	2.097	C.2	1	UNK0	0.000	
12	   O	1.219	1.891	2.174	O.2	1	UNK0	0.000	
13	   N	-0.711	0.771	1.560	N.pl3	1	UNK0	0.000	
14	   C	-1.601	-0.329	1.364	C.3	1	UNK0	0.000	
15	   C	-2.879	0.160	0.656	C.3	1	UNK0	0.000	
16	   N	-2.462	0.851	-0.526	N.pl3	1	UNK0	0.000	
17	   C	-1.623	2.009	-0.339	C.3	1	UNK0	0.000	
18	   C	-1.227	2.117	1.143	C.3	1	UNK0	0.000	
19	   C	-2.845	0.431	-1.783	C.2	1	UNK0	0.000	
20	   O	-3.592	-0.608	-1.881	O.2	1	UNK0	0.000	
21	   C	-2.499	1.035	-3.079	C.3	1	UNK0	0.000	
22	   O	-1.679	2.172	-2.983	O.3	1	UNK0	0.000	
23	   C	-1.452	2.846	-4.192	C.2	1	UNK0	0.000	
24	   C	-2.368	2.707	-5.215	C.2	1	UNK0	0.000	
25	   C	-2.187	3.357	-6.437	C.2	1	UNK0	0.000	
26	   C	-1.084	4.146	-6.626	C.2	1	UNK0	0.000	
27	   C	-0.159	4.296	-5.615	C.2	1	UNK0	0.000	
28	   C	-0.360	3.642	-4.413	C.2	1	UNK0	0.000	
29	   O	-3.497	1.911	-5.050	O.3	1	UNK0	0.000	
30	   C	-3.799	1.483	-3.732	C.3	1	UNK0	0.000	
31	   H	3.138	-5.081	4.073	 H	1	UNK0	0.000	
32	   H	1.614	-7.278	3.804	 H	1	UNK0	0.000	
33	   H	-0.019	-2.078	2.305	 H	1	UNK0	0.000	
34	   H	1.780	-0.123	3.652	 H	1	UNK0	0.000	
35	   H	2.375	-0.398	2.024	 H	1	UNK0	0.000	
36	   H	-1.887	-0.840	2.306	 H	1	UNK0	0.000	
37	   H	-1.103	-1.036	0.639	 H	1	UNK0	0.000	
38	   H	-3.395	0.812	1.389	 H	1	UNK0	0.000	
39	   H	-3.508	-0.738	0.420	 H	1	UNK0	0.000	
40	   H	-0.660	1.837	-0.891	 H	1	UNK0	0.000	
41	   H	-2.103	2.941	-0.632	 H	1	UNK0	0.000	
42	   H	-0.451	2.874	1.220	 H	1	UNK0	0.000	
43	   H	-2.112	2.307	1.735	 H	1	UNK0	0.000	
44	   H	-1.980	0.262	-3.682	 H	1	UNK0	0.000	
45	   H	-2.923	3.237	-7.242	 H	1	UNK0	0.000	
46	   H	-0.987	4.631	-7.596	 H	1	UNK0	0.000	
47	   H	0.692	4.920	-5.798	 H	1	UNK0	0.000	
48	   H	0.349	3.741	-3.601	 H	1	UNK0	0.000	
49	   H	-4.172	2.352	-3.162	 H	1	UNK0	0.000	
50	   H	-4.559	0.682	-3.708	 H	1	UNK0	0.000	
@<TRIPOS>BOND
1 1 2 1
2 2 3 1
3 2 6 2
4 3 4 1
5 4 5 2
6 4 7 1
7 5 6 1
8 7 8 2
9 7 9 1
10 9 10 1
11 10 11 1
12 11 12 2
13 11 13 1
14 13 14 1
15 13 18 1
16 14 15 1
17 15 16 1
18 16 17 1
19 16 19 1
20 17 18 1
21 19 20 2
22 19 21 1
23 21 22 1
24 21 30 1
25 22 23 1
26 23 24 2
27 23 28 1
28 24 25 1
29 24 29 1
30 25 26 2
31 26 27 1
32 27 28 2
33 29 30 1
34 5 31 1
35 6 32 1
36 9 33 1
37 10 34 1
38 10 35 1
39 14 36 1
40 14 37 1
41 15 38 1
42 15 39 1
43 17 40 1
44 17 41 1
45 18 42 1
46 18 43 1
47 21 44 1
48 25 45 1
49 26 46 1
50 27 47 1
51 28 48 1
52 30 49 1
53 30 50 1
@<TRIPOS>SUBSTRUCTURE
1	UNK0	1	GROUP	1 ****	UNK
