# created with PyMOL 2.3.2
@<TRIPOS>MOLECULE
742
48 51 1                 
SMALL
USER_CHARGES
@<TRIPOS>ATOM
1	  Br	6.063	-1.590	3.951	Br	1	UNK0	0.000	
2	   C	5.306	-0.024	3.180	C.2	1	UNK0	0.000	
3	   O	4.100	0.128	2.740	O.3	1	UNK0	0.000	
4	   C	3.902	1.327	2.272	C.2	1	UNK0	0.000	
5	   C	5.079	2.025	2.417	C.2	1	UNK0	0.000	
6	   C	5.972	1.160	2.996	C.2	1	UNK0	0.000	
7	   C	2.665	1.868	1.692	C.2	1	UNK0	0.000	
8	   O	2.630	3.048	1.283	O.2	1	UNK0	0.000	
9	   N	1.518	1.062	1.593	N.pl3	1	UNK0	0.000	
10	   C	0.264	1.525	1.033	C.3	1	UNK0	0.000	
11	   C	-0.773	0.490	1.048	C.2	1	UNK0	0.000	
12	   O	-0.489	-0.634	1.518	O.2	1	UNK0	0.000	
13	   N	-2.072	0.722	0.551	N.pl3	1	UNK0	0.000	
14	   C	-3.021	-0.358	0.609	C.3	1	UNK0	0.000	
15	   C	-4.275	-0.095	-0.197	C.3	1	UNK0	0.000	
16	   N	-3.951	0.728	-1.277	N.3	1	UNK0	0.000	
17	   C	-3.496	2.009	-0.989	C.3	1	UNK0	0.000	
18	   C	-2.369	2.032	0.013	C.3	1	UNK0	0.000	
19	   C	-3.832	0.191	-2.560	C.3	1	UNK0	0.000	
20	   C	-2.802	-0.859	-2.731	C.2	1	UNK0	0.000	
21	   C	-1.516	-0.500	-3.076	C.2	1	UNK0	0.000	
22	   C	-0.506	-1.421	-3.253	C.2	1	UNK0	0.000	
23	   C	-0.799	-2.756	-3.076	C.2	1	UNK0	0.000	
24	   C	-2.085	-3.152	-2.728	C.2	1	UNK0	0.000	
25	   C	-3.067	-2.202	-2.561	C.2	1	UNK0	0.000	
26	   O	0.398	-3.435	-3.318	O.3	1	UNK0	0.000	
27	   C	1.268	-2.579	-4.064	C.3	1	UNK0	0.000	
28	   O	0.845	-1.308	-3.595	O.3	1	UNK0	0.000	
29	   H	5.282	3.067	2.131	 H	1	UNK0	0.000	
30	   H	7.016	1.387	3.255	 H	1	UNK0	0.000	
31	   H	1.528	0.055	1.936	 H	1	UNK0	0.000	
32	   H	-0.024	2.434	1.584	 H	1	UNK0	0.000	
33	   H	0.481	1.797	-0.033	 H	1	UNK0	0.000	
34	   H	-3.267	-0.629	1.662	 H	1	UNK0	0.000	
35	   H	-2.520	-1.242	0.120	 H	1	UNK0	0.000	
36	   H	-4.961	0.475	0.498	 H	1	UNK0	0.000	
37	   H	-4.709	-1.064	-0.475	 H	1	UNK0	0.000	
38	   H	-3.226	2.572	-1.909	 H	1	UNK0	0.000	
39	   H	-4.338	2.602	-0.525	 H	1	UNK0	0.000	
40	   H	-2.568	2.700	0.877	 H	1	UNK0	0.000	
41	   H	-1.463	2.451	-0.494	 H	1	UNK0	0.000	
42	   H	-4.810	-0.282	-2.852	 H	1	UNK0	0.000	
43	   H	-3.659	0.997	-3.302	 H	1	UNK0	0.000	
44	   H	-1.262	0.561	-3.222	 H	1	UNK0	0.000	
45	   H	-2.266	-4.197	-2.602	 H	1	UNK0	0.000	
46	   H	-4.074	-2.500	-2.290	 H	1	UNK0	0.000	
47	   H	2.301	-2.814	-3.742	 H	1	UNK0	0.000	
48	   H	1.125	-2.701	-5.148	 H	1	UNK0	0.000	
@<TRIPOS>BOND
1 1 2 1
2 2 3 1
3 2 6 2
4 3 4 1
5 4 5 2
6 4 7 1
7 5 6 1
8 7 8 2
9 7 9 1
10 9 10 1
11 10 11 1
12 11 12 2
13 11 13 1
14 13 14 1
15 13 18 1
16 14 15 1
17 15 16 1
18 16 17 1
19 16 19 1
20 17 18 1
21 19 20 1
22 20 21 2
23 20 25 1
24 21 22 1
25 22 23 2
26 22 28 1
27 23 24 1
28 23 26 1
29 24 25 2
30 26 27 1
31 27 28 1
32 5 29 1
33 6 30 1
34 9 31 1
35 10 32 1
36 10 33 1
37 14 34 1
38 14 35 1
39 15 36 1
40 15 37 1
41 17 38 1
42 17 39 1
43 18 40 1
44 18 41 1
45 19 42 1
46 19 43 1
47 21 44 1
48 24 45 1
49 25 46 1
50 27 47 1
51 27 48 1
@<TRIPOS>SUBSTRUCTURE
1	UNK0	1	GROUP	1 ****	UNK
