# created with PyMOL 2.3.2
@<TRIPOS>MOLECULE
744
49 52 1                 
SMALL
USER_CHARGES
@<TRIPOS>ATOM
1	  Br	4.875	4.984	1.614	Br	1	UNK0	0.000	
2	   C	4.555	3.117	1.322	C.2	1	UNK0	0.000	
3	   O	3.914	2.547	0.357	O.3	1	UNK0	0.000	
4	   C	3.884	1.259	0.465	C.2	1	UNK0	0.000	
5	   C	4.584	0.948	1.633	C.2	1	UNK0	0.000	
6	   C	5.008	2.144	2.173	C.2	1	UNK0	0.000	
7	   C	3.274	0.263	-0.400	C.2	1	UNK0	0.000	
8	   O	2.667	0.640	-1.428	O.2	1	UNK0	0.000	
9	   N	3.346	-1.125	-0.116	N.pl3	1	UNK0	0.000	
10	   C	2.755	-2.128	-0.951	C.3	1	UNK0	0.000	
11	   C	1.274	-1.989	-1.105	C.3	1	UNK0	0.000	
12	   C	0.557	-2.077	0.193	C.2	1	UNK0	0.000	
13	   O	1.243	-2.250	1.230	O.2	1	UNK0	0.000	
14	   N	-0.856	-1.973	0.293	N.pl3	1	UNK0	0.000	
15	   C	-1.694	-1.773	-0.867	C.3	1	UNK0	0.000	
16	   C	-2.504	-0.519	-0.752	C.3	1	UNK0	0.000	
17	   C	-2.744	-0.079	0.666	C.3	1	UNK0	0.000	
18	   N	-4.033	0.536	0.746	N.3	1	UNK0	0.000	
19	   C	-4.128	1.890	0.413	C.3	1	UNK0	0.000	
20	   C	-2.872	2.652	0.238	C.3	1	UNK0	0.000	
21	   C	-1.715	2.121	0.982	C.2	1	UNK0	0.000	
22	   N	-0.618	2.664	1.552	N.pl3	1	UNK0	0.000	
23	   C	0.127	1.701	2.112	C.2	1	UNK0	0.000	
24	   N	-0.517	0.544	1.886	N.2	1	UNK0	0.000	
25	   C	-1.651	0.767	1.195	C.2	1	UNK0	0.000	
26	   C	-2.804	-1.331	1.527	C.3	1	UNK0	0.000	
27	   C	-1.505	-2.066	1.583	C.3	1	UNK0	0.000	
28	   H	4.738	-0.051	2.003	 H	1	UNK0	0.000	
29	   H	5.583	2.246	3.090	 H	1	UNK0	0.000	
30	   H	3.857	-1.413	0.744	 H	1	UNK0	0.000	
31	   H	3.007	-3.133	-0.599	 H	1	UNK0	0.000	
32	   H	3.200	-1.987	-1.978	 H	1	UNK0	0.000	
33	   H	0.917	-2.842	-1.722	 H	1	UNK0	0.000	
34	   H	0.992	-1.069	-1.664	 H	1	UNK0	0.000	
35	   H	-1.106	-1.735	-1.807	 H	1	UNK0	0.000	
36	   H	-2.333	-2.690	-0.950	 H	1	UNK0	0.000	
37	   H	-3.514	-0.751	-1.196	 H	1	UNK0	0.000	
38	   H	-2.107	0.308	-1.386	 H	1	UNK0	0.000	
39	   H	-4.730	-0.103	0.347	 H	1	UNK0	0.000	
40	   H	-4.723	1.990	-0.541	 H	1	UNK0	0.000	
41	   H	-4.773	2.409	1.179	 H	1	UNK0	0.000	
42	   H	-3.047	3.709	0.535	 H	1	UNK0	0.000	
43	   H	-2.590	2.707	-0.854	 H	1	UNK0	0.000	
44	   H	-0.366	3.670	1.569	 H	1	UNK0	0.000	
45	   H	1.057	1.754	2.648	 H	1	UNK0	0.000	
46	   H	-3.656	-1.980	1.206	 H	1	UNK0	0.000	
47	   H	-3.064	-0.984	2.557	 H	1	UNK0	0.000	
48	   H	-1.754	-3.144	1.813	 H	1	UNK0	0.000	
49	   H	-0.844	-1.752	2.420	 H	1	UNK0	0.000	
@<TRIPOS>BOND
1 1 2 1
2 2 3 1
3 2 6 2
4 3 4 1
5 4 5 2
6 4 7 1
7 5 6 1
8 7 8 2
9 7 9 1
10 9 10 1
11 10 11 1
12 11 12 1
13 12 13 2
14 12 14 1
15 14 15 1
16 14 27 1
17 15 16 1
18 16 17 1
19 17 18 1
20 17 25 1
21 17 26 1
22 18 19 1
23 19 20 1
24 20 21 1
25 21 22 1
26 21 25 2
27 22 23 1
28 23 24 2
29 24 25 1
30 26 27 1
31 5 28 1
32 6 29 1
33 9 30 1
34 10 31 1
35 10 32 1
36 11 33 1
37 11 34 1
38 15 35 1
39 15 36 1
40 16 37 1
41 16 38 1
42 18 39 1
43 19 40 1
44 19 41 1
45 20 42 1
46 20 43 1
47 22 44 1
48 23 45 1
49 26 46 1
50 26 47 1
51 27 48 1
52 27 49 1
@<TRIPOS>SUBSTRUCTURE
1	UNK0	1	GROUP	1 ****	UNK
