# created with PyMOL 2.3.2
@<TRIPOS>MOLECULE
745
48 51 1                 
SMALL
USER_CHARGES
@<TRIPOS>ATOM
1	  Br	-7.299	0.013	-3.835	Br	1	UNK0	0.000	
2	   C	-6.384	0.158	-2.151	C.2	1	UNK0	0.000	
3	   O	-5.414	-0.618	-1.728	O.3	1	UNK0	0.000	
4	   C	-5.005	-0.258	-0.547	C.2	1	UNK0	0.000	
5	   C	-5.753	0.825	-0.166	C.2	1	UNK0	0.000	
6	   C	-6.650	1.114	-1.183	C.2	1	UNK0	0.000	
7	   C	-3.951	-0.897	0.214	C.2	1	UNK0	0.000	
8	   O	-3.345	-1.886	-0.266	O.2	1	UNK0	0.000	
9	   N	-3.567	-0.444	1.503	N.pl3	1	UNK0	0.000	
10	   C	-2.514	-1.084	2.259	C.3	1	UNK0	0.000	
11	   C	-1.152	-0.728	1.752	C.2	1	UNK0	0.000	
12	   N	-0.534	0.406	2.116	N.2	1	UNK0	0.000	
13	   C	0.689	0.776	1.697	C.2	1	UNK0	0.000	
14	   N	1.306	-0.072	0.858	N.2	1	UNK0	0.000	
15	   C	0.750	-1.227	0.449	C.2	1	UNK0	0.000	
16	   N	-0.472	-1.543	0.900	N.2	1	UNK0	0.000	
17	   N	1.399	-2.114	-0.432	N.pl3	1	UNK0	0.000	
18	   C	2.694	-1.783	-0.974	C.3	1	UNK0	0.000	
19	   C	2.604	-1.987	-2.485	C.3	1	UNK0	0.000	
20	   O	2.205	-3.282	-2.733	O.3	1	UNK0	0.000	
21	   C	0.909	-3.482	-2.318	C.3	1	UNK0	0.000	
22	   C	0.772	-3.359	-0.796	C.3	1	UNK0	0.000	
23	   N	1.300	2.008	2.123	N.pl3	1	UNK0	0.000	
24	   C	2.631	2.394	1.696	C.3	1	UNK0	0.000	
25	   C	3.071	3.291	2.841	C.3	1	UNK0	0.000	
26	   C	1.772	4.072	3.078	C.3	1	UNK0	0.000	
27	   C	0.719	3.007	2.997	C.3	1	UNK0	0.000	
28	   H	-5.702	1.401	0.757	 H	1	UNK0	0.000	
29	   H	-7.393	1.874	-1.264	 H	1	UNK0	0.000	
30	   H	-4.097	0.394	1.885	 H	1	UNK0	0.000	
31	   H	-2.555	-0.699	3.305	 H	1	UNK0	0.000	
32	   H	-2.666	-2.185	2.254	 H	1	UNK0	0.000	
33	   H	3.440	-2.512	-0.603	 H	1	UNK0	0.000	
34	   H	2.989	-0.739	-0.741	 H	1	UNK0	0.000	
35	   H	1.913	-1.234	-2.911	 H	1	UNK0	0.000	
36	   H	3.616	-1.842	-2.904	 H	1	UNK0	0.000	
37	   H	0.544	-4.486	-2.617	 H	1	UNK0	0.000	
38	   H	0.281	-2.680	-2.783	 H	1	UNK0	0.000	
39	   H	-0.324	-3.365	-0.602	 H	1	UNK0	0.000	
40	   H	1.271	-4.239	-0.346	 H	1	UNK0	0.000	
41	   H	2.533	2.946	0.753	 H	1	UNK0	0.000	
42	   H	3.302	1.510	1.610	 H	1	UNK0	0.000	
43	   H	3.264	2.654	3.709	 H	1	UNK0	0.000	
44	   H	3.898	3.953	2.557	 H	1	UNK0	0.000	
45	   H	1.793	4.625	4.018	 H	1	UNK0	0.000	
46	   H	1.657	4.718	2.172	 H	1	UNK0	0.000	
47	   H	-0.181	3.410	2.468	 H	1	UNK0	0.000	
48	   H	0.432	2.598	3.980	 H	1	UNK0	0.000	
@<TRIPOS>BOND
1 1 2 1
2 2 3 1
3 2 6 2
4 3 4 1
5 4 5 2
6 4 7 1
7 5 6 1
8 7 8 2
9 7 9 1
10 9 10 1
11 10 11 1
12 11 12 2
13 11 16 1
14 12 13 1
15 13 14 2
16 13 23 1
17 14 15 1
18 15 16 2
19 15 17 1
20 17 18 1
21 17 22 1
22 18 19 1
23 19 20 1
24 20 21 1
25 21 22 1
26 23 24 1
27 23 27 1
28 24 25 1
29 25 26 1
30 26 27 1
31 5 28 1
32 6 29 1
33 9 30 1
34 10 31 1
35 10 32 1
36 18 33 1
37 18 34 1
38 19 35 1
39 19 36 1
40 21 37 1
41 21 38 1
42 22 39 1
43 22 40 1
44 24 41 1
45 24 42 1
46 25 43 1
47 25 44 1
48 26 45 1
49 26 46 1
50 27 47 1
51 27 48 1
@<TRIPOS>SUBSTRUCTURE
1	UNK0	1	GROUP	1 ****	UNK
