# created with PyMOL 2.3.2
@<TRIPOS>MOLECULE
751
46 49 1                 
SMALL
USER_CHARGES
@<TRIPOS>ATOM
1	  Br	-8.377	-2.441	-3.374	Br	1	UNK0	0.000	
2	   C	-6.683	-1.985	-2.588	C.2	1	UNK0	0.000	
3	   O	-5.535	-2.371	-3.050	O.3	1	UNK0	0.000	
4	   C	-4.522	-1.916	-2.322	C.2	1	UNK0	0.000	
5	   C	-5.070	-1.190	-1.327	C.2	1	UNK0	0.000	
6	   C	-6.460	-1.218	-1.474	C.2	1	UNK0	0.000	
7	   C	-3.154	-2.220	-2.648	C.2	1	UNK0	0.000	
8	   O	-2.943	-2.983	-3.686	O.2	1	UNK0	0.000	
9	   N	-1.987	-1.812	-2.008	N.pl3	1	UNK0	0.000	
10	   C	-0.693	-2.279	-2.544	C.3	1	UNK0	0.000	
11	   C	0.209	-1.086	-2.723	C.3	1	UNK0	0.000	
12	   N	0.333	-0.406	-1.462	N.pl3	1	UNK0	0.000	
13	   C	-0.552	-0.692	-0.383	C.3	1	UNK0	0.000	
14	   C	-1.986	-0.952	-0.856	C.3	1	UNK0	0.000	
15	   C	1.358	0.561	-1.355	C.2	1	UNK0	0.000	
16	   C	2.040	0.998	-2.477	C.2	1	UNK0	0.000	
17	   N	3.018	1.911	-2.406	N.2	1	UNK0	0.000	
18	   N	3.337	2.404	-1.226	N.2	1	UNK0	0.000	
19	   C	2.751	2.059	-0.066	C.2	1	UNK0	0.000	
20	   C	1.733	1.108	-0.155	C.2	1	UNK0	0.000	
21	   N	3.124	2.616	1.175	N.pl3	1	UNK0	0.000	
22	   C	4.190	3.576	1.336	C.3	1	UNK0	0.000	
23	   C	3.546	4.784	2.030	C.3	1	UNK0	0.000	
24	   O	2.977	4.414	3.217	O.3	1	UNK0	0.000	
25	   C	2.942	3.076	3.499	C.3	1	UNK0	0.000	
26	   C	2.408	2.219	2.364	C.3	1	UNK0	0.000	
27	   H	-4.610	-0.660	-0.526	 H	1	UNK0	0.000	
28	   H	-7.201	-0.748	-0.857	 H	1	UNK0	0.000	
29	   H	-0.227	-3.006	-1.854	 H	1	UNK0	0.000	
30	   H	-0.852	-2.730	-3.543	 H	1	UNK0	0.000	
31	   H	1.202	-1.385	-3.139	 H	1	UNK0	0.000	
32	   H	-0.304	-0.390	-3.451	 H	1	UNK0	0.000	
33	   H	-0.544	0.142	0.354	 H	1	UNK0	0.000	
34	   H	-0.150	-1.578	0.161	 H	1	UNK0	0.000	
35	   H	-2.483	-1.439	-0.012	 H	1	UNK0	0.000	
36	   H	-2.491	-0.013	-1.106	 H	1	UNK0	0.000	
37	   H	1.760	0.578	-3.432	 H	1	UNK0	0.000	
38	   H	1.274	0.830	0.763	 H	1	UNK0	0.000	
39	   H	4.913	3.131	2.068	 H	1	UNK0	0.000	
40	   H	4.652	3.860	0.393	 H	1	UNK0	0.000	
41	   H	4.283	5.594	2.190	 H	1	UNK0	0.000	
42	   H	2.730	5.113	1.325	 H	1	UNK0	0.000	
43	   H	3.916	2.642	3.781	 H	1	UNK0	0.000	
44	   H	2.236	2.929	4.355	 H	1	UNK0	0.000	
45	   H	1.310	2.391	2.228	 H	1	UNK0	0.000	
46	   H	2.635	1.175	2.630	 H	1	UNK0	0.000	
@<TRIPOS>BOND
1 1 2 1
2 2 3 1
3 2 6 2
4 3 4 1
5 4 5 2
6 4 7 1
7 5 6 1
8 7 8 2
9 7 9 1
10 9 10 1
11 9 14 1
12 10 11 1
13 11 12 1
14 12 13 1
15 12 15 1
16 13 14 1
17 15 16 2
18 15 20 1
19 16 17 1
20 17 18 2
21 18 19 1
22 19 20 2
23 19 21 1
24 21 22 1
25 21 26 1
26 22 23 1
27 23 24 1
28 24 25 1
29 25 26 1
30 5 27 1
31 6 28 1
32 10 29 1
33 10 30 1
34 11 31 1
35 11 32 1
36 13 33 1
37 13 34 1
38 14 35 1
39 14 36 1
40 16 37 1
41 20 38 1
42 22 39 1
43 22 40 1
44 23 41 1
45 23 42 1
46 25 43 1
47 25 44 1
48 26 45 1
49 26 46 1
@<TRIPOS>SUBSTRUCTURE
1	UNK0	1	GROUP	1 ****	UNK
