# created with PyMOL 2.3.2
@<TRIPOS>MOLECULE
752
53 56 1                 
SMALL
USER_CHARGES
@<TRIPOS>ATOM
1	  Br	6.116	-2.753	3.553	Br	1	UNK0	0.000	
2	   C	4.836	-1.365	3.831	C.2	1	UNK0	0.000	
3	   O	3.547	-1.457	3.667	O.3	1	UNK0	0.000	
4	   C	2.962	-0.333	3.940	C.2	1	UNK0	0.000	
5	   C	3.939	0.591	4.320	C.2	1	UNK0	0.000	
6	   C	5.132	-0.086	4.245	C.2	1	UNK0	0.000	
7	   C	1.548	-0.046	3.875	C.2	1	UNK0	0.000	
8	   O	1.158	1.136	4.182	O.2	1	UNK0	0.000	
9	   N	0.570	-0.962	3.501	N.pl3	1	UNK0	0.000	
10	   C	0.760	-2.338	3.122	C.3	1	UNK0	0.000	
11	   C	0.486	-2.431	1.638	C.3	1	UNK0	0.000	
12	   N	-0.447	-1.422	1.191	N.pl3	1	UNK0	0.000	
13	   C	-1.300	-0.657	2.035	C.3	1	UNK0	0.000	
14	   C	-0.839	-0.524	3.462	C.3	1	UNK0	0.000	
15	   C	-0.509	-1.183	-0.219	C.2	1	UNK0	0.000	
16	   N	-1.324	-0.277	-0.749	N.2	1	UNK0	0.000	
17	   C	-1.426	-0.005	-2.085	C.2	1	UNK0	0.000	
18	   C	-0.620	-0.733	-2.923	C.2	1	UNK0	0.000	
19	   C	0.244	-1.689	-2.398	C.2	1	UNK0	0.000	
20	   N	0.265	-1.873	-1.093	N.2	1	UNK0	0.000	
21	   C	1.109	-2.467	-3.313	C.3	1	UNK0	0.000	
22	   N	-2.295	0.960	-2.578	N.pl3	1	UNK0	0.000	
23	   C	-3.040	1.790	-1.668	C.3	1	UNK0	0.000	
24	   C	-3.278	3.143	-2.271	C.3	1	UNK0	0.000	
25	   N	-2.361	3.550	-3.262	N.3	1	UNK0	0.000	
26	   C	-1.909	2.592	-4.201	C.3	1	UNK0	0.000	
27	   C	-2.509	1.191	-3.964	C.3	1	UNK0	0.000	
28	   C	-1.408	4.535	-2.878	C.3	1	UNK0	0.000	
29	   H	3.795	1.619	4.611	 H	1	UNK0	0.000	
30	   H	6.101	0.359	4.481	 H	1	UNK0	0.000	
31	   H	1.727	-2.743	3.385	 H	1	UNK0	0.000	
32	   H	-0.050	-2.917	3.660	 H	1	UNK0	0.000	
33	   H	1.444	-2.256	1.111	 H	1	UNK0	0.000	
34	   H	0.137	-3.451	1.420	 H	1	UNK0	0.000	
35	   H	-1.378	0.367	1.603	 H	1	UNK0	0.000	
36	   H	-2.312	-1.148	2.065	 H	1	UNK0	0.000	
37	   H	-1.399	-1.188	4.124	 H	1	UNK0	0.000	
38	   H	-0.935	0.513	3.808	 H	1	UNK0	0.000	
39	   H	-0.600	-0.613	-4.010	 H	1	UNK0	0.000	
40	   H	1.949	-1.801	-3.622	 H	1	UNK0	0.000	
41	   H	1.521	-3.359	-2.798	 H	1	UNK0	0.000	
42	   H	0.548	-2.803	-4.209	 H	1	UNK0	0.000	
43	   H	-4.015	1.304	-1.477	 H	1	UNK0	0.000	
44	   H	-2.536	1.889	-0.679	 H	1	UNK0	0.000	
45	   H	-3.282	3.885	-1.446	 H	1	UNK0	0.000	
46	   H	-4.298	3.146	-2.707	 H	1	UNK0	0.000	
47	   H	-0.816	2.468	-4.206	 H	1	UNK0	0.000	
48	   H	-2.215	2.911	-5.215	 H	1	UNK0	0.000	
49	   H	-3.602	1.350	-4.200	 H	1	UNK0	0.000	
50	   H	-2.078	0.492	-4.670	 H	1	UNK0	0.000	
51	   H	-0.380	4.092	-3.021	 H	1	UNK0	0.000	
52	   H	-1.473	5.413	-3.519	 H	1	UNK0	0.000	
53	   H	-1.537	4.762	-1.793	 H	1	UNK0	0.000	
@<TRIPOS>BOND
1 1 2 1
2 2 3 1
3 2 6 2
4 3 4 1
5 4 5 2
6 4 7 1
7 5 6 1
8 7 8 2
9 7 9 1
10 9 10 1
11 9 14 1
12 10 11 1
13 11 12 1
14 12 13 1
15 12 15 1
16 13 14 1
17 15 16 2
18 15 20 1
19 16 17 1
20 17 18 2
21 17 22 1
22 18 19 1
23 19 20 2
24 19 21 1
25 22 23 1
26 22 27 1
27 23 24 1
28 24 25 1
29 25 26 1
30 25 28 1
31 26 27 1
32 5 29 1
33 6 30 1
34 10 31 1
35 10 32 1
36 11 33 1
37 11 34 1
38 13 35 1
39 13 36 1
40 14 37 1
41 14 38 1
42 18 39 1
43 21 40 1
44 21 41 1
45 21 42 1
46 23 43 1
47 23 44 1
48 24 45 1
49 24 46 1
50 26 47 1
51 26 48 1
52 27 49 1
53 27 50 1
54 28 51 1
55 28 52 1
56 28 53 1
@<TRIPOS>SUBSTRUCTURE
1	UNK0	1	GROUP	1 ****	UNK
