# created with PyMOL 2.3.2
@<TRIPOS>MOLECULE
753
49 52 1                 
SMALL
USER_CHARGES
@<TRIPOS>ATOM
1	  Br	-1.418	-4.232	-8.415	Br	1	UNK0	0.000	
2	   C	-1.184	-3.025	-6.933	C.2	1	UNK0	0.000	
3	   O	-0.194	-2.199	-6.815	O.3	1	UNK0	0.000	
4	   C	-0.316	-1.493	-5.668	C.2	1	UNK0	0.000	
5	   C	-1.453	-1.908	-5.034	C.2	1	UNK0	0.000	
6	   C	-2.016	-2.900	-5.852	C.2	1	UNK0	0.000	
7	   C	0.656	-0.496	-5.284	C.2	1	UNK0	0.000	
8	   O	1.649	-0.348	-6.115	O.2	1	UNK0	0.000	
9	   N	0.613	0.291	-4.133	N.pl3	1	UNK0	0.000	
10	   C	1.741	1.237	-3.960	C.3	1	UNK0	0.000	
11	   C	2.318	1.068	-2.558	C.3	1	UNK0	0.000	
12	   N	1.247	0.929	-1.601	N.pl3	1	UNK0	0.000	
13	   C	-0.075	1.261	-2.048	C.3	1	UNK0	0.000	
14	   C	-0.423	0.237	-3.158	C.3	1	UNK0	0.000	
15	   C	1.475	0.489	-0.287	C.2	1	UNK0	0.000	
16	   N	0.438	0.367	0.598	N.2	1	UNK0	0.000	
17	   C	0.629	-0.049	1.853	C.2	1	UNK0	0.000	
18	   C	1.885	-0.373	2.307	C.2	1	UNK0	0.000	
19	   C	2.961	-0.258	1.424	C.2	1	UNK0	0.000	
20	   N	2.701	0.165	0.181	N.2	1	UNK0	0.000	
21	   C	4.351	-0.598	1.864	C.3	1	UNK0	0.000	
22	   N	-0.470	-0.159	2.729	N.pl3	1	UNK0	0.000	
23	   C	-0.330	-0.607	4.113	C.3	1	UNK0	0.000	
24	   C	-1.736	-0.814	4.640	C.3	1	UNK0	0.000	
25	   O	-2.478	0.354	4.625	O.3	1	UNK0	0.000	
26	   C	-2.498	0.978	3.400	C.3	1	UNK0	0.000	
27	   C	-1.834	0.169	2.315	C.3	1	UNK0	0.000	
28	   H	-1.906	-1.605	-4.103	 H	1	UNK0	0.000	
29	   H	-2.937	-3.456	-5.656	 H	1	UNK0	0.000	
30	   H	2.520	0.960	-4.656	 H	1	UNK0	0.000	
31	   H	1.368	2.265	-4.092	 H	1	UNK0	0.000	
32	   H	2.972	1.927	-2.379	 H	1	UNK0	0.000	
33	   H	2.933	0.143	-2.593	 H	1	UNK0	0.000	
34	   H	-0.125	2.252	-2.573	 H	1	UNK0	0.000	
35	   H	-0.843	1.183	-1.254	 H	1	UNK0	0.000	
36	   H	-0.447	-0.723	-2.603	 H	1	UNK0	0.000	
37	   H	-1.422	0.518	-3.562	 H	1	UNK0	0.000	
38	   H	2.095	-0.715	3.311	 H	1	UNK0	0.000	
39	   H	4.298	-1.080	2.859	 H	1	UNK0	0.000	
40	   H	4.767	-1.325	1.151	 H	1	UNK0	0.000	
41	   H	4.966	0.306	1.846	 H	1	UNK0	0.000	
42	   H	0.164	-1.579	4.092	 H	1	UNK0	0.000	
43	   H	0.230	0.135	4.717	 H	1	UNK0	0.000	
44	   H	-2.239	-1.536	3.974	 H	1	UNK0	0.000	
45	   H	-1.741	-1.204	5.675	 H	1	UNK0	0.000	
46	   H	-1.922	1.933	3.504	 H	1	UNK0	0.000	
47	   H	-3.525	1.223	3.055	 H	1	UNK0	0.000	
48	   H	-2.409	-0.711	2.018	 H	1	UNK0	0.000	
49	   H	-1.715	0.862	1.434	 H	1	UNK0	0.000	
@<TRIPOS>BOND
1 1 2 1
2 2 3 1
3 2 6 2
4 3 4 1
5 4 5 2
6 4 7 1
7 5 6 1
8 7 8 2
9 7 9 1
10 9 10 1
11 9 14 1
12 10 11 1
13 11 12 1
14 12 13 1
15 12 15 1
16 13 14 1
17 15 16 2
18 15 20 1
19 16 17 1
20 17 18 2
21 17 22 1
22 18 19 1
23 19 20 2
24 19 21 1
25 22 23 1
26 22 27 1
27 23 24 1
28 24 25 1
29 25 26 1
30 26 27 1
31 5 28 1
32 6 29 1
33 10 30 1
34 10 31 1
35 11 32 1
36 11 33 1
37 13 34 1
38 13 35 1
39 14 36 1
40 14 37 1
41 18 38 1
42 21 39 1
43 21 40 1
44 21 41 1
45 23 42 1
46 23 43 1
47 24 44 1
48 24 45 1
49 26 46 1
50 26 47 1
51 27 48 1
52 27 49 1
@<TRIPOS>SUBSTRUCTURE
1	UNK0	1	GROUP	1 ****	UNK
