# created with PyMOL 2.3.2
@<TRIPOS>MOLECULE
756
49 52 1                 
SMALL
USER_CHARGES
@<TRIPOS>ATOM
1	  Br	-3.096	6.655	0.344	Br	1	UNK0	0.000	
2	   C	-2.662	5.001	1.235	C.2	1	UNK0	0.000	
3	   O	-3.342	3.914	1.191	O.3	1	UNK0	0.000	
4	   C	-2.776	2.953	1.915	C.2	1	UNK0	0.000	
5	   C	-1.636	3.495	2.459	C.2	1	UNK0	0.000	
6	   C	-1.571	4.826	2.013	C.2	1	UNK0	0.000	
7	   C	-3.347	1.638	2.022	C.2	1	UNK0	0.000	
8	   O	-4.427	1.455	1.299	O.2	1	UNK0	0.000	
9	   N	-2.976	0.519	2.743	N.pl3	1	UNK0	0.000	
10	   C	-3.758	-0.754	2.611	C.3	1	UNK0	0.000	
11	   C	-2.785	-1.903	2.510	C.3	1	UNK0	0.000	
12	   N	-1.415	-1.482	2.268	N.pl3	1	UNK0	0.000	
13	   C	-0.787	-0.357	2.947	C.3	1	UNK0	0.000	
14	   C	-1.893	0.414	3.662	C.3	1	UNK0	0.000	
15	   C	-0.645	-2.205	1.319	C.2	1	UNK0	0.000	
16	   N	-1.194	-3.241	0.623	N.2	1	UNK0	0.000	
17	   C	-0.427	-3.901	-0.265	C.2	1	UNK0	0.000	
18	   N	0.858	-3.566	-0.481	N.2	1	UNK0	0.000	
19	   C	1.467	-2.550	0.175	C.2	1	UNK0	0.000	
20	   C	0.681	-1.877	1.082	C.2	1	UNK0	0.000	
21	   N	2.825	-2.219	-0.072	N.pl3	1	UNK0	0.000	
22	   C	3.586	-3.011	-1.037	C.3	1	UNK0	0.000	
23	   C	4.303	-2.120	-1.996	C.3	1	UNK0	0.000	
24	   O	4.966	-1.071	-1.386	O.3	1	UNK0	0.000	
25	   C	4.186	-0.319	-0.551	C.3	1	UNK0	0.000	
26	   C	3.530	-1.140	0.569	C.3	1	UNK0	0.000	
27	   C	-1.073	-5.024	-1.001	C.3	1	UNK0	0.000	
28	   H	-0.896	3.039	3.096	 H	1	UNK0	0.000	
29	   H	-0.803	5.544	2.251	 H	1	UNK0	0.000	
30	   H	-4.338	-0.837	3.531	 H	1	UNK0	0.000	
31	   H	-4.420	-0.657	1.743	 H	1	UNK0	0.000	
32	   H	-2.821	-2.556	3.412	 H	1	UNK0	0.000	
33	   H	-3.130	-2.533	1.664	 H	1	UNK0	0.000	
34	   H	-0.056	-0.655	3.715	 H	1	UNK0	0.000	
35	   H	-0.299	0.313	2.236	 H	1	UNK0	0.000	
36	   H	-2.225	-0.321	4.487	 H	1	UNK0	0.000	
37	   H	-1.534	1.284	4.165	 H	1	UNK0	0.000	
38	   H	1.074	-1.060	1.650	 H	1	UNK0	0.000	
39	   H	2.946	-3.711	-1.585	 H	1	UNK0	0.000	
40	   H	4.362	-3.545	-0.420	 H	1	UNK0	0.000	
41	   H	3.612	-1.777	-2.814	 H	1	UNK0	0.000	
42	   H	5.077	-2.737	-2.516	 H	1	UNK0	0.000	
43	   H	3.462	0.339	-1.053	 H	1	UNK0	0.000	
44	   H	4.886	0.377	-0.000	 H	1	UNK0	0.000	
45	   H	4.380	-1.575	1.140	 H	1	UNK0	0.000	
46	   H	2.921	-0.453	1.151	 H	1	UNK0	0.000	
47	   H	-0.387	-5.367	-1.816	 H	1	UNK0	0.000	
48	   H	-1.290	-5.849	-0.319	 H	1	UNK0	0.000	
49	   H	-2.011	-4.633	-1.471	 H	1	UNK0	0.000	
@<TRIPOS>BOND
1 1 2 1
2 2 3 1
3 2 6 2
4 3 4 1
5 4 5 2
6 4 7 1
7 5 6 1
8 7 8 2
9 7 9 1
10 9 10 1
11 9 14 1
12 10 11 1
13 11 12 1
14 12 13 1
15 12 15 1
16 13 14 1
17 15 16 2
18 15 20 1
19 16 17 1
20 17 18 2
21 17 27 1
22 18 19 1
23 19 20 2
24 19 21 1
25 21 22 1
26 21 26 1
27 22 23 1
28 23 24 1
29 24 25 1
30 25 26 1
31 5 28 1
32 6 29 1
33 10 30 1
34 10 31 1
35 11 32 1
36 11 33 1
37 13 34 1
38 13 35 1
39 14 36 1
40 14 37 1
41 20 38 1
42 22 39 1
43 22 40 1
44 23 41 1
45 23 42 1
46 25 43 1
47 25 44 1
48 26 45 1
49 26 46 1
50 27 47 1
51 27 48 1
52 27 49 1
@<TRIPOS>SUBSTRUCTURE
1	UNK0	1	GROUP	1 ****	UNK
