# created with PyMOL 2.3.2
@<TRIPOS>MOLECULE
757
40 43 1                 
SMALL
USER_CHARGES
@<TRIPOS>ATOM
1	  Br	-4.756	-2.814	-5.388	Br	1	UNK0	0.000	
2	   C	-3.596	-1.333	-5.075	C.2	1	UNK0	0.000	
3	   O	-3.216	-0.876	-3.911	O.3	1	UNK0	0.000	
4	   C	-2.425	0.142	-3.988	C.2	1	UNK0	0.000	
5	   C	-2.272	0.374	-5.363	C.2	1	UNK0	0.000	
6	   C	-3.005	-0.549	-6.046	C.2	1	UNK0	0.000	
7	   C	-1.778	0.946	-2.986	C.2	1	UNK0	0.000	
8	   O	-1.029	1.912	-3.370	O.2	1	UNK0	0.000	
9	   N	-1.877	0.787	-1.590	N.pl3	1	UNK0	0.000	
10	   C	-2.688	-0.255	-1.010	C.3	1	UNK0	0.000	
11	   C	-1.678	-1.242	-0.383	C.3	1	UNK0	0.000	
12	   N	-0.499	-0.499	0.023	N.pl3	1	UNK0	0.000	
13	   C	-0.700	0.823	0.530	C.3	1	UNK0	0.000	
14	   C	-1.150	1.672	-0.675	C.3	1	UNK0	0.000	
15	   C	0.790	-1.058	-0.078	C.2	1	UNK0	0.000	
16	   N	0.945	-2.368	-0.452	N.2	1	UNK0	0.000	
17	   C	2.145	-2.949	-0.568	C.2	1	UNK0	0.000	
18	   N	3.270	-2.256	-0.317	N.2	1	UNK0	0.000	
19	   C	3.227	-0.969	0.055	C.2	1	UNK0	0.000	
20	   C	1.967	-0.388	0.169	C.2	1	UNK0	0.000	
21	   N	4.417	-0.236	0.321	N.pl3	1	UNK0	0.000	
22	   C	5.475	-0.634	1.048	C.2	1	UNK0	0.000	
23	   N	6.423	0.318	1.086	N.2	1	UNK0	0.000	
24	   C	5.978	1.382	0.360	C.2	1	UNK0	0.000	
25	   C	4.734	1.001	-0.097	C.2	1	UNK0	0.000	
26	   H	-1.685	1.141	-5.848	 H	1	UNK0	0.000	
27	   H	-3.093	-0.632	-7.129	 H	1	UNK0	0.000	
28	   H	-3.363	-0.753	-1.679	 H	1	UNK0	0.000	
29	   H	-3.213	0.236	-0.138	 H	1	UNK0	0.000	
30	   H	-2.212	-1.692	0.479	 H	1	UNK0	0.000	
31	   H	-1.448	-2.009	-1.155	 H	1	UNK0	0.000	
32	   H	0.182	1.288	1.001	 H	1	UNK0	0.000	
33	   H	-1.559	0.836	1.278	 H	1	UNK0	0.000	
34	   H	-0.213	1.953	-1.199	 H	1	UNK0	0.000	
35	   H	-1.754	2.531	-0.357	 H	1	UNK0	0.000	
36	   H	2.241	-3.997	-0.869	 H	1	UNK0	0.000	
37	   H	1.954	0.636	0.462	 H	1	UNK0	0.000	
38	   H	5.572	-1.588	1.544	 H	1	UNK0	0.000	
39	   H	6.511	2.289	0.208	 H	1	UNK0	0.000	
40	   H	4.110	1.632	-0.712	 H	1	UNK0	0.000	
@<TRIPOS>BOND
1 1 2 1
2 2 3 1
3 2 6 2
4 3 4 1
5 4 5 2
6 4 7 1
7 5 6 1
8 7 8 2
9 7 9 1
10 9 10 1
11 9 14 1
12 10 11 1
13 11 12 1
14 12 13 1
15 12 15 1
16 13 14 1
17 15 16 2
18 15 20 1
19 16 17 1
20 17 18 2
21 18 19 1
22 19 20 2
23 19 21 1
24 21 22 1
25 21 25 1
26 22 23 2
27 23 24 1
28 24 25 2
29 5 26 1
30 6 27 1
31 10 28 1
32 10 29 1
33 11 30 1
34 11 31 1
35 13 32 1
36 13 33 1
37 14 34 1
38 14 35 1
39 17 36 1
40 20 37 1
41 22 38 1
42 24 39 1
43 25 40 1
@<TRIPOS>SUBSTRUCTURE
1	UNK0	1	GROUP	1 ****	UNK
