# created with PyMOL 2.3.2
@<TRIPOS>MOLECULE
758
40 43 1                 
SMALL
USER_CHARGES
@<TRIPOS>ATOM
1	  Br	-3.571	6.472	-4.918	Br	1	UNK0	0.000	
2	   C	-2.344	5.141	-4.277	C.2	1	UNK0	0.000	
3	   O	-2.611	3.938	-3.908	O.3	1	UNK0	0.000	
4	   C	-1.516	3.277	-3.516	C.2	1	UNK0	0.000	
5	   C	-0.491	4.145	-3.656	C.2	1	UNK0	0.000	
6	   C	-1.002	5.347	-4.143	C.2	1	UNK0	0.000	
7	   C	-1.541	1.918	-3.057	C.2	1	UNK0	0.000	
8	   O	-2.740	1.384	-3.058	O.2	1	UNK0	0.000	
9	   N	-0.493	1.102	-2.619	N.pl3	1	UNK0	0.000	
10	   C	0.864	1.570	-2.571	C.3	1	UNK0	0.000	
11	   C	1.799	0.463	-2.075	C.3	1	UNK0	0.000	
12	   N	1.254	-0.177	-0.905	N.pl3	1	UNK0	0.000	
13	   C	-0.087	-0.698	-0.987	C.3	1	UNK0	0.000	
14	   C	-0.827	-0.263	-2.207	C.3	1	UNK0	0.000	
15	   C	1.959	-0.324	0.318	C.2	1	UNK0	0.000	
16	   N	3.212	0.156	0.411	N.2	1	UNK0	0.000	
17	   C	3.938	0.050	1.544	C.2	1	UNK0	0.000	
18	   N	3.391	-0.553	2.608	N.2	1	UNK0	0.000	
19	   C	2.147	-1.064	2.615	C.2	1	UNK0	0.000	
20	   C	1.429	-0.936	1.427	C.2	1	UNK0	0.000	
21	   N	1.592	-1.700	3.762	N.pl3	1	UNK0	0.000	
22	   N	0.444	-1.482	4.344	N.2	1	UNK0	0.000	
23	   C	0.267	-2.284	5.411	C.2	1	UNK0	0.000	
24	   C	1.383	-3.071	5.516	C.2	1	UNK0	0.000	
25	   C	2.201	-2.675	4.457	C.2	1	UNK0	0.000	
26	   H	0.540	4.032	-3.460	 H	1	UNK0	0.000	
27	   H	-0.443	6.243	-4.363	 H	1	UNK0	0.000	
28	   H	1.175	1.849	-3.588	 H	1	UNK0	0.000	
29	   H	0.956	2.434	-1.896	 H	1	UNK0	0.000	
30	   H	2.777	0.921	-1.913	 H	1	UNK0	0.000	
31	   H	1.799	-0.301	-2.890	 H	1	UNK0	0.000	
32	   H	-0.697	-0.350	-0.101	 H	1	UNK0	0.000	
33	   H	-0.042	-1.800	-0.872	 H	1	UNK0	0.000	
34	   H	-0.606	-0.979	-3.027	 H	1	UNK0	0.000	
35	   H	-1.920	-0.289	-2.044	 H	1	UNK0	0.000	
36	   H	4.956	0.442	1.614	 H	1	UNK0	0.000	
37	   H	0.430	-1.327	1.378	 H	1	UNK0	0.000	
38	   H	-0.600	-2.316	6.080	 H	1	UNK0	0.000	
39	   H	1.557	-3.814	6.257	 H	1	UNK0	0.000	
40	   H	3.172	-3.090	4.234	 H	1	UNK0	0.000	
@<TRIPOS>BOND
1 1 2 1
2 2 3 1
3 2 6 2
4 3 4 1
5 4 5 2
6 4 7 1
7 5 6 1
8 7 8 2
9 7 9 1
10 9 10 1
11 9 14 1
12 10 11 1
13 11 12 1
14 12 13 1
15 12 15 1
16 13 14 1
17 15 16 2
18 15 20 1
19 16 17 1
20 17 18 2
21 18 19 1
22 19 20 2
23 19 21 1
24 21 22 1
25 21 25 1
26 22 23 2
27 23 24 1
28 24 25 2
29 5 26 1
30 6 27 1
31 10 28 1
32 10 29 1
33 11 30 1
34 11 31 1
35 13 32 1
36 13 33 1
37 14 34 1
38 14 35 1
39 17 36 1
40 20 37 1
41 23 38 1
42 24 39 1
43 25 40 1
@<TRIPOS>SUBSTRUCTURE
1	UNK0	1	GROUP	1 ****	UNK
