# created with PyMOL 2.3.2
@<TRIPOS>MOLECULE
759
46 49 1                 
SMALL
USER_CHARGES
@<TRIPOS>ATOM
1	  Br	1.059	1.718	-9.849	Br	1	UNK0	0.000	
2	   C	0.859	1.234	-8.005	C.2	1	UNK0	0.000	
3	   O	1.679	0.614	-7.235	O.3	1	UNK0	0.000	
4	   C	1.180	0.459	-6.002	C.2	1	UNK0	0.000	
5	   C	-0.055	1.031	-6.003	C.2	1	UNK0	0.000	
6	   C	-0.279	1.540	-7.297	C.2	1	UNK0	0.000	
7	   C	1.870	-0.200	-4.913	C.2	1	UNK0	0.000	
8	   O	3.062	-0.641	-5.200	O.2	1	UNK0	0.000	
9	   N	1.410	-0.414	-3.609	N.pl3	1	UNK0	0.000	
10	   C	0.147	-0.045	-3.039	C.3	1	UNK0	0.000	
11	   C	0.031	-0.559	-1.589	C.3	1	UNK0	0.000	
12	   N	1.143	-0.026	-0.846	N.pl3	1	UNK0	0.000	
13	   C	2.454	-0.111	-1.509	C.3	1	UNK0	0.000	
14	   C	2.329	-1.101	-2.677	C.3	1	UNK0	0.000	
15	   C	1.037	0.545	0.450	C.2	1	UNK0	0.000	
16	   N	2.125	1.138	1.015	N.2	1	UNK0	0.000	
17	   C	2.062	1.683	2.243	C.2	1	UNK0	0.000	
18	   N	0.921	1.648	2.931	N.2	1	UNK0	0.000	
19	   C	-0.209	1.076	2.444	C.2	1	UNK0	0.000	
20	   C	-0.127	0.525	1.189	C.2	1	UNK0	0.000	
21	   N	-1.361	1.094	3.256	N.pl3	1	UNK0	0.000	
22	   C	-2.644	0.538	2.886	C.3	1	UNK0	0.000	
23	   C	-2.979	-0.496	3.966	C.3	1	UNK0	0.000	
24	   O	-3.045	0.186	5.184	O.3	1	UNK0	0.000	
25	   C	-1.766	0.618	5.568	C.3	1	UNK0	0.000	
26	   C	-1.334	1.706	4.594	C.3	1	UNK0	0.000	
27	   H	-0.766	1.113	-5.199	 H	1	UNK0	0.000	
28	   H	-1.173	2.056	-7.625	 H	1	UNK0	0.000	
29	   H	-0.044	1.024	-2.974	 H	1	UNK0	0.000	
30	   H	-0.675	-0.564	-3.613	 H	1	UNK0	0.000	
31	   H	-0.919	-0.168	-1.160	 H	1	UNK0	0.000	
32	   H	0.006	-1.687	-1.587	 H	1	UNK0	0.000	
33	   H	3.121	-0.598	-0.767	 H	1	UNK0	0.000	
34	   H	2.813	0.859	-1.857	 H	1	UNK0	0.000	
35	   H	1.860	-2.043	-2.333	 H	1	UNK0	0.000	
36	   H	3.294	-1.302	-3.137	 H	1	UNK0	0.000	
37	   H	2.923	2.148	2.679	 H	1	UNK0	0.000	
38	   H	-1.006	0.073	0.803	 H	1	UNK0	0.000	
39	   H	-2.639	0.097	1.898	 H	1	UNK0	0.000	
40	   H	-3.411	1.357	2.910	 H	1	UNK0	0.000	
41	   H	-3.987	-0.916	3.777	 H	1	UNK0	0.000	
42	   H	-2.183	-1.242	3.984	 H	1	UNK0	0.000	
43	   H	-1.046	-0.218	5.470	 H	1	UNK0	0.000	
44	   H	-1.864	0.998	6.598	 H	1	UNK0	0.000	
45	   H	-0.357	2.121	4.840	 H	1	UNK0	0.000	
46	   H	-2.107	2.492	4.628	 H	1	UNK0	0.000	
@<TRIPOS>BOND
1 1 2 1
2 2 3 1
3 2 6 2
4 3 4 1
5 4 5 2
6 4 7 1
7 5 6 1
8 7 8 2
9 7 9 1
10 9 10 1
11 9 14 1
12 10 11 1
13 11 12 1
14 12 13 1
15 12 15 1
16 13 14 1
17 15 16 2
18 15 20 1
19 16 17 1
20 17 18 2
21 18 19 1
22 19 20 2
23 19 21 1
24 21 22 1
25 21 26 1
26 22 23 1
27 23 24 1
28 24 25 1
29 25 26 1
30 5 27 1
31 6 28 1
32 10 29 1
33 10 30 1
34 11 31 1
35 11 32 1
36 13 33 1
37 13 34 1
38 14 35 1
39 14 36 1
40 17 37 1
41 20 38 1
42 22 39 1
43 22 40 1
44 23 41 1
45 23 42 1
46 25 43 1
47 25 44 1
48 26 45 1
49 26 46 1
@<TRIPOS>SUBSTRUCTURE
1	UNK0	1	GROUP	1 ****	UNK
