# created with PyMOL 2.3.2
@<TRIPOS>MOLECULE
760
41 44 1                 
SMALL
USER_CHARGES
@<TRIPOS>ATOM
1	  Br	1.185	3.319	-4.557	Br	1	UNK0	0.000	
2	   C	2.188	3.059	-2.923	C.2	1	UNK0	0.000	
3	   O	1.725	2.663	-1.776	O.3	1	UNK0	0.000	
4	   C	2.667	2.593	-0.879	C.2	1	UNK0	0.000	
5	   C	3.838	2.974	-1.490	C.2	1	UNK0	0.000	
6	   C	3.541	3.272	-2.791	C.2	1	UNK0	0.000	
7	   C	2.559	2.191	0.528	C.2	1	UNK0	0.000	
8	   O	3.566	2.183	1.242	O.2	1	UNK0	0.000	
9	   N	1.285	1.808	1.074	N.pl3	1	UNK0	0.000	
10	   C	0.091	1.803	0.274	C.3	1	UNK0	0.000	
11	   C	-1.028	1.122	1.022	C.3	1	UNK0	0.000	
12	   N	-0.538	-0.046	1.674	N.pl3	1	UNK0	0.000	
13	   C	0.478	0.123	2.693	C.3	1	UNK0	0.000	
14	   C	1.194	1.421	2.452	C.3	1	UNK0	0.000	
15	   C	-0.967	-1.364	1.404	C.2	1	UNK0	0.000	
16	   N	-1.530	-2.129	2.363	N.2	1	UNK0	0.000	
17	   C	-1.945	-3.386	2.123	C.2	1	UNK0	0.000	
18	   N	-1.808	-3.924	0.898	N.2	1	UNK0	0.000	
19	   C	-1.256	-3.223	-0.114	C.2	1	UNK0	0.000	
20	   N	-0.987	-3.466	-1.406	N.pl3	1	UNK0	0.000	
21	   N	-0.432	-2.379	-1.898	N.2	1	UNK0	0.000	
22	   N	-0.332	-1.442	-0.970	N.2	1	UNK0	0.000	
23	   C	-0.836	-1.934	0.154	C.2	1	UNK0	0.000	
24	   C	-1.282	-4.725	-2.077	C.3	1	UNK0	0.000	
25	   C	-0.107	-5.684	-1.965	C.3	1	UNK0	0.000	
26	   H	4.836	3.040	-1.062	 H	1	UNK0	0.000	
27	   H	4.201	3.611	-3.594	 H	1	UNK0	0.000	
28	   H	-0.213	2.861	0.021	 H	1	UNK0	0.000	
29	   H	0.189	1.290	-0.691	 H	1	UNK0	0.000	
30	   H	-1.337	1.845	1.833	 H	1	UNK0	0.000	
31	   H	-1.925	0.967	0.410	 H	1	UNK0	0.000	
32	   H	-0.061	0.117	3.675	 H	1	UNK0	0.000	
33	   H	1.173	-0.743	2.714	 H	1	UNK0	0.000	
34	   H	2.178	1.357	2.951	 H	1	UNK0	0.000	
35	   H	0.625	2.207	3.024	 H	1	UNK0	0.000	
36	   H	-2.384	-3.953	2.917	 H	1	UNK0	0.000	
37	   H	-1.528	-4.557	-3.144	 H	1	UNK0	0.000	
38	   H	-2.138	-5.232	-1.575	 H	1	UNK0	0.000	
39	   H	-0.106	-6.329	-2.853	 H	1	UNK0	0.000	
40	   H	0.862	-5.126	-1.930	 H	1	UNK0	0.000	
41	   H	-0.202	-6.295	-1.053	 H	1	UNK0	0.000	
@<TRIPOS>BOND
1 1 2 1
2 2 3 1
3 2 6 2
4 3 4 1
5 4 5 2
6 4 7 1
7 5 6 1
8 7 8 2
9 7 9 1
10 9 10 1
11 9 14 1
12 10 11 1
13 11 12 1
14 12 13 1
15 12 15 1
16 13 14 1
17 15 16 2
18 15 23 1
19 16 17 1
20 17 18 2
21 18 19 1
22 19 20 1
23 19 23 2
24 20 21 1
25 20 24 1
26 21 22 2
27 22 23 1
28 24 25 1
29 5 26 1
30 6 27 1
31 10 28 1
32 10 29 1
33 11 30 1
34 11 31 1
35 13 32 1
36 13 33 1
37 14 34 1
38 14 35 1
39 17 36 1
40 24 37 1
41 24 38 1
42 25 39 1
43 25 40 1
44 25 41 1
@<TRIPOS>SUBSTRUCTURE
1	UNK0	1	GROUP	1 ****	UNK
