# created with PyMOL 2.3.2
@<TRIPOS>MOLECULE
761
38 41 1                 
SMALL
USER_CHARGES
@<TRIPOS>ATOM
1	  Br	-3.641	-2.552	-6.292	Br	1	UNK0	0.000	
2	   C	-3.032	-1.746	-4.654	C.2	1	UNK0	0.000	
3	   O	-2.677	-2.365	-3.578	O.3	1	UNK0	0.000	
4	   C	-2.303	-1.502	-2.611	C.2	1	UNK0	0.000	
5	   C	-2.451	-0.261	-3.170	C.2	1	UNK0	0.000	
6	   C	-2.913	-0.398	-4.463	C.2	1	UNK0	0.000	
7	   C	-1.856	-1.944	-1.301	C.2	1	UNK0	0.000	
8	   O	-1.801	-3.252	-1.200	O.2	1	UNK0	0.000	
9	   N	-1.483	-1.264	-0.162	N.pl3	1	UNK0	0.000	
10	   C	-1.023	-2.044	1.015	C.3	1	UNK0	0.000	
11	   C	0.220	-1.448	1.593	C.3	1	UNK0	0.000	
12	   N	0.431	-0.062	1.370	N.pl3	1	UNK0	0.000	
13	   C	-0.022	0.548	0.137	C.3	1	UNK0	0.000	
14	   C	-1.505	0.153	0.024	C.3	1	UNK0	0.000	
15	   C	1.079	0.806	2.306	C.2	1	UNK0	0.000	
16	   N	0.430	1.884	2.826	N.2	1	UNK0	0.000	
17	   C	1.035	2.710	3.712	C.2	1	UNK0	0.000	
18	   N	2.294	2.524	4.128	N.2	1	UNK0	0.000	
19	   C	2.985	1.466	3.642	C.2	1	UNK0	0.000	
20	   N	4.236	1.029	3.867	N.pl3	1	UNK0	0.000	
21	   N	4.386	-0.047	3.128	N.2	1	UNK0	0.000	
22	   N	3.279	-0.311	2.442	N.2	1	UNK0	0.000	
23	   C	2.373	0.612	2.732	C.2	1	UNK0	0.000	
24	   C	5.216	1.653	4.767	C.3	1	UNK0	0.000	
25	   H	-2.249	0.696	-2.737	 H	1	UNK0	0.000	
26	   H	-3.134	0.410	-5.179	 H	1	UNK0	0.000	
27	   H	-0.810	-3.057	0.648	 H	1	UNK0	0.000	
28	   H	-1.877	-2.091	1.704	 H	1	UNK0	0.000	
29	   H	1.135	-2.001	1.244	 H	1	UNK0	0.000	
30	   H	0.191	-1.635	2.699	 H	1	UNK0	0.000	
31	   H	0.113	1.629	0.106	 H	1	UNK0	0.000	
32	   H	0.547	0.088	-0.715	 H	1	UNK0	0.000	
33	   H	-2.085	0.754	-0.634	 H	1	UNK0	0.000	
34	   H	-1.870	0.293	1.109	 H	1	UNK0	0.000	
35	   H	0.435	3.548	4.074	 H	1	UNK0	0.000	
36	   H	5.082	2.758	4.651	 H	1	UNK0	0.000	
37	   H	6.235	1.348	4.532	 H	1	UNK0	0.000	
38	   H	4.892	1.408	5.794	 H	1	UNK0	0.000	
@<TRIPOS>BOND
1 1 2 1
2 2 3 1
3 2 6 2
4 3 4 1
5 4 5 2
6 4 7 1
7 5 6 1
8 7 8 2
9 7 9 1
10 9 10 1
11 9 14 1
12 10 11 1
13 11 12 1
14 12 13 1
15 12 15 1
16 13 14 1
17 15 16 2
18 15 23 1
19 16 17 1
20 17 18 2
21 18 19 1
22 19 20 1
23 19 23 2
24 20 21 1
25 20 24 1
26 21 22 2
27 22 23 1
28 5 25 1
29 6 26 1
30 10 27 1
31 10 28 1
32 11 29 1
33 11 30 1
34 13 31 1
35 13 32 1
36 14 33 1
37 14 34 1
38 17 35 1
39 24 36 1
40 24 37 1
41 24 38 1
@<TRIPOS>SUBSTRUCTURE
1	UNK0	1	GROUP	1 ****	UNK
