# created with PyMOL 2.3.2
@<TRIPOS>MOLECULE
766
47 50 1                 
SMALL
USER_CHARGES
@<TRIPOS>ATOM
1	  Br	4.384	-2.009	7.719	Br	1	UNK0	0.000	
2	   C	4.365	-1.041	6.078	C.2	1	UNK0	0.000	
3	   O	3.284	-0.669	5.440	O.3	1	UNK0	0.000	
4	   C	3.587	-0.019	4.341	C.2	1	UNK0	0.000	
5	   C	4.961	0.031	4.264	C.2	1	UNK0	0.000	
6	   C	5.480	-0.625	5.380	C.2	1	UNK0	0.000	
7	   C	2.655	0.552	3.368	C.2	1	UNK0	0.000	
8	   N	3.112	1.166	2.331	N.2	1	UNK0	0.000	
9	   N	2.345	1.744	1.345	N.pl3	1	UNK0	0.000	
10	   C	1.381	0.965	0.642	C.2	1	UNK0	0.000	
11	   N	0.605	1.466	-0.325	N.2	1	UNK0	0.000	
12	   C	-0.318	0.738	-1.007	C.2	1	UNK0	0.000	
13	   N	-0.419	-0.565	-0.647	N.2	1	UNK0	0.000	
14	   C	0.329	-1.130	0.313	C.2	1	UNK0	0.000	
15	   N	1.218	-0.340	0.938	N.2	1	UNK0	0.000	
16	   N	0.233	-2.480	0.694	N.pl3	1	UNK0	0.000	
17	   C	-0.713	-3.345	0.039	C.3	1	UNK0	0.000	
18	   C	-1.391	-4.212	1.096	C.3	1	UNK0	0.000	
19	   O	-0.481	-4.753	1.975	O.3	1	UNK0	0.000	
20	   C	0.235	-3.822	2.690	C.3	1	UNK0	0.000	
21	   C	1.070	-3.009	1.732	C.3	1	UNK0	0.000	
22	   N	-1.114	1.309	-2.018	N.pl3	1	UNK0	0.000	
23	   C	-2.075	0.499	-2.708	C.3	1	UNK0	0.000	
24	   C	-3.331	1.324	-2.906	C.3	1	UNK0	0.000	
25	   O	-3.026	2.562	-3.467	O.3	1	UNK0	0.000	
26	   C	-2.340	3.335	-2.520	C.3	1	UNK0	0.000	
27	   C	-0.967	2.693	-2.359	C.3	1	UNK0	0.000	
28	   H	5.512	0.503	3.467	 H	1	UNK0	0.000	
29	   H	6.525	-0.763	5.620	 H	1	UNK0	0.000	
30	   H	1.585	0.481	3.481	 H	1	UNK0	0.000	
31	   H	2.478	2.753	1.124	 H	1	UNK0	0.000	
32	   H	-0.193	-4.031	-0.684	 H	1	UNK0	0.000	
33	   H	-1.482	-2.786	-0.513	 H	1	UNK0	0.000	
34	   H	-1.895	-5.038	0.563	 H	1	UNK0	0.000	
35	   H	-2.094	-3.560	1.657	 H	1	UNK0	0.000	
36	   H	-0.391	-3.116	3.271	 H	1	UNK0	0.000	
37	   H	0.908	-4.366	3.380	 H	1	UNK0	0.000	
38	   H	1.641	-2.214	2.252	 H	1	UNK0	0.000	
39	   H	1.856	-3.688	1.290	 H	1	UNK0	0.000	
40	   H	-1.713	0.192	-3.711	 H	1	UNK0	0.000	
41	   H	-2.342	-0.408	-2.128	 H	1	UNK0	0.000	
42	   H	-3.803	1.526	-1.923	 H	1	UNK0	0.000	
43	   H	-4.029	0.801	-3.602	 H	1	UNK0	0.000	
44	   H	-2.921	3.315	-1.586	 H	1	UNK0	0.000	
45	   H	-2.218	4.365	-2.896	 H	1	UNK0	0.000	
46	   H	-0.477	2.771	-3.357	 H	1	UNK0	0.000	
47	   H	-0.345	3.258	-1.636	 H	1	UNK0	0.000	
@<TRIPOS>BOND
1 1 2 1
2 2 3 1
3 2 6 2
4 3 4 1
5 4 5 2
6 4 7 1
7 5 6 1
8 7 8 2
9 8 9 1
10 9 10 1
11 10 11 2
12 10 15 1
13 11 12 1
14 12 13 2
15 12 22 1
16 13 14 1
17 14 15 2
18 14 16 1
19 16 17 1
20 16 21 1
21 17 18 1
22 18 19 1
23 19 20 1
24 20 21 1
25 22 23 1
26 22 27 1
27 23 24 1
28 24 25 1
29 25 26 1
30 26 27 1
31 5 28 1
32 6 29 1
33 7 30 1
34 9 31 1
35 17 32 1
36 17 33 1
37 18 34 1
38 18 35 1
39 20 36 1
40 20 37 1
41 21 38 1
42 21 39 1
43 23 40 1
44 23 41 1
45 24 42 1
46 24 43 1
47 26 44 1
48 26 45 1
49 27 46 1
50 27 47 1
@<TRIPOS>SUBSTRUCTURE
1	UNK0	1	GROUP	1 ****	UNK
