# created with PyMOL 2.3.2
@<TRIPOS>MOLECULE
769
43 46 1                 
SMALL
USER_CHARGES
@<TRIPOS>ATOM
1	  Br	-5.956	4.459	-2.075	Br	1	UNK0	0.000	
2	   C	-6.103	2.841	-1.121	C.2	1	UNK0	0.000	
3	   C	-4.986	2.220	-0.554	C.2	1	UNK0	0.000	
4	   C	-5.144	1.045	0.130	C.2	1	UNK0	0.000	
5	   C	-6.442	0.533	0.217	C.2	1	UNK0	0.000	
6	   O	-7.446	1.145	-0.325	O.3	1	UNK0	0.000	
7	   C	-7.334	2.250	-0.974	C.2	1	UNK0	0.000	
8	   O	-8.370	2.768	-1.466	O.co2	1	UNK0	0.000	
9	   C	-4.050	0.324	0.752	C.2	1	UNK0	0.000	
10	   O	-4.459	-0.778	1.352	O.2	1	UNK0	0.000	
11	   N	-2.688	0.575	0.827	N.pl3	1	UNK0	0.000	
12	   C	-1.821	-0.387	1.554	C.3	1	UNK0	0.000	
13	   C	-0.730	-0.856	0.621	C.3	1	UNK0	0.000	
14	   N	0.001	0.253	0.150	N.3	1	UNK0	0.000	
15	   C	-0.501	1.485	0.655	C.3	1	UNK0	0.000	
16	   C	-1.990	1.673	0.277	C.3	1	UNK0	0.000	
17	   C	1.423	0.161	0.247	C.3	1	UNK0	0.000	
18	   C	2.044	-0.938	-0.514	C.2	1	UNK0	0.000	
19	   C	1.464	-1.583	-1.557	C.2	1	UNK0	0.000	
20	   C	2.122	-2.600	-2.203	C.2	1	UNK0	0.000	
21	   C	3.374	-2.966	-1.789	C.2	1	UNK0	0.000	
22	   C	3.983	-2.326	-0.733	C.2	1	UNK0	0.000	
23	   C	3.310	-1.324	-0.113	C.2	1	UNK0	0.000	
24	   O	3.838	-4.004	-2.579	O.3	1	UNK0	0.000	
25	   C	2.702	-4.524	-3.255	C.3	1	UNK0	0.000	
26	   O	1.798	-3.436	-3.283	O.3	1	UNK0	0.000	
27	   H	-4.054	2.715	-0.694	 H	1	UNK0	0.000	
28	   H	-6.641	-0.418	0.759	 H	1	UNK0	0.000	
29	   H	-2.462	-1.247	1.861	 H	1	UNK0	0.000	
30	   H	-1.392	0.091	2.432	 H	1	UNK0	0.000	
31	   H	-0.065	-1.571	1.198	 H	1	UNK0	0.000	
32	   H	-1.148	-1.515	-0.185	 H	1	UNK0	0.000	
33	   H	-0.427	1.663	1.723	 H	1	UNK0	0.000	
34	   H	0.070	2.298	0.125	 H	1	UNK0	0.000	
35	   H	-2.023	1.793	-0.815	 H	1	UNK0	0.000	
36	   H	-2.331	2.644	0.733	 H	1	UNK0	0.000	
37	   H	1.839	1.117	-0.192	 H	1	UNK0	0.000	
38	   H	1.801	0.140	1.283	 H	1	UNK0	0.000	
39	   H	0.484	-1.310	-1.901	 H	1	UNK0	0.000	
40	   H	4.969	-2.622	-0.415	 H	1	UNK0	0.000	
41	   H	3.804	-0.828	0.718	 H	1	UNK0	0.000	
42	   H	2.292	-5.415	-2.783	 H	1	UNK0	0.000	
43	   H	2.936	-4.764	-4.315	 H	1	UNK0	0.000	
@<TRIPOS>BOND
1 1 2 1
2 2 3 2
3 2 7 1
4 3 4 1
5 4 5 2
6 4 9 1
7 5 6 1
8 6 7 1
9 7 8 2
10 9 10 2
11 9 11 1
12 11 12 1
13 11 16 1
14 12 13 1
15 13 14 1
16 14 15 1
17 14 17 1
18 15 16 1
19 17 18 1
20 18 19 2
21 18 23 1
22 19 20 1
23 20 21 2
24 20 26 1
25 21 22 1
26 21 24 1
27 22 23 2
28 24 25 1
29 25 26 1
30 3 27 1
31 5 28 1
32 12 29 1
33 12 30 1
34 13 31 1
35 13 32 1
36 15 33 1
37 15 34 1
38 16 35 1
39 16 36 1
40 17 37 1
41 17 38 1
42 19 39 1
43 22 40 1
44 23 41 1
45 25 42 1
46 25 43 1
@<TRIPOS>SUBSTRUCTURE
1	UNK0	1	GROUP	1 ****	UNK
