# created with PyMOL 2.3.2
@<TRIPOS>MOLECULE
772
40 43 1                 
SMALL
USER_CHARGES
@<TRIPOS>ATOM
1	  Br	-4.623	-1.813	4.938	Br	1	UNK0	0.000	
2	   C	-3.538	-1.342	3.453	C.2	1	UNK0	0.000	
3	   C	-4.140	-0.989	2.266	C.2	1	UNK0	0.000	
4	   C	-3.322	-0.660	1.223	C.2	1	UNK0	0.000	
5	   C	-1.944	-0.694	1.387	C.2	1	UNK0	0.000	
6	   N	-1.371	-1.036	2.530	N.pl3	1	UNK0	0.000	
7	   C	-2.145	-1.356	3.554	C.2	1	UNK0	0.000	
8	   N	-1.403	-1.650	4.598	N.2	1	UNK0	0.000	
9	   C	-0.129	-1.511	4.223	C.2	1	UNK0	0.000	
10	   C	-0.015	-1.119	2.911	C.2	1	UNK0	0.000	
11	   N	0.957	-0.893	2.066	N.pl3	1	UNK0	0.000	
12	   C	1.994	-0.651	1.163	C.2	1	UNK0	0.000	
13	   O	3.194	-0.558	1.453	O.2	1	UNK0	0.000	
14	   N	1.742	-0.492	-0.253	N.pl3	1	UNK0	0.000	
15	   C	2.818	-0.263	-1.169	C.3	1	UNK0	0.000	
16	   C	2.565	0.865	-2.133	C.3	1	UNK0	0.000	
17	   C	1.146	0.740	-2.635	C.3	1	UNK0	0.000	
18	   C	0.837	-0.688	-2.988	C.2	1	UNK0	0.000	
19	   N	-0.296	-1.150	-3.606	N.pl3	1	UNK0	0.000	
20	   N	-0.136	-2.453	-3.697	N.2	1	UNK0	0.000	
21	   N	1.030	-2.841	-3.175	N.2	1	UNK0	0.000	
22	   C	1.681	-1.728	-2.711	C.2	1	UNK0	0.000	
23	   C	2.983	-1.512	-2.058	C.3	1	UNK0	0.000	
24	   C	-1.427	-0.331	-4.067	C.3	1	UNK0	0.000	
25	   H	-5.209	-0.962	2.133	 H	1	UNK0	0.000	
26	   H	-3.724	-0.372	0.274	 H	1	UNK0	0.000	
27	   H	-1.321	-0.428	0.550	 H	1	UNK0	0.000	
28	   H	0.679	-1.714	4.951	 H	1	UNK0	0.000	
29	   H	1.911	-0.817	3.045	 H	1	UNK0	0.000	
30	   H	0.770	-0.552	-0.554	 H	1	UNK0	0.000	
31	   H	3.790	-0.092	-0.629	 H	1	UNK0	0.000	
32	   H	3.268	0.749	-3.022	 H	1	UNK0	0.000	
33	   H	2.748	1.857	-1.665	 H	1	UNK0	0.000	
34	   H	0.918	1.441	-3.445	 H	1	UNK0	0.000	
35	   H	0.458	1.036	-1.793	 H	1	UNK0	0.000	
36	   H	3.359	-2.363	-1.469	 H	1	UNK0	0.000	
37	   H	3.728	-1.295	-2.856	 H	1	UNK0	0.000	
38	   H	-1.989	-0.941	-4.774	 H	1	UNK0	0.000	
39	   H	-1.011	0.598	-4.514	 H	1	UNK0	0.000	
40	   H	-2.091	-0.079	-3.219	 H	1	UNK0	0.000	
@<TRIPOS>BOND
1 1 2 1
2 2 3 2
3 2 7 1
4 3 4 1
5 4 5 2
6 5 6 1
7 6 7 1
8 6 10 1
9 7 8 2
10 8 9 1
11 9 10 2
12 10 11 1
13 11 12 1
14 12 13 2
15 12 14 1
16 14 15 1
17 15 16 1
18 15 23 1
19 16 17 1
20 17 18 1
21 18 19 1
22 18 22 2
23 19 20 1
24 19 24 1
25 20 21 2
26 21 22 1
27 22 23 1
28 3 25 1
29 4 26 1
30 5 27 1
31 9 28 1
32 11 29 1
33 14 30 1
34 15 31 1
35 16 32 1
36 16 33 1
37 17 34 1
38 17 35 1
39 23 36 1
40 23 37 1
41 24 38 1
42 24 39 1
43 24 40 1
@<TRIPOS>SUBSTRUCTURE
1	UNK0	1	GROUP	1 ****	UNK
