# created with PyMOL 2.3.2
@<TRIPOS>MOLECULE
773
51 54 1                 
SMALL
USER_CHARGES
@<TRIPOS>ATOM
1	  Br	-5.992	-0.185	-3.495	Br	1	UNK0	0.000	
2	   C	-4.235	0.348	-3.990	C.2	1	UNK0	0.000	
3	   C	-3.884	0.532	-5.313	C.2	1	UNK0	0.000	
4	   N	-2.630	0.909	-5.626	N.pl3	1	UNK0	0.000	
5	   C	-1.689	1.117	-4.706	C.2	1	UNK0	0.000	
6	   O	-0.516	1.474	-5.068	O.2	1	UNK0	0.000	
7	   C	-1.967	0.950	-3.333	C.2	1	UNK0	0.000	
8	   C	-3.248	0.568	-3.035	C.2	1	UNK0	0.000	
9	   N	-0.947	1.245	-2.424	N.pl3	1	UNK0	0.000	
10	   C	-0.756	0.875	-1.079	C.2	1	UNK0	0.000	
11	   N	0.240	1.492	-0.361	N.2	1	UNK0	0.000	
12	   C	0.532	1.176	0.896	C.2	1	UNK0	0.000	
13	   C	-0.137	0.192	1.613	C.2	1	UNK0	0.000	
14	   C	-1.142	-0.456	0.941	C.2	1	UNK0	0.000	
15	   C	-1.422	-0.097	-0.385	C.2	1	UNK0	0.000	
16	   N	0.218	-0.075	2.954	N.pl3	1	UNK0	0.000	
17	   C	-0.051	-1.345	3.589	C.3	1	UNK0	0.000	
18	   C	1.329	-1.954	3.860	C.3	1	UNK0	0.000	
19	   N	2.358	-1.015	4.066	N.3	1	UNK0	0.000	
20	   C	2.060	0.286	4.485	C.3	1	UNK0	0.000	
21	   C	0.858	0.885	3.827	C.3	1	UNK0	0.000	
22	   C	3.504	-1.284	3.309	C.3	1	UNK0	0.000	
23	   C	3.265	-1.189	1.818	C.3	1	UNK0	0.000	
24	   O	3.595	0.183	1.943	O.3	1	UNK0	0.000	
25	   C	4.471	-0.215	2.948	C.3	1	UNK0	0.000	
26	   C	1.177	-2.950	4.994	C.3	1	UNK0	0.000	
27	   C	-2.271	1.105	-7.032	C.3	1	UNK0	0.000	
28	   H	-4.636	0.367	-6.082	 H	1	UNK0	0.000	
29	   H	-3.574	0.457	-1.997	 H	1	UNK0	0.000	
30	   H	-0.166	1.878	-2.823	 H	1	UNK0	0.000	
31	   H	1.342	1.685	1.447	 H	1	UNK0	0.000	
32	   H	-1.716	-1.233	1.431	 H	1	UNK0	0.000	
33	   H	-2.187	-0.662	-0.876	 H	1	UNK0	0.000	
34	   H	-0.618	-1.975	2.890	 H	1	UNK0	0.000	
35	   H	-0.579	-1.215	4.563	 H	1	UNK0	0.000	
36	   H	1.567	-2.540	2.925	 H	1	UNK0	0.000	
37	   H	1.977	0.283	5.609	 H	1	UNK0	0.000	
38	   H	2.915	0.964	4.208	 H	1	UNK0	0.000	
39	   H	0.102	1.038	4.666	 H	1	UNK0	0.000	
40	   H	1.021	1.874	3.396	 H	1	UNK0	0.000	
41	   H	4.022	-2.258	3.502	 H	1	UNK0	0.000	
42	   H	4.087	-1.668	1.214	 H	1	UNK0	0.000	
43	   H	2.271	-1.387	1.439	 H	1	UNK0	0.000	
44	   H	5.374	-0.682	2.448	 H	1	UNK0	0.000	
45	   H	4.791	0.513	3.681	 H	1	UNK0	0.000	
46	   H	0.109	-3.236	5.057	 H	1	UNK0	0.000	
47	   H	1.718	-3.903	4.766	 H	1	UNK0	0.000	
48	   H	1.484	-2.492	5.933	 H	1	UNK0	0.000	
49	   H	-3.202	1.186	-7.620	 H	1	UNK0	0.000	
50	   H	-1.715	0.227	-7.416	 H	1	UNK0	0.000	
51	   H	-1.707	2.053	-7.149	 H	1	UNK0	0.000	
@<TRIPOS>BOND
1 1 2 1
2 2 3 2
3 2 8 1
4 3 4 1
5 4 5 1
6 4 27 1
7 5 6 2
8 5 7 1
9 7 8 2
10 7 9 1
11 9 10 1
12 10 11 2
13 10 15 1
14 11 12 1
15 12 13 2
16 13 14 1
17 13 16 1
18 14 15 2
19 16 17 1
20 16 21 1
21 17 18 1
22 18 19 1
23 18 26 1
24 19 20 1
25 19 22 1
26 20 21 1
27 22 23 1
28 22 25 1
29 23 24 1
30 24 25 1
31 3 28 1
32 8 29 1
33 9 30 1
34 12 31 1
35 14 32 1
36 15 33 1
37 17 34 1
38 17 35 1
39 18 36 1
40 20 37 1
41 20 38 1
42 21 39 1
43 21 40 1
44 22 41 1
45 23 42 1
46 23 43 1
47 25 44 1
48 25 45 1
49 26 46 1
50 26 47 1
51 26 48 1
52 27 49 1
53 27 50 1
54 27 51 1
@<TRIPOS>SUBSTRUCTURE
1	UNK0	1	GROUP	1 ****	UNK
