# created with PyMOL 2.3.2
@<TRIPOS>MOLECULE
774
47 50 1                 
SMALL
USER_CHARGES
@<TRIPOS>ATOM
1	  Br	4.640	0.054	4.757	Br	1	UNK0	0.000	
2	   C	3.560	-1.211	3.798	C.2	1	UNK0	0.000	
3	   C	4.080	-1.904	2.739	C.2	1	UNK0	0.000	
4	   N	3.304	-2.808	2.071	N.pl3	1	UNK0	0.000	
5	   C	2.036	-3.023	2.448	C.2	1	UNK0	0.000	
6	   O	1.332	-3.849	1.831	O.2	1	UNK0	0.000	
7	   C	1.477	-2.331	3.530	C.2	1	UNK0	0.000	
8	   C	2.256	-1.414	4.207	C.2	1	UNK0	0.000	
9	   C	3.946	-3.487	0.984	C.3	1	UNK0	0.000	
10	   C	3.612	-2.699	-0.318	C.2	1	UNK0	0.000	
11	   O	4.591	-2.798	-1.139	O.2	1	UNK0	0.000	
12	   N	2.496	-2.097	-0.421	N.pl3	1	UNK0	0.000	
13	   N	1.282	-1.436	-0.545	N.pl3	1	UNK0	0.000	
14	   C	0.951	-0.354	0.294	C.2	1	UNK0	0.000	
15	   O	1.769	0.010	1.170	O.2	1	UNK0	0.000	
16	   C	-0.337	0.339	0.146	C.3	1	UNK0	0.000	
17	   C	-0.708	1.005	1.472	C.3	1	UNK0	0.000	
18	   C	-1.944	1.823	1.314	C.3	1	UNK0	0.000	
19	   C	-3.102	0.906	0.965	C.3	1	UNK0	0.000	
20	   C	-2.746	0.225	-0.320	C.3	1	UNK0	0.000	
21	   C	-1.456	-0.559	-0.222	C.3	1	UNK0	0.000	
22	   C	-2.635	1.259	-1.406	C.3	1	UNK0	0.000	
23	   C	-1.478	2.177	-1.050	C.3	1	UNK0	0.000	
24	   C	-0.181	1.397	-0.927	C.3	1	UNK0	0.000	
25	   C	-1.730	2.864	0.260	C.3	1	UNK0	0.000	
26	   H	5.081	-1.733	2.432	 H	1	UNK0	0.000	
27	   H	0.469	-2.481	3.849	 H	1	UNK0	0.000	
28	   H	1.862	-0.849	5.065	 H	1	UNK0	0.000	
29	   H	3.539	-4.479	0.832	 H	1	UNK0	0.000	
30	   H	5.038	-3.490	1.078	 H	1	UNK0	0.000	
31	   H	2.795	-1.542	-1.664	 H	1	UNK0	0.000	
32	   H	0.574	-1.782	-1.265	 H	1	UNK0	0.000	
33	   H	-0.834	0.176	2.187	 H	1	UNK0	0.000	
34	   H	0.151	1.604	1.797	 H	1	UNK0	0.000	
35	   H	-2.188	2.353	2.247	 H	1	UNK0	0.000	
36	   H	-3.976	1.594	0.749	 H	1	UNK0	0.000	
37	   H	-3.272	0.245	1.808	 H	1	UNK0	0.000	
38	   H	-3.558	-0.472	-0.613	 H	1	UNK0	0.000	
39	   H	-1.565	-1.358	0.534	 H	1	UNK0	0.000	
40	   H	-1.323	-1.012	-1.245	 H	1	UNK0	0.000	
41	   H	-2.408	0.744	-2.356	 H	1	UNK0	0.000	
42	   H	-3.558	1.885	-1.472	 H	1	UNK0	0.000	
43	   H	-1.374	2.922	-1.848	 H	1	UNK0	0.000	
44	   H	0.596	2.114	-0.579	 H	1	UNK0	0.000	
45	   H	0.099	0.920	-1.862	 H	1	UNK0	0.000	
46	   H	-0.795	3.413	0.511	 H	1	UNK0	0.000	
47	   H	-2.599	3.563	0.195	 H	1	UNK0	0.000	
@<TRIPOS>BOND
1 1 2 1
2 2 3 2
3 2 8 1
4 3 4 1
5 4 5 1
6 4 9 1
7 5 6 2
8 5 7 1
9 7 8 2
10 9 10 1
11 10 11 2
12 10 12 1
13 12 13 1
14 13 14 1
15 14 15 2
16 14 16 1
17 16 17 1
18 16 21 1
19 16 24 1
20 17 18 1
21 18 19 1
22 18 25 1
23 19 20 1
24 20 21 1
25 20 22 1
26 22 23 1
27 23 24 1
28 23 25 1
29 3 26 1
30 7 27 1
31 8 28 1
32 9 29 1
33 9 30 1
34 12 31 1
35 13 32 1
36 17 33 1
37 17 34 1
38 18 35 1
39 19 36 1
40 19 37 1
41 20 38 1
42 21 39 1
43 21 40 1
44 22 41 1
45 22 42 1
46 23 43 1
47 24 44 1
48 24 45 1
49 25 46 1
50 25 47 1
@<TRIPOS>SUBSTRUCTURE
1	UNK0	1	GROUP	1 ****	UNK
