# created with PyMOL 2.3.2
@<TRIPOS>MOLECULE
775
66 69 1                 
SMALL
USER_CHARGES
@<TRIPOS>ATOM
1	  Br	-2.970	0.193	5.072	Br	1	UNK0	0.000	
2	   C	-1.635	-0.992	4.353	C.2	1	UNK0	0.000	
3	   C	-1.668	-1.390	3.056	C.2	1	UNK0	0.000	
4	   N	-0.722	-2.237	2.523	N.pl3	1	UNK0	0.000	
5	   C	0.211	-2.625	3.379	C.2	1	UNK0	0.000	
6	   O	1.083	-3.384	2.957	O.2	1	UNK0	0.000	
7	   N	0.277	-2.251	4.676	N.pl3	1	UNK0	0.000	
8	   C	-0.649	-1.418	5.210	C.2	1	UNK0	0.000	
9	   O	-0.640	-1.037	6.399	O.2	1	UNK0	0.000	
10	   C	-0.914	-2.539	1.176	C.3	1	UNK0	0.000	
11	   C	-0.113	-3.394	0.347	C.3	1	UNK0	0.000	
12	   C	1.176	-2.757	-0.182	C.3	1	UNK0	0.000	
13	   C	0.715	-1.595	-1.076	C.3	1	UNK0	0.000	
14	   O	-0.604	-1.278	-0.866	O.3	1	UNK0	0.000	
15	   C	-0.982	-1.171	0.455	C.3	1	UNK0	0.000	
16	   C	1.646	-0.394	-0.904	C.3	1	UNK0	0.000	
17	   C	1.435	0.434	-2.184	C.3	1	UNK0	0.000	
18	   N	0.110	0.209	-2.685	N.pl3	1	UNK0	0.000	
19	   C	0.006	-1.134	-3.378	C.3	1	UNK0	0.000	
20	   C	0.862	-2.049	-2.513	C.3	1	UNK0	0.000	
21	   C	-1.049	0.974	-2.593	C.2	1	UNK0	0.000	
22	   O	-2.096	0.509	-3.229	O.2	1	UNK0	0.000	
23	   C	-1.288	2.219	-1.898	C.2	1	UNK0	0.000	
24	   C	-0.435	2.799	-1.000	C.2	1	UNK0	0.000	
25	   C	-0.659	4.027	-0.376	C.2	1	UNK0	0.000	
26	   C	-1.849	4.686	-0.715	C.2	1	UNK0	0.000	
27	   C	-2.737	4.158	-1.602	C.2	1	UNK0	0.000	
28	   C	-2.461	2.956	-2.177	C.2	1	UNK0	0.000	
29	   O	0.179	4.604	0.513	O.3	1	UNK0	0.000	
30	   C	1.372	4.280	1.084	C.3	1	UNK0	0.000	
31	   C	1.430	3.064	1.945	C.3	1	UNK0	0.000	
32	   C	0.470	3.180	3.122	C.3	1	UNK0	0.000	
33	   N	0.567	1.990	3.914	N.3	1	UNK0	0.000	
34	   O	-0.868	-3.489	-0.877	O.3	1	UNK0	0.000	
35	   C	0.077	-4.823	0.740	C.3	1	UNK0	0.000	
36	   H	-2.490	-0.998	2.455	 H	1	UNK0	0.000	
37	   H	1.030	-2.579	5.320	 H	1	UNK0	0.000	
38	   H	-1.994	-2.900	1.097	 H	1	UNK0	0.000	
39	   H	1.752	-3.490	-0.772	 H	1	UNK0	0.000	
40	   H	1.804	-2.306	0.571	 H	1	UNK0	0.000	
41	   H	-1.987	-0.739	0.488	 H	1	UNK0	0.000	
42	   H	-0.306	-0.451	0.950	 H	1	UNK0	0.000	
43	   H	1.348	0.195	-0.044	 H	1	UNK0	0.000	
44	   H	2.682	-0.764	-0.829	 H	1	UNK0	0.000	
45	   H	2.132	-0.019	-2.990	 H	1	UNK0	0.000	
46	   H	1.778	1.455	-2.110	 H	1	UNK0	0.000	
47	   H	-1.039	-1.433	-3.296	 H	1	UNK0	0.000	
48	   H	0.385	-1.018	-4.391	 H	1	UNK0	0.000	
49	   H	0.564	-3.112	-2.660	 H	1	UNK0	0.000	
50	   H	1.928	-2.014	-2.825	 H	1	UNK0	0.000	
51	   H	0.462	2.312	-0.707	 H	1	UNK0	0.000	
52	   H	-2.057	5.632	-0.257	 H	1	UNK0	0.000	
53	   H	-3.669	4.689	-1.856	 H	1	UNK0	0.000	
54	   H	-3.175	2.546	-2.881	 H	1	UNK0	0.000	
55	   H	1.714	5.138	1.734	 H	1	UNK0	0.000	
56	   H	2.200	4.194	0.332	 H	1	UNK0	0.000	
57	   H	2.464	3.051	2.397	 H	1	UNK0	0.000	
58	   H	1.240	2.127	1.439	 H	1	UNK0	0.000	
59	   H	-0.561	3.324	2.755	 H	1	UNK0	0.000	
60	   H	0.755	4.049	3.731	 H	1	UNK0	0.000	
61	   H	1.226	1.315	3.481	 H	1	UNK0	0.000	
62	   H	-0.342	1.595	4.192	 H	1	UNK0	0.000	
63	   H	-1.627	-4.085	-0.757	 H	1	UNK0	0.000	
64	   H	-0.535	-5.135	1.626	 H	1	UNK0	0.000	
65	   H	1.164	-5.119	0.855	 H	1	UNK0	0.000	
66	   H	-0.260	-5.567	-0.049	 H	1	UNK0	0.000	
@<TRIPOS>BOND
1 1 2 1
2 2 3 2
3 2 8 1
4 3 4 1
5 4 5 1
6 4 10 1
7 5 6 2
8 5 7 1
9 7 8 1
10 8 9 2
11 10 11 1
12 10 15 1
13 11 12 1
14 11 34 1
15 11 35 1
16 12 13 1
17 13 14 1
18 13 16 1
19 13 20 1
20 14 15 1
21 16 17 1
22 17 18 1
23 18 19 1
24 18 21 1
25 19 20 1
26 21 22 2
27 21 23 1
28 23 24 2
29 23 28 1
30 24 25 1
31 25 26 2
32 25 29 1
33 26 27 1
34 27 28 2
35 29 30 1
36 30 31 1
37 31 32 1
38 32 33 1
39 3 36 1
40 7 37 1
41 10 38 1
42 12 39 1
43 12 40 1
44 15 41 1
45 15 42 1
46 16 43 1
47 16 44 1
48 17 45 1
49 17 46 1
50 19 47 1
51 19 48 1
52 20 49 1
53 20 50 1
54 24 51 1
55 26 52 1
56 27 53 1
57 28 54 1
58 30 55 1
59 30 56 1
60 31 57 1
61 31 58 1
62 32 59 1
63 32 60 1
64 33 61 1
65 33 62 1
66 34 63 1
67 35 64 1
68 35 65 1
69 35 66 1
@<TRIPOS>SUBSTRUCTURE
1	UNK0	1	GROUP	1 ****	UNK
