# created with PyMOL 2.3.2
@<TRIPOS>MOLECULE
781
55 58 1                 
SMALL
USER_CHARGES
@<TRIPOS>ATOM
1	  Br	4.218	-4.600	-2.754	Br	1	UNK0	0.000	
2	   C	2.761	-4.588	-1.509	C.2	1	UNK0	0.000	
3	   C	1.439	-4.500	-1.948	C.2	1	UNK0	0.000	
4	   N	0.382	-4.487	-1.132	N.pl3	1	UNK0	0.000	
5	   C	0.651	-4.565	0.191	C.2	1	UNK0	0.000	
6	   O	-0.332	-4.557	1.006	O.2	1	UNK0	0.000	
7	   N	1.914	-4.651	0.660	N.pl3	1	UNK0	0.000	
8	   C	2.984	-4.665	-0.152	C.2	1	UNK0	0.000	
9	   O	4.172	-4.746	0.300	O.2	1	UNK0	0.000	
10	   C	-0.978	-4.398	-1.569	C.3	1	UNK0	0.000	
11	   C	-1.184	-4.359	-3.031	C.3	1	UNK0	0.000	
12	   C	-0.998	-2.943	-3.405	C.3	1	UNK0	0.000	
13	   N	-1.398	-2.180	-2.189	N.pl3	1	UNK0	0.000	
14	   C	-1.571	-3.073	-1.099	C.3	1	UNK0	0.000	
15	   C	-1.520	-0.773	-2.287	C.2	1	UNK0	0.000	
16	   O	-1.250	-0.215	-3.428	O.2	1	UNK0	0.000	
17	   C	-1.918	0.157	-1.255	C.2	1	UNK0	0.000	
18	   C	-1.872	1.537	-1.530	C.2	1	UNK0	0.000	
19	   C	-2.249	2.463	-0.617	C.2	1	UNK0	0.000	
20	   C	-2.696	2.115	0.628	C.2	1	UNK0	0.000	
21	   C	-2.741	0.754	0.897	C.2	1	UNK0	0.000	
22	   C	-2.364	-0.175	-0.020	C.2	1	UNK0	0.000	
23	   O	-3.089	2.951	1.606	O.3	1	UNK0	0.000	
24	   C	-3.161	4.325	1.726	C.3	1	UNK0	0.000	
25	   C	-1.818	4.965	1.650	C.3	1	UNK0	0.000	
26	   N	-1.878	6.411	1.768	N.pl3	1	UNK0	0.000	
27	   C	-1.807	7.135	3.001	C.3	1	UNK0	0.000	
28	   C	-1.258	8.498	2.631	C.3	1	UNK0	0.000	
29	   C	-1.495	8.666	1.148	C.3	1	UNK0	0.000	
30	   C	-2.017	7.346	0.704	C.2	1	UNK0	0.000	
31	   O	-2.502	7.079	-0.414	O.2	1	UNK0	0.000	
32	   O	-2.531	-4.701	-3.287	O.3	1	UNK0	0.000	
33	   H	1.280	-4.446	-3.009	 H	1	UNK0	0.000	
34	   H	2.096	-4.710	1.686	 H	1	UNK0	0.000	
35	   H	-1.594	-5.229	-1.081	 H	1	UNK0	0.000	
36	   H	-0.573	-5.076	-3.608	 H	1	UNK0	0.000	
37	   H	-1.739	-2.601	-4.190	 H	1	UNK0	0.000	
38	   H	-0.028	-2.629	-3.775	 H	1	UNK0	0.000	
39	   H	-0.905	-2.723	-0.272	 H	1	UNK0	0.000	
40	   H	-2.628	-3.229	-0.783	 H	1	UNK0	0.000	
41	   H	-1.521	1.871	-2.512	 H	1	UNK0	0.000	
42	   H	-2.201	3.529	-0.918	 H	1	UNK0	0.000	
43	   H	-3.088	0.400	1.872	 H	1	UNK0	0.000	
44	   H	-2.445	-1.235	0.272	 H	1	UNK0	0.000	
45	   H	-3.610	4.568	2.721	 H	1	UNK0	0.000	
46	   H	-3.846	4.686	0.911	 H	1	UNK0	0.000	
47	   H	-1.247	4.588	2.555	 H	1	UNK0	0.000	
48	   H	-1.229	4.679	0.786	 H	1	UNK0	0.000	
49	   H	-2.839	7.300	3.428	 H	1	UNK0	0.000	
50	   H	-1.135	6.655	3.760	 H	1	UNK0	0.000	
51	   H	-0.148	8.515	2.839	 H	1	UNK0	0.000	
52	   H	-1.765	9.306	3.200	 H	1	UNK0	0.000	
53	   H	-0.516	8.811	0.627	 H	1	UNK0	0.000	
54	   H	-2.222	9.469	0.916	 H	1	UNK0	0.000	
55	   H	-2.798	-5.475	-2.709	 H	1	UNK0	0.000	
@<TRIPOS>BOND
1 1 2 1
2 2 3 2
3 2 8 1
4 3 4 1
5 4 5 1
6 4 10 1
7 5 6 2
8 5 7 1
9 7 8 1
10 8 9 2
11 10 11 1
12 10 14 1
13 11 12 1
14 11 32 1
15 12 13 1
16 13 14 1
17 13 15 1
18 15 16 2
19 15 17 1
20 17 18 2
21 17 22 1
22 18 19 1
23 19 20 2
24 20 21 1
25 20 23 1
26 21 22 2
27 23 24 1
28 24 25 1
29 25 26 1
30 26 27 1
31 26 30 1
32 27 28 1
33 28 29 1
34 29 30 1
35 30 31 2
36 3 33 1
37 7 34 1
38 10 35 1
39 11 36 1
40 12 37 1
41 12 38 1
42 14 39 1
43 14 40 1
44 18 41 1
45 19 42 1
46 21 43 1
47 22 44 1
48 24 45 1
49 24 46 1
50 25 47 1
51 25 48 1
52 27 49 1
53 27 50 1
54 28 51 1
55 28 52 1
56 29 53 1
57 29 54 1
58 32 55 1
@<TRIPOS>SUBSTRUCTURE
1	UNK0	1	GROUP	1 ****	UNK
