# created with PyMOL 2.3.2
@<TRIPOS>MOLECULE
782
62 65 1                 
SMALL
USER_CHARGES
@<TRIPOS>ATOM
1	  Br	-4.338	6.152	0.689	Br	1	UNK0	0.000	
2	   C	-3.065	5.161	-0.328	C.2	1	UNK0	0.000	
3	   C	-2.816	3.824	-0.114	C.2	1	UNK0	0.000	
4	   N	-1.927	3.106	-0.815	N.pl3	1	UNK0	0.000	
5	   C	-1.244	3.739	-1.783	C.2	1	UNK0	0.000	
6	   O	-0.387	3.165	-2.502	O.2	1	UNK0	0.000	
7	   N	-1.456	5.046	-2.027	N.pl3	1	UNK0	0.000	
8	   C	-2.347	5.782	-1.329	C.2	1	UNK0	0.000	
9	   O	-2.526	7.016	-1.583	O.2	1	UNK0	0.000	
10	   C	-1.734	1.730	-0.526	C.3	1	UNK0	0.000	
11	   C	-2.241	0.774	-1.560	C.3	1	UNK0	0.000	
12	   C	-1.100	-0.099	-2.083	C.3	1	UNK0	0.000	
13	   C	-0.348	-0.757	-0.953	C.3	1	UNK0	0.000	
14	   O	-0.305	0.041	0.188	O.3	1	UNK0	0.000	
15	   C	-0.260	1.377	-0.276	C.3	1	UNK0	0.000	
16	   C	1.085	-1.072	-1.325	C.3	1	UNK0	0.000	
17	   C	1.835	-1.281	0.016	C.3	1	UNK0	0.000	
18	   N	1.020	-2.162	0.795	N.pl3	1	UNK0	0.000	
19	   C	0.065	-2.974	0.010	C.3	1	UNK0	0.000	
20	   C	-0.988	-2.114	-0.627	C.3	1	UNK0	0.000	
21	   C	1.052	-2.313	2.177	C.2	1	UNK0	0.000	
22	   O	0.187	-3.198	2.628	O.2	1	UNK0	0.000	
23	   C	1.859	-1.679	3.207	C.3	1	UNK0	0.000	
24	   N	2.820	-0.716	2.817	N.pl3	1	UNK0	0.000	
25	   C	2.283	0.610	3.171	C.3	1	UNK0	0.000	
26	   C	1.629	0.323	4.518	C.3	1	UNK0	0.000	
27	   C	0.995	-1.019	4.283	C.3	1	UNK0	0.000	
28	   O	2.628	0.171	5.484	O.3	1	UNK0	0.000	
29	   C	4.097	-0.931	2.235	C.2	1	UNK0	0.000	
30	   O	4.830	0.041	1.931	O.2	1	UNK0	0.000	
31	   C	4.602	-2.317	1.970	C.3	1	UNK0	0.000	
32	   O	-3.181	-0.118	-1.036	O.3	1	UNK0	0.000	
33	   C	-2.889	1.449	-2.741	C.3	1	UNK0	0.000	
34	   H	-3.398	3.355	0.685	 H	1	UNK0	0.000	
35	   H	-0.923	5.559	-2.788	 H	1	UNK0	0.000	
36	   H	-2.239	1.465	0.444	 H	1	UNK0	0.000	
37	   H	-0.470	0.415	-2.806	 H	1	UNK0	0.000	
38	   H	-1.613	-0.930	-2.644	 H	1	UNK0	0.000	
39	   H	0.329	1.370	-1.190	 H	1	UNK0	0.000	
40	   H	0.158	1.968	0.548	 H	1	UNK0	0.000	
41	   H	1.218	-1.982	-1.904	 H	1	UNK0	0.000	
42	   H	1.562	-0.221	-1.843	 H	1	UNK0	0.000	
43	   H	1.926	-0.306	0.487	 H	1	UNK0	0.000	
44	   H	2.820	-1.747	-0.199	 H	1	UNK0	0.000	
45	   H	0.675	-3.540	-0.716	 H	1	UNK0	0.000	
46	   H	-0.438	-3.718	0.666	 H	1	UNK0	0.000	
47	   H	-1.863	-1.973	0.034	 H	1	UNK0	0.000	
48	   H	-1.267	-2.551	-1.614	 H	1	UNK0	0.000	
49	   H	2.411	-2.487	3.775	 H	1	UNK0	0.000	
50	   H	1.461	0.847	2.475	 H	1	UNK0	0.000	
51	   H	3.071	1.368	3.232	 H	1	UNK0	0.000	
52	   H	0.899	1.107	4.798	 H	1	UNK0	0.000	
53	   H	-0.027	-0.883	3.883	 H	1	UNK0	0.000	
54	   H	0.932	-1.596	5.207	 H	1	UNK0	0.000	
55	   H	2.230	0.421	6.348	 H	1	UNK0	0.000	
56	   H	5.274	-2.642	2.785	 H	1	UNK0	0.000	
57	   H	3.718	-2.981	1.987	 H	1	UNK0	0.000	
58	   H	5.092	-2.291	0.979	 H	1	UNK0	0.000	
59	   H	-3.559	0.246	-0.196	 H	1	UNK0	0.000	
60	   H	-2.227	1.467	-3.638	 H	1	UNK0	0.000	
61	   H	-3.274	2.468	-2.499	 H	1	UNK0	0.000	
62	   H	-3.805	0.882	-3.086	 H	1	UNK0	0.000	
@<TRIPOS>BOND
1 1 2 1
2 2 3 2
3 2 8 1
4 3 4 1
5 4 5 1
6 4 10 1
7 5 6 2
8 5 7 1
9 7 8 1
10 8 9 2
11 10 11 1
12 10 15 1
13 11 12 1
14 11 32 1
15 11 33 1
16 12 13 1
17 13 14 1
18 13 16 1
19 13 20 1
20 14 15 1
21 16 17 1
22 17 18 1
23 18 19 1
24 18 21 1
25 19 20 1
26 21 22 2
27 21 23 1
28 23 24 1
29 23 27 1
30 24 25 1
31 24 29 1
32 25 26 1
33 26 27 1
34 26 28 1
35 29 30 2
36 29 31 1
37 3 34 1
38 7 35 1
39 10 36 1
40 12 37 1
41 12 38 1
42 15 39 1
43 15 40 1
44 16 41 1
45 16 42 1
46 17 43 1
47 17 44 1
48 19 45 1
49 19 46 1
50 20 47 1
51 20 48 1
52 23 49 1
53 25 50 1
54 25 51 1
55 26 52 1
56 27 53 1
57 27 54 1
58 28 55 1
59 31 56 1
60 31 57 1
61 31 58 1
62 32 59 1
63 33 60 1
64 33 61 1
65 33 62 1
@<TRIPOS>SUBSTRUCTURE
1	UNK0	1	GROUP	1 ****	UNK
