# created with PyMOL 2.3.2
@<TRIPOS>MOLECULE
784
64 67 1                 
SMALL
USER_CHARGES
@<TRIPOS>ATOM
1	  Br	1.717	-7.887	-1.494	Br	1	UNK0	0.000	
2	   C	0.711	-6.288	-1.359	C.2	1	UNK0	0.000	
3	   C	1.390	-5.083	-1.178	C.2	1	UNK0	0.000	
4	   N	0.750	-3.916	-1.075	N.pl3	1	UNK0	0.000	
5	   C	-0.614	-3.964	-1.157	C.2	1	UNK0	0.000	
6	   O	-1.265	-2.888	-1.066	O.2	1	UNK0	0.000	
7	   N	-1.295	-5.109	-1.332	N.pl3	1	UNK0	0.000	
8	   C	-0.664	-6.292	-1.437	C.2	1	UNK0	0.000	
9	   O	-1.309	-7.378	-1.603	O.2	1	UNK0	0.000	
10	   C	1.358	-2.661	-0.891	C.3	1	UNK0	0.000	
11	   C	1.304	-2.179	0.568	C.3	1	UNK0	0.000	
12	   C	1.498	-0.660	0.462	C.3	1	UNK0	0.000	
13	   C	2.724	-0.337	-0.346	C.3	1	UNK0	0.000	
14	   O	3.418	-1.496	-0.597	O.3	1	UNK0	0.000	
15	   C	2.734	-2.434	-1.366	C.3	1	UNK0	0.000	
16	   C	3.609	0.519	0.550	C.3	1	UNK0	0.000	
17	   C	3.186	1.963	0.453	C.3	1	UNK0	0.000	
18	   N	1.793	2.058	-0.015	N.pl3	1	UNK0	0.000	
19	   C	1.573	1.647	-1.370	C.3	1	UNK0	0.000	
20	   C	2.467	0.430	-1.594	C.3	1	UNK0	0.000	
21	   C	0.753	2.481	0.812	C.2	1	UNK0	0.000	
22	   O	0.966	2.762	2.055	O.2	1	UNK0	0.000	
23	   C	-0.619	2.635	0.354	C.3	1	UNK0	0.000	
24	   N	-1.516	2.842	1.465	N.pl3	1	UNK0	0.000	
25	   C	-1.854	4.031	2.100	C.2	1	UNK0	0.000	
26	   O	-1.409	5.161	1.811	O.2	1	UNK0	0.000	
27	   C	-2.842	4.039	3.252	C.3	1	UNK0	0.000	
28	   C	-0.764	3.834	-0.635	C.3	1	UNK0	0.000	
29	   C	-2.159	3.936	-1.099	C.2	1	UNK0	0.000	
30	   N	-3.173	4.620	-0.593	N.2	1	UNK0	0.000	
31	   C	-4.307	4.446	-1.326	C.2	1	UNK0	0.000	
32	   N	-3.978	3.615	-2.333	N.pl3	1	UNK0	0.000	
33	   C	-2.673	3.292	-2.212	C.2	1	UNK0	0.000	
34	   O	0.081	-2.427	1.152	O.3	1	UNK0	0.000	
35	   C	2.370	-2.825	1.395	C.3	1	UNK0	0.000	
36	   H	2.471	-5.056	-1.111	 H	1	UNK0	0.000	
37	   H	-2.347	-5.059	-1.385	 H	1	UNK0	0.000	
38	   H	0.712	-1.901	-1.434	 H	1	UNK0	0.000	
39	   H	1.525	-0.261	1.495	 H	1	UNK0	0.000	
40	   H	0.575	-0.288	-0.020	 H	1	UNK0	0.000	
41	   H	2.734	-2.023	-2.420	 H	1	UNK0	0.000	
42	   H	3.404	-3.309	-1.427	 H	1	UNK0	0.000	
43	   H	3.569	0.225	1.602	 H	1	UNK0	0.000	
44	   H	4.654	0.369	0.205	 H	1	UNK0	0.000	
45	   H	3.779	2.540	-0.290	 H	1	UNK0	0.000	
46	   H	3.238	2.473	1.424	 H	1	UNK0	0.000	
47	   H	0.515	1.383	-1.608	 H	1	UNK0	0.000	
48	   H	1.861	2.471	-2.048	 H	1	UNK0	0.000	
49	   H	2.008	-0.129	-2.414	 H	1	UNK0	0.000	
50	   H	3.436	0.826	-1.961	 H	1	UNK0	0.000	
51	   H	-1.039	1.809	-0.268	 H	1	UNK0	0.000	
52	   H	-1.968	1.950	1.836	 H	1	UNK0	0.000	
53	   H	-2.596	4.817	3.976	 H	1	UNK0	0.000	
54	   H	-3.861	4.223	2.850	 H	1	UNK0	0.000	
55	   H	-2.847	3.048	3.732	 H	1	UNK0	0.000	
56	   H	-0.461	4.762	-0.165	 H	1	UNK0	0.000	
57	   H	-0.082	3.633	-1.503	 H	1	UNK0	0.000	
58	   H	-5.275	4.899	-1.120	 H	1	UNK0	0.000	
59	   H	-4.661	3.300	-3.064	 H	1	UNK0	0.000	
60	   H	-2.159	2.634	-2.897	 H	1	UNK0	0.000	
61	   H	0.197	-2.490	2.134	 H	1	UNK0	0.000	
62	   H	1.945	-3.475	2.210	 H	1	UNK0	0.000	
63	   H	3.038	-3.499	0.804	 H	1	UNK0	0.000	
64	   H	3.013	-2.091	1.884	 H	1	UNK0	0.000	
@<TRIPOS>BOND
1 1 2 1
2 2 3 2
3 2 8 1
4 3 4 1
5 4 5 1
6 4 10 1
7 5 6 2
8 5 7 1
9 7 8 1
10 8 9 2
11 10 11 1
12 10 15 1
13 11 12 1
14 11 34 1
15 11 35 1
16 12 13 1
17 13 14 1
18 13 16 1
19 13 20 1
20 14 15 1
21 16 17 1
22 17 18 1
23 18 19 1
24 18 21 1
25 19 20 1
26 21 22 2
27 21 23 1
28 23 24 1
29 23 28 1
30 24 25 1
31 25 26 2
32 25 27 1
33 28 29 1
34 29 30 1
35 29 33 2
36 30 31 2
37 31 32 1
38 32 33 1
39 3 36 1
40 7 37 1
41 10 38 1
42 12 39 1
43 12 40 1
44 15 41 1
45 15 42 1
46 16 43 1
47 16 44 1
48 17 45 1
49 17 46 1
50 19 47 1
51 19 48 1
52 20 49 1
53 20 50 1
54 23 51 1
55 24 52 1
56 27 53 1
57 27 54 1
58 27 55 1
59 28 56 1
60 28 57 1
61 31 58 1
62 32 59 1
63 33 60 1
64 34 61 1
65 35 62 1
66 35 63 1
67 35 64 1
@<TRIPOS>SUBSTRUCTURE
1	UNK0	1	GROUP	1 ****	UNK
