# created with PyMOL 2.3.2
@<TRIPOS>MOLECULE
785
34 37 1                 
SMALL
USER_CHARGES
@<TRIPOS>ATOM
1	  Br	5.755	-4.198	3.057	Br	1	UNK0	0.000	
2	   C	4.508	-2.974	2.286	C.2	1	UNK0	0.000	
3	   C	3.946	-1.949	3.031	C.2	1	UNK0	0.000	
4	   N	3.061	-1.085	2.469	N.pl3	1	UNK0	0.000	
5	   C	2.767	-1.277	1.174	C.2	1	UNK0	0.000	
6	   N	1.891	-0.326	0.837	N.2	1	UNK0	0.000	
7	   C	1.633	0.451	1.891	C.2	1	UNK0	0.000	
8	   C	2.374	-0.024	2.938	C.2	1	UNK0	0.000	
9	   C	0.708	1.606	1.886	C.3	1	UNK0	0.000	
10	   N	0.158	1.813	0.560	N.pl3	1	UNK0	0.000	
11	   C	-0.856	0.987	0.037	C.2	1	UNK0	0.000	
12	   O	-1.278	0.043	0.774	O.2	1	UNK0	0.000	
13	   C	-1.448	1.134	-1.270	C.2	1	UNK0	0.000	
14	   C	-2.420	0.276	-1.724	C.2	1	UNK0	0.000	
15	   N	-2.965	0.418	-2.937	N.pl3	1	UNK0	0.000	
16	   C	-2.610	1.394	-3.792	C.2	1	UNK0	0.000	
17	   N	-3.329	1.281	-4.929	N.2	1	UNK0	0.000	
18	   N	-4.134	0.244	-4.802	N.2	1	UNK0	0.000	
19	   C	-3.923	-0.294	-3.590	C.2	1	UNK0	0.000	
20	   C	-1.638	2.274	-3.372	C.2	1	UNK0	0.000	
21	   C	-1.048	2.154	-2.111	C.2	1	UNK0	0.000	
22	   C	3.297	-2.279	0.389	C.2	1	UNK0	0.000	
23	   C	4.193	-3.154	0.956	C.2	1	UNK0	0.000	
24	   H	4.202	-1.823	4.063	 H	1	UNK0	0.000	
25	   H	2.414	0.368	3.964	 H	1	UNK0	0.000	
26	   H	1.199	2.546	2.227	 H	1	UNK0	0.000	
27	   H	-0.153	1.447	2.581	 H	1	UNK0	0.000	
28	   H	0.524	2.600	-0.028	 H	1	UNK0	0.000	
29	   H	-2.751	-0.525	-1.096	 H	1	UNK0	0.000	
30	   H	-4.456	-1.159	-3.232	 H	1	UNK0	0.000	
31	   H	-1.346	3.059	-4.048	 H	1	UNK0	0.000	
32	   H	-0.293	2.884	-1.855	 H	1	UNK0	0.000	
33	   H	3.014	-2.372	-0.649	 H	1	UNK0	0.000	
34	   H	4.609	-3.940	0.340	 H	1	UNK0	0.000	
@<TRIPOS>BOND
1 1 2 1
2 2 3 2
3 2 23 1
4 3 4 1
5 4 5 1
6 4 8 1
7 5 6 2
8 5 22 1
9 6 7 1
10 7 8 2
11 7 9 1
12 9 10 1
13 10 11 1
14 11 12 2
15 11 13 1
16 13 14 2
17 13 21 1
18 14 15 1
19 15 16 1
20 15 19 1
21 16 17 2
22 16 20 1
23 17 18 1
24 18 19 2
25 20 21 2
26 22 23 2
27 3 24 1
28 8 25 1
29 9 26 1
30 9 27 1
31 10 28 1
32 14 29 1
33 19 30 1
34 20 31 1
35 21 32 1
36 22 33 1
37 23 34 1
@<TRIPOS>SUBSTRUCTURE
1	UNK0	1	GROUP	1 ****	UNK
