# created with PyMOL 2.3.2
@<TRIPOS>MOLECULE
786
41 44 1                 
SMALL
USER_CHARGES
@<TRIPOS>ATOM
1	  Br	-2.739	5.637	-0.360	Br	1	UNK0	0.000	
2	   C	-1.563	4.475	0.607	C.2	1	UNK0	0.000	
3	   C	-1.845	3.140	0.795	C.2	1	UNK0	0.000	
4	   N	-1.010	2.310	1.482	N.pl3	1	UNK0	0.000	
5	   C	0.127	2.817	1.992	C.2	1	UNK0	0.000	
6	   N	0.788	1.830	2.621	N.2	1	UNK0	0.000	
7	   C	0.086	0.686	2.522	C.2	1	UNK0	0.000	
8	   C	-1.046	1.003	1.801	C.2	1	UNK0	0.000	
9	   C	0.442	-0.647	3.071	C.3	1	UNK0	0.000	
10	   N	1.306	-1.372	2.166	N.pl3	1	UNK0	0.000	
11	   C	0.764	-1.967	1.016	C.2	1	UNK0	0.000	
12	   O	-0.458	-1.869	0.779	O.2	1	UNK0	0.000	
13	   C	1.627	-2.710	0.079	C.3	1	UNK0	0.000	
14	   C	0.817	-3.247	-1.074	C.3	1	UNK0	0.000	
15	   N	0.228	-2.104	-1.745	N.pl3	1	UNK0	0.000	
16	   C	0.917	-0.956	-1.850	C.2	1	UNK0	0.000	
17	   N	0.128	-0.086	-2.512	N.2	1	UNK0	0.000	
18	   N	-1.000	-0.661	-2.808	N.2	1	UNK0	0.000	
19	   C	-0.951	-1.914	-2.338	C.2	1	UNK0	0.000	
20	   C	-2.083	-2.879	-2.495	C.3	1	UNK0	0.000	
21	   C	2.274	-0.742	-1.324	C.3	1	UNK0	0.000	
22	   C	2.738	-1.813	-0.402	C.3	1	UNK0	0.000	
23	   C	0.441	4.162	1.819	C.2	1	UNK0	0.000	
24	   C	-0.399	4.999	1.128	C.2	1	UNK0	0.000	
25	   H	-2.750	2.746	0.388	 H	1	UNK0	0.000	
26	   H	-1.869	0.369	1.502	 H	1	UNK0	0.000	
27	   H	0.905	-0.513	4.079	 H	1	UNK0	0.000	
28	   H	-0.497	-1.241	3.243	 H	1	UNK0	0.000	
29	   H	2.323	-1.460	2.353	 H	1	UNK0	0.000	
30	   H	2.113	-3.538	0.646	 H	1	UNK0	0.000	
31	   H	1.505	-3.777	-1.775	 H	1	UNK0	0.000	
32	   H	0.056	-3.947	-0.676	 H	1	UNK0	0.000	
33	   H	-1.987	-3.690	-1.767	 H	1	UNK0	0.000	
34	   H	-3.062	-2.362	-2.303	 H	1	UNK0	0.000	
35	   H	-2.097	-3.236	-3.544	 H	1	UNK0	0.000	
36	   H	3.006	-0.689	-2.177	 H	1	UNK0	0.000	
37	   H	2.304	0.262	-0.851	 H	1	UNK0	0.000	
38	   H	3.201	-1.342	0.507	 H	1	UNK0	0.000	
39	   H	3.527	-2.451	-0.857	 H	1	UNK0	0.000	
40	   H	1.370	4.507	2.253	 H	1	UNK0	0.000	
41	   H	-0.112	6.040	1.019	 H	1	UNK0	0.000	
@<TRIPOS>BOND
1 1 2 1
2 2 3 2
3 2 24 1
4 3 4 1
5 4 5 1
6 4 8 1
7 5 6 2
8 5 23 1
9 6 7 1
10 7 8 2
11 7 9 1
12 9 10 1
13 10 11 1
14 11 12 2
15 11 13 1
16 13 14 1
17 13 22 1
18 14 15 1
19 15 16 1
20 15 19 1
21 16 17 2
22 16 21 1
23 17 18 1
24 18 19 2
25 19 20 1
26 21 22 1
27 23 24 2
28 3 25 1
29 8 26 1
30 9 27 1
31 9 28 1
32 10 29 1
33 13 30 1
34 14 31 1
35 14 32 1
36 20 33 1
37 20 34 1
38 20 35 1
39 21 36 1
40 21 37 1
41 22 38 1
42 22 39 1
43 23 40 1
44 24 41 1
@<TRIPOS>SUBSTRUCTURE
1	UNK0	1	GROUP	1 ****	UNK
