# created with PyMOL 2.3.2
@<TRIPOS>MOLECULE
787
37 40 1                 
SMALL
USER_CHARGES
@<TRIPOS>ATOM
1	  Br	0.583	-1.943	-7.238	Br	1	UNK0	0.000	
2	   C	-0.551	-1.157	-5.899	C.2	1	UNK0	0.000	
3	   C	-0.075	-0.882	-4.634	C.2	1	UNK0	0.000	
4	   N	-0.891	-0.330	-3.711	N.pl3	1	UNK0	0.000	
5	   N	-0.704	0.027	-2.459	N.2	1	UNK0	0.000	
6	   C	-1.782	0.546	-1.876	C.2	1	UNK0	0.000	
7	   C	-2.763	0.509	-2.883	C.2	1	UNK0	0.000	
8	   C	-2.171	-0.036	-3.992	C.2	1	UNK0	0.000	
9	   N	-2.636	-0.310	-5.242	N.2	1	UNK0	0.000	
10	   C	-1.866	-0.854	-6.185	C.2	1	UNK0	0.000	
11	   C	-2.017	1.057	-0.544	C.2	1	UNK0	0.000	
12	   O	-3.184	1.500	-0.261	O.2	1	UNK0	0.000	
13	   N	-1.062	1.102	0.457	N.pl3	1	UNK0	0.000	
14	   C	0.288	0.654	0.292	C.3	1	UNK0	0.000	
15	   C	0.381	-0.638	1.134	C.3	1	UNK0	0.000	
16	   C	0.169	-0.131	2.569	C.3	1	UNK0	0.000	
17	   O	1.088	0.865	2.776	O.3	1	UNK0	0.000	
18	   C	1.845	0.530	3.894	C.3	1	UNK0	0.000	
19	   C	0.890	-0.445	4.595	C.3	1	UNK0	0.000	
20	   O	0.398	-1.140	3.488	O.3	1	UNK0	0.000	
21	   C	-1.254	0.364	2.697	C.3	1	UNK0	0.000	
22	   C	-1.366	1.615	1.815	C.3	1	UNK0	0.000	
23	   H	0.958	-1.129	-4.435	 H	1	UNK0	0.000	
24	   H	-3.768	0.843	-2.792	 H	1	UNK0	0.000	
25	   H	-2.208	-1.082	-7.187	 H	1	UNK0	0.000	
26	   H	0.982	1.392	0.821	 H	1	UNK0	0.000	
27	   H	0.633	0.490	-0.734	 H	1	UNK0	0.000	
28	   H	1.392	-1.071	1.038	 H	1	UNK0	0.000	
29	   H	-0.409	-1.328	0.832	 H	1	UNK0	0.000	
30	   H	2.754	-0.025	3.544	 H	1	UNK0	0.000	
31	   H	2.088	1.386	4.534	 H	1	UNK0	0.000	
32	   H	1.441	-1.097	5.297	 H	1	UNK0	0.000	
33	   H	0.120	0.179	5.078	 H	1	UNK0	0.000	
34	   H	-1.547	0.554	3.729	 H	1	UNK0	0.000	
35	   H	-1.961	-0.370	2.257	 H	1	UNK0	0.000	
36	   H	-0.513	2.263	2.098	 H	1	UNK0	0.000	
37	   H	-2.346	2.082	1.866	 H	1	UNK0	0.000	
@<TRIPOS>BOND
1 1 2 1
2 2 3 2
3 2 10 1
4 3 4 1
5 4 5 1
6 4 8 1
7 5 6 2
8 6 7 1
9 6 11 1
10 7 8 2
11 8 9 1
12 9 10 2
13 11 12 2
14 11 13 1
15 13 14 1
16 13 22 1
17 14 15 1
18 15 16 1
19 16 17 1
20 16 20 1
21 16 21 1
22 17 18 1
23 18 19 1
24 19 20 1
25 21 22 1
26 3 23 1
27 7 24 1
28 10 25 1
29 14 26 1
30 14 27 1
31 15 28 1
32 15 29 1
33 18 30 1
34 18 31 1
35 19 32 1
36 19 33 1
37 21 34 1
38 21 35 1
39 22 36 1
40 22 37 1
@<TRIPOS>SUBSTRUCTURE
1	UNK0	1	GROUP	1 ****	UNK
