# created with PyMOL 2.3.2
@<TRIPOS>MOLECULE
788
39 42 1                 
SMALL
USER_CHARGES
@<TRIPOS>ATOM
1	  Br	0.213	-4.669	-6.139	Br	1	UNK0	0.000	
2	   C	0.025	-4.405	-4.262	C.2	1	UNK0	0.000	
3	   C	0.432	-3.248	-3.633	C.2	1	UNK0	0.000	
4	   N	0.289	-3.082	-2.295	N.pl3	1	UNK0	0.000	
5	   N	0.599	-2.073	-1.475	N.2	1	UNK0	0.000	
6	   C	0.259	-2.383	-0.212	C.2	1	UNK0	0.000	
7	   C	-0.284	-3.648	-0.288	C.2	1	UNK0	0.000	
8	   C	-0.267	-4.090	-1.598	C.2	1	UNK0	0.000	
9	   N	-0.669	-5.232	-2.206	N.2	1	UNK0	0.000	
10	   C	-0.541	-5.426	-3.526	C.2	1	UNK0	0.000	
11	   C	0.426	-1.555	0.999	C.2	1	UNK0	0.000	
12	   O	0.032	-2.049	2.101	O.2	1	UNK0	0.000	
13	   N	0.999	-0.270	0.948	N.pl3	1	UNK0	0.000	
14	   C	1.139	0.493	2.161	C.3	1	UNK0	0.000	
15	   C	0.381	1.782	2.000	C.3	1	UNK0	0.000	
16	   N	0.739	2.401	0.754	N.pl3	1	UNK0	0.000	
17	   C	1.729	1.805	-0.115	C.3	1	UNK0	0.000	
18	   C	1.448	0.301	-0.287	C.3	1	UNK0	0.000	
19	   C	0.116	3.606	0.370	C.2	1	UNK0	0.000	
20	   O	0.386	4.195	-0.702	O.2	1	UNK0	0.000	
21	   C	-0.885	4.199	1.249	C.2	1	UNK0	0.000	
22	   O	-1.306	3.749	2.398	O.3	1	UNK0	0.000	
23	   C	-2.212	4.504	2.950	C.2	1	UNK0	0.000	
24	   C	-2.425	5.561	2.102	C.2	1	UNK0	0.000	
25	   C	-1.595	5.383	1.025	C.2	1	UNK0	0.000	
26	   H	0.874	-2.457	-4.222	 H	1	UNK0	0.000	
27	   H	-0.656	-4.176	0.580	 H	1	UNK0	0.000	
28	   H	-0.861	-6.338	-4.025	 H	1	UNK0	0.000	
29	   H	2.228	0.772	2.233	 H	1	UNK0	0.000	
30	   H	0.818	-0.074	3.058	 H	1	UNK0	0.000	
31	   H	0.561	2.442	2.874	 H	1	UNK0	0.000	
32	   H	-0.709	1.500	1.963	 H	1	UNK0	0.000	
33	   H	1.730	2.226	-1.125	 H	1	UNK0	0.000	
34	   H	2.767	1.911	0.292	 H	1	UNK0	0.000	
35	   H	2.385	-0.141	-0.660	 H	1	UNK0	0.000	
36	   H	0.617	0.263	-1.039	 H	1	UNK0	0.000	
37	   H	-2.696	4.305	3.916	 H	1	UNK0	0.000	
38	   H	-3.117	6.368	2.270	 H	1	UNK0	0.000	
39	   H	-1.480	6.011	0.150	 H	1	UNK0	0.000	
@<TRIPOS>BOND
1 1 2 1
2 2 3 2
3 2 10 1
4 3 4 1
5 4 5 1
6 4 8 1
7 5 6 2
8 6 7 1
9 6 11 1
10 7 8 2
11 8 9 1
12 9 10 2
13 11 12 2
14 11 13 1
15 13 14 1
16 13 18 1
17 14 15 1
18 15 16 1
19 16 17 1
20 16 19 1
21 17 18 1
22 19 20 2
23 19 21 1
24 21 22 1
25 21 25 2
26 22 23 1
27 23 24 2
28 24 25 1
29 3 26 1
30 7 27 1
31 10 28 1
32 14 29 1
33 14 30 1
34 15 31 1
35 15 32 1
36 17 33 1
37 17 34 1
38 18 35 1
39 18 36 1
40 23 37 1
41 24 38 1
42 25 39 1
@<TRIPOS>SUBSTRUCTURE
1	UNK0	1	GROUP	1 ****	UNK
