# created with PyMOL 2.3.2
@<TRIPOS>MOLECULE
791
37 40 1                 
SMALL
USER_CHARGES
@<TRIPOS>ATOM
1	  Br	2.397	2.815	6.067	Br	1	UNK0	0.000	
2	   C	1.947	1.689	4.607	C.2	1	UNK0	0.000	
3	   C	2.877	0.747	4.169	C.2	1	UNK0	0.000	
4	   N	2.558	-0.052	3.133	N.pl3	1	UNK0	0.000	
5	   N	3.275	-0.999	2.562	N.2	1	UNK0	0.000	
6	   C	2.563	-1.543	1.560	C.2	1	UNK0	0.000	
7	   C	1.329	-0.919	1.479	C.2	1	UNK0	0.000	
8	   C	1.368	0.029	2.504	C.2	1	UNK0	0.000	
9	   N	0.497	0.934	2.938	N.2	1	UNK0	0.000	
10	   C	0.742	1.770	3.969	C.2	1	UNK0	0.000	
11	   C	0.241	-1.181	0.549	C.2	1	UNK0	0.000	
12	   O	-0.645	-2.024	0.837	O.2	1	UNK0	0.000	
13	   N	0.117	-0.522	-0.701	N.pl3	1	UNK0	0.000	
14	   C	-0.951	-0.767	-1.633	C.3	1	UNK0	0.000	
15	   C	-0.931	0.363	-2.639	C.3	1	UNK0	0.000	
16	   O	-0.835	1.600	-2.030	O.3	1	UNK0	0.000	
17	   C	0.302	1.780	-1.293	C.3	1	UNK0	0.000	
18	   C	1.098	0.481	-1.136	C.3	1	UNK0	0.000	
19	   C	-2.287	-0.960	-0.997	C.3	1	UNK0	0.000	
20	   O	-2.504	-2.336	-1.003	O.3	1	UNK0	0.000	
21	   C	-2.072	-2.732	-2.256	C.3	1	UNK0	0.000	
22	   C	-0.705	-2.068	-2.371	C.3	1	UNK0	0.000	
23	   H	3.818	0.699	4.684	 H	1	UNK0	0.000	
24	   H	2.927	-2.343	0.933	 H	1	UNK0	0.000	
25	   H	0.017	2.501	4.306	 H	1	UNK0	0.000	
26	   H	-0.159	0.240	-3.416	 H	1	UNK0	0.000	
27	   H	-1.916	0.340	-3.176	 H	1	UNK0	0.000	
28	   H	0.022	2.086	-0.264	 H	1	UNK0	0.000	
29	   H	0.953	2.590	-1.695	 H	1	UNK0	0.000	
30	   H	1.915	0.585	-0.427	 H	1	UNK0	0.000	
31	   H	1.438	0.201	-2.147	 H	1	UNK0	0.000	
32	   H	-2.347	-0.627	0.056	 H	1	UNK0	0.000	
33	   H	-3.095	-0.467	-1.614	 H	1	UNK0	0.000	
34	   H	-2.760	-2.366	-3.035	 H	1	UNK0	0.000	
35	   H	-1.968	-3.845	-2.315	 H	1	UNK0	0.000	
36	   H	0.096	-2.668	-1.934	 H	1	UNK0	0.000	
37	   H	-0.535	-1.885	-3.471	 H	1	UNK0	0.000	
@<TRIPOS>BOND
1 1 2 1
2 2 3 2
3 2 10 1
4 3 4 1
5 4 5 1
6 4 8 1
7 5 6 2
8 6 7 1
9 7 8 2
10 7 11 1
11 8 9 1
12 9 10 2
13 11 12 2
14 11 13 1
15 13 14 1
16 13 18 1
17 14 15 1
18 14 19 1
19 14 22 1
20 15 16 1
21 16 17 1
22 17 18 1
23 19 20 1
24 20 21 1
25 21 22 1
26 3 23 1
27 6 24 1
28 10 25 1
29 15 26 1
30 15 27 1
31 17 28 1
32 17 29 1
33 18 30 1
34 18 31 1
35 19 32 1
36 19 33 1
37 21 34 1
38 21 35 1
39 22 36 1
40 22 37 1
@<TRIPOS>SUBSTRUCTURE
1	UNK0	1	GROUP	1 ****	UNK
