# created with PyMOL 2.3.2
@<TRIPOS>MOLECULE
797
40 43 1                 
SMALL
USER_CHARGES
@<TRIPOS>ATOM
1	  Br	5.710	-4.639	3.155	Br	1	UNK0	0.000	
2	   C	4.426	-3.813	1.994	C.2	1	UNK0	0.000	
3	   C	4.747	-2.716	1.225	C.2	1	UNK0	0.000	
4	   N	3.871	-2.107	0.397	N.pl3	1	UNK0	0.000	
5	   C	2.605	-2.543	0.270	C.2	1	UNK0	0.000	
6	   N	1.720	-1.949	-0.549	N.2	1	UNK0	0.000	
7	   C	2.030	-0.871	-1.308	C.2	1	UNK0	0.000	
8	   C	3.323	-0.406	-1.193	C.2	1	UNK0	0.000	
9	   C	4.226	-1.034	-0.340	C.2	1	UNK0	0.000	
10	   O	5.392	-0.624	-0.229	O.2	1	UNK0	0.000	
11	   C	1.032	-0.237	-2.208	C.3	1	UNK0	0.000	
12	   O	0.139	0.619	-1.545	O.3	1	UNK0	0.000	
13	   C	0.490	1.743	-0.827	C.2	1	UNK0	0.000	
14	   O	1.692	2.064	-0.733	O.co2	1	UNK0	0.000	
15	   C	-0.581	2.540	-0.186	C.3	1	UNK0	0.000	
16	   N	-1.872	1.968	-0.440	N.pl3	1	UNK0	0.000	
17	   C	-2.528	1.006	0.356	C.2	1	UNK0	0.000	
18	   O	-2.145	0.456	1.421	O.2	1	UNK0	0.000	
19	   C	-3.831	0.698	-0.272	C.2	1	UNK0	0.000	
20	   C	-3.935	1.460	-1.404	C.2	1	UNK0	0.000	
21	   C	-5.036	1.400	-2.209	C.2	1	UNK0	0.000	
22	   C	-6.057	0.549	-1.862	C.2	1	UNK0	0.000	
23	   C	-5.953	-0.220	-0.719	C.2	1	UNK0	0.000	
24	   C	-4.846	-0.167	0.100	C.2	1	UNK0	0.000	
25	   C	-2.717	2.264	-1.528	C.2	1	UNK0	0.000	
26	   O	-2.493	3.082	-2.472	O.2	1	UNK0	0.000	
27	   C	2.250	-3.655	1.038	C.2	1	UNK0	0.000	
28	   C	3.135	-4.284	1.886	C.2	1	UNK0	0.000	
29	   H	5.769	-2.341	1.309	 H	1	UNK0	0.000	
30	   H	3.645	0.461	-1.780	 H	1	UNK0	0.000	
31	   H	1.527	0.341	-3.013	 H	1	UNK0	0.000	
32	   H	0.412	-1.017	-2.733	 H	1	UNK0	0.000	
33	   H	-0.553	3.542	-0.701	 H	1	UNK0	0.000	
34	   H	-0.388	2.697	0.898	 H	1	UNK0	0.000	
35	   H	-5.106	2.004	-3.096	 H	1	UNK0	0.000	
36	   H	-6.917	0.518	-2.512	 H	1	UNK0	0.000	
37	   H	-6.788	-0.871	-0.498	 H	1	UNK0	0.000	
38	   H	-4.758	-0.764	0.992	 H	1	UNK0	0.000	
39	   H	1.235	-3.997	0.930	 H	1	UNK0	0.000	
40	   H	2.855	-5.144	2.479	 H	1	UNK0	0.000	
@<TRIPOS>BOND
1 1 2 1
2 2 3 2
3 2 28 1
4 3 4 1
5 4 5 1
6 4 9 1
7 5 6 2
8 5 27 1
9 6 7 1
10 7 8 2
11 7 11 1
12 8 9 1
13 9 10 2
14 11 12 1
15 12 13 1
16 13 14 2
17 13 15 1
18 15 16 1
19 16 17 1
20 16 25 1
21 17 18 2
22 17 19 1
23 19 20 2
24 19 24 1
25 20 21 1
26 20 25 1
27 21 22 2
28 22 23 1
29 23 24 2
30 25 26 2
31 27 28 2
32 3 29 1
33 8 30 1
34 11 31 1
35 11 32 1
36 15 33 1
37 15 34 1
38 21 35 1
39 22 36 1
40 23 37 1
41 24 38 1
42 27 39 1
43 28 40 1
@<TRIPOS>SUBSTRUCTURE
1	UNK0	1	GROUP	1 ****	UNK
