# created with PyMOL 2.3.2
@<TRIPOS>MOLECULE
799
44 47 1                 
SMALL
USER_CHARGES
@<TRIPOS>ATOM
1	  Br	-6.537	1.535	-6.747	Br	1	UNK0	0.000	
2	   C	-5.325	1.310	-5.281	C.2	1	UNK0	0.000	
3	   C	-5.254	2.208	-4.258	C.2	1	UNK0	0.000	
4	   N	-4.412	2.070	-3.220	N.pl3	1	UNK0	0.000	
5	   C	-3.590	1.020	-3.149	C.2	1	UNK0	0.000	
6	   N	-2.750	0.892	-2.105	N.2	1	UNK0	0.000	
7	   C	-2.680	1.775	-1.097	C.2	1	UNK0	0.000	
8	   C	-3.529	2.866	-1.165	C.2	1	UNK0	0.000	
9	   C	-4.385	2.985	-2.241	C.2	1	UNK0	0.000	
10	   O	-5.148	3.978	-2.289	O.2	1	UNK0	0.000	
11	   C	-1.742	1.619	0.056	C.3	1	UNK0	0.000	
12	   O	-1.016	0.420	-0.160	O.3	1	UNK0	0.000	
13	   C	-0.047	-0.048	0.716	C.2	1	UNK0	0.000	
14	   O	0.144	0.685	1.738	O.co2	1	UNK0	0.000	
15	   C	0.711	-1.305	0.485	C.3	1	UNK0	0.000	
16	   N	1.659	-1.559	1.552	N.pl3	1	UNK0	0.000	
17	   C	1.397	-2.299	2.742	C.2	1	UNK0	0.000	
18	   O	0.468	-3.114	2.899	O.2	1	UNK0	0.000	
19	   C	2.464	-1.876	3.718	C.3	1	UNK0	0.000	
20	   C	3.633	-1.675	2.796	C.3	1	UNK0	0.000	
21	   C	4.670	-0.761	3.403	C.3	1	UNK0	0.000	
22	   C	4.074	0.562	3.759	C.2	1	UNK0	0.000	
23	   C	2.837	0.544	4.231	C.2	1	UNK0	0.000	
24	   C	2.008	-0.649	4.432	C.3	1	UNK0	0.000	
25	   C	3.010	-1.115	1.592	C.2	1	UNK0	0.000	
26	   O	3.549	-0.379	0.741	O.2	1	UNK0	0.000	
27	   C	-3.644	0.097	-4.174	C.2	1	UNK0	0.000	
28	   C	-4.492	0.205	-5.252	C.2	1	UNK0	0.000	
29	   H	-5.921	3.069	-4.307	 H	1	UNK0	0.000	
30	   H	-3.519	3.618	-0.377	 H	1	UNK0	0.000	
31	   H	-2.367	1.562	0.984	 H	1	UNK0	0.000	
32	   H	-1.064	2.493	0.090	 H	1	UNK0	0.000	
33	   H	-0.069	-2.121	0.445	 H	1	UNK0	0.000	
34	   H	1.198	-1.333	-0.511	 H	1	UNK0	0.000	
35	   H	2.674	-2.711	4.435	 H	1	UNK0	0.000	
36	   H	4.116	-2.660	2.636	 H	1	UNK0	0.000	
37	   H	5.487	-0.620	2.699	 H	1	UNK0	0.000	
38	   H	4.992	-1.234	4.355	 H	1	UNK0	0.000	
39	   H	4.666	1.457	3.620	 H	1	UNK0	0.000	
40	   H	2.402	1.516	4.491	 H	1	UNK0	0.000	
41	   H	1.944	-0.819	5.546	 H	1	UNK0	0.000	
42	   H	0.952	-0.388	4.140	 H	1	UNK0	0.000	
43	   H	-2.982	-0.762	-4.130	 H	1	UNK0	0.000	
44	   H	-4.528	-0.525	-6.052	 H	1	UNK0	0.000	
@<TRIPOS>BOND
1 1 2 1
2 2 3 2
3 2 28 1
4 3 4 1
5 4 5 1
6 4 9 1
7 5 6 2
8 5 27 1
9 6 7 1
10 7 8 2
11 7 11 1
12 8 9 1
13 9 10 2
14 11 12 1
15 12 13 1
16 13 14 2
17 13 15 1
18 15 16 1
19 16 17 1
20 16 25 1
21 17 18 2
22 17 19 1
23 19 20 1
24 19 24 1
25 20 21 1
26 20 25 1
27 21 22 1
28 22 23 2
29 23 24 1
30 25 26 2
31 27 28 2
32 3 29 1
33 8 30 1
34 11 31 1
35 11 32 1
36 15 33 1
37 15 34 1
38 19 35 1
39 20 36 1
40 21 37 1
41 21 38 1
42 22 39 1
43 23 40 1
44 24 41 1
45 24 42 1
46 27 43 1
47 28 44 1
@<TRIPOS>SUBSTRUCTURE
1	UNK0	1	GROUP	1 ****	UNK
