# created with PyMOL 2.3.2
@<TRIPOS>MOLECULE
801
45 48 1                 
SMALL
USER_CHARGES
@<TRIPOS>ATOM
1	  Br	-0.757	8.850	1.734	Br	1	UNK0	0.000	
2	   C	-0.111	7.039	1.657	C.2	1	UNK0	0.000	
3	   C	-0.012	6.378	0.446	C.2	1	UNK0	0.000	
4	   N	0.441	5.102	0.375	N.pl3	1	UNK0	0.000	
5	   C	0.808	4.444	1.480	C.2	1	UNK0	0.000	
6	   N	1.256	3.180	1.404	N.2	1	UNK0	0.000	
7	   C	1.359	2.521	0.238	C.2	1	UNK0	0.000	
8	   C	0.983	3.195	-0.897	C.2	1	UNK0	0.000	
9	   C	0.513	4.515	-0.837	C.2	1	UNK0	0.000	
10	   O	0.177	5.103	-1.895	O.2	1	UNK0	0.000	
11	   C	1.859	1.132	0.220	C.3	1	UNK0	0.000	
12	   O	0.751	0.285	0.361	O.3	1	UNK0	0.000	
13	   C	0.987	-1.117	0.371	C.2	1	UNK0	0.000	
14	   O	2.179	-1.368	0.250	O.co2	1	UNK0	0.000	
15	   C	-0.144	-2.013	0.515	C.2	1	UNK0	0.000	
16	   N	-1.411	-1.516	0.638	N.2	1	UNK0	0.000	
17	   N	-2.458	-2.311	0.770	N.pl3	1	UNK0	0.000	
18	   C	-2.325	-3.648	0.790	C.2	1	UNK0	0.000	
19	   O	-3.344	-4.406	0.919	O.2	1	UNK0	0.000	
20	   C	-1.084	-4.228	0.673	C.2	1	UNK0	0.000	
21	   C	0.006	-3.365	0.534	C.2	1	UNK0	0.000	
22	   C	1.225	-3.987	0.419	C.2	1	UNK0	0.000	
23	   C	1.352	-5.372	0.441	C.2	1	UNK0	0.000	
24	   C	0.257	-6.192	0.580	C.2	1	UNK0	0.000	
25	   C	-0.972	-5.593	0.696	C.2	1	UNK0	0.000	
26	   C	-3.796	-1.772	0.900	C.3	1	UNK0	0.000	
27	   C	-4.179	-1.522	2.335	C.3	1	UNK0	0.000	
28	   O	-3.338	-0.622	2.963	O.3	1	UNK0	0.000	
29	   C	0.717	5.082	2.688	C.2	1	UNK0	0.000	
30	   C	0.261	6.379	2.802	C.2	1	UNK0	0.000	
31	   H	-0.317	6.934	-0.443	 H	1	UNK0	0.000	
32	   H	1.044	2.717	-1.864	 H	1	UNK0	0.000	
33	   H	2.474	0.909	-0.674	 H	1	UNK0	0.000	
34	   H	2.577	1.030	1.080	 H	1	UNK0	0.000	
35	   H	2.112	-3.426	0.310	 H	1	UNK0	0.000	
36	   H	2.336	-5.815	0.347	 H	1	UNK0	0.000	
37	   H	0.353	-7.281	0.597	 H	1	UNK0	0.000	
38	   H	-1.839	-6.212	0.804	 H	1	UNK0	0.000	
39	   H	-4.529	-2.488	0.480	 H	1	UNK0	0.000	
40	   H	-3.882	-0.833	0.333	 H	1	UNK0	0.000	
41	   H	-4.239	-2.462	2.914	 H	1	UNK0	0.000	
42	   H	-5.194	-1.077	2.326	 H	1	UNK0	0.000	
43	   H	-2.743	-0.241	2.275	 H	1	UNK0	0.000	
44	   H	1.014	4.556	3.607	 H	1	UNK0	0.000	
45	   H	0.192	6.876	3.756	 H	1	UNK0	0.000	
@<TRIPOS>BOND
1 1 2 1
2 2 3 2
3 2 30 1
4 3 4 1
5 4 5 1
6 4 9 1
7 5 6 2
8 5 29 1
9 6 7 1
10 7 8 2
11 7 11 1
12 8 9 1
13 9 10 2
14 11 12 1
15 12 13 1
16 13 14 2
17 13 15 1
18 15 16 2
19 15 21 1
20 16 17 1
21 17 18 1
22 17 26 1
23 18 19 2
24 18 20 1
25 20 21 2
26 20 25 1
27 21 22 1
28 22 23 2
29 23 24 1
30 24 25 2
31 26 27 1
32 27 28 1
33 29 30 2
34 3 31 1
35 8 32 1
36 11 33 1
37 11 34 1
38 22 35 1
39 23 36 1
40 24 37 1
41 25 38 1
42 26 39 1
43 26 40 1
44 27 41 1
45 27 42 1
46 28 43 1
47 29 44 1
48 30 45 1
@<TRIPOS>SUBSTRUCTURE
1	UNK0	1	GROUP	1 ****	UNK
