# created with PyMOL 2.3.2
@<TRIPOS>MOLECULE
802
50 53 1                 
SMALL
USER_CHARGES
@<TRIPOS>ATOM
1	  Br	4.331	0.565	-1.521	Br	1	UNK0	0.000	
2	   C	3.170	-0.539	-0.481	C.2	1	UNK0	0.000	
3	   C	3.286	-1.906	-0.586	C.2	1	UNK0	0.000	
4	   N	2.467	-2.678	0.148	N.pl3	1	UNK0	0.000	
5	   C	1.546	-2.098	0.973	C.2	1	UNK0	0.000	
6	   N	1.452	-0.745	1.058	N.2	1	UNK0	0.000	
7	   C	2.239	0.061	0.353	C.2	1	UNK0	0.000	
8	   N	2.108	1.339	0.471	N.pl3	1	UNK0	0.000	
9	   C	1.151	1.947	1.329	C.2	1	UNK0	0.000	
10	   C	-0.088	2.271	0.825	C.2	1	UNK0	0.000	
11	   C	-1.041	2.863	1.629	C.2	1	UNK0	0.000	
12	   C	-0.766	3.145	2.971	C.2	1	UNK0	0.000	
13	   C	0.479	2.816	3.466	C.2	1	UNK0	0.000	
14	   C	1.441	2.218	2.651	C.2	1	UNK0	0.000	
15	   C	-0.350	1.966	-0.583	C.2	1	UNK0	0.000	
16	   O	0.514	1.427	-1.318	O.co2	1	UNK0	0.000	
17	   O	-1.574	2.258	-1.177	O.3	1	UNK0	0.000	
18	   C	-1.849	1.972	-2.533	C.3	1	UNK0	0.000	
19	   C	-3.286	2.439	-2.800	C.3	1	UNK0	0.000	
20	   C	-3.634	2.154	-4.249	C.3	1	UNK0	0.000	
21	   C	-2.729	2.859	-5.206	C.3	1	UNK0	0.000	
22	   N	0.730	-2.879	1.704	N.pl3	1	UNK0	0.000	
23	   C	0.757	-4.218	1.678	C.2	1	UNK0	0.000	
24	   C	1.677	-4.821	0.854	C.2	1	UNK0	0.000	
25	   C	1.718	-6.202	0.817	C.2	1	UNK0	0.000	
26	   C	0.863	-6.975	1.582	C.2	1	UNK0	0.000	
27	   C	-0.066	-6.380	2.415	C.2	1	UNK0	0.000	
28	   C	-0.091	-5.002	2.438	C.2	1	UNK0	0.000	
29	   C	2.502	-4.023	0.115	C.2	1	UNK0	0.000	
30	   O	3.348	-4.597	-0.643	O.2	1	UNK0	0.000	
31	   H	4.003	-2.391	-1.229	 H	1	UNK0	0.000	
32	   H	2.732	1.933	-0.088	 H	1	UNK0	0.000	
33	   H	-2.022	3.115	1.212	 H	1	UNK0	0.000	
34	   H	-1.515	3.609	3.599	 H	1	UNK0	0.000	
35	   H	0.756	3.009	4.501	 H	1	UNK0	0.000	
36	   H	2.407	1.970	3.061	 H	1	UNK0	0.000	
37	   H	-1.744	0.901	-2.785	 H	1	UNK0	0.000	
38	   H	-1.192	2.527	-3.223	 H	1	UNK0	0.000	
39	   H	-3.365	3.537	-2.672	 H	1	UNK0	0.000	
40	   H	-4.012	1.913	-2.158	 H	1	UNK0	0.000	
41	   H	-4.687	2.474	-4.397	 H	1	UNK0	0.000	
42	   H	-3.595	1.055	-4.465	 H	1	UNK0	0.000	
43	   H	-1.848	2.237	-5.523	 H	1	UNK0	0.000	
44	   H	-2.414	3.852	-4.830	 H	1	UNK0	0.000	
45	   H	-3.327	3.044	-6.143	 H	1	UNK0	0.000	
46	   H	0.028	-2.419	2.333	 H	1	UNK0	0.000	
47	   H	2.450	-6.643	0.160	 H	1	UNK0	0.000	
48	   H	0.897	-8.057	1.551	 H	1	UNK0	0.000	
49	   H	-0.746	-6.974	3.024	 H	1	UNK0	0.000	
50	   H	-0.811	-4.522	3.083	 H	1	UNK0	0.000	
@<TRIPOS>BOND
1 1 2 1
2 2 3 2
3 2 7 1
4 3 4 1
5 4 5 1
6 4 29 1
7 5 6 2
8 5 22 1
9 6 7 1
10 7 8 2
11 8 9 1
12 9 10 2
13 9 14 1
14 10 11 1
15 10 15 1
16 11 12 2
17 12 13 1
18 13 14 2
19 15 16 2
20 15 17 1
21 17 18 1
22 18 19 1
23 19 20 1
24 20 21 1
25 22 23 1
26 23 24 2
27 23 28 1
28 24 25 1
29 24 29 1
30 25 26 2
31 26 27 1
32 27 28 2
33 29 30 2
34 3 31 1
35 8 32 1
36 11 33 1
37 12 34 1
38 13 35 1
39 14 36 1
40 18 37 1
41 18 38 1
42 19 39 1
43 19 40 1
44 20 41 1
45 20 42 1
46 21 43 1
47 21 44 1
48 21 45 1
49 22 46 1
50 25 47 1
51 26 48 1
52 27 49 1
53 28 50 1
@<TRIPOS>SUBSTRUCTURE
1	UNK0	1	GROUP	1 ****	UNK
