# created with PyMOL 2.3.2
@<TRIPOS>MOLECULE
805
46 49 1                 
SMALL
USER_CHARGES
@<TRIPOS>ATOM
1	  Br	-0.840	-0.260	3.947	Br	1	UNK0	0.000	
2	   C	0.750	0.776	3.806	C.2	1	UNK0	0.000	
3	   C	1.958	0.305	3.375	C.2	1	UNK0	0.000	
4	   C	3.062	1.189	3.375	C.2	1	UNK0	0.000	
5	   C	2.979	2.489	3.783	C.2	1	UNK0	0.000	
6	   C	1.739	2.940	4.214	C.2	1	UNK0	0.000	
7	   C	0.641	2.109	4.230	C.2	1	UNK0	0.000	
8	   C	2.130	-1.065	2.875	C.3	1	UNK0	0.000	
9	   N	1.805	-1.259	1.477	N.pl3	1	UNK0	0.000	
10	   C	2.801	-1.022	0.562	C.2	1	UNK0	0.000	
11	   C	2.654	-1.184	-0.786	C.2	1	UNK0	0.000	
12	   C	1.438	-1.614	-1.307	C.2	1	UNK0	0.000	
13	   C	0.451	-1.847	-0.374	C.2	1	UNK0	0.000	
14	   C	0.638	-1.671	0.990	C.2	1	UNK0	0.000	
15	   C	1.231	-1.818	-2.739	C.3	1	UNK0	0.000	
16	   O	0.474	-2.934	-2.986	O.3	1	UNK0	0.000	
17	   C	0.652	-0.588	-3.422	C.3	1	UNK0	0.000	
18	   C	0.440	-0.807	-4.862	C.3	1	UNK0	0.000	
19	   C	-0.864	-0.507	-5.466	C.3	1	UNK0	0.000	
20	   N	-1.932	-0.171	-4.583	N.pl3	1	UNK0	0.000	
21	   C	-1.785	0.080	-3.275	C.2	1	UNK0	0.000	
22	   C	-3.014	0.374	-2.710	C.2	1	UNK0	0.000	
23	   C	-3.914	0.289	-3.745	C.2	1	UNK0	0.000	
24	   C	-3.242	-0.043	-4.876	C.2	1	UNK0	0.000	
25	   C	-0.470	0.017	-2.693	C.2	1	UNK0	0.000	
26	   O	-0.324	0.508	-1.522	O.2	1	UNK0	0.000	
27	   H	4.024	0.787	3.025	 H	1	UNK0	0.000	
28	   H	3.852	3.137	3.768	 H	1	UNK0	0.000	
29	   H	1.676	3.973	4.536	 H	1	UNK0	0.000	
30	   H	-0.300	2.486	4.567	 H	1	UNK0	0.000	
31	   H	1.571	-1.794	3.502	 H	1	UNK0	0.000	
32	   H	3.205	-1.331	3.019	 H	1	UNK0	0.000	
33	   H	3.769	-0.681	0.967	 H	1	UNK0	0.000	
34	   H	3.457	-0.990	-1.497	 H	1	UNK0	0.000	
35	   H	-0.522	-2.187	-0.745	 H	1	UNK0	0.000	
36	   H	-0.188	-1.901	1.627	 H	1	UNK0	0.000	
37	   H	2.249	-1.952	-3.218	 H	1	UNK0	0.000	
38	   H	-0.464	-2.681	-3.083	 H	1	UNK0	0.000	
39	   H	1.495	0.181	-3.329	 H	1	UNK0	0.000	
40	   H	0.637	-1.913	-5.052	 H	1	UNK0	0.000	
41	   H	1.283	-0.328	-5.454	 H	1	UNK0	0.000	
42	   H	-0.738	0.383	-6.153	 H	1	UNK0	0.000	
43	   H	-1.203	-1.314	-6.187	 H	1	UNK0	0.000	
44	   H	-3.248	0.623	-1.674	 H	1	UNK0	0.000	
45	   H	-4.975	0.466	-3.632	 H	1	UNK0	0.000	
46	   H	-3.726	-0.173	-5.842	 H	1	UNK0	0.000	
@<TRIPOS>BOND
1 1 2 1
2 2 3 2
3 2 7 1
4 3 4 1
5 3 8 1
6 4 5 2
7 5 6 1
8 6 7 2
9 8 9 1
10 9 10 2
11 9 14 1
12 10 11 1
13 11 12 2
14 12 13 1
15 12 15 1
16 13 14 2
17 15 16 1
18 15 17 1
19 17 18 1
20 17 25 1
21 18 19 1
22 19 20 1
23 20 21 1
24 20 24 1
25 21 22 2
26 21 25 1
27 22 23 1
28 23 24 2
29 25 26 2
30 4 27 1
31 5 28 1
32 6 29 1
33 7 30 1
34 8 31 1
35 8 32 1
36 10 33 1
37 11 34 1
38 13 35 1
39 14 36 1
40 15 37 1
41 16 38 1
42 17 39 1
43 18 40 1
44 18 41 1
45 19 42 1
46 19 43 1
47 22 44 1
48 23 45 1
49 24 46 1
@<TRIPOS>SUBSTRUCTURE
1	UNK0	1	GROUP	1 ****	UNK
