# created with PyMOL 2.3.2
@<TRIPOS>MOLECULE
811
52 55 1                 
SMALL
USER_CHARGES
@<TRIPOS>ATOM
1	  Br	5.184	2.865	5.206	Br	1	UNK0	0.000	
2	   C	3.785	3.069	3.941	C.2	1	UNK0	0.000	
3	   C	3.854	4.024	2.920	C.2	1	UNK0	0.000	
4	   C	2.817	4.130	2.033	C.2	1	UNK0	0.000	
5	   C	1.684	3.323	2.100	C.2	1	UNK0	0.000	
6	   C	1.631	2.394	3.102	C.2	1	UNK0	0.000	
7	   C	2.686	2.287	4.004	C.2	1	UNK0	0.000	
8	   C	0.604	3.484	1.153	C.2	1	UNK0	0.000	
9	   O	0.700	4.380	0.276	O.2	1	UNK0	0.000	
10	   C	-0.593	2.638	1.189	C.3	1	UNK0	0.000	
11	   N	-0.560	1.730	0.027	N.pl3	1	UNK0	0.000	
12	   C	-1.146	2.023	-1.159	C.2	1	UNK0	0.000	
13	   C	-0.883	0.933	-1.970	C.2	1	UNK0	0.000	
14	   N	-0.167	0.024	-1.300	N.pl3	1	UNK0	0.000	
15	   C	0.024	0.544	-0.050	C.cat	1	UNK0	0.000	
16	   N	0.750	-0.122	0.969	N.pl3	1	UNK0	0.000	
17	   C	0.331	-1.255	-1.727	C.3	1	UNK0	0.000	
18	   C	-0.626	-2.390	-1.451	C.3	1	UNK0	0.000	
19	   N	-0.076	-3.640	-1.874	N.3	1	UNK0	0.000	
20	   C	-0.958	-4.728	-1.594	C.3	1	UNK0	0.000	
21	   C	-0.157	-6.006	-1.691	C.3	1	UNK0	0.000	
22	   O	0.758	-6.042	-2.704	O.3	1	UNK0	0.000	
23	   C	0.637	-5.111	-3.695	C.3	1	UNK0	0.000	
24	   C	0.426	-3.697	-3.204	C.3	1	UNK0	0.000	
25	   C	-1.362	0.941	-3.254	C.2	1	UNK0	0.000	
26	   C	-2.095	1.990	-3.763	C.2	1	UNK0	0.000	
27	   C	-2.360	3.077	-2.956	C.2	1	UNK0	0.000	
28	   C	-1.879	3.073	-1.666	C.2	1	UNK0	0.000	
29	   H	4.729	4.656	2.856	 H	1	UNK0	0.000	
30	   H	2.843	4.855	1.232	 H	1	UNK0	0.000	
31	   H	0.794	1.717	3.236	 H	1	UNK0	0.000	
32	   H	2.593	1.525	4.792	 H	1	UNK0	0.000	
33	   H	-0.731	2.093	2.113	 H	1	UNK0	0.000	
34	   H	-1.467	3.349	1.023	 H	1	UNK0	0.000	
35	   H	0.366	-0.237	1.929	 H	1	UNK0	0.000	
36	   H	1.704	-0.531	0.799	 H	1	UNK0	0.000	
37	   H	0.570	-1.184	-2.824	 H	1	UNK0	0.000	
38	   H	1.299	-1.537	-1.260	 H	1	UNK0	0.000	
39	   H	-1.629	-2.208	-1.844	 H	1	UNK0	0.000	
40	   H	-0.738	-2.441	-0.335	 H	1	UNK0	0.000	
41	   H	-1.894	-4.748	-2.194	 H	1	UNK0	0.000	
42	   H	-1.268	-4.634	-0.515	 H	1	UNK0	0.000	
43	   H	0.422	-6.108	-0.726	 H	1	UNK0	0.000	
44	   H	-0.878	-6.862	-1.747	 H	1	UNK0	0.000	
45	   H	1.577	-5.118	-4.291	 H	1	UNK0	0.000	
46	   H	-0.164	-5.370	-4.442	 H	1	UNK0	0.000	
47	   H	-0.176	-3.180	-3.960	 H	1	UNK0	0.000	
48	   H	1.429	-3.182	-3.208	 H	1	UNK0	0.000	
49	   H	-1.171	0.117	-3.891	 H	1	UNK0	0.000	
50	   H	-2.453	1.946	-4.789	 H	1	UNK0	0.000	
51	   H	-2.940	3.890	-3.383	 H	1	UNK0	0.000	
52	   H	-2.095	3.944	-1.030	 H	1	UNK0	0.000	
@<TRIPOS>BOND
1 1 2 1
2 2 3 2
3 2 7 1
4 3 4 1
5 4 5 2
6 5 6 1
7 5 8 1
8 6 7 2
9 8 9 2
10 8 10 1
11 10 11 1
12 11 12 1
13 11 15 2
14 12 13 2
15 12 28 1
16 13 14 1
17 13 25 1
18 14 15 1
19 14 17 1
20 15 16 1
21 17 18 1
22 18 19 1
23 19 20 1
24 19 24 1
25 20 21 1
26 21 22 1
27 22 23 1
28 23 24 1
29 25 26 2
30 26 27 1
31 27 28 2
32 3 29 1
33 4 30 1
34 6 31 1
35 7 32 1
36 10 33 1
37 10 34 1
38 16 35 1
39 16 36 1
40 17 37 1
41 17 38 1
42 18 39 1
43 18 40 1
44 20 41 1
45 20 42 1
46 21 43 1
47 21 44 1
48 23 45 1
49 23 46 1
50 24 47 1
51 24 48 1
52 25 49 1
53 26 50 1
54 27 51 1
55 28 52 1
@<TRIPOS>SUBSTRUCTURE
1	UNK0	1	GROUP	1 ****	UNK
