# created with PyMOL 2.3.2
@<TRIPOS>MOLECULE
812
52 55 1                 
SMALL
USER_CHARGES
@<TRIPOS>ATOM
1	  Br	-2.876	7.280	4.052	Br	1	UNK0	0.000	
2	   C	-2.323	5.639	3.235	C.2	1	UNK0	0.000	
3	   C	-1.083	5.508	2.646	C.2	1	UNK0	0.000	
4	   C	-0.672	4.332	2.054	C.2	1	UNK0	0.000	
5	   C	-1.495	3.220	2.025	C.2	1	UNK0	0.000	
6	   C	-2.734	3.359	2.616	C.2	1	UNK0	0.000	
7	   C	-3.148	4.534	3.209	C.2	1	UNK0	0.000	
8	   C	-1.059	1.980	1.400	C.2	1	UNK0	0.000	
9	   O	-1.866	1.018	1.415	O.2	1	UNK0	0.000	
10	   C	0.238	1.829	0.780	C.3	1	UNK0	0.000	
11	   N	0.504	0.540	0.211	N.pl3	1	UNK0	0.000	
12	   C	1.057	-0.521	0.803	C.2	1	UNK0	0.000	
13	   N	1.107	-1.507	-0.127	N.pl3	1	UNK0	0.000	
14	   C	0.597	-1.107	-1.296	C.2	1	UNK0	0.000	
15	   C	0.215	0.216	-1.058	C.2	1	UNK0	0.000	
16	   C	0.436	-1.737	-2.595	C.2	1	UNK0	0.000	
17	   C	0.105	-0.950	-3.714	C.2	1	UNK0	0.000	
18	   C	-0.100	-1.501	-4.952	C.2	1	UNK0	0.000	
19	   C	-0.000	-2.851	-5.194	C.2	1	UNK0	0.000	
20	   C	0.321	-3.638	-4.120	C.2	1	UNK0	0.000	
21	   C	0.533	-3.080	-2.842	C.2	1	UNK0	0.000	
22	   O	-0.214	-3.383	-6.464	O.3	1	UNK0	0.000	
23	   C	-0.543	-2.487	-7.519	C.3	1	UNK0	0.000	
24	   C	1.671	-2.826	0.056	C.3	1	UNK0	0.000	
25	   C	2.689	-2.763	1.217	C.3	1	UNK0	0.000	
26	   C	2.073	-2.883	2.552	C.3	1	UNK0	0.000	
27	   C	1.029	-1.831	2.839	C.3	1	UNK0	0.000	
28	   C	1.492	-0.516	2.246	C.3	1	UNK0	0.000	
29	   H	-0.432	6.376	2.666	 H	1	UNK0	0.000	
30	   H	0.307	4.239	1.593	 H	1	UNK0	0.000	
31	   H	-3.380	2.486	2.593	 H	1	UNK0	0.000	
32	   H	-4.129	4.626	3.671	 H	1	UNK0	0.000	
33	   H	0.468	2.606	0.005	 H	1	UNK0	0.000	
34	   H	1.024	1.992	1.575	 H	1	UNK0	0.000	
35	   H	-0.249	0.863	-1.802	 H	1	UNK0	0.000	
36	   H	0.020	0.123	-3.578	 H	1	UNK0	0.000	
37	   H	-0.358	-0.885	-5.824	 H	1	UNK0	0.000	
38	   H	0.416	-4.690	-4.227	 H	1	UNK0	0.000	
39	   H	0.754	-3.735	-2.032	 H	1	UNK0	0.000	
40	   H	0.256	-1.755	-7.720	 H	1	UNK0	0.000	
41	   H	-0.828	-3.030	-8.440	 H	1	UNK0	0.000	
42	   H	-1.452	-1.883	-7.226	 H	1	UNK0	0.000	
43	   H	0.957	-3.619	0.219	 H	1	UNK0	0.000	
44	   H	2.384	-2.974	-0.807	 H	1	UNK0	0.000	
45	   H	3.402	-3.616	1.087	 H	1	UNK0	0.000	
46	   H	3.217	-1.804	1.108	 H	1	UNK0	0.000	
47	   H	2.875	-2.749	3.308	 H	1	UNK0	0.000	
48	   H	1.636	-3.884	2.729	 H	1	UNK0	0.000	
49	   H	0.871	-1.783	3.918	 H	1	UNK0	0.000	
50	   H	0.097	-2.169	2.306	 H	1	UNK0	0.000	
51	   H	2.564	-0.438	2.386	 H	1	UNK0	0.000	
52	   H	0.913	0.252	2.813	 H	1	UNK0	0.000	
@<TRIPOS>BOND
1 1 2 1
2 2 3 2
3 2 7 1
4 3 4 1
5 4 5 2
6 5 6 1
7 5 8 1
8 6 7 2
9 8 9 2
10 8 10 1
11 10 11 1
12 11 12 2
13 11 15 1
14 12 13 1
15 12 28 1
16 13 14 1
17 13 24 1
18 14 15 2
19 14 16 1
20 16 17 2
21 16 21 1
22 17 18 1
23 18 19 2
24 19 20 1
25 19 22 1
26 20 21 2
27 22 23 1
28 24 25 1
29 25 26 1
30 26 27 1
31 27 28 1
32 3 29 1
33 4 30 1
34 6 31 1
35 7 32 1
36 10 33 1
37 10 34 1
38 15 35 1
39 17 36 1
40 18 37 1
41 20 38 1
42 21 39 1
43 23 40 1
44 23 41 1
45 23 42 1
46 24 43 1
47 24 44 1
48 25 45 1
49 25 46 1
50 26 47 1
51 26 48 1
52 27 49 1
53 27 50 1
54 28 51 1
55 28 52 1
@<TRIPOS>SUBSTRUCTURE
1	UNK0	1	GROUP	1 ****	UNK
