# created with PyMOL 2.3.2
@<TRIPOS>MOLECULE
813
52 55 1                 
SMALL
USER_CHARGES
@<TRIPOS>ATOM
1	  Br	-7.134	-3.986	-1.272	Br	1	UNK0	0.000	
2	   C	-5.721	-2.821	-0.720	C.2	1	UNK0	0.000	
3	   C	-5.507	-1.621	-1.365	C.2	1	UNK0	0.000	
4	   C	-4.469	-0.772	-0.964	C.2	1	UNK0	0.000	
5	   C	-3.623	-1.097	0.087	C.2	1	UNK0	0.000	
6	   C	-3.867	-2.301	0.709	C.2	1	UNK0	0.000	
7	   C	-4.875	-3.153	0.336	C.2	1	UNK0	0.000	
8	   C	-2.551	-0.187	0.460	C.2	1	UNK0	0.000	
9	   O	-2.429	0.896	-0.143	O.2	1	UNK0	0.000	
10	   C	-1.575	-0.479	1.534	C.3	1	UNK0	0.000	
11	   N	-0.219	-0.211	1.100	N.pl3	1	UNK0	0.000	
12	   N	0.551	0.850	1.181	N.2	1	UNK0	0.000	
13	   C	1.742	0.627	0.630	C.2	1	UNK0	0.000	
14	   N	1.738	-0.635	0.178	N.pl3	1	UNK0	0.000	
15	   C	0.532	-1.151	0.464	C.2	1	UNK0	0.000	
16	   C	0.072	-2.523	0.117	C.3	1	UNK0	0.000	
17	   C	0.495	-2.883	-1.293	C.3	1	UNK0	0.000	
18	   C	0.944	-1.721	-2.114	C.3	1	UNK0	0.000	
19	   C	2.414	-1.391	-1.969	C.3	1	UNK0	0.000	
20	   C	2.813	-1.342	-0.507	C.3	1	UNK0	0.000	
21	   C	2.933	1.511	0.441	C.3	1	UNK0	0.000	
22	   N	2.681	2.226	-0.800	N.pl3	1	UNK0	0.000	
23	   C	1.709	3.245	-0.827	C.2	1	UNK0	0.000	
24	   C	1.224	3.596	-2.072	C.2	1	UNK0	0.000	
25	   C	0.308	4.612	-2.171	C.2	1	UNK0	0.000	
26	   C	-0.127	5.281	-1.038	C.2	1	UNK0	0.000	
27	   C	0.338	4.950	0.204	C.2	1	UNK0	0.000	
28	   C	1.270	3.911	0.276	C.2	1	UNK0	0.000	
29	  Cl	-1.299	6.558	-1.206	Cl	1	UNK0	0.000	
30	   H	-6.172	-1.377	-2.185	 H	1	UNK0	0.000	
31	   H	-4.317	0.168	-1.490	 H	1	UNK0	0.000	
32	   H	-3.246	-2.599	1.531	 H	1	UNK0	0.000	
33	   H	-5.086	-4.105	0.810	 H	1	UNK0	0.000	
34	   H	-1.797	0.256	2.357	 H	1	UNK0	0.000	
35	   H	-1.633	-1.476	1.965	 H	1	UNK0	0.000	
36	   H	-1.020	-2.649	0.261	 H	1	UNK0	0.000	
37	   H	0.543	-3.272	0.790	 H	1	UNK0	0.000	
38	   H	1.209	-3.731	-1.307	 H	1	UNK0	0.000	
39	   H	-0.433	-3.278	-1.804	 H	1	UNK0	0.000	
40	   H	0.791	-1.968	-3.189	 H	1	UNK0	0.000	
41	   H	0.308	-0.846	-1.878	 H	1	UNK0	0.000	
42	   H	3.091	-2.023	-2.553	 H	1	UNK0	0.000	
43	   H	2.516	-0.331	-2.347	 H	1	UNK0	0.000	
44	   H	3.777	-0.868	-0.414	 H	1	UNK0	0.000	
45	   H	2.899	-2.393	-0.114	 H	1	UNK0	0.000	
46	   H	3.888	0.943	0.402	 H	1	UNK0	0.000	
47	   H	2.980	2.210	1.277	 H	1	UNK0	0.000	
48	   H	3.240	1.961	-1.662	 H	1	UNK0	0.000	
49	   H	1.548	3.075	-2.970	 H	1	UNK0	0.000	
50	   H	-0.089	4.908	-3.145	 H	1	UNK0	0.000	
51	   H	0.032	5.441	1.116	 H	1	UNK0	0.000	
52	   H	1.614	3.659	1.272	 H	1	UNK0	0.000	
@<TRIPOS>BOND
1 1 2 1
2 2 3 2
3 2 7 1
4 3 4 1
5 4 5 2
6 5 6 1
7 5 8 1
8 6 7 2
9 8 9 2
10 8 10 1
11 10 11 1
12 11 12 1
13 11 15 2
14 12 13 2
15 13 14 1
16 13 21 1
17 14 15 1
18 14 20 1
19 15 16 1
20 16 17 1
21 17 18 1
22 18 19 1
23 19 20 1
24 21 22 1
25 22 23 1
26 23 24 2
27 23 28 1
28 24 25 1
29 25 26 2
30 26 27 1
31 26 29 1
32 27 28 2
33 3 30 1
34 4 31 1
35 6 32 1
36 7 33 1
37 10 34 1
38 10 35 1
39 16 36 1
40 16 37 1
41 17 38 1
42 17 39 1
43 18 40 1
44 18 41 1
45 19 42 1
46 19 43 1
47 20 44 1
48 20 45 1
49 21 46 1
50 21 47 1
51 22 48 1
52 24 49 1
53 25 50 1
54 27 51 1
55 28 52 1
@<TRIPOS>SUBSTRUCTURE
1	UNK0	1	GROUP	1 ****	UNK
