# created with PyMOL 2.3.2
@<TRIPOS>MOLECULE
815
47 49 1                 
SMALL
USER_CHARGES
@<TRIPOS>ATOM
1	  Br	-1.914	-7.674	-2.197	Br	1	UNK0	0.000	
2	   C	-1.864	-5.837	-1.628	C.2	1	UNK0	0.000	
3	   C	-0.659	-5.206	-1.395	C.2	1	UNK0	0.000	
4	   C	-0.618	-3.909	-0.994	C.2	1	UNK0	0.000	
5	   C	-1.788	-3.216	-0.816	C.2	1	UNK0	0.000	
6	   C	-2.993	-3.843	-1.047	C.2	1	UNK0	0.000	
7	   C	-3.060	-5.176	-1.461	C.2	1	UNK0	0.000	
8	   C	-1.812	-1.820	-0.385	C.2	1	UNK0	0.000	
9	   O	-2.944	-1.298	-0.259	O.2	1	UNK0	0.000	
10	   C	-0.596	-1.073	-0.117	C.3	1	UNK0	0.000	
11	   N	-0.711	0.284	0.298	N.4	1	UNK0	0.000	
12	   C	0.667	0.676	0.634	C.3	1	UNK0	0.000	
13	   C	0.822	2.160	0.819	C.3	1	UNK0	0.000	
14	   C	-0.557	2.758	0.885	C.3	1	UNK0	0.000	
15	   C	-1.256	2.578	-0.426	C.3	1	UNK0	0.000	
16	   C	-1.246	1.120	-0.768	C.3	1	UNK0	0.000	
17	   C	-1.326	1.936	1.916	C.3	1	UNK0	0.000	
18	   C	-1.492	0.498	1.472	C.3	1	UNK0	0.000	
19	   O	1.522	2.388	2.024	O.3	1	UNK0	0.000	
20	   C	1.649	2.667	-0.292	C.2	1	UNK0	0.000	
21	   O	1.350	2.622	-1.509	O.co2	1	UNK0	0.000	
22	   O	2.895	3.264	-0.020	O.3	1	UNK0	0.000	
23	   C	3.720	3.764	-1.066	C.3	1	UNK0	0.000	
24	   C	4.965	4.327	-0.392	C.3	1	UNK0	0.000	
25	   H	0.232	-5.821	-1.558	 H	1	UNK0	0.000	
26	   H	0.303	-3.416	-0.813	 H	1	UNK0	0.000	
27	   H	-3.958	-3.350	-0.924	 H	1	UNK0	0.000	
28	   H	-3.998	-5.640	-1.633	 H	1	UNK0	0.000	
29	   H	-0.004	-1.612	0.680	 H	1	UNK0	0.000	
30	   H	0.094	-1.085	-1.008	 H	1	UNK0	0.000	
31	   H	1.327	0.284	-0.186	 H	1	UNK0	0.000	
32	   H	0.935	0.144	1.568	 H	1	UNK0	0.000	
33	   H	-0.546	3.815	1.224	 H	1	UNK0	0.000	
34	   H	-0.872	3.233	-1.238	 H	1	UNK0	0.000	
35	   H	-2.306	2.971	-0.256	 H	1	UNK0	0.000	
36	   H	-2.313	0.826	-0.896	 H	1	UNK0	0.000	
37	   H	-0.752	0.882	-1.732	 H	1	UNK0	0.000	
38	   H	-0.795	2.007	2.880	 H	1	UNK0	0.000	
39	   H	-2.323	2.414	2.084	 H	1	UNK0	0.000	
40	   H	-2.580	0.296	1.359	 H	1	UNK0	0.000	
41	   H	-1.128	-0.146	2.321	 H	1	UNK0	0.000	
42	   H	1.134	3.225	2.425	 H	1	UNK0	0.000	
43	   H	4.051	2.902	-1.681	 H	1	UNK0	0.000	
44	   H	3.213	4.552	-1.659	 H	1	UNK0	0.000	
45	   H	5.886	4.005	-0.934	 H	1	UNK0	0.000	
46	   H	5.086	3.902	0.643	 H	1	UNK0	0.000	
47	   H	4.927	5.428	-0.315	 H	1	UNK0	0.000	
@<TRIPOS>BOND
1 1 2 1
2 2 3 2
3 2 7 1
4 3 4 1
5 4 5 2
6 5 6 1
7 5 8 1
8 6 7 2
9 8 9 2
10 8 10 1
11 10 11 1
12 11 12 1
13 11 16 1
14 11 18 1
15 12 13 1
16 13 14 1
17 13 19 1
18 13 20 1
19 14 15 1
20 14 17 1
21 15 16 1
22 17 18 1
23 20 21 2
24 20 22 1
25 22 23 1
26 23 24 1
27 3 25 1
28 4 26 1
29 6 27 1
30 7 28 1
31 10 29 1
32 10 30 1
33 12 31 1
34 12 32 1
35 14 33 1
36 15 34 1
37 15 35 1
38 16 36 1
39 16 37 1
40 17 38 1
41 17 39 1
42 18 40 1
43 18 41 1
44 19 42 1
45 23 43 1
46 23 44 1
47 24 45 1
48 24 46 1
49 24 47 1
@<TRIPOS>SUBSTRUCTURE
1	UNK0	1	GROUP	1 ****	UNK
