# created with PyMOL 2.3.2
@<TRIPOS>MOLECULE
816
50 53 1                 
SMALL
USER_CHARGES
@<TRIPOS>ATOM
1	  Br	0.849	-6.304	-4.975	Br	1	UNK0	0.000	
2	   C	0.516	-4.668	-4.040	C.2	1	UNK0	0.000	
3	   C	0.080	-4.687	-2.732	C.2	1	UNK0	0.000	
4	   C	-0.156	-3.516	-2.067	C.2	1	UNK0	0.000	
5	   C	0.026	-2.280	-2.660	C.2	1	UNK0	0.000	
6	   C	0.459	-2.274	-3.957	C.2	1	UNK0	0.000	
7	   C	0.700	-3.448	-4.637	C.2	1	UNK0	0.000	
8	   C	-0.235	-1.017	-1.923	C.2	1	UNK0	0.000	
9	   O	-0.040	0.044	-2.548	O.2	1	UNK0	0.000	
10	   C	-0.692	-1.128	-0.546	C.3	1	UNK0	0.000	
11	   N	-0.952	0.062	0.183	N.4	1	UNK0	0.000	
12	   C	-0.291	1.235	-0.325	C.3	1	UNK0	0.000	
13	   C	-0.338	2.391	0.660	C.3	1	UNK0	0.000	
14	   C	-1.601	2.149	1.501	C.3	1	UNK0	0.000	
15	   C	-1.220	0.952	2.389	C.3	1	UNK0	0.000	
16	   C	-0.507	-0.089	1.591	C.3	1	UNK0	0.000	
17	   C	-2.737	1.679	0.642	C.3	1	UNK0	0.000	
18	   C	-2.408	0.249	0.208	C.3	1	UNK0	0.000	
19	   O	0.731	2.426	1.554	O.3	1	UNK0	0.000	
20	   C	1.513	3.531	1.810	C.2	1	UNK0	0.000	
21	   O	1.236	4.583	1.187	O.co2	1	UNK0	0.000	
22	   C	2.604	3.445	2.768	C.2	1	UNK0	0.000	
23	   C	3.411	4.522	3.055	C.2	1	UNK0	0.000	
24	   C	4.442	4.405	3.974	C.2	1	UNK0	0.000	
25	   C	4.697	3.212	4.631	C.2	1	UNK0	0.000	
26	   C	3.898	2.134	4.350	C.2	1	UNK0	0.000	
27	   C	2.860	2.261	3.422	C.2	1	UNK0	0.000	
28	   H	-0.066	-5.652	-2.257	 H	1	UNK0	0.000	
29	   H	-0.502	-3.513	-1.030	 H	1	UNK0	0.000	
30	   H	0.608	-1.318	-4.440	 H	1	UNK0	0.000	
31	   H	1.045	-3.448	-5.669	 H	1	UNK0	0.000	
32	   H	-1.600	-1.821	-0.539	 H	1	UNK0	0.000	
33	   H	0.054	-1.739	0.059	 H	1	UNK0	0.000	
34	   H	0.747	0.963	-0.581	 H	1	UNK0	0.000	
35	   H	-0.895	1.597	-1.194	 H	1	UNK0	0.000	
36	   H	-0.514	3.367	0.150	 H	1	UNK0	0.000	
37	   H	-1.807	3.006	2.136	 H	1	UNK0	0.000	
38	   H	-0.578	1.362	3.205	 H	1	UNK0	0.000	
39	   H	-2.127	0.530	2.837	 H	1	UNK0	0.000	
40	   H	0.579	0.115	1.587	 H	1	UNK0	0.000	
41	   H	-0.702	-1.130	1.934	 H	1	UNK0	0.000	
42	   H	-3.652	1.697	1.268	 H	1	UNK0	0.000	
43	   H	-2.903	2.342	-0.231	 H	1	UNK0	0.000	
44	   H	-2.792	-0.415	0.992	 H	1	UNK0	0.000	
45	   H	-2.777	0.055	-0.798	 H	1	UNK0	0.000	
46	   H	3.194	5.442	2.532	 H	1	UNK0	0.000	
47	   H	5.060	5.244	4.189	 H	1	UNK0	0.000	
48	   H	5.499	3.108	5.349	 H	1	UNK0	0.000	
49	   H	4.074	1.178	4.852	 H	1	UNK0	0.000	
50	   H	2.254	1.391	3.228	 H	1	UNK0	0.000	
@<TRIPOS>BOND
1 1 2 1
2 2 3 2
3 2 7 1
4 3 4 1
5 4 5 2
6 5 6 1
7 5 8 1
8 6 7 2
9 8 9 2
10 8 10 1
11 10 11 1
12 11 12 1
13 11 16 1
14 11 18 1
15 12 13 1
16 13 14 1
17 13 19 1
18 14 15 1
19 14 17 1
20 15 16 1
21 17 18 1
22 19 20 1
23 20 21 2
24 20 22 1
25 22 23 2
26 22 27 1
27 23 24 1
28 24 25 2
29 25 26 1
30 26 27 2
31 3 28 1
32 4 29 1
33 6 30 1
34 7 31 1
35 10 32 1
36 10 33 1
37 12 34 1
38 12 35 1
39 13 36 1
40 14 37 1
41 15 38 1
42 15 39 1
43 16 40 1
44 16 41 1
45 17 42 1
46 17 43 1
47 18 44 1
48 18 45 1
49 23 46 1
50 24 47 1
51 25 48 1
52 26 49 1
53 27 50 1
@<TRIPOS>SUBSTRUCTURE
1	UNK0	1	GROUP	1 ****	UNK
