# created with PyMOL 2.3.2
@<TRIPOS>MOLECULE
817
46 49 1                 
SMALL
USER_CHARGES
@<TRIPOS>ATOM
1	  Br	-0.640	-4.322	7.532	Br	1	UNK0	0.000	
2	   C	-0.176	-3.292	5.995	C.2	1	UNK0	0.000	
3	   C	0.757	-2.306	6.090	C.2	1	UNK0	0.000	
4	   C	1.078	-1.569	4.956	C.2	1	UNK0	0.000	
5	   C	0.477	-1.813	3.744	C.2	1	UNK0	0.000	
6	   C	-0.456	-2.813	3.687	C.2	1	UNK0	0.000	
7	   C	-0.776	-3.538	4.791	C.2	1	UNK0	0.000	
8	   C	0.850	-1.012	2.585	C.2	1	UNK0	0.000	
9	   O	1.723	-0.136	2.812	O.2	1	UNK0	0.000	
10	   C	0.318	-1.139	1.251	C.3	1	UNK0	0.000	
11	   N	0.711	-0.341	0.186	N.4	1	UNK0	0.000	
12	   C	2.123	-0.463	-0.122	C.3	1	UNK0	0.000	
13	   C	2.650	0.568	-1.076	C.3	1	UNK0	0.000	
14	   C	1.483	1.340	-1.653	C.3	1	UNK0	0.000	
15	   C	0.898	2.063	-0.429	C.3	1	UNK0	0.000	
16	   C	0.351	1.055	0.510	C.3	1	UNK0	0.000	
17	   C	0.439	0.349	-2.033	C.2	1	UNK0	0.000	
18	   C	0.046	-0.533	-1.042	C.2	1	UNK0	0.000	
19	   C	-0.899	-1.452	-1.337	C.2	1	UNK0	0.000	
20	   C	-1.479	-1.529	-2.608	C.2	1	UNK0	0.000	
21	   C	-1.084	-0.655	-3.579	C.2	1	UNK0	0.000	
22	   C	-0.110	0.302	-3.294	C.2	1	UNK0	0.000	
23	   O	-1.654	-0.712	-4.869	O.3	1	UNK0	0.000	
24	   C	-2.638	-1.695	-5.119	C.3	1	UNK0	0.000	
25	   O	3.477	1.455	-0.411	O.3	1	UNK0	0.000	
26	   H	1.220	-2.125	7.048	 H	1	UNK0	0.000	
27	   H	1.829	-0.797	5.097	 H	1	UNK0	0.000	
28	   H	-0.931	-3.010	2.739	 H	1	UNK0	0.000	
29	   H	-1.532	-4.344	4.729	 H	1	UNK0	0.000	
30	   H	-0.806	-0.958	1.370	 H	1	UNK0	0.000	
31	   H	0.305	-2.252	1.023	 H	1	UNK0	0.000	
32	   H	2.218	-1.443	-0.677	 H	1	UNK0	0.000	
33	   H	2.694	-0.465	0.807	 H	1	UNK0	0.000	
34	   H	3.214	0.149	-1.923	 H	1	UNK0	0.000	
35	   H	1.753	2.026	-2.451	 H	1	UNK0	0.000	
36	   H	1.760	2.576	0.083	 H	1	UNK0	0.000	
37	   H	0.201	2.860	-0.728	 H	1	UNK0	0.000	
38	   H	0.484	1.289	1.571	 H	1	UNK0	0.000	
39	   H	-0.775	1.080	0.363	 H	1	UNK0	0.000	
40	   H	-1.218	-2.137	-0.604	 H	1	UNK0	0.000	
41	   H	-2.234	-2.269	-2.833	 H	1	UNK0	0.000	
42	   H	0.193	0.989	-4.073	 H	1	UNK0	0.000	
43	   H	-2.200	-2.692	-4.828	 H	1	UNK0	0.000	
44	   H	-3.498	-1.502	-4.436	 H	1	UNK0	0.000	
45	   H	-2.993	-1.688	-6.150	 H	1	UNK0	0.000	
46	   H	3.751	2.209	-0.970	 H	1	UNK0	0.000	
@<TRIPOS>BOND
1 1 2 1
2 2 3 2
3 2 7 1
4 3 4 1
5 4 5 2
6 5 6 1
7 5 8 1
8 6 7 2
9 8 9 2
10 8 10 1
11 10 11 1
12 11 12 1
13 11 16 1
14 11 18 1
15 12 13 1
16 13 14 1
17 13 25 1
18 14 15 1
19 14 17 1
20 15 16 1
21 17 18 2
22 17 22 1
23 18 19 1
24 19 20 2
25 20 21 1
26 21 22 2
27 21 23 1
28 23 24 1
29 3 26 1
30 4 27 1
31 6 28 1
32 7 29 1
33 10 30 1
34 10 31 1
35 12 32 1
36 12 33 1
37 13 34 1
38 14 35 1
39 15 36 1
40 15 37 1
41 16 38 1
42 16 39 1
43 19 40 1
44 20 41 1
45 22 42 1
46 24 43 1
47 24 44 1
48 24 45 1
49 25 46 1
@<TRIPOS>SUBSTRUCTURE
1	UNK0	1	GROUP	1 ****	UNK
