# created with PyMOL 2.3.2
@<TRIPOS>MOLECULE
818
40 43 1                 
SMALL
USER_CHARGES
@<TRIPOS>ATOM
1	  Br	1.046	-3.747	6.386	Br	1	UNK0	0.000	
2	   C	0.974	-2.703	4.802	C.2	1	UNK0	0.000	
3	   C	0.626	-3.313	3.617	C.2	1	UNK0	0.000	
4	   C	0.580	-2.534	2.470	C.2	1	UNK0	0.000	
5	   C	0.868	-1.180	2.476	C.2	1	UNK0	0.000	
6	   C	1.212	-0.600	3.678	C.2	1	UNK0	0.000	
7	   C	1.266	-1.348	4.827	C.2	1	UNK0	0.000	
8	   C	0.813	-0.383	1.260	C.2	1	UNK0	0.000	
9	   O	1.082	0.834	1.320	O.2	1	UNK0	0.000	
10	   C	0.436	-1.038	-0.033	C.3	1	UNK0	0.000	
11	   N	0.448	-0.052	-1.099	N.pl3	1	UNK0	0.000	
12	   C	1.355	0.013	-2.189	C.2	1	UNK0	0.000	
13	   C	1.033	1.105	-2.992	C.2	1	UNK0	0.000	
14	   C	1.787	1.378	-4.131	C.2	1	UNK0	0.000	
15	   C	2.860	0.590	-4.497	C.2	1	UNK0	0.000	
16	   C	3.158	-0.487	-3.683	C.2	1	UNK0	0.000	
17	   C	2.422	-0.776	-2.547	C.2	1	UNK0	0.000	
18	   N	-0.094	1.728	-2.389	N.pl3	1	UNK0	0.000	
19	   C	-0.858	2.899	-2.785	C.3	1	UNK0	0.000	
20	   C	-2.301	2.652	-2.332	C.3	1	UNK0	0.000	
21	   C	-2.254	2.543	-0.830	C.3	1	UNK0	0.000	
22	   N	-1.480	1.384	-0.464	N.pl3	1	UNK0	0.000	
23	   C	-0.489	1.037	-1.209	C.cat	1	UNK0	0.000	
24	   H	0.395	-4.375	3.590	 H	1	UNK0	0.000	
25	   H	0.305	-3.034	1.552	 H	1	UNK0	0.000	
26	   H	1.445	0.442	3.740	 H	1	UNK0	0.000	
27	   H	1.535	-0.900	5.773	 H	1	UNK0	0.000	
28	   H	-0.576	-1.428	0.089	 H	1	UNK0	0.000	
29	   H	1.113	-1.863	-0.272	 H	1	UNK0	0.000	
30	   H	1.530	2.216	-4.736	 H	1	UNK0	0.000	
31	   H	3.455	0.795	-5.384	 H	1	UNK0	0.000	
32	   H	3.997	-1.100	-3.973	 H	1	UNK0	0.000	
33	   H	2.679	-1.623	-1.933	 H	1	UNK0	0.000	
34	   H	-0.458	3.781	-2.265	 H	1	UNK0	0.000	
35	   H	-0.819	3.010	-3.875	 H	1	UNK0	0.000	
36	   H	-2.937	3.519	-2.586	 H	1	UNK0	0.000	
37	   H	-2.674	1.712	-2.746	 H	1	UNK0	0.000	
38	   H	-1.777	3.463	-0.385	 H	1	UNK0	0.000	
39	   H	-3.290	2.425	-0.453	 H	1	UNK0	0.000	
40	   H	-1.685	0.800	0.387	 H	1	UNK0	0.000	
@<TRIPOS>BOND
1 1 2 1
2 2 3 2
3 2 7 1
4 3 4 1
5 4 5 2
6 5 6 1
7 5 8 1
8 6 7 2
9 8 9 2
10 8 10 1
11 10 11 1
12 11 12 1
13 11 23 1
14 12 13 1
15 12 17 2
16 13 14 2
17 13 18 1
18 14 15 1
19 15 16 2
20 16 17 1
21 18 19 1
22 18 23 1
23 19 20 1
24 20 21 1
25 21 22 1
26 22 23 2
27 3 24 1
28 4 25 1
29 6 26 1
30 7 27 1
31 10 28 1
32 10 29 1
33 14 30 1
34 15 31 1
35 16 32 1
36 17 33 1
37 19 34 1
38 19 35 1
39 20 36 1
40 20 37 1
41 21 38 1
42 21 39 1
43 22 40 1
@<TRIPOS>SUBSTRUCTURE
1	UNK0	1	GROUP	1 ****	UNK
