# created with PyMOL 2.3.2
@<TRIPOS>MOLECULE
819
52 55 1                 
SMALL
USER_CHARGES
@<TRIPOS>ATOM
1	  Br	1.417	-1.738	-5.308	Br	1	UNK0	0.000	
2	   C	0.827	-1.810	-3.502	C.2	1	UNK0	0.000	
3	   C	-0.502	-1.774	-3.133	C.2	1	UNK0	0.000	
4	   C	-0.852	-1.831	-1.800	C.2	1	UNK0	0.000	
5	   C	0.102	-1.926	-0.782	C.2	1	UNK0	0.000	
6	   C	1.417	-1.960	-1.168	C.2	1	UNK0	0.000	
7	   C	1.763	-1.904	-2.498	C.2	1	UNK0	0.000	
8	   C	-0.393	-2.023	0.593	C.3	1	UNK0	0.000	
9	   O	0.505	-2.732	1.405	O.3	1	UNK0	0.000	
10	   C	-1.086	-0.899	1.204	C.3	1	UNK0	0.000	
11	   C	-0.454	0.424	1.400	C.3	1	UNK0	0.000	
12	   N	-1.410	1.354	2.046	N.4	1	UNK0	0.000	
13	   C	-2.434	1.791	1.160	C.3	1	UNK0	0.000	
14	   C	-2.137	1.762	-0.298	C.3	1	UNK0	0.000	
15	   C	-0.690	1.758	-0.633	C.2	1	UNK0	0.000	
16	   C	0.153	1.080	0.240	C.2	1	UNK0	0.000	
17	   C	1.498	1.104	-0.060	C.2	1	UNK0	0.000	
18	   C	2.001	1.753	-1.155	C.2	1	UNK0	0.000	
19	   C	1.172	2.423	-2.020	C.2	1	UNK0	0.000	
20	   C	-0.179	2.408	-1.730	C.2	1	UNK0	0.000	
21	   O	1.973	2.968	-3.015	O.3	1	UNK0	0.000	
22	   C	3.304	2.541	-2.875	C.3	1	UNK0	0.000	
23	   O	3.320	1.888	-1.620	O.3	1	UNK0	0.000	
24	   O	2.381	0.424	0.810	O.3	1	UNK0	0.000	
25	   C	2.931	1.135	1.896	C.3	1	UNK0	0.000	
26	   C	-1.998	0.633	3.150	C.3	1	UNK0	0.000	
27	   C	-0.677	2.463	2.613	C.3	1	UNK0	0.000	
28	   H	-1.254	-1.701	-3.897	 H	1	UNK0	0.000	
29	   H	-1.898	-1.801	-1.531	 H	1	UNK0	0.000	
30	   H	2.177	-2.036	-0.389	 H	1	UNK0	0.000	
31	   H	2.804	-1.932	-2.784	 H	1	UNK0	0.000	
32	   H	-1.232	-2.836	0.484	 H	1	UNK0	0.000	
33	   H	0.642	-2.239	2.229	 H	1	UNK0	0.000	
34	   H	-2.060	-0.752	0.647	 H	1	UNK0	0.000	
35	   H	-1.485	-1.303	2.207	 H	1	UNK0	0.000	
36	   H	0.348	0.306	2.161	 H	1	UNK0	0.000	
37	   H	-2.713	2.828	1.443	 H	1	UNK0	0.000	
38	   H	-3.370	1.189	1.327	 H	1	UNK0	0.000	
39	   H	-2.719	0.979	-0.820	 H	1	UNK0	0.000	
40	   H	-2.522	2.716	-0.781	 H	1	UNK0	0.000	
41	   H	-0.835	2.935	-2.410	 H	1	UNK0	0.000	
42	   H	4.024	3.408	-2.901	 H	1	UNK0	0.000	
43	   H	3.605	1.818	-3.665	 H	1	UNK0	0.000	
44	   H	2.806	0.503	2.810	 H	1	UNK0	0.000	
45	   H	2.406	2.096	2.048	 H	1	UNK0	0.000	
46	   H	3.987	1.337	1.670	 H	1	UNK0	0.000	
47	   H	-2.887	0.040	2.818	 H	1	UNK0	0.000	
48	   H	-1.267	0.033	3.726	 H	1	UNK0	0.000	
49	   H	-2.431	1.348	3.914	 H	1	UNK0	0.000	
50	   H	-1.260	2.976	3.394	 H	1	UNK0	0.000	
51	   H	0.216	2.029	3.142	 H	1	UNK0	0.000	
52	   H	-0.329	3.179	1.842	 H	1	UNK0	0.000	
@<TRIPOS>BOND
1 1 2 1
2 2 3 2
3 2 7 1
4 3 4 1
5 4 5 2
6 5 6 1
7 5 8 1
8 6 7 2
9 8 9 1
10 8 10 1
11 10 11 1
12 11 12 1
13 11 16 1
14 12 13 1
15 12 26 1
16 12 27 1
17 13 14 1
18 14 15 1
19 15 16 2
20 15 20 1
21 16 17 1
22 17 18 2
23 17 24 1
24 18 19 1
25 18 23 1
26 19 20 2
27 19 21 1
28 21 22 1
29 22 23 1
30 24 25 1
31 3 28 1
32 4 29 1
33 6 30 1
34 7 31 1
35 8 32 1
36 9 33 1
37 10 34 1
38 10 35 1
39 11 36 1
40 13 37 1
41 13 38 1
42 14 39 1
43 14 40 1
44 20 41 1
45 22 42 1
46 22 43 1
47 25 44 1
48 25 45 1
49 25 46 1
50 26 47 1
51 26 48 1
52 26 49 1
53 27 50 1
54 27 51 1
55 27 52 1
@<TRIPOS>SUBSTRUCTURE
1	UNK0	1	GROUP	1 ****	UNK
