# created with PyMOL 2.3.2
@<TRIPOS>MOLECULE
820
56 61 1                 
SMALL
USER_CHARGES
@<TRIPOS>ATOM
1	  Br	6.629	-1.936	4.517	Br	1	UNK0	0.000	
2	   C	5.533	-2.007	2.966	C.2	1	UNK0	0.000	
3	   C	5.805	-1.167	1.916	C.2	1	UNK0	0.000	
4	   C	5.029	-1.183	0.760	C.2	1	UNK0	0.000	
5	   C	3.958	-2.047	0.630	C.2	1	UNK0	0.000	
6	   C	3.693	-2.889	1.694	C.2	1	UNK0	0.000	
7	   C	4.465	-2.868	2.836	C.2	1	UNK0	0.000	
8	   C	3.106	-2.091	-0.595	C.3	1	UNK0	0.000	
9	   N	2.003	-1.137	-0.406	N.pl3	1	UNK0	0.000	
10	   C	0.857	-1.543	0.159	C.2	1	UNK0	0.000	
11	   C	-0.233	-0.719	0.377	C.2	1	UNK0	0.000	
12	   C	-0.109	0.593	-0.019	C.2	1	UNK0	0.000	
13	   C	1.062	1.022	-0.601	C.2	1	UNK0	0.000	
14	   C	2.131	0.143	-0.795	C.2	1	UNK0	0.000	
15	   C	-1.241	1.563	0.177	C.3	1	UNK0	0.000	
16	   C	-0.786	2.676	1.069	C.3	1	UNK0	0.000	
17	   C	-0.343	2.020	2.408	C.3	1	UNK0	0.000	
18	   N	-1.614	1.492	2.868	N.pl3	1	UNK0	0.000	
19	   C	-2.632	2.281	2.409	C.2	1	UNK0	0.000	
20	   C	-3.836	1.773	2.857	C.2	1	UNK0	0.000	
21	   C	-3.559	0.649	3.607	C.2	1	UNK0	0.000	
22	   C	-2.189	0.504	3.595	C.2	1	UNK0	0.000	
23	   C	-2.008	3.358	1.616	C.2	1	UNK0	0.000	
24	   O	-2.448	4.511	1.488	O.2	1	UNK0	0.000	
25	   C	-1.606	2.055	-1.207	C.3	1	UNK0	0.000	
26	   C	-2.021	0.824	-2.053	C.3	1	UNK0	0.000	
27	   N	-3.353	0.575	-1.608	N.pl3	1	UNK0	0.000	
28	   C	-3.898	1.739	-1.141	C.2	1	UNK0	0.000	
29	   C	-5.182	1.484	-0.723	C.2	1	UNK0	0.000	
30	   C	-5.426	0.132	-0.939	C.2	1	UNK0	0.000	
31	   C	-4.289	-0.383	-1.479	C.2	1	UNK0	0.000	
32	   C	-2.889	2.792	-1.273	C.2	1	UNK0	0.000	
33	   O	-3.093	4.005	-1.408	O.2	1	UNK0	0.000	
34	   H	6.641	-0.484	2.004	 H	1	UNK0	0.000	
35	   H	5.278	-0.504	-0.044	 H	1	UNK0	0.000	
36	   H	2.861	-3.575	1.617	 H	1	UNK0	0.000	
37	   H	4.260	-3.527	3.671	 H	1	UNK0	0.000	
38	   H	2.726	-3.107	-0.772	 H	1	UNK0	0.000	
39	   H	3.706	-1.697	-1.451	 H	1	UNK0	0.000	
40	   H	0.812	-2.601	0.457	 H	1	UNK0	0.000	
41	   H	-1.149	-1.094	0.842	 H	1	UNK0	0.000	
42	   H	1.152	2.050	-0.908	 H	1	UNK0	0.000	
43	   H	3.062	0.475	-1.255	 H	1	UNK0	0.000	
44	   H	-2.072	1.022	0.651	 H	1	UNK0	0.000	
45	   H	-0.041	3.349	0.671	 H	1	UNK0	0.000	
46	   H	-0.023	2.850	3.052	 H	1	UNK0	0.000	
47	   H	0.407	1.252	2.224	 H	1	UNK0	0.000	
48	   H	-4.825	2.194	2.650	 H	1	UNK0	0.000	
49	   H	-4.292	0.002	4.112	 H	1	UNK0	0.000	
50	   H	-1.650	-0.298	4.102	 H	1	UNK0	0.000	
51	   H	-0.762	2.549	-1.682	 H	1	UNK0	0.000	
52	   H	-1.941	1.125	-3.114	 H	1	UNK0	0.000	
53	   H	-1.342	-0.018	-1.851	 H	1	UNK0	0.000	
54	   H	-5.880	2.183	-0.306	 H	1	UNK0	0.000	
55	   H	-6.371	-0.346	-0.697	 H	1	UNK0	0.000	
56	   H	-4.195	-1.444	-1.754	 H	1	UNK0	0.000	
@<TRIPOS>BOND
1 1 2 1
2 2 3 2
3 2 7 1
4 3 4 1
5 4 5 2
6 5 6 1
7 5 8 1
8 6 7 2
9 8 9 1
10 9 10 2
11 9 14 1
12 10 11 1
13 11 12 2
14 12 13 1
15 12 15 1
16 13 14 2
17 15 16 1
18 15 25 1
19 16 17 1
20 16 23 1
21 17 18 1
22 18 19 1
23 18 22 1
24 19 20 2
25 19 23 1
26 20 21 1
27 21 22 2
28 23 24 2
29 25 26 1
30 25 32 1
31 26 27 1
32 27 28 1
33 27 31 1
34 28 29 2
35 28 32 1
36 29 30 1
37 30 31 2
38 32 33 2
39 3 34 1
40 4 35 1
41 6 36 1
42 7 37 1
43 8 38 1
44 8 39 1
45 10 40 1
46 11 41 1
47 13 42 1
48 14 43 1
49 15 44 1
50 16 45 1
51 17 46 1
52 17 47 1
53 20 48 1
54 21 49 1
55 22 50 1
56 25 51 1
57 26 52 1
58 26 53 1
59 29 54 1
60 30 55 1
61 31 56 1
@<TRIPOS>SUBSTRUCTURE
1	UNK0	1	GROUP	1 ****	UNK
