# created with PyMOL 2.3.2
@<TRIPOS>MOLECULE
821
46 49 1                 
SMALL
USER_CHARGES
@<TRIPOS>ATOM
1	  Br	0.110	-7.765	1.615	Br	1	UNK0	0.000	
2	   C	1.031	-6.080	1.488	C.2	1	UNK0	0.000	
3	   C	1.430	-5.401	2.621	C.2	1	UNK0	0.000	
4	   C	2.094	-4.183	2.493	C.2	1	UNK0	0.000	
5	   C	2.356	-3.654	1.257	C.2	1	UNK0	0.000	
6	   C	1.960	-4.328	0.132	C.2	1	UNK0	0.000	
7	   C	1.304	-5.529	0.261	C.2	1	UNK0	0.000	
8	   C	3.064	-2.358	1.157	C.3	1	UNK0	0.000	
9	   N	2.181	-1.226	1.145	N.pl3	1	UNK0	0.000	
10	   C	1.730	-0.782	-0.040	C.2	1	UNK0	0.000	
11	   C	0.879	0.295	-0.185	C.2	1	UNK0	0.000	
12	   C	0.450	0.974	0.935	C.2	1	UNK0	0.000	
13	   C	0.920	0.510	2.163	C.2	1	UNK0	0.000	
14	   C	1.770	-0.572	2.245	C.2	1	UNK0	0.000	
15	   C	-0.472	2.145	0.861	C.3	1	UNK0	0.000	
16	   O	-0.047	2.958	-0.173	O.3	1	UNK0	0.000	
17	   C	-1.902	1.722	0.660	C.3	1	UNK0	0.000	
18	   C	-2.849	2.872	0.583	C.3	1	UNK0	0.000	
19	   C	-2.663	3.766	-0.586	C.3	1	UNK0	0.000	
20	   N	-2.342	3.066	-1.799	N.pl3	1	UNK0	0.000	
21	   C	-2.017	1.767	-1.863	C.2	1	UNK0	0.000	
22	   C	-1.773	1.436	-3.193	C.2	1	UNK0	0.000	
23	   C	-1.962	2.578	-3.921	C.2	1	UNK0	0.000	
24	   C	-2.311	3.572	-3.061	C.2	1	UNK0	0.000	
25	   C	-1.980	0.995	-0.634	C.2	1	UNK0	0.000	
26	   O	-2.014	-0.259	-0.712	O.2	1	UNK0	0.000	
27	   H	1.209	-5.844	3.585	 H	1	UNK0	0.000	
28	   H	2.378	-3.707	3.432	 H	1	UNK0	0.000	
29	   H	2.161	-3.919	-0.879	 H	1	UNK0	0.000	
30	   H	0.986	-6.072	-0.649	 H	1	UNK0	0.000	
31	   H	3.638	-2.370	0.208	 H	1	UNK0	0.000	
32	   H	3.836	-2.267	1.965	 H	1	UNK0	0.000	
33	   H	2.027	-1.271	-0.984	 H	1	UNK0	0.000	
34	   H	0.545	0.613	-1.175	 H	1	UNK0	0.000	
35	   H	0.594	1.032	3.063	 H	1	UNK0	0.000	
36	   H	2.132	-0.925	3.223	 H	1	UNK0	0.000	
37	   H	-0.355	2.746	1.813	 H	1	UNK0	0.000	
38	   H	0.514	3.710	0.106	 H	1	UNK0	0.000	
39	   H	-2.241	1.058	1.481	 H	1	UNK0	0.000	
40	   H	-2.814	3.491	1.521	 H	1	UNK0	0.000	
41	   H	-3.884	2.457	0.559	 H	1	UNK0	0.000	
42	   H	-1.849	4.507	-0.336	 H	1	UNK0	0.000	
43	   H	-3.573	4.381	-0.743	 H	1	UNK0	0.000	
44	   H	-1.493	0.465	-3.540	 H	1	UNK0	0.000	
45	   H	-1.845	2.643	-5.005	 H	1	UNK0	0.000	
46	   H	-2.521	4.589	-3.374	 H	1	UNK0	0.000	
@<TRIPOS>BOND
1 1 2 1
2 2 3 2
3 2 7 1
4 3 4 1
5 4 5 2
6 5 6 1
7 5 8 1
8 6 7 2
9 8 9 1
10 9 10 2
11 9 14 1
12 10 11 1
13 11 12 2
14 12 13 1
15 12 15 1
16 13 14 2
17 15 16 1
18 15 17 1
19 17 18 1
20 17 25 1
21 18 19 1
22 19 20 1
23 20 21 1
24 20 24 1
25 21 22 2
26 21 25 1
27 22 23 1
28 23 24 2
29 25 26 2
30 3 27 1
31 4 28 1
32 6 29 1
33 7 30 1
34 8 31 1
35 8 32 1
36 10 33 1
37 11 34 1
38 13 35 1
39 14 36 1
40 15 37 1
41 16 38 1
42 17 39 1
43 18 40 1
44 18 41 1
45 19 42 1
46 19 43 1
47 22 44 1
48 23 45 1
49 24 46 1
@<TRIPOS>SUBSTRUCTURE
1	UNK0	1	GROUP	1 ****	UNK
