# created with PyMOL 2.3.2
@<TRIPOS>MOLECULE
826
50 53 1                 
SMALL
USER_CHARGES
@<TRIPOS>ATOM
1	  Br	6.190	-2.565	-1.493	Br	1	UNK0	0.000	
2	   C	4.355	-2.045	-1.289	C.2	1	UNK0	0.000	
3	   C	3.894	-0.857	-1.781	C.2	1	UNK0	0.000	
4	   C	2.584	-0.470	-1.643	C.2	1	UNK0	0.000	
5	   C	1.642	-1.289	-0.982	C.2	1	UNK0	0.000	
6	   C	2.140	-2.463	-0.509	C.2	1	UNK0	0.000	
7	   C	3.442	-2.873	-0.632	C.2	1	UNK0	0.000	
8	   C	0.282	-0.769	-0.915	C.3	1	UNK0	0.000	
9	   N	0.160	0.640	-0.820	N.4	1	UNK0	0.000	
10	   C	-1.262	0.822	-0.420	C.2	1	UNK0	0.000	
11	   C	-1.859	1.971	-0.308	C.2	1	UNK0	0.000	
12	   C	-3.242	2.388	0.070	C.3	1	UNK0	0.000	
13	   C	-4.018	1.283	0.710	C.3	1	UNK0	0.000	
14	   C	-4.138	0.180	-0.335	C.3	1	UNK0	0.000	
15	   C	-3.179	-0.886	0.102	C.3	1	UNK0	0.000	
16	   N	-1.819	-0.452	-0.162	N.pl3	1	UNK0	0.000	
17	   C	-0.752	-1.481	-0.181	C.3	1	UNK0	0.000	
18	   C	0.929	1.369	0.105	C.2	1	UNK0	0.000	
19	   C	1.543	0.901	1.240	C.2	1	UNK0	0.000	
20	   C	2.339	1.743	2.028	C.2	1	UNK0	0.000	
21	   C	2.537	3.059	1.701	C.2	1	UNK0	0.000	
22	   C	1.938	3.554	0.571	C.2	1	UNK0	0.000	
23	   C	1.176	2.737	-0.179	C.2	1	UNK0	0.000	
24	   O	1.364	-0.418	1.605	O.3	1	UNK0	0.000	
25	   C	1.953	-0.958	2.756	C.3	1	UNK0	0.000	
26	   O	-0.149	-1.003	-2.322	O.3	1	UNK0	0.000	
27	   H	4.581	-0.189	-2.296	 H	1	UNK0	0.000	
28	   H	2.298	0.481	-2.067	 H	1	UNK0	0.000	
29	   H	1.451	-3.119	0.003	 H	1	UNK0	0.000	
30	   H	3.837	-3.799	-0.248	 H	1	UNK0	0.000	
31	   H	0.206	1.131	-1.736	 H	1	UNK0	0.000	
32	   H	-1.279	2.841	-0.522	 H	1	UNK0	0.000	
33	   H	-3.751	2.678	-0.869	 H	1	UNK0	0.000	
34	   H	-3.235	3.272	0.730	 H	1	UNK0	0.000	
35	   H	-5.055	1.641	0.883	 H	1	UNK0	0.000	
36	   H	-3.562	0.920	1.653	 H	1	UNK0	0.000	
37	   H	-3.784	0.549	-1.341	 H	1	UNK0	0.000	
38	   H	-5.172	-0.190	-0.419	 H	1	UNK0	0.000	
39	   H	-3.283	-0.994	1.193	 H	1	UNK0	0.000	
40	   H	-3.424	-1.834	-0.424	 H	1	UNK0	0.000	
41	   H	-0.624	-1.859	0.809	 H	1	UNK0	0.000	
42	   H	-1.169	-2.365	-0.777	 H	1	UNK0	0.000	
43	   H	2.780	1.284	2.907	 H	1	UNK0	0.000	
44	   H	3.150	3.675	2.331	 H	1	UNK0	0.000	
45	   H	2.122	4.597	0.350	 H	1	UNK0	0.000	
46	   H	0.768	3.172	-1.097	 H	1	UNK0	0.000	
47	   H	1.495	-1.972	2.992	 H	1	UNK0	0.000	
48	   H	1.787	-0.275	3.616	 H	1	UNK0	0.000	
49	   H	3.050	-1.182	2.638	 H	1	UNK0	0.000	
50	   H	-0.469	-1.923	-2.386	 H	1	UNK0	0.000	
@<TRIPOS>BOND
1 1 2 1
2 2 3 2
3 2 7 1
4 3 4 1
5 4 5 2
6 5 6 1
7 5 8 1
8 6 7 2
9 8 9 1
10 8 17 1
11 8 26 1
12 9 10 1
13 9 18 1
14 10 11 2
15 10 16 1
16 11 12 1
17 12 13 1
18 13 14 1
19 14 15 1
20 15 16 1
21 16 17 1
22 18 19 2
23 18 23 1
24 19 20 1
25 19 24 1
26 20 21 2
27 21 22 1
28 22 23 2
29 24 25 1
30 3 27 1
31 4 28 1
32 6 29 1
33 7 30 1
34 9 31 1
35 11 32 1
36 12 33 1
37 12 34 1
38 13 35 1
39 13 36 1
40 14 37 1
41 14 38 1
42 15 39 1
43 15 40 1
44 17 41 1
45 17 42 1
46 20 43 1
47 21 44 1
48 22 45 1
49 23 46 1
50 25 47 1
51 25 48 1
52 25 49 1
53 26 50 1
@<TRIPOS>SUBSTRUCTURE
1	UNK0	1	GROUP	1 ****	UNK
