# created with PyMOL 2.3.2
@<TRIPOS>MOLECULE
829
49 53 1                 
SMALL
USER_CHARGES
@<TRIPOS>ATOM
1	  Br	6.386	-4.090	0.346	Br	1	UNK0	0.000	
2	   C	4.746	-3.075	0.387	C.2	1	UNK0	0.000	
3	   C	4.717	-1.796	0.883	C.2	1	UNK0	0.000	
4	   C	3.548	-1.034	0.933	C.2	1	UNK0	0.000	
5	   C	2.394	-1.566	0.476	C.2	1	UNK0	0.000	
6	   C	2.411	-2.851	-0.025	C.2	1	UNK0	0.000	
7	   C	3.574	-3.622	-0.079	C.2	1	UNK0	0.000	
8	   C	1.061	-0.867	0.463	C.3	1	UNK0	0.000	
9	   N	0.956	-0.301	-0.835	N.4	1	UNK0	0.000	
10	   C	1.662	0.945	-0.646	C.2	1	UNK0	0.000	
11	   C	2.547	1.492	-1.458	C.2	1	UNK0	0.000	
12	   C	3.297	2.772	-1.307	C.3	1	UNK0	0.000	
13	   C	3.301	3.151	0.158	C.3	1	UNK0	0.000	
14	   C	2.023	3.780	0.625	C.3	1	UNK0	0.000	
15	   C	0.968	2.816	1.050	C.3	1	UNK0	0.000	
16	   N	1.198	1.460	0.601	N.pl3	1	UNK0	0.000	
17	   C	0.983	0.252	1.414	C.3	1	UNK0	0.000	
18	   C	-0.320	0.061	-1.305	C.2	1	UNK0	0.000	
19	   C	-1.500	-0.062	-0.644	C.2	1	UNK0	0.000	
20	   C	-2.683	0.349	-1.268	C.2	1	UNK0	0.000	
21	   C	-2.730	0.878	-2.531	C.2	1	UNK0	0.000	
22	   C	-1.542	1.004	-3.202	C.2	1	UNK0	0.000	
23	   C	-0.375	0.606	-2.603	C.2	1	UNK0	0.000	
24	   O	-4.076	1.175	-2.828	O.3	1	UNK0	0.000	
25	   C	-4.762	1.228	-1.569	C.3	1	UNK0	0.000	
26	   O	-3.979	0.316	-0.783	O.3	1	UNK0	0.000	
27	   O	0.150	-1.868	0.775	O.3	1	UNK0	0.000	
28	   H	5.620	-1.345	1.257	 H	1	UNK0	0.000	
29	   H	3.533	-0.037	1.322	 H	1	UNK0	0.000	
30	   H	1.526	-3.347	-0.405	 H	1	UNK0	0.000	
31	   H	3.559	-4.611	-0.468	 H	1	UNK0	0.000	
32	   H	1.466	-0.876	-1.568	 H	1	UNK0	0.000	
33	   H	2.743	0.903	-2.358	 H	1	UNK0	0.000	
34	   H	2.783	3.586	-1.859	 H	1	UNK0	0.000	
35	   H	4.367	2.669	-1.601	 H	1	UNK0	0.000	
36	   H	3.546	2.295	0.800	 H	1	UNK0	0.000	
37	   H	4.102	3.934	0.297	 H	1	UNK0	0.000	
38	   H	1.676	4.528	-0.125	 H	1	UNK0	0.000	
39	   H	2.285	4.409	1.528	 H	1	UNK0	0.000	
40	   H	-0.014	3.225	0.720	 H	1	UNK0	0.000	
41	   H	0.891	2.760	2.168	 H	1	UNK0	0.000	
42	   H	-0.006	0.304	1.891	 H	1	UNK0	0.000	
43	   H	1.726	0.214	2.243	 H	1	UNK0	0.000	
44	   H	-1.541	-0.463	0.335	 H	1	UNK0	0.000	
45	   H	-1.561	1.425	-4.205	 H	1	UNK0	0.000	
46	   H	0.521	0.738	-3.204	 H	1	UNK0	0.000	
47	   H	-5.809	0.934	-1.643	 H	1	UNK0	0.000	
48	   H	-4.612	2.224	-1.105	 H	1	UNK0	0.000	
49	   H	0.549	-2.487	1.442	 H	1	UNK0	0.000	
@<TRIPOS>BOND
1 1 2 1
2 2 3 2
3 2 7 1
4 3 4 1
5 4 5 2
6 5 6 1
7 5 8 1
8 6 7 2
9 8 9 1
10 8 17 1
11 8 27 1
12 9 10 1
13 9 18 1
14 10 11 2
15 10 16 1
16 11 12 1
17 12 13 1
18 13 14 1
19 14 15 1
20 15 16 1
21 16 17 1
22 18 19 2
23 18 23 1
24 19 20 1
25 20 21 2
26 20 26 1
27 21 22 1
28 21 24 1
29 22 23 2
30 24 25 1
31 25 26 1
32 3 28 1
33 4 29 1
34 6 30 1
35 7 31 1
36 9 32 1
37 11 33 1
38 12 34 1
39 12 35 1
40 13 36 1
41 13 37 1
42 14 38 1
43 14 39 1
44 15 40 1
45 15 41 1
46 17 42 1
47 17 43 1
48 19 44 1
49 22 45 1
50 23 46 1
51 25 47 1
52 25 48 1
53 27 49 1
@<TRIPOS>SUBSTRUCTURE
1	UNK0	1	GROUP	1 ****	UNK
