# created with PyMOL 2.3.2
@<TRIPOS>MOLECULE
830
47 50 1                 
SMALL
USER_CHARGES
@<TRIPOS>ATOM
1	  Br	-3.818	3.560	0.925	Br	1	UNK0	0.000	
2	   C	-2.170	2.738	0.451	C.2	1	UNK0	0.000	
3	   C	-1.988	1.369	0.380	C.2	1	UNK0	0.000	
4	   C	-0.773	0.823	0.034	C.2	1	UNK0	0.000	
5	   C	0.315	1.595	-0.259	C.2	1	UNK0	0.000	
6	   C	0.090	2.984	-0.175	C.2	1	UNK0	0.000	
7	   C	-1.103	3.534	0.166	C.2	1	UNK0	0.000	
8	   C	1.630	1.188	-0.639	C.3	1	UNK0	0.000	
9	   N	2.216	-0.019	-0.305	N.4	1	UNK0	0.000	
10	   C	1.453	-1.005	-1.073	C.2	1	UNK0	0.000	
11	   C	1.139	-2.247	-0.845	C.2	1	UNK0	0.000	
12	   C	0.339	-3.039	-1.814	C.3	1	UNK0	0.000	
13	   C	-0.580	-2.144	-2.622	C.3	1	UNK0	0.000	
14	   C	0.191	-0.984	-3.214	C.3	1	UNK0	0.000	
15	   N	1.025	-0.331	-2.252	N.pl3	1	UNK0	0.000	
16	   C	1.591	1.031	-2.185	C.3	1	UNK0	0.000	
17	   C	2.421	-0.385	1.009	C.2	1	UNK0	0.000	
18	   C	3.136	-1.541	1.272	C.2	1	UNK0	0.000	
19	   C	3.364	-1.984	2.581	C.2	1	UNK0	0.000	
20	   C	2.887	-1.291	3.670	C.2	1	UNK0	0.000	
21	   C	2.165	-0.124	3.423	C.2	1	UNK0	0.000	
22	   C	1.950	0.300	2.107	C.2	1	UNK0	0.000	
23	   O	3.082	-1.683	4.985	O.3	1	UNK0	0.000	
24	   C	3.780	-2.820	5.410	C.3	1	UNK0	0.000	
25	   O	2.560	2.218	-0.446	O.3	1	UNK0	0.000	
26	   H	-2.858	0.767	0.614	 H	1	UNK0	0.000	
27	   H	-0.681	-0.227	-0.009	 H	1	UNK0	0.000	
28	   H	0.911	3.682	-0.392	 H	1	UNK0	0.000	
29	   H	-1.205	4.630	0.214	 H	1	UNK0	0.000	
30	   H	3.160	-0.057	-0.783	 H	1	UNK0	0.000	
31	   H	1.421	-2.779	0.055	 H	1	UNK0	0.000	
32	   H	-0.274	-3.784	-1.286	 H	1	UNK0	0.000	
33	   H	1.039	-3.539	-2.526	 H	1	UNK0	0.000	
34	   H	-1.012	-2.719	-3.466	 H	1	UNK0	0.000	
35	   H	-1.405	-1.788	-1.995	 H	1	UNK0	0.000	
36	   H	-0.595	-0.259	-3.560	 H	1	UNK0	0.000	
37	   H	0.779	-1.298	-4.089	 H	1	UNK0	0.000	
38	   H	2.585	1.083	-2.618	 H	1	UNK0	0.000	
39	   H	0.854	1.717	-2.630	 H	1	UNK0	0.000	
40	   H	3.587	-2.171	0.498	 H	1	UNK0	0.000	
41	   H	3.925	-2.890	2.770	 H	1	UNK0	0.000	
42	   H	1.766	0.459	4.224	 H	1	UNK0	0.000	
43	   H	1.400	1.195	1.889	 H	1	UNK0	0.000	
44	   H	3.738	-3.619	4.639	 H	1	UNK0	0.000	
45	   H	4.867	-2.572	5.566	 H	1	UNK0	0.000	
46	   H	3.357	-3.265	6.339	 H	1	UNK0	0.000	
47	   H	3.026	2.120	0.399	 H	1	UNK0	0.000	
@<TRIPOS>BOND
1 1 2 1
2 2 3 2
3 2 7 1
4 3 4 1
5 4 5 2
6 5 6 1
7 5 8 1
8 6 7 2
9 8 9 1
10 8 16 1
11 8 25 1
12 9 10 1
13 9 17 1
14 10 11 2
15 10 15 1
16 11 12 1
17 12 13 1
18 13 14 1
19 14 15 1
20 15 16 1
21 17 18 2
22 17 22 1
23 18 19 1
24 19 20 2
25 20 21 1
26 20 23 1
27 21 22 2
28 23 24 1
29 3 26 1
30 4 27 1
31 6 28 1
32 7 29 1
33 9 30 1
34 11 31 1
35 12 32 1
36 12 33 1
37 13 34 1
38 13 35 1
39 14 36 1
40 14 37 1
41 16 38 1
42 16 39 1
43 18 40 1
44 19 41 1
45 21 42 1
46 22 43 1
47 24 44 1
48 24 45 1
49 24 46 1
50 25 47 1
@<TRIPOS>SUBSTRUCTURE
1	UNK0	1	GROUP	1 ****	UNK
