# created with PyMOL 2.3.2
@<TRIPOS>MOLECULE
831
51 55 1                 
SMALL
USER_CHARGES
@<TRIPOS>ATOM
1	  Br	6.017	4.021	-1.360	Br	1	UNK0	0.000	
2	   C	4.405	3.098	-0.928	C.2	1	UNK0	0.000	
3	   C	3.187	3.501	-1.493	C.2	1	UNK0	0.000	
4	   C	2.090	2.761	-1.158	C.2	1	UNK0	0.000	
5	   C	2.058	1.670	-0.316	C.2	1	UNK0	0.000	
6	   C	3.266	1.321	0.213	C.2	1	UNK0	0.000	
7	   C	4.428	2.019	-0.084	C.2	1	UNK0	0.000	
8	   C	0.842	0.947	-0.058	C.3	1	UNK0	0.000	
9	   N	0.387	-0.036	-0.870	N.4	1	UNK0	0.000	
10	   C	0.906	-1.191	-1.384	C.2	1	UNK0	0.000	
11	   C	0.003	-1.909	-2.207	C.2	1	UNK0	0.000	
12	   C	0.316	-3.088	-2.793	C.2	1	UNK0	0.000	
13	   C	1.593	-3.658	-2.599	C.2	1	UNK0	0.000	
14	   C	2.476	-2.985	-1.814	C.2	1	UNK0	0.000	
15	   C	2.128	-1.775	-1.222	C.2	1	UNK0	0.000	
16	   C	-1.393	-1.342	-2.339	C.3	1	UNK0	0.000	
17	   C	-1.706	-1.173	-0.855	C.2	1	UNK0	0.000	
18	   C	-0.796	-0.533	-0.171	C.2	1	UNK0	0.000	
19	   N	-0.573	-0.303	1.209	N.pl3	1	UNK0	0.000	
20	   C	0.502	0.644	1.389	C.3	1	UNK0	0.000	
21	   C	-1.259	-1.012	2.252	C.2	1	UNK0	0.000	
22	   C	-0.776	-2.314	2.505	C.2	1	UNK0	0.000	
23	   C	-1.441	-3.079	3.462	C.2	1	UNK0	0.000	
24	   C	-2.535	-2.636	4.166	C.2	1	UNK0	0.000	
25	   C	-2.981	-1.362	3.898	C.2	1	UNK0	0.000	
26	   C	-2.329	-0.563	2.938	C.2	1	UNK0	0.000	
27	   O	-3.159	-3.467	5.115	O.3	1	UNK0	0.000	
28	   C	-2.628	-4.782	5.334	C.3	1	UNK0	0.000	
29	   O	-0.184	2.022	-0.283	O.3	1	UNK0	0.000	
30	   H	3.191	4.331	-2.140	 H	1	UNK0	0.000	
31	   H	1.138	3.089	-1.612	 H	1	UNK0	0.000	
32	   H	3.338	0.505	0.889	 H	1	UNK0	0.000	
33	   H	5.376	1.715	0.364	 H	1	UNK0	0.000	
34	   H	-0.059	0.477	-1.746	 H	1	UNK0	0.000	
35	   H	-0.356	-3.656	-3.427	 H	1	UNK0	0.000	
36	   H	1.841	-4.599	-3.064	 H	1	UNK0	0.000	
37	   H	3.462	-3.418	-1.647	 H	1	UNK0	0.000	
38	   H	2.840	-1.286	-0.606	 H	1	UNK0	0.000	
39	   H	-2.096	-2.085	-2.773	 H	1	UNK0	0.000	
40	   H	-1.397	-0.351	-2.786	 H	1	UNK0	0.000	
41	   H	-2.598	-1.558	-0.487	 H	1	UNK0	0.000	
42	   H	1.359	0.214	1.945	 H	1	UNK0	0.000	
43	   H	0.109	1.551	1.881	 H	1	UNK0	0.000	
44	   H	0.083	-2.653	1.955	 H	1	UNK0	0.000	
45	   H	-1.063	-4.080	3.664	 H	1	UNK0	0.000	
46	   H	-3.839	-0.965	4.429	 H	1	UNK0	0.000	
47	   H	-2.691	0.454	2.726	 H	1	UNK0	0.000	
48	   H	-1.681	-4.756	5.887	 H	1	UNK0	0.000	
49	   H	-2.518	-5.307	4.353	 H	1	UNK0	0.000	
50	   H	-3.359	-5.405	5.905	 H	1	UNK0	0.000	
51	   H	0.023	2.704	0.425	 H	1	UNK0	0.000	
@<TRIPOS>BOND
1 1 2 1
2 2 3 2
3 2 7 1
4 3 4 1
5 4 5 2
6 5 6 1
7 5 8 1
8 6 7 2
9 8 9 1
10 8 20 1
11 8 29 1
12 9 10 1
13 9 18 1
14 10 11 1
15 10 15 2
16 11 12 2
17 11 16 1
18 12 13 1
19 13 14 2
20 14 15 1
21 16 17 1
22 17 18 2
23 18 19 1
24 19 20 1
25 19 21 1
26 21 22 2
27 21 26 1
28 22 23 1
29 23 24 2
30 24 25 1
31 24 27 1
32 25 26 2
33 27 28 1
34 3 30 1
35 4 31 1
36 6 32 1
37 7 33 1
38 9 34 1
39 12 35 1
40 13 36 1
41 14 37 1
42 15 38 1
43 16 39 1
44 16 40 1
45 17 41 1
46 20 42 1
47 20 43 1
48 22 44 1
49 23 45 1
50 25 46 1
51 26 47 1
52 28 48 1
53 28 49 1
54 28 50 1
55 29 51 1
@<TRIPOS>SUBSTRUCTURE
1	UNK0	1	GROUP	1 ****	UNK
