# created with PyMOL 2.3.2
@<TRIPOS>MOLECULE
832
54 57 1                 
SMALL
USER_CHARGES
@<TRIPOS>ATOM
1	  Br	0.339	4.063	-4.989	Br	1	UNK0	0.000	
2	   C	0.130	3.208	-3.305	C.2	1	UNK0	0.000	
3	   C	1.219	2.738	-2.625	C.2	1	UNK0	0.000	
4	   C	1.082	2.115	-1.403	C.2	1	UNK0	0.000	
5	   C	-0.150	1.948	-0.832	C.2	1	UNK0	0.000	
6	   C	-1.251	2.421	-1.515	C.2	1	UNK0	0.000	
7	   C	-1.124	3.054	-2.756	C.2	1	UNK0	0.000	
8	   C	-0.343	1.270	0.501	C.3	1	UNK0	0.000	
9	   N	0.922	0.653	0.923	N.pl3	1	UNK0	0.000	
10	   C	1.822	1.193	1.910	C.3	1	UNK0	0.000	
11	   C	2.790	0.158	2.356	C.3	1	UNK0	0.000	
12	   C	3.861	-0.238	1.427	C.3	1	UNK0	0.000	
13	   C	3.540	-0.584	0.036	C.3	1	UNK0	0.000	
14	   C	2.200	-1.057	-0.254	C.2	1	UNK0	0.000	
15	   C	1.028	-0.523	0.131	C.2	1	UNK0	0.000	
16	   N	-0.235	-0.960	-0.163	N.4	1	UNK0	0.000	
17	   C	-1.166	0.063	0.224	C.3	1	UNK0	0.000	
18	   C	-0.668	-2.230	0.264	C.2	1	UNK0	0.000	
19	   C	0.029	-3.101	1.035	C.2	1	UNK0	0.000	
20	   C	-0.526	-4.356	1.363	C.2	1	UNK0	0.000	
21	   C	-1.774	-4.723	0.915	C.2	1	UNK0	0.000	
22	   C	-2.486	-3.835	0.128	C.2	1	UNK0	0.000	
23	   C	-1.932	-2.619	-0.182	C.2	1	UNK0	0.000	
24	   O	-3.742	-4.246	-0.302	O.3	1	UNK0	0.000	
25	   C	-4.462	-3.321	-1.111	C.3	1	UNK0	0.000	
26	   O	1.264	-2.819	1.522	O.3	1	UNK0	0.000	
27	   C	2.093	-3.585	2.309	C.3	1	UNK0	0.000	
28	   O	-0.855	2.124	1.442	O.3	1	UNK0	0.000	
29	   H	2.187	2.877	-3.087	 H	1	UNK0	0.000	
30	   H	1.973	1.767	-0.916	 H	1	UNK0	0.000	
31	   H	-2.236	2.302	-1.084	 H	1	UNK0	0.000	
32	   H	-2.007	3.417	-3.271	 H	1	UNK0	0.000	
33	   H	2.445	2.034	1.473	 H	1	UNK0	0.000	
34	   H	1.219	1.577	2.766	 H	1	UNK0	0.000	
35	   H	2.244	-0.695	2.857	 H	1	UNK0	0.000	
36	   H	3.323	0.630	3.253	 H	1	UNK0	0.000	
37	   H	4.402	-1.101	1.899	 H	1	UNK0	0.000	
38	   H	4.646	0.577	1.428	 H	1	UNK0	0.000	
39	   H	3.845	0.279	-0.637	 H	1	UNK0	0.000	
40	   H	4.255	-1.396	-0.304	 H	1	UNK0	0.000	
41	   H	2.075	-1.931	-0.861	 H	1	UNK0	0.000	
42	   H	-0.292	-0.968	-1.246	 H	1	UNK0	0.000	
43	   H	-1.929	0.237	-0.582	 H	1	UNK0	0.000	
44	   H	-1.736	-0.260	1.141	 H	1	UNK0	0.000	
45	   H	0.028	-5.048	1.975	 H	1	UNK0	0.000	
46	   H	-2.174	-5.692	1.184	 H	1	UNK0	0.000	
47	   H	-2.510	-1.947	-0.795	 H	1	UNK0	0.000	
48	   H	-4.782	-2.426	-0.555	 H	1	UNK0	0.000	
49	   H	-5.402	-3.814	-1.482	 H	1	UNK0	0.000	
50	   H	-3.840	-2.997	-1.975	 H	1	UNK0	0.000	
51	   H	1.643	-3.848	3.312	 H	1	UNK0	0.000	
52	   H	3.001	-2.975	2.559	 H	1	UNK0	0.000	
53	   H	2.458	-4.521	1.882	 H	1	UNK0	0.000	
54	   H	-1.839	1.951	1.491	 H	1	UNK0	0.000	
@<TRIPOS>BOND
1 1 2 1
2 2 3 2
3 2 7 1
4 3 4 1
5 4 5 2
6 5 6 1
7 5 8 1
8 6 7 2
9 8 9 1
10 8 17 1
11 8 28 1
12 9 10 1
13 9 15 1
14 10 11 1
15 11 12 1
16 12 13 1
17 13 14 1
18 14 15 2
19 15 16 1
20 16 17 1
21 16 18 1
22 18 19 2
23 18 23 1
24 19 20 1
25 19 26 1
26 20 21 2
27 21 22 1
28 22 23 2
29 22 24 1
30 24 25 1
31 26 27 1
32 3 29 1
33 4 30 1
34 6 31 1
35 7 32 1
36 10 33 1
37 10 34 1
38 11 35 1
39 11 36 1
40 12 37 1
41 12 38 1
42 13 39 1
43 13 40 1
44 14 41 1
45 16 42 1
46 17 43 1
47 17 44 1
48 20 45 1
49 21 46 1
50 23 47 1
51 25 48 1
52 25 49 1
53 25 50 1
54 27 51 1
55 27 52 1
56 27 53 1
57 28 54 1
@<TRIPOS>SUBSTRUCTURE
1	UNK0	1	GROUP	1 ****	UNK
