# created with PyMOL 2.3.2
@<TRIPOS>MOLECULE
841
54 58 1                 
SMALL
USER_CHARGES
@<TRIPOS>ATOM
1	  Br	-5.017	-0.807	5.394	Br	1	UNK0	0.000	
2	   C	-4.199	-0.428	3.715	C.2	1	UNK0	0.000	
3	   C	-4.016	0.861	3.289	C.2	1	UNK0	0.000	
4	   C	-3.411	1.136	2.046	C.2	1	UNK0	0.000	
5	   C	-2.969	0.168	1.196	C.2	1	UNK0	0.000	
6	   C	-3.174	-1.151	1.664	C.2	1	UNK0	0.000	
7	   C	-3.762	-1.422	2.870	C.2	1	UNK0	0.000	
8	   C	-2.262	0.362	-0.046	C.2	1	UNK0	0.000	
9	   N	-1.542	1.336	-0.525	N.pl3	1	UNK0	0.000	
10	   C	-1.036	0.985	-1.756	C.2	1	UNK0	0.000	
11	   N	-1.447	-0.253	-2.060	N.pl3	1	UNK0	0.000	
12	   C	-2.200	-0.651	-1.022	C.2	1	UNK0	0.000	
13	   C	-1.210	-0.992	-3.243	C.3	1	UNK0	0.000	
14	   C	-0.069	-1.852	-3.435	C.2	1	UNK0	0.000	
15	   O	-0.007	-2.444	-4.618	O.2	1	UNK0	0.000	
16	   C	1.023	-2.178	-2.552	C.2	1	UNK0	0.000	
17	   C	1.189	-1.721	-1.283	C.2	1	UNK0	0.000	
18	   C	2.279	-2.073	-0.475	C.2	1	UNK0	0.000	
19	   C	3.235	-2.921	-0.975	C.2	1	UNK0	0.000	
20	   C	3.115	-3.413	-2.258	C.2	1	UNK0	0.000	
21	   C	2.036	-3.044	-3.011	C.2	1	UNK0	0.000	
22	   O	4.306	-3.255	-0.154	O.3	1	UNK0	0.000	
23	   C	4.239	-3.116	1.260	C.3	1	UNK0	0.000	
24	   C	3.490	-1.860	1.648	C.3	1	UNK0	0.000	
25	   O	2.413	-1.591	0.804	O.3	1	UNK0	0.000	
26	   C	-0.186	1.808	-2.652	C.3	1	UNK0	0.000	
27	   C	1.147	2.166	-2.080	C.3	1	UNK0	0.000	
28	   C	1.030	3.140	-0.922	C.3	1	UNK0	0.000	
29	   C	0.345	2.538	0.255	C.3	1	UNK0	0.000	
30	   C	-1.204	2.588	0.094	C.3	1	UNK0	0.000	
31	   H	-4.337	1.684	3.906	 H	1	UNK0	0.000	
32	   H	-3.358	2.167	1.771	 H	1	UNK0	0.000	
33	   H	-2.835	-1.961	1.021	 H	1	UNK0	0.000	
34	   H	-3.902	-2.449	3.195	 H	1	UNK0	0.000	
35	   H	-2.704	-1.607	-0.928	 H	1	UNK0	0.000	
36	   H	-2.154	-1.640	-3.484	 H	1	UNK0	0.000	
37	   H	-1.185	-0.266	-4.151	 H	1	UNK0	0.000	
38	   H	0.481	-1.061	-0.830	 H	1	UNK0	0.000	
39	   H	3.887	-4.081	-2.623	 H	1	UNK0	0.000	
40	   H	1.954	-3.434	-4.008	 H	1	UNK0	0.000	
41	   H	5.270	-3.122	1.657	 H	1	UNK0	0.000	
42	   H	3.731	-4.027	1.655	 H	1	UNK0	0.000	
43	   H	3.205	-1.922	2.714	 H	1	UNK0	0.000	
44	   H	4.235	-1.021	1.548	 H	1	UNK0	0.000	
45	   H	0.005	1.260	-3.590	 H	1	UNK0	0.000	
46	   H	-0.772	2.725	-2.886	 H	1	UNK0	0.000	
47	   H	1.719	2.683	-2.872	 H	1	UNK0	0.000	
48	   H	1.694	1.264	-1.785	 H	1	UNK0	0.000	
49	   H	0.556	4.075	-1.278	 H	1	UNK0	0.000	
50	   H	2.067	3.391	-0.618	 H	1	UNK0	0.000	
51	   H	0.663	1.481	0.350	 H	1	UNK0	0.000	
52	   H	0.583	3.065	1.196	 H	1	UNK0	0.000	
53	   H	-1.349	3.373	-0.705	 H	1	UNK0	0.000	
54	   H	-1.647	2.845	1.027	 H	1	UNK0	0.000	
@<TRIPOS>BOND
1 1 2 1
2 2 3 2
3 2 7 1
4 3 4 1
5 4 5 2
6 5 6 1
7 5 8 1
8 6 7 2
9 8 9 1
10 8 12 2
11 9 10 1
12 9 30 1
13 10 11 2
14 10 26 1
15 11 12 1
16 11 13 1
17 13 14 1
18 14 15 2
19 14 16 1
20 16 17 2
21 16 21 1
22 17 18 1
23 18 19 2
24 18 25 1
25 19 20 1
26 19 22 1
27 20 21 2
28 22 23 1
29 23 24 1
30 24 25 1
31 26 27 1
32 27 28 1
33 28 29 1
34 29 30 1
35 3 31 1
36 4 32 1
37 6 33 1
38 7 34 1
39 12 35 1
40 13 36 1
41 13 37 1
42 17 38 1
43 20 39 1
44 21 40 1
45 23 41 1
46 23 42 1
47 24 43 1
48 24 44 1
49 26 45 1
50 26 46 1
51 27 47 1
52 27 48 1
53 28 49 1
54 28 50 1
55 29 51 1
56 29 52 1
57 30 53 1
58 30 54 1
@<TRIPOS>SUBSTRUCTURE
1	UNK0	1	GROUP	1 ****	UNK
