# created with PyMOL 2.3.2
@<TRIPOS>MOLECULE
842
52 55 1                 
SMALL
USER_CHARGES
@<TRIPOS>ATOM
1	  Br	-4.717	1.018	6.799	Br	1	UNK0	0.000	
2	   C	-3.723	0.284	5.336	C.2	1	UNK0	0.000	
3	   C	-2.638	-0.526	5.549	C.2	1	UNK0	0.000	
4	   C	-1.900	-1.071	4.483	C.2	1	UNK0	0.000	
5	   C	-2.226	-0.819	3.188	C.2	1	UNK0	0.000	
6	   C	-3.337	0.009	2.996	C.2	1	UNK0	0.000	
7	   C	-4.068	0.547	4.032	C.2	1	UNK0	0.000	
8	   C	-1.490	-1.288	2.002	C.2	1	UNK0	0.000	
9	   N	-0.278	-1.827	1.873	N.pl3	1	UNK0	0.000	
10	   C	-0.074	-2.051	0.558	C.2	1	UNK0	0.000	
11	   N	-1.125	-1.665	-0.165	N.pl3	1	UNK0	0.000	
12	   C	-2.012	-1.191	0.700	C.2	1	UNK0	0.000	
13	   C	-1.352	-1.707	-1.594	C.3	1	UNK0	0.000	
14	   C	-0.861	-0.414	-2.189	C.2	1	UNK0	0.000	
15	   O	-0.941	-0.185	-3.420	O.co2	1	UNK0	0.000	
16	   O	-0.300	0.586	-1.414	O.3	1	UNK0	0.000	
17	   C	0.159	1.785	-1.940	C.2	1	UNK0	0.000	
18	   C	1.476	1.833	-2.346	C.2	1	UNK0	0.000	
19	   C	2.039	2.981	-2.886	C.2	1	UNK0	0.000	
20	   C	1.279	4.118	-3.031	C.2	1	UNK0	0.000	
21	   C	-0.039	4.076	-2.627	C.2	1	UNK0	0.000	
22	   C	-0.595	2.922	-2.087	C.2	1	UNK0	0.000	
23	   C	1.844	5.381	-3.609	C.3	1	UNK0	0.000	
24	   C	1.137	-2.667	-0.062	C.3	1	UNK0	0.000	
25	   C	1.587	-3.888	0.670	C.3	1	UNK0	0.000	
26	   C	2.285	-3.569	1.944	C.3	1	UNK0	0.000	
27	   C	2.066	-2.163	2.371	C.3	1	UNK0	0.000	
28	   C	0.651	-2.067	2.983	C.3	1	UNK0	0.000	
29	   H	-2.366	-0.734	6.567	 H	1	UNK0	0.000	
30	   H	-1.088	-1.717	4.747	 H	1	UNK0	0.000	
31	   H	-3.646	0.250	1.986	 H	1	UNK0	0.000	
32	   H	-4.921	1.184	3.856	 H	1	UNK0	0.000	
33	   H	-3.007	-0.785	0.456	 H	1	UNK0	0.000	
34	   H	-2.445	-1.768	-1.760	 H	1	UNK0	0.000	
35	   H	-0.858	-2.566	-2.089	 H	1	UNK0	0.000	
36	   H	2.100	0.961	-2.247	 H	1	UNK0	0.000	
37	   H	3.072	3.034	-3.209	 H	1	UNK0	0.000	
38	   H	-0.639	4.962	-2.737	 H	1	UNK0	0.000	
39	   H	-1.619	2.905	-1.778	 H	1	UNK0	0.000	
40	   H	2.945	5.296	-3.658	 H	1	UNK0	0.000	
41	   H	1.392	5.612	-4.578	 H	1	UNK0	0.000	
42	   H	1.628	6.246	-2.928	 H	1	UNK0	0.000	
43	   H	1.936	-1.953	-0.260	 H	1	UNK0	0.000	
44	   H	0.851	-3.044	-1.102	 H	1	UNK0	0.000	
45	   H	2.264	-4.469	-0.016	 H	1	UNK0	0.000	
46	   H	0.714	-4.566	0.850	 H	1	UNK0	0.000	
47	   H	1.912	-4.302	2.724	 H	1	UNK0	0.000	
48	   H	3.380	-3.815	1.886	 H	1	UNK0	0.000	
49	   H	2.813	-1.847	3.167	 H	1	UNK0	0.000	
50	   H	2.166	-1.402	1.590	 H	1	UNK0	0.000	
51	   H	0.430	-2.948	3.560	 H	1	UNK0	0.000	
52	   H	0.712	-1.176	3.655	 H	1	UNK0	0.000	
@<TRIPOS>BOND
1 1 2 1
2 2 3 2
3 2 7 1
4 3 4 1
5 4 5 2
6 5 6 1
7 5 8 1
8 6 7 2
9 8 9 1
10 8 12 2
11 9 10 1
12 9 28 1
13 10 11 2
14 10 24 1
15 11 12 1
16 11 13 1
17 13 14 1
18 14 15 2
19 14 16 1
20 16 17 1
21 17 18 2
22 17 22 1
23 18 19 1
24 19 20 2
25 20 21 1
26 20 23 1
27 21 22 2
28 24 25 1
29 25 26 1
30 26 27 1
31 27 28 1
32 3 29 1
33 4 30 1
34 6 31 1
35 7 32 1
36 12 33 1
37 13 34 1
38 13 35 1
39 18 36 1
40 19 37 1
41 21 38 1
42 22 39 1
43 23 40 1
44 23 41 1
45 23 42 1
46 24 43 1
47 24 44 1
48 25 45 1
49 25 46 1
50 26 47 1
51 26 48 1
52 27 49 1
53 27 50 1
54 28 51 1
55 28 52 1
@<TRIPOS>SUBSTRUCTURE
1	UNK0	1	GROUP	1 ****	UNK
