# created with PyMOL 2.3.2
@<TRIPOS>MOLECULE
843
49 52 1                 
SMALL
USER_CHARGES
@<TRIPOS>ATOM
1	  Br	-7.355	2.700	1.355	Br	1	UNK0	0.000	
2	   C	-5.508	2.264	1.509	C.2	1	UNK0	0.000	
3	   C	-4.610	3.284	1.722	C.2	1	UNK0	0.000	
4	   C	-3.233	3.041	1.846	C.2	1	UNK0	0.000	
5	   C	-2.728	1.786	1.760	C.2	1	UNK0	0.000	
6	   C	-3.671	0.758	1.541	C.2	1	UNK0	0.000	
7	   C	-5.023	0.990	1.419	C.2	1	UNK0	0.000	
8	   C	-1.337	1.426	1.840	C.2	1	UNK0	0.000	
9	   N	-0.193	2.108	1.914	N.pl3	1	UNK0	0.000	
10	   C	0.886	1.265	1.935	C.2	1	UNK0	0.000	
11	   N	0.432	0.005	1.875	N.pl3	1	UNK0	0.000	
12	   C	-0.898	0.092	1.818	C.2	1	UNK0	0.000	
13	   C	1.242	-1.228	1.872	C.3	1	UNK0	0.000	
14	   C	1.571	-1.656	0.481	C.2	1	UNK0	0.000	
15	   O	2.544	-1.219	-0.177	O.co2	1	UNK0	0.000	
16	   O	0.766	-2.612	-0.174	O.3	1	UNK0	0.000	
17	   C	1.018	-3.045	-1.454	C.2	1	UNK0	0.000	
18	   C	0.384	-2.457	-2.522	C.2	1	UNK0	0.000	
19	   C	0.614	-2.869	-3.834	C.2	1	UNK0	0.000	
20	   C	1.510	-3.902	-4.062	C.2	1	UNK0	0.000	
21	   C	2.150	-4.497	-2.996	C.2	1	UNK0	0.000	
22	   C	1.897	-4.065	-1.727	C.2	1	UNK0	0.000	
23	   C	2.349	1.567	1.998	C.3	1	UNK0	0.000	
24	   C	2.795	2.443	0.845	C.3	1	UNK0	0.000	
25	   C	1.919	3.665	0.702	C.3	1	UNK0	0.000	
26	   C	1.303	4.016	2.006	C.3	1	UNK0	0.000	
27	   C	-0.169	3.535	1.967	C.3	1	UNK0	0.000	
28	   H	-4.917	4.313	1.804	 H	1	UNK0	0.000	
29	   H	-2.563	3.849	2.018	 H	1	UNK0	0.000	
30	   H	-3.359	-0.282	1.456	 H	1	UNK0	0.000	
31	   H	-5.699	0.180	1.253	 H	1	UNK0	0.000	
32	   H	-1.505	-0.799	1.765	 H	1	UNK0	0.000	
33	   H	2.143	-1.127	2.461	 H	1	UNK0	0.000	
34	   H	0.581	-2.011	2.305	 H	1	UNK0	0.000	
35	   H	-0.322	-1.644	-2.353	 H	1	UNK0	0.000	
36	   H	0.120	-2.411	-4.682	 H	1	UNK0	0.000	
37	   H	1.695	-4.228	-5.079	 H	1	UNK0	0.000	
38	   H	2.845	-5.305	-3.228	 H	1	UNK0	0.000	
39	   H	2.401	-4.531	-0.877	 H	1	UNK0	0.000	
40	   H	2.689	1.911	2.986	 H	1	UNK0	0.000	
41	   H	2.919	0.609	1.836	 H	1	UNK0	0.000	
42	   H	3.843	2.712	1.022	 H	1	UNK0	0.000	
43	   H	2.759	1.821	-0.078	 H	1	UNK0	0.000	
44	   H	1.179	3.457	-0.095	 H	1	UNK0	0.000	
45	   H	2.544	4.522	0.312	 H	1	UNK0	0.000	
46	   H	1.266	5.147	2.059	 H	1	UNK0	0.000	
47	   H	1.814	3.708	2.908	 H	1	UNK0	0.000	
48	   H	-0.522	3.945	2.938	 H	1	UNK0	0.000	
49	   H	-0.526	4.054	1.063	 H	1	UNK0	0.000	
@<TRIPOS>BOND
1 1 2 1
2 2 3 2
3 2 7 1
4 3 4 1
5 4 5 2
6 5 6 1
7 5 8 1
8 6 7 2
9 8 9 1
10 8 12 2
11 9 10 1
12 9 27 1
13 10 11 2
14 10 23 1
15 11 12 1
16 11 13 1
17 13 14 1
18 14 15 2
19 14 16 1
20 16 17 1
21 17 18 2
22 17 22 1
23 18 19 1
24 19 20 2
25 20 21 1
26 21 22 2
27 23 24 1
28 24 25 1
29 25 26 1
30 26 27 1
31 3 28 1
32 4 29 1
33 6 30 1
34 7 31 1
35 12 32 1
36 13 33 1
37 13 34 1
38 18 35 1
39 19 36 1
40 20 37 1
41 21 38 1
42 22 39 1
43 23 40 1
44 23 41 1
45 24 42 1
46 24 43 1
47 25 44 1
48 25 45 1
49 26 46 1
50 26 47 1
51 27 48 1
52 27 49 1
@<TRIPOS>SUBSTRUCTURE
1	UNK0	1	GROUP	1 ****	UNK
