# created with PyMOL 2.3.2
@<TRIPOS>MOLECULE
844
43 47 1                 
SMALL
USER_CHARGES
@<TRIPOS>ATOM
1	  Br	-2.195	-2.714	-7.096	Br	1	UNK0	0.000	
2	   C	-1.767	-2.020	-5.361	C.2	1	UNK0	0.000	
3	   C	-0.472	-1.863	-4.934	C.2	1	UNK0	0.000	
4	   C	-0.199	-1.352	-3.658	C.2	1	UNK0	0.000	
5	   C	-1.217	-0.995	-2.800	C.2	1	UNK0	0.000	
6	   C	-2.510	-1.157	-3.240	C.2	1	UNK0	0.000	
7	   C	-2.795	-1.666	-4.514	C.2	1	UNK0	0.000	
8	   C	-0.905	-0.465	-1.478	C.2	1	UNK0	0.000	
9	   N	-1.721	-0.059	-0.492	N.pl3	1	UNK0	0.000	
10	   C	-0.979	0.353	0.550	C.2	1	UNK0	0.000	
11	   N	0.329	0.221	0.258	N.pl3	1	UNK0	0.000	
12	   C	0.375	-0.276	-0.974	C.2	1	UNK0	0.000	
13	   C	1.457	0.540	1.080	C.2	1	UNK0	0.000	
14	   C	2.511	-0.332	1.251	C.2	1	UNK0	0.000	
15	   C	3.615	-0.037	2.046	C.2	1	UNK0	0.000	
16	   C	3.673	1.180	2.701	C.2	1	UNK0	0.000	
17	   C	2.625	2.059	2.537	C.2	1	UNK0	0.000	
18	   C	1.538	1.748	1.743	C.2	1	UNK0	0.000	
19	   O	4.778	1.444	3.481	O.3	1	UNK0	0.000	
20	   C	5.658	0.467	3.966	C.3	1	UNK0	0.000	
21	   C	5.714	-0.766	3.130	C.3	1	UNK0	0.000	
22	   O	4.666	-0.907	2.217	O.3	1	UNK0	0.000	
23	   C	-1.814	0.818	1.680	C.3	1	UNK0	0.000	
24	   C	-3.207	0.575	1.209	C.3	1	UNK0	0.000	
25	   C	-3.134	0.075	-0.198	C.3	1	UNK0	0.000	
26	   H	0.322	-2.136	-5.589	 H	1	UNK0	0.000	
27	   H	0.838	-1.236	-3.340	 H	1	UNK0	0.000	
28	   H	-3.303	-0.875	-2.564	 H	1	UNK0	0.000	
29	   H	-3.833	-1.778	-4.821	 H	1	UNK0	0.000	
30	   H	1.312	-0.499	-1.503	 H	1	UNK0	0.000	
31	   H	2.464	-1.291	0.734	 H	1	UNK0	0.000	
32	   H	2.687	3.006	3.057	 H	1	UNK0	0.000	
33	   H	0.705	2.451	1.615	 H	1	UNK0	0.000	
34	   H	6.666	0.953	4.067	 H	1	UNK0	0.000	
35	   H	5.354	0.234	5.018	 H	1	UNK0	0.000	
36	   H	5.711	-1.649	3.821	 H	1	UNK0	0.000	
37	   H	6.705	-0.840	2.597	 H	1	UNK0	0.000	
38	   H	-1.614	1.902	1.894	 H	1	UNK0	0.000	
39	   H	-1.578	0.225	2.609	 H	1	UNK0	0.000	
40	   H	-3.696	-0.142	1.913	 H	1	UNK0	0.000	
41	   H	-3.815	1.509	1.275	 H	1	UNK0	0.000	
42	   H	-3.664	-0.917	-0.202	 H	1	UNK0	0.000	
43	   H	-3.565	0.809	-0.886	 H	1	UNK0	0.000	
@<TRIPOS>BOND
1 1 2 1
2 2 3 2
3 2 7 1
4 3 4 1
5 4 5 2
6 5 6 1
7 5 8 1
8 6 7 2
9 8 9 1
10 8 12 2
11 9 10 1
12 9 25 1
13 10 11 2
14 10 23 1
15 11 12 1
16 11 13 1
17 13 14 2
18 13 18 1
19 14 15 1
20 15 16 2
21 15 22 1
22 16 17 1
23 16 19 1
24 17 18 2
25 19 20 1
26 20 21 1
27 21 22 1
28 23 24 1
29 24 25 1
30 3 26 1
31 4 27 1
32 6 28 1
33 7 29 1
34 12 30 1
35 14 31 1
36 17 32 1
37 18 33 1
38 20 34 1
39 20 35 1
40 21 36 1
41 21 37 1
42 23 38 1
43 23 39 1
44 24 40 1
45 24 41 1
46 25 42 1
47 25 43 1
@<TRIPOS>SUBSTRUCTURE
1	UNK0	1	GROUP	1 ****	UNK
