# created with PyMOL 2.3.2
@<TRIPOS>MOLECULE
845
50 53 1                 
SMALL
USER_CHARGES
@<TRIPOS>ATOM
1	  Br	-3.855	5.666	-3.044	Br	1	UNK0	0.000	
2	   C	-3.041	4.006	-2.588	C.2	1	UNK0	0.000	
3	   C	-3.684	3.081	-1.795	C.2	1	UNK0	0.000	
4	   C	-3.088	1.860	-1.458	C.2	1	UNK0	0.000	
5	   C	-1.826	1.548	-1.918	C.2	1	UNK0	0.000	
6	   C	-1.210	2.494	-2.709	C.2	1	UNK0	0.000	
7	   C	-1.783	3.702	-3.051	C.2	1	UNK0	0.000	
8	   C	-1.161	0.276	-1.568	C.2	1	UNK0	0.000	
9	   C	0.025	-0.047	-2.078	C.2	1	UNK0	0.000	
10	   C	0.412	-1.396	-1.524	C.3	1	UNK0	0.000	
11	   N	-0.704	-1.746	-0.801	N.3	1	UNK0	0.000	
12	   N	-1.610	-0.736	-0.685	N.4	1	UNK0	0.000	
13	   C	-1.716	-0.272	0.678	C.3	1	UNK0	0.000	
14	   C	-2.798	-0.990	1.440	C.3	1	UNK0	0.000	
15	   C	-2.699	-2.486	1.314	C.3	1	UNK0	0.000	
16	   C	-1.286	-2.971	1.130	C.3	1	UNK0	0.000	
17	   C	-1.007	-3.010	-0.357	C.3	1	UNK0	0.000	
18	   O	0.602	-2.306	-2.569	O.3	1	UNK0	0.000	
19	   C	1.656	-1.315	-0.720	C.2	1	UNK0	0.000	
20	   C	1.890	-0.300	0.160	C.2	1	UNK0	0.000	
21	   C	3.034	-0.229	0.909	C.2	1	UNK0	0.000	
22	   C	4.023	-1.185	0.816	C.2	1	UNK0	0.000	
23	   C	3.796	-2.216	-0.072	C.2	1	UNK0	0.000	
24	   C	2.645	-2.292	-0.827	C.2	1	UNK0	0.000	
25	   O	5.189	-1.112	1.580	O.3	1	UNK0	0.000	
26	   C	5.372	-0.038	2.471	C.3	1	UNK0	0.000	
27	   H	-4.676	3.319	-1.429	 H	1	UNK0	0.000	
28	   H	-3.642	1.178	-0.848	 H	1	UNK0	0.000	
29	   H	-0.212	2.264	-3.081	 H	1	UNK0	0.000	
30	   H	-1.258	4.420	-3.680	 H	1	UNK0	0.000	
31	   H	0.654	0.483	-2.755	 H	1	UNK0	0.000	
32	   H	-2.557	-1.053	-0.974	 H	1	UNK0	0.000	
33	   H	-1.935	0.797	0.679	 H	1	UNK0	0.000	
34	   H	-0.786	-0.415	1.270	 H	1	UNK0	0.000	
35	   H	-2.749	-0.673	2.489	 H	1	UNK0	0.000	
36	   H	-3.780	-0.677	1.033	 H	1	UNK0	0.000	
37	   H	-3.307	-2.879	0.481	 H	1	UNK0	0.000	
38	   H	-3.092	-2.931	2.250	 H	1	UNK0	0.000	
39	   H	-0.534	-2.397	1.671	 H	1	UNK0	0.000	
40	   H	-1.279	-4.044	1.466	 H	1	UNK0	0.000	
41	   H	-0.224	-3.732	-0.625	 H	1	UNK0	0.000	
42	   H	-1.948	-3.397	-0.845	 H	1	UNK0	0.000	
43	   H	0.758	-1.792	-3.399	 H	1	UNK0	0.000	
44	   H	1.157	0.501	0.286	 H	1	UNK0	0.000	
45	   H	3.203	0.591	1.608	 H	1	UNK0	0.000	
46	   H	4.567	-2.990	-0.165	 H	1	UNK0	0.000	
47	   H	2.462	-3.095	-1.523	 H	1	UNK0	0.000	
48	   H	5.568	0.930	1.945	 H	1	UNK0	0.000	
49	   H	6.215	-0.273	3.170	 H	1	UNK0	0.000	
50	   H	4.490	0.129	3.122	 H	1	UNK0	0.000	
@<TRIPOS>BOND
1 1 2 1
2 2 3 2
3 2 7 1
4 3 4 1
5 4 5 2
6 5 6 1
7 5 8 1
8 6 7 2
9 8 9 2
10 8 12 1
11 9 10 1
12 10 11 1
13 10 18 1
14 10 19 1
15 11 12 1
16 11 17 1
17 12 13 1
18 13 14 1
19 14 15 1
20 15 16 1
21 16 17 1
22 19 20 2
23 19 24 1
24 20 21 1
25 21 22 2
26 22 23 1
27 22 25 1
28 23 24 2
29 25 26 1
30 3 27 1
31 4 28 1
32 6 29 1
33 7 30 1
34 9 31 1
35 12 32 1
36 13 33 1
37 13 34 1
38 14 35 1
39 14 36 1
40 15 37 1
41 15 38 1
42 16 39 1
43 16 40 1
44 17 41 1
45 17 42 1
46 18 43 1
47 20 44 1
48 21 45 1
49 23 46 1
50 24 47 1
51 26 48 1
52 26 49 1
53 26 50 1
@<TRIPOS>SUBSTRUCTURE
1	UNK0	1	GROUP	1 ****	UNK
