# created with PyMOL 2.3.2
@<TRIPOS>MOLECULE
846
54 57 1                 
SMALL
USER_CHARGES
@<TRIPOS>ATOM
1	  Br	-5.056	-4.731	0.677	Br	1	UNK0	0.000	
2	   C	-3.906	-3.395	1.390	C.2	1	UNK0	0.000	
3	   C	-3.148	-3.720	2.513	C.2	1	UNK0	0.000	
4	   C	-2.293	-2.827	3.096	C.2	1	UNK0	0.000	
5	   C	-2.167	-1.548	2.562	C.2	1	UNK0	0.000	
6	   C	-2.922	-1.225	1.443	C.2	1	UNK0	0.000	
7	   C	-3.782	-2.135	0.863	C.2	1	UNK0	0.000	
8	   N	-1.298	-0.637	3.173	N.pl3	1	UNK0	0.000	
9	   C	-0.896	0.647	2.689	C.3	1	UNK0	0.000	
10	   C	-0.078	0.582	1.431	C.2	1	UNK0	0.000	
11	   N	1.243	0.299	1.434	N.pl3	1	UNK0	0.000	
12	   C	1.654	0.331	0.148	C.2	1	UNK0	0.000	
13	   N	0.607	0.627	-0.637	N.pl3	1	UNK0	0.000	
14	   N	-0.466	0.782	0.161	N.2	1	UNK0	0.000	
15	   C	0.600	0.760	-2.090	C.3	1	UNK0	0.000	
16	   C	0.898	2.152	-2.462	C.2	1	UNK0	0.000	
17	   O	2.111	2.441	-2.658	O.2	1	UNK0	0.000	
18	   C	-0.130	3.169	-2.606	C.2	1	UNK0	0.000	
19	   C	0.268	4.455	-2.970	C.2	1	UNK0	0.000	
20	   C	-0.655	5.459	-3.121	C.2	1	UNK0	0.000	
21	   C	-2.002	5.245	-2.921	C.2	1	UNK0	0.000	
22	   C	-2.372	3.972	-2.563	C.2	1	UNK0	0.000	
23	   C	-1.464	2.927	-2.401	C.2	1	UNK0	0.000	
24	   N	-2.961	6.291	-3.078	N.pl3	1	UNK0	0.000	
25	   O	-4.171	6.062	-2.889	O.2	1	UNK0	0.000	
26	   O	-2.563	7.544	-3.434	O.2	1	UNK0	0.000	
27	   C	3.008	0.091	-0.342	C.3	1	UNK0	0.000	
28	   C	3.608	-1.201	0.165	C.3	1	UNK0	0.000	
29	   C	4.088	-0.912	1.591	C.3	1	UNK0	0.000	
30	   C	2.905	-1.164	2.490	C.3	1	UNK0	0.000	
31	   C	1.993	0.031	2.606	C.3	1	UNK0	0.000	
32	   H	-3.225	-4.717	2.957	 H	1	UNK0	0.000	
33	   H	-1.734	-3.141	3.966	 H	1	UNK0	0.000	
34	   H	-2.878	-0.250	0.984	 H	1	UNK0	0.000	
35	   H	-4.383	-1.912	-0.009	 H	1	UNK0	0.000	
36	   H	-0.882	-0.924	4.115	 H	1	UNK0	0.000	
37	   H	-0.363	1.224	3.441	 H	1	UNK0	0.000	
38	   H	-1.817	1.247	2.427	 H	1	UNK0	0.000	
39	   H	-0.433	0.488	-2.461	 H	1	UNK0	0.000	
40	   H	1.340	0.087	-2.575	 H	1	UNK0	0.000	
41	   H	1.325	4.652	-3.134	 H	1	UNK0	0.000	
42	   H	-0.372	6.473	-3.404	 H	1	UNK0	0.000	
43	   H	-3.407	3.746	-2.394	 H	1	UNK0	0.000	
44	   H	-1.795	1.937	-2.116	 H	1	UNK0	0.000	
45	   H	3.728	0.894	-0.080	 H	1	UNK0	0.000	
46	   H	3.002	0.033	-1.446	 H	1	UNK0	0.000	
47	   H	2.934	-2.054	0.115	 H	1	UNK0	0.000	
48	   H	4.506	-1.403	-0.427	 H	1	UNK0	0.000	
49	   H	4.915	-1.589	1.849	 H	1	UNK0	0.000	
50	   H	4.431	0.149	1.651	 H	1	UNK0	0.000	
51	   H	3.319	-1.350	3.513	 H	1	UNK0	0.000	
52	   H	2.405	-2.078	2.169	 H	1	UNK0	0.000	
53	   H	2.624	0.881	2.948	 H	1	UNK0	0.000	
54	   H	1.300	-0.179	3.452	 H	1	UNK0	0.000	
@<TRIPOS>BOND
1 1 2 1
2 2 3 2
3 2 7 1
4 3 4 1
5 4 5 2
6 5 6 1
7 5 8 1
8 6 7 2
9 8 9 1
10 9 10 1
11 10 11 1
12 10 14 2
13 11 12 1
14 11 31 1
15 12 13 2
16 12 27 1
17 13 14 1
18 13 15 1
19 15 16 1
20 16 17 2
21 16 18 1
22 18 19 2
23 18 23 1
24 19 20 1
25 20 21 2
26 21 22 1
27 21 24 1
28 22 23 2
29 24 25 2
30 24 26 1
31 27 28 1
32 28 29 1
33 29 30 1
34 30 31 1
35 3 32 1
36 4 33 1
37 6 34 1
38 7 35 1
39 8 36 1
40 9 37 1
41 9 38 1
42 15 39 1
43 15 40 1
44 19 41 1
45 20 42 1
46 22 43 1
47 23 44 1
48 27 45 1
49 27 46 1
50 28 47 1
51 28 48 1
52 29 49 1
53 29 50 1
54 30 51 1
55 30 52 1
56 31 53 1
57 31 54 1
@<TRIPOS>SUBSTRUCTURE
1	UNK0	1	GROUP	1 ****	UNK
