# created with PyMOL 2.3.2
@<TRIPOS>MOLECULE
848
48 51 1                 
SMALL
USER_CHARGES
@<TRIPOS>ATOM
1	  Br	-4.872	0.840	-2.685	Br	1	UNK0	0.000	
2	   C	-3.270	0.409	-1.742	C.2	1	UNK0	0.000	
3	   C	-2.068	0.901	-2.147	C.2	1	UNK0	0.000	
4	   C	-0.914	0.582	-1.435	C.2	1	UNK0	0.000	
5	   C	-0.894	-0.210	-0.329	C.2	1	UNK0	0.000	
6	   C	-2.172	-0.706	0.057	C.2	1	UNK0	0.000	
7	   C	-3.307	-0.402	-0.626	C.2	1	UNK0	0.000	
8	   N	0.229	-0.631	0.402	N.4	1	UNK0	0.000	
9	   C	1.521	-0.471	-0.132	C.3	1	UNK0	0.000	
10	   C	2.258	0.656	0.472	C.3	1	UNK0	0.000	
11	   N	1.200	1.333	1.258	N.pl3	1	UNK0	0.000	
12	   C	1.250	2.726	1.608	C.3	1	UNK0	0.000	
13	   C	0.420	3.017	2.815	C.3	1	UNK0	0.000	
14	   C	0.526	1.968	3.904	C.3	1	UNK0	0.000	
15	   C	-0.662	1.025	3.859	C.3	1	UNK0	0.000	
16	   C	-0.510	0.190	2.609	C.2	1	UNK0	0.000	
17	   C	0.246	0.324	1.539	C.2	1	UNK0	0.000	
18	   O	2.237	-1.652	0.385	O.3	1	UNK0	0.000	
19	   C	1.684	-0.663	-1.581	C.2	1	UNK0	0.000	
20	   C	2.509	0.048	-2.414	C.2	1	UNK0	0.000	
21	   C	2.580	-0.223	-3.787	C.2	1	UNK0	0.000	
22	   C	1.807	-1.226	-4.309	C.2	1	UNK0	0.000	
23	   C	0.964	-1.963	-3.487	C.2	1	UNK0	0.000	
24	   C	0.910	-1.679	-2.148	C.2	1	UNK0	0.000	
25	   N	3.451	0.570	-4.590	N.pl3	1	UNK0	0.000	
26	   O	4.132	1.451	-4.058	O.2	1	UNK0	0.000	
27	   O	3.529	0.361	-5.928	O.2	1	UNK0	0.000	
28	   H	-2.037	1.550	-3.029	 H	1	UNK0	0.000	
29	   H	0.014	1.028	-1.804	 H	1	UNK0	0.000	
30	   H	-2.197	-1.378	0.908	 H	1	UNK0	0.000	
31	   H	-4.260	-0.793	-0.299	 H	1	UNK0	0.000	
32	   H	0.020	-1.584	0.823	 H	1	UNK0	0.000	
33	   H	2.962	0.280	1.277	 H	1	UNK0	0.000	
34	   H	2.767	1.356	-0.191	 H	1	UNK0	0.000	
35	   H	0.912	3.412	0.788	 H	1	UNK0	0.000	
36	   H	2.330	3.044	1.772	 H	1	UNK0	0.000	
37	   H	0.697	4.043	3.161	 H	1	UNK0	0.000	
38	   H	-0.667	3.078	2.536	 H	1	UNK0	0.000	
39	   H	0.647	2.425	4.895	 H	1	UNK0	0.000	
40	   H	1.442	1.368	3.711	 H	1	UNK0	0.000	
41	   H	-0.521	0.310	4.706	 H	1	UNK0	0.000	
42	   H	-1.640	1.548	3.878	 H	1	UNK0	0.000	
43	   H	-1.172	-0.672	2.690	 H	1	UNK0	0.000	
44	   H	1.576	-2.376	0.544	 H	1	UNK0	0.000	
45	   H	3.117	0.826	-2.018	 H	1	UNK0	0.000	
46	   H	1.864	-1.423	-5.362	 H	1	UNK0	0.000	
47	   H	0.370	-2.739	-3.936	 H	1	UNK0	0.000	
48	   H	0.249	-2.277	-1.548	 H	1	UNK0	0.000	
@<TRIPOS>BOND
1 1 2 1
2 2 3 2
3 2 7 1
4 3 4 1
5 4 5 2
6 5 6 1
7 5 8 1
8 6 7 2
9 8 9 1
10 8 17 1
11 9 10 1
12 9 18 1
13 9 19 1
14 10 11 1
15 11 12 1
16 11 17 1
17 12 13 1
18 13 14 1
19 14 15 1
20 15 16 1
21 16 17 2
22 19 20 2
23 19 24 1
24 20 21 1
25 21 22 2
26 21 25 1
27 22 23 1
28 23 24 2
29 25 26 2
30 25 27 1
31 3 28 1
32 4 29 1
33 6 30 1
34 7 31 1
35 8 32 1
36 10 33 1
37 10 34 1
38 12 35 1
39 12 36 1
40 13 37 1
41 13 38 1
42 14 39 1
43 14 40 1
44 15 41 1
45 15 42 1
46 16 43 1
47 18 44 1
48 20 45 1
49 22 46 1
50 23 47 1
51 24 48 1
@<TRIPOS>SUBSTRUCTURE
1	UNK0	1	GROUP	1 ****	UNK
