# created with PyMOL 2.3.2
@<TRIPOS>MOLECULE
849
48 51 1                 
SMALL
USER_CHARGES
@<TRIPOS>ATOM
1	  Br	-6.114	-2.194	-1.062	Br	1	UNK0	0.000	
2	   C	-4.330	-1.604	-0.778	C.2	1	UNK0	0.000	
3	   C	-3.751	-0.700	-1.620	C.2	1	UNK0	0.000	
4	   C	-2.446	-0.261	-1.416	C.2	1	UNK0	0.000	
5	   C	-1.686	-0.714	-0.367	C.2	1	UNK0	0.000	
6	   C	-2.280	-1.652	0.506	C.2	1	UNK0	0.000	
7	   C	-3.570	-2.079	0.295	C.2	1	UNK0	0.000	
8	   N	-0.382	-0.357	-0.089	N.4	1	UNK0	0.000	
9	   C	0.347	0.472	-0.934	C.3	1	UNK0	0.000	
10	   C	1.554	0.877	-0.090	C.3	1	UNK0	0.000	
11	   N	1.227	0.518	1.270	N.pl3	1	UNK0	0.000	
12	   C	2.150	0.502	2.348	C.3	1	UNK0	0.000	
13	   C	1.712	1.282	3.555	C.3	1	UNK0	0.000	
14	   C	0.392	1.983	3.375	C.3	1	UNK0	0.000	
15	   C	-0.810	1.070	3.522	C.3	1	UNK0	0.000	
16	   C	-1.045	0.463	2.164	C.2	1	UNK0	0.000	
17	   C	-0.188	0.222	1.214	C.2	1	UNK0	0.000	
18	   O	-0.229	1.672	-1.320	O.3	1	UNK0	0.000	
19	   C	0.929	-0.208	-2.128	C.2	1	UNK0	0.000	
20	   C	0.845	-1.562	-2.362	C.2	1	UNK0	0.000	
21	   C	1.444	-2.156	-3.486	C.2	1	UNK0	0.000	
22	   C	2.139	-1.400	-4.401	C.2	1	UNK0	0.000	
23	   C	2.216	-0.035	-4.157	C.2	1	UNK0	0.000	
24	   C	1.620	0.550	-3.038	C.2	1	UNK0	0.000	
25	   N	2.751	-2.003	-5.551	N.pl3	1	UNK0	0.000	
26	   O	3.390	-1.280	-6.352	O.2	1	UNK0	0.000	
27	   O	2.668	-3.334	-5.799	O.2	1	UNK0	0.000	
28	   H	-4.280	-0.282	-2.491	 H	1	UNK0	0.000	
29	   H	-1.989	0.452	-2.093	 H	1	UNK0	0.000	
30	   H	-1.712	-2.058	1.365	 H	1	UNK0	0.000	
31	   H	-4.060	-2.789	0.943	 H	1	UNK0	0.000	
32	   H	0.163	-1.275	0.008	 H	1	UNK0	0.000	
33	   H	2.486	0.392	-0.455	 H	1	UNK0	0.000	
34	   H	1.732	1.998	-0.162	 H	1	UNK0	0.000	
35	   H	3.109	0.919	2.004	 H	1	UNK0	0.000	
36	   H	2.397	-0.535	2.723	 H	1	UNK0	0.000	
37	   H	2.454	2.084	3.795	 H	1	UNK0	0.000	
38	   H	1.631	0.675	4.477	 H	1	UNK0	0.000	
39	   H	0.320	2.707	4.223	 H	1	UNK0	0.000	
40	   H	0.376	2.570	2.433	 H	1	UNK0	0.000	
41	   H	-1.679	1.684	3.771	 H	1	UNK0	0.000	
42	   H	-0.610	0.286	4.268	 H	1	UNK0	0.000	
43	   H	-2.057	0.221	1.965	 H	1	UNK0	0.000	
44	   H	0.089	2.468	-0.866	 H	1	UNK0	0.000	
45	   H	0.303	-2.178	-1.673	 H	1	UNK0	0.000	
46	   H	1.364	-3.230	-3.644	 H	1	UNK0	0.000	
47	   H	2.756	0.546	-4.877	 H	1	UNK0	0.000	
48	   H	1.692	1.639	-2.861	 H	1	UNK0	0.000	
@<TRIPOS>BOND
1 1 2 1
2 2 3 2
3 2 7 1
4 3 4 1
5 4 5 2
6 5 6 1
7 5 8 1
8 6 7 2
9 8 9 1
10 8 17 1
11 9 10 1
12 9 18 1
13 9 19 1
14 10 11 1
15 11 12 1
16 11 17 1
17 12 13 1
18 13 14 1
19 14 15 1
20 15 16 1
21 16 17 2
22 19 20 2
23 19 24 1
24 20 21 1
25 21 22 2
26 22 23 1
27 22 25 1
28 23 24 2
29 25 26 2
30 25 27 1
31 3 28 1
32 4 29 1
33 6 30 1
34 7 31 1
35 8 32 1
36 10 33 1
37 10 34 1
38 12 35 1
39 12 36 1
40 13 37 1
41 13 38 1
42 14 39 1
43 14 40 1
44 15 41 1
45 15 42 1
46 16 43 1
47 18 44 1
48 20 45 1
49 21 46 1
50 23 47 1
51 24 48 1
@<TRIPOS>SUBSTRUCTURE
1	UNK0	1	GROUP	1 ****	UNK
