# created with PyMOL 2.3.2
@<TRIPOS>MOLECULE
851
50 53 1                 
SMALL
USER_CHARGES
@<TRIPOS>ATOM
1	  Br	-3.843	-5.798	3.524	Br	1	UNK0	0.000	
2	   C	-2.905	-4.504	2.476	C.2	1	UNK0	0.000	
3	   C	-3.416	-3.256	2.222	C.2	1	UNK0	0.000	
4	   C	-2.725	-2.336	1.459	C.2	1	UNK0	0.000	
5	   C	-1.471	-2.607	0.897	C.2	1	UNK0	0.000	
6	   C	-0.974	-3.855	1.158	C.2	1	UNK0	0.000	
7	   C	-1.674	-4.769	1.924	C.2	1	UNK0	0.000	
8	   N	-0.913	-1.604	0.138	N.4	1	UNK0	0.000	
9	   C	0.394	-1.803	-0.423	C.3	1	UNK0	0.000	
10	   C	1.255	-1.584	0.777	C.3	1	UNK0	0.000	
11	   N	0.554	-0.540	1.514	N.pl3	1	UNK0	0.000	
12	   C	1.175	0.152	2.606	C.3	1	UNK0	0.000	
13	   C	0.713	1.594	2.705	C.3	1	UNK0	0.000	
14	   C	-0.739	1.712	3.017	C.3	1	UNK0	0.000	
15	   C	-1.500	1.887	1.717	C.3	1	UNK0	0.000	
16	   C	-1.536	0.577	0.973	C.2	1	UNK0	0.000	
17	   C	-0.720	-0.435	0.892	C.2	1	UNK0	0.000	
18	   O	0.596	-2.952	-1.125	O.3	1	UNK0	0.000	
19	   C	0.627	-0.682	-1.387	C.2	1	UNK0	0.000	
20	   C	1.466	0.378	-1.186	C.2	1	UNK0	0.000	
21	   C	1.629	1.387	-2.149	C.2	1	UNK0	0.000	
22	   C	0.948	1.352	-3.338	C.2	1	UNK0	0.000	
23	   C	0.098	0.295	-3.560	C.2	1	UNK0	0.000	
24	   C	-0.061	-0.692	-2.618	C.2	1	UNK0	0.000	
25	   O	1.112	2.361	-4.312	O.3	1	UNK0	0.000	
26	   C	1.998	3.433	-4.067	C.3	1	UNK0	0.000	
27	   H	-4.384	-3.031	2.649	 H	1	UNK0	0.000	
28	   H	-3.236	-1.384	1.329	 H	1	UNK0	0.000	
29	   H	-0.021	-4.097	0.727	 H	1	UNK0	0.000	
30	   H	-1.209	-5.723	2.082	 H	1	UNK0	0.000	
31	   H	-1.629	-1.392	-0.618	 H	1	UNK0	0.000	
32	   H	1.420	-2.476	1.421	 H	1	UNK0	0.000	
33	   H	2.278	-1.212	0.570	 H	1	UNK0	0.000	
34	   H	1.069	-0.377	3.568	 H	1	UNK0	0.000	
35	   H	2.264	0.198	2.403	 H	1	UNK0	0.000	
36	   H	1.283	2.066	3.527	 H	1	UNK0	0.000	
37	   H	0.982	2.129	1.773	 H	1	UNK0	0.000	
38	   H	-1.068	0.763	3.519	 H	1	UNK0	0.000	
39	   H	-0.941	2.608	3.644	 H	1	UNK0	0.000	
40	   H	-2.558	2.108	2.008	 H	1	UNK0	0.000	
41	   H	-1.057	2.680	1.112	 H	1	UNK0	0.000	
42	   H	-2.445	0.526	0.370	 H	1	UNK0	0.000	
43	   H	0.852	-2.835	-2.066	 H	1	UNK0	0.000	
44	   H	2.028	0.457	-0.247	 H	1	UNK0	0.000	
45	   H	2.306	2.200	-1.930	 H	1	UNK0	0.000	
46	   H	-0.461	0.237	-4.486	 H	1	UNK0	0.000	
47	   H	-0.723	-1.543	-2.757	 H	1	UNK0	0.000	
48	   H	3.065	3.124	-4.196	 H	1	UNK0	0.000	
49	   H	1.918	3.853	-3.054	 H	1	UNK0	0.000	
50	   H	1.778	4.269	-4.769	 H	1	UNK0	0.000	
@<TRIPOS>BOND
1 1 2 1
2 2 3 2
3 2 7 1
4 3 4 1
5 4 5 2
6 5 6 1
7 5 8 1
8 6 7 2
9 8 9 1
10 8 17 1
11 9 10 1
12 9 18 1
13 9 19 1
14 10 11 1
15 11 12 1
16 11 17 1
17 12 13 1
18 13 14 1
19 14 15 1
20 15 16 1
21 16 17 2
22 19 20 2
23 19 24 1
24 20 21 1
25 21 22 2
26 22 23 1
27 22 25 1
28 23 24 2
29 25 26 1
30 3 27 1
31 4 28 1
32 6 29 1
33 7 30 1
34 8 31 1
35 10 32 1
36 10 33 1
37 12 34 1
38 12 35 1
39 13 36 1
40 13 37 1
41 14 38 1
42 14 39 1
43 15 40 1
44 15 41 1
45 16 42 1
46 18 43 1
47 20 44 1
48 21 45 1
49 23 46 1
50 24 47 1
51 26 48 1
52 26 49 1
53 26 50 1
@<TRIPOS>SUBSTRUCTURE
1	UNK0	1	GROUP	1 ****	UNK
