# created with PyMOL 2.3.2
@<TRIPOS>MOLECULE
856
51 54 1                 
SMALL
USER_CHARGES
@<TRIPOS>ATOM
1	  Br	-0.244	-3.964	-4.367	Br	1	UNK0	0.000	
2	   C	0.537	-3.098	-2.857	C.2	1	UNK0	0.000	
3	   C	1.355	-3.786	-1.972	C.2	1	UNK0	0.000	
4	   C	1.885	-3.099	-0.903	C.2	1	UNK0	0.000	
5	   C	1.631	-1.766	-0.691	C.2	1	UNK0	0.000	
6	   C	0.810	-1.114	-1.593	C.2	1	UNK0	0.000	
7	   C	0.258	-1.760	-2.677	C.2	1	UNK0	0.000	
8	   C	-0.578	-0.964	-3.610	C.3	1	UNK0	0.000	
9	   C	0.128	0.360	-3.752	C.3	1	UNK0	0.000	
10	   N	0.417	1.056	-2.554	N.4	1	UNK0	0.000	
11	   C	0.523	0.293	-1.347	C.3	1	UNK0	0.000	
12	   C	-0.803	0.499	-0.601	C.3	1	UNK0	0.000	
13	   C	-0.848	-0.155	0.711	C.2	1	UNK0	0.000	
14	   O	-0.816	-1.417	0.810	O.2	1	UNK0	0.000	
15	   C	-0.931	0.614	1.937	C.2	1	UNK0	0.000	
16	   C	-0.970	-0.046	3.167	C.2	1	UNK0	0.000	
17	   C	-1.058	0.624	4.361	C.2	1	UNK0	0.000	
18	   C	-1.112	1.999	4.422	C.2	1	UNK0	0.000	
19	   C	-1.073	2.663	3.223	C.2	1	UNK0	0.000	
20	   C	-0.984	1.990	2.000	C.2	1	UNK0	0.000	
21	   O	-1.094	-0.114	5.560	O.3	1	UNK0	0.000	
22	   C	-1.040	-1.515	5.562	C.3	1	UNK0	0.000	
23	   C	1.702	1.758	-2.741	C.3	1	UNK0	0.000	
24	   O	2.178	-1.098	0.387	O.3	1	UNK0	0.000	
25	   C	3.465	-0.501	0.150	C.3	1	UNK0	0.000	
26	   O	2.652	-4.057	-0.211	O.3	1	UNK0	0.000	
27	   C	2.219	-5.333	-0.622	C.3	1	UNK0	0.000	
28	   O	1.767	-5.117	-1.954	O.3	1	UNK0	0.000	
29	   H	-1.635	-0.909	-3.362	 H	1	UNK0	0.000	
30	   H	-0.429	-1.469	-4.623	 H	1	UNK0	0.000	
31	   H	-0.400	1.041	-4.455	 H	1	UNK0	0.000	
32	   H	1.120	0.105	-4.236	 H	1	UNK0	0.000	
33	   H	-0.322	1.824	-2.464	 H	1	UNK0	0.000	
34	   H	1.287	0.760	-0.668	 H	1	UNK0	0.000	
35	   H	-1.618	0.036	-1.247	 H	1	UNK0	0.000	
36	   H	-1.074	1.563	-0.584	 H	1	UNK0	0.000	
37	   H	-0.927	-1.145	3.124	 H	1	UNK0	0.000	
38	   H	-1.181	2.492	5.380	 H	1	UNK0	0.000	
39	   H	-1.113	3.739	3.231	 H	1	UNK0	0.000	
40	   H	-0.954	2.560	1.078	 H	1	UNK0	0.000	
41	   H	-0.068	-1.791	5.080	 H	1	UNK0	0.000	
42	   H	-1.903	-1.970	5.037	 H	1	UNK0	0.000	
43	   H	-0.975	-1.857	6.620	 H	1	UNK0	0.000	
44	   H	2.284	1.284	-3.581	 H	1	UNK0	0.000	
45	   H	1.518	2.827	-2.923	 H	1	UNK0	0.000	
46	   H	2.355	1.642	-1.839	 H	1	UNK0	0.000	
47	   H	3.541	-0.229	-0.926	 H	1	UNK0	0.000	
48	   H	4.270	-1.261	0.315	 H	1	UNK0	0.000	
49	   H	3.633	0.408	0.729	 H	1	UNK0	0.000	
50	   H	3.080	-6.022	-0.606	 H	1	UNK0	0.000	
51	   H	1.359	-5.713	-0.032	 H	1	UNK0	0.000	
@<TRIPOS>BOND
1 1 2 1
2 2 3 2
3 2 7 1
4 3 4 1
5 3 28 1
6 4 5 2
7 4 26 1
8 5 6 1
9 5 24 1
10 6 7 2
11 6 11 1
12 7 8 1
13 8 9 1
14 9 10 1
15 10 11 1
16 10 23 1
17 11 12 1
18 12 13 1
19 13 14 2
20 13 15 1
21 15 16 2
22 15 20 1
23 16 17 1
24 17 18 2
25 17 21 1
26 18 19 1
27 19 20 2
28 21 22 1
29 24 25 1
30 26 27 1
31 27 28 1
32 8 29 1
33 8 30 1
34 9 31 1
35 9 32 1
36 10 33 1
37 11 34 1
38 12 35 1
39 12 36 1
40 16 37 1
41 18 38 1
42 19 39 1
43 20 40 1
44 22 41 1
45 22 42 1
46 22 43 1
47 23 44 1
48 23 45 1
49 23 46 1
50 25 47 1
51 25 48 1
52 25 49 1
53 27 50 1
54 27 51 1
@<TRIPOS>SUBSTRUCTURE
1	UNK0	1	GROUP	1 ****	UNK
