# created with PyMOL 2.3.2
@<TRIPOS>MOLECULE
857
55 58 1                 
SMALL
USER_CHARGES
@<TRIPOS>ATOM
1	  Br	-2.627	-2.202	2.109	Br	1	UNK0	0.000	
2	   C	-1.833	-0.551	2.611	C.2	1	UNK0	0.000	
3	   C	-2.452	0.631	2.266	C.2	1	UNK0	0.000	
4	   N	-3.543	0.968	1.577	N.pl3	1	UNK0	0.000	
5	   C	-3.618	2.343	1.632	C.2	1	UNK0	0.000	
6	   N	-2.590	2.823	2.336	N.2	1	UNK0	0.000	
7	   C	-1.828	1.783	2.754	C.2	1	UNK0	0.000	
8	   C	-0.684	1.681	3.512	C.2	1	UNK0	0.000	
9	   N	-0.084	0.518	3.842	N.pl3	1	UNK0	0.000	
10	   C	-0.686	-0.614	3.372	C.2	1	UNK0	0.000	
11	   C	1.079	0.416	4.658	C.3	1	UNK0	0.000	
12	   C	2.402	0.445	4.078	C.2	1	UNK0	0.000	
13	   O	3.358	0.344	4.985	O.2	1	UNK0	0.000	
14	   C	2.894	0.561	2.734	C.2	1	UNK0	0.000	
15	   C	2.116	0.672	1.613	C.2	1	UNK0	0.000	
16	   C	2.639	0.787	0.318	C.2	1	UNK0	0.000	
17	   C	3.982	0.792	0.126	C.2	1	UNK0	0.000	
18	   C	4.781	0.681	1.236	C.2	1	UNK0	0.000	
19	   C	4.275	0.568	2.505	C.2	1	UNK0	0.000	
20	   C	4.514	0.906	-1.155	C.2	1	UNK0	0.000	
21	   C	3.713	1.017	-2.263	C.2	1	UNK0	0.000	
22	   C	2.351	1.013	-2.076	C.2	1	UNK0	0.000	
23	   C	1.824	0.898	-0.788	C.2	1	UNK0	0.000	
24	   C	-4.665	3.167	1.015	C.3	1	UNK0	0.000	
25	   C	-4.435	0.125	0.815	C.3	1	UNK0	0.000	
26	   C	-4.201	0.186	-0.653	C.3	1	UNK0	0.000	
27	   C	-2.892	-0.198	-1.215	C.3	1	UNK0	0.000	
28	   O	-2.477	-1.488	-1.055	O.3	1	UNK0	0.000	
29	   C	-1.245	-1.753	-1.615	C.3	1	UNK0	0.000	
30	   C	-1.333	-1.468	-3.114	C.3	1	UNK0	0.000	
31	   H	-0.215	2.603	3.882	 H	1	UNK0	0.000	
32	   H	-0.227	-1.565	3.621	 H	1	UNK0	0.000	
33	   H	1.035	-0.571	5.253	 H	1	UNK0	0.000	
34	   H	1.007	1.160	5.538	 H	1	UNK0	0.000	
35	   H	1.051	0.677	1.637	 H	1	UNK0	0.000	
36	   H	5.864	0.688	1.046	 H	1	UNK0	0.000	
37	   H	4.997	0.485	3.336	 H	1	UNK0	0.000	
38	   H	5.593	0.907	-1.282	 H	1	UNK0	0.000	
39	   H	4.122	1.107	-3.267	 H	1	UNK0	0.000	
40	   H	1.636	1.096	-2.893	 H	1	UNK0	0.000	
41	   H	0.747	0.895	-0.628	 H	1	UNK0	0.000	
42	   H	-5.651	2.665	0.943	 H	1	UNK0	0.000	
43	   H	-4.839	4.072	1.654	 H	1	UNK0	0.000	
44	   H	-4.391	3.558	0.014	 H	1	UNK0	0.000	
45	   H	-4.617	-0.864	1.220	 H	1	UNK0	0.000	
46	   H	-5.456	0.632	0.950	 H	1	UNK0	0.000	
47	   H	-4.399	1.241	-1.053	 H	1	UNK0	0.000	
48	   H	-4.989	-0.396	-1.224	 H	1	UNK0	0.000	
49	   H	-2.079	0.543	-0.956	 H	1	UNK0	0.000	
50	   H	-2.982	-0.049	-2.341	 H	1	UNK0	0.000	
51	   H	-0.918	-2.792	-1.482	 H	1	UNK0	0.000	
52	   H	-0.518	-1.060	-1.185	 H	1	UNK0	0.000	
53	   H	-2.227	-1.907	-3.560	 H	1	UNK0	0.000	
54	   H	-1.212	-0.381	-3.300	 H	1	UNK0	0.000	
55	   H	-0.452	-1.982	-3.567	 H	1	UNK0	0.000	
@<TRIPOS>BOND
1 1 2 1
2 2 3 2
3 2 10 1
4 3 4 1
5 3 7 1
6 4 5 1
7 4 25 1
8 5 6 2
9 5 24 1
10 6 7 1
11 7 8 2
12 8 9 1
13 9 10 2
14 9 11 1
15 11 12 1
16 12 13 2
17 12 14 1
18 14 15 2
19 14 19 1
20 15 16 1
21 16 17 2
22 16 23 1
23 17 18 1
24 17 20 1
25 18 19 2
26 20 21 2
27 21 22 1
28 22 23 2
29 25 26 1
30 26 27 1
31 27 28 1
32 28 29 1
33 29 30 1
34 8 31 1
35 10 32 1
36 11 33 1
37 11 34 1
38 15 35 1
39 18 36 1
40 19 37 1
41 20 38 1
42 21 39 1
43 22 40 1
44 23 41 1
45 24 42 1
46 24 43 1
47 24 44 1
48 25 45 1
49 25 46 1
50 26 47 1
51 26 48 1
52 27 49 1
53 27 50 1
54 29 51 1
55 29 52 1
56 30 53 1
57 30 54 1
58 30 55 1
@<TRIPOS>SUBSTRUCTURE
1	UNK0	1	GROUP	1 ****	UNK
