# created with PyMOL 2.3.2
@<TRIPOS>MOLECULE
863
39 42 1                 
SMALL
USER_CHARGES
@<TRIPOS>ATOM
1	   F	-3.541	0.421	0.115	 F	1	UNK0	0.000	
2	   C	-3.209	-0.197	1.282	C.3	1	UNK0	0.000	
3	   F	-3.728	0.604	2.305	 F	1	UNK0	0.000	
4	   F	-3.820	-1.416	1.401	 F	1	UNK0	0.000	
5	   C	-1.733	-0.355	1.473	C.2	1	UNK0	0.000	
6	   O	-1.332	-1.525	1.576	O.2	1	UNK0	0.000	
7	   N	-0.856	0.725	1.533	N.pl3	1	UNK0	0.000	
8	   C	0.532	0.855	1.691	C.3	1	UNK0	0.000	
9	   C	1.368	0.305	0.624	C.3	1	UNK0	0.000	
10	   O	2.759	0.599	0.899	O.3	1	UNK0	0.000	
11	   C	3.265	0.032	-0.300	C.3	1	UNK0	0.000	
12	   C	2.894	-1.381	-0.028	C.3	1	UNK0	0.000	
13	   C	1.395	-1.150	0.358	C.3	1	UNK0	0.000	
14	   C	0.712	-1.402	-0.930	C.2	1	UNK0	0.000	
15	   O	-0.415	-1.028	-1.331	O.2	1	UNK0	0.000	
16	   N	1.567	-2.197	-1.747	N.pl3	1	UNK0	0.000	
17	   C	2.849	-2.298	-1.146	C.2	1	UNK0	0.000	
18	   O	3.758	-3.056	-1.538	O.2	1	UNK0	0.000	
19	   C	1.215	-2.802	-2.984	C.2	1	UNK0	0.000	
20	   C	0.800	-4.107	-3.099	C.2	1	UNK0	0.000	
21	   C	0.472	-4.640	-4.341	C.2	1	UNK0	0.000	
22	   C	0.567	-3.841	-5.477	C.2	1	UNK0	0.000	
23	   C	0.982	-2.537	-5.365	C.2	1	UNK0	0.000	
24	   C	1.303	-2.024	-4.122	C.2	1	UNK0	0.000	
25	  Br	0.122	-4.559	-7.183	Br	1	UNK0	0.000	
26	   C	2.391	0.689	-1.304	C.2	1	UNK0	0.000	
27	   C	1.278	1.042	-0.675	C.2	1	UNK0	0.000	
28	   H	-1.376	1.688	1.433	 H	1	UNK0	0.000	
29	   H	0.822	0.273	2.644	 H	1	UNK0	0.000	
30	   H	0.853	1.906	1.952	 H	1	UNK0	0.000	
31	   H	4.322	0.235	-0.435	 H	1	UNK0	0.000	
32	   H	3.424	-1.724	0.872	 H	1	UNK0	0.000	
33	   H	1.162	-1.828	1.171	 H	1	UNK0	0.000	
34	   H	0.722	-4.739	-2.230	 H	1	UNK0	0.000	
35	   H	0.146	-5.657	-4.456	 H	1	UNK0	0.000	
36	   H	1.049	-1.929	-6.262	 H	1	UNK0	0.000	
37	   H	1.625	-0.993	-4.075	 H	1	UNK0	0.000	
38	   H	2.603	0.859	-2.364	 H	1	UNK0	0.000	
39	   H	0.512	1.704	-1.040	 H	1	UNK0	0.000	
@<TRIPOS>BOND
1 1 2 1
2 2 3 1
3 2 4 1
4 2 5 1
5 5 6 2
6 5 7 1
7 7 8 1
8 8 9 1
9 9 10 1
10 9 13 1
11 9 27 1
12 10 11 1
13 11 12 1
14 11 26 1
15 12 13 1
16 12 17 1
17 13 14 1
18 14 15 2
19 14 16 1
20 16 17 1
21 16 19 1
22 17 18 2
23 19 20 2
24 19 24 1
25 20 21 1
26 21 22 2
27 22 23 1
28 22 25 1
29 23 24 2
30 26 27 2
31 7 28 1
32 8 29 1
33 8 30 1
34 11 31 1
35 12 32 1
36 13 33 1
37 20 34 1
38 21 35 1
39 23 36 1
40 24 37 1
41 26 38 1
42 27 39 1
@<TRIPOS>SUBSTRUCTURE
1	UNK0	1	GROUP	1 ****	UNK
