# created with PyMOL 2.3.2
@<TRIPOS>MOLECULE
864
40 43 1                 
SMALL
USER_CHARGES
@<TRIPOS>ATOM
1	   F	3.863	1.021	-3.089	 F	1	UNK0	0.000	
2	   C	2.757	0.459	-2.497	C.3	1	UNK0	0.000	
3	   F	2.576	-0.832	-2.974	 F	1	UNK0	0.000	
4	   F	1.656	1.207	-2.868	 F	1	UNK0	0.000	
5	   C	2.828	0.472	-0.988	C.3	1	UNK0	0.000	
6	   N	1.617	-0.140	-0.495	N.pl3	1	UNK0	0.000	
7	   N	0.912	0.871	0.166	N.pl3	1	UNK0	0.000	
8	   C	1.613	2.104	0.122	C.2	1	UNK0	0.000	
9	   C	2.720	1.872	-0.546	C.2	1	UNK0	0.000	
10	   C	1.177	3.377	0.708	C.2	1	UNK0	0.000	
11	   C	1.917	4.522	0.618	C.2	1	UNK0	0.000	
12	   C	1.450	5.690	1.193	C.2	1	UNK0	0.000	
13	   C	0.245	5.757	1.868	C.2	1	UNK0	0.000	
14	   C	-0.495	4.593	1.953	C.2	1	UNK0	0.000	
15	   C	-0.026	3.431	1.379	C.2	1	UNK0	0.000	
16	  Br	-0.367	7.392	2.650	Br	1	UNK0	0.000	
17	   C	1.181	-1.487	-0.627	C.2	1	UNK0	0.000	
18	   N	2.080	-2.391	-0.581	N.2	1	UNK0	0.000	
19	   N	1.991	-3.793	-0.677	N.pl3	1	UNK0	0.000	
20	   C	0.824	-4.610	-0.460	C.2	1	UNK0	0.000	
21	   C	-0.420	-4.163	-0.493	C.2	1	UNK0	0.000	
22	   C	-0.943	-2.804	-0.742	C.2	1	UNK0	0.000	
23	   N	-0.218	-1.656	-0.795	N.pl3	1	UNK0	0.000	
24	   N	-1.083	-0.691	-1.039	N.2	1	UNK0	0.000	
25	   C	-2.310	-1.206	-1.138	C.2	1	UNK0	0.000	
26	   N	-2.236	-2.532	-0.954	N.2	1	UNK0	0.000	
27	   N	1.057	-5.983	-0.194	N.pl3	1	UNK0	0.000	
28	   O	3.972	-0.153	-0.511	O.3	1	UNK0	0.000	
29	   H	-0.028	0.719	0.637	 H	1	UNK0	0.000	
30	   H	3.505	2.612	-0.771	 H	1	UNK0	0.000	
31	   H	2.873	4.502	0.091	 H	1	UNK0	0.000	
32	   H	2.035	6.605	1.124	 H	1	UNK0	0.000	
33	   H	-1.454	4.588	2.475	 H	1	UNK0	0.000	
34	   H	-0.650	2.534	1.473	 H	1	UNK0	0.000	
35	   H	2.822	-4.345	-0.926	 H	1	UNK0	0.000	
36	   H	-1.184	-4.927	-0.305	 H	1	UNK0	0.000	
37	   H	-3.227	-0.657	-1.335	 H	1	UNK0	0.000	
38	   H	1.722	-6.504	-0.797	 H	1	UNK0	0.000	
39	   H	0.573	-6.462	0.588	 H	1	UNK0	0.000	
40	   H	4.370	-0.669	-1.228	 H	1	UNK0	0.000	
@<TRIPOS>BOND
1 1 2 1
2 2 3 1
3 2 4 1
4 2 5 1
5 5 6 1
6 5 9 1
7 5 28 1
8 6 7 1
9 6 17 1
10 7 8 1
11 8 9 2
12 8 10 1
13 10 11 2
14 10 15 1
15 11 12 1
16 12 13 2
17 13 14 1
18 13 16 1
19 14 15 2
20 17 18 2
21 17 23 1
22 18 19 1
23 19 20 1
24 20 21 2
25 20 27 1
26 21 22 1
27 22 23 1
28 22 26 2
29 23 24 1
30 24 25 2
31 25 26 1
32 7 29 1
33 9 30 1
34 11 31 1
35 12 32 1
36 14 33 1
37 15 34 1
38 19 35 1
39 21 36 1
40 25 37 1
41 27 38 1
42 27 39 1
43 28 40 1
@<TRIPOS>SUBSTRUCTURE
1	UNK0	1	GROUP	1 ****	UNK
