# created with PyMOL 2.3.2
@<TRIPOS>MOLECULE
866
40 43 1                 
SMALL
USER_CHARGES
@<TRIPOS>ATOM
1	   F	3.937	-4.005	-4.147	 F	1	UNK0	0.000	
2	   C	3.474	-3.011	-3.328	C.2	1	UNK0	0.000	
3	   C	2.444	-3.271	-2.453	C.2	1	UNK0	0.000	
4	   C	1.989	-2.257	-1.633	C.2	1	UNK0	0.000	
5	   C	2.547	-1.002	-1.681	C.2	1	UNK0	0.000	
6	   C	3.574	-0.779	-2.568	C.2	1	UNK0	0.000	
7	   C	4.066	-1.762	-3.410	C.2	1	UNK0	0.000	
8	   C	2.062	0.068	-0.812	C.3	1	UNK0	0.000	
9	   N	1.868	-0.378	0.565	N.pl3	1	UNK0	0.000	
10	   N	0.694	0.201	0.984	N.2	1	UNK0	0.000	
11	   C	0.010	0.736	0.033	C.2	1	UNK0	0.000	
12	   O	0.758	0.515	-1.129	O.3	1	UNK0	0.000	
13	   C	-1.272	1.431	0.112	C.2	1	UNK0	0.000	
14	   N	-1.995	1.992	-0.870	N.2	1	UNK0	0.000	
15	   N	-3.105	2.515	-0.322	N.2	1	UNK0	0.000	
16	   N	-3.132	2.316	0.968	N.pl3	1	UNK0	0.000	
17	   C	-2.000	1.643	1.261	C.2	1	UNK0	0.000	
18	   C	-1.594	1.196	2.611	C.3	1	UNK0	0.000	
19	   C	-4.141	2.724	1.878	C.2	1	UNK0	0.000	
20	   N	-5.348	2.186	2.127	N.2	1	UNK0	0.000	
21	   O	-5.941	2.892	3.043	O.3	1	UNK0	0.000	
22	   N	-5.205	3.885	3.434	N.2	1	UNK0	0.000	
23	   C	-4.063	3.817	2.726	C.2	1	UNK0	0.000	
24	   N	-2.957	4.709	2.824	N.pl3	1	UNK0	0.000	
25	   C	2.774	-1.239	1.241	C.2	1	UNK0	0.000	
26	   O	3.812	-1.672	0.681	O.2	1	UNK0	0.000	
27	   C	2.519	-1.656	2.643	C.3	1	UNK0	0.000	
28	  Br	1.672	-5.014	-2.389	Br	1	UNK0	0.000	
29	   H	1.166	-2.479	-0.939	 H	1	UNK0	0.000	
30	   H	4.021	0.193	-2.618	 H	1	UNK0	0.000	
31	   H	4.873	-1.590	-4.108	 H	1	UNK0	0.000	
32	   H	2.770	0.924	-0.752	 H	1	UNK0	0.000	
33	   H	-0.513	1.431	2.799	 H	1	UNK0	0.000	
34	   H	-2.237	1.628	3.399	 H	1	UNK0	0.000	
35	   H	-1.669	0.087	2.725	 H	1	UNK0	0.000	
36	   H	-3.085	5.720	2.591	 H	1	UNK0	0.000	
37	   H	-2.002	4.415	3.119	 H	1	UNK0	0.000	
38	   H	1.805	-0.924	3.082	 H	1	UNK0	0.000	
39	   H	3.468	-1.613	3.219	 H	1	UNK0	0.000	
40	   H	2.158	-2.704	2.717	 H	1	UNK0	0.000	
@<TRIPOS>BOND
1 1 2 1
2 2 3 2
3 2 7 1
4 3 4 1
5 3 28 1
6 4 5 2
7 5 6 1
8 5 8 1
9 6 7 2
10 8 9 1
11 8 12 1
12 9 10 1
13 9 25 1
14 10 11 2
15 11 12 1
16 11 13 1
17 13 14 1
18 13 17 2
19 14 15 2
20 15 16 1
21 16 17 1
22 16 19 1
23 17 18 1
24 19 20 2
25 19 23 1
26 20 21 1
27 21 22 1
28 22 23 2
29 23 24 1
30 25 26 2
31 25 27 1
32 4 29 1
33 6 30 1
34 7 31 1
35 8 32 1
36 18 33 1
37 18 34 1
38 18 35 1
39 24 36 1
40 24 37 1
41 27 38 1
42 27 39 1
43 27 40 1
@<TRIPOS>SUBSTRUCTURE
1	UNK0	1	GROUP	1 ****	UNK
