# created with PyMOL 2.3.2
@<TRIPOS>MOLECULE
871
44 47 1                 
SMALL
USER_CHARGES
@<TRIPOS>ATOM
1	   F	-3.028	-2.701	4.462	 F	1	UNK0	0.000	
2	   C	-2.417	-3.717	3.840	C.2	1	UNK0	0.000	
3	   C	-1.260	-3.500	3.080	C.2	1	UNK0	0.000	
4	   C	-0.649	-4.552	2.448	C.2	1	UNK0	0.000	
5	   C	-1.186	-5.822	2.570	C.2	1	UNK0	0.000	
6	   C	-2.310	-6.038	3.308	C.2	1	UNK0	0.000	
7	   C	-2.931	-4.987	3.947	C.2	1	UNK0	0.000	
8	  Br	-3.016	-7.827	3.447	Br	1	UNK0	0.000	
9	   N	-0.756	-2.175	3.007	N.pl3	1	UNK0	0.000	
10	   C	0.335	-1.715	2.262	C.2	1	UNK0	0.000	
11	   O	1.039	-2.428	1.527	O.2	1	UNK0	0.000	
12	   C	0.744	-0.262	2.308	C.3	1	UNK0	0.000	
13	   N	-0.045	0.535	1.395	N.pl3	1	UNK0	0.000	
14	   N	0.154	0.820	0.117	N.2	1	UNK0	0.000	
15	   C	-0.834	1.599	-0.351	C.2	1	UNK0	0.000	
16	   N	-1.706	1.824	0.671	N.pl3	1	UNK0	0.000	
17	   C	-2.793	2.591	0.450	C.2	1	UNK0	0.000	
18	   C	-3.022	3.143	-0.802	C.2	1	UNK0	0.000	
19	   N	-2.140	2.902	-1.798	N.2	1	UNK0	0.000	
20	   C	-1.042	2.138	-1.603	C.2	1	UNK0	0.000	
21	   N	-0.117	1.878	-2.639	N.pl3	1	UNK0	0.000	
22	   C	0.189	0.547	-3.125	C.3	1	UNK0	0.000	
23	   C	1.652	0.293	-2.895	C.3	1	UNK0	0.000	
24	   O	2.409	1.456	-2.851	O.3	1	UNK0	0.000	
25	   C	1.941	2.451	-3.684	C.3	1	UNK0	0.000	
26	   C	0.585	2.978	-3.281	C.3	1	UNK0	0.000	
27	   C	-1.200	1.165	1.719	C.2	1	UNK0	0.000	
28	   O	-1.753	1.154	2.842	O.2	1	UNK0	0.000	
29	   H	0.258	-4.431	1.846	 H	1	UNK0	0.000	
30	   H	-0.695	-6.653	2.067	 H	1	UNK0	0.000	
31	   H	-3.833	-5.177	4.534	 H	1	UNK0	0.000	
32	   H	-1.268	-1.429	3.591	 H	1	UNK0	0.000	
33	   H	0.552	0.113	3.333	 H	1	UNK0	0.000	
34	   H	1.812	-0.141	2.024	 H	1	UNK0	0.000	
35	   H	-3.478	2.767	1.257	 H	1	UNK0	0.000	
36	   H	-3.897	3.758	-0.979	 H	1	UNK0	0.000	
37	   H	-0.451	-0.178	-2.607	 H	1	UNK0	0.000	
38	   H	-0.061	0.565	-4.222	 H	1	UNK0	0.000	
39	   H	2.044	-0.319	-3.737	 H	1	UNK0	0.000	
40	   H	1.834	-0.258	-1.941	 H	1	UNK0	0.000	
41	   H	2.676	3.279	-3.654	 H	1	UNK0	0.000	
42	   H	1.886	2.108	-4.751	 H	1	UNK0	0.000	
43	   H	0.007	3.244	-4.199	 H	1	UNK0	0.000	
44	   H	0.642	3.867	-2.623	 H	1	UNK0	0.000	
@<TRIPOS>BOND
1 1 2 1
2 2 3 2
3 2 7 1
4 3 4 1
5 3 9 1
6 4 5 2
7 5 6 1
8 6 7 2
9 6 8 1
10 9 10 1
11 10 11 2
12 10 12 1
13 12 13 1
14 13 14 1
15 13 27 1
16 14 15 2
17 15 16 1
18 15 20 1
19 16 17 1
20 16 27 1
21 17 18 2
22 18 19 1
23 19 20 2
24 20 21 1
25 21 22 1
26 21 26 1
27 22 23 1
28 23 24 1
29 24 25 1
30 25 26 1
31 27 28 2
32 4 29 1
33 5 30 1
34 7 31 1
35 9 32 1
36 12 33 1
37 12 34 1
38 17 35 1
39 18 36 1
40 22 37 1
41 22 38 1
42 23 39 1
43 23 40 1
44 25 41 1
45 25 42 1
46 26 43 1
47 26 44 1
@<TRIPOS>SUBSTRUCTURE
1	UNK0	1	GROUP	1 ****	UNK
