# created with PyMOL 2.3.2
@<TRIPOS>MOLECULE
875
53 56 1                 
SMALL
USER_CHARGES
@<TRIPOS>ATOM
1	   F	-4.053	2.482	4.092	 F	1	UNK0	0.000	
2	   C	-2.950	2.077	3.408	C.2	1	UNK0	0.000	
3	   C	-3.006	1.599	2.123	C.2	1	UNK0	0.000	
4	   C	-1.878	1.175	1.397	C.2	1	UNK0	0.000	
5	   C	-0.677	1.269	2.068	C.2	1	UNK0	0.000	
6	   C	-0.602	1.744	3.353	C.2	1	UNK0	0.000	
7	   C	-1.727	2.153	4.041	C.2	1	UNK0	0.000	
8	   C	-2.086	0.727	0.036	C.3	1	UNK0	0.000	
9	   N	-1.910	-0.660	-0.276	N.pl3	1	UNK0	0.000	
10	   C	-1.813	-0.660	-1.743	C.2	1	UNK0	0.000	
11	   O	-2.040	-1.684	-2.433	O.2	1	UNK0	0.000	
12	   C	-1.430	0.669	-2.197	C.2	1	UNK0	0.000	
13	   O	-1.264	0.976	-3.395	O.2	1	UNK0	0.000	
14	   C	-1.301	1.470	-1.003	C.2	1	UNK0	0.000	
15	   C	-0.627	2.586	-0.887	C.2	1	UNK0	0.000	
16	   O	-0.552	3.270	0.324	O.2	1	UNK0	0.000	
17	   C	0.064	3.149	-2.048	C.2	1	UNK0	0.000	
18	   C	-0.566	3.573	-3.181	C.2	1	UNK0	0.000	
19	   C	0.171	4.055	-4.239	C.2	1	UNK0	0.000	
20	   C	1.548	4.141	-4.227	C.2	1	UNK0	0.000	
21	   C	2.154	3.707	-3.067	C.2	1	UNK0	0.000	
22	   C	1.446	3.221	-1.998	C.2	1	UNK0	0.000	
23	  Br	2.551	4.813	-5.707	Br	1	UNK0	0.000	
24	   C	-1.955	-1.893	0.473	C.3	1	UNK0	0.000	
25	   C	-0.693	-2.621	0.734	C.3	1	UNK0	0.000	
26	   N	0.354	-2.040	1.468	N.4	1	UNK0	0.000	
27	   C	0.952	-3.111	2.292	C.3	1	UNK0	0.000	
28	   C	1.898	-3.966	1.499	C.3	1	UNK0	0.000	
29	   O	2.872	-3.202	0.856	O.3	1	UNK0	0.000	
30	   C	2.232	-2.411	-0.087	C.3	1	UNK0	0.000	
31	   C	1.348	-1.430	0.635	C.3	1	UNK0	0.000	
32	   H	-4.000	1.564	1.681	 H	1	UNK0	0.000	
33	   H	0.213	0.958	1.533	 H	1	UNK0	0.000	
34	   H	0.389	1.785	3.813	 H	1	UNK0	0.000	
35	   H	-1.614	2.520	5.055	 H	1	UNK0	0.000	
36	   H	-3.164	1.027	-0.236	 H	1	UNK0	0.000	
37	   H	-1.667	3.548	-3.224	 H	1	UNK0	0.000	
38	   H	-0.362	4.385	-5.133	 H	1	UNK0	0.000	
39	   H	3.238	3.768	-3.039	 H	1	UNK0	0.000	
40	   H	1.988	2.888	-1.095	 H	1	UNK0	0.000	
41	   H	-2.682	-2.621	-0.024	 H	1	UNK0	0.000	
42	   H	-2.417	-1.663	1.494	 H	1	UNK0	0.000	
43	   H	-0.272	-2.870	-0.313	 H	1	UNK0	0.000	
44	   H	-0.913	-3.674	1.105	 H	1	UNK0	0.000	
45	   H	0.015	-1.345	2.158	 H	1	UNK0	0.000	
46	   H	1.410	-2.662	3.180	 H	1	UNK0	0.000	
47	   H	0.105	-3.750	2.616	 H	1	UNK0	0.000	
48	   H	2.434	-4.611	2.222	 H	1	UNK0	0.000	
49	   H	1.361	-4.617	0.795	 H	1	UNK0	0.000	
50	   H	3.023	-1.823	-0.621	 H	1	UNK0	0.000	
51	   H	1.672	-2.979	-0.829	 H	1	UNK0	0.000	
52	   H	0.830	-0.828	-0.144	 H	1	UNK0	0.000	
53	   H	1.998	-0.734	1.212	 H	1	UNK0	0.000	
@<TRIPOS>BOND
1 1 2 1
2 2 3 2
3 2 7 1
4 3 4 1
5 4 5 2
6 4 8 1
7 5 6 1
8 6 7 2
9 8 9 1
10 8 14 1
11 9 10 1
12 9 24 1
13 10 11 2
14 10 12 1
15 12 13 2
16 12 14 1
17 14 15 2
18 15 16 1
19 15 17 1
20 17 18 2
21 17 22 1
22 18 19 1
23 19 20 2
24 20 21 1
25 20 23 1
26 21 22 2
27 24 25 1
28 25 26 1
29 26 27 1
30 26 31 1
31 27 28 1
32 28 29 1
33 29 30 1
34 30 31 1
35 3 32 1
36 5 33 1
37 6 34 1
38 7 35 1
39 8 36 1
40 18 37 1
41 19 38 1
42 21 39 1
43 22 40 1
44 24 41 1
45 24 42 1
46 25 43 1
47 25 44 1
48 26 45 1
49 27 46 1
50 27 47 1
51 28 48 1
52 28 49 1
53 30 50 1
54 30 51 1
55 31 52 1
56 31 53 1
@<TRIPOS>SUBSTRUCTURE
1	UNK0	1	GROUP	1 ****	UNK
