# created with PyMOL 2.3.2
@<TRIPOS>MOLECULE
876
41 44 1                 
SMALL
USER_CHARGES
@<TRIPOS>ATOM
1	   F	-0.851	3.323	-3.964	 F	1	UNK0	0.000	
2	   C	-1.526	3.091	-2.796	C.2	1	UNK0	0.000	
3	   C	-1.461	1.885	-2.160	C.2	1	UNK0	0.000	
4	   C	-2.143	1.638	-0.972	C.2	1	UNK0	0.000	
5	   C	-2.896	2.653	-0.443	C.2	1	UNK0	0.000	
6	   C	-2.966	3.884	-1.086	C.2	1	UNK0	0.000	
7	   C	-2.288	4.118	-2.260	C.2	1	UNK0	0.000	
8	   N	-2.035	0.364	-0.360	N.pl3	1	UNK0	0.000	
9	   C	-2.632	-0.074	0.816	C.2	1	UNK0	0.000	
10	   O	-3.371	0.633	1.513	O.2	1	UNK0	0.000	
11	   C	-2.384	-1.489	1.300	C.3	1	UNK0	0.000	
12	   N	-1.509	-2.198	0.398	N.pl3	1	UNK0	0.000	
13	   N	-1.886	-2.911	-0.635	N.pl3	1	UNK0	0.000	
14	   N	-0.829	-3.430	-1.253	N.pl3	1	UNK0	0.000	
15	   C	0.248	-3.034	-0.594	C.2	1	UNK0	0.000	
16	   C	-0.160	-2.279	0.419	C.2	1	UNK0	0.000	
17	   C	0.986	-1.870	1.103	C.2	1	UNK0	0.000	
18	   O	0.934	-1.133	2.126	O.2	1	UNK0	0.000	
19	   N	2.069	-2.370	0.512	N.pl3	1	UNK0	0.000	
20	   C	1.637	-3.088	-0.532	C.2	1	UNK0	0.000	
21	   O	2.380	-3.718	-1.336	O.2	1	UNK0	0.000	
22	   C	3.423	-2.199	0.885	C.2	1	UNK0	0.000	
23	   C	4.052	-0.962	0.845	C.2	1	UNK0	0.000	
24	   C	5.367	-0.760	1.201	C.2	1	UNK0	0.000	
25	   C	6.082	-1.871	1.619	C.2	1	UNK0	0.000	
26	   C	5.472	-3.107	1.664	C.2	1	UNK0	0.000	
27	   C	4.171	-3.288	1.309	C.2	1	UNK0	0.000	
28	  Br	6.190	0.964	1.130	Br	1	UNK0	0.000	
29	   H	-0.852	1.080	-2.597	 H	1	UNK0	0.000	
30	   H	-3.466	2.539	0.495	 H	1	UNK0	0.000	
31	   H	-3.573	4.678	-0.645	 H	1	UNK0	0.000	
32	   H	-2.319	5.068	-2.792	 H	1	UNK0	0.000	
33	   H	-1.416	-0.334	-0.877	 H	1	UNK0	0.000	
34	   H	-3.363	-1.998	1.294	 H	1	UNK0	0.000	
35	   H	-1.926	-1.457	2.311	 H	1	UNK0	0.000	
36	   H	-2.883	-3.041	-0.915	 H	1	UNK0	0.000	
37	   H	-0.847	-4.034	-2.098	 H	1	UNK0	0.000	
38	   H	3.472	-0.099	0.513	 H	1	UNK0	0.000	
39	   H	7.116	-1.724	1.900	 H	1	UNK0	0.000	
40	   H	6.088	-3.937	2.000	 H	1	UNK0	0.000	
41	   H	3.681	-4.260	1.341	 H	1	UNK0	0.000	
@<TRIPOS>BOND
1 1 2 1
2 2 3 2
3 2 7 1
4 3 4 1
5 4 5 2
6 4 8 1
7 5 6 1
8 6 7 2
9 8 9 1
10 9 10 2
11 9 11 1
12 11 12 1
13 12 13 1
14 12 16 1
15 13 14 1
16 14 15 1
17 15 16 2
18 15 20 1
19 16 17 1
20 17 18 2
21 17 19 1
22 19 20 1
23 19 22 1
24 20 21 2
25 22 23 2
26 22 27 1
27 23 24 1
28 24 25 2
29 24 28 1
30 25 26 1
31 26 27 2
32 3 29 1
33 5 30 1
34 6 31 1
35 7 32 1
36 8 33 1
37 11 34 1
38 11 35 1
39 13 36 1
40 14 37 1
41 23 38 1
42 25 39 1
43 26 40 1
44 27 41 1
@<TRIPOS>SUBSTRUCTURE
1	UNK0	1	GROUP	1 ****	UNK
