# created with PyMOL 2.3.2
@<TRIPOS>MOLECULE
877
41 44 1                 
SMALL
USER_CHARGES
@<TRIPOS>ATOM
1	   F	1.877	3.065	6.165	 F	1	UNK0	0.000	
2	   C	1.258	3.253	4.982	C.2	1	UNK0	0.000	
3	   C	1.913	2.767	3.835	C.2	1	UNK0	0.000	
4	   C	1.380	2.909	2.589	C.2	1	UNK0	0.000	
5	   C	0.144	3.561	2.487	C.2	1	UNK0	0.000	
6	   C	-0.502	4.042	3.636	C.2	1	UNK0	0.000	
7	   C	0.054	3.886	4.868	C.2	1	UNK0	0.000	
8	   N	1.988	2.447	1.418	N.pl3	1	UNK0	0.000	
9	   C	3.105	1.582	1.316	C.2	1	UNK0	0.000	
10	   O	3.685	1.122	2.312	O.2	1	UNK0	0.000	
11	   C	3.619	1.203	-0.054	C.3	1	UNK0	0.000	
12	   N	3.492	-0.191	-0.344	N.pl3	1	UNK0	0.000	
13	   N	4.415	-1.116	-0.200	N.pl3	1	UNK0	0.000	
14	   N	3.967	-2.287	-0.614	N.pl3	1	UNK0	0.000	
15	   C	2.712	-2.107	-1.038	C.2	1	UNK0	0.000	
16	   C	2.418	-0.830	-0.874	C.2	1	UNK0	0.000	
17	   C	1.122	-0.706	-1.320	C.2	1	UNK0	0.000	
18	   O	0.537	0.420	-1.292	O.2	1	UNK0	0.000	
19	   N	0.612	-1.876	-1.755	N.pl3	1	UNK0	0.000	
20	   C	1.603	-2.763	-1.583	C.2	1	UNK0	0.000	
21	   O	1.541	-3.987	-1.869	O.2	1	UNK0	0.000	
22	   C	-0.699	-2.091	-2.285	C.2	1	UNK0	0.000	
23	   C	-1.463	-1.082	-2.837	C.2	1	UNK0	0.000	
24	   C	-2.733	-1.291	-3.359	C.2	1	UNK0	0.000	
25	   C	-3.289	-2.553	-3.341	C.2	1	UNK0	0.000	
26	   C	-2.550	-3.578	-2.797	C.2	1	UNK0	0.000	
27	   C	-1.285	-3.337	-2.284	C.2	1	UNK0	0.000	
28	  Br	-5.049	-2.866	-4.048	Br	1	UNK0	0.000	
29	   H	2.869	2.274	3.988	 H	1	UNK0	0.000	
30	   H	-0.295	3.677	1.527	 H	1	UNK0	0.000	
31	   H	-1.474	4.545	3.512	 H	1	UNK0	0.000	
32	   H	-0.470	4.270	5.744	 H	1	UNK0	0.000	
33	   H	1.558	2.801	0.494	 H	1	UNK0	0.000	
34	   H	4.681	1.562	-0.141	 H	1	UNK0	0.000	
35	   H	3.047	1.844	-0.774	 H	1	UNK0	0.000	
36	   H	5.380	-0.998	0.176	 H	1	UNK0	0.000	
37	   H	4.490	-3.181	-0.612	 H	1	UNK0	0.000	
38	   H	-1.026	-0.090	-2.858	 H	1	UNK0	0.000	
39	   H	-3.319	-0.485	-3.788	 H	1	UNK0	0.000	
40	   H	-2.999	-4.564	-2.793	 H	1	UNK0	0.000	
41	   H	-0.706	-4.161	-1.851	 H	1	UNK0	0.000	
@<TRIPOS>BOND
1 1 2 1
2 2 3 2
3 2 7 1
4 3 4 1
5 4 5 2
6 4 8 1
7 5 6 1
8 6 7 2
9 8 9 1
10 9 10 2
11 9 11 1
12 11 12 1
13 12 13 1
14 12 16 1
15 13 14 1
16 14 15 1
17 15 16 2
18 15 20 1
19 16 17 1
20 17 18 2
21 17 19 1
22 19 20 1
23 19 22 1
24 20 21 2
25 22 23 2
26 22 27 1
27 23 24 1
28 24 25 2
29 25 26 1
30 25 28 1
31 26 27 2
32 3 29 1
33 5 30 1
34 6 31 1
35 7 32 1
36 8 33 1
37 11 34 1
38 11 35 1
39 13 36 1
40 14 37 1
41 23 38 1
42 24 39 1
43 26 40 1
44 27 41 1
@<TRIPOS>SUBSTRUCTURE
1	UNK0	1	GROUP	1 ****	UNK
