# created with PyMOL 2.3.2
@<TRIPOS>MOLECULE
878
41 44 1                 
SMALL
USER_CHARGES
@<TRIPOS>ATOM
1	   F	-0.220	0.368	-5.698	 F	1	UNK0	0.000	
2	   C	-1.203	0.265	-4.767	C.2	1	UNK0	0.000	
3	   C	-0.942	0.161	-3.419	C.2	1	UNK0	0.000	
4	   C	-1.953	0.056	-2.458	C.2	1	UNK0	0.000	
5	   C	-3.244	0.060	-2.913	C.2	1	UNK0	0.000	
6	   C	-3.542	0.165	-4.275	C.2	1	UNK0	0.000	
7	   C	-2.528	0.267	-5.200	C.2	1	UNK0	0.000	
8	   N	-1.645	-0.035	-1.077	N.pl3	1	UNK0	0.000	
9	   C	-0.983	-1.074	-0.489	C.2	1	UNK0	0.000	
10	   O	-0.591	-2.099	-1.111	O.2	1	UNK0	0.000	
11	   C	-0.827	-0.810	0.856	C.2	1	UNK0	0.000	
12	   C	-1.374	0.365	1.125	C.2	1	UNK0	0.000	
13	   N	-1.205	0.611	2.443	N.pl3	1	UNK0	0.000	
14	   N	-0.558	-0.409	2.976	N.pl3	1	UNK0	0.000	
15	   N	-0.330	-1.270	2.015	N.pl3	1	UNK0	0.000	
16	   C	0.370	-2.534	2.186	C.3	1	UNK0	0.000	
17	   C	1.840	-2.286	1.911	C.2	1	UNK0	0.000	
18	   O	2.482	-1.686	2.796	O.2	1	UNK0	0.000	
19	   N	2.444	-2.708	0.726	N.pl3	1	UNK0	0.000	
20	   C	3.783	-2.534	0.324	C.2	1	UNK0	0.000	
21	   C	4.636	-1.657	0.951	C.2	1	UNK0	0.000	
22	   C	5.961	-1.517	0.534	C.2	1	UNK0	0.000	
23	   C	6.469	-2.239	-0.508	C.2	1	UNK0	0.000	
24	   C	5.631	-3.122	-1.147	C.2	1	UNK0	0.000	
25	   C	4.331	-3.258	-0.738	C.2	1	UNK0	0.000	
26	  Br	8.274	-2.075	-1.120	Br	1	UNK0	0.000	
27	   C	-1.879	0.835	-0.083	C.2	1	UNK0	0.000	
28	   O	-2.474	1.929	-0.214	O.2	1	UNK0	0.000	
29	   H	0.074	0.152	-3.042	 H	1	UNK0	0.000	
30	   H	-4.098	-0.019	-2.230	 H	1	UNK0	0.000	
31	   H	-4.572	0.171	-4.626	 H	1	UNK0	0.000	
32	   H	-2.695	0.352	-6.270	 H	1	UNK0	0.000	
33	   H	-1.521	1.453	2.964	 H	1	UNK0	0.000	
34	   H	-0.274	-0.506	4.002	 H	1	UNK0	0.000	
35	   H	0.195	-2.992	3.157	 H	1	UNK0	0.000	
36	   H	0.025	-3.204	1.382	 H	1	UNK0	0.000	
37	   H	1.821	-3.233	0.037	 H	1	UNK0	0.000	
38	   H	4.342	-1.038	1.768	 H	1	UNK0	0.000	
39	   H	6.607	-0.813	1.047	 H	1	UNK0	0.000	
40	   H	5.954	-3.739	-1.990	 H	1	UNK0	0.000	
41	   H	3.642	-3.965	-1.233	 H	1	UNK0	0.000	
@<TRIPOS>BOND
1 1 2 1
2 2 3 2
3 2 7 1
4 3 4 1
5 4 5 2
6 4 8 1
7 5 6 1
8 6 7 2
9 8 9 1
10 8 27 1
11 9 10 2
12 9 11 1
13 11 12 2
14 11 15 1
15 12 13 1
16 12 27 1
17 13 14 1
18 14 15 1
19 15 16 1
20 16 17 1
21 17 18 2
22 17 19 1
23 19 20 1
24 20 21 2
25 20 25 1
26 21 22 1
27 22 23 2
28 23 24 1
29 23 26 1
30 24 25 2
31 27 28 2
32 3 29 1
33 5 30 1
34 6 31 1
35 7 32 1
36 13 33 1
37 14 34 1
38 16 35 1
39 16 36 1
40 19 37 1
41 21 38 1
42 22 39 1
43 24 40 1
44 25 41 1
@<TRIPOS>SUBSTRUCTURE
1	UNK0	1	GROUP	1 ****	UNK
