# created with PyMOL 2.3.2
@<TRIPOS>MOLECULE
879
56 59 1                 
SMALL
USER_CHARGES
@<TRIPOS>ATOM
1	   F	-7.373	-3.138	1.484	 F	1	UNK0	0.000	
2	   C	-6.051	-2.793	1.605	C.2	1	UNK0	0.000	
3	   C	-5.445	-2.696	2.837	C.2	1	UNK0	0.000	
4	   C	-4.117	-2.349	2.930	C.2	1	UNK0	0.000	
5	   C	-3.335	-2.083	1.810	C.2	1	UNK0	0.000	
6	   C	-3.944	-2.182	0.588	C.2	1	UNK0	0.000	
7	   C	-5.294	-2.534	0.465	C.2	1	UNK0	0.000	
8	   C	-1.925	-1.751	1.910	C.2	1	UNK0	0.000	
9	   C	-1.403	-0.696	1.293	C.2	1	UNK0	0.000	
10	   C	0.040	-0.246	1.312	C.3	1	UNK0	0.000	
11	   N	0.225	0.427	0.018	N.pl3	1	UNK0	0.000	
12	   C	-1.032	0.997	-0.305	C.2	1	UNK0	0.000	
13	   O	-1.314	1.918	-1.102	O.2	1	UNK0	0.000	
14	   C	-2.074	0.311	0.483	C.2	1	UNK0	0.000	
15	   O	-3.317	0.507	0.503	O.2	1	UNK0	0.000	
16	   C	1.468	0.489	-0.732	C.3	1	UNK0	0.000	
17	   C	2.358	1.615	-0.386	C.3	1	UNK0	0.000	
18	   C	1.923	3.006	-0.584	C.3	1	UNK0	0.000	
19	   N	1.681	3.504	-1.875	N.4	1	UNK0	0.000	
20	   C	1.497	2.606	-2.963	C.3	1	UNK0	0.000	
21	   C	1.587	3.492	-4.238	C.3	1	UNK0	0.000	
22	   O	0.719	4.560	-4.165	O.3	1	UNK0	0.000	
23	   C	-0.201	4.452	-3.122	C.3	1	UNK0	0.000	
24	   C	0.582	4.461	-1.841	C.3	1	UNK0	0.000	
25	   C	0.936	-1.377	1.530	C.2	1	UNK0	0.000	
26	   C	1.650	-1.456	2.707	C.2	1	UNK0	0.000	
27	   C	2.502	-2.502	2.986	C.2	1	UNK0	0.000	
28	   C	2.656	-3.512	2.064	C.2	1	UNK0	0.000	
29	   C	1.948	-3.441	0.887	C.2	1	UNK0	0.000	
30	   C	1.107	-2.393	0.631	C.2	1	UNK0	0.000	
31	  Br	3.458	-2.535	4.647	Br	1	UNK0	0.000	
32	   O	-1.033	-2.519	2.658	O.2	1	UNK0	0.000	
33	   H	-6.027	-2.897	3.712	 H	1	UNK0	0.000	
34	   H	-3.620	-2.267	3.902	 H	1	UNK0	0.000	
35	   H	-3.364	-2.005	-0.304	 H	1	UNK0	0.000	
36	   H	-5.728	-2.598	-0.524	 H	1	UNK0	0.000	
37	   H	0.130	0.523	2.076	 H	1	UNK0	0.000	
38	   H	1.306	0.293	-1.806	 H	1	UNK0	0.000	
39	   H	2.040	-0.447	-0.403	 H	1	UNK0	0.000	
40	   H	3.347	1.410	-0.895	 H	1	UNK0	0.000	
41	   H	2.638	1.467	0.711	 H	1	UNK0	0.000	
42	   H	2.725	3.663	-0.098	 H	1	UNK0	0.000	
43	   H	1.026	3.269	0.051	 H	1	UNK0	0.000	
44	   H	2.562	4.075	-2.158	 H	1	UNK0	0.000	
45	   H	0.538	2.105	-3.048	 H	1	UNK0	0.000	
46	   H	2.374	1.925	-3.089	 H	1	UNK0	0.000	
47	   H	2.632	3.758	-4.412	 H	1	UNK0	0.000	
48	   H	1.234	2.830	-5.080	 H	1	UNK0	0.000	
49	   H	-0.891	3.608	-3.235	 H	1	UNK0	0.000	
50	   H	-0.794	5.397	-3.141	 H	1	UNK0	0.000	
51	   H	1.004	5.506	-1.753	 H	1	UNK0	0.000	
52	   H	-0.096	4.338	-0.999	 H	1	UNK0	0.000	
53	   H	1.549	-0.673	3.453	 H	1	UNK0	0.000	
54	   H	3.334	-4.314	2.322	 H	1	UNK0	0.000	
55	   H	2.058	-4.229	0.149	 H	1	UNK0	0.000	
56	   H	0.547	-2.342	-0.304	 H	1	UNK0	0.000	
@<TRIPOS>BOND
1 1 2 1
2 2 3 2
3 2 7 1
4 3 4 1
5 4 5 2
6 5 6 1
7 5 8 1
8 6 7 2
9 8 9 2
10 8 32 1
11 9 10 1
12 9 14 1
13 10 11 1
14 10 25 1
15 11 12 1
16 11 16 1
17 12 13 2
18 12 14 1
19 14 15 2
20 16 17 1
21 17 18 1
22 18 19 1
23 19 20 1
24 19 24 1
25 20 21 1
26 21 22 1
27 22 23 1
28 23 24 1
29 25 26 2
30 25 30 1
31 26 27 1
32 27 28 2
33 27 31 1
34 28 29 1
35 29 30 2
36 3 33 1
37 4 34 1
38 6 35 1
39 7 36 1
40 10 37 1
41 16 38 1
42 16 39 1
43 17 40 1
44 17 41 1
45 18 42 1
46 18 43 1
47 19 44 1
48 20 45 1
49 20 46 1
50 21 47 1
51 21 48 1
52 23 49 1
53 23 50 1
54 24 51 1
55 24 52 1
56 26 53 1
57 28 54 1
58 29 55 1
59 30 56 1
@<TRIPOS>SUBSTRUCTURE
1	UNK0	1	GROUP	1 ****	UNK
