# created with PyMOL 2.3.2
@<TRIPOS>MOLECULE
880
56 59 1                 
SMALL
USER_CHARGES
@<TRIPOS>ATOM
1	   F	-4.600	-2.859	-3.834	 F	1	UNK0	0.000	
2	   C	-3.773	-2.723	-2.756	C.2	1	UNK0	0.000	
3	   C	-2.595	-3.436	-2.659	C.2	1	UNK0	0.000	
4	   C	-1.753	-3.304	-1.572	C.2	1	UNK0	0.000	
5	   C	-2.100	-2.446	-0.578	C.2	1	UNK0	0.000	
6	   C	-3.291	-1.711	-0.653	C.2	1	UNK0	0.000	
7	   C	-4.117	-1.855	-1.740	C.2	1	UNK0	0.000	
8	   C	-1.300	-2.164	0.605	C.2	1	UNK0	0.000	
9	   C	-0.076	-1.681	0.572	C.2	1	UNK0	0.000	
10	   C	0.840	-1.359	1.703	C.3	1	UNK0	0.000	
11	   N	1.462	-0.135	1.253	N.pl3	1	UNK0	0.000	
12	   C	1.648	-0.294	-0.145	C.2	1	UNK0	0.000	
13	   O	2.496	0.303	-0.855	O.2	1	UNK0	0.000	
14	   C	0.668	-1.285	-0.614	C.2	1	UNK0	0.000	
15	   O	0.498	-1.704	-1.784	O.2	1	UNK0	0.000	
16	   C	1.826	1.033	2.062	C.3	1	UNK0	0.000	
17	   C	0.680	2.033	2.128	C.3	1	UNK0	0.000	
18	   C	0.336	2.498	0.746	C.3	1	UNK0	0.000	
19	   N	-0.729	3.444	0.681	N.4	1	UNK0	0.000	
20	   C	-1.963	2.934	0.189	C.3	1	UNK0	0.000	
21	   C	-2.231	3.525	-1.198	C.3	1	UNK0	0.000	
22	   O	-1.087	3.355	-1.945	O.3	1	UNK0	0.000	
23	   C	-0.180	4.338	-1.543	C.3	1	UNK0	0.000	
24	   C	-0.247	4.595	-0.063	C.3	1	UNK0	0.000	
25	   C	1.889	-2.440	1.699	C.2	1	UNK0	0.000	
26	   C	1.608	-3.687	1.183	C.2	1	UNK0	0.000	
27	   C	2.575	-4.668	1.183	C.2	1	UNK0	0.000	
28	   C	3.843	-4.453	1.689	C.2	1	UNK0	0.000	
29	   C	4.123	-3.210	2.203	C.2	1	UNK0	0.000	
30	   C	3.151	-2.224	2.202	C.2	1	UNK0	0.000	
31	  Br	5.156	-5.847	1.669	Br	1	UNK0	0.000	
32	   O	-1.869	-2.421	1.860	O.2	1	UNK0	0.000	
33	   H	-2.325	-4.121	-3.463	 H	1	UNK0	0.000	
34	   H	-0.845	-3.890	-1.489	 H	1	UNK0	0.000	
35	   H	-3.562	-1.026	0.152	 H	1	UNK0	0.000	
36	   H	-5.060	-1.295	-1.832	 H	1	UNK0	0.000	
37	   H	0.340	-1.278	2.665	 H	1	UNK0	0.000	
38	   H	2.063	0.636	3.077	 H	1	UNK0	0.000	
39	   H	2.713	1.543	1.686	 H	1	UNK0	0.000	
40	   H	-0.147	1.582	2.675	 H	1	UNK0	0.000	
41	   H	1.057	2.882	2.733	 H	1	UNK0	0.000	
42	   H	1.262	2.885	0.277	 H	1	UNK0	0.000	
43	   H	0.073	1.570	0.156	 H	1	UNK0	0.000	
44	   H	-0.899	3.805	1.661	 H	1	UNK0	0.000	
45	   H	-2.795	3.292	0.817	 H	1	UNK0	0.000	
46	   H	-1.977	1.836	0.043	 H	1	UNK0	0.000	
47	   H	-3.043	2.946	-1.671	 H	1	UNK0	0.000	
48	   H	-2.569	4.575	-1.123	 H	1	UNK0	0.000	
49	   H	-0.281	5.277	-2.125	 H	1	UNK0	0.000	
50	   H	0.835	3.941	-1.759	 H	1	UNK0	0.000	
51	   H	-0.967	5.422	0.129	 H	1	UNK0	0.000	
52	   H	0.718	4.890	0.368	 H	1	UNK0	0.000	
53	   H	0.612	-3.896	0.772	 H	1	UNK0	0.000	
54	   H	2.352	-5.648	0.778	 H	1	UNK0	0.000	
55	   H	5.114	-3.000	2.612	 H	1	UNK0	0.000	
56	   H	3.433	-1.269	2.620	 H	1	UNK0	0.000	
@<TRIPOS>BOND
1 1 2 1
2 2 3 2
3 2 7 1
4 3 4 1
5 4 5 2
6 5 6 1
7 5 8 1
8 6 7 2
9 8 9 2
10 8 32 1
11 9 10 1
12 9 14 1
13 10 11 1
14 10 25 1
15 11 12 1
16 11 16 1
17 12 13 2
18 12 14 1
19 14 15 2
20 16 17 1
21 17 18 1
22 18 19 1
23 19 20 1
24 19 24 1
25 20 21 1
26 21 22 1
27 22 23 1
28 23 24 1
29 25 26 2
30 25 30 1
31 26 27 1
32 27 28 2
33 28 29 1
34 28 31 1
35 29 30 2
36 3 33 1
37 4 34 1
38 6 35 1
39 7 36 1
40 10 37 1
41 16 38 1
42 16 39 1
43 17 40 1
44 17 41 1
45 18 42 1
46 18 43 1
47 19 44 1
48 20 45 1
49 20 46 1
50 21 47 1
51 21 48 1
52 23 49 1
53 23 50 1
54 24 51 1
55 24 52 1
56 26 53 1
57 27 54 1
58 29 55 1
59 30 56 1
@<TRIPOS>SUBSTRUCTURE
1	UNK0	1	GROUP	1 ****	UNK
