# created with PyMOL 2.3.2
@<TRIPOS>MOLECULE
881
53 56 1                 
SMALL
USER_CHARGES
@<TRIPOS>ATOM
1	   F	-5.930	3.182	4.416	 F	1	UNK0	0.000	
2	   C	-4.808	2.666	3.851	C.2	1	UNK0	0.000	
3	   C	-3.572	3.249	4.025	C.2	1	UNK0	0.000	
4	   C	-2.454	2.703	3.440	C.2	1	UNK0	0.000	
5	   C	-2.526	1.548	2.653	C.2	1	UNK0	0.000	
6	   C	-3.778	1.011	2.516	C.2	1	UNK0	0.000	
7	   C	-4.918	1.529	3.085	C.2	1	UNK0	0.000	
8	   C	-1.295	1.018	2.111	C.2	1	UNK0	0.000	
9	   C	-1.073	0.807	0.817	C.2	1	UNK0	0.000	
10	   C	0.191	0.251	0.212	C.3	1	UNK0	0.000	
11	   N	0.118	0.678	-1.144	N.pl3	1	UNK0	0.000	
12	   C	-1.191	1.028	-1.519	C.2	1	UNK0	0.000	
13	   O	-1.681	1.240	-2.649	O.2	1	UNK0	0.000	
14	   C	-1.974	1.117	-0.264	C.2	1	UNK0	0.000	
15	   O	-3.200	1.413	-0.185	O.2	1	UNK0	0.000	
16	   C	1.269	0.756	-2.056	C.3	1	UNK0	0.000	
17	   C	1.454	-0.525	-2.797	C.3	1	UNK0	0.000	
18	   N	2.555	-0.491	-3.701	N.4	1	UNK0	0.000	
19	   C	3.733	0.119	-3.174	C.3	1	UNK0	0.000	
20	   C	4.379	-0.687	-2.074	C.3	1	UNK0	0.000	
21	   O	3.790	-1.916	-1.890	O.3	1	UNK0	0.000	
22	   C	3.538	-2.618	-3.057	C.3	1	UNK0	0.000	
23	   C	2.871	-1.842	-4.136	C.3	1	UNK0	0.000	
24	   C	0.196	-1.232	0.319	C.2	1	UNK0	0.000	
25	   C	-0.687	-1.980	-0.392	C.2	1	UNK0	0.000	
26	   C	-0.667	-3.361	-0.282	C.2	1	UNK0	0.000	
27	   C	0.258	-3.933	0.554	C.2	1	UNK0	0.000	
28	   C	1.167	-3.191	1.288	C.2	1	UNK0	0.000	
29	   C	1.115	-1.819	1.151	C.2	1	UNK0	0.000	
30	  Br	-1.872	-4.476	-1.248	Br	1	UNK0	0.000	
31	   O	-0.212	0.680	2.957	O.2	1	UNK0	0.000	
32	   H	-3.516	4.151	4.639	 H	1	UNK0	0.000	
33	   H	-1.478	3.182	3.591	 H	1	UNK0	0.000	
34	   H	-3.893	0.104	1.947	 H	1	UNK0	0.000	
35	   H	-5.898	1.064	2.946	 H	1	UNK0	0.000	
36	   H	1.024	0.702	0.788	 H	1	UNK0	0.000	
37	   H	2.186	1.028	-1.470	 H	1	UNK0	0.000	
38	   H	1.085	1.593	-2.757	 H	1	UNK0	0.000	
39	   H	0.531	-0.709	-3.422	 H	1	UNK0	0.000	
40	   H	1.532	-1.408	-2.145	 H	1	UNK0	0.000	
41	   H	2.261	0.040	-4.558	 H	1	UNK0	0.000	
42	   H	3.572	1.179	-2.925	 H	1	UNK0	0.000	
43	   H	4.506	0.146	-4.002	 H	1	UNK0	0.000	
44	   H	5.499	-0.772	-2.208	 H	1	UNK0	0.000	
45	   H	4.264	-0.108	-1.134	 H	1	UNK0	0.000	
46	   H	2.894	-3.475	-2.774	 H	1	UNK0	0.000	
47	   H	4.482	-3.095	-3.453	 H	1	UNK0	0.000	
48	   H	3.460	-1.811	-5.082	 H	1	UNK0	0.000	
49	   H	1.905	-2.317	-4.403	 H	1	UNK0	0.000	
50	   H	-1.431	-1.553	-1.062	 H	1	UNK0	0.000	
51	   H	0.267	-5.024	0.634	 H	1	UNK0	0.000	
52	   H	1.863	-3.709	1.923	 H	1	UNK0	0.000	
53	   H	1.824	-1.223	1.723	 H	1	UNK0	0.000	
@<TRIPOS>BOND
1 1 2 1
2 2 3 2
3 2 7 1
4 3 4 1
5 4 5 2
6 5 6 1
7 5 8 1
8 6 7 2
9 8 9 2
10 8 31 1
11 9 10 1
12 9 14 1
13 10 11 1
14 10 24 1
15 11 12 1
16 11 16 1
17 12 13 2
18 12 14 1
19 14 15 2
20 16 17 1
21 17 18 1
22 18 19 1
23 18 23 1
24 19 20 1
25 20 21 1
26 21 22 1
27 22 23 1
28 24 25 2
29 24 29 1
30 25 26 1
31 26 27 2
32 26 30 1
33 27 28 1
34 28 29 2
35 3 32 1
36 4 33 1
37 6 34 1
38 7 35 1
39 10 36 1
40 16 37 1
41 16 38 1
42 17 39 1
43 17 40 1
44 18 41 1
45 19 42 1
46 19 43 1
47 20 44 1
48 20 45 1
49 22 46 1
50 22 47 1
51 23 48 1
52 23 49 1
53 25 50 1
54 27 51 1
55 28 52 1
56 29 53 1
@<TRIPOS>SUBSTRUCTURE
1	UNK0	1	GROUP	1 ****	UNK
