# created with PyMOL 2.3.2
@<TRIPOS>MOLECULE
886
41 44 1                 
SMALL
USER_CHARGES
@<TRIPOS>ATOM
1	   F	-1.047	0.316	-7.491	 F	1	UNK0	0.000	
2	   C	-1.376	0.225	-6.168	C.2	1	UNK0	0.000	
3	   C	-1.554	1.362	-5.432	C.2	1	UNK0	0.000	
4	   C	-1.892	1.280	-4.079	C.2	1	UNK0	0.000	
5	   C	-2.055	0.069	-3.445	C.2	1	UNK0	0.000	
6	   C	-1.867	-1.065	-4.220	C.2	1	UNK0	0.000	
7	   C	-1.534	-0.996	-5.554	C.2	1	UNK0	0.000	
8	   N	-2.406	-0.075	-2.070	N.pl3	1	UNK0	0.000	
9	   C	-1.750	-0.737	-1.102	C.2	1	UNK0	0.000	
10	   O	-0.667	-1.340	-1.334	O.2	1	UNK0	0.000	
11	   C	-2.401	-0.663	0.115	C.2	1	UNK0	0.000	
12	   C	-3.487	0.067	-0.124	C.2	1	UNK0	0.000	
13	   N	-4.152	0.162	1.031	N.pl3	1	UNK0	0.000	
14	   N	-3.481	-0.500	1.955	N.pl3	1	UNK0	0.000	
15	   N	-2.384	-1.028	1.421	N.pl3	1	UNK0	0.000	
16	   C	-1.362	-1.819	2.043	C.3	1	UNK0	0.000	
17	   C	-0.251	-1.067	2.636	C.2	1	UNK0	0.000	
18	   O	-0.389	-0.667	3.802	O.2	1	UNK0	0.000	
19	   N	0.914	-0.820	1.904	N.pl3	1	UNK0	0.000	
20	   C	2.082	-0.123	2.292	C.2	1	UNK0	0.000	
21	   C	2.227	0.416	3.548	C.2	1	UNK0	0.000	
22	   C	3.365	1.112	3.967	C.2	1	UNK0	0.000	
23	   C	4.374	1.245	3.047	C.2	1	UNK0	0.000	
24	   C	4.255	0.716	1.786	C.2	1	UNK0	0.000	
25	   C	3.128	0.038	1.400	C.2	1	UNK0	0.000	
26	  Br	5.974	2.192	3.557	Br	1	UNK0	0.000	
27	   C	-3.503	0.433	-1.453	C.2	1	UNK0	0.000	
28	   O	-4.357	1.125	-2.077	O.2	1	UNK0	0.000	
29	   H	-1.428	2.314	-5.926	 H	1	UNK0	0.000	
30	   H	-2.028	2.179	-3.519	 H	1	UNK0	0.000	
31	   H	-1.997	-2.029	-3.710	 H	1	UNK0	0.000	
32	   H	-1.392	-1.889	-6.142	 H	1	UNK0	0.000	
33	   H	-5.061	0.690	1.143	 H	1	UNK0	0.000	
34	   H	-3.748	-0.604	2.944	 H	1	UNK0	0.000	
35	   H	-0.919	-2.482	1.241	 H	1	UNK0	0.000	
36	   H	-1.799	-2.560	2.773	 H	1	UNK0	0.000	
37	   H	0.965	-1.202	0.891	 H	1	UNK0	0.000	
38	   H	1.469	0.346	4.323	 H	1	UNK0	0.000	
39	   H	3.453	1.527	4.963	 H	1	UNK0	0.000	
40	   H	5.065	0.829	1.065	 H	1	UNK0	0.000	
41	   H	3.056	-0.381	0.375	 H	1	UNK0	0.000	
@<TRIPOS>BOND
1 1 2 1
2 2 3 2
3 2 7 1
4 3 4 1
5 4 5 2
6 5 6 1
7 5 8 1
8 6 7 2
9 8 9 1
10 8 27 1
11 9 10 2
12 9 11 1
13 11 12 2
14 11 15 1
15 12 13 1
16 12 27 1
17 13 14 1
18 14 15 1
19 15 16 1
20 16 17 1
21 17 18 2
22 17 19 1
23 19 20 1
24 20 21 2
25 20 25 1
26 21 22 1
27 22 23 2
28 23 24 1
29 23 26 1
30 24 25 2
31 27 28 2
32 3 29 1
33 4 30 1
34 6 31 1
35 7 32 1
36 13 33 1
37 14 34 1
38 16 35 1
39 16 36 1
40 19 37 1
41 21 38 1
42 22 39 1
43 24 40 1
44 25 41 1
@<TRIPOS>SUBSTRUCTURE
1	UNK0	1	GROUP	1 ****	UNK
