# created with PyMOL 2.3.2
@<TRIPOS>MOLECULE
887
44 47 1                 
SMALL
USER_CHARGES
@<TRIPOS>ATOM
1	   F	5.075	-0.832	2.542	 F	1	UNK0	0.000	
2	   C	4.194	-0.890	1.503	C.2	1	UNK0	0.000	
3	   C	4.638	-0.698	0.219	C.2	1	UNK0	0.000	
4	   C	3.734	-0.760	-0.813	C.2	1	UNK0	0.000	
5	   C	2.397	-1.009	-0.600	C.2	1	UNK0	0.000	
6	   C	1.988	-1.196	0.698	C.2	1	UNK0	0.000	
7	   C	2.872	-1.142	1.785	C.2	1	UNK0	0.000	
8	   N	1.483	-1.067	-1.696	N.pl3	1	UNK0	0.000	
9	   C	1.844	-0.885	-3.075	C.3	1	UNK0	0.000	
10	   C	0.588	-0.975	-3.865	C.3	1	UNK0	0.000	
11	   N	-0.447	-1.260	-2.920	N.pl3	1	UNK0	0.000	
12	   C	0.087	-1.306	-1.695	C.2	1	UNK0	0.000	
13	   N	-0.746	-1.566	-0.647	N.2	1	UNK0	0.000	
14	   N	-2.040	-1.774	-0.771	N.pl3	1	UNK0	0.000	
15	   C	-2.578	-1.728	-2.009	C.2	1	UNK0	0.000	
16	   O	-3.825	-1.934	-2.083	O.2	1	UNK0	0.000	
17	   C	-1.793	-1.472	-3.090	C.2	1	UNK0	0.000	
18	   O	-2.266	-1.424	-4.240	O.2	1	UNK0	0.000	
19	   C	-2.820	-2.039	0.407	C.3	1	UNK0	0.000	
20	   C	-3.291	-0.691	0.906	C.2	1	UNK0	0.000	
21	   O	-4.388	-0.309	0.458	O.2	1	UNK0	0.000	
22	   N	-2.526	0.050	1.805	N.pl3	1	UNK0	0.000	
23	   C	-2.811	1.309	2.365	C.2	1	UNK0	0.000	
24	   C	-3.942	2.054	2.136	C.2	1	UNK0	0.000	
25	   C	-4.161	3.306	2.727	C.2	1	UNK0	0.000	
26	   C	-3.217	3.834	3.578	C.2	1	UNK0	0.000	
27	   C	-2.075	3.114	3.828	C.2	1	UNK0	0.000	
28	   C	-1.882	1.888	3.236	C.2	1	UNK0	0.000	
29	  Br	-3.486	5.528	4.393	Br	1	UNK0	0.000	
30	   H	5.708	-0.500	0.053	 H	1	UNK0	0.000	
31	   H	4.072	-0.611	-1.831	 H	1	UNK0	0.000	
32	   H	0.944	-1.396	0.943	 H	1	UNK0	0.000	
33	   H	2.545	-1.289	2.805	 H	1	UNK0	0.000	
34	   H	2.503	-1.740	-3.375	 H	1	UNK0	0.000	
35	   H	2.416	0.050	-3.251	 H	1	UNK0	0.000	
36	   H	0.357	0.041	-4.304	 H	1	UNK0	0.000	
37	   H	0.636	-1.735	-4.683	 H	1	UNK0	0.000	
38	   H	-3.692	-2.698	0.180	 H	1	UNK0	0.000	
39	   H	-2.194	-2.521	1.190	 H	1	UNK0	0.000	
40	   H	-1.603	-0.403	2.104	 H	1	UNK0	0.000	
41	   H	-4.692	1.650	1.470	 H	1	UNK0	0.000	
42	   H	-5.076	3.834	2.499	 H	1	UNK0	0.000	
43	   H	-1.330	3.540	4.504	 H	1	UNK0	0.000	
44	   H	-0.969	1.355	3.460	 H	1	UNK0	0.000	
@<TRIPOS>BOND
1 1 2 1
2 2 3 2
3 2 7 1
4 3 4 1
5 4 5 2
6 5 6 1
7 5 8 1
8 6 7 2
9 8 9 1
10 8 12 1
11 9 10 1
12 10 11 1
13 11 12 1
14 11 17 1
15 12 13 2
16 13 14 1
17 14 15 1
18 14 19 1
19 15 16 2
20 15 17 1
21 17 18 2
22 19 20 1
23 20 21 2
24 20 22 1
25 22 23 1
26 23 24 2
27 23 28 1
28 24 25 1
29 25 26 2
30 26 27 1
31 26 29 1
32 27 28 2
33 3 30 1
34 4 31 1
35 6 32 1
36 7 33 1
37 9 34 1
38 9 35 1
39 10 36 1
40 10 37 1
41 19 38 1
42 19 39 1
43 22 40 1
44 24 41 1
45 25 42 1
46 27 43 1
47 28 44 1
@<TRIPOS>SUBSTRUCTURE
1	UNK0	1	GROUP	1 ****	UNK
