# created with PyMOL 2.3.2
@<TRIPOS>MOLECULE
888
57 60 1                 
SMALL
USER_CHARGES
@<TRIPOS>ATOM
1	   F	-0.092	-0.883	-1.967	 F	1	UNK0	0.000	
2	   C	-0.979	-1.390	-1.072	C.2	1	UNK0	0.000	
3	   C	-0.650	-2.642	-0.524	C.2	1	UNK0	0.000	
4	   C	-1.430	-3.271	0.404	C.2	1	UNK0	0.000	
5	   C	-2.589	-2.615	0.799	C.2	1	UNK0	0.000	
6	   C	-2.904	-1.396	0.260	C.2	1	UNK0	0.000	
7	   C	-2.123	-0.743	-0.684	C.2	1	UNK0	0.000	
8	   N	-2.553	0.499	-1.218	N.4	1	UNK0	0.000	
9	   C	-1.819	1.040	-2.296	C.3	1	UNK0	0.000	
10	   C	-0.599	1.852	-1.928	C.3	1	UNK0	0.000	
11	   N	-0.377	1.825	-0.518	N.pl3	1	UNK0	0.000	
12	   C	-1.502	2.048	0.391	C.3	1	UNK0	0.000	
13	   C	-2.776	1.478	-0.155	C.3	1	UNK0	0.000	
14	   C	0.885	1.589	0.046	C.2	1	UNK0	0.000	
15	   S	1.083	1.566	1.696	S.2	1	UNK0	0.000	
16	   N	2.057	1.355	-0.714	N.pl3	1	UNK0	0.000	
17	   C	3.310	1.117	-0.108	C.2	1	UNK0	0.000	
18	   O	3.302	1.119	1.174	O.2	1	UNK0	0.000	
19	   C	4.572	0.871	-0.767	C.2	1	UNK0	0.000	
20	   C	4.901	1.243	-2.017	C.2	1	UNK0	0.000	
21	   C	6.140	0.903	-2.584	C.2	1	UNK0	0.000	
22	   C	7.040	0.180	-1.856	C.2	1	UNK0	0.000	
23	   C	6.705	-0.200	-0.574	C.2	1	UNK0	0.000	
24	   C	5.502	0.133	-0.034	C.2	1	UNK0	0.000	
25	  Br	3.733	2.304	-3.088	Br	1	UNK0	0.000	
26	   N	-3.354	-3.241	1.707	N.pl3	1	UNK0	0.000	
27	   C	-3.048	-4.449	2.234	C.2	1	UNK0	0.000	
28	   C	-1.911	-5.141	1.876	C.2	1	UNK0	0.000	
29	   C	-1.115	-4.504	0.941	C.2	1	UNK0	0.000	
30	   O	-0.058	-5.064	0.559	O.2	1	UNK0	0.000	
31	   C	-1.562	-6.435	2.427	C.2	1	UNK0	0.000	
32	   O	-0.527	-7.029	2.074	O.co2	1	UNK0	0.000	
33	   O	-2.390	-7.025	3.361	O.co2	1	UNK0	0.000	
34	   C	-4.565	-2.611	2.185	C.3	1	UNK0	0.000	
35	   C	-5.769	-2.909	1.339	C.3	1	UNK0	0.000	
36	   H	0.261	-3.137	-0.846	 H	1	UNK0	0.000	
37	   H	-3.808	-0.912	0.564	 H	1	UNK0	0.000	
38	   H	-3.537	0.304	-1.587	 H	1	UNK0	0.000	
39	   H	-1.526	0.261	-3.010	 H	1	UNK0	0.000	
40	   H	-2.531	1.746	-2.865	 H	1	UNK0	0.000	
41	   H	-0.873	2.939	-2.165	 H	1	UNK0	0.000	
42	   H	0.287	1.662	-2.505	 H	1	UNK0	0.000	
43	   H	-1.555	3.141	0.564	 H	1	UNK0	0.000	
44	   H	-1.244	1.574	1.351	 H	1	UNK0	0.000	
45	   H	-3.369	0.989	0.629	 H	1	UNK0	0.000	
46	   H	-3.386	2.316	-0.552	 H	1	UNK0	0.000	
47	   H	1.974	1.342	-1.732	 H	1	UNK0	0.000	
48	   H	6.370	1.214	-3.587	 H	1	UNK0	0.000	
49	   H	8.019	-0.115	-2.240	 H	1	UNK0	0.000	
50	   H	7.433	-0.781	0.006	 H	1	UNK0	0.000	
51	   H	5.271	-0.191	0.994	 H	1	UNK0	0.000	
52	   H	-3.713	-4.913	2.975	 H	1	UNK0	0.000	
53	   H	-4.359	-1.539	2.343	 H	1	UNK0	0.000	
54	   H	-4.807	-3.013	3.216	 H	1	UNK0	0.000	
55	   H	-6.358	-1.949	1.248	 H	1	UNK0	0.000	
56	   H	-6.458	-3.631	1.827	 H	1	UNK0	0.000	
57	   H	-5.522	-3.325	0.331	 H	1	UNK0	0.000	
@<TRIPOS>BOND
1 1 2 1
2 2 3 2
3 2 7 1
4 3 4 1
5 4 5 2
6 4 29 1
7 5 6 1
8 5 26 1
9 6 7 2
10 7 8 1
11 8 9 1
12 8 13 1
13 9 10 1
14 10 11 1
15 11 12 1
16 11 14 1
17 12 13 1
18 14 15 2
19 14 16 1
20 16 17 1
21 17 18 2
22 17 19 1
23 19 20 2
24 19 24 1
25 20 21 1
26 20 25 1
27 21 22 2
28 22 23 1
29 23 24 2
30 26 27 1
31 26 34 1
32 27 28 2
33 28 29 1
34 28 31 1
35 29 30 2
36 31 32 2
37 31 33 1
38 34 35 1
39 3 36 1
40 6 37 1
41 8 38 1
42 9 39 1
43 9 40 1
44 10 41 1
45 10 42 1
46 12 43 1
47 12 44 1
48 13 45 1
49 13 46 1
50 16 47 1
51 21 48 1
52 22 49 1
53 23 50 1
54 24 51 1
55 27 52 1
56 34 53 1
57 34 54 1
58 35 55 1
59 35 56 1
60 35 57 1
@<TRIPOS>SUBSTRUCTURE
1	UNK0	1	GROUP	1 ****	UNK
