# created with PyMOL 2.3.2
@<TRIPOS>MOLECULE
889
57 60 1                 
SMALL
USER_CHARGES
@<TRIPOS>ATOM
1	   F	0.094	4.465	1.684	 F	1	UNK0	0.000	
2	   C	-0.427	3.772	0.633	C.2	1	UNK0	0.000	
3	   C	0.115	4.023	-0.634	C.2	1	UNK0	0.000	
4	   C	-0.389	3.402	-1.757	C.2	1	UNK0	0.000	
5	   C	-1.443	2.527	-1.598	C.2	1	UNK0	0.000	
6	   C	-1.977	2.278	-0.357	C.2	1	UNK0	0.000	
7	   C	-1.471	2.903	0.810	C.2	1	UNK0	0.000	
8	   N	-1.962	2.518	2.058	N.4	1	UNK0	0.000	
9	   C	-1.178	2.789	3.212	C.3	1	UNK0	0.000	
10	   C	0.043	1.899	3.328	C.3	1	UNK0	0.000	
11	   N	-0.105	0.587	2.787	N.pl3	1	UNK0	0.000	
12	   C	-1.310	0.170	2.141	C.3	1	UNK0	0.000	
13	   C	-2.414	1.155	2.182	C.3	1	UNK0	0.000	
14	   C	0.943	-0.363	2.858	C.2	1	UNK0	0.000	
15	   S	0.597	-1.903	2.221	S.2	1	UNK0	0.000	
16	   N	2.220	-0.302	3.383	N.pl3	1	UNK0	0.000	
17	   C	3.446	-0.245	3.886	C.2	1	UNK0	0.000	
18	   O	4.007	0.735	4.448	O.2	1	UNK0	0.000	
19	   C	4.355	-1.445	3.807	C.2	1	UNK0	0.000	
20	   C	5.725	-1.256	3.641	C.2	1	UNK0	0.000	
21	   C	6.595	-2.303	3.494	C.2	1	UNK0	0.000	
22	   C	6.035	-3.576	3.522	C.2	1	UNK0	0.000	
23	   C	4.678	-3.765	3.690	C.2	1	UNK0	0.000	
24	   C	3.807	-2.681	3.838	C.2	1	UNK0	0.000	
25	  Br	7.204	-5.064	3.307	Br	1	UNK0	0.000	
26	   N	-1.972	1.868	-2.673	N.pl3	1	UNK0	0.000	
27	   C	-1.439	2.096	-3.886	C.2	1	UNK0	0.000	
28	   C	-0.389	2.959	-4.112	C.2	1	UNK0	0.000	
29	   C	0.136	3.619	-3.010	C.2	1	UNK0	0.000	
30	   O	1.085	4.422	-3.087	O.2	1	UNK0	0.000	
31	   C	0.204	3.204	-5.395	C.2	1	UNK0	0.000	
32	   O	-0.225	2.648	-6.428	O.co2	1	UNK0	0.000	
33	   O	1.274	4.071	-5.508	O.co2	1	UNK0	0.000	
34	   C	-3.071	0.971	-2.464	C.3	1	UNK0	0.000	
35	   C	-2.644	-0.416	-2.101	C.3	1	UNK0	0.000	
36	   H	0.938	4.721	-0.730	 H	1	UNK0	0.000	
37	   H	-2.784	1.611	-0.202	 H	1	UNK0	0.000	
38	   H	-2.878	3.087	2.225	 H	1	UNK0	0.000	
39	   H	-1.861	2.474	4.091	 H	1	UNK0	0.000	
40	   H	-0.923	3.800	3.462	 H	1	UNK0	0.000	
41	   H	0.254	1.835	4.433	 H	1	UNK0	0.000	
42	   H	0.913	2.384	2.865	 H	1	UNK0	0.000	
43	   H	-1.048	-0.187	1.123	 H	1	UNK0	0.000	
44	   H	-1.667	-0.749	2.711	 H	1	UNK0	0.000	
45	   H	-3.246	0.855	1.563	 H	1	UNK0	0.000	
46	   H	-2.830	1.102	3.248	 H	1	UNK0	0.000	
47	   H	1.957	0.993	3.736	 H	1	UNK0	0.000	
48	   H	6.122	-0.250	3.624	 H	1	UNK0	0.000	
49	   H	7.661	-2.192	3.360	 H	1	UNK0	0.000	
50	   H	4.260	-4.746	3.708	 H	1	UNK0	0.000	
51	   H	2.746	-2.885	3.976	 H	1	UNK0	0.000	
52	   H	-1.882	1.559	-4.709	 H	1	UNK0	0.000	
53	   H	-3.861	1.304	-1.777	 H	1	UNK0	0.000	
54	   H	-3.611	0.926	-3.473	 H	1	UNK0	0.000	
55	   H	-3.174	-0.788	-1.179	 H	1	UNK0	0.000	
56	   H	-2.879	-1.121	-2.923	 H	1	UNK0	0.000	
57	   H	-1.556	-0.489	-1.883	 H	1	UNK0	0.000	
@<TRIPOS>BOND
1 1 2 1
2 2 3 2
3 2 7 1
4 3 4 1
5 4 5 2
6 4 29 1
7 5 6 1
8 5 26 1
9 6 7 2
10 7 8 1
11 8 9 1
12 8 13 1
13 9 10 1
14 10 11 1
15 11 12 1
16 11 14 1
17 12 13 1
18 14 15 2
19 14 16 1
20 16 17 1
21 17 18 2
22 17 19 1
23 19 20 2
24 19 24 1
25 20 21 1
26 21 22 2
27 22 23 1
28 22 25 1
29 23 24 2
30 26 27 1
31 26 34 1
32 27 28 2
33 28 29 1
34 28 31 1
35 29 30 2
36 31 32 2
37 31 33 1
38 34 35 1
39 3 36 1
40 6 37 1
41 8 38 1
42 9 39 1
43 9 40 1
44 10 41 1
45 10 42 1
46 12 43 1
47 12 44 1
48 13 45 1
49 13 46 1
50 16 47 1
51 20 48 1
52 21 49 1
53 23 50 1
54 24 51 1
55 27 52 1
56 34 53 1
57 34 54 1
58 35 55 1
59 35 56 1
60 35 57 1
@<TRIPOS>SUBSTRUCTURE
1	UNK0	1	GROUP	1 ****	UNK
