# created with PyMOL 2.3.2
@<TRIPOS>MOLECULE
890
42 43 1                 
SMALL
USER_CHARGES
@<TRIPOS>ATOM
1	  Ge	-2.282	0.342	-0.288	Ge	1	UNK0	0.000	
2	   O	-0.554	0.712	-0.234	O.3	1	UNK0	0.000	
3	   C	0.046	0.373	0.943	C.3	1	UNK0	0.000	
4	   C	0.381	-1.130	0.782	C.3	1	UNK0	0.000	
5	   N	-0.761	-1.708	0.178	N.3	1	UNK0	0.000	
6	   C	-1.628	-2.452	0.978	C.3	1	UNK0	0.000	
7	   C	-2.998	-1.815	1.054	C.3	1	UNK0	0.000	
8	   O	-2.828	-0.449	1.246	O.3	1	UNK0	0.000	
9	   C	-0.737	-1.918	-1.203	C.3	1	UNK0	0.000	
10	   C	-2.004	-1.726	-1.947	C.3	1	UNK0	0.000	
11	   O	-2.773	-0.675	-1.625	O.3	1	UNK0	0.000	
12	   C	1.295	1.047	1.359	C.3	1	UNK0	0.000	
13	   O	1.229	2.390	1.503	O.3	1	UNK0	0.000	
14	   C	1.073	3.393	0.611	C.2	1	UNK0	0.000	
15	   C	1.006	3.198	-0.751	C.2	1	UNK0	0.000	
16	   C	0.834	4.321	-1.565	C.2	1	UNK0	0.000	
17	   C	0.734	5.598	-1.065	C.2	1	UNK0	0.000	
18	   C	0.808	5.743	0.297	C.2	1	UNK0	0.000	
19	   C	0.972	4.698	1.136	C.2	1	UNK0	0.000	
20	  Br	0.501	7.105	-2.192	Br	1	UNK0	0.000	
21	   O	-3.170	1.893	-0.402	O.3	1	UNK0	0.000	
22	   O	1.516	-2.579	0.491	O.3	1	UNK0	0.000	
23	   H	-0.675	0.370	1.807	 H	1	UNK0	0.000	
24	   H	1.218	-1.150	0.042	 H	1	UNK0	0.000	
25	   H	0.716	-1.567	1.720	 H	1	UNK0	0.000	
26	   H	-1.702	-3.535	0.704	 H	1	UNK0	0.000	
27	   H	-1.242	-2.463	2.039	 H	1	UNK0	0.000	
28	   H	-3.565	-2.179	1.958	 H	1	UNK0	0.000	
29	   H	-3.637	-2.046	0.192	 H	1	UNK0	0.000	
30	   H	-0.386	-2.973	-1.403	 H	1	UNK0	0.000	
31	   H	0.043	-1.275	-1.665	 H	1	UNK0	0.000	
32	   H	-1.742	-1.656	-3.045	 H	1	UNK0	0.000	
33	   H	-2.600	-2.676	-1.878	 H	1	UNK0	0.000	
34	   H	1.626	0.507	2.303	 H	1	UNK0	0.000	
35	   H	2.108	0.718	0.622	 H	1	UNK0	0.000	
36	   H	1.112	2.248	-1.249	 H	1	UNK0	0.000	
37	   H	0.778	4.182	-2.633	 H	1	UNK0	0.000	
38	   H	0.728	6.768	0.685	 H	1	UNK0	0.000	
39	   H	1.031	4.810	2.207	 H	1	UNK0	0.000	
40	   H	-3.156	2.274	-1.304	 H	1	UNK0	0.000	
41	   H	1.294	-1.899	1.180	 H	1	UNK0	0.000	
42	   H	0.833	-2.629	-0.233	 H	1	UNK0	0.000	
@<TRIPOS>BOND
1 1 2 1
2 1 8 1
3 1 11 1
4 1 21 1
5 2 3 1
6 3 4 1
7 3 12 1
8 4 5 1
9 5 6 1
10 5 9 1
11 6 7 1
12 7 8 1
13 9 10 1
14 10 11 1
15 12 13 1
16 13 14 1
17 14 15 2
18 14 19 1
19 15 16 1
20 16 17 2
21 17 18 1
22 17 20 1
23 18 19 2
24 3 23 1
25 4 24 1
26 4 25 1
27 6 26 1
28 6 27 1
29 7 28 1
30 7 29 1
31 9 30 1
32 9 31 1
33 10 32 1
34 10 33 1
35 12 34 1
36 12 35 1
37 15 36 1
38 16 37 1
39 18 38 1
40 19 39 1
41 21 40 1
42 22 41 1
43 22 42 1
@<TRIPOS>SUBSTRUCTURE
1	UNK0	1	GROUP	1 ****	UNK
