# created with PyMOL 2.3.2
@<TRIPOS>MOLECULE
891
39 41 1                 
SMALL
USER_CHARGES
@<TRIPOS>ATOM
1	  Ge	0.070	1.669	-2.092	Ge	1	UNK0	0.000	
2	   O	0.956	0.256	-1.520	O.3	1	UNK0	0.000	
3	   C	0.433	-0.954	-1.962	C.3	1	UNK0	0.000	
4	   C	-1.012	-1.164	-1.729	C.3	1	UNK0	0.000	
5	   N	-1.731	-0.009	-1.298	N.3	1	UNK0	0.000	
6	   C	-1.813	0.274	0.070	C.3	1	UNK0	0.000	
7	   C	-0.845	1.426	0.383	C.3	1	UNK0	0.000	
8	   O	-0.864	2.328	-0.690	O.3	1	UNK0	0.000	
9	   C	-2.854	0.345	-2.100	C.3	1	UNK0	0.000	
10	   C	-2.404	1.480	-3.021	C.3	1	UNK0	0.000	
11	   O	-1.083	1.227	-3.388	O.3	1	UNK0	0.000	
12	   C	1.339	-2.066	-1.452	C.3	1	UNK0	0.000	
13	   O	1.558	-2.195	-0.165	O.3	1	UNK0	0.000	
14	   C	1.273	-2.396	1.090	C.2	1	UNK0	0.000	
15	   C	2.343	-2.338	2.012	C.2	1	UNK0	0.000	
16	   C	2.205	-2.526	3.350	C.2	1	UNK0	0.000	
17	   C	0.961	-2.789	3.853	C.2	1	UNK0	0.000	
18	   C	-0.117	-2.858	3.009	C.2	1	UNK0	0.000	
19	   C	0.041	-2.665	1.661	C.2	1	UNK0	0.000	
20	  Br	0.736	-3.058	5.739	Br	1	UNK0	0.000	
21	   O	1.140	2.943	-2.733	O.3	1	UNK0	0.000	
22	   H	0.675	-0.933	-3.086	 H	1	UNK0	0.000	
23	   H	-1.458	-1.400	-2.758	 H	1	UNK0	0.000	
24	   H	-1.308	-2.023	-1.128	 H	1	UNK0	0.000	
25	   H	-2.828	0.731	0.275	 H	1	UNK0	0.000	
26	   H	-1.716	-0.536	0.787	 H	1	UNK0	0.000	
27	   H	-1.163	1.980	1.275	 H	1	UNK0	0.000	
28	   H	0.150	0.943	0.500	 H	1	UNK0	0.000	
29	   H	-3.737	0.641	-1.495	 H	1	UNK0	0.000	
30	   H	-3.139	-0.516	-2.733	 H	1	UNK0	0.000	
31	   H	-3.059	1.590	-3.892	 H	1	UNK0	0.000	
32	   H	-2.372	2.399	-2.383	 H	1	UNK0	0.000	
33	   H	2.342	-1.883	-1.994	 H	1	UNK0	0.000	
34	   H	1.023	-3.037	-1.997	 H	1	UNK0	0.000	
35	   H	3.343	-2.128	1.618	 H	1	UNK0	0.000	
36	   H	3.024	-2.481	4.053	 H	1	UNK0	0.000	
37	   H	-1.085	-3.068	3.451	 H	1	UNK0	0.000	
38	   H	-0.810	-2.729	1.003	 H	1	UNK0	0.000	
39	   H	1.300	2.727	-3.704	 H	1	UNK0	0.000	
@<TRIPOS>BOND
1 1 2 1
2 1 8 1
3 1 11 1
4 1 21 1
5 2 3 1
6 3 4 1
7 3 12 1
8 4 5 1
9 5 6 1
10 5 9 1
11 6 7 1
12 7 8 1
13 9 10 1
14 10 11 1
15 12 13 1
16 13 14 1
17 14 15 2
18 14 19 1
19 15 16 1
20 16 17 2
21 17 18 1
22 17 20 1
23 18 19 2
24 3 22 1
25 4 23 1
26 4 24 1
27 6 25 1
28 6 26 1
29 7 27 1
30 7 28 1
31 9 29 1
32 9 30 1
33 10 31 1
34 10 32 1
35 12 33 1
36 12 34 1
37 15 35 1
38 16 36 1
39 18 37 1
40 19 38 1
41 21 39 1
@<TRIPOS>SUBSTRUCTURE
1	UNK0	1	GROUP	1 ****	UNK
