# created with PyMOL 2.3.2
@<TRIPOS>MOLECULE
893
39 42 1                 
SMALL
USER_CHARGES
@<TRIPOS>ATOM
1	   I	-3.995	0.424	0.482	 I	1	UNK0	0.000	
2	   C	-3.776	-1.402	-0.526	C.2	1	UNK0	0.000	
3	   C	-4.849	-2.263	-0.598	C.2	1	UNK0	0.000	
4	   C	-4.693	-3.471	-1.269	C.2	1	UNK0	0.000	
5	   C	-3.475	-3.773	-1.841	C.2	1	UNK0	0.000	
6	   C	-2.383	-2.930	-1.784	C.2	1	UNK0	0.000	
7	   C	-2.568	-1.744	-1.114	C.2	1	UNK0	0.000	
8	   C	-1.119	-3.341	-2.430	C.3	1	UNK0	0.000	
9	   N	-0.477	-2.287	-3.178	N.pl3	1	UNK0	0.000	
10	   C	0.434	-1.357	-2.543	C.2	1	UNK0	0.000	
11	   S	1.032	0.200	-2.967	S.3	1	UNK0	0.000	
12	   C	2.024	0.489	-1.635	C.2	1	UNK0	0.000	
13	   C	1.874	-0.640	-0.874	C.2	1	UNK0	0.000	
14	   C	1.048	-1.602	-1.345	C.2	1	UNK0	0.000	
15	   C	0.690	-2.920	-0.753	C.2	1	UNK0	0.000	
16	   O	1.201	-3.264	0.372	O.2	1	UNK0	0.000	
17	   N	-0.194	-3.764	-1.424	N.pl3	1	UNK0	0.000	
18	   C	2.688	-0.628	0.419	C.3	1	UNK0	0.000	
19	   C	2.717	0.699	1.045	C.3	1	UNK0	0.000	
20	   N	2.476	1.826	0.218	N.4	1	UNK0	0.000	
21	   C	2.935	1.559	-1.117	C.3	1	UNK0	0.000	
22	   C	2.966	3.065	0.754	C.3	1	UNK0	0.000	
23	   I	-6.360	-4.750	-1.352	 I	1	UNK0	0.000	
24	   O	-6.056	-1.907	-0.003	O.2	1	UNK0	0.000	
25	   H	-3.404	-4.721	-2.349	 H	1	UNK0	0.000	
26	   H	-1.756	-1.049	-1.040	 H	1	UNK0	0.000	
27	   H	-1.359	-4.197	-3.126	 H	1	UNK0	0.000	
28	   H	-0.638	-2.150	-4.196	 H	1	UNK0	0.000	
29	   H	-0.190	-4.796	-1.181	 H	1	UNK0	0.000	
30	   H	3.700	-1.013	0.153	 H	1	UNK0	0.000	
31	   H	2.270	-1.354	1.147	 H	1	UNK0	0.000	
32	   H	2.005	0.791	1.921	 H	1	UNK0	0.000	
33	   H	3.724	0.836	1.540	 H	1	UNK0	0.000	
34	   H	1.419	1.939	0.144	 H	1	UNK0	0.000	
35	   H	2.878	2.450	-1.779	 H	1	UNK0	0.000	
36	   H	3.984	1.205	-1.052	 H	1	UNK0	0.000	
37	   H	2.231	3.417	1.511	 H	1	UNK0	0.000	
38	   H	3.938	2.996	1.247	 H	1	UNK0	0.000	
39	   H	2.959	3.807	-0.090	 H	1	UNK0	0.000	
@<TRIPOS>BOND
1 1 2 1
2 2 3 2
3 2 7 1
4 3 4 1
5 3 24 1
6 4 5 2
7 4 23 1
8 5 6 1
9 6 7 2
10 6 8 1
11 8 9 1
12 8 17 1
13 9 10 1
14 10 11 1
15 10 14 2
16 11 12 1
17 12 13 2
18 12 21 1
19 13 14 1
20 13 18 1
21 14 15 1
22 15 16 2
23 15 17 1
24 18 19 1
25 19 20 1
26 20 21 1
27 20 22 1
28 5 25 1
29 7 26 1
30 8 27 1
31 9 28 1
32 17 29 1
33 18 30 1
34 18 31 1
35 19 32 1
36 19 33 1
37 20 34 1
38 21 35 1
39 21 36 1
40 22 37 1
41 22 38 1
42 22 39 1
@<TRIPOS>SUBSTRUCTURE
1	UNK0	1	GROUP	1 ****	UNK
