# created with PyMOL 2.3.2
@<TRIPOS>MOLECULE
894
46 49 1                 
SMALL
USER_CHARGES
@<TRIPOS>ATOM
1	   I	-5.609	-0.363	-0.780	 I	1	UNK0	0.000	
2	   C	-3.690	0.080	-1.468	C.2	1	UNK0	0.000	
3	   C	-3.094	-0.715	-2.404	C.2	1	UNK0	0.000	
4	   C	-1.819	-0.420	-2.861	C.2	1	UNK0	0.000	
5	   C	-1.181	0.685	-2.349	C.2	1	UNK0	0.000	
6	   C	-1.747	1.511	-1.404	C.2	1	UNK0	0.000	
7	   C	-3.025	1.176	-0.977	C.2	1	UNK0	0.000	
8	   C	-0.995	2.682	-0.900	C.3	1	UNK0	0.000	
9	   N	-1.158	2.694	0.536	N.pl3	1	UNK0	0.000	
10	   C	-0.537	1.659	1.301	C.2	1	UNK0	0.000	
11	   S	-0.907	0.919	2.827	S.3	1	UNK0	0.000	
12	   C	0.374	-0.191	2.920	C.2	1	UNK0	0.000	
13	   C	1.062	0.034	1.766	C.2	1	UNK0	0.000	
14	   C	0.594	0.988	0.932	C.2	1	UNK0	0.000	
15	   C	1.124	1.457	-0.381	C.2	1	UNK0	0.000	
16	   O	2.154	0.959	-0.882	O.2	1	UNK0	0.000	
17	   N	0.451	2.487	-1.076	N.pl3	1	UNK0	0.000	
18	   C	2.284	-0.855	1.607	C.3	1	UNK0	0.000	
19	   C	1.971	-2.178	2.260	C.3	1	UNK0	0.000	
20	   N	1.888	-1.949	3.680	N.4	1	UNK0	0.000	
21	   C	0.720	-1.187	3.966	C.3	1	UNK0	0.000	
22	   C	3.046	-1.250	4.198	C.3	1	UNK0	0.000	
23	   O	-1.280	-1.267	-3.807	O.3	1	UNK0	0.000	
24	   C	-0.028	-1.166	-4.406	C.3	1	UNK0	0.000	
25	   C	0.095	0.134	-5.149	C.3	1	UNK0	0.000	
26	   O	-3.775	-1.821	-2.894	O.2	1	UNK0	0.000	
27	   H	-0.171	0.884	-2.735	 H	1	UNK0	0.000	
28	   H	-3.455	1.850	-0.224	 H	1	UNK0	0.000	
29	   H	-1.316	3.630	-1.370	 H	1	UNK0	0.000	
30	   H	-1.700	3.412	1.036	 H	1	UNK0	0.000	
31	   H	0.934	3.139	-1.729	 H	1	UNK0	0.000	
32	   H	2.424	-1.015	0.519	 H	1	UNK0	0.000	
33	   H	3.182	-0.379	1.998	 H	1	UNK0	0.000	
34	   H	2.783	-2.881	2.047	 H	1	UNK0	0.000	
35	   H	1.020	-2.564	1.898	 H	1	UNK0	0.000	
36	   H	1.813	-2.881	4.143	 H	1	UNK0	0.000	
37	   H	0.827	-0.623	4.937	 H	1	UNK0	0.000	
38	   H	-0.123	-1.900	4.155	 H	1	UNK0	0.000	
39	   H	3.157	-1.569	5.267	 H	1	UNK0	0.000	
40	   H	3.976	-1.487	3.663	 H	1	UNK0	0.000	
41	   H	2.816	-0.161	4.232	 H	1	UNK0	0.000	
42	   H	0.817	-1.319	-3.703	 H	1	UNK0	0.000	
43	   H	0.036	-1.994	-5.166	 H	1	UNK0	0.000	
44	   H	0.235	-0.023	-6.242	 H	1	UNK0	0.000	
45	   H	-0.800	0.784	-5.043	 H	1	UNK0	0.000	
46	   H	1.003	0.669	-4.810	 H	1	UNK0	0.000	
@<TRIPOS>BOND
1 1 2 1
2 2 3 2
3 2 7 1
4 3 4 1
5 3 26 1
6 4 5 2
7 4 23 1
8 5 6 1
9 6 7 2
10 6 8 1
11 8 9 1
12 8 17 1
13 9 10 1
14 10 11 1
15 10 14 2
16 11 12 1
17 12 13 2
18 12 21 1
19 13 14 1
20 13 18 1
21 14 15 1
22 15 16 2
23 15 17 1
24 18 19 1
25 19 20 1
26 20 21 1
27 20 22 1
28 23 24 1
29 24 25 1
30 5 27 1
31 7 28 1
32 8 29 1
33 9 30 1
34 17 31 1
35 18 32 1
36 18 33 1
37 19 34 1
38 19 35 1
39 20 36 1
40 21 37 1
41 21 38 1
42 22 39 1
43 22 40 1
44 22 41 1
45 24 42 1
46 24 43 1
47 25 44 1
48 25 45 1
49 25 46 1
@<TRIPOS>SUBSTRUCTURE
1	UNK0	1	GROUP	1 ****	UNK
