# created with PyMOL 2.3.2
@<TRIPOS>MOLECULE
895
43 46 1                 
SMALL
USER_CHARGES
@<TRIPOS>ATOM
1	   I	7.212	1.041	1.663	 I	1	UNK0	0.000	
2	   C	5.126	0.750	1.776	C.2	1	UNK0	0.000	
3	   C	4.568	0.245	2.933	C.2	1	UNK0	0.000	
4	   C	3.191	0.047	3.022	C.2	1	UNK0	0.000	
5	   C	2.436	0.370	1.935	C.2	1	UNK0	0.000	
6	   C	2.971	0.880	0.759	C.2	1	UNK0	0.000	
7	   C	4.324	1.067	0.691	C.2	1	UNK0	0.000	
8	   C	2.038	1.193	-0.358	C.3	1	UNK0	0.000	
9	   N	0.910	1.899	0.250	N.pl3	1	UNK0	0.000	
10	   C	-0.449	1.651	-0.189	C.2	1	UNK0	0.000	
11	   S	-1.929	2.487	0.066	S.3	1	UNK0	0.000	
12	   C	-2.964	1.473	-0.815	C.2	1	UNK0	0.000	
13	   C	-2.128	0.499	-1.291	C.2	1	UNK0	0.000	
14	   C	-0.822	0.598	-0.961	C.2	1	UNK0	0.000	
15	   C	0.282	-0.326	-1.350	C.2	1	UNK0	0.000	
16	   O	0.069	-1.348	-2.070	O.2	1	UNK0	0.000	
17	   N	1.592	-0.058	-0.907	N.pl3	1	UNK0	0.000	
18	   C	-2.878	-0.533	-2.126	C.3	1	UNK0	0.000	
19	   C	-4.083	-1.011	-1.360	C.3	1	UNK0	0.000	
20	   N	-4.825	0.031	-0.733	N.4	1	UNK0	0.000	
21	   C	-4.422	1.358	-1.186	C.3	1	UNK0	0.000	
22	   C	-4.498	-0.006	0.701	C.3	1	UNK0	0.000	
23	   O	2.686	-0.464	4.210	O.3	1	UNK0	0.000	
24	   C	1.290	-0.671	4.317	C.3	1	UNK0	0.000	
25	   O	5.368	-0.071	4.015	O.2	1	UNK0	0.000	
26	   H	1.361	0.220	1.993	 H	1	UNK0	0.000	
27	   H	4.743	1.467	-0.234	 H	1	UNK0	0.000	
28	   H	2.511	1.848	-1.114	 H	1	UNK0	0.000	
29	   H	1.044	2.593	1.008	 H	1	UNK0	0.000	
30	   H	2.315	-0.821	-0.976	 H	1	UNK0	0.000	
31	   H	-3.146	-0.075	-3.077	 H	1	UNK0	0.000	
32	   H	-2.234	-1.415	-2.293	 H	1	UNK0	0.000	
33	   H	-3.841	-1.826	-0.648	 H	1	UNK0	0.000	
34	   H	-4.765	-1.488	-2.124	 H	1	UNK0	0.000	
35	   H	-5.869	-0.072	-0.831	 H	1	UNK0	0.000	
36	   H	-5.015	2.086	-0.617	 H	1	UNK0	0.000	
37	   H	-4.569	1.386	-2.276	 H	1	UNK0	0.000	
38	   H	-3.402	-0.161	0.776	 H	1	UNK0	0.000	
39	   H	-4.760	0.972	1.162	 H	1	UNK0	0.000	
40	   H	-5.076	-0.788	1.217	 H	1	UNK0	0.000	
41	   H	1.005	-1.565	3.691	 H	1	UNK0	0.000	
42	   H	0.699	0.178	3.924	 H	1	UNK0	0.000	
43	   H	0.972	-0.817	5.370	 H	1	UNK0	0.000	
@<TRIPOS>BOND
1 1 2 1
2 2 3 2
3 2 7 1
4 3 4 1
5 3 25 1
6 4 5 2
7 4 23 1
8 5 6 1
9 6 7 2
10 6 8 1
11 8 9 1
12 8 17 1
13 9 10 1
14 10 11 1
15 10 14 2
16 11 12 1
17 12 13 2
18 12 21 1
19 13 14 1
20 13 18 1
21 14 15 1
22 15 16 2
23 15 17 1
24 18 19 1
25 19 20 1
26 20 21 1
27 20 22 1
28 23 24 1
29 5 26 1
30 7 27 1
31 8 28 1
32 9 29 1
33 17 30 1
34 18 31 1
35 18 32 1
36 19 33 1
37 19 34 1
38 20 35 1
39 21 36 1
40 21 37 1
41 22 38 1
42 22 39 1
43 22 40 1
44 24 41 1
45 24 42 1
46 24 43 1
@<TRIPOS>SUBSTRUCTURE
1	UNK0	1	GROUP	1 ****	UNK
