# created with PyMOL 2.3.2
@<TRIPOS>MOLECULE
896
51 54 1                 
SMALL
USER_CHARGES
@<TRIPOS>ATOM
1	   I	4.275	-0.644	4.916	 I	1	UNK0	0.000	
2	   C	2.737	-2.092	4.883	C.2	1	UNK0	0.000	
3	   C	1.934	-2.251	3.760	C.2	1	UNK0	0.000	
4	   C	0.931	-3.191	3.739	C.2	1	UNK0	0.000	
5	   C	0.761	-3.958	4.869	C.2	1	UNK0	0.000	
6	   C	1.556	-3.805	5.991	C.2	1	UNK0	0.000	
7	   C	2.551	-2.861	5.990	C.2	1	UNK0	0.000	
8	   I	1.224	-5.011	7.667	 I	1	UNK0	0.000	
9	   C	0.060	-3.366	2.562	C.2	1	UNK0	0.000	
10	   N	0.186	-2.669	1.509	N.2	1	UNK0	0.000	
11	   N	-0.603	-2.774	0.351	N.pl3	1	UNK0	0.000	
12	   C	-0.654	-1.556	-0.432	C.2	1	UNK0	0.000	
13	   N	-1.818	-1.029	-0.837	N.2	1	UNK0	0.000	
14	   C	-1.843	0.131	-1.559	C.2	1	UNK0	0.000	
15	   N	-0.680	0.734	-1.854	N.2	1	UNK0	0.000	
16	   C	0.488	0.237	-1.469	C.2	1	UNK0	0.000	
17	   N	0.476	-0.906	-0.760	N.2	1	UNK0	0.000	
18	   N	1.739	0.844	-1.735	N.pl3	1	UNK0	0.000	
19	   C	1.801	2.260	-2.003	C.3	1	UNK0	0.000	
20	   C	2.535	2.437	-3.324	C.3	1	UNK0	0.000	
21	   O	3.790	1.851	-3.175	O.3	1	UNK0	0.000	
22	   C	3.677	0.485	-3.062	C.3	1	UNK0	0.000	
23	   C	2.959	0.081	-1.765	C.3	1	UNK0	0.000	
24	   N	-3.063	0.695	-1.996	N.pl3	1	UNK0	0.000	
25	   C	-4.317	0.034	-1.753	C.3	1	UNK0	0.000	
26	   C	-5.041	-0.000	-3.098	C.3	1	UNK0	0.000	
27	   O	-4.234	0.401	-4.143	O.3	1	UNK0	0.000	
28	   C	-3.776	1.703	-4.025	C.3	1	UNK0	0.000	
29	   C	-3.065	1.949	-2.693	C.3	1	UNK0	0.000	
30	   O	2.179	-1.440	2.677	O.3	1	UNK0	0.000	
31	   H	-0.028	-4.705	4.866	 H	1	UNK0	0.000	
32	   H	3.198	-2.717	6.863	 H	1	UNK0	0.000	
33	   H	-0.717	-4.117	2.588	 H	1	UNK0	0.000	
34	   H	-1.112	-3.633	0.065	 H	1	UNK0	0.000	
35	   H	2.460	2.702	-1.211	 H	1	UNK0	0.000	
36	   H	0.800	2.728	-2.011	 H	1	UNK0	0.000	
37	   H	1.972	1.838	-4.066	 H	1	UNK0	0.000	
38	   H	2.613	3.507	-3.619	 H	1	UNK0	0.000	
39	   H	4.654	-0.021	-3.151	 H	1	UNK0	0.000	
40	   H	3.048	0.082	-3.889	 H	1	UNK0	0.000	
41	   H	2.707	-1.014	-1.900	 H	1	UNK0	0.000	
42	   H	3.616	0.220	-0.898	 H	1	UNK0	0.000	
43	   H	-4.907	0.693	-1.087	 H	1	UNK0	0.000	
44	   H	-4.190	-0.983	-1.331	 H	1	UNK0	0.000	
45	   H	-5.955	0.603	-3.092	 H	1	UNK0	0.000	
46	   H	-5.299	-1.070	-3.289	 H	1	UNK0	0.000	
47	   H	-3.006	1.853	-4.824	 H	1	UNK0	0.000	
48	   H	-4.632	2.408	-4.158	 H	1	UNK0	0.000	
49	   H	-2.069	2.387	-2.823	 H	1	UNK0	0.000	
50	   H	-3.723	2.659	-2.110	 H	1	UNK0	0.000	
51	   H	2.897	-0.746	2.657	 H	1	UNK0	0.000	
@<TRIPOS>BOND
1 1 2 1
2 2 3 2
3 2 7 1
4 3 4 1
5 3 30 1
6 4 5 2
7 4 9 1
8 5 6 1
9 6 7 2
10 6 8 1
11 9 10 2
12 10 11 1
13 11 12 1
14 12 13 2
15 12 17 1
16 13 14 1
17 14 15 2
18 14 24 1
19 15 16 1
20 16 17 2
21 16 18 1
22 18 19 1
23 18 23 1
24 19 20 1
25 20 21 1
26 21 22 1
27 22 23 1
28 24 25 1
29 24 29 1
30 25 26 1
31 26 27 1
32 27 28 1
33 28 29 1
34 5 31 1
35 7 32 1
36 9 33 1
37 11 34 1
38 19 35 1
39 19 36 1
40 20 37 1
41 20 38 1
42 22 39 1
43 22 40 1
44 23 41 1
45 23 42 1
46 25 43 1
47 25 44 1
48 26 45 1
49 26 46 1
50 28 47 1
51 28 48 1
52 29 49 1
53 29 50 1
54 30 51 1
@<TRIPOS>SUBSTRUCTURE
1	UNK0	1	GROUP	1 ****	UNK
