# created with PyMOL 2.3.2
@<TRIPOS>MOLECULE
901
55 58 1                 
SMALL
USER_CHARGES
@<TRIPOS>ATOM
1	   I	-3.769	2.422	1.054	 I	1	UNK0	0.000	
2	   C	-2.292	3.743	0.290	C.2	1	UNK0	0.000	
3	   C	-1.001	3.641	0.726	C.2	1	UNK0	0.000	
4	   C	-0.128	4.619	0.191	C.2	1	UNK0	0.000	
5	   C	-0.530	5.584	-0.687	C.2	1	UNK0	0.000	
6	   C	-1.822	5.659	-1.105	C.2	1	UNK0	0.000	
7	   C	-2.706	4.734	-0.614	C.2	1	UNK0	0.000	
8	   C	-0.447	2.631	1.596	C.2	1	UNK0	0.000	
9	   O	0.542	3.035	2.324	O.2	1	UNK0	0.000	
10	   N	-0.886	1.302	1.694	N.pl3	1	UNK0	0.000	
11	   C	-0.293	0.374	2.589	C.2	1	UNK0	0.000	
12	   S	0.931	0.877	3.527	S.2	1	UNK0	0.000	
13	   N	-0.727	-0.951	2.671	N.pl3	1	UNK0	0.000	
14	   C	-0.146	-1.911	3.576	C.3	1	UNK0	0.000	
15	   C	0.242	-3.154	2.842	C.3	1	UNK0	0.000	
16	   N	-0.743	-3.553	1.851	N.4	1	UNK0	0.000	
17	   C	-1.996	-2.882	2.147	C.3	1	UNK0	0.000	
18	   C	-1.793	-1.416	1.821	C.3	1	UNK0	0.000	
19	   C	-0.301	-3.205	0.533	C.2	1	UNK0	0.000	
20	   N	0.877	-2.585	0.334	N.2	1	UNK0	0.000	
21	   C	1.335	-2.249	-0.884	C.2	1	UNK0	0.000	
22	   C	0.592	-2.536	-2.008	C.2	1	UNK0	0.000	
23	   C	-0.615	-3.172	-1.807	C.2	1	UNK0	0.000	
24	   N	-1.031	-3.488	-0.560	N.2	1	UNK0	0.000	
25	   C	1.048	-2.199	-3.275	C.2	1	UNK0	0.000	
26	   O	0.349	-2.473	-4.296	O.2	1	UNK0	0.000	
27	   C	2.263	-1.566	-3.426	C.2	1	UNK0	0.000	
28	   C	2.980	-1.293	-2.281	C.2	1	UNK0	0.000	
29	   N	2.519	-1.630	-1.042	N.pl3	1	UNK0	0.000	
30	   C	3.280	-1.334	0.152	C.3	1	UNK0	0.000	
31	   C	4.178	-2.499	0.452	C.3	1	UNK0	0.000	
32	   C	2.755	-1.207	-4.747	C.2	1	UNK0	0.000	
33	   O	2.092	-1.463	-5.794	O.co2	1	UNK0	0.000	
34	   O	3.969	-0.569	-4.942	O.co2	1	UNK0	0.000	
35	   H	0.902	4.555	0.528	 H	1	UNK0	0.000	
36	   H	0.185	6.312	-1.067	 H	1	UNK0	0.000	
37	   H	-2.147	6.427	-1.808	 H	1	UNK0	0.000	
38	   H	-3.744	4.751	-0.915	 H	1	UNK0	0.000	
39	   H	-1.646	0.960	1.085	 H	1	UNK0	0.000	
40	   H	-0.860	-2.191	4.397	 H	1	UNK0	0.000	
41	   H	0.774	-1.513	4.063	 H	1	UNK0	0.000	
42	   H	1.178	-2.932	2.284	 H	1	UNK0	0.000	
43	   H	0.466	-3.980	3.552	 H	1	UNK0	0.000	
44	   H	-0.924	-4.574	1.927	 H	1	UNK0	0.000	
45	   H	-2.303	-3.039	3.182	 H	1	UNK0	0.000	
46	   H	-2.755	-3.250	1.411	 H	1	UNK0	0.000	
47	   H	-2.728	-0.832	1.930	 H	1	UNK0	0.000	
48	   H	-1.400	-1.335	0.764	 H	1	UNK0	0.000	
49	   H	-1.209	-3.402	-2.696	 H	1	UNK0	0.000	
50	   H	3.936	-0.798	-2.357	 H	1	UNK0	0.000	
51	   H	3.831	-0.375	0.074	 H	1	UNK0	0.000	
52	   H	2.588	-1.219	1.013	 H	1	UNK0	0.000	
53	   H	5.120	-2.447	-0.152	 H	1	UNK0	0.000	
54	   H	3.605	-3.426	0.247	 H	1	UNK0	0.000	
55	   H	4.418	-2.530	1.549	 H	1	UNK0	0.000	
@<TRIPOS>BOND
1 1 2 1
2 2 3 2
3 2 7 1
4 3 4 1
5 3 8 1
6 4 5 2
7 5 6 1
8 6 7 2
9 8 9 2
10 8 10 1
11 10 11 1
12 11 12 2
13 11 13 1
14 13 14 1
15 13 18 1
16 14 15 1
17 15 16 1
18 16 17 1
19 16 19 1
20 17 18 1
21 19 20 2
22 19 24 1
23 20 21 1
24 21 22 2
25 21 29 1
26 22 23 1
27 22 25 1
28 23 24 2
29 25 26 2
30 25 27 1
31 27 28 2
32 27 32 1
33 28 29 1
34 29 30 1
35 30 31 1
36 32 33 2
37 32 34 1
38 4 35 1
39 5 36 1
40 6 37 1
41 7 38 1
42 10 39 1
43 14 40 1
44 14 41 1
45 15 42 1
46 15 43 1
47 16 44 1
48 17 45 1
49 17 46 1
50 18 47 1
51 18 48 1
52 23 49 1
53 28 50 1
54 30 51 1
55 30 52 1
56 31 53 1
57 31 54 1
58 31 55 1
@<TRIPOS>SUBSTRUCTURE
1	UNK0	1	GROUP	1 ****	UNK
