# created with PyMOL 2.3.2
@<TRIPOS>MOLECULE
902
41 44 1                 
SMALL
USER_CHARGES
@<TRIPOS>ATOM
1	   I	0.992	1.144	-5.475	 I	1	UNK0	0.000	
2	   C	-0.835	1.186	-4.423	C.2	1	UNK0	0.000	
3	   C	-1.008	0.421	-3.284	C.2	1	UNK0	0.000	
4	   C	-2.222	0.459	-2.598	C.2	1	UNK0	0.000	
5	   C	-3.223	1.257	-3.069	C.2	1	UNK0	0.000	
6	   C	-3.064	2.028	-4.209	C.2	1	UNK0	0.000	
7	   C	-1.869	1.991	-4.884	C.2	1	UNK0	0.000	
8	   C	0.085	-0.419	-2.811	C.2	1	UNK0	0.000	
9	   O	0.204	-1.605	-3.204	O.2	1	UNK0	0.000	
10	   N	1.015	0.136	-1.895	N.pl3	1	UNK0	0.000	
11	   C	2.102	-0.690	-1.421	C.3	1	UNK0	0.000	
12	   C	2.490	-0.291	-0.018	C.3	1	UNK0	0.000	
13	   N	1.362	0.257	0.641	N.pl3	1	UNK0	0.000	
14	   C	0.818	1.497	0.078	C.3	1	UNK0	0.000	
15	   C	0.899	1.504	-1.426	C.3	1	UNK0	0.000	
16	   C	0.713	-0.264	1.781	C.2	1	UNK0	0.000	
17	   N	0.583	0.380	2.948	N.2	1	UNK0	0.000	
18	   C	-0.036	-0.124	4.024	C.2	1	UNK0	0.000	
19	   N	-0.567	-1.356	3.944	N.2	1	UNK0	0.000	
20	   C	-0.486	-2.086	2.803	C.2	1	UNK0	0.000	
21	   N	-0.921	-3.318	2.457	N.pl3	1	UNK0	0.000	
22	   N	-0.553	-3.492	1.220	N.2	1	UNK0	0.000	
23	   N	0.096	-2.441	0.749	N.2	1	UNK0	0.000	
24	   C	0.166	-1.529	1.700	C.2	1	UNK0	0.000	
25	   C	-1.647	-4.210	3.340	C.3	1	UNK0	0.000	
26	   H	-2.304	-0.159	-1.712	 H	1	UNK0	0.000	
27	   H	-4.166	1.281	-2.530	 H	1	UNK0	0.000	
28	   H	-3.900	2.649	-4.541	 H	1	UNK0	0.000	
29	   H	-1.735	2.596	-5.784	 H	1	UNK0	0.000	
30	   H	1.758	-1.759	-1.391	 H	1	UNK0	0.000	
31	   H	3.002	-0.594	-2.087	 H	1	UNK0	0.000	
32	   H	3.023	-1.088	0.521	 H	1	UNK0	0.000	
33	   H	3.248	0.541	-0.131	 H	1	UNK0	0.000	
34	   H	1.375	2.375	0.486	 H	1	UNK0	0.000	
35	   H	-0.251	1.590	0.357	 H	1	UNK0	0.000	
36	   H	1.838	2.059	-1.698	 H	1	UNK0	0.000	
37	   H	0.037	2.027	-1.828	 H	1	UNK0	0.000	
38	   H	-0.106	0.463	4.954	 H	1	UNK0	0.000	
39	   H	-1.697	-5.217	2.832	 H	1	UNK0	0.000	
40	   H	-1.097	-4.385	4.283	 H	1	UNK0	0.000	
41	   H	-2.686	-3.877	3.524	 H	1	UNK0	0.000	
@<TRIPOS>BOND
1 1 2 1
2 2 3 2
3 2 7 1
4 3 4 1
5 3 8 1
6 4 5 2
7 5 6 1
8 6 7 2
9 8 9 2
10 8 10 1
11 10 11 1
12 10 15 1
13 11 12 1
14 12 13 1
15 13 14 1
16 13 16 1
17 14 15 1
18 16 17 2
19 16 24 1
20 17 18 1
21 18 19 2
22 19 20 1
23 20 21 1
24 20 24 2
25 21 22 1
26 21 25 1
27 22 23 2
28 23 24 1
29 4 26 1
30 5 27 1
31 6 28 1
32 7 29 1
33 11 30 1
34 11 31 1
35 12 32 1
36 12 33 1
37 14 34 1
38 14 35 1
39 15 36 1
40 15 37 1
41 18 38 1
42 25 39 1
43 25 40 1
44 25 41 1
@<TRIPOS>SUBSTRUCTURE
1	UNK0	1	GROUP	1 ****	UNK
