# created with PyMOL 2.3.2
@<TRIPOS>MOLECULE
903
49 52 1                 
SMALL
USER_CHARGES
@<TRIPOS>ATOM
1	   I	-1.160	2.813	1.781	 I	1	UNK0	0.000	
2	   C	-0.757	2.475	3.817	C.2	1	UNK0	0.000	
3	   C	0.528	2.127	4.216	C.2	1	UNK0	0.000	
4	   C	0.790	1.907	5.543	C.2	1	UNK0	0.000	
5	   C	-0.221	2.030	6.492	C.2	1	UNK0	0.000	
6	   C	-1.490	2.374	6.100	C.2	1	UNK0	0.000	
7	   C	-1.733	2.592	4.757	C.2	1	UNK0	0.000	
8	   C	1.608	1.987	3.264	C.2	1	UNK0	0.000	
9	   O	2.304	3.021	3.007	O.2	1	UNK0	0.000	
10	   N	1.852	0.730	2.661	N.pl3	1	UNK0	0.000	
11	   C	2.952	0.663	1.715	C.3	1	UNK0	0.000	
12	   C	2.803	-0.564	0.815	C.3	1	UNK0	0.000	
13	   N	1.388	-0.782	0.704	N.pl3	1	UNK0	0.000	
14	   C	0.736	-1.324	1.868	C.3	1	UNK0	0.000	
15	   C	1.021	-0.375	3.010	C.3	1	UNK0	0.000	
16	   C	0.634	-0.496	-0.453	C.2	1	UNK0	0.000	
17	   N	-0.700	-0.747	-0.525	N.2	1	UNK0	0.000	
18	   N	-1.441	-0.498	-1.574	N.2	1	UNK0	0.000	
19	   C	-0.930	0.040	-2.694	C.2	1	UNK0	0.000	
20	   C	0.400	0.332	-2.729	C.2	1	UNK0	0.000	
21	   C	1.162	0.057	-1.602	C.2	1	UNK0	0.000	
22	   N	-1.802	0.267	-3.779	N.pl3	1	UNK0	0.000	
23	   C	-1.373	1.004	-4.935	C.3	1	UNK0	0.000	
24	   C	-2.476	1.927	-5.440	C.3	1	UNK0	0.000	
25	   O	-3.728	1.377	-5.401	O.3	1	UNK0	0.000	
26	   C	-4.082	0.906	-4.139	C.3	1	UNK0	0.000	
27	   C	-3.173	-0.246	-3.782	C.3	1	UNK0	0.000	
28	   H	1.810	1.632	5.848	 H	1	UNK0	0.000	
29	   H	0.027	1.849	7.521	 H	1	UNK0	0.000	
30	   H	-2.278	2.472	6.829	 H	1	UNK0	0.000	
31	   H	-2.735	2.868	4.414	 H	1	UNK0	0.000	
32	   H	2.861	1.550	1.053	 H	1	UNK0	0.000	
33	   H	3.936	0.683	2.219	 H	1	UNK0	0.000	
34	   H	3.338	-0.411	-0.116	 H	1	UNK0	0.000	
35	   H	3.263	-1.441	1.336	 H	1	UNK0	0.000	
36	   H	-0.340	-1.384	1.681	 H	1	UNK0	0.000	
37	   H	1.179	-2.329	2.089	 H	1	UNK0	0.000	
38	   H	0.041	0.000	3.411	 H	1	UNK0	0.000	
39	   H	1.521	-0.937	3.820	 H	1	UNK0	0.000	
40	   H	0.831	0.758	-3.616	 H	1	UNK0	0.000	
41	   H	2.230	0.296	-1.641	 H	1	UNK0	0.000	
42	   H	-0.476	1.617	-4.803	 H	1	UNK0	0.000	
43	   H	-1.239	0.246	-5.756	 H	1	UNK0	0.000	
44	   H	-2.432	2.916	-4.923	 H	1	UNK0	0.000	
45	   H	-2.228	2.135	-6.504	 H	1	UNK0	0.000	
46	   H	-5.122	0.487	-4.256	 H	1	UNK0	0.000	
47	   H	-4.139	1.679	-3.374	 H	1	UNK0	0.000	
48	   H	-3.230	-0.983	-4.608	 H	1	UNK0	0.000	
49	   H	-3.436	-0.727	-2.841	 H	1	UNK0	0.000	
@<TRIPOS>BOND
1 1 2 1
2 2 3 2
3 2 7 1
4 3 4 1
5 3 8 1
6 4 5 2
7 5 6 1
8 6 7 2
9 8 9 2
10 8 10 1
11 10 11 1
12 10 15 1
13 11 12 1
14 12 13 1
15 13 14 1
16 13 16 1
17 14 15 1
18 16 17 2
19 16 21 1
20 17 18 1
21 18 19 2
22 19 20 1
23 19 22 1
24 20 21 2
25 22 23 1
26 22 27 1
27 23 24 1
28 24 25 1
29 25 26 1
30 26 27 1
31 4 28 1
32 5 29 1
33 6 30 1
34 7 31 1
35 11 32 1
36 11 33 1
37 12 34 1
38 12 35 1
39 14 36 1
40 14 37 1
41 15 38 1
42 15 39 1
43 20 40 1
44 21 41 1
45 23 42 1
46 23 43 1
47 24 44 1
48 24 45 1
49 26 46 1
50 26 47 1
51 27 48 1
52 27 49 1
@<TRIPOS>SUBSTRUCTURE
1	UNK0	1	GROUP	1 ****	UNK
