# created with PyMOL 2.3.2
@<TRIPOS>MOLECULE
904
47 50 1                 
SMALL
USER_CHARGES
@<TRIPOS>ATOM
1	   I	-1.739	5.379	0.270	 I	1	UNK0	0.000	
2	   C	0.269	5.279	0.885	C.2	1	UNK0	0.000	
3	   C	0.771	4.069	1.387	C.2	1	UNK0	0.000	
4	   C	2.084	4.064	1.770	C.2	1	UNK0	0.000	
5	   C	2.907	5.195	1.678	C.2	1	UNK0	0.000	
6	   C	2.372	6.360	1.180	C.2	1	UNK0	0.000	
7	   C	1.057	6.394	0.787	C.2	1	UNK0	0.000	
8	   N	-0.084	2.975	1.461	N.pl3	1	UNK0	0.000	
9	   C	0.244	1.687	1.939	C.2	1	UNK0	0.000	
10	   O	1.365	1.363	2.363	O.2	1	UNK0	0.000	
11	   C	-0.804	0.596	1.957	C.3	1	UNK0	0.000	
12	   N	-0.247	-0.614	2.460	N.3	1	UNK0	0.000	
13	   C	-1.174	-1.672	2.632	C.3	1	UNK0	0.000	
14	   C	-1.587	-2.257	1.285	C.3	1	UNK0	0.000	
15	   N	-0.370	-2.915	0.804	N.pl3	1	UNK0	0.000	
16	   C	0.923	-2.459	1.252	C.3	1	UNK0	0.000	
17	   C	0.895	-1.030	1.716	C.3	1	UNK0	0.000	
18	   C	-0.472	-3.987	-0.077	C.2	1	UNK0	0.000	
19	   N	-0.095	-5.240	0.295	N.2	1	UNK0	0.000	
20	   C	-0.196	-6.294	-0.527	C.2	1	UNK0	0.000	
21	   N	-0.683	-6.141	-1.767	N.2	1	UNK0	0.000	
22	   C	-1.074	-4.930	-2.197	C.2	1	UNK0	0.000	
23	   N	-1.581	-4.486	-3.350	N.pl3	1	UNK0	0.000	
24	   N	-1.795	-3.189	-3.265	N.2	1	UNK0	0.000	
25	   C	-1.434	-2.744	-2.050	C.2	1	UNK0	0.000	
26	   C	-0.970	-3.836	-1.348	C.2	1	UNK0	0.000	
27	   C	-1.849	-5.332	-4.512	C.3	1	UNK0	0.000	
28	   H	2.558	3.181	2.168	 H	1	UNK0	0.000	
29	   H	3.927	5.156	1.987	 H	1	UNK0	0.000	
30	   H	3.009	7.240	1.107	 H	1	UNK0	0.000	
31	   H	0.641	7.327	0.391	 H	1	UNK0	0.000	
32	   H	-1.087	3.096	1.131	 H	1	UNK0	0.000	
33	   H	-1.621	1.009	2.580	 H	1	UNK0	0.000	
34	   H	-1.162	0.493	0.924	 H	1	UNK0	0.000	
35	   H	-0.638	-2.515	3.160	 H	1	UNK0	0.000	
36	   H	-2.040	-1.434	3.259	 H	1	UNK0	0.000	
37	   H	-2.394	-2.994	1.452	 H	1	UNK0	0.000	
38	   H	-1.931	-1.502	0.589	 H	1	UNK0	0.000	
39	   H	1.608	-2.525	0.382	 H	1	UNK0	0.000	
40	   H	1.321	-3.143	2.026	 H	1	UNK0	0.000	
41	   H	1.037	-0.323	0.857	 H	1	UNK0	0.000	
42	   H	1.803	-0.900	2.377	 H	1	UNK0	0.000	
43	   H	0.100	-7.294	-0.243	 H	1	UNK0	0.000	
44	   H	-1.499	-1.724	-1.713	 H	1	UNK0	0.000	
45	   H	-2.845	-5.796	-4.456	 H	1	UNK0	0.000	
46	   H	-1.732	-4.758	-5.434	 H	1	UNK0	0.000	
47	   H	-1.057	-6.136	-4.532	 H	1	UNK0	0.000	
@<TRIPOS>BOND
1 1 2 1
2 2 3 2
3 2 7 1
4 3 4 1
5 3 8 1
6 4 5 2
7 5 6 1
8 6 7 2
9 8 9 1
10 9 10 2
11 9 11 1
12 11 12 1
13 12 13 1
14 12 17 1
15 13 14 1
16 14 15 1
17 15 16 1
18 15 18 1
19 16 17 1
20 18 19 2
21 18 26 1
22 19 20 1
23 20 21 2
24 21 22 1
25 22 23 1
26 22 26 2
27 23 24 1
28 23 27 1
29 24 25 2
30 25 26 1
31 4 28 1
32 5 29 1
33 6 30 1
34 7 31 1
35 8 32 1
36 11 33 1
37 11 34 1
38 13 35 1
39 13 36 1
40 14 37 1
41 14 38 1
42 16 39 1
43 16 40 1
44 17 41 1
45 17 42 1
46 20 43 1
47 25 44 1
48 27 45 1
49 27 46 1
50 27 47 1
@<TRIPOS>SUBSTRUCTURE
1	UNK0	1	GROUP	1 ****	UNK
