# created with PyMOL 2.3.2
@<TRIPOS>MOLECULE
905
52 55 1                 
SMALL
USER_CHARGES
@<TRIPOS>ATOM
1	   I	0.268	0.540	-5.455	 I	1	UNK0	0.000	
2	   C	0.045	-1.206	-4.283	C.2	1	UNK0	0.000	
3	   C	-0.761	-1.196	-3.167	C.2	1	UNK0	0.000	
4	   C	-0.933	-2.319	-2.374	C.2	1	UNK0	0.000	
5	   C	-0.281	-3.513	-2.696	C.2	1	UNK0	0.000	
6	   C	0.519	-3.501	-3.816	C.2	1	UNK0	0.000	
7	   C	0.692	-2.376	-4.611	C.2	1	UNK0	0.000	
8	   N	-1.436	0.028	-2.837	N.pl3	1	UNK0	0.000	
9	   C	-2.276	0.111	-1.655	C.3	1	UNK0	0.000	
10	   C	-1.477	-0.109	-0.428	C.2	1	UNK0	0.000	
11	   N	-1.960	-0.238	0.817	N.pl3	1	UNK0	0.000	
12	   C	-0.915	-0.416	1.619	C.2	1	UNK0	0.000	
13	   N	0.255	-0.405	0.912	N.pl3	1	UNK0	0.000	
14	   N	-0.140	-0.210	-0.363	N.2	1	UNK0	0.000	
15	   C	1.564	-0.612	1.415	C.3	1	UNK0	0.000	
16	   C	2.335	0.513	1.894	C.2	1	UNK0	0.000	
17	   O	3.519	0.178	2.382	O.2	1	UNK0	0.000	
18	   C	2.078	1.918	1.947	C.2	1	UNK0	0.000	
19	   C	0.954	2.546	1.473	C.2	1	UNK0	0.000	
20	   C	0.751	3.930	1.564	C.2	1	UNK0	0.000	
21	   C	1.717	4.716	2.154	C.2	1	UNK0	0.000	
22	   C	2.858	4.130	2.641	C.2	1	UNK0	0.000	
23	   C	3.029	2.771	2.539	C.2	1	UNK0	0.000	
24	  Cl	1.516	6.450	2.295	Cl	1	UNK0	0.000	
25	   C	-0.936	-0.604	3.088	C.3	1	UNK0	0.000	
26	   C	-1.395	0.683	3.740	C.3	1	UNK0	0.000	
27	   C	-2.579	1.282	3.020	C.3	1	UNK0	0.000	
28	   C	-3.563	0.220	2.575	C.3	1	UNK0	0.000	
29	   C	-3.392	-0.183	1.149	C.3	1	UNK0	0.000	
30	   H	-1.569	-2.315	-1.497	 H	1	UNK0	0.000	
31	   H	-0.407	-4.392	-2.087	 H	1	UNK0	0.000	
32	   H	1.029	-4.428	-4.070	 H	1	UNK0	0.000	
33	   H	1.334	-2.396	-5.494	 H	1	UNK0	0.000	
34	   H	-1.322	0.857	-3.448	 H	1	UNK0	0.000	
35	   H	-3.069	-0.686	-1.749	 H	1	UNK0	0.000	
36	   H	-2.712	1.126	-1.601	 H	1	UNK0	0.000	
37	   H	1.471	-1.408	2.227	 H	1	UNK0	0.000	
38	   H	2.185	-1.139	0.604	 H	1	UNK0	0.000	
39	   H	0.157	2.018	0.995	 H	1	UNK0	0.000	
40	   H	-0.147	4.394	1.180	 H	1	UNK0	0.000	
41	   H	3.638	4.741	3.115	 H	1	UNK0	0.000	
42	   H	3.951	2.331	2.938	 H	1	UNK0	0.000	
43	   H	-1.659	-1.393	3.397	 H	1	UNK0	0.000	
44	   H	0.028	-0.857	3.528	 H	1	UNK0	0.000	
45	   H	-0.535	1.400	3.682	 H	1	UNK0	0.000	
46	   H	-1.593	0.488	4.812	 H	1	UNK0	0.000	
47	   H	-2.234	1.904	2.177	 H	1	UNK0	0.000	
48	   H	-3.074	1.974	3.753	 H	1	UNK0	0.000	
49	   H	-3.556	-0.624	3.281	 H	1	UNK0	0.000	
50	   H	-4.584	0.682	2.670	 H	1	UNK0	0.000	
51	   H	-3.832	-1.183	1.010	 H	1	UNK0	0.000	
52	   H	-3.876	0.602	0.511	 H	1	UNK0	0.000	
@<TRIPOS>BOND
1 1 2 1
2 2 3 2
3 2 7 1
4 3 4 1
5 3 8 1
6 4 5 2
7 5 6 1
8 6 7 2
9 8 9 1
10 9 10 1
11 10 11 1
12 10 14 2
13 11 12 1
14 11 29 1
15 12 13 2
16 12 25 1
17 13 14 1
18 13 15 1
19 15 16 1
20 16 17 2
21 16 18 1
22 18 19 2
23 18 23 1
24 19 20 1
25 20 21 2
26 21 22 1
27 21 24 1
28 22 23 2
29 25 26 1
30 26 27 1
31 27 28 1
32 28 29 1
33 4 30 1
34 5 31 1
35 6 32 1
36 7 33 1
37 8 34 1
38 9 35 1
39 9 36 1
40 15 37 1
41 15 38 1
42 19 39 1
43 20 40 1
44 22 41 1
45 23 42 1
46 25 43 1
47 25 44 1
48 26 45 1
49 26 46 1
50 27 47 1
51 27 48 1
52 28 49 1
53 28 50 1
54 29 51 1
55 29 52 1
@<TRIPOS>SUBSTRUCTURE
1	UNK0	1	GROUP	1 ****	UNK
