# created with PyMOL 2.3.2
@<TRIPOS>MOLECULE
907
25 28 1                 
SMALL
USER_CHARGES
@<TRIPOS>ATOM
1	   I	2.853	-2.232	3.552	 I	1	UNK0	0.000	
2	   C	3.545	-1.092	1.916	C.2	1	UNK0	0.000	
3	   C	2.580	-0.634	1.003	C.2	1	UNK0	0.000	
4	   C	3.083	0.101	-0.040	C.2	1	UNK0	0.000	
5	   C	4.451	0.377	-0.191	C.2	1	UNK0	0.000	
6	   C	5.363	-0.084	0.717	C.2	1	UNK0	0.000	
7	   C	4.891	-0.824	1.774	C.2	1	UNK0	0.000	
8	   N	1.237	-0.961	1.238	N.pl3	1	UNK0	0.000	
9	   C	0.176	-0.581	0.426	C.2	1	UNK0	0.000	
10	   N	0.264	0.144	-0.686	N.2	1	UNK0	0.000	
11	   C	-0.759	0.502	-1.454	C.2	1	UNK0	0.000	
12	   N	-0.930	1.201	-2.580	N.2	1	UNK0	0.000	
13	   O	-2.204	1.234	-2.892	O.3	1	UNK0	0.000	
14	   N	-2.868	0.573	-1.998	N.2	1	UNK0	0.000	
15	   C	-2.023	0.097	-1.081	C.2	1	UNK0	0.000	
16	   N	-2.200	-0.648	0.044	N.pl3	1	UNK0	0.000	
17	   N	-3.292	-1.148	0.601	N.2	1	UNK0	0.000	
18	   N	-2.931	-1.802	1.695	N.2	1	UNK0	0.000	
19	   N	-1.619	-1.702	1.808	N.2	1	UNK0	0.000	
20	   C	-1.127	-0.981	0.784	C.2	1	UNK0	0.000	
21	   H	2.392	0.491	-0.789	 H	1	UNK0	0.000	
22	   H	4.778	0.956	-1.025	 H	1	UNK0	0.000	
23	   H	6.440	0.116	0.625	 H	1	UNK0	0.000	
24	   H	5.593	-1.213	2.524	 H	1	UNK0	0.000	
25	   H	0.979	-1.544	2.094	 H	1	UNK0	0.000	
@<TRIPOS>BOND
1 1 2 1
2 2 3 2
3 2 7 1
4 3 4 1
5 3 8 1
6 4 5 2
7 5 6 1
8 6 7 2
9 8 9 1
10 9 10 2
11 9 20 1
12 10 11 1
13 11 12 2
14 11 15 1
15 12 13 1
16 13 14 1
17 14 15 2
18 15 16 1
19 16 17 1
20 16 20 1
21 17 18 2
22 18 19 1
23 19 20 2
24 4 21 1
25 5 22 1
26 6 23 1
27 7 24 1
28 8 25 1
@<TRIPOS>SUBSTRUCTURE
1	UNK0	1	GROUP	1 ****	UNK
