# created with PyMOL 2.3.2
@<TRIPOS>MOLECULE
908
34 37 1                 
SMALL
USER_CHARGES
@<TRIPOS>ATOM
1	   I	0.591	-2.886	1.444	 I	1	UNK0	0.000	
2	   C	0.953	-3.204	-0.617	C.2	1	UNK0	0.000	
3	   C	0.904	-2.102	-1.446	C.2	1	UNK0	0.000	
4	   C	1.142	-2.330	-2.786	C.2	1	UNK0	0.000	
5	   C	1.416	-3.600	-3.264	C.2	1	UNK0	0.000	
6	   C	1.462	-4.694	-2.426	C.2	1	UNK0	0.000	
7	   C	1.225	-4.474	-1.085	C.2	1	UNK0	0.000	
8	   N	0.621	-0.797	-0.939	N.pl3	1	UNK0	0.000	
9	   C	-0.566	-0.266	-0.596	C.2	1	UNK0	0.000	
10	   O	-1.682	-0.863	-0.669	O.2	1	UNK0	0.000	
11	   C	-0.427	1.031	-0.146	C.2	1	UNK0	0.000	
12	   C	0.868	1.293	-0.216	C.2	1	UNK0	0.000	
13	   N	0.989	2.566	0.229	N.pl3	1	UNK0	0.000	
14	   N	-0.192	3.057	0.557	N.pl3	1	UNK0	0.000	
15	   N	-1.082	2.125	0.333	N.pl3	1	UNK0	0.000	
16	   C	-2.488	2.182	0.533	C.2	1	UNK0	0.000	
17	   C	-3.042	2.446	1.766	C.2	1	UNK0	0.000	
18	   C	-4.417	2.495	1.928	C.2	1	UNK0	0.000	
19	   C	-5.283	2.284	0.875	C.2	1	UNK0	0.000	
20	   C	-4.730	2.020	-0.360	C.2	1	UNK0	0.000	
21	   C	-3.368	1.969	-0.530	C.2	1	UNK0	0.000	
22	   C	1.523	0.173	-0.703	C.2	1	UNK0	0.000	
23	   O	2.781	0.099	-0.890	O.2	1	UNK0	0.000	
24	   H	1.105	-1.471	-3.441	 H	1	UNK0	0.000	
25	   H	1.599	-3.756	-4.317	 H	1	UNK0	0.000	
26	   H	1.679	-5.674	-2.831	 H	1	UNK0	0.000	
27	   H	1.263	-5.344	-0.426	 H	1	UNK0	0.000	
28	   H	1.878	3.103	0.310	 H	1	UNK0	0.000	
29	   H	-0.383	4.011	0.925	 H	1	UNK0	0.000	
30	   H	-2.385	2.616	2.610	 H	1	UNK0	0.000	
31	   H	-4.815	2.705	2.910	 H	1	UNK0	0.000	
32	   H	-6.357	2.330	1.038	 H	1	UNK0	0.000	
33	   H	-5.415	1.854	-1.188	 H	1	UNK0	0.000	
34	   H	-2.915	1.765	-1.480	 H	1	UNK0	0.000	
@<TRIPOS>BOND
1 1 2 1
2 2 3 2
3 2 7 1
4 3 4 1
5 3 8 1
6 4 5 2
7 5 6 1
8 6 7 2
9 8 9 1
10 8 22 1
11 9 10 2
12 9 11 1
13 11 12 2
14 11 15 1
15 12 13 1
16 12 22 1
17 13 14 1
18 14 15 1
19 15 16 1
20 16 17 2
21 16 21 1
22 17 18 1
23 18 19 2
24 19 20 1
25 20 21 2
26 22 23 2
27 4 24 1
28 5 25 1
29 6 26 1
30 7 27 1
31 13 28 1
32 14 29 1
33 17 30 1
34 18 31 1
35 19 32 1
36 20 33 1
37 21 34 1
@<TRIPOS>SUBSTRUCTURE
1	UNK0	1	GROUP	1 ****	UNK
