# created with PyMOL 2.3.2
@<TRIPOS>MOLECULE
909
33 36 1                 
SMALL
USER_CHARGES
@<TRIPOS>ATOM
1	   I	-1.154	-1.698	3.378	 I	1	UNK0	0.000	
2	   C	-0.227	-2.656	1.735	C.2	1	UNK0	0.000	
3	   C	-0.056	-1.908	0.580	C.2	1	UNK0	0.000	
4	   C	0.550	-2.538	-0.486	C.2	1	UNK0	0.000	
5	   C	0.966	-3.864	-0.398	C.2	1	UNK0	0.000	
6	   C	0.794	-4.602	0.754	C.2	1	UNK0	0.000	
7	   C	0.189	-3.979	1.826	C.2	1	UNK0	0.000	
8	   N	-0.478	-0.554	0.490	N.pl3	1	UNK0	0.000	
9	   C	-1.554	0.019	-0.273	C.2	1	UNK0	0.000	
10	   O	-2.363	-0.646	-0.967	O.2	1	UNK0	0.000	
11	   C	-1.559	1.507	-0.112	C.3	1	UNK0	0.000	
12	   C	-1.340	2.192	-1.418	C.3	1	UNK0	0.000	
13	   O	-0.242	3.057	-1.228	O.3	1	UNK0	0.000	
14	   C	0.632	2.084	-0.673	C.3	1	UNK0	0.000	
15	   C	-0.198	1.756	0.566	C.3	1	UNK0	0.000	
16	   C	0.165	0.494	1.198	C.2	1	UNK0	0.000	
17	   O	0.911	0.359	2.190	O.2	1	UNK0	0.000	
18	   C	0.548	1.044	-1.715	C.2	1	UNK0	0.000	
19	   C	-0.658	1.179	-2.306	C.2	1	UNK0	0.000	
20	   C	-2.503	2.853	-2.039	C.3	1	UNK0	0.000	
21	   O	-2.150	3.348	-3.289	O.3	1	UNK0	0.000	
22	   H	0.688	-1.962	-1.394	 H	1	UNK0	0.000	
23	   H	1.445	-4.335	-1.258	 H	1	UNK0	0.000	
24	   H	1.133	-5.624	0.781	 H	1	UNK0	0.000	
25	   H	0.034	-4.507	2.732	 H	1	UNK0	0.000	
26	   H	-2.379	1.887	0.490	 H	1	UNK0	0.000	
27	   H	1.614	2.473	-0.460	 H	1	UNK0	0.000	
28	   H	-0.221	2.623	1.215	 H	1	UNK0	0.000	
29	   H	1.249	0.285	-2.022	 H	1	UNK0	0.000	
30	   H	-1.066	0.715	-3.172	 H	1	UNK0	0.000	
31	   H	-3.352	2.161	-2.119	 H	1	UNK0	0.000	
32	   H	-2.788	3.724	-1.374	 H	1	UNK0	0.000	
33	   H	-1.390	3.988	-3.177	 H	1	UNK0	0.000	
@<TRIPOS>BOND
1 1 2 1
2 2 3 2
3 2 7 1
4 3 4 1
5 3 8 1
6 4 5 2
7 5 6 1
8 6 7 2
9 8 9 1
10 8 16 1
11 9 10 2
12 9 11 1
13 11 12 1
14 11 15 1
15 12 13 1
16 12 19 1
17 12 20 1
18 13 14 1
19 14 15 1
20 14 18 1
21 15 16 1
22 16 17 2
23 18 19 2
24 20 21 1
25 4 22 1
26 5 23 1
27 6 24 1
28 7 25 1
29 11 26 1
30 14 27 1
31 15 28 1
32 18 29 1
33 19 30 1
34 20 31 1
35 20 32 1
36 21 33 1
@<TRIPOS>SUBSTRUCTURE
1	UNK0	1	GROUP	1 ****	UNK
