# created with PyMOL 2.3.2
@<TRIPOS>MOLECULE
910
40 43 1                 
SMALL
USER_CHARGES
@<TRIPOS>ATOM
1	   I	1.604	-4.472	-5.092	 I	1	UNK0	0.000	
2	   C	2.391	-4.195	-3.134	C.2	1	UNK0	0.000	
3	   C	2.383	-3.025	-2.406	C.2	1	UNK0	0.000	
4	   N	2.978	-3.280	-1.238	N.pl3	1	UNK0	0.000	
5	   N	3.344	-4.556	-1.227	N.2	1	UNK0	0.000	
6	   C	3.005	-5.154	-2.367	C.2	1	UNK0	0.000	
7	   C	3.265	-2.350	-0.130	C.3	1	UNK0	0.000	
8	   C	1.854	-1.721	-2.891	C.2	1	UNK0	0.000	
9	   O	1.989	-1.641	-4.180	O.2	1	UNK0	0.000	
10	   N	1.315	-0.764	-2.137	N.pl3	1	UNK0	0.000	
11	   C	0.757	0.227	-1.356	C.2	1	UNK0	0.000	
12	   C	0.330	-0.193	-0.075	C.2	1	UNK0	0.000	
13	   N	0.303	-1.394	0.491	N.2	1	UNK0	0.000	
14	   O	-0.184	-1.270	1.688	O.3	1	UNK0	0.000	
15	   N	-0.477	-0.043	1.928	N.2	1	UNK0	0.000	
16	   C	-0.169	0.675	0.840	C.2	1	UNK0	0.000	
17	   C	-0.270	2.013	0.530	C.2	1	UNK0	0.000	
18	   C	0.134	2.453	-0.704	C.2	1	UNK0	0.000	
19	   C	0.644	1.580	-1.645	C.2	1	UNK0	0.000	
20	   N	-0.798	2.877	1.501	N.pl3	1	UNK0	0.000	
21	   C	-0.706	4.334	1.398	C.3	1	UNK0	0.000	
22	   C	0.125	4.749	2.595	C.3	1	UNK0	0.000	
23	   O	0.496	3.691	3.409	O.3	1	UNK0	0.000	
24	   C	-0.539	2.889	3.841	C.3	1	UNK0	0.000	
25	   C	-1.486	2.507	2.717	C.3	1	UNK0	0.000	
26	   H	3.166	-6.192	-2.661	 H	1	UNK0	0.000	
27	   H	2.773	-2.699	0.788	 H	1	UNK0	0.000	
28	   H	2.966	-1.326	-0.370	 H	1	UNK0	0.000	
29	   H	4.384	-2.371	0.034	 H	1	UNK0	0.000	
30	   H	0.930	-0.081	-3.250	 H	1	UNK0	0.000	
31	   H	0.053	3.487	-0.961	 H	1	UNK0	0.000	
32	   H	0.951	2.002	-2.587	 H	1	UNK0	0.000	
33	   H	-0.369	4.728	0.466	 H	1	UNK0	0.000	
34	   H	-1.739	4.762	1.571	 H	1	UNK0	0.000	
35	   H	-0.337	5.599	3.137	 H	1	UNK0	0.000	
36	   H	1.096	5.151	2.179	 H	1	UNK0	0.000	
37	   H	-0.064	1.931	4.183	 H	1	UNK0	0.000	
38	   H	-1.090	3.302	4.700	 H	1	UNK0	0.000	
39	   H	-2.393	3.192	2.815	 H	1	UNK0	0.000	
40	   H	-1.893	1.513	2.775	 H	1	UNK0	0.000	
@<TRIPOS>BOND
1 1 2 1
2 2 3 2
3 2 6 1
4 3 4 1
5 3 8 1
6 4 5 1
7 4 7 1
8 5 6 2
9 8 9 2
10 8 10 1
11 10 11 1
12 11 12 1
13 11 19 2
14 12 13 2
15 12 16 1
16 13 14 1
17 14 15 1
18 15 16 2
19 16 17 1
20 17 18 2
21 17 20 1
22 18 19 1
23 20 21 1
24 20 25 1
25 21 22 1
26 22 23 1
27 23 24 1
28 24 25 1
29 6 26 1
30 7 27 1
31 7 28 1
32 7 29 1
33 10 30 1
34 18 31 1
35 19 32 1
36 21 33 1
37 21 34 1
38 22 35 1
39 22 36 1
40 24 37 1
41 24 38 1
42 25 39 1
43 25 40 1
@<TRIPOS>SUBSTRUCTURE
1	UNK0	1	GROUP	1 ****	UNK
