# created with PyMOL 2.3.2
@<TRIPOS>MOLECULE
911
42 45 1                 
SMALL
USER_CHARGES
@<TRIPOS>ATOM
1	   I	0.643	-4.063	-4.974	 I	1	UNK0	0.000	
2	   C	1.117	-2.274	-3.962	C.2	1	UNK0	0.000	
3	   C	1.542	-2.255	-2.651	C.2	1	UNK0	0.000	
4	   C	1.852	-1.087	-1.987	C.2	1	UNK0	0.000	
5	   C	1.717	0.081	-2.703	C.2	1	UNK0	0.000	
6	   C	1.287	0.085	-4.033	C.2	1	UNK0	0.000	
7	   C	0.984	-1.099	-4.669	C.2	1	UNK0	0.000	
8	   C	1.153	1.372	-4.772	C.3	1	UNK0	0.000	
9	   O	2.013	1.269	-2.086	O.2	1	UNK0	0.000	
10	   C	2.310	-1.072	-0.573	C.3	1	UNK0	0.000	
11	   N	1.449	-1.969	0.167	N.pl3	1	UNK0	0.000	
12	   C	0.157	-1.620	0.672	C.2	1	UNK0	0.000	
13	   S	-1.244	-2.487	1.173	S.3	1	UNK0	0.000	
14	   C	-2.236	-1.179	1.602	C.2	1	UNK0	0.000	
15	   C	-1.446	-0.092	1.342	C.2	1	UNK0	0.000	
16	   C	-0.212	-0.318	0.863	C.2	1	UNK0	0.000	
17	   C	0.845	0.666	0.498	C.2	1	UNK0	0.000	
18	   O	0.657	1.916	0.618	O.2	1	UNK0	0.000	
19	   N	2.099	0.234	0.003	N.pl3	1	UNK0	0.000	
20	   C	-2.144	1.222	1.661	C.3	1	UNK0	0.000	
21	   C	-2.839	1.142	2.984	C.3	1	UNK0	0.000	
22	   N	-3.509	-0.078	3.250	N.4	1	UNK0	0.000	
23	   C	-3.626	-0.967	2.140	C.3	1	UNK0	0.000	
24	   C	-2.786	-0.779	4.305	C.3	1	UNK0	0.000	
25	   H	1.635	-3.204	-2.125	 H	1	UNK0	0.000	
26	   H	0.650	-1.081	-5.706	 H	1	UNK0	0.000	
27	   H	1.425	2.209	-4.085	 H	1	UNK0	0.000	
28	   H	1.729	1.379	-5.711	 H	1	UNK0	0.000	
29	   H	0.052	1.500	-4.953	 H	1	UNK0	0.000	
30	   H	3.357	-1.417	-0.472	 H	1	UNK0	0.000	
31	   H	1.782	-2.935	0.347	 H	1	UNK0	0.000	
32	   H	2.922	0.898	0.058	 H	1	UNK0	0.000	
33	   H	-1.374	2.010	1.757	 H	1	UNK0	0.000	
34	   H	-2.792	1.431	0.806	 H	1	UNK0	0.000	
35	   H	-3.610	1.962	2.987	 H	1	UNK0	0.000	
36	   H	-2.145	1.405	3.814	 H	1	UNK0	0.000	
37	   H	-4.486	0.081	3.629	 H	1	UNK0	0.000	
38	   H	-4.289	-0.528	1.374	 H	1	UNK0	0.000	
39	   H	-3.996	-1.943	2.534	 H	1	UNK0	0.000	
40	   H	-2.750	-1.862	4.107	 H	1	UNK0	0.000	
41	   H	-1.727	-0.426	4.300	 H	1	UNK0	0.000	
42	   H	-3.262	-0.590	5.305	 H	1	UNK0	0.000	
@<TRIPOS>BOND
1 1 2 1
2 2 3 2
3 2 7 1
4 3 4 1
5 4 5 2
6 4 10 1
7 5 6 1
8 5 9 1
9 6 7 2
10 6 8 1
11 10 11 1
12 10 19 1
13 11 12 1
14 12 13 1
15 12 16 2
16 13 14 1
17 14 15 2
18 14 23 1
19 15 16 1
20 15 20 1
21 16 17 1
22 17 18 2
23 17 19 1
24 20 21 1
25 21 22 1
26 22 23 1
27 22 24 1
28 3 25 1
29 7 26 1
30 8 27 1
31 8 28 1
32 8 29 1
33 10 30 1
34 11 31 1
35 19 32 1
36 20 33 1
37 20 34 1
38 21 35 1
39 21 36 1
40 22 37 1
41 23 38 1
42 23 39 1
43 24 40 1
44 24 41 1
45 24 42 1
@<TRIPOS>SUBSTRUCTURE
1	UNK0	1	GROUP	1 ****	UNK
