# created with PyMOL 2.3.2
@<TRIPOS>MOLECULE
916
48 51 1                 
SMALL
USER_CHARGES
@<TRIPOS>ATOM
1	   I	-3.251	7.509	2.551	 I	1	UNK0	0.000	
2	   C	-2.140	5.846	3.226	C.2	1	UNK0	0.000	
3	   C	-2.494	4.589	2.785	C.2	1	UNK0	0.000	
4	   C	-1.757	3.513	3.236	C.2	1	UNK0	0.000	
5	   C	-0.709	3.690	4.093	C.2	1	UNK0	0.000	
6	   C	-0.381	4.947	4.514	C.2	1	UNK0	0.000	
7	   C	-1.095	6.050	4.084	C.2	1	UNK0	0.000	
8	   C	-2.140	2.154	2.759	C.3	1	UNK0	0.000	
9	   N	-1.429	1.827	1.542	N.pl3	1	UNK0	0.000	
10	   C	-1.595	0.594	0.858	C.2	1	UNK0	0.000	
11	   N	-2.428	-0.368	1.292	N.2	1	UNK0	0.000	
12	   C	-2.567	-1.544	0.615	C.2	1	UNK0	0.000	
13	   N	-1.866	-1.766	-0.512	N.2	1	UNK0	0.000	
14	   C	-1.013	-0.845	-1.003	C.2	1	UNK0	0.000	
15	   N	-0.210	-0.815	-2.083	N.pl3	1	UNK0	0.000	
16	   C	0.406	0.375	-2.050	C.2	1	UNK0	0.000	
17	   N	-0.003	1.081	-0.968	N.2	1	UNK0	0.000	
18	   C	-0.888	0.346	-0.296	C.2	1	UNK0	0.000	
19	   C	-0.066	-1.885	-3.071	C.3	1	UNK0	0.000	
20	   O	-0.214	-3.106	-2.485	O.3	1	UNK0	0.000	
21	   C	0.776	-3.950	-2.883	C.3	1	UNK0	0.000	
22	   C	1.701	-3.245	-3.810	C.3	1	UNK0	0.000	
23	   C	1.237	-1.830	-3.794	C.3	1	UNK0	0.000	
24	   O	1.077	-1.361	-5.099	O.3	1	UNK0	0.000	
25	   O	3.041	-3.287	-3.380	O.3	1	UNK0	0.000	
26	   C	1.502	-4.486	-1.715	C.2	1	UNK0	0.000	
27	   O	2.471	-5.300	-1.875	O.2	1	UNK0	0.000	
28	   N	1.151	-4.121	-0.406	N.pl3	1	UNK0	0.000	
29	   C	1.852	-4.637	0.753	C.3	1	UNK0	0.000	
30	  Cl	-3.684	-2.734	1.271	Cl	1	UNK0	0.000	
31	   H	-3.333	4.489	2.104	 H	1	UNK0	0.000	
32	   H	-0.144	2.852	4.437	 H	1	UNK0	0.000	
33	   H	0.447	5.154	5.199	 H	1	UNK0	0.000	
34	   H	-0.867	7.062	4.394	 H	1	UNK0	0.000	
35	   H	-1.778	1.438	3.538	 H	1	UNK0	0.000	
36	   H	-3.223	2.010	2.688	 H	1	UNK0	0.000	
37	   H	-0.767	2.536	1.155	 H	1	UNK0	0.000	
38	   H	1.126	0.682	-2.813	 H	1	UNK0	0.000	
39	   H	-0.886	-1.720	-3.829	 H	1	UNK0	0.000	
40	   H	0.327	-4.811	-3.447	 H	1	UNK0	0.000	
41	   H	1.656	-3.641	-4.851	 H	1	UNK0	0.000	
42	   H	1.926	-1.154	-3.245	 H	1	UNK0	0.000	
43	   H	1.928	-1.085	-5.506	 H	1	UNK0	0.000	
44	   H	3.125	-2.700	-2.580	 H	1	UNK0	0.000	
45	   H	0.369	-3.463	-0.244	 H	1	UNK0	0.000	
46	   H	1.715	-3.948	1.626	 H	1	UNK0	0.000	
47	   H	1.462	-5.640	1.045	 H	1	UNK0	0.000	
48	   H	2.929	-4.734	0.542	 H	1	UNK0	0.000	
@<TRIPOS>BOND
1 1 2 1
2 2 3 2
3 2 7 1
4 3 4 1
5 4 5 2
6 4 8 1
7 5 6 1
8 6 7 2
9 8 9 1
10 9 10 1
11 10 11 2
12 10 18 1
13 11 12 1
14 12 13 2
15 12 30 1
16 13 14 1
17 14 15 1
18 14 18 2
19 15 16 1
20 15 19 1
21 16 17 2
22 17 18 1
23 19 20 1
24 19 23 1
25 20 21 1
26 21 22 1
27 21 26 1
28 22 23 1
29 22 25 1
30 23 24 1
31 26 27 2
32 26 28 1
33 28 29 1
34 3 31 1
35 5 32 1
36 6 33 1
37 7 34 1
38 8 35 1
39 8 36 1
40 9 37 1
41 16 38 1
42 19 39 1
43 21 40 1
44 22 41 1
45 23 42 1
46 24 43 1
47 25 44 1
48 28 45 1
49 29 46 1
50 29 47 1
51 29 48 1
@<TRIPOS>SUBSTRUCTURE
1	UNK0	1	GROUP	1 ****	UNK
