# created with PyMOL 2.3.2
@<TRIPOS>MOLECULE
917
48 51 1                 
SMALL
USER_CHARGES
@<TRIPOS>ATOM
1	   I	1.348	-7.146	-4.037	 I	1	UNK0	0.000	
2	   C	2.395	-5.686	-2.900	C.2	1	UNK0	0.000	
3	   C	2.612	-4.432	-3.400	C.2	1	UNK0	0.000	
4	   C	3.287	-3.499	-2.661	C.2	1	UNK0	0.000	
5	   C	3.743	-3.865	-1.392	C.2	1	UNK0	0.000	
6	   C	3.516	-5.135	-0.902	C.2	1	UNK0	0.000	
7	   C	2.837	-6.078	-1.643	C.2	1	UNK0	0.000	
8	   C	3.530	-2.128	-3.209	C.3	1	UNK0	0.000	
9	   N	2.304	-1.363	-3.276	N.pl3	1	UNK0	0.000	
10	   C	1.592	-1.117	-2.071	C.2	1	UNK0	0.000	
11	   N	2.012	-1.565	-0.879	N.2	1	UNK0	0.000	
12	   C	1.323	-1.323	0.265	C.2	1	UNK0	0.000	
13	   N	0.179	-0.616	0.240	N.2	1	UNK0	0.000	
14	   C	-0.317	-0.126	-0.927	C.2	1	UNK0	0.000	
15	   N	-1.410	0.596	-1.239	N.pl3	1	UNK0	0.000	
16	   C	-1.362	0.776	-2.562	C.2	1	UNK0	0.000	
17	   N	-0.268	0.186	-3.080	N.2	1	UNK0	0.000	
18	   C	0.407	-0.389	-2.070	C.2	1	UNK0	0.000	
19	   C	-2.385	1.042	-0.278	C.3	1	UNK0	0.000	
20	   O	-1.837	1.850	0.717	O.3	1	UNK0	0.000	
21	   C	-2.885	2.007	1.592	C.3	1	UNK0	0.000	
22	   C	-3.609	0.673	1.666	C.3	1	UNK0	0.000	
23	   C	-2.896	-0.119	0.587	C.3	1	UNK0	0.000	
24	   O	-3.757	-0.936	-0.120	O.3	1	UNK0	0.000	
25	   O	-4.918	0.878	1.239	O.3	1	UNK0	0.000	
26	   C	-2.475	2.416	2.949	C.2	1	UNK0	0.000	
27	   O	-1.273	2.593	3.236	O.2	1	UNK0	0.000	
28	   N	-3.465	2.609	3.932	N.pl3	1	UNK0	0.000	
29	   C	-3.065	3.010	5.262	C.3	1	UNK0	0.000	
30	   H	2.253	-4.172	-4.375	 H	1	UNK0	0.000	
31	   H	4.279	-3.169	-0.781	 H	1	UNK0	0.000	
32	   H	3.856	-5.452	0.078	 H	1	UNK0	0.000	
33	   H	2.642	-7.077	-1.294	 H	1	UNK0	0.000	
34	   H	4.254	-1.631	-2.510	 H	1	UNK0	0.000	
35	   H	4.042	-2.174	-4.185	 H	1	UNK0	0.000	
36	   H	1.948	-0.996	-4.205	 H	1	UNK0	0.000	
37	   H	1.673	-1.689	1.217	 H	1	UNK0	0.000	
38	   H	-2.089	1.318	-3.159	 H	1	UNK0	0.000	
39	   H	-3.273	1.499	-0.744	 H	1	UNK0	0.000	
40	   H	-3.540	2.810	1.190	 H	1	UNK0	0.000	
41	   H	-3.542	0.208	2.650	 H	1	UNK0	0.000	
42	   H	-2.062	-0.641	1.059	 H	1	UNK0	0.000	
43	   H	-3.421	-1.881	-0.143	 H	1	UNK0	0.000	
44	   H	-4.999	0.891	0.262	 H	1	UNK0	0.000	
45	   H	-4.482	2.477	3.751	 H	1	UNK0	0.000	
46	   H	-3.664	2.481	6.046	 H	1	UNK0	0.000	
47	   H	-3.273	4.089	5.411	 H	1	UNK0	0.000	
48	   H	-2.019	2.745	5.427	 H	1	UNK0	0.000	
@<TRIPOS>BOND
1 1 2 1
2 2 3 2
3 2 7 1
4 3 4 1
5 4 5 2
6 4 8 1
7 5 6 1
8 6 7 2
9 8 9 1
10 9 10 1
11 10 11 2
12 10 18 1
13 11 12 1
14 12 13 2
15 13 14 1
16 14 15 1
17 14 18 2
18 15 16 1
19 15 19 1
20 16 17 2
21 17 18 1
22 19 20 1
23 19 23 1
24 20 21 1
25 21 22 1
26 21 26 1
27 22 23 1
28 22 25 1
29 23 24 1
30 26 27 2
31 26 28 1
32 28 29 1
33 3 30 1
34 5 31 1
35 6 32 1
36 7 33 1
37 8 34 1
38 8 35 1
39 9 36 1
40 12 37 1
41 16 38 1
42 19 39 1
43 21 40 1
44 22 41 1
45 23 42 1
46 24 43 1
47 25 44 1
48 28 45 1
49 29 46 1
50 29 47 1
51 29 48 1
@<TRIPOS>SUBSTRUCTURE
1	UNK0	1	GROUP	1 ****	UNK
