# created with PyMOL 2.3.2
@<TRIPOS>MOLECULE
919
40 43 1                 
SMALL
USER_CHARGES
@<TRIPOS>ATOM
1	   I	-1.078	5.204	4.124	 I	1	UNK0	0.000	
2	   C	-0.417	4.652	2.204	C.2	1	UNK0	0.000	
3	   C	0.091	5.581	1.336	C.2	1	UNK0	0.000	
4	   C	0.523	5.227	0.086	C.2	1	UNK0	0.000	
5	   C	0.478	3.907	-0.394	C.2	1	UNK0	0.000	
6	   C	-0.032	2.981	0.480	C.2	1	UNK0	0.000	
7	   C	-0.472	3.351	1.760	C.2	1	UNK0	0.000	
8	   C	0.925	3.624	-1.716	C.2	1	UNK0	0.000	
9	   O	1.269	4.684	-2.414	O.2	1	UNK0	0.000	
10	   C	1.084	2.399	-2.468	C.3	1	UNK0	0.000	
11	   N	1.062	1.138	-1.810	N.pl3	1	UNK0	0.000	
12	   C	0.121	0.254	-1.968	C.2	1	UNK0	0.000	
13	   S	-1.420	-0.033	-2.848	S.3	1	UNK0	0.000	
14	   C	-1.679	-1.648	-2.152	C.2	1	UNK0	0.000	
15	   C	-0.676	-1.910	-1.339	C.2	1	UNK0	0.000	
16	   N	0.303	-0.914	-1.219	N.pl3	1	UNK0	0.000	
17	   C	1.569	-0.718	-0.475	C.3	1	UNK0	0.000	
18	   C	2.053	0.633	-0.915	C.3	1	UNK0	0.000	
19	   C	-0.672	-3.221	-0.619	C.2	1	UNK0	0.000	
20	   C	0.333	-3.604	0.224	C.2	1	UNK0	0.000	
21	   C	0.286	-4.838	0.882	C.2	1	UNK0	0.000	
22	   C	-0.767	-5.692	0.699	C.2	1	UNK0	0.000	
23	   C	-1.784	-5.337	-0.135	C.2	1	UNK0	0.000	
24	   C	-1.719	-4.110	-0.779	C.2	1	UNK0	0.000	
25	  Br	-0.877	-7.385	1.575	Br	1	UNK0	0.000	
26	   H	0.138	6.609	1.681	 H	1	UNK0	0.000	
27	   H	0.908	6.021	-0.533	 H	1	UNK0	0.000	
28	   H	-0.126	1.952	0.219	 H	1	UNK0	0.000	
29	   H	-0.872	2.587	2.428	 H	1	UNK0	0.000	
30	   H	0.285	2.431	-3.283	 H	1	UNK0	0.000	
31	   H	2.034	2.504	-3.091	 H	1	UNK0	0.000	
32	   H	-2.549	-2.224	-2.426	 H	1	UNK0	0.000	
33	   H	2.321	-1.450	-0.797	 H	1	UNK0	0.000	
34	   H	1.356	-0.729	0.624	 H	1	UNK0	0.000	
35	   H	2.220	1.245	-0.022	 H	1	UNK0	0.000	
36	   H	3.013	0.583	-1.476	 H	1	UNK0	0.000	
37	   H	1.178	-2.981	0.403	 H	1	UNK0	0.000	
38	   H	1.088	-5.137	1.552	 H	1	UNK0	0.000	
39	   H	-2.642	-5.949	-0.330	 H	1	UNK0	0.000	
40	   H	-2.527	-3.835	-1.436	 H	1	UNK0	0.000	
@<TRIPOS>BOND
1 1 2 1
2 2 3 2
3 2 7 1
4 3 4 1
5 4 5 2
6 5 6 1
7 5 8 1
8 6 7 2
9 8 9 2
10 8 10 1
11 10 11 1
12 11 12 2
13 11 18 1
14 12 13 1
15 12 16 1
16 13 14 1
17 14 15 2
18 15 16 1
19 15 19 1
20 16 17 1
21 17 18 1
22 19 20 2
23 19 24 1
24 20 21 1
25 21 22 2
26 22 23 1
27 22 25 1
28 23 24 2
29 3 26 1
30 4 27 1
31 6 28 1
32 7 29 1
33 10 30 1
34 10 31 1
35 14 32 1
36 17 33 1
37 17 34 1
38 18 35 1
39 18 36 1
40 20 37 1
41 21 38 1
42 23 39 1
43 24 40 1
@<TRIPOS>SUBSTRUCTURE
1	UNK0	1	GROUP	1 ****	UNK
