# created with PyMOL 2.3.2
@<TRIPOS>MOLECULE
920
40 43 1                 
SMALL
USER_CHARGES
@<TRIPOS>ATOM
1	   I	4.199	4.267	3.466	 I	1	UNK0	0.000	
2	   C	3.459	3.911	1.553	C.2	1	UNK0	0.000	
3	   C	2.517	2.947	1.250	C.2	1	UNK0	0.000	
4	   C	2.050	2.739	-0.020	C.2	1	UNK0	0.000	
5	   C	2.498	3.484	-1.068	C.2	1	UNK0	0.000	
6	   C	3.449	4.462	-0.782	C.2	1	UNK0	0.000	
7	   C	3.913	4.670	0.474	C.2	1	UNK0	0.000	
8	   C	2.017	3.305	-2.411	C.2	1	UNK0	0.000	
9	   O	2.628	4.047	-3.296	O.2	1	UNK0	0.000	
10	   C	0.996	2.474	-2.992	C.3	1	UNK0	0.000	
11	   N	-0.002	1.855	-2.203	N.pl3	1	UNK0	0.000	
12	   C	-0.138	0.578	-2.024	C.2	1	UNK0	0.000	
13	   S	0.614	-0.986	-2.501	S.3	1	UNK0	0.000	
14	   C	-0.541	-1.964	-1.568	C.2	1	UNK0	0.000	
15	   C	-1.391	-1.160	-0.969	C.2	1	UNK0	0.000	
16	   N	-1.203	0.226	-1.192	N.pl3	1	UNK0	0.000	
17	   C	-1.839	1.502	-0.775	C.3	1	UNK0	0.000	
18	   C	-1.058	2.537	-1.507	C.3	1	UNK0	0.000	
19	   C	-2.461	-1.776	-0.130	C.2	1	UNK0	0.000	
20	   C	-3.379	-1.023	0.554	C.2	1	UNK0	0.000	
21	   C	-4.393	-1.609	1.337	C.2	1	UNK0	0.000	
22	   C	-4.487	-2.978	1.435	C.2	1	UNK0	0.000	
23	   C	-3.570	-3.737	0.752	C.2	1	UNK0	0.000	
24	   C	-2.574	-3.150	-0.018	C.2	1	UNK0	0.000	
25	   H	2.153	2.344	2.090	 H	1	UNK0	0.000	
26	   H	1.336	1.966	-0.147	 H	1	UNK0	0.000	
27	   H	3.815	5.060	-1.590	 H	1	UNK0	0.000	
28	   H	4.665	5.440	0.714	 H	1	UNK0	0.000	
29	   H	0.436	3.022	-3.836	 H	1	UNK0	0.000	
30	   H	1.543	1.678	-3.604	 H	1	UNK0	0.000	
31	   H	-0.454	-3.049	-1.571	 H	1	UNK0	0.000	
32	   H	-1.743	1.676	0.306	 H	1	UNK0	0.000	
33	   H	-2.886	1.570	-1.138	 H	1	UNK0	0.000	
34	   H	-0.666	3.281	-0.782	 H	1	UNK0	0.000	
35	   H	-1.693	3.096	-2.257	 H	1	UNK0	0.000	
36	   H	-3.325	0.046	0.495	 H	1	UNK0	0.000	
37	   H	-5.074	-0.975	1.842	 H	1	UNK0	0.000	
38	   H	-5.240	-3.485	2.017	 H	1	UNK0	0.000	
39	   H	-3.632	-4.809	0.820	 H	1	UNK0	0.000	
40	   H	-1.882	-3.812	-0.532	 H	1	UNK0	0.000	
@<TRIPOS>BOND
1 1 2 1
2 2 3 2
3 2 7 1
4 3 4 1
5 4 5 2
6 5 6 1
7 5 8 1
8 6 7 2
9 8 9 2
10 8 10 1
11 10 11 1
12 11 12 2
13 11 18 1
14 12 13 1
15 12 16 1
16 13 14 1
17 14 15 2
18 15 16 1
19 15 19 1
20 16 17 1
21 17 18 1
22 19 20 2
23 19 24 1
24 20 21 1
25 21 22 2
26 22 23 1
27 23 24 2
28 3 25 1
29 4 26 1
30 6 27 1
31 7 28 1
32 10 29 1
33 10 30 1
34 14 31 1
35 17 32 1
36 17 33 1
37 18 34 1
38 18 35 1
39 20 36 1
40 21 37 1
41 22 38 1
42 23 39 1
43 24 40 1
@<TRIPOS>SUBSTRUCTURE
1	UNK0	1	GROUP	1 ****	UNK
