# created with PyMOL 2.3.2
@<TRIPOS>MOLECULE
921
54 59 1                 
SMALL
USER_CHARGES
@<TRIPOS>ATOM
1	   I	0.494	-7.143	-0.391	 I	1	UNK0	0.000	
2	   C	1.473	-5.429	-1.068	C.2	1	UNK0	0.000	
3	   C	0.873	-4.468	-1.839	C.2	1	UNK0	0.000	
4	   C	1.556	-3.334	-2.271	C.2	1	UNK0	0.000	
5	   C	2.895	-3.135	-1.927	C.2	1	UNK0	0.000	
6	   C	3.473	-4.121	-1.150	C.2	1	UNK0	0.000	
7	   C	2.802	-5.250	-0.717	C.2	1	UNK0	0.000	
8	   C	3.660	-1.968	-2.323	C.2	1	UNK0	0.000	
9	   O	4.898	-1.944	-2.022	O.2	1	UNK0	0.000	
10	   C	3.109	-0.828	-3.042	C.3	1	UNK0	0.000	
11	   N	1.899	-0.269	-2.409	N.pl3	1	UNK0	0.000	
12	   C	1.543	-0.410	-1.184	C.2	1	UNK0	0.000	
13	   S	2.161	-1.223	0.325	S.3	1	UNK0	0.000	
14	   C	0.734	-0.714	1.258	C.2	1	UNK0	0.000	
15	   C	-0.083	-0.023	0.510	C.2	1	UNK0	0.000	
16	   N	0.335	0.157	-0.820	N.pl3	1	UNK0	0.000	
17	   C	-0.147	0.810	-2.051	C.3	1	UNK0	0.000	
18	   C	0.979	0.625	-3.039	C.3	1	UNK0	0.000	
19	   C	-1.370	0.491	1.072	C.3	1	UNK0	0.000	
20	   C	-1.537	1.966	1.003	C.3	1	UNK0	0.000	
21	   C	-2.926	2.315	1.516	C.3	1	UNK0	0.000	
22	   C	-4.009	1.596	0.746	C.3	1	UNK0	0.000	
23	   C	-3.844	0.108	0.900	C.3	1	UNK0	0.000	
24	   C	-2.481	-0.233	0.297	C.3	1	UNK0	0.000	
25	   C	-3.841	-0.366	2.314	C.3	1	UNK0	0.000	
26	   C	-2.821	0.459	3.066	C.3	1	UNK0	0.000	
27	   C	-1.467	0.109	2.535	C.3	1	UNK0	0.000	
28	   C	-3.086	1.931	2.975	C.3	1	UNK0	0.000	
29	   H	-0.176	-4.635	-2.102	 H	1	UNK0	0.000	
30	   H	1.045	-2.618	-2.882	 H	1	UNK0	0.000	
31	   H	4.520	-4.028	-0.846	 H	1	UNK0	0.000	
32	   H	3.297	-5.992	-0.112	 H	1	UNK0	0.000	
33	   H	3.853	0.012	-3.128	 H	1	UNK0	0.000	
34	   H	2.904	-1.111	-4.101	 H	1	UNK0	0.000	
35	   H	0.639	-0.978	2.298	 H	1	UNK0	0.000	
36	   H	-0.305	1.914	-1.887	 H	1	UNK0	0.000	
37	   H	-1.015	0.299	-2.487	 H	1	UNK0	0.000	
38	   H	0.618	0.260	-4.023	 H	1	UNK0	0.000	
39	   H	1.518	1.594	-3.259	 H	1	UNK0	0.000	
40	   H	-0.827	2.429	1.740	 H	1	UNK0	0.000	
41	   H	-1.426	2.439	0.033	 H	1	UNK0	0.000	
42	   H	-3.042	3.409	1.368	 H	1	UNK0	0.000	
43	   H	-4.975	1.946	1.107	 H	1	UNK0	0.000	
44	   H	-3.905	1.818	-0.336	 H	1	UNK0	0.000	
45	   H	-4.600	-0.444	0.313	 H	1	UNK0	0.000	
46	   H	-2.281	-1.310	0.266	 H	1	UNK0	0.000	
47	   H	-2.531	0.135	-0.729	 H	1	UNK0	0.000	
48	   H	-4.825	-0.380	2.786	 H	1	UNK0	0.000	
49	   H	-3.465	-1.422	2.318	 H	1	UNK0	0.000	
50	   H	-2.883	0.108	4.137	 H	1	UNK0	0.000	
51	   H	-0.656	0.663	3.058	 H	1	UNK0	0.000	
52	   H	-1.356	-0.990	2.686	 H	1	UNK0	0.000	
53	   H	-2.382	2.456	3.619	 H	1	UNK0	0.000	
54	   H	-4.140	2.139	3.267	 H	1	UNK0	0.000	
@<TRIPOS>BOND
1 1 2 1
2 2 3 2
3 2 7 1
4 3 4 1
5 4 5 2
6 5 6 1
7 5 8 1
8 6 7 2
9 8 9 2
10 8 10 1
11 10 11 1
12 11 12 2
13 11 18 1
14 12 13 1
15 12 16 1
16 13 14 1
17 14 15 2
18 15 16 1
19 15 19 1
20 16 17 1
21 17 18 1
22 19 20 1
23 19 24 1
24 19 27 1
25 20 21 1
26 21 22 1
27 21 28 1
28 22 23 1
29 23 24 1
30 23 25 1
31 25 26 1
32 26 27 1
33 26 28 1
34 3 29 1
35 4 30 1
36 6 31 1
37 7 32 1
38 10 33 1
39 10 34 1
40 14 35 1
41 17 36 1
42 17 37 1
43 18 38 1
44 18 39 1
45 20 40 1
46 20 41 1
47 21 42 1
48 22 43 1
49 22 44 1
50 23 45 1
51 24 46 1
52 24 47 1
53 25 48 1
54 25 49 1
55 26 50 1
56 27 51 1
57 27 52 1
58 28 53 1
59 28 54 1
@<TRIPOS>SUBSTRUCTURE
1	UNK0	1	GROUP	1 ****	UNK
