# created with PyMOL 2.3.2
@<TRIPOS>MOLECULE
922
40 43 1                 
SMALL
USER_CHARGES
@<TRIPOS>ATOM
1	   I	0.305	5.844	4.009	 I	1	UNK0	0.000	
2	   C	0.124	3.723	4.006	C.2	1	UNK0	0.000	
3	   C	1.153	2.936	4.487	C.2	1	UNK0	0.000	
4	   C	1.010	1.565	4.471	C.2	1	UNK0	0.000	
5	   C	-0.138	0.970	3.986	C.2	1	UNK0	0.000	
6	   C	-1.147	1.762	3.515	C.2	1	UNK0	0.000	
7	   C	-1.012	3.126	3.526	C.2	1	UNK0	0.000	
8	   C	-0.257	-0.499	3.973	C.2	1	UNK0	0.000	
9	   O	0.671	-1.219	4.407	O.2	1	UNK0	0.000	
10	   C	-1.477	-1.149	3.442	C.3	1	UNK0	0.000	
11	   N	-1.121	-1.556	2.079	N.pl3	1	UNK0	0.000	
12	   C	-0.212	-2.594	1.673	C.3	1	UNK0	0.000	
13	   C	0.311	-2.005	0.378	C.3	1	UNK0	0.000	
14	   N	-0.733	-1.130	-0.135	N.pl3	1	UNK0	0.000	
15	   C	-1.575	-0.951	0.862	C.2	1	UNK0	0.000	
16	   S	-2.821	-0.006	0.229	S.3	1	UNK0	0.000	
17	   C	-2.216	0.154	-1.358	C.2	1	UNK0	0.000	
18	   C	-1.038	-0.562	-1.304	C.2	1	UNK0	0.000	
19	   C	-0.207	-0.600	-2.544	C.2	1	UNK0	0.000	
20	   C	-0.658	-0.105	-3.744	C.2	1	UNK0	0.000	
21	   C	0.072	-0.050	-4.898	C.2	1	UNK0	0.000	
22	   C	1.360	-0.518	-4.890	C.2	1	UNK0	0.000	
23	   C	1.869	-1.023	-3.729	C.2	1	UNK0	0.000	
24	   C	1.089	-1.064	-2.559	C.2	1	UNK0	0.000	
25	   H	2.061	3.375	4.872	 H	1	UNK0	0.000	
26	   H	1.807	0.923	4.844	 H	1	UNK0	0.000	
27	   H	-2.060	1.360	3.123	 H	1	UNK0	0.000	
28	   H	-1.798	3.792	3.156	 H	1	UNK0	0.000	
29	   H	-1.626	-2.084	4.018	 H	1	UNK0	0.000	
30	   H	-2.391	-0.572	3.499	 H	1	UNK0	0.000	
31	   H	0.598	-2.631	2.408	 H	1	UNK0	0.000	
32	   H	-0.716	-3.572	1.522	 H	1	UNK0	0.000	
33	   H	1.176	-1.384	0.641	 H	1	UNK0	0.000	
34	   H	0.527	-2.839	-0.338	 H	1	UNK0	0.000	
35	   H	-2.675	0.706	-2.204	 H	1	UNK0	0.000	
36	   H	-1.668	0.275	-3.813	 H	1	UNK0	0.000	
37	   H	-0.366	0.364	-5.808	 H	1	UNK0	0.000	
38	   H	1.993	-0.493	-5.785	 H	1	UNK0	0.000	
39	   H	2.881	-1.391	-3.716	 H	1	UNK0	0.000	
40	   H	1.543	-1.446	-1.685	 H	1	UNK0	0.000	
@<TRIPOS>BOND
1 1 2 1
2 2 3 2
3 2 7 1
4 3 4 1
5 4 5 2
6 5 6 1
7 5 8 1
8 6 7 2
9 8 9 2
10 8 10 1
11 10 11 1
12 11 12 1
13 11 15 1
14 12 13 1
15 13 14 1
16 14 15 2
17 14 18 1
18 15 16 1
19 16 17 1
20 17 18 2
21 18 19 1
22 19 20 2
23 19 24 1
24 20 21 1
25 21 22 2
26 22 23 1
27 23 24 2
28 3 25 1
29 4 26 1
30 6 27 1
31 7 28 1
32 10 29 1
33 10 30 1
34 12 31 1
35 12 32 1
36 13 33 1
37 13 34 1
38 17 35 1
39 20 36 1
40 21 37 1
41 22 38 1
42 23 39 1
43 24 40 1
@<TRIPOS>SUBSTRUCTURE
1	UNK0	1	GROUP	1 ****	UNK
