# created with PyMOL 2.3.2
@<TRIPOS>MOLECULE
923
49 52 1                 
SMALL
USER_CHARGES
@<TRIPOS>ATOM
1	   I	5.383	-7.802	-1.317	 I	1	UNK0	0.000	
2	   C	4.849	-6.036	-0.307	C.2	1	UNK0	0.000	
3	   C	4.299	-4.955	-0.946	C.2	1	UNK0	0.000	
4	   C	3.953	-3.792	-0.243	C.2	1	UNK0	0.000	
5	   C	4.152	-3.693	1.106	C.2	1	UNK0	0.000	
6	   C	4.717	-4.832	1.697	C.2	1	UNK0	0.000	
7	   C	5.064	-5.973	1.053	C.2	1	UNK0	0.000	
8	   C	3.841	-2.557	1.944	C.2	1	UNK0	0.000	
9	   O	4.123	-2.721	3.224	O.2	1	UNK0	0.000	
10	   N	3.287	-1.327	1.575	N.pl3	1	UNK0	0.000	
11	   C	3.089	-0.370	2.701	C.3	1	UNK0	0.000	
12	   C	1.607	-0.019	2.647	C.3	1	UNK0	0.000	
13	   N	1.327	0.575	1.362	N.pl3	1	UNK0	0.000	
14	   C	2.400	0.627	0.407	C.3	1	UNK0	0.000	
15	   C	2.892	-0.850	0.300	C.3	1	UNK0	0.000	
16	   C	0.054	1.094	1.026	C.2	1	UNK0	0.000	
17	   N	-0.220	1.683	-0.140	N.2	1	UNK0	0.000	
18	   N	-1.375	2.180	-0.517	N.2	1	UNK0	0.000	
19	   C	-2.419	2.111	0.324	C.2	1	UNK0	0.000	
20	   C	-2.249	1.521	1.562	C.2	1	UNK0	0.000	
21	   C	-1.020	1.011	1.920	C.2	1	UNK0	0.000	
22	   N	-3.646	2.659	-0.111	N.pl3	1	UNK0	0.000	
23	   C	-4.833	2.504	0.678	C.3	1	UNK0	0.000	
24	   C	-6.055	2.495	-0.218	C.3	1	UNK0	0.000	
25	   O	-5.735	2.059	-1.504	O.3	1	UNK0	0.000	
26	   C	-4.891	2.960	-2.151	C.3	1	UNK0	0.000	
27	   C	-3.708	3.382	-1.346	C.3	1	UNK0	0.000	
28	   H	4.123	-4.987	-2.014	 H	1	UNK0	0.000	
29	   H	3.527	-2.984	-0.794	 H	1	UNK0	0.000	
30	   H	4.895	-4.801	2.776	 H	1	UNK0	0.000	
31	   H	5.497	-6.802	1.606	 H	1	UNK0	0.000	
32	   H	3.352	-0.823	3.664	 H	1	UNK0	0.000	
33	   H	3.659	0.522	2.447	 H	1	UNK0	0.000	
34	   H	1.413	0.674	3.480	 H	1	UNK0	0.000	
35	   H	1.052	-0.971	2.784	 H	1	UNK0	0.000	
36	   H	3.226	1.290	0.648	 H	1	UNK0	0.000	
37	   H	1.938	0.868	-0.592	 H	1	UNK0	0.000	
38	   H	3.694	-0.796	-0.469	 H	1	UNK0	0.000	
39	   H	2.050	-1.434	-0.154	 H	1	UNK0	0.000	
40	   H	-3.098	1.473	2.231	 H	1	UNK0	0.000	
41	   H	-0.874	0.544	2.891	 H	1	UNK0	0.000	
42	   H	-4.849	1.558	1.258	 H	1	UNK0	0.000	
43	   H	-4.975	3.324	1.413	 H	1	UNK0	0.000	
44	   H	-6.579	3.495	-0.228	 H	1	UNK0	0.000	
45	   H	-6.775	1.767	0.202	 H	1	UNK0	0.000	
46	   H	-5.472	3.890	-2.431	 H	1	UNK0	0.000	
47	   H	-4.597	2.517	-3.130	 H	1	UNK0	0.000	
48	   H	-2.796	3.167	-1.951	 H	1	UNK0	0.000	
49	   H	-3.699	4.485	-1.200	 H	1	UNK0	0.000	
@<TRIPOS>BOND
1 1 2 1
2 2 3 2
3 2 7 1
4 3 4 1
5 4 5 2
6 5 6 1
7 5 8 1
8 6 7 2
9 8 9 2
10 8 10 1
11 10 11 1
12 10 15 1
13 11 12 1
14 12 13 1
15 13 14 1
16 13 16 1
17 14 15 1
18 16 17 2
19 16 21 1
20 17 18 1
21 18 19 2
22 19 20 1
23 19 22 1
24 20 21 2
25 22 23 1
26 22 27 1
27 23 24 1
28 24 25 1
29 25 26 1
30 26 27 1
31 3 28 1
32 4 29 1
33 6 30 1
34 7 31 1
35 11 32 1
36 11 33 1
37 12 34 1
38 12 35 1
39 14 36 1
40 14 37 1
41 15 38 1
42 15 39 1
43 20 40 1
44 21 41 1
45 23 42 1
46 23 43 1
47 24 44 1
48 24 45 1
49 26 46 1
50 26 47 1
51 27 48 1
52 27 49 1
@<TRIPOS>SUBSTRUCTURE
1	UNK0	1	GROUP	1 ****	UNK
