# created with PyMOL 2.3.2
@<TRIPOS>MOLECULE
924
50 53 1                 
SMALL
USER_CHARGES
@<TRIPOS>ATOM
1	   I	1.199	-7.299	-2.735	 I	1	UNK0	0.000	
2	   C	0.749	-5.319	-3.239	C.2	1	UNK0	0.000	
3	   C	1.553	-4.273	-2.906	C.2	1	UNK0	0.000	
4	   C	1.193	-2.968	-3.274	C.2	1	UNK0	0.000	
5	   C	0.054	-2.676	-3.965	C.2	1	UNK0	0.000	
6	   C	-0.756	-3.773	-4.295	C.2	1	UNK0	0.000	
7	   C	-0.408	-5.053	-3.937	C.2	1	UNK0	0.000	
8	   C	-0.406	-1.382	-4.388	C.2	1	UNK0	0.000	
9	   N	0.140	-0.262	-4.205	N.2	1	UNK0	0.000	
10	   N	1.311	-0.081	-3.547	N.pl3	1	UNK0	0.000	
11	   C	1.289	0.374	-2.173	C.2	1	UNK0	0.000	
12	   N	0.118	0.614	-1.559	N.2	1	UNK0	0.000	
13	   C	0.074	1.036	-0.289	C.2	1	UNK0	0.000	
14	   N	1.252	1.204	0.334	N.2	1	UNK0	0.000	
15	   C	2.446	0.973	-0.248	C.2	1	UNK0	0.000	
16	   N	2.447	0.551	-1.526	N.2	1	UNK0	0.000	
17	   N	3.647	1.175	0.484	N.pl3	1	UNK0	0.000	
18	   C	4.921	0.932	-0.152	C.3	1	UNK0	0.000	
19	   C	5.826	0.369	0.953	C.3	1	UNK0	0.000	
20	   O	6.020	1.366	1.873	O.3	1	UNK0	0.000	
21	   C	4.905	1.827	2.515	C.3	1	UNK0	0.000	
22	   C	3.601	1.613	1.836	C.3	1	UNK0	0.000	
23	   N	-1.158	1.297	0.384	N.pl3	1	UNK0	0.000	
24	   C	-2.440	1.127	-0.230	C.3	1	UNK0	0.000	
25	   C	-3.492	1.676	0.736	C.3	1	UNK0	0.000	
26	   O	-3.154	2.939	1.193	O.3	1	UNK0	0.000	
27	   C	-2.016	2.957	1.961	C.3	1	UNK0	0.000	
28	   C	-1.123	1.759	1.762	C.3	1	UNK0	0.000	
29	   H	2.461	-4.472	-2.359	 H	1	UNK0	0.000	
30	   H	1.881	-2.228	-2.971	 H	1	UNK0	0.000	
31	   H	-1.673	-3.624	-4.840	 H	1	UNK0	0.000	
32	   H	-1.091	-5.846	-4.231	 H	1	UNK0	0.000	
33	   H	-1.372	-1.317	-4.957	 H	1	UNK0	0.000	
34	   H	2.224	-0.245	-4.025	 H	1	UNK0	0.000	
35	   H	5.334	1.877	-0.530	 H	1	UNK0	0.000	
36	   H	4.852	0.151	-0.938	 H	1	UNK0	0.000	
37	   H	5.354	-0.534	1.343	 H	1	UNK0	0.000	
38	   H	6.790	0.143	0.475	 H	1	UNK0	0.000	
39	   H	4.887	1.491	3.595	 H	1	UNK0	0.000	
40	   H	5.037	2.947	2.610	 H	1	UNK0	0.000	
41	   H	2.940	2.528	1.866	 H	1	UNK0	0.000	
42	   H	3.026	0.869	2.465	 H	1	UNK0	0.000	
43	   H	-2.539	1.575	-1.224	 H	1	UNK0	0.000	
44	   H	-2.629	0.026	-0.304	 H	1	UNK0	0.000	
45	   H	-3.602	0.930	1.566	 H	1	UNK0	0.000	
46	   H	-4.473	1.754	0.227	 H	1	UNK0	0.000	
47	   H	-2.239	3.003	3.062	 H	1	UNK0	0.000	
48	   H	-1.425	3.866	1.667	 H	1	UNK0	0.000	
49	   H	-1.461	0.948	2.442	 H	1	UNK0	0.000	
50	   H	-0.089	2.088	2.046	 H	1	UNK0	0.000	
@<TRIPOS>BOND
1 1 2 1
2 2 3 2
3 2 7 1
4 3 4 1
5 4 5 2
6 5 6 1
7 5 8 1
8 6 7 2
9 8 9 2
10 9 10 1
11 10 11 1
12 11 12 2
13 11 16 1
14 12 13 1
15 13 14 2
16 13 23 1
17 14 15 1
18 15 16 2
19 15 17 1
20 17 18 1
21 17 22 1
22 18 19 1
23 19 20 1
24 20 21 1
25 21 22 1
26 23 24 1
27 23 28 1
28 24 25 1
29 25 26 1
30 26 27 1
31 27 28 1
32 3 29 1
33 4 30 1
34 6 31 1
35 7 32 1
36 8 33 1
37 10 34 1
38 18 35 1
39 18 36 1
40 19 37 1
41 19 38 1
42 21 39 1
43 21 40 1
44 22 41 1
45 22 42 1
46 24 43 1
47 24 44 1
48 25 45 1
49 25 46 1
50 27 47 1
51 27 48 1
52 28 49 1
53 28 50 1
@<TRIPOS>SUBSTRUCTURE
1	UNK0	1	GROUP	1 ****	UNK
