# created with PyMOL 2.3.2
@<TRIPOS>MOLECULE
925
50 53 1                 
SMALL
USER_CHARGES
@<TRIPOS>ATOM
1	   I	5.559	4.370	-5.234	 I	1	UNK0	0.000	
2	   C	4.272	3.192	-4.072	C.2	1	UNK0	0.000	
3	   C	3.545	2.165	-4.630	C.2	1	UNK0	0.000	
4	   C	2.703	1.402	-3.847	C.2	1	UNK0	0.000	
5	   C	2.554	1.628	-2.496	C.2	1	UNK0	0.000	
6	   C	3.289	2.658	-1.954	C.2	1	UNK0	0.000	
7	   C	4.139	3.435	-2.725	C.2	1	UNK0	0.000	
8	   C	1.660	0.813	-1.681	C.2	1	UNK0	0.000	
9	   N	0.967	-0.150	-2.162	N.2	1	UNK0	0.000	
10	   N	0.111	-0.932	-1.394	N.pl3	1	UNK0	0.000	
11	   C	-0.218	-0.566	-0.059	C.2	1	UNK0	0.000	
12	   N	-1.258	0.284	0.174	N.2	1	UNK0	0.000	
13	   C	-1.601	0.643	1.421	C.2	1	UNK0	0.000	
14	   N	-0.912	0.162	2.465	N.2	1	UNK0	0.000	
15	   C	0.139	-0.691	2.297	C.2	1	UNK0	0.000	
16	   N	0.437	-1.016	1.021	N.2	1	UNK0	0.000	
17	   N	0.864	-1.197	3.400	N.pl3	1	UNK0	0.000	
18	   C	0.484	-0.827	4.734	C.3	1	UNK0	0.000	
19	   C	0.328	-2.138	5.520	C.3	1	UNK0	0.000	
20	   O	1.569	-2.779	5.494	O.3	1	UNK0	0.000	
21	   C	1.920	-3.187	4.231	C.3	1	UNK0	0.000	
22	   C	1.979	-2.078	3.208	C.3	1	UNK0	0.000	
23	   N	-2.690	1.535	1.611	N.pl3	1	UNK0	0.000	
24	   C	-3.180	1.912	2.916	C.3	1	UNK0	0.000	
25	   C	-4.697	1.741	2.944	C.3	1	UNK0	0.000	
26	   O	-5.307	2.075	1.760	O.3	1	UNK0	0.000	
27	   C	-4.551	2.907	0.968	C.3	1	UNK0	0.000	
28	   C	-3.367	2.121	0.446	C.3	1	UNK0	0.000	
29	   H	3.629	1.950	-5.688	 H	1	UNK0	0.000	
30	   H	2.151	0.608	-4.324	 H	1	UNK0	0.000	
31	   H	3.212	2.882	-0.896	 H	1	UNK0	0.000	
32	   H	4.707	4.237	-2.291	 H	1	UNK0	0.000	
33	   H	1.560	1.012	-0.624	 H	1	UNK0	0.000	
34	   H	-0.306	-1.805	-1.784	 H	1	UNK0	0.000	
35	   H	1.343	-0.284	5.223	 H	1	UNK0	0.000	
36	   H	-0.459	-0.246	4.790	 H	1	UNK0	0.000	
37	   H	-0.468	-2.729	5.022	 H	1	UNK0	0.000	
38	   H	0.098	-1.868	6.548	 H	1	UNK0	0.000	
39	   H	2.954	-3.627	4.321	 H	1	UNK0	0.000	
40	   H	1.263	-4.004	3.872	 H	1	UNK0	0.000	
41	   H	2.956	-1.556	3.214	 H	1	UNK0	0.000	
42	   H	1.865	-2.577	2.200	 H	1	UNK0	0.000	
43	   H	-2.728	1.280	3.715	 H	1	UNK0	0.000	
44	   H	-2.962	2.994	3.052	 H	1	UNK0	0.000	
45	   H	-5.087	2.363	3.776	 H	1	UNK0	0.000	
46	   H	-4.886	0.644	3.116	 H	1	UNK0	0.000	
47	   H	-5.148	3.202	0.078	 H	1	UNK0	0.000	
48	   H	-4.242	3.852	1.462	 H	1	UNK0	0.000	
49	   H	-3.760	1.344	-0.236	 H	1	UNK0	0.000	
50	   H	-2.623	2.784	-0.064	 H	1	UNK0	0.000	
@<TRIPOS>BOND
1 1 2 1
2 2 3 2
3 2 7 1
4 3 4 1
5 4 5 2
6 5 6 1
7 5 8 1
8 6 7 2
9 8 9 2
10 9 10 1
11 10 11 1
12 11 12 2
13 11 16 1
14 12 13 1
15 13 14 2
16 13 23 1
17 14 15 1
18 15 16 2
19 15 17 1
20 17 18 1
21 17 22 1
22 18 19 1
23 19 20 1
24 20 21 1
25 21 22 1
26 23 24 1
27 23 28 1
28 24 25 1
29 25 26 1
30 26 27 1
31 27 28 1
32 3 29 1
33 4 30 1
34 6 31 1
35 7 32 1
36 8 33 1
37 10 34 1
38 18 35 1
39 18 36 1
40 19 37 1
41 19 38 1
42 21 39 1
43 21 40 1
44 22 41 1
45 22 42 1
46 24 43 1
47 24 44 1
48 25 45 1
49 25 46 1
50 27 47 1
51 27 48 1
52 28 49 1
53 28 50 1
@<TRIPOS>SUBSTRUCTURE
1	UNK0	1	GROUP	1 ****	UNK
