# created with PyMOL 2.3.2
@<TRIPOS>MOLECULE
926
40 43 1                 
SMALL
USER_CHARGES
@<TRIPOS>ATOM
1	   I	-5.083	-0.258	-5.409	 I	1	UNK0	0.000	
2	   C	-3.568	-0.239	-3.934	C.2	1	UNK0	0.000	
3	   C	-2.898	-1.381	-3.576	C.2	1	UNK0	0.000	
4	   C	-1.898	-1.370	-2.607	C.2	1	UNK0	0.000	
5	   C	-1.527	-0.221	-1.957	C.2	1	UNK0	0.000	
6	   C	-2.201	0.916	-2.321	C.2	1	UNK0	0.000	
7	   C	-3.207	0.919	-3.292	C.2	1	UNK0	0.000	
8	   C	-0.439	-0.224	-0.931	C.2	1	UNK0	0.000	
9	   C	0.213	-1.332	-0.684	C.2	1	UNK0	0.000	
10	   S	1.426	-1.014	0.566	S.3	1	UNK0	0.000	
11	   C	0.957	0.732	0.757	C.2	1	UNK0	0.000	
12	   N	1.278	1.756	1.453	N.pl3	1	UNK0	0.000	
13	   C	0.465	2.857	1.062	C.3	1	UNK0	0.000	
14	   C	-0.433	2.346	-0.022	C.3	1	UNK0	0.000	
15	   N	-0.066	0.912	-0.173	N.pl3	1	UNK0	0.000	
16	   C	2.349	1.782	2.470	C.3	1	UNK0	0.000	
17	   C	2.901	0.478	2.789	C.2	1	UNK0	0.000	
18	   O	4.097	0.225	2.488	O.2	1	UNK0	0.000	
19	   C	2.119	-0.566	3.458	C.2	1	UNK0	0.000	
20	   C	0.823	-0.374	3.864	C.2	1	UNK0	0.000	
21	   C	0.149	-1.390	4.488	C.2	1	UNK0	0.000	
22	   C	0.700	-2.634	4.745	C.2	1	UNK0	0.000	
23	   C	2.003	-2.831	4.339	C.2	1	UNK0	0.000	
24	   C	2.687	-1.812	3.710	C.2	1	UNK0	0.000	
25	   I	-0.347	-4.184	5.703	 I	1	UNK0	0.000	
26	   H	-3.133	-2.326	-4.041	 H	1	UNK0	0.000	
27	   H	-1.393	-2.307	-2.353	 H	1	UNK0	0.000	
28	   H	-2.002	1.865	-1.896	 H	1	UNK0	0.000	
29	   H	-3.723	1.837	-3.560	 H	1	UNK0	0.000	
30	   H	0.079	-2.321	-1.141	 H	1	UNK0	0.000	
31	   H	-0.148	3.267	1.910	 H	1	UNK0	0.000	
32	   H	1.161	3.666	0.694	 H	1	UNK0	0.000	
33	   H	-1.502	2.464	0.242	 H	1	UNK0	0.000	
34	   H	-0.221	2.927	-0.917	 H	1	UNK0	0.000	
35	   H	1.935	2.315	3.376	 H	1	UNK0	0.000	
36	   H	3.132	2.471	2.089	 H	1	UNK0	0.000	
37	   H	0.323	0.559	3.703	 H	1	UNK0	0.000	
38	   H	-0.894	-1.248	4.819	 H	1	UNK0	0.000	
39	   H	2.449	-3.807	4.535	 H	1	UNK0	0.000	
40	   H	3.706	-1.995	3.402	 H	1	UNK0	0.000	
@<TRIPOS>BOND
1 1 2 1
2 2 3 2
3 2 7 1
4 3 4 1
5 4 5 2
6 5 6 1
7 5 8 1
8 6 7 2
9 8 9 2
10 8 15 1
11 9 10 1
12 10 11 1
13 11 12 2
14 11 15 1
15 12 13 1
16 12 16 1
17 13 14 1
18 14 15 1
19 16 17 1
20 17 18 2
21 17 19 1
22 19 20 2
23 19 24 1
24 20 21 1
25 21 22 2
26 22 23 1
27 22 25 1
28 23 24 2
29 3 26 1
30 4 27 1
31 6 28 1
32 7 29 1
33 9 30 1
34 13 31 1
35 13 32 1
36 14 33 1
37 14 34 1
38 16 35 1
39 16 36 1
40 20 37 1
41 21 38 1
42 23 39 1
43 24 40 1
@<TRIPOS>SUBSTRUCTURE
1	UNK0	1	GROUP	1 ****	UNK
