# created with PyMOL 2.3.2
@<TRIPOS>MOLECULE
931
25 28 1                 
SMALL
USER_CHARGES
@<TRIPOS>ATOM
1	   I	0.316	5.944	2.736	 I	1	UNK0	0.000	
2	   C	0.751	4.217	1.595	C.2	1	UNK0	0.000	
3	   C	2.035	3.853	1.279	C.2	1	UNK0	0.000	
4	   C	2.266	2.723	0.535	C.2	1	UNK0	0.000	
5	   C	1.214	1.910	0.079	C.2	1	UNK0	0.000	
6	   C	-0.049	2.299	0.410	C.2	1	UNK0	0.000	
7	   C	-0.322	3.456	1.173	C.2	1	UNK0	0.000	
8	   N	1.491	0.752	-0.681	N.pl3	1	UNK0	0.000	
9	   C	0.558	-0.121	-1.259	C.2	1	UNK0	0.000	
10	   N	-0.771	-0.016	-1.206	N.2	1	UNK0	0.000	
11	   C	-1.635	-0.868	-1.775	C.2	1	UNK0	0.000	
12	   N	-2.969	-0.974	-1.860	N.2	1	UNK0	0.000	
13	   O	-3.290	-2.043	-2.565	O.3	1	UNK0	0.000	
14	   N	-2.207	-2.635	-2.939	N.2	1	UNK0	0.000	
15	   C	-1.141	-1.954	-2.481	C.2	1	UNK0	0.000	
16	   N	0.190	-2.082	-2.549	N.pl3	1	UNK0	0.000	
17	   N	0.933	-3.015	-3.152	N.2	1	UNK0	0.000	
18	   N	2.211	-2.744	-2.960	N.2	1	UNK0	0.000	
19	   N	2.254	-1.649	-2.241	N.2	1	UNK0	0.000	
20	   C	1.032	-1.224	-1.977	C.2	1	UNK0	0.000	
21	   H	2.848	4.457	1.616	 H	1	UNK0	0.000	
22	   H	3.256	2.392	0.259	 H	1	UNK0	0.000	
23	   H	-0.915	1.750	0.114	 H	1	UNK0	0.000	
24	   H	-1.342	3.728	1.413	 H	1	UNK0	0.000	
25	   H	2.529	0.515	-0.829	 H	1	UNK0	0.000	
@<TRIPOS>BOND
1 1 2 1
2 2 3 2
3 2 7 1
4 3 4 1
5 4 5 2
6 5 6 1
7 5 8 1
8 6 7 2
9 8 9 1
10 9 10 2
11 9 20 1
12 10 11 1
13 11 12 2
14 11 15 1
15 12 13 1
16 13 14 1
17 14 15 2
18 15 16 1
19 16 17 1
20 16 20 1
21 17 18 2
22 18 19 1
23 19 20 2
24 3 21 1
25 4 22 1
26 6 23 1
27 7 24 1
28 8 25 1
@<TRIPOS>SUBSTRUCTURE
1	UNK0	1	GROUP	1 ****	UNK
