# created with PyMOL 2.3.2
@<TRIPOS>MOLECULE
932
40 43 1                 
SMALL
USER_CHARGES
@<TRIPOS>ATOM
1	   I	-6.582	2.277	3.914	 I	1	UNK0	0.000	
2	   C	-4.881	1.593	2.852	C.2	1	UNK0	0.000	
3	   C	-4.327	0.351	3.088	C.2	1	UNK0	0.000	
4	   C	-3.220	-0.091	2.395	C.2	1	UNK0	0.000	
5	   C	-2.624	0.697	1.436	C.2	1	UNK0	0.000	
6	   C	-3.170	1.941	1.191	C.2	1	UNK0	0.000	
7	   C	-4.288	2.393	1.889	C.2	1	UNK0	0.000	
8	   N	-1.498	0.243	0.734	N.pl3	1	UNK0	0.000	
9	   N	-0.308	0.767	0.810	N.pl3	1	UNK0	0.000	
10	   N	0.460	0.052	0.001	N.2	1	UNK0	0.000	
11	   C	-0.247	-0.927	-0.590	C.2	1	UNK0	0.000	
12	   N	-1.496	-0.796	-0.116	N.2	1	UNK0	0.000	
13	   C	0.215	-1.929	-1.545	C.2	1	UNK0	0.000	
14	   C	1.520	-1.991	-1.981	C.2	1	UNK0	0.000	
15	   C	1.977	-2.922	-2.875	C.2	1	UNK0	0.000	
16	   C	1.086	-3.867	-3.384	C.2	1	UNK0	0.000	
17	   C	-0.230	-3.825	-2.961	C.2	1	UNK0	0.000	
18	   C	-0.668	-2.861	-2.045	C.2	1	UNK0	0.000	
19	   C	0.178	1.876	1.573	C.2	1	UNK0	0.000	
20	   C	-0.192	2.091	2.880	C.2	1	UNK0	0.000	
21	   C	0.286	3.173	3.612	C.2	1	UNK0	0.000	
22	   C	1.158	4.075	3.039	C.2	1	UNK0	0.000	
23	   C	1.532	3.864	1.729	C.2	1	UNK0	0.000	
24	   C	1.055	2.789	1.006	C.2	1	UNK0	0.000	
25	   N	1.648	5.185	3.792	N.pl3	1	UNK0	0.000	
26	   O	1.332	5.399	4.962	O.2	1	UNK0	0.000	
27	   O	2.514	6.050	3.167	O.2	1	UNK0	0.000	
28	   H	-4.811	-0.271	3.856	 H	1	UNK0	0.000	
29	   H	-2.793	-1.066	2.588	 H	1	UNK0	0.000	
30	   H	-2.758	2.623	0.450	 H	1	UNK0	0.000	
31	   H	-4.721	3.372	1.699	 H	1	UNK0	0.000	
32	   H	2.217	-1.264	-1.592	 H	1	UNK0	0.000	
33	   H	3.000	-2.985	-3.228	 H	1	UNK0	0.000	
34	   H	1.393	-4.625	-4.094	 H	1	UNK0	0.000	
35	   H	-0.922	-4.558	-3.356	 H	1	UNK0	0.000	
36	   H	-1.682	-2.816	-1.710	 H	1	UNK0	0.000	
37	   H	-0.877	1.370	3.306	 H	1	UNK0	0.000	
38	   H	-0.046	3.278	4.630	 H	1	UNK0	0.000	
39	   H	2.221	4.577	1.274	 H	1	UNK0	0.000	
40	   H	1.379	2.660	-0.034	 H	1	UNK0	0.000	
@<TRIPOS>BOND
1 1 2 1
2 2 3 2
3 2 7 1
4 3 4 1
5 4 5 2
6 5 6 1
7 5 8 1
8 6 7 2
9 8 9 1
10 8 12 2
11 9 10 1
12 9 19 1
13 10 11 2
14 11 12 1
15 11 13 1
16 13 14 2
17 13 18 1
18 14 15 1
19 15 16 2
20 16 17 1
21 17 18 2
22 19 20 2
23 19 24 1
24 20 21 1
25 21 22 2
26 22 23 1
27 22 25 1
28 23 24 2
29 25 26 2
30 25 27 1
31 3 28 1
32 4 29 1
33 6 30 1
34 7 31 1
35 14 32 1
36 15 33 1
37 16 34 1
38 17 35 1
39 18 36 1
40 20 37 1
41 21 38 1
42 23 39 1
43 24 40 1
@<TRIPOS>SUBSTRUCTURE
1	UNK0	1	GROUP	1 ****	UNK
