# created with PyMOL 2.3.2
@<TRIPOS>MOLECULE
933
43 45 1                 
SMALL
USER_CHARGES
@<TRIPOS>ATOM
1	   I	-7.302	0.982	-0.735	 I	1	UNK0	0.000	
2	   C	-5.249	0.551	-0.514	C.2	1	UNK0	0.000	
3	   C	-4.438	0.263	-1.592	C.2	1	UNK0	0.000	
4	   C	-3.088	-0.017	-1.406	C.2	1	UNK0	0.000	
5	   C	-2.514	-0.018	-0.149	C.2	1	UNK0	0.000	
6	   C	-3.329	0.270	0.923	C.2	1	UNK0	0.000	
7	   C	-4.679	0.551	0.747	C.2	1	UNK0	0.000	
8	   N	-1.133	-0.305	0.025	N.pl3	1	UNK0	0.000	
9	   N	-0.196	0.380	0.620	N.pl3	1	UNK0	0.000	
10	   N	0.964	-0.254	0.555	N.2	1	UNK0	0.000	
11	   C	0.773	-1.425	-0.124	C.2	1	UNK0	0.000	
12	   N	-0.538	-1.399	-0.423	N.2	1	UNK0	0.000	
13	   C	1.771	-2.435	-0.431	C.2	1	UNK0	0.000	
14	   C	1.399	-3.553	-1.124	C.2	1	UNK0	0.000	
15	   C	2.317	-4.551	-1.444	C.2	1	UNK0	0.000	
16	   C	3.624	-4.373	-1.035	C.2	1	UNK0	0.000	
17	   C	4.005	-3.246	-0.335	C.2	1	UNK0	0.000	
18	   C	3.064	-2.258	-0.026	C.2	1	UNK0	0.000	
19	   C	-0.352	1.629	1.258	C.2	1	UNK0	0.000	
20	   C	-0.483	1.774	2.624	C.2	1	UNK0	0.000	
21	   C	-0.635	3.004	3.229	C.2	1	UNK0	0.000	
22	   C	-0.662	4.164	2.471	C.2	1	UNK0	0.000	
23	   C	-0.531	4.021	1.106	C.2	1	UNK0	0.000	
24	   C	-0.379	2.795	0.503	C.2	1	UNK0	0.000	
25	   N	-0.818	5.446	3.081	N.pl3	1	UNK0	0.000	
26	   O	-0.836	6.454	2.363	O.2	1	UNK0	0.000	
27	   O	-0.948	5.593	4.428	O.2	1	UNK0	0.000	
28	   O	-2.330	-4.077	3.187	O.3	1	UNK0	0.000	
29	   H	-4.904	0.269	-2.566	 H	1	UNK0	0.000	
30	   H	-2.458	-0.243	-2.273	 H	1	UNK0	0.000	
31	   H	-2.866	0.265	1.889	 H	1	UNK0	0.000	
32	   H	-5.285	0.773	1.627	 H	1	UNK0	0.000	
33	   H	0.368	-3.724	-1.463	 H	1	UNK0	0.000	
34	   H	1.998	-5.415	-1.987	 H	1	UNK0	0.000	
35	   H	4.353	-5.150	-1.281	 H	1	UNK0	0.000	
36	   H	5.014	-3.119	-0.025	 H	1	UNK0	0.000	
37	   H	3.353	-1.383	0.516	 H	1	UNK0	0.000	
38	   H	-0.460	0.847	3.210	 H	1	UNK0	0.000	
39	   H	-0.735	3.068	4.307	 H	1	UNK0	0.000	
40	   H	-0.552	4.937	0.504	 H	1	UNK0	0.000	
41	   H	-0.284	2.790	-0.575	 H	1	UNK0	0.000	
42	   H	-2.562	-3.315	2.582	 H	1	UNK0	0.000	
43	   H	-2.539	-3.763	4.095	 H	1	UNK0	0.000	
@<TRIPOS>BOND
1 1 2 1
2 2 3 2
3 2 7 1
4 3 4 1
5 4 5 2
6 5 6 1
7 5 8 1
8 6 7 2
9 8 9 1
10 8 12 1
11 9 10 2
12 9 19 1
13 10 11 1
14 11 12 2
15 11 13 1
16 13 14 2
17 13 18 1
18 14 15 1
19 15 16 2
20 16 17 1
21 17 18 2
22 19 20 2
23 19 24 1
24 20 21 1
25 21 22 2
26 22 23 1
27 22 25 1
28 23 24 2
29 25 26 2
30 25 27 1
31 3 29 1
32 4 30 1
33 6 31 1
34 7 32 1
35 14 33 1
36 15 34 1
37 16 35 1
38 17 36 1
39 18 37 1
40 20 38 1
41 21 39 1
42 23 40 1
43 24 41 1
44 28 42 1
45 28 43 1
@<TRIPOS>SUBSTRUCTURE
1	UNK0	1	GROUP	1 ****	UNK
