# created with PyMOL 2.3.2
@<TRIPOS>MOLECULE
934
40 43 1                 
SMALL
USER_CHARGES
@<TRIPOS>ATOM
1	   I	1.324	0.128	5.742	 I	1	UNK0	0.000	
2	   C	0.963	-0.164	3.682	C.2	1	UNK0	0.000	
3	   C	-0.322	-0.442	3.264	C.2	1	UNK0	0.000	
4	   C	-0.553	-0.632	1.923	C.2	1	UNK0	0.000	
5	   C	0.444	-0.557	0.965	C.2	1	UNK0	0.000	
6	   C	1.718	-0.278	1.409	C.2	1	UNK0	0.000	
7	   C	1.980	-0.084	2.744	C.2	1	UNK0	0.000	
8	   N	0.126	-0.766	-0.405	N.pl3	1	UNK0	0.000	
9	   N	-0.740	-0.053	-1.105	N.pl3	1	UNK0	0.000	
10	   N	-0.751	-0.559	-2.333	N.2	1	UNK0	0.000	
11	   C	0.103	-1.594	-2.429	C.2	1	UNK0	0.000	
12	   N	0.643	-1.698	-1.188	N.2	1	UNK0	0.000	
13	   C	0.398	-2.427	-3.588	C.2	1	UNK0	0.000	
14	   C	1.307	-3.457	-3.524	C.2	1	UNK0	0.000	
15	   C	1.587	-4.252	-4.633	C.2	1	UNK0	0.000	
16	   C	0.953	-4.021	-5.832	C.2	1	UNK0	0.000	
17	   C	0.044	-2.989	-5.894	C.2	1	UNK0	0.000	
18	   C	-0.235	-2.196	-4.787	C.2	1	UNK0	0.000	
19	   C	-1.538	1.053	-0.686	C.2	1	UNK0	0.000	
20	   C	-1.032	1.988	0.177	C.2	1	UNK0	0.000	
21	   C	-1.770	3.069	0.604	C.2	1	UNK0	0.000	
22	   C	-3.068	3.268	0.183	C.2	1	UNK0	0.000	
23	   C	-3.582	2.311	-0.698	C.2	1	UNK0	0.000	
24	   C	-2.836	1.232	-1.120	C.2	1	UNK0	0.000	
25	   N	-3.859	4.352	0.591	N.pl3	1	UNK0	0.000	
26	   O	-3.398	5.196	1.370	O.2	1	UNK0	0.000	
27	   O	-5.137	4.484	0.132	O.2	1	UNK0	0.000	
28	   H	-1.122	-0.506	3.993	 H	1	UNK0	0.000	
29	   H	-1.575	-0.851	1.604	 H	1	UNK0	0.000	
30	   H	2.513	-0.215	0.682	 H	1	UNK0	0.000	
31	   H	2.977	0.136	3.107	 H	1	UNK0	0.000	
32	   H	1.809	-3.645	-2.584	 H	1	UNK0	0.000	
33	   H	2.309	-5.063	-4.565	 H	1	UNK0	0.000	
34	   H	1.171	-4.646	-6.712	 H	1	UNK0	0.000	
35	   H	-0.454	-2.808	-6.838	 H	1	UNK0	0.000	
36	   H	-0.964	-1.383	-4.867	 H	1	UNK0	0.000	
37	   H	-0.023	1.868	0.528	 H	1	UNK0	0.000	
38	   H	-1.366	3.804	1.285	 H	1	UNK0	0.000	
39	   H	-4.609	2.457	-1.038	 H	1	UNK0	0.000	
40	   H	-3.239	0.486	-1.808	 H	1	UNK0	0.000	
@<TRIPOS>BOND
1 1 2 1
2 2 3 2
3 2 7 1
4 3 4 1
5 4 5 2
6 5 6 1
7 5 8 1
8 6 7 2
9 8 9 1
10 8 12 1
11 9 10 2
12 9 19 1
13 10 11 1
14 11 12 2
15 11 13 1
16 13 14 2
17 13 18 1
18 14 15 1
19 15 16 2
20 16 17 1
21 17 18 2
22 19 20 2
23 19 24 1
24 20 21 1
25 21 22 2
26 22 23 1
27 22 25 1
28 23 24 2
29 25 26 2
30 25 27 1
31 3 28 1
32 4 29 1
33 6 30 1
34 7 31 1
35 14 32 1
36 15 33 1
37 16 34 1
38 17 35 1
39 18 36 1
40 20 37 1
41 21 38 1
42 23 39 1
43 24 40 1
@<TRIPOS>SUBSTRUCTURE
1	UNK0	1	GROUP	1 ****	UNK
