# created with PyMOL 2.3.2
@<TRIPOS>MOLECULE
936
56 59 1                 
SMALL
USER_CHARGES
@<TRIPOS>ATOM
1	   I	-2.079	-6.568	-4.637	 I	1	UNK0	0.000	
2	   C	-2.171	-4.565	-3.960	C.2	1	UNK0	0.000	
3	   C	-3.279	-4.074	-3.312	C.2	1	UNK0	0.000	
4	   C	-3.336	-2.749	-2.863	C.2	1	UNK0	0.000	
5	   C	-2.279	-1.874	-3.053	C.2	1	UNK0	0.000	
6	   C	-1.169	-2.368	-3.704	C.2	1	UNK0	0.000	
7	   C	-1.123	-3.696	-4.149	C.2	1	UNK0	0.000	
8	   N	-2.343	-0.542	-2.595	N.pl3	1	UNK0	0.000	
9	   C	-1.291	0.419	-2.590	C.2	1	UNK0	0.000	
10	   O	-0.350	0.516	-3.404	O.2	1	UNK0	0.000	
11	   C	-1.498	1.327	-1.412	C.3	1	UNK0	0.000	
12	   C	-3.015	1.412	-1.366	C.3	1	UNK0	0.000	
13	   C	-3.464	0.160	-2.027	C.2	1	UNK0	0.000	
14	   O	-4.676	-0.180	-2.050	O.2	1	UNK0	0.000	
15	   N	-1.076	0.643	-0.233	N.3	1	UNK0	0.000	
16	   C	-0.968	1.426	0.952	C.3	1	UNK0	0.000	
17	   C	0.242	1.066	1.789	C.3	1	UNK0	0.000	
18	   C	1.521	1.168	1.011	C.3	1	UNK0	0.000	
19	   C	1.298	0.648	-0.392	C.3	1	UNK0	0.000	
20	   C	0.075	-0.226	-0.424	C.3	1	UNK0	0.000	
21	   N	2.627	0.448	1.589	N.3	1	UNK0	0.000	
22	   C	2.467	-0.965	1.669	C.3	1	UNK0	0.000	
23	   C	3.823	-1.544	2.110	C.3	1	UNK0	0.000	
24	   C	4.184	-1.144	3.503	C.3	1	UNK0	0.000	
25	   C	3.192	-0.086	3.932	C.3	1	UNK0	0.000	
26	   C	3.037	0.980	2.860	C.3	1	UNK0	0.000	
27	   C	1.896	2.599	0.925	C.2	1	UNK0	0.000	
28	   O	3.032	2.974	1.327	O.2	1	UNK0	0.000	
29	   N	1.056	3.620	0.409	N.pl3	1	UNK0	0.000	
30	   H	-4.131	-4.715	-3.139	 H	1	UNK0	0.000	
31	   H	-4.228	-2.393	-2.349	 H	1	UNK0	0.000	
32	   H	-0.328	-1.709	-3.867	 H	1	UNK0	0.000	
33	   H	-0.241	-4.042	-4.652	 H	1	UNK0	0.000	
34	   H	-1.050	2.314	-1.564	 H	1	UNK0	0.000	
35	   H	-3.358	2.309	-1.921	 H	1	UNK0	0.000	
36	   H	-3.324	1.476	-0.300	 H	1	UNK0	0.000	
37	   H	-1.856	1.174	1.584	 H	1	UNK0	0.000	
38	   H	-1.052	2.516	0.770	 H	1	UNK0	0.000	
39	   H	0.256	1.788	2.641	 H	1	UNK0	0.000	
40	   H	0.134	0.071	2.218	 H	1	UNK0	0.000	
41	   H	2.198	0.138	-0.794	 H	1	UNK0	0.000	
42	   H	1.114	1.509	-1.066	 H	1	UNK0	0.000	
43	   H	0.010	-0.968	0.389	 H	1	UNK0	0.000	
44	   H	-0.039	-0.707	-1.419	 H	1	UNK0	0.000	
45	   H	2.313	-1.438	0.670	 H	1	UNK0	0.000	
46	   H	1.713	-1.326	2.379	 H	1	UNK0	0.000	
47	   H	4.570	-1.088	1.410	 H	1	UNK0	0.000	
48	   H	3.859	-2.640	1.936	 H	1	UNK0	0.000	
49	   H	3.996	-2.034	4.164	 H	1	UNK0	0.000	
50	   H	5.230	-0.778	3.588	 H	1	UNK0	0.000	
51	   H	3.562	0.424	4.842	 H	1	UNK0	0.000	
52	   H	2.226	-0.554	4.207	 H	1	UNK0	0.000	
53	   H	2.350	1.744	3.274	 H	1	UNK0	0.000	
54	   H	4.068	1.413	2.721	 H	1	UNK0	0.000	
55	   H	0.928	3.738	-0.630	 H	1	UNK0	0.000	
56	   H	0.545	4.280	1.021	 H	1	UNK0	0.000	
@<TRIPOS>BOND
1 1 2 1
2 2 3 2
3 2 7 1
4 3 4 1
5 4 5 2
6 5 6 1
7 5 8 1
8 6 7 2
9 8 9 1
10 8 13 1
11 9 10 2
12 9 11 1
13 11 12 1
14 11 15 1
15 12 13 1
16 13 14 2
17 15 16 1
18 15 20 1
19 16 17 1
20 17 18 1
21 18 19 1
22 18 21 1
23 18 27 1
24 19 20 1
25 21 22 1
26 21 26 1
27 22 23 1
28 23 24 1
29 24 25 1
30 25 26 1
31 27 28 2
32 27 29 1
33 3 30 1
34 4 31 1
35 6 32 1
36 7 33 1
37 11 34 1
38 12 35 1
39 12 36 1
40 16 37 1
41 16 38 1
42 17 39 1
43 17 40 1
44 19 41 1
45 19 42 1
46 20 43 1
47 20 44 1
48 22 45 1
49 22 46 1
50 23 47 1
51 23 48 1
52 24 49 1
53 24 50 1
54 25 51 1
55 25 52 1
56 26 53 1
57 26 54 1
58 29 55 1
59 29 56 1
@<TRIPOS>SUBSTRUCTURE
1	UNK0	1	GROUP	1 ****	UNK
