# created with PyMOL 2.3.2
@<TRIPOS>MOLECULE
939
30 33 1                 
SMALL
USER_CHARGES
@<TRIPOS>ATOM
1	   I	6.790	-1.498	-1.863	 I	1	UNK0	0.000	
2	   C	4.700	-1.213	-1.696	C.2	1	UNK0	0.000	
3	   C	4.196	0.082	-1.694	C.2	1	UNK0	0.000	
4	   C	2.845	0.334	-1.586	C.2	1	UNK0	0.000	
5	   C	1.956	-0.733	-1.474	C.2	1	UNK0	0.000	
6	   C	2.456	-2.012	-1.475	C.2	1	UNK0	0.000	
7	   C	3.822	-2.267	-1.586	C.2	1	UNK0	0.000	
8	   N	0.558	-0.509	-1.361	N.pl3	1	UNK0	0.000	
9	   C	-0.277	-0.077	-2.406	C.2	1	UNK0	0.000	
10	   O	0.049	0.169	-3.590	O.2	1	UNK0	0.000	
11	   C	-1.633	0.037	-1.856	C.2	1	UNK0	0.000	
12	   C	-1.695	-0.279	-0.600	C.2	1	UNK0	0.000	
13	   N	-2.944	-0.199	0.035	N.pl3	1	UNK0	0.000	
14	   C	-4.020	0.224	-0.775	C.2	1	UNK0	0.000	
15	   N	-5.234	0.366	-0.392	N.2	1	UNK0	0.000	
16	   N	-5.676	0.121	0.895	N.pl3	1	UNK0	0.000	
17	   C	-4.707	-0.316	1.834	C.2	1	UNK0	0.000	
18	   C	-5.066	-0.576	3.103	C.2	1	UNK0	0.000	
19	   C	-3.330	-0.478	1.407	C.2	1	UNK0	0.000	
20	   O	-2.479	-0.869	2.260	O.2	1	UNK0	0.000	
21	   S	-3.289	0.491	-2.375	S.3	1	UNK0	0.000	
22	   C	-0.292	-0.641	-0.235	C.2	1	UNK0	0.000	
23	   O	0.154	-1.018	0.881	O.2	1	UNK0	0.000	
24	   H	4.866	0.940	-1.779	 H	1	UNK0	0.000	
25	   H	2.435	1.333	-1.585	 H	1	UNK0	0.000	
26	   H	1.772	-2.838	-1.390	 H	1	UNK0	0.000	
27	   H	4.182	-3.284	-1.582	 H	1	UNK0	0.000	
28	   H	-6.691	0.245	1.194	 H	1	UNK0	0.000	
29	   H	-4.277	-0.904	3.764	 H	1	UNK0	0.000	
30	   H	-6.095	-0.452	3.413	 H	1	UNK0	0.000	
@<TRIPOS>BOND
1 1 2 1
2 2 3 2
3 2 7 1
4 3 4 1
5 4 5 2
6 5 6 1
7 5 8 1
8 6 7 2
9 8 9 1
10 8 22 1
11 9 10 2
12 9 11 1
13 11 12 2
14 11 21 1
15 12 13 1
16 12 22 1
17 13 14 1
18 13 19 1
19 14 15 2
20 14 21 1
21 15 16 1
22 16 17 1
23 17 18 2
24 17 19 1
25 19 20 2
26 22 23 2
27 3 24 1
28 4 25 1
29 6 26 1
30 7 27 1
31 16 28 1
32 18 29 1
33 18 30 1
@<TRIPOS>SUBSTRUCTURE
1	UNK0	1	GROUP	1 ****	UNK
