# created with PyMOL 2.3.2
@<TRIPOS>MOLECULE
940
44 47 1                 
SMALL
USER_CHARGES
@<TRIPOS>ATOM
1	   I	-0.694	8.024	1.976	 I	1	UNK0	0.000	
2	   C	-0.171	5.995	1.747	C.2	1	UNK0	0.000	
3	   C	-0.972	5.132	1.014	C.2	1	UNK0	0.000	
4	   C	-0.620	3.808	0.875	C.2	1	UNK0	0.000	
5	   C	0.514	3.264	1.434	C.2	1	UNK0	0.000	
6	   C	1.312	4.147	2.171	C.2	1	UNK0	0.000	
7	   C	0.969	5.473	2.316	C.2	1	UNK0	0.000	
8	   N	0.890	1.906	1.295	N.pl3	1	UNK0	0.000	
9	   C	0.100	0.809	1.774	C.2	1	UNK0	0.000	
10	   O	-0.711	0.795	2.721	O.2	1	UNK0	0.000	
11	   C	0.437	-0.330	0.920	C.3	1	UNK0	0.000	
12	   C	-0.279	-0.451	-0.369	C.3	1	UNK0	0.000	
13	   O	0.492	0.327	-1.274	O.3	1	UNK0	0.000	
14	   C	1.718	-0.323	-1.037	C.3	1	UNK0	0.000	
15	   C	1.876	-0.066	0.432	C.3	1	UNK0	0.000	
16	   C	2.065	1.356	0.697	C.2	1	UNK0	0.000	
17	   O	3.090	2.023	0.449	O.2	1	UNK0	0.000	
18	   C	1.301	-1.722	-1.325	C.2	1	UNK0	0.000	
19	   C	0.044	-1.822	-0.915	C.2	1	UNK0	0.000	
20	   C	-1.711	-0.141	-0.436	C.3	1	UNK0	0.000	
21	   O	-2.116	-0.394	-1.801	O.3	1	UNK0	0.000	
22	   C	-2.649	0.597	-2.582	C.2	1	UNK0	0.000	
23	   O	-2.774	1.755	-2.061	O.co2	1	UNK0	0.000	
24	   C	-3.100	0.462	-3.983	C.3	1	UNK0	0.000	
25	   O	-2.443	-0.969	0.428	O.3	1	UNK0	0.000	
26	   C	-3.327	-0.415	1.330	C.2	1	UNK0	0.000	
27	   O	-3.444	0.840	1.334	O.co2	1	UNK0	0.000	
28	   C	-4.130	-1.264	2.282	C.3	1	UNK0	0.000	
29	   H	-1.870	5.537	0.564	 H	1	UNK0	0.000	
30	   H	-1.266	3.144	0.293	 H	1	UNK0	0.000	
31	   H	2.216	3.727	2.620	 H	1	UNK0	0.000	
32	   H	1.589	6.154	2.887	 H	1	UNK0	0.000	
33	   H	0.388	-1.304	1.456	 H	1	UNK0	0.000	
34	   H	2.526	0.045	-1.666	 H	1	UNK0	0.000	
35	   H	2.586	-0.738	0.933	 H	1	UNK0	0.000	
36	   H	1.869	-2.541	-1.779	 H	1	UNK0	0.000	
37	   H	-0.657	-2.642	-0.927	 H	1	UNK0	0.000	
38	   H	-1.914	0.897	-0.215	 H	1	UNK0	0.000	
39	   H	-2.876	-0.511	-4.428	 H	1	UNK0	0.000	
40	   H	-2.652	1.314	-4.574	 H	1	UNK0	0.000	
41	   H	-4.204	0.612	-4.088	 H	1	UNK0	0.000	
42	   H	-4.569	-2.078	1.668	 H	1	UNK0	0.000	
43	   H	-4.933	-0.645	2.727	 H	1	UNK0	0.000	
44	   H	-3.498	-1.692	3.062	 H	1	UNK0	0.000	
@<TRIPOS>BOND
1 1 2 1
2 2 3 2
3 2 7 1
4 3 4 1
5 4 5 2
6 5 6 1
7 5 8 1
8 6 7 2
9 8 9 1
10 8 16 1
11 9 10 2
12 9 11 1
13 11 12 1
14 11 15 1
15 12 13 1
16 12 19 1
17 12 20 1
18 13 14 1
19 14 15 1
20 14 18 1
21 15 16 1
22 16 17 2
23 18 19 2
24 20 21 1
25 20 25 1
26 21 22 1
27 22 23 2
28 22 24 1
29 25 26 1
30 26 27 2
31 26 28 1
32 3 29 1
33 4 30 1
34 6 31 1
35 7 32 1
36 11 33 1
37 14 34 1
38 15 35 1
39 18 36 1
40 19 37 1
41 20 38 1
42 24 39 1
43 24 40 1
44 24 41 1
45 28 42 1
46 28 43 1
47 28 44 1
@<TRIPOS>SUBSTRUCTURE
1	UNK0	1	GROUP	1 ****	UNK
