# created with PyMOL 2.3.2
@<TRIPOS>MOLECULE
941
33 36 1                 
SMALL
USER_CHARGES
@<TRIPOS>ATOM
1	   I	5.917	0.248	-3.406	 I	1	UNK0	0.000	
2	   C	4.022	0.316	-2.475	C.2	1	UNK0	0.000	
3	   C	2.980	-0.486	-2.893	C.2	1	UNK0	0.000	
4	   C	1.736	-0.437	-2.278	C.2	1	UNK0	0.000	
5	   C	1.499	0.418	-1.224	C.2	1	UNK0	0.000	
6	   C	2.545	1.214	-0.815	C.2	1	UNK0	0.000	
7	   C	3.787	1.174	-1.420	C.2	1	UNK0	0.000	
8	   N	0.202	0.448	-0.608	N.pl3	1	UNK0	0.000	
9	   C	-1.068	0.366	-1.240	C.2	1	UNK0	0.000	
10	   O	-1.212	-0.101	-2.421	O.2	1	UNK0	0.000	
11	   C	-2.151	0.879	-0.367	C.3	1	UNK0	0.000	
12	   C	-3.255	-0.114	-0.169	C.3	1	UNK0	0.000	
13	   O	-3.554	0.059	1.207	O.3	1	UNK0	0.000	
14	   C	-2.251	-0.234	1.689	C.3	1	UNK0	0.000	
15	   C	-1.488	0.879	1.008	C.3	1	UNK0	0.000	
16	   C	-0.074	0.567	0.781	C.2	1	UNK0	0.000	
17	   O	0.765	0.426	1.700	O.2	1	UNK0	0.000	
18	   C	-2.022	-1.536	1.026	C.2	1	UNK0	0.000	
19	   C	-2.661	-1.466	-0.137	C.2	1	UNK0	0.000	
20	   C	-4.428	0.049	-1.037	C.3	1	UNK0	0.000	
21	   O	-5.380	-0.924	-0.654	O.3	1	UNK0	0.000	
22	   H	3.143	-1.168	-3.721	 H	1	UNK0	0.000	
23	   H	0.908	-1.070	-2.605	 H	1	UNK0	0.000	
24	   H	2.354	1.889	0.018	 H	1	UNK0	0.000	
25	   H	4.609	1.818	-1.078	 H	1	UNK0	0.000	
26	   H	-2.497	1.884	-0.661	 H	1	UNK0	0.000	
27	   H	-2.189	-0.241	2.766	 H	1	UNK0	0.000	
28	   H	-1.679	1.801	1.561	 H	1	UNK0	0.000	
29	   H	-1.446	-2.348	1.441	 H	1	UNK0	0.000	
30	   H	-2.747	-2.212	-0.911	 H	1	UNK0	0.000	
31	   H	-4.870	1.042	-0.880	 H	1	UNK0	0.000	
32	   H	-4.177	-0.167	-2.075	 H	1	UNK0	0.000	
33	   H	-6.293	-0.548	-0.667	 H	1	UNK0	0.000	
@<TRIPOS>BOND
1 1 2 1
2 2 3 2
3 2 7 1
4 3 4 1
5 4 5 2
6 5 6 1
7 5 8 1
8 6 7 2
9 8 9 1
10 8 16 1
11 9 10 2
12 9 11 1
13 11 12 1
14 11 15 1
15 12 13 1
16 12 19 1
17 12 20 1
18 13 14 1
19 14 15 1
20 14 18 1
21 15 16 1
22 16 17 2
23 18 19 2
24 20 21 1
25 3 22 1
26 4 23 1
27 6 24 1
28 7 25 1
29 11 26 1
30 14 27 1
31 15 28 1
32 18 29 1
33 19 30 1
34 20 31 1
35 20 32 1
36 21 33 1
@<TRIPOS>SUBSTRUCTURE
1	UNK0	1	GROUP	1 ****	UNK
