# created with PyMOL 2.3.2
@<TRIPOS>MOLECULE
946
47 51 1                 
SMALL
USER_CHARGES
@<TRIPOS>ATOM
1	   I	3.156	-7.582	3.641	 I	1	UNK0	0.000	
2	   C	2.667	-5.760	2.682	C.2	1	UNK0	0.000	
3	   C	3.566	-4.727	2.589	C.2	1	UNK0	0.000	
4	   C	3.231	-3.548	1.961	C.2	1	UNK0	0.000	
5	   C	1.986	-3.341	1.395	C.2	1	UNK0	0.000	
6	   C	1.087	-4.381	1.491	C.2	1	UNK0	0.000	
7	   C	1.412	-5.574	2.121	C.2	1	UNK0	0.000	
8	   N	1.705	-2.095	0.760	N.pl3	1	UNK0	0.000	
9	   N	1.261	-1.916	-0.464	N.pl3	1	UNK0	0.000	
10	   C	1.096	-0.602	-0.763	C.2	1	UNK0	0.000	
11	   C	0.671	-0.091	-1.889	C.2	1	UNK0	0.000	
12	   C	1.464	0.101	0.356	C.2	1	UNK0	0.000	
13	   C	1.474	1.412	0.526	C.2	1	UNK0	0.000	
14	   N	1.095	2.360	-0.451	N.pl3	1	UNK0	0.000	
15	   C	-0.149	3.120	-0.354	C.3	1	UNK0	0.000	
16	   C	-0.348	4.012	-1.559	C.3	1	UNK0	0.000	
17	   N	-1.639	4.660	-1.427	N.3	1	UNK0	0.000	
18	   C	-1.658	5.518	-0.255	C.3	1	UNK0	0.000	
19	   N	-1.321	4.768	0.930	N.3	1	UNK0	0.000	
20	   C	-2.399	3.786	1.130	C.3	1	UNK0	0.000	
21	   N	-2.550	2.951	-0.016	N.3	1	UNK0	0.000	
22	   C	-2.693	3.701	-1.264	C.3	1	UNK0	0.000	
23	   C	-1.309	2.174	-0.200	C.3	1	UNK0	0.000	
24	   C	-0.070	4.083	0.831	C.3	1	UNK0	0.000	
25	   C	1.837	-0.868	1.283	C.2	1	UNK0	0.000	
26	   O	2.239	-0.606	2.444	O.2	1	UNK0	0.000	
27	   H	4.544	-4.848	3.016	 H	1	UNK0	0.000	
28	   H	3.949	-2.721	1.887	 H	1	UNK0	0.000	
29	   H	0.112	-4.246	1.059	 H	1	UNK0	0.000	
30	   H	0.715	-6.391	2.200	 H	1	UNK0	0.000	
31	   H	1.043	-2.667	-1.169	 H	1	UNK0	0.000	
32	   H	0.417	-0.812	-2.689	 H	1	UNK0	0.000	
33	   H	0.530	0.908	-2.146	 H	1	UNK0	0.000	
34	   H	1.814	1.733	1.527	 H	1	UNK0	0.000	
35	   H	1.737	2.547	-1.249	 H	1	UNK0	0.000	
36	   H	0.418	4.821	-1.477	 H	1	UNK0	0.000	
37	   H	-0.279	3.480	-2.510	 H	1	UNK0	0.000	
38	   H	-2.714	5.853	-0.136	 H	1	UNK0	0.000	
39	   H	-1.046	6.431	-0.384	 H	1	UNK0	0.000	
40	   H	-2.038	3.139	1.966	 H	1	UNK0	0.000	
41	   H	-3.317	4.262	1.473	 H	1	UNK0	0.000	
42	   H	-2.560	2.937	-2.083	 H	1	UNK0	0.000	
43	   H	-3.684	4.126	-1.401	 H	1	UNK0	0.000	
44	   H	-1.148	1.452	0.598	 H	1	UNK0	0.000	
45	   H	-1.478	1.695	-1.211	 H	1	UNK0	0.000	
46	   H	0.108	3.550	1.783	 H	1	UNK0	0.000	
47	   H	0.724	4.810	0.578	 H	1	UNK0	0.000	
@<TRIPOS>BOND
1 1 2 1
2 2 3 2
3 2 7 1
4 3 4 1
5 4 5 2
6 5 6 1
7 5 8 1
8 6 7 2
9 8 9 1
10 8 25 1
11 9 10 1
12 10 11 2
13 10 12 1
14 12 13 2
15 12 25 1
16 13 14 1
17 14 15 1
18 15 16 1
19 15 23 1
20 15 24 1
21 16 17 1
22 17 18 1
23 17 22 1
24 18 19 1
25 19 20 1
26 19 24 1
27 20 21 1
28 21 22 1
29 21 23 1
30 25 26 2
31 3 27 1
32 4 28 1
33 6 29 1
34 7 30 1
35 9 31 1
36 11 32 1
37 11 33 1
38 13 34 1
39 14 35 1
40 16 36 1
41 16 37 1
42 18 38 1
43 18 39 1
44 20 40 1
45 20 41 1
46 22 42 1
47 22 43 1
48 23 44 1
49 23 45 1
50 24 46 1
51 24 47 1
@<TRIPOS>SUBSTRUCTURE
1	UNK0	1	GROUP	1 ****	UNK
