# created with PyMOL 2.3.2
@<TRIPOS>MOLECULE
947
52 55 1                 
SMALL
USER_CHARGES
@<TRIPOS>ATOM
1	   I	-0.171	-6.573	3.797	 I	1	UNK0	0.000	
2	   C	0.173	-4.494	3.647	C.2	1	UNK0	0.000	
3	   C	0.917	-3.827	4.620	C.2	1	UNK0	0.000	
4	   C	1.113	-2.475	4.482	C.2	1	UNK0	0.000	
5	   C	0.603	-1.764	3.422	C.2	1	UNK0	0.000	
6	   C	-0.129	-2.416	2.464	C.2	1	UNK0	0.000	
7	   C	-0.340	-3.786	2.583	C.2	1	UNK0	0.000	
8	   O	0.816	-0.400	3.306	O.3	1	UNK0	0.000	
9	   C	0.255	0.301	2.176	C.3	1	UNK0	0.000	
10	   C	0.617	1.762	2.248	C.3	1	UNK0	0.000	
11	   O	0.065	2.290	3.416	O.3	1	UNK0	0.000	
12	   C	0.196	2.560	1.031	C.3	1	UNK0	0.000	
13	   N	0.777	2.086	-0.172	N.pl3	1	UNK0	0.000	
14	   C	2.024	2.438	-0.603	C.2	1	UNK0	0.000	
15	   C	2.265	1.796	-1.796	C.2	1	UNK0	0.000	
16	   N	1.171	1.081	-2.053	N.2	1	UNK0	0.000	
17	   C	0.237	1.251	-1.056	C.2	1	UNK0	0.000	
18	   N	-1.036	0.643	-1.152	N.pl3	1	UNK0	0.000	
19	   C	-1.260	-0.452	-2.109	C.3	1	UNK0	0.000	
20	   C	-2.362	-0.106	-3.089	C.3	1	UNK0	0.000	
21	   O	-3.356	0.671	-2.480	O.3	1	UNK0	0.000	
22	   C	-3.385	0.293	-1.150	C.3	1	UNK0	0.000	
23	   C	-2.224	1.014	-0.427	C.3	1	UNK0	0.000	
24	   N	3.403	1.925	-2.493	N.pl3	1	UNK0	0.000	
25	   C	4.393	2.732	-2.014	C.2	1	UNK0	0.000	
26	   O	5.467	2.861	-2.662	O.2	1	UNK0	0.000	
27	   N	4.166	3.361	-0.853	N.pl3	1	UNK0	0.000	
28	   C	3.035	3.250	-0.133	C.2	1	UNK0	0.000	
29	   O	2.875	3.861	0.948	O.2	1	UNK0	0.000	
30	   C	3.665	1.253	-3.749	C.3	1	UNK0	0.000	
31	   H	1.307	-4.411	5.448	 H	1	UNK0	0.000	
32	   H	1.698	-1.982	5.262	 H	1	UNK0	0.000	
33	   H	-0.543	-1.875	1.614	 H	1	UNK0	0.000	
34	   H	-0.928	-4.255	1.796	 H	1	UNK0	0.000	
35	   H	-0.849	0.145	2.318	 H	1	UNK0	0.000	
36	   H	0.542	-0.168	1.223	 H	1	UNK0	0.000	
37	   H	1.740	1.806	2.365	 H	1	UNK0	0.000	
38	   H	0.108	3.285	3.368	 H	1	UNK0	0.000	
39	   H	0.565	3.619	1.207	 H	1	UNK0	0.000	
40	   H	-0.885	2.636	1.079	 H	1	UNK0	0.000	
41	   H	-1.447	-1.413	-1.582	 H	1	UNK0	0.000	
42	   H	-0.333	-0.578	-2.718	 H	1	UNK0	0.000	
43	   H	-2.875	-1.026	-3.433	 H	1	UNK0	0.000	
44	   H	-2.004	0.446	-3.966	 H	1	UNK0	0.000	
45	   H	-4.307	0.651	-0.644	 H	1	UNK0	0.000	
46	   H	-3.304	-0.795	-1.024	 H	1	UNK0	0.000	
47	   H	-2.290	0.641	0.596	 H	1	UNK0	0.000	
48	   H	-2.480	2.085	-0.557	 H	1	UNK0	0.000	
49	   H	4.943	3.977	-0.505	 H	1	UNK0	0.000	
50	   H	3.467	2.021	-4.549	 H	1	UNK0	0.000	
51	   H	2.952	0.412	-3.913	 H	1	UNK0	0.000	
52	   H	4.704	0.942	-3.865	 H	1	UNK0	0.000	
@<TRIPOS>BOND
1 1 2 1
2 2 3 2
3 2 7 1
4 3 4 1
5 4 5 2
6 5 6 1
7 5 8 1
8 6 7 2
9 8 9 1
10 9 10 1
11 10 11 1
12 10 12 1
13 12 13 1
14 13 14 1
15 13 17 1
16 14 15 2
17 14 28 1
18 15 16 1
19 15 24 1
20 16 17 2
21 17 18 1
22 18 19 1
23 18 23 1
24 19 20 1
25 20 21 1
26 21 22 1
27 22 23 1
28 24 25 1
29 24 30 1
30 25 26 2
31 25 27 1
32 27 28 1
33 28 29 2
34 3 31 1
35 4 32 1
36 6 33 1
37 7 34 1
38 9 35 1
39 9 36 1
40 10 37 1
41 11 38 1
42 12 39 1
43 12 40 1
44 19 41 1
45 19 42 1
46 20 43 1
47 20 44 1
48 22 45 1
49 22 46 1
50 23 47 1
51 23 48 1
52 27 49 1
53 30 50 1
54 30 51 1
55 30 52 1
@<TRIPOS>SUBSTRUCTURE
1	UNK0	1	GROUP	1 ****	UNK
