# created with PyMOL 2.3.2
@<TRIPOS>MOLECULE
948
57 60 1                 
SMALL
USER_CHARGES
@<TRIPOS>ATOM
1	   I	1.040	-0.766	-2.881	 I	1	UNK0	0.000	
2	   C	1.280	0.331	-1.094	C.2	1	UNK0	0.000	
3	   C	1.084	1.694	-1.162	C.2	1	UNK0	0.000	
4	   C	1.229	2.450	-0.023	C.2	1	UNK0	0.000	
5	   C	1.566	1.861	1.175	C.2	1	UNK0	0.000	
6	   C	1.752	0.498	1.200	C.2	1	UNK0	0.000	
7	   C	1.615	-0.295	0.075	C.2	1	UNK0	0.000	
8	   S	1.756	2.780	2.625	S.O2	1	UNK0	0.000	
9	   O	2.819	2.191	3.522	O.2	1	UNK0	0.000	
10	   O	2.249	4.161	2.246	O.2	1	UNK0	0.000	
11	   N	0.338	2.966	3.534	N.3	1	UNK0	0.000	
12	   C	-0.247	1.760	4.020	C.3	1	UNK0	0.000	
13	   C	-1.232	1.140	3.083	C.3	1	UNK0	0.000	
14	   N	-1.627	2.013	1.994	N.pl3	1	UNK0	0.000	
15	   C	-1.615	3.454	2.127	C.3	1	UNK0	0.000	
16	   C	-0.573	3.953	3.066	C.3	1	UNK0	0.000	
17	   C	-2.033	1.409	0.773	C.2	1	UNK0	0.000	
18	   N	-2.048	0.067	0.613	N.2	1	UNK0	0.000	
19	   C	-2.428	-0.520	-0.531	C.2	1	UNK0	0.000	
20	   C	-2.812	0.303	-1.567	C.2	1	UNK0	0.000	
21	   C	-2.813	1.683	-1.449	C.2	1	UNK0	0.000	
22	   N	-2.414	2.185	-0.257	N.2	1	UNK0	0.000	
23	   C	-3.235	2.532	-2.592	C.3	1	UNK0	0.000	
24	   N	-2.454	-1.925	-0.730	N.pl3	1	UNK0	0.000	
25	   C	-2.058	-2.839	0.344	C.3	1	UNK0	0.000	
26	   C	-0.881	-3.623	-0.197	C.3	1	UNK0	0.000	
27	   N	-1.346	-4.370	-1.346	N.3	1	UNK0	0.000	
28	   C	-2.671	-4.039	-1.774	C.3	1	UNK0	0.000	
29	   C	-2.859	-2.548	-1.961	C.3	1	UNK0	0.000	
30	   C	-1.188	-5.772	-1.057	C.3	1	UNK0	0.000	
31	   H	0.814	2.175	-2.112	 H	1	UNK0	0.000	
32	   H	1.066	3.523	-0.119	 H	1	UNK0	0.000	
33	   H	2.018	0.001	2.126	 H	1	UNK0	0.000	
34	   H	1.756	-1.361	0.072	 H	1	UNK0	0.000	
35	   H	0.574	1.046	4.239	 H	1	UNK0	0.000	
36	   H	-0.797	2.010	4.959	 H	1	UNK0	0.000	
37	   H	-0.761	0.231	2.620	 H	1	UNK0	0.000	
38	   H	-2.115	0.749	3.635	 H	1	UNK0	0.000	
39	   H	-1.405	3.899	1.112	 H	1	UNK0	0.000	
40	   H	-2.646	3.780	2.378	 H	1	UNK0	0.000	
41	   H	-1.107	4.373	3.969	 H	1	UNK0	0.000	
42	   H	0.026	4.804	2.666	 H	1	UNK0	0.000	
43	   H	-3.132	-0.095	-2.522	 H	1	UNK0	0.000	
44	   H	-2.660	2.312	-3.508	 H	1	UNK0	0.000	
45	   H	-3.272	3.586	-2.318	 H	1	UNK0	0.000	
46	   H	-4.296	2.229	-2.832	 H	1	UNK0	0.000	
47	   H	-1.705	-2.213	1.215	 H	1	UNK0	0.000	
48	   H	-2.889	-3.494	0.661	 H	1	UNK0	0.000	
49	   H	-0.438	-4.285	0.585	 H	1	UNK0	0.000	
50	   H	-0.112	-2.873	-0.513	 H	1	UNK0	0.000	
51	   H	-3.453	-4.425	-1.062	 H	1	UNK0	0.000	
52	   H	-2.869	-4.577	-2.724	 H	1	UNK0	0.000	
53	   H	-2.284	-2.228	-2.836	 H	1	UNK0	0.000	
54	   H	-3.954	-2.383	-2.094	 H	1	UNK0	0.000	
55	   H	-1.313	-6.403	-1.961	 H	1	UNK0	0.000	
56	   H	-1.841	-6.097	-0.220	 H	1	UNK0	0.000	
57	   H	-0.137	-5.902	-0.670	 H	1	UNK0	0.000	
@<TRIPOS>BOND
1 1 2 1
2 2 3 2
3 2 7 1
4 3 4 1
5 4 5 2
6 5 6 1
7 5 8 1
8 6 7 2
9 8 9 2
10 8 10 2
11 8 11 1
12 11 12 1
13 11 16 1
14 12 13 1
15 13 14 1
16 14 15 1
17 14 17 1
18 15 16 1
19 17 18 2
20 17 22 1
21 18 19 1
22 19 20 2
23 19 24 1
24 20 21 1
25 21 22 2
26 21 23 1
27 24 25 1
28 24 29 1
29 25 26 1
30 26 27 1
31 27 28 1
32 27 30 1
33 28 29 1
34 3 31 1
35 4 32 1
36 6 33 1
37 7 34 1
38 12 35 1
39 12 36 1
40 13 37 1
41 13 38 1
42 15 39 1
43 15 40 1
44 16 41 1
45 16 42 1
46 20 43 1
47 23 44 1
48 23 45 1
49 23 46 1
50 25 47 1
51 25 48 1
52 26 49 1
53 26 50 1
54 28 51 1
55 28 52 1
56 29 53 1
57 29 54 1
58 30 55 1
59 30 56 1
60 30 57 1
@<TRIPOS>SUBSTRUCTURE
1	UNK0	1	GROUP	1 ****	UNK
