# created with PyMOL 2.3.2
@<TRIPOS>MOLECULE
949
53 56 1                 
SMALL
USER_CHARGES
@<TRIPOS>ATOM
1	   I	-4.946	6.050	-1.665	 I	1	UNK0	0.000	
2	   C	-4.627	3.979	-1.919	C.2	1	UNK0	0.000	
3	   C	-3.695	3.523	-2.829	C.2	1	UNK0	0.000	
4	   C	-3.474	2.157	-3.011	C.2	1	UNK0	0.000	
5	   C	-4.205	1.246	-2.263	C.2	1	UNK0	0.000	
6	   C	-5.133	1.706	-1.358	C.2	1	UNK0	0.000	
7	   C	-5.358	3.070	-1.172	C.2	1	UNK0	0.000	
8	   S	-3.978	-0.476	-2.445	S.O2	1	UNK0	0.000	
9	   O	-5.266	-1.228	-2.289	O.2	1	UNK0	0.000	
10	   O	-3.490	-0.719	-3.865	O.2	1	UNK0	0.000	
11	   N	-2.767	-1.087	-1.365	N.3	1	UNK0	0.000	
12	   C	-3.158	-0.869	-0.021	C.3	1	UNK0	0.000	
13	   C	-2.115	-1.017	1.017	C.3	1	UNK0	0.000	
14	   N	-0.839	-0.616	0.538	N.pl3	1	UNK0	0.000	
15	   C	-0.759	0.140	-0.663	C.3	1	UNK0	0.000	
16	   C	-1.477	-0.630	-1.741	C.3	1	UNK0	0.000	
17	   C	0.330	-0.957	1.240	C.2	1	UNK0	0.000	
18	   N	1.565	-0.587	0.790	N.2	1	UNK0	0.000	
19	   C	2.700	-0.892	1.434	C.2	1	UNK0	0.000	
20	   C	2.644	-1.623	2.624	C.2	1	UNK0	0.000	
21	   C	1.398	-2.007	3.095	C.2	1	UNK0	0.000	
22	   N	0.325	-1.661	2.392	N.2	1	UNK0	0.000	
23	   C	1.303	-2.794	4.374	C.3	1	UNK0	0.000	
24	   N	3.927	-0.473	0.896	N.pl3	1	UNK0	0.000	
25	   C	5.143	-0.700	1.625	C.3	1	UNK0	0.000	
26	   C	6.158	0.320	1.152	C.3	1	UNK0	0.000	
27	   O	5.561	1.536	0.843	O.3	1	UNK0	0.000	
28	   C	4.752	1.458	-0.286	C.3	1	UNK0	0.000	
29	   C	3.979	0.177	-0.380	C.3	1	UNK0	0.000	
30	   H	-3.111	4.229	-3.426	 H	1	UNK0	0.000	
31	   H	-2.753	1.812	-3.716	 H	1	UNK0	0.000	
32	   H	-5.687	0.976	-0.790	 H	1	UNK0	0.000	
33	   H	-6.094	3.413	-0.452	 H	1	UNK0	0.000	
34	   H	-3.591	0.157	0.042	 H	1	UNK0	0.000	
35	   H	-3.997	-1.564	0.214	 H	1	UNK0	0.000	
36	   H	-2.112	-2.029	1.486	 H	1	UNK0	0.000	
37	   H	-2.382	-0.322	1.866	 H	1	UNK0	0.000	
38	   H	-1.237	1.152	-0.547	 H	1	UNK0	0.000	
39	   H	0.279	0.343	-0.999	 H	1	UNK0	0.000	
40	   H	-0.848	-1.505	-1.999	 H	1	UNK0	0.000	
41	   H	-1.545	0.005	-2.636	 H	1	UNK0	0.000	
42	   H	3.525	-1.892	3.174	 H	1	UNK0	0.000	
43	   H	0.230	-2.791	4.657	 H	1	UNK0	0.000	
44	   H	1.878	-2.297	5.182	 H	1	UNK0	0.000	
45	   H	1.588	-3.843	4.214	 H	1	UNK0	0.000	
46	   H	5.548	-1.714	1.528	 H	1	UNK0	0.000	
47	   H	4.950	-0.523	2.721	 H	1	UNK0	0.000	
48	   H	6.751	-0.081	0.315	 H	1	UNK0	0.000	
49	   H	6.847	0.515	2.011	 H	1	UNK0	0.000	
50	   H	4.023	2.292	-0.221	 H	1	UNK0	0.000	
51	   H	5.348	1.638	-1.207	 H	1	UNK0	0.000	
52	   H	4.510	-0.497	-1.097	 H	1	UNK0	0.000	
53	   H	2.949	0.338	-0.808	 H	1	UNK0	0.000	
@<TRIPOS>BOND
1 1 2 1
2 2 3 2
3 2 7 1
4 3 4 1
5 4 5 2
6 5 6 1
7 5 8 1
8 6 7 2
9 8 9 2
10 8 10 2
11 8 11 1
12 11 12 1
13 11 16 1
14 12 13 1
15 13 14 1
16 14 15 1
17 14 17 1
18 15 16 1
19 17 18 2
20 17 22 1
21 18 19 1
22 19 20 2
23 19 24 1
24 20 21 1
25 21 22 2
26 21 23 1
27 24 25 1
28 24 29 1
29 25 26 1
30 26 27 1
31 27 28 1
32 28 29 1
33 3 30 1
34 4 31 1
35 6 32 1
36 7 33 1
37 12 34 1
38 12 35 1
39 13 36 1
40 13 37 1
41 15 38 1
42 15 39 1
43 16 40 1
44 16 41 1
45 20 42 1
46 23 43 1
47 23 44 1
48 23 45 1
49 25 46 1
50 25 47 1
51 26 48 1
52 26 49 1
53 28 50 1
54 28 51 1
55 29 52 1
56 29 53 1
@<TRIPOS>SUBSTRUCTURE
1	UNK0	1	GROUP	1 ****	UNK
