# created with PyMOL 2.3.2
@<TRIPOS>MOLECULE
951
48 51 1                 
SMALL
USER_CHARGES
@<TRIPOS>ATOM
1	   I	-0.908	-4.219	3.896	 I	1	UNK0	0.000	
2	   C	-0.978	-3.972	1.811	C.2	1	UNK0	0.000	
3	   C	-1.054	-4.931	0.827	C.2	1	UNK0	0.000	
4	   N	-1.076	-4.316	-0.373	N.pl3	1	UNK0	0.000	
5	   N	-1.017	-3.023	-0.152	N.2	1	UNK0	0.000	
6	   C	-0.956	-2.759	1.168	C.2	1	UNK0	0.000	
7	   C	-0.879	-1.430	1.790	C.2	1	UNK0	0.000	
8	   O	-0.827	-1.342	3.037	O.2	1	UNK0	0.000	
9	   N	-0.863	-0.262	1.008	N.pl3	1	UNK0	0.000	
10	   C	-0.790	1.006	1.652	C.2	1	UNK0	0.000	
11	   N	-0.770	2.192	1.036	N.pl3	1	UNK0	0.000	
12	   C	-0.700	3.149	1.958	C.2	1	UNK0	0.000	
13	   C	-0.675	2.527	3.187	C.2	1	UNK0	0.000	
14	   N	-0.732	1.215	2.966	N.2	1	UNK0	0.000	
15	   C	-0.602	3.286	4.359	C.2	1	UNK0	0.000	
16	   C	-0.555	4.653	4.242	C.2	1	UNK0	0.000	
17	   C	-0.581	5.273	2.989	C.2	1	UNK0	0.000	
18	   C	-0.653	4.529	1.837	C.2	1	UNK0	0.000	
19	   C	-0.817	2.422	-0.361	C.3	1	UNK0	0.000	
20	   C	0.401	2.576	-1.145	C.3	1	UNK0	0.000	
21	   N	1.382	1.567	-1.234	N.3	1	UNK0	0.000	
22	   C	2.386	1.982	-2.254	C.3	1	UNK0	0.000	
23	   C	3.550	2.684	-1.642	C.3	1	UNK0	0.000	
24	   O	3.236	3.398	-0.511	O.3	1	UNK0	0.000	
25	   C	2.753	2.585	0.519	C.3	1	UNK0	0.000	
26	   C	2.176	1.311	-0.050	C.3	1	UNK0	0.000	
27	   C	-1.153	-5.032	-1.635	C.3	1	UNK0	0.000	
28	   H	-1.089	-5.983	0.987	 H	1	UNK0	0.000	
29	   H	-0.908	-0.356	-0.037	 H	1	UNK0	0.000	
30	   H	-0.584	2.760	5.316	 H	1	UNK0	0.000	
31	   H	-0.499	5.244	5.153	 H	1	UNK0	0.000	
32	   H	-0.545	6.347	2.914	 H	1	UNK0	0.000	
33	   H	-0.674	4.976	0.873	 H	1	UNK0	0.000	
34	   H	-1.470	1.648	-0.882	 H	1	UNK0	0.000	
35	   H	-1.440	3.366	-0.534	 H	1	UNK0	0.000	
36	   H	0.069	2.770	-2.224	 H	1	UNK0	0.000	
37	   H	0.953	3.540	-0.920	 H	1	UNK0	0.000	
38	   H	1.854	2.634	-2.959	 H	1	UNK0	0.000	
39	   H	2.745	1.077	-2.748	 H	1	UNK0	0.000	
40	   H	3.953	3.443	-2.377	 H	1	UNK0	0.000	
41	   H	4.421	1.984	-1.493	 H	1	UNK0	0.000	
42	   H	3.636	2.379	1.176	 H	1	UNK0	0.000	
43	   H	2.057	3.183	1.112	 H	1	UNK0	0.000	
44	   H	3.090	0.756	-0.461	 H	1	UNK0	0.000	
45	   H	1.764	0.627	0.667	 H	1	UNK0	0.000	
46	   H	-0.110	-5.154	-2.013	 H	1	UNK0	0.000	
47	   H	-1.635	-6.028	-1.472	 H	1	UNK0	0.000	
48	   H	-1.724	-4.456	-2.399	 H	1	UNK0	0.000	
@<TRIPOS>BOND
1 1 2 1
2 2 3 2
3 2 6 1
4 3 4 1
5 4 5 1
6 4 27 1
7 5 6 2
8 6 7 1
9 7 8 2
10 7 9 1
11 9 10 1
12 10 11 1
13 10 14 2
14 11 12 1
15 11 19 1
16 12 13 2
17 12 18 1
18 13 14 1
19 13 15 1
20 15 16 2
21 16 17 1
22 17 18 2
23 19 20 1
24 20 21 1
25 21 22 1
26 21 26 1
27 22 23 1
28 23 24 1
29 24 25 1
30 25 26 1
31 3 28 1
32 9 29 1
33 15 30 1
34 16 31 1
35 17 32 1
36 18 33 1
37 19 34 1
38 19 35 1
39 20 36 1
40 20 37 1
41 22 38 1
42 22 39 1
43 23 40 1
44 23 41 1
45 25 42 1
46 25 43 1
47 26 44 1
48 26 45 1
49 27 46 1
50 27 47 1
51 27 48 1
@<TRIPOS>SUBSTRUCTURE
1	UNK0	1	GROUP	1 ****	UNK
