# created with PyMOL 2.3.2
@<TRIPOS>MOLECULE
952
50 53 1                 
SMALL
USER_CHARGES
@<TRIPOS>ATOM
1	   I	-0.820	-9.483	2.716	 I	1	UNK0	0.000	
2	   C	-0.733	-7.854	1.374	C.2	1	UNK0	0.000	
3	   C	-1.802	-7.259	0.761	C.2	1	UNK0	0.000	
4	   N	-1.357	-6.248	-0.025	N.pl3	1	UNK0	0.000	
5	   N	-0.056	-6.229	0.108	N.2	1	UNK0	0.000	
6	   C	0.386	-7.190	0.950	C.2	1	UNK0	0.000	
7	   C	-2.236	-5.433	-0.822	C.3	1	UNK0	0.000	
8	   C	-2.739	-4.258	-0.070	C.2	1	UNK0	0.000	
9	   N	-3.714	-4.340	0.901	N.2	1	UNK0	0.000	
10	   O	-3.933	-3.144	1.379	O.3	1	UNK0	0.000	
11	   C	-3.157	-2.272	0.778	C.2	1	UNK0	0.000	
12	   N	-2.432	-2.954	-0.104	N.2	1	UNK0	0.000	
13	   C	-3.168	-0.804	1.113	C.2	1	UNK0	0.000	
14	   O	-3.670	-0.596	2.277	O.2	1	UNK0	0.000	
15	   N	-2.696	0.112	0.243	N.pl3	1	UNK0	0.000	
16	   C	-2.225	1.029	-0.625	C.3	1	UNK0	0.000	
17	   C	-0.947	1.710	-0.375	C.2	1	UNK0	0.000	
18	   C	-0.530	2.803	-1.142	C.2	1	UNK0	0.000	
19	   C	0.667	3.433	-0.874	C.2	1	UNK0	0.000	
20	   C	1.501	3.033	0.134	C.2	1	UNK0	0.000	
21	   C	1.095	1.950	0.899	C.2	1	UNK0	0.000	
22	   C	-0.121	1.307	0.632	C.2	1	UNK0	0.000	
23	   C	2.793	3.709	0.433	C.3	1	UNK0	0.000	
24	   N	3.806	3.554	-0.536	N.3	1	UNK0	0.000	
25	   C	4.218	2.243	-0.857	C.3	1	UNK0	0.000	
26	   C	3.939	1.843	-2.285	C.3	1	UNK0	0.000	
27	   O	3.700	2.884	-3.139	O.3	1	UNK0	0.000	
28	   C	4.507	3.952	-2.833	C.3	1	UNK0	0.000	
29	   C	3.979	4.551	-1.515	C.3	1	UNK0	0.000	
30	   H	-2.829	-7.544	0.887	 H	1	UNK0	0.000	
31	   H	1.382	-7.434	1.262	 H	1	UNK0	0.000	
32	   H	-3.074	-6.043	-1.260	 H	1	UNK0	0.000	
33	   H	-1.671	-5.087	-1.743	 H	1	UNK0	0.000	
34	   H	-2.903	1.084	1.218	 H	1	UNK0	0.000	
35	   H	-3.018	1.840	-0.840	 H	1	UNK0	0.000	
36	   H	-2.122	0.572	-1.676	 H	1	UNK0	0.000	
37	   H	-1.213	3.079	-1.923	 H	1	UNK0	0.000	
38	   H	0.972	4.291	-1.490	 H	1	UNK0	0.000	
39	   H	1.750	1.614	1.714	 H	1	UNK0	0.000	
40	   H	-0.379	0.463	1.279	 H	1	UNK0	0.000	
41	   H	3.169	3.315	1.393	 H	1	UNK0	0.000	
42	   H	2.556	4.786	0.633	 H	1	UNK0	0.000	
43	   H	5.293	2.110	-0.598	 H	1	UNK0	0.000	
44	   H	3.677	1.491	-0.214	 H	1	UNK0	0.000	
45	   H	3.055	1.148	-2.345	 H	1	UNK0	0.000	
46	   H	4.791	1.246	-2.664	 H	1	UNK0	0.000	
47	   H	4.464	4.689	-3.636	 H	1	UNK0	0.000	
48	   H	5.576	3.663	-2.662	 H	1	UNK0	0.000	
49	   H	4.815	5.234	-1.173	 H	1	UNK0	0.000	
50	   H	3.141	5.207	-1.741	 H	1	UNK0	0.000	
@<TRIPOS>BOND
1 1 2 1
2 2 3 2
3 2 6 1
4 3 4 1
5 4 5 1
6 4 7 1
7 5 6 2
8 7 8 1
9 8 9 2
10 8 12 1
11 9 10 1
12 10 11 1
13 11 12 2
14 11 13 1
15 13 14 2
16 13 15 1
17 15 16 1
18 16 17 1
19 17 18 2
20 17 22 1
21 18 19 1
22 19 20 2
23 20 21 1
24 20 23 1
25 21 22 2
26 23 24 1
27 24 25 1
28 24 29 1
29 25 26 1
30 26 27 1
31 27 28 1
32 28 29 1
33 3 30 1
34 6 31 1
35 7 32 1
36 7 33 1
37 15 34 1
38 16 35 1
39 16 36 1
40 18 37 1
41 19 38 1
42 21 39 1
43 22 40 1
44 23 41 1
45 23 42 1
46 25 43 1
47 25 44 1
48 26 45 1
49 26 46 1
50 28 47 1
51 28 48 1
52 29 49 1
53 29 50 1
@<TRIPOS>SUBSTRUCTURE
1	UNK0	1	GROUP	1 ****	UNK
