# created with PyMOL 2.3.2
@<TRIPOS>MOLECULE
953
37 40 1                 
SMALL
USER_CHARGES
@<TRIPOS>ATOM
1	   I	3.157	7.603	-1.112	 I	1	UNK0	0.000	
2	   C	1.277	7.243	-0.242	C.2	1	UNK0	0.000	
3	   C	0.935	6.390	0.785	C.2	1	UNK0	0.000	
4	   N	-0.407	6.469	1.017	N.pl3	1	UNK0	0.000	
5	   N	-0.864	7.354	0.147	N.2	1	UNK0	0.000	
6	   C	0.099	7.848	-0.631	C.2	1	UNK0	0.000	
7	   C	-1.131	5.716	2.034	C.3	1	UNK0	0.000	
8	   C	-1.655	4.423	1.563	C.2	1	UNK0	0.000	
9	   N	-2.921	4.167	1.089	N.2	1	UNK0	0.000	
10	   O	-3.043	2.932	0.783	O.3	1	UNK0	0.000	
11	   C	-1.923	2.299	1.018	C.2	1	UNK0	0.000	
12	   N	-1.074	3.213	1.495	N.2	1	UNK0	0.000	
13	   C	-1.667	0.835	0.790	C.2	1	UNK0	0.000	
14	   O	-2.722	0.207	0.403	O.2	1	UNK0	0.000	
15	   N	-0.440	0.282	0.981	N.pl3	1	UNK0	0.000	
16	   C	0.816	-0.287	1.177	C.3	1	UNK0	0.000	
17	   C	1.086	-1.452	0.286	C.2	1	UNK0	0.000	
18	   C	0.432	-1.634	-0.930	C.2	1	UNK0	0.000	
19	   C	0.649	-2.764	-1.697	C.2	1	UNK0	0.000	
20	   C	1.528	-3.739	-1.255	C.2	1	UNK0	0.000	
21	   C	2.188	-3.588	-0.064	C.2	1	UNK0	0.000	
22	   C	1.957	-2.440	0.694	C.2	1	UNK0	0.000	
23	   O	1.557	-4.777	-2.220	O.3	1	UNK0	0.000	
24	   C	0.298	-4.689	-2.918	C.3	1	UNK0	0.000	
25	   O	0.176	-3.252	-2.918	O.3	1	UNK0	0.000	
26	   H	1.609	5.734	1.340	 H	1	UNK0	0.000	
27	   H	0.001	8.578	-1.425	 H	1	UNK0	0.000	
28	   H	-0.548	5.654	2.975	 H	1	UNK0	0.000	
29	   H	-2.038	6.346	2.284	 H	1	UNK0	0.000	
30	   H	-0.952	-0.994	0.880	 H	1	UNK0	0.000	
31	   H	1.004	-0.591	2.237	 H	1	UNK0	0.000	
32	   H	1.658	0.437	0.908	 H	1	UNK0	0.000	
33	   H	-0.257	-0.881	-1.285	 H	1	UNK0	0.000	
34	   H	2.888	-4.360	0.294	 H	1	UNK0	0.000	
35	   H	2.477	-2.290	1.651	 H	1	UNK0	0.000	
36	   H	-0.508	-5.047	-2.238	 H	1	UNK0	0.000	
37	   H	0.313	-5.127	-3.907	 H	1	UNK0	0.000	
@<TRIPOS>BOND
1 1 2 1
2 2 3 2
3 2 6 1
4 3 4 1
5 4 5 1
6 4 7 1
7 5 6 2
8 7 8 1
9 8 9 2
10 8 12 1
11 9 10 1
12 10 11 1
13 11 12 2
14 11 13 1
15 13 14 2
16 13 15 1
17 15 16 1
18 16 17 1
19 17 18 2
20 17 22 1
21 18 19 1
22 19 20 2
23 19 25 1
24 20 21 1
25 20 23 1
26 21 22 2
27 23 24 1
28 24 25 1
29 3 26 1
30 6 27 1
31 7 28 1
32 7 29 1
33 15 30 1
34 16 31 1
35 16 32 1
36 18 33 1
37 21 34 1
38 22 35 1
39 24 36 1
40 24 37 1
@<TRIPOS>SUBSTRUCTURE
1	UNK0	1	GROUP	1 ****	UNK
