# created with PyMOL 2.3.2
@<TRIPOS>MOLECULE
954
54 57 1                 
SMALL
USER_CHARGES
@<TRIPOS>ATOM
1	   I	-0.425	-3.449	-3.713	 I	1	UNK0	0.000	
2	   C	-1.833	-2.538	-2.421	C.2	1	UNK0	0.000	
3	   C	-1.507	-1.364	-1.800	C.2	1	UNK0	0.000	
4	   C	-2.392	-0.734	-0.951	C.2	1	UNK0	0.000	
5	   C	-3.627	-1.321	-0.738	C.2	1	UNK0	0.000	
6	   C	-3.992	-2.508	-1.348	C.2	1	UNK0	0.000	
7	   C	-3.074	-3.111	-2.197	C.2	1	UNK0	0.000	
8	   C	-5.336	-3.094	-1.081	C.3	1	UNK0	0.000	
9	   C	-2.058	0.562	-0.282	C.2	1	UNK0	0.000	
10	   O	-3.037	1.163	0.140	O.2	1	UNK0	0.000	
11	   C	-0.624	0.872	-0.258	C.3	1	UNK0	0.000	
12	   C	-0.215	0.665	-1.732	C.3	1	UNK0	0.000	
13	   O	-0.262	-0.718	-1.976	O.3	1	UNK0	0.000	
14	   C	0.019	-0.256	0.542	C.3	1	UNK0	0.000	
15	   N	1.370	-0.257	0.766	N.3	1	UNK0	0.000	
16	   C	2.380	-0.499	-0.151	C.3	1	UNK0	0.000	
17	   C	2.895	-1.945	-0.119	C.3	1	UNK0	0.000	
18	   O	3.403	-2.203	1.128	O.3	1	UNK0	0.000	
19	   C	3.170	-1.252	2.088	C.3	1	UNK0	0.000	
20	   C	1.768	-0.685	2.078	C.3	1	UNK0	0.000	
21	   C	-0.155	2.185	0.195	C.3	1	UNK0	0.000	
22	   N	-0.325	2.694	1.474	N.3	1	UNK0	0.000	
23	   C	0.455	3.949	1.662	C.3	1	UNK0	0.000	
24	   C	-0.425	5.141	1.908	C.3	1	UNK0	0.000	
25	   O	-1.523	5.249	1.102	O.3	1	UNK0	0.000	
26	   C	-2.311	4.107	1.232	C.3	1	UNK0	0.000	
27	   C	-1.604	3.023	2.007	C.3	1	UNK0	0.000	
28	   H	-4.319	-0.802	-0.057	 H	1	UNK0	0.000	
29	   H	-3.315	-4.041	-2.697	 H	1	UNK0	0.000	
30	   H	-5.449	-4.052	-1.628	 H	1	UNK0	0.000	
31	   H	-6.129	-2.383	-1.350	 H	1	UNK0	0.000	
32	   H	-5.383	-3.289	0.022	 H	1	UNK0	0.000	
33	   H	0.684	1.172	-2.021	 H	1	UNK0	0.000	
34	   H	-1.035	1.156	-2.366	 H	1	UNK0	0.000	
35	   H	-0.496	-0.247	1.575	 H	1	UNK0	0.000	
36	   H	-0.294	-1.269	0.167	 H	1	UNK0	0.000	
37	   H	2.282	-0.161	-1.191	 H	1	UNK0	0.000	
38	   H	3.301	0.084	0.211	 H	1	UNK0	0.000	
39	   H	3.718	-1.977	-0.863	 H	1	UNK0	0.000	
40	   H	2.097	-2.619	-0.438	 H	1	UNK0	0.000	
41	   H	3.936	-0.431	2.080	 H	1	UNK0	0.000	
42	   H	3.295	-1.744	3.084	 H	1	UNK0	0.000	
43	   H	1.082	-1.415	2.507	 H	1	UNK0	0.000	
44	   H	1.827	0.248	2.706	 H	1	UNK0	0.000	
45	   H	0.939	2.316	-0.146	 H	1	UNK0	0.000	
46	   H	-0.655	2.942	-0.524	 H	1	UNK0	0.000	
47	   H	1.076	4.139	0.782	 H	1	UNK0	0.000	
48	   H	1.117	3.847	2.547	 H	1	UNK0	0.000	
49	   H	-0.633	5.333	2.993	 H	1	UNK0	0.000	
50	   H	0.242	6.033	1.646	 H	1	UNK0	0.000	
51	   H	-2.556	3.792	0.207	 H	1	UNK0	0.000	
52	   H	-3.236	4.360	1.752	 H	1	UNK0	0.000	
53	   H	-1.369	3.491	3.045	 H	1	UNK0	0.000	
54	   H	-2.281	2.232	2.278	 H	1	UNK0	0.000	
@<TRIPOS>BOND
1 1 2 1
2 2 3 2
3 2 7 1
4 3 4 1
5 3 13 1
6 4 5 2
7 4 9 1
8 5 6 1
9 6 7 2
10 6 8 1
11 9 10 2
12 9 11 1
13 11 12 1
14 11 14 1
15 11 21 1
16 12 13 1
17 14 15 1
18 15 16 1
19 15 20 1
20 16 17 1
21 17 18 1
22 18 19 1
23 19 20 1
24 21 22 1
25 22 23 1
26 22 27 1
27 23 24 1
28 24 25 1
29 25 26 1
30 26 27 1
31 5 28 1
32 7 29 1
33 8 30 1
34 8 31 1
35 8 32 1
36 12 33 1
37 12 34 1
38 14 35 1
39 14 36 1
40 16 37 1
41 16 38 1
42 17 39 1
43 17 40 1
44 19 41 1
45 19 42 1
46 20 43 1
47 20 44 1
48 21 45 1
49 21 46 1
50 23 47 1
51 23 48 1
52 24 49 1
53 24 50 1
54 26 51 1
55 26 52 1
56 27 53 1
57 27 54 1
@<TRIPOS>SUBSTRUCTURE
1	UNK0	1	GROUP	1 ****	UNK
