# created with PyMOL 2.3.2
@<TRIPOS>MOLECULE
955
53 56 1                 
SMALL
USER_CHARGES
@<TRIPOS>ATOM
1	   I	-1.910	-5.303	-0.502	 I	1	UNK0	0.000	
2	   C	-0.280	-4.052	-0.954	C.2	1	UNK0	0.000	
3	   C	-0.471	-2.699	-1.089	C.2	1	UNK0	0.000	
4	   C	0.608	-1.886	-1.389	C.2	1	UNK0	0.000	
5	   C	1.853	-2.507	-1.538	C.2	1	UNK0	0.000	
6	   C	2.037	-3.858	-1.402	C.2	1	UNK0	0.000	
7	   C	0.955	-4.647	-1.105	C.2	1	UNK0	0.000	
8	   I	3.932	-4.747	-1.634	 I	1	UNK0	0.000	
9	   C	0.410	-0.424	-1.559	C.3	1	UNK0	0.000	
10	   C	-0.615	0.043	-0.541	C.3	1	UNK0	0.000	
11	   C	-1.885	-0.697	-0.925	C.3	1	UNK0	0.000	
12	   O	-1.702	-2.079	-0.941	O.3	1	UNK0	0.000	
13	   C	-0.141	-0.356	0.795	C.3	1	UNK0	0.000	
14	   N	-0.851	-0.008	1.957	N.3	1	UNK0	0.000	
15	   C	-0.020	-0.489	3.091	C.3	1	UNK0	0.000	
16	   C	-0.484	0.049	4.398	C.3	1	UNK0	0.000	
17	   O	-1.872	-0.045	4.479	O.3	1	UNK0	0.000	
18	   C	-2.347	-1.005	3.618	C.3	1	UNK0	0.000	
19	   C	-2.120	-0.627	2.145	C.3	1	UNK0	0.000	
20	   C	-0.931	1.522	-0.635	C.3	1	UNK0	0.000	
21	   N	0.053	2.449	-0.459	N.3	1	UNK0	0.000	
22	   C	1.102	2.698	-1.354	C.3	1	UNK0	0.000	
23	   C	2.409	2.664	-0.551	C.3	1	UNK0	0.000	
24	   O	2.147	2.550	0.819	O.3	1	UNK0	0.000	
25	   C	1.258	3.526	1.268	C.3	1	UNK0	0.000	
26	   C	-0.054	3.510	0.467	C.3	1	UNK0	0.000	
27	   O	-0.020	-0.253	-2.872	O.3	1	UNK0	0.000	
28	   H	2.715	-1.883	-1.772	 H	1	UNK0	0.000	
29	   H	1.087	-5.735	-0.992	 H	1	UNK0	0.000	
30	   H	1.410	0.022	-1.360	 H	1	UNK0	0.000	
31	   H	-2.080	-0.381	-2.018	 H	1	UNK0	0.000	
32	   H	-2.768	-0.364	-0.376	 H	1	UNK0	0.000	
33	   H	0.939	0.016	0.941	 H	1	UNK0	0.000	
34	   H	0.028	-1.479	0.872	 H	1	UNK0	0.000	
35	   H	-0.117	-1.592	3.070	 H	1	UNK0	0.000	
36	   H	1.049	-0.271	2.879	 H	1	UNK0	0.000	
37	   H	-0.099	-0.655	5.193	 H	1	UNK0	0.000	
38	   H	-0.093	1.042	4.666	 H	1	UNK0	0.000	
39	   H	-1.964	-2.027	3.791	 H	1	UNK0	0.000	
40	   H	-3.455	-1.046	3.775	 H	1	UNK0	0.000	
41	   H	-2.977	0.027	1.861	 H	1	UNK0	0.000	
42	   H	-2.233	-1.577	1.604	 H	1	UNK0	0.000	
43	   H	-1.401	1.653	-1.661	 H	1	UNK0	0.000	
44	   H	-1.839	1.677	0.037	 H	1	UNK0	0.000	
45	   H	1.155	2.141	-2.292	 H	1	UNK0	0.000	
46	   H	1.044	3.796	-1.686	 H	1	UNK0	0.000	
47	   H	2.955	1.762	-0.877	 H	1	UNK0	0.000	
48	   H	3.027	3.568	-0.742	 H	1	UNK0	0.000	
49	   H	1.012	3.267	2.319	 H	1	UNK0	0.000	
50	   H	1.770	4.494	1.210	 H	1	UNK0	0.000	
51	   H	-0.055	4.479	-0.109	 H	1	UNK0	0.000	
52	   H	-0.928	3.533	1.105	 H	1	UNK0	0.000	
53	   H	-0.470	0.574	-3.073	 H	1	UNK0	0.000	
@<TRIPOS>BOND
1 1 2 1
2 2 3 2
3 2 7 1
4 3 4 1
5 3 12 1
6 4 5 2
7 4 9 1
8 5 6 1
9 6 7 2
10 6 8 1
11 9 10 1
12 9 27 1
13 10 11 1
14 10 13 1
15 10 20 1
16 11 12 1
17 13 14 1
18 14 15 1
19 14 19 1
20 15 16 1
21 16 17 1
22 17 18 1
23 18 19 1
24 20 21 1
25 21 22 1
26 21 26 1
27 22 23 1
28 23 24 1
29 24 25 1
30 25 26 1
31 5 28 1
32 7 29 1
33 9 30 1
34 11 31 1
35 11 32 1
36 13 33 1
37 13 34 1
38 15 35 1
39 15 36 1
40 16 37 1
41 16 38 1
42 18 39 1
43 18 40 1
44 19 41 1
45 19 42 1
46 20 43 1
47 20 44 1
48 22 45 1
49 22 46 1
50 23 47 1
51 23 48 1
52 25 49 1
53 25 50 1
54 26 51 1
55 26 52 1
56 27 53 1
@<TRIPOS>SUBSTRUCTURE
1	UNK0	1	GROUP	1 ****	UNK
