# created with PyMOL 2.3.2
@<TRIPOS>MOLECULE
962
49 53 1                 
SMALL
USER_CHARGES
@<TRIPOS>ATOM
1	  Br	1.579	-5.498	2.760	Br	1	UNK0	0.000	
2	   C	0.914	-3.867	2.070	C.2	1	UNK0	0.000	
3	   C	-0.414	-3.734	1.780	C.2	1	UNK0	0.000	
4	   C	-0.904	-2.540	1.274	C.2	1	UNK0	0.000	
5	   C	-0.099	-1.451	1.042	C.2	1	UNK0	0.000	
6	   N	-0.852	-0.417	0.544	N.pl3	1	UNK0	0.000	
7	   C	-2.109	-0.898	0.481	C.2	1	UNK0	0.000	
8	   C	-2.169	-2.204	0.925	C.2	1	UNK0	0.000	
9	   C	-0.263	0.834	0.228	C.3	1	UNK0	0.000	
10	   N	-1.157	1.952	0.101	N.4	1	UNK0	0.000	
11	   C	-0.397	3.187	0.326	C.3	1	UNK0	0.000	
12	   C	1.050	3.089	0.017	C.3	1	UNK0	0.000	
13	   C	1.407	2.068	-0.993	C.2	1	UNK0	0.000	
14	   C	0.692	0.862	-0.883	C.2	1	UNK0	0.000	
15	   C	0.978	-0.105	-1.783	C.2	1	UNK0	0.000	
16	   C	1.952	0.119	-2.769	C.2	1	UNK0	0.000	
17	   C	2.632	1.313	-2.845	C.2	1	UNK0	0.000	
18	   C	2.351	2.293	-1.943	C.2	1	UNK0	0.000	
19	   O	3.533	1.238	-3.923	O.3	1	UNK0	0.000	
20	   C	3.135	0.140	-4.739	C.3	1	UNK0	0.000	
21	   O	2.445	-0.667	-3.799	O.3	1	UNK0	0.000	
22	   O	0.338	-1.310	-1.766	O.3	1	UNK0	0.000	
23	   C	-0.841	-1.582	-2.519	C.3	1	UNK0	0.000	
24	   C	-1.652	2.010	-1.266	C.3	1	UNK0	0.000	
25	   C	-2.246	1.965	1.044	C.3	1	UNK0	0.000	
26	   C	1.244	-1.594	1.338	C.2	1	UNK0	0.000	
27	   C	1.741	-2.776	1.841	C.2	1	UNK0	0.000	
28	   H	-1.081	-4.576	1.951	 H	1	UNK0	0.000	
29	   H	-2.947	-0.315	0.120	 H	1	UNK0	0.000	
30	   H	-3.072	-2.806	0.969	 H	1	UNK0	0.000	
31	   H	0.375	1.111	1.144	 H	1	UNK0	0.000	
32	   H	-0.490	3.415	1.413	 H	1	UNK0	0.000	
33	   H	-0.930	3.973	-0.247	 H	1	UNK0	0.000	
34	   H	1.405	4.073	-0.373	 H	1	UNK0	0.000	
35	   H	1.689	2.894	0.920	 H	1	UNK0	0.000	
36	   H	2.891	3.233	-2.009	 H	1	UNK0	0.000	
37	   H	2.474	0.548	-5.516	 H	1	UNK0	0.000	
38	   H	4.043	-0.350	-5.126	 H	1	UNK0	0.000	
39	   H	-1.528	-0.731	-2.352	 H	1	UNK0	0.000	
40	   H	-0.636	-1.785	-3.572	 H	1	UNK0	0.000	
41	   H	-1.315	-2.465	-2.050	 H	1	UNK0	0.000	
42	   H	-2.635	1.538	-1.354	 H	1	UNK0	0.000	
43	   H	-0.973	1.570	-1.999	 H	1	UNK0	0.000	
44	   H	-1.771	3.090	-1.578	 H	1	UNK0	0.000	
45	   H	-2.196	2.913	1.623	 H	1	UNK0	0.000	
46	   H	-2.148	1.166	1.808	 H	1	UNK0	0.000	
47	   H	-3.240	1.999	0.549	 H	1	UNK0	0.000	
48	   H	1.905	-0.761	1.169	 H	1	UNK0	0.000	
49	   H	2.789	-2.895	2.075	 H	1	UNK0	0.000	
@<TRIPOS>BOND
1 1 2 1
2 2 3 2
3 2 27 1
4 3 4 1
5 4 5 2
6 4 8 1
7 5 6 1
8 5 26 1
9 6 7 1
10 6 9 1
11 7 8 2
12 9 10 1
13 9 14 1
14 10 11 1
15 10 24 1
16 10 25 1
17 11 12 1
18 12 13 1
19 13 14 2
20 13 18 1
21 14 15 1
22 15 16 2
23 15 22 1
24 16 17 1
25 16 21 1
26 17 18 2
27 17 19 1
28 19 20 1
29 20 21 1
30 22 23 1
31 26 27 2
32 3 28 1
33 7 29 1
34 8 30 1
35 9 31 1
36 11 32 1
37 11 33 1
38 12 34 1
39 12 35 1
40 18 36 1
41 20 37 1
42 20 38 1
43 23 39 1
44 23 40 1
45 23 41 1
46 24 42 1
47 24 43 1
48 24 44 1
49 25 45 1
50 25 46 1
51 25 47 1
52 26 48 1
53 27 49 1
@<TRIPOS>SUBSTRUCTURE
1	UNK0	1	GROUP	1 ****	UNK
