# created with PyMOL 2.3.2
@<TRIPOS>MOLECULE
963
49 53 1                 
SMALL
USER_CHARGES
@<TRIPOS>ATOM
1	  Br	0.007	2.195	-5.667	Br	1	UNK0	0.000	
2	   C	-0.305	2.384	-3.804	C.2	1	UNK0	0.000	
3	   C	-0.399	1.285	-2.979	C.2	1	UNK0	0.000	
4	   C	-0.624	1.403	-1.634	C.2	1	UNK0	0.000	
5	   C	-0.757	2.668	-1.105	C.2	1	UNK0	0.000	
6	   N	-0.955	2.510	0.192	N.pl3	1	UNK0	0.000	
7	   C	-0.955	1.222	0.500	C.2	1	UNK0	0.000	
8	   C	-0.743	0.425	-0.648	C.2	1	UNK0	0.000	
9	   C	-0.708	-1.001	-0.629	C.3	1	UNK0	0.000	
10	   N	-1.330	-1.758	-1.670	N.4	1	UNK0	0.000	
11	   C	-1.971	-2.936	-1.024	C.3	1	UNK0	0.000	
12	   C	-0.970	-3.770	-0.317	C.3	1	UNK0	0.000	
13	   C	0.319	-3.103	-0.072	C.2	1	UNK0	0.000	
14	   C	0.516	-1.713	-0.238	C.2	1	UNK0	0.000	
15	   C	1.709	-1.164	0.002	C.2	1	UNK0	0.000	
16	   C	2.774	-1.989	0.428	C.2	1	UNK0	0.000	
17	   C	2.605	-3.346	0.597	C.2	1	UNK0	0.000	
18	   C	1.368	-3.898	0.343	C.2	1	UNK0	0.000	
19	   O	3.852	-3.832	1.019	O.3	1	UNK0	0.000	
20	   C	4.638	-2.727	1.470	C.3	1	UNK0	0.000	
21	   O	4.089	-1.630	0.734	O.3	1	UNK0	0.000	
22	   O	1.935	0.189	-0.159	O.3	1	UNK0	0.000	
23	   C	2.499	0.549	-1.436	C.3	1	UNK0	0.000	
24	   C	-0.411	-2.397	-2.591	C.3	1	UNK0	0.000	
25	   C	-2.450	-1.108	-2.310	C.3	1	UNK0	0.000	
26	   C	-0.666	3.801	-1.918	C.2	1	UNK0	0.000	
27	   C	-0.441	3.638	-3.257	C.2	1	UNK0	0.000	
28	   H	-0.282	0.327	-3.388	 H	1	UNK0	0.000	
29	   H	-1.092	3.298	0.864	 H	1	UNK0	0.000	
30	   H	-1.100	0.835	1.523	 H	1	UNK0	0.000	
31	   H	-1.404	-1.269	0.273	 H	1	UNK0	0.000	
32	   H	-2.797	-2.577	-0.372	 H	1	UNK0	0.000	
33	   H	-2.407	-3.505	-1.879	 H	1	UNK0	0.000	
34	   H	-1.419	-4.096	0.666	 H	1	UNK0	0.000	
35	   H	-0.800	-4.746	-0.861	 H	1	UNK0	0.000	
36	   H	1.261	-4.953	0.481	 H	1	UNK0	0.000	
37	   H	5.706	-2.863	1.304	 H	1	UNK0	0.000	
38	   H	4.438	-2.544	2.553	 H	1	UNK0	0.000	
39	   H	3.594	0.311	-1.402	 H	1	UNK0	0.000	
40	   H	2.074	-0.047	-2.260	 H	1	UNK0	0.000	
41	   H	2.371	1.615	-1.631	 H	1	UNK0	0.000	
42	   H	0.572	-1.874	-2.572	 H	1	UNK0	0.000	
43	   H	-0.826	-2.283	-3.633	 H	1	UNK0	0.000	
44	   H	-0.230	-3.452	-2.449	 H	1	UNK0	0.000	
45	   H	-2.680	-0.116	-1.885	 H	1	UNK0	0.000	
46	   H	-2.250	-1.020	-3.418	 H	1	UNK0	0.000	
47	   H	-3.393	-1.684	-2.256	 H	1	UNK0	0.000	
48	   H	-0.776	4.796	-1.463	 H	1	UNK0	0.000	
49	   H	-0.378	4.547	-3.848	 H	1	UNK0	0.000	
@<TRIPOS>BOND
1 1 2 1
2 2 3 2
3 2 27 1
4 3 4 1
5 4 5 2
6 4 8 1
7 5 6 1
8 5 26 1
9 6 7 1
10 7 8 2
11 8 9 1
12 9 10 1
13 9 14 1
14 10 11 1
15 10 24 1
16 10 25 1
17 11 12 1
18 12 13 1
19 13 14 2
20 13 18 1
21 14 15 1
22 15 16 2
23 15 22 1
24 16 17 1
25 16 21 1
26 17 18 2
27 17 19 1
28 19 20 1
29 20 21 1
30 22 23 1
31 26 27 2
32 3 28 1
33 6 29 1
34 7 30 1
35 9 31 1
36 11 32 1
37 11 33 1
38 12 34 1
39 12 35 1
40 18 36 1
41 20 37 1
42 20 38 1
43 23 39 1
44 23 40 1
45 23 41 1
46 24 42 1
47 24 43 1
48 24 44 1
49 25 45 1
50 25 46 1
51 25 47 1
52 26 48 1
53 27 49 1
@<TRIPOS>SUBSTRUCTURE
1	UNK0	1	GROUP	1 ****	UNK
