# created with PyMOL 2.3.2
@<TRIPOS>MOLECULE
964
32 35 1                 
SMALL
USER_CHARGES
@<TRIPOS>ATOM
1	  Br	4.852	3.375	-4.329	Br	1	UNK0	0.000	
2	   C	3.340	2.878	-3.279	C.2	1	UNK0	0.000	
3	   C	3.195	1.575	-2.792	C.2	1	UNK0	0.000	
4	   C	2.125	1.168	-2.032	C.2	1	UNK0	0.000	
5	   C	1.118	2.078	-1.713	C.2	1	UNK0	0.000	
6	   N	0.058	1.717	-0.973	N.2	1	UNK0	0.000	
7	   C	-0.130	0.478	-0.480	C.2	1	UNK0	0.000	
8	   C	0.840	-0.440	-0.775	C.2	1	UNK0	0.000	
9	   C	1.968	-0.103	-1.548	C.2	1	UNK0	0.000	
10	   C	2.945	-1.125	-1.815	C.2	1	UNK0	0.000	
11	   O	3.989	-1.006	-2.471	O.co2	1	UNK0	0.000	
12	   O	2.728	-2.434	-1.284	O.co2	1	UNK0	0.000	
13	   C	-1.311	0.159	0.319	C.2	1	UNK0	0.000	
14	   C	-1.577	-1.072	0.855	C.2	1	UNK0	0.000	
15	   C	-2.709	-1.335	1.608	C.2	1	UNK0	0.000	
16	   C	-3.616	-0.322	1.836	C.2	1	UNK0	0.000	
17	   C	-3.365	0.922	1.304	C.2	1	UNK0	0.000	
18	   C	-2.230	1.161	0.557	C.2	1	UNK0	0.000	
19	   O	-4.656	-0.859	2.618	O.3	1	UNK0	0.000	
20	   C	-4.603	-2.286	2.461	C.3	1	UNK0	0.000	
21	   O	-3.214	-2.455	2.251	O.3	1	UNK0	0.000	
22	   C	1.267	3.363	-2.196	C.2	1	UNK0	0.000	
23	   C	2.340	3.768	-2.958	C.2	1	UNK0	0.000	
24	   H	3.970	0.903	-3.047	 H	1	UNK0	0.000	
25	   H	0.735	-1.445	-0.404	 H	1	UNK0	0.000	
26	   H	-0.891	-1.875	0.694	 H	1	UNK0	0.000	
27	   H	-4.080	1.703	1.489	 H	1	UNK0	0.000	
28	   H	-2.031	2.157	0.133	 H	1	UNK0	0.000	
29	   H	-5.167	-2.578	1.537	 H	1	UNK0	0.000	
30	   H	-4.923	-2.817	3.356	 H	1	UNK0	0.000	
31	   H	0.473	4.062	-1.939	 H	1	UNK0	0.000	
32	   H	2.437	4.793	-3.330	 H	1	UNK0	0.000	
@<TRIPOS>BOND
1 1 2 1
2 2 3 2
3 2 23 1
4 3 4 1
5 4 5 2
6 4 9 1
7 5 6 1
8 5 22 1
9 6 7 2
10 7 8 1
11 7 13 1
12 8 9 2
13 9 10 1
14 10 11 2
15 10 12 1
16 13 14 2
17 13 18 1
18 14 15 1
19 15 16 2
20 15 21 1
21 16 17 1
22 16 19 1
23 17 18 2
24 19 20 1
25 20 21 1
26 22 23 2
27 3 24 1
28 8 25 1
29 14 26 1
30 17 27 1
31 18 28 1
32 20 29 1
33 20 30 1
34 22 31 1
35 23 32 1
@<TRIPOS>SUBSTRUCTURE
1	UNK0	1	GROUP	1 ****	UNK
