# created with PyMOL 2.3.2
@<TRIPOS>MOLECULE
965
35 38 1                 
SMALL
USER_CHARGES
@<TRIPOS>ATOM
1	  Br	0.127	4.196	-1.669	Br	1	UNK0	0.000	
2	   C	0.573	2.803	-0.449	C.2	1	UNK0	0.000	
3	   C	-0.041	1.555	-0.584	C.2	1	UNK0	0.000	
4	   C	0.312	0.572	0.325	C.2	1	UNK0	0.000	
5	   C	1.237	0.824	1.324	C.2	1	UNK0	0.000	
6	   C	1.835	2.076	1.438	C.2	1	UNK0	0.000	
7	   C	1.495	3.067	0.541	C.2	1	UNK0	0.000	
8	   O	2.097	4.318	0.661	O.2	1	UNK0	0.000	
9	  Br	3.107	2.421	2.812	Br	1	UNK0	0.000	
10	   C	-0.253	-0.684	0.254	C.2	1	UNK0	0.000	
11	   C	-1.170	-0.898	-0.754	C.2	1	UNK0	0.000	
12	   C	-1.517	0.168	-1.696	C.2	1	UNK0	0.000	
13	   C	-2.435	-0.057	-2.700	C.2	1	UNK0	0.000	
14	   C	-3.007	-1.307	-2.783	C.2	1	UNK0	0.000	
15	   O	-3.859	-1.546	-3.699	O.2	1	UNK0	0.000	
16	   C	-2.694	-2.326	-1.905	C.2	1	UNK0	0.000	
17	   C	-1.782	-2.143	-0.888	C.2	1	UNK0	0.000	
18	  Br	-3.532	-4.026	-2.091	Br	1	UNK0	0.000	
19	  Br	-2.903	1.310	-3.935	Br	1	UNK0	0.000	
20	   O	-0.918	1.328	-1.536	O.3	1	UNK0	0.000	
21	   C	0.120	-1.717	1.211	C.2	1	UNK0	0.000	
22	   C	-0.643	-1.781	2.371	C.2	1	UNK0	0.000	
23	   C	-0.315	-2.742	3.288	C.2	1	UNK0	0.000	
24	   C	0.718	-3.620	3.097	C.2	1	UNK0	0.000	
25	   C	1.460	-3.543	1.946	C.2	1	UNK0	0.000	
26	   C	1.147	-2.588	1.018	C.2	1	UNK0	0.000	
27	   C	-1.742	-0.889	2.633	C.2	1	UNK0	0.000	
28	   O	-2.038	-0.010	1.790	O.co2	1	UNK0	0.000	
29	   O	-2.462	-1.002	3.804	O.co2	1	UNK0	0.000	
30	   H	1.475	0.031	2.001	 H	1	UNK0	0.000	
31	   H	-1.501	-2.895	-0.179	 H	1	UNK0	0.000	
32	   H	-0.876	-2.839	4.212	 H	1	UNK0	0.000	
33	   H	0.954	-4.374	3.846	 H	1	UNK0	0.000	
34	   H	2.283	-4.254	1.812	 H	1	UNK0	0.000	
35	   H	1.728	-2.525	0.114	 H	1	UNK0	0.000	
@<TRIPOS>BOND
1 1 2 1
2 2 3 2
3 2 7 1
4 3 4 1
5 3 20 1
6 4 5 2
7 4 10 1
8 5 6 1
9 6 7 2
10 6 9 1
11 7 8 1
12 10 11 2
13 10 21 1
14 11 12 1
15 11 17 1
16 12 13 2
17 12 20 1
18 13 14 1
19 13 19 1
20 14 15 2
21 14 16 1
22 16 17 2
23 16 18 1
24 21 22 2
25 21 26 1
26 22 23 1
27 22 27 1
28 23 24 2
29 24 25 1
30 25 26 2
31 27 28 2
32 27 29 1
33 5 30 1
34 17 31 1
35 23 32 1
36 24 33 1
37 25 34 1
38 26 35 1
@<TRIPOS>SUBSTRUCTURE
1	UNK0	1	GROUP	1 ****	UNK
