# created with PyMOL 2.3.2
@<TRIPOS>MOLECULE
966
37 39 1                 
SMALL
USER_CHARGES
@<TRIPOS>ATOM
1	  Na	-2.594	-0.839	0.976	Na	1	UNK0	0.000	
2	   P	4.107	-1.263	-0.233	P.3	1	UNK0	0.000	
3	   O	5.514	-0.705	0.001	O.co2	1	UNK0	0.000	
4	   O	3.149	0.026	-0.718	O.3	1	UNK0	0.000	
5	   C	1.937	0.063	-0.063	C.3	1	UNK0	0.000	
6	   C	1.488	-1.345	0.352	C.3	1	UNK0	0.000	
7	   O	0.151	-1.070	0.680	O.3	1	UNK0	0.000	
8	   C	-0.285	-0.502	-0.540	C.3	1	UNK0	0.000	
9	   C	0.781	0.413	-1.002	C.3	1	UNK0	0.000	
10	   O	1.235	0.077	-2.297	O.3	1	UNK0	0.000	
11	   N	-1.593	0.059	-0.444	N.pl3	1	UNK0	0.000	
12	   C	-1.931	1.295	-0.007	C.2	1	UNK0	0.000	
13	   N	-1.143	2.292	0.439	N.2	1	UNK0	0.000	
14	   C	-1.738	3.435	0.819	C.2	1	UNK0	0.000	
15	   N	-3.082	3.619	0.770	N.2	1	UNK0	0.000	
16	   C	-3.902	2.649	0.331	C.2	1	UNK0	0.000	
17	   C	-3.297	1.466	-0.063	C.2	1	UNK0	0.000	
18	   N	-3.786	0.298	-0.547	N.2	1	UNK0	0.000	
19	   C	-2.754	-0.533	-0.770	C.2	1	UNK0	0.000	
20	  Br	-2.869	-2.329	-1.458	Br	1	UNK0	0.000	
21	   O	-5.279	2.779	0.258	O.3	1	UNK0	0.000	
22	   N	-0.991	4.561	1.309	N.pl3	1	UNK0	0.000	
23	   C	2.304	-1.740	1.528	C.3	1	UNK0	0.000	
24	   O	3.579	-2.030	1.136	O.3	1	UNK0	0.000	
25	   O	4.244	-2.346	-1.534	O.3	1	UNK0	0.000	
26	   H	-3.094	-1.974	-0.416	 H	1	UNK0	0.000	
27	   H	1.942	0.688	0.835	 H	1	UNK0	0.000	
28	   H	1.505	-2.043	-0.488	 H	1	UNK0	0.000	
29	   H	-0.324	-1.371	-1.251	 H	1	UNK0	0.000	
30	   H	0.549	1.470	-1.019	 H	1	UNK0	0.000	
31	   H	0.428	-0.309	-2.750	 H	1	UNK0	0.000	
32	   H	-5.701	2.980	-0.641	 H	1	UNK0	0.000	
33	   H	-1.170	4.990	2.241	 H	1	UNK0	0.000	
34	   H	-0.222	5.003	0.739	 H	1	UNK0	0.000	
35	   H	2.300	-0.896	2.253	 H	1	UNK0	0.000	
36	   H	1.898	-2.622	2.075	 H	1	UNK0	0.000	
37	   H	4.336	-1.820	-2.377	 H	1	UNK0	0.000	
@<TRIPOS>BOND
1 2 3 2
2 2 4 1
3 2 24 1
4 2 25 1
5 4 5 1
6 5 6 1
7 5 9 1
8 6 7 1
9 6 23 1
10 7 8 1
11 8 9 1
12 8 11 1
13 9 10 1
14 11 12 1
15 11 19 1
16 12 13 2
17 12 17 1
18 13 14 1
19 14 15 2
20 14 22 1
21 15 16 1
22 16 17 2
23 16 21 1
24 17 18 1
25 18 19 2
26 19 20 1
27 23 24 1
28 1 26 1
29 5 27 1
30 6 28 1
31 8 29 1
32 9 30 1
33 10 31 1
34 21 32 1
35 22 33 1
36 22 34 1
37 23 35 1
38 23 36 1
39 25 37 1
@<TRIPOS>SUBSTRUCTURE
1	UNK0	1	GROUP	1 ****	UNK
