# created with PyMOL 2.3.2
@<TRIPOS>MOLECULE
970
37 40 1                 
SMALL
USER_CHARGES
@<TRIPOS>ATOM
1	  Br	3.050	3.970	-0.788	Br	1	UNK0	0.000	
2	   C	1.432	3.013	-1.042	C.2	1	UNK0	0.000	
3	   C	1.333	1.743	-0.508	C.2	1	UNK0	0.000	
4	   C	0.164	1.050	-0.687	C.2	1	UNK0	0.000	
5	   C	-0.919	1.597	-1.398	C.2	1	UNK0	0.000	
6	   C	-0.811	2.854	-1.923	C.2	1	UNK0	0.000	
7	   C	0.373	3.546	-1.734	C.2	1	UNK0	0.000	
8	   O	0.453	4.826	-2.281	O.2	1	UNK0	0.000	
9	  Br	-2.249	3.634	-2.891	Br	1	UNK0	0.000	
10	   C	-0.095	-0.274	-0.101	C.3	1	UNK0	0.000	
11	   C	1.086	-0.845	0.538	C.2	1	UNK0	0.000	
12	   C	2.233	-0.113	0.691	C.2	1	UNK0	0.000	
13	   C	3.347	-0.629	1.370	C.2	1	UNK0	0.000	
14	   C	3.282	-1.899	1.890	C.2	1	UNK0	0.000	
15	   C	2.143	-2.665	1.752	C.2	1	UNK0	0.000	
16	   C	1.077	-2.132	1.087	C.2	1	UNK0	0.000	
17	  Br	2.052	-4.443	2.477	Br	1	UNK0	0.000	
18	   O	4.367	-2.454	2.574	O.3	1	UNK0	0.000	
19	  Br	4.930	0.415	1.571	Br	1	UNK0	0.000	
20	   O	2.382	1.163	0.189	O.3	1	UNK0	0.000	
21	   C	-0.992	-1.165	-0.821	C.2	1	UNK0	0.000	
22	   C	-0.712	-1.772	-2.010	C.2	1	UNK0	0.000	
23	   C	-1.651	-2.625	-2.640	C.2	1	UNK0	0.000	
24	   C	-2.874	-2.885	-2.099	C.2	1	UNK0	0.000	
25	   C	-3.166	-2.279	-0.901	C.2	1	UNK0	0.000	
26	   C	-2.263	-1.449	-0.281	C.2	1	UNK0	0.000	
27	   C	0.560	-1.564	-2.664	C.2	1	UNK0	0.000	
28	   O	1.443	-0.854	-2.208	O.co2	1	UNK0	0.000	
29	   O	0.802	-2.199	-3.877	O.co2	1	UNK0	0.000	
30	   H	-1.842	1.034	-1.534	 H	1	UNK0	0.000	
31	   H	-0.711	0.062	0.867	 H	1	UNK0	0.000	
32	   H	0.159	-2.693	0.951	 H	1	UNK0	0.000	
33	   H	5.190	-1.887	2.667	 H	1	UNK0	0.000	
34	   H	-1.378	-3.079	-3.580	 H	1	UNK0	0.000	
35	   H	-3.612	-3.537	-2.566	 H	1	UNK0	0.000	
36	   H	-4.140	-2.484	-0.468	 H	1	UNK0	0.000	
37	   H	-2.520	-0.979	0.674	 H	1	UNK0	0.000	
@<TRIPOS>BOND
1 1 2 1
2 2 3 2
3 2 7 1
4 3 4 1
5 3 20 1
6 4 5 2
7 4 10 1
8 5 6 1
9 6 7 2
10 6 9 1
11 7 8 1
12 10 11 1
13 10 21 1
14 11 12 2
15 11 16 1
16 12 13 1
17 12 20 1
18 13 14 2
19 13 19 1
20 14 15 1
21 14 18 1
22 15 16 2
23 15 17 1
24 21 22 2
25 21 26 1
26 22 23 1
27 22 27 1
28 23 24 2
29 24 25 1
30 25 26 2
31 27 28 2
32 27 29 1
33 5 30 1
34 10 31 1
35 16 32 1
36 18 33 1
37 23 34 1
38 24 35 1
39 25 36 1
40 26 37 1
@<TRIPOS>SUBSTRUCTURE
1	UNK0	1	GROUP	1 ****	UNK
