# created with PyMOL 2.3.2
@<TRIPOS>MOLECULE
976
35 38 1                 
SMALL
USER_CHARGES
@<TRIPOS>ATOM
1	   I	-0.695	1.227	-5.702	 I	1	UNK0	0.000	
2	   C	-0.184	1.788	-3.753	C.2	1	UNK0	0.000	
3	   C	-0.582	1.055	-2.641	C.2	1	UNK0	0.000	
4	   C	-0.247	1.425	-1.353	C.2	1	UNK0	0.000	
5	   C	0.515	2.577	-1.212	C.2	1	UNK0	0.000	
6	   C	0.917	3.317	-2.307	C.2	1	UNK0	0.000	
7	   C	0.573	2.929	-3.560	C.2	1	UNK0	0.000	
8	   O	1.006	3.713	-4.641	O.2	1	UNK0	0.000	
9	   I	2.073	5.055	-1.986	 I	1	UNK0	0.000	
10	   C	-0.645	0.692	-0.257	C.2	1	UNK0	0.000	
11	   C	-1.396	-0.433	-0.510	C.2	1	UNK0	0.000	
12	   C	-1.730	-0.790	-1.896	C.2	1	UNK0	0.000	
13	   C	-2.482	-1.916	-2.152	C.2	1	UNK0	0.000	
14	   C	-2.914	-2.695	-1.095	C.2	1	UNK0	0.000	
15	   O	-3.603	-3.727	-1.321	O.2	1	UNK0	0.000	
16	   C	-2.597	-2.353	0.207	C.2	1	UNK0	0.000	
17	   C	-1.850	-1.239	0.489	C.2	1	UNK0	0.000	
18	   I	-3.283	-3.582	1.770	 I	1	UNK0	0.000	
19	   I	-2.951	-2.409	-4.138	 I	1	UNK0	0.000	
20	   O	-1.300	-0.024	-2.854	O.3	1	UNK0	0.000	
21	   C	-0.292	1.083	1.096	C.2	1	UNK0	0.000	
22	   C	0.875	0.640	1.681	C.2	1	UNK0	0.000	
23	   C	1.236	0.996	2.976	C.2	1	UNK0	0.000	
24	   C	0.431	1.813	3.731	C.2	1	UNK0	0.000	
25	   C	-0.739	2.264	3.161	C.2	1	UNK0	0.000	
26	   C	-1.097	1.913	1.878	C.2	1	UNK0	0.000	
27	   C	-2.326	2.384	1.289	C.2	1	UNK0	0.000	
28	   O	-3.335	1.640	1.347	O.co2	1	UNK0	0.000	
29	   O	-2.427	3.611	0.673	O.co2	1	UNK0	0.000	
30	  Cl	-1.757	3.303	4.132	Cl	1	UNK0	0.000	
31	  Cl	1.940	-0.416	0.747	Cl	1	UNK0	0.000	
32	   H	0.800	2.908	-0.245	 H	1	UNK0	0.000	
33	   H	-1.592	-0.956	1.510	 H	1	UNK0	0.000	
34	   H	2.158	0.625	3.393	 H	1	UNK0	0.000	
35	   H	0.742	2.068	4.737	 H	1	UNK0	0.000	
@<TRIPOS>BOND
1 1 2 1
2 2 3 2
3 2 7 1
4 3 4 1
5 3 20 1
6 4 5 2
7 4 10 1
8 5 6 1
9 6 7 2
10 6 9 1
11 7 8 1
12 10 11 2
13 10 21 1
14 11 12 1
15 11 17 1
16 12 13 2
17 12 20 1
18 13 14 1
19 13 19 1
20 14 15 2
21 14 16 1
22 16 17 2
23 16 18 1
24 21 22 2
25 21 26 1
26 22 23 1
27 22 31 1
28 23 24 2
29 24 25 1
30 25 26 2
31 25 30 1
32 26 27 1
33 27 28 2
34 27 29 1
35 5 32 1
36 17 33 1
37 23 34 1
38 24 35 1
@<TRIPOS>SUBSTRUCTURE
1	UNK0	1	GROUP	1 ****	UNK
