# created with PyMOL 2.3.2
@<TRIPOS>MOLECULE
977
35 38 1                 
SMALL
USER_CHARGES
@<TRIPOS>ATOM
1	   I	0.369	-5.600	1.402	 I	1	UNK0	0.000	
2	   C	0.343	-4.073	-0.059	C.2	1	UNK0	0.000	
3	   C	0.170	-2.764	0.336	C.2	1	UNK0	0.000	
4	   C	0.157	-1.788	-0.638	C.2	1	UNK0	0.000	
5	   C	0.317	-2.135	-1.984	C.2	1	UNK0	0.000	
6	   C	0.489	-3.441	-2.379	C.2	1	UNK0	0.000	
7	   C	0.502	-4.413	-1.405	C.2	1	UNK0	0.000	
8	   O	0.677	-5.751	-1.790	O.2	1	UNK0	0.000	
9	   I	0.726	-3.916	-4.417	 I	1	UNK0	0.000	
10	   C	-0.015	-0.470	-0.266	C.2	1	UNK0	0.000	
11	   C	-0.166	-0.214	1.081	C.2	1	UNK0	0.000	
12	   C	-0.145	-1.285	2.082	C.2	1	UNK0	0.000	
13	   C	-0.295	-1.034	3.426	C.2	1	UNK0	0.000	
14	   C	-0.468	0.266	3.833	C.2	1	UNK0	0.000	
15	   O	-0.610	0.534	5.076	O.2	1	UNK0	0.000	
16	   C	-0.493	1.304	2.920	C.2	1	UNK0	0.000	
17	   C	-0.345	1.062	1.574	C.2	1	UNK0	0.000	
18	   I	-0.765	3.263	3.642	 I	1	UNK0	0.000	
19	   I	-0.263	-2.578	4.845	 I	1	UNK0	0.000	
20	   O	0.026	-2.513	1.621	O.3	1	UNK0	0.000	
21	   C	-0.039	0.611	-1.243	C.2	1	UNK0	0.000	
22	   C	-1.235	1.009	-1.824	C.2	1	UNK0	0.000	
23	   C	-1.216	2.036	-2.744	C.2	1	UNK0	0.000	
24	   C	-0.046	2.678	-3.104	C.2	1	UNK0	0.000	
25	   C	1.135	2.278	-2.525	C.2	1	UNK0	0.000	
26	   C	1.136	1.241	-1.592	C.2	1	UNK0	0.000	
27	   C	-2.502	0.366	-1.481	C.2	1	UNK0	0.000	
28	   O	-2.582	-0.571	-0.653	O.co2	1	UNK0	0.000	
29	   O	-3.675	0.794	-2.084	O.co2	1	UNK0	0.000	
30	   H	0.301	-1.344	-2.723	 H	1	UNK0	0.000	
31	   H	-0.361	1.867	0.833	 H	1	UNK0	0.000	
32	   H	-2.153	2.342	-3.194	 H	1	UNK0	0.000	
33	   H	-0.111	3.478	-3.837	 H	1	UNK0	0.000	
34	   H	2.036	2.786	-2.815	 H	1	UNK0	0.000	
35	   H	2.092	0.976	-1.176	 H	1	UNK0	0.000	
@<TRIPOS>BOND
1 1 2 1
2 2 3 2
3 2 7 1
4 3 4 1
5 3 20 1
6 4 5 2
7 4 10 1
8 5 6 1
9 6 7 2
10 6 9 1
11 7 8 1
12 10 11 2
13 10 21 1
14 11 12 1
15 11 17 1
16 12 13 2
17 12 20 1
18 13 14 1
19 13 19 1
20 14 15 2
21 14 16 1
22 16 17 2
23 16 18 1
24 21 22 2
25 21 26 1
26 22 23 1
27 22 27 1
28 23 24 2
29 24 25 1
30 25 26 2
31 27 28 2
32 27 29 1
33 5 30 1
34 17 31 1
35 23 32 1
36 24 33 1
37 25 34 1
38 26 35 1
@<TRIPOS>SUBSTRUCTURE
1	UNK0	1	GROUP	1 ****	UNK
