# created with PyMOL 2.3.2
@<TRIPOS>MOLECULE
978
35 39 1                 
SMALL
USER_CHARGES
@<TRIPOS>ATOM
1	   I	1.962	3.625	2.500	 I	1	UNK0	0.000	
2	   C	1.775	3.018	0.486	C.2	1	UNK0	0.000	
3	   C	1.296	1.733	0.252	C.2	1	UNK0	0.000	
4	   C	1.165	1.315	-1.032	C.2	1	UNK0	0.000	
5	   C	1.514	2.184	-2.069	C.2	1	UNK0	0.000	
6	   C	1.989	3.458	-1.847	C.2	1	UNK0	0.000	
7	   C	2.119	3.876	-0.538	C.2	1	UNK0	0.000	
8	   O	2.596	5.155	-0.291	O.2	1	UNK0	0.000	
9	   I	2.505	4.738	-3.456	 I	1	UNK0	0.000	
10	   C	0.676	-0.004	-1.388	C.3	1	UNK0	0.000	
11	   O	1.648	-0.734	-2.151	O.3	1	UNK0	0.000	
12	   C	1.163	-1.119	-3.373	C.2	1	UNK0	0.000	
13	   O	1.730	-1.769	-4.298	O.co2	1	UNK0	0.000	
14	   C	-0.205	-0.626	-3.442	C.2	1	UNK0	0.000	
15	   C	-0.493	0.027	-2.282	C.2	1	UNK0	0.000	
16	   C	-1.750	0.600	-2.089	C.2	1	UNK0	0.000	
17	   C	-2.725	0.520	-3.060	C.2	1	UNK0	0.000	
18	   C	-2.428	-0.148	-4.245	C.2	1	UNK0	0.000	
19	   C	-1.193	-0.713	-4.438	C.2	1	UNK0	0.000	
20	  Cl	-0.841	-1.536	-5.910	Cl	1	UNK0	0.000	
21	  Cl	-3.616	-0.285	-5.511	Cl	1	UNK0	0.000	
22	  Cl	-4.290	1.249	-2.784	Cl	1	UNK0	0.000	
23	  Cl	-2.049	1.415	-0.590	Cl	1	UNK0	0.000	
24	   C	0.344	-0.819	-0.188	C.2	1	UNK0	0.000	
25	   C	0.487	-0.370	1.080	C.2	1	UNK0	0.000	
26	   C	0.139	-1.238	2.113	C.2	1	UNK0	0.000	
27	   C	-0.336	-2.511	1.892	C.2	1	UNK0	0.000	
28	   C	-0.469	-2.935	0.585	C.2	1	UNK0	0.000	
29	   C	-0.135	-2.108	-0.456	C.2	1	UNK0	0.000	
30	   I	-1.193	-4.878	0.214	 I	1	UNK0	0.000	
31	   O	-0.679	-3.365	2.908	O.2	1	UNK0	0.000	
32	   I	0.356	-0.553	4.085	 I	1	UNK0	0.000	
33	   O	0.961	0.903	1.340	O.3	1	UNK0	0.000	
34	   H	1.423	1.884	-3.111	 H	1	UNK0	0.000	
35	   H	-0.250	-2.467	-1.453	 H	1	UNK0	0.000	
@<TRIPOS>BOND
1 1 2 1
2 2 3 2
3 2 7 1
4 3 4 1
5 3 33 1
6 4 5 2
7 4 10 1
8 5 6 1
9 6 7 2
10 6 9 1
11 7 8 1
12 10 11 1
13 10 15 1
14 10 24 1
15 11 12 1
16 12 13 2
17 12 14 1
18 14 15 2
19 14 19 1
20 15 16 1
21 16 17 2
22 16 23 1
23 17 18 1
24 17 22 1
25 18 19 2
26 18 21 1
27 19 20 1
28 24 25 2
29 24 29 1
30 25 26 1
31 25 33 1
32 26 27 2
33 26 32 1
34 27 28 1
35 27 31 1
36 28 29 2
37 28 30 1
38 5 34 1
39 29 35 1
@<TRIPOS>SUBSTRUCTURE
1	UNK0	1	GROUP	1 ****	UNK
