# created with PyMOL 2.3.2
@<TRIPOS>MOLECULE
980
35 38 1                 
SMALL
USER_CHARGES
@<TRIPOS>ATOM
1	   I	-3.450	4.021	-1.606	 I	1	UNK0	0.000	
2	   C	-3.009	2.060	-0.974	C.2	1	UNK0	0.000	
3	   C	-1.719	1.628	-0.738	C.2	1	UNK0	0.000	
4	   C	-1.426	0.346	-0.325	C.2	1	UNK0	0.000	
5	   C	-2.485	-0.525	-0.147	C.2	1	UNK0	0.000	
6	   C	-3.784	-0.100	-0.382	C.2	1	UNK0	0.000	
7	   C	-4.070	1.194	-0.799	C.2	1	UNK0	0.000	
8	   O	-5.393	1.568	-1.020	O.2	1	UNK0	0.000	
9	   C	-0.144	-0.104	-0.083	C.2	1	UNK0	0.000	
10	   C	0.871	0.827	-0.283	C.2	1	UNK0	0.000	
11	   C	0.520	2.175	-0.721	C.2	1	UNK0	0.000	
12	   C	1.569	3.052	-0.901	C.2	1	UNK0	0.000	
13	   C	2.885	2.702	-0.687	C.2	1	UNK0	0.000	
14	   O	3.835	3.522	-0.858	O.2	1	UNK0	0.000	
15	   C	3.218	1.427	-0.273	C.2	1	UNK0	0.000	
16	   C	2.190	0.525	-0.083	C.2	1	UNK0	0.000	
17	   I	1.163	5.016	-1.530	 I	1	UNK0	0.000	
18	   O	-0.740	2.478	-0.916	O.3	1	UNK0	0.000	
19	   C	0.170	-1.460	0.354	C.2	1	UNK0	0.000	
20	   C	0.217	-1.721	1.720	C.2	1	UNK0	0.000	
21	   C	0.507	-2.979	2.178	C.2	1	UNK0	0.000	
22	   C	0.755	-3.991	1.277	C.2	1	UNK0	0.000	
23	   C	0.714	-3.759	-0.080	C.2	1	UNK0	0.000	
24	   C	0.420	-2.487	-0.518	C.2	1	UNK0	0.000	
25	   C	-0.044	-0.656	2.684	C.2	1	UNK0	0.000	
26	   O	-0.315	0.517	2.344	O.co2	1	UNK0	0.000	
27	   O	0.002	-0.912	4.047	O.co2	1	UNK0	0.000	
28	   H	-2.252	-1.529	0.177	 H	1	UNK0	0.000	
29	   H	-4.569	-0.831	-0.225	 H	1	UNK0	0.000	
30	   H	4.259	1.180	-0.112	 H	1	UNK0	0.000	
31	   H	2.434	-0.476	0.241	 H	1	UNK0	0.000	
32	   H	0.552	-3.218	3.251	 H	1	UNK0	0.000	
33	   H	0.983	-4.980	1.658	 H	1	UNK0	0.000	
34	   H	0.917	-4.589	-0.766	 H	1	UNK0	0.000	
35	   H	0.380	-2.268	-1.579	 H	1	UNK0	0.000	
@<TRIPOS>BOND
1 1 2 1
2 2 3 2
3 2 7 1
4 3 4 1
5 3 18 1
6 4 5 2
7 4 9 1
8 5 6 1
9 6 7 2
10 7 8 1
11 9 10 2
12 9 19 1
13 10 11 1
14 10 16 1
15 11 12 2
16 11 18 1
17 12 13 1
18 12 17 1
19 13 14 2
20 13 15 1
21 15 16 2
22 19 20 2
23 19 24 1
24 20 21 1
25 20 25 1
26 21 22 2
27 22 23 1
28 23 24 2
29 25 26 2
30 25 27 1
31 5 28 1
32 6 29 1
33 15 30 1
34 16 31 1
35 21 32 1
36 22 33 1
37 23 34 1
38 24 35 1
@<TRIPOS>SUBSTRUCTURE
1	UNK0	1	GROUP	1 ****	UNK
