# created with PyMOL 2.3.2
@<TRIPOS>MOLECULE
981
37 40 1                 
SMALL
USER_CHARGES
@<TRIPOS>ATOM
1	   I	5.117	1.040	1.752	 I	1	UNK0	0.000	
2	   C	3.694	-0.106	0.674	C.2	1	UNK0	0.000	
3	   C	2.362	0.023	1.060	C.2	1	UNK0	0.000	
4	   C	1.396	-0.685	0.410	C.2	1	UNK0	0.000	
5	   C	1.809	-1.512	-0.625	C.2	1	UNK0	0.000	
6	   C	3.130	-1.645	-1.014	C.2	1	UNK0	0.000	
7	   C	4.093	-0.925	-0.349	C.2	1	UNK0	0.000	
8	   O	5.422	-1.037	-0.715	O.2	1	UNK0	0.000	
9	   C	-0.032	-0.620	0.751	C.3	1	UNK0	0.000	
10	   C	-0.275	0.322	1.869	C.2	1	UNK0	0.000	
11	   C	0.702	1.010	2.494	C.2	1	UNK0	0.000	
12	   C	0.434	1.891	3.561	C.2	1	UNK0	0.000	
13	   C	-0.860	2.065	3.987	C.2	1	UNK0	0.000	
14	   C	-1.881	1.373	3.364	C.2	1	UNK0	0.000	
15	   C	-1.578	0.521	2.325	C.2	1	UNK0	0.000	
16	   O	-1.201	2.914	5.029	O.3	1	UNK0	0.000	
17	   I	1.997	2.936	4.496	 I	1	UNK0	0.000	
18	   O	2.023	0.876	2.108	O.3	1	UNK0	0.000	
19	   C	-0.841	-0.079	-0.380	C.2	1	UNK0	0.000	
20	   C	-1.606	-0.847	-1.177	C.2	1	UNK0	0.000	
21	   C	-2.299	-0.167	-2.205	C.2	1	UNK0	0.000	
22	   C	-2.226	1.182	-2.412	C.2	1	UNK0	0.000	
23	   C	-1.436	1.943	-1.581	C.2	1	UNK0	0.000	
24	   C	-0.751	1.314	-0.576	C.2	1	UNK0	0.000	
25	   C	-1.756	-2.255	-1.041	C.2	1	UNK0	0.000	
26	   O	-1.227	-2.961	-0.197	O.co2	1	UNK0	0.000	
27	   O	-2.589	-2.936	-1.955	O.co2	1	UNK0	0.000	
28	   H	1.114	-2.118	-1.214	 H	1	UNK0	0.000	
29	   H	3.405	-2.318	-1.845	 H	1	UNK0	0.000	
30	   H	-0.398	-1.617	1.104	 H	1	UNK0	0.000	
31	   H	-2.914	1.501	3.692	 H	1	UNK0	0.000	
32	   H	-2.348	-0.042	1.808	 H	1	UNK0	0.000	
33	   H	-0.462	3.434	5.502	 H	1	UNK0	0.000	
34	   H	-2.928	-0.778	-2.864	 H	1	UNK0	0.000	
35	   H	-2.789	1.666	-3.232	 H	1	UNK0	0.000	
36	   H	-1.380	3.021	-1.749	 H	1	UNK0	0.000	
37	   H	-0.128	1.901	0.083	 H	1	UNK0	0.000	
@<TRIPOS>BOND
1 1 2 1
2 2 3 2
3 2 7 1
4 3 4 1
5 3 18 1
6 4 5 2
7 4 9 1
8 5 6 1
9 6 7 2
10 7 8 1
11 9 10 1
12 9 19 1
13 10 11 2
14 10 15 1
15 11 12 1
16 11 18 1
17 12 13 2
18 12 17 1
19 13 14 1
20 13 16 1
21 14 15 2
22 19 20 2
23 19 24 1
24 20 21 1
25 20 25 1
26 21 22 2
27 22 23 1
28 23 24 2
29 25 26 2
30 25 27 1
31 5 28 1
32 6 29 1
33 9 30 1
34 14 31 1
35 15 32 1
36 16 33 1
37 21 34 1
38 22 35 1
39 23 36 1
40 24 37 1
@<TRIPOS>SUBSTRUCTURE
1	UNK0	1	GROUP	1 ****	UNK
