# created with PyMOL 2.3.2
@<TRIPOS>MOLECULE
982
35 39 1                 
SMALL
USER_CHARGES
@<TRIPOS>ATOM
1	   I	2.896	4.462	1.424	 I	1	UNK0	0.000	
2	   C	2.959	2.681	0.312	C.2	1	UNK0	0.000	
3	   C	1.732	2.032	0.073	C.2	1	UNK0	0.000	
4	   C	1.725	0.875	-0.644	C.2	1	UNK0	0.000	
5	   C	2.945	0.353	-1.127	C.2	1	UNK0	0.000	
6	   C	4.137	0.982	-0.895	C.2	1	UNK0	0.000	
7	   C	4.138	2.155	-0.169	C.2	1	UNK0	0.000	
8	   O	5.322	2.828	0.092	O.2	1	UNK0	0.000	
9	   C	0.477	0.141	-0.934	C.3	1	UNK0	0.000	
10	   O	0.351	-0.136	-2.308	O.3	1	UNK0	0.000	
11	   C	0.380	-1.493	-2.497	C.2	1	UNK0	0.000	
12	   O	0.292	-2.128	-3.608	O.co2	1	UNK0	0.000	
13	   C	0.530	-2.163	-1.223	C.2	1	UNK0	0.000	
14	   C	0.591	-1.203	-0.264	C.2	1	UNK0	0.000	
15	   C	0.737	-1.502	1.097	C.2	1	UNK0	0.000	
16	   C	0.818	-2.828	1.455	C.2	1	UNK0	0.000	
17	   C	0.758	-3.828	0.494	C.2	1	UNK0	0.000	
18	   C	0.615	-3.501	-0.834	C.2	1	UNK0	0.000	
19	   C	-0.696	0.793	-0.375	C.2	1	UNK0	0.000	
20	   C	-0.624	1.953	0.334	C.2	1	UNK0	0.000	
21	   C	-1.813	2.506	0.833	C.2	1	UNK0	0.000	
22	   C	-3.046	1.948	0.650	C.2	1	UNK0	0.000	
23	   C	-3.099	0.773	-0.071	C.2	1	UNK0	0.000	
24	   C	-1.950	0.219	-0.565	C.2	1	UNK0	0.000	
25	   O	-4.184	2.557	1.177	O.2	1	UNK0	0.000	
26	   I	-1.694	4.297	1.927	 I	1	UNK0	0.000	
27	   O	0.569	2.614	0.586	O.3	1	UNK0	0.000	
28	   H	2.888	-0.578	-1.696	 H	1	UNK0	0.000	
29	   H	5.054	0.556	-1.280	 H	1	UNK0	0.000	
30	   H	0.780	-0.697	1.827	 H	1	UNK0	0.000	
31	   H	0.931	-3.100	2.496	 H	1	UNK0	0.000	
32	   H	0.826	-4.872	0.801	 H	1	UNK0	0.000	
33	   H	0.566	-4.271	-1.608	 H	1	UNK0	0.000	
34	   H	-4.067	0.303	-0.234	 H	1	UNK0	0.000	
35	   H	-2.007	-0.705	-1.130	 H	1	UNK0	0.000	
@<TRIPOS>BOND
1 1 2 1
2 2 3 2
3 2 7 1
4 3 4 1
5 3 27 1
6 4 5 2
7 4 9 1
8 5 6 1
9 6 7 2
10 7 8 1
11 9 10 1
12 9 14 1
13 9 19 1
14 10 11 1
15 11 12 2
16 11 13 1
17 13 14 2
18 13 18 1
19 14 15 1
20 15 16 2
21 16 17 1
22 17 18 2
23 19 20 2
24 19 24 1
25 20 21 1
26 20 27 1
27 21 22 2
28 21 26 1
29 22 23 1
30 22 25 1
31 23 24 2
32 5 28 1
33 6 29 1
34 15 30 1
35 16 31 1
36 17 32 1
37 18 33 1
38 23 34 1
39 24 35 1
@<TRIPOS>SUBSTRUCTURE
1	UNK0	1	GROUP	1 ****	UNK
