# created with PyMOL 2.3.2
@<TRIPOS>MOLECULE
984
46 51 1                 
SMALL
USER_CHARGES
@<TRIPOS>ATOM
1	   P	-1.418	-1.498	5.700	P.3	1	UNK0	0.000	
2	   O	-2.303	-2.576	5.107	O.2	1	UNK0	0.000	
3	   O	0.219	-1.793	5.365	O.3	1	UNK0	0.000	
4	   C	0.613	-0.920	4.367	C.3	1	UNK0	0.000	
5	   C	-0.600	-0.714	3.463	C.3	1	UNK0	0.000	
6	   O	0.037	-0.402	2.262	O.3	1	UNK0	0.000	
7	   C	0.845	-1.557	2.138	C.3	1	UNK0	0.000	
8	   C	1.598	-1.585	3.393	C.3	1	UNK0	0.000	
9	   O	1.867	-2.877	3.874	O.3	1	UNK0	0.000	
10	   N	1.559	-1.602	0.921	N.pl3	1	UNK0	0.000	
11	   C	0.993	-1.257	-0.269	C.2	1	UNK0	0.000	
12	   C	1.939	-1.409	-1.237	C.2	1	UNK0	0.000	
13	   N	3.048	-1.840	-0.607	N.2	1	UNK0	0.000	
14	   C	2.838	-1.966	0.716	C.2	1	UNK0	0.000	
15	  Br	4.109	-2.544	2.022	Br	1	UNK0	0.000	
16	   C	1.600	-1.117	-2.545	C.2	1	UNK0	0.000	
17	   O	2.435	-1.243	-3.452	O.2	1	UNK0	0.000	
18	   N	0.360	-0.691	-2.853	N.pl3	1	UNK0	0.000	
19	   C	-0.576	-0.540	-1.899	C.2	1	UNK0	0.000	
20	   N	-1.723	-0.106	-2.468	N.2	1	UNK0	0.000	
21	   C	-1.548	0.031	-3.795	C.2	1	UNK0	0.000	
22	   C	-0.241	-0.338	-4.028	C.2	1	UNK0	0.000	
23	   C	-2.554	0.478	-4.756	C.2	1	UNK0	0.000	
24	   C	-2.252	0.577	-6.094	C.2	1	UNK0	0.000	
25	   C	-3.215	1.005	-7.008	C.2	1	UNK0	0.000	
26	   C	-4.494	1.342	-6.617	C.2	1	UNK0	0.000	
27	   C	-4.787	1.239	-5.273	C.2	1	UNK0	0.000	
28	   C	-3.828	0.813	-4.359	C.2	1	UNK0	0.000	
29	   N	-0.234	-0.828	-0.629	N.pl3	1	UNK0	0.000	
30	   C	-1.474	0.392	3.967	C.3	1	UNK0	0.000	
31	   O	-1.893	0.044	5.251	O.3	1	UNK0	0.000	
32	   S	-1.639	-1.641	7.779	S.3	1	UNK0	0.000	
33	   H	0.978	0.043	4.720	 H	1	UNK0	0.000	
34	   H	-1.150	-1.657	3.294	 H	1	UNK0	0.000	
35	   H	0.102	-2.408	2.150	 H	1	UNK0	0.000	
36	   H	2.516	-1.014	3.454	 H	1	UNK0	0.000	
37	   H	1.406	-3.561	3.344	 H	1	UNK0	0.000	
38	   H	0.243	-0.350	-4.977	 H	1	UNK0	0.000	
39	   H	-1.245	0.312	-6.401	 H	1	UNK0	0.000	
40	   H	-2.947	1.072	-8.047	 H	1	UNK0	0.000	
41	   H	-5.229	1.672	-7.345	 H	1	UNK0	0.000	
42	   H	-5.801	1.504	-4.949	 H	1	UNK0	0.000	
43	   H	-4.067	0.734	-3.294	 H	1	UNK0	0.000	
44	   H	-0.945	-0.719	0.137	 H	1	UNK0	0.000	
45	   H	-2.304	0.525	3.261	 H	1	UNK0	0.000	
46	   H	-0.846	1.302	4.060	 H	1	UNK0	0.000	
@<TRIPOS>BOND
1 1 2 2
2 1 3 1
3 1 31 1
4 1 32 1
5 3 4 1
6 4 5 1
7 4 8 1
8 5 6 1
9 5 30 1
10 6 7 1
11 7 8 1
12 7 10 1
13 8 9 1
14 10 11 1
15 10 14 1
16 11 12 2
17 11 29 1
18 12 13 1
19 12 16 1
20 13 14 2
21 14 15 1
22 16 17 2
23 16 18 1
24 18 19 1
25 18 22 1
26 19 20 2
27 19 29 1
28 20 21 1
29 21 22 2
30 21 23 1
31 23 24 2
32 23 28 1
33 24 25 1
34 25 26 2
35 26 27 1
36 27 28 2
37 30 31 1
38 4 33 1
39 5 34 1
40 7 35 1
41 8 36 1
42 9 37 1
43 22 38 1
44 24 39 1
45 25 40 1
46 26 41 1
47 27 42 1
48 28 43 1
49 29 44 1
50 30 45 1
51 30 46 1
@<TRIPOS>SUBSTRUCTURE
1	UNK0	1	GROUP	1 ****	UNK
