# created with PyMOL 2.3.2
@<TRIPOS>MOLECULE
986
34 37 1                 
SMALL
USER_CHARGES
@<TRIPOS>ATOM
1	   P	3.940	-2.722	1.217	P.3	1	UNK0	0.000	
2	   O	5.276	-3.366	0.931	O.2	1	UNK0	0.000	
3	   O	3.576	-1.672	-0.049	O.3	1	UNK0	0.000	
4	   C	2.880	-0.555	0.368	C.3	1	UNK0	0.000	
5	   C	2.218	-0.865	1.715	C.3	1	UNK0	0.000	
6	   O	1.283	0.160	1.786	O.3	1	UNK0	0.000	
7	   C	0.600	-0.026	0.576	C.3	1	UNK0	0.000	
8	   C	1.697	-0.217	-0.478	C.3	1	UNK0	0.000	
9	   O	1.338	-1.245	-1.354	O.3	1	UNK0	0.000	
10	   N	-0.149	1.137	0.202	N.pl3	1	UNK0	0.000	
11	   C	-0.653	1.337	-1.035	C.2	1	UNK0	0.000	
12	   N	-0.639	0.628	-2.192	N.2	1	UNK0	0.000	
13	   C	-1.231	1.057	-3.317	C.2	1	UNK0	0.000	
14	   N	-1.875	2.248	-3.315	N.2	1	UNK0	0.000	
15	   C	-1.939	3.017	-2.213	C.2	1	UNK0	0.000	
16	   C	-1.322	2.552	-1.071	C.2	1	UNK0	0.000	
17	   N	-1.214	3.077	0.157	N.2	1	UNK0	0.000	
18	   C	-0.498	2.214	0.934	C.2	1	UNK0	0.000	
19	  Br	-0.031	2.431	2.763	Br	1	UNK0	0.000	
20	   O	-2.616	4.224	-2.287	O.3	1	UNK0	0.000	
21	   N	-1.167	0.251	-4.483	N.pl3	1	UNK0	0.000	
22	   C	3.279	-0.785	2.757	C.3	1	UNK0	0.000	
23	   O	4.048	-1.934	2.699	O.3	1	UNK0	0.000	
24	   S	2.509	-4.222	1.235	S.3	1	UNK0	0.000	
25	   H	3.512	0.330	0.530	 H	1	UNK0	0.000	
26	   H	1.666	-1.820	1.687	 H	1	UNK0	0.000	
27	   H	0.020	-0.948	0.609	 H	1	UNK0	0.000	
28	   H	1.838	0.716	-1.061	 H	1	UNK0	0.000	
29	   H	0.534	-1.750	-1.015	 H	1	UNK0	0.000	
30	   H	-3.605	4.316	-2.012	 H	1	UNK0	0.000	
31	   H	-1.943	0.321	-5.200	 H	1	UNK0	0.000	
32	   H	-0.402	-0.412	-4.685	 H	1	UNK0	0.000	
33	   H	2.879	-0.658	3.789	 H	1	UNK0	0.000	
34	   H	3.951	0.066	2.501	 H	1	UNK0	0.000	
@<TRIPOS>BOND
1 1 2 2
2 1 3 1
3 1 23 1
4 1 24 1
5 3 4 1
6 4 5 1
7 4 8 1
8 5 6 1
9 5 22 1
10 6 7 1
11 7 8 1
12 7 10 1
13 8 9 1
14 10 11 1
15 10 18 1
16 11 12 2
17 11 16 1
18 12 13 1
19 13 14 2
20 13 21 1
21 14 15 1
22 15 16 2
23 15 20 1
24 16 17 1
25 17 18 2
26 18 19 1
27 22 23 1
28 4 25 1
29 5 26 1
30 7 27 1
31 8 28 1
32 9 29 1
33 20 30 1
34 21 31 1
35 21 32 1
36 22 33 1
37 22 34 1
@<TRIPOS>SUBSTRUCTURE
1	UNK0	1	GROUP	1 ****	UNK
