# created with PyMOL 2.3.2
@<TRIPOS>MOLECULE
991
46 51 1                 
SMALL
USER_CHARGES
@<TRIPOS>ATOM
1	   P	1.144	4.652	4.859	P.3	1	UNK0	0.000	
2	   S	2.570	5.391	5.520	S.2	1	UNK0	0.000	
3	   O	1.135	3.020	5.331	O.3	1	UNK0	0.000	
4	   C	0.852	2.278	4.188	C.3	1	UNK0	0.000	
5	   C	-0.281	3.019	3.474	C.3	1	UNK0	0.000	
6	   O	-1.001	2.025	2.871	O.3	1	UNK0	0.000	
7	   C	-1.002	0.918	3.717	C.3	1	UNK0	0.000	
8	   C	0.273	0.928	4.487	C.3	1	UNK0	0.000	
9	   O	0.038	0.788	5.861	O.3	1	UNK0	0.000	
10	   N	-1.202	-0.317	2.963	N.pl3	1	UNK0	0.000	
11	   C	-0.788	-0.598	1.702	C.2	1	UNK0	0.000	
12	   C	-1.169	-1.872	1.338	C.2	1	UNK0	0.000	
13	   N	-1.827	-2.363	2.409	N.2	1	UNK0	0.000	
14	   C	-1.841	-1.425	3.378	C.2	1	UNK0	0.000	
15	  Br	-2.633	-1.569	5.113	Br	1	UNK0	0.000	
16	   C	-0.840	-2.349	0.085	C.2	1	UNK0	0.000	
17	   O	-1.181	-3.503	-0.256	O.2	1	UNK0	0.000	
18	   N	-0.151	-1.606	-0.811	N.pl3	1	UNK0	0.000	
19	   C	0.211	-0.366	-0.435	C.2	1	UNK0	0.000	
20	   N	0.872	0.155	-1.484	N.2	1	UNK0	0.000	
21	   C	0.941	-0.711	-2.511	C.2	1	UNK0	0.000	
22	   C	0.284	-1.844	-2.079	C.2	1	UNK0	0.000	
23	   C	1.580	-0.502	-3.817	C.2	1	UNK0	0.000	
24	   C	1.562	-1.499	-4.766	C.2	1	UNK0	0.000	
25	   C	2.157	-1.331	-6.010	C.2	1	UNK0	0.000	
26	   C	2.777	-0.135	-6.291	C.2	1	UNK0	0.000	
27	   C	2.818	0.894	-5.363	C.2	1	UNK0	0.000	
28	   C	2.211	0.672	-4.146	C.2	1	UNK0	0.000	
29	   N	-0.104	0.123	0.798	N.pl3	1	UNK0	0.000	
30	   C	0.380	3.972	2.507	C.3	1	UNK0	0.000	
31	   O	1.241	4.809	3.180	O.3	1	UNK0	0.000	
32	   O	-0.255	5.452	5.367	 O	1	UNK0	0.000	
33	   H	1.752	2.199	3.563	 H	1	UNK0	0.000	
34	   H	-0.928	3.555	4.177	 H	1	UNK0	0.000	
35	   H	-1.906	1.053	4.381	 H	1	UNK0	0.000	
36	   H	0.951	0.149	4.135	 H	1	UNK0	0.000	
37	   H	-0.409	1.572	6.240	 H	1	UNK0	0.000	
38	   H	0.130	-2.768	-2.633	 H	1	UNK0	0.000	
39	   H	1.076	-2.436	-4.546	 H	1	UNK0	0.000	
40	   H	2.146	-2.113	-6.761	 H	1	UNK0	0.000	
41	   H	3.247	0.021	-7.251	 H	1	UNK0	0.000	
42	   H	3.314	1.831	-5.609	 H	1	UNK0	0.000	
43	   H	2.233	1.461	-3.414	 H	1	UNK0	0.000	
44	   H	0.179	1.087	1.085	 H	1	UNK0	0.000	
45	   H	-0.347	4.501	1.860	 H	1	UNK0	0.000	
46	   H	1.001	3.345	1.804	 H	1	UNK0	0.000	
@<TRIPOS>BOND
1 1 2 2
2 1 3 1
3 1 31 1
4 1 32 1
5 3 4 1
6 4 5 1
7 4 8 1
8 5 6 1
9 5 30 1
10 6 7 1
11 7 8 1
12 7 10 1
13 8 9 1
14 10 11 1
15 10 14 1
16 11 12 2
17 11 29 1
18 12 13 1
19 12 16 1
20 13 14 2
21 14 15 1
22 16 17 2
23 16 18 1
24 18 19 1
25 18 22 1
26 19 20 2
27 19 29 1
28 20 21 1
29 21 22 2
30 21 23 1
31 23 24 2
32 23 28 1
33 24 25 1
34 25 26 2
35 26 27 1
36 27 28 2
37 30 31 1
38 4 33 1
39 5 34 1
40 7 35 1
41 8 36 1
42 9 37 1
43 22 38 1
44 24 39 1
45 25 40 1
46 26 41 1
47 27 42 1
48 28 43 1
49 29 44 1
50 30 45 1
51 30 46 1
@<TRIPOS>SUBSTRUCTURE
1	UNK0	1	GROUP	1 ****	UNK
