# created with PyMOL 2.3.2
@<TRIPOS>MOLECULE
992
34 37 1                 
SMALL
USER_CHARGES
@<TRIPOS>ATOM
1	   P	0.510	-1.984	4.495	P.3	1	UNK0	0.000	
2	   S	1.342	-2.813	5.786	S.2	1	UNK0	0.000	
3	   O	1.483	-2.122	3.109	O.3	1	UNK0	0.000	
4	   C	1.569	-0.853	2.579	C.3	1	UNK0	0.000	
5	   C	0.151	-0.271	2.630	C.3	1	UNK0	0.000	
6	   O	0.123	0.515	1.507	O.3	1	UNK0	0.000	
7	   C	0.563	-0.397	0.519	C.3	1	UNK0	0.000	
8	   C	1.849	-0.870	1.076	C.3	1	UNK0	0.000	
9	   O	2.087	-2.199	0.741	O.3	1	UNK0	0.000	
10	   N	0.601	0.175	-0.774	N.pl3	1	UNK0	0.000	
11	   C	-0.386	0.933	-1.285	C.2	1	UNK0	0.000	
12	   N	-1.590	1.369	-0.841	N.2	1	UNK0	0.000	
13	   C	-2.399	2.142	-1.590	C.2	1	UNK0	0.000	
14	   N	-2.069	2.536	-2.832	N.2	1	UNK0	0.000	
15	   C	-0.875	2.119	-3.307	C.2	1	UNK0	0.000	
16	   C	-0.029	1.328	-2.559	C.2	1	UNK0	0.000	
17	   N	1.164	0.805	-2.800	N.2	1	UNK0	0.000	
18	   C	1.547	0.101	-1.709	C.2	1	UNK0	0.000	
19	  Br	3.197	-0.824	-1.600	Br	1	UNK0	0.000	
20	   O	-0.526	2.519	-4.584	O.3	1	UNK0	0.000	
21	   N	-3.667	2.575	-1.067	N.pl3	1	UNK0	0.000	
22	   C	0.022	0.464	3.919	C.3	1	UNK0	0.000	
23	   O	0.347	-0.371	4.976	O.3	1	UNK0	0.000	
24	   O	-1.004	-2.713	4.249	 O	1	UNK0	0.000	
25	   H	2.287	-0.234	3.131	 H	1	UNK0	0.000	
26	   H	-0.606	-1.084	2.618	 H	1	UNK0	0.000	
27	   H	-0.171	-1.238	0.563	 H	1	UNK0	0.000	
28	   H	2.706	-0.209	0.915	 H	1	UNK0	0.000	
29	   H	1.312	-2.549	0.235	 H	1	UNK0	0.000	
30	   H	-1.178	2.298	-5.339	 H	1	UNK0	0.000	
31	   H	-4.416	1.896	-0.804	 H	1	UNK0	0.000	
32	   H	-3.780	3.613	-0.972	 H	1	UNK0	0.000	
33	   H	-1.020	0.809	4.058	 H	1	UNK0	0.000	
34	   H	0.665	1.390	3.928	 H	1	UNK0	0.000	
@<TRIPOS>BOND
1 1 2 2
2 1 3 1
3 1 23 1
4 1 24 1
5 3 4 1
6 4 5 1
7 4 8 1
8 5 6 1
9 5 22 1
10 6 7 1
11 7 8 1
12 7 10 1
13 8 9 1
14 10 11 1
15 10 18 1
16 11 12 2
17 11 16 1
18 12 13 1
19 13 14 2
20 13 21 1
21 14 15 1
22 15 16 2
23 15 20 1
24 16 17 1
25 17 18 2
26 18 19 1
27 22 23 1
28 4 25 1
29 5 26 1
30 7 27 1
31 8 28 1
32 9 29 1
33 20 30 1
34 21 31 1
35 21 32 1
36 22 33 1
37 22 34 1
@<TRIPOS>SUBSTRUCTURE
1	UNK0	1	GROUP	1 ****	UNK
