# created with PyMOL 2.3.2
@<TRIPOS>MOLECULE
993
33 36 1                 
SMALL
USER_CHARGES
@<TRIPOS>ATOM
1	   P	3.441	-0.863	-3.236	P.3	1	UNK0	0.000	
2	   S	3.531	0.780	-3.818	S.2	1	UNK0	0.000	
3	   O	1.832	-1.230	-2.798	O.3	1	UNK0	0.000	
4	   C	1.572	-0.548	-1.635	C.3	1	UNK0	0.000	
5	   C	2.517	-1.065	-0.542	C.3	1	UNK0	0.000	
6	   O	1.890	-0.545	0.589	O.3	1	UNK0	0.000	
7	   C	0.559	-0.862	0.457	C.3	1	UNK0	0.000	
8	   C	0.237	-0.916	-1.015	C.3	1	UNK0	0.000	
9	   O	0.007	-2.261	-1.335	O.3	1	UNK0	0.000	
10	   N	-0.319	0.124	1.058	N.pl3	1	UNK0	0.000	
11	   C	-1.570	-0.146	1.509	C.2	1	UNK0	0.000	
12	   N	-2.301	-1.290	1.533	N.2	1	UNK0	0.000	
13	   C	-3.548	-1.309	2.043	C.2	1	UNK0	0.000	
14	   N	-4.088	-0.170	2.542	N.2	1	UNK0	0.000	
15	   C	-3.396	0.983	2.536	C.2	1	UNK0	0.000	
16	   C	-2.115	1.016	2.016	C.2	1	UNK0	0.000	
17	   N	-1.195	1.987	1.872	N.2	1	UNK0	0.000	
18	   C	-0.110	1.431	1.289	C.2	1	UNK0	0.000	
19	  Br	1.533	2.309	0.824	Br	1	UNK0	0.000	
20	   N	-3.980	2.177	3.067	N.pl3	1	UNK0	0.000	
21	   C	3.907	-0.544	-0.734	C.3	1	UNK0	0.000	
22	   O	4.419	-1.084	-1.900	O.3	1	UNK0	0.000	
23	   O	3.884	-1.880	-4.484	 O	1	UNK0	0.000	
24	   H	1.727	0.528	-1.707	 H	1	UNK0	0.000	
25	   H	2.449	-2.161	-0.549	 H	1	UNK0	0.000	
26	   H	0.366	-1.829	0.977	 H	1	UNK0	0.000	
27	   H	-0.576	-0.254	-1.314	 H	1	UNK0	0.000	
28	   H	-0.838	-2.406	-1.799	 H	1	UNK0	0.000	
29	   H	-4.100	-2.254	2.041	 H	1	UNK0	0.000	
30	   H	-4.774	2.083	3.758	 H	1	UNK0	0.000	
31	   H	-3.653	3.126	2.799	 H	1	UNK0	0.000	
32	   H	4.524	-0.877	0.100	 H	1	UNK0	0.000	
33	   H	3.863	0.562	-0.743	 H	1	UNK0	0.000	
@<TRIPOS>BOND
1 1 2 2
2 1 3 1
3 1 22 1
4 1 23 1
5 3 4 1
6 4 5 1
7 4 8 1
8 5 6 1
9 5 21 1
10 6 7 1
11 7 8 1
12 7 10 1
13 8 9 1
14 10 11 1
15 10 18 1
16 11 12 2
17 11 16 1
18 12 13 1
19 13 14 2
20 14 15 1
21 15 16 2
22 15 20 1
23 16 17 1
24 17 18 2
25 18 19 1
26 21 22 1
27 4 24 1
28 5 25 1
29 7 26 1
30 8 27 1
31 9 28 1
32 13 29 1
33 20 30 1
34 20 31 1
35 21 32 1
36 21 33 1
@<TRIPOS>SUBSTRUCTURE
1	UNK0	1	GROUP	1 ****	UNK
