# created with PyMOL 2.3.2
@<TRIPOS>MOLECULE
994
44 47 1                 
SMALL
USER_CHARGES
@<TRIPOS>ATOM
1	   S	-0.044	-3.292	-1.332	S.3	1	UNK0	0.000	
2	   O	-1.117	-3.169	-0.318	O.2	1	UNK0	0.000	
3	   O	-0.387	-2.630	-2.644	O.2	1	UNK0	0.000	
4	   O	0.087	-4.939	-1.703	 O	1	UNK0	0.000	
5	   C	1.524	-2.796	-0.741	C.2	1	UNK0	0.000	
6	   C	1.673	-1.480	-0.354	C.2	1	UNK0	0.000	
7	   C	2.915	-1.109	0.105	C.2	1	UNK0	0.000	
8	   C	3.990	-2.007	0.188	C.2	1	UNK0	0.000	
9	   C	3.822	-3.316	-0.201	C.2	1	UNK0	0.000	
10	   C	2.586	-3.668	-0.656	C.2	1	UNK0	0.000	
11	   C	4.909	-4.327	-0.145	C.3	1	UNK0	0.000	
12	   N	0.616	-0.556	-0.486	N.pl3	1	UNK0	0.000	
13	   C	0.425	0.691	0.071	C.2	1	UNK0	0.000	
14	   C	-0.382	1.641	-0.507	C.2	1	UNK0	0.000	
15	   C	-0.651	2.858	0.138	C.2	1	UNK0	0.000	
16	   C	-0.100	3.113	1.372	C.2	1	UNK0	0.000	
17	   C	0.701	2.173	1.945	C.2	1	UNK0	0.000	
18	   C	0.961	0.968	1.299	C.2	1	UNK0	0.000	
19	  Br	1.454	2.555	3.658	Br	1	UNK0	0.000	
20	   N	-0.373	4.357	2.033	N.pl3	1	UNK0	0.000	
21	   C	-1.490	3.898	-0.445	C.2	1	UNK0	0.000	
22	   O	-1.714	4.977	0.158	O.2	1	UNK0	0.000	
23	   C	-2.095	3.707	-1.753	C.2	1	UNK0	0.000	
24	   C	-1.847	2.523	-2.412	C.2	1	UNK0	0.000	
25	   C	-2.409	2.324	-3.650	C.2	1	UNK0	0.000	
26	   C	-3.208	3.312	-4.207	C.2	1	UNK0	0.000	
27	   C	-3.461	4.496	-3.557	C.2	1	UNK0	0.000	
28	   C	-2.891	4.678	-2.321	C.2	1	UNK0	0.000	
29	   C	-0.997	1.486	-1.805	C.2	1	UNK0	0.000	
30	   O	-0.830	0.464	-2.470	O.2	1	UNK0	0.000	
31	   H	3.158	-0.099	0.399	 H	1	UNK0	0.000	
32	   H	4.960	-1.704	0.551	 H	1	UNK0	0.000	
33	   H	2.407	-4.701	-0.978	 H	1	UNK0	0.000	
34	   H	5.623	-4.030	0.668	 H	1	UNK0	0.000	
35	   H	4.509	-5.325	0.123	 H	1	UNK0	0.000	
36	   H	5.484	-4.392	-1.088	 H	1	UNK0	0.000	
37	   H	-0.184	-0.911	-1.098	 H	1	UNK0	0.000	
38	   H	1.591	0.261	1.867	 H	1	UNK0	0.000	
39	   H	-1.298	4.517	2.494	 H	1	UNK0	0.000	
40	   H	0.311	5.133	2.086	 H	1	UNK0	0.000	
41	   H	-2.216	1.398	-4.166	 H	1	UNK0	0.000	
42	   H	-3.633	3.133	-5.168	 H	1	UNK0	0.000	
43	   H	-4.090	5.248	-4.019	 H	1	UNK0	0.000	
44	   H	-3.078	5.602	-1.794	 H	1	UNK0	0.000	
@<TRIPOS>BOND
1 1 2 2
2 1 3 2
3 1 4 1
4 1 5 1
5 5 6 2
6 5 10 1
7 6 7 1
8 6 12 1
9 7 8 2
10 8 9 1
11 9 10 2
12 9 11 1
13 12 13 1
14 13 14 2
15 13 18 1
16 14 15 1
17 14 29 1
18 15 16 2
19 15 21 1
20 16 17 1
21 16 20 1
22 17 18 2
23 17 19 1
24 21 22 2
25 21 23 1
26 23 24 2
27 23 28 1
28 24 25 1
29 24 29 1
30 25 26 2
31 26 27 1
32 27 28 2
33 29 30 2
34 7 31 1
35 8 32 1
36 10 33 1
37 11 34 1
38 11 35 1
39 11 36 1
40 12 37 1
41 18 38 1
42 20 39 1
43 20 40 1
44 25 41 1
45 26 42 1
46 27 43 1
47 28 44 1
@<TRIPOS>SUBSTRUCTURE
1	UNK0	1	GROUP	1 ****	UNK
