# created with PyMOL 2.3.2
@<TRIPOS>MOLECULE
995
35 38 1                 
SMALL
USER_CHARGES
@<TRIPOS>ATOM
1	   S	-2.849	-3.149	4.080	S.3	1	UNK0	0.000	
2	   O	-2.597	-4.407	4.832	O.2	1	UNK0	0.000	
3	   O	-2.845	-1.980	5.042	O.2	1	UNK0	0.000	
4	   O	-4.400	-3.168	3.392	 O	1	UNK0	0.000	
5	   C	-1.682	-2.900	2.798	C.2	1	UNK0	0.000	
6	   C	-1.271	-1.629	2.409	C.2	1	UNK0	0.000	
7	   C	-0.354	-1.438	1.401	C.2	1	UNK0	0.000	
8	   C	0.155	-2.563	0.777	C.2	1	UNK0	0.000	
9	   C	-0.243	-3.831	1.151	C.2	1	UNK0	0.000	
10	   C	-1.171	-4.010	2.172	C.2	1	UNK0	0.000	
11	  Cl	1.329	-2.446	-0.519	Cl	1	UNK0	0.000	
12	   N	0.064	-0.136	1.007	N.pl3	1	UNK0	0.000	
13	   C	-0.892	0.853	0.573	C.2	1	UNK0	0.000	
14	   O	-2.119	0.571	0.539	O.2	1	UNK0	0.000	
15	   C	-0.447	2.184	0.173	C.2	1	UNK0	0.000	
16	   C	0.892	2.546	0.193	C.2	1	UNK0	0.000	
17	   C	1.315	3.803	-0.185	C.2	1	UNK0	0.000	
18	   C	0.380	4.732	-0.596	C.2	1	UNK0	0.000	
19	   C	-0.952	4.379	-0.618	C.2	1	UNK0	0.000	
20	   C	-1.368	3.121	-0.239	C.2	1	UNK0	0.000	
21	  Br	0.938	6.498	-1.131	Br	1	UNK0	0.000	
22	   C	2.650	4.169	-0.167	C.2	1	UNK0	0.000	
23	   C	3.591	3.246	0.243	C.2	1	UNK0	0.000	
24	   C	3.178	1.984	0.623	C.2	1	UNK0	0.000	
25	   C	1.829	1.617	0.604	C.2	1	UNK0	0.000	
26	   C	1.425	0.277	1.012	C.2	1	UNK0	0.000	
27	   O	2.288	-0.557	1.384	O.2	1	UNK0	0.000	
28	   H	-1.698	-0.780	2.928	 H	1	UNK0	0.000	
29	   H	0.160	-4.705	0.658	 H	1	UNK0	0.000	
30	   H	-1.474	-5.028	2.454	 H	1	UNK0	0.000	
31	   H	-1.660	5.137	-0.948	 H	1	UNK0	0.000	
32	   H	-2.415	2.843	-0.256	 H	1	UNK0	0.000	
33	   H	2.926	5.186	-0.480	 H	1	UNK0	0.000	
34	   H	4.620	3.568	0.243	 H	1	UNK0	0.000	
35	   H	3.904	1.265	0.942	 H	1	UNK0	0.000	
@<TRIPOS>BOND
1 1 2 2
2 1 3 2
3 1 4 1
4 1 5 1
5 5 6 2
6 5 10 1
7 6 7 1
8 7 8 2
9 7 12 1
10 8 9 1
11 8 11 1
12 9 10 2
13 12 13 1
14 12 26 1
15 13 14 2
16 13 15 1
17 15 16 2
18 15 20 1
19 16 17 1
20 16 25 1
21 17 18 2
22 17 22 1
23 18 19 1
24 18 21 1
25 19 20 2
26 22 23 2
27 23 24 1
28 24 25 2
29 25 26 1
30 26 27 2
31 6 28 1
32 9 29 1
33 10 30 1
34 19 31 1
35 20 32 1
36 22 33 1
37 23 34 1
38 24 35 1
@<TRIPOS>SUBSTRUCTURE
1	UNK0	1	GROUP	1 ****	UNK
