# created with PyMOL 2.3.2
@<TRIPOS>MOLECULE
996
34 37 1                 
SMALL
USER_CHARGES
@<TRIPOS>ATOM
1	   S	-0.652	-2.154	5.980	S.3	1	UNK0	0.000	
2	   O	-0.276	-3.608	5.843	O.2	1	UNK0	0.000	
3	   O	0.589	-1.438	6.467	O.2	1	UNK0	0.000	
4	   O	-1.953	-1.931	6.980	 O	1	UNK0	0.000	
5	   C	-1.005	-1.486	4.380	C.2	1	UNK0	0.000	
6	   O	-0.196	-1.501	3.378	O.3	1	UNK0	0.000	
7	   C	-0.674	-0.948	2.297	C.2	1	UNK0	0.000	
8	   C	-1.942	-0.526	2.641	C.2	1	UNK0	0.000	
9	   C	-2.157	-0.865	3.964	C.2	1	UNK0	0.000	
10	   C	-0.048	-0.785	0.982	C.2	1	UNK0	0.000	
11	   N	-0.606	-0.227	-0.013	N.2	1	UNK0	0.000	
12	   N	-0.023	-0.064	-1.272	N.pl3	1	UNK0	0.000	
13	   C	-0.364	-0.936	-2.237	C.2	1	UNK0	0.000	
14	   N	0.152	-0.858	-3.496	N.2	1	UNK0	0.000	
15	   C	1.032	0.100	-3.834	C.2	1	UNK0	0.000	
16	   C	1.706	0.424	-4.992	C.2	1	UNK0	0.000	
17	   C	2.493	1.535	-4.740	C.2	1	UNK0	0.000	
18	   N	2.274	1.844	-3.453	N.pl3	1	UNK0	0.000	
19	   C	1.402	1.010	-2.866	C.2	1	UNK0	0.000	
20	   C	0.851	0.893	-1.596	C.2	1	UNK0	0.000	
21	   O	1.173	1.708	-0.702	O.2	1	UNK0	0.000	
22	   C	3.276	2.060	-5.757	C.2	1	UNK0	0.000	
23	   C	3.303	1.517	-7.020	C.2	1	UNK0	0.000	
24	   C	2.515	0.411	-7.260	C.2	1	UNK0	0.000	
25	   C	1.735	-0.119	-6.261	C.2	1	UNK0	0.000	
26	  Br	2.547	-0.341	-8.998	Br	1	UNK0	0.000	
27	   H	-2.665	-0.013	2.002	 H	1	UNK0	0.000	
28	   H	-3.022	-0.698	4.573	 H	1	UNK0	0.000	
29	   H	0.955	-1.154	0.816	 H	1	UNK0	0.000	
30	   H	-1.080	-1.740	-2.016	 H	1	UNK0	0.000	
31	   H	2.739	2.654	-2.967	 H	1	UNK0	0.000	
32	   H	3.894	2.925	-5.574	 H	1	UNK0	0.000	
33	   H	3.922	1.932	-7.826	 H	1	UNK0	0.000	
34	   H	1.105	-0.990	-6.426	 H	1	UNK0	0.000	
@<TRIPOS>BOND
1 1 2 2
2 1 3 2
3 1 4 1
4 1 5 1
5 5 6 1
6 5 9 2
7 6 7 1
8 7 8 2
9 7 10 1
10 8 9 1
11 10 11 2
12 11 12 1
13 12 13 1
14 12 20 1
15 13 14 2
16 14 15 1
17 15 16 1
18 15 19 2
19 16 17 2
20 16 25 1
21 17 18 1
22 17 22 1
23 18 19 1
24 19 20 1
25 20 21 2
26 22 23 2
27 23 24 1
28 24 25 2
29 24 26 1
30 8 27 1
31 9 28 1
32 10 29 1
33 13 30 1
34 18 31 1
35 22 32 1
36 23 33 1
37 25 34 1
@<TRIPOS>SUBSTRUCTURE
1	UNK0	1	GROUP	1 ****	UNK
