# created with PyMOL 2.3.2
@<TRIPOS>MOLECULE
997
37 40 1                 
SMALL
USER_CHARGES
@<TRIPOS>ATOM
1	   S	3.732	0.870	1.511	S.3	1	UNK0	0.000	
2	   C	4.155	-0.514	2.502	C.3	1	UNK0	0.000	
3	   C	3.230	-1.583	2.524	C.2	1	UNK0	0.000	
4	   O	3.419	-2.424	3.605	O.co2	1	UNK0	0.000	
5	   O	2.213	-2.005	1.790	O.co2	1	UNK0	0.000	
6	   C	3.756	0.786	-0.240	C.2	1	UNK0	0.000	
7	   N	2.709	0.508	-1.082	N.pl3	1	UNK0	0.000	
8	   C	3.226	0.597	-2.344	C.2	1	UNK0	0.000	
9	   N	4.572	0.922	-2.259	N.2	1	UNK0	0.000	
10	   N	4.804	1.012	-0.993	N.2	1	UNK0	0.000	
11	  Br	2.294	0.378	-3.993	Br	1	UNK0	0.000	
12	   C	1.382	0.247	-0.740	C.2	1	UNK0	0.000	
13	   C	0.514	1.324	-0.443	C.2	1	UNK0	0.000	
14	   C	-0.789	1.073	-0.065	C.2	1	UNK0	0.000	
15	   C	-1.319	-0.176	0.059	C.2	1	UNK0	0.000	
16	   C	-0.469	-1.244	-0.234	C.2	1	UNK0	0.000	
17	   C	0.818	-0.998	-0.614	C.2	1	UNK0	0.000	
18	   C	-2.760	-0.373	0.442	C.3	1	UNK0	0.000	
19	   C	-2.959	-1.110	1.775	C.3	1	UNK0	0.000	
20	   C	-3.224	-1.866	0.552	C.3	1	UNK0	0.000	
21	   C	-1.562	2.211	0.252	C.2	1	UNK0	0.000	
22	   C	-0.987	3.420	0.171	C.2	1	UNK0	0.000	
23	   C	0.309	3.700	-0.205	C.2	1	UNK0	0.000	
24	   C	1.090	2.587	-0.527	C.2	1	UNK0	0.000	
25	   H	4.344	-0.156	3.581	 H	1	UNK0	0.000	
26	   H	5.211	-0.937	2.254	 H	1	UNK0	0.000	
27	   H	-0.809	-2.243	-0.215	 H	1	UNK0	0.000	
28	   H	1.457	-1.865	-0.863	 H	1	UNK0	0.000	
29	   H	-3.507	0.299	0.032	 H	1	UNK0	0.000	
30	   H	-3.861	-0.747	2.373	 H	1	UNK0	0.000	
31	   H	-2.047	-1.190	2.378	 H	1	UNK0	0.000	
32	   H	-2.610	-2.668	0.191	 H	1	UNK0	0.000	
33	   H	-4.323	-2.051	0.301	 H	1	UNK0	0.000	
34	   H	-2.603	1.999	0.547	 H	1	UNK0	0.000	
35	   H	-1.645	4.304	0.482	 H	1	UNK0	0.000	
36	   H	0.692	4.681	-0.244	 H	1	UNK0	0.000	
37	   H	2.112	2.716	-0.825	 H	1	UNK0	0.000	
@<TRIPOS>BOND
1 1 2 1
2 1 6 1
3 2 3 1
4 3 4 2
5 3 5 1
6 6 7 1
7 6 10 2
8 7 8 1
9 7 12 1
10 8 9 2
11 8 11 1
12 9 10 1
13 12 13 1
14 12 17 2
15 13 14 2
16 13 24 1
17 14 15 1
18 14 21 1
19 15 16 2
20 15 18 1
21 16 17 1
22 18 19 1
23 18 20 1
24 19 20 1
25 21 22 2
26 22 23 1
27 23 24 2
28 2 25 1
29 2 26 1
30 16 27 1
31 17 28 1
32 18 29 1
33 19 30 1
34 19 31 1
35 20 32 1
36 20 33 1
37 21 34 1
38 22 35 1
39 23 36 1
40 24 37 1
@<TRIPOS>SUBSTRUCTURE
1	UNK0	1	GROUP	1 ****	UNK
