# created with PyMOL 2.3.2
@<TRIPOS>MOLECULE
1000
34 37 1                 
SMALL
USER_CHARGES
@<TRIPOS>ATOM
1	   P	-0.709	3.346	-3.796	P.3	1	UNK0	0.000	
2	   O	-1.960	3.128	-4.632	O.co2	1	UNK0	0.000	
3	   O	-1.138	3.188	-2.179	O.3	1	UNK0	0.000	
4	   C	-0.199	2.370	-1.575	C.3	1	UNK0	0.000	
5	   C	-0.227	1.049	-2.356	C.3	1	UNK0	0.000	
6	   O	0.337	0.200	-1.411	O.3	1	UNK0	0.000	
7	   C	-0.561	0.405	-0.342	C.3	1	UNK0	0.000	
8	   C	-0.628	1.894	-0.205	C.3	1	UNK0	0.000	
9	   O	-1.977	2.292	-0.063	O.3	1	UNK0	0.000	
10	   N	-0.136	-0.280	0.835	N.pl3	1	UNK0	0.000	
11	   C	0.899	-1.126	0.985	C.2	1	UNK0	0.000	
12	   N	1.823	-1.585	0.140	N.2	1	UNK0	0.000	
13	   C	2.772	-2.449	0.571	C.2	1	UNK0	0.000	
14	   N	2.806	-2.864	1.854	N.2	1	UNK0	0.000	
15	   C	1.903	-2.441	2.763	C.2	1	UNK0	0.000	
16	   C	0.940	-1.559	2.310	C.2	1	UNK0	0.000	
17	   N	-0.077	-0.961	2.932	N.2	1	UNK0	0.000	
18	   C	-0.720	-0.191	2.032	C.2	1	UNK0	0.000	
19	  Br	-2.249	0.856	2.479	Br	1	UNK0	0.000	
20	   N	1.961	-2.894	4.111	N.pl3	1	UNK0	0.000	
21	   C	0.647	1.177	-3.556	C.3	1	UNK0	0.000	
22	   O	0.498	2.317	-4.278	O.3	1	UNK0	0.000	
23	   O	-0.177	4.956	-4.016	O.3	1	UNK0	0.000	
24	   H	0.823	2.744	-1.606	 H	1	UNK0	0.000	
25	   H	-1.244	0.715	-2.556	 H	1	UNK0	0.000	
26	   H	-1.547	0.061	-0.723	 H	1	UNK0	0.000	
27	   H	0.003	2.287	0.594	 H	1	UNK0	0.000	
28	   H	-2.473	1.778	-0.754	 H	1	UNK0	0.000	
29	   H	3.503	-2.801	-0.134	 H	1	UNK0	0.000	
30	   H	1.177	-3.388	4.591	 H	1	UNK0	0.000	
31	   H	2.831	-2.736	4.681	 H	1	UNK0	0.000	
32	   H	0.410	0.307	-4.236	 H	1	UNK0	0.000	
33	   H	1.707	0.980	-3.234	 H	1	UNK0	0.000	
34	   H	0.594	4.992	-4.629	 H	1	UNK0	0.000	
@<TRIPOS>BOND
1 1 2 2
2 1 3 1
3 1 22 1
4 1 23 1
5 3 4 1
6 4 5 1
7 4 8 1
8 5 6 1
9 5 21 1
10 6 7 1
11 7 8 1
12 7 10 1
13 8 9 1
14 10 11 1
15 10 18 1
16 11 12 2
17 11 16 1
18 12 13 1
19 13 14 2
20 14 15 1
21 15 16 2
22 15 20 1
23 16 17 1
24 17 18 2
25 18 19 1
26 21 22 1
27 4 24 1
28 5 25 1
29 7 26 1
30 8 27 1
31 9 28 1
32 13 29 1
33 20 30 1
34 20 31 1
35 21 32 1
36 21 33 1
37 23 34 1
@<TRIPOS>SUBSTRUCTURE
1	UNK0	1	GROUP	1 ****	UNK
