# created with PyMOL 2.3.2
@<TRIPOS>MOLECULE
1006
41 44 1                 
SMALL
USER_CHARGES
@<TRIPOS>ATOM
1	   S	0.951	1.150	-3.271	S.O2	1	UNK0	0.000	
2	   O	-0.047	1.129	-4.368	O.2	1	UNK0	0.000	
3	   O	1.933	2.247	-3.537	O.2	1	UNK0	0.000	
4	   N	1.727	-0.388	-3.104	N.3	1	UNK0	0.000	
5	   C	2.699	-0.361	-2.027	C.3	1	UNK0	0.000	
6	   C	2.438	-0.750	-4.316	C.3	1	UNK0	0.000	
7	   C	0.102	1.505	-1.780	C.2	1	UNK0	0.000	
8	   C	-1.197	1.135	-1.566	C.2	1	UNK0	0.000	
9	   C	-1.802	1.446	-0.373	C.2	1	UNK0	0.000	
10	   N	-3.051	1.215	0.117	N.pl3	1	UNK0	0.000	
11	   N	-3.169	1.707	1.323	N.2	1	UNK0	0.000	
12	   N	-2.012	2.266	1.650	N.2	1	UNK0	0.000	
13	   C	-1.142	2.121	0.618	C.2	1	UNK0	0.000	
14	   C	0.168	2.501	0.416	C.2	1	UNK0	0.000	
15	   C	0.766	2.183	-0.785	C.2	1	UNK0	0.000	
16	   O	-4.049	0.549	-0.583	O.3	1	UNK0	0.000	
17	   C	-3.933	-0.864	-0.753	C.3	1	UNK0	0.000	
18	   C	-3.897	-1.522	0.577	C.2	1	UNK0	0.000	
19	   N	-4.968	-1.956	1.264	N.2	1	UNK0	0.000	
20	   N	-4.549	-2.485	2.402	N.2	1	UNK0	0.000	
21	   C	-3.201	-2.372	2.412	C.2	1	UNK0	0.000	
22	   O	-2.842	-1.794	1.313	O.3	1	UNK0	0.000	
23	   C	-2.359	-2.836	3.495	C.2	1	UNK0	0.000	
24	   O	-2.708	-3.420	4.608	O.3	1	UNK0	0.000	
25	   C	-1.678	-3.700	5.353	C.2	1	UNK0	0.000	
26	   C	-0.519	-3.275	4.702	C.2	1	UNK0	0.000	
27	   C	-0.971	-2.727	3.520	C.2	1	UNK0	0.000	
28	  Br	-1.707	-4.544	7.048	Br	1	UNK0	0.000	
29	   H	2.320	0.148	-1.132	 H	1	UNK0	0.000	
30	   H	2.859	-1.434	-1.721	 H	1	UNK0	0.000	
31	   H	3.684	0.046	-2.354	 H	1	UNK0	0.000	
32	   H	1.949	-0.354	-5.223	 H	1	UNK0	0.000	
33	   H	2.412	-1.863	-4.371	 H	1	UNK0	0.000	
34	   H	3.497	-0.466	-4.216	 H	1	UNK0	0.000	
35	   H	-1.703	0.606	-2.352	 H	1	UNK0	0.000	
36	   H	0.676	3.032	1.205	 H	1	UNK0	0.000	
37	   H	1.812	2.487	-0.946	 H	1	UNK0	0.000	
38	   H	-4.812	-1.204	-1.328	 H	1	UNK0	0.000	
39	   H	-3.039	-1.108	-1.332	 H	1	UNK0	0.000	
40	   H	0.509	-3.361	5.057	 H	1	UNK0	0.000	
41	   H	-0.340	-2.296	2.763	 H	1	UNK0	0.000	
@<TRIPOS>BOND
1 1 2 2
2 1 3 2
3 1 4 1
4 1 7 1
5 4 5 1
6 4 6 1
7 7 8 2
8 7 15 1
9 8 9 1
10 9 10 1
11 9 13 2
12 10 11 1
13 10 16 1
14 11 12 2
15 12 13 1
16 13 14 1
17 14 15 2
18 16 17 1
19 17 18 1
20 18 19 2
21 18 22 1
22 19 20 1
23 20 21 2
24 21 22 1
25 21 23 1
26 23 24 1
27 23 27 2
28 24 25 1
29 25 26 2
30 25 28 1
31 26 27 1
32 5 29 1
33 5 30 1
34 5 31 1
35 6 32 1
36 6 33 1
37 6 34 1
38 8 35 1
39 14 36 1
40 15 37 1
41 17 38 1
42 17 39 1
43 26 40 1
44 27 41 1
@<TRIPOS>SUBSTRUCTURE
1	UNK0	1	GROUP	1 ****	UNK
