# created with PyMOL 2.3.2
@<TRIPOS>MOLECULE
1007
48 51 1                 
SMALL
USER_CHARGES
@<TRIPOS>ATOM
1	   S	-2.924	-0.497	-1.661	S.O2	1	UNK0	0.000	
2	   O	-3.171	-1.398	-2.947	O.2	1	UNK0	0.000	
3	   O	-4.176	0.152	-1.634	O.2	1	UNK0	0.000	
4	   N	-1.377	-0.518	-1.538	N.2	1	UNK0	0.000	
5	   C	-0.382	0.185	-1.325	C.2	1	UNK0	0.000	
6	   C	-0.634	1.584	-1.095	C.2	1	UNK0	0.000	
7	   C	0.398	2.395	-0.652	C.2	1	UNK0	0.000	
8	   C	0.117	3.740	-0.454	C.2	1	UNK0	0.000	
9	   C	-1.145	4.231	-0.695	C.2	1	UNK0	0.000	
10	   C	-2.131	3.399	-1.134	C.2	1	UNK0	0.000	
11	   C	-1.891	2.056	-1.344	C.2	1	UNK0	0.000	
12	   C	1.779	1.887	-0.412	C.3	1	UNK0	0.000	
13	   O	2.749	2.679	-0.981	O.3	1	UNK0	0.000	
14	   C	3.954	2.069	-1.172	C.3	1	UNK0	0.000	
15	   C	4.253	0.930	-0.222	C.3	1	UNK0	0.000	
16	   N	3.223	-0.090	-0.494	N.pl3	1	UNK0	0.000	
17	   C	1.918	0.449	-0.693	C.2	1	UNK0	0.000	
18	   C	0.966	-0.335	-1.100	C.2	1	UNK0	0.000	
19	   C	3.526	-1.480	-0.544	C.3	1	UNK0	0.000	
20	   C	3.885	-1.964	0.864	C.3	1	UNK0	0.000	
21	   O	4.190	-3.312	0.863	O.3	1	UNK0	0.000	
22	   O	1.964	2.015	0.990	O.3	1	UNK0	0.000	
23	   C	-3.368	-1.771	-0.393	C.2	1	UNK0	0.000	
24	   C	-3.842	-1.350	0.822	C.2	1	UNK0	0.000	
25	   C	-4.154	-2.257	1.814	C.2	1	UNK0	0.000	
26	   C	-3.982	-3.600	1.568	C.2	1	UNK0	0.000	
27	   C	-3.506	-4.000	0.343	C.2	1	UNK0	0.000	
28	   C	-3.191	-3.077	-0.658	C.2	1	UNK0	0.000	
29	  Br	-4.406	-4.885	2.924	Br	1	UNK0	0.000	
30	   H	0.917	4.375	-0.107	 H	1	UNK0	0.000	
31	   H	-1.342	5.299	-0.524	 H	1	UNK0	0.000	
32	   H	-3.105	3.794	-1.317	 H	1	UNK0	0.000	
33	   H	-2.657	1.522	-1.746	 H	1	UNK0	0.000	
34	   H	4.756	2.858	-1.075	 H	1	UNK0	0.000	
35	   H	4.006	1.683	-2.232	 H	1	UNK0	0.000	
36	   H	4.160	1.276	0.803	 H	1	UNK0	0.000	
37	   H	5.259	0.536	-0.478	 H	1	UNK0	0.000	
38	   H	1.097	-1.387	-1.294	 H	1	UNK0	0.000	
39	   H	2.864	-2.137	-1.082	 H	1	UNK0	0.000	
40	   H	4.518	-1.543	-1.113	 H	1	UNK0	0.000	
41	   H	4.782	-1.407	1.197	 H	1	UNK0	0.000	
42	   H	3.060	-1.738	1.565	 H	1	UNK0	0.000	
43	   H	3.917	-3.793	1.675	 H	1	UNK0	0.000	
44	   H	1.249	1.502	1.407	 H	1	UNK0	0.000	
45	   H	-3.971	-0.285	0.998	 H	1	UNK0	0.000	
46	   H	-4.528	-1.933	2.773	 H	1	UNK0	0.000	
47	   H	-3.362	-5.040	0.127	 H	1	UNK0	0.000	
48	   H	-2.808	-3.347	-1.626	 H	1	UNK0	0.000	
@<TRIPOS>BOND
1 1 2 2
2 1 3 2
3 1 4 1
4 1 23 1
5 4 5 2
6 5 6 1
7 5 18 1
8 6 7 1
9 6 11 2
10 7 8 2
11 7 12 1
12 8 9 1
13 9 10 2
14 10 11 1
15 12 13 1
16 12 17 1
17 12 22 1
18 13 14 1
19 14 15 1
20 15 16 1
21 16 17 1
22 16 19 1
23 17 18 2
24 19 20 1
25 20 21 1
26 23 24 2
27 23 28 1
28 24 25 1
29 25 26 2
30 26 27 1
31 26 29 1
32 27 28 2
33 8 30 1
34 9 31 1
35 10 32 1
36 11 33 1
37 14 34 1
38 14 35 1
39 15 36 1
40 15 37 1
41 18 38 1
42 19 39 1
43 19 40 1
44 20 41 1
45 20 42 1
46 21 43 1
47 22 44 1
48 24 45 1
49 25 46 1
50 27 47 1
51 28 48 1
@<TRIPOS>SUBSTRUCTURE
1	UNK0	1	GROUP	1 ****	UNK
