# created with PyMOL 2.3.2
@<TRIPOS>MOLECULE
1009
61 64 1                 
SMALL
USER_CHARGES
@<TRIPOS>ATOM
1	   S	2.932	8.077	4.640	S.O2	1	UNK0	0.000	
2	   O	2.246	8.448	5.930	O.2	1	UNK0	0.000	
3	   O	3.084	9.210	3.698	O.2	1	UNK0	0.000	
4	   N	4.471	7.420	5.046	N.3	1	UNK0	0.000	
5	   C	1.999	6.790	3.856	C.2	1	UNK0	0.000	
6	   C	1.112	6.025	4.557	C.2	1	UNK0	0.000	
7	   C	0.377	5.016	3.972	C.2	1	UNK0	0.000	
8	   C	0.542	4.769	2.638	C.2	1	UNK0	0.000	
9	   C	1.427	5.517	1.895	C.2	1	UNK0	0.000	
10	   C	2.144	6.517	2.507	C.2	1	UNK0	0.000	
11	   C	-0.218	3.695	1.942	C.3	1	UNK0	0.000	
12	   C	0.571	2.381	2.034	C.3	1	UNK0	0.000	
13	   N	-0.174	1.335	1.365	N.pl3	1	UNK0	0.000	
14	   C	-0.500	1.383	-0.012	C.2	1	UNK0	0.000	
15	   O	-0.152	2.338	-0.739	O.2	1	UNK0	0.000	
16	   C	-1.279	0.282	-0.642	C.3	1	UNK0	0.000	
17	   C	-1.307	0.309	-2.124	C.3	1	UNK0	0.000	
18	   S	0.219	0.078	-2.951	S.O2	1	UNK0	0.000	
19	   O	1.161	1.194	-2.599	O.2	1	UNK0	0.000	
20	   O	-0.059	0.276	-4.443	O.2	1	UNK0	0.000	
21	   C	0.931	-1.477	-2.683	C.2	1	UNK0	0.000	
22	   C	0.261	-2.482	-2.044	C.2	1	UNK0	0.000	
23	   C	0.833	-3.726	-1.865	C.2	1	UNK0	0.000	
24	   C	2.108	-4.007	-2.326	C.2	1	UNK0	0.000	
25	   C	2.770	-3.000	-2.965	C.2	1	UNK0	0.000	
26	   C	2.198	-1.733	-3.151	C.2	1	UNK0	0.000	
27	  Br	3.268	-0.452	-4.072	Br	1	UNK0	0.000	
28	   C	2.474	-5.405	-1.954	C.3	1	UNK0	0.000	
29	   C	1.547	-5.643	-0.760	C.3	1	UNK0	0.000	
30	   N	0.326	-4.908	-1.224	N.pl3	1	UNK0	0.000	
31	   C	-0.956	-5.426	-1.056	C.2	1	UNK0	0.000	
32	   O	-1.102	-6.299	-0.076	O.2	1	UNK0	0.000	
33	   C	-2.157	-5.110	-1.849	C.3	1	UNK0	0.000	
34	   C	-2.161	-4.374	-3.093	C.3	1	UNK0	0.000	
35	   C	-2.271	-5.868	-3.183	C.3	1	UNK0	0.000	
36	   H	5.274	7.990	4.686	 H	1	UNK0	0.000	
37	   H	4.606	7.362	6.083	 H	1	UNK0	0.000	
38	   H	0.983	6.219	5.613	 H	1	UNK0	0.000	
39	   H	-0.333	4.413	4.547	 H	1	UNK0	0.000	
40	   H	1.557	5.316	0.819	 H	1	UNK0	0.000	
41	   H	2.841	7.116	1.934	 H	1	UNK0	0.000	
42	   H	-1.202	3.536	2.413	 H	1	UNK0	0.000	
43	   H	-0.365	4.004	0.904	 H	1	UNK0	0.000	
44	   H	1.566	2.560	1.612	 H	1	UNK0	0.000	
45	   H	0.689	2.173	3.112	 H	1	UNK0	0.000	
46	   H	-0.476	0.518	1.936	 H	1	UNK0	0.000	
47	   H	-2.345	0.484	-0.313	 H	1	UNK0	0.000	
48	   H	-1.043	-0.686	-0.177	 H	1	UNK0	0.000	
49	   H	-1.805	1.259	-2.449	 H	1	UNK0	0.000	
50	   H	-2.046	-0.491	-2.433	 H	1	UNK0	0.000	
51	   H	-0.729	-2.357	-1.673	 H	1	UNK0	0.000	
52	   H	3.772	-3.206	-3.335	 H	1	UNK0	0.000	
53	   H	2.181	-6.092	-2.769	 H	1	UNK0	0.000	
54	   H	3.529	-5.545	-1.713	 H	1	UNK0	0.000	
55	   H	1.320	-6.696	-0.619	 H	1	UNK0	0.000	
56	   H	1.975	-5.174	0.123	 H	1	UNK0	0.000	
57	   H	-3.101	-5.325	-1.250	 H	1	UNK0	0.000	
58	   H	-1.311	-3.948	-3.647	 H	1	UNK0	0.000	
59	   H	-3.132	-3.795	-3.295	 H	1	UNK0	0.000	
60	   H	-3.262	-6.247	-3.446	 H	1	UNK0	0.000	
61	   H	-1.417	-6.487	-3.466	 H	1	UNK0	0.000	
@<TRIPOS>BOND
1 1 2 2
2 1 3 2
3 1 4 1
4 1 5 1
5 5 6 2
6 5 10 1
7 6 7 1
8 7 8 2
9 8 9 1
10 8 11 1
11 9 10 2
12 11 12 1
13 12 13 1
14 13 14 1
15 14 15 2
16 14 16 1
17 16 17 1
18 17 18 1
19 18 19 2
20 18 20 2
21 18 21 1
22 21 22 2
23 21 26 1
24 22 23 1
25 23 24 2
26 23 30 1
27 24 25 1
28 24 28 1
29 25 26 2
30 26 27 1
31 28 29 1
32 29 30 1
33 30 31 1
34 31 32 2
35 31 33 1
36 33 34 1
37 33 35 1
38 34 35 1
39 4 36 1
40 4 37 1
41 6 38 1
42 7 39 1
43 9 40 1
44 10 41 1
45 11 42 1
46 11 43 1
47 12 44 1
48 12 45 1
49 13 46 1
50 16 47 1
51 16 48 1
52 17 49 1
53 17 50 1
54 22 51 1
55 25 52 1
56 28 53 1
57 28 54 1
58 29 55 1
59 29 56 1
60 33 57 1
61 34 58 1
62 34 59 1
63 35 60 1
64 35 61 1
@<TRIPOS>SUBSTRUCTURE
1	UNK0	1	GROUP	1 ****	UNK
