# created with PyMOL 2.3.2
@<TRIPOS>MOLECULE
1010
52 55 1                 
SMALL
USER_CHARGES
@<TRIPOS>ATOM
1	   S	-2.595	-2.991	-2.231	S.O2	1	UNK0	0.000	
2	   O	-3.028	-2.340	-3.513	O.2	1	UNK0	0.000	
3	   O	-3.591	-4.090	-1.935	O.2	1	UNK0	0.000	
4	   N	-2.717	-1.819	-0.928	N.3	1	UNK0	0.000	
5	   C	-2.433	-2.473	0.331	C.3	1	UNK0	0.000	
6	   C	-2.493	-1.568	1.460	C.2	1	UNK0	0.000	
7	   O	-2.311	-2.213	2.601	O.2	1	UNK0	0.000	
8	   N	-2.700	-0.188	1.549	N.pl3	1	UNK0	0.000	
9	   C	-2.847	0.777	0.527	C.3	1	UNK0	0.000	
10	   C	-1.904	1.945	0.823	C.3	1	UNK0	0.000	
11	   N	-1.010	1.676	1.879	N.3	1	UNK0	0.000	
12	   C	-1.599	1.268	3.111	C.3	1	UNK0	0.000	
13	   C	-2.811	0.382	2.922	C.3	1	UNK0	0.000	
14	   C	0.226	1.079	1.540	C.3	1	UNK0	0.000	
15	   C	0.985	1.987	0.632	C.2	1	UNK0	0.000	
16	   C	0.726	3.333	0.501	C.2	1	UNK0	0.000	
17	   C	1.443	4.156	-0.360	C.2	1	UNK0	0.000	
18	   C	2.470	3.640	-1.136	C.2	1	UNK0	0.000	
19	   C	2.733	2.293	-1.008	C.2	1	UNK0	0.000	
20	   C	2.020	1.476	-0.153	C.2	1	UNK0	0.000	
21	   O	3.007	4.684	-1.894	O.3	1	UNK0	0.000	
22	   C	2.627	5.914	-1.257	C.3	1	UNK0	0.000	
23	   O	1.393	5.507	-0.679	O.3	1	UNK0	0.000	
24	   C	-0.999	-3.643	-2.333	C.2	1	UNK0	0.000	
25	   C	-0.036	-3.041	-3.113	C.2	1	UNK0	0.000	
26	   C	1.244	-3.544	-3.217	C.2	1	UNK0	0.000	
27	   C	1.557	-4.688	-2.511	C.2	1	UNK0	0.000	
28	   C	0.604	-5.309	-1.722	C.2	1	UNK0	0.000	
29	   C	-0.663	-4.787	-1.636	C.2	1	UNK0	0.000	
30	  Br	3.331	-5.413	-2.632	Br	1	UNK0	0.000	
31	   H	-3.750	-1.498	-0.919	 H	1	UNK0	0.000	
32	   H	-3.250	-3.245	0.475	 H	1	UNK0	0.000	
33	   H	-1.478	-3.041	0.247	 H	1	UNK0	0.000	
34	   H	-3.887	1.215	0.645	 H	1	UNK0	0.000	
35	   H	-2.763	0.470	-0.510	 H	1	UNK0	0.000	
36	   H	-1.346	2.163	-0.138	 H	1	UNK0	0.000	
37	   H	-2.478	2.867	1.037	 H	1	UNK0	0.000	
38	   H	-0.816	0.792	3.731	 H	1	UNK0	0.000	
39	   H	-1.948	2.168	3.660	 H	1	UNK0	0.000	
40	   H	-3.766	0.949	2.906	 H	1	UNK0	0.000	
41	   H	-2.818	-0.406	3.684	 H	1	UNK0	0.000	
42	   H	0.788	0.852	2.477	 H	1	UNK0	0.000	
43	   H	0.087	0.119	0.991	 H	1	UNK0	0.000	
44	   H	-0.069	3.750	1.105	 H	1	UNK0	0.000	
45	   H	3.545	1.895	-1.626	 H	1	UNK0	0.000	
46	   H	2.272	0.417	-0.092	 H	1	UNK0	0.000	
47	   H	3.365	6.238	-0.514	 H	1	UNK0	0.000	
48	   H	2.468	6.641	-2.089	 H	1	UNK0	0.000	
49	   H	-0.234	-2.136	-3.689	 H	1	UNK0	0.000	
50	   H	2.006	-3.077	-3.827	 H	1	UNK0	0.000	
51	   H	0.834	-6.216	-1.157	 H	1	UNK0	0.000	
52	   H	-1.385	-5.308	-1.004	 H	1	UNK0	0.000	
@<TRIPOS>BOND
1 1 2 2
2 1 3 2
3 1 4 1
4 1 24 1
5 4 5 1
6 5 6 1
7 6 7 2
8 6 8 1
9 8 9 1
10 8 13 1
11 9 10 1
12 10 11 1
13 11 12 1
14 11 14 1
15 12 13 1
16 14 15 1
17 15 16 2
18 15 20 1
19 16 17 1
20 17 18 2
21 17 23 1
22 18 19 1
23 18 21 1
24 19 20 2
25 21 22 1
26 22 23 1
27 24 25 2
28 24 29 1
29 25 26 1
30 26 27 2
31 27 28 1
32 27 30 1
33 28 29 2
34 4 31 1
35 5 32 1
36 5 33 1
37 9 34 1
38 9 35 1
39 10 36 1
40 10 37 1
41 12 38 1
42 12 39 1
43 13 40 1
44 13 41 1
45 14 42 1
46 14 43 1
47 16 44 1
48 19 45 1
49 20 46 1
50 22 47 1
51 22 48 1
52 25 49 1
53 26 50 1
54 28 51 1
55 29 52 1
@<TRIPOS>SUBSTRUCTURE
1	UNK0	1	GROUP	1 ****	UNK
