# created with PyMOL 2.3.2
@<TRIPOS>MOLECULE
1012
58 61 1                 
SMALL
USER_CHARGES
@<TRIPOS>ATOM
1	   S	-1.790	-0.813	-1.023	S.O2	1	UNK0	0.000	
2	   O	-2.450	0.004	0.115	O.2	1	UNK0	0.000	
3	   O	-0.746	0.227	-1.685	O.2	1	UNK0	0.000	
4	   N	-2.840	-0.868	-2.311	N.3	1	UNK0	0.000	
5	   C	-3.969	-0.115	-1.900	C.3	1	UNK0	0.000	
6	   C	-3.934	1.066	-2.932	C.3	1	UNK0	0.000	
7	   N	-2.769	1.908	-2.271	N.3	1	UNK0	0.000	
8	   C	-2.252	2.772	-3.290	C.3	1	UNK0	0.000	
9	   C	-1.539	4.016	-2.760	C.3	1	UNK0	0.000	
10	   N	-1.101	3.846	-1.418	N.3	1	UNK0	0.000	
11	   C	-2.069	3.364	-0.496	C.3	1	UNK0	0.000	
12	   C	-3.292	2.792	-1.243	C.3	1	UNK0	0.000	
13	   C	0.220	3.330	-1.231	C.3	1	UNK0	0.000	
14	   C	1.293	4.399	-1.235	C.3	1	UNK0	0.000	
15	   C	-0.937	-2.028	-0.311	C.2	1	UNK0	0.000	
16	   C	-0.021	-1.815	0.620	C.2	1	UNK0	0.000	
17	   C	0.783	-2.645	1.220	C.2	1	UNK0	0.000	
18	   C	0.575	-4.015	0.920	C.2	1	UNK0	0.000	
19	   C	-0.427	-4.296	0.007	C.2	1	UNK0	0.000	
20	   C	-1.196	-3.362	-0.648	C.2	1	UNK0	0.000	
21	  Br	-2.541	-3.724	-1.900	Br	1	UNK0	0.000	
22	   C	1.395	-4.805	1.860	C.3	1	UNK0	0.000	
23	   C	2.455	-3.861	2.329	C.3	1	UNK0	0.000	
24	   N	1.959	-2.554	2.062	N.pl3	1	UNK0	0.000	
25	   C	2.516	-1.260	2.268	C.2	1	UNK0	0.000	
26	   O	3.732	-1.185	1.981	O.2	1	UNK0	0.000	
27	   C	1.826	-0.079	2.739	C.3	1	UNK0	0.000	
28	   C	0.794	-0.063	3.812	C.3	1	UNK0	0.000	
29	   C	2.075	0.626	4.035	C.3	1	UNK0	0.000	
30	   H	-2.627	-1.101	-3.202	 H	1	UNK0	0.000	
31	   H	-4.915	-0.658	-2.476	 H	1	UNK0	0.000	
32	   H	-4.283	0.023	-0.973	 H	1	UNK0	0.000	
33	   H	-3.506	0.778	-3.846	 H	1	UNK0	0.000	
34	   H	-4.757	1.643	-2.893	 H	1	UNK0	0.000	
35	   H	-3.110	3.121	-3.889	 H	1	UNK0	0.000	
36	   H	-1.602	2.196	-3.997	 H	1	UNK0	0.000	
37	   H	-2.219	4.892	-2.806	 H	1	UNK0	0.000	
38	   H	-0.677	4.238	-3.398	 H	1	UNK0	0.000	
39	   H	-1.569	2.589	0.131	 H	1	UNK0	0.000	
40	   H	-2.377	4.165	0.224	 H	1	UNK0	0.000	
41	   H	-3.786	3.707	-1.666	 H	1	UNK0	0.000	
42	   H	-3.918	2.302	-0.478	 H	1	UNK0	0.000	
43	   H	0.518	2.641	-2.074	 H	1	UNK0	0.000	
44	   H	0.324	2.747	-0.305	 H	1	UNK0	0.000	
45	   H	1.181	5.134	-2.026	 H	1	UNK0	0.000	
46	   H	1.341	4.865	-0.206	 H	1	UNK0	0.000	
47	   H	2.266	3.870	-1.355	 H	1	UNK0	0.000	
48	   H	-0.005	-0.730	1.079	 H	1	UNK0	0.000	
49	   H	-0.655	-5.355	-0.237	 H	1	UNK0	0.000	
50	   H	1.827	-5.698	1.407	 H	1	UNK0	0.000	
51	   H	0.760	-5.089	2.772	 H	1	UNK0	0.000	
52	   H	2.760	-4.052	3.357	 H	1	UNK0	0.000	
53	   H	3.385	-4.039	1.697	 H	1	UNK0	0.000	
54	   H	1.760	0.678	1.882	 H	1	UNK0	0.000	
55	   H	0.588	-1.087	4.215	 H	1	UNK0	0.000	
56	   H	-0.139	0.478	3.532	 H	1	UNK0	0.000	
57	   H	2.000	1.751	4.084	 H	1	UNK0	0.000	
58	   H	2.808	0.186	4.725	 H	1	UNK0	0.000	
@<TRIPOS>BOND
1 1 2 2
2 1 3 2
3 1 4 1
4 1 15 1
5 4 5 1
6 5 6 1
7 6 7 1
8 7 8 1
9 7 12 1
10 8 9 1
11 9 10 1
12 10 11 1
13 10 13 1
14 11 12 1
15 13 14 1
16 15 16 2
17 15 20 1
18 16 17 1
19 17 18 2
20 17 24 1
21 18 19 1
22 18 22 1
23 19 20 2
24 20 21 1
25 22 23 1
26 23 24 1
27 24 25 1
28 25 26 2
29 25 27 1
30 27 28 1
31 27 29 1
32 28 29 1
33 4 30 1
34 5 31 1
35 5 32 1
36 6 33 1
37 6 34 1
38 8 35 1
39 8 36 1
40 9 37 1
41 9 38 1
42 11 39 1
43 11 40 1
44 12 41 1
45 12 42 1
46 13 43 1
47 13 44 1
48 14 45 1
49 14 46 1
50 14 47 1
51 16 48 1
52 19 49 1
53 22 50 1
54 22 51 1
55 23 52 1
56 23 53 1
57 27 54 1
58 28 55 1
59 28 56 1
60 29 57 1
61 29 58 1
@<TRIPOS>SUBSTRUCTURE
1	UNK0	1	GROUP	1 ****	UNK
