# created with PyMOL 2.3.2
@<TRIPOS>MOLECULE
1013
45 48 1                 
SMALL
USER_CHARGES
@<TRIPOS>ATOM
1	   S	-0.921	1.104	2.975	S.O2	1	UNK0	0.000	
2	   O	-0.036	1.033	4.213	O.2	1	UNK0	0.000	
3	   O	-2.165	1.852	3.440	O.2	1	UNK0	0.000	
4	   N	-0.200	2.040	1.764	N.3	1	UNK0	0.000	
5	   C	1.018	1.552	1.214	C.3	1	UNK0	0.000	
6	   C	1.472	2.526	0.162	C.2	1	UNK0	0.000	
7	   C	2.764	2.473	-0.340	C.2	1	UNK0	0.000	
8	   C	3.203	3.361	-1.316	C.2	1	UNK0	0.000	
9	   C	2.363	4.327	-1.817	C.2	1	UNK0	0.000	
10	   C	1.082	4.387	-1.326	C.2	1	UNK0	0.000	
11	   C	0.646	3.503	-0.355	C.2	1	UNK0	0.000	
12	   O	3.085	5.045	-2.763	O.3	1	UNK0	0.000	
13	   C	4.260	4.332	-3.108	C.3	1	UNK0	0.000	
14	   O	4.421	3.511	-1.968	O.3	1	UNK0	0.000	
15	   C	-1.414	-0.491	2.479	C.2	1	UNK0	0.000	
16	   C	-1.370	-0.947	1.180	C.2	1	UNK0	0.000	
17	   C	-1.797	-2.214	0.841	C.2	1	UNK0	0.000	
18	   C	-2.293	-3.092	1.781	C.2	1	UNK0	0.000	
19	   C	-2.346	-2.654	3.085	C.2	1	UNK0	0.000	
20	   C	-1.921	-1.395	3.423	C.2	1	UNK0	0.000	
21	  Br	-2.003	-0.805	5.234	Br	1	UNK0	0.000	
22	   N	-2.717	-4.339	1.466	N.pl3	1	UNK0	0.000	
23	   C	-2.637	-4.703	0.172	C.2	1	UNK0	0.000	
24	   O	-3.012	-5.850	-0.206	O.2	1	UNK0	0.000	
25	   C	-2.148	-3.852	-0.786	C.2	1	UNK0	0.000	
26	   O	-2.066	-4.179	-2.005	O.2	1	UNK0	0.000	
27	   N	-1.729	-2.614	-0.463	N.pl3	1	UNK0	0.000	
28	   C	-1.211	-1.694	-1.437	C.3	1	UNK0	0.000	
29	   C	-3.236	-5.250	2.467	C.3	1	UNK0	0.000	
30	   H	-0.188	3.047	1.942	 H	1	UNK0	0.000	
31	   H	1.813	1.633	2.023	 H	1	UNK0	0.000	
32	   H	1.062	0.529	0.876	 H	1	UNK0	0.000	
33	   H	3.417	1.712	0.058	 H	1	UNK0	0.000	
34	   H	0.408	5.133	-1.702	 H	1	UNK0	0.000	
35	   H	-0.366	3.572	0.010	 H	1	UNK0	0.000	
36	   H	5.095	5.011	-3.287	 H	1	UNK0	0.000	
37	   H	4.082	3.645	-3.970	 H	1	UNK0	0.000	
38	   H	-1.015	-0.325	0.397	 H	1	UNK0	0.000	
39	   H	-2.737	-3.345	3.822	 H	1	UNK0	0.000	
40	   H	-1.749	-0.726	-1.464	 H	1	UNK0	0.000	
41	   H	-1.384	-2.157	-2.452	 H	1	UNK0	0.000	
42	   H	-0.141	-1.532	-1.312	 H	1	UNK0	0.000	
43	   H	-4.001	-4.784	3.117	 H	1	UNK0	0.000	
44	   H	-3.781	-6.070	1.918	 H	1	UNK0	0.000	
45	   H	-2.407	-5.720	3.009	 H	1	UNK0	0.000	
@<TRIPOS>BOND
1 1 2 2
2 1 3 2
3 1 4 1
4 1 15 1
5 4 5 1
6 5 6 1
7 6 7 2
8 6 11 1
9 7 8 1
10 8 9 2
11 8 14 1
12 9 10 1
13 9 12 1
14 10 11 2
15 12 13 1
16 13 14 1
17 15 16 2
18 15 20 1
19 16 17 1
20 17 18 2
21 17 27 1
22 18 19 1
23 18 22 1
24 19 20 2
25 20 21 1
26 22 23 1
27 22 29 1
28 23 24 2
29 23 25 1
30 25 26 2
31 25 27 1
32 27 28 1
33 4 30 1
34 5 31 1
35 5 32 1
36 7 33 1
37 10 34 1
38 11 35 1
39 13 36 1
40 13 37 1
41 16 38 1
42 19 39 1
43 28 40 1
44 28 41 1
45 28 42 1
46 29 43 1
47 29 44 1
48 29 45 1
@<TRIPOS>SUBSTRUCTURE
1	UNK0	1	GROUP	1 ****	UNK
