# created with PyMOL 2.3.2
@<TRIPOS>MOLECULE
1014
44 47 1                 
SMALL
USER_CHARGES
@<TRIPOS>ATOM
1	   S	1.004	-2.125	-2.675	S.O2	1	UNK0	0.000	
2	   O	0.895	-3.624	-2.643	O.2	1	UNK0	0.000	
3	   O	1.775	-1.774	-3.912	O.2	1	UNK0	0.000	
4	   N	-0.550	-1.456	-2.640	N.pl3	1	UNK0	0.000	
5	   C	-0.818	-0.040	-2.610	C.2	1	UNK0	0.000	
6	   N	-0.190	0.756	-1.810	N.2	1	UNK0	0.000	
7	   C	-0.550	2.157	-1.876	C.3	1	UNK0	0.000	
8	   N	-1.965	2.295	-1.883	N.3	1	UNK0	0.000	
9	   C	-2.476	1.787	-3.139	C.3	1	UNK0	0.000	
10	   N	-1.790	0.552	-3.462	N.pl3	1	UNK0	0.000	
11	   C	-2.664	1.669	-0.809	C.3	1	UNK0	0.000	
12	   C	-2.282	2.179	0.534	C.2	1	UNK0	0.000	
13	   C	-1.320	1.545	1.259	C.2	1	UNK0	0.000	
14	   C	-0.955	2.003	2.498	C.2	1	UNK0	0.000	
15	   C	-1.578	3.125	3.009	C.2	1	UNK0	0.000	
16	   C	-2.556	3.767	2.269	C.2	1	UNK0	0.000	
17	   C	-2.907	3.293	1.031	C.2	1	UNK0	0.000	
18	   O	-1.066	3.410	4.255	O.3	1	UNK0	0.000	
19	   C	-0.163	2.380	4.617	C.3	1	UNK0	0.000	
20	   O	-0.024	1.582	3.465	O.3	1	UNK0	0.000	
21	   C	1.843	-1.646	-1.228	C.2	1	UNK0	0.000	
22	   C	1.810	-2.386	-0.066	C.2	1	UNK0	0.000	
23	   C	2.470	-2.002	1.063	C.2	1	UNK0	0.000	
24	   C	3.206	-0.825	1.047	C.2	1	UNK0	0.000	
25	   C	3.253	-0.063	-0.117	C.2	1	UNK0	0.000	
26	   C	2.572	-0.481	-1.243	C.2	1	UNK0	0.000	
27	  Br	4.155	-0.233	2.599	Br	1	UNK0	0.000	
28	   H	-1.381	-2.075	-2.639	 H	1	UNK0	0.000	
29	   H	-0.035	2.763	-1.108	 H	1	UNK0	0.000	
30	   H	-0.165	2.527	-2.859	 H	1	UNK0	0.000	
31	   H	-2.362	2.550	-3.948	 H	1	UNK0	0.000	
32	   H	-3.568	1.528	-3.024	 H	1	UNK0	0.000	
33	   H	-1.998	0.043	-4.362	 H	1	UNK0	0.000	
34	   H	-2.503	0.552	-0.782	 H	1	UNK0	0.000	
35	   H	-3.759	1.794	-0.915	 H	1	UNK0	0.000	
36	   H	-0.785	0.650	0.914	 H	1	UNK0	0.000	
37	   H	-3.051	4.653	2.669	 H	1	UNK0	0.000	
38	   H	-3.693	3.815	0.445	 H	1	UNK0	0.000	
39	   H	-0.544	1.790	5.484	 H	1	UNK0	0.000	
40	   H	0.834	2.816	4.908	 H	1	UNK0	0.000	
41	   H	1.236	-3.326	-0.016	 H	1	UNK0	0.000	
42	   H	2.450	-2.582	1.990	 H	1	UNK0	0.000	
43	   H	3.838	0.842	-0.077	 H	1	UNK0	0.000	
44	   H	2.646	0.158	-2.126	 H	1	UNK0	0.000	
@<TRIPOS>BOND
1 1 2 2
2 1 3 2
3 1 4 1
4 1 21 1
5 4 5 1
6 5 6 2
7 5 10 1
8 6 7 1
9 7 8 1
10 8 9 1
11 8 11 1
12 9 10 1
13 11 12 1
14 12 13 2
15 12 17 1
16 13 14 1
17 14 15 2
18 14 20 1
19 15 16 1
20 15 18 1
21 16 17 2
22 18 19 1
23 19 20 1
24 21 22 2
25 21 26 1
26 22 23 1
27 23 24 2
28 24 25 1
29 24 27 1
30 25 26 2
31 4 28 1
32 7 29 1
33 7 30 1
34 9 31 1
35 9 32 1
36 10 33 1
37 11 34 1
38 11 35 1
39 13 36 1
40 16 37 1
41 17 38 1
42 19 39 1
43 19 40 1
44 22 41 1
45 23 42 1
46 25 43 1
47 26 44 1
@<TRIPOS>SUBSTRUCTURE
1	UNK0	1	GROUP	1 ****	UNK
