# created with PyMOL 2.3.2
@<TRIPOS>MOLECULE
1015
43 46 1                 
SMALL
USER_CHARGES
@<TRIPOS>ATOM
1	   S	2.207	0.637	-2.260	S.O2	1	UNK0	0.000	
2	   O	3.584	1.344	-2.221	O.2	1	UNK0	0.000	
3	   O	2.142	0.191	-3.699	O.2	1	UNK0	0.000	
4	   N	2.387	-0.654	-1.146	N.3	1	UNK0	0.000	
5	   C	2.897	-0.093	0.131	C.3	1	UNK0	0.000	
6	   C	1.942	-0.320	1.241	C.2	1	UNK0	0.000	
7	   O	0.717	-0.333	0.970	O.2	1	UNK0	0.000	
8	   N	2.348	-0.522	2.588	N.pl3	1	UNK0	0.000	
9	   N	1.738	-0.451	3.758	N.2	1	UNK0	0.000	
10	   C	2.568	-0.738	4.768	C.2	1	UNK0	0.000	
11	   N	3.761	-1.003	4.209	N.2	1	UNK0	0.000	
12	   C	3.635	-0.873	2.875	C.2	1	UNK0	0.000	
13	   N	4.525	-1.022	1.768	N.pl3	1	UNK0	0.000	
14	   C	4.151	-0.827	0.418	C.2	1	UNK0	0.000	
15	   C	4.926	-1.304	-0.560	C.2	1	UNK0	0.000	
16	   C	1.076	1.856	-1.834	C.2	1	UNK0	0.000	
17	   C	-0.258	1.793	-2.157	C.2	1	UNK0	0.000	
18	   C	-1.173	2.749	-1.740	C.2	1	UNK0	0.000	
19	   C	-0.785	3.811	-0.980	C.2	1	UNK0	0.000	
20	   C	0.552	3.911	-0.637	C.2	1	UNK0	0.000	
21	   C	1.451	2.962	-1.053	C.2	1	UNK0	0.000	
22	  Br	1.103	5.387	0.419	Br	1	UNK0	0.000	
23	   C	-2.529	2.414	-2.281	C.3	1	UNK0	0.000	
24	   C	-2.092	1.727	-3.580	C.3	1	UNK0	0.000	
25	   N	-0.977	0.914	-3.008	N.pl3	1	UNK0	0.000	
26	   C	-0.811	-0.415	-3.286	C.2	1	UNK0	0.000	
27	   O	-0.147	-1.238	-2.694	O.2	1	UNK0	0.000	
28	   C	-1.535	-0.989	-4.500	C.3	1	UNK0	0.000	
29	   H	1.464	-1.047	-0.901	 H	1	UNK0	0.000	
30	   H	3.049	0.995	0.066	 H	1	UNK0	0.000	
31	   H	2.340	-0.757	5.846	 H	1	UNK0	0.000	
32	   H	5.532	-1.293	1.946	 H	1	UNK0	0.000	
33	   H	4.596	-1.129	-1.574	 H	1	UNK0	0.000	
34	   H	5.834	-1.836	-0.372	 H	1	UNK0	0.000	
35	   H	-1.471	4.574	-0.636	 H	1	UNK0	0.000	
36	   H	2.479	3.082	-0.777	 H	1	UNK0	0.000	
37	   H	-3.036	1.641	-1.681	 H	1	UNK0	0.000	
38	   H	-3.127	3.293	-2.517	 H	1	UNK0	0.000	
39	   H	-2.862	1.016	-3.890	 H	1	UNK0	0.000	
40	   H	-1.709	2.417	-4.319	 H	1	UNK0	0.000	
41	   H	-0.801	-1.612	-5.085	 H	1	UNK0	0.000	
42	   H	-1.870	-0.182	-5.141	 H	1	UNK0	0.000	
43	   H	-2.319	-1.641	-4.144	 H	1	UNK0	0.000	
@<TRIPOS>BOND
1 1 2 2
2 1 3 2
3 1 4 1
4 1 16 1
5 4 5 1
6 5 6 1
7 5 14 1
8 6 7 2
9 6 8 1
10 8 9 1
11 8 12 1
12 9 10 2
13 10 11 1
14 11 12 2
15 12 13 1
16 13 14 1
17 14 15 2
18 16 17 2
19 16 21 1
20 17 18 1
21 17 25 1
22 18 19 2
23 18 23 1
24 19 20 1
25 20 21 2
26 20 22 1
27 23 24 1
28 24 25 1
29 25 26 1
30 26 27 2
31 26 28 1
32 4 29 1
33 5 30 1
34 10 31 1
35 13 32 1
36 15 33 1
37 15 34 1
38 19 35 1
39 21 36 1
40 23 37 1
41 23 38 1
42 24 39 1
43 24 40 1
44 28 41 1
45 28 42 1
46 28 43 1
@<TRIPOS>SUBSTRUCTURE
1	UNK0	1	GROUP	1 ****	UNK
