# created with PyMOL 2.3.2
@<TRIPOS>MOLECULE
1016
43 46 1                 
SMALL
USER_CHARGES
@<TRIPOS>ATOM
1	   S	1.102	-3.303	-3.147	S.O2	1	UNK0	0.000	
2	   O	0.715	-3.915	-4.476	O.2	1	UNK0	0.000	
3	   O	0.906	-4.302	-2.071	O.2	1	UNK0	0.000	
4	   N	2.732	-2.824	-3.259	N.3	1	UNK0	0.000	
5	   C	3.252	-2.200	-2.089	C.3	1	UNK0	0.000	
6	   C	4.446	-1.362	-2.048	C.3	1	UNK0	0.000	
7	   C	4.574	-2.775	-1.600	C.3	1	UNK0	0.000	
8	   C	0.007	-1.957	-2.877	C.2	1	UNK0	0.000	
9	   C	-0.299	-1.549	-1.614	C.2	1	UNK0	0.000	
10	   C	-1.173	-0.479	-1.372	C.2	1	UNK0	0.000	
11	   C	-1.710	0.145	-2.456	C.2	1	UNK0	0.000	
12	   C	-1.405	-0.264	-3.749	C.2	1	UNK0	0.000	
13	   C	-0.549	-1.313	-3.952	C.2	1	UNK0	0.000	
14	  Br	-2.869	1.658	-2.256	Br	1	UNK0	0.000	
15	   C	-1.451	-0.182	0.019	C.2	1	UNK0	0.000	
16	   O	-0.520	-0.491	0.867	O.2	1	UNK0	0.000	
17	   N	-2.633	0.396	0.479	N.pl3	1	UNK0	0.000	
18	   C	-2.790	0.657	1.934	C.3	1	UNK0	0.000	
19	   C	-1.717	1.601	2.371	C.2	1	UNK0	0.000	
20	   N	-1.257	1.844	3.609	N.pl3	1	UNK0	0.000	
21	   C	-0.281	2.778	3.580	C.2	1	UNK0	0.000	
22	   N	-0.140	3.115	2.288	N.2	1	UNK0	0.000	
23	   N	-0.996	2.414	1.567	N.2	1	UNK0	0.000	
24	   C	0.364	3.209	4.718	C.2	1	UNK0	0.000	
25	   C	-0.014	2.657	5.921	C.2	1	UNK0	0.000	
26	   C	-1.016	1.702	5.931	C.2	1	UNK0	0.000	
27	   C	-1.637	1.296	4.775	C.2	1	UNK0	0.000	
28	   H	3.340	-3.498	-3.726	 H	1	UNK0	0.000	
29	   H	2.503	-2.109	-1.256	 H	1	UNK0	0.000	
30	   H	5.021	-1.048	-2.916	 H	1	UNK0	0.000	
31	   H	4.504	-0.621	-1.200	 H	1	UNK0	0.000	
32	   H	5.135	-3.462	-2.266	 H	1	UNK0	0.000	
33	   H	4.683	-3.023	-0.538	 H	1	UNK0	0.000	
34	   H	0.150	-2.072	-0.791	 H	1	UNK0	0.000	
35	   H	-1.875	0.283	-4.568	 H	1	UNK0	0.000	
36	   H	-0.325	-1.617	-4.958	 H	1	UNK0	0.000	
37	   H	-3.430	0.642	-0.125	 H	1	UNK0	0.000	
38	   H	-3.795	1.018	2.129	 H	1	UNK0	0.000	
39	   H	-2.625	-0.311	2.434	 H	1	UNK0	0.000	
40	   H	1.143	3.950	4.713	 H	1	UNK0	0.000	
41	   H	0.440	2.936	6.871	 H	1	UNK0	0.000	
42	   H	-1.343	1.240	6.858	 H	1	UNK0	0.000	
43	   H	-2.429	0.542	4.777	 H	1	UNK0	0.000	
@<TRIPOS>BOND
1 1 2 2
2 1 3 2
3 1 4 1
4 1 8 1
5 4 5 1
6 5 6 1
7 5 7 1
8 6 7 1
9 8 9 2
10 8 13 1
11 9 10 1
12 10 11 2
13 10 15 1
14 11 12 1
15 11 14 1
16 12 13 2
17 15 16 2
18 15 17 1
19 17 18 1
20 18 19 1
21 19 20 1
22 19 23 2
23 20 21 1
24 20 27 1
25 21 22 2
26 21 24 1
27 22 23 1
28 24 25 2
29 25 26 1
30 26 27 2
31 4 28 1
32 5 29 1
33 6 30 1
34 6 31 1
35 7 32 1
36 7 33 1
37 9 34 1
38 12 35 1
39 13 36 1
40 17 37 1
41 18 38 1
42 18 39 1
43 24 40 1
44 25 41 1
45 26 42 1
46 27 43 1
@<TRIPOS>SUBSTRUCTURE
1	UNK0	1	GROUP	1 ****	UNK
