# created with PyMOL 2.3.2
@<TRIPOS>MOLECULE
1021
40 43 1                 
SMALL
USER_CHARGES
@<TRIPOS>ATOM
1	   S	-0.502	3.893	-1.763	S.O2	1	UNK0	0.000	
2	   O	-0.771	4.190	-3.209	O.2	1	UNK0	0.000	
3	   O	-1.130	4.949	-0.937	O.2	1	UNK0	0.000	
4	   N	-1.023	2.310	-1.337	N.3	1	UNK0	0.000	
5	   C	-0.728	1.956	0.008	C.3	1	UNK0	0.000	
6	   C	0.100	0.683	0.009	C.3	1	UNK0	0.000	
7	   N	-0.785	-0.375	0.440	N.pl3	1	UNK0	0.000	
8	   C	-2.124	0.081	0.228	C.3	1	UNK0	0.000	
9	   C	-2.020	1.547	0.686	C.3	1	UNK0	0.000	
10	   C	-0.379	-1.621	0.971	C.2	1	UNK0	0.000	
11	   N	0.952	-1.895	1.154	N.2	1	UNK0	0.000	
12	   C	1.380	-3.060	1.656	C.2	1	UNK0	0.000	
13	   C	0.476	-4.037	2.011	C.2	1	UNK0	0.000	
14	   N	-0.836	-3.809	1.848	N.pl3	1	UNK0	0.000	
15	   C	-1.244	-2.630	1.341	C.2	1	UNK0	0.000	
16	   N	-2.588	-2.702	1.298	N.2	1	UNK0	0.000	
17	   N	-2.970	-3.874	1.759	N.2	1	UNK0	0.000	
18	   C	-1.893	-4.593	2.113	C.2	1	UNK0	0.000	
19	   C	-1.898	-5.976	2.681	C.3	1	UNK0	0.000	
20	   C	1.260	3.903	-1.571	C.2	1	UNK0	0.000	
21	   S	2.413	2.933	-2.365	S.3	1	UNK0	0.000	
22	   C	3.829	3.547	-1.639	C.2	1	UNK0	0.000	
23	   C	3.347	4.504	-0.787	C.2	1	UNK0	0.000	
24	   C	2.019	4.683	-0.756	C.2	1	UNK0	0.000	
25	  Br	5.669	3.040	-1.926	Br	1	UNK0	0.000	
26	   H	-0.849	1.608	-2.054	 H	1	UNK0	0.000	
27	   H	-0.207	2.752	0.581	 H	1	UNK0	0.000	
28	   H	0.994	0.777	0.643	 H	1	UNK0	0.000	
29	   H	0.427	0.425	-1.035	 H	1	UNK0	0.000	
30	   H	-2.895	-0.447	0.814	 H	1	UNK0	0.000	
31	   H	-2.409	0.071	-0.861	 H	1	UNK0	0.000	
32	   H	-1.913	1.532	1.775	 H	1	UNK0	0.000	
33	   H	-2.890	2.126	0.318	 H	1	UNK0	0.000	
34	   H	2.432	-3.273	1.799	 H	1	UNK0	0.000	
35	   H	0.819	-4.980	2.417	 H	1	UNK0	0.000	
36	   H	-1.186	-6.063	3.533	 H	1	UNK0	0.000	
37	   H	-2.934	-6.232	2.988	 H	1	UNK0	0.000	
38	   H	-1.561	-6.686	1.901	 H	1	UNK0	0.000	
39	   H	4.069	5.081	-0.168	 H	1	UNK0	0.000	
40	   H	1.529	5.433	-0.100	 H	1	UNK0	0.000	
@<TRIPOS>BOND
1 1 2 2
2 1 3 2
3 1 4 1
4 1 20 1
5 4 5 1
6 5 6 1
7 5 9 1
8 6 7 1
9 7 8 1
10 7 10 1
11 8 9 1
12 10 11 2
13 10 15 1
14 11 12 1
15 12 13 2
16 13 14 1
17 14 15 1
18 14 18 1
19 15 16 2
20 16 17 1
21 17 18 2
22 18 19 1
23 20 21 1
24 20 24 2
25 21 22 1
26 22 23 2
27 22 25 1
28 23 24 1
29 4 26 1
30 5 27 1
31 6 28 1
32 6 29 1
33 8 30 1
34 8 31 1
35 9 32 1
36 9 33 1
37 12 34 1
38 13 35 1
39 19 36 1
40 19 37 1
41 19 38 1
42 23 39 1
43 24 40 1
@<TRIPOS>SUBSTRUCTURE
1	UNK0	1	GROUP	1 ****	UNK
