# created with PyMOL 2.3.2
@<TRIPOS>MOLECULE
1022
40 42 1                 
SMALL
USER_CHARGES
@<TRIPOS>ATOM
1	   S	-0.532	1.418	0.815	S.O2	1	UNK0	0.000	
2	   O	-0.143	1.513	2.243	O.2	1	UNK0	0.000	
3	   O	-1.282	2.692	0.482	O.2	1	UNK0	0.000	
4	   N	0.685	1.190	-0.287	N.3	1	UNK0	0.000	
5	   C	1.525	0.104	-0.287	C.3	1	UNK0	0.000	
6	   C	2.940	0.607	0.052	C.3	1	UNK0	0.000	
7	   C	3.690	0.912	-1.237	C.3	1	UNK0	0.000	
8	   C	3.890	-0.359	-2.034	C.3	1	UNK0	0.000	
9	   N	2.969	-1.359	-1.497	N.3	1	UNK0	0.000	
10	   C	1.653	-0.739	-1.503	C.3	1	UNK0	0.000	
11	   C	3.405	-1.756	-0.196	C.3	1	UNK0	0.000	
12	   C	3.671	-0.549	0.707	C.3	1	UNK0	0.000	
13	   C	-1.670	0.102	0.667	C.2	1	UNK0	0.000	
14	   C	-1.578	-1.069	1.387	C.2	1	UNK0	0.000	
15	   C	-2.496	-2.093	1.245	C.2	1	UNK0	0.000	
16	   C	-3.543	-1.938	0.349	C.2	1	UNK0	0.000	
17	   C	-3.653	-0.773	-0.383	C.2	1	UNK0	0.000	
18	   C	-2.717	0.230	-0.215	C.2	1	UNK0	0.000	
19	   O	-4.494	-2.944	0.171	O.3	1	UNK0	0.000	
20	   C	-5.546	-2.754	-0.748	C.3	1	UNK0	0.000	
21	  Br	-2.411	-3.728	2.217	Br	1	UNK0	0.000	
22	   H	1.186	2.080	-0.481	 H	1	UNK0	0.000	
23	   H	1.256	-0.588	0.565	 H	1	UNK0	0.000	
24	   H	2.908	1.500	0.687	 H	1	UNK0	0.000	
25	   H	4.709	1.243	-0.916	 H	1	UNK0	0.000	
26	   H	3.207	1.714	-1.801	 H	1	UNK0	0.000	
27	   H	3.563	-0.159	-3.076	 H	1	UNK0	0.000	
28	   H	4.925	-0.710	-2.040	 H	1	UNK0	0.000	
29	   H	0.923	-1.599	-1.457	 H	1	UNK0	0.000	
30	   H	1.550	-0.227	-2.456	 H	1	UNK0	0.000	
31	   H	2.629	-2.400	0.273	 H	1	UNK0	0.000	
32	   H	4.329	-2.323	-0.288	 H	1	UNK0	0.000	
33	   H	3.136	-0.720	1.687	 H	1	UNK0	0.000	
34	   H	4.732	-0.363	0.862	 H	1	UNK0	0.000	
35	   H	-0.779	-1.195	2.075	 H	1	UNK0	0.000	
36	   H	-4.477	-0.672	-1.076	 H	1	UNK0	0.000	
37	   H	-2.828	1.144	-0.807	 H	1	UNK0	0.000	
38	   H	-6.219	-3.635	-0.757	 H	1	UNK0	0.000	
39	   H	-5.198	-2.580	-1.782	 H	1	UNK0	0.000	
40	   H	-6.097	-1.843	-0.409	 H	1	UNK0	0.000	
@<TRIPOS>BOND
1 1 2 2
2 1 3 2
3 1 4 1
4 1 13 1
5 4 5 1
6 5 6 1
7 5 10 1
8 6 7 1
9 6 12 1
10 7 8 1
11 8 9 1
12 9 10 1
13 9 11 1
14 11 12 1
15 13 14 2
16 13 18 1
17 14 15 1
18 15 16 2
19 15 21 1
20 16 17 1
21 16 19 1
22 17 18 2
23 19 20 1
24 4 22 1
25 5 23 1
26 6 24 1
27 7 25 1
28 7 26 1
29 8 27 1
30 8 28 1
31 10 29 1
32 10 30 1
33 11 31 1
34 11 32 1
35 12 33 1
36 12 34 1
37 14 35 1
38 17 36 1
39 18 37 1
40 20 38 1
41 20 39 1
42 20 40 1
@<TRIPOS>SUBSTRUCTURE
1	UNK0	1	GROUP	1 ****	UNK
