# created with PyMOL 2.3.2
@<TRIPOS>MOLECULE
1023
45 48 1                 
SMALL
USER_CHARGES
@<TRIPOS>ATOM
1	   S	1.969	-0.948	1.631	S.O2	1	UNK0	0.000	
2	   O	2.761	0.003	0.821	O.2	1	UNK0	0.000	
3	   O	2.599	-0.955	3.022	O.2	1	UNK0	0.000	
4	   N	1.917	-2.526	1.084	N.3	1	UNK0	0.000	
5	   N	1.880	-2.770	-0.247	N.3	1	UNK0	0.000	
6	   C	2.974	-2.421	-1.039	C.3	1	UNK0	0.000	
7	   C	2.579	-2.308	-2.517	C.3	1	UNK0	0.000	
8	   O	1.642	-3.293	-2.846	O.3	1	UNK0	0.000	
9	   C	0.449	-2.898	-2.247	C.3	1	UNK0	0.000	
10	   C	0.581	-2.619	-0.781	C.3	1	UNK0	0.000	
11	   C	0.318	-0.358	1.891	C.2	1	UNK0	0.000	
12	   C	-0.164	0.711	1.175	C.2	1	UNK0	0.000	
13	   C	-1.443	1.227	1.317	C.2	1	UNK0	0.000	
14	   C	-2.269	0.595	2.252	C.2	1	UNK0	0.000	
15	   C	-1.815	-0.472	2.980	C.2	1	UNK0	0.000	
16	   C	-0.512	-0.966	2.809	C.2	1	UNK0	0.000	
17	  Br	0.078	-2.440	3.845	Br	1	UNK0	0.000	
18	   C	-3.593	1.266	2.227	C.3	1	UNK0	0.000	
19	   C	-3.557	1.887	0.835	C.3	1	UNK0	0.000	
20	   N	-2.121	2.291	0.708	N.pl3	1	UNK0	0.000	
21	   C	-1.739	3.488	0.140	C.2	1	UNK0	0.000	
22	   O	-2.760	4.152	-0.426	O.2	1	UNK0	0.000	
23	   C	-0.514	4.247	-0.010	C.3	1	UNK0	0.000	
24	   C	0.817	3.975	0.503	C.3	1	UNK0	0.000	
25	   C	0.551	3.630	-0.919	C.3	1	UNK0	0.000	
26	   H	1.161	-3.057	1.552	 H	1	UNK0	0.000	
27	   H	3.504	-1.494	-0.812	 H	1	UNK0	0.000	
28	   H	3.723	-3.268	-1.020	 H	1	UNK0	0.000	
29	   H	3.458	-2.313	-3.172	 H	1	UNK0	0.000	
30	   H	2.064	-1.332	-2.629	 H	1	UNK0	0.000	
31	   H	-0.332	-3.655	-2.472	 H	1	UNK0	0.000	
32	   H	0.100	-1.958	-2.739	 H	1	UNK0	0.000	
33	   H	0.178	-1.622	-0.510	 H	1	UNK0	0.000	
34	   H	-0.096	-3.352	-0.250	 H	1	UNK0	0.000	
35	   H	0.489	1.151	0.468	 H	1	UNK0	0.000	
36	   H	-2.436	-0.982	3.714	 H	1	UNK0	0.000	
37	   H	-3.737	2.015	3.004	 H	1	UNK0	0.000	
38	   H	-4.445	0.558	2.263	 H	1	UNK0	0.000	
39	   H	-3.700	1.100	0.080	 H	1	UNK0	0.000	
40	   H	-4.230	2.717	0.692	 H	1	UNK0	0.000	
41	   H	-0.702	5.337	-0.386	 H	1	UNK0	0.000	
42	   H	1.044	3.252	1.284	 H	1	UNK0	0.000	
43	   H	1.482	4.898	0.593	 H	1	UNK0	0.000	
44	   H	0.966	4.279	-1.733	 H	1	UNK0	0.000	
45	   H	0.469	2.598	-1.211	 H	1	UNK0	0.000	
@<TRIPOS>BOND
1 1 2 2
2 1 3 2
3 1 4 1
4 1 11 1
5 4 5 1
6 5 6 1
7 5 10 1
8 6 7 1
9 7 8 1
10 8 9 1
11 9 10 1
12 11 12 2
13 11 16 1
14 12 13 1
15 13 14 2
16 13 20 1
17 14 15 1
18 14 18 1
19 15 16 2
20 16 17 1
21 18 19 1
22 19 20 1
23 20 21 1
24 21 22 2
25 21 23 1
26 23 24 1
27 23 25 1
28 24 25 1
29 4 26 1
30 6 27 1
31 6 28 1
32 7 29 1
33 7 30 1
34 9 31 1
35 9 32 1
36 10 33 1
37 10 34 1
38 12 35 1
39 15 36 1
40 18 37 1
41 18 38 1
42 19 39 1
43 19 40 1
44 23 41 1
45 24 42 1
46 24 43 1
47 25 44 1
48 25 45 1
@<TRIPOS>SUBSTRUCTURE
1	UNK0	1	GROUP	1 ****	UNK
