# created with PyMOL 2.3.2
@<TRIPOS>MOLECULE
1024
45 48 1                 
SMALL
USER_CHARGES
@<TRIPOS>ATOM
1	   S	-2.636	-0.656	2.506	S.O2	1	UNK0	0.000	
2	   O	-3.342	-1.952	2.804	O.2	1	UNK0	0.000	
3	   O	-3.226	0.419	3.356	O.2	1	UNK0	0.000	
4	   N	-0.946	-0.825	2.874	N.pl3	1	UNK0	0.000	
5	   N	-0.037	0.117	2.706	N.2	1	UNK0	0.000	
6	   C	1.171	-0.303	3.075	C.2	1	UNK0	0.000	
7	   C	1.045	-1.608	3.515	C.2	1	UNK0	0.000	
8	   C	-0.303	-1.899	3.372	C.2	1	UNK0	0.000	
9	   C	2.160	-2.280	3.956	C.2	1	UNK0	0.000	
10	   O	2.033	-3.465	4.353	O.2	1	UNK0	0.000	
11	   N	3.385	-1.714	3.979	N.pl3	1	UNK0	0.000	
12	   C	3.474	-0.444	3.544	C.2	1	UNK0	0.000	
13	   O	4.615	0.114	3.555	O.2	1	UNK0	0.000	
14	   N	2.402	0.248	3.104	N.pl3	1	UNK0	0.000	
15	   C	2.504	1.625	2.634	C.3	1	UNK0	0.000	
16	   C	4.564	-2.434	4.449	C.3	1	UNK0	0.000	
17	   C	-2.858	-0.338	0.799	C.2	1	UNK0	0.000	
18	   C	-1.784	-0.249	-0.061	C.2	1	UNK0	0.000	
19	   C	-1.943	0.003	-1.418	C.2	1	UNK0	0.000	
20	   C	-3.213	0.169	-1.916	C.2	1	UNK0	0.000	
21	   C	-4.286	0.078	-1.044	C.2	1	UNK0	0.000	
22	   C	-4.118	-0.174	0.312	C.2	1	UNK0	0.000	
23	  Br	-5.684	-0.277	1.419	Br	1	UNK0	0.000	
24	   C	-3.169	0.428	-3.385	C.3	1	UNK0	0.000	
25	   C	-1.783	-0.060	-3.759	C.3	1	UNK0	0.000	
26	   N	-1.046	0.143	-2.504	N.pl3	1	UNK0	0.000	
27	   C	0.332	0.431	-2.425	C.2	1	UNK0	0.000	
28	   O	0.868	0.587	-1.307	O.2	1	UNK0	0.000	
29	   C	1.148	0.549	-3.644	C.3	1	UNK0	0.000	
30	   H	-0.749	-2.840	3.624	 H	1	UNK0	0.000	
31	   H	2.087	2.303	3.417	 H	1	UNK0	0.000	
32	   H	3.539	1.917	2.423	 H	1	UNK0	0.000	
33	   H	1.833	1.717	1.756	 H	1	UNK0	0.000	
34	   H	5.459	-1.845	4.124	 H	1	UNK0	0.000	
35	   H	4.663	-3.415	3.918	 H	1	UNK0	0.000	
36	   H	4.549	-2.623	5.525	 H	1	UNK0	0.000	
37	   H	-0.772	-0.373	0.288	 H	1	UNK0	0.000	
38	   H	-5.290	0.207	-1.424	 H	1	UNK0	0.000	
39	   H	-3.943	-0.154	-3.909	 H	1	UNK0	0.000	
40	   H	-3.253	1.515	-3.541	 H	1	UNK0	0.000	
41	   H	-1.370	0.555	-4.565	 H	1	UNK0	0.000	
42	   H	-1.812	-1.137	-4.001	 H	1	UNK0	0.000	
43	   H	0.879	-0.215	-4.417	 H	1	UNK0	0.000	
44	   H	1.046	1.537	-4.136	 H	1	UNK0	0.000	
45	   H	2.240	0.408	-3.458	 H	1	UNK0	0.000	
@<TRIPOS>BOND
1 1 2 2
2 1 3 2
3 1 4 1
4 1 17 1
5 4 5 1
6 4 8 1
7 5 6 2
8 6 7 1
9 6 14 1
10 7 8 2
11 7 9 1
12 9 10 2
13 9 11 1
14 11 12 1
15 11 16 1
16 12 13 2
17 12 14 1
18 14 15 1
19 17 18 2
20 17 22 1
21 18 19 1
22 19 20 2
23 19 26 1
24 20 21 1
25 20 24 1
26 21 22 2
27 22 23 1
28 24 25 1
29 25 26 1
30 26 27 1
31 27 28 2
32 27 29 1
33 8 30 1
34 15 31 1
35 15 32 1
36 15 33 1
37 16 34 1
38 16 35 1
39 16 36 1
40 18 37 1
41 21 38 1
42 24 39 1
43 24 40 1
44 25 41 1
45 25 42 1
46 29 43 1
47 29 44 1
48 29 45 1
@<TRIPOS>SUBSTRUCTURE
1	UNK0	1	GROUP	1 ****	UNK
