# created with PyMOL 2.3.2
@<TRIPOS>MOLECULE
1025
56 59 1                 
SMALL
USER_CHARGES
@<TRIPOS>ATOM
1	   S	-2.678	-1.618	-2.730	S.O2	1	UNK0	0.000	
2	   O	-3.556	-2.053	-1.563	O.2	1	UNK0	0.000	
3	   O	-1.859	-2.839	-3.084	O.2	1	UNK0	0.000	
4	   N	-1.742	-0.256	-2.336	N.3	1	UNK0	0.000	
5	   C	-0.349	-0.468	-2.589	C.3	1	UNK0	0.000	
6	   O	-0.359	-0.627	-3.982	O.3	1	UNK0	0.000	
7	   C	-1.000	0.574	-4.362	C.3	1	UNK0	0.000	
8	   C	-2.011	0.852	-3.276	C.3	1	UNK0	0.000	
9	   C	0.345	-1.514	-1.827	C.3	1	UNK0	0.000	
10	   N	0.278	-1.268	-0.407	N.pl3	1	UNK0	0.000	
11	   C	0.851	-0.108	0.150	C.2	1	UNK0	0.000	
12	   O	1.435	0.743	-0.545	O.2	1	UNK0	0.000	
13	   C	0.779	0.149	1.603	C.2	1	UNK0	0.000	
14	   O	0.193	-0.703	2.313	O.2	1	UNK0	0.000	
15	   N	1.339	1.295	2.191	N.pl3	1	UNK0	0.000	
16	   C	1.242	1.494	3.610	C.3	1	UNK0	0.000	
17	   C	1.887	2.763	4.082	C.3	1	UNK0	0.000	
18	   C	3.317	2.860	3.790	C.2	1	UNK0	0.000	
19	   C	4.331	2.206	4.452	C.2	1	UNK0	0.000	
20	   C	5.523	2.578	3.861	C.2	1	UNK0	0.000	
21	   N	5.254	3.438	2.861	N.pl3	1	UNK0	0.000	
22	   C	3.910	3.617	2.808	C.2	1	UNK0	0.000	
23	   C	6.707	2.051	4.349	C.2	1	UNK0	0.000	
24	   C	6.719	1.168	5.409	C.2	1	UNK0	0.000	
25	   C	5.505	0.809	5.987	C.2	1	UNK0	0.000	
26	   C	4.314	1.316	5.523	C.2	1	UNK0	0.000	
27	   C	-3.780	-1.340	-4.077	C.2	1	UNK0	0.000	
28	   C	-3.429	-1.651	-5.370	C.2	1	UNK0	0.000	
29	   C	-4.293	-1.436	-6.438	C.2	1	UNK0	0.000	
30	   C	-5.545	-0.894	-6.215	C.2	1	UNK0	0.000	
31	   C	-5.900	-0.583	-4.934	C.2	1	UNK0	0.000	
32	   C	-5.029	-0.802	-3.872	C.2	1	UNK0	0.000	
33	  Br	-6.734	-0.600	-7.693	Br	1	UNK0	0.000	
34	   H	0.143	0.538	-2.371	 H	1	UNK0	0.000	
35	   H	-0.244	1.399	-4.391	 H	1	UNK0	0.000	
36	   H	-1.532	0.494	-5.321	 H	1	UNK0	0.000	
37	   H	-1.747	1.769	-2.707	 H	1	UNK0	0.000	
38	   H	-3.047	0.837	-3.625	 H	1	UNK0	0.000	
39	   H	1.460	-1.414	-2.077	 H	1	UNK0	0.000	
40	   H	0.137	-2.563	-2.088	 H	1	UNK0	0.000	
41	   H	-0.213	-1.982	0.204	 H	1	UNK0	0.000	
42	   H	1.821	1.985	1.555	 H	1	UNK0	0.000	
43	   H	0.176	1.526	3.948	 H	1	UNK0	0.000	
44	   H	1.667	0.591	4.096	 H	1	UNK0	0.000	
45	   H	1.690	2.838	5.179	 H	1	UNK0	0.000	
46	   H	1.340	3.607	3.595	 H	1	UNK0	0.000	
47	   H	5.996	3.864	2.259	 H	1	UNK0	0.000	
48	   H	3.445	4.273	2.077	 H	1	UNK0	0.000	
49	   H	7.648	2.358	3.866	 H	1	UNK0	0.000	
50	   H	7.658	0.763	5.780	 H	1	UNK0	0.000	
51	   H	5.473	0.119	6.819	 H	1	UNK0	0.000	
52	   H	3.355	1.076	5.927	 H	1	UNK0	0.000	
53	   H	-2.464	-2.069	-5.548	 H	1	UNK0	0.000	
54	   H	-3.982	-1.693	-7.446	 H	1	UNK0	0.000	
55	   H	-6.885	-0.157	-4.756	 H	1	UNK0	0.000	
56	   H	-5.322	-0.550	-2.845	 H	1	UNK0	0.000	
@<TRIPOS>BOND
1 1 2 2
2 1 3 2
3 1 4 1
4 1 27 1
5 4 5 1
6 4 8 1
7 5 6 1
8 5 9 1
9 6 7 1
10 7 8 1
11 9 10 1
12 10 11 1
13 11 12 2
14 11 13 1
15 13 14 2
16 13 15 1
17 15 16 1
18 16 17 1
19 17 18 1
20 18 19 1
21 18 22 2
22 19 20 2
23 19 26 1
24 20 21 1
25 20 23 1
26 21 22 1
27 23 24 2
28 24 25 1
29 25 26 2
30 27 28 2
31 27 32 1
32 28 29 1
33 29 30 2
34 30 31 1
35 30 33 1
36 31 32 2
37 5 34 1
38 7 35 1
39 7 36 1
40 8 37 1
41 8 38 1
42 9 39 1
43 9 40 1
44 10 41 1
45 15 42 1
46 16 43 1
47 16 44 1
48 17 45 1
49 17 46 1
50 21 47 1
51 22 48 1
52 23 49 1
53 24 50 1
54 25 51 1
55 26 52 1
56 28 53 1
57 29 54 1
58 31 55 1
59 32 56 1
@<TRIPOS>SUBSTRUCTURE
1	UNK0	1	GROUP	1 ****	UNK
