# created with PyMOL 2.3.2
@<TRIPOS>MOLECULE
1026
52 55 1                 
SMALL
USER_CHARGES
@<TRIPOS>ATOM
1	   S	2.443	-1.805	2.667	S.O2	1	UNK0	0.000	
2	   O	2.897	-1.706	4.097	O.2	1	UNK0	0.000	
3	   O	2.501	-3.239	2.245	O.2	1	UNK0	0.000	
4	   N	0.793	-1.298	2.556	N.3	1	UNK0	0.000	
5	   C	0.592	0.062	2.942	C.3	1	UNK0	0.000	
6	   O	-0.469	0.123	3.843	O.3	1	UNK0	0.000	
7	   C	-1.128	-1.077	3.840	C.3	1	UNK0	0.000	
8	   C	-0.047	-2.068	3.463	C.3	1	UNK0	0.000	
9	   C	0.487	1.054	1.836	C.3	1	UNK0	0.000	
10	   N	-0.667	0.971	1.007	N.pl3	1	UNK0	0.000	
11	   C	-0.989	-0.154	0.227	C.2	1	UNK0	0.000	
12	   O	-0.287	-1.180	0.193	O.2	1	UNK0	0.000	
13	   C	-2.204	-0.182	-0.613	C.2	1	UNK0	0.000	
14	   O	-2.946	0.838	-0.611	O.2	1	UNK0	0.000	
15	   N	-2.519	-1.322	-1.394	N.pl3	1	UNK0	0.000	
16	   C	-3.688	-1.406	-2.232	C.3	1	UNK0	0.000	
17	   C	-3.511	-0.614	-3.495	C.2	1	UNK0	0.000	
18	   C	-4.489	0.239	-3.959	C.2	1	UNK0	0.000	
19	   C	-4.332	0.974	-5.124	C.2	1	UNK0	0.000	
20	   C	-3.175	0.873	-5.867	C.2	1	UNK0	0.000	
21	   C	-2.184	0.024	-5.420	C.2	1	UNK0	0.000	
22	   C	-2.358	-0.707	-4.246	C.2	1	UNK0	0.000	
23	   O	-3.301	1.725	-6.982	O.3	1	UNK0	0.000	
24	   C	-4.372	2.626	-6.744	C.3	1	UNK0	0.000	
25	   O	-5.133	1.883	-5.804	O.3	1	UNK0	0.000	
26	   C	3.465	-0.871	1.610	C.2	1	UNK0	0.000	
27	   C	4.044	0.280	2.111	C.2	1	UNK0	0.000	
28	   C	4.851	1.014	1.267	C.2	1	UNK0	0.000	
29	   C	5.083	0.626	-0.038	C.2	1	UNK0	0.000	
30	   C	4.496	-0.532	-0.533	C.2	1	UNK0	0.000	
31	   C	3.684	-1.279	0.303	C.2	1	UNK0	0.000	
32	  Br	6.204	1.667	-1.173	Br	1	UNK0	0.000	
33	   H	1.510	0.353	3.529	 H	1	UNK0	0.000	
34	   H	-1.481	-1.279	4.887	 H	1	UNK0	0.000	
35	   H	-2.009	-1.128	3.199	 H	1	UNK0	0.000	
36	   H	0.503	-2.306	4.397	 H	1	UNK0	0.000	
37	   H	-0.484	-2.951	2.988	 H	1	UNK0	0.000	
38	   H	1.372	0.897	1.174	 H	1	UNK0	0.000	
39	   H	0.603	2.066	2.304	 H	1	UNK0	0.000	
40	   H	-1.309	1.794	0.976	 H	1	UNK0	0.000	
41	   H	-1.872	-2.132	-1.356	 H	1	UNK0	0.000	
42	   H	-4.532	-0.970	-1.646	 H	1	UNK0	0.000	
43	   H	-3.876	-2.450	-2.481	 H	1	UNK0	0.000	
44	   H	-5.401	0.322	-3.377	 H	1	UNK0	0.000	
45	   H	-1.280	-0.044	-6.015	 H	1	UNK0	0.000	
46	   H	-1.572	-1.370	-3.906	 H	1	UNK0	0.000	
47	   H	-3.994	3.524	-6.173	 H	1	UNK0	0.000	
48	   H	-4.921	2.892	-7.646	 H	1	UNK0	0.000	
49	   H	3.870	0.591	3.131	 H	1	UNK0	0.000	
50	   H	5.305	1.926	1.679	 H	1	UNK0	0.000	
51	   H	4.709	-0.789	-1.559	 H	1	UNK0	0.000	
52	   H	3.233	-2.185	-0.110	 H	1	UNK0	0.000	
@<TRIPOS>BOND
1 1 2 2
2 1 3 2
3 1 4 1
4 1 26 1
5 4 5 1
6 4 8 1
7 5 6 1
8 5 9 1
9 6 7 1
10 7 8 1
11 9 10 1
12 10 11 1
13 11 12 2
14 11 13 1
15 13 14 2
16 13 15 1
17 15 16 1
18 16 17 1
19 17 18 2
20 17 22 1
21 18 19 1
22 19 20 2
23 19 25 1
24 20 21 1
25 20 23 1
26 21 22 2
27 23 24 1
28 24 25 1
29 26 27 2
30 26 31 1
31 27 28 1
32 28 29 2
33 29 30 1
34 29 32 1
35 30 31 2
36 5 33 1
37 7 34 1
38 7 35 1
39 8 36 1
40 8 37 1
41 9 38 1
42 9 39 1
43 10 40 1
44 15 41 1
45 16 42 1
46 16 43 1
47 18 44 1
48 21 45 1
49 22 46 1
50 24 47 1
51 24 48 1
52 27 49 1
53 28 50 1
54 30 51 1
55 31 52 1
@<TRIPOS>SUBSTRUCTURE
1	UNK0	1	GROUP	1 ****	UNK
