# created with PyMOL 2.3.2
@<TRIPOS>MOLECULE
1027
54 57 1                 
SMALL
USER_CHARGES
@<TRIPOS>ATOM
1	   S	2.167	0.540	-2.378	S.O2	1	UNK0	0.000	
2	   O	2.647	1.837	-3.030	O.2	1	UNK0	0.000	
3	   O	2.877	-0.547	-3.151	O.2	1	UNK0	0.000	
4	   N	0.510	0.441	-2.610	N.3	1	UNK0	0.000	
5	   C	-0.349	1.442	-2.165	C.3	1	UNK0	0.000	
6	   C	-0.803	1.317	-0.762	C.2	1	UNK0	0.000	
7	   O	-1.134	2.328	-0.097	O.2	1	UNK0	0.000	
8	   N	-0.840	-0.001	-0.226	N.pl3	1	UNK0	0.000	
9	   C	-0.717	-1.067	-1.153	C.2	1	UNK0	0.000	
10	   O	-1.230	-2.181	-0.851	O.2	1	UNK0	0.000	
11	   C	-0.014	-0.907	-2.443	C.3	1	UNK0	0.000	
12	   C	-1.002	-0.210	1.197	C.3	1	UNK0	0.000	
13	   C	-2.415	-0.338	1.651	C.3	1	UNK0	0.000	
14	   C	-3.280	0.809	1.382	C.2	1	UNK0	0.000	
15	   C	-3.415	1.844	2.265	C.2	1	UNK0	0.000	
16	   C	-4.244	2.885	1.954	C.2	1	UNK0	0.000	
17	   C	-4.959	2.926	0.762	C.2	1	UNK0	0.000	
18	   C	-4.807	1.879	-0.105	C.2	1	UNK0	0.000	
19	   C	-3.982	0.817	0.176	C.2	1	UNK0	0.000	
20	   C	2.734	0.584	-0.731	C.2	1	UNK0	0.000	
21	   C	3.241	-0.596	-0.172	C.2	1	UNK0	0.000	
22	   C	3.658	-0.708	1.135	C.2	1	UNK0	0.000	
23	   C	3.588	0.383	1.974	C.2	1	UNK0	0.000	
24	   C	3.095	1.549	1.443	C.2	1	UNK0	0.000	
25	   C	2.672	1.658	0.108	C.2	1	UNK0	0.000	
26	  Br	2.098	3.367	-0.546	Br	1	UNK0	0.000	
27	   C	4.092	0.035	3.325	C.3	1	UNK0	0.000	
28	   C	4.879	-1.245	3.040	C.3	1	UNK0	0.000	
29	   N	4.193	-1.804	1.880	N.pl3	1	UNK0	0.000	
30	   C	4.092	-3.177	1.595	C.2	1	UNK0	0.000	
31	   O	4.668	-4.008	2.380	O.2	1	UNK0	0.000	
32	   C	3.365	-3.774	0.449	C.3	1	UNK0	0.000	
33	   H	-1.299	1.382	-2.824	 H	1	UNK0	0.000	
34	   H	0.018	2.445	-2.388	 H	1	UNK0	0.000	
35	   H	0.756	-1.693	-2.516	 H	1	UNK0	0.000	
36	   H	-0.743	-1.073	-3.257	 H	1	UNK0	0.000	
37	   H	-0.484	0.611	1.758	 H	1	UNK0	0.000	
38	   H	-0.477	-1.150	1.505	 H	1	UNK0	0.000	
39	   H	-2.388	-0.488	2.755	 H	1	UNK0	0.000	
40	   H	-2.830	-1.287	1.239	 H	1	UNK0	0.000	
41	   H	-2.881	1.840	3.184	 H	1	UNK0	0.000	
42	   H	-4.385	3.734	2.627	 H	1	UNK0	0.000	
43	   H	-5.617	3.760	0.524	 H	1	UNK0	0.000	
44	   H	-5.348	1.869	-1.051	 H	1	UNK0	0.000	
45	   H	-3.904	0.019	-0.549	 H	1	UNK0	0.000	
46	   H	3.295	-1.450	-0.851	 H	1	UNK0	0.000	
47	   H	3.015	2.445	2.054	 H	1	UNK0	0.000	
48	   H	3.298	-0.183	4.048	 H	1	UNK0	0.000	
49	   H	4.774	0.814	3.734	 H	1	UNK0	0.000	
50	   H	4.804	-1.934	3.893	 H	1	UNK0	0.000	
51	   H	5.905	-0.989	2.750	 H	1	UNK0	0.000	
52	   H	3.230	-4.883	0.608	 H	1	UNK0	0.000	
53	   H	3.932	-3.710	-0.502	 H	1	UNK0	0.000	
54	   H	2.369	-3.293	0.308	 H	1	UNK0	0.000	
@<TRIPOS>BOND
1 1 2 2
2 1 3 2
3 1 4 1
4 1 20 1
5 4 5 1
6 4 11 1
7 5 6 1
8 6 7 2
9 6 8 1
10 8 9 1
11 8 12 1
12 9 10 2
13 9 11 1
14 12 13 1
15 13 14 1
16 14 15 2
17 14 19 1
18 15 16 1
19 16 17 2
20 17 18 1
21 18 19 2
22 20 21 2
23 20 25 1
24 21 22 1
25 22 23 2
26 22 29 1
27 23 24 1
28 23 27 1
29 24 25 2
30 25 26 1
31 27 28 1
32 28 29 1
33 29 30 1
34 30 31 2
35 30 32 1
36 5 33 1
37 5 34 1
38 11 35 1
39 11 36 1
40 12 37 1
41 12 38 1
42 13 39 1
43 13 40 1
44 15 41 1
45 16 42 1
46 17 43 1
47 18 44 1
48 19 45 1
49 21 46 1
50 24 47 1
51 27 48 1
52 27 49 1
53 28 50 1
54 28 51 1
55 32 52 1
56 32 53 1
57 32 54 1
@<TRIPOS>SUBSTRUCTURE
1	UNK0	1	GROUP	1 ****	UNK
