# created with PyMOL 2.3.2
@<TRIPOS>MOLECULE
1029
42 45 1                 
SMALL
USER_CHARGES
@<TRIPOS>ATOM
1	   S	1.112	-2.835	-0.005	S.O2	1	UNK0	0.000	
2	   O	1.695	-3.870	0.947	O.2	1	UNK0	0.000	
3	   O	-0.320	-2.658	0.410	O.2	1	UNK0	0.000	
4	   N	2.001	-1.409	0.123	N.3	1	UNK0	0.000	
5	   C	1.600	-0.283	-0.687	C.3	1	UNK0	0.000	
6	   C	1.751	0.641	0.526	C.3	1	UNK0	0.000	
7	   C	1.636	-0.636	1.327	C.3	1	UNK0	0.000	
8	   N	0.636	1.544	0.583	N.pl3	1	UNK0	0.000	
9	   C	0.810	2.960	0.797	C.2	1	UNK0	0.000	
10	   O	1.926	3.578	0.861	O.2	1	UNK0	0.000	
11	   C	-0.479	3.641	0.939	C.3	1	UNK0	0.000	
12	   C	-1.513	2.573	0.824	C.3	1	UNK0	0.000	
13	   C	-2.509	2.864	-0.275	C.3	1	UNK0	0.000	
14	   C	-1.715	3.135	-1.521	C.2	1	UNK0	0.000	
15	   C	-0.781	4.072	-1.424	C.2	1	UNK0	0.000	
16	   C	-0.632	4.738	-0.102	C.3	1	UNK0	0.000	
17	   C	-0.743	1.330	0.463	C.2	1	UNK0	0.000	
18	   O	-1.282	0.264	0.107	O.2	1	UNK0	0.000	
19	   C	1.123	-3.553	-1.585	C.2	1	UNK0	0.000	
20	   C	0.127	-3.164	-2.459	C.2	1	UNK0	0.000	
21	   C	0.019	-3.653	-3.739	C.2	1	UNK0	0.000	
22	   C	0.934	-4.567	-4.175	C.2	1	UNK0	0.000	
23	   C	1.950	-4.976	-3.311	C.2	1	UNK0	0.000	
24	   C	2.046	-4.471	-2.018	C.2	1	UNK0	0.000	
25	  Br	0.776	-5.236	-5.943	Br	1	UNK0	0.000	
26	   H	0.609	-0.319	-1.133	 H	1	UNK0	0.000	
27	   H	2.398	-0.033	-1.416	 H	1	UNK0	0.000	
28	   H	2.736	1.081	0.652	 H	1	UNK0	0.000	
29	   H	2.394	-0.771	2.121	 H	1	UNK0	0.000	
30	   H	0.635	-0.847	1.712	 H	1	UNK0	0.000	
31	   H	-0.530	4.119	1.957	 H	1	UNK0	0.000	
32	   H	-2.036	2.437	1.799	 H	1	UNK0	0.000	
33	   H	-3.080	3.776	-0.000	 H	1	UNK0	0.000	
34	   H	-3.143	1.983	-0.410	 H	1	UNK0	0.000	
35	   H	-1.863	2.626	-2.447	 H	1	UNK0	0.000	
36	   H	-0.131	4.379	-2.228	 H	1	UNK0	0.000	
37	   H	-1.559	5.319	0.098	 H	1	UNK0	0.000	
38	   H	0.274	5.374	-0.064	 H	1	UNK0	0.000	
39	   H	-0.624	-2.439	-2.156	 H	1	UNK0	0.000	
40	   H	-0.787	-3.321	-4.407	 H	1	UNK0	0.000	
41	   H	2.678	-5.695	-3.641	 H	1	UNK0	0.000	
42	   H	2.830	-4.779	-1.334	 H	1	UNK0	0.000	
@<TRIPOS>BOND
1 1 2 2
2 1 3 2
3 1 4 1
4 1 19 1
5 4 5 1
6 4 7 1
7 5 6 1
8 6 7 1
9 6 8 1
10 8 9 1
11 8 17 1
12 9 10 2
13 9 11 1
14 11 12 1
15 11 16 1
16 12 13 1
17 12 17 1
18 13 14 1
19 14 15 2
20 15 16 1
21 17 18 2
22 19 20 2
23 19 24 1
24 20 21 1
25 21 22 2
26 22 23 1
27 22 25 1
28 23 24 2
29 5 26 1
30 5 27 1
31 6 28 1
32 7 29 1
33 7 30 1
34 11 31 1
35 12 32 1
36 13 33 1
37 13 34 1
38 14 35 1
39 15 36 1
40 16 37 1
41 16 38 1
42 20 39 1
43 21 40 1
44 23 41 1
45 24 42 1
@<TRIPOS>SUBSTRUCTURE
1	UNK0	1	GROUP	1 ****	UNK
