# created with PyMOL 2.3.2
@<TRIPOS>MOLECULE
1031
39 42 1                 
SMALL
USER_CHARGES
@<TRIPOS>ATOM
1	   S	-0.145	2.872	2.016	S.O2	1	UNK0	0.000	
2	   O	0.059	3.731	0.791	O.2	1	UNK0	0.000	
3	   O	-1.422	3.284	2.643	O.2	1	UNK0	0.000	
4	   N	-0.111	1.246	1.522	N.3	1	UNK0	0.000	
5	   C	-0.271	0.278	2.557	C.3	1	UNK0	0.000	
6	   C	-0.769	-1.009	1.890	C.3	1	UNK0	0.000	
7	   C	0.313	-1.441	0.921	C.3	1	UNK0	0.000	
8	   C	1.466	-0.483	0.863	C.3	1	UNK0	0.000	
9	   C	1.059	0.964	0.749	C.3	1	UNK0	0.000	
10	   C	-0.249	-1.756	-0.418	C.2	1	UNK0	0.000	
11	   O	-0.092	-2.925	-0.907	O.2	1	UNK0	0.000	
12	   N	-0.951	-0.824	-1.184	N.pl3	1	UNK0	0.000	
13	   C	-1.473	-1.184	-2.474	C.2	1	UNK0	0.000	
14	   N	-2.151	-0.458	-3.332	N.2	1	UNK0	0.000	
15	   N	-2.536	-0.952	-4.442	N.pl3	1	UNK0	0.000	
16	   C	-2.241	-2.220	-4.723	C.2	1	UNK0	0.000	
17	   N	-2.732	-2.581	-5.953	N.2	1	UNK0	0.000	
18	   N	-3.334	-1.502	-6.416	N.2	1	UNK0	0.000	
19	   C	-3.237	-0.499	-5.534	C.2	1	UNK0	0.000	
20	   S	-1.380	-2.682	-3.317	S.3	1	UNK0	0.000	
21	   C	1.174	3.213	3.141	C.2	1	UNK0	0.000	
22	   S	2.855	3.079	2.901	S.3	1	UNK0	0.000	
23	   C	3.393	3.584	4.435	C.2	1	UNK0	0.000	
24	   C	2.225	3.847	5.102	C.2	1	UNK0	0.000	
25	   C	1.082	3.654	4.431	C.2	1	UNK0	0.000	
26	  Br	5.199	3.749	5.085	Br	1	UNK0	0.000	
27	   H	-0.976	0.600	3.354	 H	1	UNK0	0.000	
28	   H	0.693	0.026	3.044	 H	1	UNK0	0.000	
29	   H	-0.933	-1.737	2.709	 H	1	UNK0	0.000	
30	   H	-1.720	-0.818	1.378	 H	1	UNK0	0.000	
31	   H	0.738	-2.393	1.359	 H	1	UNK0	0.000	
32	   H	2.114	-0.652	1.750	 H	1	UNK0	0.000	
33	   H	2.055	-0.739	-0.047	 H	1	UNK0	0.000	
34	   H	1.937	1.558	1.092	 H	1	UNK0	0.000	
35	   H	0.938	1.268	-0.329	 H	1	UNK0	0.000	
36	   H	-1.113	0.139	-0.845	 H	1	UNK0	0.000	
37	   H	-3.658	0.493	-5.695	 H	1	UNK0	0.000	
38	   H	2.279	4.205	6.160	 H	1	UNK0	0.000	
39	   H	0.087	3.838	4.881	 H	1	UNK0	0.000	
@<TRIPOS>BOND
1 1 2 2
2 1 3 2
3 1 4 1
4 1 21 1
5 4 5 1
6 4 9 1
7 5 6 1
8 6 7 1
9 7 8 1
10 7 10 1
11 8 9 1
12 10 11 2
13 10 12 1
14 12 13 1
15 13 14 2
16 13 20 1
17 14 15 1
18 15 16 1
19 15 19 1
20 16 17 2
21 16 20 1
22 17 18 1
23 18 19 2
24 21 22 1
25 21 25 2
26 22 23 1
27 23 24 2
28 23 26 1
29 24 25 1
30 5 27 1
31 5 28 1
32 6 29 1
33 6 30 1
34 7 31 1
35 8 32 1
36 8 33 1
37 9 34 1
38 9 35 1
39 12 36 1
40 19 37 1
41 24 38 1
42 25 39 1
@<TRIPOS>SUBSTRUCTURE
1	UNK0	1	GROUP	1 ****	UNK
