# created with PyMOL 2.3.2
@<TRIPOS>MOLECULE
1036
55 58 1                 
SMALL
USER_CHARGES
@<TRIPOS>ATOM
1	   S	-7.605	0.033	-0.159	S.O2	1	UNK0	0.000	
2	   O	-8.116	0.319	-1.565	O.2	1	UNK0	0.000	
3	   O	-8.791	-0.284	0.673	O.2	1	UNK0	0.000	
4	   N	-6.551	-1.309	-0.271	N.3	1	UNK0	0.000	
5	   C	-5.503	-1.102	-1.199	C.3	1	UNK0	0.000	
6	   C	-4.295	-1.920	-0.800	C.3	1	UNK0	0.000	
7	   N	-3.864	-1.508	0.521	N.pl3	1	UNK0	0.000	
8	   C	-4.929	-1.271	1.485	C.3	1	UNK0	0.000	
9	   C	-6.227	-1.916	0.971	C.3	1	UNK0	0.000	
10	   C	-2.498	-1.352	0.834	C.2	1	UNK0	0.000	
11	   O	-2.191	-0.993	1.999	O.2	1	UNK0	0.000	
12	   C	-1.434	-1.592	-0.142	C.3	1	UNK0	0.000	
13	   C	-0.058	-1.369	0.397	C.3	1	UNK0	0.000	
14	   C	0.963	-1.629	-0.641	C.2	1	UNK0	0.000	
15	   O	0.600	-1.980	-1.774	O.2	1	UNK0	0.000	
16	   N	2.357	-1.493	-0.397	N.pl3	1	UNK0	0.000	
17	   C	2.816	-1.089	0.901	C.3	1	UNK0	0.000	
18	   C	4.231	-0.616	0.937	C.3	1	UNK0	0.000	
19	   C	4.720	-0.047	-0.326	C.2	1	UNK0	0.000	
20	   N	5.561	0.974	-0.635	N.pl3	1	UNK0	0.000	
21	   C	5.668	1.075	-1.957	C.2	1	UNK0	0.000	
22	   C	4.880	0.100	-2.526	C.2	1	UNK0	0.000	
23	   C	4.290	-0.599	-1.513	C.2	1	UNK0	0.000	
24	   C	3.345	-1.750	-1.422	C.3	1	UNK0	0.000	
25	   C	4.829	0.005	-3.892	C.2	1	UNK0	0.000	
26	   C	5.554	0.874	-4.664	C.2	1	UNK0	0.000	
27	   C	6.344	1.852	-4.114	C.2	1	UNK0	0.000	
28	   C	6.407	1.960	-2.743	C.2	1	UNK0	0.000	
29	  Br	7.486	3.296	-1.950	Br	1	UNK0	0.000	
30	   C	-6.787	1.497	0.395	C.3	1	UNK0	0.000	
31	   H	-5.878	-1.439	-2.207	 H	1	UNK0	0.000	
32	   H	-5.230	-0.037	-1.352	 H	1	UNK0	0.000	
33	   H	-3.512	-1.730	-1.550	 H	1	UNK0	0.000	
34	   H	-4.622	-2.981	-0.790	 H	1	UNK0	0.000	
35	   H	-5.108	-0.181	1.508	 H	1	UNK0	0.000	
36	   H	-4.678	-1.636	2.492	 H	1	UNK0	0.000	
37	   H	-7.004	-1.870	1.733	 H	1	UNK0	0.000	
38	   H	-5.983	-2.996	0.806	 H	1	UNK0	0.000	
39	   H	-1.455	-2.647	-0.545	 H	1	UNK0	0.000	
40	   H	-1.532	-0.955	-1.068	 H	1	UNK0	0.000	
41	   H	0.105	-2.152	1.194	 H	1	UNK0	0.000	
42	   H	0.069	-0.404	0.908	 H	1	UNK0	0.000	
43	   H	2.717	-1.976	1.573	 H	1	UNK0	0.000	
44	   H	2.149	-0.259	1.238	 H	1	UNK0	0.000	
45	   H	4.304	0.207	1.707	 H	1	UNK0	0.000	
46	   H	4.919	-1.434	1.297	 H	1	UNK0	0.000	
47	   H	6.040	1.575	0.066	 H	1	UNK0	0.000	
48	   H	2.900	-2.002	-2.401	 H	1	UNK0	0.000	
49	   H	3.942	-2.622	-1.108	 H	1	UNK0	0.000	
50	   H	4.209	-0.761	-4.328	 H	1	UNK0	0.000	
51	   H	5.502	0.786	-5.740	 H	1	UNK0	0.000	
52	   H	6.925	2.548	-4.720	 H	1	UNK0	0.000	
53	   H	-6.795	1.589	1.502	 H	1	UNK0	0.000	
54	   H	-5.776	1.563	-0.039	 H	1	UNK0	0.000	
55	   H	-7.354	2.368	-0.024	 H	1	UNK0	0.000	
@<TRIPOS>BOND
1 1 2 2
2 1 3 2
3 1 4 1
4 1 30 1
5 4 5 1
6 4 9 1
7 5 6 1
8 6 7 1
9 7 8 1
10 7 10 1
11 8 9 1
12 10 11 2
13 10 12 1
14 12 13 1
15 13 14 1
16 14 15 2
17 14 16 1
18 16 17 1
19 16 24 1
20 17 18 1
21 18 19 1
22 19 20 1
23 19 23 2
24 20 21 1
25 21 22 2
26 21 28 1
27 22 23 1
28 22 25 1
29 23 24 1
30 25 26 2
31 26 27 1
32 27 28 2
33 28 29 1
34 5 31 1
35 5 32 1
36 6 33 1
37 6 34 1
38 8 35 1
39 8 36 1
40 9 37 1
41 9 38 1
42 12 39 1
43 12 40 1
44 13 41 1
45 13 42 1
46 17 43 1
47 17 44 1
48 18 45 1
49 18 46 1
50 20 47 1
51 24 48 1
52 24 49 1
53 25 50 1
54 26 51 1
55 27 52 1
56 30 53 1
57 30 54 1
58 30 55 1
@<TRIPOS>SUBSTRUCTURE
1	UNK0	1	GROUP	1 ****	UNK
