# created with PyMOL 2.3.2
@<TRIPOS>MOLECULE
1037
50 53 1                 
SMALL
USER_CHARGES
@<TRIPOS>ATOM
1	   S	-1.108	1.958	-3.212	S.O2	1	UNK0	0.000	
2	   O	-1.415	1.290	-4.524	O.2	1	UNK0	0.000	
3	   O	-1.571	3.398	-3.353	O.2	1	UNK0	0.000	
4	   N	0.562	1.898	-2.932	N.3	1	UNK0	0.000	
5	   C	1.201	3.141	-2.664	C.3	1	UNK0	0.000	
6	   C	1.610	3.438	-1.297	C.3	1	UNK0	0.000	
7	   N	1.645	2.352	-0.337	N.pl3	1	UNK0	0.000	
8	   C	1.037	1.092	-0.636	C.3	1	UNK0	0.000	
9	   C	1.008	0.814	-2.134	C.3	1	UNK0	0.000	
10	   C	2.310	2.569	0.871	C.2	1	UNK0	0.000	
11	   O	2.919	3.774	0.867	O.2	1	UNK0	0.000	
12	   C	2.475	1.806	2.074	C.3	1	UNK0	0.000	
13	   C	2.399	0.347	2.070	C.2	1	UNK0	0.000	
14	   C	3.455	-0.424	1.650	C.2	1	UNK0	0.000	
15	   C	3.372	-1.816	1.657	C.2	1	UNK0	0.000	
16	   C	2.227	-2.418	2.089	C.2	1	UNK0	0.000	
17	   C	1.151	-1.640	2.520	C.2	1	UNK0	0.000	
18	   C	1.235	-0.284	2.511	C.2	1	UNK0	0.000	
19	  Br	5.072	0.400	1.032	Br	1	UNK0	0.000	
20	   C	-2.072	1.130	-2.007	C.2	1	UNK0	0.000	
21	   C	-2.295	-0.242	-2.115	C.2	1	UNK0	0.000	
22	   C	-3.055	-0.947	-1.207	C.2	1	UNK0	0.000	
23	   C	-3.638	-0.313	-0.133	C.2	1	UNK0	0.000	
24	   C	-3.422	1.043	-0.020	C.2	1	UNK0	0.000	
25	   C	-2.657	1.761	-0.932	C.2	1	UNK0	0.000	
26	   O	-4.419	-1.025	0.799	O.3	1	UNK0	0.000	
27	   C	-4.190	-2.433	0.985	C.3	1	UNK0	0.000	
28	   C	-4.089	-3.011	-0.380	C.2	1	UNK0	0.000	
29	   O	-4.693	-4.056	-0.713	O.2	1	UNK0	0.000	
30	   N	-3.282	-2.360	-1.345	N.pl3	1	UNK0	0.000	
31	   H	0.484	3.948	-3.001	 H	1	UNK0	0.000	
32	   H	2.060	3.226	-3.395	 H	1	UNK0	0.000	
33	   H	2.643	3.898	-1.296	 H	1	UNK0	0.000	
34	   H	0.966	4.243	-0.816	 H	1	UNK0	0.000	
35	   H	0.023	1.088	-0.214	 H	1	UNK0	0.000	
36	   H	1.550	0.212	-0.202	 H	1	UNK0	0.000	
37	   H	0.373	-0.066	-2.290	 H	1	UNK0	0.000	
38	   H	2.078	0.618	-2.421	 H	1	UNK0	0.000	
39	   H	3.484	2.099	2.558	 H	1	UNK0	0.000	
40	   H	1.730	2.185	2.841	 H	1	UNK0	0.000	
41	   H	4.237	-2.362	1.311	 H	1	UNK0	0.000	
42	   H	2.170	-3.486	2.094	 H	1	UNK0	0.000	
43	   H	0.252	-2.173	2.860	 H	1	UNK0	0.000	
44	   H	0.418	0.355	2.838	 H	1	UNK0	0.000	
45	   H	-1.841	-0.753	-2.958	 H	1	UNK0	0.000	
46	   H	-3.885	1.555	0.837	 H	1	UNK0	0.000	
47	   H	-2.505	2.833	-0.811	 H	1	UNK0	0.000	
48	   H	-3.165	-2.584	1.444	 H	1	UNK0	0.000	
49	   H	-5.005	-2.804	1.588	 H	1	UNK0	0.000	
50	   H	-2.841	-2.826	-2.151	 H	1	UNK0	0.000	
@<TRIPOS>BOND
1 1 2 2
2 1 3 2
3 1 4 1
4 1 20 1
5 4 5 1
6 4 9 1
7 5 6 1
8 6 7 1
9 7 8 1
10 7 10 1
11 8 9 1
12 10 11 2
13 10 12 1
14 12 13 1
15 13 14 2
16 13 18 1
17 14 15 1
18 14 19 1
19 15 16 2
20 16 17 1
21 17 18 2
22 20 21 2
23 20 25 1
24 21 22 1
25 22 23 2
26 22 30 1
27 23 24 1
28 23 26 1
29 24 25 2
30 26 27 1
31 27 28 1
32 28 29 2
33 28 30 1
34 5 31 1
35 5 32 1
36 6 33 1
37 6 34 1
38 8 35 1
39 8 36 1
40 9 37 1
41 9 38 1
42 12 39 1
43 12 40 1
44 15 41 1
45 16 42 1
46 17 43 1
47 18 44 1
48 21 45 1
49 24 46 1
50 25 47 1
51 27 48 1
52 27 49 1
53 30 50 1
@<TRIPOS>SUBSTRUCTURE
1	UNK0	1	GROUP	1 ****	UNK
