# created with PyMOL 2.3.2
@<TRIPOS>MOLECULE
1039
52 55 1                 
SMALL
USER_CHARGES
@<TRIPOS>ATOM
1	   S	-2.328	2.332	-0.606	S.O2	1	UNK0	0.000	
2	   O	-2.018	3.794	-0.730	O.2	1	UNK0	0.000	
3	   O	-3.486	2.048	-1.554	O.2	1	UNK0	0.000	
4	   N	-2.838	1.980	0.959	N.3	1	UNK0	0.000	
5	   C	-3.323	0.689	1.235	C.3	1	UNK0	0.000	
6	   C	-2.139	-0.151	1.765	C.3	1	UNK0	0.000	
7	   N	-1.848	0.351	3.063	N.pl3	1	UNK0	0.000	
8	   C	-2.074	1.773	3.280	C.3	1	UNK0	0.000	
9	   C	-2.089	2.584	2.024	C.3	1	UNK0	0.000	
10	   C	-1.358	-0.434	4.104	C.2	1	UNK0	0.000	
11	   O	-1.250	0.230	5.237	O.2	1	UNK0	0.000	
12	   C	-0.958	-1.830	4.156	C.3	1	UNK0	0.000	
13	   N	-0.916	-2.632	3.000	N.pl3	1	UNK0	0.000	
14	   C	-0.038	-2.455	1.895	C.2	1	UNK0	0.000	
15	   O	0.817	-1.523	1.864	O.2	1	UNK0	0.000	
16	   C	-0.095	-3.364	0.731	C.2	1	UNK0	0.000	
17	   O	-0.905	-4.362	0.600	O.3	1	UNK0	0.000	
18	   C	-0.766	-5.012	-0.508	C.2	1	UNK0	0.000	
19	   C	0.250	-4.381	-1.195	C.2	1	UNK0	0.000	
20	   C	0.687	-3.318	-0.401	C.2	1	UNK0	0.000	
21	  Br	-1.781	-6.546	-1.064	Br	1	UNK0	0.000	
22	   C	-0.981	1.378	-1.183	C.2	1	UNK0	0.000	
23	   C	0.326	1.841	-1.015	C.2	1	UNK0	0.000	
24	   C	1.394	1.108	-1.470	C.2	1	UNK0	0.000	
25	   C	1.229	-0.115	-2.112	C.2	1	UNK0	0.000	
26	   C	-0.057	-0.544	-2.263	C.2	1	UNK0	0.000	
27	   C	-1.133	0.166	-1.819	C.2	1	UNK0	0.000	
28	   C	2.588	-0.644	-2.480	C.3	1	UNK0	0.000	
29	   C	3.360	0.661	-2.638	C.3	1	UNK0	0.000	
30	   C	2.864	1.413	-1.399	C.3	1	UNK0	0.000	
31	   H	-4.108	0.745	2.016	 H	1	UNK0	0.000	
32	   H	-3.760	0.232	0.346	 H	1	UNK0	0.000	
33	   H	-2.452	-1.220	1.759	 H	1	UNK0	0.000	
34	   H	-1.295	-0.013	1.103	 H	1	UNK0	0.000	
35	   H	-3.005	1.872	3.871	 H	1	UNK0	0.000	
36	   H	-1.243	2.128	3.923	 H	1	UNK0	0.000	
37	   H	-1.071	2.804	1.652	 H	1	UNK0	0.000	
38	   H	-2.566	3.558	2.254	 H	1	UNK0	0.000	
39	   H	0.103	-1.845	4.608	 H	1	UNK0	0.000	
40	   H	-1.532	-2.339	4.999	 H	1	UNK0	0.000	
41	   H	-1.587	-3.458	2.903	 H	1	UNK0	0.000	
42	   H	0.637	-4.658	-2.168	 H	1	UNK0	0.000	
43	   H	1.454	-2.615	-0.609	 H	1	UNK0	0.000	
44	   H	0.450	2.802	-0.510	 H	1	UNK0	0.000	
45	   H	-0.207	-1.507	-2.766	 H	1	UNK0	0.000	
46	   H	-2.162	-0.206	-1.955	 H	1	UNK0	0.000	
47	   H	3.039	-1.160	-1.632	 H	1	UNK0	0.000	
48	   H	2.559	-1.225	-3.408	 H	1	UNK0	0.000	
49	   H	3.007	1.172	-3.550	 H	1	UNK0	0.000	
50	   H	4.445	0.512	-2.586	 H	1	UNK0	0.000	
51	   H	3.331	0.957	-0.499	 H	1	UNK0	0.000	
52	   H	3.065	2.490	-1.466	 H	1	UNK0	0.000	
@<TRIPOS>BOND
1 1 2 2
2 1 3 2
3 1 4 1
4 1 22 1
5 4 5 1
6 4 9 1
7 5 6 1
8 6 7 1
9 7 8 1
10 7 10 1
11 8 9 1
12 10 11 2
13 10 12 1
14 12 13 1
15 13 14 1
16 14 15 2
17 14 16 1
18 16 17 1
19 16 20 2
20 17 18 1
21 18 19 2
22 18 21 1
23 19 20 1
24 22 23 2
25 22 27 1
26 23 24 1
27 24 25 2
28 24 30 1
29 25 26 1
30 25 28 1
31 26 27 2
32 28 29 1
33 29 30 1
34 5 31 1
35 5 32 1
36 6 33 1
37 6 34 1
38 8 35 1
39 8 36 1
40 9 37 1
41 9 38 1
42 12 39 1
43 12 40 1
44 13 41 1
45 19 42 1
46 20 43 1
47 23 44 1
48 26 45 1
49 27 46 1
50 28 47 1
51 28 48 1
52 29 49 1
53 29 50 1
54 30 51 1
55 30 52 1
@<TRIPOS>SUBSTRUCTURE
1	UNK0	1	GROUP	1 ****	UNK
