# created with PyMOL 2.3.2
@<TRIPOS>MOLECULE
1043
53 56 1                 
SMALL
USER_CHARGES
@<TRIPOS>ATOM
1	   S	1.052	3.567	-1.419	S.O2	1	UNK0	0.000	
2	   O	0.292	4.264	-0.305	O.2	1	UNK0	0.000	
3	   O	0.426	4.048	-2.704	O.2	1	UNK0	0.000	
4	   N	0.767	1.893	-1.246	N.3	1	UNK0	0.000	
5	   C	1.357	1.102	-2.305	C.3	1	UNK0	0.000	
6	   C	1.992	-0.153	-1.760	C.3	1	UNK0	0.000	
7	   N	0.971	-0.823	-0.928	N.pl3	1	UNK0	0.000	
8	   C	0.422	-0.028	0.126	C.3	1	UNK0	0.000	
9	   C	1.082	1.368	0.036	C.3	1	UNK0	0.000	
10	   C	0.592	-2.147	-1.192	C.2	1	UNK0	0.000	
11	   O	1.209	-2.698	-2.218	O.2	1	UNK0	0.000	
12	   C	-0.347	-3.040	-0.562	C.3	1	UNK0	0.000	
13	   N	-1.102	-2.614	0.574	N.pl3	1	UNK0	0.000	
14	   C	-0.740	-2.740	1.973	C.2	1	UNK0	0.000	
15	   O	0.350	-3.253	2.351	O.2	1	UNK0	0.000	
16	   N	-1.800	-2.200	2.745	N.pl3	1	UNK0	0.000	
17	   C	-2.952	-2.152	1.910	C.3	1	UNK0	0.000	
18	   C	-3.840	-3.366	2.042	C.3	1	UNK0	0.000	
19	   C	-5.095	-2.900	1.329	C.3	1	UNK0	0.000	
20	   C	-5.136	-1.400	1.494	C.3	1	UNK0	0.000	
21	   C	-3.905	-1.031	2.287	C.3	1	UNK0	0.000	
22	   C	-2.401	-1.986	0.566	C.2	1	UNK0	0.000	
23	   O	-2.922	-1.417	-0.427	O.2	1	UNK0	0.000	
24	   C	2.748	3.984	-1.378	C.2	1	UNK0	0.000	
25	   C	3.405	4.277	-0.200	C.2	1	UNK0	0.000	
26	   C	4.755	4.608	-0.178	C.2	1	UNK0	0.000	
27	   C	5.484	4.654	-1.338	C.2	1	UNK0	0.000	
28	   C	4.840	4.363	-2.522	C.2	1	UNK0	0.000	
29	   C	3.493	4.033	-2.537	C.2	1	UNK0	0.000	
30	  Br	7.355	5.111	-1.316	Br	1	UNK0	0.000	
31	   H	0.492	0.756	-2.942	 H	1	UNK0	0.000	
32	   H	2.075	1.692	-2.904	 H	1	UNK0	0.000	
33	   H	2.891	0.106	-1.208	 H	1	UNK0	0.000	
34	   H	2.261	-0.802	-2.621	 H	1	UNK0	0.000	
35	   H	0.563	-0.420	1.139	 H	1	UNK0	0.000	
36	   H	-0.676	0.132	-0.090	 H	1	UNK0	0.000	
37	   H	2.133	1.220	0.275	 H	1	UNK0	0.000	
38	   H	0.648	2.022	0.827	 H	1	UNK0	0.000	
39	   H	0.197	-4.004	-0.241	 H	1	UNK0	0.000	
40	   H	-1.105	-3.450	-1.314	 H	1	UNK0	0.000	
41	   H	-1.676	-1.910	3.754	 H	1	UNK0	0.000	
42	   H	-4.092	-3.480	3.113	 H	1	UNK0	0.000	
43	   H	-3.408	-4.266	1.599	 H	1	UNK0	0.000	
44	   H	-6.014	-3.343	1.758	 H	1	UNK0	0.000	
45	   H	-4.971	-3.196	0.264	 H	1	UNK0	0.000	
46	   H	-6.069	-1.062	1.987	 H	1	UNK0	0.000	
47	   H	-5.021	-0.949	0.482	 H	1	UNK0	0.000	
48	   H	-4.078	-1.146	3.391	 H	1	UNK0	0.000	
49	   H	-3.508	-0.042	2.035	 H	1	UNK0	0.000	
50	   H	2.836	4.242	0.713	 H	1	UNK0	0.000	
51	   H	5.281	4.841	0.739	 H	1	UNK0	0.000	
52	   H	5.441	4.405	-3.429	 H	1	UNK0	0.000	
53	   H	3.021	3.809	-3.505	 H	1	UNK0	0.000	
@<TRIPOS>BOND
1 1 2 2
2 1 3 2
3 1 4 1
4 1 24 1
5 4 5 1
6 4 9 1
7 5 6 1
8 6 7 1
9 7 8 1
10 7 10 1
11 8 9 1
12 10 11 2
13 10 12 1
14 12 13 1
15 13 14 1
16 13 22 1
17 14 15 2
18 14 16 1
19 16 17 1
20 17 18 1
21 17 21 1
22 17 22 1
23 18 19 1
24 19 20 1
25 20 21 1
26 22 23 2
27 24 25 2
28 24 29 1
29 25 26 1
30 26 27 2
31 27 28 1
32 27 30 1
33 28 29 2
34 5 31 1
35 5 32 1
36 6 33 1
37 6 34 1
38 8 35 1
39 8 36 1
40 9 37 1
41 9 38 1
42 12 39 1
43 12 40 1
44 16 41 1
45 18 42 1
46 18 43 1
47 19 44 1
48 19 45 1
49 20 46 1
50 20 47 1
51 21 48 1
52 21 49 1
53 25 50 1
54 26 51 1
55 28 52 1
56 29 53 1
@<TRIPOS>SUBSTRUCTURE
1	UNK0	1	GROUP	1 ****	UNK
