# created with PyMOL 2.3.2
@<TRIPOS>MOLECULE
1045
47 50 1                 
SMALL
USER_CHARGES
@<TRIPOS>ATOM
1	   S	0.316	1.595	-0.442	S.O2	1	UNK0	0.000	
2	   O	1.151	2.774	-0.872	O.2	1	UNK0	0.000	
3	   O	0.443	1.544	1.076	O.2	1	UNK0	0.000	
4	   N	0.886	0.191	-1.204	N.3	1	UNK0	0.000	
5	   C	0.269	-1.039	-0.842	C.3	1	UNK0	0.000	
6	   C	1.345	-2.133	-0.666	C.3	1	UNK0	0.000	
7	   N	2.241	-1.613	0.398	N.pl3	1	UNK0	0.000	
8	   C	2.796	-0.331	0.164	C.3	1	UNK0	0.000	
9	   C	2.310	0.154	-1.219	C.3	1	UNK0	0.000	
10	   C	2.459	-2.426	1.518	C.2	1	UNK0	0.000	
11	   O	1.837	-3.584	1.493	O.2	1	UNK0	0.000	
12	   C	3.243	-2.230	2.702	C.2	1	UNK0	0.000	
13	   C	3.973	-1.109	3.012	C.2	1	UNK0	0.000	
14	   C	4.729	-0.985	4.190	C.2	1	UNK0	0.000	
15	   C	4.767	-2.001	5.096	C.2	1	UNK0	0.000	
16	   C	4.049	-3.136	4.819	C.2	1	UNK0	0.000	
17	   C	3.313	-3.249	3.664	C.2	1	UNK0	0.000	
18	  Br	5.717	0.620	4.537	Br	1	UNK0	0.000	
19	   C	-1.371	1.909	-0.784	C.2	1	UNK0	0.000	
20	   C	-2.356	1.397	0.023	C.2	1	UNK0	0.000	
21	   C	-3.691	1.646	-0.249	C.2	1	UNK0	0.000	
22	   C	-4.060	2.416	-1.337	C.2	1	UNK0	0.000	
23	   C	-3.044	2.908	-2.118	C.2	1	UNK0	0.000	
24	   C	-1.703	2.677	-1.873	C.2	1	UNK0	0.000	
25	   O	-5.411	2.678	-1.626	O.3	1	UNK0	0.000	
26	   C	-6.393	1.777	-1.171	C.3	1	UNK0	0.000	
27	   C	-6.081	1.424	0.234	C.2	1	UNK0	0.000	
28	   O	-6.958	1.377	1.131	O.2	1	UNK0	0.000	
29	   N	-4.734	1.127	0.573	N.pl3	1	UNK0	0.000	
30	   H	-0.312	-1.015	0.090	 H	1	UNK0	0.000	
31	   H	-0.373	-1.427	-1.683	 H	1	UNK0	0.000	
32	   H	0.818	-3.015	-0.303	 H	1	UNK0	0.000	
33	   H	1.884	-2.345	-1.586	 H	1	UNK0	0.000	
34	   H	3.919	-0.343	0.133	 H	1	UNK0	0.000	
35	   H	2.426	0.416	0.904	 H	1	UNK0	0.000	
36	   H	2.681	-0.536	-2.019	 H	1	UNK0	0.000	
37	   H	2.741	1.179	-1.355	 H	1	UNK0	0.000	
38	   H	3.988	-0.275	2.356	 H	1	UNK0	0.000	
39	   H	5.355	-1.882	5.995	 H	1	UNK0	0.000	
40	   H	4.077	-3.943	5.535	 H	1	UNK0	0.000	
41	   H	2.749	-4.170	3.469	 H	1	UNK0	0.000	
42	   H	-2.139	0.781	0.900	 H	1	UNK0	0.000	
43	   H	-3.326	3.518	-2.981	 H	1	UNK0	0.000	
44	   H	-0.936	3.101	-2.539	 H	1	UNK0	0.000	
45	   H	-7.396	2.270	-1.203	 H	1	UNK0	0.000	
46	   H	-6.410	0.832	-1.757	 H	1	UNK0	0.000	
47	   H	-4.464	0.548	1.393	 H	1	UNK0	0.000	
@<TRIPOS>BOND
1 1 2 2
2 1 3 2
3 1 4 1
4 1 19 1
5 4 5 1
6 4 9 1
7 5 6 1
8 6 7 1
9 7 8 1
10 7 10 1
11 8 9 1
12 10 11 2
13 10 12 1
14 12 13 2
15 12 17 1
16 13 14 1
17 14 15 2
18 14 18 1
19 15 16 1
20 16 17 2
21 19 20 2
22 19 24 1
23 20 21 1
24 21 22 2
25 21 29 1
26 22 23 1
27 22 25 1
28 23 24 2
29 25 26 1
30 26 27 1
31 27 28 2
32 27 29 1
33 5 30 1
34 5 31 1
35 6 32 1
36 6 33 1
37 8 34 1
38 8 35 1
39 9 36 1
40 9 37 1
41 13 38 1
42 15 39 1
43 16 40 1
44 17 41 1
45 20 42 1
46 23 43 1
47 24 44 1
48 26 45 1
49 26 46 1
50 29 47 1
@<TRIPOS>SUBSTRUCTURE
1	UNK0	1	GROUP	1 ****	UNK
