# created with PyMOL 2.3.2
@<TRIPOS>MOLECULE
1046
47 50 1                 
SMALL
USER_CHARGES
@<TRIPOS>ATOM
1	   S	-1.381	1.130	-1.533	S.O2	1	UNK0	0.000	
2	   O	-0.275	1.833	-2.265	O.2	1	UNK0	0.000	
3	   O	-2.445	0.785	-2.510	O.2	1	UNK0	0.000	
4	   N	-0.726	-0.271	-0.789	N.3	1	UNK0	0.000	
5	   C	-1.692	-1.027	-0.054	C.3	1	UNK0	0.000	
6	   C	-1.156	-2.461	0.142	C.3	1	UNK0	0.000	
7	   N	0.324	-2.263	0.256	N.pl3	1	UNK0	0.000	
8	   C	0.650	-1.087	0.977	C.3	1	UNK0	0.000	
9	   C	0.451	0.062	-0.023	C.3	1	UNK0	0.000	
10	   C	1.184	-3.203	-0.282	C.2	1	UNK0	0.000	
11	   O	0.610	-4.261	-0.808	O.2	1	UNK0	0.000	
12	   C	2.629	-3.249	-0.379	C.2	1	UNK0	0.000	
13	   C	3.483	-2.211	-0.127	C.2	1	UNK0	0.000	
14	   C	4.849	-2.324	-0.180	C.2	1	UNK0	0.000	
15	   C	5.446	-3.521	-0.501	C.2	1	UNK0	0.000	
16	   C	4.627	-4.586	-0.763	C.2	1	UNK0	0.000	
17	   C	3.270	-4.462	-0.706	C.2	1	UNK0	0.000	
18	  Br	7.341	-3.653	-0.568	Br	1	UNK0	0.000	
19	   C	-2.031	2.253	-0.361	C.2	1	UNK0	0.000	
20	   C	-3.349	2.173	0.035	C.2	1	UNK0	0.000	
21	   C	-3.857	3.065	0.962	C.2	1	UNK0	0.000	
22	   C	-3.080	4.057	1.523	C.2	1	UNK0	0.000	
23	   C	-1.761	4.134	1.125	C.2	1	UNK0	0.000	
24	   C	-1.253	3.246	0.200	C.2	1	UNK0	0.000	
25	   O	-3.588	4.964	2.464	O.3	1	UNK0	0.000	
26	   C	-4.799	4.711	3.151	C.3	1	UNK0	0.000	
27	   C	-5.724	3.894	2.314	C.2	1	UNK0	0.000	
28	   O	-6.959	4.034	2.465	O.2	1	UNK0	0.000	
29	   N	-5.217	2.969	1.359	N.pl3	1	UNK0	0.000	
30	   H	-1.998	-0.593	0.903	 H	1	UNK0	0.000	
31	   H	-2.609	-1.152	-0.665	 H	1	UNK0	0.000	
32	   H	-1.292	-3.013	-0.799	 H	1	UNK0	0.000	
33	   H	-1.566	-2.957	1.012	 H	1	UNK0	0.000	
34	   H	1.570	-1.045	1.539	 H	1	UNK0	0.000	
35	   H	-0.192	-0.971	1.766	 H	1	UNK0	0.000	
36	   H	0.404	1.029	0.469	 H	1	UNK0	0.000	
37	   H	1.297	0.060	-0.736	 H	1	UNK0	0.000	
38	   H	3.099	-1.243	0.094	 H	1	UNK0	0.000	
39	   H	5.515	-1.477	0.028	 H	1	UNK0	0.000	
40	   H	5.108	-5.532	-1.018	 H	1	UNK0	0.000	
41	   H	2.627	-5.319	-0.916	 H	1	UNK0	0.000	
42	   H	-3.980	1.388	-0.404	 H	1	UNK0	0.000	
43	   H	-1.091	4.905	1.538	 H	1	UNK0	0.000	
44	   H	-0.212	3.290	-0.128	 H	1	UNK0	0.000	
45	   H	-5.248	5.694	3.401	 H	1	UNK0	0.000	
46	   H	-4.618	4.199	4.128	 H	1	UNK0	0.000	
47	   H	-5.811	2.216	0.935	 H	1	UNK0	0.000	
@<TRIPOS>BOND
1 1 2 2
2 1 3 2
3 1 4 1
4 1 19 1
5 4 5 1
6 4 9 1
7 5 6 1
8 6 7 1
9 7 8 1
10 7 10 1
11 8 9 1
12 10 11 2
13 10 12 1
14 12 13 2
15 12 17 1
16 13 14 1
17 14 15 2
18 15 16 1
19 15 18 1
20 16 17 2
21 19 20 2
22 19 24 1
23 20 21 1
24 21 22 2
25 21 29 1
26 22 23 1
27 22 25 1
28 23 24 2
29 25 26 1
30 26 27 1
31 27 28 2
32 27 29 1
33 5 30 1
34 5 31 1
35 6 32 1
36 6 33 1
37 8 34 1
38 8 35 1
39 9 36 1
40 9 37 1
41 13 38 1
42 14 39 1
43 16 40 1
44 17 41 1
45 20 42 1
46 23 43 1
47 24 44 1
48 26 45 1
49 26 46 1
50 29 47 1
@<TRIPOS>SUBSTRUCTURE
1	UNK0	1	GROUP	1 ****	UNK
