# created with PyMOL 2.3.2
@<TRIPOS>MOLECULE
1052
51 54 1                 
SMALL
USER_CHARGES
@<TRIPOS>ATOM
1	   S	4.277	0.541	-2.090	S.O2	1	UNK0	0.000	
2	   O	5.381	1.087	-1.158	O.2	1	UNK0	0.000	
3	   O	4.984	0.459	-3.427	O.2	1	UNK0	0.000	
4	   N	3.006	1.657	-2.122	N.3	1	UNK0	0.000	
5	   C	1.863	1.347	-2.885	C.3	1	UNK0	0.000	
6	   C	0.615	2.038	-2.378	C.3	1	UNK0	0.000	
7	   N	0.380	1.589	-0.970	N.pl3	1	UNK0	0.000	
8	   C	1.524	1.646	-0.119	C.3	1	UNK0	0.000	
9	   C	2.722	2.238	-0.870	C.3	1	UNK0	0.000	
10	   C	-0.884	1.179	-0.631	C.2	1	UNK0	0.000	
11	   O	-1.781	1.232	-1.573	O.2	1	UNK0	0.000	
12	   C	-1.341	0.696	0.642	C.2	1	UNK0	0.000	
13	   N	-0.651	0.525	1.759	N.pl3	1	UNK0	0.000	
14	   N	-1.453	0.063	2.715	N.2	1	UNK0	0.000	
15	   C	-2.693	-0.080	2.245	C.2	1	UNK0	0.000	
16	   C	-2.662	0.309	0.942	C.2	1	UNK0	0.000	
17	   C	-3.887	-0.561	2.965	C.2	1	UNK0	0.000	
18	   C	-5.100	-0.646	2.318	C.2	1	UNK0	0.000	
19	   C	-6.236	-1.095	2.972	C.2	1	UNK0	0.000	
20	   C	-6.199	-1.475	4.297	C.2	1	UNK0	0.000	
21	   C	-4.986	-1.391	4.948	C.2	1	UNK0	0.000	
22	   C	-3.849	-0.940	4.289	C.2	1	UNK0	0.000	
23	  Br	-7.778	-2.093	5.187	Br	1	UNK0	0.000	
24	   C	3.877	-1.016	-1.430	C.2	1	UNK0	0.000	
25	   C	3.995	-1.267	-0.055	C.2	1	UNK0	0.000	
26	   N	3.707	-2.445	0.502	N.2	1	UNK0	0.000	
27	   C	3.283	-3.457	-0.254	C.2	1	UNK0	0.000	
28	   N	3.161	-3.254	-1.560	N.2	1	UNK0	0.000	
29	   C	3.439	-2.073	-2.192	C.2	1	UNK0	0.000	
30	   C	3.250	-2.025	-3.654	C.3	1	UNK0	0.000	
31	   O	2.990	-4.675	0.358	O.3	1	UNK0	0.000	
32	   O	4.436	-0.240	0.786	O.3	1	UNK0	0.000	
33	   H	2.025	1.757	-3.925	 H	1	UNK0	0.000	
34	   H	1.650	0.262	-2.990	 H	1	UNK0	0.000	
35	   H	-0.259	1.823	-3.008	 H	1	UNK0	0.000	
36	   H	0.808	3.119	-2.298	 H	1	UNK0	0.000	
37	   H	1.887	0.686	0.267	 H	1	UNK0	0.000	
38	   H	1.283	2.314	0.731	 H	1	UNK0	0.000	
39	   H	3.626	2.226	-0.215	 H	1	UNK0	0.000	
40	   H	2.431	3.316	-1.046	 H	1	UNK0	0.000	
41	   H	0.372	0.685	1.986	 H	1	UNK0	0.000	
42	   H	-3.464	0.336	0.233	 H	1	UNK0	0.000	
43	   H	-5.153	-0.349	1.264	 H	1	UNK0	0.000	
44	   H	-7.192	-1.164	2.468	 H	1	UNK0	0.000	
45	   H	-4.951	-1.688	5.988	 H	1	UNK0	0.000	
46	   H	-2.889	-0.870	4.791	 H	1	UNK0	0.000	
47	   H	3.519	-3.060	-4.038	 H	1	UNK0	0.000	
48	   H	3.901	-1.354	-4.197	 H	1	UNK0	0.000	
49	   H	2.168	-1.885	-3.868	 H	1	UNK0	0.000	
50	   H	2.419	-4.629	1.197	 H	1	UNK0	0.000	
51	   H	3.844	-0.030	1.599	 H	1	UNK0	0.000	
@<TRIPOS>BOND
1 1 2 2
2 1 3 2
3 1 4 1
4 1 24 1
5 4 5 1
6 4 9 1
7 5 6 1
8 6 7 1
9 7 8 1
10 7 10 1
11 8 9 1
12 10 11 2
13 10 12 1
14 12 13 1
15 12 16 2
16 13 14 1
17 14 15 2
18 15 16 1
19 15 17 1
20 17 18 2
21 17 22 1
22 18 19 1
23 19 20 2
24 20 21 1
25 20 23 1
26 21 22 2
27 24 25 2
28 24 29 1
29 25 26 1
30 25 32 1
31 26 27 2
32 27 28 1
33 27 31 1
34 28 29 2
35 29 30 1
36 5 33 1
37 5 34 1
38 6 35 1
39 6 36 1
40 8 37 1
41 8 38 1
42 9 39 1
43 9 40 1
44 13 41 1
45 16 42 1
46 18 43 1
47 19 44 1
48 21 45 1
49 22 46 1
50 30 47 1
51 30 48 1
52 30 49 1
53 31 50 1
54 32 51 1
@<TRIPOS>SUBSTRUCTURE
1	UNK0	1	GROUP	1 ****	UNK
