# created with PyMOL 2.3.2
@<TRIPOS>MOLECULE
1054
44 47 1                 
SMALL
USER_CHARGES
@<TRIPOS>ATOM
1	   S	0.641	-0.522	0.577	S.O2	1	UNK0	0.000	
2	   O	1.929	-1.273	0.388	O.2	1	UNK0	0.000	
3	   O	-0.378	-1.559	1.034	O.2	1	UNK0	0.000	
4	   N	0.139	0.120	-0.882	N.3	1	UNK0	0.000	
5	   C	-1.133	0.715	-0.953	C.3	1	UNK0	0.000	
6	   C	-1.732	0.465	-2.344	C.3	1	UNK0	0.000	
7	   N	-1.506	-0.923	-2.735	N.pl3	1	UNK0	0.000	
8	   C	-0.199	-1.518	-2.562	C.3	1	UNK0	0.000	
9	   C	0.713	-0.394	-2.065	C.3	1	UNK0	0.000	
10	   C	-2.549	-1.701	-3.285	C.2	1	UNK0	0.000	
11	   O	-3.680	-1.187	-3.435	O.2	1	UNK0	0.000	
12	   C	-2.282	-3.078	-3.661	C.2	1	UNK0	0.000	
13	   O	-1.155	-3.726	-3.555	O.3	1	UNK0	0.000	
14	   C	-1.268	-4.958	-3.991	C.2	1	UNK0	0.000	
15	   C	-2.568	-5.130	-4.415	C.2	1	UNK0	0.000	
16	   C	-3.230	-3.936	-4.211	C.2	1	UNK0	0.000	
17	  Br	0.167	-6.209	-3.996	Br	1	UNK0	0.000	
18	   C	0.757	0.649	1.872	C.2	1	UNK0	0.000	
19	   C	1.942	1.324	2.080	C.2	1	UNK0	0.000	
20	   C	2.118	2.266	3.080	C.2	1	UNK0	0.000	
21	   C	1.060	2.555	3.923	C.2	1	UNK0	0.000	
22	   C	-0.148	1.875	3.721	C.2	1	UNK0	0.000	
23	   C	-0.295	0.941	2.715	C.2	1	UNK0	0.000	
24	   O	1.213	3.485	4.922	O.3	1	UNK0	0.000	
25	   C	2.306	4.370	5.042	C.3	1	UNK0	0.000	
26	   C	3.506	3.910	4.304	C.2	1	UNK0	0.000	
27	   O	4.616	4.394	4.625	O.2	1	UNK0	0.000	
28	   N	3.350	2.948	3.271	N.pl3	1	UNK0	0.000	
29	   H	-1.212	1.774	-0.723	 H	1	UNK0	0.000	
30	   H	-1.820	0.166	-0.246	 H	1	UNK0	0.000	
31	   H	-2.809	0.675	-2.290	 H	1	UNK0	0.000	
32	   H	-1.250	1.176	-3.028	 H	1	UNK0	0.000	
33	   H	-0.223	-2.345	-1.839	 H	1	UNK0	0.000	
34	   H	0.189	-1.817	-3.560	 H	1	UNK0	0.000	
35	   H	0.744	0.340	-2.912	 H	1	UNK0	0.000	
36	   H	1.727	-0.757	-1.862	 H	1	UNK0	0.000	
37	   H	-2.984	-6.031	-4.829	 H	1	UNK0	0.000	
38	   H	-4.256	-3.702	-4.424	 H	1	UNK0	0.000	
39	   H	2.788	1.122	1.439	 H	1	UNK0	0.000	
40	   H	-0.948	2.138	4.409	 H	1	UNK0	0.000	
41	   H	-1.239	0.435	2.586	 H	1	UNK0	0.000	
42	   H	2.518	4.576	6.109	 H	1	UNK0	0.000	
43	   H	1.980	5.324	4.534	 H	1	UNK0	0.000	
44	   H	4.134	2.716	2.628	 H	1	UNK0	0.000	
@<TRIPOS>BOND
1 1 2 2
2 1 3 2
3 1 4 1
4 1 18 1
5 4 5 1
6 4 9 1
7 5 6 1
8 6 7 1
9 7 8 1
10 7 10 1
11 8 9 1
12 10 11 2
13 10 12 1
14 12 13 1
15 12 16 2
16 13 14 1
17 14 15 2
18 14 17 1
19 15 16 1
20 18 19 2
21 18 23 1
22 19 20 1
23 20 21 2
24 20 28 1
25 21 22 1
26 21 24 1
27 22 23 2
28 24 25 1
29 25 26 1
30 26 27 2
31 26 28 1
32 5 29 1
33 5 30 1
34 6 31 1
35 6 32 1
36 8 33 1
37 8 34 1
38 9 35 1
39 9 36 1
40 15 37 1
41 16 38 1
42 19 39 1
43 22 40 1
44 23 41 1
45 25 42 1
46 25 43 1
47 28 44 1
@<TRIPOS>SUBSTRUCTURE
1	UNK0	1	GROUP	1 ****	UNK
