# created with PyMOL 2.3.2
@<TRIPOS>MOLECULE
1055
39 42 1                 
SMALL
USER_CHARGES
@<TRIPOS>ATOM
1	   S	-0.325	2.041	-1.284	S.O2	1	UNK0	0.000	
2	   O	0.674	3.188	-1.359	O.2	1	UNK0	0.000	
3	   O	-1.717	2.616	-1.318	O.2	1	UNK0	0.000	
4	   N	-0.087	1.043	-2.583	N.3	1	UNK0	0.000	
5	   C	1.177	0.454	-2.806	C.3	1	UNK0	0.000	
6	   C	1.031	-0.876	-3.530	C.3	1	UNK0	0.000	
7	   N	0.016	-1.647	-2.891	N.pl3	1	UNK0	0.000	
8	   C	-1.275	-1.061	-2.727	C.3	1	UNK0	0.000	
9	   C	-1.201	0.394	-3.176	C.3	1	UNK0	0.000	
10	   C	0.269	-2.949	-2.432	C.2	1	UNK0	0.000	
11	   O	1.413	-3.511	-2.559	O.2	1	UNK0	0.000	
12	   C	-0.759	-3.773	-1.771	C.2	1	UNK0	0.000	
13	   O	-2.007	-3.436	-1.521	O.3	1	UNK0	0.000	
14	   C	-2.673	-4.371	-0.926	C.2	1	UNK0	0.000	
15	   C	-1.839	-5.449	-0.739	C.2	1	UNK0	0.000	
16	   C	-0.633	-5.054	-1.279	C.2	1	UNK0	0.000	
17	  Br	-4.500	-4.377	-0.354	Br	1	UNK0	0.000	
18	   C	-0.113	1.331	0.300	C.2	1	UNK0	0.000	
19	   C	-0.231	2.133	1.441	C.2	1	UNK0	0.000	
20	   N	-0.483	3.443	1.575	N.2	1	UNK0	0.000	
21	   O	-0.495	3.729	2.847	O.3	1	UNK0	0.000	
22	   N	-0.262	2.659	3.555	N.2	1	UNK0	0.000	
23	   C	-0.087	1.613	2.700	C.2	1	UNK0	0.000	
24	   C	0.178	0.294	2.902	C.2	1	UNK0	0.000	
25	   C	0.299	-0.522	1.801	C.2	1	UNK0	0.000	
26	   C	0.152	0.010	0.525	C.2	1	UNK0	0.000	
27	   H	1.696	0.269	-1.851	 H	1	UNK0	0.000	
28	   H	1.870	1.131	-3.400	 H	1	UNK0	0.000	
29	   H	1.986	-1.444	-3.499	 H	1	UNK0	0.000	
30	   H	0.801	-0.646	-4.597	 H	1	UNK0	0.000	
31	   H	-1.676	-1.143	-1.699	 H	1	UNK0	0.000	
32	   H	-1.978	-1.553	-3.461	 H	1	UNK0	0.000	
33	   H	-2.132	0.878	-2.781	 H	1	UNK0	0.000	
34	   H	-1.190	0.491	-4.261	 H	1	UNK0	0.000	
35	   H	-2.065	-6.395	-0.277	 H	1	UNK0	0.000	
36	   H	0.294	-5.617	-1.335	 H	1	UNK0	0.000	
37	   H	0.288	-0.091	3.920	 H	1	UNK0	0.000	
38	   H	0.510	-1.578	1.915	 H	1	UNK0	0.000	
39	   H	0.247	-0.675	-0.298	 H	1	UNK0	0.000	
@<TRIPOS>BOND
1 1 2 2
2 1 3 2
3 1 4 1
4 1 18 1
5 4 5 1
6 4 9 1
7 5 6 1
8 6 7 1
9 7 8 1
10 7 10 1
11 8 9 1
12 10 11 2
13 10 12 1
14 12 13 1
15 12 16 2
16 13 14 1
17 14 15 2
18 14 17 1
19 15 16 1
20 18 19 1
21 18 26 2
22 19 20 2
23 19 23 1
24 20 21 1
25 21 22 1
26 22 23 2
27 23 24 1
28 24 25 2
29 25 26 1
30 5 27 1
31 5 28 1
32 6 29 1
33 6 30 1
34 8 31 1
35 8 32 1
36 9 33 1
37 9 34 1
38 15 35 1
39 16 36 1
40 24 37 1
41 25 38 1
42 26 39 1
@<TRIPOS>SUBSTRUCTURE
1	UNK0	1	GROUP	1 ****	UNK
