# created with PyMOL 2.3.2
@<TRIPOS>MOLECULE
1057
50 53 1                 
SMALL
USER_CHARGES
@<TRIPOS>ATOM
1	   S	3.755	-0.395	-1.287	S.O2	1	UNK0	0.000	
2	   O	4.247	-1.803	-0.958	O.2	1	UNK0	0.000	
3	   O	4.973	0.487	-1.043	O.2	1	UNK0	0.000	
4	   N	2.514	-0.030	-0.155	N.3	1	UNK0	0.000	
5	   C	2.253	-1.161	0.710	C.3	1	UNK0	0.000	
6	   C	1.013	-1.909	0.280	C.3	1	UNK0	0.000	
7	   N	-0.155	-1.007	0.474	N.pl3	1	UNK0	0.000	
8	   C	0.035	0.303	-0.013	C.3	1	UNK0	0.000	
9	   C	1.364	0.590	-0.672	C.3	1	UNK0	0.000	
10	   C	-1.274	-1.519	1.081	C.2	1	UNK0	0.000	
11	   O	-1.158	-2.817	1.365	O.2	1	UNK0	0.000	
12	   C	-2.568	-0.924	1.477	C.3	1	UNK0	0.000	
13	   N	-2.669	0.463	1.485	N.pl3	1	UNK0	0.000	
14	   C	-2.540	1.064	2.809	C.3	1	UNK0	0.000	
15	   S	-3.535	-0.124	3.764	S.3	1	UNK0	0.000	
16	   C	-2.975	-1.532	2.790	C.3	1	UNK0	0.000	
17	   C	-3.093	2.438	2.764	C.3	1	UNK0	0.000	
18	   C	-2.709	2.808	1.334	C.3	1	UNK0	0.000	
19	   C	-2.909	1.555	0.610	C.2	1	UNK0	0.000	
20	   O	-3.248	1.542	-0.620	O.2	1	UNK0	0.000	
21	   C	-1.138	1.025	3.360	C.3	1	UNK0	0.000	
22	   C	3.255	-0.367	-2.944	C.2	1	UNK0	0.000	
23	   C	3.019	0.817	-3.590	C.2	1	UNK0	0.000	
24	   C	2.561	0.777	-4.907	C.2	1	UNK0	0.000	
25	   C	2.351	-0.424	-5.551	C.2	1	UNK0	0.000	
26	   C	2.583	-1.633	-4.923	C.2	1	UNK0	0.000	
27	   C	3.034	-1.577	-3.621	C.2	1	UNK0	0.000	
28	  Br	3.360	2.531	-2.791	Br	1	UNK0	0.000	
29	   H	3.107	-1.839	0.695	 H	1	UNK0	0.000	
30	   H	2.138	-0.771	1.741	 H	1	UNK0	0.000	
31	   H	0.885	-2.777	0.919	 H	1	UNK0	0.000	
32	   H	1.087	-2.194	-0.776	 H	1	UNK0	0.000	
33	   H	-0.740	0.461	-0.832	 H	1	UNK0	0.000	
34	   H	-0.127	1.120	0.706	 H	1	UNK0	0.000	
35	   H	1.279	0.388	-1.767	 H	1	UNK0	0.000	
36	   H	1.528	1.711	-0.605	 H	1	UNK0	0.000	
37	   H	-3.312	-1.412	0.737	 H	1	UNK0	0.000	
38	   H	-2.077	-1.952	3.337	 H	1	UNK0	0.000	
39	   H	-3.775	-2.274	2.735	 H	1	UNK0	0.000	
40	   H	-2.516	3.106	3.429	 H	1	UNK0	0.000	
41	   H	-4.189	2.500	2.908	 H	1	UNK0	0.000	
42	   H	-3.307	3.635	0.925	 H	1	UNK0	0.000	
43	   H	-1.638	3.107	1.318	 H	1	UNK0	0.000	
44	   H	-1.108	1.130	4.451	 H	1	UNK0	0.000	
45	   H	-0.701	0.040	3.031	 H	1	UNK0	0.000	
46	   H	-0.590	1.886	2.896	 H	1	UNK0	0.000	
47	   H	2.383	1.718	-5.390	 H	1	UNK0	0.000	
48	   H	1.993	-0.423	-6.586	 H	1	UNK0	0.000	
49	   H	2.399	-2.546	-5.473	 H	1	UNK0	0.000	
50	   H	3.229	-2.505	-3.098	 H	1	UNK0	0.000	
@<TRIPOS>BOND
1 1 2 2
2 1 3 2
3 1 4 1
4 1 22 1
5 4 5 1
6 4 9 1
7 5 6 1
8 6 7 1
9 7 8 1
10 7 10 1
11 8 9 1
12 10 11 2
13 10 12 1
14 12 13 1
15 12 16 1
16 13 14 1
17 13 19 1
18 14 15 1
19 14 17 1
20 14 21 1
21 15 16 1
22 17 18 1
23 18 19 1
24 19 20 2
25 22 23 2
26 22 27 1
27 23 24 1
28 23 28 1
29 24 25 2
30 25 26 1
31 26 27 2
32 5 29 1
33 5 30 1
34 6 31 1
35 6 32 1
36 8 33 1
37 8 34 1
38 9 35 1
39 9 36 1
40 12 37 1
41 16 38 1
42 16 39 1
43 17 40 1
44 17 41 1
45 18 42 1
46 18 43 1
47 21 44 1
48 21 45 1
49 21 46 1
50 24 47 1
51 25 48 1
52 26 49 1
53 27 50 1
@<TRIPOS>SUBSTRUCTURE
1	UNK0	1	GROUP	1 ****	UNK
