# created with PyMOL 2.3.2
@<TRIPOS>MOLECULE
1059
60 63 1                 
SMALL
USER_CHARGES
@<TRIPOS>ATOM
1	   S	-1.970	1.428	3.930	S.O2	1	UNK0	0.000	
2	   O	-3.361	1.695	4.465	O.2	1	UNK0	0.000	
3	   O	-0.959	1.538	5.010	O.2	1	UNK0	0.000	
4	   N	-1.866	-0.072	3.123	N.3	1	UNK0	0.000	
5	   C	-2.860	-0.152	2.068	C.3	1	UNK0	0.000	
6	   C	-2.809	-1.528	1.411	C.3	1	UNK0	0.000	
7	   N	-1.667	-2.201	1.871	N.3	1	UNK0	0.000	
8	   C	-1.497	-2.437	3.244	C.3	1	UNK0	0.000	
9	   C	-2.026	-1.213	4.003	C.3	1	UNK0	0.000	
10	   C	-0.776	-2.777	0.946	C.3	1	UNK0	0.000	
11	   C	-0.061	-1.749	0.157	C.2	1	UNK0	0.000	
12	   O	-0.317	-0.544	0.391	O.2	1	UNK0	0.000	
13	   N	0.896	-2.043	-0.849	N.pl3	1	UNK0	0.000	
14	   C	1.567	-1.037	-1.591	C.2	1	UNK0	0.000	
15	   C	2.757	-0.440	-1.263	C.2	1	UNK0	0.000	
16	   N	3.019	0.446	-2.234	N.pl3	1	UNK0	0.000	
17	   N	2.087	0.467	-3.164	N.pl3	1	UNK0	0.000	
18	   C	1.175	-0.446	-2.785	C.2	1	UNK0	0.000	
19	   O	0.116	-0.750	-3.391	O.2	1	UNK0	0.000	
20	   C	1.973	1.245	-4.347	C.2	1	UNK0	0.000	
21	   C	3.056	1.408	-5.191	C.2	1	UNK0	0.000	
22	   C	2.973	2.160	-6.348	C.2	1	UNK0	0.000	
23	   C	1.799	2.785	-6.712	C.2	1	UNK0	0.000	
24	   C	0.718	2.621	-5.866	C.2	1	UNK0	0.000	
25	   C	0.793	1.873	-4.711	C.2	1	UNK0	0.000	
26	   C	4.187	1.304	-2.289	C.3	1	UNK0	0.000	
27	   C	3.594	-0.735	-0.046	C.3	1	UNK0	0.000	
28	   C	-1.639	2.688	2.747	C.2	1	UNK0	0.000	
29	   C	-2.664	3.240	2.012	C.2	1	UNK0	0.000	
30	   C	-2.403	4.233	1.079	C.2	1	UNK0	0.000	
31	   C	-1.120	4.671	0.883	C.2	1	UNK0	0.000	
32	   C	-0.112	4.107	1.627	C.2	1	UNK0	0.000	
33	   C	-0.340	3.124	2.556	C.2	1	UNK0	0.000	
34	  Br	-3.884	4.953	0.095	Br	1	UNK0	0.000	
35	   H	-3.876	0.079	2.438	 H	1	UNK0	0.000	
36	   H	-2.607	0.648	1.335	 H	1	UNK0	0.000	
37	   H	-2.723	-1.363	0.323	 H	1	UNK0	0.000	
38	   H	-3.777	-2.020	1.632	 H	1	UNK0	0.000	
39	   H	-1.972	-3.353	3.651	 H	1	UNK0	0.000	
40	   H	-0.391	-2.452	3.475	 H	1	UNK0	0.000	
41	   H	-1.470	-1.080	4.959	 H	1	UNK0	0.000	
42	   H	-3.117	-1.331	4.166	 H	1	UNK0	0.000	
43	   H	-0.020	-3.371	1.535	 H	1	UNK0	0.000	
44	   H	-1.251	-3.546	0.282	 H	1	UNK0	0.000	
45	   H	1.086	-3.074	-1.019	 H	1	UNK0	0.000	
46	   H	3.976	0.908	-4.890	 H	1	UNK0	0.000	
47	   H	3.864	2.245	-6.966	 H	1	UNK0	0.000	
48	   H	1.737	3.374	-7.619	 H	1	UNK0	0.000	
49	   H	-0.218	3.114	-6.148	 H	1	UNK0	0.000	
50	   H	-0.066	1.747	-4.046	 H	1	UNK0	0.000	
51	   H	4.497	1.566	-1.241	 H	1	UNK0	0.000	
52	   H	5.064	0.744	-2.702	 H	1	UNK0	0.000	
53	   H	3.996	2.251	-2.797	 H	1	UNK0	0.000	
54	   H	3.657	-1.816	0.102	 H	1	UNK0	0.000	
55	   H	4.586	-0.263	-0.190	 H	1	UNK0	0.000	
56	   H	3.112	-0.190	0.792	 H	1	UNK0	0.000	
57	   H	-3.677	2.873	2.188	 H	1	UNK0	0.000	
58	   H	-0.940	5.450	0.147	 H	1	UNK0	0.000	
59	   H	0.898	4.441	1.483	 H	1	UNK0	0.000	
60	   H	0.442	2.666	3.152	 H	1	UNK0	0.000	
@<TRIPOS>BOND
1 1 2 2
2 1 3 2
3 1 4 1
4 1 28 1
5 4 5 1
6 4 9 1
7 5 6 1
8 6 7 1
9 7 8 1
10 7 10 1
11 8 9 1
12 10 11 1
13 11 12 2
14 11 13 1
15 13 14 1
16 14 15 2
17 14 18 1
18 15 16 1
19 15 27 1
20 16 17 1
21 16 26 1
22 17 18 1
23 17 20 1
24 18 19 2
25 20 21 2
26 20 25 1
27 21 22 1
28 22 23 2
29 23 24 1
30 24 25 2
31 28 29 2
32 28 33 1
33 29 30 1
34 30 31 2
35 30 34 1
36 31 32 1
37 32 33 2
38 5 35 1
39 5 36 1
40 6 37 1
41 6 38 1
42 8 39 1
43 8 40 1
44 9 41 1
45 9 42 1
46 10 43 1
47 10 44 1
48 13 45 1
49 21 46 1
50 22 47 1
51 23 48 1
52 24 49 1
53 25 50 1
54 26 51 1
55 26 52 1
56 26 53 1
57 27 54 1
58 27 55 1
59 27 56 1
60 29 57 1
61 31 58 1
62 32 59 1
63 33 60 1
@<TRIPOS>SUBSTRUCTURE
1	UNK0	1	GROUP	1 ****	UNK
