# created with PyMOL 2.3.2
@<TRIPOS>MOLECULE
1066
58 61 1                 
SMALL
USER_CHARGES
@<TRIPOS>ATOM
1	   S	-2.173	5.063	-0.770	S.O2	1	UNK0	0.000	
2	   O	-1.782	6.368	-1.369	O.2	1	UNK0	0.000	
3	   O	-3.669	5.093	-0.481	O.2	1	UNK0	0.000	
4	   N	-1.849	3.747	-1.755	N.3	1	UNK0	0.000	
5	   C	-2.275	2.483	-1.340	C.3	1	UNK0	0.000	
6	   C	-1.746	1.436	-2.314	C.3	1	UNK0	0.000	
7	   N	-0.357	1.528	-2.431	N.3	1	UNK0	0.000	
8	   C	0.234	2.812	-2.439	C.3	1	UNK0	0.000	
9	   C	-0.854	3.857	-2.725	C.3	1	UNK0	0.000	
10	   C	0.436	0.436	-2.052	C.3	1	UNK0	0.000	
11	   C	0.328	0.005	-0.653	C.2	1	UNK0	0.000	
12	   N	1.110	0.495	0.333	N.2	1	UNK0	0.000	
13	   O	0.784	-0.067	1.434	O.3	1	UNK0	0.000	
14	   C	-0.201	-0.937	1.253	C.2	1	UNK0	0.000	
15	   N	-0.472	-0.879	-0.053	N.2	1	UNK0	0.000	
16	   C	-0.769	-1.723	2.354	C.3	1	UNK0	0.000	
17	   C	-0.092	-3.041	2.589	C.3	1	UNK0	0.000	
18	   C	-0.161	-3.936	1.392	C.2	1	UNK0	0.000	
19	   O	-0.774	-3.491	0.389	O.2	1	UNK0	0.000	
20	   N	0.444	-5.218	1.414	N.pl3	1	UNK0	0.000	
21	   C	0.371	-6.073	0.251	C.3	1	UNK0	0.000	
22	   C	1.796	-6.338	-0.191	C.3	1	UNK0	0.000	
23	   O	2.695	-6.372	0.845	O.3	1	UNK0	0.000	
24	   C	2.171	-6.716	2.067	C.3	1	UNK0	0.000	
25	   C	1.145	-5.708	2.576	C.3	1	UNK0	0.000	
26	   C	-1.388	4.867	0.784	C.2	1	UNK0	0.000	
27	   C	-0.111	5.354	0.942	C.2	1	UNK0	0.000	
28	   C	0.576	5.240	2.133	C.2	1	UNK0	0.000	
29	   C	-0.051	4.613	3.195	C.2	1	UNK0	0.000	
30	   C	-1.330	4.118	3.057	C.2	1	UNK0	0.000	
31	   C	-2.012	4.242	1.844	C.2	1	UNK0	0.000	
32	  Br	0.897	4.453	4.843	Br	1	UNK0	0.000	
33	   H	-3.391	2.413	-1.266	 H	1	UNK0	0.000	
34	   H	-1.893	2.274	-0.314	 H	1	UNK0	0.000	
35	   H	-2.223	1.673	-3.302	 H	1	UNK0	0.000	
36	   H	-2.044	0.418	-2.022	 H	1	UNK0	0.000	
37	   H	0.986	2.861	-3.253	 H	1	UNK0	0.000	
38	   H	0.751	3.014	-1.504	 H	1	UNK0	0.000	
39	   H	-0.373	4.855	-2.667	 H	1	UNK0	0.000	
40	   H	-1.219	3.754	-3.764	 H	1	UNK0	0.000	
41	   H	1.499	0.647	-2.280	 H	1	UNK0	0.000	
42	   H	0.170	-0.453	-2.689	 H	1	UNK0	0.000	
43	   H	-1.867	-1.831	2.204	 H	1	UNK0	0.000	
44	   H	-0.677	-1.156	3.322	 H	1	UNK0	0.000	
45	   H	0.916	-2.948	2.996	 H	1	UNK0	0.000	
46	   H	-0.705	-3.575	3.374	 H	1	UNK0	0.000	
47	   H	-0.148	-5.586	-0.600	 H	1	UNK0	0.000	
48	   H	-0.139	-7.015	0.562	 H	1	UNK0	0.000	
49	   H	1.850	-7.235	-0.848	 H	1	UNK0	0.000	
50	   H	2.087	-5.477	-0.849	 H	1	UNK0	0.000	
51	   H	2.997	-6.712	2.802	 H	1	UNK0	0.000	
52	   H	1.747	-7.745	2.066	 H	1	UNK0	0.000	
53	   H	1.613	-4.905	3.174	 H	1	UNK0	0.000	
54	   H	0.432	-6.308	3.208	 H	1	UNK0	0.000	
55	   H	0.370	5.845	0.101	 H	1	UNK0	0.000	
56	   H	1.586	5.619	2.276	 H	1	UNK0	0.000	
57	   H	-1.834	3.627	3.872	 H	1	UNK0	0.000	
58	   H	-3.018	3.860	1.714	 H	1	UNK0	0.000	
@<TRIPOS>BOND
1 1 2 2
2 1 3 2
3 1 4 1
4 1 26 1
5 4 5 1
6 4 9 1
7 5 6 1
8 6 7 1
9 7 8 1
10 7 10 1
11 8 9 1
12 10 11 1
13 11 12 2
14 11 15 1
15 12 13 1
16 13 14 1
17 14 15 2
18 14 16 1
19 16 17 1
20 17 18 1
21 18 19 2
22 18 20 1
23 20 21 1
24 20 25 1
25 21 22 1
26 22 23 1
27 23 24 1
28 24 25 1
29 26 27 2
30 26 31 1
31 27 28 1
32 28 29 2
33 29 30 1
34 29 32 1
35 30 31 2
36 5 33 1
37 5 34 1
38 6 35 1
39 6 36 1
40 8 37 1
41 8 38 1
42 9 39 1
43 9 40 1
44 10 41 1
45 10 42 1
46 16 43 1
47 16 44 1
48 17 45 1
49 17 46 1
50 21 47 1
51 21 48 1
52 22 49 1
53 22 50 1
54 24 51 1
55 24 52 1
56 25 53 1
57 25 54 1
58 27 55 1
59 28 56 1
60 30 57 1
61 31 58 1
@<TRIPOS>SUBSTRUCTURE
1	UNK0	1	GROUP	1 ****	UNK
