# created with PyMOL 2.3.2
@<TRIPOS>MOLECULE
1067
55 58 1                 
SMALL
USER_CHARGES
@<TRIPOS>ATOM
1	   S	4.290	-2.609	1.866	S.O2	1	UNK0	0.000	
2	   O	3.246	-3.632	1.596	O.2	1	UNK0	0.000	
3	   O	5.347	-3.279	2.723	O.2	1	UNK0	0.000	
4	   N	3.672	-1.294	2.694	N.3	1	UNK0	0.000	
5	   C	4.552	-0.301	3.130	C.3	1	UNK0	0.000	
6	   C	4.147	1.125	2.909	C.3	1	UNK0	0.000	
7	   N	3.073	1.137	1.941	N.3	1	UNK0	0.000	
8	   C	1.956	0.468	2.578	C.3	1	UNK0	0.000	
9	   C	2.299	-1.009	2.549	C.3	1	UNK0	0.000	
10	   C	2.743	2.455	1.477	C.3	1	UNK0	0.000	
11	   C	1.663	2.331	0.464	C.2	1	UNK0	0.000	
12	   N	0.958	3.362	-0.094	N.2	1	UNK0	0.000	
13	   O	0.101	2.903	-0.940	O.3	1	UNK0	0.000	
14	   C	0.171	1.584	-1.006	C.2	1	UNK0	0.000	
15	   N	1.139	1.246	-0.134	N.2	1	UNK0	0.000	
16	   C	-0.644	0.680	-1.857	C.3	1	UNK0	0.000	
17	   C	-1.906	0.223	-1.179	C.3	1	UNK0	0.000	
18	   C	-2.808	1.309	-0.798	C.2	1	UNK0	0.000	
19	   O	-2.497	2.497	-1.042	O.2	1	UNK0	0.000	
20	   N	-4.031	1.021	-0.154	N.pl3	1	UNK0	0.000	
21	   C	-4.404	-0.368	0.134	C.3	1	UNK0	0.000	
22	   C	-5.884	-0.468	0.331	C.3	1	UNK0	0.000	
23	   O	-6.568	0.558	-0.323	O.3	1	UNK0	0.000	
24	   C	-6.333	1.731	0.370	C.3	1	UNK0	0.000	
25	   C	-4.900	2.119	0.211	C.3	1	UNK0	0.000	
26	   C	5.087	-2.197	0.358	C.2	1	UNK0	0.000	
27	   S	6.431	-1.201	0.044	S.3	1	UNK0	0.000	
28	   C	6.508	-1.368	-1.648	C.2	1	UNK0	0.000	
29	   C	5.468	-2.210	-1.928	C.2	1	UNK0	0.000	
30	   C	4.727	-2.641	-0.880	C.2	1	UNK0	0.000	
31	  Br	7.749	-0.578	-2.900	Br	1	UNK0	0.000	
32	   H	4.723	-0.431	4.240	 H	1	UNK0	0.000	
33	   H	5.557	-0.470	2.681	 H	1	UNK0	0.000	
34	   H	3.740	1.590	3.840	 H	1	UNK0	0.000	
35	   H	5.007	1.766	2.609	 H	1	UNK0	0.000	
36	   H	0.978	0.690	2.148	 H	1	UNK0	0.000	
37	   H	1.990	0.751	3.673	 H	1	UNK0	0.000	
38	   H	1.661	-1.589	3.254	 H	1	UNK0	0.000	
39	   H	1.978	-1.368	1.526	 H	1	UNK0	0.000	
40	   H	3.670	2.887	1.037	 H	1	UNK0	0.000	
41	   H	2.448	3.151	2.307	 H	1	UNK0	0.000	
42	   H	-0.071	-0.257	-2.111	 H	1	UNK0	0.000	
43	   H	-0.858	1.155	-2.829	 H	1	UNK0	0.000	
44	   H	-2.459	-0.422	-1.915	 H	1	UNK0	0.000	
45	   H	-1.702	-0.443	-0.316	 H	1	UNK0	0.000	
46	   H	-3.871	-0.767	1.011	 H	1	UNK0	0.000	
47	   H	-4.141	-1.032	-0.724	 H	1	UNK0	0.000	
48	   H	-6.314	-1.439	0.031	 H	1	UNK0	0.000	
49	   H	-6.111	-0.336	1.428	 H	1	UNK0	0.000	
50	   H	-6.965	2.573	0.021	 H	1	UNK0	0.000	
51	   H	-6.564	1.616	1.465	 H	1	UNK0	0.000	
52	   H	-4.778	2.901	-0.582	 H	1	UNK0	0.000	
53	   H	-4.503	2.600	1.139	 H	1	UNK0	0.000	
54	   H	5.278	-2.500	-2.992	 H	1	UNK0	0.000	
55	   H	3.862	-3.331	-1.042	 H	1	UNK0	0.000	
@<TRIPOS>BOND
1 1 2 2
2 1 3 2
3 1 4 1
4 1 26 1
5 4 5 1
6 4 9 1
7 5 6 1
8 6 7 1
9 7 8 1
10 7 10 1
11 8 9 1
12 10 11 1
13 11 12 2
14 11 15 1
15 12 13 1
16 13 14 1
17 14 15 2
18 14 16 1
19 16 17 1
20 17 18 1
21 18 19 2
22 18 20 1
23 20 21 1
24 20 25 1
25 21 22 1
26 22 23 1
27 23 24 1
28 24 25 1
29 26 27 1
30 26 30 2
31 27 28 1
32 28 29 2
33 28 31 1
34 29 30 1
35 5 32 1
36 5 33 1
37 6 34 1
38 6 35 1
39 8 36 1
40 8 37 1
41 9 38 1
42 9 39 1
43 10 40 1
44 10 41 1
45 16 42 1
46 16 43 1
47 17 44 1
48 17 45 1
49 21 46 1
50 21 47 1
51 22 48 1
52 22 49 1
53 24 50 1
54 24 51 1
55 25 52 1
56 25 53 1
57 29 54 1
58 30 55 1
@<TRIPOS>SUBSTRUCTURE
1	UNK0	1	GROUP	1 ****	UNK
