# created with PyMOL 2.3.2
@<TRIPOS>MOLECULE
1068
48 51 1                 
SMALL
USER_CHARGES
@<TRIPOS>ATOM
1	   S	-1.138	-3.721	-0.094	S.O2	1	UNK0	0.000	
2	   O	-0.729	-4.556	-1.297	O.2	1	UNK0	0.000	
3	   O	-1.416	-4.655	1.029	O.2	1	UNK0	0.000	
4	   N	0.222	-2.759	0.320	N.3	1	UNK0	0.000	
5	   C	-0.148	-1.992	1.494	C.3	1	UNK0	0.000	
6	   C	0.972	-1.685	2.412	C.3	1	UNK0	0.000	
7	   N	2.278	-1.751	1.894	N.3	1	UNK0	0.000	
8	   C	2.569	-2.740	0.927	C.3	1	UNK0	0.000	
9	   C	1.342	-3.602	0.672	C.3	1	UNK0	0.000	
10	   C	3.040	-0.562	1.860	C.3	1	UNK0	0.000	
11	   C	2.448	0.533	1.050	C.2	1	UNK0	0.000	
12	   C	2.753	0.632	-0.283	C.2	1	UNK0	0.000	
13	   C	2.193	1.654	-1.010	C.2	1	UNK0	0.000	
14	   O	2.440	1.791	-2.238	O.2	1	UNK0	0.000	
15	   N	1.361	2.547	-0.448	N.pl3	1	UNK0	0.000	
16	   C	1.083	2.421	0.860	C.2	1	UNK0	0.000	
17	   N	1.621	1.430	1.586	N.2	1	UNK0	0.000	
18	   C	0.222	3.326	1.499	C.2	1	UNK0	0.000	
19	   C	-0.349	4.353	0.792	C.2	1	UNK0	0.000	
20	   C	-0.046	4.459	-0.549	C.2	1	UNK0	0.000	
21	   C	0.803	3.551	-1.133	C.2	1	UNK0	0.000	
22	  Br	-0.781	5.840	-1.607	Br	1	UNK0	0.000	
23	   C	-2.540	-2.819	-0.494	C.2	1	UNK0	0.000	
24	   C	-2.594	-1.915	-1.536	C.2	1	UNK0	0.000	
25	   C	-3.741	-1.200	-1.836	C.2	1	UNK0	0.000	
26	   C	-4.881	-1.389	-1.071	C.2	1	UNK0	0.000	
27	   C	-4.853	-2.279	-0.032	C.2	1	UNK0	0.000	
28	   C	-3.685	-2.989	0.252	C.2	1	UNK0	0.000	
29	   C	-1.404	-1.720	-2.331	C.1	1	UNK0	0.000	
30	   N	-0.436	-1.570	-2.960	N.1	1	UNK0	0.000	
31	   H	-0.910	-2.585	2.079	 H	1	UNK0	0.000	
32	   H	-0.712	-1.062	1.197	 H	1	UNK0	0.000	
33	   H	0.936	-2.321	3.346	 H	1	UNK0	0.000	
34	   H	0.807	-0.640	2.808	 H	1	UNK0	0.000	
35	   H	3.000	-2.354	-0.020	 H	1	UNK0	0.000	
36	   H	3.346	-3.437	1.352	 H	1	UNK0	0.000	
37	   H	1.121	-4.186	1.586	 H	1	UNK0	0.000	
38	   H	1.591	-4.248	-0.192	 H	1	UNK0	0.000	
39	   H	3.130	-0.159	2.911	 H	1	UNK0	0.000	
40	   H	4.063	-0.798	1.514	 H	1	UNK0	0.000	
41	   H	3.420	-0.085	-0.732	 H	1	UNK0	0.000	
42	   H	-0.010	3.232	2.558	 H	1	UNK0	0.000	
43	   H	-1.023	5.081	1.242	 H	1	UNK0	0.000	
44	   H	1.054	3.619	-2.195	 H	1	UNK0	0.000	
45	   H	-3.776	-0.491	-2.657	 H	1	UNK0	0.000	
46	   H	-5.782	-0.823	-1.311	 H	1	UNK0	0.000	
47	   H	-5.761	-2.407	0.550	 H	1	UNK0	0.000	
48	   H	-3.744	-3.678	1.094	 H	1	UNK0	0.000	
@<TRIPOS>BOND
1 1 2 2
2 1 3 2
3 1 4 1
4 1 23 1
5 4 5 1
6 4 9 1
7 5 6 1
8 6 7 1
9 7 8 1
10 7 10 1
11 8 9 1
12 10 11 1
13 11 12 2
14 11 17 1
15 12 13 1
16 13 14 2
17 13 15 1
18 15 16 1
19 15 21 1
20 16 17 2
21 16 18 1
22 18 19 2
23 19 20 1
24 20 21 2
25 20 22 1
26 23 24 2
27 23 28 1
28 24 25 1
29 24 29 1
30 25 26 2
31 26 27 1
32 27 28 2
33 29 30 3
34 5 31 1
35 5 32 1
36 6 33 1
37 6 34 1
38 8 35 1
39 8 36 1
40 9 37 1
41 9 38 1
42 10 39 1
43 10 40 1
44 12 41 1
45 18 42 1
46 19 43 1
47 21 44 1
48 25 45 1
49 26 46 1
50 27 47 1
51 28 48 1
@<TRIPOS>SUBSTRUCTURE
1	UNK0	1	GROUP	1 ****	UNK
