# created with PyMOL 2.3.2
@<TRIPOS>MOLECULE
1069
51 54 1                 
SMALL
USER_CHARGES
@<TRIPOS>ATOM
1	   S	-0.185	-3.614	-0.296	S.O2	1	UNK0	0.000	
2	   O	0.137	-4.643	0.781	O.2	1	UNK0	0.000	
3	   O	-0.694	-4.445	-1.470	O.2	1	UNK0	0.000	
4	   N	-1.398	-2.626	0.222	N.3	1	UNK0	0.000	
5	   C	-1.214	-1.815	1.363	C.3	1	UNK0	0.000	
6	   C	-1.819	-0.444	1.207	C.3	1	UNK0	0.000	
7	   N	-1.882	-0.052	-0.162	N.3	1	UNK0	0.000	
8	   C	-2.529	-0.967	-1.049	C.3	1	UNK0	0.000	
9	   C	-2.551	-2.395	-0.544	C.3	1	UNK0	0.000	
10	   C	-2.502	1.229	-0.285	C.3	1	UNK0	0.000	
11	   N	-1.803	2.280	0.430	N.pl3	1	UNK0	0.000	
12	   C	-2.014	2.692	1.760	C.2	1	UNK0	0.000	
13	   O	-2.864	2.207	2.563	O.2	1	UNK0	0.000	
14	   N	-1.121	3.739	2.059	N.pl3	1	UNK0	0.000	
15	   C	-0.252	3.940	0.933	C.3	1	UNK0	0.000	
16	   C	-0.753	3.075	-0.150	C.2	1	UNK0	0.000	
17	   O	-0.373	3.010	-1.344	O.2	1	UNK0	0.000	
18	   C	-0.282	5.413	0.564	C.3	1	UNK0	0.000	
19	   C	0.532	5.889	-0.574	C.3	1	UNK0	0.000	
20	   C	-0.967	5.850	-0.689	C.3	1	UNK0	0.000	
21	   C	1.179	3.566	1.295	C.3	1	UNK0	0.000	
22	   C	1.299	-2.904	-0.781	C.2	1	UNK0	0.000	
23	   C	2.312	-3.734	-1.215	C.2	1	UNK0	0.000	
24	   C	3.544	-3.211	-1.623	C.2	1	UNK0	0.000	
25	   C	3.769	-1.872	-1.601	C.2	1	UNK0	0.000	
26	   C	2.755	-1.017	-1.165	C.2	1	UNK0	0.000	
27	   C	1.545	-1.545	-0.765	C.2	1	UNK0	0.000	
28	  Br	2.154	-5.633	-1.305	Br	1	UNK0	0.000	
29	   H	-0.149	-1.760	1.658	 H	1	UNK0	0.000	
30	   H	-1.736	-2.315	2.230	 H	1	UNK0	0.000	
31	   H	-1.123	0.272	1.730	 H	1	UNK0	0.000	
32	   H	-2.797	-0.393	1.682	 H	1	UNK0	0.000	
33	   H	-3.568	-0.613	-1.301	 H	1	UNK0	0.000	
34	   H	-1.961	-0.970	-2.007	 H	1	UNK0	0.000	
35	   H	-2.736	-3.127	-1.323	 H	1	UNK0	0.000	
36	   H	-3.446	-2.447	0.146	 H	1	UNK0	0.000	
37	   H	-2.599	1.495	-1.355	 H	1	UNK0	0.000	
38	   H	-3.527	1.157	0.123	 H	1	UNK0	0.000	
39	   H	-1.078	4.290	2.942	 H	1	UNK0	0.000	
40	   H	-0.391	6.102	1.439	 H	1	UNK0	0.000	
41	   H	1.001	6.892	-0.556	 H	1	UNK0	0.000	
42	   H	1.079	5.155	-1.214	 H	1	UNK0	0.000	
43	   H	-1.480	6.839	-0.716	 H	1	UNK0	0.000	
44	   H	-1.430	5.091	-1.336	 H	1	UNK0	0.000	
45	   H	1.415	2.546	0.975	 H	1	UNK0	0.000	
46	   H	1.327	3.726	2.372	 H	1	UNK0	0.000	
47	   H	1.851	4.275	0.755	 H	1	UNK0	0.000	
48	   H	4.351	-3.858	-1.967	 H	1	UNK0	0.000	
49	   H	4.729	-1.483	-1.920	 H	1	UNK0	0.000	
50	   H	2.967	0.041	-1.160	 H	1	UNK0	0.000	
51	   H	0.789	-0.840	-0.435	 H	1	UNK0	0.000	
@<TRIPOS>BOND
1 1 2 2
2 1 3 2
3 1 4 1
4 1 22 1
5 4 5 1
6 4 9 1
7 5 6 1
8 6 7 1
9 7 8 1
10 7 10 1
11 8 9 1
12 10 11 1
13 11 12 1
14 11 16 1
15 12 13 2
16 12 14 1
17 14 15 1
18 15 16 1
19 15 18 1
20 15 21 1
21 16 17 2
22 18 19 1
23 18 20 1
24 19 20 1
25 22 23 2
26 22 27 1
27 23 24 1
28 23 28 1
29 24 25 2
30 25 26 1
31 26 27 2
32 5 29 1
33 5 30 1
34 6 31 1
35 6 32 1
36 8 33 1
37 8 34 1
38 9 35 1
39 9 36 1
40 10 37 1
41 10 38 1
42 14 39 1
43 18 40 1
44 19 41 1
45 19 42 1
46 20 43 1
47 20 44 1
48 21 45 1
49 21 46 1
50 21 47 1
51 24 48 1
52 25 49 1
53 26 50 1
54 27 51 1
@<TRIPOS>SUBSTRUCTURE
1	UNK0	1	GROUP	1 ****	UNK
