# created with PyMOL 2.3.2
@<TRIPOS>MOLECULE
1070
51 54 1                 
SMALL
USER_CHARGES
@<TRIPOS>ATOM
1	   S	-0.941	0.916	-2.553	S.O2	1	UNK0	0.000	
2	   O	-0.742	2.353	-2.127	O.2	1	UNK0	0.000	
3	   O	-2.382	0.582	-2.333	O.2	1	UNK0	0.000	
4	   N	0.112	-0.052	-1.591	N.3	1	UNK0	0.000	
5	   C	1.446	0.437	-1.745	C.3	1	UNK0	0.000	
6	   C	2.414	-0.117	-0.720	C.3	1	UNK0	0.000	
7	   N	1.909	0.155	0.621	N.3	1	UNK0	0.000	
8	   C	0.669	-0.566	0.739	C.3	1	UNK0	0.000	
9	   C	-0.373	-0.060	-0.239	C.3	1	UNK0	0.000	
10	   C	2.870	-0.132	1.617	C.3	1	UNK0	0.000	
11	   N	2.481	0.111	2.960	N.pl3	1	UNK0	0.000	
12	   C	2.658	1.329	3.667	C.2	1	UNK0	0.000	
13	   O	3.179	2.415	3.253	O.2	1	UNK0	0.000	
14	   N	2.140	1.154	4.979	N.pl3	1	UNK0	0.000	
15	   C	1.197	0.059	4.884	C.3	1	UNK0	0.000	
16	   C	1.854	-0.791	3.858	C.2	1	UNK0	0.000	
17	   O	1.853	-2.068	3.799	O.2	1	UNK0	0.000	
18	   C	1.030	-0.664	6.194	C.3	1	UNK0	0.000	
19	   C	0.069	-1.807	6.165	C.3	1	UNK0	0.000	
20	   C	-0.234	-0.579	6.958	C.3	1	UNK0	0.000	
21	   C	-0.096	0.603	4.348	C.3	1	UNK0	0.000	
22	   C	-0.522	0.811	-4.247	C.2	1	UNK0	0.000	
23	   C	-1.063	-0.137	-5.093	C.2	1	UNK0	0.000	
24	   C	-0.691	-0.175	-6.437	C.2	1	UNK0	0.000	
25	   C	0.216	0.720	-6.964	C.2	1	UNK0	0.000	
26	   C	0.743	1.656	-6.107	C.2	1	UNK0	0.000	
27	   C	0.394	1.714	-4.781	C.2	1	UNK0	0.000	
28	  Br	-1.463	-1.502	-7.573	Br	1	UNK0	0.000	
29	   H	1.428	1.540	-1.628	 H	1	UNK0	0.000	
30	   H	1.828	0.134	-2.740	 H	1	UNK0	0.000	
31	   H	2.531	-1.197	-0.835	 H	1	UNK0	0.000	
32	   H	3.371	0.436	-0.811	 H	1	UNK0	0.000	
33	   H	0.248	-0.614	1.747	 H	1	UNK0	0.000	
34	   H	0.887	-1.623	0.438	 H	1	UNK0	0.000	
35	   H	-0.640	0.990	0.026	 H	1	UNK0	0.000	
36	   H	-1.302	-0.656	-0.198	 H	1	UNK0	0.000	
37	   H	3.128	-1.228	1.536	 H	1	UNK0	0.000	
38	   H	3.821	0.389	1.333	 H	1	UNK0	0.000	
39	   H	2.365	1.681	5.850	 H	1	UNK0	0.000	
40	   H	1.979	-0.790	6.758	 H	1	UNK0	0.000	
41	   H	0.382	-2.739	6.673	 H	1	UNK0	0.000	
42	   H	-0.553	-1.969	5.260	 H	1	UNK0	0.000	
43	   H	-0.167	-0.697	8.058	 H	1	UNK0	0.000	
44	   H	-1.067	0.077	6.637	 H	1	UNK0	0.000	
45	   H	-0.813	-0.205	4.062	 H	1	UNK0	0.000	
46	   H	0.147	1.129	3.393	 H	1	UNK0	0.000	
47	   H	-0.572	1.334	4.999	 H	1	UNK0	0.000	
48	   H	-1.768	-0.834	-4.687	 H	1	UNK0	0.000	
49	   H	0.488	0.672	-8.006	 H	1	UNK0	0.000	
50	   H	1.456	2.367	-6.502	 H	1	UNK0	0.000	
51	   H	0.812	2.451	-4.116	 H	1	UNK0	0.000	
@<TRIPOS>BOND
1 1 2 2
2 1 3 2
3 1 4 1
4 1 22 1
5 4 5 1
6 4 9 1
7 5 6 1
8 6 7 1
9 7 8 1
10 7 10 1
11 8 9 1
12 10 11 1
13 11 12 1
14 11 16 1
15 12 13 2
16 12 14 1
17 14 15 1
18 15 16 1
19 15 18 1
20 15 21 1
21 16 17 2
22 18 19 1
23 18 20 1
24 19 20 1
25 22 23 2
26 22 27 1
27 23 24 1
28 24 25 2
29 24 28 1
30 25 26 1
31 26 27 2
32 5 29 1
33 5 30 1
34 6 31 1
35 6 32 1
36 8 33 1
37 8 34 1
38 9 35 1
39 9 36 1
40 10 37 1
41 10 38 1
42 14 39 1
43 18 40 1
44 19 41 1
45 19 42 1
46 20 43 1
47 20 44 1
48 21 45 1
49 21 46 1
50 21 47 1
51 23 48 1
52 25 49 1
53 26 50 1
54 27 51 1
@<TRIPOS>SUBSTRUCTURE
1	UNK0	1	GROUP	1 ****	UNK
