# created with PyMOL 2.3.2
@<TRIPOS>MOLECULE
1071
51 54 1                 
SMALL
USER_CHARGES
@<TRIPOS>ATOM
1	   S	2.451	-2.512	-2.749	S.O2	1	UNK0	0.000	
2	   O	3.868	-1.998	-2.734	O.2	1	UNK0	0.000	
3	   O	2.473	-3.884	-3.384	O.2	1	UNK0	0.000	
4	   N	1.944	-2.656	-1.086	N.3	1	UNK0	0.000	
5	   C	0.604	-3.199	-1.106	C.3	1	UNK0	0.000	
6	   C	-0.106	-3.045	0.204	C.3	1	UNK0	0.000	
7	   N	-0.044	-1.672	0.608	N.3	1	UNK0	0.000	
8	   C	1.318	-1.326	0.864	C.3	1	UNK0	0.000	
9	   C	2.034	-1.364	-0.497	C.3	1	UNK0	0.000	
10	   C	-1.019	-1.273	1.543	C.3	1	UNK0	0.000	
11	   N	-0.861	0.118	1.930	N.pl3	1	UNK0	0.000	
12	   C	-0.092	0.635	3.025	C.2	1	UNK0	0.000	
13	   O	0.579	-0.058	3.853	O.2	1	UNK0	0.000	
14	   N	-0.203	2.053	3.034	N.pl3	1	UNK0	0.000	
15	   C	-1.411	2.345	2.308	C.3	1	UNK0	0.000	
16	   C	-2.656	2.219	3.148	C.3	1	UNK0	0.000	
17	   C	-3.692	2.876	2.227	C.3	1	UNK0	0.000	
18	   C	-2.938	4.046	1.661	C.3	1	UNK0	0.000	
19	   C	-1.469	3.712	1.729	C.3	1	UNK0	0.000	
20	   C	-1.427	1.267	1.297	C.2	1	UNK0	0.000	
21	   O	-1.848	1.310	0.100	O.2	1	UNK0	0.000	
22	   C	1.424	-1.424	-3.635	C.2	1	UNK0	0.000	
23	   C	1.700	-0.077	-3.708	C.2	1	UNK0	0.000	
24	   C	0.906	0.821	-4.403	C.2	1	UNK0	0.000	
25	   C	-0.211	0.360	-5.054	C.2	1	UNK0	0.000	
26	   C	-0.488	-0.988	-4.981	C.2	1	UNK0	0.000	
27	   C	0.302	-1.882	-4.289	C.2	1	UNK0	0.000	
28	  Br	1.326	2.676	-4.478	Br	1	UNK0	0.000	
29	   H	0.703	-4.294	-1.340	 H	1	UNK0	0.000	
30	   H	-0.029	-2.768	-1.892	 H	1	UNK0	0.000	
31	   H	-1.155	-3.375	0.062	 H	1	UNK0	0.000	
32	   H	0.375	-3.728	0.946	 H	1	UNK0	0.000	
33	   H	1.443	-0.318	1.309	 H	1	UNK0	0.000	
34	   H	1.833	-2.080	1.495	 H	1	UNK0	0.000	
35	   H	3.101	-1.114	-0.358	 H	1	UNK0	0.000	
36	   H	1.508	-0.573	-1.107	 H	1	UNK0	0.000	
37	   H	-0.971	-1.871	2.477	 H	1	UNK0	0.000	
38	   H	-2.022	-1.467	1.110	 H	1	UNK0	0.000	
39	   H	0.442	2.741	3.468	 H	1	UNK0	0.000	
40	   H	-2.937	1.154	3.283	 H	1	UNK0	0.000	
41	   H	-2.590	2.778	4.103	 H	1	UNK0	0.000	
42	   H	-3.861	2.157	1.390	 H	1	UNK0	0.000	
43	   H	-4.601	3.141	2.764	 H	1	UNK0	0.000	
44	   H	-3.199	4.947	2.259	 H	1	UNK0	0.000	
45	   H	-3.262	4.250	0.609	 H	1	UNK0	0.000	
46	   H	-0.972	3.790	0.733	 H	1	UNK0	0.000	
47	   H	-0.992	4.467	2.402	 H	1	UNK0	0.000	
48	   H	2.568	0.362	-3.217	 H	1	UNK0	0.000	
49	   H	-0.837	1.058	-5.601	 H	1	UNK0	0.000	
50	   H	-1.385	-1.355	-5.504	 H	1	UNK0	0.000	
51	   H	0.006	-2.924	-4.287	 H	1	UNK0	0.000	
@<TRIPOS>BOND
1 1 2 2
2 1 3 2
3 1 4 1
4 1 22 1
5 4 5 1
6 4 9 1
7 5 6 1
8 6 7 1
9 7 8 1
10 7 10 1
11 8 9 1
12 10 11 1
13 11 12 1
14 11 20 1
15 12 13 2
16 12 14 1
17 14 15 1
18 15 16 1
19 15 19 1
20 15 20 1
21 16 17 1
22 17 18 1
23 18 19 1
24 20 21 2
25 22 23 2
26 22 27 1
27 23 24 1
28 24 25 2
29 24 28 1
30 25 26 1
31 26 27 2
32 5 29 1
33 5 30 1
34 6 31 1
35 6 32 1
36 8 33 1
37 8 34 1
38 9 35 1
39 9 36 1
40 10 37 1
41 10 38 1
42 14 39 1
43 16 40 1
44 16 41 1
45 17 42 1
46 17 43 1
47 18 44 1
48 18 45 1
49 19 46 1
50 19 47 1
51 23 48 1
52 25 49 1
53 26 50 1
54 27 51 1
@<TRIPOS>SUBSTRUCTURE
1	UNK0	1	GROUP	1 ****	UNK
