# created with PyMOL 2.3.2
@<TRIPOS>MOLECULE
1072
47 50 1                 
SMALL
USER_CHARGES
@<TRIPOS>ATOM
1	   S	3.500	1.108	0.769	S.O2	1	UNK0	0.000	
2	   O	4.624	0.188	1.157	O.2	1	UNK0	0.000	
3	   O	3.907	2.488	1.272	O.2	1	UNK0	0.000	
4	   N	3.338	1.157	-0.879	N.3	1	UNK0	0.000	
5	   C	2.417	2.034	-1.462	C.3	1	UNK0	0.000	
6	   C	1.138	1.413	-1.985	C.3	1	UNK0	0.000	
7	   N	1.342	0.012	-2.040	N.3	1	UNK0	0.000	
8	   C	2.590	-0.254	-2.707	C.3	1	UNK0	0.000	
9	   C	3.655	-0.029	-1.616	C.3	1	UNK0	0.000	
10	   C	0.250	-0.781	-2.487	C.3	1	UNK0	0.000	
11	   N	-0.874	-0.561	-1.597	N.pl3	1	UNK0	0.000	
12	   C	-1.924	0.384	-1.671	C.2	1	UNK0	0.000	
13	   C	-2.805	0.269	-0.633	C.2	1	UNK0	0.000	
14	   C	-3.915	1.081	-0.489	C.2	1	UNK0	0.000	
15	   C	-4.163	2.059	-1.426	C.2	1	UNK0	0.000	
16	   C	-3.279	2.190	-2.487	C.2	1	UNK0	0.000	
17	   C	-2.184	1.370	-2.606	C.2	1	UNK0	0.000	
18	  Br	-5.120	0.884	0.979	Br	1	UNK0	0.000	
19	   C	-2.354	-0.817	0.224	C.2	1	UNK0	0.000	
20	   O	-2.896	-1.246	1.297	O.2	1	UNK0	0.000	
21	   C	-1.139	-1.324	-0.401	C.2	1	UNK0	0.000	
22	   O	-0.470	-2.266	0.059	O.2	1	UNK0	0.000	
23	   C	2.097	0.642	1.670	C.2	1	UNK0	0.000	
24	   C	1.083	1.413	2.196	C.2	1	UNK0	0.000	
25	   N	0.191	0.649	2.822	N.pl3	1	UNK0	0.000	
26	   C	0.599	-0.618	2.720	C.2	1	UNK0	0.000	
27	   C	1.789	-0.663	2.006	C.2	1	UNK0	0.000	
28	   C	-0.992	1.185	3.477	C.3	1	UNK0	0.000	
29	   H	2.208	2.865	-0.754	 H	1	UNK0	0.000	
30	   H	2.907	2.536	-2.347	 H	1	UNK0	0.000	
31	   H	0.824	1.876	-2.946	 H	1	UNK0	0.000	
32	   H	0.332	1.700	-1.244	 H	1	UNK0	0.000	
33	   H	2.778	0.514	-3.486	 H	1	UNK0	0.000	
34	   H	2.669	-1.231	-3.165	 H	1	UNK0	0.000	
35	   H	3.681	-0.917	-0.962	 H	1	UNK0	0.000	
36	   H	4.640	0.096	-2.091	 H	1	UNK0	0.000	
37	   H	-0.069	-0.479	-3.520	 H	1	UNK0	0.000	
38	   H	0.488	-1.849	-2.479	 H	1	UNK0	0.000	
39	   H	-5.036	2.708	-1.327	 H	1	UNK0	0.000	
40	   H	-3.429	2.937	-3.244	 H	1	UNK0	0.000	
41	   H	-1.503	1.478	-3.432	 H	1	UNK0	0.000	
42	   H	1.089	2.507	2.067	 H	1	UNK0	0.000	
43	   H	0.046	-1.467	3.150	 H	1	UNK0	0.000	
44	   H	2.315	-1.582	1.792	 H	1	UNK0	0.000	
45	   H	-0.614	2.008	4.142	 H	1	UNK0	0.000	
46	   H	-1.593	1.699	2.697	 H	1	UNK0	0.000	
47	   H	-1.547	0.436	4.052	 H	1	UNK0	0.000	
@<TRIPOS>BOND
1 1 2 2
2 1 3 2
3 1 4 1
4 1 23 1
5 4 5 1
6 4 9 1
7 5 6 1
8 6 7 1
9 7 8 1
10 7 10 1
11 8 9 1
12 10 11 1
13 11 12 1
14 11 21 1
15 12 13 1
16 12 17 2
17 13 14 2
18 13 19 1
19 14 15 1
20 14 18 1
21 15 16 2
22 16 17 1
23 19 20 2
24 19 21 1
25 21 22 2
26 23 24 2
27 23 27 1
28 24 25 1
29 25 26 1
30 25 28 1
31 26 27 2
32 5 29 1
33 5 30 1
34 6 31 1
35 6 32 1
36 8 33 1
37 8 34 1
38 9 35 1
39 9 36 1
40 10 37 1
41 10 38 1
42 15 39 1
43 16 40 1
44 17 41 1
45 24 42 1
46 26 43 1
47 27 44 1
48 28 45 1
49 28 46 1
50 28 47 1
@<TRIPOS>SUBSTRUCTURE
1	UNK0	1	GROUP	1 ****	UNK
