# created with PyMOL 2.3.2
@<TRIPOS>MOLECULE
1074
50 53 1                 
SMALL
USER_CHARGES
@<TRIPOS>ATOM
1	   S	0.832	2.960	1.064	S.O2	1	UNK0	0.000	
2	   O	0.605	3.580	-0.288	O.2	1	UNK0	0.000	
3	   O	2.279	3.142	1.407	O.2	1	UNK0	0.000	
4	   N	0.492	1.294	0.956	N.3	1	UNK0	0.000	
5	   C	0.655	0.559	2.145	C.3	1	UNK0	0.000	
6	   C	-0.157	-0.689	2.266	C.3	1	UNK0	0.000	
7	   N	-1.458	-0.629	1.726	N.3	1	UNK0	0.000	
8	   C	-1.811	0.545	1.026	C.3	1	UNK0	0.000	
9	   C	-0.654	0.976	0.161	C.3	1	UNK0	0.000	
10	   C	-2.027	-1.844	1.285	C.3	1	UNK0	0.000	
11	   N	-1.322	-2.530	0.252	N.pl3	1	UNK0	0.000	
12	   N	-0.378	-3.432	0.412	N.2	1	UNK0	0.000	
13	   C	0.084	-3.886	-0.763	C.2	1	UNK0	0.000	
14	   N	-0.630	-3.213	-1.696	N.pl3	1	UNK0	0.000	
15	   C	-0.397	-3.451	-3.089	C.2	1	UNK0	0.000	
16	   C	0.506	-4.319	-3.476	C.2	1	UNK0	0.000	
17	   C	1.296	-5.065	-2.513	C.2	1	UNK0	0.000	
18	   C	2.186	-5.921	-2.972	C.2	1	UNK0	0.000	
19	   N	1.071	-4.835	-1.138	N.pl3	1	UNK0	0.000	
20	   C	-1.191	-2.703	-4.129	C.3	1	UNK0	0.000	
21	   C	-1.488	-2.385	-1.071	C.2	1	UNK0	0.000	
22	   S	-2.523	-1.404	-1.868	S.2	1	UNK0	0.000	
23	   C	-0.222	3.779	2.196	C.2	1	UNK0	0.000	
24	   C	-1.411	4.309	1.738	C.2	1	UNK0	0.000	
25	   C	-2.283	4.971	2.610	C.2	1	UNK0	0.000	
26	   C	-1.954	5.097	3.939	C.2	1	UNK0	0.000	
27	   C	-0.763	4.561	4.377	C.2	1	UNK0	0.000	
28	   C	0.091	3.910	3.513	C.2	1	UNK0	0.000	
29	  Br	-3.919	5.700	1.973	Br	1	UNK0	0.000	
30	   H	0.393	1.216	3.022	 H	1	UNK0	0.000	
31	   H	1.736	0.309	2.283	 H	1	UNK0	0.000	
32	   H	0.391	-1.538	1.788	 H	1	UNK0	0.000	
33	   H	-0.229	-0.970	3.356	 H	1	UNK0	0.000	
34	   H	-2.742	0.446	0.483	 H	1	UNK0	0.000	
35	   H	-1.952	1.370	1.784	 H	1	UNK0	0.000	
36	   H	-0.976	1.906	-0.369	 H	1	UNK0	0.000	
37	   H	-0.366	0.252	-0.600	 H	1	UNK0	0.000	
38	   H	-2.141	-2.517	2.185	 H	1	UNK0	0.000	
39	   H	-3.086	-1.638	0.971	 H	1	UNK0	0.000	
40	   H	0.639	-4.458	-4.557	 H	1	UNK0	0.000	
41	   H	2.773	-6.475	-2.254	 H	1	UNK0	0.000	
42	   H	2.352	-6.092	-4.023	 H	1	UNK0	0.000	
43	   H	1.628	-5.360	-0.438	 H	1	UNK0	0.000	
44	   H	-2.261	-2.919	-4.062	 H	1	UNK0	0.000	
45	   H	-0.992	-1.616	-3.895	 H	1	UNK0	0.000	
46	   H	-0.752	-2.879	-5.113	 H	1	UNK0	0.000	
47	   H	-1.672	4.213	0.696	 H	1	UNK0	0.000	
48	   H	-2.627	5.607	4.604	 H	1	UNK0	0.000	
49	   H	-0.530	4.672	5.419	 H	1	UNK0	0.000	
50	   H	1.032	3.486	3.858	 H	1	UNK0	0.000	
@<TRIPOS>BOND
1 1 2 2
2 1 3 2
3 1 4 1
4 1 23 1
5 4 5 1
6 4 9 1
7 5 6 1
8 6 7 1
9 7 8 1
10 7 10 1
11 8 9 1
12 10 11 1
13 11 12 1
14 11 21 1
15 12 13 2
16 13 14 1
17 13 19 1
18 14 15 1
19 14 21 1
20 15 16 2
21 15 20 1
22 16 17 1
23 17 18 2
24 17 19 1
25 21 22 2
26 23 24 2
27 23 28 1
28 24 25 1
29 25 26 2
30 25 29 1
31 26 27 1
32 27 28 2
33 5 30 1
34 5 31 1
35 6 32 1
36 6 33 1
37 8 34 1
38 8 35 1
39 9 36 1
40 9 37 1
41 10 38 1
42 10 39 1
43 16 40 1
44 18 41 1
45 18 42 1
46 19 43 1
47 20 44 1
48 20 45 1
49 20 46 1
50 24 47 1
51 26 48 1
52 27 49 1
53 28 50 1
@<TRIPOS>SUBSTRUCTURE
1	UNK0	1	GROUP	1 ****	UNK
