# created with PyMOL 2.3.2
@<TRIPOS>MOLECULE
1075
42 45 1                 
SMALL
USER_CHARGES
@<TRIPOS>ATOM
1	   S	2.587	0.624	-2.750	S.O2	1	UNK0	0.000	
2	   O	2.080	1.403	-3.905	O.2	1	UNK0	0.000	
3	   O	4.073	0.545	-2.846	O.2	1	UNK0	0.000	
4	   N	2.128	1.327	-1.254	N.3	1	UNK0	0.000	
5	   C	0.729	1.477	-1.059	C.3	1	UNK0	0.000	
6	   C	0.331	1.388	0.420	C.3	1	UNK0	0.000	
7	   N	0.731	0.118	0.888	N.3	1	UNK0	0.000	
8	   C	1.992	-0.368	0.425	C.3	1	UNK0	0.000	
9	   C	2.783	0.775	-0.117	C.3	1	UNK0	0.000	
10	   C	0.468	-0.153	2.270	C.3	1	UNK0	0.000	
11	   N	-0.967	-0.053	2.473	N.pl3	1	UNK0	0.000	
12	   N	-1.837	-1.056	2.353	N.2	1	UNK0	0.000	
13	   C	-3.075	-0.625	2.607	C.2	1	UNK0	0.000	
14	   N	-3.020	0.693	2.900	N.pl3	1	UNK0	0.000	
15	   C	-4.122	1.400	3.199	C.2	1	UNK0	0.000	
16	   C	-5.355	0.803	3.218	C.2	1	UNK0	0.000	
17	   C	-5.470	-0.539	2.927	C.2	1	UNK0	0.000	
18	   C	-4.304	-1.235	2.622	C.2	1	UNK0	0.000	
19	   C	-1.705	1.016	2.809	C.2	1	UNK0	0.000	
20	   O	-1.241	2.168	3.013	O.2	1	UNK0	0.000	
21	   C	1.947	-1.022	-2.927	C.2	1	UNK0	0.000	
22	   S	0.334	-1.566	-2.937	S.3	1	UNK0	0.000	
23	   C	0.598	-3.230	-3.148	C.2	1	UNK0	0.000	
24	   C	1.958	-3.329	-3.208	C.2	1	UNK0	0.000	
25	   C	2.662	-2.176	-3.093	C.2	1	UNK0	0.000	
26	  Br	-0.665	-4.676	-3.280	Br	1	UNK0	0.000	
27	   H	0.107	0.782	-1.639	 H	1	UNK0	0.000	
28	   H	0.446	2.520	-1.363	 H	1	UNK0	0.000	
29	   H	0.692	2.254	0.981	 H	1	UNK0	0.000	
30	   H	-0.798	1.416	0.405	 H	1	UNK0	0.000	
31	   H	2.516	-0.914	1.239	 H	1	UNK0	0.000	
32	   H	1.773	-1.148	-0.346	 H	1	UNK0	0.000	
33	   H	2.809	1.563	0.673	 H	1	UNK0	0.000	
34	   H	3.843	0.524	-0.316	 H	1	UNK0	0.000	
35	   H	0.986	0.544	2.945	 H	1	UNK0	0.000	
36	   H	0.778	-1.191	2.503	 H	1	UNK0	0.000	
37	   H	-4.022	2.442	3.424	 H	1	UNK0	0.000	
38	   H	-6.262	1.353	3.457	 H	1	UNK0	0.000	
39	   H	-6.440	-1.002	2.943	 H	1	UNK0	0.000	
40	   H	-4.415	-2.284	2.397	 H	1	UNK0	0.000	
41	   H	2.442	-4.328	-3.347	 H	1	UNK0	0.000	
42	   H	3.785	-2.161	-3.130	 H	1	UNK0	0.000	
@<TRIPOS>BOND
1 1 2 2
2 1 3 2
3 1 4 1
4 1 21 1
5 4 5 1
6 4 9 1
7 5 6 1
8 6 7 1
9 7 8 1
10 7 10 1
11 8 9 1
12 10 11 1
13 11 12 1
14 11 19 1
15 12 13 2
16 13 14 1
17 13 18 1
18 14 15 1
19 14 19 1
20 15 16 2
21 16 17 1
22 17 18 2
23 19 20 2
24 21 22 1
25 21 25 2
26 22 23 1
27 23 24 2
28 23 26 1
29 24 25 1
30 5 27 1
31 5 28 1
32 6 29 1
33 6 30 1
34 8 31 1
35 8 32 1
36 9 33 1
37 9 34 1
38 10 35 1
39 10 36 1
40 15 37 1
41 16 38 1
42 17 39 1
43 18 40 1
44 24 41 1
45 25 42 1
@<TRIPOS>SUBSTRUCTURE
1	UNK0	1	GROUP	1 ****	UNK
