# created with PyMOL 2.3.2
@<TRIPOS>MOLECULE
1081
44 47 1                 
SMALL
USER_CHARGES
@<TRIPOS>ATOM
1	   S	-3.744	-0.287	-1.793	S.O2	1	UNK0	0.000	
2	   O	-4.069	-1.556	-2.475	O.2	1	UNK0	0.000	
3	   O	-4.928	0.643	-2.029	O.2	1	UNK0	0.000	
4	   N	-2.348	0.499	-2.364	N.3	1	UNK0	0.000	
5	   C	-1.496	-0.242	-3.213	C.3	1	UNK0	0.000	
6	   C	-0.167	-0.638	-2.662	C.3	1	UNK0	0.000	
7	   N	0.072	-0.207	-1.307	N.pl3	1	UNK0	0.000	
8	   C	-0.457	1.043	-0.866	C.3	1	UNK0	0.000	
9	   C	-1.765	1.423	-1.467	C.3	1	UNK0	0.000	
10	   C	0.851	-1.072	-0.468	C.2	1	UNK0	0.000	
11	   N	2.154	-0.920	-0.176	N.pl3	1	UNK0	0.000	
12	   N	2.461	-1.954	0.616	N.2	1	UNK0	0.000	
13	   N	1.397	-2.704	0.801	N.2	1	UNK0	0.000	
14	   N	0.378	-2.190	0.145	N.2	1	UNK0	0.000	
15	   C	3.011	0.126	-0.611	C.2	1	UNK0	0.000	
16	   C	3.002	1.359	0.000	C.2	1	UNK0	0.000	
17	   C	3.856	2.365	-0.450	C.2	1	UNK0	0.000	
18	   C	4.719	2.154	-1.503	C.2	1	UNK0	0.000	
19	   C	4.728	0.899	-2.125	C.2	1	UNK0	0.000	
20	   C	3.866	-0.096	-1.661	C.2	1	UNK0	0.000	
21	   C	-3.625	-0.529	-0.072	C.2	1	UNK0	0.000	
22	   C	-3.035	-1.634	0.488	C.2	1	UNK0	0.000	
23	   C	-2.944	-1.814	1.868	C.2	1	UNK0	0.000	
24	   C	-3.478	-0.823	2.698	C.2	1	UNK0	0.000	
25	   C	-4.073	0.290	2.147	C.2	1	UNK0	0.000	
26	   C	-4.142	0.429	0.789	C.2	1	UNK0	0.000	
27	  Br	-3.386	-1.003	4.601	Br	1	UNK0	0.000	
28	   H	-2.084	-1.117	-3.594	 H	1	UNK0	0.000	
29	   H	-1.323	0.400	-4.130	 H	1	UNK0	0.000	
30	   H	-0.102	-1.757	-2.757	 H	1	UNK0	0.000	
31	   H	0.640	-0.273	-3.345	 H	1	UNK0	0.000	
32	   H	-0.585	1.042	0.256	 H	1	UNK0	0.000	
33	   H	0.339	1.815	-1.082	 H	1	UNK0	0.000	
34	   H	-1.616	2.396	-2.020	 H	1	UNK0	0.000	
35	   H	-2.519	1.695	-0.673	 H	1	UNK0	0.000	
36	   H	2.342	1.597	0.842	 H	1	UNK0	0.000	
37	   H	3.875	3.357	0.014	 H	1	UNK0	0.000	
38	   H	5.391	2.909	-1.874	 H	1	UNK0	0.000	
39	   H	5.404	0.740	-2.946	 H	1	UNK0	0.000	
40	   H	3.928	-1.046	-2.193	 H	1	UNK0	0.000	
41	   H	-2.612	-2.420	-0.154	 H	1	UNK0	0.000	
42	   H	-2.489	-2.668	2.327	 H	1	UNK0	0.000	
43	   H	-4.475	1.034	2.844	 H	1	UNK0	0.000	
44	   H	-4.627	1.334	0.385	 H	1	UNK0	0.000	
@<TRIPOS>BOND
1 1 2 2
2 1 3 2
3 1 4 1
4 1 21 1
5 4 5 1
6 4 9 1
7 5 6 1
8 6 7 1
9 7 8 1
10 7 10 1
11 8 9 1
12 10 11 1
13 10 14 2
14 11 12 1
15 11 15 1
16 12 13 2
17 13 14 1
18 15 16 2
19 15 20 1
20 16 17 1
21 17 18 2
22 18 19 1
23 19 20 2
24 21 22 2
25 21 26 1
26 22 23 1
27 23 24 2
28 24 25 1
29 24 27 1
30 25 26 2
31 5 28 1
32 5 29 1
33 6 30 1
34 6 31 1
35 8 32 1
36 8 33 1
37 9 34 1
38 9 35 1
39 16 36 1
40 17 37 1
41 18 38 1
42 19 39 1
43 20 40 1
44 22 41 1
45 23 42 1
46 25 43 1
47 26 44 1
@<TRIPOS>SUBSTRUCTURE
1	UNK0	1	GROUP	1 ****	UNK
