# created with PyMOL 2.3.2
@<TRIPOS>MOLECULE
1082
41 44 1                 
SMALL
USER_CHARGES
@<TRIPOS>ATOM
1	   S	-1.559	-0.662	2.578	S.O2	1	UNK0	0.000	
2	   O	-1.193	-2.075	2.923	O.2	1	UNK0	0.000	
3	   O	-3.014	-0.500	2.787	O.2	1	UNK0	0.000	
4	   N	-1.060	-0.302	1.003	N.3	1	UNK0	0.000	
5	   C	-1.317	1.032	0.573	C.3	1	UNK0	0.000	
6	   C	-0.951	1.318	-0.847	C.3	1	UNK0	0.000	
7	   N	0.333	0.658	-1.196	N.pl3	1	UNK0	0.000	
8	   C	0.323	-0.728	-0.874	C.3	1	UNK0	0.000	
9	   C	0.245	-0.799	0.659	C.3	1	UNK0	0.000	
10	   C	1.343	1.427	-1.768	C.2	1	UNK0	0.000	
11	   N	2.587	1.139	-2.154	N.pl3	1	UNK0	0.000	
12	   N	3.190	2.227	-2.665	N.2	1	UNK0	0.000	
13	   N	2.312	3.195	-2.593	N.2	1	UNK0	0.000	
14	   N	1.196	2.752	-2.062	N.2	1	UNK0	0.000	
15	   C	3.204	-0.150	-2.038	C.2	1	UNK0	0.000	
16	   C	3.754	-0.482	-0.825	C.2	1	UNK0	0.000	
17	   C	4.387	-1.694	-0.599	C.2	1	UNK0	0.000	
18	   C	4.433	-2.555	-1.677	C.2	1	UNK0	0.000	
19	   C	3.891	-2.256	-2.914	C.2	1	UNK0	0.000	
20	   C	3.279	-1.041	-3.069	C.2	1	UNK0	0.000	
21	   C	-0.672	0.391	3.694	C.2	1	UNK0	0.000	
22	   S	-0.645	2.094	3.782	S.3	1	UNK0	0.000	
23	   C	0.425	2.284	5.094	C.2	1	UNK0	0.000	
24	   C	0.735	0.994	5.431	C.2	1	UNK0	0.000	
25	   C	0.168	0.017	4.709	C.2	1	UNK0	0.000	
26	  Br	1.066	3.903	5.928	Br	1	UNK0	0.000	
27	   H	-0.748	1.736	1.217	 H	1	UNK0	0.000	
28	   H	-2.391	1.252	0.729	 H	1	UNK0	0.000	
29	   H	-0.921	2.379	-1.087	 H	1	UNK0	0.000	
30	   H	-1.698	0.833	-1.509	 H	1	UNK0	0.000	
31	   H	1.077	-1.369	-1.284	 H	1	UNK0	0.000	
32	   H	-0.673	-1.150	-1.205	 H	1	UNK0	0.000	
33	   H	0.994	-0.070	1.031	 H	1	UNK0	0.000	
34	   H	0.407	-1.810	1.021	 H	1	UNK0	0.000	
35	   H	3.720	0.201	0.038	 H	1	UNK0	0.000	
36	   H	4.819	-1.941	0.375	 H	1	UNK0	0.000	
37	   H	4.927	-3.528	-1.538	 H	1	UNK0	0.000	
38	   H	3.962	-2.989	-3.732	 H	1	UNK0	0.000	
39	   H	2.850	-0.783	-4.019	 H	1	UNK0	0.000	
40	   H	1.434	0.815	6.280	 H	1	UNK0	0.000	
41	   H	0.368	-1.060	4.918	 H	1	UNK0	0.000	
@<TRIPOS>BOND
1 1 2 2
2 1 3 2
3 1 4 1
4 1 21 1
5 4 5 1
6 4 9 1
7 5 6 1
8 6 7 1
9 7 8 1
10 7 10 1
11 8 9 1
12 10 11 1
13 10 14 2
14 11 12 1
15 11 15 1
16 12 13 2
17 13 14 1
18 15 16 2
19 15 20 1
20 16 17 1
21 17 18 2
22 18 19 1
23 19 20 2
24 21 22 1
25 21 25 2
26 22 23 1
27 23 24 2
28 23 26 1
29 24 25 1
30 5 27 1
31 5 28 1
32 6 29 1
33 6 30 1
34 8 31 1
35 8 32 1
36 9 33 1
37 9 34 1
38 16 35 1
39 17 36 1
40 18 37 1
41 19 38 1
42 20 39 1
43 24 40 1
44 25 41 1
@<TRIPOS>SUBSTRUCTURE
1	UNK0	1	GROUP	1 ****	UNK
