# created with PyMOL 2.3.2
@<TRIPOS>MOLECULE
1083
57 60 1                 
SMALL
USER_CHARGES
@<TRIPOS>ATOM
1	   S	4.269	2.333	2.873	S.O2	1	UNK0	0.000	
2	   O	4.477	3.810	2.847	O.2	1	UNK0	0.000	
3	   O	5.012	1.776	4.043	O.2	1	UNK0	0.000	
4	   N	2.605	1.922	3.079	N.3	1	UNK0	0.000	
5	   C	2.431	0.503	3.229	C.3	1	UNK0	0.000	
6	   C	1.027	0.224	3.690	C.3	1	UNK0	0.000	
7	   N	0.129	0.795	2.700	N.pl3	1	UNK0	0.000	
8	   C	0.328	2.190	2.357	C.3	1	UNK0	0.000	
9	   C	1.785	2.463	2.012	C.3	1	UNK0	0.000	
10	   C	-0.904	0.013	2.093	C.2	1	UNK0	0.000	
11	   N	-1.743	0.534	1.191	N.2	1	UNK0	0.000	
12	   C	-2.737	-0.156	0.583	C.2	1	UNK0	0.000	
13	   C	-2.842	-1.487	0.964	C.2	1	UNK0	0.000	
14	   C	-1.993	-2.065	1.895	C.2	1	UNK0	0.000	
15	   N	-1.038	-1.261	2.428	N.2	1	UNK0	0.000	
16	   C	-2.127	-3.499	2.287	C.3	1	UNK0	0.000	
17	   N	-3.599	0.434	-0.361	N.pl3	1	UNK0	0.000	
18	   C	-3.438	1.831	-0.677	C.3	1	UNK0	0.000	
19	   C	-2.945	1.872	-2.109	C.3	1	UNK0	0.000	
20	   N	-3.329	0.750	-2.884	N.3	1	UNK0	0.000	
21	   C	-4.559	0.126	-2.510	C.3	1	UNK0	0.000	
22	   C	-4.648	-0.246	-1.055	C.3	1	UNK0	0.000	
23	   C	-2.280	-0.249	-2.822	C.3	1	UNK0	0.000	
24	   C	4.888	1.585	1.426	C.2	1	UNK0	0.000	
25	   C	4.798	2.292	0.244	C.2	1	UNK0	0.000	
26	   C	5.287	1.700	-0.901	C.2	1	UNK0	0.000	
27	   C	5.850	0.431	-0.844	C.2	1	UNK0	0.000	
28	   C	5.943	-0.280	0.332	C.2	1	UNK0	0.000	
29	   C	5.451	0.318	1.474	C.2	1	UNK0	0.000	
30	  Br	6.519	-0.359	-2.455	Br	1	UNK0	0.000	
31	   H	3.179	0.039	3.889	 H	1	UNK0	0.000	
32	   H	2.524	0.052	2.210	 H	1	UNK0	0.000	
33	   H	0.884	0.673	4.687	 H	1	UNK0	0.000	
34	   H	0.864	-0.870	3.708	 H	1	UNK0	0.000	
35	   H	-0.332	2.423	1.490	 H	1	UNK0	0.000	
36	   H	0.071	2.843	3.223	 H	1	UNK0	0.000	
37	   H	1.946	3.534	1.862	 H	1	UNK0	0.000	
38	   H	1.996	1.885	1.079	 H	1	UNK0	0.000	
39	   H	-3.585	-2.128	0.556	 H	1	UNK0	0.000	
40	   H	-1.189	-4.075	2.054	 H	1	UNK0	0.000	
41	   H	-2.978	-3.914	1.729	 H	1	UNK0	0.000	
42	   H	-2.331	-3.575	3.361	 H	1	UNK0	0.000	
43	   H	-4.413	2.362	-0.607	 H	1	UNK0	0.000	
44	   H	-2.683	2.307	-0.018	 H	1	UNK0	0.000	
45	   H	-3.353	2.785	-2.592	 H	1	UNK0	0.000	
46	   H	-1.837	1.988	-2.069	 H	1	UNK0	0.000	
47	   H	-4.797	-0.750	-3.116	 H	1	UNK0	0.000	
48	   H	-5.372	0.874	-2.705	 H	1	UNK0	0.000	
49	   H	-5.636	0.068	-0.629	 H	1	UNK0	0.000	
50	   H	-4.640	-1.345	-0.969	 H	1	UNK0	0.000	
51	   H	-2.067	-0.687	-3.824	 H	1	UNK0	0.000	
52	   H	-2.610	-1.077	-2.164	 H	1	UNK0	0.000	
53	   H	-1.344	0.212	-2.412	 H	1	UNK0	0.000	
54	   H	4.351	3.288	0.224	 H	1	UNK0	0.000	
55	   H	5.215	2.252	-1.814	 H	1	UNK0	0.000	
56	   H	6.382	-1.269	0.373	 H	1	UNK0	0.000	
57	   H	5.522	-0.240	2.408	 H	1	UNK0	0.000	
@<TRIPOS>BOND
1 1 2 2
2 1 3 2
3 1 4 1
4 1 24 1
5 4 5 1
6 4 9 1
7 5 6 1
8 6 7 1
9 7 8 1
10 7 10 1
11 8 9 1
12 10 11 2
13 10 15 1
14 11 12 1
15 12 13 2
16 12 17 1
17 13 14 1
18 14 15 2
19 14 16 1
20 17 18 1
21 17 22 1
22 18 19 1
23 19 20 1
24 20 21 1
25 20 23 1
26 21 22 1
27 24 25 2
28 24 29 1
29 25 26 1
30 26 27 2
31 27 28 1
32 27 30 1
33 28 29 2
34 5 31 1
35 5 32 1
36 6 33 1
37 6 34 1
38 8 35 1
39 8 36 1
40 9 37 1
41 9 38 1
42 13 39 1
43 16 40 1
44 16 41 1
45 16 42 1
46 18 43 1
47 18 44 1
48 19 45 1
49 19 46 1
50 21 47 1
51 21 48 1
52 22 49 1
53 22 50 1
54 23 51 1
55 23 52 1
56 23 53 1
57 25 54 1
58 26 55 1
59 28 56 1
60 29 57 1
@<TRIPOS>SUBSTRUCTURE
1	UNK0	1	GROUP	1 ****	UNK
