# created with PyMOL 2.3.2
@<TRIPOS>MOLECULE
1085
39 42 1                 
SMALL
USER_CHARGES
@<TRIPOS>ATOM
1	   S	2.194	-0.715	-0.832	S.O2	1	UNK0	0.000	
2	   O	1.322	0.462	-1.068	O.2	1	UNK0	0.000	
3	   O	3.487	-0.200	-0.236	O.2	1	UNK0	0.000	
4	   N	1.525	-1.842	0.247	N.3	1	UNK0	0.000	
5	   C	0.284	-2.416	-0.142	C.3	1	UNK0	0.000	
6	   C	-0.930	-1.606	0.224	C.3	1	UNK0	0.000	
7	   N	-0.547	-0.726	1.305	N.pl3	1	UNK0	0.000	
8	   C	0.346	-1.272	2.309	C.3	1	UNK0	0.000	
9	   C	1.661	-1.539	1.628	C.3	1	UNK0	0.000	
10	   C	-0.990	0.615	1.427	C.2	1	UNK0	0.000	
11	   N	-0.160	1.665	1.436	N.2	1	UNK0	0.000	
12	   C	-0.583	2.933	1.551	C.2	1	UNK0	0.000	
13	   N	-1.897	3.159	1.662	N.2	1	UNK0	0.000	
14	   C	-2.803	2.191	1.665	C.2	1	UNK0	0.000	
15	   N	-4.140	2.154	1.761	N.2	1	UNK0	0.000	
16	   C	-4.566	0.890	1.709	C.2	1	UNK0	0.000	
17	   N	-3.456	0.116	1.576	N.pl3	1	UNK0	0.000	
18	   C	-2.349	0.873	1.544	C.2	1	UNK0	0.000	
19	   N	0.294	4.048	1.560	N.pl3	1	UNK0	0.000	
20	   C	2.546	-1.447	-2.403	C.2	1	UNK0	0.000	
21	   S	3.587	-2.753	-2.779	S.3	1	UNK0	0.000	
22	   C	3.355	-2.817	-4.464	C.2	1	UNK0	0.000	
23	   C	2.462	-1.808	-4.687	C.2	1	UNK0	0.000	
24	   C	2.045	-1.102	-3.629	C.2	1	UNK0	0.000	
25	  Br	4.157	-4.016	-5.713	Br	1	UNK0	0.000	
26	   H	0.268	-2.564	-1.239	 H	1	UNK0	0.000	
27	   H	0.215	-3.421	0.307	 H	1	UNK0	0.000	
28	   H	-1.317	-1.045	-0.651	 H	1	UNK0	0.000	
29	   H	-1.697	-2.303	0.614	 H	1	UNK0	0.000	
30	   H	-0.099	-2.197	2.731	 H	1	UNK0	0.000	
31	   H	0.480	-0.561	3.142	 H	1	UNK0	0.000	
32	   H	2.283	-0.609	1.765	 H	1	UNK0	0.000	
33	   H	2.160	-2.364	2.205	 H	1	UNK0	0.000	
34	   H	-5.553	0.477	1.755	 H	1	UNK0	0.000	
35	   H	-3.435	-0.929	1.506	 H	1	UNK0	0.000	
36	   H	1.009	4.141	2.287	 H	1	UNK0	0.000	
37	   H	0.229	4.805	0.821	 H	1	UNK0	0.000	
38	   H	2.115	-1.606	-5.722	 H	1	UNK0	0.000	
39	   H	1.320	-0.259	-3.694	 H	1	UNK0	0.000	
@<TRIPOS>BOND
1 1 2 2
2 1 3 2
3 1 4 1
4 1 20 1
5 4 5 1
6 4 9 1
7 5 6 1
8 6 7 1
9 7 8 1
10 7 10 1
11 8 9 1
12 10 11 2
13 10 18 1
14 11 12 1
15 12 13 2
16 12 19 1
17 13 14 1
18 14 15 1
19 14 18 2
20 15 16 2
21 16 17 1
22 17 18 1
23 20 21 1
24 20 24 2
25 21 22 1
26 22 23 2
27 22 25 1
28 23 24 1
29 5 26 1
30 5 27 1
31 6 28 1
32 6 29 1
33 8 30 1
34 8 31 1
35 9 32 1
36 9 33 1
37 16 34 1
38 17 35 1
39 19 36 1
40 19 37 1
41 23 38 1
42 24 39 1
@<TRIPOS>SUBSTRUCTURE
1	UNK0	1	GROUP	1 ****	UNK
