# created with PyMOL 2.3.2
@<TRIPOS>MOLECULE
1086
39 42 1                 
SMALL
USER_CHARGES
@<TRIPOS>ATOM
1	   S	0.305	0.934	-2.608	S.O2	1	UNK0	0.000	
2	   O	-0.658	0.847	-3.785	O.2	1	UNK0	0.000	
3	   O	1.140	2.156	-2.797	O.2	1	UNK0	0.000	
4	   N	-0.615	0.955	-1.190	N.3	1	UNK0	0.000	
5	   C	0.138	0.960	0.021	C.3	1	UNK0	0.000	
6	   C	-0.740	1.658	1.059	C.3	1	UNK0	0.000	
7	   N	-1.934	0.869	1.150	N.pl3	1	UNK0	0.000	
8	   C	-2.690	0.627	-0.046	C.3	1	UNK0	0.000	
9	   C	-1.785	0.156	-1.191	C.3	1	UNK0	0.000	
10	   C	-2.351	0.346	2.384	C.2	1	UNK0	0.000	
11	   N	-2.501	-0.965	2.638	N.2	1	UNK0	0.000	
12	   C	-2.898	-1.462	3.816	C.2	1	UNK0	0.000	
13	   N	-3.166	-0.585	4.815	N.2	1	UNK0	0.000	
14	   C	-3.047	0.743	4.663	C.2	1	UNK0	0.000	
15	   N	-3.239	1.817	5.454	N.pl3	1	UNK0	0.000	
16	   C	-2.962	2.954	4.769	C.2	1	UNK0	0.000	
17	   N	-2.599	2.559	3.548	N.2	1	UNK0	0.000	
18	   C	-2.635	1.220	3.433	C.2	1	UNK0	0.000	
19	   N	-3.055	-2.845	4.077	N.pl3	1	UNK0	0.000	
20	   C	1.293	-0.520	-2.701	C.2	1	UNK0	0.000	
21	   S	0.798	-2.147	-2.720	S.3	1	UNK0	0.000	
22	   C	2.327	-2.899	-2.821	C.2	1	UNK0	0.000	
23	   C	3.188	-1.834	-2.837	C.2	1	UNK0	0.000	
24	   C	2.655	-0.609	-2.775	C.2	1	UNK0	0.000	
25	  Br	2.770	-4.771	-2.896	Br	1	UNK0	0.000	
26	   H	1.095	1.461	-0.117	 H	1	UNK0	0.000	
27	   H	0.258	-0.094	0.410	 H	1	UNK0	0.000	
28	   H	-0.212	1.777	2.020	 H	1	UNK0	0.000	
29	   H	-0.987	2.660	0.601	 H	1	UNK0	0.000	
30	   H	-3.466	-0.164	0.122	 H	1	UNK0	0.000	
31	   H	-3.178	1.609	-0.317	 H	1	UNK0	0.000	
32	   H	-1.615	-0.922	-1.012	 H	1	UNK0	0.000	
33	   H	-2.324	0.281	-2.129	 H	1	UNK0	0.000	
34	   H	-3.551	1.807	6.444	 H	1	UNK0	0.000	
35	   H	-3.029	3.979	5.155	 H	1	UNK0	0.000	
36	   H	-3.897	-3.361	3.770	 H	1	UNK0	0.000	
37	   H	-2.273	-3.325	4.598	 H	1	UNK0	0.000	
38	   H	4.283	-2.030	-2.900	 H	1	UNK0	0.000	
39	   H	3.264	0.321	-2.782	 H	1	UNK0	0.000	
@<TRIPOS>BOND
1 1 2 2
2 1 3 2
3 1 4 1
4 1 20 1
5 4 5 1
6 4 9 1
7 5 6 1
8 6 7 1
9 7 8 1
10 7 10 1
11 8 9 1
12 10 11 2
13 10 18 1
14 11 12 1
15 12 13 2
16 12 19 1
17 13 14 1
18 14 15 1
19 14 18 2
20 15 16 1
21 16 17 2
22 17 18 1
23 20 21 1
24 20 24 2
25 21 22 1
26 22 23 2
27 22 25 1
28 23 24 1
29 5 26 1
30 5 27 1
31 6 28 1
32 6 29 1
33 8 30 1
34 8 31 1
35 9 32 1
36 9 33 1
37 15 34 1
38 16 35 1
39 19 36 1
40 19 37 1
41 23 38 1
42 24 39 1
@<TRIPOS>SUBSTRUCTURE
1	UNK0	1	GROUP	1 ****	UNK
