# created with PyMOL 2.3.2
@<TRIPOS>MOLECULE
1087
44 47 1                 
SMALL
USER_CHARGES
@<TRIPOS>ATOM
1	   S	-3.376	0.496	-0.467	S.O2	1	UNK0	0.000	
2	   O	-4.160	-0.592	0.253	O.2	1	UNK0	0.000	
3	   O	-4.311	1.248	-1.375	O.2	1	UNK0	0.000	
4	   N	-2.048	-0.165	-1.329	N.3	1	UNK0	0.000	
5	   C	-1.214	-0.886	-0.387	C.3	1	UNK0	0.000	
6	   C	-0.490	-2.043	-1.036	C.3	1	UNK0	0.000	
7	   N	-0.209	-1.712	-2.409	N.pl3	1	UNK0	0.000	
8	   C	-1.301	-1.403	-3.292	C.3	1	UNK0	0.000	
9	   C	-2.481	-1.016	-2.419	C.3	1	UNK0	0.000	
10	   C	1.133	-1.696	-2.864	C.2	1	UNK0	0.000	
11	   N	2.156	-1.985	-2.037	N.2	1	UNK0	0.000	
12	   C	3.426	-1.984	-2.412	C.2	1	UNK0	0.000	
13	   C	3.761	-1.681	-3.694	C.2	1	UNK0	0.000	
14	   C	2.760	-1.377	-4.593	C.2	1	UNK0	0.000	
15	   C	1.458	-1.385	-4.178	C.2	1	UNK0	0.000	
16	  Br	5.595	-1.688	-4.207	Br	1	UNK0	0.000	
17	   C	-2.817	1.615	0.745	C.2	1	UNK0	0.000	
18	   C	-2.667	2.939	0.436	C.2	1	UNK0	0.000	
19	   C	-2.229	3.844	1.366	C.2	1	UNK0	0.000	
20	   C	-1.920	3.472	2.656	C.2	1	UNK0	0.000	
21	   C	-2.069	2.132	2.979	C.2	1	UNK0	0.000	
22	   C	-2.511	1.227	2.035	C.2	1	UNK0	0.000	
23	   O	-1.474	4.392	3.605	O.3	1	UNK0	0.000	
24	   C	-0.844	5.581	3.158	C.3	1	UNK0	0.000	
25	   C	-1.628	6.121	1.999	C.2	1	UNK0	0.000	
26	   O	-1.890	7.342	1.884	O.2	1	UNK0	0.000	
27	   N	-2.083	5.216	1.009	N.pl3	1	UNK0	0.000	
28	   H	-1.819	-1.244	0.484	 H	1	UNK0	0.000	
29	   H	-0.488	-0.131	0.022	 H	1	UNK0	0.000	
30	   H	-1.110	-2.962	-1.004	 H	1	UNK0	0.000	
31	   H	0.436	-2.208	-0.443	 H	1	UNK0	0.000	
32	   H	-1.520	-2.291	-3.904	 H	1	UNK0	0.000	
33	   H	-1.018	-0.523	-3.937	 H	1	UNK0	0.000	
34	   H	-3.243	-0.473	-3.007	 H	1	UNK0	0.000	
35	   H	-2.883	-1.948	-1.996	 H	1	UNK0	0.000	
36	   H	4.213	-2.227	-1.691	 H	1	UNK0	0.000	
37	   H	3.050	-1.140	-5.602	 H	1	UNK0	0.000	
38	   H	0.677	-1.146	-4.885	 H	1	UNK0	0.000	
39	   H	-2.895	3.276	-0.553	 H	1	UNK0	0.000	
40	   H	-1.839	1.791	3.979	 H	1	UNK0	0.000	
41	   H	-2.626	0.193	2.284	 H	1	UNK0	0.000	
42	   H	-0.834	6.371	3.926	 H	1	UNK0	0.000	
43	   H	0.167	5.394	2.788	 H	1	UNK0	0.000	
44	   H	-2.312	5.526	0.033	 H	1	UNK0	0.000	
@<TRIPOS>BOND
1 1 2 2
2 1 3 2
3 1 4 1
4 1 17 1
5 4 5 1
6 4 9 1
7 5 6 1
8 6 7 1
9 7 8 1
10 7 10 1
11 8 9 1
12 10 11 2
13 10 15 1
14 11 12 1
15 12 13 2
16 13 14 1
17 13 16 1
18 14 15 2
19 17 18 2
20 17 22 1
21 18 19 1
22 19 20 2
23 19 27 1
24 20 21 1
25 20 23 1
26 21 22 2
27 23 24 1
28 24 25 1
29 25 26 2
30 25 27 1
31 5 28 1
32 5 29 1
33 6 30 1
34 6 31 1
35 8 32 1
36 8 33 1
37 9 34 1
38 9 35 1
39 12 36 1
40 14 37 1
41 15 38 1
42 18 39 1
43 21 40 1
44 22 41 1
45 24 42 1
46 24 43 1
47 27 44 1
@<TRIPOS>SUBSTRUCTURE
1	UNK0	1	GROUP	1 ****	UNK
