# created with PyMOL 2.3.2
@<TRIPOS>MOLECULE
1088
40 43 1                 
SMALL
USER_CHARGES
@<TRIPOS>ATOM
1	   S	-0.978	-0.034	3.494	S.O2	1	UNK0	0.000	
2	   O	-0.355	0.492	4.737	O.2	1	UNK0	0.000	
3	   O	-2.331	-0.631	3.776	O.2	1	UNK0	0.000	
4	   N	-1.187	1.174	2.295	N.3	1	UNK0	0.000	
5	   C	-1.825	0.659	1.161	C.3	1	UNK0	0.000	
6	   C	-1.074	0.577	-0.117	C.3	1	UNK0	0.000	
7	   N	0.295	0.957	0.104	N.pl3	1	UNK0	0.000	
8	   C	0.540	2.169	0.838	C.3	1	UNK0	0.000	
9	   C	-0.073	2.019	2.201	C.3	1	UNK0	0.000	
10	   C	1.333	0.150	-0.395	C.2	1	UNK0	0.000	
11	   N	2.256	-0.401	0.441	N.2	1	UNK0	0.000	
12	   C	3.254	-1.169	0.007	C.2	1	UNK0	0.000	
13	   N	3.419	-1.457	-1.309	N.2	1	UNK0	0.000	
14	   C	2.533	-0.939	-2.192	C.2	1	UNK0	0.000	
15	   N	2.433	-1.041	-3.529	N.pl3	1	UNK0	0.000	
16	   N	1.387	-0.343	-3.908	N.2	1	UNK0	0.000	
17	   C	0.779	0.228	-2.849	C.2	1	UNK0	0.000	
18	   C	1.496	-0.141	-1.743	C.2	1	UNK0	0.000	
19	   C	3.325	-1.791	-4.411	C.3	1	UNK0	0.000	
20	   C	0.042	-1.363	2.911	C.2	1	UNK0	0.000	
21	   S	-0.223	-2.412	1.590	S.3	1	UNK0	0.000	
22	   C	1.181	-3.368	1.711	C.2	1	UNK0	0.000	
23	   C	1.825	-2.834	2.793	C.2	1	UNK0	0.000	
24	   C	1.231	-1.797	3.410	C.2	1	UNK0	0.000	
25	  Br	1.696	-4.826	0.585	Br	1	UNK0	0.000	
26	   H	-2.723	1.334	0.960	 H	1	UNK0	0.000	
27	   H	-2.231	-0.373	1.403	 H	1	UNK0	0.000	
28	   H	-1.147	-0.483	-0.503	 H	1	UNK0	0.000	
29	   H	-1.543	1.174	-0.940	 H	1	UNK0	0.000	
30	   H	0.029	2.983	0.299	 H	1	UNK0	0.000	
31	   H	1.616	2.396	0.955	 H	1	UNK0	0.000	
32	   H	-0.424	3.057	2.493	 H	1	UNK0	0.000	
33	   H	0.720	1.814	2.984	 H	1	UNK0	0.000	
34	   H	3.971	-1.593	0.686	 H	1	UNK0	0.000	
35	   H	-0.097	0.856	-2.825	 H	1	UNK0	0.000	
36	   H	3.305	-1.373	-5.418	 H	1	UNK0	0.000	
37	   H	3.088	-2.876	-4.410	 H	1	UNK0	0.000	
38	   H	4.367	-1.685	-3.996	 H	1	UNK0	0.000	
39	   H	2.798	-3.280	3.105	 H	1	UNK0	0.000	
40	   H	1.675	-1.298	4.295	 H	1	UNK0	0.000	
@<TRIPOS>BOND
1 1 2 2
2 1 3 2
3 1 4 1
4 1 20 1
5 4 5 1
6 4 9 1
7 5 6 1
8 6 7 1
9 7 8 1
10 7 10 1
11 8 9 1
12 10 11 2
13 10 18 1
14 11 12 1
15 12 13 2
16 13 14 1
17 14 15 1
18 14 18 2
19 15 16 1
20 15 19 1
21 16 17 2
22 17 18 1
23 20 21 1
24 20 24 2
25 21 22 1
26 22 23 2
27 22 25 1
28 23 24 1
29 5 26 1
30 5 27 1
31 6 28 1
32 6 29 1
33 8 30 1
34 8 31 1
35 9 32 1
36 9 33 1
37 12 34 1
38 17 35 1
39 19 36 1
40 19 37 1
41 19 38 1
42 23 39 1
43 24 40 1
@<TRIPOS>SUBSTRUCTURE
1	UNK0	1	GROUP	1 ****	UNK
