# created with PyMOL 2.3.2
@<TRIPOS>MOLECULE
1089
37 40 1                 
SMALL
USER_CHARGES
@<TRIPOS>ATOM
1	   S	-3.503	1.731	0.354	S.O2	1	UNK0	0.000	
2	   O	-4.802	2.127	-0.339	O.2	1	UNK0	0.000	
3	   O	-3.621	2.195	1.760	O.2	1	UNK0	0.000	
4	   N	-2.226	2.421	-0.474	N.3	1	UNK0	0.000	
5	   C	-2.077	2.165	-1.854	C.3	1	UNK0	0.000	
6	   C	-1.056	1.119	-2.227	C.3	1	UNK0	0.000	
7	   N	-0.337	0.614	-1.100	N.pl3	1	UNK0	0.000	
8	   C	-0.096	1.388	0.105	C.3	1	UNK0	0.000	
9	   C	-0.992	2.589	0.188	C.3	1	UNK0	0.000	
10	   C	0.179	-0.710	-1.123	C.2	1	UNK0	0.000	
11	   N	-0.307	-1.637	-0.245	N.2	1	UNK0	0.000	
12	   C	0.157	-2.887	-0.255	C.2	1	UNK0	0.000	
13	   N	1.100	-3.286	-1.107	N.2	1	UNK0	0.000	
14	   C	1.587	-2.398	-1.971	C.2	1	UNK0	0.000	
15	   N	2.521	-2.508	-2.920	N.2	1	UNK0	0.000	
16	   C	2.659	-1.298	-3.531	C.2	1	UNK0	0.000	
17	   N	1.820	-0.421	-2.979	N.pl3	1	UNK0	0.000	
18	   C	1.150	-1.073	-2.018	C.2	1	UNK0	0.000	
19	   C	-3.510	-0.035	0.369	C.2	1	UNK0	0.000	
20	   S	-3.588	-1.127	-0.937	S.3	1	UNK0	0.000	
21	   C	-3.546	-2.596	-0.078	C.2	1	UNK0	0.000	
22	   C	-3.470	-2.185	1.231	C.2	1	UNK0	0.000	
23	   C	-3.452	-0.866	1.453	C.2	1	UNK0	0.000	
24	  Br	-3.591	-4.385	-0.744	Br	1	UNK0	0.000	
25	   H	-3.035	1.959	-2.389	 H	1	UNK0	0.000	
26	   H	-1.729	3.137	-2.319	 H	1	UNK0	0.000	
27	   H	-0.425	1.510	-3.050	 H	1	UNK0	0.000	
28	   H	-1.606	0.260	-2.706	 H	1	UNK0	0.000	
29	   H	-0.263	0.763	1.002	 H	1	UNK0	0.000	
30	   H	0.973	1.692	0.106	 H	1	UNK0	0.000	
31	   H	-1.177	2.874	1.242	 H	1	UNK0	0.000	
32	   H	-0.446	3.444	-0.302	 H	1	UNK0	0.000	
33	   H	-0.225	-3.629	0.440	 H	1	UNK0	0.000	
34	   H	3.353	-1.123	-4.336	 H	1	UNK0	0.000	
35	   H	1.726	0.573	-3.258	 H	1	UNK0	0.000	
36	   H	-3.427	-2.954	2.041	 H	1	UNK0	0.000	
37	   H	-3.392	-0.442	2.479	 H	1	UNK0	0.000	
@<TRIPOS>BOND
1 1 2 2
2 1 3 2
3 1 4 1
4 1 19 1
5 4 5 1
6 4 9 1
7 5 6 1
8 6 7 1
9 7 8 1
10 7 10 1
11 8 9 1
12 10 11 2
13 10 18 1
14 11 12 1
15 12 13 2
16 13 14 1
17 14 15 1
18 14 18 2
19 15 16 2
20 16 17 1
21 17 18 1
22 19 20 1
23 19 23 2
24 20 21 1
25 21 22 2
26 21 24 1
27 22 23 1
28 5 25 1
29 5 26 1
30 6 27 1
31 6 28 1
32 8 29 1
33 8 30 1
34 9 31 1
35 9 32 1
36 12 33 1
37 16 34 1
38 17 35 1
39 22 36 1
40 23 37 1
@<TRIPOS>SUBSTRUCTURE
1	UNK0	1	GROUP	1 ****	UNK
