# created with PyMOL 2.3.2
@<TRIPOS>MOLECULE
1090
37 40 1                 
SMALL
USER_CHARGES
@<TRIPOS>ATOM
1	   S	1.956	2.784	0.730	S.O2	1	UNK0	0.000	
2	   O	1.425	3.391	1.979	O.2	1	UNK0	0.000	
3	   O	3.168	3.550	0.232	O.2	1	UNK0	0.000	
4	   N	2.395	1.173	1.005	N.3	1	UNK0	0.000	
5	   C	2.980	0.475	-0.069	C.3	1	UNK0	0.000	
6	   C	2.174	-0.610	-0.691	C.3	1	UNK0	0.000	
7	   N	1.022	-0.956	0.124	N.pl3	1	UNK0	0.000	
8	   C	1.264	-0.944	1.575	C.3	1	UNK0	0.000	
9	   C	1.623	0.455	1.943	C.3	1	UNK0	0.000	
10	   C	-0.243	-1.283	-0.411	C.2	1	UNK0	0.000	
11	   N	-1.360	-0.587	-0.133	N.2	1	UNK0	0.000	
12	   C	-2.556	-0.906	-0.647	C.2	1	UNK0	0.000	
13	   N	-2.670	-1.960	-1.476	N.2	1	UNK0	0.000	
14	   C	-1.596	-2.717	-1.810	C.2	1	UNK0	0.000	
15	   N	-1.461	-3.798	-2.603	N.pl3	1	UNK0	0.000	
16	   C	-0.156	-4.123	-2.555	C.2	1	UNK0	0.000	
17	   N	0.505	-3.264	-1.751	N.2	1	UNK0	0.000	
18	   C	-0.377	-2.361	-1.263	C.2	1	UNK0	0.000	
19	   C	0.736	2.879	-0.553	C.2	1	UNK0	0.000	
20	   S	0.837	2.376	-2.173	S.3	1	UNK0	0.000	
21	   C	-0.721	2.818	-2.697	C.2	1	UNK0	0.000	
22	   C	-1.289	3.357	-1.573	C.2	1	UNK0	0.000	
23	   C	-0.530	3.388	-0.459	C.2	1	UNK0	0.000	
24	  Br	-1.527	2.625	-4.439	Br	1	UNK0	0.000	
25	   H	3.208	1.223	-0.885	 H	1	UNK0	0.000	
26	   H	4.000	0.076	0.207	 H	1	UNK0	0.000	
27	   H	1.876	-0.404	-1.741	 H	1	UNK0	0.000	
28	   H	2.783	-1.560	-0.753	 H	1	UNK0	0.000	
29	   H	0.364	-1.311	2.075	 H	1	UNK0	0.000	
30	   H	2.137	-1.635	1.758	 H	1	UNK0	0.000	
31	   H	2.083	0.448	2.974	 H	1	UNK0	0.000	
32	   H	0.653	1.014	2.093	 H	1	UNK0	0.000	
33	   H	-3.451	-0.317	-0.401	 H	1	UNK0	0.000	
34	   H	-2.208	-4.280	-3.139	 H	1	UNK0	0.000	
35	   H	0.360	-4.944	-3.064	 H	1	UNK0	0.000	
36	   H	-2.335	3.754	-1.578	 H	1	UNK0	0.000	
37	   H	-0.882	3.803	0.517	 H	1	UNK0	0.000	
@<TRIPOS>BOND
1 1 2 2
2 1 3 2
3 1 4 1
4 1 19 1
5 4 5 1
6 4 9 1
7 5 6 1
8 6 7 1
9 7 8 1
10 7 10 1
11 8 9 1
12 10 11 2
13 10 18 1
14 11 12 1
15 12 13 2
16 13 14 1
17 14 15 1
18 14 18 2
19 15 16 1
20 16 17 2
21 17 18 1
22 19 20 1
23 19 23 2
24 20 21 1
25 21 22 2
26 21 24 1
27 22 23 1
28 5 25 1
29 5 26 1
30 6 27 1
31 6 28 1
32 8 29 1
33 8 30 1
34 9 31 1
35 9 32 1
36 12 33 1
37 15 34 1
38 16 35 1
39 22 36 1
40 23 37 1
@<TRIPOS>SUBSTRUCTURE
1	UNK0	1	GROUP	1 ****	UNK
