# created with PyMOL 2.3.2
@<TRIPOS>MOLECULE
1091
44 47 1                 
SMALL
USER_CHARGES
@<TRIPOS>ATOM
1	   S	-3.182	-1.458	-0.553	S.O2	1	UNK0	0.000	
2	   O	-4.224	-1.503	0.545	O.2	1	UNK0	0.000	
3	   O	-3.070	-2.866	-1.078	O.2	1	UNK0	0.000	
4	   N	-1.652	-0.996	0.041	N.3	1	UNK0	0.000	
5	   C	-0.688	-1.131	-1.026	C.3	1	UNK0	0.000	
6	   C	0.716	-0.905	-0.563	C.3	1	UNK0	0.000	
7	   N	0.792	0.028	0.539	N.pl3	1	UNK0	0.000	
8	   C	-0.303	0.802	1.025	C.3	1	UNK0	0.000	
9	   C	-1.651	0.327	0.627	C.3	1	UNK0	0.000	
10	   C	2.068	0.174	1.181	C.2	1	UNK0	0.000	
11	   N	2.240	1.019	2.220	N.2	1	UNK0	0.000	
12	   N	3.401	1.178	2.834	N.2	1	UNK0	0.000	
13	   C	4.519	0.515	2.485	C.2	1	UNK0	0.000	
14	   C	4.394	-0.367	1.421	C.2	1	UNK0	0.000	
15	   C	3.183	-0.534	0.779	C.2	1	UNK0	0.000	
16	   N	5.753	0.708	3.165	N.pl3	1	UNK0	0.000	
17	   C	6.730	1.565	2.850	C.2	1	UNK0	0.000	
18	   N	7.758	1.482	3.713	N.2	1	UNK0	0.000	
19	   C	7.439	0.533	4.627	C.2	1	UNK0	0.000	
20	   C	6.207	0.066	4.280	C.2	1	UNK0	0.000	
21	   C	-3.734	-0.453	-1.871	C.2	1	UNK0	0.000	
22	   C	-4.479	0.685	-1.625	C.2	1	UNK0	0.000	
23	   C	-4.901	1.456	-2.664	C.2	1	UNK0	0.000	
24	   C	-4.605	1.135	-3.982	C.2	1	UNK0	0.000	
25	   C	-3.865	0.007	-4.253	C.2	1	UNK0	0.000	
26	   C	-3.449	-0.758	-3.185	C.2	1	UNK0	0.000	
27	  Br	-5.211	2.236	-5.427	Br	1	UNK0	0.000	
28	   H	-1.001	-0.444	-1.840	 H	1	UNK0	0.000	
29	   H	-0.771	-2.159	-1.420	 H	1	UNK0	0.000	
30	   H	1.157	-1.886	-0.228	 H	1	UNK0	0.000	
31	   H	1.325	-0.588	-1.435	 H	1	UNK0	0.000	
32	   H	-0.243	0.778	2.153	 H	1	UNK0	0.000	
33	   H	-0.174	1.887	0.773	 H	1	UNK0	0.000	
34	   H	-2.352	0.296	1.486	 H	1	UNK0	0.000	
35	   H	-2.089	1.017	-0.120	 H	1	UNK0	0.000	
36	   H	5.279	-0.909	1.125	 H	1	UNK0	0.000	
37	   H	3.079	-1.224	-0.055	 H	1	UNK0	0.000	
38	   H	6.721	2.250	2.014	 H	1	UNK0	0.000	
39	   H	8.080	0.239	5.458	 H	1	UNK0	0.000	
40	   H	5.643	-0.697	4.786	 H	1	UNK0	0.000	
41	   H	-4.746	0.995	-0.625	 H	1	UNK0	0.000	
42	   H	-5.494	2.369	-2.537	 H	1	UNK0	0.000	
43	   H	-3.608	-0.285	-5.282	 H	1	UNK0	0.000	
44	   H	-2.859	-1.663	-3.342	 H	1	UNK0	0.000	
@<TRIPOS>BOND
1 1 2 2
2 1 3 2
3 1 4 1
4 1 21 1
5 4 5 1
6 4 9 1
7 5 6 1
8 6 7 1
9 7 8 1
10 7 10 1
11 8 9 1
12 10 11 2
13 10 15 1
14 11 12 1
15 12 13 2
16 13 14 1
17 13 16 1
18 14 15 2
19 16 17 1
20 16 20 1
21 17 18 2
22 18 19 1
23 19 20 2
24 21 22 2
25 21 26 1
26 22 23 1
27 23 24 2
28 24 25 1
29 24 27 1
30 25 26 2
31 5 28 1
32 5 29 1
33 6 30 1
34 6 31 1
35 8 32 1
36 8 33 1
37 9 34 1
38 9 35 1
39 14 36 1
40 15 37 1
41 17 38 1
42 19 39 1
43 20 40 1
44 22 41 1
45 23 42 1
46 25 43 1
47 26 44 1
@<TRIPOS>SUBSTRUCTURE
1	UNK0	1	GROUP	1 ****	UNK
