# created with PyMOL 2.3.2
@<TRIPOS>MOLECULE
1096
50 53 1                 
SMALL
USER_CHARGES
@<TRIPOS>ATOM
1	   S	0.633	2.993	-1.064	S.O2	1	UNK0	0.000	
2	   O	-0.088	3.383	-2.341	O.2	1	UNK0	0.000	
3	   O	-0.290	2.023	-0.350	O.2	1	UNK0	0.000	
4	   N	2.049	2.195	-1.480	N.3	1	UNK0	0.000	
5	   C	2.837	1.665	-0.441	C.3	1	UNK0	0.000	
6	   C	2.632	0.189	-0.182	C.3	1	UNK0	0.000	
7	   N	1.709	-0.345	-1.161	N.pl3	1	UNK0	0.000	
8	   C	2.099	-0.032	-2.544	C.3	1	UNK0	0.000	
9	   C	1.957	1.459	-2.679	C.3	1	UNK0	0.000	
10	   C	0.553	-1.086	-0.898	C.2	1	UNK0	0.000	
11	   N	-0.192	-1.513	-1.930	N.2	1	UNK0	0.000	
12	   N	-1.297	-2.215	-1.780	N.2	1	UNK0	0.000	
13	   C	-1.776	-2.566	-0.567	C.2	1	UNK0	0.000	
14	   C	-1.053	-2.156	0.536	C.2	1	UNK0	0.000	
15	   C	0.101	-1.422	0.353	C.2	1	UNK0	0.000	
16	   N	-2.964	-3.320	-0.418	N.pl3	1	UNK0	0.000	
17	   C	-3.479	-3.678	0.880	C.3	1	UNK0	0.000	
18	   C	-4.940	-4.023	0.685	C.3	1	UNK0	0.000	
19	   O	-5.569	-3.135	-0.187	O.3	1	UNK0	0.000	
20	   C	-5.102	-3.190	-1.472	C.3	1	UNK0	0.000	
21	   C	-3.695	-3.753	-1.586	C.3	1	UNK0	0.000	
22	   C	0.816	4.394	-0.087	C.2	1	UNK0	0.000	
23	   C	0.804	4.344	1.283	C.2	1	UNK0	0.000	
24	   C	0.957	5.520	1.983	C.2	1	UNK0	0.000	
25	   C	1.123	6.754	1.388	C.2	1	UNK0	0.000	
26	   C	1.133	6.789	0.022	C.2	1	UNK0	0.000	
27	   C	0.980	5.620	-0.688	C.2	1	UNK0	0.000	
28	  Br	1.334	8.365	2.371	Br	1	UNK0	0.000	
29	   H	3.907	1.884	-0.640	 H	1	UNK0	0.000	
30	   H	2.597	2.225	0.506	 H	1	UNK0	0.000	
31	   H	2.400	-0.040	0.855	 H	1	UNK0	0.000	
32	   H	3.614	-0.333	-0.394	 H	1	UNK0	0.000	
33	   H	1.454	-0.569	-3.259	 H	1	UNK0	0.000	
34	   H	3.162	-0.287	-2.730	 H	1	UNK0	0.000	
35	   H	0.931	1.635	-3.119	 H	1	UNK0	0.000	
36	   H	2.651	1.854	-3.477	 H	1	UNK0	0.000	
37	   H	-1.368	-2.396	1.547	 H	1	UNK0	0.000	
38	   H	0.696	-1.081	1.191	 H	1	UNK0	0.000	
39	   H	-3.340	-2.889	1.645	 H	1	UNK0	0.000	
40	   H	-2.949	-4.585	1.232	 H	1	UNK0	0.000	
41	   H	-5.436	-3.918	1.669	 H	1	UNK0	0.000	
42	   H	-5.070	-5.082	0.365	 H	1	UNK0	0.000	
43	   H	-5.785	-3.754	-2.159	 H	1	UNK0	0.000	
44	   H	-5.068	-2.158	-1.880	 H	1	UNK0	0.000	
45	   H	-3.265	-3.361	-2.528	 H	1	UNK0	0.000	
46	   H	-3.731	-4.862	-1.609	 H	1	UNK0	0.000	
47	   H	0.676	3.394	1.820	 H	1	UNK0	0.000	
48	   H	0.952	5.504	3.072	 H	1	UNK0	0.000	
49	   H	1.264	7.762	-0.468	 H	1	UNK0	0.000	
50	   H	0.998	5.721	-1.786	 H	1	UNK0	0.000	
@<TRIPOS>BOND
1 1 2 2
2 1 3 2
3 1 4 1
4 1 22 1
5 4 5 1
6 4 9 1
7 5 6 1
8 6 7 1
9 7 8 1
10 7 10 1
11 8 9 1
12 10 11 2
13 10 15 1
14 11 12 1
15 12 13 2
16 13 14 1
17 13 16 1
18 14 15 2
19 16 17 1
20 16 21 1
21 17 18 1
22 18 19 1
23 19 20 1
24 20 21 1
25 22 23 2
26 22 27 1
27 23 24 1
28 24 25 2
29 25 26 1
30 25 28 1
31 26 27 2
32 5 29 1
33 5 30 1
34 6 31 1
35 6 32 1
36 8 33 1
37 8 34 1
38 9 35 1
39 9 36 1
40 14 37 1
41 15 38 1
42 17 39 1
43 17 40 1
44 18 41 1
45 18 42 1
46 20 43 1
47 20 44 1
48 21 45 1
49 21 46 1
50 23 47 1
51 24 48 1
52 26 49 1
53 27 50 1
@<TRIPOS>SUBSTRUCTURE
1	UNK0	1	GROUP	1 ****	UNK
