# created with PyMOL 2.3.2
@<TRIPOS>MOLECULE
1097
47 50 1                 
SMALL
USER_CHARGES
@<TRIPOS>ATOM
1	   S	1.580	2.617	0.203	S.O2	1	UNK0	0.000	
2	   O	1.171	4.007	-0.159	O.2	1	UNK0	0.000	
3	   O	2.459	2.708	1.426	O.2	1	UNK0	0.000	
4	   N	0.250	1.610	0.603	N.3	1	UNK0	0.000	
5	   C	-0.713	1.478	-0.447	C.3	1	UNK0	0.000	
6	   C	-1.971	0.850	0.149	C.3	1	UNK0	0.000	
7	   N	-1.611	0.022	1.279	N.pl3	1	UNK0	0.000	
8	   C	-1.117	0.785	2.393	C.3	1	UNK0	0.000	
9	   C	-0.419	2.016	1.805	C.3	1	UNK0	0.000	
10	   C	-1.748	-1.370	1.243	C.2	1	UNK0	0.000	
11	   C	-0.777	-2.220	1.534	C.2	1	UNK0	0.000	
12	   C	-0.893	-3.664	1.504	C.2	1	UNK0	0.000	
13	   C	0.150	-4.435	1.816	C.2	1	UNK0	0.000	
14	   N	-2.145	-4.229	1.135	N.pl3	1	UNK0	0.000	
15	   C	-3.184	-3.296	0.825	C.2	1	UNK0	0.000	
16	   N	-3.009	-1.963	0.872	N.pl3	1	UNK0	0.000	
17	   N	-4.169	-1.452	0.527	N.2	1	UNK0	0.000	
18	   C	-5.068	-2.412	0.264	C.2	1	UNK0	0.000	
19	   N	-4.444	-3.583	0.453	N.2	1	UNK0	0.000	
20	   C	2.458	1.956	-1.156	C.2	1	UNK0	0.000	
21	   C	3.036	0.684	-1.079	C.2	1	UNK0	0.000	
22	   C	3.730	0.139	-2.127	C.2	1	UNK0	0.000	
23	   C	3.873	0.845	-3.292	C.2	1	UNK0	0.000	
24	   C	3.316	2.112	-3.412	C.2	1	UNK0	0.000	
25	   C	2.622	2.638	-2.343	C.2	1	UNK0	0.000	
26	  Br	3.530	3.065	-5.035	Br	1	UNK0	0.000	
27	   O	2.874	0.006	0.099	O.3	1	UNK0	0.000	
28	   C	3.435	-1.294	0.249	C.3	1	UNK0	0.000	
29	   H	-0.957	2.517	-0.800	 H	1	UNK0	0.000	
30	   H	-0.362	0.920	-1.328	 H	1	UNK0	0.000	
31	   H	-2.635	1.706	0.472	 H	1	UNK0	0.000	
32	   H	-2.560	0.315	-0.613	 H	1	UNK0	0.000	
33	   H	-0.419	0.261	3.047	 H	1	UNK0	0.000	
34	   H	-1.980	1.104	3.007	 H	1	UNK0	0.000	
35	   H	-1.224	2.751	1.536	 H	1	UNK0	0.000	
36	   H	0.237	2.503	2.544	 H	1	UNK0	0.000	
37	   H	0.183	-1.813	1.816	 H	1	UNK0	0.000	
38	   H	0.038	-5.505	1.786	 H	1	UNK0	0.000	
39	   H	1.082	-3.969	2.090	 H	1	UNK0	0.000	
40	   H	-2.272	-5.257	1.102	 H	1	UNK0	0.000	
41	   H	-6.108	-2.310	-0.044	 H	1	UNK0	0.000	
42	   H	4.170	-0.841	-2.055	 H	1	UNK0	0.000	
43	   H	4.419	0.420	-4.119	 H	1	UNK0	0.000	
44	   H	2.194	3.626	-2.454	 H	1	UNK0	0.000	
45	   H	4.513	-1.248	-0.036	 H	1	UNK0	0.000	
46	   H	3.310	-1.659	1.295	 H	1	UNK0	0.000	
47	   H	2.914	-1.979	-0.429	 H	1	UNK0	0.000	
@<TRIPOS>BOND
1 1 2 2
2 1 3 2
3 1 4 1
4 1 20 1
5 4 5 1
6 4 9 1
7 5 6 1
8 6 7 1
9 7 8 1
10 7 10 1
11 8 9 1
12 10 11 2
13 10 16 1
14 11 12 1
15 12 13 2
16 12 14 1
17 14 15 1
18 15 16 1
19 15 19 2
20 16 17 1
21 17 18 2
22 18 19 1
23 20 21 2
24 20 25 1
25 21 22 1
26 21 27 1
27 22 23 2
28 23 24 1
29 24 25 2
30 24 26 1
31 27 28 1
32 5 29 1
33 5 30 1
34 6 31 1
35 6 32 1
36 8 33 1
37 8 34 1
38 9 35 1
39 9 36 1
40 11 37 1
41 13 38 1
42 13 39 1
43 14 40 1
44 18 41 1
45 22 42 1
46 23 43 1
47 25 44 1
48 28 45 1
49 28 46 1
50 28 47 1
@<TRIPOS>SUBSTRUCTURE
1	UNK0	1	GROUP	1 ****	UNK
