# created with PyMOL 2.3.2
@<TRIPOS>MOLECULE
1098
43 46 1                 
SMALL
USER_CHARGES
@<TRIPOS>ATOM
1	   S	0.205	-1.437	0.751	S.O2	1	UNK0	0.000	
2	   O	0.576	-1.646	2.186	O.2	1	UNK0	0.000	
3	   O	1.375	-0.856	0.038	O.2	1	UNK0	0.000	
4	   N	-1.191	-0.446	0.674	N.3	1	UNK0	0.000	
5	   C	-1.648	-0.192	-0.651	C.3	1	UNK0	0.000	
6	   C	-0.857	0.872	-1.374	C.3	1	UNK0	0.000	
7	   N	-0.470	1.869	-0.404	N.pl3	1	UNK0	0.000	
8	   C	-1.293	1.959	0.778	C.3	1	UNK0	0.000	
9	   C	-1.154	0.679	1.537	C.3	1	UNK0	0.000	
10	   C	0.645	2.726	-0.567	C.2	1	UNK0	0.000	
11	   C	1.333	3.197	0.479	C.2	1	UNK0	0.000	
12	   C	2.482	4.078	0.351	C.2	1	UNK0	0.000	
13	   C	3.116	4.507	1.433	C.2	1	UNK0	0.000	
14	   N	2.881	4.448	-0.956	N.pl3	1	UNK0	0.000	
15	   C	2.139	3.938	-2.053	C.2	1	UNK0	0.000	
16	   N	1.084	3.125	-1.870	N.pl3	1	UNK0	0.000	
17	   N	0.610	2.826	-3.091	N.2	1	UNK0	0.000	
18	   C	1.367	3.449	-4.011	C.2	1	UNK0	0.000	
19	   N	2.330	4.151	-3.386	N.2	1	UNK0	0.000	
20	   C	-0.183	-2.985	0.053	C.2	1	UNK0	0.000	
21	   C	-1.182	-3.779	0.573	C.2	1	UNK0	0.000	
22	   C	-1.501	-5.005	0.032	C.2	1	UNK0	0.000	
23	   C	-0.825	-5.492	-1.064	C.2	1	UNK0	0.000	
24	   C	0.176	-4.712	-1.595	C.2	1	UNK0	0.000	
25	   C	0.497	-3.484	-1.056	C.2	1	UNK0	0.000	
26	  Br	-2.126	-3.111	2.093	Br	1	UNK0	0.000	
27	   H	-2.723	0.110	-0.586	 H	1	UNK0	0.000	
28	   H	-1.631	-1.137	-1.220	 H	1	UNK0	0.000	
29	   H	-0.001	0.461	-1.933	 H	1	UNK0	0.000	
30	   H	-1.550	1.365	-2.088	 H	1	UNK0	0.000	
31	   H	-1.094	2.861	1.377	 H	1	UNK0	0.000	
32	   H	-2.375	2.038	0.470	 H	1	UNK0	0.000	
33	   H	-2.018	0.616	2.247	 H	1	UNK0	0.000	
34	   H	-0.243	0.624	2.167	 H	1	UNK0	0.000	
35	   H	0.996	2.891	1.461	 H	1	UNK0	0.000	
36	   H	2.797	4.215	2.407	 H	1	UNK0	0.000	
37	   H	3.956	5.154	1.296	 H	1	UNK0	0.000	
38	   H	3.707	5.083	-1.057	 H	1	UNK0	0.000	
39	   H	1.265	3.425	-5.086	 H	1	UNK0	0.000	
40	   H	-2.302	-5.607	0.474	 H	1	UNK0	0.000	
41	   H	-1.099	-6.464	-1.469	 H	1	UNK0	0.000	
42	   H	0.723	-5.070	-2.456	 H	1	UNK0	0.000	
43	   H	1.288	-2.846	-1.461	 H	1	UNK0	0.000	
@<TRIPOS>BOND
1 1 2 2
2 1 3 2
3 1 4 1
4 1 20 1
5 4 5 1
6 4 9 1
7 5 6 1
8 6 7 1
9 7 8 1
10 7 10 1
11 8 9 1
12 10 11 2
13 10 16 1
14 11 12 1
15 12 13 2
16 12 14 1
17 14 15 1
18 15 16 1
19 15 19 2
20 16 17 1
21 17 18 2
22 18 19 1
23 20 21 2
24 20 25 1
25 21 22 1
26 21 26 1
27 22 23 2
28 23 24 1
29 24 25 2
30 5 27 1
31 5 28 1
32 6 29 1
33 6 30 1
34 8 31 1
35 8 32 1
36 9 33 1
37 9 34 1
38 11 35 1
39 13 36 1
40 13 37 1
41 14 38 1
42 18 39 1
43 22 40 1
44 23 41 1
45 24 42 1
46 25 43 1
@<TRIPOS>SUBSTRUCTURE
1	UNK0	1	GROUP	1 ****	UNK
