# created with PyMOL 2.3.2
@<TRIPOS>MOLECULE
1099
43 46 1                 
SMALL
USER_CHARGES
@<TRIPOS>ATOM
1	   S	0.506	2.351	2.729	S.O2	1	UNK0	0.000	
2	   O	1.157	3.686	2.841	O.2	1	UNK0	0.000	
3	   O	0.861	1.512	3.914	O.2	1	UNK0	0.000	
4	   N	1.051	1.534	1.302	N.3	1	UNK0	0.000	
5	   C	0.469	0.235	1.204	C.3	1	UNK0	0.000	
6	   C	0.765	-0.321	-0.193	C.3	1	UNK0	0.000	
7	   N	-0.023	0.479	-1.111	N.pl3	1	UNK0	0.000	
8	   C	-0.182	1.886	-0.800	C.3	1	UNK0	0.000	
9	   C	0.918	2.325	0.121	C.3	1	UNK0	0.000	
10	   C	-0.642	-0.033	-2.283	C.2	1	UNK0	0.000	
11	   C	-1.976	-0.028	-2.401	C.2	1	UNK0	0.000	
12	   C	-2.642	-0.546	-3.591	C.2	1	UNK0	0.000	
13	   C	-3.955	-0.535	-3.694	C.2	1	UNK0	0.000	
14	   N	-1.847	-1.065	-4.644	N.pl3	1	UNK0	0.000	
15	   C	-0.425	-1.051	-4.477	C.2	1	UNK0	0.000	
16	   N	0.138	-0.557	-3.349	N.pl3	1	UNK0	0.000	
17	   N	1.469	-0.666	-3.458	N.2	1	UNK0	0.000	
18	   C	1.764	-1.227	-4.648	C.2	1	UNK0	0.000	
19	   N	0.580	-1.455	-5.259	N.2	1	UNK0	0.000	
20	   C	-1.236	2.546	2.632	C.2	1	UNK0	0.000	
21	   C	-1.772	3.661	2.055	C.2	1	UNK0	0.000	
22	   C	-3.140	3.805	1.983	C.2	1	UNK0	0.000	
23	   C	-3.989	2.839	2.486	C.2	1	UNK0	0.000	
24	   C	-3.458	1.717	3.066	C.2	1	UNK0	0.000	
25	   C	-2.087	1.585	3.132	C.2	1	UNK0	0.000	
26	  Br	-5.877	3.030	2.391	Br	1	UNK0	0.000	
27	   H	-0.625	0.336	1.260	 H	1	UNK0	0.000	
28	   H	0.823	-0.439	1.987	 H	1	UNK0	0.000	
29	   H	0.471	-1.382	-0.221	 H	1	UNK0	0.000	
30	   H	1.849	-0.215	-0.426	 H	1	UNK0	0.000	
31	   H	-1.169	2.112	-0.353	 H	1	UNK0	0.000	
32	   H	-0.087	2.459	-1.743	 H	1	UNK0	0.000	
33	   H	0.764	3.400	0.348	 H	1	UNK0	0.000	
34	   H	1.899	2.276	-0.430	 H	1	UNK0	0.000	
35	   H	-2.522	0.380	-1.567	 H	1	UNK0	0.000	
36	   H	-4.570	-0.137	-2.887	 H	1	UNK0	0.000	
37	   H	-4.433	-0.920	-4.577	 H	1	UNK0	0.000	
38	   H	-2.246	-1.458	-5.535	 H	1	UNK0	0.000	
39	   H	2.766	-1.442	-5.021	 H	1	UNK0	0.000	
40	   H	-1.124	4.430	1.654	 H	1	UNK0	0.000	
41	   H	-3.591	4.688	1.526	 H	1	UNK0	0.000	
42	   H	-4.117	0.947	3.467	 H	1	UNK0	0.000	
43	   H	-1.656	0.684	3.598	 H	1	UNK0	0.000	
@<TRIPOS>BOND
1 1 2 2
2 1 3 2
3 1 4 1
4 1 20 1
5 4 5 1
6 4 9 1
7 5 6 1
8 6 7 1
9 7 8 1
10 7 10 1
11 8 9 1
12 10 11 2
13 10 16 1
14 11 12 1
15 12 13 2
16 12 14 1
17 14 15 1
18 15 16 1
19 15 19 2
20 16 17 1
21 17 18 2
22 18 19 1
23 20 21 2
24 20 25 1
25 21 22 1
26 22 23 2
27 23 24 1
28 23 26 1
29 24 25 2
30 5 27 1
31 5 28 1
32 6 29 1
33 6 30 1
34 8 31 1
35 8 32 1
36 9 33 1
37 9 34 1
38 11 35 1
39 13 36 1
40 13 37 1
41 14 38 1
42 18 39 1
43 21 40 1
44 22 41 1
45 24 42 1
46 25 43 1
@<TRIPOS>SUBSTRUCTURE
1	UNK0	1	GROUP	1 ****	UNK
