# created with PyMOL 2.3.2
@<TRIPOS>MOLECULE
1101
43 46 1                 
SMALL
USER_CHARGES
@<TRIPOS>ATOM
1	   S	0.014	-3.157	2.624	S.O2	1	UNK0	0.000	
2	   O	1.338	-3.891	2.798	O.2	1	UNK0	0.000	
3	   O	-0.821	-3.519	3.816	O.2	1	UNK0	0.000	
4	   N	-0.699	-3.730	1.189	N.3	1	UNK0	0.000	
5	   C	-1.936	-3.140	0.841	C.3	1	UNK0	0.000	
6	   C	-1.875	-2.004	-0.118	C.3	1	UNK0	0.000	
7	   N	-0.916	-2.266	-1.203	N.pl3	1	UNK0	0.000	
8	   C	-0.406	-3.620	-1.242	C.3	1	UNK0	0.000	
9	   C	0.236	-3.877	0.108	C.3	1	UNK0	0.000	
10	   C	-0.552	-1.246	-2.112	C.2	1	UNK0	0.000	
11	   C	-1.113	0.016	-1.959	C.2	1	UNK0	0.000	
12	   C	-0.747	1.013	-2.861	C.2	1	UNK0	0.000	
13	   N	0.113	0.781	-3.844	N.pl3	1	UNK0	0.000	
14	   C	0.259	1.925	-4.532	C.2	1	UNK0	0.000	
15	   N	-0.527	2.850	-3.948	N.2	1	UNK0	0.000	
16	   N	-1.147	2.295	-2.921	N.2	1	UNK0	0.000	
17	   C	1.133	2.141	-5.730	C.3	1	UNK0	0.000	
18	   N	0.647	-0.398	-3.999	N.2	1	UNK0	0.000	
19	   C	0.324	-1.406	-3.147	C.2	1	UNK0	0.000	
20	   C	0.396	-1.457	2.577	C.2	1	UNK0	0.000	
21	   C	-0.513	-0.492	2.989	C.2	1	UNK0	0.000	
22	   C	-0.210	0.851	2.951	C.2	1	UNK0	0.000	
23	   C	1.037	1.239	2.488	C.2	1	UNK0	0.000	
24	   C	1.976	0.317	2.068	C.2	1	UNK0	0.000	
25	   C	1.633	-1.014	2.122	C.2	1	UNK0	0.000	
26	  Br	1.442	3.111	2.442	Br	1	UNK0	0.000	
27	   H	-2.600	-3.944	0.407	 H	1	UNK0	0.000	
28	   H	-2.451	-2.816	1.765	 H	1	UNK0	0.000	
29	   H	-2.867	-1.898	-0.611	 H	1	UNK0	0.000	
30	   H	-1.660	-1.045	0.383	 H	1	UNK0	0.000	
31	   H	0.345	-3.810	-2.005	 H	1	UNK0	0.000	
32	   H	-1.275	-4.338	-1.311	 H	1	UNK0	0.000	
33	   H	0.728	-4.869	0.151	 H	1	UNK0	0.000	
34	   H	1.033	-3.116	0.237	 H	1	UNK0	0.000	
35	   H	-1.817	0.258	-1.178	 H	1	UNK0	0.000	
36	   H	1.370	1.160	-6.208	 H	1	UNK0	0.000	
37	   H	0.600	2.742	-6.468	 H	1	UNK0	0.000	
38	   H	2.082	2.638	-5.448	 H	1	UNK0	0.000	
39	   H	0.788	-2.343	-3.320	 H	1	UNK0	0.000	
40	   H	-1.482	-0.842	3.345	 H	1	UNK0	0.000	
41	   H	-0.961	1.544	3.285	 H	1	UNK0	0.000	
42	   H	2.931	0.685	1.718	 H	1	UNK0	0.000	
43	   H	2.352	-1.732	1.798	 H	1	UNK0	0.000	
@<TRIPOS>BOND
1 1 2 2
2 1 3 2
3 1 4 1
4 1 20 1
5 4 5 1
6 4 9 1
7 5 6 1
8 6 7 1
9 7 8 1
10 7 10 1
11 8 9 1
12 10 11 2
13 10 19 1
14 11 12 1
15 12 13 1
16 12 16 2
17 13 14 1
18 13 18 1
19 14 15 2
20 14 17 1
21 15 16 1
22 18 19 2
23 20 21 2
24 20 25 1
25 21 22 1
26 22 23 2
27 23 24 1
28 23 26 1
29 24 25 2
30 5 27 1
31 5 28 1
32 6 29 1
33 6 30 1
34 8 31 1
35 8 32 1
36 9 33 1
37 9 34 1
38 11 35 1
39 17 36 1
40 17 37 1
41 17 38 1
42 19 39 1
43 21 40 1
44 22 41 1
45 24 42 1
46 25 43 1
@<TRIPOS>SUBSTRUCTURE
1	UNK0	1	GROUP	1 ****	UNK
