# created with PyMOL 2.3.2
@<TRIPOS>MOLECULE
1102
40 43 1                 
SMALL
USER_CHARGES
@<TRIPOS>ATOM
1	   S	-2.739	-1.732	-0.101	S.O2	1	UNK0	0.000	
2	   O	-3.510	-2.292	1.073	O.2	1	UNK0	0.000	
3	   O	-3.665	-0.918	-0.942	O.2	1	UNK0	0.000	
4	   N	-1.493	-0.736	0.498	N.3	1	UNK0	0.000	
5	   C	-0.592	-1.402	1.386	C.3	1	UNK0	0.000	
6	   C	0.180	-0.280	2.099	C.3	1	UNK0	0.000	
7	   N	1.035	0.290	1.075	N.pl3	1	UNK0	0.000	
8	   C	0.584	0.351	-0.272	C.3	1	UNK0	0.000	
9	   C	-0.844	0.038	-0.498	C.3	1	UNK0	0.000	
10	   C	2.307	0.768	1.482	C.2	1	UNK0	0.000	
11	   N	2.729	0.731	2.756	N.2	1	UNK0	0.000	
12	   N	3.914	1.174	3.142	N.pl3	1	UNK0	0.000	
13	   C	4.768	1.696	2.245	C.2	1	UNK0	0.000	
14	   N	5.887	2.063	2.912	N.2	1	UNK0	0.000	
15	   N	5.733	1.773	4.209	N.2	1	UNK0	0.000	
16	   C	4.501	1.219	4.352	C.2	1	UNK0	0.000	
17	   C	4.432	1.781	0.911	C.2	1	UNK0	0.000	
18	   C	3.173	1.301	0.553	C.2	1	UNK0	0.000	
19	   C	-2.133	-3.075	-1.035	C.2	1	UNK0	0.000	
20	   C	-1.937	-2.971	-2.400	C.2	1	UNK0	0.000	
21	   C	-1.459	-4.056	-3.086	C.2	1	UNK0	0.000	
22	   C	-1.174	-5.237	-2.441	C.2	1	UNK0	0.000	
23	   C	-1.369	-5.346	-1.067	C.2	1	UNK0	0.000	
24	   C	-1.852	-4.247	-0.385	C.2	1	UNK0	0.000	
25	  Br	-0.507	-6.759	-3.380	Br	1	UNK0	0.000	
26	   H	-1.075	-2.082	2.080	 H	1	UNK0	0.000	
27	   H	0.192	-1.936	0.783	 H	1	UNK0	0.000	
28	   H	0.723	-0.656	2.966	 H	1	UNK0	0.000	
29	   H	-0.614	0.460	2.389	 H	1	UNK0	0.000	
30	   H	1.220	-0.341	-0.891	 H	1	UNK0	0.000	
31	   H	0.831	1.377	-0.676	 H	1	UNK0	0.000	
32	   H	-0.951	-0.447	-1.496	 H	1	UNK0	0.000	
33	   H	-1.398	1.021	-0.571	 H	1	UNK0	0.000	
34	   H	4.070	0.873	5.282	 H	1	UNK0	0.000	
35	   H	5.087	2.192	0.157	 H	1	UNK0	0.000	
36	   H	2.854	1.341	-0.482	 H	1	UNK0	0.000	
37	   H	-2.153	-2.060	-2.924	 H	1	UNK0	0.000	
38	   H	-1.301	-3.980	-4.169	 H	1	UNK0	0.000	
39	   H	-1.142	-6.272	-0.584	 H	1	UNK0	0.000	
40	   H	-2.003	-4.329	0.671	 H	1	UNK0	0.000	
@<TRIPOS>BOND
1 1 2 2
2 1 3 2
3 1 4 1
4 1 19 1
5 4 5 1
6 4 9 1
7 5 6 1
8 6 7 1
9 7 8 1
10 7 10 1
11 8 9 1
12 10 11 2
13 10 18 1
14 11 12 1
15 12 13 1
16 12 16 1
17 13 14 2
18 13 17 1
19 14 15 1
20 15 16 2
21 17 18 2
22 19 20 2
23 19 24 1
24 20 21 1
25 21 22 2
26 22 23 1
27 22 25 1
28 23 24 2
29 5 26 1
30 5 27 1
31 6 28 1
32 6 29 1
33 8 30 1
34 8 31 1
35 9 32 1
36 9 33 1
37 16 34 1
38 17 35 1
39 18 36 1
40 20 37 1
41 21 38 1
42 23 39 1
43 24 40 1
@<TRIPOS>SUBSTRUCTURE
1	UNK0	1	GROUP	1 ****	UNK
