# created with PyMOL 2.3.2
@<TRIPOS>MOLECULE
1103
44 47 1                 
SMALL
USER_CHARGES
@<TRIPOS>ATOM
1	   S	1.344	-0.040	-2.795	S.O2	1	UNK0	0.000	
2	   O	2.762	-0.393	-3.288	O.2	1	UNK0	0.000	
3	   O	0.769	0.713	-4.027	O.2	1	UNK0	0.000	
4	   N	1.399	0.955	-1.490	N.3	1	UNK0	0.000	
5	   C	0.311	1.543	-0.887	C.3	1	UNK0	0.000	
6	   C	0.864	2.570	0.167	C.3	1	UNK0	0.000	
7	   N	1.545	1.785	1.131	N.3	1	UNK0	0.000	
8	   C	2.530	0.879	0.682	C.3	1	UNK0	0.000	
9	   C	2.652	0.992	-0.827	C.3	1	UNK0	0.000	
10	   C	1.658	2.267	2.446	C.3	1	UNK0	0.000	
11	   C	2.964	2.024	3.145	C.3	1	UNK0	0.000	
12	   O	2.902	2.840	4.273	O.3	1	UNK0	0.000	
13	   C	2.249	3.988	3.928	C.3	1	UNK0	0.000	
14	   C	1.564	3.781	2.596	C.3	1	UNK0	0.000	
15	   C	0.488	-1.555	-2.655	C.2	1	UNK0	0.000	
16	   C	-0.208	-1.991	-1.568	C.2	1	UNK0	0.000	
17	   C	-0.862	-3.230	-1.539	C.2	1	UNK0	0.000	
18	   N	-1.593	-3.879	-0.614	N.2	1	UNK0	0.000	
19	   C	-2.012	-5.086	-1.083	C.2	1	UNK0	0.000	
20	   N	-1.527	-5.189	-2.337	N.pl3	1	UNK0	0.000	
21	   C	-0.825	-4.058	-2.617	C.2	1	UNK0	0.000	
22	   C	-0.130	-3.652	-3.738	C.2	1	UNK0	0.000	
23	   C	0.508	-2.440	-3.764	C.2	1	UNK0	0.000	
24	  Br	1.471	-1.889	-5.323	Br	1	UNK0	0.000	
25	   O	-2.782	-6.045	-0.442	O.3	1	UNK0	0.000	
26	   H	-0.295	0.859	-0.274	 H	1	UNK0	0.000	
27	   H	-0.403	2.091	-1.547	 H	1	UNK0	0.000	
28	   H	-0.006	3.061	0.596	 H	1	UNK0	0.000	
29	   H	1.460	3.308	-0.380	 H	1	UNK0	0.000	
30	   H	2.168	-0.161	0.898	 H	1	UNK0	0.000	
31	   H	3.553	1.015	1.068	 H	1	UNK0	0.000	
32	   H	3.230	0.086	-1.168	 H	1	UNK0	0.000	
33	   H	3.260	1.909	-1.097	 H	1	UNK0	0.000	
34	   H	0.855	1.820	3.071	 H	1	UNK0	0.000	
35	   H	3.862	2.280	2.597	 H	1	UNK0	0.000	
36	   H	3.030	0.969	3.542	 H	1	UNK0	0.000	
37	   H	1.490	4.201	4.706	 H	1	UNK0	0.000	
38	   H	2.890	4.886	3.869	 H	1	UNK0	0.000	
39	   H	2.176	4.220	1.773	 H	1	UNK0	0.000	
40	   H	0.515	4.100	2.606	 H	1	UNK0	0.000	
41	   H	-0.283	-1.393	-0.676	 H	1	UNK0	0.000	
42	   H	-1.654	-5.985	-2.992	 H	1	UNK0	0.000	
43	   H	-0.089	-4.325	-4.615	 H	1	UNK0	0.000	
44	   H	-2.660	-6.172	0.552	 H	1	UNK0	0.000	
@<TRIPOS>BOND
1 1 2 2
2 1 3 2
3 1 4 1
4 1 15 1
5 4 5 1
6 4 9 1
7 5 6 1
8 6 7 1
9 7 8 1
10 7 10 1
11 8 9 1
12 10 11 1
13 10 14 1
14 11 12 1
15 12 13 1
16 13 14 1
17 15 16 2
18 15 23 1
19 16 17 1
20 17 18 1
21 17 21 2
22 18 19 2
23 19 20 1
24 19 25 1
25 20 21 1
26 21 22 1
27 22 23 2
28 23 24 1
29 5 26 1
30 5 27 1
31 6 28 1
32 6 29 1
33 8 30 1
34 8 31 1
35 9 32 1
36 9 33 1
37 10 34 1
38 11 35 1
39 11 36 1
40 13 37 1
41 13 38 1
42 14 39 1
43 14 40 1
44 16 41 1
45 20 42 1
46 22 43 1
47 25 44 1
@<TRIPOS>SUBSTRUCTURE
1	UNK0	1	GROUP	1 ****	UNK
