# created with PyMOL 2.3.2
@<TRIPOS>MOLECULE
1104
48 51 1                 
SMALL
USER_CHARGES
@<TRIPOS>ATOM
1	   S	2.144	1.061	-4.962	S.O2	1	UNK0	0.000	
2	   O	1.827	2.408	-5.543	O.2	1	UNK0	0.000	
3	   O	1.706	0.036	-5.964	O.2	1	UNK0	0.000	
4	   N	3.838	0.887	-4.663	N.3	1	UNK0	0.000	
5	   C	4.057	-0.469	-4.213	C.3	1	UNK0	0.000	
6	   C	5.494	-0.812	-4.036	C.3	1	UNK0	0.000	
7	   N	6.413	0.211	-4.458	N.pl3	1	UNK0	0.000	
8	   C	6.042	1.030	-5.559	C.2	1	UNK0	0.000	
9	   O	6.944	1.561	-6.267	O.2	1	UNK0	0.000	
10	   C	4.607	1.224	-5.826	C.3	1	UNK0	0.000	
11	   C	1.284	0.791	-3.463	C.2	1	UNK0	0.000	
12	   C	0.991	1.814	-2.587	C.2	1	UNK0	0.000	
13	   C	0.314	1.611	-1.403	C.2	1	UNK0	0.000	
14	   C	-0.105	0.352	-1.039	C.2	1	UNK0	0.000	
15	   C	0.182	-0.688	-1.910	C.2	1	UNK0	0.000	
16	   C	0.856	-0.463	-3.081	C.2	1	UNK0	0.000	
17	   C	-0.827	0.084	0.222	C.2	1	UNK0	0.000	
18	   O	-1.323	-1.049	0.321	O.2	1	UNK0	0.000	
19	   N	-0.949	1.035	1.240	N.pl3	1	UNK0	0.000	
20	   C	-1.597	0.931	2.480	C.2	1	UNK0	0.000	
21	   C	-2.232	-0.219	2.854	C.2	1	UNK0	0.000	
22	   C	-2.857	-0.250	4.105	C.2	1	UNK0	0.000	
23	   C	-2.872	0.797	4.981	C.2	1	UNK0	0.000	
24	   C	-2.231	1.950	4.598	C.2	1	UNK0	0.000	
25	   C	-1.606	2.014	3.372	C.2	1	UNK0	0.000	
26	  Br	-0.735	3.630	2.891	Br	1	UNK0	0.000	
27	   O	-3.521	0.678	6.214	O.3	1	UNK0	0.000	
28	   C	-3.526	-0.631	6.798	C.3	1	UNK0	0.000	
29	   C	-3.910	-1.685	5.817	C.3	1	UNK0	0.000	
30	   O	-3.502	-1.413	4.489	O.3	1	UNK0	0.000	
31	   H	3.547	-0.558	-3.224	 H	1	UNK0	0.000	
32	   H	3.548	-1.178	-4.913	 H	1	UNK0	0.000	
33	   H	5.693	-1.772	-4.598	 H	1	UNK0	0.000	
34	   H	5.726	-1.069	-2.976	 H	1	UNK0	0.000	
35	   H	7.335	0.340	-3.957	 H	1	UNK0	0.000	
36	   H	4.252	0.750	-6.756	 H	1	UNK0	0.000	
37	   H	4.466	2.332	-5.986	 H	1	UNK0	0.000	
38	   H	1.329	2.813	-2.885	 H	1	UNK0	0.000	
39	   H	0.108	2.470	-0.749	 H	1	UNK0	0.000	
40	   H	-0.126	-1.685	-1.666	 H	1	UNK0	0.000	
41	   H	1.084	-1.290	-3.772	 H	1	UNK0	0.000	
42	   H	-0.482	1.994	1.070	 H	1	UNK0	0.000	
43	   H	-2.295	-1.122	2.253	 H	1	UNK0	0.000	
44	   H	-2.237	2.791	5.290	 H	1	UNK0	0.000	
45	   H	-4.241	-0.673	7.652	 H	1	UNK0	0.000	
46	   H	-2.517	-0.857	7.237	 H	1	UNK0	0.000	
47	   H	-4.983	-1.974	5.884	 H	1	UNK0	0.000	
48	   H	-3.351	-2.623	6.108	 H	1	UNK0	0.000	
@<TRIPOS>BOND
1 1 2 2
2 1 3 2
3 1 4 1
4 1 11 1
5 4 5 1
6 4 10 1
7 5 6 1
8 6 7 1
9 7 8 1
10 8 9 2
11 8 10 1
12 11 12 2
13 11 16 1
14 12 13 1
15 13 14 2
16 14 15 1
17 14 17 1
18 15 16 2
19 17 18 2
20 17 19 1
21 19 20 1
22 20 21 2
23 20 25 1
24 21 22 1
25 22 23 2
26 22 30 1
27 23 24 1
28 23 27 1
29 24 25 2
30 25 26 1
31 27 28 1
32 28 29 1
33 29 30 1
34 5 31 1
35 5 32 1
36 6 33 1
37 6 34 1
38 7 35 1
39 10 36 1
40 10 37 1
41 12 38 1
42 13 39 1
43 15 40 1
44 16 41 1
45 19 42 1
46 21 43 1
47 24 44 1
48 28 45 1
49 28 46 1
50 29 47 1
51 29 48 1
@<TRIPOS>SUBSTRUCTURE
1	UNK0	1	GROUP	1 ****	UNK
