# created with PyMOL 2.3.2
@<TRIPOS>MOLECULE
1106
56 59 1                 
SMALL
USER_CHARGES
@<TRIPOS>ATOM
1	   S	-0.505	5.160	0.580	S.O2	1	UNK0	0.000	
2	   O	-1.621	4.938	1.645	O.2	1	UNK0	0.000	
3	   O	-1.168	6.203	-0.375	O.2	1	UNK0	0.000	
4	   N	-0.287	3.791	-0.252	N.3	1	UNK0	0.000	
5	   C	-1.060	2.640	0.131	C.3	1	UNK0	0.000	
6	   C	-1.449	1.981	-1.214	C.3	1	UNK0	0.000	
7	   N	-0.271	1.290	-1.696	N.4	1	UNK0	0.000	
8	   C	0.828	2.243	-1.824	C.3	1	UNK0	0.000	
9	   C	0.925	3.368	-0.830	C.3	1	UNK0	0.000	
10	   C	0.023	0.197	-0.827	C.3	1	UNK0	0.000	
11	   C	0.058	-1.089	-1.551	C.2	1	UNK0	0.000	
12	   O	-0.123	-1.199	-2.764	O.2	1	UNK0	0.000	
13	   N	0.334	-2.263	-0.702	N.pl3	1	UNK0	0.000	
14	   N	0.550	-3.276	-0.162	N.2	1	UNK0	0.000	
15	   C	0.297	-4.398	0.139	C.2	1	UNK0	0.000	
16	   C	-0.891	-5.124	-0.279	C.2	1	UNK0	0.000	
17	   C	-0.958	-6.393	0.160	C.2	1	UNK0	0.000	
18	   C	-1.959	-7.239	-0.408	C.2	1	UNK0	0.000	
19	   C	-2.821	-6.792	-1.356	C.2	1	UNK0	0.000	
20	   C	-2.753	-5.496	-1.801	C.2	1	UNK0	0.000	
21	   C	-1.787	-4.712	-1.233	C.2	1	UNK0	0.000	
22	   O	-1.792	-3.393	-1.749	O.2	1	UNK0	0.000	
23	   C	-1.995	-8.613	-0.015	C.2	1	UNK0	0.000	
24	   C	-1.121	-9.078	0.857	C.2	1	UNK0	0.000	
25	   C	-0.114	-8.241	1.449	C.2	1	UNK0	0.000	
26	   C	-0.110	-7.028	1.080	C.2	1	UNK0	0.000	
27	   C	0.817	5.927	1.393	C.2	1	UNK0	0.000	
28	   C	1.609	6.814	0.687	C.2	1	UNK0	0.000	
29	   C	2.566	7.651	1.301	C.2	1	UNK0	0.000	
30	   C	2.734	7.608	2.621	C.2	1	UNK0	0.000	
31	   C	2.004	6.736	3.395	C.2	1	UNK0	0.000	
32	   C	1.048	5.905	2.779	C.2	1	UNK0	0.000	
33	  Br	3.951	8.854	3.522	Br	1	UNK0	0.000	
34	   H	-1.923	2.915	0.697	 H	1	UNK0	0.000	
35	   H	-0.351	1.914	0.625	 H	1	UNK0	0.000	
36	   H	-2.356	1.359	-1.137	 H	1	UNK0	0.000	
37	   H	-1.755	2.791	-1.957	 H	1	UNK0	0.000	
38	   H	-0.525	1.015	-2.697	 H	1	UNK0	0.000	
39	   H	1.792	1.666	-1.737	 H	1	UNK0	0.000	
40	   H	0.779	2.691	-2.856	 H	1	UNK0	0.000	
41	   H	1.656	3.116	-0.027	 H	1	UNK0	0.000	
42	   H	1.385	4.235	-1.434	 H	1	UNK0	0.000	
43	   H	1.217	0.380	-0.691	 H	1	UNK0	0.000	
44	   H	-0.279	0.131	0.156	 H	1	UNK0	0.000	
45	   H	0.748	-2.843	-1.931	 H	1	UNK0	0.000	
46	   H	1.044	-4.963	0.817	 H	1	UNK0	0.000	
47	   H	-3.577	-7.490	-1.750	 H	1	UNK0	0.000	
48	   H	-3.388	-5.118	-2.563	 H	1	UNK0	0.000	
49	   H	-2.726	-9.198	-0.515	 H	1	UNK0	0.000	
50	   H	-1.078	-10.127	1.167	 H	1	UNK0	0.000	
51	   H	0.505	-8.805	2.123	 H	1	UNK0	0.000	
52	   H	0.564	-6.307	1.581	 H	1	UNK0	0.000	
53	   H	1.547	6.852	-0.414	 H	1	UNK0	0.000	
54	   H	3.189	8.328	0.652	 H	1	UNK0	0.000	
55	   H	2.164	6.727	4.456	 H	1	UNK0	0.000	
56	   H	0.426	5.204	3.365	 H	1	UNK0	0.000	
@<TRIPOS>BOND
1 1 2 2
2 1 3 2
3 1 4 1
4 1 27 1
5 4 5 1
6 4 9 1
7 5 6 1
8 6 7 1
9 7 8 1
10 7 10 1
11 8 9 1
12 10 11 1
13 11 12 2
14 11 13 1
15 13 14 1
16 14 15 2
17 15 16 1
18 16 17 2
19 16 21 1
20 17 18 1
21 17 26 1
22 18 19 2
23 18 23 1
24 19 20 1
25 20 21 2
26 21 22 1
27 23 24 2
28 24 25 1
29 25 26 2
30 27 28 2
31 27 32 1
32 28 29 1
33 29 30 2
34 30 31 1
35 30 33 1
36 31 32 2
37 5 34 1
38 5 35 1
39 6 36 1
40 6 37 1
41 7 38 1
42 8 39 1
43 8 40 1
44 9 41 1
45 9 42 1
46 10 43 1
47 10 44 1
48 13 45 1
49 15 46 1
50 19 47 1
51 20 48 1
52 23 49 1
53 24 50 1
54 25 51 1
55 26 52 1
56 28 53 1
57 29 54 1
58 31 55 1
59 32 56 1
@<TRIPOS>SUBSTRUCTURE
1	UNK0	1	GROUP	1 ****	UNK
