# created with PyMOL 2.3.2
@<TRIPOS>MOLECULE
1111
52 55 1                 
SMALL
USER_CHARGES
@<TRIPOS>ATOM
1	   S	3.931	-4.337	0.992	S.O2	1	UNK0	0.000	
2	   O	4.906	-4.330	-0.144	O.2	1	UNK0	0.000	
3	   O	3.379	-5.724	1.149	O.2	1	UNK0	0.000	
4	   N	4.752	-3.915	2.426	N.3	1	UNK0	0.000	
5	   C	3.939	-3.963	3.604	C.3	1	UNK0	0.000	
6	   C	4.660	-3.158	4.682	C.3	1	UNK0	0.000	
7	   O	4.640	-1.793	4.397	O.3	1	UNK0	0.000	
8	   C	4.806	-1.538	3.054	C.3	1	UNK0	0.000	
9	   C	5.475	-2.685	2.335	C.3	1	UNK0	0.000	
10	   C	2.604	-3.233	0.666	C.2	1	UNK0	0.000	
11	   C	1.328	-3.444	1.135	C.2	1	UNK0	0.000	
12	   C	0.330	-2.537	0.843	C.2	1	UNK0	0.000	
13	   C	0.553	-1.400	0.084	C.2	1	UNK0	0.000	
14	   C	1.828	-1.192	-0.384	C.2	1	UNK0	0.000	
15	   C	2.819	-2.104	-0.086	C.2	1	UNK0	0.000	
16	   C	-0.514	-0.457	-0.213	C.2	1	UNK0	0.000	
17	   O	-1.671	-0.737	0.264	O.2	1	UNK0	0.000	
18	   N	-0.376	0.717	-0.967	N.pl3	1	UNK0	0.000	
19	   C	-1.452	1.609	-1.230	C.2	1	UNK0	0.000	
20	   C	-1.310	2.698	-1.934	C.2	1	UNK0	0.000	
21	   N	-0.067	3.114	-2.516	N.pl3	1	UNK0	0.000	
22	   N	-0.287	4.310	-3.191	N.pl3	1	UNK0	0.000	
23	   C	-1.650	4.648	-3.039	C.2	1	UNK0	0.000	
24	   S	-2.301	6.007	-3.700	S.2	1	UNK0	0.000	
25	   N	-2.319	3.657	-2.256	N.pl3	1	UNK0	0.000	
26	   C	-3.676	3.655	-1.897	C.2	1	UNK0	0.000	
27	   C	-4.575	3.022	-2.764	C.2	1	UNK0	0.000	
28	   C	-5.926	2.966	-2.501	C.2	1	UNK0	0.000	
29	   C	-6.437	3.544	-1.355	C.2	1	UNK0	0.000	
30	   C	-5.549	4.167	-0.504	C.2	1	UNK0	0.000	
31	   C	-4.199	4.217	-0.775	C.2	1	UNK0	0.000	
32	  Br	-8.284	3.520	-0.905	Br	1	UNK0	0.000	
33	   H	2.954	-3.486	3.400	 H	1	UNK0	0.000	
34	   H	3.866	-4.998	3.955	 H	1	UNK0	0.000	
35	   H	5.715	-3.464	4.722	 H	1	UNK0	0.000	
36	   H	4.189	-3.379	5.645	 H	1	UNK0	0.000	
37	   H	3.869	-1.209	2.577	 H	1	UNK0	0.000	
38	   H	5.520	-0.667	2.970	 H	1	UNK0	0.000	
39	   H	6.481	-2.809	2.810	 H	1	UNK0	0.000	
40	   H	5.681	-2.358	1.290	 H	1	UNK0	0.000	
41	   H	1.120	-4.331	1.737	 H	1	UNK0	0.000	
42	   H	-0.684	-2.720	1.226	 H	1	UNK0	0.000	
43	   H	2.065	-0.306	-0.993	 H	1	UNK0	0.000	
44	   H	3.833	-1.902	-0.481	 H	1	UNK0	0.000	
45	   H	0.554	0.960	-1.361	 H	1	UNK0	0.000	
46	   H	-2.451	1.389	-0.833	 H	1	UNK0	0.000	
47	   H	0.857	2.635	-2.467	 H	1	UNK0	0.000	
48	   H	0.470	4.842	-3.716	 H	1	UNK0	0.000	
49	   H	-4.219	2.558	-3.670	 H	1	UNK0	0.000	
50	   H	-6.632	2.480	-3.162	 H	1	UNK0	0.000	
51	   H	-5.959	4.615	0.389	 H	1	UNK0	0.000	
52	   H	-3.559	4.715	-0.076	 H	1	UNK0	0.000	
@<TRIPOS>BOND
1 1 2 2
2 1 3 2
3 1 4 1
4 1 10 1
5 4 5 1
6 4 9 1
7 5 6 1
8 6 7 1
9 7 8 1
10 8 9 1
11 10 11 2
12 10 15 1
13 11 12 1
14 12 13 2
15 13 14 1
16 13 16 1
17 14 15 2
18 16 17 2
19 16 18 1
20 18 19 1
21 19 20 2
22 20 21 1
23 20 25 1
24 21 22 1
25 22 23 1
26 23 24 2
27 23 25 1
28 25 26 1
29 26 27 2
30 26 31 1
31 27 28 1
32 28 29 2
33 29 30 1
34 29 32 1
35 30 31 2
36 5 33 1
37 5 34 1
38 6 35 1
39 6 36 1
40 8 37 1
41 8 38 1
42 9 39 1
43 9 40 1
44 11 41 1
45 12 42 1
46 14 43 1
47 15 44 1
48 18 45 1
49 19 46 1
50 21 47 1
51 22 48 1
52 27 49 1
53 28 50 1
54 30 51 1
55 31 52 1
@<TRIPOS>SUBSTRUCTURE
1	UNK0	1	GROUP	1 ****	UNK
