# created with PyMOL 2.3.2
@<TRIPOS>MOLECULE
1112
51 54 1                 
SMALL
USER_CHARGES
@<TRIPOS>ATOM
1	   S	0.052	-3.647	3.487	S.O2	1	UNK0	0.000	
2	   O	-0.914	-4.601	4.101	O.2	1	UNK0	0.000	
3	   O	1.281	-4.443	3.097	O.2	1	UNK0	0.000	
4	   N	0.550	-2.449	4.598	N.3	1	UNK0	0.000	
5	   C	-0.521	-1.585	5.020	C.3	1	UNK0	0.000	
6	   C	0.135	-0.324	5.590	C.3	1	UNK0	0.000	
7	   O	0.634	0.462	4.574	O.3	1	UNK0	0.000	
8	   C	0.910	-0.352	3.461	C.3	1	UNK0	0.000	
9	   C	1.572	-1.613	3.996	C.3	1	UNK0	0.000	
10	   C	-0.580	-2.958	1.999	C.2	1	UNK0	0.000	
11	   C	-1.899	-2.651	1.829	C.2	1	UNK0	0.000	
12	   C	-2.372	-2.106	0.639	C.2	1	UNK0	0.000	
13	   C	-1.536	-1.856	-0.408	C.2	1	UNK0	0.000	
14	   C	-0.197	-2.165	-0.244	C.2	1	UNK0	0.000	
15	   C	0.271	-2.707	0.939	C.2	1	UNK0	0.000	
16	   C	-1.957	-1.275	-1.706	C.3	1	UNK0	0.000	
17	   O	-1.657	0.100	-1.797	O.3	1	UNK0	0.000	
18	   C	-2.140	1.070	-0.953	C.2	1	UNK0	0.000	
19	   O	-2.906	0.744	-0.025	O.co2	1	UNK0	0.000	
20	   C	-1.770	2.472	-1.129	C.3	1	UNK0	0.000	
21	   N	-0.885	2.701	-2.233	N.pl3	1	UNK0	0.000	
22	   C	-1.347	2.984	-3.560	C.2	1	UNK0	0.000	
23	   O	-2.556	3.067	-3.920	O.2	1	UNK0	0.000	
24	   C	-0.196	3.164	-4.437	C.2	1	UNK0	0.000	
25	   C	0.947	3.001	-3.699	C.2	1	UNK0	0.000	
26	   C	2.189	3.120	-4.293	C.2	1	UNK0	0.000	
27	   C	2.308	3.405	-5.640	C.2	1	UNK0	0.000	
28	   C	1.166	3.571	-6.395	C.2	1	UNK0	0.000	
29	   C	-0.061	3.446	-5.777	C.2	1	UNK0	0.000	
30	  Br	1.279	3.964	-8.257	Br	1	UNK0	0.000	
31	   C	0.530	2.711	-2.316	C.2	1	UNK0	0.000	
32	   O	1.285	2.501	-1.341	O.2	1	UNK0	0.000	
33	   H	-1.038	-2.091	5.862	 H	1	UNK0	0.000	
34	   H	-1.254	-1.358	4.247	 H	1	UNK0	0.000	
35	   H	0.930	-0.669	6.295	 H	1	UNK0	0.000	
36	   H	-0.573	0.270	6.192	 H	1	UNK0	0.000	
37	   H	0.017	-0.556	2.868	 H	1	UNK0	0.000	
38	   H	1.603	0.232	2.825	 H	1	UNK0	0.000	
39	   H	2.056	-2.205	3.206	 H	1	UNK0	0.000	
40	   H	2.326	-1.268	4.738	 H	1	UNK0	0.000	
41	   H	-2.579	-2.845	2.656	 H	1	UNK0	0.000	
42	   H	-3.421	-1.880	0.544	 H	1	UNK0	0.000	
43	   H	0.483	-1.975	-1.062	 H	1	UNK0	0.000	
44	   H	1.331	-2.940	1.040	 H	1	UNK0	0.000	
45	   H	-1.448	-1.786	-2.549	 H	1	UNK0	0.000	
46	   H	-3.062	-1.439	-1.809	 H	1	UNK0	0.000	
47	   H	-2.682	3.125	-1.265	 H	1	UNK0	0.000	
48	   H	-1.263	2.901	-0.215	 H	1	UNK0	0.000	
49	   H	3.076	2.986	-3.682	 H	1	UNK0	0.000	
50	   H	3.303	3.497	-6.104	 H	1	UNK0	0.000	
51	   H	-0.983	3.571	-6.345	 H	1	UNK0	0.000	
@<TRIPOS>BOND
1 1 2 2
2 1 3 2
3 1 4 1
4 1 10 1
5 4 5 1
6 4 9 1
7 5 6 1
8 6 7 1
9 7 8 1
10 8 9 1
11 10 11 2
12 10 15 1
13 11 12 1
14 12 13 2
15 13 14 1
16 13 16 1
17 14 15 2
18 16 17 1
19 17 18 1
20 18 19 2
21 18 20 1
22 20 21 1
23 21 22 1
24 21 31 1
25 22 23 2
26 22 24 1
27 24 25 2
28 24 29 1
29 25 26 1
30 25 31 1
31 26 27 2
32 27 28 1
33 28 29 2
34 28 30 1
35 31 32 2
36 5 33 1
37 5 34 1
38 6 35 1
39 6 36 1
40 8 37 1
41 8 38 1
42 9 39 1
43 9 40 1
44 11 41 1
45 12 42 1
46 14 43 1
47 15 44 1
48 16 45 1
49 16 46 1
50 20 47 1
51 20 48 1
52 26 49 1
53 27 50 1
54 29 51 1
@<TRIPOS>SUBSTRUCTURE
1	UNK0	1	GROUP	1 ****	UNK
