# created with PyMOL 2.3.2
@<TRIPOS>MOLECULE
1115
43 46 1                 
SMALL
USER_CHARGES
@<TRIPOS>ATOM
1	   S	-3.800	2.152	1.278	S.O2	1	UNK0	0.000	
2	   O	-3.465	3.594	1.247	O.2	1	UNK0	0.000	
3	   O	-5.289	2.005	1.117	O.2	1	UNK0	0.000	
4	   N	-3.371	1.384	2.762	N.3	1	UNK0	0.000	
5	   C	-1.968	1.397	3.025	C.3	1	UNK0	0.000	
6	   C	-1.709	1.115	4.472	C.3	1	UNK0	0.000	
7	   O	-2.317	1.995	5.331	O.3	1	UNK0	0.000	
8	   C	-3.420	2.638	4.818	C.3	1	UNK0	0.000	
9	   C	-4.205	1.772	3.851	C.3	1	UNK0	0.000	
10	   C	-3.047	1.315	-0.081	C.2	1	UNK0	0.000	
11	   N	-3.211	0.032	-0.448	N.2	1	UNK0	0.000	
12	   C	-2.451	-0.206	-1.545	C.2	1	UNK0	0.000	
13	   N	-1.792	0.911	-1.900	N.pl3	1	UNK0	0.000	
14	   C	-2.161	1.840	-0.999	C.2	1	UNK0	0.000	
15	   C	-0.878	1.072	-3.018	C.3	1	UNK0	0.000	
16	   C	0.518	0.764	-2.615	C.2	1	UNK0	0.000	
17	   N	1.403	1.651	-2.127	N.2	1	UNK0	0.000	
18	   O	2.542	1.031	-1.878	O.3	1	UNK0	0.000	
19	   C	2.439	-0.231	-2.184	C.2	1	UNK0	0.000	
20	   N	1.192	-0.410	-2.641	N.2	1	UNK0	0.000	
21	   C	3.510	-1.233	-2.039	C.2	1	UNK0	0.000	
22	   C	4.744	-0.889	-1.551	C.2	1	UNK0	0.000	
23	   C	5.730	-1.839	-1.424	C.2	1	UNK0	0.000	
24	   C	5.532	-3.156	-1.774	C.2	1	UNK0	0.000	
25	   C	4.281	-3.499	-2.268	C.2	1	UNK0	0.000	
26	   C	3.287	-2.553	-2.398	C.2	1	UNK0	0.000	
27	  Br	6.933	-4.435	-1.578	Br	1	UNK0	0.000	
28	   H	-1.471	2.349	2.764	 H	1	UNK0	0.000	
29	   H	-1.514	0.551	2.442	 H	1	UNK0	0.000	
30	   H	-0.606	1.135	4.680	 H	1	UNK0	0.000	
31	   H	-2.058	0.084	4.694	 H	1	UNK0	0.000	
32	   H	-4.083	2.921	5.642	 H	1	UNK0	0.000	
33	   H	-3.104	3.552	4.256	 H	1	UNK0	0.000	
34	   H	-4.557	0.881	4.405	 H	1	UNK0	0.000	
35	   H	-5.049	2.379	3.488	 H	1	UNK0	0.000	
36	   H	-2.374	-1.149	-2.071	 H	1	UNK0	0.000	
37	   H	-1.813	2.860	-0.992	 H	1	UNK0	0.000	
38	   H	-0.877	2.133	-3.382	 H	1	UNK0	0.000	
39	   H	-1.170	0.401	-3.855	 H	1	UNK0	0.000	
40	   H	4.908	0.158	-1.271	 H	1	UNK0	0.000	
41	   H	6.700	-1.540	-1.034	 H	1	UNK0	0.000	
42	   H	4.136	-4.532	-2.539	 H	1	UNK0	0.000	
43	   H	2.313	-2.835	-2.786	 H	1	UNK0	0.000	
@<TRIPOS>BOND
1 1 2 2
2 1 3 2
3 1 4 1
4 1 10 1
5 4 5 1
6 4 9 1
7 5 6 1
8 6 7 1
9 7 8 1
10 8 9 1
11 10 11 1
12 10 14 2
13 11 12 2
14 12 13 1
15 13 14 1
16 13 15 1
17 15 16 1
18 16 17 2
19 16 20 1
20 17 18 1
21 18 19 1
22 19 20 2
23 19 21 1
24 21 22 2
25 21 26 1
26 22 23 1
27 23 24 2
28 24 25 1
29 24 27 1
30 25 26 2
31 5 28 1
32 5 29 1
33 6 30 1
34 6 31 1
35 8 32 1
36 8 33 1
37 9 34 1
38 9 35 1
39 12 36 1
40 14 37 1
41 15 38 1
42 15 39 1
43 22 40 1
44 23 41 1
45 25 42 1
46 26 43 1
@<TRIPOS>SUBSTRUCTURE
1	UNK0	1	GROUP	1 ****	UNK
