# created with PyMOL 2.3.2
@<TRIPOS>MOLECULE
1116
46 49 1                 
SMALL
USER_CHARGES
@<TRIPOS>ATOM
1	   S	-2.776	0.578	-0.423	S.O2	1	UNK0	0.000	
2	   O	-3.856	1.477	0.199	O.2	1	UNK0	0.000	
3	   O	-3.234	-0.825	-0.056	O.2	1	UNK0	0.000	
4	   N	-2.622	0.798	-2.054	N.3	1	UNK0	0.000	
5	   C	-1.702	0.105	-2.840	C.3	1	UNK0	0.000	
6	   C	-2.323	-0.118	-4.215	C.3	1	UNK0	0.000	
7	   O	-3.144	0.882	-4.634	O.3	1	UNK0	0.000	
8	   C	-3.024	2.113	-4.066	C.3	1	UNK0	0.000	
9	   C	-2.908	2.086	-2.551	C.3	1	UNK0	0.000	
10	   N	-1.333	0.974	0.442	N.3	1	UNK0	0.000	
11	   C	-0.271	0.132	0.037	C.3	1	UNK0	0.000	
12	   C	0.955	0.303	0.958	C.3	1	UNK0	0.000	
13	   N	0.576	-0.103	2.299	N.pl3	1	UNK0	0.000	
14	   C	-0.668	0.259	2.697	C.2	1	UNK0	0.000	
15	   N	-0.803	-0.213	3.934	N.2	1	UNK0	0.000	
16	   N	0.317	-0.838	4.278	N.2	1	UNK0	0.000	
17	   C	1.195	-0.776	3.255	C.2	1	UNK0	0.000	
18	   C	2.538	-1.375	3.312	C.3	1	UNK0	0.000	
19	   C	2.578	-2.801	2.902	C.2	1	UNK0	0.000	
20	   C	2.376	-3.820	3.793	C.2	1	UNK0	0.000	
21	   C	2.428	-5.121	3.361	C.2	1	UNK0	0.000	
22	   C	2.681	-5.437	2.042	C.2	1	UNK0	0.000	
23	   C	2.880	-4.397	1.167	C.2	1	UNK0	0.000	
24	   C	2.831	-3.087	1.583	C.2	1	UNK0	0.000	
25	  Br	2.151	-6.582	4.593	Br	1	UNK0	0.000	
26	   C	-1.571	1.021	1.834	C.3	1	UNK0	0.000	
27	   H	-0.840	0.814	-3.066	 H	1	UNK0	0.000	
28	   H	-1.335	-0.861	-2.487	 H	1	UNK0	0.000	
29	   H	-1.497	-0.377	-4.899	 H	1	UNK0	0.000	
30	   H	-2.941	-1.055	-4.099	 H	1	UNK0	0.000	
31	   H	-3.991	2.663	-4.274	 H	1	UNK0	0.000	
32	   H	-2.239	2.730	-4.547	 H	1	UNK0	0.000	
33	   H	-3.764	2.525	-2.034	 H	1	UNK0	0.000	
34	   H	-2.025	2.746	-2.302	 H	1	UNK0	0.000	
35	   H	0.063	0.370	-0.978	 H	1	UNK0	0.000	
36	   H	-0.630	-0.921	0.111	 H	1	UNK0	0.000	
37	   H	1.156	1.395	1.001	 H	1	UNK0	0.000	
38	   H	1.752	-0.292	0.519	 H	1	UNK0	0.000	
39	   H	2.924	-1.336	4.365	 H	1	UNK0	0.000	
40	   H	3.229	-0.783	2.682	 H	1	UNK0	0.000	
41	   H	2.179	-3.616	4.819	 H	1	UNK0	0.000	
42	   H	2.719	-6.481	1.716	 H	1	UNK0	0.000	
43	   H	3.079	-4.625	0.129	 H	1	UNK0	0.000	
44	   H	3.001	-2.302	0.837	 H	1	UNK0	0.000	
45	   H	-1.558	2.089	2.214	 H	1	UNK0	0.000	
46	   H	-2.632	0.701	2.074	 H	1	UNK0	0.000	
@<TRIPOS>BOND
1 1 2 2
2 1 3 2
3 1 4 1
4 1 10 1
5 4 5 1
6 4 9 1
7 5 6 1
8 6 7 1
9 7 8 1
10 8 9 1
11 10 11 1
12 10 26 1
13 11 12 1
14 12 13 1
15 13 14 1
16 13 17 1
17 14 15 2
18 14 26 1
19 15 16 1
20 16 17 2
21 17 18 1
22 18 19 1
23 19 20 2
24 19 24 1
25 20 21 1
26 21 22 2
27 21 25 1
28 22 23 1
29 23 24 2
30 5 27 1
31 5 28 1
32 6 29 1
33 6 30 1
34 8 31 1
35 8 32 1
36 9 33 1
37 9 34 1
38 11 35 1
39 11 36 1
40 12 37 1
41 12 38 1
42 18 39 1
43 18 40 1
44 20 41 1
45 22 42 1
46 23 43 1
47 24 44 1
48 26 45 1
49 26 46 1
@<TRIPOS>SUBSTRUCTURE
1	UNK0	1	GROUP	1 ****	UNK
