# created with PyMOL 2.3.2
@<TRIPOS>MOLECULE
1117
39 42 1                 
SMALL
USER_CHARGES
@<TRIPOS>ATOM
1	   S	-3.537	-0.839	-1.522	S.O2	1	UNK0	0.000	
2	   O	-5.031	-0.773	-1.385	O.2	1	UNK0	0.000	
3	   O	-2.932	0.440	-1.091	O.2	1	UNK0	0.000	
4	   N	-2.910	-2.131	-0.592	N.3	1	UNK0	0.000	
5	   C	-1.503	-2.280	-0.664	C.3	1	UNK0	0.000	
6	   C	-0.946	-1.399	0.375	C.2	1	UNK0	0.000	
7	   N	0.283	-0.828	0.544	N.2	1	UNK0	0.000	
8	   C	0.548	-0.047	1.603	C.2	1	UNK0	0.000	
9	   N	-0.428	0.162	2.497	N.2	1	UNK0	0.000	
10	   C	-1.661	-0.379	2.375	C.2	1	UNK0	0.000	
11	   C	-1.944	-1.180	1.297	C.2	1	UNK0	0.000	
12	   C	-3.165	-1.933	0.833	C.3	1	UNK0	0.000	
13	   N	1.841	0.524	1.736	N.pl3	1	UNK0	0.000	
14	   C	2.872	0.276	0.747	C.3	1	UNK0	0.000	
15	   C	3.772	1.513	0.757	C.3	1	UNK0	0.000	
16	   O	4.389	1.673	1.971	O.3	1	UNK0	0.000	
17	   C	3.714	1.164	3.051	C.3	1	UNK0	0.000	
18	   C	2.207	1.379	2.852	C.3	1	UNK0	0.000	
19	   C	-3.203	-1.057	-3.239	C.2	1	UNK0	0.000	
20	   S	-3.672	-2.323	-4.283	S.3	1	UNK0	0.000	
21	   C	-2.957	-1.777	-5.730	C.2	1	UNK0	0.000	
22	   C	-2.366	-0.606	-5.348	C.2	1	UNK0	0.000	
23	   C	-2.490	-0.234	-4.069	C.2	1	UNK0	0.000	
24	  Br	-2.978	-2.596	-7.455	Br	1	UNK0	0.000	
25	   H	-1.258	-3.350	-0.408	 H	1	UNK0	0.000	
26	   H	-1.063	-2.087	-1.658	 H	1	UNK0	0.000	
27	   H	-2.445	-0.209	3.096	 H	1	UNK0	0.000	
28	   H	-4.064	-1.319	0.955	 H	1	UNK0	0.000	
29	   H	-3.248	-2.888	1.359	 H	1	UNK0	0.000	
30	   H	3.473	-0.627	0.968	 H	1	UNK0	0.000	
31	   H	2.407	0.184	-0.256	 H	1	UNK0	0.000	
32	   H	4.563	1.424	-0.039	 H	1	UNK0	0.000	
33	   H	3.160	2.390	0.502	 H	1	UNK0	0.000	
34	   H	3.847	0.058	3.126	 H	1	UNK0	0.000	
35	   H	4.019	1.697	3.963	 H	1	UNK0	0.000	
36	   H	2.104	2.456	2.577	 H	1	UNK0	0.000	
37	   H	1.643	1.137	3.774	 H	1	UNK0	0.000	
38	   H	-1.811	-0.015	-6.103	 H	1	UNK0	0.000	
39	   H	-2.046	0.703	-3.656	 H	1	UNK0	0.000	
@<TRIPOS>BOND
1 1 2 2
2 1 3 2
3 1 4 1
4 1 19 1
5 4 5 1
6 4 12 1
7 5 6 1
8 6 7 1
9 6 11 2
10 7 8 2
11 8 9 1
12 8 13 1
13 9 10 2
14 10 11 1
15 11 12 1
16 13 14 1
17 13 18 1
18 14 15 1
19 15 16 1
20 16 17 1
21 17 18 1
22 19 20 1
23 19 23 2
24 20 21 1
25 21 22 2
26 21 24 1
27 22 23 1
28 5 25 1
29 5 26 1
30 10 27 1
31 12 28 1
32 12 29 1
33 14 30 1
34 14 31 1
35 15 32 1
36 15 33 1
37 17 34 1
38 17 35 1
39 18 36 1
40 18 37 1
41 22 38 1
42 23 39 1
@<TRIPOS>SUBSTRUCTURE
1	UNK0	1	GROUP	1 ****	UNK
