# created with PyMOL 2.3.2
@<TRIPOS>MOLECULE
1118
43 46 1                 
SMALL
USER_CHARGES
@<TRIPOS>ATOM
1	   S	0.263	-3.709	-2.012	S.O2	1	UNK0	0.000	
2	   O	1.512	-4.520	-2.038	O.2	1	UNK0	0.000	
3	   O	-0.874	-4.670	-1.706	O.2	1	UNK0	0.000	
4	   N	0.298	-2.557	-0.737	N.3	1	UNK0	0.000	
5	   C	1.306	-1.566	-0.874	C.3	1	UNK0	0.000	
6	   C	0.870	-0.175	-1.127	C.3	1	UNK0	0.000	
7	   O	-0.515	0.042	-1.044	O.3	1	UNK0	0.000	
8	   C	-0.958	-0.623	0.086	C.3	1	UNK0	0.000	
9	   C	-1.010	-2.095	-0.351	C.3	1	UNK0	0.000	
10	   C	-0.147	-0.441	1.311	C.3	1	UNK0	0.000	
11	   N	0.728	0.720	1.146	N.pl3	1	UNK0	0.000	
12	   C	1.435	0.835	-0.096	C.3	1	UNK0	0.000	
13	   C	0.786	1.621	2.225	C.2	1	UNK0	0.000	
14	   O	0.055	1.384	3.274	O.2	1	UNK0	0.000	
15	   C	1.589	2.818	2.308	C.2	1	UNK0	0.000	
16	   O	1.565	3.639	3.358	O.3	1	UNK0	0.000	
17	   C	2.365	4.629	3.198	C.2	1	UNK0	0.000	
18	   C	2.988	4.519	1.992	C.2	1	UNK0	0.000	
19	   C	2.480	3.351	1.432	C.2	1	UNK0	0.000	
20	  Br	2.637	6.047	4.469	Br	1	UNK0	0.000	
21	   C	-0.070	-2.954	-3.565	C.2	1	UNK0	0.000	
22	   C	0.928	-2.490	-4.372	C.2	1	UNK0	0.000	
23	   C	0.604	-1.912	-5.570	C.2	1	UNK0	0.000	
24	   C	-0.715	-1.790	-5.979	C.2	1	UNK0	0.000	
25	   C	-1.730	-2.256	-5.170	C.2	1	UNK0	0.000	
26	   C	-1.387	-2.838	-3.962	C.2	1	UNK0	0.000	
27	   H	2.100	-1.603	-0.068	 H	1	UNK0	0.000	
28	   H	1.904	-1.880	-1.789	 H	1	UNK0	0.000	
29	   H	1.162	0.220	-2.138	 H	1	UNK0	0.000	
30	   H	-2.007	-0.314	0.279	 H	1	UNK0	0.000	
31	   H	-1.506	-2.718	0.410	 H	1	UNK0	0.000	
32	   H	-1.651	-2.101	-1.257	 H	1	UNK0	0.000	
33	   H	0.429	-1.349	1.609	 H	1	UNK0	0.000	
34	   H	-0.826	-0.273	2.202	 H	1	UNK0	0.000	
35	   H	1.169	1.834	-0.565	 H	1	UNK0	0.000	
36	   H	2.515	0.752	-0.040	 H	1	UNK0	0.000	
37	   H	3.719	5.205	1.577	 H	1	UNK0	0.000	
38	   H	2.794	2.994	0.471	 H	1	UNK0	0.000	
39	   H	1.964	-2.564	-4.095	 H	1	UNK0	0.000	
40	   H	1.380	-1.533	-6.234	 H	1	UNK0	0.000	
41	   H	-0.975	-1.329	-6.936	 H	1	UNK0	0.000	
42	   H	-2.785	-2.171	-5.470	 H	1	UNK0	0.000	
43	   H	-2.194	-3.211	-3.313	 H	1	UNK0	0.000	
@<TRIPOS>BOND
1 1 2 2
2 1 3 2
3 1 4 1
4 1 21 1
5 4 5 1
6 4 9 1
7 5 6 1
8 6 7 1
9 6 12 1
10 7 8 1
11 8 9 1
12 8 10 1
13 10 11 1
14 11 12 1
15 11 13 1
16 13 14 2
17 13 15 1
18 15 16 1
19 15 19 2
20 16 17 1
21 17 18 2
22 17 20 1
23 18 19 1
24 21 22 2
25 21 26 1
26 22 23 1
27 23 24 2
28 24 25 1
29 25 26 2
30 5 27 1
31 5 28 1
32 6 29 1
33 8 30 1
34 9 31 1
35 9 32 1
36 10 33 1
37 10 34 1
38 12 35 1
39 12 36 1
40 18 37 1
41 19 38 1
42 22 39 1
43 23 40 1
44 24 41 1
45 25 42 1
46 26 43 1
@<TRIPOS>SUBSTRUCTURE
1	UNK0	1	GROUP	1 ****	UNK
