# created with PyMOL 2.3.2
@<TRIPOS>MOLECULE
1119
32 35 1                 
SMALL
USER_CHARGES
@<TRIPOS>ATOM
1	   S	1.978	0.715	0.963	S.O2	1	UNK0	0.000	
2	   O	2.300	2.196	0.886	O.2	1	UNK0	0.000	
3	   O	3.293	0.045	1.345	O.2	1	UNK0	0.000	
4	   N	0.863	0.447	2.156	N.3	1	UNK0	0.000	
5	   C	0.514	-0.859	2.508	C.3	1	UNK0	0.000	
6	   C	-0.388	-0.974	3.632	C.3	1	UNK0	0.000	
7	   O	-0.604	0.063	4.452	O.3	1	UNK0	0.000	
8	   C	-0.142	1.286	4.120	C.3	1	UNK0	0.000	
9	   C	0.095	1.515	2.650	C.3	1	UNK0	0.000	
10	   C	1.036	-1.567	3.718	C.3	1	UNK0	0.000	
11	   C	1.555	0.116	-0.619	C.2	1	UNK0	0.000	
12	   C	0.451	0.495	-1.350	C.2	1	UNK0	0.000	
13	   C	0.446	-0.196	-2.566	C.2	1	UNK0	0.000	
14	   N	1.537	-0.966	-2.537	N.pl3	1	UNK0	0.000	
15	   C	2.210	-0.807	-1.408	C.2	1	UNK0	0.000	
16	   N	-0.522	-0.022	-3.483	N.2	1	UNK0	0.000	
17	   C	-1.540	0.829	-3.280	C.2	1	UNK0	0.000	
18	   C	-1.566	1.533	-2.079	C.2	1	UNK0	0.000	
19	   C	-0.582	1.368	-1.126	C.2	1	UNK0	0.000	
20	  Br	-2.967	2.761	-1.700	Br	1	UNK0	0.000	
21	   H	0.328	-1.558	1.640	 H	1	UNK0	0.000	
22	   H	-1.209	-1.746	3.603	 H	1	UNK0	0.000	
23	   H	0.781	1.527	4.707	 H	1	UNK0	0.000	
24	   H	-0.903	2.052	4.442	 H	1	UNK0	0.000	
25	   H	0.606	2.476	2.519	 H	1	UNK0	0.000	
26	   H	-0.905	1.543	2.150	 H	1	UNK0	0.000	
27	   H	1.778	-1.048	4.320	 H	1	UNK0	0.000	
28	   H	1.105	-2.670	3.725	 H	1	UNK0	0.000	
29	   H	1.792	-1.607	-3.336	 H	1	UNK0	0.000	
30	   H	3.126	-1.321	-1.151	 H	1	UNK0	0.000	
31	   H	-2.334	0.991	-3.998	 H	1	UNK0	0.000	
32	   H	-0.627	1.929	-0.202	 H	1	UNK0	0.000	
@<TRIPOS>BOND
1 1 2 2
2 1 3 2
3 1 4 1
4 1 11 1
5 4 5 1
6 4 9 1
7 5 6 1
8 5 10 1
9 6 7 1
10 6 10 1
11 7 8 1
12 8 9 1
13 11 12 1
14 11 15 2
15 12 13 2
16 12 19 1
17 13 14 1
18 13 16 1
19 14 15 1
20 16 17 2
21 17 18 1
22 18 19 2
23 18 20 1
24 5 21 1
25 6 22 1
26 8 23 1
27 8 24 1
28 9 25 1
29 9 26 1
30 10 27 1
31 10 28 1
32 14 29 1
33 15 30 1
34 17 31 1
35 19 32 1
@<TRIPOS>SUBSTRUCTURE
1	UNK0	1	GROUP	1 ****	UNK
