# created with PyMOL 2.3.2
@<TRIPOS>MOLECULE
1120
36 39 1                 
SMALL
USER_CHARGES
@<TRIPOS>ATOM
1	   S	-1.091	0.725	-2.056	S.O2	1	UNK0	0.000	
2	   O	-2.453	1.018	-2.623	O.2	1	UNK0	0.000	
3	   O	-0.100	0.912	-3.152	O.2	1	UNK0	0.000	
4	   N	-1.103	-0.842	-1.402	N.3	1	UNK0	0.000	
5	   C	0.117	-1.234	-0.761	C.3	1	UNK0	0.000	
6	   C	0.400	-2.648	-1.235	C.3	1	UNK0	0.000	
7	   C	-0.987	-3.102	-1.591	C.3	1	UNK0	0.000	
8	   C	-1.483	-1.866	-2.343	C.3	1	UNK0	0.000	
9	   C	-1.663	-3.139	-0.228	C.3	1	UNK0	0.000	
10	   C	-0.585	-2.859	0.789	C.3	1	UNK0	0.000	
11	   C	-0.228	-1.395	0.731	C.3	1	UNK0	0.000	
12	   O	-1.254	-0.566	1.113	O.3	1	UNK0	0.000	
13	   C	0.639	-3.438	0.055	C.3	1	UNK0	0.000	
14	   C	-0.837	1.860	-0.741	C.2	1	UNK0	0.000	
15	   C	-1.920	2.400	-0.041	C.2	1	UNK0	0.000	
16	   C	-1.694	3.291	0.990	C.2	1	UNK0	0.000	
17	   C	-0.414	3.658	1.340	C.2	1	UNK0	0.000	
18	   C	0.635	3.120	0.643	C.2	1	UNK0	0.000	
19	   C	0.441	2.229	-0.389	C.2	1	UNK0	0.000	
20	  Br	-0.062	4.884	2.755	Br	1	UNK0	0.000	
21	   H	0.959	-0.555	-0.906	 H	1	UNK0	0.000	
22	   H	1.154	-2.752	-1.975	 H	1	UNK0	0.000	
23	   H	-1.057	-4.014	-2.152	 H	1	UNK0	0.000	
24	   H	-2.562	-1.895	-2.529	 H	1	UNK0	0.000	
25	   H	-0.861	-1.798	-3.253	 H	1	UNK0	0.000	
26	   H	-2.400	-2.297	-0.146	 H	1	UNK0	0.000	
27	   H	-2.208	-4.067	-0.050	 H	1	UNK0	0.000	
28	   H	-0.736	-3.270	1.763	 H	1	UNK0	0.000	
29	   H	0.726	-1.202	1.266	 H	1	UNK0	0.000	
30	   H	-0.876	0.196	1.646	 H	1	UNK0	0.000	
31	   H	1.566	-3.126	0.547	 H	1	UNK0	0.000	
32	   H	0.513	-4.510	-0.091	 H	1	UNK0	0.000	
33	   H	-2.939	2.125	-0.299	 H	1	UNK0	0.000	
34	   H	-2.519	3.734	1.561	 H	1	UNK0	0.000	
35	   H	1.645	3.411	0.922	 H	1	UNK0	0.000	
36	   H	1.286	1.822	-0.919	 H	1	UNK0	0.000	
@<TRIPOS>BOND
1 1 2 2
2 1 3 2
3 1 4 1
4 1 14 1
5 4 5 1
6 4 8 1
7 5 6 1
8 5 11 1
9 6 7 1
10 6 13 1
11 7 8 1
12 7 9 1
13 9 10 1
14 10 11 1
15 10 13 1
16 11 12 1
17 14 15 2
18 14 19 1
19 15 16 1
20 16 17 2
21 17 18 1
22 17 20 1
23 18 19 2
24 5 21 1
25 6 22 1
26 7 23 1
27 8 24 1
28 8 25 1
29 9 26 1
30 9 27 1
31 10 28 1
32 11 29 1
33 12 30 1
34 13 31 1
35 13 32 1
36 15 33 1
37 16 34 1
38 18 35 1
39 19 36 1
@<TRIPOS>SUBSTRUCTURE
1	UNK0	1	GROUP	1 ****	UNK
