# created with PyMOL 2.3.2
@<TRIPOS>MOLECULE
1121
41 43 1                 
SMALL
USER_CHARGES
@<TRIPOS>ATOM
1	   S	-0.947	0.287	-1.479	S.3	1	UNK0	0.000	
2	   O	-0.698	-0.171	-2.887	O.2	1	UNK0	0.000	
3	   O	-1.959	-0.627	-0.825	O.2	1	UNK0	0.000	
4	   O	-1.455	1.877	-1.467	 O	1	UNK0	0.000	
5	   C	0.584	0.082	-0.589	C.3	1	UNK0	0.000	
6	  Br	6.052	2.002	-1.323	Br	1	UNK0	0.000	
7	   C	4.774	0.926	-0.412	C.2	1	UNK0	0.000	
8	   C	3.458	1.309	-0.458	C.2	1	UNK0	0.000	
9	   C	2.503	0.567	0.183	C.2	1	UNK0	0.000	
10	   C	2.932	-0.571	0.867	C.2	1	UNK0	0.000	
11	   N	1.820	-1.148	1.423	N.pl3	1	UNK0	0.000	
12	   C	0.774	-0.416	1.104	C.2	1	UNK0	0.000	
13	   C	1.143	0.643	0.346	C.2	1	UNK0	0.000	
14	   C	0.129	1.583	-0.114	C.3	1	UNK0	0.000	
15	   C	-1.083	1.667	0.740	C.3	1	UNK0	0.000	
16	   C	-1.519	0.468	1.466	C.3	1	UNK0	0.000	
17	   C	-0.576	-0.690	1.498	C.3	1	UNK0	0.000	
18	   N	-0.527	-1.332	2.822	N.4	1	UNK0	0.000	
19	   C	0.237	-2.547	2.651	C.3	1	UNK0	0.000	
20	   C	1.653	-2.347	2.242	C.3	1	UNK0	0.000	
21	   C	4.259	-0.944	0.905	C.2	1	UNK0	0.000	
22	   C	5.216	-0.190	0.256	C.2	1	UNK0	0.000	
23	   H	1.221	0.984	-0.744	 H	1	UNK0	0.000	
24	   H	0.310	-0.057	0.478	 H	1	UNK0	0.000	
25	   H	1.101	-0.820	-0.980	 H	1	UNK0	0.000	
26	   H	3.122	2.198	-0.992	 H	1	UNK0	0.000	
27	   H	0.602	2.581	-0.223	 H	1	UNK0	0.000	
28	   H	-0.151	1.284	-1.166	 H	1	UNK0	0.000	
29	   H	-0.942	2.557	1.424	 H	1	UNK0	0.000	
30	   H	-1.931	1.999	0.067	 H	1	UNK0	0.000	
31	   H	-1.701	0.757	2.545	 H	1	UNK0	0.000	
32	   H	-2.510	0.094	1.120	 H	1	UNK0	0.000	
33	   H	-0.969	-1.514	0.827	 H	1	UNK0	0.000	
34	   H	-0.074	-0.692	3.519	 H	1	UNK0	0.000	
35	   H	-1.491	-1.593	3.064	 H	1	UNK0	0.000	
36	   H	-0.313	-3.146	1.868	 H	1	UNK0	0.000	
37	   H	0.189	-3.191	3.568	 H	1	UNK0	0.000	
38	   H	2.368	-2.329	3.077	 H	1	UNK0	0.000	
39	   H	1.934	-3.205	1.569	 H	1	UNK0	0.000	
40	   H	4.580	-1.831	1.440	 H	1	UNK0	0.000	
41	   H	6.248	-0.503	0.301	 H	1	UNK0	0.000	
@<TRIPOS>BOND
1 1 2 2
2 1 3 2
3 1 4 1
4 1 5 1
5 6 7 1
6 7 8 2
7 7 22 1
8 8 9 1
9 9 10 2
10 9 13 1
11 10 11 1
12 10 21 1
13 11 12 1
14 11 20 1
15 12 13 2
16 12 17 1
17 13 14 1
18 14 15 1
19 15 16 1
20 16 17 1
21 17 18 1
22 18 19 1
23 19 20 1
24 21 22 2
25 5 23 1
26 5 24 1
27 5 25 1
28 8 26 1
29 14 27 1
30 14 28 1
31 15 29 1
32 15 30 1
33 16 31 1
34 16 32 1
35 17 33 1
36 18 34 1
37 18 35 1
38 19 36 1
39 19 37 1
40 20 38 1
41 20 39 1
42 21 40 1
43 22 41 1
@<TRIPOS>SUBSTRUCTURE
1	UNK0	1	GROUP	1 ****	UNK
