# created with PyMOL 2.3.2
@<TRIPOS>MOLECULE
1126
48 51 1                 
SMALL
USER_CHARGES
@<TRIPOS>ATOM
1	   S	0.905	4.276	-0.386	S.3	1	UNK0	0.000	
2	   C	2.353	3.268	0.047	C.3	1	UNK0	0.000	
3	   C	1.971	2.100	0.898	C.2	1	UNK0	0.000	
4	   O	0.768	1.995	1.170	O.2	1	UNK0	0.000	
5	   N	2.980	1.222	1.320	N.pl3	1	UNK0	0.000	
6	   C	2.746	0.102	2.122	C.2	1	UNK0	0.000	
7	   C	1.577	-0.142	2.756	C.2	1	UNK0	0.000	
8	   C	1.408	-1.296	3.536	C.2	1	UNK0	0.000	
9	   C	2.415	-2.204	3.680	C.2	1	UNK0	0.000	
10	   C	3.614	-1.977	3.045	C.2	1	UNK0	0.000	
11	   C	3.763	-0.839	2.282	C.2	1	UNK0	0.000	
12	  Br	2.198	-3.776	4.739	Br	1	UNK0	0.000	
13	   C	-0.192	3.364	-1.475	C.2	1	UNK0	0.000	
14	   N	-0.158	3.363	-2.836	N.2	1	UNK0	0.000	
15	   N	-1.130	2.568	-3.248	N.2	1	UNK0	0.000	
16	   C	-1.783	2.060	-2.180	C.2	1	UNK0	0.000	
17	   O	-1.164	2.584	-1.137	O.3	1	UNK0	0.000	
18	   C	-2.921	1.140	-2.130	C.3	1	UNK0	0.000	
19	   N	-3.868	1.618	-3.158	N.4	1	UNK0	0.000	
20	   C	-2.666	-0.285	-2.434	C.3	1	UNK0	0.000	
21	   C	-1.708	-0.976	-1.546	C.2	1	UNK0	0.000	
22	   C	-0.334	-0.977	-1.555	C.2	1	UNK0	0.000	
23	   C	0.137	-1.756	-0.502	C.2	1	UNK0	0.000	
24	   N	-0.945	-2.235	0.155	N.pl3	1	UNK0	0.000	
25	   C	-2.053	-1.783	-0.450	C.2	1	UNK0	0.000	
26	   C	1.491	-1.946	-0.266	C.2	1	UNK0	0.000	
27	   C	2.399	-1.341	-1.109	C.2	1	UNK0	0.000	
28	   C	1.921	-0.573	-2.149	C.2	1	UNK0	0.000	
29	   C	0.577	-0.384	-2.383	C.2	1	UNK0	0.000	
30	   H	2.751	2.878	-0.935	 H	1	UNK0	0.000	
31	   H	3.144	3.890	0.486	 H	1	UNK0	0.000	
32	   H	3.997	1.435	1.001	 H	1	UNK0	0.000	
33	   H	0.718	0.505	2.724	 H	1	UNK0	0.000	
34	   H	0.463	-1.486	4.044	 H	1	UNK0	0.000	
35	   H	4.400	-2.713	3.174	 H	1	UNK0	0.000	
36	   H	4.732	-0.711	1.802	 H	1	UNK0	0.000	
37	   H	-3.426	1.230	-1.135	 H	1	UNK0	0.000	
38	   H	-3.641	1.202	-4.086	 H	1	UNK0	0.000	
39	   H	-3.814	2.648	-3.267	 H	1	UNK0	0.000	
40	   H	-4.841	1.394	-2.863	 H	1	UNK0	0.000	
41	   H	-2.312	-0.342	-3.490	 H	1	UNK0	0.000	
42	   H	-3.673	-0.802	-2.408	 H	1	UNK0	0.000	
43	   H	-0.901	-2.859	1.000	 H	1	UNK0	0.000	
44	   H	-3.071	-1.991	-0.161	 H	1	UNK0	0.000	
45	   H	1.874	-2.547	0.547	 H	1	UNK0	0.000	
46	   H	3.469	-1.432	-1.005	 H	1	UNK0	0.000	
47	   H	2.616	-0.090	-2.822	 H	1	UNK0	0.000	
48	   H	0.197	0.203	-3.196	 H	1	UNK0	0.000	
@<TRIPOS>BOND
1 1 2 1
2 1 13 1
3 2 3 1
4 3 4 2
5 3 5 1
6 5 6 1
7 6 7 2
8 6 11 1
9 7 8 1
10 8 9 2
11 9 10 1
12 9 12 1
13 10 11 2
14 13 14 2
15 13 17 1
16 14 15 1
17 15 16 2
18 16 17 1
19 16 18 1
20 18 19 1
21 18 20 1
22 20 21 1
23 21 22 1
24 21 25 2
25 22 23 2
26 22 29 1
27 23 24 1
28 23 26 1
29 24 25 1
30 26 27 2
31 27 28 1
32 28 29 2
33 2 30 1
34 2 31 1
35 5 32 1
36 7 33 1
37 8 34 1
38 10 35 1
39 11 36 1
40 18 37 1
41 19 38 1
42 19 39 1
43 19 40 1
44 20 41 1
45 20 42 1
46 24 43 1
47 25 44 1
48 26 45 1
49 27 46 1
50 28 47 1
51 29 48 1
@<TRIPOS>SUBSTRUCTURE
1	UNK0	1	GROUP	1 ****	UNK
