# created with PyMOL 2.3.2
@<TRIPOS>MOLECULE
1127
43 46 1                 
SMALL
USER_CHARGES
@<TRIPOS>ATOM
1	   S	3.155	2.865	-0.226	S.3	1	UNK0	0.000	
2	   C	2.388	1.989	1.143	C.3	1	UNK0	0.000	
3	   C	0.896	1.996	1.086	C.2	1	UNK0	0.000	
4	   O	0.256	2.976	0.760	O.2	1	UNK0	0.000	
5	   N	0.213	0.771	1.433	N.pl3	1	UNK0	0.000	
6	   C	-1.189	0.578	1.444	C.2	1	UNK0	0.000	
7	   C	-2.109	1.581	1.252	C.2	1	UNK0	0.000	
8	   C	-3.478	1.255	1.291	C.2	1	UNK0	0.000	
9	   N	-4.599	1.967	1.139	N.2	1	UNK0	0.000	
10	   C	-5.668	1.154	1.262	C.2	1	UNK0	0.000	
11	   N	-5.229	-0.101	1.497	N.pl3	1	UNK0	0.000	
12	   C	-3.866	-0.046	1.518	C.2	1	UNK0	0.000	
13	   C	-2.953	-1.042	1.708	C.2	1	UNK0	0.000	
14	   C	-1.613	-0.738	1.673	C.2	1	UNK0	0.000	
15	  Br	-0.323	-2.131	1.945	Br	1	UNK0	0.000	
16	   O	-7.007	1.501	1.168	O.3	1	UNK0	0.000	
17	   C	2.815	2.085	-1.792	C.2	1	UNK0	0.000	
18	   N	3.503	1.136	-2.394	N.pl3	1	UNK0	0.000	
19	   N	2.871	0.879	-3.539	N.2	1	UNK0	0.000	
20	   N	1.813	1.659	-3.635	N.2	1	UNK0	0.000	
21	   N	1.773	2.401	-2.565	N.2	1	UNK0	0.000	
22	   C	4.693	0.431	-1.983	C.3	1	UNK0	0.000	
23	   C	4.241	-0.789	-1.245	C.3	1	UNK0	0.000	
24	   O	3.457	-1.597	-2.066	O.3	1	UNK0	0.000	
25	   C	3.528	-2.887	-1.606	C.3	1	UNK0	0.000	
26	   C	4.518	-2.915	-0.437	C.3	1	UNK0	0.000	
27	   C	5.400	-1.726	-0.860	C.3	1	UNK0	0.000	
28	   H	2.658	2.574	2.075	 H	1	UNK0	0.000	
29	   H	2.838	1.007	1.250	 H	1	UNK0	0.000	
30	   H	0.837	-0.035	1.701	 H	1	UNK0	0.000	
31	   H	-1.824	2.599	1.083	 H	1	UNK0	0.000	
32	   H	-5.817	-0.945	1.634	 H	1	UNK0	0.000	
33	   H	-3.243	-2.086	1.889	 H	1	UNK0	0.000	
34	   H	-7.522	1.259	0.330	 H	1	UNK0	0.000	
35	   H	5.356	1.071	-1.397	 H	1	UNK0	0.000	
36	   H	5.277	0.069	-2.872	 H	1	UNK0	0.000	
37	   H	3.765	-0.505	-0.300	 H	1	UNK0	0.000	
38	   H	2.562	-3.354	-1.348	 H	1	UNK0	0.000	
39	   H	4.020	-3.496	-2.414	 H	1	UNK0	0.000	
40	   H	5.082	-3.838	-0.395	 H	1	UNK0	0.000	
41	   H	4.000	-2.596	0.466	 H	1	UNK0	0.000	
42	   H	5.949	-2.086	-1.732	 H	1	UNK0	0.000	
43	   H	5.994	-1.334	-0.037	 H	1	UNK0	0.000	
@<TRIPOS>BOND
1 1 2 1
2 1 17 1
3 2 3 1
4 3 4 2
5 3 5 1
6 5 6 1
7 6 7 2
8 6 14 1
9 7 8 1
10 8 9 1
11 8 12 2
12 9 10 2
13 10 11 1
14 10 16 1
15 11 12 1
16 12 13 1
17 13 14 2
18 14 15 1
19 17 18 1
20 17 21 2
21 18 19 1
22 18 22 1
23 19 20 2
24 20 21 1
25 22 23 1
26 23 24 1
27 23 27 1
28 24 25 1
29 25 26 1
30 26 27 1
31 2 28 1
32 2 29 1
33 5 30 1
34 7 31 1
35 11 32 1
36 13 33 1
37 16 34 1
38 22 35 1
39 22 36 1
40 23 37 1
41 25 38 1
42 25 39 1
43 26 40 1
44 26 41 1
45 27 42 1
46 27 43 1
@<TRIPOS>SUBSTRUCTURE
1	UNK0	1	GROUP	1 ****	UNK
