# created with PyMOL 2.3.2
@<TRIPOS>MOLECULE
1128
41 44 1                 
SMALL
USER_CHARGES
@<TRIPOS>ATOM
1	   S	-2.941	2.373	2.049	S.3	1	UNK0	0.000	
2	   C	-4.071	0.951	2.225	C.3	1	UNK0	0.000	
3	   C	-3.276	-0.291	2.354	C.2	1	UNK0	0.000	
4	   O	-2.918	-0.646	3.501	O.2	1	UNK0	0.000	
5	   N	-2.900	-1.096	1.253	N.pl3	1	UNK0	0.000	
6	   C	-2.140	-2.283	1.378	C.2	1	UNK0	0.000	
7	   N	-1.743	-2.674	2.600	N.2	1	UNK0	0.000	
8	   C	-1.026	-3.773	2.826	C.2	1	UNK0	0.000	
9	   C	-0.652	-4.575	1.772	C.2	1	UNK0	0.000	
10	   C	-1.026	-4.234	0.485	C.2	1	UNK0	0.000	
11	   C	-1.774	-3.075	0.313	C.2	1	UNK0	0.000	
12	  Br	0.383	-6.170	2.039	Br	1	UNK0	0.000	
13	   C	-2.062	2.224	0.499	C.2	1	UNK0	0.000	
14	   N	-0.874	1.585	0.318	N.pl3	1	UNK0	0.000	
15	   C	-0.472	1.644	-0.950	C.2	1	UNK0	0.000	
16	   N	-1.466	2.354	-1.570	N.2	1	UNK0	0.000	
17	   N	-2.405	2.696	-0.711	N.2	1	UNK0	0.000	
18	   C	0.699	1.100	-1.591	C.2	1	UNK0	0.000	
19	   N	0.939	1.240	-2.935	N.2	1	UNK0	0.000	
20	   N	2.055	0.662	-3.275	N.pl3	1	UNK0	0.000	
21	   C	2.608	0.115	-2.184	C.2	1	UNK0	0.000	
22	   C	1.752	0.391	-1.110	C.2	1	UNK0	0.000	
23	   C	2.375	-0.202	0.095	C.3	1	UNK0	0.000	
24	   C	3.810	-0.461	-0.277	C.3	1	UNK0	0.000	
25	   C	3.775	-0.671	-1.750	C.3	1	UNK0	0.000	
26	   N	-0.222	0.958	1.374	N.pl3	1	UNK0	0.000	
27	   H	-4.708	1.065	3.131	 H	1	UNK0	0.000	
28	   H	-4.731	0.873	1.337	 H	1	UNK0	0.000	
29	   H	-3.197	-0.802	0.300	 H	1	UNK0	0.000	
30	   H	-0.724	-4.057	3.820	 H	1	UNK0	0.000	
31	   H	-0.749	-4.843	-0.368	 H	1	UNK0	0.000	
32	   H	-2.085	-2.773	-0.673	 H	1	UNK0	0.000	
33	   H	2.418	0.658	-4.273	 H	1	UNK0	0.000	
34	   H	1.916	-1.183	0.351	 H	1	UNK0	0.000	
35	   H	2.368	0.482	0.980	 H	1	UNK0	0.000	
36	   H	4.251	-1.310	0.284	 H	1	UNK0	0.000	
37	   H	4.389	0.484	-0.065	 H	1	UNK0	0.000	
38	   H	3.547	-1.735	-1.982	 H	1	UNK0	0.000	
39	   H	4.706	-0.371	-2.278	 H	1	UNK0	0.000	
40	   H	-0.208	-0.066	1.532	 H	1	UNK0	0.000	
41	   H	0.304	1.534	2.083	 H	1	UNK0	0.000	
@<TRIPOS>BOND
1 1 2 1
2 1 13 1
3 2 3 1
4 3 4 2
5 3 5 1
6 5 6 1
7 6 7 2
8 6 11 1
9 7 8 1
10 8 9 2
11 9 10 1
12 9 12 1
13 10 11 2
14 13 14 1
15 13 17 2
16 14 15 1
17 14 26 1
18 15 16 2
19 15 18 1
20 16 17 1
21 18 19 2
22 18 22 1
23 19 20 1
24 20 21 1
25 21 22 2
26 21 25 1
27 22 23 1
28 23 24 1
29 24 25 1
30 2 27 1
31 2 28 1
32 5 29 1
33 8 30 1
34 10 31 1
35 11 32 1
36 20 33 1
37 23 34 1
38 23 35 1
39 24 36 1
40 24 37 1
41 25 38 1
42 25 39 1
43 26 40 1
44 26 41 1
@<TRIPOS>SUBSTRUCTURE
1	UNK0	1	GROUP	1 ****	UNK
