# created with PyMOL 2.3.2
@<TRIPOS>MOLECULE
1129
41 44 1                 
SMALL
USER_CHARGES
@<TRIPOS>ATOM
1	   S	-2.738	-0.716	-4.130	S.3	1	UNK0	0.000	
2	   C	-1.429	0.256	-4.940	C.3	1	UNK0	0.000	
3	   C	-0.130	0.121	-4.247	C.2	1	UNK0	0.000	
4	   O	0.228	0.937	-3.361	O.2	1	UNK0	0.000	
5	   N	0.759	-0.938	-4.561	N.pl3	1	UNK0	0.000	
6	   C	2.015	-1.109	-3.927	C.2	1	UNK0	0.000	
7	   N	2.465	-0.266	-2.980	N.2	1	UNK0	0.000	
8	   C	3.660	-0.462	-2.402	C.2	1	UNK0	0.000	
9	   C	4.465	-1.522	-2.751	C.2	1	UNK0	0.000	
10	   C	4.023	-2.388	-3.712	C.2	1	UNK0	0.000	
11	   C	2.797	-2.176	-4.296	C.2	1	UNK0	0.000	
12	  Br	6.173	-1.783	-1.908	Br	1	UNK0	0.000	
13	   C	-2.989	0.027	-2.509	C.2	1	UNK0	0.000	
14	   N	-2.310	-0.340	-1.383	N.pl3	1	UNK0	0.000	
15	   C	-2.722	0.398	-0.330	C.2	1	UNK0	0.000	
16	   N	-3.662	1.223	-0.822	N.2	1	UNK0	0.000	
17	   N	-3.818	0.998	-2.127	N.2	1	UNK0	0.000	
18	   C	-2.241	0.304	1.042	C.2	1	UNK0	0.000	
19	   N	-1.310	-0.514	1.528	N.pl3	1	UNK0	0.000	
20	   N	-1.142	-0.309	2.831	N.2	1	UNK0	0.000	
21	   C	-1.972	0.666	3.244	C.2	1	UNK0	0.000	
22	   C	-2.674	1.060	2.109	C.2	1	UNK0	0.000	
23	   C	-3.621	2.152	2.504	C.3	1	UNK0	0.000	
24	   C	-2.875	2.768	3.692	C.3	1	UNK0	0.000	
25	   C	-2.438	1.479	4.397	C.3	1	UNK0	0.000	
26	   N	-1.345	-1.323	-1.346	N.pl3	1	UNK0	0.000	
27	   H	-1.749	1.333	-4.827	 H	1	UNK0	0.000	
28	   H	-1.372	0.048	-6.022	 H	1	UNK0	0.000	
29	   H	0.473	-1.616	-5.290	 H	1	UNK0	0.000	
30	   H	4.005	0.241	-1.632	 H	1	UNK0	0.000	
31	   H	4.660	-3.231	-3.991	 H	1	UNK0	0.000	
32	   H	2.490	-2.892	-5.054	 H	1	UNK0	0.000	
33	   H	-0.749	-1.239	1.021	 H	1	UNK0	0.000	
34	   H	-3.766	2.876	1.688	 H	1	UNK0	0.000	
35	   H	-4.564	1.684	2.856	 H	1	UNK0	0.000	
36	   H	-1.963	3.263	3.312	 H	1	UNK0	0.000	
37	   H	-3.512	3.381	4.330	 H	1	UNK0	0.000	
38	   H	-1.625	1.678	5.120	 H	1	UNK0	0.000	
39	   H	-3.354	1.068	4.858	 H	1	UNK0	0.000	
40	   H	-0.341	-1.082	-1.335	 H	1	UNK0	0.000	
41	   H	-1.618	-2.318	-1.329	 H	1	UNK0	0.000	
@<TRIPOS>BOND
1 1 2 1
2 1 13 1
3 2 3 1
4 3 4 2
5 3 5 1
6 5 6 1
7 6 7 2
8 6 11 1
9 7 8 1
10 8 9 2
11 9 10 1
12 9 12 1
13 10 11 2
14 13 14 1
15 13 17 2
16 14 15 1
17 14 26 1
18 15 16 2
19 15 18 1
20 16 17 1
21 18 19 1
22 18 22 2
23 19 20 1
24 20 21 2
25 21 22 1
26 21 25 1
27 22 23 1
28 23 24 1
29 24 25 1
30 2 27 1
31 2 28 1
32 5 29 1
33 8 30 1
34 10 31 1
35 11 32 1
36 19 33 1
37 23 34 1
38 23 35 1
39 24 36 1
40 24 37 1
41 25 38 1
42 25 39 1
43 26 40 1
44 26 41 1
@<TRIPOS>SUBSTRUCTURE
1	UNK0	1	GROUP	1 ****	UNK
