# created with PyMOL 2.3.2
@<TRIPOS>MOLECULE
1131
53 56 1                 
SMALL
USER_CHARGES
@<TRIPOS>ATOM
1	   S	3.727	-3.329	3.259	S.3	1	UNK0	0.000	
2	   C	2.769	-1.796	3.293	C.3	1	UNK0	0.000	
3	   C	2.620	-1.221	1.874	C.3	1	UNK0	0.000	
4	   C	1.826	0.022	2.010	C.3	1	UNK0	0.000	
5	   N	0.524	-0.241	2.575	N.3	1	UNK0	0.000	
6	   C	-0.311	0.881	2.210	C.3	1	UNK0	0.000	
7	   C	0.387	1.657	1.144	C.3	1	UNK0	0.000	
8	   C	1.564	0.798	0.767	C.3	1	UNK0	0.000	
9	   C	1.075	0.032	-0.379	C.2	1	UNK0	0.000	
10	   O	1.392	-1.138	-0.702	O.2	1	UNK0	0.000	
11	   N	0.151	0.869	-1.081	N.pl3	1	UNK0	0.000	
12	   C	-0.367	1.765	-0.110	C.2	1	UNK0	0.000	
13	   O	-1.333	2.540	-0.299	O.2	1	UNK0	0.000	
14	   C	-0.194	0.822	-2.493	C.3	1	UNK0	0.000	
15	   C	-1.353	-0.088	-2.779	C.3	1	UNK0	0.000	
16	   C	-1.604	-0.044	-4.272	C.3	1	UNK0	0.000	
17	   O	-2.667	-0.860	-4.643	O.3	1	UNK0	0.000	
18	   C	-2.845	-0.777	-6.007	C.3	1	UNK0	0.000	
19	   C	-1.686	0.470	1.881	C.2	1	UNK0	0.000	
20	   C	-2.579	1.074	2.737	C.2	1	UNK0	0.000	
21	   C	-3.938	0.863	2.642	C.2	1	UNK0	0.000	
22	   C	-4.457	0.021	1.666	C.2	1	UNK0	0.000	
23	   C	-3.570	-0.579	0.816	C.2	1	UNK0	0.000	
24	   C	-2.200	-0.364	0.915	C.2	1	UNK0	0.000	
25	  Br	-4.276	-1.741	-0.533	Br	1	UNK0	0.000	
26	   N	-1.872	1.889	3.676	N.pl3	1	UNK0	0.000	
27	   C	-0.502	1.785	3.394	C.2	1	UNK0	0.000	
28	   O	0.432	2.335	3.999	O.2	1	UNK0	0.000	
29	   C	2.725	-4.561	2.348	C.3	1	UNK0	0.000	
30	   H	3.205	-1.043	3.981	 H	1	UNK0	0.000	
31	   H	1.750	-2.024	3.679	 H	1	UNK0	0.000	
32	   H	2.124	-2.033	1.304	 H	1	UNK0	0.000	
33	   H	3.617	-1.072	1.460	 H	1	UNK0	0.000	
34	   H	2.352	0.692	2.721	 H	1	UNK0	0.000	
35	   H	0.160	-1.155	2.265	 H	1	UNK0	0.000	
36	   H	0.721	2.661	1.521	 H	1	UNK0	0.000	
37	   H	2.438	1.410	0.439	 H	1	UNK0	0.000	
38	   H	-0.502	1.853	-2.786	 H	1	UNK0	0.000	
39	   H	0.670	0.558	-3.132	 H	1	UNK0	0.000	
40	   H	-1.187	-1.123	-2.418	 H	1	UNK0	0.000	
41	   H	-2.277	0.296	-2.295	 H	1	UNK0	0.000	
42	   H	-0.675	-0.391	-4.770	 H	1	UNK0	0.000	
43	   H	-1.801	1.031	-4.525	 H	1	UNK0	0.000	
44	   H	-3.071	0.268	-6.343	 H	1	UNK0	0.000	
45	   H	-1.920	-1.081	-6.568	 H	1	UNK0	0.000	
46	   H	-3.660	-1.462	-6.299	 H	1	UNK0	0.000	
47	   H	-4.653	1.329	3.305	 H	1	UNK0	0.000	
48	   H	-5.541	-0.128	1.614	 H	1	UNK0	0.000	
49	   H	-1.594	-0.896	0.188	 H	1	UNK0	0.000	
50	   H	-2.277	2.477	4.456	 H	1	UNK0	0.000	
51	   H	3.255	-5.525	2.257	 H	1	UNK0	0.000	
52	   H	2.568	-4.178	1.311	 H	1	UNK0	0.000	
53	   H	1.733	-4.693	2.853	 H	1	UNK0	0.000	
@<TRIPOS>BOND
1 1 2 1
2 1 29 1
3 2 3 1
4 3 4 1
5 4 5 1
6 4 8 1
7 5 6 1
8 6 7 1
9 6 19 1
10 6 27 1
11 7 8 1
12 7 12 1
13 8 9 1
14 9 10 2
15 9 11 1
16 11 12 1
17 11 14 1
18 12 13 2
19 14 15 1
20 15 16 1
21 16 17 1
22 17 18 1
23 19 20 1
24 19 24 2
25 20 21 2
26 20 26 1
27 21 22 1
28 22 23 2
29 23 24 1
30 23 25 1
31 26 27 1
32 27 28 2
33 2 30 1
34 2 31 1
35 3 32 1
36 3 33 1
37 4 34 1
38 5 35 1
39 7 36 1
40 8 37 1
41 14 38 1
42 14 39 1
43 15 40 1
44 15 41 1
45 16 42 1
46 16 43 1
47 18 44 1
48 18 45 1
49 18 46 1
50 21 47 1
51 22 48 1
52 24 49 1
53 26 50 1
54 29 51 1
55 29 52 1
56 29 53 1
@<TRIPOS>SUBSTRUCTURE
1	UNK0	1	GROUP	1 ****	UNK
