# created with PyMOL 2.3.2
@<TRIPOS>MOLECULE
1132
40 43 1                 
SMALL
USER_CHARGES
@<TRIPOS>ATOM
1	   S	-1.697	1.961	-1.038	S.3	1	UNK0	0.000	
2	   C	-0.452	1.795	-2.342	C.3	1	UNK0	0.000	
3	   C	-0.818	0.721	-3.336	C.3	1	UNK0	0.000	
4	   N	-0.949	-0.573	-2.726	N.pl3	1	UNK0	0.000	
5	   C	0.009	-1.513	-2.549	C.2	1	UNK0	0.000	
6	   C	-0.534	-2.616	-1.919	C.2	1	UNK0	0.000	
7	   N	-1.822	-2.319	-1.726	N.2	1	UNK0	0.000	
8	   C	-2.079	-1.096	-2.207	C.2	1	UNK0	0.000	
9	  Br	-3.786	-0.252	-2.151	Br	1	UNK0	0.000	
10	   N	0.200	-3.703	-1.620	N.pl3	1	UNK0	0.000	
11	   C	1.499	-3.659	-1.968	C.2	1	UNK0	0.000	
12	   O	2.218	-4.674	-1.697	O.2	1	UNK0	0.000	
13	   N	2.071	-2.607	-2.582	N.pl3	1	UNK0	0.000	
14	   C	1.346	-1.523	-2.882	C.2	1	UNK0	0.000	
15	   O	1.830	-0.531	-3.447	O.2	1	UNK0	0.000	
16	   C	-0.365	-4.869	-0.957	C.3	1	UNK0	0.000	
17	   C	-1.243	3.234	0.126	C.2	1	UNK0	0.000	
18	   N	-0.502	3.009	1.223	N.pl3	1	UNK0	0.000	
19	   N	-0.343	4.150	1.871	N.2	1	UNK0	0.000	
20	   N	-0.973	5.113	1.207	N.2	1	UNK0	0.000	
21	   N	-1.526	4.545	0.132	N.2	1	UNK0	0.000	
22	   C	0.031	1.734	1.625	C.2	1	UNK0	0.000	
23	   C	-0.792	0.663	1.855	C.2	1	UNK0	0.000	
24	   C	-0.274	-0.564	2.241	C.2	1	UNK0	0.000	
25	   C	1.083	-0.693	2.391	C.2	1	UNK0	0.000	
26	   C	1.913	0.367	2.165	C.2	1	UNK0	0.000	
27	   C	1.399	1.581	1.783	C.2	1	UNK0	0.000	
28	   H	-0.356	2.785	-2.829	 H	1	UNK0	0.000	
29	   H	0.516	1.591	-1.841	 H	1	UNK0	0.000	
30	   H	-1.762	1.053	-3.836	 H	1	UNK0	0.000	
31	   H	-0.043	0.749	-4.135	 H	1	UNK0	0.000	
32	   H	3.095	-2.657	-2.819	 H	1	UNK0	0.000	
33	   H	-1.242	-4.604	-0.338	 H	1	UNK0	0.000	
34	   H	-0.555	-5.703	-1.648	 H	1	UNK0	0.000	
35	   H	0.431	-5.233	-0.249	 H	1	UNK0	0.000	
36	   H	-1.870	0.730	1.745	 H	1	UNK0	0.000	
37	   H	-0.947	-1.383	2.414	 H	1	UNK0	0.000	
38	   H	1.466	-1.676	2.698	 H	1	UNK0	0.000	
39	   H	2.978	0.228	2.294	 H	1	UNK0	0.000	
40	   H	2.022	2.449	1.592	 H	1	UNK0	0.000	
@<TRIPOS>BOND
1 1 2 1
2 1 17 1
3 2 3 1
4 3 4 1
5 4 5 1
6 4 8 1
7 5 6 2
8 5 14 1
9 6 7 1
10 6 10 1
11 7 8 2
12 8 9 1
13 10 11 1
14 10 16 1
15 11 12 2
16 11 13 1
17 13 14 1
18 14 15 2
19 17 18 1
20 17 21 2
21 18 19 1
22 18 22 1
23 19 20 2
24 20 21 1
25 22 23 2
26 22 27 1
27 23 24 1
28 24 25 2
29 25 26 1
30 26 27 2
31 2 28 1
32 2 29 1
33 3 30 1
34 3 31 1
35 13 32 1
36 16 33 1
37 16 34 1
38 16 35 1
39 23 36 1
40 24 37 1
41 25 38 1
42 26 39 1
43 27 40 1
@<TRIPOS>SUBSTRUCTURE
1	UNK0	1	GROUP	1 ****	UNK
