# created with PyMOL 2.3.2
@<TRIPOS>MOLECULE
1134
47 50 1                 
SMALL
USER_CHARGES
@<TRIPOS>ATOM
1	   S	2.041	1.360	-1.171	S.3	1	UNK0	0.000	
2	   C	2.052	2.154	-2.812	C.3	1	UNK0	0.000	
3	   C	1.632	1.215	-3.868	C.2	1	UNK0	0.000	
4	   C	1.575	1.636	-5.177	C.2	1	UNK0	0.000	
5	   C	1.183	0.776	-6.195	C.2	1	UNK0	0.000	
6	   C	0.836	-0.532	-5.939	C.2	1	UNK0	0.000	
7	   C	0.892	-0.961	-4.622	C.2	1	UNK0	0.000	
8	   C	1.282	-0.094	-3.625	C.2	1	UNK0	0.000	
9	  Br	2.051	3.454	-5.566	Br	1	UNK0	0.000	
10	   C	0.317	0.982	-0.791	C.2	1	UNK0	0.000	
11	   N	-0.159	0.395	0.316	N.pl3	1	UNK0	0.000	
12	   C	-1.497	0.262	0.280	C.2	1	UNK0	0.000	
13	   N	-2.420	-0.252	1.132	N.2	1	UNK0	0.000	
14	   C	-3.726	-0.243	0.809	C.2	1	UNK0	0.000	
15	   N	-4.111	0.282	-0.372	N.2	1	UNK0	0.000	
16	   C	-3.217	0.807	-1.252	C.2	1	UNK0	0.000	
17	   C	-1.878	0.805	-0.937	C.2	1	UNK0	0.000	
18	   N	-0.768	1.230	-1.559	N.2	1	UNK0	0.000	
19	   O	-3.593	1.344	-2.456	O.3	1	UNK0	0.000	
20	   N	-4.724	-0.777	1.686	N.pl3	1	UNK0	0.000	
21	   C	0.683	-0.043	1.413	C.3	1	UNK0	0.000	
22	   O	-0.050	-0.678	2.380	O.3	1	UNK0	0.000	
23	   C	0.850	-1.569	2.958	C.3	1	UNK0	0.000	
24	   C	1.435	-2.234	1.722	C.3	1	UNK0	0.000	
25	   C	1.741	-0.984	0.894	C.3	1	UNK0	0.000	
26	   O	3.035	-0.552	1.203	O.3	1	UNK0	0.000	
27	   O	0.437	-2.996	1.148	O.3	1	UNK0	0.000	
28	   C	0.150	-2.580	3.840	C.3	1	UNK0	0.000	
29	   O	-0.541	-1.996	4.872	O.3	1	UNK0	0.000	
30	   H	1.361	3.033	-2.723	 H	1	UNK0	0.000	
31	   H	3.073	2.564	-2.964	 H	1	UNK0	0.000	
32	   H	1.138	1.106	-7.228	 H	1	UNK0	0.000	
33	   H	0.525	-1.213	-6.740	 H	1	UNK0	0.000	
34	   H	0.613	-1.999	-4.437	 H	1	UNK0	0.000	
35	   H	1.317	-0.454	-2.608	 H	1	UNK0	0.000	
36	   H	-4.309	2.016	-2.623	 H	1	UNK0	0.000	
37	   H	-5.480	-1.385	1.304	 H	1	UNK0	0.000	
38	   H	-4.730	-0.584	2.705	 H	1	UNK0	0.000	
39	   H	1.143	0.856	1.871	 H	1	UNK0	0.000	
40	   H	1.617	-0.997	3.509	 H	1	UNK0	0.000	
41	   H	2.347	-2.796	1.953	 H	1	UNK0	0.000	
42	   H	1.612	-1.193	-0.186	 H	1	UNK0	0.000	
43	   H	3.610	-1.337	1.404	 H	1	UNK0	0.000	
44	   H	-0.095	-2.506	0.474	 H	1	UNK0	0.000	
45	   H	-0.552	-3.180	3.207	 H	1	UNK0	0.000	
46	   H	0.923	-3.265	4.244	 H	1	UNK0	0.000	
47	   H	-1.348	-1.569	4.532	 H	1	UNK0	0.000	
@<TRIPOS>BOND
1 1 2 1
2 1 10 1
3 2 3 1
4 3 4 2
5 3 8 1
6 4 5 1
7 4 9 1
8 5 6 2
9 6 7 1
10 7 8 2
11 10 11 1
12 10 18 2
13 11 12 1
14 11 21 1
15 12 13 2
16 12 17 1
17 13 14 1
18 14 15 2
19 14 20 1
20 15 16 1
21 16 17 2
22 16 19 1
23 17 18 1
24 21 22 1
25 21 25 1
26 22 23 1
27 23 24 1
28 23 28 1
29 24 25 1
30 24 27 1
31 25 26 1
32 28 29 1
33 2 30 1
34 2 31 1
35 5 32 1
36 6 33 1
37 7 34 1
38 8 35 1
39 19 36 1
40 20 37 1
41 20 38 1
42 21 39 1
43 23 40 1
44 24 41 1
45 25 42 1
46 26 43 1
47 27 44 1
48 28 45 1
49 28 46 1
50 29 47 1
@<TRIPOS>SUBSTRUCTURE
1	UNK0	1	GROUP	1 ****	UNK
