# created with PyMOL 2.3.2
@<TRIPOS>MOLECULE
1135
47 50 1                 
SMALL
USER_CHARGES
@<TRIPOS>ATOM
1	   S	0.177	2.347	-2.232	S.3	1	UNK0	0.000	
2	   C	-0.577	1.165	-1.092	C.3	1	UNK0	0.000	
3	   C	-1.952	1.470	-0.670	C.2	1	UNK0	0.000	
4	   N	-2.723	2.462	-1.212	N.pl3	1	UNK0	0.000	
5	   N	-3.907	2.359	-0.560	N.2	1	UNK0	0.000	
6	   N	-3.893	1.399	0.305	N.2	1	UNK0	0.000	
7	   C	-2.662	0.786	0.283	C.2	1	UNK0	0.000	
8	   C	-2.322	-0.346	1.124	C.2	1	UNK0	0.000	
9	   O	-3.158	-0.632	2.079	O.2	1	UNK0	0.000	
10	   N	-1.202	-1.167	1.026	N.pl3	1	UNK0	0.000	
11	   N	-0.872	-2.243	1.821	N.2	1	UNK0	0.000	
12	   C	-1.560	-2.847	2.670	C.2	1	UNK0	0.000	
13	   C	-1.069	-3.994	3.448	C.2	1	UNK0	0.000	
14	   C	-1.862	-4.590	4.389	C.2	1	UNK0	0.000	
15	   C	-1.390	-5.682	5.101	C.2	1	UNK0	0.000	
16	   C	-0.098	-6.117	4.806	C.2	1	UNK0	0.000	
17	   C	0.695	-5.512	3.858	C.2	1	UNK0	0.000	
18	   C	0.221	-4.424	3.150	C.2	1	UNK0	0.000	
19	  Br	2.451	-6.137	3.478	Br	1	UNK0	0.000	
20	   O	-3.162	-4.129	4.667	O.2	1	UNK0	0.000	
21	   C	-2.481	3.381	-2.249	C.2	1	UNK0	0.000	
22	   N	-2.373	4.711	-2.119	N.2	1	UNK0	0.000	
23	   O	-2.174	5.232	-3.315	O.3	1	UNK0	0.000	
24	   N	-2.147	4.317	-4.224	N.2	1	UNK0	0.000	
25	   C	-2.338	3.139	-3.588	C.2	1	UNK0	0.000	
26	   N	-2.411	1.841	-4.201	N.4	1	UNK0	0.000	
27	   C	0.533	3.875	-1.365	C.2	1	UNK0	0.000	
28	   C	1.191	4.929	-1.977	C.2	1	UNK0	0.000	
29	   C	1.433	6.120	-1.322	C.2	1	UNK0	0.000	
30	   C	1.018	6.296	-0.014	C.2	1	UNK0	0.000	
31	   C	0.355	5.247	0.617	C.2	1	UNK0	0.000	
32	   C	0.127	4.070	-0.060	C.2	1	UNK0	0.000	
33	   H	-0.534	0.160	-1.614	 H	1	UNK0	0.000	
34	   H	0.101	1.133	-0.212	 H	1	UNK0	0.000	
35	   H	-0.506	-0.978	0.248	 H	1	UNK0	0.000	
36	   H	-2.573	-2.553	2.867	 H	1	UNK0	0.000	
37	   H	-1.964	-6.195	5.861	 H	1	UNK0	0.000	
38	   H	0.319	-6.979	5.343	 H	1	UNK0	0.000	
39	   H	0.823	-3.918	2.387	 H	1	UNK0	0.000	
40	   H	-2.451	1.091	-3.498	 H	1	UNK0	0.000	
41	   H	-3.288	1.768	-4.793	 H	1	UNK0	0.000	
42	   H	-1.584	1.792	-4.840	 H	1	UNK0	0.000	
43	   H	1.518	4.809	-2.993	 H	1	UNK0	0.000	
44	   H	1.951	6.951	-1.799	 H	1	UNK0	0.000	
45	   H	1.199	7.227	0.522	 H	1	UNK0	0.000	
46	   H	0.019	5.342	1.630	 H	1	UNK0	0.000	
47	   H	-0.389	3.227	0.413	 H	1	UNK0	0.000	
@<TRIPOS>BOND
1 1 2 1
2 1 27 1
3 2 3 1
4 3 4 1
5 3 7 2
6 4 5 1
7 4 21 1
8 5 6 2
9 6 7 1
10 7 8 1
11 8 9 2
12 8 10 1
13 10 11 1
14 11 12 2
15 12 13 1
16 13 14 2
17 13 18 1
18 14 15 1
19 14 20 1
20 15 16 2
21 16 17 1
22 17 18 2
23 17 19 1
24 21 22 2
25 21 25 1
26 22 23 1
27 23 24 1
28 24 25 2
29 25 26 1
30 27 28 2
31 27 32 1
32 28 29 1
33 29 30 2
34 30 31 1
35 31 32 2
36 2 33 1
37 2 34 1
38 10 35 1
39 12 36 1
40 15 37 1
41 16 38 1
42 18 39 1
43 26 40 1
44 26 41 1
45 26 42 1
46 28 43 1
47 29 44 1
48 30 45 1
49 31 46 1
50 32 47 1
@<TRIPOS>SUBSTRUCTURE
1	UNK0	1	GROUP	1 ****	UNK
