# created with PyMOL 2.3.2
@<TRIPOS>MOLECULE
1136
47 51 1                 
SMALL
USER_CHARGES
@<TRIPOS>ATOM
1	   S	4.057	-1.419	-0.213	S.3	1	UNK0	0.000	
2	   C	2.299	-1.124	0.064	C.3	1	UNK0	0.000	
3	   C	1.986	-1.145	1.520	C.2	1	UNK0	0.000	
4	   N	2.938	-1.487	2.456	N.pl3	1	UNK0	0.000	
5	   N	2.278	-1.480	3.614	N.2	1	UNK0	0.000	
6	   N	1.018	-1.168	3.471	N.2	1	UNK0	0.000	
7	   C	0.778	-0.939	2.135	C.2	1	UNK0	0.000	
8	   C	-0.461	-0.481	1.581	C.2	1	UNK0	0.000	
9	   O	-1.587	-0.868	1.908	O.2	1	UNK0	0.000	
10	   N	-0.472	0.553	0.525	N.pl3	1	UNK0	0.000	
11	   N	-1.406	1.059	-0.089	N.2	1	UNK0	0.000	
12	   C	-2.317	1.556	-0.689	C.2	1	UNK0	0.000	
13	   C	-2.759	2.819	-1.217	C.2	1	UNK0	0.000	
14	   C	-3.917	2.589	-1.920	C.2	1	UNK0	0.000	
15	   C	-4.526	3.663	-2.538	C.2	1	UNK0	0.000	
16	   C	-3.957	4.934	-2.432	C.2	1	UNK0	0.000	
17	   C	-2.808	5.167	-1.735	C.2	1	UNK0	0.000	
18	   C	-2.184	4.100	-1.109	C.2	1	UNK0	0.000	
19	  Br	-2.025	6.927	-1.639	Br	1	UNK0	0.000	
20	   N	-4.281	1.204	-1.887	N.pl3	1	UNK0	0.000	
21	   C	-3.354	0.494	-1.153	C.2	1	UNK0	0.000	
22	   O	-3.117	-0.662	-0.778	O.2	1	UNK0	0.000	
23	   C	4.314	-1.778	2.280	C.2	1	UNK0	0.000	
24	   N	5.307	-0.875	2.281	N.2	1	UNK0	0.000	
25	   O	6.467	-1.455	2.110	O.3	1	UNK0	0.000	
26	   N	6.292	-2.752	1.989	N.2	1	UNK0	0.000	
27	   C	4.953	-2.982	2.092	C.2	1	UNK0	0.000	
28	   N	4.314	-4.238	2.029	N.pl3	1	UNK0	0.000	
29	   C	4.557	-1.371	-1.895	C.2	1	UNK0	0.000	
30	   N	3.829	-1.177	-2.995	N.pl3	1	UNK0	0.000	
31	   C	4.672	-1.218	-4.074	C.2	1	UNK0	0.000	
32	   N	5.891	-1.440	-3.589	N.2	1	UNK0	0.000	
33	   N	5.863	-1.539	-2.280	N.2	1	UNK0	0.000	
34	   C	2.409	-0.950	-3.156	C.3	1	UNK0	0.000	
35	   H	1.929	-0.302	-0.510	 H	1	UNK0	0.000	
36	   H	1.780	-2.050	-0.373	 H	1	UNK0	0.000	
37	   H	0.535	0.925	0.313	 H	1	UNK0	0.000	
38	   H	-5.434	3.522	-3.096	 H	1	UNK0	0.000	
39	   H	-4.455	5.768	-2.930	 H	1	UNK0	0.000	
40	   H	-1.285	4.177	-0.544	 H	1	UNK0	0.000	
41	   H	-5.108	0.761	-2.334	 H	1	UNK0	0.000	
42	   H	3.407	-4.370	1.573	 H	1	UNK0	0.000	
43	   H	4.789	-5.046	2.464	 H	1	UNK0	0.000	
44	   H	4.358	-1.090	-5.084	 H	1	UNK0	0.000	
45	   H	1.862	-1.741	-2.668	 H	1	UNK0	0.000	
46	   H	2.092	0.067	-2.788	 H	1	UNK0	0.000	
47	   H	2.129	-0.941	-4.242	 H	1	UNK0	0.000	
@<TRIPOS>BOND
1 1 2 1
2 1 29 1
3 2 3 1
4 3 4 1
5 3 7 2
6 4 5 1
7 4 23 1
8 5 6 2
9 6 7 1
10 7 8 1
11 8 9 2
12 8 10 1
13 10 11 1
14 11 12 2
15 12 13 1
16 12 21 1
17 13 14 1
18 13 18 2
19 14 15 2
20 14 20 1
21 15 16 1
22 16 17 2
23 17 18 1
24 17 19 1
25 20 21 1
26 21 22 2
27 23 24 2
28 23 27 1
29 24 25 1
30 25 26 1
31 26 27 2
32 27 28 1
33 29 30 1
34 29 33 2
35 30 31 1
36 30 34 1
37 31 32 2
38 32 33 1
39 2 35 1
40 2 36 1
41 10 37 1
42 15 38 1
43 16 39 1
44 18 40 1
45 20 41 1
46 28 42 1
47 28 43 1
48 31 44 1
49 34 45 1
50 34 46 1
51 34 47 1
@<TRIPOS>SUBSTRUCTURE
1	UNK0	1	GROUP	1 ****	UNK
