# created with PyMOL 2.3.2
@<TRIPOS>MOLECULE
1141
33 36 1                 
SMALL
USER_CHARGES
@<TRIPOS>ATOM
1	   S	-0.390	-3.700	-1.632	S.2	1	UNK0	0.000	
2	   C	-0.110	-2.129	-1.285	C.2	1	UNK0	0.000	
3	   N	-0.659	-1.489	-0.237	N.pl3	1	UNK0	0.000	
4	   N	-0.194	-0.230	-0.287	N.2	1	UNK0	0.000	
5	   C	0.621	-0.104	-1.342	C.2	1	UNK0	0.000	
6	   O	0.664	-1.266	-1.939	O.3	1	UNK0	0.000	
7	   C	1.334	1.117	-1.748	C.2	1	UNK0	0.000	
8	   C	2.150	1.122	-2.859	C.2	1	UNK0	0.000	
9	   C	2.843	2.235	-3.288	C.2	1	UNK0	0.000	
10	   C	2.687	3.391	-2.537	C.2	1	UNK0	0.000	
11	   C	1.881	3.430	-1.419	C.2	1	UNK0	0.000	
12	   C	1.210	2.278	-1.038	C.2	1	UNK0	0.000	
13	  Br	2.318	-0.507	-3.846	Br	1	UNK0	0.000	
14	   C	-1.574	-2.000	0.775	C.3	1	UNK0	0.000	
15	   C	-2.776	-1.115	0.907	C.3	1	UNK0	0.000	
16	   O	-2.723	-0.241	1.970	O.3	1	UNK0	0.000	
17	   C	-2.901	-1.120	3.060	C.3	1	UNK0	0.000	
18	   O	-3.843	-2.044	2.661	O.3	1	UNK0	0.000	
19	   C	-3.956	-2.000	1.294	C.3	1	UNK0	0.000	
20	   C	-1.595	-1.787	3.252	C.2	1	UNK0	0.000	
21	   O	-1.143	-1.906	4.360	O.2	1	UNK0	0.000	
22	   C	-0.879	-2.293	2.061	C.3	1	UNK0	0.000	
23	   H	3.481	2.211	-4.171	 H	1	UNK0	0.000	
24	   H	3.229	4.275	-2.867	 H	1	UNK0	0.000	
25	   H	1.796	4.367	-0.867	 H	1	UNK0	0.000	
26	   H	0.579	2.306	-0.163	 H	1	UNK0	0.000	
27	   H	-1.949	-2.980	0.361	 H	1	UNK0	0.000	
28	   H	-2.952	-0.577	-0.026	 H	1	UNK0	0.000	
29	   H	-3.256	-0.590	3.961	 H	1	UNK0	0.000	
30	   H	-4.908	-1.530	0.965	 H	1	UNK0	0.000	
31	   H	-3.790	-2.974	0.797	 H	1	UNK0	0.000	
32	   H	-0.756	-3.405	2.225	 H	1	UNK0	0.000	
33	   H	0.187	-1.917	2.048	 H	1	UNK0	0.000	
@<TRIPOS>BOND
1 1 2 2
2 2 3 1
3 2 6 1
4 3 4 1
5 3 14 1
6 4 5 2
7 5 6 1
8 5 7 1
9 7 8 2
10 7 12 1
11 8 9 1
12 8 13 1
13 9 10 2
14 10 11 1
15 11 12 2
16 14 15 1
17 14 22 1
18 15 16 1
19 15 19 1
20 16 17 1
21 17 18 1
22 17 20 1
23 18 19 1
24 20 21 2
25 20 22 1
26 9 23 1
27 10 24 1
28 11 25 1
29 12 26 1
30 14 27 1
31 15 28 1
32 17 29 1
33 19 30 1
34 19 31 1
35 22 32 1
36 22 33 1
@<TRIPOS>SUBSTRUCTURE
1	UNK0	1	GROUP	1 ****	UNK
