# created with PyMOL 2.3.2
@<TRIPOS>MOLECULE
1142
33 36 1                 
SMALL
USER_CHARGES
@<TRIPOS>ATOM
1	   S	1.166	-0.282	-3.256	S.2	1	UNK0	0.000	
2	   C	0.517	-0.494	-1.758	C.2	1	UNK0	0.000	
3	   N	-0.151	0.440	-1.068	N.pl3	1	UNK0	0.000	
4	   N	-0.503	-0.116	0.071	N.2	1	UNK0	0.000	
5	   C	-0.072	-1.382	0.115	C.2	1	UNK0	0.000	
6	   O	0.546	-1.570	-1.023	O.3	1	UNK0	0.000	
7	   C	-0.236	-2.368	1.183	C.2	1	UNK0	0.000	
8	   C	0.273	-3.642	1.072	C.2	1	UNK0	0.000	
9	   C	0.103	-4.565	2.107	C.2	1	UNK0	0.000	
10	   C	-0.573	-4.244	3.266	C.2	1	UNK0	0.000	
11	   C	-1.079	-2.966	3.367	C.2	1	UNK0	0.000	
12	   C	-0.910	-2.049	2.341	C.2	1	UNK0	0.000	
13	  Br	1.215	-4.119	-0.521	Br	1	UNK0	0.000	
14	   C	-0.432	1.820	-1.507	C.3	1	UNK0	0.000	
15	   C	0.724	2.731	-1.264	C.3	1	UNK0	0.000	
16	   O	0.385	3.809	-0.410	O.3	1	UNK0	0.000	
17	   C	0.246	3.117	0.817	C.3	1	UNK0	0.000	
18	   O	1.260	2.178	0.845	O.3	1	UNK0	0.000	
19	   C	1.812	2.095	-0.411	C.3	1	UNK0	0.000	
20	   C	-1.093	2.448	0.724	C.2	1	UNK0	0.000	
21	   O	-1.674	2.079	1.705	O.2	1	UNK0	0.000	
22	   C	-1.615	2.293	-0.674	C.3	1	UNK0	0.000	
23	   H	0.504	-5.576	2.025	 H	1	UNK0	0.000	
24	   H	-0.699	-4.977	4.068	 H	1	UNK0	0.000	
25	   H	-1.610	-2.698	4.268	 H	1	UNK0	0.000	
26	   H	-1.305	-1.047	2.416	 H	1	UNK0	0.000	
27	   H	-0.772	1.819	-2.573	 H	1	UNK0	0.000	
28	   H	1.142	3.173	-2.192	 H	1	UNK0	0.000	
29	   H	0.299	3.822	1.667	 H	1	UNK0	0.000	
30	   H	2.096	1.101	-0.738	 H	1	UNK0	0.000	
31	   H	2.671	2.826	-0.435	 H	1	UNK0	0.000	
32	   H	-2.449	1.562	-0.703	 H	1	UNK0	0.000	
33	   H	-1.949	3.302	-0.985	 H	1	UNK0	0.000	
@<TRIPOS>BOND
1 1 2 2
2 2 3 1
3 2 6 1
4 3 4 1
5 3 14 1
6 4 5 2
7 5 6 1
8 5 7 1
9 7 8 2
10 7 12 1
11 8 9 1
12 8 13 1
13 9 10 2
14 10 11 1
15 11 12 2
16 14 15 1
17 14 22 1
18 15 16 1
19 15 19 1
20 16 17 1
21 17 18 1
22 17 20 1
23 18 19 1
24 20 21 2
25 20 22 1
26 9 23 1
27 10 24 1
28 11 25 1
29 12 26 1
30 14 27 1
31 15 28 1
32 17 29 1
33 19 30 1
34 19 31 1
35 22 32 1
36 22 33 1
@<TRIPOS>SUBSTRUCTURE
1	UNK0	1	GROUP	1 ****	UNK
