# created with PyMOL 2.3.2
@<TRIPOS>MOLECULE
1144
44 47 1                 
SMALL
USER_CHARGES
@<TRIPOS>ATOM
1	   S	2.182	2.730	-3.239	S.O2	1	UNK0	0.000	
2	   O	2.946	3.950	-2.845	O.2	1	UNK0	0.000	
3	   O	1.953	2.608	-4.692	O.2	1	UNK0	0.000	
4	   C	0.636	2.656	-2.312	C.3	1	UNK0	0.000	
5	   C	1.000	1.906	-1.088	C.3	1	UNK0	0.000	
6	   C	2.313	1.265	-1.169	C.3	1	UNK0	0.000	
7	   C	2.910	1.274	-2.522	C.3	1	UNK0	0.000	
8	   N	-0.095	0.887	-0.744	N.pl3	1	UNK0	0.000	
9	   C	-0.241	-0.159	-1.680	C.3	1	UNK0	0.000	
10	   C	-1.448	-0.991	-1.831	C.3	1	UNK0	0.000	
11	   C	-0.169	-1.597	-1.266	C.3	1	UNK0	0.000	
12	   C	-0.735	1.104	0.456	C.2	1	UNK0	0.000	
13	   O	-0.169	2.133	1.136	O.2	1	UNK0	0.000	
14	   C	-1.849	0.562	1.214	C.3	1	UNK0	0.000	
15	   N	-1.568	-0.419	2.228	N.pl3	1	UNK0	0.000	
16	   C	-0.995	0.017	3.398	C.2	1	UNK0	0.000	
17	   N	-0.646	-0.829	4.370	N.2	1	UNK0	0.000	
18	   C	-0.817	-2.159	4.300	C.2	1	UNK0	0.000	
19	   C	-1.392	-2.629	3.138	C.2	1	UNK0	0.000	
20	   C	-1.589	-3.984	3.016	C.2	1	UNK0	0.000	
21	   C	-1.221	-4.848	4.032	C.2	1	UNK0	0.000	
22	   C	-0.645	-4.394	5.201	C.2	1	UNK0	0.000	
23	   C	-0.452	-3.029	5.311	C.2	1	UNK0	0.000	
24	  Br	-1.508	-6.713	3.830	Br	1	UNK0	0.000	
25	   C	-1.752	-1.738	2.132	C.2	1	UNK0	0.000	
26	   O	-2.280	-2.234	1.105	O.2	1	UNK0	0.000	
27	   H	0.205	3.644	-2.165	 H	1	UNK0	0.000	
28	   H	-0.062	2.068	-2.951	 H	1	UNK0	0.000	
29	   H	0.994	2.601	-0.242	 H	1	UNK0	0.000	
30	   H	2.227	0.233	-0.742	 H	1	UNK0	0.000	
31	   H	3.060	1.758	-0.473	 H	1	UNK0	0.000	
32	   H	4.019	1.376	-2.458	 H	1	UNK0	0.000	
33	   H	2.654	0.408	-3.169	 H	1	UNK0	0.000	
34	   H	0.373	-0.008	-2.633	 H	1	UNK0	0.000	
35	   H	-2.357	-0.926	-1.247	 H	1	UNK0	0.000	
36	   H	-1.702	-1.364	-2.889	 H	1	UNK0	0.000	
37	   H	-0.144	-1.884	-0.237	 H	1	UNK0	0.000	
38	   H	0.376	-2.288	-1.953	 H	1	UNK0	0.000	
39	   H	-2.316	1.461	1.784	 H	1	UNK0	0.000	
40	   H	-2.698	0.191	0.601	 H	1	UNK0	0.000	
41	   H	-0.848	1.095	3.472	 H	1	UNK0	0.000	
42	   H	-2.047	-4.353	2.089	 H	1	UNK0	0.000	
43	   H	-0.350	-5.055	6.006	 H	1	UNK0	0.000	
44	   H	0.001	-2.624	6.217	 H	1	UNK0	0.000	
@<TRIPOS>BOND
1 1 2 2
2 1 3 2
3 1 4 1
4 1 7 1
5 4 5 1
6 5 6 1
7 5 8 1
8 6 7 1
9 8 9 1
10 8 12 1
11 9 10 1
12 9 11 1
13 10 11 1
14 12 13 2
15 12 14 1
16 14 15 1
17 15 16 1
18 15 25 1
19 16 17 2
20 17 18 1
21 18 19 2
22 18 23 1
23 19 20 1
24 19 25 1
25 20 21 2
26 21 22 1
27 21 24 1
28 22 23 2
29 25 26 2
30 4 27 1
31 4 28 1
32 5 29 1
33 6 30 1
34 6 31 1
35 7 32 1
36 7 33 1
37 9 34 1
38 10 35 1
39 10 36 1
40 11 37 1
41 11 38 1
42 14 39 1
43 14 40 1
44 16 41 1
45 20 42 1
46 22 43 1
47 23 44 1
@<TRIPOS>SUBSTRUCTURE
1	UNK0	1	GROUP	1 ****	UNK
