# created with PyMOL 2.3.2
@<TRIPOS>MOLECULE
1145
43 46 1                 
SMALL
USER_CHARGES
@<TRIPOS>ATOM
1	   S	1.970	0.088	3.317	S.O2	1	UNK0	0.000	
2	   O	1.884	-0.650	4.610	O.2	1	UNK0	0.000	
3	   O	1.220	1.398	3.355	O.2	1	UNK0	0.000	
4	   C	1.349	-0.915	1.956	C.3	1	UNK0	0.000	
5	   C	2.242	-0.438	0.856	C.3	1	UNK0	0.000	
6	   C	3.634	-0.260	1.384	C.3	1	UNK0	0.000	
7	   C	3.625	0.324	2.737	C.3	1	UNK0	0.000	
8	   N	1.731	0.688	0.144	N.pl3	1	UNK0	0.000	
9	   C	1.692	0.741	-1.256	C.2	1	UNK0	0.000	
10	   O	2.154	-0.256	-1.921	O.2	1	UNK0	0.000	
11	   C	1.148	1.863	-2.065	C.3	1	UNK0	0.000	
12	   C	-0.391	1.628	-2.079	C.3	1	UNK0	0.000	
13	   N	-0.803	1.950	-0.749	N.pl3	1	UNK0	0.000	
14	   C	0.005	3.106	-0.412	C.2	1	UNK0	0.000	
15	   O	-0.220	3.932	0.490	O.2	1	UNK0	0.000	
16	   C	1.186	3.180	-1.325	C.3	1	UNK0	0.000	
17	   C	-1.731	1.381	0.159	C.2	1	UNK0	0.000	
18	   N	-1.805	1.649	1.504	N.2	1	UNK0	0.000	
19	   N	-2.770	0.949	2.059	N.pl3	1	UNK0	0.000	
20	   C	-3.386	0.185	1.140	C.2	1	UNK0	0.000	
21	   C	-2.721	0.465	-0.064	C.2	1	UNK0	0.000	
22	   C	-3.174	-0.212	-1.183	C.2	1	UNK0	0.000	
23	   C	-4.206	-1.105	-1.128	C.2	1	UNK0	0.000	
24	   C	-4.843	-1.368	0.057	C.2	1	UNK0	0.000	
25	   C	-4.427	-0.715	1.196	C.2	1	UNK0	0.000	
26	  Br	-6.296	-2.639	0.140	Br	1	UNK0	0.000	
27	   H	0.299	-0.602	1.789	 H	1	UNK0	0.000	
28	   H	1.414	-1.981	2.169	 H	1	UNK0	0.000	
29	   H	2.327	-1.275	0.097	 H	1	UNK0	0.000	
30	   H	4.201	-1.222	1.309	 H	1	UNK0	0.000	
31	   H	4.165	0.449	0.685	 H	1	UNK0	0.000	
32	   H	3.952	1.370	2.815	 H	1	UNK0	0.000	
33	   H	4.290	-0.302	3.407	 H	1	UNK0	0.000	
34	   H	1.380	1.492	0.714	 H	1	UNK0	0.000	
35	   H	1.549	1.893	-3.081	 H	1	UNK0	0.000	
36	   H	-0.465	0.567	-2.368	 H	1	UNK0	0.000	
37	   H	-0.800	2.296	-2.862	 H	1	UNK0	0.000	
38	   H	2.078	3.164	-0.675	 H	1	UNK0	0.000	
39	   H	1.163	4.047	-1.974	 H	1	UNK0	0.000	
40	   H	-3.010	0.992	3.065	 H	1	UNK0	0.000	
41	   H	-2.658	0.024	-2.124	 H	1	UNK0	0.000	
42	   H	-4.506	-1.602	-2.017	 H	1	UNK0	0.000	
43	   H	-4.918	-0.906	2.137	 H	1	UNK0	0.000	
@<TRIPOS>BOND
1 1 2 2
2 1 3 2
3 1 4 1
4 1 7 1
5 4 5 1
6 5 6 1
7 5 8 1
8 6 7 1
9 8 9 1
10 9 10 2
11 9 11 1
12 11 12 1
13 11 16 1
14 12 13 1
15 13 14 1
16 13 17 1
17 14 15 2
18 14 16 1
19 17 18 2
20 17 21 1
21 18 19 1
22 19 20 1
23 20 21 2
24 20 25 1
25 21 22 1
26 22 23 2
27 23 24 1
28 24 25 2
29 24 26 1
30 4 27 1
31 4 28 1
32 5 29 1
33 6 30 1
34 6 31 1
35 7 32 1
36 7 33 1
37 8 34 1
38 11 35 1
39 12 36 1
40 12 37 1
41 16 38 1
42 16 39 1
43 19 40 1
44 22 41 1
45 23 42 1
46 25 43 1
@<TRIPOS>SUBSTRUCTURE
1	UNK0	1	GROUP	1 ****	UNK
