# created with PyMOL 2.3.2
@<TRIPOS>MOLECULE
1146
43 46 1                 
SMALL
USER_CHARGES
@<TRIPOS>ATOM
1	   S	0.455	-4.883	1.455	S.O2	1	UNK0	0.000	
2	   O	-0.633	-4.537	2.405	O.2	1	UNK0	0.000	
3	   O	0.644	-6.365	1.317	O.2	1	UNK0	0.000	
4	   C	0.239	-4.113	-0.139	C.3	1	UNK0	0.000	
5	   C	1.393	-3.118	-0.190	C.3	1	UNK0	0.000	
6	   C	2.525	-3.716	0.550	C.3	1	UNK0	0.000	
7	   C	2.005	-4.144	1.918	C.3	1	UNK0	0.000	
8	   N	0.978	-1.805	0.239	N.pl3	1	UNK0	0.000	
9	   C	0.701	-0.752	-0.671	C.2	1	UNK0	0.000	
10	   O	0.814	-0.940	-1.934	O.2	1	UNK0	0.000	
11	   C	0.278	0.596	-0.294	C.3	1	UNK0	0.000	
12	   C	1.423	1.535	0.071	C.3	1	UNK0	0.000	
13	   N	0.607	2.696	0.467	N.pl3	1	UNK0	0.000	
14	   C	-0.324	2.097	1.395	C.2	1	UNK0	0.000	
15	   O	-0.894	2.658	2.360	O.2	1	UNK0	0.000	
16	   C	-0.512	0.653	1.014	C.3	1	UNK0	0.000	
17	   C	0.645	4.041	0.082	C.2	1	UNK0	0.000	
18	   N	0.976	5.070	0.875	N.pl3	1	UNK0	0.000	
19	   N	0.896	6.207	0.219	N.2	1	UNK0	0.000	
20	   C	0.505	5.991	-1.053	C.2	1	UNK0	0.000	
21	   C	0.346	4.606	-1.139	C.2	1	UNK0	0.000	
22	   C	-0.053	4.095	-2.333	C.2	1	UNK0	0.000	
23	   C	-0.303	4.864	-3.444	C.2	1	UNK0	0.000	
24	   C	-0.132	6.243	-3.318	C.2	1	UNK0	0.000	
25	   C	0.267	6.805	-2.135	C.2	1	UNK0	0.000	
26	  Br	-0.462	7.390	-4.817	Br	1	UNK0	0.000	
27	   H	-0.751	-3.638	-0.264	 H	1	UNK0	0.000	
28	   H	0.323	-4.906	-0.903	 H	1	UNK0	0.000	
29	   H	1.648	-3.074	-1.268	 H	1	UNK0	0.000	
30	   H	2.827	-4.660	0.048	 H	1	UNK0	0.000	
31	   H	3.343	-2.993	0.636	 H	1	UNK0	0.000	
32	   H	2.699	-4.839	2.395	 H	1	UNK0	0.000	
33	   H	1.856	-3.205	2.491	 H	1	UNK0	0.000	
34	   H	0.887	-1.660	1.262	 H	1	UNK0	0.000	
35	   H	-0.388	1.018	-1.074	 H	1	UNK0	0.000	
36	   H	2.091	1.767	-0.757	 H	1	UNK0	0.000	
37	   H	1.924	1.131	0.949	 H	1	UNK0	0.000	
38	   H	-1.577	0.465	0.894	 H	1	UNK0	0.000	
39	   H	-0.033	0.036	1.816	 H	1	UNK0	0.000	
40	   H	1.268	5.046	1.892	 H	1	UNK0	0.000	
41	   H	-0.186	3.025	-2.430	 H	1	UNK0	0.000	
42	   H	-0.621	4.424	-4.386	 H	1	UNK0	0.000	
43	   H	0.393	7.868	-2.061	 H	1	UNK0	0.000	
@<TRIPOS>BOND
1 1 2 2
2 1 3 2
3 1 4 1
4 1 7 1
5 4 5 1
6 5 6 1
7 5 8 1
8 6 7 1
9 8 9 1
10 9 10 2
11 9 11 1
12 11 12 1
13 11 16 1
14 12 13 1
15 13 14 1
16 13 17 1
17 14 15 2
18 14 16 1
19 17 18 1
20 17 21 2
21 18 19 1
22 19 20 2
23 20 21 1
24 20 25 1
25 21 22 1
26 22 23 2
27 23 24 1
28 24 25 2
29 24 26 1
30 4 27 1
31 4 28 1
32 5 29 1
33 6 30 1
34 6 31 1
35 7 32 1
36 7 33 1
37 8 34 1
38 11 35 1
39 12 36 1
40 12 37 1
41 16 38 1
42 16 39 1
43 18 40 1
44 22 41 1
45 23 42 1
46 25 43 1
@<TRIPOS>SUBSTRUCTURE
1	UNK0	1	GROUP	1 ****	UNK
