# created with PyMOL 2.3.2
@<TRIPOS>MOLECULE
1147
44 47 1                 
SMALL
USER_CHARGES
@<TRIPOS>ATOM
1	   S	-3.457	2.702	-1.029	S.O2	1	UNK0	0.000	
2	   O	-3.508	3.865	-1.944	O.2	1	UNK0	0.000	
3	   O	-3.736	3.042	0.398	O.2	1	UNK0	0.000	
4	   C	-1.875	1.850	-1.170	C.3	1	UNK0	0.000	
5	   C	-2.320	0.662	-2.037	C.3	1	UNK0	0.000	
6	   C	-3.562	0.181	-1.373	C.3	1	UNK0	0.000	
7	   C	-4.525	1.367	-1.593	C.3	1	UNK0	0.000	
8	   N	-1.258	-0.273	-2.148	N.pl3	1	UNK0	0.000	
9	   C	-0.582	-0.925	-1.074	C.2	1	UNK0	0.000	
10	   C	0.662	-0.499	-0.714	C.2	1	UNK0	0.000	
11	   C	1.314	-1.186	0.382	C.2	1	UNK0	0.000	
12	   O	2.464	-0.855	0.779	O.2	1	UNK0	0.000	
13	   C	0.725	-2.311	1.130	C.2	1	UNK0	0.000	
14	   C	-0.524	-2.725	0.752	C.2	1	UNK0	0.000	
15	   C	-1.095	-3.781	1.442	C.2	1	UNK0	0.000	
16	   C	-0.439	-4.410	2.483	C.2	1	UNK0	0.000	
17	   C	0.817	-3.989	2.857	C.2	1	UNK0	0.000	
18	   C	1.391	-2.926	2.162	C.2	1	UNK0	0.000	
19	   C	-1.166	-2.027	-0.347	C.2	1	UNK0	0.000	
20	   O	-2.333	-2.428	-0.689	O.2	1	UNK0	0.000	
21	   N	1.206	0.565	-1.463	N.pl3	1	UNK0	0.000	
22	   C	2.437	1.203	-1.325	C.2	1	UNK0	0.000	
23	   O	3.299	0.922	-0.474	O.2	1	UNK0	0.000	
24	   C	2.757	2.325	-2.281	C.2	1	UNK0	0.000	
25	   O	1.988	2.767	-3.240	O.3	1	UNK0	0.000	
26	   C	2.529	3.750	-3.907	C.2	1	UNK0	0.000	
27	   C	3.770	3.974	-3.334	C.2	1	UNK0	0.000	
28	   C	3.907	3.066	-2.302	C.2	1	UNK0	0.000	
29	  Br	1.786	4.716	-5.392	Br	1	UNK0	0.000	
30	   H	-1.151	2.482	-1.712	 H	1	UNK0	0.000	
31	   H	-1.530	1.507	-0.183	 H	1	UNK0	0.000	
32	   H	-2.623	1.099	-3.017	 H	1	UNK0	0.000	
33	   H	-3.446	0.023	-0.273	 H	1	UNK0	0.000	
34	   H	-4.025	-0.664	-1.876	 H	1	UNK0	0.000	
35	   H	-4.711	1.442	-2.667	 H	1	UNK0	0.000	
36	   H	-5.405	1.257	-0.962	 H	1	UNK0	0.000	
37	   H	-0.919	-0.526	-3.112	 H	1	UNK0	0.000	
38	   H	-2.085	-4.109	1.143	 H	1	UNK0	0.000	
39	   H	-0.882	-5.231	3.020	 H	1	UNK0	0.000	
40	   H	1.351	-4.474	3.677	 H	1	UNK0	0.000	
41	   H	2.380	-2.587	2.450	 H	1	UNK0	0.000	
42	   H	0.608	0.959	-2.275	 H	1	UNK0	0.000	
43	   H	4.501	4.709	-3.621	 H	1	UNK0	0.000	
44	   H	4.755	2.943	-1.625	 H	1	UNK0	0.000	
@<TRIPOS>BOND
1 1 2 2
2 1 3 2
3 1 4 1
4 1 7 1
5 4 5 1
6 5 6 1
7 5 8 1
8 6 7 1
9 8 9 1
10 9 10 2
11 9 19 1
12 10 11 1
13 10 21 1
14 11 12 2
15 11 13 1
16 13 14 2
17 13 18 1
18 14 15 1
19 14 19 1
20 15 16 2
21 16 17 1
22 17 18 2
23 19 20 2
24 21 22 1
25 22 23 2
26 22 24 1
27 24 25 1
28 24 28 2
29 25 26 1
30 26 27 2
31 26 29 1
32 27 28 1
33 4 30 1
34 4 31 1
35 5 32 1
36 6 33 1
37 6 34 1
38 7 35 1
39 7 36 1
40 8 37 1
41 15 38 1
42 16 39 1
43 17 40 1
44 18 41 1
45 21 42 1
46 27 43 1
47 28 44 1
@<TRIPOS>SUBSTRUCTURE
1	UNK0	1	GROUP	1 ****	UNK
