# created with PyMOL 2.3.2
@<TRIPOS>MOLECULE
1148
48 51 1                 
SMALL
USER_CHARGES
@<TRIPOS>ATOM
1	   S	2.710	-2.260	-3.063	S.O2	1	UNK0	0.000	
2	   O	3.003	-3.402	-2.166	O.2	1	UNK0	0.000	
3	   O	3.351	-2.383	-4.413	O.2	1	UNK0	0.000	
4	   C	0.946	-2.027	-3.218	C.3	1	UNK0	0.000	
5	   C	0.743	-0.910	-2.184	C.3	1	UNK0	0.000	
6	   C	1.812	0.062	-2.562	C.3	1	UNK0	0.000	
7	   C	3.128	-0.684	-2.298	C.3	1	UNK0	0.000	
8	   N	-0.553	-0.340	-2.302	N.3	1	UNK0	0.000	
9	   C	-0.800	0.692	-1.365	C.3	1	UNK0	0.000	
10	   C	-0.936	0.167	0.064	C.3	1	UNK0	0.000	
11	   N	-1.980	-0.802	0.105	N.pl3	1	UNK0	0.000	
12	   C	-2.237	-1.650	-1.056	C.3	1	UNK0	0.000	
13	   C	-1.646	-1.252	-2.332	C.3	1	UNK0	0.000	
14	   C	-2.803	-1.042	1.223	C.2	1	UNK0	0.000	
15	   O	-3.699	-1.980	1.028	O.2	1	UNK0	0.000	
16	   C	-2.859	-0.468	2.538	C.3	1	UNK0	0.000	
17	   N	-2.057	0.640	2.920	N.pl3	1	UNK0	0.000	
18	   C	-2.387	1.953	2.866	C.2	1	UNK0	0.000	
19	   C	-1.348	2.705	3.344	C.2	1	UNK0	0.000	
20	   C	-0.332	1.853	3.711	C.2	1	UNK0	0.000	
21	   C	-0.799	0.596	3.438	C.2	1	UNK0	0.000	
22	   C	-1.433	4.108	3.396	C.2	1	UNK0	0.000	
23	   C	-2.574	4.748	2.963	C.2	1	UNK0	0.000	
24	   C	-3.607	3.997	2.488	C.2	1	UNK0	0.000	
25	   C	-3.519	2.608	2.438	C.2	1	UNK0	0.000	
26	  Br	-5.185	4.895	1.889	Br	1	UNK0	0.000	
27	   H	0.456	-2.954	-2.933	 H	1	UNK0	0.000	
28	   H	0.689	-1.655	-4.227	 H	1	UNK0	0.000	
29	   H	0.972	-1.369	-1.206	 H	1	UNK0	0.000	
30	   H	1.784	1.017	-2.016	 H	1	UNK0	0.000	
31	   H	1.779	0.213	-3.663	 H	1	UNK0	0.000	
32	   H	3.975	-0.220	-2.805	 H	1	UNK0	0.000	
33	   H	3.217	-0.793	-1.214	 H	1	UNK0	0.000	
34	   H	-0.089	1.540	-1.405	 H	1	UNK0	0.000	
35	   H	-1.804	1.146	-1.595	 H	1	UNK0	0.000	
36	   H	-1.089	1.079	0.663	 H	1	UNK0	0.000	
37	   H	0.051	-0.249	0.405	 H	1	UNK0	0.000	
38	   H	-1.892	-2.701	-0.815	 H	1	UNK0	0.000	
39	   H	-3.358	-1.761	-1.114	 H	1	UNK0	0.000	
40	   H	-2.457	-0.734	-2.935	 H	1	UNK0	0.000	
41	   H	-1.428	-2.157	-2.979	 H	1	UNK0	0.000	
42	   H	-3.927	-0.183	2.836	 H	1	UNK0	0.000	
43	   H	-2.645	-1.281	3.302	 H	1	UNK0	0.000	
44	   H	0.613	2.174	4.122	 H	1	UNK0	0.000	
45	   H	-0.202	-0.300	3.629	 H	1	UNK0	0.000	
46	   H	-0.584	4.662	3.783	 H	1	UNK0	0.000	
47	   H	-2.622	5.844	3.012	 H	1	UNK0	0.000	
48	   H	-4.338	2.014	2.060	 H	1	UNK0	0.000	
@<TRIPOS>BOND
1 1 2 2
2 1 3 2
3 1 4 1
4 1 7 1
5 4 5 1
6 5 6 1
7 5 8 1
8 6 7 1
9 8 9 1
10 8 13 1
11 9 10 1
12 10 11 1
13 11 12 1
14 11 14 1
15 12 13 1
16 14 15 2
17 14 16 1
18 16 17 1
19 17 18 1
20 17 21 1
21 18 19 2
22 18 25 1
23 19 20 1
24 19 22 1
25 20 21 2
26 22 23 2
27 23 24 1
28 24 25 2
29 24 26 1
30 4 27 1
31 4 28 1
32 5 29 1
33 6 30 1
34 6 31 1
35 7 32 1
36 7 33 1
37 9 34 1
38 9 35 1
39 10 36 1
40 10 37 1
41 12 38 1
42 12 39 1
43 13 40 1
44 13 41 1
45 16 42 1
46 16 43 1
47 20 44 1
48 21 45 1
49 22 46 1
50 23 47 1
51 25 48 1
@<TRIPOS>SUBSTRUCTURE
1	UNK0	1	GROUP	1 ****	UNK
