# created with PyMOL 2.3.2
@<TRIPOS>MOLECULE
1149
46 49 1                 
SMALL
USER_CHARGES
@<TRIPOS>ATOM
1	   S	2.812	-2.803	-1.949	S.O2	1	UNK0	0.000	
2	   O	2.807	-2.937	-3.420	O.2	1	UNK0	0.000	
3	   O	4.175	-2.594	-1.374	O.2	1	UNK0	0.000	
4	   C	1.640	-1.604	-1.361	C.3	1	UNK0	0.000	
5	   C	0.352	-2.391	-1.307	C.3	1	UNK0	0.000	
6	   C	0.576	-3.833	-1.358	C.3	1	UNK0	0.000	
7	   C	1.999	-4.205	-1.166	C.3	1	UNK0	0.000	
8	   N	-0.451	-1.871	-0.284	N.3	1	UNK0	0.000	
9	   C	-0.039	-1.906	1.047	C.3	1	UNK0	0.000	
10	   C	-0.441	-0.641	1.782	C.3	1	UNK0	0.000	
11	   N	-1.764	-0.286	1.260	N.pl3	1	UNK0	0.000	
12	   C	-2.600	-1.362	0.748	C.3	1	UNK0	0.000	
13	   C	-1.865	-2.099	-0.384	C.3	1	UNK0	0.000	
14	   C	-2.215	1.053	1.249	C.2	1	UNK0	0.000	
15	   O	-3.348	1.312	0.798	O.2	1	UNK0	0.000	
16	   C	-1.391	2.137	1.750	C.2	1	UNK0	0.000	
17	   C	-0.535	2.778	0.845	C.2	1	UNK0	0.000	
18	   C	0.279	3.816	1.247	C.2	1	UNK0	0.000	
19	   C	0.231	4.206	2.551	C.2	1	UNK0	0.000	
20	   C	-0.604	3.586	3.452	C.2	1	UNK0	0.000	
21	   C	-1.408	2.560	3.053	C.2	1	UNK0	0.000	
22	  Br	-0.589	4.217	5.264	Br	1	UNK0	0.000	
23	   N	-0.516	2.346	-0.489	N.pl3	1	UNK0	0.000	
24	   N	0.430	1.689	-1.097	N.2	1	UNK0	0.000	
25	   N	0.018	1.495	-2.348	N.2	1	UNK0	0.000	
26	   N	-1.179	2.024	-2.527	N.2	1	UNK0	0.000	
27	   C	-1.531	2.565	-1.366	C.2	1	UNK0	0.000	
28	   H	1.988	-1.308	-0.340	 H	1	UNK0	0.000	
29	   H	1.637	-0.772	-2.067	 H	1	UNK0	0.000	
30	   H	-0.170	-2.097	-2.276	 H	1	UNK0	0.000	
31	   H	0.253	-4.304	-2.336	 H	1	UNK0	0.000	
32	   H	-0.004	-4.429	-0.593	 H	1	UNK0	0.000	
33	   H	2.307	-4.263	-0.109	 H	1	UNK0	0.000	
34	   H	2.303	-5.126	-1.660	 H	1	UNK0	0.000	
35	   H	-0.631	-2.725	1.563	 H	1	UNK0	0.000	
36	   H	1.013	-2.186	1.240	 H	1	UNK0	0.000	
37	   H	0.223	0.186	1.521	 H	1	UNK0	0.000	
38	   H	-0.515	-0.821	2.883	 H	1	UNK0	0.000	
39	   H	-3.510	-0.909	0.306	 H	1	UNK0	0.000	
40	   H	-2.936	-2.056	1.540	 H	1	UNK0	0.000	
41	   H	-2.043	-3.178	-0.198	 H	1	UNK0	0.000	
42	   H	-2.301	-1.847	-1.347	 H	1	UNK0	0.000	
43	   H	0.927	4.285	0.512	 H	1	UNK0	0.000	
44	   H	0.884	5.026	2.837	 H	1	UNK0	0.000	
45	   H	-2.078	2.059	3.763	 H	1	UNK0	0.000	
46	   H	-2.454	3.085	-1.153	 H	1	UNK0	0.000	
@<TRIPOS>BOND
1 1 2 2
2 1 3 2
3 1 4 1
4 1 7 1
5 4 5 1
6 5 6 1
7 5 8 1
8 6 7 1
9 8 9 1
10 8 13 1
11 9 10 1
12 10 11 1
13 11 12 1
14 11 14 1
15 12 13 1
16 14 15 2
17 14 16 1
18 16 17 1
19 16 21 2
20 17 18 2
21 17 23 1
22 18 19 1
23 19 20 2
24 20 21 1
25 20 22 1
26 23 24 1
27 23 27 1
28 24 25 2
29 25 26 1
30 26 27 2
31 4 28 1
32 4 29 1
33 5 30 1
34 6 31 1
35 6 32 1
36 7 33 1
37 7 34 1
38 9 35 1
39 9 36 1
40 10 37 1
41 10 38 1
42 12 39 1
43 12 40 1
44 13 41 1
45 13 42 1
46 18 43 1
47 19 44 1
48 21 45 1
49 27 46 1
@<TRIPOS>SUBSTRUCTURE
1	UNK0	1	GROUP	1 ****	UNK
