# created with PyMOL 2.3.2
@<TRIPOS>MOLECULE
1150
45 48 1                 
SMALL
USER_CHARGES
@<TRIPOS>ATOM
1	   S	1.128	-3.934	-3.319	S.O2	1	UNK0	0.000	
2	   O	2.132	-3.912	-4.428	O.2	1	UNK0	0.000	
3	   O	0.612	-5.294	-3.025	O.2	1	UNK0	0.000	
4	   C	-0.217	-2.805	-3.622	C.3	1	UNK0	0.000	
5	   C	-0.404	-2.271	-2.190	C.3	1	UNK0	0.000	
6	   C	0.985	-1.835	-1.849	C.3	1	UNK0	0.000	
7	   C	1.794	-3.142	-1.847	C.3	1	UNK0	0.000	
8	   N	-1.411	-1.329	-2.166	N.3	1	UNK0	0.000	
9	   C	-1.349	-0.121	-2.866	C.3	1	UNK0	0.000	
10	   C	-2.224	0.969	-2.219	C.3	1	UNK0	0.000	
11	   N	-1.751	1.186	-0.834	N.pl3	1	UNK0	0.000	
12	   C	-1.564	-0.011	-0.069	C.3	1	UNK0	0.000	
13	   C	-2.027	-1.209	-0.874	C.3	1	UNK0	0.000	
14	   C	-1.523	2.491	-0.367	C.2	1	UNK0	0.000	
15	   O	-1.756	3.415	-1.224	O.2	1	UNK0	0.000	
16	   C	-1.068	2.909	0.933	C.2	1	UNK0	0.000	
17	   N	-0.872	4.217	1.304	N.pl3	1	UNK0	0.000	
18	   C	-0.452	4.292	2.564	C.2	1	UNK0	0.000	
19	   C	-0.347	3.037	3.096	C.2	1	UNK0	0.000	
20	   C	-0.740	2.187	2.051	C.2	1	UNK0	0.000	
21	   C	0.069	2.823	4.394	C.2	1	UNK0	0.000	
22	   C	0.400	3.888	5.215	C.2	1	UNK0	0.000	
23	   C	0.289	5.144	4.665	C.2	1	UNK0	0.000	
24	   C	-0.124	5.359	3.376	C.2	1	UNK0	0.000	
25	  Br	0.977	3.663	7.004	Br	1	UNK0	0.000	
26	   H	-1.125	-3.332	-3.963	 H	1	UNK0	0.000	
27	   H	0.104	-1.996	-4.302	 H	1	UNK0	0.000	
28	   H	-0.644	-3.158	-1.577	 H	1	UNK0	0.000	
29	   H	1.367	-1.207	-2.673	 H	1	UNK0	0.000	
30	   H	1.128	-1.411	-0.857	 H	1	UNK0	0.000	
31	   H	2.858	-2.932	-1.950	 H	1	UNK0	0.000	
32	   H	1.494	-3.706	-0.965	 H	1	UNK0	0.000	
33	   H	-1.826	-0.271	-3.879	 H	1	UNK0	0.000	
34	   H	-0.380	0.327	-3.045	 H	1	UNK0	0.000	
35	   H	-2.157	1.896	-2.789	 H	1	UNK0	0.000	
36	   H	-3.268	0.622	-2.205	 H	1	UNK0	0.000	
37	   H	-2.220	-0.011	0.831	 H	1	UNK0	0.000	
38	   H	-0.526	-0.091	0.242	 H	1	UNK0	0.000	
39	   H	-1.878	-2.126	-0.262	 H	1	UNK0	0.000	
40	   H	-3.120	-1.052	-1.045	 H	1	UNK0	0.000	
41	   H	-1.026	5.060	0.695	 H	1	UNK0	0.000	
42	   H	-0.750	1.126	2.198	 H	1	UNK0	0.000	
43	   H	0.142	1.820	4.782	 H	1	UNK0	0.000	
44	   H	0.546	5.992	5.302	 H	1	UNK0	0.000	
45	   H	-0.193	6.368	2.993	 H	1	UNK0	0.000	
@<TRIPOS>BOND
1 1 2 2
2 1 3 2
3 1 4 1
4 1 7 1
5 4 5 1
6 5 6 1
7 5 8 1
8 6 7 1
9 8 9 1
10 8 13 1
11 9 10 1
12 10 11 1
13 11 12 1
14 11 14 1
15 12 13 1
16 14 15 2
17 14 16 1
18 16 17 1
19 16 20 2
20 17 18 1
21 18 19 2
22 18 24 1
23 19 20 1
24 19 21 1
25 21 22 2
26 22 23 1
27 22 25 1
28 23 24 2
29 4 26 1
30 4 27 1
31 5 28 1
32 6 29 1
33 6 30 1
34 7 31 1
35 7 32 1
36 9 33 1
37 9 34 1
38 10 35 1
39 10 36 1
40 12 37 1
41 12 38 1
42 13 39 1
43 13 40 1
44 17 41 1
45 20 42 1
46 21 43 1
47 23 44 1
48 24 45 1
@<TRIPOS>SUBSTRUCTURE
1	UNK0	1	GROUP	1 ****	UNK
