# created with PyMOL 2.3.2
@<TRIPOS>MOLECULE
1151
39 42 1                 
SMALL
USER_CHARGES
@<TRIPOS>ATOM
1	   S	-1.416	-4.787	-0.294	S.O2	1	UNK0	0.000	
2	   O	-0.711	-6.072	-0.618	O.2	1	UNK0	0.000	
3	   O	-2.735	-5.030	0.385	O.2	1	UNK0	0.000	
4	   C	-0.401	-3.726	0.712	C.3	1	UNK0	0.000	
5	   C	-0.874	-2.314	0.434	C.3	1	UNK0	0.000	
6	   N	-0.484	-1.949	-0.913	N.pl3	1	UNK0	0.000	
7	   C	-0.521	-2.926	-1.981	C.3	1	UNK0	0.000	
8	   C	-1.728	-3.848	-1.796	C.3	1	UNK0	0.000	
9	   C	-0.123	-0.576	-0.836	C.2	1	UNK0	0.000	
10	   O	0.044	0.213	-1.827	O.2	1	UNK0	0.000	
11	   N	0.032	-0.172	0.518	N.pl3	1	UNK0	0.000	
12	   C	-0.237	-1.322	1.306	C.2	1	UNK0	0.000	
13	   O	0.018	-1.482	2.536	O.2	1	UNK0	0.000	
14	   C	0.393	1.143	1.026	C.3	1	UNK0	0.000	
15	   C	1.755	1.576	0.512	C.3	1	UNK0	0.000	
16	   C	2.053	2.914	1.192	C.3	1	UNK0	0.000	
17	   O	1.112	3.836	0.672	O.3	1	UNK0	0.000	
18	   C	-0.199	3.447	0.421	C.2	1	UNK0	0.000	
19	   C	-0.590	2.148	0.580	C.2	1	UNK0	0.000	
20	   C	-1.879	1.765	0.333	C.2	1	UNK0	0.000	
21	   C	-2.781	2.715	-0.082	C.2	1	UNK0	0.000	
22	   C	-2.374	4.016	-0.237	C.2	1	UNK0	0.000	
23	   C	-1.078	4.435	0.004	C.2	1	UNK0	0.000	
24	  Br	-0.527	6.241	-0.215	Br	1	UNK0	0.000	
25	   H	0.634	-3.790	0.288	 H	1	UNK0	0.000	
26	   H	-0.442	-3.994	1.778	 H	1	UNK0	0.000	
27	   H	-1.971	-2.207	0.499	 H	1	UNK0	0.000	
28	   H	0.383	-3.560	-2.008	 H	1	UNK0	0.000	
29	   H	-0.664	-2.453	-2.984	 H	1	UNK0	0.000	
30	   H	-2.667	-3.301	-1.746	 H	1	UNK0	0.000	
31	   H	-1.679	-4.582	-2.629	 H	1	UNK0	0.000	
32	   H	0.441	1.169	2.120	 H	1	UNK0	0.000	
33	   H	2.547	0.852	0.739	 H	1	UNK0	0.000	
34	   H	1.719	1.793	-0.575	 H	1	UNK0	0.000	
35	   H	1.789	2.773	2.270	 H	1	UNK0	0.000	
36	   H	3.082	3.237	1.049	 H	1	UNK0	0.000	
37	   H	-2.174	0.714	0.467	 H	1	UNK0	0.000	
38	   H	-3.806	2.424	-0.281	 H	1	UNK0	0.000	
39	   H	-3.101	4.746	-0.564	 H	1	UNK0	0.000	
@<TRIPOS>BOND
1 1 2 2
2 1 3 2
3 1 4 1
4 1 8 1
5 4 5 1
6 5 6 1
7 5 12 1
8 6 7 1
9 6 9 1
10 7 8 1
11 9 10 2
12 9 11 1
13 11 12 1
14 11 14 1
15 12 13 2
16 14 15 1
17 14 19 1
18 15 16 1
19 16 17 1
20 17 18 1
21 18 19 2
22 18 23 1
23 19 20 1
24 20 21 2
25 21 22 1
26 22 23 2
27 23 24 1
28 4 25 1
29 4 26 1
30 5 27 1
31 7 28 1
32 7 29 1
33 8 30 1
34 8 31 1
35 14 32 1
36 15 33 1
37 15 34 1
38 16 35 1
39 16 36 1
40 20 37 1
41 21 38 1
42 22 39 1
@<TRIPOS>SUBSTRUCTURE
1	UNK0	1	GROUP	1 ****	UNK
