# created with PyMOL 2.3.2
@<TRIPOS>MOLECULE
1156
44 47 1                 
SMALL
USER_CHARGES
@<TRIPOS>ATOM
1	   S	-0.345	-1.739	-1.515	S.O2	1	UNK0	0.000	
2	   O	0.932	-2.002	-2.243	O.2	1	UNK0	0.000	
3	   O	-1.455	-1.771	-2.536	O.2	1	UNK0	0.000	
4	   N	-0.664	-2.978	-0.328	N.pl3	1	UNK0	0.000	
5	   C	-0.835	-2.655	1.023	C.2	1	UNK0	0.000	
6	   N	-0.767	-1.460	1.447	N.2	1	UNK0	0.000	
7	   C	-0.527	-0.274	0.738	C.2	1	UNK0	0.000	
8	   C	-0.320	-0.263	-0.610	C.2	1	UNK0	0.000	
9	   C	-0.094	0.909	-1.237	C.2	1	UNK0	0.000	
10	   C	-0.060	2.129	-0.576	C.2	1	UNK0	0.000	
11	   C	-0.269	2.122	0.783	C.2	1	UNK0	0.000	
12	   C	-0.497	0.936	1.419	C.2	1	UNK0	0.000	
13	   S	0.236	3.600	-1.454	S.O2	1	UNK0	0.000	
14	   O	-0.303	3.462	-2.867	O.2	1	UNK0	0.000	
15	   O	-0.513	4.726	-0.822	O.2	1	UNK0	0.000	
16	   N	1.888	4.005	-1.562	N.3	1	UNK0	0.000	
17	   C	2.685	3.037	-2.250	C.3	1	UNK0	0.000	
18	   C	3.177	1.912	-1.403	C.3	1	UNK0	0.000	
19	   O	2.870	2.050	-0.055	O.3	1	UNK0	0.000	
20	   C	3.183	3.316	0.416	C.3	1	UNK0	0.000	
21	   C	2.470	4.407	-0.320	C.3	1	UNK0	0.000	
22	   C	-1.105	-3.761	1.979	C.2	1	UNK0	0.000	
23	   C	-0.691	-3.669	3.286	C.2	1	UNK0	0.000	
24	   C	-0.957	-4.718	4.165	C.2	1	UNK0	0.000	
25	   C	-1.628	-5.847	3.753	C.2	1	UNK0	0.000	
26	   C	-2.041	-5.937	2.444	C.2	1	UNK0	0.000	
27	   C	-1.769	-4.879	1.569	C.2	1	UNK0	0.000	
28	  Br	-1.977	-7.271	4.996	Br	1	UNK0	0.000	
29	   H	-0.719	-3.926	-0.656	 H	1	UNK0	0.000	
30	   H	0.070	0.912	-2.313	 H	1	UNK0	0.000	
31	   H	-0.249	3.074	1.342	 H	1	UNK0	0.000	
32	   H	-0.662	0.955	2.511	 H	1	UNK0	0.000	
33	   H	2.142	2.690	-3.163	 H	1	UNK0	0.000	
34	   H	3.592	3.582	-2.642	 H	1	UNK0	0.000	
35	   H	2.756	0.958	-1.772	 H	1	UNK0	0.000	
36	   H	4.297	1.794	-1.459	 H	1	UNK0	0.000	
37	   H	4.293	3.478	0.358	 H	1	UNK0	0.000	
38	   H	2.940	3.343	1.498	 H	1	UNK0	0.000	
39	   H	3.175	5.274	-0.482	 H	1	UNK0	0.000	
40	   H	1.665	4.819	0.326	 H	1	UNK0	0.000	
41	   H	-0.160	-2.780	3.617	 H	1	UNK0	0.000	
42	   H	-0.646	-4.672	5.187	 H	1	UNK0	0.000	
43	   H	-2.566	-6.819	2.116	 H	1	UNK0	0.000	
44	   H	-2.084	-4.930	0.540	 H	1	UNK0	0.000	
@<TRIPOS>BOND
1 1 2 2
2 1 3 2
3 1 4 1
4 1 8 1
5 4 5 1
6 5 6 2
7 5 22 1
8 6 7 1
9 7 8 2
10 7 12 1
11 8 9 1
12 9 10 2
13 10 11 1
14 10 13 1
15 11 12 2
16 13 14 2
17 13 15 2
18 13 16 1
19 16 17 1
20 16 21 1
21 17 18 1
22 18 19 1
23 19 20 1
24 20 21 1
25 22 23 2
26 22 27 1
27 23 24 1
28 24 25 2
29 25 26 1
30 25 28 1
31 26 27 2
32 4 29 1
33 9 30 1
34 11 31 1
35 12 32 1
36 17 33 1
37 17 34 1
38 18 35 1
39 18 36 1
40 20 37 1
41 20 38 1
42 21 39 1
43 21 40 1
44 23 41 1
45 24 42 1
46 26 43 1
47 27 44 1
@<TRIPOS>SUBSTRUCTURE
1	UNK0	1	GROUP	1 ****	UNK
