# created with PyMOL 2.3.2
@<TRIPOS>MOLECULE
1158
36 39 1                 
SMALL
USER_CHARGES
@<TRIPOS>ATOM
1	   S	-4.106	-1.775	3.802	S.3	1	UNK0	0.000	
2	   C	-2.884	-1.013	2.895	C.2	1	UNK0	0.000	
3	   C	-1.811	-1.030	3.748	C.2	1	UNK0	0.000	
4	   C	-1.994	-1.593	4.960	C.2	1	UNK0	0.000	
5	   C	-3.237	-2.097	5.228	C.2	1	UNK0	0.000	
6	  Br	-0.608	-1.725	6.322	Br	1	UNK0	0.000	
7	   C	-2.932	-0.456	1.524	C.2	1	UNK0	0.000	
8	   O	-4.022	-0.546	0.919	O.2	1	UNK0	0.000	
9	   N	-1.827	0.145	0.920	N.pl3	1	UNK0	0.000	
10	   C	-1.793	0.703	-0.394	C.3	1	UNK0	0.000	
11	   C	-0.744	0.064	-1.285	C.3	1	UNK0	0.000	
12	   N	0.135	1.157	-1.637	N.pl3	1	UNK0	0.000	
13	   C	-0.699	2.339	-1.670	C.3	1	UNK0	0.000	
14	   C	-1.485	2.188	-0.384	C.3	1	UNK0	0.000	
15	   C	1.528	1.103	-1.899	C.2	1	UNK0	0.000	
16	   N	2.257	2.178	-2.218	N.2	1	UNK0	0.000	
17	   N	3.557	2.134	-2.463	N.pl3	1	UNK0	0.000	
18	   C	4.267	0.989	-2.412	C.2	1	UNK0	0.000	
19	   N	5.563	1.257	-2.708	N.2	1	UNK0	0.000	
20	   N	5.669	2.556	-2.944	N.2	1	UNK0	0.000	
21	   C	4.445	3.089	-2.794	C.2	1	UNK0	0.000	
22	   C	3.560	-0.156	-2.086	C.2	1	UNK0	0.000	
23	   C	2.204	-0.107	-1.830	C.2	1	UNK0	0.000	
24	   H	-0.824	-0.594	3.447	 H	1	UNK0	0.000	
25	   H	-3.602	-2.594	6.145	 H	1	UNK0	0.000	
26	   H	-0.930	0.189	1.490	 H	1	UNK0	0.000	
27	   H	-2.793	0.594	-0.887	 H	1	UNK0	0.000	
28	   H	-1.220	-0.266	-2.255	 H	1	UNK0	0.000	
29	   H	-0.241	-0.780	-0.808	 H	1	UNK0	0.000	
30	   H	-0.104	3.274	-1.689	 H	1	UNK0	0.000	
31	   H	-1.369	2.254	-2.554	 H	1	UNK0	0.000	
32	   H	-2.391	2.814	-0.361	 H	1	UNK0	0.000	
33	   H	-0.786	2.391	0.447	 H	1	UNK0	0.000	
34	   H	4.205	4.143	-2.921	 H	1	UNK0	0.000	
35	   H	4.085	-1.099	-2.032	 H	1	UNK0	0.000	
36	   H	1.637	-1.005	-1.572	 H	1	UNK0	0.000	
@<TRIPOS>BOND
1 1 2 1
2 1 5 1
3 2 3 2
4 2 7 1
5 3 4 1
6 4 5 2
7 4 6 1
8 7 8 2
9 7 9 1
10 9 10 1
11 10 11 1
12 10 14 1
13 11 12 1
14 12 13 1
15 12 15 1
16 13 14 1
17 15 16 2
18 15 23 1
19 16 17 1
20 17 18 1
21 17 21 1
22 18 19 2
23 18 22 1
24 19 20 1
25 20 21 2
26 22 23 2
27 3 24 1
28 5 25 1
29 9 26 1
30 10 27 1
31 11 28 1
32 11 29 1
33 13 30 1
34 13 31 1
35 14 32 1
36 14 33 1
37 21 34 1
38 22 35 1
39 23 36 1
@<TRIPOS>SUBSTRUCTURE
1	UNK0	1	GROUP	1 ****	UNK
