# created with PyMOL 2.3.2
@<TRIPOS>MOLECULE
1159
40 43 1                 
SMALL
USER_CHARGES
@<TRIPOS>ATOM
1	   S	-1.018	-2.887	1.839	S.3	1	UNK0	0.000	
2	   C	0.167	-3.757	0.980	C.2	1	UNK0	0.000	
3	   C	-0.476	-4.922	0.664	C.2	1	UNK0	0.000	
4	   C	-1.742	-5.055	1.073	C.2	1	UNK0	0.000	
5	   C	-2.294	-4.016	1.775	C.2	1	UNK0	0.000	
6	  Br	-2.811	-6.643	0.711	Br	1	UNK0	0.000	
7	   C	1.550	-3.342	0.663	C.2	1	UNK0	0.000	
8	   O	2.265	-4.144	0.013	O.2	1	UNK0	0.000	
9	   N	2.031	-2.083	1.086	N.pl3	1	UNK0	0.000	
10	   C	1.513	-0.953	1.819	C.3	1	UNK0	0.000	
11	   C	2.505	-0.084	1.075	C.3	1	UNK0	0.000	
12	   C	3.277	-1.373	0.960	C.3	1	UNK0	0.000	
13	   N	1.941	0.398	-0.159	N.pl3	1	UNK0	0.000	
14	   N	2.499	0.529	-1.352	N.2	1	UNK0	0.000	
15	   N	1.624	1.012	-2.217	N.2	1	UNK0	0.000	
16	   C	0.450	1.213	-1.606	C.2	1	UNK0	0.000	
17	   C	0.669	0.814	-0.285	C.2	1	UNK0	0.000	
18	   C	-0.831	1.734	-2.132	C.3	1	UNK0	0.000	
19	   N	-1.677	0.686	-2.638	N.pl3	1	UNK0	0.000	
20	   C	-1.668	0.202	-4.023	C.3	1	UNK0	0.000	
21	   C	-3.145	0.012	-4.270	C.3	1	UNK0	0.000	
22	   C	-3.566	-0.730	-3.007	C.3	1	UNK0	0.000	
23	   C	-2.667	-0.100	-1.989	C.2	1	UNK0	0.000	
24	   O	-2.748	-0.227	-0.734	O.2	1	UNK0	0.000	
25	   H	0.074	-5.700	0.086	 H	1	UNK0	0.000	
26	   H	-3.317	-3.946	2.191	 H	1	UNK0	0.000	
27	   H	1.810	-0.963	2.907	 H	1	UNK0	0.000	
28	   H	0.451	-0.721	1.653	 H	1	UNK0	0.000	
29	   H	3.001	0.691	1.691	 H	1	UNK0	0.000	
30	   H	3.880	-1.522	1.890	 H	1	UNK0	0.000	
31	   H	3.823	-1.520	0.012	 H	1	UNK0	0.000	
32	   H	-0.096	0.854	0.477	 H	1	UNK0	0.000	
33	   H	-1.324	2.287	-1.292	 H	1	UNK0	0.000	
34	   H	-0.625	2.467	-2.935	 H	1	UNK0	0.000	
35	   H	-1.099	-0.733	-4.033	 H	1	UNK0	0.000	
36	   H	-1.257	0.983	-4.707	 H	1	UNK0	0.000	
37	   H	-3.617	1.018	-4.212	 H	1	UNK0	0.000	
38	   H	-3.379	-0.535	-5.185	 H	1	UNK0	0.000	
39	   H	-4.600	-0.466	-2.713	 H	1	UNK0	0.000	
40	   H	-3.401	-1.810	-3.094	 H	1	UNK0	0.000	
@<TRIPOS>BOND
1 1 2 1
2 1 5 1
3 2 3 2
4 2 7 1
5 3 4 1
6 4 5 2
7 4 6 1
8 7 8 2
9 7 9 1
10 9 10 1
11 9 12 1
12 10 11 1
13 11 12 1
14 11 13 1
15 13 14 1
16 13 17 1
17 14 15 2
18 15 16 1
19 16 17 2
20 16 18 1
21 18 19 1
22 19 20 1
23 19 23 1
24 20 21 1
25 21 22 1
26 22 23 1
27 23 24 2
28 3 25 1
29 5 26 1
30 10 27 1
31 10 28 1
32 11 29 1
33 12 30 1
34 12 31 1
35 17 32 1
36 18 33 1
37 18 34 1
38 20 35 1
39 20 36 1
40 21 37 1
41 21 38 1
42 22 39 1
43 22 40 1
@<TRIPOS>SUBSTRUCTURE
1	UNK0	1	GROUP	1 ****	UNK
