# created with PyMOL 2.3.2
@<TRIPOS>MOLECULE
1160
34 37 1                 
SMALL
USER_CHARGES
@<TRIPOS>ATOM
1	   S	4.203	-0.017	4.561	S.3	1	UNK0	0.000	
2	   C	3.217	1.249	5.119	C.2	1	UNK0	0.000	
3	   C	1.955	0.852	4.762	C.2	1	UNK0	0.000	
4	   C	1.850	-0.334	4.120	C.2	1	UNK0	0.000	
5	   C	3.007	-1.023	3.889	C.2	1	UNK0	0.000	
6	   C	0.507	-0.886	3.678	C.3	1	UNK0	0.000	
7	   C	0.580	-1.594	2.318	C.3	1	UNK0	0.000	
8	   C	0.373	-2.341	3.580	C.3	1	UNK0	0.000	
9	   C	-0.601	-1.303	1.431	C.2	1	UNK0	0.000	
10	   N	-0.598	-1.100	0.101	N.2	1	UNK0	0.000	
11	   C	-1.848	-0.869	-0.336	C.2	1	UNK0	0.000	
12	   N	-2.618	-0.936	0.763	N.2	1	UNK0	0.000	
13	   O	-1.855	-1.195	1.801	O.3	1	UNK0	0.000	
14	   C	-2.301	-0.601	-1.701	C.2	1	UNK0	0.000	
15	   N	-1.525	-0.535	-2.796	N.2	1	UNK0	0.000	
16	   N	-2.273	-0.272	-3.873	N.pl3	1	UNK0	0.000	
17	   C	-3.560	-0.165	-3.473	C.2	1	UNK0	0.000	
18	   N	-3.551	-0.370	-2.135	N.2	1	UNK0	0.000	
19	   C	-1.796	-0.126	-5.238	C.3	1	UNK0	0.000	
20	   C	-1.461	1.295	-5.471	C.2	1	UNK0	0.000	
21	   O	-2.352	2.058	-5.904	O.2	1	UNK0	0.000	
22	   N	-0.155	1.768	-5.204	N.pl3	1	UNK0	0.000	
23	  Br	3.711	2.873	6.039	Br	1	UNK0	0.000	
24	   H	1.083	1.515	5.013	 H	1	UNK0	0.000	
25	   H	3.096	-2.004	3.378	 H	1	UNK0	0.000	
26	   H	-0.392	-0.314	3.910	 H	1	UNK0	0.000	
27	   H	1.540	-1.642	1.806	 H	1	UNK0	0.000	
28	   H	-0.647	-2.793	3.691	 H	1	UNK0	0.000	
29	   H	1.217	-2.997	3.888	 H	1	UNK0	0.000	
30	   H	-4.397	0.045	-4.122	 H	1	UNK0	0.000	
31	   H	-2.569	-0.513	-5.928	 H	1	UNK0	0.000	
32	   H	-0.856	-0.705	-5.394	 H	1	UNK0	0.000	
33	   H	0.013	2.688	-4.711	 H	1	UNK0	0.000	
34	   H	0.719	1.252	-5.468	 H	1	UNK0	0.000	
@<TRIPOS>BOND
1 1 2 1
2 1 5 1
3 2 3 2
4 2 23 1
5 3 4 1
6 4 5 2
7 4 6 1
8 6 7 1
9 6 8 1
10 7 8 1
11 7 9 1
12 9 10 2
13 9 13 1
14 10 11 1
15 11 12 2
16 11 14 1
17 12 13 1
18 14 15 2
19 14 18 1
20 15 16 1
21 16 17 1
22 16 19 1
23 17 18 2
24 19 20 1
25 20 21 2
26 20 22 1
27 3 24 1
28 5 25 1
29 6 26 1
30 7 27 1
31 8 28 1
32 8 29 1
33 17 30 1
34 19 31 1
35 19 32 1
36 22 33 1
37 22 34 1
@<TRIPOS>SUBSTRUCTURE
1	UNK0	1	GROUP	1 ****	UNK
