# created with PyMOL 2.3.2
@<TRIPOS>MOLECULE
1162
45 48 1                 
SMALL
USER_CHARGES
@<TRIPOS>ATOM
1	   S	-0.469	3.773	-3.846	S.3	1	UNK0	0.000	
2	   C	-2.100	3.489	-4.192	C.2	1	UNK0	0.000	
3	   C	-2.411	2.408	-3.412	C.2	1	UNK0	0.000	
4	   C	-1.420	1.910	-2.648	C.2	1	UNK0	0.000	
5	   C	-0.174	2.497	-2.693	C.2	1	UNK0	0.000	
6	   C	1.115	2.191	-2.102	C.2	1	UNK0	0.000	
7	   O	1.985	1.901	-3.110	O.2	1	UNK0	0.000	
8	   C	1.719	2.109	-0.832	C.2	1	UNK0	0.000	
9	   C	2.140	1.026	-0.097	C.2	1	UNK0	0.000	
10	   C	2.921	1.497	0.970	C.2	1	UNK0	0.000	
11	   O	2.965	2.788	0.889	O.3	1	UNK0	0.000	
12	   C	2.290	3.212	-0.132	C.2	1	UNK0	0.000	
13	   C	3.471	0.595	1.880	C.2	1	UNK0	0.000	
14	   C	3.281	-0.745	1.774	C.2	1	UNK0	0.000	
15	   C	2.502	-1.247	0.722	C.2	1	UNK0	0.000	
16	   C	1.957	-0.368	-0.159	C.2	1	UNK0	0.000	
17	   C	1.043	-0.806	-1.258	C.3	1	UNK0	0.000	
18	   N	-0.139	-1.432	-0.632	N.4	1	UNK0	0.000	
19	   C	-0.469	-0.542	0.489	C.3	1	UNK0	0.000	
20	   C	-1.699	-0.975	1.178	C.3	1	UNK0	0.000	
21	   N	-1.432	-2.310	1.693	N.3	1	UNK0	0.000	
22	   C	-1.300	-3.176	0.607	C.3	1	UNK0	0.000	
23	   C	-0.315	-2.775	-0.497	C.3	1	UNK0	0.000	
24	   C	-0.473	-2.283	2.727	C.3	1	UNK0	0.000	
25	   O	2.354	-2.586	0.625	O.2	1	UNK0	0.000	
26	  Br	-3.237	4.470	-5.417	Br	1	UNK0	0.000	
27	   H	-3.456	2.016	-3.452	 H	1	UNK0	0.000	
28	   H	-1.590	1.024	-1.999	 H	1	UNK0	0.000	
29	   H	2.132	4.220	-0.483	 H	1	UNK0	0.000	
30	   H	4.068	0.966	2.705	 H	1	UNK0	0.000	
31	   H	3.697	-1.501	2.441	 H	1	UNK0	0.000	
32	   H	0.779	-0.117	-2.003	 H	1	UNK0	0.000	
33	   H	1.591	-1.650	-1.780	 H	1	UNK0	0.000	
34	   H	-0.917	-1.110	-1.355	 H	1	UNK0	0.000	
35	   H	-0.657	0.468	0.034	 H	1	UNK0	0.000	
36	   H	0.349	-0.512	1.207	 H	1	UNK0	0.000	
37	   H	-2.639	-0.924	0.642	 H	1	UNK0	0.000	
38	   H	-1.809	-0.317	2.095	 H	1	UNK0	0.000	
39	   H	-2.346	-3.271	0.150	 H	1	UNK0	0.000	
40	   H	-1.049	-4.185	0.956	 H	1	UNK0	0.000	
41	   H	0.451	-3.532	-0.487	 H	1	UNK0	0.000	
42	   H	-0.923	-3.133	-1.449	 H	1	UNK0	0.000	
43	   H	-0.439	-1.286	3.259	 H	1	UNK0	0.000	
44	   H	-0.620	-3.017	3.557	 H	1	UNK0	0.000	
45	   H	0.522	-2.501	2.321	 H	1	UNK0	0.000	
@<TRIPOS>BOND
1 1 2 1
2 1 5 1
3 2 3 2
4 2 26 1
5 3 4 1
6 4 5 2
7 5 6 1
8 6 7 2
9 6 8 1
10 8 9 1
11 8 12 2
12 9 10 2
13 9 16 1
14 10 11 1
15 10 13 1
16 11 12 1
17 13 14 2
18 14 15 1
19 15 16 2
20 15 25 1
21 16 17 1
22 17 18 1
23 18 19 1
24 18 23 1
25 19 20 1
26 20 21 1
27 21 22 1
28 21 24 1
29 22 23 1
30 3 27 1
31 4 28 1
32 12 29 1
33 13 30 1
34 14 31 1
35 17 32 1
36 17 33 1
37 18 34 1
38 19 35 1
39 19 36 1
40 20 37 1
41 20 38 1
42 22 39 1
43 22 40 1
44 23 41 1
45 23 42 1
46 24 43 1
47 24 44 1
48 24 45 1
@<TRIPOS>SUBSTRUCTURE
1	UNK0	1	GROUP	1 ****	UNK
