# created with PyMOL 2.3.2
@<TRIPOS>MOLECULE
1163
55 58 1                 
SMALL
USER_CHARGES
@<TRIPOS>ATOM
1	   S	-3.646	1.274	-2.733	S.3	1	UNK0	0.000	
2	   C	-5.056	2.003	-3.351	C.2	1	UNK0	0.000	
3	   C	-4.774	3.341	-3.272	C.2	1	UNK0	0.000	
4	   C	-3.579	3.689	-2.777	C.2	1	UNK0	0.000	
5	   C	-2.741	2.678	-2.392	C.2	1	UNK0	0.000	
6	   C	-1.358	2.803	-1.794	C.3	1	UNK0	0.000	
7	   N	-1.484	3.435	-0.471	N.3	1	UNK0	0.000	
8	   C	-2.349	2.635	0.315	C.3	1	UNK0	0.000	
9	   C	-2.222	2.843	1.780	C.3	1	UNK0	0.000	
10	   N	-0.968	3.205	2.299	N.3	1	UNK0	0.000	
11	   C	-0.079	3.929	1.475	C.3	1	UNK0	0.000	
12	   C	-0.185	3.718	0.008	C.3	1	UNK0	0.000	
13	   C	-0.356	2.266	3.191	C.3	1	UNK0	0.000	
14	   C	0.091	1.028	2.553	C.2	1	UNK0	0.000	
15	   O	-0.068	0.874	1.321	O.2	1	UNK0	0.000	
16	   N	0.701	-0.013	3.277	N.pl3	1	UNK0	0.000	
17	   N	1.124	-1.209	2.655	N.pl3	1	UNK0	0.000	
18	   C	0.685	-2.544	2.857	C.2	1	UNK0	0.000	
19	   O	-0.205	-2.881	3.685	O.2	1	UNK0	0.000	
20	   N	1.398	-3.412	1.992	N.pl3	1	UNK0	0.000	
21	   C	2.149	-2.618	1.072	C.3	1	UNK0	0.000	
22	   C	3.573	-3.096	0.911	C.3	1	UNK0	0.000	
23	   C	3.999	-3.274	-0.506	C.3	1	UNK0	0.000	
24	   C	3.558	-2.174	-1.425	C.3	1	UNK0	0.000	
25	   C	2.120	-1.773	-1.250	C.3	1	UNK0	0.000	
26	   C	1.450	-2.680	-0.269	C.3	1	UNK0	0.000	
27	   C	2.124	-1.259	1.650	C.2	1	UNK0	0.000	
28	   O	2.880	-0.292	1.300	O.2	1	UNK0	0.000	
29	  Br	-6.688	1.222	-4.020	Br	1	UNK0	0.000	
30	   H	-5.515	4.100	-3.611	 H	1	UNK0	0.000	
31	   H	-3.230	4.743	-2.660	 H	1	UNK0	0.000	
32	   H	-0.693	3.374	-2.453	 H	1	UNK0	0.000	
33	   H	-0.978	1.790	-1.608	 H	1	UNK0	0.000	
34	   H	-3.409	2.976	0.041	 H	1	UNK0	0.000	
35	   H	-2.272	1.576	-0.028	 H	1	UNK0	0.000	
36	   H	-2.600	1.960	2.346	 H	1	UNK0	0.000	
37	   H	-2.944	3.667	2.077	 H	1	UNK0	0.000	
38	   H	-0.225	5.024	1.684	 H	1	UNK0	0.000	
39	   H	0.956	3.719	1.830	 H	1	UNK0	0.000	
40	   H	0.586	3.005	-0.383	 H	1	UNK0	0.000	
41	   H	0.121	4.699	-0.480	 H	1	UNK0	0.000	
42	   H	0.449	2.804	3.749	 H	1	UNK0	0.000	
43	   H	-1.094	1.968	3.991	 H	1	UNK0	0.000	
44	   H	0.848	0.104	4.317	 H	1	UNK0	0.000	
45	   H	1.389	-4.461	2.006	 H	1	UNK0	0.000	
46	   H	3.757	-4.047	1.454	 H	1	UNK0	0.000	
47	   H	4.239	-2.342	1.378	 H	1	UNK0	0.000	
48	   H	3.667	-4.269	-0.847	 H	1	UNK0	0.000	
49	   H	5.119	-3.309	-0.516	 H	1	UNK0	0.000	
50	   H	3.711	-2.544	-2.474	 H	1	UNK0	0.000	
51	   H	4.202	-1.270	-1.318	 H	1	UNK0	0.000	
52	   H	2.046	-0.718	-0.904	 H	1	UNK0	0.000	
53	   H	1.590	-1.846	-2.235	 H	1	UNK0	0.000	
54	   H	0.381	-2.427	-0.179	 H	1	UNK0	0.000	
55	   H	1.586	-3.735	-0.645	 H	1	UNK0	0.000	
@<TRIPOS>BOND
1 1 2 1
2 1 5 1
3 2 3 2
4 2 29 1
5 3 4 1
6 4 5 2
7 5 6 1
8 6 7 1
9 7 8 1
10 7 12 1
11 8 9 1
12 9 10 1
13 10 11 1
14 10 13 1
15 11 12 1
16 13 14 1
17 14 15 2
18 14 16 1
19 16 17 1
20 17 18 1
21 17 27 1
22 18 19 2
23 18 20 1
24 20 21 1
25 21 22 1
26 21 26 1
27 21 27 1
28 22 23 1
29 23 24 1
30 24 25 1
31 25 26 1
32 27 28 2
33 3 30 1
34 4 31 1
35 6 32 1
36 6 33 1
37 8 34 1
38 8 35 1
39 9 36 1
40 9 37 1
41 11 38 1
42 11 39 1
43 12 40 1
44 12 41 1
45 13 42 1
46 13 43 1
47 16 44 1
48 20 45 1
49 22 46 1
50 22 47 1
51 23 48 1
52 23 49 1
53 24 50 1
54 24 51 1
55 25 52 1
56 25 53 1
57 26 54 1
58 26 55 1
@<TRIPOS>SUBSTRUCTURE
1	UNK0	1	GROUP	1 ****	UNK
