# created with PyMOL 2.3.2
@<TRIPOS>MOLECULE
1164
53 56 1                 
SMALL
USER_CHARGES
@<TRIPOS>ATOM
1	   S	-5.552	0.815	1.952	S.3	1	UNK0	0.000	
2	   C	-5.520	-0.122	0.532	C.2	1	UNK0	0.000	
3	   C	-4.387	0.316	-0.108	C.2	1	UNK0	0.000	
4	   C	-3.679	1.274	0.501	C.2	1	UNK0	0.000	
5	   C	-4.132	1.739	1.702	C.2	1	UNK0	0.000	
6	   C	-3.522	2.806	2.574	C.3	1	UNK0	0.000	
7	   N	-2.508	2.277	3.368	N.3	1	UNK0	0.000	
8	   C	-2.784	1.245	4.276	C.3	1	UNK0	0.000	
9	   C	-2.577	-0.140	3.763	C.3	1	UNK0	0.000	
10	   N	-1.683	-0.232	2.634	N.3	1	UNK0	0.000	
11	   C	-0.680	0.789	2.761	C.3	1	UNK0	0.000	
12	   C	-1.255	2.178	2.727	C.3	1	UNK0	0.000	
13	   C	-1.188	-1.540	2.398	C.3	1	UNK0	0.000	
14	   N	-0.311	-1.674	1.283	N.pl3	1	UNK0	0.000	
15	   C	-0.700	-1.972	-0.053	C.2	1	UNK0	0.000	
16	   O	-1.868	-2.171	-0.522	O.2	1	UNK0	0.000	
17	   N	0.469	-2.027	-0.876	N.pl3	1	UNK0	0.000	
18	   C	1.456	-1.267	-0.151	C.3	1	UNK0	0.000	
19	   C	1.269	0.186	-0.541	C.3	1	UNK0	0.000	
20	   C	1.880	0.400	-1.889	C.3	1	UNK0	0.000	
21	   N	2.069	-0.833	-2.620	N.3	1	UNK0	0.000	
22	   C	3.013	-1.708	-1.990	C.3	1	UNK0	0.000	
23	   C	2.866	-1.654	-0.498	C.3	1	UNK0	0.000	
24	   C	2.321	-0.615	-4.009	C.3	1	UNK0	0.000	
25	   C	1.106	-1.550	1.253	C.2	1	UNK0	0.000	
26	   O	1.901	-1.665	2.253	O.2	1	UNK0	0.000	
27	  Br	-6.758	-1.466	-0.046	Br	1	UNK0	0.000	
28	   H	-4.113	-0.141	-1.093	 H	1	UNK0	0.000	
29	   H	-2.750	1.692	0.062	 H	1	UNK0	0.000	
30	   H	-3.091	3.535	1.829	 H	1	UNK0	0.000	
31	   H	-4.359	3.302	3.132	 H	1	UNK0	0.000	
32	   H	-3.790	1.346	4.779	 H	1	UNK0	0.000	
33	   H	-2.075	1.385	5.158	 H	1	UNK0	0.000	
34	   H	-3.528	-0.643	3.565	 H	1	UNK0	0.000	
35	   H	-2.085	-0.774	4.564	 H	1	UNK0	0.000	
36	   H	0.154	0.725	2.071	 H	1	UNK0	0.000	
37	   H	-0.239	0.663	3.795	 H	1	UNK0	0.000	
38	   H	-1.247	2.601	1.689	 H	1	UNK0	0.000	
39	   H	-0.561	2.893	3.281	 H	1	UNK0	0.000	
40	   H	-2.062	-2.229	2.338	 H	1	UNK0	0.000	
41	   H	-0.617	-1.894	3.306	 H	1	UNK0	0.000	
42	   H	0.591	-2.506	-1.795	 H	1	UNK0	0.000	
43	   H	0.176	0.353	-0.631	 H	1	UNK0	0.000	
44	   H	1.699	0.846	0.239	 H	1	UNK0	0.000	
45	   H	2.888	0.868	-1.776	 H	1	UNK0	0.000	
46	   H	1.259	1.072	-2.546	 H	1	UNK0	0.000	
47	   H	4.050	-1.422	-2.325	 H	1	UNK0	0.000	
48	   H	2.846	-2.731	-2.356	 H	1	UNK0	0.000	
49	   H	3.206	-2.573	-0.013	 H	1	UNK0	0.000	
50	   H	3.527	-0.824	-0.129	 H	1	UNK0	0.000	
51	   H	1.943	0.389	-4.287	 H	1	UNK0	0.000	
52	   H	3.381	-0.775	-4.300	 H	1	UNK0	0.000	
53	   H	1.696	-1.344	-4.602	 H	1	UNK0	0.000	
@<TRIPOS>BOND
1 1 2 1
2 1 5 1
3 2 3 2
4 2 27 1
5 3 4 1
6 4 5 2
7 5 6 1
8 6 7 1
9 7 8 1
10 7 12 1
11 8 9 1
12 9 10 1
13 10 11 1
14 10 13 1
15 11 12 1
16 13 14 1
17 14 15 1
18 14 25 1
19 15 16 2
20 15 17 1
21 17 18 1
22 18 19 1
23 18 23 1
24 18 25 1
25 19 20 1
26 20 21 1
27 21 22 1
28 21 24 1
29 22 23 1
30 25 26 2
31 3 28 1
32 4 29 1
33 6 30 1
34 6 31 1
35 8 32 1
36 8 33 1
37 9 34 1
38 9 35 1
39 11 36 1
40 11 37 1
41 12 38 1
42 12 39 1
43 13 40 1
44 13 41 1
45 17 42 1
46 19 43 1
47 19 44 1
48 20 45 1
49 20 46 1
50 22 47 1
51 22 48 1
52 23 49 1
53 23 50 1
54 24 51 1
55 24 52 1
56 24 53 1
@<TRIPOS>SUBSTRUCTURE
1	UNK0	1	GROUP	1 ****	UNK
