# created with PyMOL 2.3.2
@<TRIPOS>MOLECULE
1165
36 39 1                 
SMALL
USER_CHARGES
@<TRIPOS>ATOM
1	   S	-4.322	0.261	-2.039	S.3	1	UNK0	0.000	
2	   C	-3.995	1.568	-3.091	C.2	1	UNK0	0.000	
3	   C	-2.788	2.024	-2.634	C.2	1	UNK0	0.000	
4	   C	-2.241	1.390	-1.593	C.2	1	UNK0	0.000	
5	   C	-2.929	0.333	-1.062	C.2	1	UNK0	0.000	
6	   C	-2.600	-0.564	0.076	C.3	1	UNK0	0.000	
7	   N	-1.860	-1.726	-0.332	N.3	1	UNK0	0.000	
8	   C	-1.532	-2.602	0.735	C.3	1	UNK0	0.000	
9	   C	-0.036	-2.654	0.988	C.3	1	UNK0	0.000	
10	   N	0.480	-1.357	0.687	N.pl3	1	UNK0	0.000	
11	   C	0.449	-0.947	-0.713	C.3	1	UNK0	0.000	
12	   C	-0.842	-1.482	-1.294	C.3	1	UNK0	0.000	
13	   C	1.001	-0.481	1.667	C.2	1	UNK0	0.000	
14	   N	1.523	0.728	1.329	N.2	1	UNK0	0.000	
15	   N	2.017	1.575	2.204	N.pl3	1	UNK0	0.000	
16	   N	2.563	2.788	2.057	N.2	1	UNK0	0.000	
17	   N	2.902	3.222	3.259	N.2	1	UNK0	0.000	
18	   N	2.587	2.317	4.168	N.2	1	UNK0	0.000	
19	   C	2.030	1.279	3.510	C.2	1	UNK0	0.000	
20	   C	1.522	0.073	3.959	C.2	1	UNK0	0.000	
21	   C	1.011	-0.792	3.006	C.2	1	UNK0	0.000	
22	  Br	-5.044	2.247	-4.553	Br	1	UNK0	0.000	
23	   H	-2.315	2.892	-3.139	 H	1	UNK0	0.000	
24	   H	-1.264	1.677	-1.142	 H	1	UNK0	0.000	
25	   H	-3.511	-0.914	0.604	 H	1	UNK0	0.000	
26	   H	-2.037	0.055	0.820	 H	1	UNK0	0.000	
27	   H	-1.841	-3.638	0.471	 H	1	UNK0	0.000	
28	   H	-2.094	-2.345	1.657	 H	1	UNK0	0.000	
29	   H	0.239	-3.083	1.947	 H	1	UNK0	0.000	
30	   H	0.383	-3.344	0.207	 H	1	UNK0	0.000	
31	   H	0.556	0.143	-0.837	 H	1	UNK0	0.000	
32	   H	1.348	-1.406	-1.211	 H	1	UNK0	0.000	
33	   H	-0.575	-2.472	-1.769	 H	1	UNK0	0.000	
34	   H	-1.224	-0.832	-2.078	 H	1	UNK0	0.000	
35	   H	1.527	-0.176	5.009	 H	1	UNK0	0.000	
36	   H	0.618	-1.728	3.377	 H	1	UNK0	0.000	
@<TRIPOS>BOND
1 1 2 1
2 1 5 1
3 2 3 2
4 2 22 1
5 3 4 1
6 4 5 2
7 5 6 1
8 6 7 1
9 7 8 1
10 7 12 1
11 8 9 1
12 9 10 1
13 10 11 1
14 10 13 1
15 11 12 1
16 13 14 2
17 13 21 1
18 14 15 1
19 15 16 1
20 15 19 1
21 16 17 2
22 17 18 1
23 18 19 2
24 19 20 1
25 20 21 2
26 3 23 1
27 4 24 1
28 6 25 1
29 6 26 1
30 8 27 1
31 8 28 1
32 9 29 1
33 9 30 1
34 11 31 1
35 11 32 1
36 12 33 1
37 12 34 1
38 20 35 1
39 21 36 1
@<TRIPOS>SUBSTRUCTURE
1	UNK0	1	GROUP	1 ****	UNK
