# created with PyMOL 2.3.2
@<TRIPOS>MOLECULE
1166
45 48 1                 
SMALL
USER_CHARGES
@<TRIPOS>ATOM
1	   S	-1.474	-3.782	-2.116	S.3	1	UNK0	0.000	
2	   C	-2.900	-2.995	-1.665	C.2	1	UNK0	0.000	
3	   C	-2.624	-1.681	-1.832	C.2	1	UNK0	0.000	
4	   C	-1.367	-1.349	-2.270	C.2	1	UNK0	0.000	
5	   C	-0.503	-2.377	-2.507	C.2	1	UNK0	0.000	
6	   C	0.830	-2.463	-3.099	C.2	1	UNK0	0.000	
7	   N	1.810	-1.691	-2.929	N.2	1	UNK0	0.000	
8	   N	1.838	-0.584	-2.138	N.pl3	1	UNK0	0.000	
9	   C	2.753	-0.380	-0.993	C.2	1	UNK0	0.000	
10	   O	3.583	-1.200	-0.698	O.2	1	UNK0	0.000	
11	   C	2.420	0.900	-0.353	C.2	1	UNK0	0.000	
12	   N	2.405	2.146	-0.763	N.2	1	UNK0	0.000	
13	   N	1.630	2.888	0.002	N.2	1	UNK0	0.000	
14	   N	1.090	2.083	0.996	N.pl3	1	UNK0	0.000	
15	   C	1.567	0.885	0.807	C.2	1	UNK0	0.000	
16	   C	1.597	-0.352	1.632	C.3	1	UNK0	0.000	
17	   N	0.520	-1.194	1.785	N.3	1	UNK0	0.000	
18	   C	0.790	-2.452	2.438	C.3	1	UNK0	0.000	
19	   C	0.128	-3.509	1.556	C.3	1	UNK0	0.000	
20	   O	-1.234	-3.373	1.534	O.3	1	UNK0	0.000	
21	   C	-1.677	-2.144	1.964	C.3	1	UNK0	0.000	
22	   C	-0.781	-0.991	1.459	C.3	1	UNK0	0.000	
23	   C	0.109	2.686	1.849	C.2	1	UNK0	0.000	
24	   N	-1.153	2.874	1.250	N.2	1	UNK0	0.000	
25	   O	-1.934	3.519	2.085	O.3	1	UNK0	0.000	
26	   N	-1.246	3.727	3.144	N.2	1	UNK0	0.000	
27	   C	0.030	3.225	3.048	C.2	1	UNK0	0.000	
28	   N	0.991	3.301	4.084	N.pl3	1	UNK0	0.000	
29	  Br	-4.560	-3.778	-1.026	Br	1	UNK0	0.000	
30	   H	-3.411	-0.930	-1.623	 H	1	UNK0	0.000	
31	   H	-1.109	-0.265	-2.415	 H	1	UNK0	0.000	
32	   H	0.994	-3.326	-3.800	 H	1	UNK0	0.000	
33	   H	1.153	0.203	-2.376	 H	1	UNK0	0.000	
34	   H	1.590	0.214	2.783	 H	1	UNK0	0.000	
35	   H	2.605	-0.783	1.771	 H	1	UNK0	0.000	
36	   H	1.903	-2.632	2.302	 H	1	UNK0	0.000	
37	   H	0.473	-2.486	3.468	 H	1	UNK0	0.000	
38	   H	0.472	-4.540	1.829	 H	1	UNK0	0.000	
39	   H	0.492	-3.300	0.506	 H	1	UNK0	0.000	
40	   H	-1.658	-2.065	3.052	 H	1	UNK0	0.000	
41	   H	-2.684	-1.954	1.584	 H	1	UNK0	0.000	
42	   H	-0.893	-0.938	0.356	 H	1	UNK0	0.000	
43	   H	-1.273	-0.086	1.851	 H	1	UNK0	0.000	
44	   H	1.806	3.902	4.149	 H	1	UNK0	0.000	
45	   H	0.796	2.658	4.896	 H	1	UNK0	0.000	
@<TRIPOS>BOND
1 1 2 1
2 1 5 1
3 2 3 2
4 2 29 1
5 3 4 1
6 4 5 2
7 5 6 1
8 6 7 2
9 7 8 1
10 8 9 1
11 9 10 2
12 9 11 1
13 11 12 1
14 11 15 2
15 12 13 2
16 13 14 1
17 14 15 1
18 14 23 1
19 15 16 1
20 16 17 1
21 17 18 1
22 17 22 1
23 18 19 1
24 19 20 1
25 20 21 1
26 21 22 1
27 23 24 2
28 23 27 1
29 24 25 1
30 25 26 1
31 26 27 2
32 27 28 1
33 3 30 1
34 4 31 1
35 6 32 1
36 8 33 1
37 16 34 1
38 16 35 1
39 18 36 1
40 18 37 1
41 19 38 1
42 19 39 1
43 21 40 1
44 21 41 1
45 22 42 1
46 22 43 1
47 28 44 1
48 28 45 1
@<TRIPOS>SUBSTRUCTURE
1	UNK0	1	GROUP	1 ****	UNK
