# created with PyMOL 2.3.2
@<TRIPOS>MOLECULE
1171
50 53 1                 
SMALL
USER_CHARGES
@<TRIPOS>ATOM
1	   S	1.008	3.432	4.617	S.3	1	UNK0	0.000	
2	   C	1.221	2.483	3.220	C.2	1	UNK0	0.000	
3	   C	2.268	1.662	3.554	C.2	1	UNK0	0.000	
4	   C	2.798	1.817	4.788	C.2	1	UNK0	0.000	
5	   C	2.239	2.778	5.587	C.2	1	UNK0	0.000	
6	   C	0.490	2.458	1.945	C.2	1	UNK0	0.000	
7	   C	1.123	2.426	0.799	C.2	1	UNK0	0.000	
8	   C	0.641	2.393	-0.607	C.3	1	UNK0	0.000	
9	   N	1.455	1.357	-1.121	N.pl3	1	UNK0	0.000	
10	   C	2.804	1.753	-0.687	C.2	1	UNK0	0.000	
11	   O	3.896	1.531	-1.279	O.2	1	UNK0	0.000	
12	   C	2.590	2.452	0.577	C.2	1	UNK0	0.000	
13	   O	3.440	2.990	1.368	O.2	1	UNK0	0.000	
14	   C	1.268	0.158	-1.916	C.3	1	UNK0	0.000	
15	   C	1.227	-1.120	-1.190	C.3	1	UNK0	0.000	
16	   N	0.318	-1.411	-0.185	N.4	1	UNK0	0.000	
17	   C	1.032	-2.140	0.902	C.3	1	UNK0	0.000	
18	   C	1.264	-3.574	0.530	C.3	1	UNK0	0.000	
19	   O	0.040	-4.248	0.316	O.3	1	UNK0	0.000	
20	   C	-0.481	-3.659	-0.837	C.3	1	UNK0	0.000	
21	   C	-0.821	-2.221	-0.469	C.3	1	UNK0	0.000	
22	   C	-0.719	2.594	-0.896	C.2	1	UNK0	0.000	
23	   C	-1.203	3.908	-0.979	C.2	1	UNK0	0.000	
24	   C	-2.502	4.229	-1.266	C.2	1	UNK0	0.000	
25	   C	-3.409	3.208	-1.492	C.2	1	UNK0	0.000	
26	   C	-2.962	1.909	-1.417	C.2	1	UNK0	0.000	
27	   C	-1.625	1.602	-1.121	C.2	1	UNK0	0.000	
28	  Br	-3.156	6.016	-1.378	Br	1	UNK0	0.000	
29	   O	-0.888	2.469	2.012	O.2	1	UNK0	0.000	
30	   H	2.648	0.891	2.827	 H	1	UNK0	0.000	
31	   H	3.657	1.172	5.115	 H	1	UNK0	0.000	
32	   H	2.568	3.014	6.617	 H	1	UNK0	0.000	
33	   H	1.165	3.360	-1.043	 H	1	UNK0	0.000	
34	   H	0.408	0.314	-2.582	 H	1	UNK0	0.000	
35	   H	2.171	0.100	-2.604	 H	1	UNK0	0.000	
36	   H	2.282	-1.284	-0.775	 H	1	UNK0	0.000	
37	   H	1.186	-1.975	-1.951	 H	1	UNK0	0.000	
38	   H	-0.020	-0.552	0.337	 H	1	UNK0	0.000	
39	   H	2.007	-1.655	1.032	 H	1	UNK0	0.000	
40	   H	0.402	-2.122	1.811	 H	1	UNK0	0.000	
41	   H	1.821	-3.679	-0.428	 H	1	UNK0	0.000	
42	   H	1.870	-4.035	1.306	 H	1	UNK0	0.000	
43	   H	-1.456	-4.126	-1.120	 H	1	UNK0	0.000	
44	   H	0.275	-3.753	-1.619	 H	1	UNK0	0.000	
45	   H	-1.563	-1.793	-1.166	 H	1	UNK0	0.000	
46	   H	-1.388	-2.314	0.509	 H	1	UNK0	0.000	
47	   H	-0.525	4.759	-0.809	 H	1	UNK0	0.000	
48	   H	-4.433	3.436	-1.719	 H	1	UNK0	0.000	
49	   H	-3.642	1.086	-1.587	 H	1	UNK0	0.000	
50	   H	-1.399	0.545	-1.099	 H	1	UNK0	0.000	
@<TRIPOS>BOND
1 1 2 1
2 1 5 1
3 2 3 2
4 2 6 1
5 3 4 1
6 4 5 2
7 6 7 2
8 6 29 1
9 7 8 1
10 7 12 1
11 8 9 1
12 8 22 1
13 9 10 1
14 9 14 1
15 10 11 2
16 10 12 1
17 12 13 2
18 14 15 1
19 15 16 1
20 16 17 1
21 16 21 1
22 17 18 1
23 18 19 1
24 19 20 1
25 20 21 1
26 22 23 2
27 22 27 1
28 23 24 1
29 24 25 2
30 24 28 1
31 25 26 1
32 26 27 2
33 3 30 1
34 4 31 1
35 5 32 1
36 8 33 1
37 14 34 1
38 14 35 1
39 15 36 1
40 15 37 1
41 16 38 1
42 17 39 1
43 17 40 1
44 18 41 1
45 18 42 1
46 20 43 1
47 20 44 1
48 21 45 1
49 21 46 1
50 23 47 1
51 25 48 1
52 26 49 1
53 27 50 1
@<TRIPOS>SUBSTRUCTURE
1	UNK0	1	GROUP	1 ****	UNK
