# created with PyMOL 2.3.2
@<TRIPOS>MOLECULE
1172
38 41 1                 
SMALL
USER_CHARGES
@<TRIPOS>ATOM
1	   S	2.140	-1.449	0.852	S.3	1	UNK0	0.000	
2	   C	0.469	-1.476	1.194	C.2	1	UNK0	0.000	
3	   C	0.044	-2.586	0.551	C.2	1	UNK0	0.000	
4	   C	0.944	-3.309	-0.129	C.2	1	UNK0	0.000	
5	   C	2.241	-2.878	-0.124	C.2	1	UNK0	0.000	
6	   C	-0.303	-0.481	2.002	C.3	1	UNK0	0.000	
7	   N	0.010	0.843	1.442	N.pl3	1	UNK0	0.000	
8	   C	-0.594	0.919	0.345	C.2	1	UNK0	0.000	
9	   S	0.009	2.015	-0.965	S.3	1	UNK0	0.000	
10	   C	1.560	2.697	-0.219	C.3	1	UNK0	0.000	
11	   C	1.087	3.058	1.209	C.3	1	UNK0	0.000	
12	   C	0.861	1.850	2.019	C.3	1	UNK0	0.000	
13	   N	-1.748	0.024	0.344	N.pl3	1	UNK0	0.000	
14	   C	-1.755	-0.619	1.621	C.3	1	UNK0	0.000	
15	   C	-2.583	-0.023	-0.814	C.2	1	UNK0	0.000	
16	   C	-3.117	1.191	-1.302	C.2	1	UNK0	0.000	
17	   C	-3.864	1.250	-2.449	C.2	1	UNK0	0.000	
18	   C	-4.129	0.116	-3.184	C.2	1	UNK0	0.000	
19	   C	-3.614	-1.085	-2.718	C.2	1	UNK0	0.000	
20	   C	-2.849	-1.144	-1.544	C.2	1	UNK0	0.000	
21	  Br	-5.163	0.183	-4.791	Br	1	UNK0	0.000	
22	   O	-0.044	-0.580	3.333	O.3	1	UNK0	0.000	
23	   H	-1.040	-2.872	0.594	 H	1	UNK0	0.000	
24	   H	0.705	-4.238	-0.693	 H	1	UNK0	0.000	
25	   H	3.110	-3.306	-0.604	 H	1	UNK0	0.000	
26	   H	2.233	1.833	-0.115	 H	1	UNK0	0.000	
27	   H	1.913	3.545	-0.777	 H	1	UNK0	0.000	
28	   H	1.826	3.705	1.699	 H	1	UNK0	0.000	
29	   H	0.165	3.670	1.022	 H	1	UNK0	0.000	
30	   H	0.444	2.160	2.999	 H	1	UNK0	0.000	
31	   H	1.855	1.353	2.154	 H	1	UNK0	0.000	
32	   H	-2.333	-0.005	2.389	 H	1	UNK0	0.000	
33	   H	-2.159	-1.614	1.663	 H	1	UNK0	0.000	
34	   H	-2.884	2.063	-0.678	 H	1	UNK0	0.000	
35	   H	-4.237	2.210	-2.761	 H	1	UNK0	0.000	
36	   H	-3.840	-1.949	-3.316	 H	1	UNK0	0.000	
37	   H	-2.469	-2.090	-1.215	 H	1	UNK0	0.000	
38	   H	0.483	0.121	3.754	 H	1	UNK0	0.000	
@<TRIPOS>BOND
1 1 2 1
2 1 5 1
3 2 3 2
4 2 6 1
5 3 4 1
6 4 5 2
7 6 7 1
8 6 14 1
9 6 22 1
10 7 8 2
11 7 12 1
12 8 9 1
13 8 13 1
14 9 10 1
15 10 11 1
16 11 12 1
17 13 14 1
18 13 15 1
19 15 16 2
20 15 20 1
21 16 17 1
22 17 18 2
23 18 19 1
24 18 21 1
25 19 20 2
26 3 23 1
27 4 24 1
28 5 25 1
29 10 26 1
30 10 27 1
31 11 28 1
32 11 29 1
33 12 30 1
34 12 31 1
35 14 32 1
36 14 33 1
37 16 34 1
38 17 35 1
39 19 36 1
40 20 37 1
41 22 38 1
@<TRIPOS>SUBSTRUCTURE
1	UNK0	1	GROUP	1 ****	UNK
