# created with PyMOL 2.3.2
@<TRIPOS>MOLECULE
1173
38 41 1                 
SMALL
USER_CHARGES
@<TRIPOS>ATOM
1	   S	1.012	-3.329	2.475	S.3	1	UNK0	0.000	
2	   C	0.804	-1.712	1.983	C.2	1	UNK0	0.000	
3	   C	1.960	-1.449	1.293	C.2	1	UNK0	0.000	
4	   C	2.859	-2.438	1.199	C.2	1	UNK0	0.000	
5	   C	2.548	-3.628	1.800	C.2	1	UNK0	0.000	
6	   C	-0.352	-0.768	2.225	C.3	1	UNK0	0.000	
7	   N	-1.178	-0.830	1.034	N.pl3	1	UNK0	0.000	
8	   C	-1.938	-1.860	0.410	C.3	1	UNK0	0.000	
9	   C	-1.567	-2.173	-1.003	C.3	1	UNK0	0.000	
10	   C	-1.695	-1.037	-1.955	C.3	1	UNK0	0.000	
11	   S	-2.148	0.517	-1.084	S.3	1	UNK0	0.000	
12	   C	-1.174	0.476	0.407	C.2	1	UNK0	0.000	
13	   N	-0.467	1.298	1.062	N.pl3	1	UNK0	0.000	
14	   C	0.111	0.643	2.240	C.3	1	UNK0	0.000	
15	   C	-0.233	2.660	0.737	C.2	1	UNK0	0.000	
16	   C	-0.920	3.374	-0.216	C.2	1	UNK0	0.000	
17	   C	-0.640	4.715	-0.504	C.2	1	UNK0	0.000	
18	   C	0.351	5.383	0.169	C.2	1	UNK0	0.000	
19	   C	1.045	4.679	1.126	C.2	1	UNK0	0.000	
20	   C	0.772	3.363	1.409	C.2	1	UNK0	0.000	
21	  Br	0.754	7.223	-0.205	Br	1	UNK0	0.000	
22	   O	-1.020	-1.163	3.360	O.3	1	UNK0	0.000	
23	   H	2.121	-0.442	0.837	 H	1	UNK0	0.000	
24	   H	3.830	-2.329	0.663	 H	1	UNK0	0.000	
25	   H	3.175	-4.538	1.816	 H	1	UNK0	0.000	
26	   H	-1.811	-2.812	0.994	 H	1	UNK0	0.000	
27	   H	-3.011	-1.608	0.499	 H	1	UNK0	0.000	
28	   H	-2.257	-2.989	-1.342	 H	1	UNK0	0.000	
29	   H	-0.547	-2.600	-1.074	 H	1	UNK0	0.000	
30	   H	-0.721	-0.794	-2.470	 H	1	UNK0	0.000	
31	   H	-2.423	-1.236	-2.740	 H	1	UNK0	0.000	
32	   H	-0.294	1.194	3.110	 H	1	UNK0	0.000	
33	   H	1.216	0.752	2.222	 H	1	UNK0	0.000	
34	   H	-1.713	2.895	-0.770	 H	1	UNK0	0.000	
35	   H	-1.201	5.251	-1.262	 H	1	UNK0	0.000	
36	   H	1.832	5.201	1.664	 H	1	UNK0	0.000	
37	   H	1.333	2.811	2.174	 H	1	UNK0	0.000	
38	   H	-0.941	-0.432	4.021	 H	1	UNK0	0.000	
@<TRIPOS>BOND
1 1 2 1
2 1 5 1
3 2 3 2
4 2 6 1
5 3 4 1
6 4 5 2
7 6 7 1
8 6 14 1
9 6 22 1
10 7 8 1
11 7 12 1
12 8 9 1
13 9 10 1
14 10 11 1
15 11 12 1
16 12 13 2
17 13 14 1
18 13 15 1
19 15 16 2
20 15 20 1
21 16 17 1
22 17 18 2
23 18 19 1
24 18 21 1
25 19 20 2
26 3 23 1
27 4 24 1
28 5 25 1
29 8 26 1
30 8 27 1
31 9 28 1
32 9 29 1
33 10 30 1
34 10 31 1
35 14 32 1
36 14 33 1
37 16 34 1
38 17 35 1
39 19 36 1
40 20 37 1
41 22 38 1
@<TRIPOS>SUBSTRUCTURE
1	UNK0	1	GROUP	1 ****	UNK
