# created with PyMOL 2.3.2
@<TRIPOS>MOLECULE
1174
37 40 1                 
SMALL
USER_CHARGES
@<TRIPOS>ATOM
1	   S	2.485	-1.446	2.515	S.3	1	UNK0	0.000	
2	   C	2.411	0.249	2.706	C.2	1	UNK0	0.000	
3	   C	3.624	0.549	3.241	C.2	1	UNK0	0.000	
4	   C	4.479	-0.468	3.459	C.2	1	UNK0	0.000	
5	   C	4.050	-1.723	3.119	C.2	1	UNK0	0.000	
6	   C	1.290	1.185	2.354	C.2	1	UNK0	0.000	
7	   N	0.187	0.808	1.752	N.pl3	1	UNK0	0.000	
8	   C	-0.721	1.737	1.480	C.2	1	UNK0	0.000	
9	   S	-0.047	3.163	2.065	S.3	1	UNK0	0.000	
10	   C	1.428	2.518	2.662	C.2	1	UNK0	0.000	
11	   N	-1.887	1.135	0.793	N.pl3	1	UNK0	0.000	
12	   C	-1.887	-0.198	1.344	C.3	1	UNK0	0.000	
13	   C	-0.385	-0.469	1.242	C.3	1	UNK0	0.000	
14	   C	-2.580	1.897	-0.164	C.3	1	UNK0	0.000	
15	   C	-2.262	1.728	-1.552	C.2	1	UNK0	0.000	
16	   O	-2.316	2.882	-2.274	O.2	1	UNK0	0.000	
17	   C	-1.887	0.637	-2.398	C.2	1	UNK0	0.000	
18	   C	-1.999	-0.698	-2.108	C.2	1	UNK0	0.000	
19	   C	-1.553	-1.718	-2.904	C.2	1	UNK0	0.000	
20	   C	-0.938	-1.427	-4.100	C.2	1	UNK0	0.000	
21	   C	-0.807	-0.097	-4.432	C.2	1	UNK0	0.000	
22	   C	-1.257	0.917	-3.627	C.2	1	UNK0	0.000	
23	  Br	-0.308	-2.842	-5.212	Br	1	UNK0	0.000	
24	   H	3.918	1.597	3.496	 H	1	UNK0	0.000	
25	   H	5.503	-0.341	3.892	 H	1	UNK0	0.000	
26	   H	4.630	-2.659	3.236	 H	1	UNK0	0.000	
27	   H	2.271	3.029	3.161	 H	1	UNK0	0.000	
28	   H	-2.536	-0.934	0.952	 H	1	UNK0	0.000	
29	   H	-2.099	-0.124	2.475	 H	1	UNK0	0.000	
30	   H	-0.080	-1.326	1.844	 H	1	UNK0	0.000	
31	   H	-0.154	-0.527	0.162	 H	1	UNK0	0.000	
32	   H	-3.717	1.717	-0.075	 H	1	UNK0	0.000	
33	   H	-2.508	3.001	0.087	 H	1	UNK0	0.000	
34	   H	-2.507	-0.992	-1.212	 H	1	UNK0	0.000	
35	   H	-1.656	-2.772	-2.645	 H	1	UNK0	0.000	
36	   H	-0.321	0.143	-5.380	 H	1	UNK0	0.000	
37	   H	-1.116	1.964	-3.953	 H	1	UNK0	0.000	
@<TRIPOS>BOND
1 1 2 1
2 1 5 1
3 2 3 2
4 2 6 1
5 3 4 1
6 4 5 2
7 6 7 1
8 6 10 2
9 7 8 2
10 7 13 1
11 8 9 1
12 8 11 1
13 9 10 1
14 11 12 1
15 11 14 1
16 12 13 1
17 14 15 1
18 15 16 2
19 15 17 1
20 17 18 2
21 17 22 1
22 18 19 1
23 19 20 2
24 20 21 1
25 20 23 1
26 21 22 2
27 3 24 1
28 4 25 1
29 5 26 1
30 10 27 1
31 12 28 1
32 12 29 1
33 13 30 1
34 13 31 1
35 14 32 1
36 14 33 1
37 18 34 1
38 19 35 1
39 21 36 1
40 22 37 1
@<TRIPOS>SUBSTRUCTURE
1	UNK0	1	GROUP	1 ****	UNK
