# created with PyMOL 2.3.2
@<TRIPOS>MOLECULE
1175
50 53 1                 
SMALL
USER_CHARGES
@<TRIPOS>ATOM
1	   S	-4.093	0.374	0.658	S.3	1	UNK0	0.000	
2	   C	-2.840	-0.685	1.117	C.2	1	UNK0	0.000	
3	   C	-3.475	-1.567	1.944	C.2	1	UNK0	0.000	
4	   C	-4.781	-1.385	2.155	C.2	1	UNK0	0.000	
5	   C	-5.387	-0.329	1.527	C.2	1	UNK0	0.000	
6	   C	-1.413	-0.640	0.706	C.3	1	UNK0	0.000	
7	   N	-0.885	-1.937	0.331	N.pl3	1	UNK0	0.000	
8	   C	-1.242	-2.127	-1.046	C.2	1	UNK0	0.000	
9	   O	-1.342	-3.190	-1.700	O.2	1	UNK0	0.000	
10	   C	-1.488	-0.787	-1.609	C.2	1	UNK0	0.000	
11	   O	-1.831	-0.481	-2.790	O.2	1	UNK0	0.000	
12	   C	-1.268	0.176	-0.540	C.2	1	UNK0	0.000	
13	   C	-1.035	1.459	-0.645	C.2	1	UNK0	0.000	
14	   O	-0.889	2.282	0.487	O.2	1	UNK0	0.000	
15	   C	-0.904	2.125	-1.942	C.2	1	UNK0	0.000	
16	   C	-0.090	1.649	-2.949	C.2	1	UNK0	0.000	
17	   C	-0.023	2.302	-4.171	C.2	1	UNK0	0.000	
18	   C	-0.753	3.438	-4.433	C.2	1	UNK0	0.000	
19	   C	-1.565	3.902	-3.409	C.2	1	UNK0	0.000	
20	   C	-1.644	3.266	-2.189	C.2	1	UNK0	0.000	
21	  Br	-0.674	4.344	-6.106	Br	1	UNK0	0.000	
22	   C	-0.149	-2.916	1.097	C.3	1	UNK0	0.000	
23	   C	1.340	-2.769	1.031	C.3	1	UNK0	0.000	
24	   N	1.857	-1.524	1.513	N.4	1	UNK0	0.000	
25	   C	3.151	-1.736	2.184	C.3	1	UNK0	0.000	
26	   C	4.162	-2.072	1.105	C.3	1	UNK0	0.000	
27	   O	4.447	-0.879	0.424	O.3	1	UNK0	0.000	
28	   C	3.477	0.083	0.563	C.3	1	UNK0	0.000	
29	   C	2.073	-0.522	0.513	C.3	1	UNK0	0.000	
30	   H	-2.890	-2.390	2.403	 H	1	UNK0	0.000	
31	   H	-5.399	-2.039	2.809	 H	1	UNK0	0.000	
32	   H	-6.451	-0.028	1.585	 H	1	UNK0	0.000	
33	   H	-0.801	-0.191	1.511	 H	1	UNK0	0.000	
34	   H	0.518	0.764	-2.776	 H	1	UNK0	0.000	
35	   H	0.624	1.904	-4.942	 H	1	UNK0	0.000	
36	   H	-2.144	4.794	-3.604	 H	1	UNK0	0.000	
37	   H	-2.305	3.692	-1.432	 H	1	UNK0	0.000	
38	   H	-0.462	-3.923	0.715	 H	1	UNK0	0.000	
39	   H	-0.477	-2.921	2.161	 H	1	UNK0	0.000	
40	   H	1.753	-3.572	1.711	 H	1	UNK0	0.000	
41	   H	1.748	-3.034	0.022	 H	1	UNK0	0.000	
42	   H	1.246	-1.119	2.272	 H	1	UNK0	0.000	
43	   H	3.071	-2.541	2.945	 H	1	UNK0	0.000	
44	   H	3.433	-0.811	2.695	 H	1	UNK0	0.000	
45	   H	5.095	-2.400	1.583	 H	1	UNK0	0.000	
46	   H	3.756	-2.795	0.377	 H	1	UNK0	0.000	
47	   H	3.604	0.766	1.407	 H	1	UNK0	0.000	
48	   H	3.532	0.722	-0.367	 H	1	UNK0	0.000	
49	   H	1.971	-0.977	-0.478	 H	1	UNK0	0.000	
50	   H	1.367	0.338	0.659	 H	1	UNK0	0.000	
@<TRIPOS>BOND
1 1 2 1
2 1 5 1
3 2 3 2
4 2 6 1
5 3 4 1
6 4 5 2
7 6 7 1
8 6 12 1
9 7 8 1
10 7 22 1
11 8 9 2
12 8 10 1
13 10 11 2
14 10 12 1
15 12 13 2
16 13 14 1
17 13 15 1
18 15 16 2
19 15 20 1
20 16 17 1
21 17 18 2
22 18 19 1
23 18 21 1
24 19 20 2
25 22 23 1
26 23 24 1
27 24 25 1
28 24 29 1
29 25 26 1
30 26 27 1
31 27 28 1
32 28 29 1
33 3 30 1
34 4 31 1
35 5 32 1
36 6 33 1
37 16 34 1
38 17 35 1
39 19 36 1
40 20 37 1
41 22 38 1
42 22 39 1
43 23 40 1
44 23 41 1
45 24 42 1
46 25 43 1
47 25 44 1
48 26 45 1
49 26 46 1
50 28 47 1
51 28 48 1
52 29 49 1
53 29 50 1
@<TRIPOS>SUBSTRUCTURE
1	UNK0	1	GROUP	1 ****	UNK
