# created with PyMOL 2.3.2
@<TRIPOS>MOLECULE
1176
45 48 1                 
SMALL
USER_CHARGES
@<TRIPOS>ATOM
1	   S	2.517	-3.219	-2.469	S.3	1	UNK0	0.000	
2	   C	2.231	-1.558	-2.205	C.2	1	UNK0	0.000	
3	   N	1.529	-1.561	-1.089	N.2	1	UNK0	0.000	
4	   C	1.240	-2.687	-0.500	C.2	1	UNK0	0.000	
5	   C	1.701	-3.835	-1.102	C.2	1	UNK0	0.000	
6	  Br	1.471	-5.657	-0.528	Br	1	UNK0	0.000	
7	   C	0.449	-2.744	0.763	C.2	1	UNK0	0.000	
8	   O	0.208	-3.850	1.272	O.2	1	UNK0	0.000	
9	   N	-0.032	-1.572	1.392	N.pl3	1	UNK0	0.000	
10	   C	-0.796	-1.642	2.613	C.3	1	UNK0	0.000	
11	   C	-2.061	-0.843	2.543	C.3	1	UNK0	0.000	
12	   N	-1.776	0.476	2.037	N.pl3	1	UNK0	0.000	
13	   C	-0.437	0.824	1.667	C.3	1	UNK0	0.000	
14	   C	0.229	-0.244	0.825	C.3	1	UNK0	0.000	
15	   C	-2.857	1.408	1.919	C.2	1	UNK0	0.000	
16	   N	-4.112	1.077	2.267	N.2	1	UNK0	0.000	
17	   C	-5.119	1.958	2.153	C.2	1	UNK0	0.000	
18	   C	-4.871	3.217	1.674	C.2	1	UNK0	0.000	
19	   C	-3.589	3.544	1.322	C.2	1	UNK0	0.000	
20	   N	-2.608	2.634	1.451	N.2	1	UNK0	0.000	
21	   N	2.649	-0.417	-2.999	N.pl3	1	UNK0	0.000	
22	   C	2.287	0.915	-2.575	C.3	1	UNK0	0.000	
23	   C	1.781	1.648	-3.800	C.3	1	UNK0	0.000	
24	   O	2.791	1.670	-4.731	O.3	1	UNK0	0.000	
25	   C	3.106	0.427	-5.256	C.3	1	UNK0	0.000	
26	   C	3.409	-0.598	-4.187	C.3	1	UNK0	0.000	
27	   H	-0.148	-1.216	3.416	 H	1	UNK0	0.000	
28	   H	-1.066	-2.674	2.891	 H	1	UNK0	0.000	
29	   H	-2.461	-0.783	3.591	 H	1	UNK0	0.000	
30	   H	-2.782	-1.392	1.885	 H	1	UNK0	0.000	
31	   H	0.189	0.940	2.585	 H	1	UNK0	0.000	
32	   H	-0.373	1.790	1.131	 H	1	UNK0	0.000	
33	   H	-0.193	-0.172	-0.194	 H	1	UNK0	0.000	
34	   H	1.314	-0.066	0.863	 H	1	UNK0	0.000	
35	   H	-6.135	1.671	2.441	 H	1	UNK0	0.000	
36	   H	-5.692	3.905	1.591	 H	1	UNK0	0.000	
37	   H	-3.354	4.535	0.937	 H	1	UNK0	0.000	
38	   H	3.109	1.449	-2.075	 H	1	UNK0	0.000	
39	   H	1.406	0.832	-1.883	 H	1	UNK0	0.000	
40	   H	1.549	2.683	-3.516	 H	1	UNK0	0.000	
41	   H	0.876	1.105	-4.141	 H	1	UNK0	0.000	
42	   H	4.058	0.568	-5.838	 H	1	UNK0	0.000	
43	   H	2.365	0.069	-5.999	 H	1	UNK0	0.000	
44	   H	4.488	-0.566	-3.933	 H	1	UNK0	0.000	
45	   H	3.207	-1.594	-4.631	 H	1	UNK0	0.000	
@<TRIPOS>BOND
1 1 2 1
2 1 5 1
3 2 3 2
4 2 21 1
5 3 4 1
6 4 5 2
7 4 7 1
8 5 6 1
9 7 8 2
10 7 9 1
11 9 10 1
12 9 14 1
13 10 11 1
14 11 12 1
15 12 13 1
16 12 15 1
17 13 14 1
18 15 16 2
19 15 20 1
20 16 17 1
21 17 18 2
22 18 19 1
23 19 20 2
24 21 22 1
25 21 26 1
26 22 23 1
27 23 24 1
28 24 25 1
29 25 26 1
30 10 27 1
31 10 28 1
32 11 29 1
33 11 30 1
34 13 31 1
35 13 32 1
36 14 33 1
37 14 34 1
38 17 35 1
39 18 36 1
40 19 37 1
41 22 38 1
42 22 39 1
43 23 40 1
44 23 41 1
45 25 42 1
46 25 43 1
47 26 44 1
48 26 45 1
@<TRIPOS>SUBSTRUCTURE
1	UNK0	1	GROUP	1 ****	UNK
