# created with PyMOL 2.3.2
@<TRIPOS>MOLECULE
1178
58 61 1                 
SMALL
USER_CHARGES
@<TRIPOS>ATOM
1	   S	2.829	-1.383	-4.798	S.3	1	UNK0	0.000	
2	   C	3.719	-2.813	-4.543	C.2	1	UNK0	0.000	
3	   N	3.614	-2.985	-3.241	N.2	1	UNK0	0.000	
4	   C	2.940	-2.136	-2.527	C.2	1	UNK0	0.000	
5	   C	2.357	-1.077	-3.180	C.2	1	UNK0	0.000	
6	   C	1.582	0.056	-2.628	C.2	1	UNK0	0.000	
7	   C	0.500	-0.153	-1.938	C.2	1	UNK0	0.000	
8	   C	-0.355	0.913	-1.328	C.3	1	UNK0	0.000	
9	   N	-0.840	0.279	-0.131	N.pl3	1	UNK0	0.000	
10	   C	-1.018	-1.101	-0.478	C.2	1	UNK0	0.000	
11	   O	-1.765	-1.911	0.100	O.2	1	UNK0	0.000	
12	   C	-0.178	-1.405	-1.628	C.2	1	UNK0	0.000	
13	   O	-0.016	-2.476	-2.274	O.2	1	UNK0	0.000	
14	   C	-1.097	0.941	1.113	C.3	1	UNK0	0.000	
15	   C	-2.451	1.496	1.270	C.3	1	UNK0	0.000	
16	   C	-3.576	0.602	1.176	C.3	1	UNK0	0.000	
17	   N	-3.934	-0.460	1.990	N.4	1	UNK0	0.000	
18	   C	-5.273	-0.205	2.640	C.3	1	UNK0	0.000	
19	   C	-5.084	0.708	3.806	C.3	1	UNK0	0.000	
20	   O	-4.381	0.001	4.775	O.3	1	UNK0	0.000	
21	   C	-3.071	-0.132	4.262	C.3	1	UNK0	0.000	
22	   C	-3.072	-0.957	3.005	C.3	1	UNK0	0.000	
23	   C	0.410	2.153	-1.130	C.2	1	UNK0	0.000	
24	   C	1.491	2.322	-0.309	C.2	1	UNK0	0.000	
25	   C	2.178	3.504	-0.149	C.2	1	UNK0	0.000	
26	   C	1.763	4.604	-0.856	C.2	1	UNK0	0.000	
27	   C	0.685	4.499	-1.695	C.2	1	UNK0	0.000	
28	   C	0.021	3.302	-1.832	C.2	1	UNK0	0.000	
29	  Br	2.723	6.248	-0.632	Br	1	UNK0	0.000	
30	   O	2.014	1.375	-2.848	O.2	1	UNK0	0.000	
31	   C	2.834	-2.279	-1.011	C.3	1	UNK0	0.000	
32	   C	4.453	-3.687	-5.524	C.3	1	UNK0	0.000	
33	   H	-1.236	1.107	-1.971	 H	1	UNK0	0.000	
34	   H	-0.775	0.339	1.944	 H	1	UNK0	0.000	
35	   H	-0.354	1.834	1.121	 H	1	UNK0	0.000	
36	   H	-2.425	2.160	2.181	 H	1	UNK0	0.000	
37	   H	-2.529	2.307	0.456	 H	1	UNK0	0.000	
38	   H	-4.502	1.311	1.004	 H	1	UNK0	0.000	
39	   H	-3.545	0.167	0.098	 H	1	UNK0	0.000	
40	   H	-4.177	-1.293	1.401	 H	1	UNK0	0.000	
41	   H	-5.963	0.093	1.870	 H	1	UNK0	0.000	
42	   H	-5.597	-1.180	3.044	 H	1	UNK0	0.000	
43	   H	-6.088	1.019	4.155	 H	1	UNK0	0.000	
44	   H	-4.478	1.607	3.583	 H	1	UNK0	0.000	
45	   H	-2.496	-0.673	5.040	 H	1	UNK0	0.000	
46	   H	-2.659	0.870	4.174	 H	1	UNK0	0.000	
47	   H	-3.469	-1.982	3.382	 H	1	UNK0	0.000	
48	   H	-2.076	-1.190	2.689	 H	1	UNK0	0.000	
49	   H	1.835	1.466	0.254	 H	1	UNK0	0.000	
50	   H	3.028	3.533	0.531	 H	1	UNK0	0.000	
51	   H	0.382	5.399	-2.244	 H	1	UNK0	0.000	
52	   H	-0.825	3.239	-2.496	 H	1	UNK0	0.000	
53	   H	2.527	-1.347	-0.558	 H	1	UNK0	0.000	
54	   H	2.163	-3.114	-0.738	 H	1	UNK0	0.000	
55	   H	3.841	-2.546	-0.599	 H	1	UNK0	0.000	
56	   H	4.818	-3.036	-6.361	 H	1	UNK0	0.000	
57	   H	5.387	-4.091	-5.052	 H	1	UNK0	0.000	
58	   H	3.819	-4.493	-5.903	 H	1	UNK0	0.000	
@<TRIPOS>BOND
1 1 2 1
2 1 5 1
3 2 3 2
4 2 32 1
5 3 4 1
6 4 5 2
7 4 31 1
8 5 6 1
9 6 7 2
10 6 30 1
11 7 8 1
12 7 12 1
13 8 9 1
14 8 23 1
15 9 10 1
16 9 14 1
17 10 11 2
18 10 12 1
19 12 13 2
20 14 15 1
21 15 16 1
22 16 17 1
23 17 18 1
24 17 22 1
25 18 19 1
26 19 20 1
27 20 21 1
28 21 22 1
29 23 24 2
30 23 28 1
31 24 25 1
32 25 26 2
33 26 27 1
34 26 29 1
35 27 28 2
36 8 33 1
37 14 34 1
38 14 35 1
39 15 36 1
40 15 37 1
41 16 38 1
42 16 39 1
43 17 40 1
44 18 41 1
45 18 42 1
46 19 43 1
47 19 44 1
48 21 45 1
49 21 46 1
50 22 47 1
51 22 48 1
52 24 49 1
53 25 50 1
54 27 51 1
55 28 52 1
56 31 53 1
57 31 54 1
58 31 55 1
59 32 56 1
60 32 57 1
61 32 58 1
@<TRIPOS>SUBSTRUCTURE
1	UNK0	1	GROUP	1 ****	UNK
