# created with PyMOL 2.3.2
@<TRIPOS>MOLECULE
1179
55 58 1                 
SMALL
USER_CHARGES
@<TRIPOS>ATOM
1	   S	-1.974	-0.354	-4.263	S.3	1	UNK0	0.000	
2	   C	-0.838	-0.276	-5.529	C.2	1	UNK0	0.000	
3	   N	0.213	0.237	-4.923	N.2	1	UNK0	0.000	
4	   C	0.166	0.532	-3.670	C.2	1	UNK0	0.000	
5	   C	-1.025	0.288	-2.998	C.2	1	UNK0	0.000	
6	   C	-1.271	0.556	-1.573	C.2	1	UNK0	0.000	
7	   C	-1.912	-0.243	-0.762	C.2	1	UNK0	0.000	
8	   C	-2.246	-0.126	0.691	C.3	1	UNK0	0.000	
9	   N	-1.875	-1.391	1.159	N.pl3	1	UNK0	0.000	
10	   C	-2.485	-2.308	0.176	C.2	1	UNK0	0.000	
11	   O	-2.897	-3.480	0.374	O.2	1	UNK0	0.000	
12	   C	-2.498	-1.545	-1.076	C.2	1	UNK0	0.000	
13	   O	-2.916	-1.891	-2.225	O.2	1	UNK0	0.000	
14	   C	-1.145	-1.961	2.290	C.3	1	UNK0	0.000	
15	   C	0.261	-2.382	1.967	C.3	1	UNK0	0.000	
16	   N	1.164	-1.426	1.462	N.4	1	UNK0	0.000	
17	   C	2.036	-0.984	2.540	C.3	1	UNK0	0.000	
18	   C	3.473	-1.415	2.346	C.3	1	UNK0	0.000	
19	   O	3.957	-0.848	1.160	O.3	1	UNK0	0.000	
20	   C	3.199	-1.274	0.072	C.3	1	UNK0	0.000	
21	   C	2.041	-2.137	0.490	C.3	1	UNK0	0.000	
22	   C	-2.066	1.119	1.340	C.2	1	UNK0	0.000	
23	   C	-1.020	1.439	2.156	C.2	1	UNK0	0.000	
24	   C	-0.948	2.713	2.708	C.2	1	UNK0	0.000	
25	   C	-1.895	3.690	2.471	C.2	1	UNK0	0.000	
26	   C	-2.949	3.357	1.645	C.2	1	UNK0	0.000	
27	   C	-3.023	2.106	1.101	C.2	1	UNK0	0.000	
28	  Br	0.551	3.105	3.850	Br	1	UNK0	0.000	
29	   O	-0.765	1.760	-1.102	O.2	1	UNK0	0.000	
30	   C	1.349	1.124	-2.935	C.3	1	UNK0	0.000	
31	   C	-0.971	-0.681	-6.979	C.3	1	UNK0	0.000	
32	   H	-3.430	-0.227	0.636	 H	1	UNK0	0.000	
33	   H	-1.645	-2.945	2.585	 H	1	UNK0	0.000	
34	   H	-1.095	-1.292	3.162	 H	1	UNK0	0.000	
35	   H	0.243	-3.313	1.307	 H	1	UNK0	0.000	
36	   H	0.657	-2.814	2.940	 H	1	UNK0	0.000	
37	   H	0.758	-0.669	0.895	 H	1	UNK0	0.000	
38	   H	1.710	-1.392	3.530	 H	1	UNK0	0.000	
39	   H	2.077	0.137	2.618	 H	1	UNK0	0.000	
40	   H	3.630	-2.496	2.379	 H	1	UNK0	0.000	
41	   H	4.048	-0.910	3.171	 H	1	UNK0	0.000	
42	   H	2.822	-0.417	-0.523	 H	1	UNK0	0.000	
43	   H	3.841	-1.891	-0.578	 H	1	UNK0	0.000	
44	   H	2.330	-3.087	0.931	 H	1	UNK0	0.000	
45	   H	1.450	-2.341	-0.445	 H	1	UNK0	0.000	
46	   H	-0.222	0.741	2.417	 H	1	UNK0	0.000	
47	   H	-1.778	4.660	2.930	 H	1	UNK0	0.000	
48	   H	-3.679	4.131	1.472	 H	1	UNK0	0.000	
49	   H	-3.888	1.905	0.451	 H	1	UNK0	0.000	
50	   H	1.322	0.864	-1.878	 H	1	UNK0	0.000	
51	   H	1.282	2.228	-3.023	 H	1	UNK0	0.000	
52	   H	2.305	0.836	-3.418	 H	1	UNK0	0.000	
53	   H	-0.413	-1.635	-7.070	 H	1	UNK0	0.000	
54	   H	-2.063	-0.802	-7.187	 H	1	UNK0	0.000	
55	   H	-0.484	0.049	-7.648	 H	1	UNK0	0.000	
@<TRIPOS>BOND
1 1 2 1
2 1 5 1
3 2 3 2
4 2 31 1
5 3 4 1
6 4 5 2
7 4 30 1
8 5 6 1
9 6 7 2
10 6 29 1
11 7 8 1
12 7 12 1
13 8 9 1
14 8 22 1
15 9 10 1
16 9 14 1
17 10 11 2
18 10 12 1
19 12 13 2
20 14 15 1
21 15 16 1
22 16 17 1
23 16 21 1
24 17 18 1
25 18 19 1
26 19 20 1
27 20 21 1
28 22 23 2
29 22 27 1
30 23 24 1
31 24 25 2
32 24 28 1
33 25 26 1
34 26 27 2
35 8 32 1
36 14 33 1
37 14 34 1
38 15 35 1
39 15 36 1
40 16 37 1
41 17 38 1
42 17 39 1
43 18 40 1
44 18 41 1
45 20 42 1
46 20 43 1
47 21 44 1
48 21 45 1
49 23 46 1
50 25 47 1
51 26 48 1
52 27 49 1
53 30 50 1
54 30 51 1
55 30 52 1
56 31 53 1
57 31 54 1
58 31 55 1
@<TRIPOS>SUBSTRUCTURE
1	UNK0	1	GROUP	1 ****	UNK
