# created with PyMOL 2.3.2
@<TRIPOS>MOLECULE
1181
58 62 1                 
SMALL
USER_CHARGES
@<TRIPOS>ATOM
1	   S	-1.979	4.253	-1.977	S.3	1	UNK0	0.000	
2	   C	-0.566	3.738	-1.174	C.2	1	UNK0	0.000	
3	   N	-0.679	4.335	0.025	N.2	1	UNK0	0.000	
4	   C	-1.722	5.071	0.263	C.2	1	UNK0	0.000	
5	   C	-2.648	5.204	-0.732	C.2	1	UNK0	0.000	
6	   C	-1.952	5.681	1.618	C.2	1	UNK0	0.000	
7	   C	-3.063	6.448	1.840	C.2	1	UNK0	0.000	
8	   C	-3.326	6.965	3.110	C.2	1	UNK0	0.000	
9	   C	-2.450	6.692	4.142	C.2	1	UNK0	0.000	
10	   C	-1.328	5.923	3.929	C.2	1	UNK0	0.000	
11	   C	-1.104	5.434	2.669	C.2	1	UNK0	0.000	
12	  Br	-2.778	7.360	5.913	Br	1	UNK0	0.000	
13	   C	0.424	2.724	-1.577	C.2	1	UNK0	0.000	
14	   C	1.730	2.638	-1.214	C.2	1	UNK0	0.000	
15	   C	2.479	1.494	-1.470	C.2	1	UNK0	0.000	
16	   C	1.873	0.430	-2.102	C.2	1	UNK0	0.000	
17	   C	2.576	-0.748	-2.348	C.2	1	UNK0	0.000	
18	   C	3.884	-0.879	-1.986	C.2	1	UNK0	0.000	
19	   C	4.522	0.190	-1.347	C.2	1	UNK0	0.000	
20	   C	3.796	1.371	-1.100	C.2	1	UNK0	0.000	
21	   O	4.574	-2.062	-2.250	O.2	1	UNK0	0.000	
22	   C	1.770	-1.848	-2.970	C.3	1	UNK0	0.000	
23	   N	1.544	-2.879	-2.026	N.4	1	UNK0	0.000	
24	   C	1.686	-4.251	-2.310	C.3	1	UNK0	0.000	
25	   C	0.740	-4.965	-1.283	C.3	1	UNK0	0.000	
26	   N	0.162	-4.033	-0.408	N.3	1	UNK0	0.000	
27	   C	1.069	-3.147	0.309	C.3	1	UNK0	0.000	
28	   C	2.111	-2.617	-0.686	C.3	1	UNK0	0.000	
29	   C	-1.189	-3.786	-0.280	C.3	1	UNK0	0.000	
30	   C	-2.042	-4.823	0.442	C.3	1	UNK0	0.000	
31	   O	-1.654	-5.014	1.785	O.3	1	UNK0	0.000	
32	   O	0.616	0.538	-2.450	O.3	1	UNK0	0.000	
33	   C	-0.123	1.604	-2.229	C.2	1	UNK0	0.000	
34	   O	-1.325	1.689	-2.575	O.co2	1	UNK0	0.000	
35	   H	-3.598	5.786	-0.728	 H	1	UNK0	0.000	
36	   H	-3.736	6.663	1.027	 H	1	UNK0	0.000	
37	   H	-4.193	7.574	3.297	 H	1	UNK0	0.000	
38	   H	-0.640	5.715	4.774	 H	1	UNK0	0.000	
39	   H	-0.219	4.831	2.494	 H	1	UNK0	0.000	
40	   H	2.168	3.498	-0.721	 H	1	UNK0	0.000	
41	   H	5.554	0.115	-1.047	 H	1	UNK0	0.000	
42	   H	4.267	2.169	-0.603	 H	1	UNK0	0.000	
43	   H	2.380	-2.237	-3.859	 H	1	UNK0	0.000	
44	   H	0.857	-1.437	-3.405	 H	1	UNK0	0.000	
45	   H	0.449	-2.708	-1.789	 H	1	UNK0	0.000	
46	   H	1.370	-4.561	-3.329	 H	1	UNK0	0.000	
47	   H	2.718	-4.579	-2.109	 H	1	UNK0	0.000	
48	   H	-0.019	-5.517	-1.872	 H	1	UNK0	0.000	
49	   H	1.408	-5.648	-0.712	 H	1	UNK0	0.000	
50	   H	1.565	-3.716	1.089	 H	1	UNK0	0.000	
51	   H	0.479	-2.324	0.741	 H	1	UNK0	0.000	
52	   H	2.285	-1.587	-0.464	 H	1	UNK0	0.000	
53	   H	3.008	-3.237	-0.589	 H	1	UNK0	0.000	
54	   H	-1.353	-2.826	0.271	 H	1	UNK0	0.000	
55	   H	-1.701	-3.695	-1.296	 H	1	UNK0	0.000	
56	   H	-3.090	-4.398	0.396	 H	1	UNK0	0.000	
57	   H	-2.091	-5.775	-0.132	 H	1	UNK0	0.000	
58	   H	-2.100	-4.326	2.329	 H	1	UNK0	0.000	
@<TRIPOS>BOND
1 1 2 1
2 1 5 1
3 2 3 2
4 2 13 1
5 3 4 1
6 4 5 2
7 4 6 1
8 6 7 2
9 6 11 1
10 7 8 1
11 8 9 2
12 9 10 1
13 9 12 1
14 10 11 2
15 13 14 2
16 13 33 1
17 14 15 1
18 15 16 2
19 15 20 1
20 16 17 1
21 16 32 1
22 17 18 2
23 17 22 1
24 18 19 1
25 18 21 1
26 19 20 2
27 22 23 1
28 23 24 1
29 23 28 1
30 24 25 1
31 25 26 1
32 26 27 1
33 26 29 1
34 27 28 1
35 29 30 1
36 30 31 1
37 32 33 1
38 33 34 2
39 5 35 1
40 7 36 1
41 8 37 1
42 10 38 1
43 11 39 1
44 14 40 1
45 19 41 1
46 20 42 1
47 22 43 1
48 22 44 1
49 23 45 1
50 24 46 1
51 24 47 1
52 25 48 1
53 25 49 1
54 27 50 1
55 27 51 1
56 28 52 1
57 28 53 1
58 29 54 1
59 29 55 1
60 30 56 1
61 30 57 1
62 31 58 1
@<TRIPOS>SUBSTRUCTURE
1	UNK0	1	GROUP	1 ****	UNK
