# created with PyMOL 2.3.2
@<TRIPOS>MOLECULE
1186
43 46 1                 
SMALL
USER_CHARGES
@<TRIPOS>ATOM
1	   S	0.234	-2.091	3.396	S.3	1	UNK0	0.000	
2	   C	-0.273	-1.122	2.082	C.2	1	UNK0	0.000	
3	   C	0.032	-1.901	0.997	C.2	1	UNK0	0.000	
4	   C	0.592	-3.096	1.234	C.2	1	UNK0	0.000	
5	   C	0.814	-3.445	2.542	C.2	1	UNK0	0.000	
6	   C	1.440	-4.766	2.872	C.3	1	UNK0	0.000	
7	   N	2.615	-4.898	2.017	N.4	1	UNK0	0.000	
8	   C	2.345	-4.747	0.628	C.3	1	UNK0	0.000	
9	   C	1.036	-4.164	0.251	C.3	1	UNK0	0.000	
10	   C	3.508	-3.798	2.415	C.3	1	UNK0	0.000	
11	   C	-0.347	-1.252	-0.297	C.2	1	UNK0	0.000	
12	   O	-0.125	-1.857	-1.393	O.2	1	UNK0	0.000	
13	   N	-0.951	0.027	-0.306	N.pl3	1	UNK0	0.000	
14	   C	-0.589	0.942	0.778	C.3	1	UNK0	0.000	
15	   N	-0.886	0.198	1.962	N.pl3	1	UNK0	0.000	
16	   C	-1.088	2.270	0.620	C.2	1	UNK0	0.000	
17	   C	-0.943	2.872	-0.633	C.2	1	UNK0	0.000	
18	   C	-1.415	4.151	-0.853	C.2	1	UNK0	0.000	
19	   C	-2.038	4.880	0.131	C.2	1	UNK0	0.000	
20	   C	-2.188	4.308	1.359	C.2	1	UNK0	0.000	
21	   C	-1.706	3.003	1.582	C.2	1	UNK0	0.000	
22	   O	-1.929	2.560	2.878	O.2	1	UNK0	0.000	
23	   O	-2.815	5.019	2.378	O.3	1	UNK0	0.000	
24	   C	-3.283	6.324	2.114	C.3	1	UNK0	0.000	
25	  Br	-1.226	4.994	-2.563	Br	1	UNK0	0.000	
26	  Br	-0.070	2.008	-2.100	Br	1	UNK0	0.000	
27	   H	1.841	-4.720	3.917	 H	1	UNK0	0.000	
28	   H	0.740	-5.595	2.788	 H	1	UNK0	0.000	
29	   H	3.112	-5.777	2.201	 H	1	UNK0	0.000	
30	   H	2.405	-5.773	0.158	 H	1	UNK0	0.000	
31	   H	3.219	-4.211	0.159	 H	1	UNK0	0.000	
32	   H	1.123	-3.719	-0.759	 H	1	UNK0	0.000	
33	   H	0.224	-4.904	0.211	 H	1	UNK0	0.000	
34	   H	4.070	-4.034	3.319	 H	1	UNK0	0.000	
35	   H	4.212	-3.538	1.603	 H	1	UNK0	0.000	
36	   H	2.905	-2.893	2.612	 H	1	UNK0	0.000	
37	   H	-1.628	0.263	-1.063	 H	1	UNK0	0.000	
38	   H	0.553	1.018	0.756	 H	1	UNK0	0.000	
39	   H	-1.486	0.449	2.762	 H	1	UNK0	0.000	
40	   H	-2.407	5.882	-0.045	 H	1	UNK0	0.000	
41	   H	-3.953	6.336	1.205	 H	1	UNK0	0.000	
42	   H	-2.469	7.036	1.903	 H	1	UNK0	0.000	
43	   H	-3.912	6.720	2.933	 H	1	UNK0	0.000	
@<TRIPOS>BOND
1 1 2 1
2 1 5 1
3 2 3 2
4 2 15 1
5 3 4 1
6 3 11 1
7 4 5 2
8 4 9 1
9 5 6 1
10 6 7 1
11 7 8 1
12 7 10 1
13 8 9 1
14 11 12 2
15 11 13 1
16 13 14 1
17 14 15 1
18 14 16 1
19 16 17 2
20 16 21 1
21 17 18 1
22 17 26 1
23 18 19 2
24 18 25 1
25 19 20 1
26 20 21 2
27 20 23 1
28 21 22 1
29 23 24 1
30 6 27 1
31 6 28 1
32 7 29 1
33 8 30 1
34 8 31 1
35 9 32 1
36 9 33 1
37 10 34 1
38 10 35 1
39 10 36 1
40 13 37 1
41 14 38 1
42 15 39 1
43 19 40 1
44 24 41 1
45 24 42 1
46 24 43 1
@<TRIPOS>SUBSTRUCTURE
1	UNK0	1	GROUP	1 ****	UNK
