# created with PyMOL 2.3.2
@<TRIPOS>MOLECULE
1187
39 42 1                 
SMALL
USER_CHARGES
@<TRIPOS>ATOM
1	   S	0.500	0.995	-1.430	S.3	1	UNK0	0.000	
2	   C	1.264	0.450	-0.004	C.2	1	UNK0	0.000	
3	   C	0.567	-0.673	0.331	C.2	1	UNK0	0.000	
4	   C	-0.462	-1.014	-0.501	C.2	1	UNK0	0.000	
5	   C	-0.690	-0.205	-1.580	C.2	1	UNK0	0.000	
6	   C	-1.815	-0.526	-2.541	C.3	1	UNK0	0.000	
7	   N	-1.634	-1.919	-2.881	N.4	1	UNK0	0.000	
8	   C	-1.579	-2.799	-1.783	C.3	1	UNK0	0.000	
9	   C	-1.434	-2.188	-0.431	C.3	1	UNK0	0.000	
10	   C	-0.439	-2.062	-3.692	C.3	1	UNK0	0.000	
11	   C	1.039	-1.373	1.558	C.2	1	UNK0	0.000	
12	   O	0.438	-2.438	1.947	O.2	1	UNK0	0.000	
13	   N	2.123	-0.866	2.267	N.pl3	1	UNK0	0.000	
14	   C	2.564	0.497	2.148	C.3	1	UNK0	0.000	
15	   N	2.376	0.936	0.793	N.pl3	1	UNK0	0.000	
16	   C	1.758	1.316	3.101	C.2	1	UNK0	0.000	
17	   C	1.205	2.528	2.743	C.2	1	UNK0	0.000	
18	   C	0.458	3.275	3.646	C.2	1	UNK0	0.000	
19	   C	0.244	2.829	4.935	C.2	1	UNK0	0.000	
20	   C	0.800	1.614	5.291	C.2	1	UNK0	0.000	
21	   C	1.541	0.878	4.389	C.2	1	UNK0	0.000	
22	  Br	0.512	0.988	7.068	Br	1	UNK0	0.000	
23	  Br	-0.293	4.955	3.105	Br	1	UNK0	0.000	
24	   O	1.418	2.975	1.454	O.2	1	UNK0	0.000	
25	   H	-1.638	0.068	-3.459	 H	1	UNK0	0.000	
26	   H	-2.790	-0.277	-2.135	 H	1	UNK0	0.000	
27	   H	-2.434	-2.174	-3.505	 H	1	UNK0	0.000	
28	   H	-2.509	-3.434	-1.754	 H	1	UNK0	0.000	
29	   H	-0.751	-3.523	-1.921	 H	1	UNK0	0.000	
30	   H	-2.411	-1.840	-0.038	 H	1	UNK0	0.000	
31	   H	-1.050	-2.943	0.278	 H	1	UNK0	0.000	
32	   H	-0.614	-2.698	-4.587	 H	1	UNK0	0.000	
33	   H	0.362	-2.592	-3.105	 H	1	UNK0	0.000	
34	   H	-0.088	-1.089	-4.051	 H	1	UNK0	0.000	
35	   H	2.642	-1.509	2.917	 H	1	UNK0	0.000	
36	   H	3.628	0.574	2.468	 H	1	UNK0	0.000	
37	   H	3.014	1.605	0.333	 H	1	UNK0	0.000	
38	   H	-0.338	3.413	5.636	 H	1	UNK0	0.000	
39	   H	1.984	-0.085	4.664	 H	1	UNK0	0.000	
@<TRIPOS>BOND
1 1 2 1
2 1 5 1
3 2 3 2
4 2 15 1
5 3 4 1
6 3 11 1
7 4 5 2
8 4 9 1
9 5 6 1
10 6 7 1
11 7 8 1
12 7 10 1
13 8 9 1
14 11 12 2
15 11 13 1
16 13 14 1
17 14 15 1
18 14 16 1
19 16 17 2
20 16 21 1
21 17 18 1
22 17 24 1
23 18 19 2
24 18 23 1
25 19 20 1
26 20 21 2
27 20 22 1
28 6 25 1
29 6 26 1
30 7 27 1
31 8 28 1
32 8 29 1
33 9 30 1
34 9 31 1
35 10 32 1
36 10 33 1
37 10 34 1
38 13 35 1
39 14 36 1
40 15 37 1
41 19 38 1
42 21 39 1
@<TRIPOS>SUBSTRUCTURE
1	UNK0	1	GROUP	1 ****	UNK
