# created with PyMOL 2.3.2
@<TRIPOS>MOLECULE
1188
42 45 1                 
SMALL
USER_CHARGES
@<TRIPOS>ATOM
1	   S	2.067	-0.158	2.039	S.3	1	UNK0	0.000	
2	   C	1.467	-1.329	0.932	C.2	1	UNK0	0.000	
3	   C	0.137	-1.379	1.227	C.2	1	UNK0	0.000	
4	   C	-0.303	-0.574	2.212	C.2	1	UNK0	0.000	
5	   C	0.619	0.226	2.834	C.2	1	UNK0	0.000	
6	   C	0.228	1.158	3.938	C.3	1	UNK0	0.000	
7	   N	-0.933	1.870	3.433	N.4	1	UNK0	0.000	
8	   C	-2.006	1.022	3.066	C.3	1	UNK0	0.000	
9	   C	-1.708	-0.396	2.771	C.3	1	UNK0	0.000	
10	   C	-0.568	2.702	2.294	C.3	1	UNK0	0.000	
11	   C	-0.636	-2.343	0.394	C.2	1	UNK0	0.000	
12	   O	-1.880	-2.491	0.561	O.2	1	UNK0	0.000	
13	   N	0.033	-3.100	-0.595	N.pl3	1	UNK0	0.000	
14	   C	1.341	-2.793	-1.121	C.3	1	UNK0	0.000	
15	   N	2.080	-2.132	-0.099	N.pl3	1	UNK0	0.000	
16	   C	1.152	-1.969	-2.342	C.2	1	UNK0	0.000	
17	   C	1.938	-0.851	-2.518	C.2	1	UNK0	0.000	
18	   C	1.769	-0.076	-3.653	C.2	1	UNK0	0.000	
19	   C	0.816	-0.437	-4.589	C.2	1	UNK0	0.000	
20	   C	0.017	-1.553	-4.435	C.2	1	UNK0	0.000	
21	   C	0.218	-2.298	-3.289	C.2	1	UNK0	0.000	
22	  Br	-1.300	-2.047	-5.733	Br	1	UNK0	0.000	
23	   C	2.623	1.127	-3.831	C.3	1	UNK0	0.000	
24	   O	2.899	-0.464	-1.600	O.2	1	UNK0	0.000	
25	   H	1.026	1.926	4.066	 H	1	UNK0	0.000	
26	   H	-0.048	0.638	4.854	 H	1	UNK0	0.000	
27	   H	-1.237	2.516	4.194	 H	1	UNK0	0.000	
28	   H	-2.758	1.023	3.911	 H	1	UNK0	0.000	
29	   H	-2.573	1.531	2.231	 H	1	UNK0	0.000	
30	   H	-2.458	-0.782	2.048	 H	1	UNK0	0.000	
31	   H	-1.751	-1.065	3.654	 H	1	UNK0	0.000	
32	   H	0.487	3.062	2.363	 H	1	UNK0	0.000	
33	   H	-0.753	2.181	1.325	 H	1	UNK0	0.000	
34	   H	-1.220	3.602	2.292	 H	1	UNK0	0.000	
35	   H	-0.458	-3.944	-0.972	 H	1	UNK0	0.000	
36	   H	1.804	-3.745	-1.457	 H	1	UNK0	0.000	
37	   H	3.111	-2.212	-0.068	 H	1	UNK0	0.000	
38	   H	0.705	0.189	-5.471	 H	1	UNK0	0.000	
39	   H	-0.408	-3.180	-3.158	 H	1	UNK0	0.000	
40	   H	2.973	1.243	-4.876	 H	1	UNK0	0.000	
41	   H	2.060	2.001	-3.470	 H	1	UNK0	0.000	
42	   H	3.521	1.033	-3.195	 H	1	UNK0	0.000	
@<TRIPOS>BOND
1 1 2 1
2 1 5 1
3 2 3 2
4 2 15 1
5 3 4 1
6 3 11 1
7 4 5 2
8 4 9 1
9 5 6 1
10 6 7 1
11 7 8 1
12 7 10 1
13 8 9 1
14 11 12 2
15 11 13 1
16 13 14 1
17 14 15 1
18 14 16 1
19 16 17 2
20 16 21 1
21 17 18 1
22 17 24 1
23 18 19 2
24 18 23 1
25 19 20 1
26 20 21 2
27 20 22 1
28 6 25 1
29 6 26 1
30 7 27 1
31 8 28 1
32 8 29 1
33 9 30 1
34 9 31 1
35 10 32 1
36 10 33 1
37 10 34 1
38 13 35 1
39 14 36 1
40 15 37 1
41 19 38 1
42 21 39 1
43 23 40 1
44 23 41 1
45 23 42 1
@<TRIPOS>SUBSTRUCTURE
1	UNK0	1	GROUP	1 ****	UNK
