# created with PyMOL 2.3.2
@<TRIPOS>MOLECULE
1189
39 42 1                 
SMALL
USER_CHARGES
@<TRIPOS>ATOM
1	   S	1.410	0.076	2.093	S.3	1	UNK0	0.000	
2	   C	-0.284	-0.015	2.236	C.2	1	UNK0	0.000	
3	   C	-0.737	0.605	1.107	C.2	1	UNK0	0.000	
4	   C	0.219	1.080	0.257	C.2	1	UNK0	0.000	
5	   C	1.527	0.895	0.610	C.2	1	UNK0	0.000	
6	   C	2.636	1.410	-0.294	C.3	1	UNK0	0.000	
7	   N	2.252	2.814	-0.456	N.4	1	UNK0	0.000	
8	   C	1.061	2.879	-1.212	C.3	1	UNK0	0.000	
9	   C	0.064	1.807	-1.071	C.3	1	UNK0	0.000	
10	   C	3.311	3.601	-1.022	C.3	1	UNK0	0.000	
11	   C	-2.219	0.678	0.999	C.2	1	UNK0	0.000	
12	   O	-2.746	1.239	-0.025	O.2	1	UNK0	0.000	
13	   N	-3.006	0.139	2.007	N.pl3	1	UNK0	0.000	
14	   C	-2.543	-0.912	2.867	C.3	1	UNK0	0.000	
15	   N	-1.174	-0.575	3.212	N.pl3	1	UNK0	0.000	
16	   C	-2.607	-2.214	2.139	C.2	1	UNK0	0.000	
17	   C	-1.568	-3.109	2.187	C.2	1	UNK0	0.000	
18	   C	-1.635	-4.319	1.505	C.2	1	UNK0	0.000	
19	   C	-2.747	-4.647	0.767	C.2	1	UNK0	0.000	
20	   C	-3.783	-3.772	0.710	C.2	1	UNK0	0.000	
21	   C	-3.708	-2.572	1.390	C.2	1	UNK0	0.000	
22	  Br	-5.327	-4.219	-0.311	Br	1	UNK0	0.000	
23	  Cl	-0.253	-5.402	1.627	Cl	1	UNK0	0.000	
24	   O	-0.437	-2.806	2.922	O.2	1	UNK0	0.000	
25	   H	3.597	1.362	0.254	 H	1	UNK0	0.000	
26	   H	2.660	0.869	-1.248	 H	1	UNK0	0.000	
27	   H	2.064	3.174	0.506	 H	1	UNK0	0.000	
28	   H	1.366	3.050	-2.290	 H	1	UNK0	0.000	
29	   H	0.554	3.851	-0.946	 H	1	UNK0	0.000	
30	   H	-0.979	2.122	-1.236	 H	1	UNK0	0.000	
31	   H	0.267	1.032	-1.867	 H	1	UNK0	0.000	
32	   H	3.971	3.949	-0.186	 H	1	UNK0	0.000	
33	   H	2.851	4.532	-1.429	 H	1	UNK0	0.000	
34	   H	3.927	3.069	-1.754	 H	1	UNK0	0.000	
35	   H	-3.995	0.512	2.157	 H	1	UNK0	0.000	
36	   H	-3.195	-0.947	3.768	 H	1	UNK0	0.000	
37	   H	-0.837	-0.738	4.167	 H	1	UNK0	0.000	
38	   H	-2.807	-5.585	0.235	 H	1	UNK0	0.000	
39	   H	-4.551	-1.891	1.327	 H	1	UNK0	0.000	
@<TRIPOS>BOND
1 1 2 1
2 1 5 1
3 2 3 2
4 2 15 1
5 3 4 1
6 3 11 1
7 4 5 2
8 4 9 1
9 5 6 1
10 6 7 1
11 7 8 1
12 7 10 1
13 8 9 1
14 11 12 2
15 11 13 1
16 13 14 1
17 14 15 1
18 14 16 1
19 16 17 2
20 16 21 1
21 17 18 1
22 17 24 1
23 18 19 2
24 18 23 1
25 19 20 1
26 20 21 2
27 20 22 1
28 6 25 1
29 6 26 1
30 7 27 1
31 8 28 1
32 8 29 1
33 9 30 1
34 9 31 1
35 10 32 1
36 10 33 1
37 10 34 1
38 13 35 1
39 14 36 1
40 15 37 1
41 19 38 1
42 21 39 1
@<TRIPOS>SUBSTRUCTURE
1	UNK0	1	GROUP	1 ****	UNK
