# created with PyMOL 2.3.2
@<TRIPOS>MOLECULE
1190
46 49 1                 
SMALL
USER_CHARGES
@<TRIPOS>ATOM
1	   S	-0.128	2.356	1.512	S.3	1	UNK0	0.000	
2	   C	0.996	1.327	0.687	C.2	1	UNK0	0.000	
3	   C	0.361	1.113	-0.502	C.2	1	UNK0	0.000	
4	   C	-0.831	1.693	-0.696	C.2	1	UNK0	0.000	
5	   C	-1.338	2.465	0.318	C.2	1	UNK0	0.000	
6	   C	-2.666	3.099	0.078	C.3	1	UNK0	0.000	
7	   N	-2.699	3.815	-1.185	N.4	1	UNK0	0.000	
8	   C	-2.091	3.097	-2.263	C.3	1	UNK0	0.000	
9	   C	-1.788	1.664	-1.880	C.3	1	UNK0	0.000	
10	   C	-1.935	5.046	-0.991	C.3	1	UNK0	0.000	
11	   C	1.107	0.239	-1.444	C.2	1	UNK0	0.000	
12	   O	0.669	-0.061	-2.583	O.2	1	UNK0	0.000	
13	   N	2.353	-0.277	-1.054	N.pl3	1	UNK0	0.000	
14	   C	2.761	-0.393	0.343	C.3	1	UNK0	0.000	
15	   N	2.278	0.773	1.029	N.pl3	1	UNK0	0.000	
16	   C	2.011	-1.583	0.879	C.2	1	UNK0	0.000	
17	   C	1.388	-1.535	2.096	C.2	1	UNK0	0.000	
18	   C	0.710	-2.656	2.548	C.2	1	UNK0	0.000	
19	   C	0.657	-3.798	1.802	C.2	1	UNK0	0.000	
20	   C	1.291	-3.836	0.573	C.2	1	UNK0	0.000	
21	   C	1.965	-2.740	0.109	C.2	1	UNK0	0.000	
22	  Br	1.235	-5.415	-0.491	Br	1	UNK0	0.000	
23	   O	0.091	-2.559	3.790	O.3	1	UNK0	0.000	
24	   C	-0.624	-3.663	4.326	C.3	1	UNK0	0.000	
25	   C	-1.183	-3.268	5.677	C.3	1	UNK0	0.000	
26	   O	1.448	-0.365	2.848	O.2	1	UNK0	0.000	
27	   H	-3.489	2.355	0.149	 H	1	UNK0	0.000	
28	   H	-2.795	3.862	0.874	 H	1	UNK0	0.000	
29	   H	-3.711	4.042	-1.361	 H	1	UNK0	0.000	
30	   H	-2.732	3.083	-3.163	 H	1	UNK0	0.000	
31	   H	-1.119	3.550	-2.578	 H	1	UNK0	0.000	
32	   H	-1.378	1.103	-2.712	 H	1	UNK0	0.000	
33	   H	-2.732	1.225	-1.515	 H	1	UNK0	0.000	
34	   H	-0.854	4.819	-1.191	 H	1	UNK0	0.000	
35	   H	-2.270	5.839	-1.708	 H	1	UNK0	0.000	
36	   H	-2.049	5.458	0.022	 H	1	UNK0	0.000	
37	   H	3.046	-0.603	-1.765	 H	1	UNK0	0.000	
38	   H	3.838	-0.522	0.442	 H	1	UNK0	0.000	
39	   H	2.801	1.268	1.782	 H	1	UNK0	0.000	
40	   H	0.117	-4.646	2.197	 H	1	UNK0	0.000	
41	   H	2.461	-2.769	-0.851	 H	1	UNK0	0.000	
42	   H	0.043	-4.535	4.487	 H	1	UNK0	0.000	
43	   H	-1.439	-3.894	3.603	 H	1	UNK0	0.000	
44	   H	-1.300	-2.165	5.767	 H	1	UNK0	0.000	
45	   H	-2.197	-3.692	5.826	 H	1	UNK0	0.000	
46	   H	-0.568	-3.619	6.519	 H	1	UNK0	0.000	
@<TRIPOS>BOND
1 1 2 1
2 1 5 1
3 2 3 2
4 2 15 1
5 3 4 1
6 3 11 1
7 4 5 2
8 4 9 1
9 5 6 1
10 6 7 1
11 7 8 1
12 7 10 1
13 8 9 1
14 11 12 2
15 11 13 1
16 13 14 1
17 14 15 1
18 14 16 1
19 16 17 2
20 16 21 1
21 17 18 1
22 17 26 1
23 18 19 2
24 18 23 1
25 19 20 1
26 20 21 2
27 20 22 1
28 23 24 1
29 24 25 1
30 6 27 1
31 6 28 1
32 7 29 1
33 8 30 1
34 8 31 1
35 9 32 1
36 9 33 1
37 10 34 1
38 10 35 1
39 10 36 1
40 13 37 1
41 14 38 1
42 15 39 1
43 19 40 1
44 21 41 1
45 24 42 1
46 24 43 1
47 25 44 1
48 25 45 1
49 25 46 1
@<TRIPOS>SUBSTRUCTURE
1	UNK0	1	GROUP	1 ****	UNK
