# created with PyMOL 2.3.2
@<TRIPOS>MOLECULE
1191
43 46 1                 
SMALL
USER_CHARGES
@<TRIPOS>ATOM
1	   S	-3.233	0.833	-0.179	S.3	1	UNK0	0.000	
2	   C	-2.267	-0.206	-1.160	C.2	1	UNK0	0.000	
3	   C	-1.164	0.566	-1.398	C.2	1	UNK0	0.000	
4	   C	-1.128	1.793	-0.864	C.2	1	UNK0	0.000	
5	   C	-2.203	2.189	-0.115	C.2	1	UNK0	0.000	
6	   C	-2.142	3.560	0.471	C.3	1	UNK0	0.000	
7	   N	-0.881	3.756	1.205	N.4	1	UNK0	0.000	
8	   C	0.246	3.227	0.502	C.3	1	UNK0	0.000	
9	   C	-0.070	2.881	-0.936	C.3	1	UNK0	0.000	
10	   C	-1.031	2.978	2.439	C.3	1	UNK0	0.000	
11	   C	-0.146	-0.108	-2.248	C.2	1	UNK0	0.000	
12	   O	0.929	0.460	-2.563	O.2	1	UNK0	0.000	
13	   N	-0.380	-1.417	-2.718	N.pl3	1	UNK0	0.000	
14	   C	-1.255	-2.346	-2.032	C.3	1	UNK0	0.000	
15	   N	-2.425	-1.546	-1.680	N.pl3	1	UNK0	0.000	
16	   C	-0.658	-2.788	-0.734	C.2	1	UNK0	0.000	
17	   C	0.668	-3.161	-0.633	C.2	1	UNK0	0.000	
18	   C	1.232	-3.571	0.559	C.2	1	UNK0	0.000	
19	   C	0.467	-3.616	1.691	C.2	1	UNK0	0.000	
20	   C	-0.869	-3.249	1.633	C.2	1	UNK0	0.000	
21	   C	-1.400	-2.847	0.435	C.2	1	UNK0	0.000	
22	  Br	-1.900	-3.326	3.232	Br	1	UNK0	0.000	
23	   O	2.574	-3.931	0.577	O.3	1	UNK0	0.000	
24	   C	3.200	-4.357	1.772	C.3	1	UNK0	0.000	
25	   O	1.446	-3.117	-1.778	O.2	1	UNK0	0.000	
26	   H	-2.297	4.351	-0.285	 H	1	UNK0	0.000	
27	   H	-2.942	3.677	1.240	 H	1	UNK0	0.000	
28	   H	-0.820	4.753	1.435	 H	1	UNK0	0.000	
29	   H	1.126	3.929	0.535	 H	1	UNK0	0.000	
30	   H	0.637	2.274	0.963	 H	1	UNK0	0.000	
31	   H	0.823	2.525	-1.444	 H	1	UNK0	0.000	
32	   H	-0.540	3.764	-1.417	 H	1	UNK0	0.000	
33	   H	-0.061	2.494	2.707	 H	1	UNK0	0.000	
34	   H	-1.430	3.594	3.264	 H	1	UNK0	0.000	
35	   H	-1.747	2.136	2.296	 H	1	UNK0	0.000	
36	   H	0.078	-1.763	-3.591	 H	1	UNK0	0.000	
37	   H	-1.554	-3.176	-2.667	 H	1	UNK0	0.000	
38	   H	-3.389	-1.886	-1.781	 H	1	UNK0	0.000	
39	   H	0.911	-3.940	2.638	 H	1	UNK0	0.000	
40	   H	-2.446	-2.563	0.403	 H	1	UNK0	0.000	
41	   H	4.144	-4.875	1.508	 H	1	UNK0	0.000	
42	   H	3.448	-3.471	2.419	 H	1	UNK0	0.000	
43	   H	2.570	-5.092	2.320	 H	1	UNK0	0.000	
@<TRIPOS>BOND
1 1 2 1
2 1 5 1
3 2 3 2
4 2 15 1
5 3 4 1
6 3 11 1
7 4 5 2
8 4 9 1
9 5 6 1
10 6 7 1
11 7 8 1
12 7 10 1
13 8 9 1
14 11 12 2
15 11 13 1
16 13 14 1
17 14 15 1
18 14 16 1
19 16 17 2
20 16 21 1
21 17 18 1
22 17 25 1
23 18 19 2
24 18 23 1
25 19 20 1
26 20 21 2
27 20 22 1
28 23 24 1
29 6 26 1
30 6 27 1
31 7 28 1
32 8 29 1
33 8 30 1
34 9 31 1
35 9 32 1
36 10 33 1
37 10 34 1
38 10 35 1
39 13 36 1
40 14 37 1
41 15 38 1
42 19 39 1
43 21 40 1
44 24 41 1
45 24 42 1
46 24 43 1
@<TRIPOS>SUBSTRUCTURE
1	UNK0	1	GROUP	1 ****	UNK
