# created with PyMOL 2.3.2
@<TRIPOS>MOLECULE
1194
49 52 1                 
SMALL
USER_CHARGES
@<TRIPOS>ATOM
1	   S	0.168	2.987	-0.693	S.3	1	UNK0	0.000	
2	   C	0.103	1.695	-1.821	C.2	1	UNK0	0.000	
3	   C	1.413	1.473	-2.112	C.2	1	UNK0	0.000	
4	   C	2.328	2.253	-1.495	C.2	1	UNK0	0.000	
5	   C	1.862	3.200	-0.631	C.2	1	UNK0	0.000	
6	   N	2.707	4.107	0.103	N.pl3	1	UNK0	0.000	
7	   C	4.124	4.082	-0.023	C.2	1	UNK0	0.000	
8	   C	5.110	4.778	0.514	C.2	1	UNK0	0.000	
9	   C	6.426	4.328	0.023	C.3	1	UNK0	0.000	
10	   C	6.117	3.223	-0.923	C.3	1	UNK0	0.000	
11	   N	4.654	3.110	-0.915	N.pl3	1	UNK0	0.000	
12	   C	3.809	2.225	-1.628	C.2	1	UNK0	0.000	
13	   O	4.388	1.393	-2.401	O.2	1	UNK0	0.000	
14	   C	1.634	0.431	-3.041	C.2	1	UNK0	0.000	
15	   C	0.606	-0.275	-3.586	C.2	1	UNK0	0.000	
16	   C	-0.703	-0.041	-3.284	C.2	1	UNK0	0.000	
17	   C	-0.974	0.971	-2.376	C.2	1	UNK0	0.000	
18	   O	-2.196	1.340	-1.970	O.3	1	UNK0	0.000	
19	   C	-3.044	1.086	-0.944	C.3	1	UNK0	0.000	
20	   C	-3.501	-0.316	-0.674	C.3	1	UNK0	0.000	
21	   N	-2.405	-1.162	-0.356	N.4	1	UNK0	0.000	
22	   C	-2.088	-1.152	1.074	C.3	1	UNK0	0.000	
23	   C	-0.799	-0.400	1.328	C.3	1	UNK0	0.000	
24	   C	-2.805	-2.528	-0.725	C.3	1	UNK0	0.000	
25	   C	-3.615	-3.086	0.419	C.3	1	UNK0	0.000	
26	  Br	-2.178	-0.979	-4.019	Br	1	UNK0	0.000	
27	   H	2.242	4.787	0.733	 H	1	UNK0	0.000	
28	   H	4.977	5.579	1.226	 H	1	UNK0	0.000	
29	   H	6.974	5.179	-0.481	 H	1	UNK0	0.000	
30	   H	7.073	3.987	0.886	 H	1	UNK0	0.000	
31	   H	6.591	2.283	-0.549	 H	1	UNK0	0.000	
32	   H	6.490	3.388	-1.956	 H	1	UNK0	0.000	
33	   H	2.652	0.161	-3.353	 H	1	UNK0	0.000	
34	   H	0.822	-1.064	-4.293	 H	1	UNK0	0.000	
35	   H	-2.581	1.412	0.062	 H	1	UNK0	0.000	
36	   H	-3.971	1.766	-0.974	 H	1	UNK0	0.000	
37	   H	-4.288	-0.307	0.129	 H	1	UNK0	0.000	
38	   H	-4.080	-0.697	-1.573	 H	1	UNK0	0.000	
39	   H	-1.509	-0.980	-0.828	 H	1	UNK0	0.000	
40	   H	-2.886	-0.661	1.672	 H	1	UNK0	0.000	
41	   H	-1.927	-2.199	1.400	 H	1	UNK0	0.000	
42	   H	-0.984	0.649	1.675	 H	1	UNK0	0.000	
43	   H	-0.198	-0.380	0.373	 H	1	UNK0	0.000	
44	   H	-0.192	-0.965	2.059	 H	1	UNK0	0.000	
45	   H	-1.894	-3.110	-0.949	 H	1	UNK0	0.000	
46	   H	-3.450	-2.447	-1.642	 H	1	UNK0	0.000	
47	   H	-3.941	-2.315	1.144	 H	1	UNK0	0.000	
48	   H	-4.575	-3.512	0.004	 H	1	UNK0	0.000	
49	   H	-3.036	-3.839	0.956	 H	1	UNK0	0.000	
@<TRIPOS>BOND
1 1 2 1
2 1 5 1
3 2 3 2
4 2 17 1
5 3 4 1
6 3 14 1
7 4 5 2
8 4 12 1
9 5 6 1
10 6 7 1
11 7 8 2
12 7 11 1
13 8 9 1
14 9 10 1
15 10 11 1
16 11 12 1
17 12 13 2
18 14 15 2
19 15 16 1
20 16 17 2
21 16 26 1
22 17 18 1
23 18 19 1
24 19 20 1
25 20 21 1
26 21 22 1
27 21 24 1
28 22 23 1
29 24 25 1
30 6 27 1
31 8 28 1
32 9 29 1
33 9 30 1
34 10 31 1
35 10 32 1
36 14 33 1
37 15 34 1
38 19 35 1
39 19 36 1
40 20 37 1
41 20 38 1
42 21 39 1
43 22 40 1
44 22 41 1
45 23 42 1
46 23 43 1
47 23 44 1
48 24 45 1
49 24 46 1
50 25 47 1
51 25 48 1
52 25 49 1
@<TRIPOS>SUBSTRUCTURE
1	UNK0	1	GROUP	1 ****	UNK
