# created with PyMOL 2.3.2
@<TRIPOS>MOLECULE
1195
36 39 1                 
SMALL
USER_CHARGES
@<TRIPOS>ATOM
1	   S	-0.783	2.632	0.051	S.3	1	UNK0	0.000	
2	   C	0.160	2.124	1.379	C.2	1	UNK0	0.000	
3	   N	0.311	2.615	2.650	N.2	1	UNK0	0.000	
4	   C	1.135	2.020	3.524	C.2	1	UNK0	0.000	
5	   N	1.779	0.949	3.080	N.2	1	UNK0	0.000	
6	   C	1.679	0.415	1.851	C.2	1	UNK0	0.000	
7	   C	0.823	1.009	0.904	C.2	1	UNK0	0.000	
8	   C	0.565	0.656	-0.372	C.2	1	UNK0	0.000	
9	   C	-0.350	1.467	-1.072	C.2	1	UNK0	0.000	
10	   C	-0.674	1.125	-2.513	C.3	1	UNK0	0.000	
11	   C	-1.042	-0.339	-2.642	C.3	1	UNK0	0.000	
12	   C	-0.285	-1.186	-1.642	C.3	1	UNK0	0.000	
13	   C	1.035	-0.465	-1.280	C.3	1	UNK0	0.000	
14	   N	2.464	-0.728	1.577	N.4	1	UNK0	0.000	
15	   C	1.798	-1.959	1.784	C.2	1	UNK0	0.000	
16	   C	0.566	-2.075	2.366	C.2	1	UNK0	0.000	
17	   C	0.025	-3.335	2.511	C.2	1	UNK0	0.000	
18	   C	0.670	-4.482	2.096	C.2	1	UNK0	0.000	
19	   C	1.913	-4.359	1.510	C.2	1	UNK0	0.000	
20	   C	2.455	-3.098	1.364	C.2	1	UNK0	0.000	
21	  Br	-0.164	-6.178	2.342	Br	1	UNK0	0.000	
22	   H	1.259	2.404	4.533	 H	1	UNK0	0.000	
23	   H	0.219	1.302	-3.146	 H	1	UNK0	0.000	
24	   H	-1.477	1.804	-2.807	 H	1	UNK0	0.000	
25	   H	-0.805	-0.733	-3.656	 H	1	UNK0	0.000	
26	   H	-2.117	-0.431	-2.407	 H	1	UNK0	0.000	
27	   H	-0.885	-1.235	-0.703	 H	1	UNK0	0.000	
28	   H	-0.084	-2.165	-2.075	 H	1	UNK0	0.000	
29	   H	1.649	-1.220	-0.848	 H	1	UNK0	0.000	
30	   H	1.460	-0.026	-2.209	 H	1	UNK0	0.000	
31	   H	3.025	-0.639	0.717	 H	1	UNK0	0.000	
32	   H	3.258	-0.745	2.331	 H	1	UNK0	0.000	
33	   H	0.052	-1.183	2.695	 H	1	UNK0	0.000	
34	   H	-0.956	-3.420	2.975	 H	1	UNK0	0.000	
35	   H	2.457	-5.251	1.166	 H	1	UNK0	0.000	
36	   H	3.441	-3.049	0.895	 H	1	UNK0	0.000	
@<TRIPOS>BOND
1 1 2 1
2 1 9 1
3 2 3 2
4 2 7 1
5 3 4 1
6 4 5 2
7 5 6 1
8 6 7 2
9 6 14 1
10 7 8 1
11 8 9 2
12 8 13 1
13 9 10 1
14 10 11 1
15 11 12 1
16 12 13 1
17 14 15 1
18 15 16 2
19 15 20 1
20 16 17 1
21 17 18 2
22 18 19 1
23 18 21 1
24 19 20 2
25 4 22 1
26 10 23 1
27 10 24 1
28 11 25 1
29 11 26 1
30 12 27 1
31 12 28 1
32 13 29 1
33 13 30 1
34 14 31 1
35 14 32 1
36 16 33 1
37 17 34 1
38 19 35 1
39 20 36 1
@<TRIPOS>SUBSTRUCTURE
1	UNK0	1	GROUP	1 ****	UNK
