# created with PyMOL 2.3.2
@<TRIPOS>MOLECULE
1196
40 43 1                 
SMALL
USER_CHARGES
@<TRIPOS>ATOM
1	   S	-0.438	-0.400	1.414	S.3	1	UNK0	0.000	
2	   C	0.710	-1.133	0.392	C.2	1	UNK0	0.000	
3	   N	0.137	-2.280	0.054	N.pl3	1	UNK0	0.000	
4	   C	-1.068	-2.559	0.535	C.2	1	UNK0	0.000	
5	   C	-1.630	-1.613	1.364	C.2	1	UNK0	0.000	
6	   C	-1.847	-3.820	0.296	C.2	1	UNK0	0.000	
7	   C	-2.946	-4.132	1.056	C.2	1	UNK0	0.000	
8	   C	-3.731	-5.249	0.867	C.2	1	UNK0	0.000	
9	   C	-3.405	-6.117	-0.144	C.2	1	UNK0	0.000	
10	   C	-2.316	-5.846	-0.929	C.2	1	UNK0	0.000	
11	   C	-1.534	-4.699	-0.713	C.2	1	UNK0	0.000	
12	  Br	-4.488	-7.663	-0.401	Br	1	UNK0	0.000	
13	   C	1.113	-3.014	-0.808	C.3	1	UNK0	0.000	
14	   C	2.451	-2.318	-0.530	C.3	1	UNK0	0.000	
15	   N	2.020	-0.974	-0.203	N.pl3	1	UNK0	0.000	
16	   C	2.717	0.265	-0.359	C.3	1	UNK0	0.000	
17	   C	1.934	1.491	-0.139	C.2	1	UNK0	0.000	
18	   O	0.685	1.417	-0.214	O.2	1	UNK0	0.000	
19	   C	2.570	2.782	0.166	C.2	1	UNK0	0.000	
20	   C	1.763	3.874	0.354	C.2	1	UNK0	0.000	
21	   C	2.320	5.100	0.648	C.2	1	UNK0	0.000	
22	   C	3.703	5.273	0.763	C.2	1	UNK0	0.000	
23	   C	4.478	4.151	0.567	C.2	1	UNK0	0.000	
24	   C	3.938	2.904	0.269	C.2	1	UNK0	0.000	
25	  Br	4.456	6.988	1.175	Br	1	UNK0	0.000	
26	   H	-2.621	-1.629	1.872	 H	1	UNK0	0.000	
27	   H	-3.226	-3.462	1.878	 H	1	UNK0	0.000	
28	   H	-4.575	-5.440	1.492	 H	1	UNK0	0.000	
29	   H	-2.042	-6.517	-1.728	 H	1	UNK0	0.000	
30	   H	-0.704	-4.504	-1.362	 H	1	UNK0	0.000	
31	   H	1.270	-4.045	-0.443	 H	1	UNK0	0.000	
32	   H	0.912	-2.886	-1.858	 H	1	UNK0	0.000	
33	   H	2.944	-2.731	0.369	 H	1	UNK0	0.000	
34	   H	3.131	-2.375	-1.385	 H	1	UNK0	0.000	
35	   H	3.670	0.272	0.242	 H	1	UNK0	0.000	
36	   H	3.117	0.337	-1.423	 H	1	UNK0	0.000	
37	   H	0.664	3.802	0.275	 H	1	UNK0	0.000	
38	   H	1.679	5.965	0.796	 H	1	UNK0	0.000	
39	   H	5.555	4.258	0.651	 H	1	UNK0	0.000	
40	   H	4.617	2.057	0.127	 H	1	UNK0	0.000	
@<TRIPOS>BOND
1 1 2 1
2 1 5 1
3 2 3 2
4 2 15 1
5 3 4 1
6 3 13 1
7 4 5 2
8 4 6 1
9 6 7 2
10 6 11 1
11 7 8 1
12 8 9 2
13 9 10 1
14 9 12 1
15 10 11 2
16 13 14 1
17 14 15 1
18 15 16 1
19 16 17 1
20 17 18 2
21 17 19 1
22 19 20 2
23 19 24 1
24 20 21 1
25 21 22 2
26 22 23 1
27 22 25 1
28 23 24 2
29 5 26 1
30 7 27 1
31 8 28 1
32 10 29 1
33 11 30 1
34 13 31 1
35 13 32 1
36 14 33 1
37 14 34 1
38 16 35 1
39 16 36 1
40 20 37 1
41 21 38 1
42 23 39 1
43 24 40 1
@<TRIPOS>SUBSTRUCTURE
1	UNK0	1	GROUP	1 ****	UNK
