# created with PyMOL 2.3.2
@<TRIPOS>MOLECULE
1201
49 52 1                 
SMALL
USER_CHARGES
@<TRIPOS>ATOM
1	   S	2.732	1.123	0.718	S.3	1	UNK0	0.000	
2	   C	2.269	0.102	-0.703	C.3	1	UNK0	0.000	
3	   C	2.471	1.023	-1.820	C.2	1	UNK0	0.000	
4	   O	2.050	0.722	-2.974	O.2	1	UNK0	0.000	
5	   N	3.139	2.203	-1.507	N.pl3	1	UNK0	0.000	
6	   N	3.662	3.260	-2.165	N.2	1	UNK0	0.000	
7	   C	4.208	4.131	-1.316	C.2	1	UNK0	0.000	
8	   N	4.044	3.645	-0.099	N.2	1	UNK0	0.000	
9	   C	3.390	2.470	-0.248	C.2	1	UNK0	0.000	
10	   C	4.879	5.415	-1.681	C.3	1	UNK0	0.000	
11	   C	0.885	-0.484	-0.609	C.3	1	UNK0	0.000	
12	   N	-0.194	0.390	-0.507	N.3	1	UNK0	0.000	
13	   C	-0.412	1.238	0.576	C.3	1	UNK0	0.000	
14	   C	-1.717	2.033	0.465	C.3	1	UNK0	0.000	
15	   N	-2.694	1.230	-0.170	N.3	1	UNK0	0.000	
16	   C	-2.317	1.059	-1.558	C.3	1	UNK0	0.000	
17	   C	-0.861	0.745	-1.730	C.3	1	UNK0	0.000	
18	   C	-3.008	-0.023	0.415	C.3	1	UNK0	0.000	
19	   C	-3.734	0.026	1.722	C.3	1	UNK0	0.000	
20	   O	-3.025	0.689	2.715	O.3	1	UNK0	0.000	
21	   C	0.888	-1.614	0.395	C.2	1	UNK0	0.000	
22	   C	1.084	-1.440	1.736	C.2	1	UNK0	0.000	
23	   C	1.032	-2.480	2.637	C.2	1	UNK0	0.000	
24	   C	0.775	-3.758	2.197	C.2	1	UNK0	0.000	
25	   C	0.571	-3.987	0.845	C.2	1	UNK0	0.000	
26	   C	0.632	-2.922	-0.010	C.2	1	UNK0	0.000	
27	  Br	0.697	-5.198	3.455	Br	1	UNK0	0.000	
28	   H	3.045	-0.715	-0.750	 H	1	UNK0	0.000	
29	   H	4.733	6.200	-0.926	 H	1	UNK0	0.000	
30	   H	4.511	5.798	-2.659	 H	1	UNK0	0.000	
31	   H	5.972	5.221	-1.748	 H	1	UNK0	0.000	
32	   H	0.757	-1.001	-1.615	 H	1	UNK0	0.000	
33	   H	-0.571	0.652	1.528	 H	1	UNK0	0.000	
34	   H	0.375	2.007	0.658	 H	1	UNK0	0.000	
35	   H	-1.513	2.912	-0.174	 H	1	UNK0	0.000	
36	   H	-1.966	2.392	1.470	 H	1	UNK0	0.000	
37	   H	-2.958	0.243	-1.956	 H	1	UNK0	0.000	
38	   H	-2.630	1.981	-2.087	 H	1	UNK0	0.000	
39	   H	-0.763	-0.093	-2.433	 H	1	UNK0	0.000	
40	   H	-0.411	1.636	-2.214	 H	1	UNK0	0.000	
41	   H	-2.129	-0.697	0.535	 H	1	UNK0	0.000	
42	   H	-3.672	-0.570	-0.300	 H	1	UNK0	0.000	
43	   H	-4.746	0.463	1.614	 H	1	UNK0	0.000	
44	   H	-3.899	-1.015	2.118	 H	1	UNK0	0.000	
45	   H	-3.605	0.918	3.473	 H	1	UNK0	0.000	
46	   H	1.312	-0.472	2.141	 H	1	UNK0	0.000	
47	   H	1.192	-2.309	3.716	 H	1	UNK0	0.000	
48	   H	0.367	-5.012	0.514	 H	1	UNK0	0.000	
49	   H	0.471	-3.121	-1.071	 H	1	UNK0	0.000	
@<TRIPOS>BOND
1 1 2 1
2 1 9 1
3 2 3 1
4 2 11 1
5 3 4 2
6 3 5 1
7 5 6 1
8 5 9 1
9 6 7 2
10 7 8 1
11 7 10 1
12 8 9 2
13 11 12 1
14 11 21 1
15 12 13 1
16 12 17 1
17 13 14 1
18 14 15 1
19 15 16 1
20 15 18 1
21 16 17 1
22 18 19 1
23 19 20 1
24 21 22 2
25 21 26 1
26 22 23 1
27 23 24 2
28 24 25 1
29 24 27 1
30 25 26 2
31 2 28 1
32 10 29 1
33 10 30 1
34 10 31 1
35 11 32 1
36 13 33 1
37 13 34 1
38 14 35 1
39 14 36 1
40 16 37 1
41 16 38 1
42 17 39 1
43 17 40 1
44 18 41 1
45 18 42 1
46 19 43 1
47 19 44 1
48 20 45 1
49 22 46 1
50 23 47 1
51 25 48 1
52 26 49 1
@<TRIPOS>SUBSTRUCTURE
1	UNK0	1	GROUP	1 ****	UNK
