# created with PyMOL 2.3.2
@<TRIPOS>MOLECULE
1202
45 48 1                 
SMALL
USER_CHARGES
@<TRIPOS>ATOM
1	   S	-1.550	2.373	-1.166	S.3	1	UNK0	0.000	
2	   C	-0.448	0.952	-1.523	C.3	1	UNK0	0.000	
3	   C	0.658	1.073	-0.543	C.3	1	UNK0	0.000	
4	   N	0.659	2.310	0.133	N.pl3	1	UNK0	0.000	
5	   C	-0.513	3.081	0.097	C.2	1	UNK0	0.000	
6	   N	-0.773	4.108	0.844	N.pl3	1	UNK0	0.000	
7	   C	1.832	2.784	0.831	C.2	1	UNK0	0.000	
8	   C	2.007	2.561	2.175	C.2	1	UNK0	0.000	
9	   C	3.167	2.998	2.839	C.2	1	UNK0	0.000	
10	   C	4.159	3.662	2.162	C.2	1	UNK0	0.000	
11	   C	3.981	3.883	0.822	C.2	1	UNK0	0.000	
12	   C	2.842	3.453	0.178	C.2	1	UNK0	0.000	
13	  Br	5.725	4.233	3.114	Br	1	UNK0	0.000	
14	  Br	2.273	1.265	-1.729	Br	1	UNK0	0.000	
15	   C	0.939	-0.148	0.209	C.2	1	UNK0	0.000	
16	   C	0.534	-0.429	1.504	C.2	1	UNK0	0.000	
17	   C	0.867	-1.630	2.112	C.2	1	UNK0	0.000	
18	   C	1.620	-2.601	1.452	C.2	1	UNK0	0.000	
19	   C	2.027	-2.344	0.182	C.2	1	UNK0	0.000	
20	   C	1.694	-1.163	-0.408	C.2	1	UNK0	0.000	
21	   C	-1.258	-0.261	-1.497	C.2	1	UNK0	0.000	
22	   O	-1.136	-1.045	-2.517	O.2	1	UNK0	0.000	
23	   C	-2.193	-0.763	-0.505	C.2	1	UNK0	0.000	
24	   C	-2.550	-0.014	0.586	C.2	1	UNK0	0.000	
25	   C	-3.433	-0.543	1.521	C.2	1	UNK0	0.000	
26	   C	-3.980	-1.807	1.405	C.2	1	UNK0	0.000	
27	   C	-3.599	-2.527	0.293	C.2	1	UNK0	0.000	
28	   C	-2.738	-2.060	-0.648	C.2	1	UNK0	0.000	
29	   H	-0.080	1.078	-2.595	 H	1	UNK0	0.000	
30	   H	-0.146	4.479	1.555	 H	1	UNK0	0.000	
31	   H	-1.692	4.592	0.684	 H	1	UNK0	0.000	
32	   H	1.235	2.060	2.725	 H	1	UNK0	0.000	
33	   H	3.255	2.792	3.903	 H	1	UNK0	0.000	
34	   H	4.754	4.401	0.269	 H	1	UNK0	0.000	
35	   H	2.709	3.644	-0.910	 H	1	UNK0	0.000	
36	   H	-0.058	0.330	2.004	 H	1	UNK0	0.000	
37	   H	0.539	-1.831	3.111	 H	1	UNK0	0.000	
38	   H	1.899	-3.547	1.901	 H	1	UNK0	0.000	
39	   H	2.616	-3.100	-0.340	 H	1	UNK0	0.000	
40	   H	2.011	-0.975	-1.418	 H	1	UNK0	0.000	
41	   H	-2.158	1.005	0.757	 H	1	UNK0	0.000	
42	   H	-3.695	0.068	2.376	 H	1	UNK0	0.000	
43	   H	-4.682	-2.209	2.147	 H	1	UNK0	0.000	
44	   H	-4.055	-3.529	0.213	 H	1	UNK0	0.000	
45	   H	-2.477	-2.661	-1.484	 H	1	UNK0	0.000	
@<TRIPOS>BOND
1 1 2 1
2 1 5 1
3 2 3 1
4 2 21 1
5 3 4 1
6 3 14 1
7 3 15 1
8 4 5 1
9 4 7 1
10 5 6 2
11 7 8 2
12 7 12 1
13 8 9 1
14 9 10 2
15 10 11 1
16 10 13 1
17 11 12 2
18 15 16 2
19 15 20 1
20 16 17 1
21 17 18 2
22 18 19 1
23 19 20 2
24 21 22 2
25 21 23 1
26 23 24 2
27 23 28 1
28 24 25 1
29 25 26 2
30 26 27 1
31 27 28 2
32 2 29 1
33 6 30 1
34 6 31 1
35 8 32 1
36 9 33 1
37 11 34 1
38 12 35 1
39 16 36 1
40 17 37 1
41 18 38 1
42 19 39 1
43 20 40 1
44 24 41 1
45 25 42 1
46 26 43 1
47 27 44 1
48 28 45 1
@<TRIPOS>SUBSTRUCTURE
1	UNK0	1	GROUP	1 ****	UNK
