# created with PyMOL 2.3.2
@<TRIPOS>MOLECULE
1203
45 48 1                 
SMALL
USER_CHARGES
@<TRIPOS>ATOM
1	   S	-2.031	-1.817	-0.299	S.3	1	UNK0	0.000	
2	   C	-0.766	-1.485	-1.609	C.3	1	UNK0	0.000	
3	   C	-0.615	-0.041	-1.617	C.3	1	UNK0	0.000	
4	   N	-1.679	0.652	-0.988	N.pl3	1	UNK0	0.000	
5	   C	-2.410	-0.092	-0.039	C.2	1	UNK0	0.000	
6	   N	-3.210	0.373	0.856	N.pl3	1	UNK0	0.000	
7	   C	-2.042	2.000	-1.294	C.2	1	UNK0	0.000	
8	   C	-1.604	3.094	-0.594	C.2	1	UNK0	0.000	
9	   C	-1.986	4.397	-0.941	C.2	1	UNK0	0.000	
10	   C	-2.823	4.633	-2.006	C.2	1	UNK0	0.000	
11	   C	-3.271	3.543	-2.718	C.2	1	UNK0	0.000	
12	   C	-2.897	2.263	-2.379	C.2	1	UNK0	0.000	
13	  Br	-3.356	6.414	-2.490	Br	1	UNK0	0.000	
14	   C	0.748	0.492	-1.419	C.2	1	UNK0	0.000	
15	   C	1.632	0.441	-2.507	C.2	1	UNK0	0.000	
16	   C	2.885	0.968	-2.302	C.2	1	UNK0	0.000	
17	   C	3.295	1.526	-1.113	C.2	1	UNK0	0.000	
18	   C	2.419	1.582	-0.019	C.2	1	UNK0	0.000	
19	   C	1.169	1.053	-0.234	C.2	1	UNK0	0.000	
20	   C	0.337	-2.381	-1.345	C.2	1	UNK0	0.000	
21	   O	0.723	-3.100	-2.348	O.2	1	UNK0	0.000	
22	   C	1.061	-2.579	-0.128	C.2	1	UNK0	0.000	
23	   C	0.729	-1.908	1.029	C.2	1	UNK0	0.000	
24	   C	1.406	-2.092	2.217	C.2	1	UNK0	0.000	
25	   C	2.452	-2.977	2.256	C.2	1	UNK0	0.000	
26	   C	2.806	-3.669	1.092	C.2	1	UNK0	0.000	
27	   C	2.131	-3.482	-0.082	C.2	1	UNK0	0.000	
28	   H	-1.321	-1.820	-2.579	 H	1	UNK0	0.000	
29	   H	-0.799	0.251	-2.748	 H	1	UNK0	0.000	
30	   H	-3.688	-0.282	1.495	 H	1	UNK0	0.000	
31	   H	-3.388	1.389	0.957	 H	1	UNK0	0.000	
32	   H	-0.940	2.939	0.266	 H	1	UNK0	0.000	
33	   H	-1.619	5.227	-0.365	 H	1	UNK0	0.000	
34	   H	-3.940	3.741	-3.568	 H	1	UNK0	0.000	
35	   H	-3.252	1.408	-2.941	 H	1	UNK0	0.000	
36	   H	1.339	0.009	-3.453	 H	1	UNK0	0.000	
37	   H	3.590	0.939	-3.142	 H	1	UNK0	0.000	
38	   H	4.268	1.933	-0.963	 H	1	UNK0	0.000	
39	   H	2.736	2.018	0.918	 H	1	UNK0	0.000	
40	   H	0.498	1.100	0.646	 H	1	UNK0	0.000	
41	   H	-0.077	-1.189	1.082	 H	1	UNK0	0.000	
42	   H	1.137	-1.563	3.107	 H	1	UNK0	0.000	
43	   H	3.016	-3.153	3.176	 H	1	UNK0	0.000	
44	   H	3.643	-4.383	1.105	 H	1	UNK0	0.000	
45	   H	2.415	-4.030	-0.996	 H	1	UNK0	0.000	
@<TRIPOS>BOND
1 1 2 1
2 1 5 1
3 2 3 1
4 2 20 1
5 3 4 1
6 3 14 1
7 4 5 1
8 4 7 1
9 5 6 2
10 7 8 2
11 7 12 1
12 8 9 1
13 9 10 2
14 10 11 1
15 10 13 1
16 11 12 2
17 14 15 2
18 14 19 1
19 15 16 1
20 16 17 2
21 17 18 1
22 18 19 2
23 20 21 2
24 20 22 1
25 22 23 2
26 22 27 1
27 23 24 1
28 24 25 2
29 25 26 1
30 26 27 2
31 2 28 1
32 3 29 1
33 6 30 1
34 6 31 1
35 8 32 1
36 9 33 1
37 11 34 1
38 12 35 1
39 15 36 1
40 16 37 1
41 17 38 1
42 18 39 1
43 19 40 1
44 23 41 1
45 24 42 1
46 25 43 1
47 26 44 1
48 27 45 1
@<TRIPOS>SUBSTRUCTURE
1	UNK0	1	GROUP	1 ****	UNK
