# created with PyMOL 2.3.2
@<TRIPOS>MOLECULE
1204
47 50 1                 
SMALL
USER_CHARGES
@<TRIPOS>ATOM
1	   S	-1.411	-0.988	-2.490	S.3	1	UNK0	0.000	
2	   C	-0.600	-0.918	-0.881	C.3	1	UNK0	0.000	
3	   C	0.790	-0.386	-1.041	C.3	1	UNK0	0.000	
4	   N	0.929	0.756	-1.891	N.pl3	1	UNK0	0.000	
5	   N	0.614	0.704	-3.252	N.pl3	1	UNK0	0.000	
6	   C	-0.421	-0.060	-3.647	C.2	1	UNK0	0.000	
7	   N	-0.464	0.096	-5.002	N.2	1	UNK0	0.000	
8	   N	0.502	0.913	-5.375	N.2	1	UNK0	0.000	
9	   C	1.202	1.318	-4.307	C.2	1	UNK0	0.000	
10	   C	2.372	2.248	-4.311	C.3	1	UNK0	0.000	
11	   C	1.472	-0.177	0.253	C.2	1	UNK0	0.000	
12	   C	2.251	-1.164	0.812	C.2	1	UNK0	0.000	
13	   C	2.898	-0.986	2.025	C.2	1	UNK0	0.000	
14	   C	2.750	0.214	2.678	C.2	1	UNK0	0.000	
15	   C	1.962	1.228	2.126	C.2	1	UNK0	0.000	
16	   C	1.328	1.017	0.911	C.2	1	UNK0	0.000	
17	   O	3.391	0.410	3.896	O.3	1	UNK0	0.000	
18	   C	3.276	1.620	4.613	C.3	1	UNK0	0.000	
19	  Br	3.978	-2.347	2.803	Br	1	UNK0	0.000	
20	   C	-1.399	-0.266	0.173	C.2	1	UNK0	0.000	
21	   O	-1.568	-0.948	1.248	O.2	1	UNK0	0.000	
22	   N	-1.988	1.005	0.134	N.pl3	1	UNK0	0.000	
23	   C	-1.935	1.933	-0.976	C.3	1	UNK0	0.000	
24	   C	-3.049	2.989	-0.808	C.3	1	UNK0	0.000	
25	   O	-4.224	2.408	-0.376	O.3	1	UNK0	0.000	
26	   C	-4.140	1.781	0.839	C.3	1	UNK0	0.000	
27	   C	-2.730	1.472	1.292	C.3	1	UNK0	0.000	
28	   H	-0.460	-2.016	-0.593	 H	1	UNK0	0.000	
29	   H	1.376	-1.219	-1.546	 H	1	UNK0	0.000	
30	   H	1.282	1.687	-1.516	 H	1	UNK0	0.000	
31	   H	1.971	3.297	-4.193	 H	1	UNK0	0.000	
32	   H	3.053	2.084	-3.470	 H	1	UNK0	0.000	
33	   H	2.843	2.212	-5.301	 H	1	UNK0	0.000	
34	   H	2.387	-2.117	0.322	 H	1	UNK0	0.000	
35	   H	1.845	2.173	2.641	 H	1	UNK0	0.000	
36	   H	0.713	1.779	0.458	 H	1	UNK0	0.000	
37	   H	3.718	1.469	5.629	 H	1	UNK0	0.000	
38	   H	2.189	1.815	4.733	 H	1	UNK0	0.000	
39	   H	3.768	2.469	4.095	 H	1	UNK0	0.000	
40	   H	-2.168	1.366	-1.883	 H	1	UNK0	0.000	
41	   H	-1.012	2.528	-1.023	 H	1	UNK0	0.000	
42	   H	-2.664	3.783	-0.134	 H	1	UNK0	0.000	
43	   H	-3.147	3.455	-1.806	 H	1	UNK0	0.000	
44	   H	-4.785	0.857	0.881	 H	1	UNK0	0.000	
45	   H	-4.594	2.474	1.601	 H	1	UNK0	0.000	
46	   H	-2.313	2.428	1.686	 H	1	UNK0	0.000	
47	   H	-2.797	0.697	2.078	 H	1	UNK0	0.000	
@<TRIPOS>BOND
1 1 2 1
2 1 6 1
3 2 3 1
4 2 20 1
5 3 4 1
6 3 11 1
7 4 5 1
8 5 6 1
9 5 9 1
10 6 7 2
11 7 8 1
12 8 9 2
13 9 10 1
14 11 12 2
15 11 16 1
16 12 13 1
17 13 14 2
18 13 19 1
19 14 15 1
20 14 17 1
21 15 16 2
22 17 18 1
23 20 21 2
24 20 22 1
25 22 23 1
26 22 27 1
27 23 24 1
28 24 25 1
29 25 26 1
30 26 27 1
31 2 28 1
32 3 29 1
33 4 30 1
34 10 31 1
35 10 32 1
36 10 33 1
37 12 34 1
38 15 35 1
39 16 36 1
40 18 37 1
41 18 38 1
42 18 39 1
43 23 40 1
44 23 41 1
45 24 42 1
46 24 43 1
47 26 44 1
48 26 45 1
49 27 46 1
50 27 47 1
@<TRIPOS>SUBSTRUCTURE
1	UNK0	1	GROUP	1 ****	UNK
