# created with PyMOL 2.3.2
@<TRIPOS>MOLECULE
1205
42 45 1                 
SMALL
USER_CHARGES
@<TRIPOS>ATOM
1	   S	-2.145	2.366	-1.959	S.3	1	UNK0	0.000	
2	   C	-1.295	2.354	-3.601	C.3	1	UNK0	0.000	
3	   C	-0.907	0.896	-3.605	C.3	1	UNK0	0.000	
4	   N	-0.568	0.462	-2.294	N.pl3	1	UNK0	0.000	
5	   C	-1.114	1.080	-1.286	C.2	1	UNK0	0.000	
6	   N	-0.709	0.551	-0.127	N.pl3	1	UNK0	0.000	
7	   C	0.142	-0.462	-0.342	C.2	1	UNK0	0.000	
8	   C	0.220	-0.504	-1.740	C.2	1	UNK0	0.000	
9	   C	0.862	-1.357	0.524	C.2	1	UNK0	0.000	
10	   C	0.794	-1.325	1.887	C.2	1	UNK0	0.000	
11	   C	1.529	-2.236	2.674	C.2	1	UNK0	0.000	
12	   C	2.342	-3.193	2.122	C.2	1	UNK0	0.000	
13	   C	2.414	-3.230	0.749	C.2	1	UNK0	0.000	
14	   C	1.697	-2.342	-0.026	C.2	1	UNK0	0.000	
15	  Br	3.322	-4.410	3.193	Br	1	UNK0	0.000	
16	   C	-1.143	1.025	1.169	C.2	1	UNK0	0.000	
17	   C	-0.429	2.028	1.787	C.2	1	UNK0	0.000	
18	   C	-0.795	2.558	3.001	C.2	1	UNK0	0.000	
19	   C	-1.917	2.080	3.642	C.2	1	UNK0	0.000	
20	   C	-2.617	1.081	3.014	C.2	1	UNK0	0.000	
21	   C	-2.265	0.539	1.799	C.2	1	UNK0	0.000	
22	   O	-2.279	2.616	4.860	O.3	1	UNK0	0.000	
23	   C	-1.519	3.643	5.457	C.3	1	UNK0	0.000	
24	   C	-0.096	3.247	-3.488	C.3	1	UNK0	0.000	
25	   H	-1.987	2.601	-4.397	 H	1	UNK0	0.000	
26	   H	-0.021	0.842	-4.279	 H	1	UNK0	0.000	
27	   H	-1.697	0.281	-4.089	 H	1	UNK0	0.000	
28	   H	0.831	-1.217	-2.280	 H	1	UNK0	0.000	
29	   H	0.181	-0.606	2.381	 H	1	UNK0	0.000	
30	   H	1.421	-2.145	3.746	 H	1	UNK0	0.000	
31	   H	3.046	-3.974	0.276	 H	1	UNK0	0.000	
32	   H	1.791	-2.415	-1.109	 H	1	UNK0	0.000	
33	   H	0.457	2.399	1.272	 H	1	UNK0	0.000	
34	   H	-0.168	3.341	3.400	 H	1	UNK0	0.000	
35	   H	-3.505	0.714	3.536	 H	1	UNK0	0.000	
36	   H	-2.839	-0.235	1.349	 H	1	UNK0	0.000	
37	   H	-0.543	3.171	5.774	 H	1	UNK0	0.000	
38	   H	-1.240	4.445	4.738	 H	1	UNK0	0.000	
39	   H	-2.019	4.098	6.314	 H	1	UNK0	0.000	
40	   H	-0.431	4.282	-3.342	 H	1	UNK0	0.000	
41	   H	0.483	2.921	-2.594	 H	1	UNK0	0.000	
42	   H	0.553	3.191	-4.361	 H	1	UNK0	0.000	
@<TRIPOS>BOND
1 1 2 1
2 1 5 1
3 2 3 1
4 2 24 1
5 3 4 1
6 4 5 1
7 4 8 1
8 5 6 2
9 6 7 1
10 6 16 1
11 7 8 2
12 7 9 1
13 9 10 2
14 9 14 1
15 10 11 1
16 11 12 2
17 12 13 1
18 12 15 1
19 13 14 2
20 16 17 2
21 16 21 1
22 17 18 1
23 18 19 2
24 19 20 1
25 19 22 1
26 20 21 2
27 22 23 1
28 2 25 1
29 3 26 1
30 3 27 1
31 8 28 1
32 10 29 1
33 11 30 1
34 13 31 1
35 14 32 1
36 17 33 1
37 18 34 1
38 20 35 1
39 21 36 1
40 23 37 1
41 23 38 1
42 23 39 1
43 24 40 1
44 24 41 1
45 24 42 1
@<TRIPOS>SUBSTRUCTURE
1	UNK0	1	GROUP	1 ****	UNK
