# created with PyMOL 2.3.2
@<TRIPOS>MOLECULE
1207
44 47 1                 
SMALL
USER_CHARGES
@<TRIPOS>ATOM
1	   S	-0.248	2.793	-1.942	S.3	1	UNK0	0.000	
2	   C	-0.102	1.366	-3.108	C.3	1	UNK0	0.000	
3	   C	-1.411	0.680	-2.937	C.2	1	UNK0	0.000	
4	   O	-2.190	0.605	-3.921	O.2	1	UNK0	0.000	
5	   N	-1.819	0.089	-1.651	N.pl3	1	UNK0	0.000	
6	   C	-1.458	0.759	-0.461	C.2	1	UNK0	0.000	
7	   C	-0.743	1.966	-0.401	C.2	1	UNK0	0.000	
8	   C	-0.387	2.533	0.788	C.2	1	UNK0	0.000	
9	   N	-0.735	1.910	1.916	N.2	1	UNK0	0.000	
10	   N	-1.401	0.781	1.896	N.pl3	1	UNK0	0.000	
11	   C	-1.788	0.158	0.750	C.2	1	UNK0	0.000	
12	   O	-2.401	-0.898	0.803	O.2	1	UNK0	0.000	
13	   C	-1.745	0.158	3.158	C.3	1	UNK0	0.000	
14	   C	-0.683	-0.772	3.602	C.2	1	UNK0	0.000	
15	   O	-0.751	-1.427	4.660	O.2	1	UNK0	0.000	
16	   N	0.470	-0.919	2.770	N.pl3	1	UNK0	0.000	
17	   C	1.484	-1.827	3.225	C.3	1	UNK0	0.000	
18	   C	2.662	-1.974	2.370	C.2	1	UNK0	0.000	
19	   C	3.637	-2.863	2.832	C.2	1	UNK0	0.000	
20	   C	4.780	-3.078	2.114	C.2	1	UNK0	0.000	
21	   C	4.937	-2.388	0.921	C.2	1	UNK0	0.000	
22	   C	3.981	-1.511	0.461	C.2	1	UNK0	0.000	
23	   C	2.817	-1.294	1.196	C.2	1	UNK0	0.000	
24	  Br	3.414	-3.809	4.476	Br	1	UNK0	0.000	
25	   C	-2.579	-1.101	-1.776	C.3	1	UNK0	0.000	
26	   C	-4.108	-0.664	-1.603	C.3	1	UNK0	0.000	
27	   C	-3.552	-1.940	-1.149	C.3	1	UNK0	0.000	
28	   H	-0.043	1.799	-4.103	 H	1	UNK0	0.000	
29	   H	0.758	0.729	-2.832	 H	1	UNK0	0.000	
30	   H	0.165	3.468	0.773	 H	1	UNK0	0.000	
31	   H	-2.743	-0.360	3.072	 H	1	UNK0	0.000	
32	   H	-1.833	0.949	3.927	 H	1	UNK0	0.000	
33	   H	0.534	-0.368	1.874	 H	1	UNK0	0.000	
34	   H	1.021	-2.827	3.454	 H	1	UNK0	0.000	
35	   H	1.823	-1.414	4.227	 H	1	UNK0	0.000	
36	   H	5.544	-3.747	2.431	 H	1	UNK0	0.000	
37	   H	5.830	-2.530	0.321	 H	1	UNK0	0.000	
38	   H	4.084	-0.962	-0.468	 H	1	UNK0	0.000	
39	   H	2.096	-0.600	0.799	 H	1	UNK0	0.000	
40	   H	-2.537	-1.403	-2.947	 H	1	UNK0	0.000	
41	   H	-4.681	-0.537	-2.517	 H	1	UNK0	0.000	
42	   H	-4.301	0.093	-0.832	 H	1	UNK0	0.000	
43	   H	-3.736	-2.345	-0.167	 H	1	UNK0	0.000	
44	   H	-3.921	-2.807	-1.882	 H	1	UNK0	0.000	
@<TRIPOS>BOND
1 1 2 1
2 1 7 1
3 2 3 1
4 3 4 2
5 3 5 1
6 5 6 1
7 5 25 1
8 6 7 2
9 6 11 1
10 7 8 1
11 8 9 2
12 9 10 1
13 10 11 1
14 10 13 1
15 11 12 2
16 13 14 1
17 14 15 2
18 14 16 1
19 16 17 1
20 17 18 1
21 18 19 2
22 18 23 1
23 19 20 1
24 19 24 1
25 20 21 2
26 21 22 1
27 22 23 2
28 25 26 1
29 25 27 1
30 26 27 1
31 2 28 1
32 2 29 1
33 8 30 1
34 13 31 1
35 13 32 1
36 16 33 1
37 17 34 1
38 17 35 1
39 20 36 1
40 21 37 1
41 22 38 1
42 23 39 1
43 25 40 1
44 26 41 1
45 26 42 1
46 27 43 1
47 27 44 1
@<TRIPOS>SUBSTRUCTURE
1	UNK0	1	GROUP	1 ****	UNK
