# created with PyMOL 2.3.2
@<TRIPOS>MOLECULE
1208
44 47 1                 
SMALL
USER_CHARGES
@<TRIPOS>ATOM
1	   S	-2.199	-1.870	0.905	S.3	1	UNK0	0.000	
2	   C	-1.674	-2.620	-0.695	C.3	1	UNK0	0.000	
3	   C	-0.237	-2.331	-0.702	C.3	1	UNK0	0.000	
4	   N	0.152	-1.275	0.161	N.pl3	1	UNK0	0.000	
5	   C	1.359	-0.585	0.552	C.3	1	UNK0	0.000	
6	   C	0.799	0.798	0.895	C.3	1	UNK0	0.000	
7	   N	-0.539	0.475	1.316	N.pl3	1	UNK0	0.000	
8	   C	-0.870	-0.688	0.900	C.2	1	UNK0	0.000	
9	   C	-1.359	1.376	2.094	C.2	1	UNK0	0.000	
10	   C	-2.247	0.851	3.029	C.2	1	UNK0	0.000	
11	   C	-3.056	1.691	3.778	C.2	1	UNK0	0.000	
12	   C	-2.949	3.052	3.566	C.2	1	UNK0	0.000	
13	   C	-2.058	3.567	2.630	C.2	1	UNK0	0.000	
14	   C	-1.256	2.722	1.885	C.2	1	UNK0	0.000	
15	   O	1.551	1.284	1.972	O.3	1	UNK0	0.000	
16	   C	0.910	1.658	-0.282	C.2	1	UNK0	0.000	
17	   C	1.878	2.660	-0.280	C.2	1	UNK0	0.000	
18	   C	2.004	3.477	-1.378	C.2	1	UNK0	0.000	
19	   C	1.193	3.332	-2.491	C.2	1	UNK0	0.000	
20	   C	0.237	2.333	-2.481	C.2	1	UNK0	0.000	
21	   C	0.103	1.508	-1.382	C.2	1	UNK0	0.000	
22	  Br	1.377	4.468	-3.989	Br	1	UNK0	0.000	
23	   C	0.585	-3.591	-0.431	C.3	1	UNK0	0.000	
24	   C	0.145	-1.935	-2.140	C.3	1	UNK0	0.000	
25	   H	-1.860	-3.716	-0.664	 H	1	UNK0	0.000	
26	   H	-2.274	-2.132	-1.477	 H	1	UNK0	0.000	
27	   H	1.726	-1.066	1.509	 H	1	UNK0	0.000	
28	   H	2.142	-0.547	-0.200	 H	1	UNK0	0.000	
29	   H	-2.323	-0.227	3.192	 H	1	UNK0	0.000	
30	   H	-3.764	1.336	4.513	 H	1	UNK0	0.000	
31	   H	-3.548	3.786	4.110	 H	1	UNK0	0.000	
32	   H	-1.966	4.656	2.455	 H	1	UNK0	0.000	
33	   H	-0.572	3.159	1.148	 H	1	UNK0	0.000	
34	   H	1.281	2.184	2.258	 H	1	UNK0	0.000	
35	   H	2.533	2.808	0.574	 H	1	UNK0	0.000	
36	   H	2.758	4.256	-1.382	 H	1	UNK0	0.000	
37	   H	-0.430	2.155	-3.302	 H	1	UNK0	0.000	
38	   H	-0.643	0.736	-1.386	 H	1	UNK0	0.000	
39	   H	0.469	-4.230	-1.344	 H	1	UNK0	0.000	
40	   H	1.635	-3.260	-0.399	 H	1	UNK0	0.000	
41	   H	0.258	-4.095	0.492	 H	1	UNK0	0.000	
42	   H	1.025	-1.257	-2.111	 H	1	UNK0	0.000	
43	   H	0.429	-2.826	-2.725	 H	1	UNK0	0.000	
44	   H	-0.687	-1.344	-2.609	 H	1	UNK0	0.000	
@<TRIPOS>BOND
1 1 2 1
2 1 8 1
3 2 3 1
4 3 4 1
5 3 23 1
6 3 24 1
7 4 5 1
8 4 8 1
9 5 6 1
10 6 7 1
11 6 15 1
12 6 16 1
13 7 8 2
14 7 9 1
15 9 10 2
16 9 14 1
17 10 11 1
18 11 12 2
19 12 13 1
20 13 14 2
21 16 17 2
22 16 21 1
23 17 18 1
24 18 19 2
25 19 20 1
26 19 22 1
27 20 21 2
28 2 25 1
29 2 26 1
30 5 27 1
31 5 28 1
32 10 29 1
33 11 30 1
34 12 31 1
35 13 32 1
36 14 33 1
37 15 34 1
38 17 35 1
39 18 36 1
40 20 37 1
41 21 38 1
42 23 39 1
43 23 40 1
44 23 41 1
45 24 42 1
46 24 43 1
47 24 44 1
@<TRIPOS>SUBSTRUCTURE
1	UNK0	1	GROUP	1 ****	UNK
