# created with PyMOL 2.3.2
@<TRIPOS>MOLECULE
1210
43 46 1                 
SMALL
USER_CHARGES
@<TRIPOS>ATOM
1	   S	-0.937	2.159	2.628	S.3	1	UNK0	0.000	
2	   C	-1.553	1.095	3.995	C.3	1	UNK0	0.000	
3	   C	-2.712	0.336	3.418	C.3	1	UNK0	0.000	
4	   C	-2.395	-0.516	2.238	C.3	1	UNK0	0.000	
5	   N	-1.708	0.093	1.152	N.pl3	1	UNK0	0.000	
6	   C	-0.826	1.022	1.238	C.2	1	UNK0	0.000	
7	   N	0.116	0.973	0.186	N.pl3	1	UNK0	0.000	
8	   C	-0.366	-0.081	-0.700	C.3	1	UNK0	0.000	
9	   C	-1.816	-0.169	-0.291	C.3	1	UNK0	0.000	
10	   O	-0.245	0.360	-2.030	O.3	1	UNK0	0.000	
11	   C	0.332	-1.352	-0.487	C.2	1	UNK0	0.000	
12	   C	0.611	-2.137	-1.595	C.2	1	UNK0	0.000	
13	   C	1.263	-3.337	-1.461	C.2	1	UNK0	0.000	
14	   C	1.654	-3.788	-0.230	C.2	1	UNK0	0.000	
15	   C	1.372	-3.002	0.869	C.2	1	UNK0	0.000	
16	   C	0.720	-1.800	0.745	C.2	1	UNK0	0.000	
17	  Br	2.560	-5.471	-0.095	Br	1	UNK0	0.000	
18	   C	1.301	1.770	-0.013	C.2	1	UNK0	0.000	
19	   C	2.507	1.378	0.572	C.2	1	UNK0	0.000	
20	   C	3.659	2.116	0.389	C.2	1	UNK0	0.000	
21	   C	3.672	3.268	-0.374	C.2	1	UNK0	0.000	
22	   C	2.465	3.652	-0.954	C.2	1	UNK0	0.000	
23	   C	1.316	2.912	-0.769	C.2	1	UNK0	0.000	
24	   N	4.853	4.028	-0.574	N.pl3	1	UNK0	0.000	
25	   O	5.893	3.664	-0.014	O.2	1	UNK0	0.000	
26	   O	4.842	5.135	-1.362	O.2	1	UNK0	0.000	
27	   H	-0.745	0.456	4.366	 H	1	UNK0	0.000	
28	   H	-1.941	1.778	4.770	 H	1	UNK0	0.000	
29	   H	-3.562	1.034	3.288	 H	1	UNK0	0.000	
30	   H	-3.047	-0.378	4.226	 H	1	UNK0	0.000	
31	   H	-1.921	-1.453	2.609	 H	1	UNK0	0.000	
32	   H	-3.404	-0.861	1.847	 H	1	UNK0	0.000	
33	   H	-2.315	0.702	-0.794	 H	1	UNK0	0.000	
34	   H	-2.283	-1.131	-0.491	 H	1	UNK0	0.000	
35	   H	-1.046	0.932	-2.181	 H	1	UNK0	0.000	
36	   H	0.310	-1.801	-2.574	 H	1	UNK0	0.000	
37	   H	1.485	-3.952	-2.323	 H	1	UNK0	0.000	
38	   H	1.695	-3.380	1.842	 H	1	UNK0	0.000	
39	   H	0.525	-1.224	1.625	 H	1	UNK0	0.000	
40	   H	2.507	0.470	1.177	 H	1	UNK0	0.000	
41	   H	4.584	1.784	0.854	 H	1	UNK0	0.000	
42	   H	2.463	4.554	-1.559	 H	1	UNK0	0.000	
43	   H	0.370	3.217	-1.229	 H	1	UNK0	0.000	
@<TRIPOS>BOND
1 1 2 1
2 1 6 1
3 2 3 1
4 3 4 1
5 4 5 1
6 5 6 2
7 5 9 1
8 6 7 1
9 7 8 1
10 7 18 1
11 8 9 1
12 8 10 1
13 8 11 1
14 11 12 2
15 11 16 1
16 12 13 1
17 13 14 2
18 14 15 1
19 14 17 1
20 15 16 2
21 18 19 2
22 18 23 1
23 19 20 1
24 20 21 2
25 21 22 1
26 21 24 1
27 22 23 2
28 24 25 2
29 24 26 1
30 2 27 1
31 2 28 1
32 3 29 1
33 3 30 1
34 4 31 1
35 4 32 1
36 9 33 1
37 9 34 1
38 10 35 1
39 12 36 1
40 13 37 1
41 15 38 1
42 16 39 1
43 19 40 1
44 20 41 1
45 22 42 1
46 23 43 1
@<TRIPOS>SUBSTRUCTURE
1	UNK0	1	GROUP	1 ****	UNK
