# created with PyMOL 2.3.2
@<TRIPOS>MOLECULE
1216
47 50 1                 
SMALL
USER_CHARGES
@<TRIPOS>ATOM
1	   S	0.564	2.251	0.128	S.3	1	UNK0	0.000	
2	   C	-0.071	3.881	0.607	C.3	1	UNK0	0.000	
3	   C	-1.497	3.669	1.076	C.3	1	UNK0	0.000	
4	   C	-2.367	3.147	-0.049	C.3	1	UNK0	0.000	
5	   N	-2.103	1.752	-0.262	N.pl3	1	UNK0	0.000	
6	   C	-2.826	0.599	-0.856	C.3	1	UNK0	0.000	
7	   C	-2.511	-0.383	0.289	C.3	1	UNK0	0.000	
8	   N	-1.068	-0.071	0.537	N.pl3	1	UNK0	0.000	
9	   C	-0.852	1.132	0.176	C.2	1	UNK0	0.000	
10	   C	-0.233	-1.076	1.078	C.2	1	UNK0	0.000	
11	   C	0.678	-0.785	2.052	C.2	1	UNK0	0.000	
12	   C	1.467	-1.849	2.526	C.2	1	UNK0	0.000	
13	   C	1.334	-3.122	2.042	C.2	1	UNK0	0.000	
14	   C	0.411	-3.430	1.054	C.2	1	UNK0	0.000	
15	   C	-0.359	-2.403	0.585	C.2	1	UNK0	0.000	
16	   C	0.265	-4.829	0.553	C.3	1	UNK0	0.000	
17	   C	0.877	0.548	2.685	C.3	1	UNK0	0.000	
18	   O	-4.148	0.819	-1.035	O.3	1	UNK0	0.000	
19	   C	-2.076	0.164	-2.064	C.2	1	UNK0	0.000	
20	   C	-2.140	-1.088	-2.617	C.2	1	UNK0	0.000	
21	   C	-1.405	-1.433	-3.751	C.2	1	UNK0	0.000	
22	   C	-0.581	-0.514	-4.357	C.2	1	UNK0	0.000	
23	   C	-0.501	0.745	-3.820	C.2	1	UNK0	0.000	
24	   C	-1.230	1.082	-2.699	C.2	1	UNK0	0.000	
25	  Br	0.451	-0.988	-5.917	Br	1	UNK0	0.000	
26	   H	0.496	4.281	1.492	 H	1	UNK0	0.000	
27	   H	-0.088	4.600	-0.226	 H	1	UNK0	0.000	
28	   H	-1.872	4.657	1.375	 H	1	UNK0	0.000	
29	   H	-1.503	3.016	1.966	 H	1	UNK0	0.000	
30	   H	-2.242	3.797	-0.923	 H	1	UNK0	0.000	
31	   H	-3.418	3.315	0.311	 H	1	UNK0	0.000	
32	   H	-2.636	-1.380	-0.079	 H	1	UNK0	0.000	
33	   H	-3.110	-0.202	1.173	 H	1	UNK0	0.000	
34	   H	2.192	-1.602	3.307	 H	1	UNK0	0.000	
35	   H	1.955	-3.934	2.428	 H	1	UNK0	0.000	
36	   H	-1.088	-2.596	-0.197	 H	1	UNK0	0.000	
37	   H	-0.395	-4.832	-0.316	 H	1	UNK0	0.000	
38	   H	-0.268	-5.456	1.342	 H	1	UNK0	0.000	
39	   H	1.248	-5.291	0.421	 H	1	UNK0	0.000	
40	   H	1.078	0.378	3.816	 H	1	UNK0	0.000	
41	   H	1.815	1.035	2.368	 H	1	UNK0	0.000	
42	   H	-0.032	1.128	2.695	 H	1	UNK0	0.000	
43	   H	-4.503	1.714	-0.881	 H	1	UNK0	0.000	
44	   H	-2.807	-1.837	-2.140	 H	1	UNK0	0.000	
45	   H	-1.480	-2.427	-4.146	 H	1	UNK0	0.000	
46	   H	0.149	1.470	-4.295	 H	1	UNK0	0.000	
47	   H	-1.174	2.071	-2.286	 H	1	UNK0	0.000	
@<TRIPOS>BOND
1 1 2 1
2 1 9 1
3 2 3 1
4 3 4 1
5 4 5 1
6 5 6 1
7 5 9 1
8 6 7 1
9 6 18 1
10 6 19 1
11 7 8 1
12 8 9 2
13 8 10 1
14 10 11 2
15 10 15 1
16 11 12 1
17 11 17 1
18 12 13 2
19 13 14 1
20 14 15 2
21 14 16 1
22 19 20 2
23 19 24 1
24 20 21 1
25 21 22 2
26 22 23 1
27 22 25 1
28 23 24 2
29 2 26 1
30 2 27 1
31 3 28 1
32 3 29 1
33 4 30 1
34 4 31 1
35 7 32 1
36 7 33 1
37 12 34 1
38 13 35 1
39 15 36 1
40 16 37 1
41 16 38 1
42 16 39 1
43 17 40 1
44 17 41 1
45 17 42 1
46 18 43 1
47 20 44 1
48 21 45 1
49 23 46 1
50 24 47 1
@<TRIPOS>SUBSTRUCTURE
1	UNK0	1	GROUP	1 ****	UNK
