# created with PyMOL 2.3.2
@<TRIPOS>MOLECULE
1217
49 52 1                 
SMALL
USER_CHARGES
@<TRIPOS>ATOM
1	   S	0.715	-0.159	1.999	S.3	1	UNK0	0.000	
2	   C	0.565	0.765	3.508	C.3	1	UNK0	0.000	
3	   C	-0.289	1.994	3.269	C.3	1	UNK0	0.000	
4	   C	0.372	2.867	2.217	C.3	1	UNK0	0.000	
5	   N	0.196	2.280	0.908	N.pl3	1	UNK0	0.000	
6	   C	-0.366	2.793	-0.299	C.3	1	UNK0	0.000	
7	   C	0.514	2.079	-1.313	C.3	1	UNK0	0.000	
8	   N	0.734	0.788	-0.701	N.pl3	1	UNK0	0.000	
9	   C	0.596	0.940	0.570	C.2	1	UNK0	0.000	
10	   C	1.010	-0.442	-1.355	C.2	1	UNK0	0.000	
11	   C	1.280	-0.387	-2.716	C.2	1	UNK0	0.000	
12	   C	1.536	-1.559	-3.435	C.2	1	UNK0	0.000	
13	   C	1.517	-2.780	-2.784	C.2	1	UNK0	0.000	
14	   C	1.254	-2.871	-1.438	C.2	1	UNK0	0.000	
15	   C	1.005	-1.655	-0.772	C.2	1	UNK0	0.000	
16	   O	1.221	-4.060	-0.730	O.3	1	UNK0	0.000	
17	   C	1.442	-5.337	-1.257	C.3	1	UNK0	0.000	
18	   O	1.295	0.831	-3.361	O.3	1	UNK0	0.000	
19	   C	1.550	1.020	-4.733	C.3	1	UNK0	0.000	
20	   O	-0.189	4.171	-0.367	O.3	1	UNK0	0.000	
21	   C	-1.763	2.402	-0.571	C.2	1	UNK0	0.000	
22	   C	-2.333	1.201	-0.288	C.2	1	UNK0	0.000	
23	   C	-3.660	0.925	-0.624	C.2	1	UNK0	0.000	
24	   C	-4.446	1.863	-1.260	C.2	1	UNK0	0.000	
25	   C	-3.885	3.069	-1.548	C.2	1	UNK0	0.000	
26	   C	-2.586	3.339	-1.219	C.2	1	UNK0	0.000	
27	  Br	-6.265	1.467	-1.721	Br	1	UNK0	0.000	
28	   H	0.092	0.159	4.326	 H	1	UNK0	0.000	
29	   H	1.577	1.133	3.841	 H	1	UNK0	0.000	
30	   H	-1.297	1.679	2.913	 H	1	UNK0	0.000	
31	   H	-0.369	2.595	4.187	 H	1	UNK0	0.000	
32	   H	-0.163	3.854	2.253	 H	1	UNK0	0.000	
33	   H	1.444	2.956	2.472	 H	1	UNK0	0.000	
34	   H	-0.077	2.081	-2.228	 H	1	UNK0	0.000	
35	   H	1.460	2.639	-1.425	 H	1	UNK0	0.000	
36	   H	1.748	-1.497	-4.504	 H	1	UNK0	0.000	
37	   H	1.709	-3.708	-3.317	 H	1	UNK0	0.000	
38	   H	0.803	-1.767	0.265	 H	1	UNK0	0.000	
39	   H	1.727	-6.060	-0.430	 H	1	UNK0	0.000	
40	   H	0.441	-5.653	-1.672	 H	1	UNK0	0.000	
41	   H	2.244	-5.375	-2.021	 H	1	UNK0	0.000	
42	   H	2.375	0.377	-5.057	 H	1	UNK0	0.000	
43	   H	0.671	0.703	-5.351	 H	1	UNK0	0.000	
44	   H	1.837	2.079	-4.948	 H	1	UNK0	0.000	
45	   H	0.481	4.461	0.293	 H	1	UNK0	0.000	
46	   H	-1.757	0.452	0.204	 H	1	UNK0	0.000	
47	   H	-4.102	-0.061	-0.380	 H	1	UNK0	0.000	
48	   H	-4.527	3.786	-2.047	 H	1	UNK0	0.000	
49	   H	-2.180	4.305	-1.467	 H	1	UNK0	0.000	
@<TRIPOS>BOND
1 1 2 1
2 1 9 1
3 2 3 1
4 3 4 1
5 4 5 1
6 5 6 1
7 5 9 1
8 6 7 1
9 6 20 1
10 6 21 1
11 7 8 1
12 8 9 2
13 8 10 1
14 10 11 2
15 10 15 1
16 11 12 1
17 11 18 1
18 12 13 2
19 13 14 1
20 14 15 2
21 14 16 1
22 16 17 1
23 18 19 1
24 21 22 2
25 21 26 1
26 22 23 1
27 23 24 2
28 24 25 1
29 24 27 1
30 25 26 2
31 2 28 1
32 2 29 1
33 3 30 1
34 3 31 1
35 4 32 1
36 4 33 1
37 7 34 1
38 7 35 1
39 12 36 1
40 13 37 1
41 15 38 1
42 17 39 1
43 17 40 1
44 17 41 1
45 19 42 1
46 19 43 1
47 19 44 1
48 20 45 1
49 22 46 1
50 23 47 1
51 25 48 1
52 26 49 1
@<TRIPOS>SUBSTRUCTURE
1	UNK0	1	GROUP	1 ****	UNK
