# created with PyMOL 2.3.2
@<TRIPOS>MOLECULE
1218
49 52 1                 
SMALL
USER_CHARGES
@<TRIPOS>ATOM
1	   S	3.357	1.184	0.721	S.3	1	UNK0	0.000	
2	   C	2.643	0.325	2.195	C.3	1	UNK0	0.000	
3	   C	1.332	0.912	2.582	C.3	1	UNK0	0.000	
4	   C	0.405	1.285	1.473	C.3	1	UNK0	0.000	
5	   N	0.748	0.862	0.192	N.pl3	1	UNK0	0.000	
6	   C	0.039	0.080	-0.841	C.3	1	UNK0	0.000	
7	   C	0.467	0.900	-2.006	C.3	1	UNK0	0.000	
8	   N	1.919	0.877	-1.728	N.pl3	1	UNK0	0.000	
9	   C	2.035	1.045	-0.469	C.2	1	UNK0	0.000	
10	   C	2.946	0.565	-2.679	C.2	1	UNK0	0.000	
11	   C	2.637	0.229	-3.968	C.2	1	UNK0	0.000	
12	   C	3.608	-0.214	-4.900	C.2	1	UNK0	0.000	
13	   C	4.910	-0.319	-4.521	C.2	1	UNK0	0.000	
14	   C	5.235	0.022	-3.228	C.2	1	UNK0	0.000	
15	   C	4.263	0.460	-2.314	C.2	1	UNK0	0.000	
16	  Br	6.254	-0.957	-5.753	Br	1	UNK0	0.000	
17	   O	0.740	-1.163	-0.959	O.3	1	UNK0	0.000	
18	   C	-1.355	-0.172	-0.556	C.2	1	UNK0	0.000	
19	   C	-2.447	0.437	-1.072	C.2	1	UNK0	0.000	
20	   C	-3.723	0.055	-0.748	C.2	1	UNK0	0.000	
21	   C	-3.897	-1.008	0.152	C.2	1	UNK0	0.000	
22	   C	-2.799	-1.639	0.692	C.2	1	UNK0	0.000	
23	   C	-1.555	-1.237	0.348	C.2	1	UNK0	0.000	
24	   O	-5.184	-1.383	0.461	O.3	1	UNK0	0.000	
25	   C	-5.466	-2.453	1.350	C.3	1	UNK0	0.000	
26	   O	-4.797	0.695	-1.277	O.3	1	UNK0	0.000	
27	   C	-4.805	1.766	-2.136	C.3	1	UNK0	0.000	
28	   H	2.444	-0.737	1.846	 H	1	UNK0	0.000	
29	   H	3.337	0.357	3.049	 H	1	UNK0	0.000	
30	   H	0.858	0.177	3.286	 H	1	UNK0	0.000	
31	   H	1.528	1.796	3.218	 H	1	UNK0	0.000	
32	   H	-0.587	0.816	1.751	 H	1	UNK0	0.000	
33	   H	0.191	2.370	1.509	 H	1	UNK0	0.000	
34	   H	0.191	0.512	-2.974	 H	1	UNK0	0.000	
35	   H	0.199	1.975	-1.864	 H	1	UNK0	0.000	
36	   H	1.601	0.293	-4.308	 H	1	UNK0	0.000	
37	   H	3.238	-0.456	-5.874	 H	1	UNK0	0.000	
38	   H	6.275	-0.055	-2.894	 H	1	UNK0	0.000	
39	   H	4.513	0.728	-1.322	 H	1	UNK0	0.000	
40	   H	1.476	-1.182	-0.303	 H	1	UNK0	0.000	
41	   H	-2.293	1.241	-1.795	 H	1	UNK0	0.000	
42	   H	-2.918	-2.461	1.397	 H	1	UNK0	0.000	
43	   H	-0.701	-1.752	0.783	 H	1	UNK0	0.000	
44	   H	-4.744	-3.294	1.263	 H	1	UNK0	0.000	
45	   H	-5.396	-2.091	2.372	 H	1	UNK0	0.000	
46	   H	-6.444	-2.878	1.082	 H	1	UNK0	0.000	
47	   H	-5.360	2.635	-1.657	 H	1	UNK0	0.000	
48	   H	-3.861	2.111	-2.556	 H	1	UNK0	0.000	
49	   H	-5.437	1.451	-3.023	 H	1	UNK0	0.000	
@<TRIPOS>BOND
1 1 2 1
2 1 9 1
3 2 3 1
4 3 4 1
5 4 5 1
6 5 6 1
7 5 9 1
8 6 7 1
9 6 17 1
10 6 18 1
11 7 8 1
12 8 9 2
13 8 10 1
14 10 11 2
15 10 15 1
16 11 12 1
17 12 13 2
18 13 14 1
19 13 16 1
20 14 15 2
21 18 19 2
22 18 23 1
23 19 20 1
24 20 21 2
25 20 26 1
26 21 22 1
27 21 24 1
28 22 23 2
29 24 25 1
30 26 27 1
31 2 28 1
32 2 29 1
33 3 30 1
34 3 31 1
35 4 32 1
36 4 33 1
37 7 34 1
38 7 35 1
39 11 36 1
40 12 37 1
41 14 38 1
42 15 39 1
43 17 40 1
44 19 41 1
45 22 42 1
46 23 43 1
47 25 44 1
48 25 45 1
49 25 46 1
50 27 47 1
51 27 48 1
52 27 49 1
@<TRIPOS>SUBSTRUCTURE
1	UNK0	1	GROUP	1 ****	UNK
