# created with PyMOL 2.3.2
@<TRIPOS>MOLECULE
1219
43 46 1                 
SMALL
USER_CHARGES
@<TRIPOS>ATOM
1	   S	-1.860	-1.335	0.273	S.3	1	UNK0	0.000	
2	   C	-2.606	-1.412	1.954	C.3	1	UNK0	0.000	
3	   C	-1.982	-0.333	2.822	C.3	1	UNK0	0.000	
4	   C	-0.484	-0.307	2.662	C.3	1	UNK0	0.000	
5	   N	-0.134	0.416	1.481	N.pl3	1	UNK0	0.000	
6	   C	0.861	1.401	1.099	C.3	1	UNK0	0.000	
7	   C	0.172	2.169	-0.015	C.3	1	UNK0	0.000	
8	   N	-0.742	1.142	-0.554	N.pl3	1	UNK0	0.000	
9	   C	-0.899	0.197	0.285	C.2	1	UNK0	0.000	
10	   C	-1.369	1.222	-1.831	C.2	1	UNK0	0.000	
11	   C	-1.902	0.182	-2.534	C.2	1	UNK0	0.000	
12	   C	-2.517	0.335	-3.769	C.2	1	UNK0	0.000	
13	   C	-2.606	1.590	-4.336	C.2	1	UNK0	0.000	
14	   C	-2.073	2.674	-3.648	C.2	1	UNK0	0.000	
15	   C	-1.462	2.496	-2.413	C.2	1	UNK0	0.000	
16	  Br	-3.429	1.902	-6.035	Br	1	UNK0	0.000	
17	   O	1.225	2.218	2.151	O.3	1	UNK0	0.000	
18	   C	2.072	0.764	0.529	C.2	1	UNK0	0.000	
19	   C	2.042	-0.570	0.173	C.2	1	UNK0	0.000	
20	   C	3.204	-1.128	-0.360	C.2	1	UNK0	0.000	
21	   C	4.333	-0.384	-0.525	C.2	1	UNK0	0.000	
22	   C	4.377	0.953	-0.174	C.2	1	UNK0	0.000	
23	   C	3.207	1.506	0.360	C.2	1	UNK0	0.000	
24	   N	3.183	-2.497	-0.729	N.pl3	1	UNK0	0.000	
25	   O	2.164	-3.200	-0.588	O.2	1	UNK0	0.000	
26	   O	4.286	-3.105	-1.258	O.2	1	UNK0	0.000	
27	   H	-2.492	-2.410	2.378	 H	1	UNK0	0.000	
28	   H	-3.680	-1.173	1.868	 H	1	UNK0	0.000	
29	   H	-2.206	-0.572	3.887	 H	1	UNK0	0.000	
30	   H	-2.382	0.661	2.604	 H	1	UNK0	0.000	
31	   H	-0.013	0.075	3.582	 H	1	UNK0	0.000	
32	   H	-0.133	-1.372	2.514	 H	1	UNK0	0.000	
33	   H	-0.386	3.035	0.354	 H	1	UNK0	0.000	
34	   H	0.871	2.471	-0.827	 H	1	UNK0	0.000	
35	   H	-1.850	-0.816	-2.135	 H	1	UNK0	0.000	
36	   H	-2.938	-0.500	-4.316	 H	1	UNK0	0.000	
37	   H	-2.157	3.652	-4.109	 H	1	UNK0	0.000	
38	   H	-1.053	3.360	-1.895	 H	1	UNK0	0.000	
39	   H	0.892	3.126	2.120	 H	1	UNK0	0.000	
40	   H	1.150	-1.156	0.305	 H	1	UNK0	0.000	
41	   H	5.234	-0.816	-0.938	 H	1	UNK0	0.000	
42	   H	5.267	1.517	-0.316	 H	1	UNK0	0.000	
43	   H	3.263	2.549	0.628	 H	1	UNK0	0.000	
@<TRIPOS>BOND
1 1 2 1
2 1 9 1
3 2 3 1
4 3 4 1
5 4 5 1
6 5 6 1
7 5 9 1
8 6 7 1
9 6 17 1
10 6 18 1
11 7 8 1
12 8 9 2
13 8 10 1
14 10 11 2
15 10 15 1
16 11 12 1
17 12 13 2
18 13 14 1
19 13 16 1
20 14 15 2
21 18 19 2
22 18 23 1
23 19 20 1
24 20 21 2
25 20 24 1
26 21 22 1
27 22 23 2
28 24 25 2
29 24 26 1
30 2 27 1
31 2 28 1
32 3 29 1
33 3 30 1
34 4 31 1
35 4 32 1
36 7 33 1
37 7 34 1
38 11 35 1
39 12 36 1
40 14 37 1
41 15 38 1
42 17 39 1
43 19 40 1
44 21 41 1
45 22 42 1
46 23 43 1
@<TRIPOS>SUBSTRUCTURE
1	UNK0	1	GROUP	1 ****	UNK
