# created with PyMOL 2.3.2
@<TRIPOS>MOLECULE
1220
43 46 1                 
SMALL
USER_CHARGES
@<TRIPOS>ATOM
1	   S	-0.709	2.483	2.445	S.3	1	UNK0	0.000	
2	   C	0.867	2.855	3.315	C.3	1	UNK0	0.000	
3	   C	1.779	1.704	3.395	C.3	1	UNK0	0.000	
4	   C	1.291	0.362	3.031	C.3	1	UNK0	0.000	
5	   N	0.600	0.208	1.817	N.pl3	1	UNK0	0.000	
6	   C	0.436	-0.871	0.891	C.3	1	UNK0	0.000	
7	   C	0.354	-0.110	-0.414	C.3	1	UNK0	0.000	
8	   N	-0.338	1.095	-0.009	N.pl3	1	UNK0	0.000	
9	   C	-0.190	1.268	1.219	C.2	1	UNK0	0.000	
10	   C	-1.090	1.943	-0.885	C.2	1	UNK0	0.000	
11	   C	-1.466	1.446	-2.125	C.2	1	UNK0	0.000	
12	   C	-2.180	2.220	-3.037	C.2	1	UNK0	0.000	
13	   C	-2.535	3.515	-2.731	C.2	1	UNK0	0.000	
14	   C	-2.170	4.021	-1.507	C.2	1	UNK0	0.000	
15	   C	-1.451	3.220	-0.611	C.2	1	UNK0	0.000	
16	  Br	-3.506	4.584	-4.002	Br	1	UNK0	0.000	
17	   O	-0.818	-1.456	1.085	O.3	1	UNK0	0.000	
18	   C	1.510	-1.882	0.870	C.2	1	UNK0	0.000	
19	   C	1.126	-3.217	0.787	C.2	1	UNK0	0.000	
20	   C	2.055	-4.233	0.758	C.2	1	UNK0	0.000	
21	   C	3.414	-3.978	0.809	C.2	1	UNK0	0.000	
22	   C	3.801	-2.654	0.889	C.2	1	UNK0	0.000	
23	   C	2.855	-1.624	0.919	C.2	1	UNK0	0.000	
24	   N	4.349	-5.040	0.775	N.pl3	1	UNK0	0.000	
25	   O	4.028	-6.231	0.693	O.2	1	UNK0	0.000	
26	   O	5.688	-4.748	0.830	O.2	1	UNK0	0.000	
27	   H	1.344	3.715	2.759	 H	1	UNK0	0.000	
28	   H	0.586	3.267	4.283	 H	1	UNK0	0.000	
29	   H	2.710	1.931	2.830	 H	1	UNK0	0.000	
30	   H	2.134	1.640	4.475	 H	1	UNK0	0.000	
31	   H	0.605	-0.009	3.855	 H	1	UNK0	0.000	
32	   H	2.152	-0.340	3.098	 H	1	UNK0	0.000	
33	   H	1.432	0.128	-0.666	 H	1	UNK0	0.000	
34	   H	-0.139	-0.689	-1.203	 H	1	UNK0	0.000	
35	   H	-1.199	0.437	-2.404	 H	1	UNK0	0.000	
36	   H	-2.459	1.802	-4.006	 H	1	UNK0	0.000	
37	   H	-2.425	5.029	-1.256	 H	1	UNK0	0.000	
38	   H	-1.166	3.651	0.348	 H	1	UNK0	0.000	
39	   H	-1.204	-1.670	0.220	 H	1	UNK0	0.000	
40	   H	0.059	-3.448	0.748	 H	1	UNK0	0.000	
41	   H	1.786	-5.292	0.695	 H	1	UNK0	0.000	
42	   H	4.866	-2.427	0.932	 H	1	UNK0	0.000	
43	   H	3.185	-0.591	0.985	 H	1	UNK0	0.000	
@<TRIPOS>BOND
1 1 2 1
2 1 9 1
3 2 3 1
4 3 4 1
5 4 5 1
6 5 6 1
7 5 9 1
8 6 7 1
9 6 17 1
10 6 18 1
11 7 8 1
12 8 9 2
13 8 10 1
14 10 11 2
15 10 15 1
16 11 12 1
17 12 13 2
18 13 14 1
19 13 16 1
20 14 15 2
21 18 19 2
22 18 23 1
23 19 20 1
24 20 21 2
25 21 22 1
26 21 24 1
27 22 23 2
28 24 25 2
29 24 26 1
30 2 27 1
31 2 28 1
32 3 29 1
33 3 30 1
34 4 31 1
35 4 32 1
36 7 33 1
37 7 34 1
38 11 35 1
39 12 36 1
40 14 37 1
41 15 38 1
42 17 39 1
43 19 40 1
44 20 41 1
45 22 42 1
46 23 43 1
@<TRIPOS>SUBSTRUCTURE
1	UNK0	1	GROUP	1 ****	UNK
