# created with PyMOL 2.3.2
@<TRIPOS>MOLECULE
1221
45 48 1                 
SMALL
USER_CHARGES
@<TRIPOS>ATOM
1	   S	0.179	3.176	-1.260	S.3	1	UNK0	0.000	
2	   C	0.001	4.562	-0.070	C.3	1	UNK0	0.000	
3	   C	-0.447	3.895	1.234	C.3	1	UNK0	0.000	
4	   C	0.708	3.079	1.741	C.3	1	UNK0	0.000	
5	   N	0.833	1.847	1.051	N.pl3	1	UNK0	0.000	
6	   C	0.970	0.457	1.511	C.3	1	UNK0	0.000	
7	   C	1.834	-0.093	0.433	C.3	1	UNK0	0.000	
8	   N	1.442	0.688	-0.759	N.pl3	1	UNK0	0.000	
9	   C	0.879	1.789	-0.367	C.2	1	UNK0	0.000	
10	   C	1.696	0.228	-2.078	C.2	1	UNK0	0.000	
11	   C	1.151	0.799	-3.202	C.2	1	UNK0	0.000	
12	   C	1.450	0.314	-4.482	C.2	1	UNK0	0.000	
13	   C	2.301	-0.752	-4.677	C.2	1	UNK0	0.000	
14	   C	2.849	-1.326	-3.556	C.2	1	UNK0	0.000	
15	   C	2.556	-0.850	-2.303	C.2	1	UNK0	0.000	
16	  Br	2.698	-1.404	-6.435	Br	1	UNK0	0.000	
17	   O	1.744	0.445	2.690	O.3	1	UNK0	0.000	
18	   C	-0.312	-0.225	1.692	C.2	1	UNK0	0.000	
19	   C	-0.564	-1.548	1.353	C.2	1	UNK0	0.000	
20	   C	-1.794	-2.155	1.551	C.2	1	UNK0	0.000	
21	   C	-2.854	-1.468	2.103	C.2	1	UNK0	0.000	
22	   C	-2.618	-0.158	2.444	C.2	1	UNK0	0.000	
23	   C	-1.399	0.450	2.251	C.2	1	UNK0	0.000	
24	   O	-4.089	-2.079	2.302	O.3	1	UNK0	0.000	
25	   C	-4.215	-3.448	1.915	C.3	1	UNK0	0.000	
26	   H	1.006	4.958	0.134	 H	1	UNK0	0.000	
27	   H	-0.727	5.294	-0.418	 H	1	UNK0	0.000	
28	   H	-1.321	3.266	0.986	 H	1	UNK0	0.000	
29	   H	-0.773	4.657	1.975	 H	1	UNK0	0.000	
30	   H	0.658	2.958	2.851	 H	1	UNK0	0.000	
31	   H	1.666	3.648	1.583	 H	1	UNK0	0.000	
32	   H	1.819	-1.158	0.264	 H	1	UNK0	0.000	
33	   H	2.903	0.234	0.616	 H	1	UNK0	0.000	
34	   H	0.487	1.625	-3.127	 H	1	UNK0	0.000	
35	   H	1.013	0.773	-5.363	 H	1	UNK0	0.000	
36	   H	3.510	-2.161	-3.690	 H	1	UNK0	0.000	
37	   H	2.995	-1.312	-1.406	 H	1	UNK0	0.000	
38	   H	1.297	-0.202	3.294	 H	1	UNK0	0.000	
39	   H	0.247	-2.126	0.921	 H	1	UNK0	0.000	
40	   H	-1.967	-3.194	1.270	 H	1	UNK0	0.000	
41	   H	-3.470	0.390	2.882	 H	1	UNK0	0.000	
42	   H	-1.229	1.479	2.531	 H	1	UNK0	0.000	
43	   H	-3.502	-4.038	2.547	 H	1	UNK0	0.000	
44	   H	-3.908	-3.592	0.875	 H	1	UNK0	0.000	
45	   H	-5.230	-3.842	2.152	 H	1	UNK0	0.000	
@<TRIPOS>BOND
1 1 2 1
2 1 9 1
3 2 3 1
4 3 4 1
5 4 5 1
6 5 6 1
7 5 9 1
8 6 7 1
9 6 17 1
10 6 18 1
11 7 8 1
12 8 9 2
13 8 10 1
14 10 11 2
15 10 15 1
16 11 12 1
17 12 13 2
18 13 14 1
19 13 16 1
20 14 15 2
21 18 19 2
22 18 23 1
23 19 20 1
24 20 21 2
25 21 22 1
26 21 24 1
27 22 23 2
28 24 25 1
29 2 26 1
30 2 27 1
31 3 28 1
32 3 29 1
33 4 30 1
34 4 31 1
35 7 32 1
36 7 33 1
37 11 34 1
38 12 35 1
39 14 36 1
40 15 37 1
41 17 38 1
42 19 39 1
43 20 40 1
44 22 41 1
45 23 42 1
46 25 43 1
47 25 44 1
48 25 45 1
@<TRIPOS>SUBSTRUCTURE
1	UNK0	1	GROUP	1 ****	UNK
