# created with PyMOL 2.3.2
@<TRIPOS>MOLECULE
1222
41 44 1                 
SMALL
USER_CHARGES
@<TRIPOS>ATOM
1	   S	2.164	-0.541	-1.434	S.3	1	UNK0	0.000	
2	   C	2.424	-1.084	-3.182	C.3	1	UNK0	0.000	
3	   C	1.176	-1.737	-3.717	C.3	1	UNK0	0.000	
4	   C	0.329	-2.401	-2.653	C.3	1	UNK0	0.000	
5	   N	-0.347	-1.500	-1.804	N.pl3	1	UNK0	0.000	
6	   C	-1.633	-1.340	-1.103	C.3	1	UNK0	0.000	
7	   C	-1.774	0.154	-1.272	C.3	1	UNK0	0.000	
8	   N	-0.416	0.603	-1.003	N.pl3	1	UNK0	0.000	
9	   C	0.358	-0.299	-1.384	C.2	1	UNK0	0.000	
10	   C	-0.058	1.840	-0.350	C.2	1	UNK0	0.000	
11	   C	1.191	2.172	0.071	C.2	1	UNK0	0.000	
12	   C	1.484	3.355	0.738	C.2	1	UNK0	0.000	
13	   C	0.480	4.250	0.998	C.2	1	UNK0	0.000	
14	   C	-0.791	3.917	0.571	C.2	1	UNK0	0.000	
15	   C	-1.077	2.752	-0.085	C.2	1	UNK0	0.000	
16	  Br	0.789	5.907	1.917	Br	1	UNK0	0.000	
17	   O	-2.661	-1.992	-1.712	O.3	1	UNK0	0.000	
18	   C	-1.485	-1.667	0.354	C.2	1	UNK0	0.000	
19	   C	-0.568	-2.586	0.827	C.2	1	UNK0	0.000	
20	   C	-0.491	-2.825	2.193	C.2	1	UNK0	0.000	
21	   C	-1.300	-2.175	3.116	C.2	1	UNK0	0.000	
22	   C	-2.210	-1.263	2.655	C.2	1	UNK0	0.000	
23	   C	-2.292	-1.023	1.284	C.2	1	UNK0	0.000	
24	   H	2.507	-0.119	-3.760	 H	1	UNK0	0.000	
25	   H	3.340	-1.681	-3.256	 H	1	UNK0	0.000	
26	   H	1.514	-2.550	-4.427	 H	1	UNK0	0.000	
27	   H	0.518	-1.017	-4.248	 H	1	UNK0	0.000	
28	   H	-0.300	-3.204	-3.089	 H	1	UNK0	0.000	
29	   H	1.098	-2.947	-2.007	 H	1	UNK0	0.000	
30	   H	-2.550	0.623	-0.709	 H	1	UNK0	0.000	
31	   H	-1.940	0.315	-2.385	 H	1	UNK0	0.000	
32	   H	2.035	1.490	-0.111	 H	1	UNK0	0.000	
33	   H	2.498	3.572	1.053	 H	1	UNK0	0.000	
34	   H	-1.588	4.635	0.785	 H	1	UNK0	0.000	
35	   H	-2.096	2.514	-0.418	 H	1	UNK0	0.000	
36	   H	-2.503	-2.943	-1.935	 H	1	UNK0	0.000	
37	   H	0.067	-3.106	0.118	 H	1	UNK0	0.000	
38	   H	0.232	-3.547	2.526	 H	1	UNK0	0.000	
39	   H	-1.215	-2.382	4.176	 H	1	UNK0	0.000	
40	   H	-2.853	-0.725	3.332	 H	1	UNK0	0.000	
41	   H	-3.012	-0.308	0.914	 H	1	UNK0	0.000	
@<TRIPOS>BOND
1 1 2 1
2 1 9 1
3 2 3 1
4 3 4 1
5 4 5 1
6 5 6 1
7 5 9 1
8 6 7 1
9 6 17 1
10 6 18 1
11 7 8 1
12 8 9 2
13 8 10 1
14 10 11 2
15 10 15 1
16 11 12 1
17 12 13 2
18 13 14 1
19 13 16 1
20 14 15 2
21 18 19 2
22 18 23 1
23 19 20 1
24 20 21 2
25 21 22 1
26 22 23 2
27 2 24 1
28 2 25 1
29 3 26 1
30 3 27 1
31 4 28 1
32 4 29 1
33 7 30 1
34 7 31 1
35 11 32 1
36 12 33 1
37 14 34 1
38 15 35 1
39 17 36 1
40 19 37 1
41 20 38 1
42 21 39 1
43 22 40 1
44 23 41 1
@<TRIPOS>SUBSTRUCTURE
1	UNK0	1	GROUP	1 ****	UNK
