# created with PyMOL 2.3.2
@<TRIPOS>MOLECULE
1223
47 51 1                 
SMALL
USER_CHARGES
@<TRIPOS>ATOM
1	   S	-1.975	-2.135	-2.031	S.3	1	UNK0	0.000	
2	   C	-0.777	-2.875	-3.195	C.3	1	UNK0	0.000	
3	   C	0.420	-1.940	-3.168	C.3	1	UNK0	0.000	
4	   C	1.120	-2.118	-1.838	C.3	1	UNK0	0.000	
5	   N	0.437	-1.463	-0.743	N.pl3	1	UNK0	0.000	
6	   C	0.867	-0.951	0.479	C.3	1	UNK0	0.000	
7	   C	-0.250	-0.052	0.936	C.3	1	UNK0	0.000	
8	   N	-1.378	-0.497	0.157	N.pl3	1	UNK0	0.000	
9	   C	-0.999	-1.284	-0.775	C.2	1	UNK0	0.000	
10	   C	-2.703	-0.055	0.513	C.2	1	UNK0	0.000	
11	   C	-3.572	0.471	-0.411	C.2	1	UNK0	0.000	
12	   C	-4.847	0.907	-0.043	C.2	1	UNK0	0.000	
13	   C	-5.245	0.803	1.270	C.2	1	UNK0	0.000	
14	   C	-4.397	0.277	2.216	C.2	1	UNK0	0.000	
15	   C	-3.122	-0.151	1.815	C.2	1	UNK0	0.000	
16	  Br	-6.955	1.394	1.857	Br	1	UNK0	0.000	
17	   O	0.982	-2.042	1.417	O.3	1	UNK0	0.000	
18	   C	2.092	-0.168	0.607	C.2	1	UNK0	0.000	
19	   C	2.495	0.066	1.943	C.2	1	UNK0	0.000	
20	   C	3.625	0.803	2.251	C.2	1	UNK0	0.000	
21	   C	4.405	1.337	1.255	C.2	1	UNK0	0.000	
22	   C	4.030	1.121	-0.034	C.2	1	UNK0	0.000	
23	   C	2.878	0.373	-0.347	C.2	1	UNK0	0.000	
24	   O	5.517	2.060	1.686	O.3	1	UNK0	0.000	
25	   C	5.426	2.912	2.822	C.3	1	UNK0	0.000	
26	   C	4.562	2.338	3.926	C.3	1	UNK0	0.000	
27	   O	4.034	1.047	3.571	O.3	1	UNK0	0.000	
28	   H	-0.453	-3.877	-2.878	 H	1	UNK0	0.000	
29	   H	-1.168	-2.894	-4.213	 H	1	UNK0	0.000	
30	   H	1.166	-2.192	-3.953	 H	1	UNK0	0.000	
31	   H	0.110	-0.912	-3.317	 H	1	UNK0	0.000	
32	   H	2.158	-1.840	-1.953	 H	1	UNK0	0.000	
33	   H	1.140	-3.238	-1.637	 H	1	UNK0	0.000	
34	   H	0.016	1.012	0.653	 H	1	UNK0	0.000	
35	   H	-0.437	-0.114	2.031	 H	1	UNK0	0.000	
36	   H	-3.322	0.573	-1.459	 H	1	UNK0	0.000	
37	   H	-5.553	1.330	-0.742	 H	1	UNK0	0.000	
38	   H	-4.708	0.182	3.251	 H	1	UNK0	0.000	
39	   H	-2.511	-0.553	2.620	 H	1	UNK0	0.000	
40	   H	1.831	-2.518	1.242	 H	1	UNK0	0.000	
41	   H	1.922	-0.346	2.760	 H	1	UNK0	0.000	
42	   H	4.641	1.511	-0.822	 H	1	UNK0	0.000	
43	   H	2.616	0.249	-1.379	 H	1	UNK0	0.000	
44	   H	5.048	3.898	2.452	 H	1	UNK0	0.000	
45	   H	6.441	3.082	3.224	 H	1	UNK0	0.000	
46	   H	5.085	2.299	4.872	 H	1	UNK0	0.000	
47	   H	3.666	2.986	4.035	 H	1	UNK0	0.000	
@<TRIPOS>BOND
1 1 2 1
2 1 9 1
3 2 3 1
4 3 4 1
5 4 5 1
6 5 6 1
7 5 9 1
8 6 7 1
9 6 17 1
10 6 18 1
11 7 8 1
12 8 9 2
13 8 10 1
14 10 11 2
15 10 15 1
16 11 12 1
17 12 13 2
18 13 14 1
19 13 16 1
20 14 15 2
21 18 19 2
22 18 23 1
23 19 20 1
24 20 21 2
25 20 27 1
26 21 22 1
27 21 24 1
28 22 23 2
29 24 25 1
30 25 26 1
31 26 27 1
32 2 28 1
33 2 29 1
34 3 30 1
35 3 31 1
36 4 32 1
37 4 33 1
38 7 34 1
39 7 35 1
40 11 36 1
41 12 37 1
42 14 38 1
43 15 39 1
44 17 40 1
45 19 41 1
46 22 42 1
47 23 43 1
48 25 44 1
49 25 45 1
50 26 46 1
51 26 47 1
@<TRIPOS>SUBSTRUCTURE
1	UNK0	1	GROUP	1 ****	UNK
