# created with PyMOL 2.3.2
@<TRIPOS>MOLECULE
1225
42 45 1                 
SMALL
USER_CHARGES
@<TRIPOS>ATOM
1	   S	-1.729	0.513	-0.609	S.3	1	UNK0	0.000	
2	   C	-3.095	0.113	0.544	C.3	1	UNK0	0.000	
3	   C	-3.307	-1.354	0.654	C.3	1	UNK0	0.000	
4	   C	-2.154	-2.264	0.560	C.3	1	UNK0	0.000	
5	   N	-0.842	-1.768	0.595	N.pl3	1	UNK0	0.000	
6	   C	0.398	-2.228	1.288	C.3	1	UNK0	0.000	
7	   C	1.389	-1.764	0.277	C.3	1	UNK0	0.000	
8	   N	0.829	-0.582	-0.317	N.pl3	1	UNK0	0.000	
9	   C	-0.429	-0.631	-0.125	C.2	1	UNK0	0.000	
10	   C	1.624	0.397	-0.979	C.2	1	UNK0	0.000	
11	   C	2.853	0.022	-1.524	C.2	1	UNK0	0.000	
12	   C	3.665	0.934	-2.154	C.2	1	UNK0	0.000	
13	   C	3.311	2.273	-2.282	C.2	1	UNK0	0.000	
14	   C	2.098	2.633	-1.738	C.2	1	UNK0	0.000	
15	   C	1.277	1.720	-1.106	C.2	1	UNK0	0.000	
16	   O	4.124	3.192	-2.915	O.3	1	UNK0	0.000	
17	   O	0.355	-3.611	1.423	O.3	1	UNK0	0.000	
18	   C	0.527	-1.545	2.573	C.2	1	UNK0	0.000	
19	   C	1.021	-2.227	3.685	C.2	1	UNK0	0.000	
20	   C	1.161	-1.637	4.922	C.2	1	UNK0	0.000	
21	   C	0.802	-0.307	5.095	C.2	1	UNK0	0.000	
22	   C	0.319	0.361	4.016	C.2	1	UNK0	0.000	
23	   C	0.175	-0.231	2.756	C.2	1	UNK0	0.000	
24	  Br	0.968	0.569	6.770	Br	1	UNK0	0.000	
25	   H	-4.026	0.591	0.172	 H	1	UNK0	0.000	
26	   H	-2.909	0.584	1.528	 H	1	UNK0	0.000	
27	   H	-3.914	-1.523	1.578	 H	1	UNK0	0.000	
28	   H	-4.046	-1.613	-0.169	 H	1	UNK0	0.000	
29	   H	-2.267	-2.958	-0.342	 H	1	UNK0	0.000	
30	   H	-2.253	-3.016	1.417	 H	1	UNK0	0.000	
31	   H	2.404	-1.584	0.717	 H	1	UNK0	0.000	
32	   H	1.447	-2.515	-0.536	 H	1	UNK0	0.000	
33	   H	3.137	-1.013	-1.446	 H	1	UNK0	0.000	
34	   H	4.617	0.645	-2.591	 H	1	UNK0	0.000	
35	   H	1.782	3.691	-1.801	 H	1	UNK0	0.000	
36	   H	0.324	2.024	-0.657	 H	1	UNK0	0.000	
37	   H	4.035	3.365	-3.928	 H	1	UNK0	0.000	
38	   H	0.185	-4.006	0.543	 H	1	UNK0	0.000	
39	   H	1.306	-3.242	3.532	 H	1	UNK0	0.000	
40	   H	1.572	-2.154	5.783	 H	1	UNK0	0.000	
41	   H	0.014	1.414	4.155	 H	1	UNK0	0.000	
42	   H	-0.224	0.419	2.001	 H	1	UNK0	0.000	
@<TRIPOS>BOND
1 1 2 1
2 1 9 1
3 2 3 1
4 3 4 1
5 4 5 1
6 5 6 1
7 5 9 1
8 6 7 1
9 6 17 1
10 6 18 1
11 7 8 1
12 8 9 2
13 8 10 1
14 10 11 2
15 10 15 1
16 11 12 1
17 12 13 2
18 13 14 1
19 13 16 1
20 14 15 2
21 18 19 2
22 18 23 1
23 19 20 1
24 20 21 2
25 21 22 1
26 21 24 1
27 22 23 2
28 2 25 1
29 2 26 1
30 3 27 1
31 3 28 1
32 4 29 1
33 4 30 1
34 7 31 1
35 7 32 1
36 11 33 1
37 12 34 1
38 14 35 1
39 15 36 1
40 16 37 1
41 17 38 1
42 19 39 1
43 20 40 1
44 22 41 1
45 23 42 1
@<TRIPOS>SUBSTRUCTURE
1	UNK0	1	GROUP	1 ****	UNK
