# created with PyMOL 2.3.2
@<TRIPOS>MOLECULE
1226
41 44 1                 
SMALL
USER_CHARGES
@<TRIPOS>ATOM
1	   S	1.316	-1.823	1.952	S.3	1	UNK0	0.000	
2	   C	2.154	-0.463	2.813	C.3	1	UNK0	0.000	
3	   C	2.243	0.688	1.806	C.3	1	UNK0	0.000	
4	   C	0.812	1.160	1.503	C.3	1	UNK0	0.000	
5	   N	0.264	0.282	0.462	N.pl3	1	UNK0	0.000	
6	   C	-0.501	0.517	-0.694	C.3	1	UNK0	0.000	
7	   C	-0.409	-0.780	-1.491	C.3	1	UNK0	0.000	
8	   N	0.195	-1.708	-0.585	N.pl3	1	UNK0	0.000	
9	   C	0.526	-1.114	0.488	C.2	1	UNK0	0.000	
10	   C	0.409	-3.086	-0.931	C.2	1	UNK0	0.000	
11	   C	-0.626	-3.959	-0.836	C.2	1	UNK0	0.000	
12	   C	-0.400	-5.281	-1.206	C.2	1	UNK0	0.000	
13	   C	0.819	-5.732	-1.660	C.2	1	UNK0	0.000	
14	   C	1.841	-4.808	-1.737	C.2	1	UNK0	0.000	
15	   C	1.653	-3.495	-1.380	C.2	1	UNK0	0.000	
16	   O	0.142	1.492	-1.489	O.3	1	UNK0	0.000	
17	   C	-1.908	0.887	-0.555	C.2	1	UNK0	0.000	
18	   C	-2.520	1.423	-1.687	C.2	1	UNK0	0.000	
19	   C	-3.851	1.794	-1.736	C.2	1	UNK0	0.000	
20	   C	-4.640	1.643	-0.629	C.2	1	UNK0	0.000	
21	   C	-4.051	1.113	0.505	C.2	1	UNK0	0.000	
22	   C	-2.710	0.742	0.540	C.2	1	UNK0	0.000	
23	  Br	-6.507	2.129	-0.634	Br	1	UNK0	0.000	
24	   H	1.535	-0.165	3.675	 H	1	UNK0	0.000	
25	   H	3.187	-0.759	3.098	 H	1	UNK0	0.000	
26	   H	2.815	1.507	2.233	 H	1	UNK0	0.000	
27	   H	2.718	0.295	0.889	 H	1	UNK0	0.000	
28	   H	0.213	1.181	2.407	 H	1	UNK0	0.000	
29	   H	0.922	2.191	1.131	 H	1	UNK0	0.000	
30	   H	0.230	-0.635	-2.381	 H	1	UNK0	0.000	
31	   H	-1.430	-1.159	-1.743	 H	1	UNK0	0.000	
32	   H	-1.636	-3.684	-0.480	 H	1	UNK0	0.000	
33	   H	-1.225	-5.964	-1.122	 H	1	UNK0	0.000	
34	   H	0.978	-6.780	-1.955	 H	1	UNK0	0.000	
35	   H	2.819	-5.132	-2.092	 H	1	UNK0	0.000	
36	   H	2.453	-2.743	-1.435	 H	1	UNK0	0.000	
37	   H	0.071	2.346	-0.988	 H	1	UNK0	0.000	
38	   H	-1.881	1.543	-2.561	 H	1	UNK0	0.000	
39	   H	-4.284	2.213	-2.653	 H	1	UNK0	0.000	
40	   H	-4.685	0.992	1.375	 H	1	UNK0	0.000	
41	   H	-2.273	0.336	1.449	 H	1	UNK0	0.000	
@<TRIPOS>BOND
1 1 2 1
2 1 9 1
3 2 3 1
4 3 4 1
5 4 5 1
6 5 6 1
7 5 9 1
8 6 7 1
9 6 16 1
10 6 17 1
11 7 8 1
12 8 9 2
13 8 10 1
14 10 11 2
15 10 15 1
16 11 12 1
17 12 13 2
18 13 14 1
19 14 15 2
20 17 18 2
21 17 22 1
22 18 19 1
23 19 20 2
24 20 21 1
25 20 23 1
26 21 22 2
27 2 24 1
28 2 25 1
29 3 26 1
30 3 27 1
31 4 28 1
32 4 29 1
33 7 30 1
34 7 31 1
35 11 32 1
36 12 33 1
37 13 34 1
38 14 35 1
39 15 36 1
40 16 37 1
41 18 38 1
42 19 39 1
43 21 40 1
44 22 41 1
@<TRIPOS>SUBSTRUCTURE
1	UNK0	1	GROUP	1 ****	UNK
