# created with PyMOL 2.3.2
@<TRIPOS>MOLECULE
1232
45 48 1                 
SMALL
USER_CHARGES
@<TRIPOS>ATOM
1	   S	0.237	2.129	3.801	S.3	1	UNK0	0.000	
2	   C	1.948	1.814	3.192	C.3	1	UNK0	0.000	
3	   C	1.974	2.320	1.798	C.3	1	UNK0	0.000	
4	   N	0.990	1.942	0.892	N.4	1	UNK0	0.000	
5	   C	1.522	0.873	0.029	C.3	1	UNK0	0.000	
6	   C	0.338	0.260	-0.632	C.3	1	UNK0	0.000	
7	   N	-0.797	0.826	0.104	N.pl3	1	UNK0	0.000	
8	   C	-0.218	1.371	1.297	C.2	1	UNK0	0.000	
9	   C	-0.724	1.348	2.518	C.2	1	UNK0	0.000	
10	   C	-2.158	0.807	-0.313	C.2	1	UNK0	0.000	
11	   C	-3.167	1.416	0.353	C.2	1	UNK0	0.000	
12	   C	-4.468	1.344	-0.139	C.2	1	UNK0	0.000	
13	   C	-4.777	0.678	-1.280	C.2	1	UNK0	0.000	
14	   C	-3.751	0.061	-1.959	C.2	1	UNK0	0.000	
15	   C	-2.462	0.121	-1.488	C.2	1	UNK0	0.000	
16	  Br	-6.552	0.550	-1.985	Br	1	UNK0	0.000	
17	   O	0.359	0.659	-1.957	O.3	1	UNK0	0.000	
18	   C	0.232	-1.216	-0.449	C.2	1	UNK0	0.000	
19	   C	1.136	-2.071	-1.042	C.2	1	UNK0	0.000	
20	   C	1.051	-3.428	-0.893	C.2	1	UNK0	0.000	
21	   C	0.049	-4.025	-0.133	C.2	1	UNK0	0.000	
22	   C	-0.850	-3.168	0.455	C.2	1	UNK0	0.000	
23	   C	-0.760	-1.790	0.303	C.2	1	UNK0	0.000	
24	   O	0.009	-5.409	-0.017	O.3	1	UNK0	0.000	
25	   C	-0.978	-6.047	0.729	C.3	1	UNK0	0.000	
26	   H	2.044	0.700	3.201	 H	1	UNK0	0.000	
27	   H	2.704	2.336	3.801	 H	1	UNK0	0.000	
28	   H	3.002	2.057	1.390	 H	1	UNK0	0.000	
29	   H	2.033	3.455	1.835	 H	1	UNK0	0.000	
30	   H	0.743	2.757	0.238	 H	1	UNK0	0.000	
31	   H	2.145	0.198	0.628	 H	1	UNK0	0.000	
32	   H	2.212	1.397	-0.675	 H	1	UNK0	0.000	
33	   H	-1.648	0.900	2.808	 H	1	UNK0	0.000	
34	   H	-2.969	1.969	1.260	 H	1	UNK0	0.000	
35	   H	-5.265	1.819	0.391	 H	1	UNK0	0.000	
36	   H	-3.946	-0.482	-2.880	 H	1	UNK0	0.000	
37	   H	-1.699	-0.363	-2.044	 H	1	UNK0	0.000	
38	   H	0.991	0.021	-2.414	 H	1	UNK0	0.000	
39	   H	1.943	-1.666	-1.658	 H	1	UNK0	0.000	
40	   H	1.763	-4.120	-1.357	 H	1	UNK0	0.000	
41	   H	-1.654	-3.583	1.062	 H	1	UNK0	0.000	
42	   H	-1.505	-1.225	0.820	 H	1	UNK0	0.000	
43	   H	-0.590	-6.977	1.256	 H	1	UNK0	0.000	
44	   H	-1.437	-5.462	1.543	 H	1	UNK0	0.000	
45	   H	-1.809	-6.382	0.043	 H	1	UNK0	0.000	
@<TRIPOS>BOND
1 1 2 1
2 1 9 1
3 2 3 1
4 3 4 1
5 4 5 1
6 4 8 1
7 5 6 1
8 6 7 1
9 6 17 1
10 6 18 1
11 7 8 1
12 7 10 1
13 8 9 2
14 10 11 2
15 10 15 1
16 11 12 1
17 12 13 2
18 13 14 1
19 13 16 1
20 14 15 2
21 18 19 2
22 18 23 1
23 19 20 1
24 20 21 2
25 21 22 1
26 21 24 1
27 22 23 2
28 24 25 1
29 2 26 1
30 2 27 1
31 3 28 1
32 3 29 1
33 4 30 1
34 5 31 1
35 5 32 1
36 9 33 1
37 11 34 1
38 12 35 1
39 14 36 1
40 15 37 1
41 17 38 1
42 19 39 1
43 20 40 1
44 22 41 1
45 23 42 1
46 25 43 1
47 25 44 1
48 25 45 1
@<TRIPOS>SUBSTRUCTURE
1	UNK0	1	GROUP	1 ****	UNK
