# created with PyMOL 2.3.2
@<TRIPOS>MOLECULE
1233
39 42 1                 
SMALL
USER_CHARGES
@<TRIPOS>ATOM
1	   S	1.957	3.004	0.873	S.3	1	UNK0	0.000	
2	   C	1.008	3.343	2.377	C.3	1	UNK0	0.000	
3	   C	-0.158	2.411	2.191	C.3	1	UNK0	0.000	
4	   N	0.100	1.358	1.287	N.pl3	1	UNK0	0.000	
5	   C	1.166	1.451	0.509	C.2	1	UNK0	0.000	
6	   N	1.333	0.399	-0.301	N.pl3	1	UNK0	0.000	
7	   C	0.317	-0.440	-0.043	C.2	1	UNK0	0.000	
8	   C	-0.473	0.150	0.956	C.2	1	UNK0	0.000	
9	   C	-1.671	-0.456	1.514	C.2	1	UNK0	0.000	
10	   C	-1.998	-1.742	1.102	C.2	1	UNK0	0.000	
11	   C	-3.136	-2.414	1.554	C.2	1	UNK0	0.000	
12	   C	-3.981	-1.817	2.431	C.2	1	UNK0	0.000	
13	   C	-3.666	-0.543	2.845	C.2	1	UNK0	0.000	
14	   C	-2.534	0.139	2.402	C.2	1	UNK0	0.000	
15	   O	-5.131	-2.386	2.941	O.3	1	UNK0	0.000	
16	   C	-5.602	-3.664	2.634	C.3	1	UNK0	0.000	
17	   C	2.354	0.154	-1.261	C.2	1	UNK0	0.000	
18	   C	2.155	0.443	-2.592	C.2	1	UNK0	0.000	
19	   C	3.150	0.203	-3.517	C.2	1	UNK0	0.000	
20	   C	4.379	-0.335	-3.148	C.2	1	UNK0	0.000	
21	   C	4.586	-0.628	-1.817	C.2	1	UNK0	0.000	
22	   C	3.576	-0.378	-0.915	C.2	1	UNK0	0.000	
23	  Br	5.743	-0.663	-4.429	Br	1	UNK0	0.000	
24	   H	0.666	4.400	2.334	 H	1	UNK0	0.000	
25	   H	1.600	3.136	3.293	 H	1	UNK0	0.000	
26	   H	-1.091	2.984	1.969	 H	1	UNK0	0.000	
27	   H	-0.309	1.976	3.218	 H	1	UNK0	0.000	
28	   H	0.153	-1.387	-0.526	 H	1	UNK0	0.000	
29	   H	-1.352	-2.249	0.410	 H	1	UNK0	0.000	
30	   H	-3.363	-3.415	1.214	 H	1	UNK0	0.000	
31	   H	-4.311	-0.018	3.549	 H	1	UNK0	0.000	
32	   H	-2.323	1.130	2.729	 H	1	UNK0	0.000	
33	   H	-5.535	-3.827	1.557	 H	1	UNK0	0.000	
34	   H	-6.692	-3.695	2.910	 H	1	UNK0	0.000	
35	   H	-5.076	-4.419	3.249	 H	1	UNK0	0.000	
36	   H	1.232	0.863	-2.965	 H	1	UNK0	0.000	
37	   H	3.026	0.419	-4.575	 H	1	UNK0	0.000	
38	   H	5.528	-1.050	-1.473	 H	1	UNK0	0.000	
39	   H	3.751	-0.612	0.123	 H	1	UNK0	0.000	
@<TRIPOS>BOND
1 1 2 1
2 1 5 1
3 2 3 1
4 3 4 1
5 4 5 1
6 4 8 1
7 5 6 2
8 6 7 1
9 6 17 1
10 7 8 2
11 8 9 1
12 9 10 2
13 9 14 1
14 10 11 1
15 11 12 2
16 12 13 1
17 12 15 1
18 13 14 2
19 15 16 1
20 17 18 2
21 17 22 1
22 18 19 1
23 19 20 2
24 20 21 1
25 20 23 1
26 21 22 2
27 2 24 1
28 2 25 1
29 3 26 1
30 3 27 1
31 7 28 1
32 10 29 1
33 11 30 1
34 13 31 1
35 14 32 1
36 16 33 1
37 16 34 1
38 16 35 1
39 18 36 1
40 19 37 1
41 21 38 1
42 22 39 1
@<TRIPOS>SUBSTRUCTURE
1	UNK0	1	GROUP	1 ****	UNK
