# created with PyMOL 2.3.2
@<TRIPOS>MOLECULE
1234
38 41 1                 
SMALL
USER_CHARGES
@<TRIPOS>ATOM
1	   S	-2.378	0.646	-1.897	S.3	1	UNK0	0.000	
2	   C	-3.702	0.117	-0.724	C.3	1	UNK0	0.000	
3	   C	-3.000	-0.993	-0.023	C.3	1	UNK0	0.000	
4	   N	-1.579	-0.899	-0.066	N.pl3	1	UNK0	0.000	
5	   C	-0.379	-1.622	0.408	C.3	1	UNK0	0.000	
6	   C	0.539	-0.425	0.724	C.3	1	UNK0	0.000	
7	   N	0.126	0.497	-0.345	N.pl3	1	UNK0	0.000	
8	   C	-1.049	0.219	-0.760	C.2	1	UNK0	0.000	
9	   C	0.902	1.565	-0.882	C.2	1	UNK0	0.000	
10	   C	0.466	2.423	-1.865	C.2	1	UNK0	0.000	
11	   C	1.255	3.453	-2.353	C.2	1	UNK0	0.000	
12	   C	2.517	3.642	-1.851	C.2	1	UNK0	0.000	
13	   C	2.982	2.809	-0.874	C.2	1	UNK0	0.000	
14	   C	2.173	1.783	-0.400	C.2	1	UNK0	0.000	
15	  Br	3.608	5.042	-2.508	Br	1	UNK0	0.000	
16	   O	-0.625	-2.403	1.504	O.3	1	UNK0	0.000	
17	   C	0.313	-2.359	-0.649	C.2	1	UNK0	0.000	
18	   C	-0.033	-2.433	-1.965	C.2	1	UNK0	0.000	
19	   C	0.740	-3.166	-2.880	C.2	1	UNK0	0.000	
20	   C	1.866	-3.827	-2.464	C.2	1	UNK0	0.000	
21	   C	2.227	-3.761	-1.134	C.2	1	UNK0	0.000	
22	   C	1.462	-3.039	-0.240	C.2	1	UNK0	0.000	
23	   H	-4.535	-0.223	-1.364	 H	1	UNK0	0.000	
24	   H	-3.987	0.974	-0.067	 H	1	UNK0	0.000	
25	   H	-3.283	-1.934	-0.569	 H	1	UNK0	0.000	
26	   H	-3.309	-1.074	1.054	 H	1	UNK0	0.000	
27	   H	0.267	0.018	1.690	 H	1	UNK0	0.000	
28	   H	1.597	-0.688	0.605	 H	1	UNK0	0.000	
29	   H	-0.516	2.290	-2.265	 H	1	UNK0	0.000	
30	   H	0.906	4.129	-3.126	 H	1	UNK0	0.000	
31	   H	3.977	2.966	-0.491	 H	1	UNK0	0.000	
32	   H	2.575	1.140	0.373	 H	1	UNK0	0.000	
33	   H	-1.433	-2.950	1.305	 H	1	UNK0	0.000	
34	   H	-0.910	-1.920	-2.283	 H	1	UNK0	0.000	
35	   H	0.452	-3.213	-3.927	 H	1	UNK0	0.000	
36	   H	2.446	-4.387	-3.208	 H	1	UNK0	0.000	
37	   H	3.129	-4.295	-0.826	 H	1	UNK0	0.000	
38	   H	1.797	-3.026	0.790	 H	1	UNK0	0.000	
@<TRIPOS>BOND
1 1 2 1
2 1 8 1
3 2 3 1
4 3 4 1
5 4 5 1
6 4 8 1
7 5 6 1
8 5 16 1
9 5 17 1
10 6 7 1
11 7 8 2
12 7 9 1
13 9 10 2
14 9 14 1
15 10 11 1
16 11 12 2
17 12 13 1
18 12 15 1
19 13 14 2
20 17 18 2
21 17 22 1
22 18 19 1
23 19 20 2
24 20 21 1
25 21 22 2
26 2 23 1
27 2 24 1
28 3 25 1
29 3 26 1
30 6 27 1
31 6 28 1
32 10 29 1
33 11 30 1
34 13 31 1
35 14 32 1
36 16 33 1
37 18 34 1
38 19 35 1
39 20 36 1
40 21 37 1
41 22 38 1
@<TRIPOS>SUBSTRUCTURE
1	UNK0	1	GROUP	1 ****	UNK
