# created with PyMOL 2.3.2
@<TRIPOS>MOLECULE
1235
38 41 1                 
SMALL
USER_CHARGES
@<TRIPOS>ATOM
1	   S	2.402	0.609	-2.408	S.3	1	UNK0	0.000	
2	   C	2.980	-0.929	-3.179	C.3	1	UNK0	0.000	
3	   C	1.776	-1.794	-3.150	C.3	1	UNK0	0.000	
4	   N	0.767	-1.338	-2.273	N.pl3	1	UNK0	0.000	
5	   C	-0.298	-1.769	-1.417	C.3	1	UNK0	0.000	
6	   C	-1.352	-0.651	-1.890	C.3	1	UNK0	0.000	
7	   N	-0.450	0.472	-1.756	N.pl3	1	UNK0	0.000	
8	   C	0.707	0.105	-2.145	C.2	1	UNK0	0.000	
9	   C	-0.775	1.740	-1.167	C.2	1	UNK0	0.000	
10	   C	0.162	2.738	-1.041	C.2	1	UNK0	0.000	
11	   C	-0.106	3.929	-0.406	C.2	1	UNK0	0.000	
12	   C	-1.337	4.165	0.130	C.2	1	UNK0	0.000	
13	   C	-2.289	3.171	0.007	C.2	1	UNK0	0.000	
14	   C	-2.018	1.967	-0.634	C.2	1	UNK0	0.000	
15	   O	-0.868	-2.966	-1.719	O.3	1	UNK0	0.000	
16	   C	-0.248	-1.500	0.013	C.2	1	UNK0	0.000	
17	   C	0.445	-0.536	0.667	C.2	1	UNK0	0.000	
18	   C	0.317	-0.285	2.045	C.2	1	UNK0	0.000	
19	   C	-0.541	-1.034	2.809	C.2	1	UNK0	0.000	
20	   C	-1.254	-2.030	2.158	C.2	1	UNK0	0.000	
21	   C	-1.125	-2.265	0.817	C.2	1	UNK0	0.000	
22	  Br	-0.780	-0.708	4.690	Br	1	UNK0	0.000	
23	   H	3.846	-1.266	-2.582	 H	1	UNK0	0.000	
24	   H	3.260	-0.731	-4.247	 H	1	UNK0	0.000	
25	   H	1.335	-1.859	-4.180	 H	1	UNK0	0.000	
26	   H	2.128	-2.805	-2.834	 H	1	UNK0	0.000	
27	   H	-1.523	-0.945	-2.911	 H	1	UNK0	0.000	
28	   H	-2.184	-0.684	-1.214	 H	1	UNK0	0.000	
29	   H	1.161	2.552	-1.482	 H	1	UNK0	0.000	
30	   H	0.733	4.646	-0.362	 H	1	UNK0	0.000	
31	   H	-1.530	5.115	0.636	 H	1	UNK0	0.000	
32	   H	-3.277	3.328	0.413	 H	1	UNK0	0.000	
33	   H	-2.826	1.245	-0.688	 H	1	UNK0	0.000	
34	   H	-0.129	-3.651	-1.586	 H	1	UNK0	0.000	
35	   H	1.153	0.086	0.136	 H	1	UNK0	0.000	
36	   H	0.882	0.506	2.506	 H	1	UNK0	0.000	
37	   H	-1.934	-2.612	2.801	 H	1	UNK0	0.000	
38	   H	-1.686	-3.056	0.332	 H	1	UNK0	0.000	
@<TRIPOS>BOND
1 1 2 1
2 1 8 1
3 2 3 1
4 3 4 1
5 4 5 1
6 4 8 1
7 5 6 1
8 5 15 1
9 5 16 1
10 6 7 1
11 7 8 2
12 7 9 1
13 9 10 2
14 9 14 1
15 10 11 1
16 11 12 2
17 12 13 1
18 13 14 2
19 16 17 2
20 16 21 1
21 17 18 1
22 18 19 2
23 19 20 1
24 19 22 1
25 20 21 2
26 2 23 1
27 2 24 1
28 3 25 1
29 3 26 1
30 6 27 1
31 6 28 1
32 10 29 1
33 11 30 1
34 12 31 1
35 13 32 1
36 14 33 1
37 15 34 1
38 17 35 1
39 18 36 1
40 20 37 1
41 21 38 1
@<TRIPOS>SUBSTRUCTURE
1	UNK0	1	GROUP	1 ****	UNK
