# created with PyMOL 2.3.2
@<TRIPOS>MOLECULE
1236
45 49 1                 
SMALL
USER_CHARGES
@<TRIPOS>ATOM
1	   S	5.602	0.680	0.329	S.3	1	UNK0	0.000	
2	   C	5.787	-0.103	2.002	C.3	1	UNK0	0.000	
3	   C	4.319	-0.184	2.334	C.3	1	UNK0	0.000	
4	   N	3.570	-0.605	1.184	N.pl3	1	UNK0	0.000	
5	   C	4.099	-0.194	-0.057	C.2	1	UNK0	0.000	
6	   N	3.520	-0.482	-1.144	N.2	1	UNK0	0.000	
7	   C	2.281	-1.216	-1.196	C.2	1	UNK0	0.000	
8	   O	1.904	-1.852	-2.211	O.2	1	UNK0	0.000	
9	   C	1.431	-1.201	0.026	C.3	1	UNK0	0.000	
10	   C	2.339	-1.374	1.183	C.2	1	UNK0	0.000	
11	   O	2.124	-2.134	2.158	O.2	1	UNK0	0.000	
12	   C	0.701	0.096	0.045	C.3	1	UNK0	0.000	
13	   C	-0.212	0.266	1.234	C.3	1	UNK0	0.000	
14	   C	-1.270	-0.752	1.337	C.2	1	UNK0	0.000	
15	   O	-0.985	-1.928	1.757	O.2	1	UNK0	0.000	
16	   N	-2.633	-0.430	0.963	N.pl3	1	UNK0	0.000	
17	   C	-3.714	-1.359	0.783	C.3	1	UNK0	0.000	
18	   C	-4.685	-0.854	-0.255	C.3	1	UNK0	0.000	
19	   S	-4.702	0.916	0.296	S.3	1	UNK0	0.000	
20	   C	-2.975	0.927	0.772	C.2	1	UNK0	0.000	
21	   N	-2.138	1.880	0.917	N.2	1	UNK0	0.000	
22	   C	-0.771	1.640	1.287	C.2	1	UNK0	0.000	
23	   O	-0.080	2.624	1.652	O.2	1	UNK0	0.000	
24	   C	-0.015	0.266	-1.239	C.2	1	UNK0	0.000	
25	   C	0.213	1.378	-2.040	C.2	1	UNK0	0.000	
26	   C	-0.446	1.545	-3.240	C.2	1	UNK0	0.000	
27	   C	-1.352	0.603	-3.674	C.2	1	UNK0	0.000	
28	   C	-1.574	-0.486	-2.887	C.2	1	UNK0	0.000	
29	   C	-0.923	-0.667	-1.684	C.2	1	UNK0	0.000	
30	  Br	-0.139	3.069	-4.347	Br	1	UNK0	0.000	
31	   H	6.215	-1.101	1.902	 H	1	UNK0	0.000	
32	   H	6.293	0.577	2.680	 H	1	UNK0	0.000	
33	   H	4.206	-0.920	3.154	 H	1	UNK0	0.000	
34	   H	4.005	0.839	2.652	 H	1	UNK0	0.000	
35	   H	0.689	-2.040	-0.005	 H	1	UNK0	0.000	
36	   H	1.462	0.922	0.132	 H	1	UNK0	0.000	
37	   H	0.405	0.187	2.182	 H	1	UNK0	0.000	
38	   H	-4.313	-1.499	1.712	 H	1	UNK0	0.000	
39	   H	-3.335	-2.326	0.392	 H	1	UNK0	0.000	
40	   H	-4.301	-0.922	-1.284	 H	1	UNK0	0.000	
41	   H	-5.662	-1.305	-0.098	 H	1	UNK0	0.000	
42	   H	0.918	2.125	-1.716	 H	1	UNK0	0.000	
43	   H	-1.884	0.723	-4.628	 H	1	UNK0	0.000	
44	   H	-2.291	-1.254	-3.206	 H	1	UNK0	0.000	
45	   H	-1.149	-1.574	-1.098	 H	1	UNK0	0.000	
@<TRIPOS>BOND
1 1 2 1
2 1 5 1
3 2 3 1
4 3 4 1
5 4 5 1
6 4 10 1
7 5 6 2
8 6 7 1
9 7 8 2
10 7 9 1
11 9 10 1
12 9 12 1
13 10 11 2
14 12 13 1
15 12 24 1
16 13 14 1
17 13 22 1
18 14 15 2
19 14 16 1
20 16 17 1
21 16 20 1
22 17 18 1
23 18 19 1
24 19 20 1
25 20 21 2
26 21 22 1
27 22 23 2
28 24 25 2
29 24 29 1
30 25 26 1
31 26 27 2
32 26 30 1
33 27 28 1
34 28 29 2
35 2 31 1
36 2 32 1
37 3 33 1
38 3 34 1
39 9 35 1
40 12 36 1
41 13 37 1
42 17 38 1
43 17 39 1
44 18 40 1
45 18 41 1
46 25 42 1
47 27 43 1
48 28 44 1
49 29 45 1
@<TRIPOS>SUBSTRUCTURE
1	UNK0	1	GROUP	1 ****	UNK
