# created with PyMOL 2.3.2
@<TRIPOS>MOLECULE
1237
45 49 1                 
SMALL
USER_CHARGES
@<TRIPOS>ATOM
1	   S	-4.114	-2.332	1.158	S.3	1	UNK0	0.000	
2	   C	-3.064	-2.704	2.630	C.3	1	UNK0	0.000	
3	   C	-3.058	-1.346	3.258	C.3	1	UNK0	0.000	
4	   N	-3.008	-0.319	2.287	N.pl3	1	UNK0	0.000	
5	   C	-3.575	-0.607	1.028	C.2	1	UNK0	0.000	
6	   N	-3.623	0.231	0.042	N.2	1	UNK0	0.000	
7	   C	-3.115	1.585	0.197	C.2	1	UNK0	0.000	
8	   O	-3.658	2.405	-0.583	O.2	1	UNK0	0.000	
9	   C	-2.100	1.793	1.191	C.3	1	UNK0	0.000	
10	   C	-2.457	1.010	2.433	C.2	1	UNK0	0.000	
11	   O	-2.285	1.490	3.568	O.2	1	UNK0	0.000	
12	   C	-0.661	1.706	0.901	C.3	1	UNK0	0.000	
13	   C	-0.004	2.610	-0.052	C.3	1	UNK0	0.000	
14	   C	1.478	2.237	-0.085	C.2	1	UNK0	0.000	
15	   O	2.237	2.618	0.835	O.2	1	UNK0	0.000	
16	   N	2.002	1.445	-1.176	N.pl3	1	UNK0	0.000	
17	   C	3.234	0.736	-1.216	C.3	1	UNK0	0.000	
18	   C	3.143	-0.475	-2.111	C.3	1	UNK0	0.000	
19	   S	2.130	0.307	-3.454	S.3	1	UNK0	0.000	
20	   C	1.218	1.374	-2.353	C.2	1	UNK0	0.000	
21	   N	0.098	1.963	-2.502	N.2	1	UNK0	0.000	
22	   C	-0.441	2.771	-1.413	C.2	1	UNK0	0.000	
23	   O	-1.297	3.607	-1.754	O.2	1	UNK0	0.000	
24	   C	-0.177	0.275	0.806	C.2	1	UNK0	0.000	
25	   C	-0.504	-0.512	-0.272	C.2	1	UNK0	0.000	
26	   C	-0.051	-1.806	-0.320	C.2	1	UNK0	0.000	
27	   C	0.716	-2.358	0.657	C.2	1	UNK0	0.000	
28	   C	1.059	-1.597	1.747	C.2	1	UNK0	0.000	
29	   C	0.598	-0.281	1.796	C.2	1	UNK0	0.000	
30	  Br	1.345	-4.169	0.581	Br	1	UNK0	0.000	
31	   H	-3.643	-3.416	3.250	 H	1	UNK0	0.000	
32	   H	-2.082	-3.071	2.328	 H	1	UNK0	0.000	
33	   H	-3.944	-1.248	3.939	 H	1	UNK0	0.000	
34	   H	-2.139	-1.309	3.895	 H	1	UNK0	0.000	
35	   H	-2.260	2.879	1.559	 H	1	UNK0	0.000	
36	   H	-0.187	2.018	1.927	 H	1	UNK0	0.000	
37	   H	0.065	3.659	0.430	 H	1	UNK0	0.000	
38	   H	4.073	1.381	-1.584	 H	1	UNK0	0.000	
39	   H	3.475	0.343	-0.205	 H	1	UNK0	0.000	
40	   H	2.554	-1.281	-1.675	 H	1	UNK0	0.000	
41	   H	4.121	-0.755	-2.491	 H	1	UNK0	0.000	
42	   H	-1.121	-0.098	-1.085	 H	1	UNK0	0.000	
43	   H	-0.316	-2.417	-1.175	 H	1	UNK0	0.000	
44	   H	1.674	-2.012	2.547	 H	1	UNK0	0.000	
45	   H	0.891	0.290	2.675	 H	1	UNK0	0.000	
@<TRIPOS>BOND
1 1 2 1
2 1 5 1
3 2 3 1
4 3 4 1
5 4 5 1
6 4 10 1
7 5 6 2
8 6 7 1
9 7 8 2
10 7 9 1
11 9 10 1
12 9 12 1
13 10 11 2
14 12 13 1
15 12 24 1
16 13 14 1
17 13 22 1
18 14 15 2
19 14 16 1
20 16 17 1
21 16 20 1
22 17 18 1
23 18 19 1
24 19 20 1
25 20 21 2
26 21 22 1
27 22 23 2
28 24 25 2
29 24 29 1
30 25 26 1
31 26 27 2
32 27 28 1
33 27 30 1
34 28 29 2
35 2 31 1
36 2 32 1
37 3 33 1
38 3 34 1
39 9 35 1
40 12 36 1
41 13 37 1
42 17 38 1
43 17 39 1
44 18 40 1
45 18 41 1
46 25 42 1
47 26 43 1
48 28 44 1
49 29 45 1
@<TRIPOS>SUBSTRUCTURE
1	UNK0	1	GROUP	1 ****	UNK
