# created with PyMOL 2.3.2
@<TRIPOS>MOLECULE
1238
42 45 1                 
SMALL
USER_CHARGES
@<TRIPOS>ATOM
1	   S	3.038	-0.100	-2.575	S.3	1	UNK0	0.000	
2	   C	2.892	1.714	-2.852	C.3	1	UNK0	0.000	
3	   N	1.825	2.004	-1.914	N.pl3	1	UNK0	0.000	
4	   C	0.810	1.014	-2.128	C.3	1	UNK0	0.000	
5	   C	1.480	-0.263	-1.599	C.3	1	UNK0	0.000	
6	   C	-0.453	1.298	-1.427	C.2	1	UNK0	0.000	
7	   O	-0.652	2.287	-0.714	O.co2	1	UNK0	0.000	
8	   O	-1.482	0.381	-1.588	O.3	1	UNK0	0.000	
9	   C	-2.747	0.466	-1.013	C.3	1	UNK0	0.000	
10	   C	-2.589	0.477	0.467	C.2	1	UNK0	0.000	
11	   C	-2.547	-0.686	1.207	C.2	1	UNK0	0.000	
12	   C	-2.400	-0.572	2.573	C.2	1	UNK0	0.000	
13	   O	-2.361	-1.634	3.251	O.2	1	UNK0	0.000	
14	   N	-2.296	0.609	3.214	N.pl3	1	UNK0	0.000	
15	   C	-2.343	1.713	2.451	C.2	1	UNK0	0.000	
16	   N	-2.485	1.642	1.120	N.2	1	UNK0	0.000	
17	   C	-2.237	2.938	3.111	C.2	1	UNK0	0.000	
18	   C	-2.090	3.036	4.479	C.2	1	UNK0	0.000	
19	   C	-2.048	1.872	5.213	C.2	1	UNK0	0.000	
20	   C	-2.152	0.661	4.568	C.2	1	UNK0	0.000	
21	  Br	-1.846	1.923	7.116	Br	1	UNK0	0.000	
22	   C	2.151	3.133	-1.133	C.2	1	UNK0	0.000	
23	   O	1.487	3.756	-0.265	O.2	1	UNK0	0.000	
24	   C	3.534	3.549	-1.500	C.3	1	UNK0	0.000	
25	   C	4.105	2.450	-2.365	C.3	1	UNK0	0.000	
26	   C	2.496	2.031	-4.248	C.3	1	UNK0	0.000	
27	   H	0.687	0.865	-3.213	 H	1	UNK0	0.000	
28	   H	0.934	-1.158	-1.882	 H	1	UNK0	0.000	
29	   H	1.719	-0.175	-0.525	 H	1	UNK0	0.000	
30	   H	-3.297	-0.464	-1.264	 H	1	UNK0	0.000	
31	   H	-3.356	1.308	-1.380	 H	1	UNK0	0.000	
32	   H	-2.630	-1.623	0.682	 H	1	UNK0	0.000	
33	   H	-2.276	3.817	2.480	 H	1	UNK0	0.000	
34	   H	-2.008	3.990	4.979	 H	1	UNK0	0.000	
35	   H	-2.127	-0.289	5.085	 H	1	UNK0	0.000	
36	   H	4.193	3.651	-0.613	 H	1	UNK0	0.000	
37	   H	3.545	4.481	-2.106	 H	1	UNK0	0.000	
38	   H	4.750	1.751	-1.823	 H	1	UNK0	0.000	
39	   H	4.666	2.833	-3.236	 H	1	UNK0	0.000	
40	   H	2.264	1.146	-4.868	 H	1	UNK0	0.000	
41	   H	3.267	2.674	-4.754	 H	1	UNK0	0.000	
42	   H	1.574	2.663	-4.218	 H	1	UNK0	0.000	
@<TRIPOS>BOND
1 1 2 1
2 1 5 1
3 2 3 1
4 2 25 1
5 2 26 1
6 3 4 1
7 3 22 1
8 4 5 1
9 4 6 1
10 6 7 2
11 6 8 1
12 8 9 1
13 9 10 1
14 10 11 2
15 10 16 1
16 11 12 1
17 12 13 2
18 12 14 1
19 14 15 1
20 14 20 1
21 15 16 2
22 15 17 1
23 17 18 2
24 18 19 1
25 19 20 2
26 19 21 1
27 22 23 2
28 22 24 1
29 24 25 1
30 4 27 1
31 5 28 1
32 5 29 1
33 9 30 1
34 9 31 1
35 11 32 1
36 17 33 1
37 18 34 1
38 20 35 1
39 24 36 1
40 24 37 1
41 25 38 1
42 25 39 1
43 26 40 1
44 26 41 1
45 26 42 1
@<TRIPOS>SUBSTRUCTURE
1	UNK0	1	GROUP	1 ****	UNK
