# created with PyMOL 2.3.2
@<TRIPOS>MOLECULE
1239
36 40 1                 
SMALL
USER_CHARGES
@<TRIPOS>ATOM
1	   S	1.262	-0.488	5.614	S.3	1	UNK0	0.000	
2	   C	0.879	0.118	4.061	C.2	1	UNK0	0.000	
3	   N	1.021	1.417	4.192	N.pl3	1	UNK0	0.000	
4	   C	0.718	1.927	2.958	C.2	1	UNK0	0.000	
5	   C	0.391	0.898	2.079	C.2	1	UNK0	0.000	
6	   N	0.498	-0.229	2.793	N.2	1	UNK0	0.000	
7	   C	0.005	1.034	0.654	C.3	1	UNK0	0.000	
8	   N	-0.278	-0.223	0.004	N.4	1	UNK0	0.000	
9	   C	0.863	-1.088	-0.047	C.3	1	UNK0	0.000	
10	   N	0.576	-2.253	-0.873	N.3	1	UNK0	0.000	
11	   C	-0.513	-2.955	-0.215	C.3	1	UNK0	0.000	
12	   N	-1.674	-2.114	-0.190	N.3	1	UNK0	0.000	
13	   C	-1.398	-0.913	0.574	C.3	1	UNK0	0.000	
14	   C	-1.997	-1.784	-1.578	C.3	1	UNK0	0.000	
15	   N	-0.941	-1.016	-2.172	N.3	1	UNK0	0.000	
16	   C	-0.657	0.132	-1.383	C.3	1	UNK0	0.000	
17	   C	0.256	-1.845	-2.206	C.3	1	UNK0	0.000	
18	  Br	0.709	3.754	2.392	Br	1	UNK0	0.000	
19	   C	1.387	1.898	5.369	C.2	1	UNK0	0.000	
20	   C	1.595	0.998	6.380	C.2	1	UNK0	0.000	
21	   H	0.788	1.595	0.108	 H	1	UNK0	0.000	
22	   H	-0.947	1.629	0.613	 H	1	UNK0	0.000	
23	   H	1.738	-0.554	-0.506	 H	1	UNK0	0.000	
24	   H	1.114	-1.488	0.942	 H	1	UNK0	0.000	
25	   H	-0.702	-3.927	-0.681	 H	1	UNK0	0.000	
26	   H	-0.183	-3.111	0.842	 H	1	UNK0	0.000	
27	   H	-1.232	-1.233	1.605	 H	1	UNK0	0.000	
28	   H	-2.309	-0.251	0.488	 H	1	UNK0	0.000	
29	   H	-2.992	-1.342	-1.678	 H	1	UNK0	0.000	
30	   H	-2.023	-2.770	-2.121	 H	1	UNK0	0.000	
31	   H	0.160	0.744	-1.811	 H	1	UNK0	0.000	
32	   H	-1.610	0.713	-1.272	 H	1	UNK0	0.000	
33	   H	0.153	-2.715	-2.878	 H	1	UNK0	0.000	
34	   H	1.078	-1.187	-2.561	 H	1	UNK0	0.000	
35	   H	1.542	2.980	5.611	 H	1	UNK0	0.000	
36	   H	1.903	1.216	7.420	 H	1	UNK0	0.000	
@<TRIPOS>BOND
1 1 2 1
2 1 20 1
3 2 3 1
4 2 6 2
5 3 4 1
6 3 19 1
7 4 5 2
8 4 18 1
9 5 6 1
10 5 7 1
11 7 8 1
12 8 9 1
13 8 13 1
14 8 16 1
15 9 10 1
16 10 11 1
17 10 17 1
18 11 12 1
19 12 13 1
20 12 14 1
21 14 15 1
22 15 16 1
23 15 17 1
24 19 20 2
25 7 21 1
26 7 22 1
27 9 23 1
28 9 24 1
29 11 25 1
30 11 26 1
31 13 27 1
32 13 28 1
33 14 29 1
34 14 30 1
35 16 31 1
36 16 32 1
37 17 33 1
38 17 34 1
39 19 35 1
40 20 36 1
@<TRIPOS>SUBSTRUCTURE
1	UNK0	1	GROUP	1 ****	UNK
