# created with PyMOL 2.3.2
@<TRIPOS>MOLECULE
1240
33 36 1                 
SMALL
USER_CHARGES
@<TRIPOS>ATOM
1	   S	2.625	0.281	0.391	S.3	1	UNK0	0.000	
2	   C	1.672	1.567	-0.194	C.2	1	UNK0	0.000	
3	   N	0.521	0.953	-0.506	N.pl3	1	UNK0	0.000	
4	   C	-0.301	1.934	-0.989	C.2	1	UNK0	0.000	
5	   N	0.425	3.099	-0.934	N.2	1	UNK0	0.000	
6	   N	1.614	2.908	-0.461	N.2	1	UNK0	0.000	
7	   C	-1.665	1.920	-1.493	C.2	1	UNK0	0.000	
8	   C	-2.601	0.935	-1.613	C.2	1	UNK0	0.000	
9	   N	-3.762	1.424	-2.151	N.pl3	1	UNK0	0.000	
10	   N	-3.560	2.695	-2.365	N.2	1	UNK0	0.000	
11	   C	-2.327	3.060	-1.995	C.2	1	UNK0	0.000	
12	   C	-4.970	0.634	-2.416	C.3	1	UNK0	0.000	
13	   C	-2.411	-0.468	-1.221	C.3	1	UNK0	0.000	
14	   N	0.465	-0.314	-0.296	N.2	1	UNK0	0.000	
15	   C	1.454	-0.991	0.192	C.2	1	UNK0	0.000	
16	   C	1.686	-2.415	0.537	C.2	1	UNK0	0.000	
17	   N	2.840	-2.895	1.065	N.pl3	1	UNK0	0.000	
18	   N	2.707	-4.188	1.250	N.2	1	UNK0	0.000	
19	   C	1.498	-4.602	0.864	C.2	1	UNK0	0.000	
20	   C	0.840	-3.471	0.407	C.2	1	UNK0	0.000	
21	  Br	-0.944	-3.473	-0.275	Br	1	UNK0	0.000	
22	   C	4.014	-2.088	1.366	C.3	1	UNK0	0.000	
23	   H	-1.917	4.049	-2.069	 H	1	UNK0	0.000	
24	   H	-5.552	1.226	-3.155	 H	1	UNK0	0.000	
25	   H	-5.569	0.505	-1.493	 H	1	UNK0	0.000	
26	   H	-4.699	-0.362	-2.825	 H	1	UNK0	0.000	
27	   H	-3.364	-1.048	-1.443	 H	1	UNK0	0.000	
28	   H	-1.671	-0.922	-1.878	 H	1	UNK0	0.000	
29	   H	-2.248	-0.524	-0.146	 H	1	UNK0	0.000	
30	   H	1.090	-5.593	0.890	 H	1	UNK0	0.000	
31	   H	4.806	-2.749	1.774	 H	1	UNK0	0.000	
32	   H	3.817	-1.324	2.141	 H	1	UNK0	0.000	
33	   H	4.393	-1.604	0.450	 H	1	UNK0	0.000	
@<TRIPOS>BOND
1 1 2 1
2 1 15 1
3 2 3 1
4 2 6 2
5 3 4 1
6 3 14 1
7 4 5 2
8 4 7 1
9 5 6 1
10 7 8 2
11 7 11 1
12 8 9 1
13 8 13 1
14 9 10 1
15 9 12 1
16 10 11 2
17 14 15 2
18 15 16 1
19 16 17 1
20 16 20 2
21 17 18 1
22 17 22 1
23 18 19 2
24 19 20 1
25 20 21 1
26 11 23 1
27 12 24 1
28 12 25 1
29 12 26 1
30 13 27 1
31 13 28 1
32 13 29 1
33 19 30 1
34 22 31 1
35 22 32 1
36 22 33 1
@<TRIPOS>SUBSTRUCTURE
1	UNK0	1	GROUP	1 ****	UNK
