# created with PyMOL 2.3.2
@<TRIPOS>MOLECULE
1241
30 33 1                 
SMALL
USER_CHARGES
@<TRIPOS>ATOM
1	   S	1.829	-1.083	2.930	S.3	1	UNK0	0.000	
2	   C	0.903	0.351	3.046	C.2	1	UNK0	0.000	
3	   N	0.227	0.324	1.894	N.pl3	1	UNK0	0.000	
4	   C	-0.554	1.457	1.903	C.2	1	UNK0	0.000	
5	   N	-0.309	2.104	3.052	N.2	1	UNK0	0.000	
6	   N	0.573	1.464	3.780	N.2	1	UNK0	0.000	
7	   C	-1.485	1.900	0.870	C.2	1	UNK0	0.000	
8	   C	-1.773	1.273	-0.328	C.2	1	UNK0	0.000	
9	   N	-2.685	1.991	-1.012	N.pl3	1	UNK0	0.000	
10	   N	-2.981	3.053	-0.283	N.2	1	UNK0	0.000	
11	   C	-2.270	3.033	0.873	C.2	1	UNK0	0.000	
12	   C	-3.276	1.707	-2.318	C.3	1	UNK0	0.000	
13	   N	0.426	-0.656	1.096	N.2	1	UNK0	0.000	
14	   C	1.261	-1.612	1.382	C.2	1	UNK0	0.000	
15	   C	1.653	-2.819	0.642	C.2	1	UNK0	0.000	
16	   N	1.190	-3.176	-0.534	N.pl3	1	UNK0	0.000	
17	   N	1.764	-4.329	-0.910	N.2	1	UNK0	0.000	
18	   C	2.634	-4.746	0.052	C.2	1	UNK0	0.000	
19	   C	2.552	-3.776	1.031	C.2	1	UNK0	0.000	
20	  Br	3.549	-3.805	2.650	Br	1	UNK0	0.000	
21	   C	0.213	-2.480	-1.352	C.3	1	UNK0	0.000	
22	   H	-1.334	0.345	-0.667	 H	1	UNK0	0.000	
23	   H	-2.279	3.751	1.684	 H	1	UNK0	0.000	
24	   H	-4.273	1.237	-2.099	 H	1	UNK0	0.000	
25	   H	-2.673	0.949	-2.838	 H	1	UNK0	0.000	
26	   H	-3.415	2.643	-2.892	 H	1	UNK0	0.000	
27	   H	3.234	-5.640	0.018	 H	1	UNK0	0.000	
28	   H	0.190	-2.885	-2.390	 H	1	UNK0	0.000	
29	   H	-0.823	-2.624	-0.941	 H	1	UNK0	0.000	
30	   H	0.484	-1.416	-1.443	 H	1	UNK0	0.000	
@<TRIPOS>BOND
1 1 2 1
2 1 14 1
3 2 3 1
4 2 6 2
5 3 4 1
6 3 13 1
7 4 5 2
8 4 7 1
9 5 6 1
10 7 8 2
11 7 11 1
12 8 9 1
13 9 10 1
14 9 12 1
15 10 11 2
16 13 14 2
17 14 15 1
18 15 16 1
19 15 19 2
20 16 17 1
21 16 21 1
22 17 18 2
23 18 19 1
24 19 20 1
25 8 22 1
26 11 23 1
27 12 24 1
28 12 25 1
29 12 26 1
30 18 27 1
31 21 28 1
32 21 29 1
33 21 30 1
@<TRIPOS>SUBSTRUCTURE
1	UNK0	1	GROUP	1 ****	UNK
