# created with PyMOL 2.3.2
@<TRIPOS>MOLECULE
1246
28 31 1                 
SMALL
USER_CHARGES
@<TRIPOS>ATOM
1	   S	1.488	-1.251	-3.180	S.3	1	UNK0	0.000	
2	   C	-0.153	-0.785	-3.008	C.2	1	UNK0	0.000	
3	   N	-0.153	-0.259	-1.785	N.pl3	1	UNK0	0.000	
4	   C	-1.446	0.142	-1.569	C.2	1	UNK0	0.000	
5	   N	-2.177	-0.147	-2.648	N.2	1	UNK0	0.000	
6	   N	-1.411	-0.714	-3.539	N.2	1	UNK0	0.000	
7	   C	-1.996	0.786	-0.376	C.2	1	UNK0	0.000	
8	   N	-1.182	1.033	0.650	N.2	1	UNK0	0.000	
9	   C	-1.602	1.625	1.793	C.2	1	UNK0	0.000	
10	   C	-2.929	1.987	1.898	C.2	1	UNK0	0.000	
11	   N	-3.746	1.734	0.855	N.2	1	UNK0	0.000	
12	   C	-3.319	1.143	-0.282	C.2	1	UNK0	0.000	
13	   N	0.946	-0.239	-1.129	N.2	1	UNK0	0.000	
14	   C	2.049	-0.719	-1.632	C.2	1	UNK0	0.000	
15	   C	3.410	-0.806	-1.081	C.2	1	UNK0	0.000	
16	   N	3.826	-0.399	0.097	N.pl3	1	UNK0	0.000	
17	   N	5.137	-0.653	0.234	N.2	1	UNK0	0.000	
18	   C	5.613	-1.249	-0.888	C.2	1	UNK0	0.000	
19	   C	4.496	-1.344	-1.729	C.2	1	UNK0	0.000	
20	  Br	4.480	-2.091	-3.475	Br	1	UNK0	0.000	
21	   C	3.018	0.233	1.118	C.3	1	UNK0	0.000	
22	   H	-0.931	1.824	2.627	 H	1	UNK0	0.000	
23	   H	-3.331	2.467	2.790	 H	1	UNK0	0.000	
24	   H	-4.000	0.947	-1.115	 H	1	UNK0	0.000	
25	   H	6.618	-1.583	-1.109	 H	1	UNK0	0.000	
26	   H	2.391	-0.576	1.594	 H	1	UNK0	0.000	
27	   H	2.370	1.037	0.715	 H	1	UNK0	0.000	
28	   H	3.637	0.708	1.914	 H	1	UNK0	0.000	
@<TRIPOS>BOND
1 1 2 1
2 1 14 1
3 2 3 1
4 2 6 2
5 3 4 1
6 3 13 1
7 4 5 2
8 4 7 1
9 5 6 1
10 7 8 2
11 7 12 1
12 8 9 1
13 9 10 2
14 10 11 1
15 11 12 2
16 13 14 2
17 14 15 1
18 15 16 1
19 15 19 2
20 16 17 1
21 16 21 1
22 17 18 2
23 18 19 1
24 19 20 1
25 9 22 1
26 10 23 1
27 12 24 1
28 18 25 1
29 21 26 1
30 21 27 1
31 21 28 1
@<TRIPOS>SUBSTRUCTURE
1	UNK0	1	GROUP	1 ****	UNK
