# created with PyMOL 2.3.2
@<TRIPOS>MOLECULE
1247
28 31 1                 
SMALL
USER_CHARGES
@<TRIPOS>ATOM
1	   S	-0.002	2.073	-2.243	S.3	1	UNK0	0.000	
2	   C	1.370	1.058	-2.020	C.2	1	UNK0	0.000	
3	   N	0.933	0.259	-1.046	N.pl3	1	UNK0	0.000	
4	   C	1.992	-0.586	-0.815	C.2	1	UNK0	0.000	
5	   N	3.006	-0.281	-1.634	N.2	1	UNK0	0.000	
6	   N	2.651	0.728	-2.387	N.2	1	UNK0	0.000	
7	   C	2.062	-1.672	0.160	C.2	1	UNK0	0.000	
8	   N	1.016	-1.940	0.960	N.2	1	UNK0	0.000	
9	   C	1.062	-2.947	1.874	C.2	1	UNK0	0.000	
10	   C	2.184	-3.733	2.017	C.2	1	UNK0	0.000	
11	   N	3.234	-3.458	1.207	N.2	1	UNK0	0.000	
12	   C	3.176	-2.461	0.309	C.2	1	UNK0	0.000	
13	   N	-0.239	0.428	-0.586	N.2	1	UNK0	0.000	
14	   C	-1.020	1.380	-1.062	C.2	1	UNK0	0.000	
15	   C	-2.384	1.736	-0.675	C.2	1	UNK0	0.000	
16	   N	-3.109	2.727	-1.217	N.2	1	UNK0	0.000	
17	   N	-4.307	2.780	-0.635	N.pl3	1	UNK0	0.000	
18	   C	-4.418	1.827	0.312	C.2	1	UNK0	0.000	
19	   C	-3.184	1.164	0.280	C.2	1	UNK0	0.000	
20	  Br	-2.720	-0.301	1.401	Br	1	UNK0	0.000	
21	   C	-5.557	1.505	1.211	C.3	1	UNK0	0.000	
22	   H	0.188	-3.121	2.498	 H	1	UNK0	0.000	
23	   H	2.223	-4.534	2.743	 H	1	UNK0	0.000	
24	   H	4.032	-2.274	-0.317	 H	1	UNK0	0.000	
25	   H	-5.091	3.442	-0.840	 H	1	UNK0	0.000	
26	   H	-6.287	0.827	0.762	 H	1	UNK0	0.000	
27	   H	-6.043	2.443	1.606	 H	1	UNK0	0.000	
28	   H	-5.163	0.998	2.132	 H	1	UNK0	0.000	
@<TRIPOS>BOND
1 1 2 1
2 1 14 1
3 2 3 1
4 2 6 2
5 3 4 1
6 3 13 1
7 4 5 2
8 4 7 1
9 5 6 1
10 7 8 2
11 7 12 1
12 8 9 1
13 9 10 2
14 10 11 1
15 11 12 2
16 13 14 2
17 14 15 1
18 15 16 2
19 15 19 1
20 16 17 1
21 17 18 1
22 18 19 2
23 18 21 1
24 19 20 1
25 9 22 1
26 10 23 1
27 12 24 1
28 17 25 1
29 21 26 1
30 21 27 1
31 21 28 1
@<TRIPOS>SUBSTRUCTURE
1	UNK0	1	GROUP	1 ****	UNK
