# created with PyMOL 2.3.2
@<TRIPOS>MOLECULE
1248
25 28 1                 
SMALL
USER_CHARGES
@<TRIPOS>ATOM
1	   S	-0.152	-2.824	-0.513	S.3	1	UNK0	0.000	
2	   C	-0.542	-1.514	0.527	C.2	1	UNK0	0.000	
3	   N	0.009	-0.492	-0.126	N.pl3	1	UNK0	0.000	
4	   C	-0.272	0.599	0.664	C.2	1	UNK0	0.000	
5	   N	-0.962	0.207	1.734	N.2	1	UNK0	0.000	
6	   N	-1.149	-1.096	1.684	N.2	1	UNK0	0.000	
7	   C	0.121	1.996	0.388	C.2	1	UNK0	0.000	
8	   N	0.819	2.317	-0.717	N.2	1	UNK0	0.000	
9	   C	1.173	3.599	-0.958	C.2	1	UNK0	0.000	
10	   C	0.825	4.589	-0.081	C.2	1	UNK0	0.000	
11	   N	0.132	4.256	1.009	N.2	1	UNK0	0.000	
12	   C	-0.234	2.983	1.275	C.2	1	UNK0	0.000	
13	   N	0.613	-0.712	-1.223	N.2	1	UNK0	0.000	
14	   C	0.700	-1.931	-1.718	C.2	1	UNK0	0.000	
15	   C	1.339	-2.410	-2.948	C.2	1	UNK0	0.000	
16	   N	1.385	-3.674	-3.386	N.2	1	UNK0	0.000	
17	   N	2.057	-3.714	-4.548	N.pl3	1	UNK0	0.000	
18	   C	2.449	-2.464	-4.865	C.2	1	UNK0	0.000	
19	   C	1.989	-1.632	-3.841	C.2	1	UNK0	0.000	
20	  Br	2.272	0.232	-3.796	Br	1	UNK0	0.000	
21	   H	1.725	3.809	-1.844	 H	1	UNK0	0.000	
22	   H	1.103	5.598	-0.272	 H	1	UNK0	0.000	
23	   H	-0.800	2.721	2.170	 H	1	UNK0	0.000	
24	   H	2.236	-4.583	-5.101	 H	1	UNK0	0.000	
25	   H	3.009	-2.217	-5.753	 H	1	UNK0	0.000	
@<TRIPOS>BOND
1 1 2 1
2 1 14 1
3 2 3 1
4 2 6 2
5 3 4 1
6 3 13 1
7 4 5 2
8 4 7 1
9 5 6 1
10 7 8 2
11 7 12 1
12 8 9 1
13 9 10 2
14 10 11 1
15 11 12 2
16 13 14 2
17 14 15 1
18 15 16 2
19 15 19 1
20 16 17 1
21 17 18 1
22 18 19 2
23 19 20 1
24 9 21 1
25 10 22 1
26 12 23 1
27 17 24 1
28 18 25 1
@<TRIPOS>SUBSTRUCTURE
1	UNK0	1	GROUP	1 ****	UNK
