# created with PyMOL 2.3.2
@<TRIPOS>MOLECULE
1249
28 31 1                 
SMALL
USER_CHARGES
@<TRIPOS>ATOM
1	   S	2.039	0.797	1.646	S.3	1	UNK0	0.000	
2	   C	2.314	1.538	0.125	C.2	1	UNK0	0.000	
3	   N	1.186	1.240	-0.516	N.pl3	1	UNK0	0.000	
4	   C	1.324	1.806	-1.765	C.2	1	UNK0	0.000	
5	   N	2.516	2.410	-1.814	N.2	1	UNK0	0.000	
6	   N	3.155	2.269	-0.674	N.2	1	UNK0	0.000	
7	   C	0.362	1.771	-2.863	C.2	1	UNK0	0.000	
8	   N	-0.824	1.149	-2.763	N.2	1	UNK0	0.000	
9	   C	-1.681	1.142	-3.799	C.2	1	UNK0	0.000	
10	   C	-1.387	1.763	-4.996	C.2	1	UNK0	0.000	
11	   N	-0.204	2.386	-5.102	N.2	1	UNK0	0.000	
12	   C	0.661	2.392	-4.053	C.2	1	UNK0	0.000	
13	   N	0.293	0.561	0.088	N.2	1	UNK0	0.000	
14	   C	0.465	0.153	1.326	C.2	1	UNK0	0.000	
15	   C	-0.407	-0.626	2.207	C.2	1	UNK0	0.000	
16	   N	-1.615	-1.084	1.871	N.pl3	1	UNK0	0.000	
17	   N	-2.104	-1.739	2.912	N.2	1	UNK0	0.000	
18	   C	-1.259	-1.739	3.952	C.2	1	UNK0	0.000	
19	   C	-0.154	-1.015	3.496	C.2	1	UNK0	0.000	
20	  Br	1.424	-0.635	4.483	Br	1	UNK0	0.000	
21	   C	-1.431	-2.359	5.297	C.3	1	UNK0	0.000	
22	   H	-2.657	0.635	-3.729	 H	1	UNK0	0.000	
23	   H	-2.107	1.741	-5.828	 H	1	UNK0	0.000	
24	   H	1.601	2.911	-4.200	 H	1	UNK0	0.000	
25	   H	-2.152	-0.990	0.974	 H	1	UNK0	0.000	
26	   H	-2.478	-2.723	5.357	 H	1	UNK0	0.000	
27	   H	-0.741	-3.212	5.409	 H	1	UNK0	0.000	
28	   H	-1.293	-1.583	6.069	 H	1	UNK0	0.000	
@<TRIPOS>BOND
1 1 2 1
2 1 14 1
3 2 3 1
4 2 6 2
5 3 4 1
6 3 13 1
7 4 5 2
8 4 7 1
9 5 6 1
10 7 8 2
11 7 12 1
12 8 9 1
13 9 10 2
14 10 11 1
15 11 12 2
16 13 14 2
17 14 15 1
18 15 16 1
19 15 19 2
20 16 17 1
21 17 18 2
22 18 19 1
23 18 21 1
24 19 20 1
25 9 22 1
26 10 23 1
27 12 24 1
28 16 25 1
29 21 26 1
30 21 27 1
31 21 28 1
@<TRIPOS>SUBSTRUCTURE
1	UNK0	1	GROUP	1 ****	UNK
