# created with PyMOL 2.3.2
@<TRIPOS>MOLECULE
1250
25 28 1                 
SMALL
USER_CHARGES
@<TRIPOS>ATOM
1	   S	0.939	-0.156	1.987	S.3	1	UNK0	0.000	
2	   C	1.508	-0.865	0.527	C.2	1	UNK0	0.000	
3	   N	0.516	-0.576	-0.309	N.pl3	1	UNK0	0.000	
4	   C	0.894	-1.117	-1.524	C.2	1	UNK0	0.000	
5	   N	2.098	-1.703	-1.348	N.2	1	UNK0	0.000	
6	   N	2.504	-1.569	-0.104	N.2	1	UNK0	0.000	
7	   C	0.141	-1.069	-2.771	C.2	1	UNK0	0.000	
8	   N	-1.049	-0.466	-2.865	N.2	1	UNK0	0.000	
9	   C	-1.732	-0.439	-4.051	C.2	1	UNK0	0.000	
10	   C	-1.202	-1.034	-5.174	C.2	1	UNK0	0.000	
11	   N	-0.017	-1.634	-5.084	N.2	1	UNK0	0.000	
12	   C	0.661	-1.659	-3.896	C.2	1	UNK0	0.000	
13	   N	-0.489	0.077	0.125	N.2	1	UNK0	0.000	
14	   C	-0.556	0.465	1.382	C.2	1	UNK0	0.000	
15	   C	-1.600	1.213	2.083	C.2	1	UNK0	0.000	
16	   N	-1.666	1.604	3.352	N.pl3	1	UNK0	0.000	
17	   N	-2.782	2.263	3.602	N.2	1	UNK0	0.000	
18	   C	-3.480	2.313	2.465	C.2	1	UNK0	0.000	
19	   C	-2.754	1.658	1.496	C.2	1	UNK0	0.000	
20	  Br	-3.239	1.401	-0.333	Br	1	UNK0	0.000	
21	   H	-2.695	0.047	-4.136	 H	1	UNK0	0.000	
22	   H	-1.784	-0.987	-6.102	 H	1	UNK0	0.000	
23	   H	1.619	-2.149	-3.837	 H	1	UNK0	0.000	
24	   H	-0.931	1.416	4.068	 H	1	UNK0	0.000	
25	   H	-4.435	2.772	2.303	 H	1	UNK0	0.000	
@<TRIPOS>BOND
1 1 2 1
2 1 14 1
3 2 3 1
4 2 6 2
5 3 4 1
6 3 13 1
7 4 5 2
8 4 7 1
9 5 6 1
10 7 8 2
11 7 12 1
12 8 9 1
13 9 10 2
14 10 11 1
15 11 12 2
16 13 14 2
17 14 15 1
18 15 16 1
19 15 19 2
20 16 17 1
21 17 18 2
22 18 19 1
23 19 20 1
24 9 21 1
25 10 22 1
26 12 23 1
27 16 24 1
28 18 25 1
@<TRIPOS>SUBSTRUCTURE
1	UNK0	1	GROUP	1 ****	UNK
