# created with PyMOL 2.3.2
@<TRIPOS>MOLECULE
1251
35 38 1                 
SMALL
USER_CHARGES
@<TRIPOS>ATOM
1	   S	1.214	2.346	-0.957	S.3	1	UNK0	0.000	
2	   C	2.897	2.233	-0.658	C.2	1	UNK0	0.000	
3	   N	3.105	0.926	-0.824	N.pl3	1	UNK0	0.000	
4	   C	4.444	0.754	-0.598	C.2	1	UNK0	0.000	
5	   N	4.998	1.936	-0.308	N.2	1	UNK0	0.000	
6	   N	4.067	2.872	-0.337	N.2	1	UNK0	0.000	
7	   N	2.115	0.179	-1.126	N.2	1	UNK0	0.000	
8	   C	0.909	0.693	-1.272	C.2	1	UNK0	0.000	
9	   N	-0.320	0.031	-1.607	N.pl3	1	UNK0	0.000	
10	   C	-0.322	-1.356	-1.816	C.2	1	UNK0	0.000	
11	   O	0.742	-2.033	-1.712	O.2	1	UNK0	0.000	
12	   C	-1.568	-2.093	-2.168	C.3	1	UNK0	0.000	
13	   C	-2.550	-1.762	-1.026	C.3	1	UNK0	0.000	
14	   N	-1.904	-2.540	0.045	N.pl3	1	UNK0	0.000	
15	   C	-1.589	-3.786	-0.575	C.2	1	UNK0	0.000	
16	   O	-1.531	-4.885	0.065	O.2	1	UNK0	0.000	
17	   C	-1.349	-3.587	-2.045	C.3	1	UNK0	0.000	
18	   C	-1.673	-2.105	1.371	C.2	1	UNK0	0.000	
19	   C	-2.622	-1.376	2.056	C.2	1	UNK0	0.000	
20	   C	-2.398	-0.946	3.362	C.2	1	UNK0	0.000	
21	   C	-1.215	-1.245	3.994	C.2	1	UNK0	0.000	
22	   C	-0.240	-1.977	3.332	C.2	1	UNK0	0.000	
23	   C	-0.493	-2.381	2.057	C.2	1	UNK0	0.000	
24	  Br	-4.275	-0.957	1.200	Br	1	UNK0	0.000	
25	   H	5.027	-0.165	-0.630	 H	1	UNK0	0.000	
26	   H	-1.196	0.572	-1.694	 H	1	UNK0	0.000	
27	   H	-1.973	-1.806	-3.139	 H	1	UNK0	0.000	
28	   H	-3.540	-2.175	-1.275	 H	1	UNK0	0.000	
29	   H	-2.551	-0.690	-0.814	 H	1	UNK0	0.000	
30	   H	-2.005	-4.188	-2.668	 H	1	UNK0	0.000	
31	   H	-0.263	-3.794	-2.185	 H	1	UNK0	0.000	
32	   H	-3.147	-0.365	3.914	 H	1	UNK0	0.000	
33	   H	-0.996	-0.931	5.000	 H	1	UNK0	0.000	
34	   H	0.702	-2.231	3.803	 H	1	UNK0	0.000	
35	   H	0.249	-2.967	1.488	 H	1	UNK0	0.000	
@<TRIPOS>BOND
1 1 2 1
2 1 8 1
3 2 3 1
4 2 6 2
5 3 4 1
6 3 7 1
7 4 5 2
8 5 6 1
9 7 8 2
10 8 9 1
11 9 10 1
12 10 11 2
13 10 12 1
14 12 13 1
15 12 17 1
16 13 14 1
17 14 15 1
18 14 18 1
19 15 16 2
20 15 17 1
21 18 19 2
22 18 23 1
23 19 20 1
24 19 24 1
25 20 21 2
26 21 22 1
27 22 23 2
28 4 25 1
29 9 26 1
30 12 27 1
31 13 28 1
32 13 29 1
33 17 30 1
34 17 31 1
35 20 32 1
36 21 33 1
37 22 34 1
38 23 35 1
@<TRIPOS>SUBSTRUCTURE
1	UNK0	1	GROUP	1 ****	UNK
