# created with PyMOL 2.3.2
@<TRIPOS>MOLECULE
1252
41 44 1                 
SMALL
USER_CHARGES
@<TRIPOS>ATOM
1	   S	1.084	-0.635	0.774	S.3	1	UNK0	0.000	
2	   C	0.131	0.768	0.688	C.2	1	UNK0	0.000	
3	   N	0.230	2.057	1.149	N.2	1	UNK0	0.000	
4	   C	-0.742	2.950	0.894	C.2	1	UNK0	0.000	
5	   O	-0.730	4.136	1.274	O.2	1	UNK0	0.000	
6	   C	-1.806	2.485	0.159	C.2	1	UNK0	0.000	
7	   C	-2.774	3.357	-0.101	C.2	1	UNK0	0.000	
8	   C	-3.963	3.013	-0.866	C.2	1	UNK0	0.000	
9	   O	-5.104	2.508	-0.499	O.3	1	UNK0	0.000	
10	   C	-5.920	2.349	-1.504	C.2	1	UNK0	0.000	
11	   C	-5.292	2.776	-2.634	C.2	1	UNK0	0.000	
12	   C	-4.040	3.204	-2.245	C.2	1	UNK0	0.000	
13	  Br	-7.706	1.647	-1.481	Br	1	UNK0	0.000	
14	   C	-1.945	1.222	-0.316	C.2	1	UNK0	0.000	
15	   N	-3.002	0.926	-0.993	N.2	1	UNK0	0.000	
16	   N	-0.954	0.297	-0.060	N.pl3	1	UNK0	0.000	
17	   N	-0.950	-0.932	-0.445	N.pl3	1	UNK0	0.000	
18	   C	0.098	-1.714	-0.112	C.2	1	UNK0	0.000	
19	   C	0.261	-2.987	-0.422	C.2	1	UNK0	0.000	
20	   C	1.293	-3.881	-0.138	C.2	1	UNK0	0.000	
21	   O	0.977	-5.117	-0.619	O.2	1	UNK0	0.000	
22	   N	2.528	-3.932	0.471	N.pl3	1	UNK0	0.000	
23	   C	3.412	-2.954	1.029	C.3	1	UNK0	0.000	
24	   C	3.243	-3.010	2.542	C.3	1	UNK0	0.000	
25	   O	3.047	-4.340	2.941	O.3	1	UNK0	0.000	
26	   C	3.687	-5.256	2.109	C.3	1	UNK0	0.000	
27	   C	3.121	-5.322	0.710	C.3	1	UNK0	0.000	
28	   H	-2.697	4.366	0.259	 H	1	UNK0	0.000	
29	   H	-5.632	2.808	-3.665	 H	1	UNK0	0.000	
30	   H	-3.284	3.605	-2.902	 H	1	UNK0	0.000	
31	   H	-3.200	-0.014	-1.399	 H	1	UNK0	0.000	
32	   H	-1.744	-1.392	-1.029	 H	1	UNK0	0.000	
33	   H	-0.603	-3.391	-1.025	 H	1	UNK0	0.000	
34	   H	4.486	-3.281	0.782	 H	1	UNK0	0.000	
35	   H	3.349	-1.954	0.672	 H	1	UNK0	0.000	
36	   H	2.343	-2.435	2.819	 H	1	UNK0	0.000	
37	   H	4.116	-2.530	3.007	 H	1	UNK0	0.000	
38	   H	3.546	-6.249	2.582	 H	1	UNK0	0.000	
39	   H	4.788	-5.089	2.082	 H	1	UNK0	0.000	
40	   H	3.963	-5.370	0.002	 H	1	UNK0	0.000	
41	   H	2.362	-6.075	0.546	 H	1	UNK0	0.000	
@<TRIPOS>BOND
1 1 2 1
2 1 18 1
3 2 3 2
4 2 16 1
5 3 4 1
6 4 5 2
7 4 6 1
8 6 7 2
9 6 14 1
10 7 8 1
11 8 9 1
12 8 12 2
13 9 10 1
14 10 11 2
15 10 13 1
16 11 12 1
17 14 15 2
18 14 16 1
19 16 17 1
20 17 18 1
21 18 19 2
22 19 20 1
23 20 21 2
24 20 22 1
25 22 23 1
26 22 27 1
27 23 24 1
28 24 25 1
29 25 26 1
30 26 27 1
31 7 28 1
32 11 29 1
33 12 30 1
34 15 31 1
35 17 32 1
36 19 33 1
37 23 34 1
38 23 35 1
39 24 36 1
40 24 37 1
41 26 38 1
42 26 39 1
43 27 40 1
44 27 41 1
@<TRIPOS>SUBSTRUCTURE
1	UNK0	1	GROUP	1 ****	UNK
