# created with PyMOL 2.3.2
@<TRIPOS>MOLECULE
1253
34 37 1                 
SMALL
USER_CHARGES
@<TRIPOS>ATOM
1	   S	-1.627	0.982	3.757	S.3	1	UNK0	0.000	
2	   C	-0.229	0.157	2.994	C.2	1	UNK0	0.000	
3	   N	0.773	-0.438	3.504	N.2	1	UNK0	0.000	
4	   C	1.761	-1.021	2.682	C.2	1	UNK0	0.000	
5	   O	2.757	-1.614	3.156	O.2	1	UNK0	0.000	
6	   C	1.617	-0.930	1.199	C.2	1	UNK0	0.000	
7	   C	2.526	-1.480	0.449	C.2	1	UNK0	0.000	
8	   C	2.576	-1.528	-0.980	C.2	1	UNK0	0.000	
9	   O	1.857	-2.128	-1.887	O.3	1	UNK0	0.000	
10	   C	2.283	-1.887	-3.090	C.2	1	UNK0	0.000	
11	   C	3.378	-1.060	-3.017	C.2	1	UNK0	0.000	
12	   C	3.570	-0.827	-1.681	C.2	1	UNK0	0.000	
13	  Br	1.582	-2.525	-4.760	Br	1	UNK0	0.000	
14	   C	0.481	-0.246	0.670	C.2	1	UNK0	0.000	
15	   N	0.327	0.027	-0.561	N.pl3	1	UNK0	0.000	
16	   N	-0.483	0.318	1.622	N.pl3	1	UNK0	0.000	
17	   N	-1.623	0.995	1.301	N.2	1	UNK0	0.000	
18	   C	-2.379	1.436	2.196	C.2	1	UNK0	0.000	
19	   C	-3.625	2.175	2.032	C.2	1	UNK0	0.000	
20	   C	-4.325	2.580	3.128	C.2	1	UNK0	0.000	
21	   C	-5.519	3.288	2.946	C.2	1	UNK0	0.000	
22	   C	-6.003	3.586	1.685	C.2	1	UNK0	0.000	
23	   C	-5.290	3.173	0.596	C.2	1	UNK0	0.000	
24	   C	-4.098	2.466	0.785	C.2	1	UNK0	0.000	
25	   O	-7.207	4.299	1.537	O.2	1	UNK0	0.000	
26	   H	3.364	-1.971	1.009	 H	1	UNK0	0.000	
27	   H	3.978	-0.663	-3.852	 H	1	UNK0	0.000	
28	   H	4.364	-0.201	-1.241	 H	1	UNK0	0.000	
29	   H	0.911	-0.158	-1.324	 H	1	UNK0	0.000	
30	   H	-0.580	0.537	-0.879	 H	1	UNK0	0.000	
31	   H	-3.957	2.353	4.119	 H	1	UNK0	0.000	
32	   H	-6.069	3.607	3.799	 H	1	UNK0	0.000	
33	   H	-5.653	3.397	-0.396	 H	1	UNK0	0.000	
34	   H	-3.560	2.156	-0.084	 H	1	UNK0	0.000	
@<TRIPOS>BOND
1 1 2 1
2 1 18 1
3 2 3 2
4 2 16 1
5 3 4 1
6 4 5 2
7 4 6 1
8 6 7 2
9 6 14 1
10 7 8 1
11 8 9 1
12 8 12 2
13 9 10 1
14 10 11 2
15 10 13 1
16 11 12 1
17 14 15 2
18 14 16 1
19 16 17 1
20 17 18 2
21 18 19 1
22 19 20 2
23 19 24 1
24 20 21 1
25 21 22 2
26 22 23 1
27 22 25 1
28 23 24 2
29 7 26 1
30 11 27 1
31 12 28 1
32 15 29 1
33 15 30 1
34 20 31 1
35 21 32 1
36 23 33 1
37 24 34 1
@<TRIPOS>SUBSTRUCTURE
1	UNK0	1	GROUP	1 ****	UNK
