# created with PyMOL 2.3.2
@<TRIPOS>MOLECULE
1254
41 44 1                 
SMALL
USER_CHARGES
@<TRIPOS>ATOM
1	   S	0.240	-1.337	0.151	S.3	1	UNK0	0.000	
2	   C	0.092	-0.407	-1.264	C.2	1	UNK0	0.000	
3	   N	-0.079	-0.660	-2.592	N.2	1	UNK0	0.000	
4	   C	-0.160	0.352	-3.476	C.2	1	UNK0	0.000	
5	   O	-0.316	0.156	-4.699	O.2	1	UNK0	0.000	
6	   C	-0.065	1.643	-2.998	C.2	1	UNK0	0.000	
7	   C	-0.151	2.625	-3.914	C.2	1	UNK0	0.000	
8	   C	-0.333	2.312	-5.326	C.2	1	UNK0	0.000	
9	   O	-1.420	2.120	-6.008	O.3	1	UNK0	0.000	
10	   C	-1.171	1.859	-7.279	C.2	1	UNK0	0.000	
11	   C	0.197	1.882	-7.443	C.2	1	UNK0	0.000	
12	   C	0.721	2.169	-6.204	C.2	1	UNK0	0.000	
13	  Br	-2.497	1.514	-8.631	Br	1	UNK0	0.000	
14	   C	0.105	1.918	-1.678	C.2	1	UNK0	0.000	
15	   N	0.189	3.124	-1.277	N.2	1	UNK0	0.000	
16	   N	0.193	0.892	-0.733	N.pl3	1	UNK0	0.000	
17	   N	0.352	1.018	0.525	N.pl3	1	UNK0	0.000	
18	   C	0.416	-0.089	1.294	C.2	1	UNK0	0.000	
19	   C	0.577	-0.101	2.603	C.2	1	UNK0	0.000	
20	   C	0.654	-1.183	3.469	C.2	1	UNK0	0.000	
21	   O	0.830	-0.752	4.748	O.2	1	UNK0	0.000	
22	   N	0.609	-2.573	3.459	N.pl3	1	UNK0	0.000	
23	   C	0.769	-3.280	4.769	C.3	1	UNK0	0.000	
24	   C	-0.454	-4.114	4.956	C.3	1	UNK0	0.000	
25	   O	-0.687	-4.905	3.851	O.3	1	UNK0	0.000	
26	   C	0.363	-4.904	2.952	C.3	1	UNK0	0.000	
27	   C	0.425	-3.466	2.363	C.3	1	UNK0	0.000	
28	   H	-0.082	3.646	-3.589	 H	1	UNK0	0.000	
29	   H	0.723	1.702	-8.386	 H	1	UNK0	0.000	
30	   H	1.788	2.263	-5.972	 H	1	UNK0	0.000	
31	   H	0.149	3.981	-1.790	 H	1	UNK0	0.000	
32	   H	0.439	1.974	1.009	 H	1	UNK0	0.000	
33	   H	0.665	0.920	3.081	 H	1	UNK0	0.000	
34	   H	1.673	-3.899	4.711	 H	1	UNK0	0.000	
35	   H	0.907	-2.529	5.579	 H	1	UNK0	0.000	
36	   H	-1.320	-3.397	5.059	 H	1	UNK0	0.000	
37	   H	-0.396	-4.762	5.863	 H	1	UNK0	0.000	
38	   H	1.325	-5.238	3.324	 H	1	UNK0	0.000	
39	   H	0.072	-5.536	2.076	 H	1	UNK0	0.000	
40	   H	1.278	-3.480	1.647	 H	1	UNK0	0.000	
41	   H	-0.576	-3.382	1.867	 H	1	UNK0	0.000	
@<TRIPOS>BOND
1 1 2 1
2 1 18 1
3 2 3 2
4 2 16 1
5 3 4 1
6 4 5 2
7 4 6 1
8 6 7 2
9 6 14 1
10 7 8 1
11 8 9 1
12 8 12 2
13 9 10 1
14 10 11 2
15 10 13 1
16 11 12 1
17 14 15 2
18 14 16 1
19 16 17 1
20 17 18 1
21 18 19 2
22 19 20 1
23 20 21 2
24 20 22 1
25 22 23 1
26 22 27 1
27 23 24 1
28 24 25 1
29 25 26 1
30 26 27 1
31 7 28 1
32 11 29 1
33 12 30 1
34 15 31 1
35 17 32 1
36 19 33 1
37 23 34 1
38 23 35 1
39 24 36 1
40 24 37 1
41 26 38 1
42 26 39 1
43 27 40 1
44 27 41 1
@<TRIPOS>SUBSTRUCTURE
1	UNK0	1	GROUP	1 ****	UNK
