# created with PyMOL 2.3.2
@<TRIPOS>MOLECULE
1255
45 49 1                 
SMALL
USER_CHARGES
@<TRIPOS>ATOM
1	   S	-1.724	0.195	-3.086	S.3	1	UNK0	0.000	
2	   C	-1.741	-0.377	-1.395	C.2	1	UNK0	0.000	
3	   N	-1.600	-1.563	-0.899	N.2	1	UNK0	0.000	
4	   C	-1.656	-1.750	0.534	C.2	1	UNK0	0.000	
5	   O	-2.039	-2.767	1.110	O.2	1	UNK0	0.000	
6	   C	-1.194	-0.569	1.386	C.3	1	UNK0	0.000	
7	   C	-2.029	0.544	0.834	C.2	1	UNK0	0.000	
8	   O	-2.772	1.274	1.551	O.2	1	UNK0	0.000	
9	   N	-1.964	0.771	-0.604	N.pl3	1	UNK0	0.000	
10	   N	-2.103	1.953	-1.280	N.pl3	1	UNK0	0.000	
11	   C	-2.010	1.913	-2.688	C.2	1	UNK0	0.000	
12	   C	-2.108	2.913	-3.559	C.2	1	UNK0	0.000	
13	   C	0.274	-0.361	1.143	C.3	1	UNK0	0.000	
14	   C	0.944	0.717	1.897	C.3	1	UNK0	0.000	
15	   C	0.472	2.080	1.705	C.2	1	UNK0	0.000	
16	   O	-0.282	2.625	2.581	O.2	1	UNK0	0.000	
17	   N	0.838	2.854	0.533	N.pl3	1	UNK0	0.000	
18	   N	0.177	3.906	-0.015	N.pl3	1	UNK0	0.000	
19	   C	0.747	4.505	-1.166	C.2	1	UNK0	0.000	
20	   C	0.322	5.525	-1.879	C.2	1	UNK0	0.000	
21	   S	2.234	3.558	-1.481	S.3	1	UNK0	0.000	
22	   C	2.034	2.453	-0.096	C.2	1	UNK0	0.000	
23	   N	2.769	1.480	0.311	N.2	1	UNK0	0.000	
24	   C	2.402	0.715	1.471	C.2	1	UNK0	0.000	
25	   O	3.196	0.050	2.152	O.2	1	UNK0	0.000	
26	   C	1.035	-1.635	1.286	C.2	1	UNK0	0.000	
27	   C	1.661	-2.217	0.208	C.2	1	UNK0	0.000	
28	   C	2.364	-3.393	0.334	C.2	1	UNK0	0.000	
29	   C	2.446	-4.006	1.564	C.2	1	UNK0	0.000	
30	   C	1.825	-3.449	2.684	C.2	1	UNK0	0.000	
31	   C	1.130	-2.269	2.516	C.2	1	UNK0	0.000	
32	  Br	3.416	-5.641	1.772	Br	1	UNK0	0.000	
33	   H	-1.456	-0.789	2.415	 H	1	UNK0	0.000	
34	   H	-2.287	2.903	-0.798	 H	1	UNK0	0.000	
35	   H	-2.009	2.688	-4.609	 H	1	UNK0	0.000	
36	   H	-2.279	3.917	-3.261	 H	1	UNK0	0.000	
37	   H	0.366	-0.076	0.044	 H	1	UNK0	0.000	
38	   H	0.957	0.539	3.007	 H	1	UNK0	0.000	
39	   H	-0.745	4.322	0.359	 H	1	UNK0	0.000	
40	   H	0.890	5.842	-2.727	 H	1	UNK0	0.000	
41	   H	-0.581	6.045	-1.630	 H	1	UNK0	0.000	
42	   H	1.630	-1.780	-0.782	 H	1	UNK0	0.000	
43	   H	2.856	-3.853	-0.505	 H	1	UNK0	0.000	
44	   H	1.887	-3.928	3.657	 H	1	UNK0	0.000	
45	   H	0.619	-1.775	3.345	 H	1	UNK0	0.000	
@<TRIPOS>BOND
1 1 2 1
2 1 11 1
3 2 3 2
4 2 9 1
5 3 4 1
6 4 5 2
7 4 6 1
8 6 7 1
9 6 13 1
10 7 8 2
11 7 9 1
12 9 10 1
13 10 11 1
14 11 12 2
15 13 14 1
16 13 26 1
17 14 15 1
18 14 24 1
19 15 16 2
20 15 17 1
21 17 18 1
22 17 22 1
23 18 19 1
24 19 20 2
25 19 21 1
26 21 22 1
27 22 23 2
28 23 24 1
29 24 25 2
30 26 27 2
31 26 31 1
32 27 28 1
33 28 29 2
34 29 30 1
35 29 32 1
36 30 31 2
37 6 33 1
38 10 34 1
39 12 35 1
40 12 36 1
41 13 37 1
42 14 38 1
43 18 39 1
44 20 40 1
45 20 41 1
46 27 42 1
47 28 43 1
48 30 44 1
49 31 45 1
@<TRIPOS>SUBSTRUCTURE
1	UNK0	1	GROUP	1 ****	UNK
