# created with PyMOL 2.3.2
@<TRIPOS>MOLECULE
1256
47 50 1                 
SMALL
USER_CHARGES
@<TRIPOS>ATOM
1	   S	2.906	-3.354	-1.091	S.3	1	UNK0	0.000	
2	   C	1.747	-2.813	-2.230	C.2	1	UNK0	0.000	
3	   N	1.246	-3.321	-3.399	N.2	1	UNK0	0.000	
4	   C	0.291	-2.672	-4.085	C.2	1	UNK0	0.000	
5	   O	-0.223	-3.057	-5.152	O.2	1	UNK0	0.000	
6	   C	-0.126	-1.487	-3.526	C.2	1	UNK0	0.000	
7	   C	0.368	-0.974	-2.363	C.2	1	UNK0	0.000	
8	   N	1.343	-1.662	-1.684	N.pl3	1	UNK0	0.000	
9	   N	1.871	-1.311	-0.576	N.2	1	UNK0	0.000	
10	   C	2.776	-2.036	0.018	C.2	1	UNK0	0.000	
11	   N	3.470	-1.824	1.270	N.pl3	1	UNK0	0.000	
12	   C	4.478	-0.840	1.375	C.3	1	UNK0	0.000	
13	   C	5.109	-0.880	2.747	C.3	1	UNK0	0.000	
14	   O	5.259	-2.208	3.155	O.3	1	UNK0	0.000	
15	   C	4.013	-2.756	3.483	C.3	1	UNK0	0.000	
16	   C	3.054	-2.671	2.336	C.3	1	UNK0	0.000	
17	   C	-0.185	0.293	-1.888	C.2	1	UNK0	0.000	
18	   O	-1.326	0.686	-2.331	O.2	1	UNK0	0.000	
19	   N	0.447	1.149	-0.963	N.pl3	1	UNK0	0.000	
20	   C	-0.211	2.384	-0.553	C.3	1	UNK0	0.000	
21	   C	-1.421	2.091	0.254	C.2	1	UNK0	0.000	
22	   C	-2.204	3.143	0.703	C.2	1	UNK0	0.000	
23	   C	-3.302	2.885	1.485	C.2	1	UNK0	0.000	
24	   C	-3.659	1.612	1.845	C.2	1	UNK0	0.000	
25	   C	-2.884	0.557	1.401	C.2	1	UNK0	0.000	
26	   C	-1.777	0.821	0.611	C.2	1	UNK0	0.000	
27	  Br	-3.315	-1.247	1.852	Br	1	UNK0	0.000	
28	   O	-1.835	4.418	0.336	O.3	1	UNK0	0.000	
29	   C	-2.634	5.510	0.791	C.3	1	UNK0	0.000	
30	   H	-0.907	-0.941	-4.070	 H	1	UNK0	0.000	
31	   H	4.061	0.184	1.166	 H	1	UNK0	0.000	
32	   H	5.320	-0.978	0.653	 H	1	UNK0	0.000	
33	   H	4.389	-0.384	3.445	 H	1	UNK0	0.000	
34	   H	6.100	-0.417	2.734	 H	1	UNK0	0.000	
35	   H	4.172	-3.821	3.824	 H	1	UNK0	0.000	
36	   H	3.645	-2.217	4.395	 H	1	UNK0	0.000	
37	   H	2.804	-3.710	1.962	 H	1	UNK0	0.000	
38	   H	2.092	-2.240	2.754	 H	1	UNK0	0.000	
39	   H	1.380	0.925	-0.568	 H	1	UNK0	0.000	
40	   H	-0.575	2.940	-1.470	 H	1	UNK0	0.000	
41	   H	0.461	3.080	-0.035	 H	1	UNK0	0.000	
42	   H	-3.910	3.725	1.835	 H	1	UNK0	0.000	
43	   H	-4.529	1.397	2.467	 H	1	UNK0	0.000	
44	   H	-1.208	-0.056	0.297	 H	1	UNK0	0.000	
45	   H	-2.204	6.462	0.432	 H	1	UNK0	0.000	
46	   H	-3.666	5.452	0.401	 H	1	UNK0	0.000	
47	   H	-2.697	5.455	1.888	 H	1	UNK0	0.000	
@<TRIPOS>BOND
1 1 2 1
2 1 10 1
3 2 3 2
4 2 8 1
5 3 4 1
6 4 5 2
7 4 6 1
8 6 7 2
9 7 8 1
10 7 17 1
11 8 9 1
12 9 10 2
13 10 11 1
14 11 12 1
15 11 16 1
16 12 13 1
17 13 14 1
18 14 15 1
19 15 16 1
20 17 18 2
21 17 19 1
22 19 20 1
23 20 21 1
24 21 22 2
25 21 26 1
26 22 23 1
27 22 28 1
28 23 24 2
29 24 25 1
30 25 26 2
31 25 27 1
32 28 29 1
33 6 30 1
34 12 31 1
35 12 32 1
36 13 33 1
37 13 34 1
38 15 35 1
39 15 36 1
40 16 37 1
41 16 38 1
42 19 39 1
43 20 40 1
44 20 41 1
45 23 42 1
46 24 43 1
47 26 44 1
48 29 45 1
49 29 46 1
50 29 47 1
@<TRIPOS>SUBSTRUCTURE
1	UNK0	1	GROUP	1 ****	UNK
