# created with PyMOL 2.3.2
@<TRIPOS>MOLECULE
1261
40 43 1                 
SMALL
USER_CHARGES
@<TRIPOS>ATOM
1	   S	-3.136	-1.691	0.213	S.3	1	UNK0	0.000	
2	   C	-2.262	-0.693	1.297	C.2	1	UNK0	0.000	
3	   N	-2.562	-0.009	2.442	N.2	1	UNK0	0.000	
4	   C	-1.650	0.708	3.097	C.2	1	UNK0	0.000	
5	   C	-0.346	0.729	2.549	C.2	1	UNK0	0.000	
6	   C	-0.079	0.036	1.408	C.2	1	UNK0	0.000	
7	   O	1.096	0.049	0.913	O.2	1	UNK0	0.000	
8	   N	-1.047	-0.699	0.751	N.pl3	1	UNK0	0.000	
9	   N	-0.867	-1.370	-0.318	N.2	1	UNK0	0.000	
10	   C	-1.838	-2.045	-0.882	C.2	1	UNK0	0.000	
11	   N	-1.859	-2.848	-2.054	N.pl3	1	UNK0	0.000	
12	   C	-3.070	-3.478	-2.453	C.3	1	UNK0	0.000	
13	   C	-3.170	-3.305	-3.975	C.3	1	UNK0	0.000	
14	   O	-2.100	-3.937	-4.567	O.3	1	UNK0	0.000	
15	   C	-0.880	-3.355	-4.267	C.3	1	UNK0	0.000	
16	   C	-0.672	-3.026	-2.820	C.3	1	UNK0	0.000	
17	   C	0.663	1.538	3.247	C.2	1	UNK0	0.000	
18	   O	0.394	1.831	4.435	O.2	1	UNK0	0.000	
19	   N	1.857	1.983	2.674	N.pl3	1	UNK0	0.000	
20	   C	2.866	2.761	3.329	C.2	1	UNK0	0.000	
21	   C	3.860	3.358	2.547	C.2	1	UNK0	0.000	
22	   C	4.870	4.108	3.083	C.2	1	UNK0	0.000	
23	   C	4.920	4.289	4.455	C.2	1	UNK0	0.000	
24	   C	3.963	3.720	5.254	C.2	1	UNK0	0.000	
25	   C	2.951	2.964	4.676	C.2	1	UNK0	0.000	
26	  Br	6.215	4.911	1.972	Br	1	UNK0	0.000	
27	   H	-1.836	1.263	3.998	 H	1	UNK0	0.000	
28	   H	-3.972	-3.083	-1.947	 H	1	UNK0	0.000	
29	   H	-2.953	-4.571	-2.301	 H	1	UNK0	0.000	
30	   H	-4.123	-3.714	-4.316	 H	1	UNK0	0.000	
31	   H	-3.096	-2.218	-4.233	 H	1	UNK0	0.000	
32	   H	-0.024	-3.980	-4.639	 H	1	UNK0	0.000	
33	   H	-0.836	-2.409	-4.846	 H	1	UNK0	0.000	
34	   H	-0.139	-3.908	-2.377	 H	1	UNK0	0.000	
35	   H	-0.000	-2.127	-2.793	 H	1	UNK0	0.000	
36	   H	2.083	1.762	1.666	 H	1	UNK0	0.000	
37	   H	3.840	3.228	1.461	 H	1	UNK0	0.000	
38	   H	5.710	4.874	4.857	 H	1	UNK0	0.000	
39	   H	3.979	3.847	6.329	 H	1	UNK0	0.000	
40	   H	2.224	2.527	5.345	 H	1	UNK0	0.000	
@<TRIPOS>BOND
1 1 2 1
2 1 10 1
3 2 3 2
4 2 8 1
5 3 4 1
6 4 5 2
7 5 6 1
8 5 17 1
9 6 7 2
10 6 8 1
11 8 9 1
12 9 10 2
13 10 11 1
14 11 12 1
15 11 16 1
16 12 13 1
17 13 14 1
18 14 15 1
19 15 16 1
20 17 18 2
21 17 19 1
22 19 20 1
23 20 21 2
24 20 25 1
25 21 22 1
26 22 23 2
27 22 26 1
28 23 24 1
29 24 25 2
30 4 27 1
31 12 28 1
32 12 29 1
33 13 30 1
34 13 31 1
35 15 32 1
36 15 33 1
37 16 34 1
38 16 35 1
39 19 36 1
40 21 37 1
41 23 38 1
42 24 39 1
43 25 40 1
@<TRIPOS>SUBSTRUCTURE
1	UNK0	1	GROUP	1 ****	UNK
