# created with PyMOL 2.3.2
@<TRIPOS>MOLECULE
1262
37 40 1                 
SMALL
USER_CHARGES
@<TRIPOS>ATOM
1	   S	-1.210	1.984	-4.014	S.3	1	UNK0	0.000	
2	   C	-1.339	3.616	-3.498	C.2	1	UNK0	0.000	
3	   N	-1.673	4.802	-4.099	N.2	1	UNK0	0.000	
4	   C	-1.689	5.959	-3.419	C.2	1	UNK0	0.000	
5	   C	-1.349	5.881	-2.086	C.2	1	UNK0	0.000	
6	   C	-1.020	4.693	-1.506	C.2	1	UNK0	0.000	
7	   O	-0.717	4.707	-0.264	O.2	1	UNK0	0.000	
8	   N	-1.007	3.514	-2.211	N.pl3	1	UNK0	0.000	
9	   N	-0.713	2.367	-1.748	N.2	1	UNK0	0.000	
10	   C	-0.729	1.293	-2.498	C.2	1	UNK0	0.000	
11	   N	-0.444	-0.074	-2.213	N.pl3	1	UNK0	0.000	
12	   C	-0.055	-0.572	-0.949	C.2	1	UNK0	0.000	
13	   C	0.201	-1.942	-0.784	C.2	1	UNK0	0.000	
14	   N	0.572	-2.476	0.386	N.2	1	UNK0	0.000	
15	   C	0.733	-1.745	1.506	C.2	1	UNK0	0.000	
16	   C	0.494	-0.400	1.394	C.2	1	UNK0	0.000	
17	   C	0.104	0.188	0.183	C.2	1	UNK0	0.000	
18	  Br	0.698	0.692	2.921	Br	1	UNK0	0.000	
19	   N	1.132	-2.349	2.744	N.pl3	1	UNK0	0.000	
20	   C	2.305	-2.025	3.466	C.3	1	UNK0	0.000	
21	   C	2.039	-1.971	4.941	C.3	1	UNK0	0.000	
22	   O	1.228	-2.987	5.388	O.3	1	UNK0	0.000	
23	   C	-0.027	-2.954	4.735	C.3	1	UNK0	0.000	
24	   C	0.275	-3.393	3.320	C.3	1	UNK0	0.000	
25	   H	-1.949	6.901	-3.879	 H	1	UNK0	0.000	
26	   H	-1.346	6.814	-1.476	 H	1	UNK0	0.000	
27	   H	-0.536	-0.747	-3.019	 H	1	UNK0	0.000	
28	   H	0.080	-2.551	-1.664	 H	1	UNK0	0.000	
29	   H	-0.075	1.262	0.142	 H	1	UNK0	0.000	
30	   H	2.833	-1.118	3.129	 H	1	UNK0	0.000	
31	   H	3.042	-2.867	3.310	 H	1	UNK0	0.000	
32	   H	3.025	-2.117	5.453	 H	1	UNK0	0.000	
33	   H	1.681	-0.989	5.312	 H	1	UNK0	0.000	
34	   H	-0.387	-1.890	4.682	 H	1	UNK0	0.000	
35	   H	-0.707	-3.616	5.270	 H	1	UNK0	0.000	
36	   H	-0.633	-3.553	2.719	 H	1	UNK0	0.000	
37	   H	0.903	-4.320	3.396	 H	1	UNK0	0.000	
@<TRIPOS>BOND
1 1 2 1
2 1 10 1
3 2 3 2
4 2 8 1
5 3 4 1
6 4 5 2
7 5 6 1
8 6 7 2
9 6 8 1
10 8 9 1
11 9 10 2
12 10 11 1
13 11 12 1
14 12 13 2
15 12 17 1
16 13 14 1
17 14 15 2
18 15 16 1
19 15 19 1
20 16 17 2
21 16 18 1
22 19 20 1
23 19 24 1
24 20 21 1
25 21 22 1
26 22 23 1
27 23 24 1
28 4 25 1
29 5 26 1
30 11 27 1
31 13 28 1
32 17 29 1
33 20 30 1
34 20 31 1
35 21 32 1
36 21 33 1
37 23 34 1
38 23 35 1
39 24 36 1
40 24 37 1
@<TRIPOS>SUBSTRUCTURE
1	UNK0	1	GROUP	1 ****	UNK
