# created with PyMOL 2.3.2
@<TRIPOS>MOLECULE
1263
40 43 1                 
SMALL
USER_CHARGES
@<TRIPOS>ATOM
1	   S	0.074	-1.555	-0.737	S.3	1	UNK0	0.000	
2	   C	0.194	0.102	-0.032	C.2	1	UNK0	0.000	
3	   N	1.058	0.956	0.378	N.pl3	1	UNK0	0.000	
4	   C	0.399	2.126	0.834	C.3	1	UNK0	0.000	
5	   C	-1.076	1.907	0.633	C.3	1	UNK0	0.000	
6	   N	-1.137	0.533	0.066	N.pl3	1	UNK0	0.000	
7	   C	-2.124	-0.384	-0.377	C.2	1	UNK0	0.000	
8	   C	-1.689	-1.534	-0.832	C.2	1	UNK0	0.000	
9	   C	-3.595	-0.111	-0.358	C.2	1	UNK0	0.000	
10	   C	-4.150	1.039	0.120	C.2	1	UNK0	0.000	
11	   C	-5.514	1.282	0.124	C.2	1	UNK0	0.000	
12	   C	-6.368	0.346	-0.368	C.2	1	UNK0	0.000	
13	   C	-5.859	-0.825	-0.859	C.2	1	UNK0	0.000	
14	   C	-4.484	-1.043	-0.851	C.2	1	UNK0	0.000	
15	  Br	-8.258	0.625	-0.389	Br	1	UNK0	0.000	
16	   C	2.496	0.780	0.405	C.3	1	UNK0	0.000	
17	   C	3.196	1.704	-0.516	C.2	1	UNK0	0.000	
18	   O	3.659	2.786	0.002	O.2	1	UNK0	0.000	
19	   C	3.408	1.514	-1.923	C.2	1	UNK0	0.000	
20	   C	2.970	0.359	-2.536	C.2	1	UNK0	0.000	
21	   C	3.173	0.197	-3.890	C.2	1	UNK0	0.000	
22	   C	3.810	1.181	-4.626	C.2	1	UNK0	0.000	
23	   C	4.250	2.342	-4.007	C.2	1	UNK0	0.000	
24	   C	4.053	2.514	-2.659	C.2	1	UNK0	0.000	
25	  Br	4.115	1.006	-6.502	Br	1	UNK0	0.000	
26	   H	0.659	2.358	1.908	 H	1	UNK0	0.000	
27	   H	0.679	3.049	0.285	 H	1	UNK0	0.000	
28	   H	-1.503	2.649	-0.075	 H	1	UNK0	0.000	
29	   H	-1.533	1.967	1.623	 H	1	UNK0	0.000	
30	   H	-2.242	-2.374	-1.216	 H	1	UNK0	0.000	
31	   H	-3.544	1.816	0.525	 H	1	UNK0	0.000	
32	   H	-5.922	2.209	0.512	 H	1	UNK0	0.000	
33	   H	-6.497	-1.597	-1.260	 H	1	UNK0	0.000	
34	   H	-4.145	-1.974	-1.248	 H	1	UNK0	0.000	
35	   H	2.888	0.961	1.429	 H	1	UNK0	0.000	
36	   H	2.720	-0.268	0.081	 H	1	UNK0	0.000	
37	   H	2.475	-0.436	-2.003	 H	1	UNK0	0.000	
38	   H	2.830	-0.706	-4.374	 H	1	UNK0	0.000	
39	   H	4.750	3.105	-4.605	 H	1	UNK0	0.000	
40	   H	4.400	3.428	-2.178	 H	1	UNK0	0.000	
@<TRIPOS>BOND
1 1 2 1
2 1 8 1
3 2 3 2
4 2 6 1
5 3 4 1
6 3 16 1
7 4 5 1
8 5 6 1
9 6 7 1
10 7 8 2
11 7 9 1
12 9 10 2
13 9 14 1
14 10 11 1
15 11 12 2
16 12 13 1
17 12 15 1
18 13 14 2
19 16 17 1
20 17 18 2
21 17 19 1
22 19 20 2
23 19 24 1
24 20 21 1
25 21 22 2
26 22 23 1
27 22 25 1
28 23 24 2
29 4 26 1
30 4 27 1
31 5 28 1
32 5 29 1
33 8 30 1
34 10 31 1
35 11 32 1
36 13 33 1
37 14 34 1
38 16 35 1
39 16 36 1
40 20 37 1
41 21 38 1
42 23 39 1
43 24 40 1
@<TRIPOS>SUBSTRUCTURE
1	UNK0	1	GROUP	1 ****	UNK
