# created with PyMOL 2.3.2
@<TRIPOS>MOLECULE
1264
40 43 1                 
SMALL
USER_CHARGES
@<TRIPOS>ATOM
1	   S	0.271	-1.705	-1.232	S.3	1	UNK0	0.000	
2	   C	-0.183	-0.478	-0.002	C.2	1	UNK0	0.000	
3	   N	-0.554	0.735	0.093	N.pl3	1	UNK0	0.000	
4	   C	-0.759	1.099	1.448	C.3	1	UNK0	0.000	
5	   C	-0.444	-0.146	2.229	C.3	1	UNK0	0.000	
6	   N	-0.064	-1.153	1.222	N.pl3	1	UNK0	0.000	
7	   C	0.349	-2.499	1.163	C.2	1	UNK0	0.000	
8	   C	0.579	-2.986	-0.044	C.2	1	UNK0	0.000	
9	   C	0.535	-3.386	2.357	C.2	1	UNK0	0.000	
10	   C	0.327	-2.959	3.642	C.2	1	UNK0	0.000	
11	   C	0.515	-3.833	4.731	C.2	1	UNK0	0.000	
12	   C	0.908	-5.128	4.531	C.2	1	UNK0	0.000	
13	   C	1.123	-5.577	3.255	C.2	1	UNK0	0.000	
14	   C	0.930	-4.695	2.219	C.2	1	UNK0	0.000	
15	  Br	1.169	-6.327	5.983	Br	1	UNK0	0.000	
16	   C	-0.776	1.615	-1.051	C.3	1	UNK0	0.000	
17	   C	0.188	2.719	-0.983	C.2	1	UNK0	0.000	
18	   O	-0.276	3.829	-0.552	O.2	1	UNK0	0.000	
19	   C	1.577	2.677	-1.346	C.2	1	UNK0	0.000	
20	   C	2.386	3.817	-1.175	C.2	1	UNK0	0.000	
21	   C	3.706	3.848	-1.511	C.2	1	UNK0	0.000	
22	   C	4.310	2.745	-2.042	C.2	1	UNK0	0.000	
23	   C	3.577	1.606	-2.234	C.2	1	UNK0	0.000	
24	   C	2.235	1.598	-1.884	C.2	1	UNK0	0.000	
25	   H	-0.148	1.970	1.772	 H	1	UNK0	0.000	
26	   H	-1.848	1.340	1.642	 H	1	UNK0	0.000	
27	   H	0.487	0.017	2.847	 H	1	UNK0	0.000	
28	   H	-1.312	-0.474	2.838	 H	1	UNK0	0.000	
29	   H	0.909	-4.011	-0.302	 H	1	UNK0	0.000	
30	   H	0.023	-1.960	3.836	 H	1	UNK0	0.000	
31	   H	0.347	-3.480	5.725	 H	1	UNK0	0.000	
32	   H	1.437	-6.602	3.057	 H	1	UNK0	0.000	
33	   H	1.108	-5.088	1.237	 H	1	UNK0	0.000	
34	   H	-0.614	1.096	-2.015	 H	1	UNK0	0.000	
35	   H	-1.824	1.969	-1.046	 H	1	UNK0	0.000	
36	   H	1.931	4.704	-0.756	 H	1	UNK0	0.000	
37	   H	4.323	4.742	-1.371	 H	1	UNK0	0.000	
38	   H	5.361	2.787	-2.303	 H	1	UNK0	0.000	
39	   H	4.012	0.719	-2.649	 H	1	UNK0	0.000	
40	   H	1.679	0.696	-2.052	 H	1	UNK0	0.000	
@<TRIPOS>BOND
1 1 2 1
2 1 8 1
3 2 3 2
4 2 6 1
5 3 4 1
6 3 16 1
7 4 5 1
8 5 6 1
9 6 7 1
10 7 8 2
11 7 9 1
12 9 10 2
13 9 14 1
14 10 11 1
15 11 12 2
16 12 13 1
17 12 15 1
18 13 14 2
19 16 17 1
20 17 18 2
21 17 19 1
22 19 20 2
23 19 24 1
24 20 21 1
25 21 22 2
26 22 23 1
27 23 24 2
28 4 25 1
29 4 26 1
30 5 27 1
31 5 28 1
32 8 29 1
33 10 30 1
34 11 31 1
35 13 32 1
36 14 33 1
37 16 34 1
38 16 35 1
39 20 36 1
40 21 37 1
41 22 38 1
42 23 39 1
43 24 40 1
@<TRIPOS>SUBSTRUCTURE
1	UNK0	1	GROUP	1 ****	UNK
