# created with PyMOL 2.3.2
@<TRIPOS>MOLECULE
1267
50 53 1                 
SMALL
USER_CHARGES
@<TRIPOS>ATOM
1	  Br	-1.987	-5.526	2.594	Br	1	UNK0	0.000	
2	   C	-2.802	-4.007	1.735	C.2	1	UNK0	0.000	
3	   C	-2.062	-3.249	0.810	C.2	1	UNK0	0.000	
4	   C	-2.688	-2.190	0.235	C.2	1	UNK0	0.000	
5	   C	-4.019	-1.813	0.509	C.2	1	UNK0	0.000	
6	   C	-4.701	-2.579	1.415	C.2	1	UNK0	0.000	
7	   C	-4.086	-3.651	2.005	C.2	1	UNK0	0.000	
8	   C	-0.707	-3.632	0.531	C.2	1	UNK0	0.000	
9	   N	0.063	-3.068	-0.253	N.2	1	UNK0	0.000	
10	   N	-0.124	-1.996	-1.030	N.pl3	1	UNK0	0.000	
11	   C	0.409	-0.713	-0.606	C.2	1	UNK0	0.000	
12	   N	0.247	0.391	-1.352	N.2	1	UNK0	0.000	
13	   C	0.725	1.578	-0.985	C.2	1	UNK0	0.000	
14	   N	1.390	1.645	0.181	N.2	1	UNK0	0.000	
15	   C	1.588	0.586	0.973	C.2	1	UNK0	0.000	
16	   N	1.083	-0.590	0.554	N.2	1	UNK0	0.000	
17	   N	2.295	0.693	2.199	N.pl3	1	UNK0	0.000	
18	   C	2.849	1.955	2.639	C.3	1	UNK0	0.000	
19	   C	2.703	2.082	4.132	C.3	1	UNK0	0.000	
20	   O	3.190	1.011	4.837	O.3	1	UNK0	0.000	
21	   C	3.538	-0.078	4.077	C.3	1	UNK0	0.000	
22	   C	2.486	-0.459	3.051	C.3	1	UNK0	0.000	
23	   N	0.569	2.762	-1.753	N.pl3	1	UNK0	0.000	
24	   C	-0.127	2.774	-3.030	C.3	1	UNK0	0.000	
25	   C	0.060	4.109	-3.691	C.3	1	UNK0	0.000	
26	   O	1.368	4.562	-3.628	O.3	1	UNK0	0.000	
27	   C	1.837	4.761	-2.355	C.3	1	UNK0	0.000	
28	   C	1.106	4.023	-1.285	C.3	1	UNK0	0.000	
29	   H	-2.222	-1.542	-0.484	 H	1	UNK0	0.000	
30	   H	-4.481	-0.962	0.031	 H	1	UNK0	0.000	
31	   H	-5.734	-2.320	1.655	 H	1	UNK0	0.000	
32	   H	-4.622	-4.273	2.733	 H	1	UNK0	0.000	
33	   H	-0.340	-4.542	1.101	 H	1	UNK0	0.000	
34	   H	-0.612	-1.977	-1.973	 H	1	UNK0	0.000	
35	   H	2.312	2.787	2.170	 H	1	UNK0	0.000	
36	   H	3.929	2.036	2.398	 H	1	UNK0	0.000	
37	   H	3.243	3.030	4.415	 H	1	UNK0	0.000	
38	   H	1.646	2.250	4.435	 H	1	UNK0	0.000	
39	   H	4.473	0.110	3.518	 H	1	UNK0	0.000	
40	   H	3.718	-0.954	4.717	 H	1	UNK0	0.000	
41	   H	1.535	-0.653	3.574	 H	1	UNK0	0.000	
42	   H	2.882	-1.335	2.503	 H	1	UNK0	0.000	
43	   H	-1.206	2.648	-2.808	 H	1	UNK0	0.000	
44	   H	0.187	1.929	-3.675	 H	1	UNK0	0.000	
45	   H	-0.683	4.862	-3.353	 H	1	UNK0	0.000	
46	   H	-0.157	3.952	-4.788	 H	1	UNK0	0.000	
47	   H	2.909	4.404	-2.335	 H	1	UNK0	0.000	
48	   H	1.893	5.831	-2.063	 H	1	UNK0	0.000	
49	   H	1.778	3.863	-0.396	 H	1	UNK0	0.000	
50	   H	0.242	4.613	-0.905	 H	1	UNK0	0.000	
@<TRIPOS>BOND
1 1 2 1
2 2 3 2
3 2 7 1
4 3 4 1
5 3 8 1
6 4 5 2
7 5 6 1
8 6 7 2
9 8 9 2
10 9 10 1
11 10 11 1
12 11 12 2
13 11 16 1
14 12 13 1
15 13 14 2
16 13 23 1
17 14 15 1
18 15 16 2
19 15 17 1
20 17 18 1
21 17 22 1
22 18 19 1
23 19 20 1
24 20 21 1
25 21 22 1
26 23 24 1
27 23 28 1
28 24 25 1
29 25 26 1
30 26 27 1
31 27 28 1
32 4 29 1
33 5 30 1
34 6 31 1
35 7 32 1
36 8 33 1
37 10 34 1
38 18 35 1
39 18 36 1
40 19 37 1
41 19 38 1
42 21 39 1
43 21 40 1
44 22 41 1
45 22 42 1
46 24 43 1
47 24 44 1
48 25 45 1
49 25 46 1
50 27 47 1
51 27 48 1
52 28 49 1
53 28 50 1
@<TRIPOS>SUBSTRUCTURE
1	UNK0	1	GROUP	1 ****	UNK
