# created with PyMOL 2.3.2
@<TRIPOS>MOLECULE
1268
41 44 1                 
SMALL
USER_CHARGES
@<TRIPOS>ATOM
1	  Br	3.985	1.564	-4.099	Br	1	UNK0	0.000	
2	   C	3.109	0.770	-2.609	C.2	1	UNK0	0.000	
3	   C	2.062	1.431	-2.000	C.2	1	UNK0	0.000	
4	   C	1.413	0.856	-0.906	C.2	1	UNK0	0.000	
5	   C	1.852	-0.374	-0.470	C.2	1	UNK0	0.000	
6	   C	2.916	-1.039	-1.095	C.2	1	UNK0	0.000	
7	   C	3.549	-0.461	-2.174	C.2	1	UNK0	0.000	
8	   N	1.183	-0.938	0.648	N.pl3	1	UNK0	0.000	
9	   N	0.464	-2.043	0.613	N.2	1	UNK0	0.000	
10	   N	-0.032	-2.320	1.803	N.2	1	UNK0	0.000	
11	   N	0.362	-1.394	2.623	N.2	1	UNK0	0.000	
12	   C	1.114	-0.530	1.927	C.2	1	UNK0	0.000	
13	   C	0.301	1.524	-0.248	C.2	1	UNK0	0.000	
14	   O	0.460	2.280	0.712	O.2	1	UNK0	0.000	
15	   N	-1.021	1.302	-0.724	N.pl3	1	UNK0	0.000	
16	   C	-2.165	1.937	-0.111	C.3	1	UNK0	0.000	
17	   C	-3.177	0.889	0.233	C.3	1	UNK0	0.000	
18	   N	-2.811	-0.449	-0.174	N.pl3	1	UNK0	0.000	
19	   C	-2.128	-0.723	-1.411	C.3	1	UNK0	0.000	
20	   C	-1.273	0.434	-1.854	C.3	1	UNK0	0.000	
21	   C	-3.143	-1.557	0.687	C.2	1	UNK0	0.000	
22	   N	-2.827	-2.818	0.345	N.2	1	UNK0	0.000	
23	   C	-3.109	-3.882	1.103	C.2	1	UNK0	0.000	
24	   C	-3.762	-3.669	2.304	C.2	1	UNK0	0.000	
25	   C	-4.104	-2.392	2.691	C.2	1	UNK0	0.000	
26	   N	-3.777	-1.382	1.859	N.2	1	UNK0	0.000	
27	   H	1.707	2.410	-2.341	 H	1	UNK0	0.000	
28	   H	3.222	-2.016	-0.704	 H	1	UNK0	0.000	
29	   H	4.363	-1.003	-2.628	 H	1	UNK0	0.000	
30	   H	1.607	0.373	2.319	 H	1	UNK0	0.000	
31	   H	-2.616	2.639	-0.872	 H	1	UNK0	0.000	
32	   H	-1.866	2.556	0.761	 H	1	UNK0	0.000	
33	   H	-3.308	0.929	1.356	 H	1	UNK0	0.000	
34	   H	-4.153	1.116	-0.248	 H	1	UNK0	0.000	
35	   H	-2.913	-0.906	-2.203	 H	1	UNK0	0.000	
36	   H	-1.515	-1.642	-1.321	 H	1	UNK0	0.000	
37	   H	-1.806	1.025	-2.626	 H	1	UNK0	0.000	
38	   H	-0.350	0.061	-2.325	 H	1	UNK0	0.000	
39	   H	-2.847	-4.886	0.811	 H	1	UNK0	0.000	
40	   H	-4.010	-4.525	2.952	 H	1	UNK0	0.000	
41	   H	-4.617	-2.229	3.636	 H	1	UNK0	0.000	
@<TRIPOS>BOND
1 1 2 1
2 2 3 2
3 2 7 1
4 3 4 1
5 4 5 2
6 4 13 1
7 5 6 1
8 5 8 1
9 6 7 2
10 8 9 1
11 8 12 1
12 9 10 2
13 10 11 1
14 11 12 2
15 13 14 2
16 13 15 1
17 15 16 1
18 15 20 1
19 16 17 1
20 17 18 1
21 18 19 1
22 18 21 1
23 19 20 1
24 21 22 2
25 21 26 1
26 22 23 1
27 23 24 2
28 24 25 1
29 25 26 2
30 3 27 1
31 6 28 1
32 7 29 1
33 12 30 1
34 16 31 1
35 16 32 1
36 17 33 1
37 17 34 1
38 19 35 1
39 19 36 1
40 20 37 1
41 20 38 1
42 23 39 1
43 24 40 1
44 25 41 1
@<TRIPOS>SUBSTRUCTURE
1	UNK0	1	GROUP	1 ****	UNK
