# created with PyMOL 2.3.2
@<TRIPOS>MOLECULE
1276
52 55 1                 
SMALL
USER_CHARGES
@<TRIPOS>ATOM
1	  Br	0.816	-4.077	-6.109	Br	1	UNK0	0.000	
2	   C	-0.211	-3.682	-4.525	C.2	1	UNK0	0.000	
3	   C	0.163	-4.139	-3.289	C.2	1	UNK0	0.000	
4	   C	-0.584	-3.862	-2.147	C.2	1	UNK0	0.000	
5	   C	-1.703	-3.118	-2.262	C.2	1	UNK0	0.000	
6	   C	-2.112	-2.633	-3.530	C.2	1	UNK0	0.000	
7	   C	-1.365	-2.917	-4.662	C.2	1	UNK0	0.000	
8	   C	-0.076	-4.349	-0.852	C.2	1	UNK0	0.000	
9	   C	-0.214	-3.558	0.184	C.2	1	UNK0	0.000	
10	   O	-0.812	-2.320	0.061	O.3	1	UNK0	0.000	
11	   C	-0.840	-1.647	1.277	C.2	1	UNK0	0.000	
12	   C	-0.264	-2.420	2.235	C.2	1	UNK0	0.000	
13	   C	-0.142	-1.956	3.530	C.2	1	UNK0	0.000	
14	   C	-0.637	-0.696	3.779	C.2	1	UNK0	0.000	
15	   C	-1.237	0.104	2.792	C.2	1	UNK0	0.000	
16	   C	-1.336	-0.389	1.541	C.2	1	UNK0	0.000	
17	   C	-2.187	0.194	0.473	C.3	1	UNK0	0.000	
18	   N	-1.687	1.247	-0.314	N.4	1	UNK0	0.000	
19	   C	-1.879	2.588	-0.018	C.3	1	UNK0	0.000	
20	   C	-0.695	3.454	0.309	C.3	1	UNK0	0.000	
21	   N	0.510	2.964	-0.203	N.3	1	UNK0	0.000	
22	   C	0.402	2.065	-1.304	C.3	1	UNK0	0.000	
23	   C	-0.387	0.854	-0.892	C.3	1	UNK0	0.000	
24	   C	1.737	3.140	0.421	C.3	1	UNK0	0.000	
25	   C	1.928	2.438	1.752	C.3	1	UNK0	0.000	
26	   O	0.975	2.852	2.683	O.3	1	UNK0	0.000	
27	   O	-1.702	1.366	3.154	O.2	1	UNK0	0.000	
28	   C	0.163	-3.685	1.577	C.2	1	UNK0	0.000	
29	   O	0.727	-4.657	2.103	O.2	1	UNK0	0.000	
30	   H	1.074	-4.741	-3.162	 H	1	UNK0	0.000	
31	   H	-2.318	-2.885	-1.406	 H	1	UNK0	0.000	
32	   H	-2.987	-2.053	-3.587	 H	1	UNK0	0.000	
33	   H	-1.641	-2.574	-5.650	 H	1	UNK0	0.000	
34	   H	0.373	-5.294	-0.742	 H	1	UNK0	0.000	
35	   H	0.317	-2.578	4.297	 H	1	UNK0	0.000	
36	   H	-0.543	-0.323	4.788	 H	1	UNK0	0.000	
37	   H	-3.132	0.610	1.032	 H	1	UNK0	0.000	
38	   H	-2.658	-0.659	-0.088	 H	1	UNK0	0.000	
39	   H	-2.311	1.116	-1.256	 H	1	UNK0	0.000	
40	   H	-2.460	3.126	-0.869	 H	1	UNK0	0.000	
41	   H	-2.623	2.714	0.830	 H	1	UNK0	0.000	
42	   H	-0.721	3.749	1.371	 H	1	UNK0	0.000	
43	   H	-0.879	4.450	-0.230	 H	1	UNK0	0.000	
44	   H	1.385	1.736	-1.676	 H	1	UNK0	0.000	
45	   H	-0.140	2.529	-2.171	 H	1	UNK0	0.000	
46	   H	0.195	0.272	-0.150	 H	1	UNK0	0.000	
47	   H	-0.513	0.204	-1.764	 H	1	UNK0	0.000	
48	   H	1.979	4.212	0.564	 H	1	UNK0	0.000	
49	   H	2.530	2.753	-0.298	 H	1	UNK0	0.000	
50	   H	2.923	2.707	2.153	 H	1	UNK0	0.000	
51	   H	1.848	1.349	1.691	 H	1	UNK0	0.000	
52	   H	1.415	2.766	3.590	 H	1	UNK0	0.000	
@<TRIPOS>BOND
1 1 2 1
2 2 3 2
3 2 7 1
4 3 4 1
5 4 5 2
6 4 8 1
7 5 6 1
8 6 7 2
9 8 9 2
10 9 10 1
11 9 28 1
12 10 11 1
13 11 12 2
14 11 16 1
15 12 13 1
16 12 28 1
17 13 14 2
18 14 15 1
19 15 16 2
20 15 27 1
21 16 17 1
22 17 18 1
23 18 19 1
24 18 23 1
25 19 20 1
26 20 21 1
27 21 22 1
28 21 24 1
29 22 23 1
30 24 25 1
31 25 26 1
32 28 29 2
33 3 30 1
34 5 31 1
35 6 32 1
36 7 33 1
37 8 34 1
38 13 35 1
39 14 36 1
40 17 37 1
41 17 38 1
42 18 39 1
43 19 40 1
44 19 41 1
45 20 42 1
46 20 43 1
47 22 44 1
48 22 45 1
49 23 46 1
50 23 47 1
51 24 48 1
52 24 49 1
53 25 50 1
54 25 51 1
55 26 52 1
@<TRIPOS>SUBSTRUCTURE
1	UNK0	1	GROUP	1 ****	UNK
