# created with PyMOL 2.3.2
@<TRIPOS>MOLECULE
1277
47 49 1                 
SMALL
USER_CHARGES
@<TRIPOS>ATOM
1	  Br	-2.668	-0.037	2.682	Br	1	UNK0	0.000	
2	   C	-1.382	-1.043	1.711	C.2	1	UNK0	0.000	
3	   C	-0.605	-0.424	0.747	C.2	1	UNK0	0.000	
4	   C	0.315	-1.180	0.064	C.2	1	UNK0	0.000	
5	   C	0.431	-2.510	0.358	C.2	1	UNK0	0.000	
6	   C	-0.339	-3.141	1.319	C.2	1	UNK0	0.000	
7	   C	-1.254	-2.389	1.999	C.2	1	UNK0	0.000	
8	   C	1.184	-0.600	-0.986	C.3	1	UNK0	0.000	
9	   C	2.356	0.052	-0.378	C.2	1	UNK0	0.000	
10	   C	2.692	1.334	-0.701	C.2	1	UNK0	0.000	
11	   C	3.815	1.887	-0.087	C.2	1	UNK0	0.000	
12	   C	4.568	1.170	0.817	C.2	1	UNK0	0.000	
13	   C	4.195	-0.122	1.116	C.2	1	UNK0	0.000	
14	   C	3.111	-0.702	0.544	C.2	1	UNK0	0.000	
15	   O	5.681	1.769	1.403	O.2	1	UNK0	0.000	
16	   O	1.958	2.102	-1.613	O.3	1	UNK0	0.000	
17	   C	0.856	1.481	-2.180	C.2	1	UNK0	0.000	
18	   C	0.481	0.258	-1.915	C.2	1	UNK0	0.000	
19	   C	-0.720	-0.215	-2.625	C.1	1	UNK0	0.000	
20	   N	-1.667	-0.610	-3.175	N.1	1	UNK0	0.000	
21	   N	0.086	2.263	-3.127	N.pl3	1	UNK0	0.000	
22	   N	0.610	0.884	0.342	N.4	1	UNK0	0.000	
23	   C	0.113	0.307	1.551	C.3	1	UNK0	0.000	
24	   C	-0.757	-0.871	1.398	C.3	1	UNK0	0.000	
25	   O	-0.862	-1.455	0.194	O.3	1	UNK0	0.000	
26	   C	-0.549	-0.746	-0.912	C.3	1	UNK0	0.000	
27	   C	0.811	-0.094	-0.710	C.3	1	UNK0	0.000	
28	   H	-0.743	0.637	0.557	 H	1	UNK0	0.000	
29	   H	1.143	-3.175	-0.152	 H	1	UNK0	0.000	
30	   H	-0.228	-4.196	1.534	 H	1	UNK0	0.000	
31	   H	-1.862	-2.875	2.754	 H	1	UNK0	0.000	
32	   H	1.622	-1.485	-1.566	 H	1	UNK0	0.000	
33	   H	4.054	2.919	-0.370	 H	1	UNK0	0.000	
34	   H	4.796	-0.685	1.834	 H	1	UNK0	0.000	
35	   H	2.797	-1.734	0.771	 H	1	UNK0	0.000	
36	   H	-0.500	1.771	-3.825	 H	1	UNK0	0.000	
37	   H	0.104	3.298	-3.126	 H	1	UNK0	0.000	
38	   H	-0.073	1.593	-0.022	 H	1	UNK0	0.000	
39	   H	1.523	1.380	0.508	 H	1	UNK0	0.000	
40	   H	1.016	0.086	2.194	 H	1	UNK0	0.000	
41	   H	-0.408	1.138	2.114	 H	1	UNK0	0.000	
42	   H	-1.792	-0.606	1.761	 H	1	UNK0	0.000	
43	   H	-0.414	-1.656	2.136	 H	1	UNK0	0.000	
44	   H	-1.266	0.094	-1.068	 H	1	UNK0	0.000	
45	   H	-0.546	-1.433	-1.792	 H	1	UNK0	0.000	
46	   H	1.041	0.464	-1.637	 H	1	UNK0	0.000	
47	   H	1.592	-0.828	-0.442	 H	1	UNK0	0.000	
@<TRIPOS>BOND
1 1 2 1
2 2 3 2
3 2 7 1
4 3 4 1
5 4 5 2
6 4 8 1
7 5 6 1
8 6 7 2
9 8 9 1
10 8 18 1
11 9 10 1
12 9 14 2
13 10 11 2
14 10 16 1
15 11 12 1
16 12 13 2
17 12 15 1
18 13 14 1
19 16 17 1
20 17 18 2
21 17 21 1
22 18 19 1
23 19 20 3
24 22 23 1
25 22 27 1
26 23 24 1
27 24 25 1
28 25 26 1
29 26 27 1
30 3 28 1
31 5 29 1
32 6 30 1
33 7 31 1
34 8 32 1
35 11 33 1
36 13 34 1
37 14 35 1
38 21 36 1
39 21 37 1
40 22 38 1
41 22 39 1
42 23 40 1
43 23 41 1
44 24 42 1
45 24 43 1
46 26 44 1
47 26 45 1
48 27 46 1
49 27 47 1
@<TRIPOS>SUBSTRUCTURE
1	UNK0	1	GROUP	1 ****	UNK
