# created with PyMOL 2.3.2
@<TRIPOS>MOLECULE
1278
45 47 1                 
SMALL
USER_CHARGES
@<TRIPOS>ATOM
1	  Br	-2.019	1.620	-3.703	Br	1	UNK0	0.000	
2	   C	-1.127	0.159	-2.864	C.2	1	UNK0	0.000	
3	   C	-0.489	0.310	-1.640	C.2	1	UNK0	0.000	
4	   C	0.161	-0.724	-1.012	C.2	1	UNK0	0.000	
5	   C	0.176	-1.952	-1.625	C.2	1	UNK0	0.000	
6	   C	-0.460	-2.139	-2.862	C.2	1	UNK0	0.000	
7	   C	-1.105	-1.080	-3.469	C.2	1	UNK0	0.000	
8	   C	0.846	-0.502	0.304	C.3	1	UNK0	0.000	
9	   C	-0.140	-0.259	1.374	C.2	1	UNK0	0.000	
10	   C	-0.262	0.897	2.095	C.2	1	UNK0	0.000	
11	   N	-1.196	1.000	3.039	N.2	1	UNK0	0.000	
12	   C	-2.055	0.016	3.345	C.2	1	UNK0	0.000	
13	   N	-1.924	-1.112	2.629	N.2	1	UNK0	0.000	
14	   C	-1.023	-1.304	1.670	C.2	1	UNK0	0.000	
15	   O	-0.951	-2.524	0.963	O.3	1	UNK0	0.000	
16	   O	-3.027	0.157	4.345	O.3	1	UNK0	0.000	
17	   O	0.612	1.965	1.821	O.3	1	UNK0	0.000	
18	   C	1.550	1.784	0.831	C.2	1	UNK0	0.000	
19	   C	1.686	0.688	0.128	C.2	1	UNK0	0.000	
20	   C	2.725	0.625	-0.895	C.1	1	UNK0	0.000	
21	   N	3.548	0.563	-1.691	N.1	1	UNK0	0.000	
22	   N	2.451	2.879	0.545	N.pl3	1	UNK0	0.000	
23	   O	0.227	1.583	-0.127	O.3	1	UNK0	0.000	
24	   C	1.368	1.126	-0.798	C.3	1	UNK0	0.000	
25	   C	2.434	0.777	0.232	C.3	1	UNK0	0.000	
26	   O	2.015	-0.374	0.882	O.3	1	UNK0	0.000	
27	   C	0.639	-0.424	1.020	C.3	1	UNK0	0.000	
28	   C	0.097	0.981	1.115	C.3	1	UNK0	0.000	
29	   H	-0.496	1.263	-1.157	 H	1	UNK0	0.000	
30	   H	0.670	-2.785	-1.187	 H	1	UNK0	0.000	
31	   H	-0.465	-3.082	-3.362	 H	1	UNK0	0.000	
32	   H	-1.602	-1.228	-4.437	 H	1	UNK0	0.000	
33	   H	1.449	-1.401	0.581	 H	1	UNK0	0.000	
34	   H	-0.636	-3.312	1.548	 H	1	UNK0	0.000	
35	   H	-3.993	0.338	4.042	 H	1	UNK0	0.000	
36	   H	2.153	3.855	0.659	 H	1	UNK0	0.000	
37	   H	3.411	2.690	0.222	 H	1	UNK0	0.000	
38	   H	1.724	1.913	-1.497	 H	1	UNK0	0.000	
39	   H	1.162	0.201	-1.364	 H	1	UNK0	0.000	
40	   H	2.574	1.629	0.914	 H	1	UNK0	0.000	
41	   H	3.386	0.544	-0.274	 H	1	UNK0	0.000	
42	   H	0.371	-0.994	1.921	 H	1	UNK0	0.000	
43	   H	0.175	-0.955	0.161	 H	1	UNK0	0.000	
44	   H	0.709	1.500	1.896	 H	1	UNK0	0.000	
45	   H	-0.941	0.923	1.474	 H	1	UNK0	0.000	
@<TRIPOS>BOND
1 1 2 1
2 2 3 2
3 2 7 1
4 3 4 1
5 4 5 2
6 4 8 1
7 5 6 1
8 6 7 2
9 8 9 1
10 8 19 1
11 9 10 1
12 9 14 2
13 10 11 2
14 10 17 1
15 11 12 1
16 12 13 2
17 12 16 1
18 13 14 1
19 14 15 1
20 17 18 1
21 18 19 2
22 18 22 1
23 19 20 1
24 20 21 3
25 23 24 1
26 23 28 1
27 24 25 1
28 25 26 1
29 26 27 1
30 27 28 1
31 3 29 1
32 5 30 1
33 6 31 1
34 7 32 1
35 8 33 1
36 15 34 1
37 16 35 1
38 22 36 1
39 22 37 1
40 24 38 1
41 24 39 1
42 25 40 1
43 25 41 1
44 27 42 1
45 27 43 1
46 28 44 1
47 28 45 1
@<TRIPOS>SUBSTRUCTURE
1	UNK0	1	GROUP	1 ****	UNK
