# created with PyMOL 2.3.2
@<TRIPOS>MOLECULE
1279
39 42 1                 
SMALL
USER_CHARGES
@<TRIPOS>ATOM
1	  Br	-0.949	-4.774	-1.558	Br	1	UNK0	0.000	
2	   C	-0.117	-3.703	-0.200	C.2	1	UNK0	0.000	
3	   C	-0.464	-2.382	-0.143	C.2	1	UNK0	0.000	
4	   C	0.116	-1.590	0.819	C.2	1	UNK0	0.000	
5	   C	1.017	-2.151	1.684	C.2	1	UNK0	0.000	
6	   C	1.366	-3.498	1.620	C.2	1	UNK0	0.000	
7	   C	0.787	-4.294	0.658	C.2	1	UNK0	0.000	
8	   C	-0.197	-0.152	0.975	C.3	1	UNK0	0.000	
9	   C	0.385	0.599	-0.143	C.2	1	UNK0	0.000	
10	   C	-0.426	1.175	-1.076	C.2	1	UNK0	0.000	
11	   N	-1.838	1.243	-0.937	N.pl3	1	UNK0	0.000	
12	   C	-2.345	0.667	0.278	C.2	1	UNK0	0.000	
13	   C	-1.599	0.130	1.196	C.2	1	UNK0	0.000	
14	   C	-2.390	-0.115	2.451	C.2	1	UNK0	0.000	
15	   O	-1.958	-0.623	3.519	O.co2	1	UNK0	0.000	
16	   O	-3.657	0.339	2.145	O.3	1	UNK0	0.000	
17	   C	-3.779	0.535	0.754	C.3	1	UNK0	0.000	
18	   N	0.195	1.778	-2.140	N.pl3	1	UNK0	0.000	
19	   C	1.523	1.811	-2.270	C.2	1	UNK0	0.000	
20	   O	2.051	2.368	-3.250	O.2	1	UNK0	0.000	
21	   N	2.291	1.240	-1.337	N.pl3	1	UNK0	0.000	
22	   C	1.792	0.623	-0.257	C.2	1	UNK0	0.000	
23	   O	2.542	0.089	0.614	O.2	1	UNK0	0.000	
24	   C	3.751	1.277	-1.477	C.3	1	UNK0	0.000	
25	   C	-0.664	2.395	-3.147	C.3	1	UNK0	0.000	
26	   H	-1.174	-1.916	-0.817	 H	1	UNK0	0.000	
27	   H	1.516	-1.580	2.486	 H	1	UNK0	0.000	
28	   H	2.082	-3.926	2.314	 H	1	UNK0	0.000	
29	   H	1.034	-5.364	0.572	 H	1	UNK0	0.000	
30	   H	0.388	0.213	1.891	 H	1	UNK0	0.000	
31	   H	-2.452	1.673	-1.654	 H	1	UNK0	0.000	
32	   H	-4.358	1.430	0.483	 H	1	UNK0	0.000	
33	   H	-4.244	-0.375	0.327	 H	1	UNK0	0.000	
34	   H	4.172	0.332	-1.126	 H	1	UNK0	0.000	
35	   H	4.182	2.094	-0.862	 H	1	UNK0	0.000	
36	   H	3.991	1.393	-2.541	 H	1	UNK0	0.000	
37	   H	-1.120	3.270	-2.679	 H	1	UNK0	0.000	
38	   H	-1.424	1.631	-3.441	 H	1	UNK0	0.000	
39	   H	-0.082	2.661	-4.037	 H	1	UNK0	0.000	
@<TRIPOS>BOND
1 1 2 1
2 2 3 2
3 2 7 1
4 3 4 1
5 4 5 2
6 4 8 1
7 5 6 1
8 6 7 2
9 8 9 1
10 8 13 1
11 9 10 2
12 9 22 1
13 10 11 1
14 10 18 1
15 11 12 1
16 12 13 2
17 12 17 1
18 13 14 1
19 14 15 2
20 14 16 1
21 16 17 1
22 18 19 1
23 18 25 1
24 19 20 2
25 19 21 1
26 21 22 1
27 21 24 1
28 22 23 2
29 3 26 1
30 5 27 1
31 6 28 1
32 7 29 1
33 8 30 1
34 11 31 1
35 17 32 1
36 17 33 1
37 24 34 1
38 24 35 1
39 24 36 1
40 25 37 1
41 25 38 1
42 25 39 1
@<TRIPOS>SUBSTRUCTURE
1	UNK0	1	GROUP	1 ****	UNK
