# created with PyMOL 2.3.2
@<TRIPOS>MOLECULE
1280
63 66 1                 
SMALL
USER_CHARGES
@<TRIPOS>ATOM
1	  Br	-0.709	-4.275	-6.182	Br	1	UNK0	0.000	
2	   C	-1.429	-3.043	-4.895	C.2	1	UNK0	0.000	
3	   C	-0.763	-2.816	-3.685	C.2	1	UNK0	0.000	
4	   C	-1.262	-1.932	-2.739	C.2	1	UNK0	0.000	
5	   C	-2.433	-1.296	-3.047	C.2	1	UNK0	0.000	
6	   C	-3.108	-1.509	-4.242	C.2	1	UNK0	0.000	
7	   C	-2.601	-2.387	-5.170	C.2	1	UNK0	0.000	
8	   C	-0.552	-1.733	-1.467	C.3	1	UNK0	0.000	
9	   N	0.871	-1.943	-1.644	N.pl3	1	UNK0	0.000	
10	   C	1.396	-0.755	-2.211	C.2	1	UNK0	0.000	
11	   O	2.414	-0.683	-2.907	O.2	1	UNK0	0.000	
12	   C	0.494	0.336	-1.803	C.2	1	UNK0	0.000	
13	   O	0.592	1.556	-2.080	O.2	1	UNK0	0.000	
14	   C	-0.540	-0.306	-1.001	C.2	1	UNK0	0.000	
15	   C	-1.255	0.283	-0.053	C.2	1	UNK0	0.000	
16	   O	-2.170	-0.555	0.627	O.2	1	UNK0	0.000	
17	   C	-1.141	1.694	0.299	C.2	1	UNK0	0.000	
18	   C	-1.623	2.720	-0.458	C.2	1	UNK0	0.000	
19	   C	-1.425	4.057	-0.068	C.2	1	UNK0	0.000	
20	   C	-0.751	4.399	1.073	C.2	1	UNK0	0.000	
21	   C	-0.264	3.363	1.841	C.2	1	UNK0	0.000	
22	   C	-0.451	2.057	1.471	C.2	1	UNK0	0.000	
23	   O	-0.553	5.723	1.465	O.3	1	UNK0	0.000	
24	   C	0.145	6.023	2.646	C.3	1	UNK0	0.000	
25	   C	-2.408	2.444	-1.684	C.3	1	UNK0	0.000	
26	   C	1.566	-3.164	-1.294	C.3	1	UNK0	0.000	
27	   C	2.137	-3.155	0.089	C.3	1	UNK0	0.000	
28	   C	1.162	-2.992	1.192	C.3	1	UNK0	0.000	
29	   N	1.711	-2.976	2.501	N.4	1	UNK0	0.000	
30	   C	0.960	-2.133	3.446	C.3	1	UNK0	0.000	
31	   C	1.957	-1.784	4.553	C.3	1	UNK0	0.000	
32	   O	3.102	-2.557	4.484	O.3	1	UNK0	0.000	
33	   C	2.785	-3.913	4.399	C.3	1	UNK0	0.000	
34	   C	1.937	-4.216	3.150	C.3	1	UNK0	0.000	
35	   H	0.141	-3.360	-3.539	 H	1	UNK0	0.000	
36	   H	-2.861	-0.621	-2.345	 H	1	UNK0	0.000	
37	   H	-4.029	-1.001	-4.473	 H	1	UNK0	0.000	
38	   H	-3.087	-2.594	-6.127	 H	1	UNK0	0.000	
39	   H	-1.009	-2.417	-0.722	 H	1	UNK0	0.000	
40	   H	-1.819	4.866	-0.694	 H	1	UNK0	0.000	
41	   H	0.274	3.642	2.754	 H	1	UNK0	0.000	
42	   H	-0.063	1.263	2.087	 H	1	UNK0	0.000	
43	   H	-0.367	5.596	3.551	 H	1	UNK0	0.000	
44	   H	0.205	7.100	2.830	 H	1	UNK0	0.000	
45	   H	1.175	5.607	2.681	 H	1	UNK0	0.000	
46	   H	-2.086	1.563	-2.251	 H	1	UNK0	0.000	
47	   H	-2.299	3.310	-2.406	 H	1	UNK0	0.000	
48	   H	-3.513	2.436	-1.457	 H	1	UNK0	0.000	
49	   H	0.813	-3.988	-1.334	 H	1	UNK0	0.000	
50	   H	2.347	-3.446	-2.024	 H	1	UNK0	0.000	
51	   H	2.744	-4.101	0.170	 H	1	UNK0	0.000	
52	   H	2.918	-2.336	0.142	 H	1	UNK0	0.000	
53	   H	0.456	-3.859	1.141	 H	1	UNK0	0.000	
54	   H	0.552	-2.084	0.995	 H	1	UNK0	0.000	
55	   H	2.660	-2.497	2.428	 H	1	UNK0	0.000	
56	   H	0.549	-1.236	2.978	 H	1	UNK0	0.000	
57	   H	0.128	-2.765	3.839	 H	1	UNK0	0.000	
58	   H	2.297	-0.717	4.410	 H	1	UNK0	0.000	
59	   H	1.456	-1.793	5.526	 H	1	UNK0	0.000	
60	   H	2.249	-4.173	5.336	 H	1	UNK0	0.000	
61	   H	3.721	-4.514	4.411	 H	1	UNK0	0.000	
62	   H	1.021	-4.710	3.526	 H	1	UNK0	0.000	
63	   H	2.554	-4.887	2.526	 H	1	UNK0	0.000	
@<TRIPOS>BOND
1 1 2 1
2 2 3 2
3 2 7 1
4 3 4 1
5 4 5 2
6 4 8 1
7 5 6 1
8 6 7 2
9 8 9 1
10 8 14 1
11 9 10 1
12 9 26 1
13 10 11 2
14 10 12 1
15 12 13 2
16 12 14 1
17 14 15 2
18 15 16 1
19 15 17 1
20 17 18 2
21 17 22 1
22 18 19 1
23 18 25 1
24 19 20 2
25 20 21 1
26 20 23 1
27 21 22 2
28 23 24 1
29 26 27 1
30 27 28 1
31 28 29 1
32 29 30 1
33 29 34 1
34 30 31 1
35 31 32 1
36 32 33 1
37 33 34 1
38 3 35 1
39 5 36 1
40 6 37 1
41 7 38 1
42 8 39 1
43 19 40 1
44 21 41 1
45 22 42 1
46 24 43 1
47 24 44 1
48 24 45 1
49 25 46 1
50 25 47 1
51 25 48 1
52 26 49 1
53 26 50 1
54 27 51 1
55 27 52 1
56 28 53 1
57 28 54 1
58 29 55 1
59 30 56 1
60 30 57 1
61 31 58 1
62 31 59 1
63 33 60 1
64 33 61 1
65 34 62 1
66 34 63 1
@<TRIPOS>SUBSTRUCTURE
1	UNK0	1	GROUP	1 ****	UNK
