# created with PyMOL 2.3.2
@<TRIPOS>MOLECULE
1281
44 47 1                 
SMALL
USER_CHARGES
@<TRIPOS>ATOM
1	  Cl	-1.454	-6.671	-1.056	Cl	1	UNK0	0.000	
2	   C	-1.836	-5.276	-0.094	C.2	1	UNK0	0.000	
3	   C	-3.109	-5.114	0.389	C.2	1	UNK0	0.000	
4	   C	-3.345	-3.990	1.142	C.2	1	UNK0	0.000	
5	   C	-2.350	-3.080	1.394	C.2	1	UNK0	0.000	
6	   C	-1.043	-3.235	0.905	C.2	1	UNK0	0.000	
7	   C	-0.815	-4.362	0.153	C.2	1	UNK0	0.000	
8	   C	-0.026	-2.255	1.209	C.2	1	UNK0	0.000	
9	   N	1.264	-2.173	0.817	N.pl3	1	UNK0	0.000	
10	   C	1.817	-1.064	1.367	C.2	1	UNK0	0.000	
11	   N	0.900	-0.424	2.111	N.pl3	1	UNK0	0.000	
12	   C	-0.238	-1.153	2.017	C.2	1	UNK0	0.000	
13	   C	1.114	0.801	2.855	C.3	1	UNK0	0.000	
14	   C	0.794	1.979	1.971	C.2	1	UNK0	0.000	
15	   O	0.939	3.114	2.500	O.2	1	UNK0	0.000	
16	   N	0.373	1.720	0.669	N.pl3	1	UNK0	0.000	
17	   C	0.035	2.721	-0.283	C.2	1	UNK0	0.000	
18	   C	0.074	4.062	-0.061	C.2	1	UNK0	0.000	
19	   C	-0.282	4.942	-1.079	C.2	1	UNK0	0.000	
20	   C	-0.681	4.524	-2.328	C.2	1	UNK0	0.000	
21	   C	-0.725	3.163	-2.567	C.2	1	UNK0	0.000	
22	   C	-0.374	2.310	-1.563	C.2	1	UNK0	0.000	
23	  Cl	-1.125	5.664	-3.592	Cl	1	UNK0	0.000	
24	   C	3.254	-0.939	0.959	C.3	1	UNK0	0.000	
25	   C	3.270	-1.764	-0.289	C.3	1	UNK0	0.000	
26	   C	2.248	-2.827	0.035	C.3	1	UNK0	0.000	
27	  Cl	-4.380	-6.282	0.063	Cl	1	UNK0	0.000	
28	   H	-4.354	-3.864	1.523	 H	1	UNK0	0.000	
29	   H	-2.569	-2.189	2.001	 H	1	UNK0	0.000	
30	   H	0.178	-4.525	-0.236	 H	1	UNK0	0.000	
31	   H	-1.159	-0.862	2.530	 H	1	UNK0	0.000	
32	   H	0.542	0.838	3.791	 H	1	UNK0	0.000	
33	   H	2.189	0.892	3.112	 H	1	UNK0	0.000	
34	   H	0.309	0.693	0.395	 H	1	UNK0	0.000	
35	   H	0.379	4.442	0.896	 H	1	UNK0	0.000	
36	   H	-0.243	6.010	-0.877	 H	1	UNK0	0.000	
37	   H	-1.029	2.760	-3.524	 H	1	UNK0	0.000	
38	   H	-0.406	1.229	-1.743	 H	1	UNK0	0.000	
39	   H	3.887	-1.318	1.764	 H	1	UNK0	0.000	
40	   H	3.511	0.106	0.697	 H	1	UNK0	0.000	
41	   H	4.268	-2.182	-0.527	 H	1	UNK0	0.000	
42	   H	2.874	-1.132	-1.118	 H	1	UNK0	0.000	
43	   H	2.797	-3.631	0.584	 H	1	UNK0	0.000	
44	   H	1.921	-3.216	-0.952	 H	1	UNK0	0.000	
@<TRIPOS>BOND
1 1 2 1
2 2 3 2
3 2 7 1
4 3 4 1
5 3 27 1
6 4 5 2
7 5 6 1
8 6 7 2
9 6 8 1
10 8 9 1
11 8 12 2
12 9 10 1
13 9 26 1
14 10 11 2
15 10 24 1
16 11 12 1
17 11 13 1
18 13 14 1
19 14 15 2
20 14 16 1
21 16 17 1
22 17 18 2
23 17 22 1
24 18 19 1
25 19 20 2
26 20 21 1
27 20 23 1
28 21 22 2
29 24 25 1
30 25 26 1
31 4 28 1
32 5 29 1
33 7 30 1
34 12 31 1
35 13 32 1
36 13 33 1
37 16 34 1
38 18 35 1
39 19 36 1
40 21 37 1
41 22 38 1
42 24 39 1
43 24 40 1
44 25 41 1
45 25 42 1
46 26 43 1
47 26 44 1
@<TRIPOS>SUBSTRUCTURE
1	UNK0	1	GROUP	1 ****	UNK
