# created with PyMOL 2.3.2
@<TRIPOS>MOLECULE
1283
47 50 1                 
SMALL
USER_CHARGES
@<TRIPOS>ATOM
1	  Br	-6.610	-2.168	3.232	Br	1	UNK0	0.000	
2	   C	-5.770	-1.632	1.604	C.2	1	UNK0	0.000	
3	   C	-4.401	-1.703	1.431	C.2	1	UNK0	0.000	
4	   C	-3.803	-1.320	0.262	C.2	1	UNK0	0.000	
5	   C	-4.614	-0.851	-0.768	C.2	1	UNK0	0.000	
6	   C	-5.963	-0.781	-0.602	C.2	1	UNK0	0.000	
7	   C	-6.564	-1.166	0.577	C.2	1	UNK0	0.000	
8	   C	-2.359	-1.381	0.068	C.2	1	UNK0	0.000	
9	   N	-1.581	-1.817	1.022	N.2	1	UNK0	0.000	
10	   N	-0.325	-1.940	1.034	N.pl3	1	UNK0	0.000	
11	   C	1.033	-2.074	1.048	C.2	1	UNK0	0.000	
12	   O	1.686	-3.035	1.453	O.2	1	UNK0	0.000	
13	   C	1.831	-0.917	0.504	C.2	1	UNK0	0.000	
14	   N	1.302	0.174	0.084	N.2	1	UNK0	0.000	
15	   N	2.254	1.083	-0.377	N.pl3	1	UNK0	0.000	
16	   C	3.498	0.462	-0.218	C.2	1	UNK0	0.000	
17	   N	4.688	0.864	-0.488	N.2	1	UNK0	0.000	
18	   N	5.774	0.029	-0.228	N.pl3	1	UNK0	0.000	
19	   C	5.623	-1.263	0.330	C.2	1	UNK0	0.000	
20	   C	6.679	-2.061	0.572	C.2	1	UNK0	0.000	
21	   C	4.285	-1.729	0.641	C.2	1	UNK0	0.000	
22	   O	4.066	-2.854	1.138	O.2	1	UNK0	0.000	
23	   N	3.224	-0.832	0.353	N.pl3	1	UNK0	0.000	
24	   C	1.923	2.388	-0.894	C.2	1	UNK0	0.000	
25	   C	0.635	2.881	-0.786	C.2	1	UNK0	0.000	
26	   C	0.261	4.111	-1.269	C.2	1	UNK0	0.000	
27	   C	1.202	4.915	-1.895	C.2	1	UNK0	0.000	
28	   C	2.486	4.431	-2.003	C.2	1	UNK0	0.000	
29	   C	2.864	3.172	-1.509	C.2	1	UNK0	0.000	
30	   O	-1.019	4.626	-1.174	O.3	1	UNK0	0.000	
31	   C	-2.006	3.846	-0.541	C.3	1	UNK0	0.000	
32	   H	-3.799	-2.080	2.278	 H	1	UNK0	0.000	
33	   H	-4.150	-0.543	-1.684	 H	1	UNK0	0.000	
34	   H	-6.569	-0.410	-1.412	 H	1	UNK0	0.000	
35	   H	-7.649	-1.097	0.695	 H	1	UNK0	0.000	
36	   H	-1.875	-1.086	-0.829	 H	1	UNK0	0.000	
37	   H	-0.462	-3.188	1.589	 H	1	UNK0	0.000	
38	   H	6.741	0.378	-0.460	 H	1	UNK0	0.000	
39	   H	7.655	-1.669	0.322	 H	1	UNK0	0.000	
40	   H	6.545	-3.046	0.995	 H	1	UNK0	0.000	
41	   H	-0.077	2.236	-0.293	 H	1	UNK0	0.000	
42	   H	0.947	5.887	-2.287	 H	1	UNK0	0.000	
43	   H	3.233	5.061	-2.490	 H	1	UNK0	0.000	
44	   H	3.883	2.836	-1.613	 H	1	UNK0	0.000	
45	   H	-3.030	4.229	-0.753	 H	1	UNK0	0.000	
46	   H	-1.939	2.767	-0.783	 H	1	UNK0	0.000	
47	   H	-1.901	3.951	0.583	 H	1	UNK0	0.000	
@<TRIPOS>BOND
1 1 2 1
2 2 3 2
3 2 7 1
4 3 4 1
5 4 5 2
6 4 8 1
7 5 6 1
8 6 7 2
9 8 9 2
10 9 10 1
11 10 11 1
12 11 12 2
13 11 13 1
14 13 14 2
15 13 23 1
16 14 15 1
17 15 16 1
18 15 24 1
19 16 17 2
20 16 23 1
21 17 18 1
22 18 19 1
23 19 20 2
24 19 21 1
25 21 22 2
26 21 23 1
27 24 25 2
28 24 29 1
29 25 26 1
30 26 27 2
31 26 30 1
32 27 28 1
33 28 29 2
34 30 31 1
35 3 32 1
36 5 33 1
37 6 34 1
38 7 35 1
39 8 36 1
40 10 37 1
41 18 38 1
42 20 39 1
43 20 40 1
44 25 41 1
45 27 42 1
46 28 43 1
47 29 44 1
48 31 45 1
49 31 46 1
50 31 47 1
@<TRIPOS>SUBSTRUCTURE
1	UNK0	1	GROUP	1 ****	UNK
