# created with PyMOL 2.3.2
@<TRIPOS>MOLECULE
1286
52 55 1                 
SMALL
USER_CHARGES
@<TRIPOS>ATOM
1	  Br	5.537	-2.310	4.209	Br	1	UNK0	0.000	
2	   C	4.887	-1.550	2.589	C.2	1	UNK0	0.000	
3	   C	4.875	-0.196	2.348	C.2	1	UNK0	0.000	
4	   C	4.387	0.290	1.147	C.2	1	UNK0	0.000	
5	   C	3.904	-0.552	0.168	C.2	1	UNK0	0.000	
6	   C	3.924	-1.909	0.426	C.2	1	UNK0	0.000	
7	   C	4.405	-2.398	1.610	C.2	1	UNK0	0.000	
8	   C	3.390	-0.039	-1.095	C.2	1	UNK0	0.000	
9	   O	2.879	-0.861	-1.896	O.2	1	UNK0	0.000	
10	   N	3.432	1.321	-1.469	N.pl3	1	UNK0	0.000	
11	   C	2.897	1.779	-2.753	C.3	1	UNK0	0.000	
12	   C	1.426	1.477	-2.885	C.3	1	UNK0	0.000	
13	   C	0.635	2.142	-1.820	C.2	1	UNK0	0.000	
14	   O	1.293	2.837	-0.977	O.2	1	UNK0	0.000	
15	   N	-0.771	2.015	-1.739	N.pl3	1	UNK0	0.000	
16	   C	-1.485	2.689	-0.680	C.3	1	UNK0	0.000	
17	   C	-2.521	1.796	-0.076	C.3	1	UNK0	0.000	
18	   C	-2.371	0.345	-0.431	C.3	1	UNK0	0.000	
19	   N	-1.283	-0.190	0.300	N.3	1	UNK0	0.000	
20	   C	-1.450	-1.434	0.952	C.3	1	UNK0	0.000	
21	   C	-2.683	-1.530	1.831	C.3	1	UNK0	0.000	
22	   C	-3.832	-1.158	0.976	C.2	1	UNK0	0.000	
23	   N	-5.122	-1.513	0.990	N.2	1	UNK0	0.000	
24	   C	-5.778	-0.892	-0.021	C.2	1	UNK0	0.000	
25	   N	-4.873	-0.154	-0.652	N.pl3	1	UNK0	0.000	
26	   C	-3.658	-0.297	-0.058	C.2	1	UNK0	0.000	
27	   C	-2.163	0.092	-1.895	C.3	1	UNK0	0.000	
28	   C	-1.584	1.250	-2.646	C.3	1	UNK0	0.000	
29	   H	5.259	0.470	3.126	 H	1	UNK0	0.000	
30	   H	4.401	1.382	1.014	 H	1	UNK0	0.000	
31	   H	3.544	-2.598	-0.341	 H	1	UNK0	0.000	
32	   H	4.419	-3.483	1.814	 H	1	UNK0	0.000	
33	   H	3.859	2.001	-0.803	 H	1	UNK0	0.000	
34	   H	3.027	2.868	-2.798	 H	1	UNK0	0.000	
35	   H	3.486	1.318	-3.566	 H	1	UNK0	0.000	
36	   H	1.218	0.401	-2.931	 H	1	UNK0	0.000	
37	   H	1.116	1.878	-3.895	 H	1	UNK0	0.000	
38	   H	-0.777	3.110	0.090	 H	1	UNK0	0.000	
39	   H	-1.960	3.586	-1.150	 H	1	UNK0	0.000	
40	   H	-2.444	1.875	1.028	 H	1	UNK0	0.000	
41	   H	-3.528	2.178	-0.345	 H	1	UNK0	0.000	
42	   H	-0.560	0.445	0.635	 H	1	UNK0	0.000	
43	   H	-0.564	-1.593	1.619	 H	1	UNK0	0.000	
44	   H	-1.470	-2.270	0.238	 H	1	UNK0	0.000	
45	   H	-2.782	-2.575	2.186	 H	1	UNK0	0.000	
46	   H	-2.627	-0.840	2.697	 H	1	UNK0	0.000	
47	   H	-6.827	-0.993	-0.249	 H	1	UNK0	0.000	
48	   H	-5.103	0.450	-1.497	 H	1	UNK0	0.000	
49	   H	-3.123	-0.182	-2.413	 H	1	UNK0	0.000	
50	   H	-1.490	-0.777	-2.053	 H	1	UNK0	0.000	
51	   H	-2.407	1.883	-3.041	 H	1	UNK0	0.000	
52	   H	-1.015	0.877	-3.521	 H	1	UNK0	0.000	
@<TRIPOS>BOND
1 1 2 1
2 2 3 2
3 2 7 1
4 3 4 1
5 4 5 2
6 5 6 1
7 5 8 1
8 6 7 2
9 8 9 2
10 8 10 1
11 10 11 1
12 11 12 1
13 12 13 1
14 13 14 2
15 13 15 1
16 15 16 1
17 15 28 1
18 16 17 1
19 17 18 1
20 18 19 1
21 18 26 1
22 18 27 1
23 19 20 1
24 20 21 1
25 21 22 1
26 22 23 1
27 22 26 2
28 23 24 2
29 24 25 1
30 25 26 1
31 27 28 1
32 3 29 1
33 4 30 1
34 6 31 1
35 7 32 1
36 10 33 1
37 11 34 1
38 11 35 1
39 12 36 1
40 12 37 1
41 16 38 1
42 16 39 1
43 17 40 1
44 17 41 1
45 19 42 1
46 20 43 1
47 20 44 1
48 21 45 1
49 21 46 1
50 24 47 1
51 25 48 1
52 27 49 1
53 27 50 1
54 28 51 1
55 28 52 1
@<TRIPOS>SUBSTRUCTURE
1	UNK0	1	GROUP	1 ****	UNK
