# created with PyMOL 2.3.2
@<TRIPOS>MOLECULE
1291
53 56 1                 
SMALL
USER_CHARGES
@<TRIPOS>ATOM
1	  Br	-3.717	5.258	2.315	Br	1	UNK0	0.000	
2	   C	-2.816	3.994	1.217	C.2	1	UNK0	0.000	
3	   C	-2.101	2.941	1.746	C.2	1	UNK0	0.000	
4	   C	-1.446	2.021	0.949	C.2	1	UNK0	0.000	
5	   C	-1.496	2.145	-0.427	C.2	1	UNK0	0.000	
6	   C	-2.227	3.219	-0.934	C.2	1	UNK0	0.000	
7	   C	-2.881	4.138	-0.155	C.2	1	UNK0	0.000	
8	   C	-0.796	1.224	-1.348	C.3	1	UNK0	0.000	
9	   N	-0.769	-0.149	-0.908	N.pl3	1	UNK0	0.000	
10	   C	-1.687	-1.078	-1.135	C.2	1	UNK0	0.000	
11	   C	-1.253	-2.242	-0.552	C.2	1	UNK0	0.000	
12	   N	-0.079	-1.966	0.011	N.2	1	UNK0	0.000	
13	   C	0.261	-0.675	-0.186	C.2	1	UNK0	0.000	
14	   N	1.459	-0.029	0.260	N.pl3	1	UNK0	0.000	
15	   N	2.636	-0.273	-0.376	N.pl3	1	UNK0	0.000	
16	   C	3.526	-1.092	0.388	C.3	1	UNK0	0.000	
17	   C	4.123	-0.296	1.493	C.3	1	UNK0	0.000	
18	   N	4.632	0.985	1.121	N.3	1	UNK0	0.000	
19	   C	4.561	1.288	-0.271	C.3	1	UNK0	0.000	
20	   C	3.335	0.807	-0.962	C.3	1	UNK0	0.000	
21	   C	4.228	2.050	1.994	C.3	1	UNK0	0.000	
22	   N	-2.005	-3.353	-0.633	N.pl3	1	UNK0	0.000	
23	   C	-3.190	-3.332	-1.282	C.2	1	UNK0	0.000	
24	   O	-3.858	-4.382	-1.333	O.2	1	UNK0	0.000	
25	   N	-3.669	-2.210	-1.876	N.pl3	1	UNK0	0.000	
26	   C	-2.921	-1.106	-1.798	C.2	1	UNK0	0.000	
27	   O	-3.334	-0.060	-2.334	O.2	1	UNK0	0.000	
28	   C	-4.961	-2.247	-2.572	C.3	1	UNK0	0.000	
29	   C	-1.489	-4.558	-0.007	C.3	1	UNK0	0.000	
30	   H	-2.075	2.860	2.843	 H	1	UNK0	0.000	
31	   H	-0.887	1.189	1.346	 H	1	UNK0	0.000	
32	   H	-2.286	3.348	-2.014	 H	1	UNK0	0.000	
33	   H	-3.440	4.966	-0.547	 H	1	UNK0	0.000	
34	   H	0.258	1.545	-1.567	 H	1	UNK0	0.000	
35	   H	-1.325	1.308	-2.326	 H	1	UNK0	0.000	
36	   H	1.391	0.613	1.060	 H	1	UNK0	0.000	
37	   H	4.280	-1.584	-0.245	 H	1	UNK0	0.000	
38	   H	2.882	-1.906	0.845	 H	1	UNK0	0.000	
39	   H	3.345	-0.141	2.266	 H	1	UNK0	0.000	
40	   H	4.937	-0.911	1.976	 H	1	UNK0	0.000	
41	   H	4.626	2.388	-0.387	 H	1	UNK0	0.000	
42	   H	5.508	0.888	-0.728	 H	1	UNK0	0.000	
43	   H	3.675	0.449	-1.984	 H	1	UNK0	0.000	
44	   H	2.648	1.666	-1.228	 H	1	UNK0	0.000	
45	   H	3.567	1.689	2.817	 H	1	UNK0	0.000	
46	   H	5.150	2.519	2.396	 H	1	UNK0	0.000	
47	   H	3.706	2.807	1.345	 H	1	UNK0	0.000	
48	   H	-5.244	-3.317	-2.674	 H	1	UNK0	0.000	
49	   H	-5.763	-1.746	-2.011	 H	1	UNK0	0.000	
50	   H	-4.922	-1.821	-3.580	 H	1	UNK0	0.000	
51	   H	-0.389	-4.440	0.166	 H	1	UNK0	0.000	
52	   H	-1.972	-4.668	0.982	 H	1	UNK0	0.000	
53	   H	-1.695	-5.470	-0.612	 H	1	UNK0	0.000	
@<TRIPOS>BOND
1 1 2 1
2 2 3 2
3 2 7 1
4 3 4 1
5 4 5 2
6 5 6 1
7 5 8 1
8 6 7 2
9 8 9 1
10 9 10 1
11 9 13 1
12 10 11 2
13 10 26 1
14 11 12 1
15 11 22 1
16 12 13 2
17 13 14 1
18 14 15 1
19 15 16 1
20 15 20 1
21 16 17 1
22 17 18 1
23 18 19 1
24 18 21 1
25 19 20 1
26 22 23 1
27 22 29 1
28 23 24 2
29 23 25 1
30 25 26 1
31 25 28 1
32 26 27 2
33 3 30 1
34 4 31 1
35 6 32 1
36 7 33 1
37 8 34 1
38 8 35 1
39 14 36 1
40 16 37 1
41 16 38 1
42 17 39 1
43 17 40 1
44 19 41 1
45 19 42 1
46 20 43 1
47 20 44 1
48 21 45 1
49 21 46 1
50 21 47 1
51 28 48 1
52 28 49 1
53 28 50 1
54 29 51 1
55 29 52 1
56 29 53 1
@<TRIPOS>SUBSTRUCTURE
1	UNK0	1	GROUP	1 ****	UNK
