# created with PyMOL 2.3.2
@<TRIPOS>MOLECULE
1293
27 30 1                 
SMALL
USER_CHARGES
@<TRIPOS>ATOM
1	  Br	-3.805	5.092	-4.038	Br	1	UNK0	0.000	
2	   C	-2.873	3.702	-3.124	C.2	1	UNK0	0.000	
3	   C	-2.732	2.468	-3.701	C.2	1	UNK0	0.000	
4	   C	-2.043	1.466	-3.009	C.2	1	UNK0	0.000	
5	   C	-1.504	1.671	-1.778	C.2	1	UNK0	0.000	
6	   C	-1.647	2.910	-1.203	C.2	1	UNK0	0.000	
7	   C	-2.327	3.919	-1.872	C.2	1	UNK0	0.000	
8	   C	-0.789	0.620	-1.066	C.2	1	UNK0	0.000	
9	   N	-0.207	0.675	0.146	N.2	1	UNK0	0.000	
10	   N	0.351	-0.478	0.468	N.pl3	1	UNK0	0.000	
11	   N	0.112	-1.266	-0.563	N.2	1	UNK0	0.000	
12	   N	-0.561	-0.655	-1.495	N.2	1	UNK0	0.000	
13	   C	1.062	-0.849	1.645	C.2	1	UNK0	0.000	
14	   N	0.446	-1.233	2.777	N.2	1	UNK0	0.000	
15	   N	1.115	-1.581	3.880	N.pl3	1	UNK0	0.000	
16	   N	0.717	-1.983	5.083	N.2	1	UNK0	0.000	
17	   N	1.768	-2.213	5.851	N.2	1	UNK0	0.000	
18	   N	2.871	-1.967	5.167	N.2	1	UNK0	0.000	
19	   C	2.459	-1.572	3.935	C.2	1	UNK0	0.000	
20	   C	3.137	-1.183	2.791	C.2	1	UNK0	0.000	
21	   C	2.441	-0.825	1.655	C.2	1	UNK0	0.000	
22	   H	-3.150	2.292	-4.668	 H	1	UNK0	0.000	
23	   H	-1.947	0.505	-3.484	 H	1	UNK0	0.000	
24	   H	-1.246	3.145	-0.229	 H	1	UNK0	0.000	
25	   H	-2.446	4.895	-1.432	 H	1	UNK0	0.000	
26	   H	4.223	-1.164	2.798	 H	1	UNK0	0.000	
27	   H	2.938	-0.515	0.739	 H	1	UNK0	0.000	
@<TRIPOS>BOND
1 1 2 1
2 2 3 2
3 2 7 1
4 3 4 1
5 4 5 2
6 5 6 1
7 5 8 1
8 6 7 2
9 8 9 2
10 8 12 1
11 9 10 1
12 10 11 1
13 10 13 1
14 11 12 2
15 13 14 2
16 13 21 1
17 14 15 1
18 15 16 1
19 15 19 1
20 16 17 2
21 17 18 1
22 18 19 2
23 19 20 1
24 20 21 2
25 3 22 1
26 4 23 1
27 6 24 1
28 7 25 1
29 20 26 1
30 21 27 1
@<TRIPOS>SUBSTRUCTURE
1	UNK0	1	GROUP	1 ****	UNK
