# created with PyMOL 2.3.2
@<TRIPOS>MOLECULE
1294
51 54 1                 
SMALL
USER_CHARGES
@<TRIPOS>ATOM
1	  Br	-3.997	-4.409	3.984	Br	1	UNK0	0.000	
2	   C	-2.526	-3.436	3.261	C.2	1	UNK0	0.000	
3	   C	-2.046	-3.677	2.007	C.2	1	UNK0	0.000	
4	   C	-0.965	-2.925	1.544	C.2	1	UNK0	0.000	
5	   C	-0.338	-1.946	2.262	C.2	1	UNK0	0.000	
6	   C	-0.858	-1.723	3.552	C.2	1	UNK0	0.000	
7	   C	-1.909	-2.456	4.000	C.2	1	UNK0	0.000	
8	   C	0.757	-1.112	1.800	C.2	1	UNK0	0.000	
9	   C	1.481	-0.290	2.685	C.2	1	UNK0	0.000	
10	   N	2.396	0.374	1.983	N.pl3	1	UNK0	0.000	
11	   C	3.396	1.288	2.129	C.2	1	UNK0	0.000	
12	   C	3.900	1.473	0.864	C.2	1	UNK0	0.000	
13	   N	3.196	0.677	0.027	N.pl3	1	UNK0	0.000	
14	   C	2.259	-0.008	0.719	C.cat	1	UNK0	0.000	
15	   N	1.237	-0.937	0.586	N.pl3	1	UNK0	0.000	
16	   C	0.873	-1.439	-0.724	C.3	1	UNK0	0.000	
17	   C	-0.026	-0.584	-1.517	C.3	1	UNK0	0.000	
18	   C	-1.364	-0.225	-1.064	C.3	1	UNK0	0.000	
19	   N	-2.348	-1.215	-0.872	N.4	1	UNK0	0.000	
20	   C	-3.514	-1.076	-1.725	C.3	1	UNK0	0.000	
21	   C	-3.226	-0.441	-3.039	C.3	1	UNK0	0.000	
22	   C	-4.533	-0.219	-0.997	C.3	1	UNK0	0.000	
23	   C	4.936	2.358	0.717	C.2	1	UNK0	0.000	
24	   C	5.468	3.053	1.807	C.2	1	UNK0	0.000	
25	   C	4.959	2.864	3.074	C.2	1	UNK0	0.000	
26	   C	3.908	1.964	3.215	C.2	1	UNK0	0.000	
27	   H	-2.496	-4.429	1.399	 H	1	UNK0	0.000	
28	   H	-0.640	-3.191	0.558	 H	1	UNK0	0.000	
29	   H	-0.391	-0.952	4.151	 H	1	UNK0	0.000	
30	   H	-2.293	-2.269	4.991	 H	1	UNK0	0.000	
31	   H	1.357	-0.182	3.761	 H	1	UNK0	0.000	
32	   H	3.341	0.592	-1.007	 H	1	UNK0	0.000	
33	   H	1.880	-1.387	-1.328	 H	1	UNK0	0.000	
34	   H	0.703	-2.508	-0.751	 H	1	UNK0	0.000	
35	   H	-0.029	-1.029	-2.570	 H	1	UNK0	0.000	
36	   H	0.546	0.387	-1.710	 H	1	UNK0	0.000	
37	   H	-1.741	0.608	-1.746	 H	1	UNK0	0.000	
38	   H	-1.248	0.345	-0.085	 H	1	UNK0	0.000	
39	   H	-1.957	-2.141	-1.061	 H	1	UNK0	0.000	
40	   H	-2.696	-1.190	0.110	 H	1	UNK0	0.000	
41	   H	-4.006	-2.058	-1.908	 H	1	UNK0	0.000	
42	   H	-2.235	-0.753	-3.474	 H	1	UNK0	0.000	
43	   H	-3.980	-0.800	-3.775	 H	1	UNK0	0.000	
44	   H	-3.323	0.666	-3.032	 H	1	UNK0	0.000	
45	   H	-5.566	-0.501	-1.344	 H	1	UNK0	0.000	
46	   H	-4.308	0.831	-1.224	 H	1	UNK0	0.000	
47	   H	-4.452	-0.391	0.115	 H	1	UNK0	0.000	
48	   H	5.330	2.498	-0.292	 H	1	UNK0	0.000	
49	   H	6.291	3.743	1.626	 H	1	UNK0	0.000	
50	   H	5.374	3.404	3.912	 H	1	UNK0	0.000	
51	   H	3.507	1.814	4.204	 H	1	UNK0	0.000	
@<TRIPOS>BOND
1 1 2 1
2 2 3 2
3 2 7 1
4 3 4 1
5 4 5 2
6 5 6 1
7 5 8 1
8 6 7 2
9 8 9 2
10 8 15 1
11 9 10 1
12 10 11 1
13 10 14 1
14 11 12 2
15 11 26 1
16 12 13 1
17 12 23 1
18 13 14 2
19 14 15 1
20 15 16 1
21 16 17 1
22 17 18 1
23 18 19 1
24 19 20 1
25 20 21 1
26 20 22 1
27 23 24 2
28 24 25 1
29 25 26 2
30 3 27 1
31 4 28 1
32 6 29 1
33 7 30 1
34 9 31 1
35 13 32 1
36 16 33 1
37 16 34 1
38 17 35 1
39 17 36 1
40 18 37 1
41 18 38 1
42 19 39 1
43 19 40 1
44 20 41 1
45 21 42 1
46 21 43 1
47 21 44 1
48 22 45 1
49 22 46 1
50 22 47 1
51 23 48 1
52 24 49 1
53 25 50 1
54 26 51 1
@<TRIPOS>SUBSTRUCTURE
1	UNK0	1	GROUP	1 ****	UNK
