# created with PyMOL 2.3.2
@<TRIPOS>MOLECULE
1296
53 56 1                 
SMALL
USER_CHARGES
@<TRIPOS>ATOM
1	  Cl	-2.351	0.534	3.584	Cl	1	UNK0	0.000	
2	   C	-2.735	-0.697	2.395	C.2	1	UNK0	0.000	
3	   C	-3.950	-1.329	2.465	C.2	1	UNK0	0.000	
4	   C	-4.227	-2.289	1.524	C.2	1	UNK0	0.000	
5	   C	-3.312	-2.602	0.545	C.2	1	UNK0	0.000	
6	   C	-2.062	-1.977	0.444	C.2	1	UNK0	0.000	
7	   C	-1.808	-1.024	1.392	C.2	1	UNK0	0.000	
8	   N	-1.160	-2.347	-0.570	N.pl3	1	UNK0	0.000	
9	   C	0.039	-1.697	-0.928	C.2	1	UNK0	0.000	
10	   N	0.508	-0.577	-0.358	N.2	1	UNK0	0.000	
11	   C	1.644	0.043	-0.709	C.2	1	UNK0	0.000	
12	   N	2.370	-0.494	-1.706	N.2	1	UNK0	0.000	
13	   C	1.989	-1.618	-2.347	C.2	1	UNK0	0.000	
14	   N	2.477	-2.376	-3.344	N.pl3	1	UNK0	0.000	
15	   N	1.679	-3.401	-3.585	N.2	1	UNK0	0.000	
16	   C	0.614	-3.347	-2.731	C.2	1	UNK0	0.000	
17	   C	0.823	-2.225	-1.962	C.2	1	UNK0	0.000	
18	   C	3.703	-2.128	-4.071	C.3	1	UNK0	0.000	
19	   N	2.018	1.225	-0.020	N.pl3	1	UNK0	0.000	
20	   C	3.288	1.831	-0.416	C.3	1	UNK0	0.000	
21	   C	2.958	3.308	-0.633	C.3	1	UNK0	0.000	
22	   N	2.559	3.838	0.618	N.3	1	UNK0	0.000	
23	   C	1.428	3.264	1.229	C.3	1	UNK0	0.000	
24	   C	1.216	1.806	1.000	C.3	1	UNK0	0.000	
25	   C	2.657	5.252	0.662	C.3	1	UNK0	0.000	
26	   C	2.231	5.856	1.975	C.3	1	UNK0	0.000	
27	   O	3.059	5.331	2.972	O.3	1	UNK0	0.000	
28	   O	-4.868	-1.006	3.457	O.3	1	UNK0	0.000	
29	   C	-6.115	-1.653	3.532	C.3	1	UNK0	0.000	
30	   H	-5.181	-2.807	1.554	 H	1	UNK0	0.000	
31	   H	-3.523	-3.357	-0.202	 H	1	UNK0	0.000	
32	   H	-0.869	-0.481	1.414	 H	1	UNK0	0.000	
33	   H	-1.422	-3.215	-1.113	 H	1	UNK0	0.000	
34	   H	-0.192	-4.070	-2.717	 H	1	UNK0	0.000	
35	   H	4.480	-1.748	-3.346	 H	1	UNK0	0.000	
36	   H	4.135	-3.089	-4.451	 H	1	UNK0	0.000	
37	   H	3.531	-1.405	-4.897	 H	1	UNK0	0.000	
38	   H	3.679	1.436	-1.354	 H	1	UNK0	0.000	
39	   H	3.973	1.685	0.430	 H	1	UNK0	0.000	
40	   H	3.805	3.869	-1.033	 H	1	UNK0	0.000	
41	   H	2.061	3.342	-1.313	 H	1	UNK0	0.000	
42	   H	1.424	3.476	2.318	 H	1	UNK0	0.000	
43	   H	0.516	3.804	0.832	 H	1	UNK0	0.000	
44	   H	0.146	1.587	0.764	 H	1	UNK0	0.000	
45	   H	1.425	1.232	1.950	 H	1	UNK0	0.000	
46	   H	3.685	5.637	0.454	 H	1	UNK0	0.000	
47	   H	2.016	5.686	-0.132	 H	1	UNK0	0.000	
48	   H	2.472	6.954	1.954	 H	1	UNK0	0.000	
49	   H	1.168	5.767	2.188	 H	1	UNK0	0.000	
50	   H	3.556	4.523	2.667	 H	1	UNK0	0.000	
51	   H	-6.067	-2.742	3.388	 H	1	UNK0	0.000	
52	   H	-6.841	-1.250	2.782	 H	1	UNK0	0.000	
53	   H	-6.567	-1.485	4.545	 H	1	UNK0	0.000	
@<TRIPOS>BOND
1 1 2 1
2 2 3 2
3 2 7 1
4 3 4 1
5 3 28 1
6 4 5 2
7 5 6 1
8 6 7 2
9 6 8 1
10 8 9 1
11 9 10 2
12 9 17 1
13 10 11 1
14 11 12 2
15 11 19 1
16 12 13 1
17 13 14 1
18 13 17 2
19 14 15 1
20 14 18 1
21 15 16 2
22 16 17 1
23 19 20 1
24 19 24 1
25 20 21 1
26 21 22 1
27 22 23 1
28 22 25 1
29 23 24 1
30 25 26 1
31 26 27 1
32 28 29 1
33 4 30 1
34 5 31 1
35 7 32 1
36 8 33 1
37 16 34 1
38 18 35 1
39 18 36 1
40 18 37 1
41 20 38 1
42 20 39 1
43 21 40 1
44 21 41 1
45 23 42 1
46 23 43 1
47 24 44 1
48 24 45 1
49 25 46 1
50 25 47 1
51 26 48 1
52 26 49 1
53 27 50 1
54 29 51 1
55 29 52 1
56 29 53 1
@<TRIPOS>SUBSTRUCTURE
1	UNK0	1	GROUP	1 ****	UNK
