# created with PyMOL 2.3.2
@<TRIPOS>MOLECULE
1299
51 53 1                 
SMALL
USER_CHARGES
@<TRIPOS>ATOM
1	  Br	0.652	-1.299	-7.159	Br	1	UNK0	0.000	
2	   C	1.263	-0.081	-5.822	C.2	1	UNK0	0.000	
3	   C	2.035	0.992	-6.219	C.2	1	UNK0	0.000	
4	   C	2.470	1.863	-5.252	C.2	1	UNK0	0.000	
5	   C	2.146	1.673	-3.921	C.2	1	UNK0	0.000	
6	   C	1.386	0.617	-3.526	C.2	1	UNK0	0.000	
7	   C	0.945	-0.262	-4.491	C.2	1	UNK0	0.000	
8	   C	1.041	0.414	-2.111	C.2	1	UNK0	0.000	
9	   N	0.328	-0.574	-1.732	N.2	1	UNK0	0.000	
10	   N	-0.009	-0.773	-0.351	N.pl3	1	UNK0	0.000	
11	   C	-1.361	-0.566	0.003	C.2	1	UNK0	0.000	
12	   O	-2.111	-0.221	-0.988	O.2	1	UNK0	0.000	
13	   C	-1.948	-0.703	1.330	C.2	1	UNK0	0.000	
14	   N	-3.287	-0.479	1.525	N.pl3	1	UNK0	0.000	
15	   N	-3.496	-0.682	2.809	N.2	1	UNK0	0.000	
16	   N	-2.410	-1.010	3.428	N.2	1	UNK0	0.000	
17	   C	-1.384	-1.040	2.531	C.2	1	UNK0	0.000	
18	   C	0.020	-1.370	2.772	C.3	1	UNK0	0.000	
19	   N	0.328	-1.679	4.160	N.3	1	UNK0	0.000	
20	   C	1.724	-2.078	4.288	C.3	1	UNK0	0.000	
21	   C	2.615	-0.906	4.588	C.3	1	UNK0	0.000	
22	   O	2.090	0.315	4.207	O.3	1	UNK0	0.000	
23	   C	0.870	0.624	4.789	C.3	1	UNK0	0.000	
24	   C	0.032	-0.595	5.064	C.3	1	UNK0	0.000	
25	   C	-4.240	-0.109	0.550	C.2	1	UNK0	0.000	
26	   N	-4.934	-0.884	-0.320	N.2	1	UNK0	0.000	
27	   O	-5.697	-0.134	-1.031	O.3	1	UNK0	0.000	
28	   N	-5.587	1.118	-0.719	N.2	1	UNK0	0.000	
29	   C	-4.669	1.178	0.283	C.2	1	UNK0	0.000	
30	   N	-4.255	2.377	0.916	N.pl3	1	UNK0	0.000	
31	  Br	3.546	3.360	-5.798	Br	1	UNK0	0.000	
32	   O	2.381	1.215	-7.544	O.3	1	UNK0	0.000	
33	  Cl	-1.235	3.420	2.230	Cl	1	UNK0	0.000	
34	   H	2.502	2.375	-3.174	 H	1	UNK0	0.000	
35	   H	0.343	-1.097	-4.174	 H	1	UNK0	0.000	
36	   H	1.392	1.105	-1.386	 H	1	UNK0	0.000	
37	   H	0.759	-1.056	0.297	 H	1	UNK0	0.000	
38	   H	0.369	-2.260	2.209	 H	1	UNK0	0.000	
39	   H	0.710	-0.535	2.523	 H	1	UNK0	0.000	
40	   H	1.787	-2.792	5.128	 H	1	UNK0	0.000	
41	   H	1.985	-2.625	3.363	 H	1	UNK0	0.000	
42	   H	3.547	-1.048	4.003	 H	1	UNK0	0.000	
43	   H	2.940	-0.889	5.659	 H	1	UNK0	0.000	
44	   H	0.306	1.249	4.055	 H	1	UNK0	0.000	
45	   H	1.043	1.254	5.673	 H	1	UNK0	0.000	
46	   H	-1.035	-0.422	5.180	 H	1	UNK0	0.000	
47	   H	0.379	-0.968	6.076	 H	1	UNK0	0.000	
48	   H	-3.974	2.330	1.913	 H	1	UNK0	0.000	
49	   H	-4.215	3.298	0.442	 H	1	UNK0	0.000	
50	   H	2.095	0.616	-8.298	 H	1	UNK0	0.000	
51	   H	-1.842	4.445	1.540	 H	1	UNK0	0.000	
@<TRIPOS>BOND
1 1 2 1
2 2 3 2
3 2 7 1
4 3 4 1
5 3 32 1
6 4 5 2
7 4 31 1
8 5 6 1
9 6 7 2
10 6 8 1
11 8 9 2
12 9 10 1
13 10 11 1
14 11 12 2
15 11 13 1
16 13 14 1
17 13 17 2
18 14 15 1
19 14 25 1
20 15 16 2
21 16 17 1
22 17 18 1
23 18 19 1
24 19 20 1
25 19 24 1
26 20 21 1
27 21 22 1
28 22 23 1
29 23 24 1
30 25 26 2
31 25 29 1
32 26 27 1
33 27 28 1
34 28 29 2
35 29 30 1
36 5 34 1
37 7 35 1
38 8 36 1
39 10 37 1
40 18 38 1
41 18 39 1
42 20 40 1
43 20 41 1
44 21 42 1
45 21 43 1
46 23 44 1
47 23 45 1
48 24 46 1
49 24 47 1
50 30 48 1
51 30 49 1
52 32 50 1
53 33 51 1
@<TRIPOS>SUBSTRUCTURE
1	UNK0	1	GROUP	1 ****	UNK
