# created with PyMOL 2.3.2
@<TRIPOS>MOLECULE
1301
39 42 1                 
SMALL
USER_CHARGES
@<TRIPOS>ATOM
1	  Br	1.475	4.940	0.658	Br	1	UNK0	0.000	
2	   C	1.555	3.201	1.426	C.2	1	UNK0	0.000	
3	   C	1.604	3.089	2.796	C.2	1	UNK0	0.000	
4	   C	1.661	1.820	3.324	C.2	1	UNK0	0.000	
5	   C	1.667	0.698	2.488	C.2	1	UNK0	0.000	
6	   C	1.618	0.794	1.112	C.2	1	UNK0	0.000	
7	   C	1.562	2.077	0.596	C.2	1	UNK0	0.000	
8	   N	1.625	-0.344	0.261	N.pl3	1	UNK0	0.000	
9	   C	1.701	-1.696	0.698	C.2	1	UNK0	0.000	
10	   O	2.235	-2.129	1.742	O.2	1	UNK0	0.000	
11	   C	1.026	-2.579	-0.301	C.3	1	UNK0	0.000	
12	   C	-0.438	-2.705	-0.041	C.3	1	UNK0	0.000	
13	   O	-0.959	-1.490	-0.552	O.3	1	UNK0	0.000	
14	   C	-0.440	-1.640	-1.863	C.3	1	UNK0	0.000	
15	   C	1.022	-1.733	-1.572	C.3	1	UNK0	0.000	
16	   C	1.553	-0.413	-1.157	C.2	1	UNK0	0.000	
17	   O	1.886	0.501	-1.940	O.2	1	UNK0	0.000	
18	   C	-1.001	-2.986	-2.188	C.2	1	UNK0	0.000	
19	   C	-1.012	-3.661	-1.025	C.2	1	UNK0	0.000	
20	   C	-0.851	-0.565	-2.776	C.3	1	UNK0	0.000	
21	   C	-0.823	-2.962	1.358	C.3	1	UNK0	0.000	
22	   O	-2.205	-3.037	1.515	O.3	1	UNK0	0.000	
23	   C	1.595	4.283	3.691	C.3	1	UNK0	0.000	
24	   H	1.702	1.683	4.401	 H	1	UNK0	0.000	
25	   H	1.710	-0.283	2.944	 H	1	UNK0	0.000	
26	   H	1.519	2.198	-0.486	 H	1	UNK0	0.000	
27	   H	1.558	-3.523	-0.428	 H	1	UNK0	0.000	
28	   H	1.626	-2.196	-2.375	 H	1	UNK0	0.000	
29	   H	-1.312	-3.296	-3.157	 H	1	UNK0	0.000	
30	   H	-1.369	-4.673	-0.882	 H	1	UNK0	0.000	
31	   H	-0.063	-0.144	-3.424	 H	1	UNK0	0.000	
32	   H	-1.662	-0.926	-3.447	 H	1	UNK0	0.000	
33	   H	-1.301	0.294	-2.200	 H	1	UNK0	0.000	
34	   H	-0.465	-2.145	2.007	 H	1	UNK0	0.000	
35	   H	-0.431	-3.940	1.702	 H	1	UNK0	0.000	
36	   H	-2.612	-2.173	1.804	 H	1	UNK0	0.000	
37	   H	1.996	5.122	3.091	 H	1	UNK0	0.000	
38	   H	0.550	4.583	3.957	 H	1	UNK0	0.000	
39	   H	2.130	4.113	4.625	 H	1	UNK0	0.000	
@<TRIPOS>BOND
1 1 2 1
2 2 3 2
3 2 7 1
4 3 4 1
5 3 23 1
6 4 5 2
7 5 6 1
8 6 7 2
9 6 8 1
10 8 9 1
11 8 16 1
12 9 10 2
13 9 11 1
14 11 12 1
15 11 15 1
16 12 13 1
17 12 19 1
18 12 21 1
19 13 14 1
20 14 15 1
21 14 18 1
22 14 20 1
23 15 16 1
24 16 17 2
25 18 19 2
26 21 22 1
27 4 24 1
28 5 25 1
29 7 26 1
30 11 27 1
31 15 28 1
32 18 29 1
33 19 30 1
34 20 31 1
35 20 32 1
36 20 33 1
37 21 34 1
38 21 35 1
39 22 36 1
40 23 37 1
41 23 38 1
42 23 39 1
@<TRIPOS>SUBSTRUCTURE
1	UNK0	1	GROUP	1 ****	UNK
