# created with PyMOL 2.3.2
@<TRIPOS>MOLECULE
1308
47 50 1                 
SMALL
USER_CHARGES
@<TRIPOS>ATOM
1	  Br	4.110	1.414	-2.319	Br	1	UNK0	0.000	
2	   C	3.043	-0.046	-1.732	C.2	1	UNK0	0.000	
3	   C	1.786	0.154	-1.145	C.2	1	UNK0	0.000	
4	   C	1.021	-0.905	-0.723	C.2	1	UNK0	0.000	
5	   C	1.521	-2.175	-0.892	C.2	1	UNK0	0.000	
6	   C	2.762	-2.407	-1.470	C.2	1	UNK0	0.000	
7	   C	3.524	-1.318	-1.891	C.2	1	UNK0	0.000	
8	   C	-0.313	-0.700	-0.091	C.3	1	UNK0	0.000	
9	   N	-0.475	-1.579	1.002	N.pl3	1	UNK0	0.000	
10	   C	-1.368	-2.670	0.657	C.2	1	UNK0	0.000	
11	   O	-1.625	-3.695	1.340	O.2	1	UNK0	0.000	
12	   C	-1.919	-2.348	-0.652	C.2	1	UNK0	0.000	
13	   O	-2.752	-3.064	-1.311	O.2	1	UNK0	0.000	
14	   C	-1.378	-1.101	-1.082	C.2	1	UNK0	0.000	
15	   C	-1.723	-0.415	-2.155	C.2	1	UNK0	0.000	
16	   O	-1.047	0.792	-2.406	O.2	1	UNK0	0.000	
17	   C	-2.768	-0.868	-3.064	C.2	1	UNK0	0.000	
18	   O	-3.908	-1.401	-2.854	O.3	1	UNK0	0.000	
19	   C	-4.529	-1.653	-3.963	C.2	1	UNK0	0.000	
20	   C	-3.736	-1.253	-5.009	C.2	1	UNK0	0.000	
21	   C	-2.596	-0.745	-4.442	C.2	1	UNK0	0.000	
22	   C	0.126	-1.523	2.315	C.3	1	UNK0	0.000	
23	   C	-0.661	-0.803	3.336	C.3	1	UNK0	0.000	
24	   C	-0.869	0.654	3.184	C.3	1	UNK0	0.000	
25	   N	0.357	1.447	3.288	N.pl3	1	UNK0	0.000	
26	   C	1.183	1.806	2.318	C.2	1	UNK0	0.000	
27	   N	2.196	2.535	2.839	N.pl3	1	UNK0	0.000	
28	   C	2.001	2.633	4.149	C.2	1	UNK0	0.000	
29	   C	0.857	1.958	4.443	C.2	1	UNK0	0.000	
30	   H	1.445	1.177	-1.044	 H	1	UNK0	0.000	
31	   H	0.950	-3.019	-0.574	 H	1	UNK0	0.000	
32	   H	3.171	-3.386	-1.611	 H	1	UNK0	0.000	
33	   H	4.496	-1.490	-2.343	 H	1	UNK0	0.000	
34	   H	-0.429	0.382	0.140	 H	1	UNK0	0.000	
35	   H	-5.531	-2.111	-4.093	 H	1	UNK0	0.000	
36	   H	-3.937	-1.312	-6.082	 H	1	UNK0	0.000	
37	   H	-1.720	-0.324	-4.967	 H	1	UNK0	0.000	
38	   H	1.160	-1.104	2.279	 H	1	UNK0	0.000	
39	   H	0.290	-2.569	2.711	 H	1	UNK0	0.000	
40	   H	-0.212	-1.046	4.339	 H	1	UNK0	0.000	
41	   H	-1.696	-1.273	3.345	 H	1	UNK0	0.000	
42	   H	-1.380	0.896	2.254	 H	1	UNK0	0.000	
43	   H	-1.589	0.967	4.001	 H	1	UNK0	0.000	
44	   H	1.135	1.600	1.271	 H	1	UNK0	0.000	
45	   H	2.990	2.949	2.311	 H	1	UNK0	0.000	
46	   H	2.624	3.153	4.892	 H	1	UNK0	0.000	
47	   H	0.375	1.815	5.402	 H	1	UNK0	0.000	
@<TRIPOS>BOND
1 1 2 1
2 2 3 2
3 2 7 1
4 3 4 1
5 4 5 2
6 4 8 1
7 5 6 1
8 6 7 2
9 8 9 1
10 8 14 1
11 9 10 1
12 9 22 1
13 10 11 2
14 10 12 1
15 12 13 2
16 12 14 1
17 14 15 2
18 15 16 1
19 15 17 1
20 17 18 1
21 17 21 2
22 18 19 1
23 19 20 2
24 20 21 1
25 22 23 1
26 23 24 1
27 24 25 1
28 25 26 1
29 25 29 1
30 26 27 2
31 27 28 1
32 28 29 2
33 3 30 1
34 5 31 1
35 6 32 1
36 7 33 1
37 8 34 1
38 19 35 1
39 20 36 1
40 21 37 1
41 22 38 1
42 22 39 1
43 23 40 1
44 23 41 1
45 24 42 1
46 24 43 1
47 26 44 1
48 27 45 1
49 28 46 1
50 29 47 1
@<TRIPOS>SUBSTRUCTURE
1	UNK0	1	GROUP	1 ****	UNK
