# created with PyMOL 2.3.2
@<TRIPOS>MOLECULE
1309
60 64 1                 
SMALL
USER_CHARGES
@<TRIPOS>ATOM
1	  Br	5.949	-3.951	1.192	Br	1	UNK0	0.000	
2	   C	4.986	-2.345	1.520	C.2	1	UNK0	0.000	
3	   C	4.086	-1.862	0.583	C.2	1	UNK0	0.000	
4	   C	3.391	-0.701	0.823	C.2	1	UNK0	0.000	
5	   C	3.602	-0.024	2.008	C.2	1	UNK0	0.000	
6	   C	4.506	-0.506	2.952	C.2	1	UNK0	0.000	
7	   C	5.202	-1.665	2.718	C.2	1	UNK0	0.000	
8	   C	2.434	-0.238	-0.228	C.3	1	UNK0	0.000	
9	   N	1.711	-1.443	-0.638	N.pl3	1	UNK0	0.000	
10	   C	0.890	-1.775	0.490	C.2	1	UNK0	0.000	
11	   O	0.493	-2.922	0.808	O.2	1	UNK0	0.000	
12	   C	0.612	-0.522	1.188	C.2	1	UNK0	0.000	
13	   O	-0.060	-0.304	2.224	O.2	1	UNK0	0.000	
14	   C	1.301	0.521	0.418	C.2	1	UNK0	0.000	
15	   C	0.987	1.800	0.334	C.2	1	UNK0	0.000	
16	   O	1.777	2.620	-0.446	O.2	1	UNK0	0.000	
17	   C	-0.189	2.324	1.066	C.2	1	UNK0	0.000	
18	   O	-1.341	1.737	1.248	O.3	1	UNK0	0.000	
19	   C	-2.169	2.450	1.933	C.2	1	UNK0	0.000	
20	   C	-1.527	3.629	2.247	C.2	1	UNK0	0.000	
21	   C	-0.278	3.545	1.698	C.2	1	UNK0	0.000	
22	   C	-2.208	4.584	2.990	C.2	1	UNK0	0.000	
23	   C	-3.499	4.324	3.388	C.2	1	UNK0	0.000	
24	   C	-4.153	3.144	3.079	C.2	1	UNK0	0.000	
25	   C	-3.483	2.194	2.343	C.2	1	UNK0	0.000	
26	   O	-4.093	0.985	2.000	O.3	1	UNK0	0.000	
27	   C	-5.418	0.695	2.400	C.3	1	UNK0	0.000	
28	   C	1.793	-2.160	-1.910	C.3	1	UNK0	0.000	
29	   C	0.753	-1.584	-2.882	C.3	1	UNK0	0.000	
30	   N	0.815	-2.269	-4.135	N.4	1	UNK0	0.000	
31	   C	0.803	-1.284	-5.199	C.3	1	UNK0	0.000	
32	   C	-0.561	-0.615	-5.145	C.3	1	UNK0	0.000	
33	   O	-1.497	-1.583	-5.495	O.3	1	UNK0	0.000	
34	   C	-1.569	-2.635	-4.604	C.3	1	UNK0	0.000	
35	   C	-0.229	-3.256	-4.298	C.3	1	UNK0	0.000	
36	   H	3.948	-2.423	-0.335	 H	1	UNK0	0.000	
37	   H	3.045	0.878	2.163	 H	1	UNK0	0.000	
38	   H	4.632	0.068	3.869	 H	1	UNK0	0.000	
39	   H	5.912	-2.064	3.436	 H	1	UNK0	0.000	
40	   H	2.897	0.301	-1.051	 H	1	UNK0	0.000	
41	   H	0.482	4.309	1.763	 H	1	UNK0	0.000	
42	   H	-1.695	5.523	3.239	 H	1	UNK0	0.000	
43	   H	-4.058	5.045	3.968	 H	1	UNK0	0.000	
44	   H	-5.167	2.932	3.388	 H	1	UNK0	0.000	
45	   H	-5.782	-0.183	1.821	 H	1	UNK0	0.000	
46	   H	-5.416	0.354	3.474	 H	1	UNK0	0.000	
47	   H	-6.122	1.519	2.217	 H	1	UNK0	0.000	
48	   H	2.769	-1.950	-2.362	 H	1	UNK0	0.000	
49	   H	1.675	-3.239	-1.796	 H	1	UNK0	0.000	
50	   H	0.946	-0.489	-2.973	 H	1	UNK0	0.000	
51	   H	-0.271	-1.684	-2.465	 H	1	UNK0	0.000	
52	   H	1.729	-2.778	-4.181	 H	1	UNK0	0.000	
53	   H	1.633	-0.594	-5.028	 H	1	UNK0	0.000	
54	   H	0.859	-1.791	-6.195	 H	1	UNK0	0.000	
55	   H	-0.817	-0.252	-4.135	 H	1	UNK0	0.000	
56	   H	-0.660	0.201	-5.887	 H	1	UNK0	0.000	
57	   H	-2.107	-2.323	-3.670	 H	1	UNK0	0.000	
58	   H	-2.201	-3.416	-5.076	 H	1	UNK0	0.000	
59	   H	-0.306	-3.812	-3.341	 H	1	UNK0	0.000	
60	   H	0.058	-3.989	-5.089	 H	1	UNK0	0.000	
@<TRIPOS>BOND
1 1 2 1
2 2 3 2
3 2 7 1
4 3 4 1
5 4 5 2
6 4 8 1
7 5 6 1
8 6 7 2
9 8 9 1
10 8 14 1
11 9 10 1
12 9 28 1
13 10 11 2
14 10 12 1
15 12 13 2
16 12 14 1
17 14 15 2
18 15 16 1
19 15 17 1
20 17 18 1
21 17 21 2
22 18 19 1
23 19 20 2
24 19 25 1
25 20 21 1
26 20 22 1
27 22 23 2
28 23 24 1
29 24 25 2
30 25 26 1
31 26 27 1
32 28 29 1
33 29 30 1
34 30 31 1
35 30 35 1
36 31 32 1
37 32 33 1
38 33 34 1
39 34 35 1
40 3 36 1
41 5 37 1
42 6 38 1
43 7 39 1
44 8 40 1
45 21 41 1
46 22 42 1
47 23 43 1
48 24 44 1
49 27 45 1
50 27 46 1
51 27 47 1
52 28 48 1
53 28 49 1
54 29 50 1
55 29 51 1
56 30 52 1
57 31 53 1
58 31 54 1
59 32 55 1
60 32 56 1
61 34 57 1
62 34 58 1
63 35 59 1
64 35 60 1
@<TRIPOS>SUBSTRUCTURE
1	UNK0	1	GROUP	1 ****	UNK
