# created with PyMOL 2.3.2
@<TRIPOS>MOLECULE
1311
45 48 1                 
SMALL
USER_CHARGES
@<TRIPOS>ATOM
1	  Cl	-4.613	1.133	3.533	Cl	1	UNK0	0.000	
2	   C	-2.937	1.510	3.178	C.2	1	UNK0	0.000	
3	   C	-2.144	1.894	4.240	C.2	1	UNK0	0.000	
4	   C	-0.825	2.192	3.967	C.2	1	UNK0	0.000	
5	   C	-0.331	2.106	2.677	C.2	1	UNK0	0.000	
6	   C	-1.121	1.723	1.614	C.2	1	UNK0	0.000	
7	   C	-2.440	1.426	1.891	C.2	1	UNK0	0.000	
8	   N	-0.640	1.626	0.278	N.pl3	1	UNK0	0.000	
9	   C	0.614	1.287	-0.107	C.2	1	UNK0	0.000	
10	   O	1.590	0.996	0.602	O.2	1	UNK0	0.000	
11	   C	0.691	1.304	-1.504	C.2	1	UNK0	0.000	
12	   C	-0.478	1.643	-1.965	C.2	1	UNK0	0.000	
13	   N	-0.428	1.666	-3.326	N.pl3	1	UNK0	0.000	
14	   N	0.798	1.333	-3.638	N.pl3	1	UNK0	0.000	
15	   N	1.516	1.103	-2.549	N.pl3	1	UNK0	0.000	
16	   C	2.907	0.714	-2.502	C.3	1	UNK0	0.000	
17	   C	3.046	-0.785	-2.522	C.2	1	UNK0	0.000	
18	   O	4.197	-1.266	-2.486	O.2	1	UNK0	0.000	
19	   N	1.920	-1.617	-2.579	N.pl3	1	UNK0	0.000	
20	   C	1.876	-3.022	-2.605	C.2	1	UNK0	0.000	
21	   C	0.641	-3.689	-2.663	C.2	1	UNK0	0.000	
22	   C	0.535	-5.051	-2.690	C.2	1	UNK0	0.000	
23	   C	1.667	-5.814	-2.660	C.2	1	UNK0	0.000	
24	   C	2.904	-5.229	-2.603	C.2	1	UNK0	0.000	
25	   C	2.977	-3.834	-2.577	C.2	1	UNK0	0.000	
26	   C	-1.292	1.839	-0.873	C.2	1	UNK0	0.000	
27	   O	-2.493	2.176	-0.955	O.2	1	UNK0	0.000	
28	   O	-2.637	1.982	5.542	O.3	1	UNK0	0.000	
29	   C	-1.774	2.380	6.577	C.3	1	UNK0	0.000	
30	   H	-0.194	2.494	4.793	 H	1	UNK0	0.000	
31	   H	0.697	2.338	2.463	 H	1	UNK0	0.000	
32	   H	-3.098	1.120	1.085	 H	1	UNK0	0.000	
33	   H	-1.237	1.908	-3.931	 H	1	UNK0	0.000	
34	   H	1.147	1.263	-4.624	 H	1	UNK0	0.000	
35	   H	3.431	1.160	-1.642	 H	1	UNK0	0.000	
36	   H	3.402	1.073	-3.429	 H	1	UNK0	0.000	
37	   H	0.967	-1.115	-2.608	 H	1	UNK0	0.000	
38	   H	-0.240	-3.083	-2.686	 H	1	UNK0	0.000	
39	   H	-0.447	-5.555	-2.736	 H	1	UNK0	0.000	
40	   H	1.542	-6.895	-2.683	 H	1	UNK0	0.000	
41	   H	3.809	-5.838	-2.579	 H	1	UNK0	0.000	
42	   H	3.984	-3.419	-2.532	 H	1	UNK0	0.000	
43	   H	-1.445	3.447	6.470	 H	1	UNK0	0.000	
44	   H	-2.251	2.228	7.568	 H	1	UNK0	0.000	
45	   H	-0.842	1.771	6.592	 H	1	UNK0	0.000	
@<TRIPOS>BOND
1 1 2 1
2 2 3 2
3 2 7 1
4 3 4 1
5 3 28 1
6 4 5 2
7 5 6 1
8 6 7 2
9 6 8 1
10 8 9 1
11 8 26 1
12 9 10 2
13 9 11 1
14 11 12 2
15 11 15 1
16 12 13 1
17 12 26 1
18 13 14 1
19 14 15 1
20 15 16 1
21 16 17 1
22 17 18 2
23 17 19 1
24 19 20 1
25 20 21 2
26 20 25 1
27 21 22 1
28 22 23 2
29 23 24 1
30 24 25 2
31 26 27 2
32 28 29 1
33 4 30 1
34 5 31 1
35 7 32 1
36 13 33 1
37 14 34 1
38 16 35 1
39 16 36 1
40 19 37 1
41 21 38 1
42 22 39 1
43 23 40 1
44 24 41 1
45 25 42 1
46 29 43 1
47 29 44 1
48 29 45 1
@<TRIPOS>SUBSTRUCTURE
1	UNK0	1	GROUP	1 ****	UNK
