# created with PyMOL 2.3.2
@<TRIPOS>MOLECULE
1321
33 36 1                 
SMALL
USER_CHARGES
@<TRIPOS>ATOM
1	  Br	4.188	0.463	3.849	Br	1	UNK0	0.000	
2	   C	2.943	1.291	2.684	C.2	1	UNK0	0.000	
3	   C	1.815	0.585	2.272	C.2	1	UNK0	0.000	
4	   C	0.909	1.169	1.431	C.2	1	UNK0	0.000	
5	   C	1.123	2.481	0.989	C.2	1	UNK0	0.000	
6	   C	2.229	3.178	1.391	C.2	1	UNK0	0.000	
7	   C	3.130	2.573	2.237	C.2	1	UNK0	0.000	
8	   C	-0.275	0.438	0.974	C.3	1	UNK0	0.000	
9	   C	-0.112	-0.374	-0.266	C.3	1	UNK0	0.000	
10	   C	1.225	-0.939	-0.558	C.3	1	UNK0	0.000	
11	   N	1.439	-1.967	0.391	N.2	1	UNK0	0.000	
12	   C	0.543	-2.016	1.274	C.2	1	UNK0	0.000	
13	   C	-0.483	-0.998	1.085	C.3	1	UNK0	0.000	
14	   C	-1.881	-1.486	1.138	C.1	1	UNK0	0.000	
15	   N	-2.967	-1.872	1.169	N.1	1	UNK0	0.000	
16	   N	0.462	-2.950	2.393	N.pl3	1	UNK0	0.000	
17	   O	1.333	-1.397	-1.882	O.3	1	UNK0	0.000	
18	   C	1.889	-0.310	-2.555	C.3	1	UNK0	0.000	
19	   C	3.000	0.023	-1.549	C.3	1	UNK0	0.000	
20	   O	2.258	-0.008	-0.375	O.3	1	UNK0	0.000	
21	   C	-1.129	-0.347	-1.310	C.1	1	UNK0	0.000	
22	   N	-1.942	-0.324	-2.120	N.1	1	UNK0	0.000	
23	   H	1.707	-0.431	2.667	 H	1	UNK0	0.000	
24	   H	0.408	2.964	0.316	 H	1	UNK0	0.000	
25	   H	2.380	4.188	1.041	 H	1	UNK0	0.000	
26	   H	4.004	3.136	2.550	 H	1	UNK0	0.000	
27	   H	-1.195	1.088	0.930	 H	1	UNK0	0.000	
28	   H	1.036	-2.852	3.237	 H	1	UNK0	0.000	
29	   H	-0.204	-3.723	2.300	 H	1	UNK0	0.000	
30	   H	1.152	0.491	-2.564	 H	1	UNK0	0.000	
31	   H	2.298	-0.579	-3.538	 H	1	UNK0	0.000	
32	   H	3.474	0.979	-1.755	 H	1	UNK0	0.000	
33	   H	3.707	-0.836	-1.501	 H	1	UNK0	0.000	
@<TRIPOS>BOND
1 1 2 1
2 2 3 2
3 2 7 1
4 3 4 1
5 4 5 2
6 4 8 1
7 5 6 1
8 6 7 2
9 8 9 1
10 8 13 1
11 9 10 1
12 9 13 1
13 9 21 1
14 10 11 1
15 10 17 1
16 10 20 1
17 11 12 2
18 12 13 1
19 12 16 1
20 13 14 1
21 14 15 3
22 17 18 1
23 18 19 1
24 19 20 1
25 21 22 3
26 3 23 1
27 5 24 1
28 6 25 1
29 7 26 1
30 8 27 1
31 16 28 1
32 16 29 1
33 18 30 1
34 18 31 1
35 19 32 1
36 19 33 1
@<TRIPOS>SUBSTRUCTURE
1	UNK0	1	GROUP	1 ****	UNK
