# created with PyMOL 2.3.2
@<TRIPOS>MOLECULE
1322
38 41 1                 
SMALL
USER_CHARGES
@<TRIPOS>ATOM
1	  Br	7.911	1.319	-1.079	Br	1	UNK0	0.000	
2	   C	6.139	1.973	-0.822	C.2	1	UNK0	0.000	
3	   C	5.046	1.340	-1.423	C.2	1	UNK0	0.000	
4	   C	3.770	1.813	-1.236	C.2	1	UNK0	0.000	
5	   C	3.603	2.926	-0.441	C.2	1	UNK0	0.000	
6	   C	4.688	3.568	0.166	C.2	1	UNK0	0.000	
7	   C	5.962	3.085	-0.028	C.2	1	UNK0	0.000	
8	   N	2.617	1.201	-1.830	N.pl3	1	UNK0	0.000	
9	   N	2.201	1.243	-3.068	N.2	1	UNK0	0.000	
10	   N	1.088	0.542	-3.211	N.2	1	UNK0	0.000	
11	   C	0.761	0.015	-2.006	C.2	1	UNK0	0.000	
12	   C	1.744	0.445	-1.144	C.2	1	UNK0	0.000	
13	   C	-0.382	-0.828	-1.678	C.2	1	UNK0	0.000	
14	   O	-0.511	-1.218	-0.491	O.2	1	UNK0	0.000	
15	   N	-1.343	-1.220	-2.632	N.pl3	1	UNK0	0.000	
16	   C	-2.488	-2.054	-2.345	C.3	1	UNK0	0.000	
17	   C	-3.377	-1.417	-1.312	C.2	1	UNK0	0.000	
18	   N	-3.548	-1.776	-0.017	N.pl3	1	UNK0	0.000	
19	   C	-4.425	-0.950	0.563	C.2	1	UNK0	0.000	
20	   N	-4.798	-0.070	-0.397	N.2	1	UNK0	0.000	
21	   N	-4.169	-0.350	-1.521	N.2	1	UNK0	0.000	
22	   C	-4.643	-1.319	2.009	C.3	1	UNK0	0.000	
23	   C	-4.107	-2.735	2.026	C.3	1	UNK0	0.000	
24	   C	-3.072	-2.781	0.918	C.3	1	UNK0	0.000	
25	   H	5.179	0.469	-2.045	 H	1	UNK0	0.000	
26	   H	2.604	3.303	-0.290	 H	1	UNK0	0.000	
27	   H	4.545	4.450	0.795	 H	1	UNK0	0.000	
28	   H	6.806	3.577	0.439	 H	1	UNK0	0.000	
29	   H	1.792	0.205	-0.087	 H	1	UNK0	0.000	
30	   H	-1.219	-0.886	-3.614	 H	1	UNK0	0.000	
31	   H	-3.056	-2.276	-3.267	 H	1	UNK0	0.000	
32	   H	-2.128	-3.014	-1.871	 H	1	UNK0	0.000	
33	   H	-5.702	-1.250	2.267	 H	1	UNK0	0.000	
34	   H	-3.981	-0.693	2.659	 H	1	UNK0	0.000	
35	   H	-3.570	-2.974	2.964	 H	1	UNK0	0.000	
36	   H	-4.967	-3.408	1.829	 H	1	UNK0	0.000	
37	   H	-2.054	-2.595	1.294	 H	1	UNK0	0.000	
38	   H	-3.091	-3.805	0.493	 H	1	UNK0	0.000	
@<TRIPOS>BOND
1 1 2 1
2 2 3 2
3 2 7 1
4 3 4 1
5 4 5 2
6 4 8 1
7 5 6 1
8 6 7 2
9 8 9 1
10 8 12 1
11 9 10 2
12 10 11 1
13 11 12 2
14 11 13 1
15 13 14 2
16 13 15 1
17 15 16 1
18 16 17 1
19 17 18 1
20 17 21 2
21 18 19 1
22 18 24 1
23 19 20 2
24 19 22 1
25 20 21 1
26 22 23 1
27 23 24 1
28 3 25 1
29 5 26 1
30 6 27 1
31 7 28 1
32 12 29 1
33 15 30 1
34 16 31 1
35 16 32 1
36 22 33 1
37 22 34 1
38 23 35 1
39 23 36 1
40 24 37 1
41 24 38 1
@<TRIPOS>SUBSTRUCTURE
1	UNK0	1	GROUP	1 ****	UNK
