# created with PyMOL 2.3.2
@<TRIPOS>MOLECULE
1324
62 66 1                 
SMALL
USER_CHARGES
@<TRIPOS>ATOM
1	  Br	6.776	-3.937	-1.486	Br	1	UNK0	0.000	
2	   C	4.958	-3.564	-1.044	C.2	1	UNK0	0.000	
3	   C	4.199	-4.422	-0.270	C.2	1	UNK0	0.000	
4	   C	2.885	-4.153	0.050	C.2	1	UNK0	0.000	
5	   C	2.289	-3.009	-0.398	C.2	1	UNK0	0.000	
6	   C	3.035	-2.158	-1.163	C.2	1	UNK0	0.000	
7	   C	4.347	-2.409	-1.493	C.2	1	UNK0	0.000	
8	   C	0.936	-2.669	-0.084	C.3	1	UNK0	0.000	
9	   N	-0.001	-2.267	-1.047	N.pl3	1	UNK0	0.000	
10	   C	-1.167	-1.942	-0.243	C.2	1	UNK0	0.000	
11	   O	-2.396	-1.966	-0.593	O.2	1	UNK0	0.000	
12	   C	-0.695	-1.566	1.085	C.2	1	UNK0	0.000	
13	   O	-1.335	-1.207	2.125	O.2	1	UNK0	0.000	
14	   C	0.760	-1.684	1.014	C.2	1	UNK0	0.000	
15	   C	1.669	-1.095	1.768	C.2	1	UNK0	0.000	
16	   O	3.015	-1.378	1.581	O.2	1	UNK0	0.000	
17	   C	1.327	-0.138	2.809	C.2	1	UNK0	0.000	
18	   N	0.589	0.979	2.694	N.pl3	1	UNK0	0.000	
19	   C	0.467	1.581	3.900	C.2	1	UNK0	0.000	
20	   N	1.144	0.818	4.773	N.2	1	UNK0	0.000	
21	   C	1.681	-0.232	4.156	C.2	1	UNK0	0.000	
22	   C	2.508	-1.339	4.706	C.3	1	UNK0	0.000	
23	   C	-0.233	2.756	4.073	C.2	1	UNK0	0.000	
24	   C	-0.845	3.377	3.010	C.2	1	UNK0	0.000	
25	   C	-0.729	2.779	1.775	C.2	1	UNK0	0.000	
26	   C	-0.028	1.619	1.658	C.2	1	UNK0	0.000	
27	   C	-0.119	-2.135	-2.463	C.3	1	UNK0	0.000	
28	   C	0.190	-0.916	-3.178	C.3	1	UNK0	0.000	
29	   C	-0.582	0.331	-2.816	C.3	1	UNK0	0.000	
30	   N	-0.169	1.468	-3.633	N.4	1	UNK0	0.000	
31	   C	1.133	1.974	-3.313	C.3	1	UNK0	0.000	
32	   C	1.155	3.010	-2.228	C.3	1	UNK0	0.000	
33	   O	-0.010	3.084	-1.512	O.3	1	UNK0	0.000	
34	   C	-1.151	3.230	-2.257	C.3	1	UNK0	0.000	
35	   C	-1.113	2.543	-3.582	C.3	1	UNK0	0.000	
36	   H	4.663	-5.340	0.095	 H	1	UNK0	0.000	
37	   H	2.344	-4.899	0.680	 H	1	UNK0	0.000	
38	   H	2.623	-1.209	-1.554	 H	1	UNK0	0.000	
39	   H	4.942	-1.720	-2.109	 H	1	UNK0	0.000	
40	   H	0.488	-3.618	0.368	 H	1	UNK0	0.000	
41	   H	2.157	-2.290	4.261	 H	1	UNK0	0.000	
42	   H	2.344	-1.367	5.791	 H	1	UNK0	0.000	
43	   H	3.563	-1.122	4.462	 H	1	UNK0	0.000	
44	   H	-0.311	3.207	5.047	 H	1	UNK0	0.000	
45	   H	-1.397	4.286	3.096	 H	1	UNK0	0.000	
46	   H	-1.204	3.250	0.933	 H	1	UNK0	0.000	
47	   H	0.074	1.143	0.670	 H	1	UNK0	0.000	
48	   H	-1.130	-2.518	-2.818	 H	1	UNK0	0.000	
49	   H	0.570	-2.937	-2.882	 H	1	UNK0	0.000	
50	   H	1.270	-0.702	-3.403	 H	1	UNK0	0.000	
51	   H	-0.161	-1.107	-4.255	 H	1	UNK0	0.000	
52	   H	-0.381	0.652	-1.769	 H	1	UNK0	0.000	
53	   H	-1.649	0.156	-3.030	 H	1	UNK0	0.000	
54	   H	-0.123	1.114	-4.621	 H	1	UNK0	0.000	
55	   H	1.909	1.197	-3.154	 H	1	UNK0	0.000	
56	   H	1.479	2.516	-4.246	 H	1	UNK0	0.000	
57	   H	1.497	4.021	-2.586	 H	1	UNK0	0.000	
58	   H	1.963	2.707	-1.501	 H	1	UNK0	0.000	
59	   H	-1.455	4.309	-2.360	 H	1	UNK0	0.000	
60	   H	-1.995	2.767	-1.668	 H	1	UNK0	0.000	
61	   H	-0.792	3.297	-4.341	 H	1	UNK0	0.000	
62	   H	-2.099	2.171	-3.925	 H	1	UNK0	0.000	
@<TRIPOS>BOND
1 1 2 1
2 2 3 2
3 2 7 1
4 3 4 1
5 4 5 2
6 5 6 1
7 5 8 1
8 6 7 2
9 8 9 1
10 8 14 1
11 9 10 1
12 9 27 1
13 10 11 2
14 10 12 1
15 12 13 2
16 12 14 1
17 14 15 2
18 15 16 1
19 15 17 1
20 17 18 1
21 17 21 2
22 18 19 1
23 18 26 1
24 19 20 2
25 19 23 1
26 20 21 1
27 21 22 1
28 23 24 2
29 24 25 1
30 25 26 2
31 27 28 1
32 28 29 1
33 29 30 1
34 30 31 1
35 30 35 1
36 31 32 1
37 32 33 1
38 33 34 1
39 34 35 1
40 3 36 1
41 4 37 1
42 6 38 1
43 7 39 1
44 8 40 1
45 22 41 1
46 22 42 1
47 22 43 1
48 23 44 1
49 24 45 1
50 25 46 1
51 26 47 1
52 27 48 1
53 27 49 1
54 28 50 1
55 28 51 1
56 29 52 1
57 29 53 1
58 30 54 1
59 31 55 1
60 31 56 1
61 32 57 1
62 32 58 1
63 34 59 1
64 34 60 1
65 35 61 1
66 35 62 1
@<TRIPOS>SUBSTRUCTURE
1	UNK0	1	GROUP	1 ****	UNK
