# created with PyMOL 2.3.2
@<TRIPOS>MOLECULE
1325
51 54 1                 
SMALL
USER_CHARGES
@<TRIPOS>ATOM
1	  Br	6.677	1.663	2.637	Br	1	UNK0	0.000	
2	   C	5.005	1.495	1.717	C.2	1	UNK0	0.000	
3	   C	4.660	2.333	0.686	C.2	1	UNK0	0.000	
4	   C	3.457	2.191	0.043	C.2	1	UNK0	0.000	
5	   C	2.516	1.203	0.386	C.2	1	UNK0	0.000	
6	   C	2.878	0.384	1.410	C.2	1	UNK0	0.000	
7	   C	4.090	0.526	2.058	C.2	1	UNK0	0.000	
8	   C	1.278	1.168	-0.351	C.3	1	UNK0	0.000	
9	   N	0.942	-0.015	-1.087	N.pl3	1	UNK0	0.000	
10	   C	-0.452	0.200	-1.459	C.2	1	UNK0	0.000	
11	   O	-1.039	-0.303	-2.442	O.2	1	UNK0	0.000	
12	   C	-1.031	1.101	-0.480	C.2	1	UNK0	0.000	
13	   O	-2.211	1.558	-0.415	O.2	1	UNK0	0.000	
14	   C	0.051	1.402	0.463	C.2	1	UNK0	0.000	
15	   C	-0.095	1.814	1.692	C.2	1	UNK0	0.000	
16	   O	1.054	2.109	2.436	O.2	1	UNK0	0.000	
17	   C	-1.429	1.966	2.306	C.2	1	UNK0	0.000	
18	   O	-1.836	3.015	3.012	O.3	1	UNK0	0.000	
19	   C	-3.066	2.864	3.430	C.2	1	UNK0	0.000	
20	   C	-3.556	1.648	3.002	C.2	1	UNK0	0.000	
21	   C	-2.498	1.103	2.294	C.2	1	UNK0	0.000	
22	   C	-4.838	1.257	3.317	C.2	1	UNK0	0.000	
23	   C	-5.695	2.035	4.064	C.2	1	UNK0	0.000	
24	   C	-5.208	3.255	4.497	C.2	1	UNK0	0.000	
25	   C	-3.928	3.661	4.190	C.2	1	UNK0	0.000	
26	   C	1.701	-1.173	-1.504	C.3	1	UNK0	0.000	
27	   C	1.645	-2.380	-0.666	C.3	1	UNK0	0.000	
28	   N	0.356	-2.991	-0.472	N.4	1	UNK0	0.000	
29	   C	-0.451	-2.286	0.483	C.3	1	UNK0	0.000	
30	   C	-0.325	-3.364	-1.679	C.3	1	UNK0	0.000	
31	   H	5.368	3.101	0.404	 H	1	UNK0	0.000	
32	   H	3.250	2.890	-0.763	 H	1	UNK0	0.000	
33	   H	2.209	-0.379	1.745	 H	1	UNK0	0.000	
34	   H	4.351	-0.147	2.877	 H	1	UNK0	0.000	
35	   H	1.252	2.005	-1.116	 H	1	UNK0	0.000	
36	   H	-2.504	0.137	1.814	 H	1	UNK0	0.000	
37	   H	-5.202	0.303	2.973	 H	1	UNK0	0.000	
38	   H	-6.706	1.749	4.325	 H	1	UNK0	0.000	
39	   H	-5.834	3.910	5.086	 H	1	UNK0	0.000	
40	   H	-3.546	4.615	4.527	 H	1	UNK0	0.000	
41	   H	2.769	-0.902	-1.708	 H	1	UNK0	0.000	
42	   H	1.307	-1.458	-2.530	 H	1	UNK0	0.000	
43	   H	2.042	-2.170	0.345	 H	1	UNK0	0.000	
44	   H	2.294	-3.176	-1.141	 H	1	UNK0	0.000	
45	   H	0.590	-3.923	0.016	 H	1	UNK0	0.000	
46	   H	0.157	-1.441	0.858	 H	1	UNK0	0.000	
47	   H	-1.454	-1.996	0.105	 H	1	UNK0	0.000	
48	   H	-0.677	-2.890	1.409	 H	1	UNK0	0.000	
49	   H	0.229	-3.160	-2.609	 H	1	UNK0	0.000	
50	   H	-0.539	-4.474	-1.722	 H	1	UNK0	0.000	
51	   H	-1.366	-2.920	-1.699	 H	1	UNK0	0.000	
@<TRIPOS>BOND
1 1 2 1
2 2 3 2
3 2 7 1
4 3 4 1
5 4 5 2
6 5 6 1
7 5 8 1
8 6 7 2
9 8 9 1
10 8 14 1
11 9 10 1
12 9 26 1
13 10 11 2
14 10 12 1
15 12 13 2
16 12 14 1
17 14 15 2
18 15 16 1
19 15 17 1
20 17 18 1
21 17 21 2
22 18 19 1
23 19 20 2
24 19 25 1
25 20 21 1
26 20 22 1
27 22 23 2
28 23 24 1
29 24 25 2
30 26 27 1
31 27 28 1
32 28 29 1
33 28 30 1
34 3 31 1
35 4 32 1
36 6 33 1
37 7 34 1
38 8 35 1
39 21 36 1
40 22 37 1
41 23 38 1
42 24 39 1
43 25 40 1
44 26 41 1
45 26 42 1
46 27 43 1
47 27 44 1
48 28 45 1
49 29 46 1
50 29 47 1
51 29 48 1
52 30 49 1
53 30 50 1
54 30 51 1
@<TRIPOS>SUBSTRUCTURE
1	UNK0	1	GROUP	1 ****	UNK
