# created with PyMOL 2.3.2
@<TRIPOS>MOLECULE
1326
53 57 1                 
SMALL
USER_CHARGES
@<TRIPOS>ATOM
1	  Cl	0.047	1.492	-4.701	Cl	1	UNK0	0.000	
2	   C	-0.781	2.398	-3.430	C.2	1	UNK0	0.000	
3	   C	-1.547	1.721	-2.508	C.2	1	UNK0	0.000	
4	   C	-2.188	2.434	-1.523	C.2	1	UNK0	0.000	
5	   C	-2.072	3.799	-1.453	C.2	1	UNK0	0.000	
6	   C	-1.294	4.436	-2.398	C.2	1	UNK0	0.000	
7	   C	-0.634	3.769	-3.401	C.2	1	UNK0	0.000	
8	   C	-3.026	1.722	-0.511	C.3	1	UNK0	0.000	
9	   N	-2.204	1.267	0.595	N.pl3	1	UNK0	0.000	
10	   C	-1.974	2.076	1.761	C.2	1	UNK0	0.000	
11	   O	-2.423	3.225	1.828	O.2	1	UNK0	0.000	
12	   C	-1.176	1.429	2.844	C.3	1	UNK0	0.000	
13	   N	-0.018	0.729	2.323	N.3	1	UNK0	0.000	
14	   C	-0.363	-0.261	1.358	C.3	1	UNK0	0.000	
15	   C	-0.221	-1.705	1.794	C.3	1	UNK0	0.000	
16	   N	0.163	-1.967	0.423	N.3	1	UNK0	0.000	
17	   C	0.772	-0.659	0.409	C.3	1	UNK0	0.000	
18	   C	1.040	-3.080	0.212	C.3	1	UNK0	0.000	
19	   C	1.307	-3.177	-1.233	C.2	1	UNK0	0.000	
20	   N	0.543	-3.907	-2.059	N.2	1	UNK0	0.000	
21	   C	0.785	-3.996	-3.376	C.2	1	UNK0	0.000	
22	   C	1.837	-3.339	-3.957	C.2	1	UNK0	0.000	
23	   C	2.653	-2.574	-3.149	C.2	1	UNK0	0.000	
24	   C	2.371	-2.505	-1.784	C.2	1	UNK0	0.000	
25	   C	-1.575	-0.008	0.593	C.2	1	UNK0	0.000	
26	   O	-2.080	-0.934	-0.086	O.2	1	UNK0	0.000	
27	   C	0.834	1.780	1.811	C.3	1	UNK0	0.000	
28	   C	0.545	3.013	2.663	C.3	1	UNK0	0.000	
29	   C	-0.543	2.552	3.640	C.3	1	UNK0	0.000	
30	   O	1.660	3.424	3.375	O.3	1	UNK0	0.000	
31	   H	-1.648	0.625	-2.553	 H	1	UNK0	0.000	
32	   H	-2.587	4.353	-0.666	 H	1	UNK0	0.000	
33	   H	-1.206	5.529	-2.335	 H	1	UNK0	0.000	
34	   H	-0.041	4.316	-4.112	 H	1	UNK0	0.000	
35	   H	-3.416	0.803	-1.024	 H	1	UNK0	0.000	
36	   H	-3.876	2.327	-0.195	 H	1	UNK0	0.000	
37	   H	-1.788	0.762	3.473	 H	1	UNK0	0.000	
38	   H	-1.200	-2.118	2.089	 H	1	UNK0	0.000	
39	   H	0.557	-1.852	2.555	 H	1	UNK0	0.000	
40	   H	1.731	-0.556	0.924	 H	1	UNK0	0.000	
41	   H	0.694	-0.177	-0.580	 H	1	UNK0	0.000	
42	   H	0.572	-4.012	0.569	 H	1	UNK0	0.000	
43	   H	2.020	-2.953	0.751	 H	1	UNK0	0.000	
44	   H	0.138	-4.595	-3.982	 H	1	UNK0	0.000	
45	   H	2.065	-3.386	-5.014	 H	1	UNK0	0.000	
46	   H	3.479	-2.054	-3.583	 H	1	UNK0	0.000	
47	   H	3.008	-1.913	-1.175	 H	1	UNK0	0.000	
48	   H	1.916	1.530	1.882	 H	1	UNK0	0.000	
49	   H	0.533	1.948	0.747	 H	1	UNK0	0.000	
50	   H	0.118	3.824	2.033	 H	1	UNK0	0.000	
51	   H	-1.295	3.338	3.761	 H	1	UNK0	0.000	
52	   H	-0.100	2.199	4.586	 H	1	UNK0	0.000	
53	   H	2.456	3.170	2.817	 H	1	UNK0	0.000	
@<TRIPOS>BOND
1 1 2 1
2 2 3 2
3 2 7 1
4 3 4 1
5 4 5 2
6 4 8 1
7 5 6 1
8 6 7 2
9 8 9 1
10 9 10 1
11 9 25 1
12 10 11 2
13 10 12 1
14 12 13 1
15 12 29 1
16 13 14 1
17 13 27 1
18 14 15 1
19 14 17 1
20 14 25 1
21 15 16 1
22 16 17 1
23 16 18 1
24 18 19 1
25 19 20 2
26 19 24 1
27 20 21 1
28 21 22 2
29 22 23 1
30 23 24 2
31 25 26 2
32 27 28 1
33 28 29 1
34 28 30 1
35 3 31 1
36 5 32 1
37 6 33 1
38 7 34 1
39 8 35 1
40 8 36 1
41 12 37 1
42 15 38 1
43 15 39 1
44 17 40 1
45 17 41 1
46 18 42 1
47 18 43 1
48 21 44 1
49 22 45 1
50 23 46 1
51 24 47 1
52 27 48 1
53 27 49 1
54 28 50 1
55 29 51 1
56 29 52 1
57 30 53 1
@<TRIPOS>SUBSTRUCTURE
1	UNK0	1	GROUP	1 ****	UNK
