# created with PyMOL 2.3.2
@<TRIPOS>MOLECULE
1328
49 52 1                 
SMALL
USER_CHARGES
@<TRIPOS>ATOM
1	  Br	3.889	-3.584	6.633	Br	1	UNK0	0.000	
2	   C	2.363	-2.432	6.405	C.2	1	UNK0	0.000	
3	   C	2.020	-1.935	5.161	C.2	1	UNK0	0.000	
4	   C	0.915	-1.108	5.032	C.2	1	UNK0	0.000	
5	   C	0.167	-0.788	6.141	C.2	1	UNK0	0.000	
6	   C	0.532	-1.295	7.357	C.2	1	UNK0	0.000	
7	   C	1.622	-2.118	7.523	C.2	1	UNK0	0.000	
8	   C	0.521	-0.563	3.731	C.2	1	UNK0	0.000	
9	   O	-0.496	0.175	3.702	O.2	1	UNK0	0.000	
10	   N	1.230	-0.833	2.538	N.pl3	1	UNK0	0.000	
11	   C	0.777	-0.258	1.303	C.3	1	UNK0	0.000	
12	   C	0.553	-1.265	0.209	C.3	1	UNK0	0.000	
13	   N	0.613	-0.438	-0.990	N.pl3	1	UNK0	0.000	
14	   C	1.138	0.876	-0.674	C.3	1	UNK0	0.000	
15	   C	1.858	0.618	0.650	C.3	1	UNK0	0.000	
16	   C	2.052	1.290	-1.741	C.2	1	UNK0	0.000	
17	   O	3.225	1.700	-1.551	O.2	1	UNK0	0.000	
18	   N	1.576	1.221	-3.084	N.pl3	1	UNK0	0.000	
19	   C	0.435	0.380	-3.397	C.3	1	UNK0	0.000	
20	   C	0.263	-0.675	-2.363	C.2	1	UNK0	0.000	
21	   O	-0.194	-1.820	-2.633	O.2	1	UNK0	0.000	
22	   C	-0.856	1.205	-3.391	C.3	1	UNK0	0.000	
23	   C	-1.990	0.326	-3.711	C.2	1	UNK0	0.000	
24	   C	-2.346	0.171	-5.034	C.2	1	UNK0	0.000	
25	   C	-3.392	-0.631	-5.407	C.2	1	UNK0	0.000	
26	   C	-4.114	-1.304	-4.463	C.2	1	UNK0	0.000	
27	   C	-3.767	-1.156	-3.149	C.2	1	UNK0	0.000	
28	   C	-2.718	-0.353	-2.754	C.2	1	UNK0	0.000	
29	   O	-5.162	-2.102	-4.894	O.3	1	UNK0	0.000	
30	   H	2.624	-2.202	4.303	 H	1	UNK0	0.000	
31	   H	-0.702	-0.148	6.094	 H	1	UNK0	0.000	
32	   H	-0.050	-1.051	8.249	 H	1	UNK0	0.000	
33	   H	1.863	-2.490	8.509	 H	1	UNK0	0.000	
34	   H	2.072	-1.439	2.538	 H	1	UNK0	0.000	
35	   H	-0.111	0.364	1.395	 H	1	UNK0	0.000	
36	   H	-0.414	-1.800	0.292	 H	1	UNK0	0.000	
37	   H	1.419	-1.977	0.217	 H	1	UNK0	0.000	
38	   H	0.344	1.613	-0.440	 H	1	UNK0	0.000	
39	   H	2.792	0.050	0.507	 H	1	UNK0	0.000	
40	   H	1.976	1.544	1.235	 H	1	UNK0	0.000	
41	   H	2.026	1.763	-3.857	 H	1	UNK0	0.000	
42	   H	0.539	-0.100	-4.391	 H	1	UNK0	0.000	
43	   H	-0.974	1.748	-2.440	 H	1	UNK0	0.000	
44	   H	-0.777	1.974	-4.185	 H	1	UNK0	0.000	
45	   H	-1.804	0.685	-5.826	 H	1	UNK0	0.000	
46	   H	-3.642	-0.728	-6.456	 H	1	UNK0	0.000	
47	   H	-4.339	-1.689	-2.396	 H	1	UNK0	0.000	
48	   H	-2.428	-0.222	-1.723	 H	1	UNK0	0.000	
49	   H	-6.095	-1.706	-4.984	 H	1	UNK0	0.000	
@<TRIPOS>BOND
1 1 2 1
2 2 3 2
3 2 7 1
4 3 4 1
5 4 5 2
6 4 8 1
7 5 6 1
8 6 7 2
9 8 9 2
10 8 10 1
11 10 11 1
12 11 12 1
13 11 15 1
14 12 13 1
15 13 14 1
16 13 20 1
17 14 15 1
18 14 16 1
19 16 17 2
20 16 18 1
21 18 19 1
22 19 20 1
23 19 22 1
24 20 21 2
25 22 23 1
26 23 24 2
27 23 28 1
28 24 25 1
29 25 26 2
30 26 27 1
31 26 29 1
32 27 28 2
33 3 30 1
34 5 31 1
35 6 32 1
36 7 33 1
37 10 34 1
38 11 35 1
39 12 36 1
40 12 37 1
41 14 38 1
42 15 39 1
43 15 40 1
44 18 41 1
45 19 42 1
46 22 43 1
47 22 44 1
48 24 45 1
49 25 46 1
50 27 47 1
51 28 48 1
52 29 49 1
@<TRIPOS>SUBSTRUCTURE
1	UNK0	1	GROUP	1 ****	UNK
