# created with PyMOL 2.3.2
@<TRIPOS>MOLECULE
1331
63 66 1                 
SMALL
USER_CHARGES
@<TRIPOS>ATOM
1	  Br	5.808	3.726	-1.730	Br	1	UNK0	0.000	
2	   C	4.695	2.566	-0.705	C.2	1	UNK0	0.000	
3	   C	3.378	2.403	-1.035	C.2	1	UNK0	0.000	
4	   C	2.593	1.569	-0.290	C.2	1	UNK0	0.000	
5	   C	3.103	0.897	0.777	C.2	1	UNK0	0.000	
6	   C	4.437	1.080	1.086	C.2	1	UNK0	0.000	
7	   C	5.268	1.910	0.366	C.2	1	UNK0	0.000	
8	   C	2.322	0.023	1.620	C.3	1	UNK0	0.000	
9	   N	1.157	0.564	2.277	N.pl3	1	UNK0	0.000	
10	   C	0.429	-0.588	2.699	C.2	1	UNK0	0.000	
11	   O	-0.417	-0.717	3.629	O.2	1	UNK0	0.000	
12	   C	0.804	-1.723	1.859	C.2	1	UNK0	0.000	
13	   O	0.365	-2.893	1.934	O.2	1	UNK0	0.000	
14	   C	1.785	-1.196	0.931	C.2	1	UNK0	0.000	
15	   C	2.101	-1.663	-0.253	C.2	1	UNK0	0.000	
16	   O	3.052	-0.990	-1.044	O.2	1	UNK0	0.000	
17	   C	1.474	-2.884	-0.745	C.2	1	UNK0	0.000	
18	   C	1.635	-4.178	-0.306	C.2	1	UNK0	0.000	
19	   N	0.815	-4.938	-1.039	N.pl3	1	UNK0	0.000	
20	   C	0.143	-4.204	-1.921	C.2	1	UNK0	0.000	
21	   C	0.525	-2.895	-1.776	C.2	1	UNK0	0.000	
22	   C	0.067	-1.682	-2.530	C.3	1	UNK0	0.000	
23	   C	-0.849	-4.617	-2.913	C.2	1	UNK0	0.000	
24	   O	-1.138	-5.832	-2.973	O.co2	1	UNK0	0.000	
25	   O	-1.477	-3.743	-3.778	O.3	1	UNK0	0.000	
26	   C	-2.433	-4.118	-4.738	C.3	1	UNK0	0.000	
27	   C	2.589	-4.653	0.763	C.3	1	UNK0	0.000	
28	   C	0.720	1.888	2.584	C.3	1	UNK0	0.000	
29	   C	-0.181	2.646	1.747	C.3	1	UNK0	0.000	
30	   N	-1.500	2.274	1.427	N.4	1	UNK0	0.000	
31	   C	-2.365	1.869	2.492	C.3	1	UNK0	0.000	
32	   C	-3.313	0.787	2.026	C.3	1	UNK0	0.000	
33	   O	-2.589	-0.258	1.524	O.3	1	UNK0	0.000	
34	   C	-1.996	0.094	0.344	C.3	1	UNK0	0.000	
35	   C	-1.678	1.530	0.190	C.3	1	UNK0	0.000	
36	   H	2.971	2.957	-1.906	 H	1	UNK0	0.000	
37	   H	1.572	1.456	-0.583	 H	1	UNK0	0.000	
38	   H	4.898	0.563	1.932	 H	1	UNK0	0.000	
39	   H	6.330	2.049	0.623	 H	1	UNK0	0.000	
40	   H	2.976	-0.437	2.444	 H	1	UNK0	0.000	
41	   H	0.728	-5.982	-0.918	 H	1	UNK0	0.000	
42	   H	0.723	-0.838	-2.270	 H	1	UNK0	0.000	
43	   H	-0.996	-1.525	-2.366	 H	1	UNK0	0.000	
44	   H	0.245	-1.887	-3.618	 H	1	UNK0	0.000	
45	   H	-3.156	-3.257	-4.826	 H	1	UNK0	0.000	
46	   H	-2.009	-4.252	-5.756	 H	1	UNK0	0.000	
47	   H	-2.974	-5.022	-4.454	 H	1	UNK0	0.000	
48	   H	1.917	-5.137	1.527	 H	1	UNK0	0.000	
49	   H	3.106	-3.806	1.208	 H	1	UNK0	0.000	
50	   H	3.242	-5.468	0.391	 H	1	UNK0	0.000	
51	   H	0.482	1.982	3.704	 H	1	UNK0	0.000	
52	   H	1.699	2.492	2.578	 H	1	UNK0	0.000	
53	   H	0.323	2.907	0.771	 H	1	UNK0	0.000	
54	   H	-0.208	3.699	2.234	 H	1	UNK0	0.000	
55	   H	-1.950	3.227	1.134	 H	1	UNK0	0.000	
56	   H	-1.877	1.531	3.403	 H	1	UNK0	0.000	
57	   H	-3.060	2.697	2.849	 H	1	UNK0	0.000	
58	   H	-4.036	1.141	1.260	 H	1	UNK0	0.000	
59	   H	-3.841	0.411	2.939	 H	1	UNK0	0.000	
60	   H	-1.077	-0.487	0.082	 H	1	UNK0	0.000	
61	   H	-2.723	-0.227	-0.463	 H	1	UNK0	0.000	
62	   H	-0.772	1.681	-0.442	 H	1	UNK0	0.000	
63	   H	-2.503	1.971	-0.456	 H	1	UNK0	0.000	
@<TRIPOS>BOND
1 1 2 1
2 2 3 2
3 2 7 1
4 3 4 1
5 4 5 2
6 5 6 1
7 5 8 1
8 6 7 2
9 8 9 1
10 8 14 1
11 9 10 1
12 9 28 1
13 10 11 2
14 10 12 1
15 12 13 2
16 12 14 1
17 14 15 2
18 15 16 1
19 15 17 1
20 17 18 2
21 17 21 1
22 18 19 1
23 18 27 1
24 19 20 1
25 20 21 2
26 20 23 1
27 21 22 1
28 23 24 2
29 23 25 1
30 25 26 1
31 28 29 1
32 29 30 1
33 30 31 1
34 30 35 1
35 31 32 1
36 32 33 1
37 33 34 1
38 34 35 1
39 3 36 1
40 4 37 1
41 6 38 1
42 7 39 1
43 8 40 1
44 19 41 1
45 22 42 1
46 22 43 1
47 22 44 1
48 26 45 1
49 26 46 1
50 26 47 1
51 27 48 1
52 27 49 1
53 27 50 1
54 28 51 1
55 28 52 1
56 29 53 1
57 29 54 1
58 30 55 1
59 31 56 1
60 31 57 1
61 32 58 1
62 32 59 1
63 34 60 1
64 34 61 1
65 35 62 1
66 35 63 1
@<TRIPOS>SUBSTRUCTURE
1	UNK0	1	GROUP	1 ****	UNK
