# created with PyMOL 2.3.2
@<TRIPOS>MOLECULE
1338
48 51 1                 
SMALL
USER_CHARGES
@<TRIPOS>ATOM
1	  Br	-5.816	-4.374	3.462	Br	1	UNK0	0.000	
2	   C	-4.184	-3.837	2.618	C.2	1	UNK0	0.000	
3	   C	-3.993	-4.047	1.259	C.2	1	UNK0	0.000	
4	   C	-2.811	-3.650	0.677	C.2	1	UNK0	0.000	
5	   C	-1.783	-3.039	1.394	C.2	1	UNK0	0.000	
6	   C	-2.011	-2.849	2.729	C.2	1	UNK0	0.000	
7	   C	-3.197	-3.242	3.340	C.2	1	UNK0	0.000	
8	   N	-0.588	-2.633	0.776	N.pl3	1	UNK0	0.000	
9	   C	0.586	-2.155	1.365	C.2	1	UNK0	0.000	
10	   O	0.719	-2.031	2.599	O.2	1	UNK0	0.000	
11	   C	1.790	-1.753	0.553	C.3	1	UNK0	0.000	
12	   N	1.934	-0.299	0.586	N.pl3	1	UNK0	0.000	
13	   N	1.361	0.526	-0.255	N.2	1	UNK0	0.000	
14	   C	1.485	1.867	-0.216	C.2	1	UNK0	0.000	
15	   N	2.240	2.447	0.729	N.pl3	1	UNK0	0.000	
16	   C	2.216	3.875	0.574	C.3	1	UNK0	0.000	
17	   C	1.584	4.090	-0.763	C.3	1	UNK0	0.000	
18	   N	0.906	2.861	-1.051	N.pl3	1	UNK0	0.000	
19	   C	-0.147	2.656	-2.004	C.2	1	UNK0	0.000	
20	   C	-1.412	3.155	-1.785	C.2	1	UNK0	0.000	
21	   C	-2.434	2.965	-2.708	C.2	1	UNK0	0.000	
22	   C	-2.226	2.271	-3.877	C.2	1	UNK0	0.000	
23	   C	-0.966	1.770	-4.104	C.2	1	UNK0	0.000	
24	   C	0.062	1.961	-3.175	C.2	1	UNK0	0.000	
25	   O	-3.267	2.080	-4.807	O.3	1	UNK0	0.000	
26	   C	-4.568	2.610	-4.521	C.3	1	UNK0	0.000	
27	   C	2.862	1.630	1.633	C.2	1	UNK0	0.000	
28	   O	3.581	2.171	2.535	O.2	1	UNK0	0.000	
29	   C	2.704	0.265	1.555	C.2	1	UNK0	0.000	
30	   O	3.267	-0.506	2.375	O.2	1	UNK0	0.000	
31	   H	-4.791	-4.522	0.702	 H	1	UNK0	0.000	
32	   H	-2.700	-3.826	-0.371	 H	1	UNK0	0.000	
33	   H	-1.303	-2.383	3.398	 H	1	UNK0	0.000	
34	   H	-3.355	-3.082	4.401	 H	1	UNK0	0.000	
35	   H	-0.566	-2.701	-0.308	 H	1	UNK0	0.000	
36	   H	2.675	-2.196	1.036	 H	1	UNK0	0.000	
37	   H	1.695	-2.109	-0.479	 H	1	UNK0	0.000	
38	   H	3.242	4.318	0.634	 H	1	UNK0	0.000	
39	   H	1.544	4.342	1.339	 H	1	UNK0	0.000	
40	   H	0.879	4.956	-0.713	 H	1	UNK0	0.000	
41	   H	2.416	4.296	-1.476	 H	1	UNK0	0.000	
42	   H	-1.558	3.702	-0.854	 H	1	UNK0	0.000	
43	   H	-3.412	3.374	-2.500	 H	1	UNK0	0.000	
44	   H	-0.804	1.219	-5.029	 H	1	UNK0	0.000	
45	   H	1.047	1.567	-3.355	 H	1	UNK0	0.000	
46	   H	-5.333	2.160	-5.161	 H	1	UNK0	0.000	
47	   H	-4.787	2.252	-3.470	 H	1	UNK0	0.000	
48	   H	-4.545	3.714	-4.542	 H	1	UNK0	0.000	
@<TRIPOS>BOND
1 1 2 1
2 2 3 2
3 2 7 1
4 3 4 1
5 4 5 2
6 5 6 1
7 5 8 1
8 6 7 2
9 8 9 1
10 9 10 2
11 9 11 1
12 11 12 1
13 12 13 1
14 12 29 1
15 13 14 2
16 14 15 1
17 14 18 1
18 15 16 1
19 15 27 1
20 16 17 1
21 17 18 1
22 18 19 1
23 19 20 2
24 19 24 1
25 20 21 1
26 21 22 2
27 22 23 1
28 22 25 1
29 23 24 2
30 25 26 1
31 27 28 2
32 27 29 1
33 29 30 2
34 3 31 1
35 4 32 1
36 6 33 1
37 7 34 1
38 8 35 1
39 11 36 1
40 11 37 1
41 16 38 1
42 16 39 1
43 17 40 1
44 17 41 1
45 20 42 1
46 21 43 1
47 23 44 1
48 24 45 1
49 26 46 1
50 26 47 1
51 26 48 1
@<TRIPOS>SUBSTRUCTURE
1	UNK0	1	GROUP	1 ****	UNK
