# created with PyMOL 2.3.2
@<TRIPOS>MOLECULE
1339
44 47 1                 
SMALL
USER_CHARGES
@<TRIPOS>ATOM
1	  Br	4.010	-4.323	5.301	Br	1	UNK0	0.000	
2	   C	2.548	-3.429	4.456	C.2	1	UNK0	0.000	
3	   C	1.772	-4.045	3.510	C.2	1	UNK0	0.000	
4	   C	0.704	-3.377	2.895	C.2	1	UNK0	0.000	
5	   C	0.364	-2.081	3.192	C.2	1	UNK0	0.000	
6	   C	1.181	-1.479	4.169	C.2	1	UNK0	0.000	
7	   C	2.225	-2.124	4.772	C.2	1	UNK0	0.000	
8	   N	-0.660	-1.322	2.619	N.pl3	1	UNK0	0.000	
9	   C	-1.319	-1.611	1.418	C.2	1	UNK0	0.000	
10	   O	-0.970	-2.664	0.750	O.2	1	UNK0	0.000	
11	   C	-2.397	-0.857	0.780	C.3	1	UNK0	0.000	
12	   N	-1.896	0.422	0.250	N.pl3	1	UNK0	0.000	
13	   N	-1.292	0.515	-0.931	N.2	1	UNK0	0.000	
14	   C	-0.805	1.701	-1.396	C.2	1	UNK0	0.000	
15	   N	-0.939	2.805	-0.645	N.pl3	1	UNK0	0.000	
16	   C	-0.381	3.952	-1.327	C.3	1	UNK0	0.000	
17	   C	0.157	3.461	-2.638	C.3	1	UNK0	0.000	
18	   N	-0.100	2.034	-2.586	N.pl3	1	UNK0	0.000	
19	   C	0.316	1.144	-3.604	C.2	1	UNK0	0.000	
20	   C	-0.154	-0.135	-3.737	C.2	1	UNK0	0.000	
21	   C	0.285	-0.987	-4.735	C.2	1	UNK0	0.000	
22	   C	1.232	-0.547	-5.640	C.2	1	UNK0	0.000	
23	   C	1.711	0.720	-5.526	C.2	1	UNK0	0.000	
24	   C	1.269	1.562	-4.528	C.2	1	UNK0	0.000	
25	   C	-1.538	2.774	0.553	C.2	1	UNK0	0.000	
26	   O	-1.662	3.807	1.253	O.2	1	UNK0	0.000	
27	   C	-2.011	1.548	0.976	C.2	1	UNK0	0.000	
28	   O	-2.582	1.469	2.093	O.2	1	UNK0	0.000	
29	   H	1.995	-5.067	3.238	 H	1	UNK0	0.000	
30	   H	0.106	-3.908	2.159	 H	1	UNK0	0.000	
31	   H	0.952	-0.456	4.437	 H	1	UNK0	0.000	
32	   H	2.854	-1.644	5.526	 H	1	UNK0	0.000	
33	   H	-0.971	-0.446	3.127	 H	1	UNK0	0.000	
34	   H	-3.211	-0.577	1.492	 H	1	UNK0	0.000	
35	   H	-2.824	-1.423	-0.066	 H	1	UNK0	0.000	
36	   H	-1.239	4.622	-1.570	 H	1	UNK0	0.000	
37	   H	0.382	4.487	-0.715	 H	1	UNK0	0.000	
38	   H	1.265	3.633	-2.599	 H	1	UNK0	0.000	
39	   H	-0.298	3.936	-3.531	 H	1	UNK0	0.000	
40	   H	-0.883	-0.475	-3.041	 H	1	UNK0	0.000	
41	   H	-0.102	-1.996	-4.813	 H	1	UNK0	0.000	
42	   H	1.577	-1.229	-6.428	 H	1	UNK0	0.000	
43	   H	2.449	1.086	-6.216	 H	1	UNK0	0.000	
44	   H	1.652	2.548	-4.447	 H	1	UNK0	0.000	
@<TRIPOS>BOND
1 1 2 1
2 2 3 2
3 2 7 1
4 3 4 1
5 4 5 2
6 5 6 1
7 5 8 1
8 6 7 2
9 8 9 1
10 9 10 2
11 9 11 1
12 11 12 1
13 12 13 1
14 12 27 1
15 13 14 2
16 14 15 1
17 14 18 1
18 15 16 1
19 15 25 1
20 16 17 1
21 17 18 1
22 18 19 1
23 19 20 2
24 19 24 1
25 20 21 1
26 21 22 2
27 22 23 1
28 23 24 2
29 25 26 2
30 25 27 1
31 27 28 2
32 3 29 1
33 4 30 1
34 6 31 1
35 7 32 1
36 8 33 1
37 11 34 1
38 11 35 1
39 16 36 1
40 16 37 1
41 17 38 1
42 17 39 1
43 20 40 1
44 21 41 1
45 22 42 1
46 23 43 1
47 24 44 1
@<TRIPOS>SUBSTRUCTURE
1	UNK0	1	GROUP	1 ****	UNK
