# created with PyMOL 2.3.2
@<TRIPOS>MOLECULE
1341
50 53 1                 
SMALL
USER_CHARGES
@<TRIPOS>ATOM
1	  Cl	8.010	-0.854	-2.829	Cl	1	UNK0	0.000	
2	   C	6.291	-1.064	-2.522	C.2	1	UNK0	0.000	
3	   C	5.428	0.010	-2.499	C.2	1	UNK0	0.000	
4	   C	4.077	-0.161	-2.256	C.2	1	UNK0	0.000	
5	   C	3.525	-1.406	-2.027	C.2	1	UNK0	0.000	
6	   C	4.386	-2.483	-2.051	C.2	1	UNK0	0.000	
7	   C	5.754	-2.314	-2.296	C.2	1	UNK0	0.000	
8	   C	2.093	-1.558	-1.775	C.2	1	UNK0	0.000	
9	   N	1.370	-2.674	-1.522	N.pl3	1	UNK0	0.000	
10	   C	0.079	-2.321	-1.353	C.2	1	UNK0	0.000	
11	   N	-0.063	-0.985	-1.490	N.pl3	1	UNK0	0.000	
12	   C	1.182	-0.525	-1.750	C.2	1	UNK0	0.000	
13	   C	-1.271	-0.192	-1.388	C.3	1	UNK0	0.000	
14	   C	-1.468	0.253	0.021	C.2	1	UNK0	0.000	
15	   O	-0.633	-0.095	0.858	O.2	1	UNK0	0.000	
16	   N	-2.587	1.037	0.308	N.pl3	1	UNK0	0.000	
17	   C	-2.911	1.545	1.593	C.2	1	UNK0	0.000	
18	   C	-4.212	2.009	1.827	C.2	1	UNK0	0.000	
19	   C	-4.551	2.519	3.039	C.2	1	UNK0	0.000	
20	   C	-3.630	2.594	4.071	C.2	1	UNK0	0.000	
21	   C	-2.364	2.140	3.833	C.2	1	UNK0	0.000	
22	   C	-1.984	1.609	2.594	C.2	1	UNK0	0.000	
23	   C	-4.024	3.155	5.388	C.3	1	UNK0	0.000	
24	   C	-3.756	4.663	5.362	C.3	1	UNK0	0.000	
25	   C	-0.739	-3.529	-1.075	C.3	1	UNK0	0.000	
26	   C	0.216	-4.670	-1.001	C.3	1	UNK0	0.000	
27	   C	1.535	-4.103	-1.375	C.3	1	UNK0	0.000	
28	   H	5.853	0.987	-2.677	 H	1	UNK0	0.000	
29	   H	3.417	0.702	-2.243	 H	1	UNK0	0.000	
30	   H	4.005	-3.479	-1.879	 H	1	UNK0	0.000	
31	   H	6.426	-3.152	-2.314	 H	1	UNK0	0.000	
32	   H	1.424	0.537	-1.918	 H	1	UNK0	0.000	
33	   H	-2.142	-0.767	-1.762	 H	1	UNK0	0.000	
34	   H	-1.143	0.668	-2.083	 H	1	UNK0	0.000	
35	   H	-3.284	1.310	-0.463	 H	1	UNK0	0.000	
36	   H	-4.954	1.954	1.016	 H	1	UNK0	0.000	
37	   H	-5.576	2.885	3.224	 H	1	UNK0	0.000	
38	   H	-1.596	2.174	4.609	 H	1	UNK0	0.000	
39	   H	-0.938	1.276	2.483	 H	1	UNK0	0.000	
40	   H	-3.447	2.666	6.191	 H	1	UNK0	0.000	
41	   H	-5.103	3.001	5.564	 H	1	UNK0	0.000	
42	   H	-4.486	5.155	4.708	 H	1	UNK0	0.000	
43	   H	-2.707	4.827	5.086	 H	1	UNK0	0.000	
44	   H	-3.895	5.070	6.391	 H	1	UNK0	0.000	
45	   H	-1.526	-3.664	-1.847	 H	1	UNK0	0.000	
46	   H	-1.236	-3.422	-0.071	 H	1	UNK0	0.000	
47	   H	0.225	-5.118	0.037	 H	1	UNK0	0.000	
48	   H	-0.107	-5.496	-1.707	 H	1	UNK0	0.000	
49	   H	1.914	-4.564	-2.319	 H	1	UNK0	0.000	
50	   H	2.234	-4.295	-0.512	 H	1	UNK0	0.000	
@<TRIPOS>BOND
1 1 2 1
2 2 3 2
3 2 7 1
4 3 4 1
5 4 5 2
6 5 6 1
7 5 8 1
8 6 7 2
9 8 9 1
10 8 12 2
11 9 10 1
12 9 27 1
13 10 11 2
14 10 25 1
15 11 12 1
16 11 13 1
17 13 14 1
18 14 15 2
19 14 16 1
20 16 17 1
21 17 18 2
22 17 22 1
23 18 19 1
24 19 20 2
25 20 21 1
26 20 23 1
27 21 22 2
28 23 24 1
29 25 26 1
30 26 27 1
31 3 28 1
32 4 29 1
33 6 30 1
34 7 31 1
35 12 32 1
36 13 33 1
37 13 34 1
38 16 35 1
39 18 36 1
40 19 37 1
41 21 38 1
42 22 39 1
43 23 40 1
44 23 41 1
45 24 42 1
46 24 43 1
47 24 44 1
48 25 45 1
49 25 46 1
50 26 47 1
51 26 48 1
52 27 49 1
53 27 50 1
@<TRIPOS>SUBSTRUCTURE
1	UNK0	1	GROUP	1 ****	UNK
