# created with PyMOL 2.3.2
@<TRIPOS>MOLECULE
1346
48 51 1                 
SMALL
USER_CHARGES
@<TRIPOS>ATOM
1	  Br	4.352	1.384	-3.909	Br	1	UNK0	0.000	
2	   C	2.807	2.465	-3.462	C.2	1	UNK0	0.000	
3	   C	1.607	2.321	-4.106	C.2	1	UNK0	0.000	
4	   C	0.440	3.049	-3.829	C.2	1	UNK0	0.000	
5	   C	0.605	3.967	-2.802	C.2	1	UNK0	0.000	
6	   C	1.801	4.128	-2.127	C.2	1	UNK0	0.000	
7	   C	2.930	3.374	-2.454	C.2	1	UNK0	0.000	
8	   C	-0.848	2.653	-4.325	C.2	1	UNK0	0.000	
9	   N	-1.631	1.570	-3.918	N.2	1	UNK0	0.000	
10	   N	-1.266	0.799	-3.001	N.pl3	1	UNK0	0.000	
11	   C	-0.939	-0.457	-2.437	C.2	1	UNK0	0.000	
12	   O	-1.094	-1.552	-2.888	O.2	1	UNK0	0.000	
13	   C	-0.248	-0.152	-1.129	C.2	1	UNK0	0.000	
14	   N	0.771	0.829	-1.240	N.2	1	UNK0	0.000	
15	   N	1.220	1.080	-0.078	N.2	1	UNK0	0.000	
16	   N	0.527	0.287	0.852	N.pl3	1	UNK0	0.000	
17	   C	-0.337	-0.444	0.148	C.2	1	UNK0	0.000	
18	   C	-1.389	-1.378	0.623	C.3	1	UNK0	0.000	
19	   N	-0.781	-2.451	1.377	N.3	1	UNK0	0.000	
20	   C	-1.645	-3.644	1.447	C.3	1	UNK0	0.000	
21	   C	-0.857	-4.740	0.791	C.3	1	UNK0	0.000	
22	   O	0.335	-5.039	1.415	O.3	1	UNK0	0.000	
23	   C	0.892	-3.964	2.047	C.3	1	UNK0	0.000	
24	   C	0.573	-2.715	1.170	C.3	1	UNK0	0.000	
25	   C	0.712	0.678	2.185	C.2	1	UNK0	0.000	
26	   N	-0.379	1.324	2.824	N.2	1	UNK0	0.000	
27	   O	0.042	1.687	3.940	O.3	1	UNK0	0.000	
28	   N	1.262	1.418	4.196	N.2	1	UNK0	0.000	
29	   C	1.695	0.757	3.050	C.2	1	UNK0	0.000	
30	   N	3.041	0.350	2.899	N.pl3	1	UNK0	0.000	
31	   H	1.488	1.622	-4.951	 H	1	UNK0	0.000	
32	   H	-0.250	4.586	-2.507	 H	1	UNK0	0.000	
33	   H	1.920	4.824	-1.283	 H	1	UNK0	0.000	
34	   H	3.863	3.460	-1.896	 H	1	UNK0	0.000	
35	   H	-1.367	3.092	-5.089	 H	1	UNK0	0.000	
36	   H	-1.473	1.442	-1.955	 H	1	UNK0	0.000	
37	   H	-2.148	-1.613	-0.073	 H	1	UNK0	0.000	
38	   H	-1.961	-0.730	1.487	 H	1	UNK0	0.000	
39	   H	-2.540	-3.487	0.777	 H	1	UNK0	0.000	
40	   H	-1.950	-3.952	2.440	 H	1	UNK0	0.000	
41	   H	-0.661	-4.486	-0.284	 H	1	UNK0	0.000	
42	   H	-1.474	-5.692	0.770	 H	1	UNK0	0.000	
43	   H	0.400	-3.750	3.032	 H	1	UNK0	0.000	
44	   H	1.959	-4.074	2.190	 H	1	UNK0	0.000	
45	   H	1.293	-1.900	1.349	 H	1	UNK0	0.000	
46	   H	0.696	-3.093	0.110	 H	1	UNK0	0.000	
47	   H	3.362	-0.532	3.388	 H	1	UNK0	0.000	
48	   H	3.760	0.840	2.329	 H	1	UNK0	0.000	
@<TRIPOS>BOND
1 1 2 1
2 2 3 2
3 2 7 1
4 3 4 1
5 4 5 2
6 4 8 1
7 5 6 1
8 6 7 2
9 8 9 2
10 9 10 1
11 10 11 1
12 11 12 2
13 11 13 1
14 13 14 1
15 13 17 2
16 14 15 2
17 15 16 1
18 16 17 1
19 16 25 1
20 17 18 1
21 18 19 1
22 19 20 1
23 19 24 1
24 20 21 1
25 21 22 1
26 22 23 1
27 23 24 1
28 25 26 2
29 25 29 1
30 26 27 1
31 27 28 1
32 28 29 2
33 29 30 1
34 3 31 1
35 5 32 1
36 6 33 1
37 7 34 1
38 8 35 1
39 10 36 1
40 18 37 1
41 18 38 1
42 20 39 1
43 20 40 1
44 21 41 1
45 21 42 1
46 23 43 1
47 23 44 1
48 24 45 1
49 24 46 1
50 30 47 1
51 30 48 1
@<TRIPOS>SUBSTRUCTURE
1	UNK0	1	GROUP	1 ****	UNK
