# created with PyMOL 2.3.2
@<TRIPOS>MOLECULE
1351
46 49 1                 
SMALL
USER_CHARGES
@<TRIPOS>ATOM
1	  Cl	-2.514	2.848	-1.800	Cl	1	UNK0	0.000	
2	   C	-3.103	2.774	-0.153	C.2	1	UNK0	0.000	
3	   C	-4.227	3.474	0.190	C.2	1	UNK0	0.000	
4	   C	-4.673	3.401	1.489	C.2	1	UNK0	0.000	
5	   C	-4.001	2.642	2.418	C.2	1	UNK0	0.000	
6	   C	-2.842	1.905	2.115	C.2	1	UNK0	0.000	
7	   C	-2.434	2.004	0.814	C.2	1	UNK0	0.000	
8	   C	-2.226	1.144	3.165	C.2	1	UNK0	0.000	
9	   O	-2.856	1.219	4.326	O.2	1	UNK0	0.000	
10	   C	-1.052	0.299	3.243	C.3	1	UNK0	0.000	
11	   N	-0.262	0.137	2.069	N.pl3	1	UNK0	0.000	
12	   C	0.792	0.870	1.644	C.2	1	UNK0	0.000	
13	   C	1.291	0.329	0.485	C.2	1	UNK0	0.000	
14	   C	2.355	0.997	-0.100	C.2	1	UNK0	0.000	
15	   C	2.870	2.136	0.468	C.2	1	UNK0	0.000	
16	   C	2.364	2.670	1.633	C.2	1	UNK0	0.000	
17	   C	1.304	2.029	2.237	C.2	1	UNK0	0.000	
18	   N	0.541	-0.770	0.172	N.pl3	1	UNK0	0.000	
19	   C	-0.396	-0.867	1.141	C.cat	1	UNK0	0.000	
20	   N	-1.332	-1.750	1.231	N.pl3	1	UNK0	0.000	
21	   C	0.766	-1.682	-0.922	C.3	1	UNK0	0.000	
22	   C	1.352	-2.997	-0.624	C.2	1	UNK0	0.000	
23	   C	2.643	-3.251	-0.293	C.2	1	UNK0	0.000	
24	   C	3.142	-4.543	-0.036	C.2	1	UNK0	0.000	
25	   C	2.306	-5.622	-0.118	C.2	1	UNK0	0.000	
26	   C	0.981	-5.376	-0.458	C.2	1	UNK0	0.000	
27	   C	0.501	-4.134	-0.704	C.2	1	UNK0	0.000	
28	  Cl	3.814	-1.932	-0.183	Cl	1	UNK0	0.000	
29	  Cl	-5.061	4.432	-1.013	Cl	1	UNK0	0.000	
30	   H	-5.567	3.958	1.765	 H	1	UNK0	0.000	
31	   H	-4.428	2.648	3.413	 H	1	UNK0	0.000	
32	   H	-1.569	1.494	0.447	 H	1	UNK0	0.000	
33	   H	-0.389	0.746	4.056	 H	1	UNK0	0.000	
34	   H	-1.346	-0.733	3.618	 H	1	UNK0	0.000	
35	   H	2.758	0.611	-1.028	 H	1	UNK0	0.000	
36	   H	3.701	2.628	-0.019	 H	1	UNK0	0.000	
37	   H	2.790	3.571	2.062	 H	1	UNK0	0.000	
38	   H	0.854	2.394	3.157	 H	1	UNK0	0.000	
39	   H	-1.442	-2.503	0.543	 H	1	UNK0	0.000	
40	   H	-2.027	-1.742	2.007	 H	1	UNK0	0.000	
41	   H	1.381	-1.129	-1.694	 H	1	UNK0	0.000	
42	   H	-0.197	-1.870	-1.487	 H	1	UNK0	0.000	
43	   H	4.206	-4.651	0.226	 H	1	UNK0	0.000	
44	   H	2.686	-6.615	0.078	 H	1	UNK0	0.000	
45	   H	0.352	-6.276	-0.511	 H	1	UNK0	0.000	
46	   H	-0.531	-3.977	-0.980	 H	1	UNK0	0.000	
@<TRIPOS>BOND
1 1 2 1
2 2 3 2
3 2 7 1
4 3 4 1
5 3 29 1
6 4 5 2
7 5 6 1
8 6 7 2
9 6 8 1
10 8 9 2
11 8 10 1
12 10 11 1
13 11 12 1
14 11 19 1
15 12 13 1
16 12 17 2
17 13 14 2
18 13 18 1
19 14 15 1
20 15 16 2
21 16 17 1
22 18 19 1
23 18 21 1
24 19 20 2
25 21 22 1
26 22 23 2
27 22 27 1
28 23 24 1
29 23 28 1
30 24 25 2
31 25 26 1
32 26 27 2
33 4 30 1
34 5 31 1
35 7 32 1
36 10 33 1
37 10 34 1
38 14 35 1
39 15 36 1
40 16 37 1
41 17 38 1
42 20 39 1
43 20 40 1
44 21 41 1
45 21 42 1
46 24 43 1
47 25 44 1
48 26 45 1
49 27 46 1
@<TRIPOS>SUBSTRUCTURE
1	UNK0	1	GROUP	1 ****	UNK
