# created with PyMOL 2.3.2
@<TRIPOS>MOLECULE
1352
46 49 1                 
SMALL
USER_CHARGES
@<TRIPOS>ATOM
1	  Cl	2.199	5.017	0.110	Cl	1	UNK0	0.000	
2	   C	1.210	3.586	0.291	C.2	1	UNK0	0.000	
3	   C	1.523	2.564	1.178	C.2	1	UNK0	0.000	
4	   C	0.730	1.439	1.308	C.2	1	UNK0	0.000	
5	   C	-0.402	1.305	0.550	C.2	1	UNK0	0.000	
6	   C	-0.725	2.328	-0.345	C.2	1	UNK0	0.000	
7	   C	0.063	3.450	-0.477	C.2	1	UNK0	0.000	
8	   C	-1.271	0.157	0.640	C.3	1	UNK0	0.000	
9	   N	-0.998	-0.896	-0.297	N.pl3	1	UNK0	0.000	
10	   C	-1.724	-2.040	0.205	C.2	1	UNK0	0.000	
11	   N	-1.921	-1.866	1.538	N.pl3	1	UNK0	0.000	
12	   C	-2.573	-2.798	2.245	C.2	1	UNK0	0.000	
13	   C	-3.070	-3.953	1.686	C.2	1	UNK0	0.000	
14	   C	-2.887	-4.161	0.333	C.2	1	UNK0	0.000	
15	   C	-2.213	-3.192	-0.380	C.2	1	UNK0	0.000	
16	   C	-1.324	-0.577	1.942	C.3	1	UNK0	0.000	
17	   C	-0.189	-0.922	-1.508	C.3	1	UNK0	0.000	
18	   C	1.231	-0.584	-1.202	C.2	1	UNK0	0.000	
19	   C	1.869	0.468	-1.826	C.2	1	UNK0	0.000	
20	   C	3.188	0.800	-1.546	C.2	1	UNK0	0.000	
21	   C	3.917	0.082	-0.622	C.2	1	UNK0	0.000	
22	   C	3.276	-0.987	0.015	C.2	1	UNK0	0.000	
23	   C	1.967	-1.294	-0.283	C.2	1	UNK0	0.000	
24	   O	5.232	0.422	-0.349	O.3	1	UNK0	0.000	
25	   C	5.944	-0.354	0.619	C.3	1	UNK0	0.000	
26	   O	-2.590	0.604	0.385	O.3	1	UNK0	0.000	
27	   H	2.414	2.687	1.763	 H	1	UNK0	0.000	
28	   H	0.966	0.647	1.991	 H	1	UNK0	0.000	
29	   H	-1.611	2.270	-0.970	 H	1	UNK0	0.000	
30	   H	-0.170	4.258	-1.168	 H	1	UNK0	0.000	
31	   H	-2.716	-2.640	3.299	 H	1	UNK0	0.000	
32	   H	-3.603	-4.713	2.264	 H	1	UNK0	0.000	
33	   H	-3.279	-5.069	-0.106	 H	1	UNK0	0.000	
34	   H	-2.056	-3.328	-1.443	 H	1	UNK0	0.000	
35	   H	-0.369	-0.835	2.386	 H	1	UNK0	0.000	
36	   H	-2.030	-0.116	2.661	 H	1	UNK0	0.000	
37	   H	-0.557	-0.190	-2.251	 H	1	UNK0	0.000	
38	   H	-0.204	-1.913	-1.969	 H	1	UNK0	0.000	
39	   H	1.357	1.082	-2.569	 H	1	UNK0	0.000	
40	   H	3.674	1.643	-2.057	 H	1	UNK0	0.000	
41	   H	3.853	-1.549	0.742	 H	1	UNK0	0.000	
42	   H	1.511	-2.124	0.228	 H	1	UNK0	0.000	
43	   H	6.990	-0.009	0.713	 H	1	UNK0	0.000	
44	   H	5.411	-0.172	1.597	 H	1	UNK0	0.000	
45	   H	5.862	-1.443	0.429	 H	1	UNK0	0.000	
46	   H	-2.982	0.899	1.267	 H	1	UNK0	0.000	
@<TRIPOS>BOND
1 1 2 1
2 2 3 2
3 2 7 1
4 3 4 1
5 4 5 2
6 5 6 1
7 5 8 1
8 6 7 2
9 8 9 1
10 8 16 1
11 8 26 1
12 9 10 1
13 9 17 1
14 10 11 1
15 10 15 2
16 11 12 2
17 11 16 1
18 12 13 1
19 13 14 2
20 14 15 1
21 17 18 1
22 18 19 2
23 18 23 1
24 19 20 1
25 20 21 2
26 21 22 1
27 21 24 1
28 22 23 2
29 24 25 1
30 3 27 1
31 4 28 1
32 6 29 1
33 7 30 1
34 12 31 1
35 13 32 1
36 14 33 1
37 15 34 1
38 16 35 1
39 16 36 1
40 17 37 1
41 17 38 1
42 19 39 1
43 20 40 1
44 22 41 1
45 23 42 1
46 25 43 1
47 25 44 1
48 25 45 1
49 26 46 1
@<TRIPOS>SUBSTRUCTURE
1	UNK0	1	GROUP	1 ****	UNK
