# created with PyMOL 2.3.2
@<TRIPOS>MOLECULE
1353
63 66 1                 
SMALL
USER_CHARGES
@<TRIPOS>ATOM
1	  Cl	-2.792	2.747	-1.527	Cl	1	UNK0	0.000	
2	   C	-2.483	1.503	-2.717	C.2	1	UNK0	0.000	
3	   C	-1.596	0.488	-2.420	C.2	1	UNK0	0.000	
4	   C	-1.394	-0.463	-3.395	C.2	1	UNK0	0.000	
5	   C	-2.051	-0.404	-4.622	C.2	1	UNK0	0.000	
6	   C	-2.925	0.625	-4.876	C.2	1	UNK0	0.000	
7	   C	-3.145	1.584	-3.923	C.2	1	UNK0	0.000	
8	  Cl	-3.774	0.734	-6.411	Cl	1	UNK0	0.000	
9	   C	-0.920	0.459	-1.107	C.3	1	UNK0	0.000	
10	   N	-1.429	-0.677	-0.364	N.pl3	1	UNK0	0.000	
11	   C	-0.626	-1.828	-0.631	C.2	1	UNK0	0.000	
12	   O	-0.912	-3.029	-0.454	O.2	1	UNK0	0.000	
13	   C	0.646	-1.293	-1.176	C.2	1	UNK0	0.000	
14	   O	1.635	-1.978	-1.549	O.2	1	UNK0	0.000	
15	   C	0.540	0.153	-1.203	C.2	1	UNK0	0.000	
16	   C	1.535	0.997	-1.329	C.2	1	UNK0	0.000	
17	   O	1.297	2.369	-1.395	O.2	1	UNK0	0.000	
18	   C	2.905	0.542	-1.396	C.2	1	UNK0	0.000	
19	   C	3.705	0.988	-2.438	C.2	1	UNK0	0.000	
20	   C	5.014	0.591	-2.497	C.2	1	UNK0	0.000	
21	   C	5.619	-0.245	-1.570	C.2	1	UNK0	0.000	
22	   C	4.801	-0.671	-0.547	C.2	1	UNK0	0.000	
23	   C	3.483	-0.285	-0.467	C.2	1	UNK0	0.000	
24	   O	6.953	-0.619	-1.676	O.3	1	UNK0	0.000	
25	   C	7.692	-0.113	-2.782	C.3	1	UNK0	0.000	
26	   C	3.131	1.897	-3.487	C.3	1	UNK0	0.000	
27	   C	-2.577	-0.700	0.520	C.3	1	UNK0	0.000	
28	   C	-2.129	-0.374	1.906	C.3	1	UNK0	0.000	
29	   C	-3.295	-0.378	2.892	C.3	1	UNK0	0.000	
30	   N	-2.864	-0.062	4.225	N.4	1	UNK0	0.000	
31	   C	-2.932	1.355	4.509	C.3	1	UNK0	0.000	
32	   C	-2.344	1.561	5.897	C.3	1	UNK0	0.000	
33	   O	-3.042	0.829	6.855	O.3	1	UNK0	0.000	
34	   C	-2.960	-0.546	6.563	C.3	1	UNK0	0.000	
35	   C	-3.657	-0.749	5.235	C.3	1	UNK0	0.000	
36	   H	-0.725	-1.270	-3.228	 H	1	UNK0	0.000	
37	   H	-1.859	-1.174	-5.356	 H	1	UNK0	0.000	
38	   H	-3.837	2.398	-4.123	 H	1	UNK0	0.000	
39	   H	-1.092	1.423	-0.586	 H	1	UNK0	0.000	
40	   H	5.668	0.931	-3.314	 H	1	UNK0	0.000	
41	   H	5.224	-1.337	0.221	 H	1	UNK0	0.000	
42	   H	2.856	-0.628	0.378	 H	1	UNK0	0.000	
43	   H	7.182	-0.388	-3.748	 H	1	UNK0	0.000	
44	   H	8.731	-0.447	-2.792	 H	1	UNK0	0.000	
45	   H	7.655	0.996	-2.754	 H	1	UNK0	0.000	
46	   H	3.109	2.936	-3.143	 H	1	UNK0	0.000	
47	   H	3.795	1.824	-4.367	 H	1	UNK0	0.000	
48	   H	2.136	1.528	-3.811	 H	1	UNK0	0.000	
49	   H	-3.294	0.044	0.131	 H	1	UNK0	0.000	
50	   H	-3.083	-1.688	0.515	 H	1	UNK0	0.000	
51	   H	-1.426	-1.150	2.269	 H	1	UNK0	0.000	
52	   H	-1.674	0.643	1.874	 H	1	UNK0	0.000	
53	   H	-3.974	0.461	2.569	 H	1	UNK0	0.000	
54	   H	-3.849	-1.334	2.848	 H	1	UNK0	0.000	
55	   H	-1.860	-0.347	4.318	 H	1	UNK0	0.000	
56	   H	-3.993	1.681	4.479	 H	1	UNK0	0.000	
57	   H	-2.293	1.930	3.807	 H	1	UNK0	0.000	
58	   H	-1.297	1.179	5.851	 H	1	UNK0	0.000	
59	   H	-2.376	2.619	6.199	 H	1	UNK0	0.000	
60	   H	-3.517	-1.099	7.340	 H	1	UNK0	0.000	
61	   H	-1.895	-0.882	6.504	 H	1	UNK0	0.000	
62	   H	-3.682	-1.817	4.940	 H	1	UNK0	0.000	
63	   H	-4.639	-0.278	5.275	 H	1	UNK0	0.000	
@<TRIPOS>BOND
1 1 2 1
2 2 3 2
3 2 7 1
4 3 4 1
5 3 9 1
6 4 5 2
7 5 6 1
8 6 7 2
9 6 8 1
10 9 10 1
11 9 15 1
12 10 11 1
13 10 27 1
14 11 12 2
15 11 13 1
16 13 14 2
17 13 15 1
18 15 16 2
19 16 17 1
20 16 18 1
21 18 19 2
22 18 23 1
23 19 20 1
24 19 26 1
25 20 21 2
26 21 22 1
27 21 24 1
28 22 23 2
29 24 25 1
30 27 28 1
31 28 29 1
32 29 30 1
33 30 31 1
34 30 35 1
35 31 32 1
36 32 33 1
37 33 34 1
38 34 35 1
39 4 36 1
40 5 37 1
41 7 38 1
42 9 39 1
43 20 40 1
44 22 41 1
45 23 42 1
46 25 43 1
47 25 44 1
48 25 45 1
49 26 46 1
50 26 47 1
51 26 48 1
52 27 49 1
53 27 50 1
54 28 51 1
55 28 52 1
56 29 53 1
57 29 54 1
58 30 55 1
59 31 56 1
60 31 57 1
61 32 58 1
62 32 59 1
63 34 60 1
64 34 61 1
65 35 62 1
66 35 63 1
@<TRIPOS>SUBSTRUCTURE
1	UNK0	1	GROUP	1 ****	UNK
