# created with PyMOL 2.3.2
@<TRIPOS>MOLECULE
1354
31 34 1                 
SMALL
USER_CHARGES
@<TRIPOS>ATOM
1	  Cl	1.194	-4.395	2.227	Cl	1	UNK0	0.000	
2	   C	2.694	-3.731	1.614	C.2	1	UNK0	0.000	
3	   C	2.659	-2.528	0.948	C.2	1	UNK0	0.000	
4	   C	3.850	-2.026	0.475	C.2	1	UNK0	0.000	
5	   C	5.052	-2.714	0.665	C.2	1	UNK0	0.000	
6	   C	5.080	-3.920	1.334	C.2	1	UNK0	0.000	
7	   C	3.889	-4.421	1.806	C.2	1	UNK0	0.000	
8	   C	1.386	-1.823	0.760	C.2	1	UNK0	0.000	
9	   N	1.166	-0.651	0.141	N.2	1	UNK0	0.000	
10	   N	-0.122	-0.329	0.170	N.pl3	1	UNK0	0.000	
11	   C	-0.764	-1.315	0.824	C.2	1	UNK0	0.000	
12	   N	0.174	-2.226	1.181	N.2	1	UNK0	0.000	
13	   N	-2.096	-1.242	0.998	N.2	1	UNK0	0.000	
14	   C	-2.843	-0.212	0.544	C.2	1	UNK0	0.000	
15	   C	-2.210	0.811	-0.130	C.2	1	UNK0	0.000	
16	   C	-0.845	0.711	-0.295	C.2	1	UNK0	0.000	
17	   C	0.005	1.680	-0.973	C.2	1	UNK0	0.000	
18	   C	-0.308	2.813	-1.609	C.2	1	UNK0	0.000	
19	   N	-1.582	3.412	-1.811	N.pl3	1	UNK0	0.000	
20	   N	-2.841	3.065	-1.291	N.pl3	1	UNK0	0.000	
21	   C	-3.123	1.869	-0.573	C.2	1	UNK0	0.000	
22	   O	-4.333	1.715	-0.287	O.2	1	UNK0	0.000	
23	   H	3.853	-1.091	-0.047	 H	1	UNK0	0.000	
24	   H	5.981	-2.312	0.290	 H	1	UNK0	0.000	
25	   H	6.012	-4.467	1.489	 H	1	UNK0	0.000	
26	   H	3.898	-5.356	2.327	 H	1	UNK0	0.000	
27	   H	-3.915	-0.154	0.684	 H	1	UNK0	0.000	
28	   H	1.059	1.407	-0.938	 H	1	UNK0	0.000	
29	   H	0.504	3.377	-2.042	 H	1	UNK0	0.000	
30	   H	-1.632	4.252	-2.445	 H	1	UNK0	0.000	
31	   H	-3.622	3.751	-1.452	 H	1	UNK0	0.000	
@<TRIPOS>BOND
1 1 2 1
2 2 3 2
3 2 7 1
4 3 4 1
5 3 8 1
6 4 5 2
7 5 6 1
8 6 7 2
9 8 9 2
10 8 12 1
11 9 10 1
12 10 11 1
13 10 16 1
14 11 12 2
15 11 13 1
16 13 14 2
17 14 15 1
18 15 16 2
19 15 21 1
20 16 17 1
21 17 18 2
22 18 19 1
23 19 20 1
24 20 21 1
25 21 22 2
26 4 23 1
27 5 24 1
28 6 25 1
29 7 26 1
30 14 27 1
31 17 28 1
32 18 29 1
33 19 30 1
34 20 31 1
@<TRIPOS>SUBSTRUCTURE
1	UNK0	1	GROUP	1 ****	UNK
