# created with PyMOL 2.3.2
@<TRIPOS>MOLECULE
1356
52 55 1                 
SMALL
USER_CHARGES
@<TRIPOS>ATOM
1	  Cl	-0.861	4.593	3.667	Cl	1	UNK0	0.000	
2	   C	-1.571	4.134	2.114	C.2	1	UNK0	0.000	
3	   C	-0.815	3.529	1.140	C.2	1	UNK0	0.000	
4	   C	-1.351	3.165	-0.067	C.2	1	UNK0	0.000	
5	   C	-2.689	3.408	-0.325	C.2	1	UNK0	0.000	
6	   C	-3.481	4.019	0.640	C.2	1	UNK0	0.000	
7	   C	-2.899	4.373	1.850	C.2	1	UNK0	0.000	
8	   C	0.629	3.260	1.407	C.2	1	UNK0	0.000	
9	   O	1.372	4.205	1.070	O.2	1	UNK0	0.000	
10	   N	1.016	2.053	1.974	N.pl3	1	UNK0	0.000	
11	   C	1.391	0.881	2.524	C.3	1	UNK0	0.000	
12	   C	2.346	0.002	1.672	C.3	1	UNK0	0.000	
13	   O	2.614	-1.091	2.371	O.3	1	UNK0	0.000	
14	   C	1.887	-2.221	2.254	C.3	1	UNK0	0.000	
15	   C	1.297	-2.500	0.912	C.3	1	UNK0	0.000	
16	   C	0.721	-1.277	0.248	C.3	1	UNK0	0.000	
17	   O	0.660	-1.541	-1.116	O.3	1	UNK0	0.000	
18	   C	1.608	-0.718	-1.727	C.3	1	UNK0	0.000	
19	   O	2.517	-0.335	-0.728	O.3	1	UNK0	0.000	
20	   C	1.672	-0.123	0.354	C.3	1	UNK0	0.000	
21	   C	2.331	-1.480	-2.830	C.3	1	UNK0	0.000	
22	   C	0.854	0.465	-2.288	C.3	1	UNK0	0.000	
23	   N	0.280	-3.514	0.910	N.pl3	1	UNK0	0.000	
24	   C	0.434	-4.650	0.206	C.2	1	UNK0	0.000	
25	   C	-0.516	-5.646	0.177	C.2	1	UNK0	0.000	
26	   C	-1.681	-5.478	0.899	C.2	1	UNK0	0.000	
27	   O	-2.575	-6.384	0.888	O.2	1	UNK0	0.000	
28	   N	-1.820	-4.342	1.594	N.pl3	1	UNK0	0.000	
29	   C	-0.867	-3.394	1.595	C.2	1	UNK0	0.000	
30	   O	-1.110	-2.352	2.293	O.2	1	UNK0	0.000	
31	   H	-0.737	2.677	-0.844	 H	1	UNK0	0.000	
32	   H	-3.122	3.118	-1.292	 H	1	UNK0	0.000	
33	   H	-4.547	4.224	0.457	 H	1	UNK0	0.000	
34	   H	-3.523	4.853	2.604	 H	1	UNK0	0.000	
35	   H	2.316	2.457	1.928	 H	1	UNK0	0.000	
36	   H	1.865	0.958	3.557	 H	1	UNK0	0.000	
37	   H	0.532	0.152	2.718	 H	1	UNK0	0.000	
38	   H	3.249	0.626	1.544	 H	1	UNK0	0.000	
39	   H	1.088	-2.215	3.038	 H	1	UNK0	0.000	
40	   H	2.534	-3.084	2.524	 H	1	UNK0	0.000	
41	   H	2.145	-2.845	0.255	 H	1	UNK0	0.000	
42	   H	-0.272	-0.998	0.590	 H	1	UNK0	0.000	
43	   H	1.077	0.804	0.109	 H	1	UNK0	0.000	
44	   H	1.793	-1.222	-3.788	 H	1	UNK0	0.000	
45	   H	2.207	-2.579	-2.700	 H	1	UNK0	0.000	
46	   H	3.368	-1.173	-2.958	 H	1	UNK0	0.000	
47	   H	1.398	1.405	-2.143	 H	1	UNK0	0.000	
48	   H	0.674	0.218	-3.376	 H	1	UNK0	0.000	
49	   H	-0.176	0.552	-1.844	 H	1	UNK0	0.000	
50	   H	1.335	-4.805	-0.366	 H	1	UNK0	0.000	
51	   H	-0.418	-6.572	-0.384	 H	1	UNK0	0.000	
52	   H	-2.700	-4.211	2.142	 H	1	UNK0	0.000	
@<TRIPOS>BOND
1 1 2 1
2 2 3 2
3 2 7 1
4 3 4 1
5 3 8 1
6 4 5 2
7 5 6 1
8 6 7 2
9 8 9 2
10 8 10 1
11 10 11 1
12 11 12 1
13 12 13 1
14 12 20 1
15 13 14 1
16 14 15 1
17 15 16 1
18 15 23 1
19 16 17 1
20 16 20 1
21 17 18 1
22 18 19 1
23 18 21 1
24 18 22 1
25 19 20 1
26 23 24 1
27 23 29 1
28 24 25 2
29 25 26 1
30 26 27 2
31 26 28 1
32 28 29 1
33 29 30 2
34 4 31 1
35 5 32 1
36 6 33 1
37 7 34 1
38 10 35 1
39 11 36 1
40 11 37 1
41 12 38 1
42 14 39 1
43 14 40 1
44 15 41 1
45 16 42 1
46 20 43 1
47 21 44 1
48 21 45 1
49 21 46 1
50 22 47 1
51 22 48 1
52 22 49 1
53 24 50 1
54 25 51 1
55 28 52 1
@<TRIPOS>SUBSTRUCTURE
1	UNK0	1	GROUP	1 ****	UNK
