# created with PyMOL 2.3.2
@<TRIPOS>MOLECULE
1359
50 53 1                 
SMALL
USER_CHARGES
@<TRIPOS>ATOM
1	  Br	4.755	0.405	6.620	Br	1	UNK0	0.000	
2	   C	2.982	0.118	5.955	C.2	1	UNK0	0.000	
3	   C	2.591	0.604	4.731	C.2	1	UNK0	0.000	
4	   C	1.322	0.423	4.209	C.2	1	UNK0	0.000	
5	   C	0.434	-0.288	4.987	C.2	1	UNK0	0.000	
6	   C	0.792	-0.797	6.233	C.2	1	UNK0	0.000	
7	   C	2.069	-0.589	6.710	C.2	1	UNK0	0.000	
8	   C	0.939	0.951	2.906	C.2	1	UNK0	0.000	
9	   N	1.726	1.613	2.153	N.2	1	UNK0	0.000	
10	   N	1.385	2.132	0.901	N.pl3	1	UNK0	0.000	
11	   C	0.590	1.392	-0.018	C.2	1	UNK0	0.000	
12	   N	0.280	1.914	-1.209	N.2	1	UNK0	0.000	
13	   C	-0.477	1.259	-2.133	C.2	1	UNK0	0.000	
14	   N	-0.904	0.030	-1.771	N.2	1	UNK0	0.000	
15	   C	-0.626	-0.548	-0.590	C.2	1	UNK0	0.000	
16	   N	0.133	0.175	0.270	N.2	1	UNK0	0.000	
17	   N	-1.083	-1.829	-0.238	N.pl3	1	UNK0	0.000	
18	   C	-1.890	-2.623	-1.125	C.3	1	UNK0	0.000	
19	   C	-1.417	-4.071	-0.938	C.3	1	UNK0	0.000	
20	   O	-0.090	-4.095	-0.516	O.3	1	UNK0	0.000	
21	   C	0.102	-3.632	0.761	C.3	1	UNK0	0.000	
22	   C	-0.748	-2.385	1.042	C.3	1	UNK0	0.000	
23	   N	-0.791	1.831	-3.385	N.pl3	1	UNK0	0.000	
24	   C	-0.318	3.142	-3.733	C.3	1	UNK0	0.000	
25	   C	0.412	3.010	-5.065	C.3	1	UNK0	0.000	
26	   O	-0.525	2.531	-5.977	O.3	1	UNK0	0.000	
27	   C	-0.907	1.230	-5.704	C.3	1	UNK0	0.000	
28	   C	-1.591	1.121	-4.345	C.3	1	UNK0	0.000	
29	   H	3.291	1.167	4.111	 H	1	UNK0	0.000	
30	   H	-0.583	-0.471	4.642	 H	1	UNK0	0.000	
31	   H	0.098	-1.355	6.848	 H	1	UNK0	0.000	
32	   H	2.325	-0.991	7.674	 H	1	UNK0	0.000	
33	   H	-0.070	0.770	2.565	 H	1	UNK0	0.000	
34	   H	1.731	3.082	0.653	 H	1	UNK0	0.000	
35	   H	-1.799	-2.316	-2.185	 H	1	UNK0	0.000	
36	   H	-2.929	-2.590	-0.756	 H	1	UNK0	0.000	
37	   H	-1.443	-4.533	-1.937	 H	1	UNK0	0.000	
38	   H	-2.061	-4.620	-0.242	 H	1	UNK0	0.000	
39	   H	-0.012	-4.379	1.548	 H	1	UNK0	0.000	
40	   H	1.169	-3.265	0.823	 H	1	UNK0	0.000	
41	   H	-0.186	-1.648	1.622	 H	1	UNK0	0.000	
42	   H	-1.676	-2.724	1.594	 H	1	UNK0	0.000	
43	   H	0.319	3.601	-2.961	 H	1	UNK0	0.000	
44	   H	-1.225	3.769	-3.953	 H	1	UNK0	0.000	
45	   H	1.171	2.222	-4.930	 H	1	UNK0	0.000	
46	   H	0.811	3.962	-5.419	 H	1	UNK0	0.000	
47	   H	0.022	0.609	-5.736	 H	1	UNK0	0.000	
48	   H	-1.608	0.916	-6.502	 H	1	UNK0	0.000	
49	   H	-2.569	1.635	-4.449	 H	1	UNK0	0.000	
50	   H	-1.727	0.054	-4.106	 H	1	UNK0	0.000	
@<TRIPOS>BOND
1 1 2 1
2 2 3 2
3 2 7 1
4 3 4 1
5 4 5 2
6 4 8 1
7 5 6 1
8 6 7 2
9 8 9 2
10 9 10 1
11 10 11 1
12 11 12 2
13 11 16 1
14 12 13 1
15 13 14 2
16 13 23 1
17 14 15 1
18 15 16 2
19 15 17 1
20 17 18 1
21 17 22 1
22 18 19 1
23 19 20 1
24 20 21 1
25 21 22 1
26 23 24 1
27 23 28 1
28 24 25 1
29 25 26 1
30 26 27 1
31 27 28 1
32 3 29 1
33 5 30 1
34 6 31 1
35 7 32 1
36 8 33 1
37 10 34 1
38 18 35 1
39 18 36 1
40 19 37 1
41 19 38 1
42 21 39 1
43 21 40 1
44 22 41 1
45 22 42 1
46 24 43 1
47 24 44 1
48 25 45 1
49 25 46 1
50 27 47 1
51 27 48 1
52 28 49 1
53 28 50 1
@<TRIPOS>SUBSTRUCTURE
1	UNK0	1	GROUP	1 ****	UNK
