# created with PyMOL 2.3.2
@<TRIPOS>MOLECULE
1361
38 41 1                 
SMALL
USER_CHARGES
@<TRIPOS>ATOM
1	  Br	-3.162	4.123	-3.585	Br	1	UNK0	0.000	
2	   C	-2.128	2.982	-2.441	C.2	1	UNK0	0.000	
3	   C	-2.161	1.622	-2.575	C.2	1	UNK0	0.000	
4	   C	-1.400	0.789	-1.732	C.2	1	UNK0	0.000	
5	   C	-0.623	1.351	-0.771	C.2	1	UNK0	0.000	
6	   C	-0.618	2.742	-0.668	C.2	1	UNK0	0.000	
7	   C	-1.347	3.579	-1.474	C.2	1	UNK0	0.000	
8	   C	0.215	0.568	0.170	C.2	1	UNK0	0.000	
9	   N	0.861	1.281	0.988	N.2	1	UNK0	0.000	
10	   N	1.709	1.020	1.978	N.pl3	1	UNK0	0.000	
11	   C	0.319	-0.892	0.200	C.3	1	UNK0	0.000	
12	   C	-1.010	-1.554	0.462	C.3	1	UNK0	0.000	
13	   N	-0.848	-3.005	0.324	N.3	1	UNK0	0.000	
14	   C	0.030	-3.489	1.383	C.3	1	UNK0	0.000	
15	   N	1.295	-2.862	1.228	N.3	1	UNK0	0.000	
16	   C	1.867	-3.239	-0.025	C.3	1	UNK0	0.000	
17	   N	0.973	-2.870	-1.128	N.3	1	UNK0	0.000	
18	   C	-0.352	-3.363	-0.965	C.3	1	UNK0	0.000	
19	   C	0.926	-1.403	-1.059	C.3	1	UNK0	0.000	
20	   C	1.164	-1.411	1.390	C.3	1	UNK0	0.000	
21	   H	-2.781	1.166	-3.342	 H	1	UNK0	0.000	
22	   H	-1.492	-0.272	-1.915	 H	1	UNK0	0.000	
23	   H	-0.010	3.268	0.090	 H	1	UNK0	0.000	
24	   H	-1.342	4.648	-1.392	 H	1	UNK0	0.000	
25	   H	2.758	1.140	1.816	 H	1	UNK0	0.000	
26	   H	1.446	0.717	2.931	 H	1	UNK0	0.000	
27	   H	-1.236	-1.449	1.586	 H	1	UNK0	0.000	
28	   H	-1.859	-1.281	-0.118	 H	1	UNK0	0.000	
29	   H	0.121	-4.578	1.246	 H	1	UNK0	0.000	
30	   H	-0.453	-3.300	2.362	 H	1	UNK0	0.000	
31	   H	2.791	-2.631	-0.188	 H	1	UNK0	0.000	
32	   H	2.113	-4.302	-0.014	 H	1	UNK0	0.000	
33	   H	-0.362	-4.456	-1.070	 H	1	UNK0	0.000	
34	   H	-0.988	-2.862	-1.734	 H	1	UNK0	0.000	
35	   H	2.029	-1.128	-1.117	 H	1	UNK0	0.000	
36	   H	0.452	-1.035	-1.948	 H	1	UNK0	0.000	
37	   H	2.178	-1.044	1.390	 H	1	UNK0	0.000	
38	   H	0.545	-1.278	2.284	 H	1	UNK0	0.000	
@<TRIPOS>BOND
1 1 2 1
2 2 3 2
3 2 7 1
4 3 4 1
5 4 5 2
6 5 6 1
7 5 8 1
8 6 7 2
9 8 9 2
10 8 11 1
11 9 10 1
12 11 12 1
13 11 19 1
14 11 20 1
15 12 13 1
16 13 14 1
17 13 18 1
18 14 15 1
19 15 16 1
20 15 20 1
21 16 17 1
22 17 18 1
23 17 19 1
24 3 21 1
25 4 22 1
26 6 23 1
27 7 24 1
28 10 25 1
29 10 26 1
30 12 27 1
31 12 28 1
32 14 29 1
33 14 30 1
34 16 31 1
35 16 32 1
36 18 33 1
37 18 34 1
38 19 35 1
39 19 36 1
40 20 37 1
41 20 38 1
@<TRIPOS>SUBSTRUCTURE
1	UNK0	1	GROUP	1 ****	UNK
