# created with PyMOL 2.3.2
@<TRIPOS>MOLECULE
1366
52 55 1                 
SMALL
USER_CHARGES
@<TRIPOS>ATOM
1	  Br	-3.382	-8.773	2.539	Br	1	UNK0	0.000	
2	   C	-3.165	-6.913	2.178	C.2	1	UNK0	0.000	
3	   C	-3.742	-5.939	2.974	C.2	1	UNK0	0.000	
4	   C	-3.588	-4.593	2.719	C.2	1	UNK0	0.000	
5	   C	-2.838	-4.168	1.640	C.2	1	UNK0	0.000	
6	   C	-2.246	-5.111	0.821	C.2	1	UNK0	0.000	
7	   C	-2.416	-6.456	1.098	C.2	1	UNK0	0.000	
8	   C	-2.703	-2.735	1.409	C.2	1	UNK0	0.000	
9	   C	-1.490	-2.168	1.073	C.2	1	UNK0	0.000	
10	   O	-1.354	-0.876	0.859	O.3	1	UNK0	0.000	
11	   C	-2.347	-0.018	0.945	C.2	1	UNK0	0.000	
12	   C	-3.584	-0.508	1.274	C.2	1	UNK0	0.000	
13	   C	-4.619	0.394	1.364	C.2	1	UNK0	0.000	
14	   C	-4.461	1.737	1.138	C.2	1	UNK0	0.000	
15	   C	-3.178	2.199	0.802	C.2	1	UNK0	0.000	
16	   C	-2.119	1.351	0.700	C.2	1	UNK0	0.000	
17	   C	-0.772	1.734	0.358	C.3	1	UNK0	0.000	
18	   N	-0.463	3.094	0.098	N.4	1	UNK0	0.000	
19	   C	0.977	3.265	0.371	C.3	1	UNK0	0.000	
20	   C	1.786	2.533	-0.684	C.3	1	UNK0	0.000	
21	   N	1.453	2.959	-1.998	N.3	1	UNK0	0.000	
22	   C	0.412	3.933	-2.011	C.3	1	UNK0	0.000	
23	   C	-0.803	3.592	-1.192	C.3	1	UNK0	0.000	
24	   C	1.311	1.955	-2.982	C.3	1	UNK0	0.000	
25	   C	2.701	1.358	-3.233	C.3	1	UNK0	0.000	
26	   O	3.557	2.372	-3.678	O.3	1	UNK0	0.000	
27	   O	-3.121	3.574	0.594	O.2	1	UNK0	0.000	
28	   C	-3.775	-1.867	1.509	C.2	1	UNK0	0.000	
29	   O	-4.912	-2.289	1.808	O.2	1	UNK0	0.000	
30	   H	-4.330	-6.235	3.820	 H	1	UNK0	0.000	
31	   H	-4.044	-3.826	3.348	 H	1	UNK0	0.000	
32	   H	-1.653	-4.784	-0.031	 H	1	UNK0	0.000	
33	   H	-1.948	-7.199	0.448	 H	1	UNK0	0.000	
34	   H	-0.643	-2.860	0.994	 H	1	UNK0	0.000	
35	   H	-5.594	-0.041	1.629	 H	1	UNK0	0.000	
36	   H	-5.312	2.406	1.223	 H	1	UNK0	0.000	
37	   H	-0.389	1.081	-0.499	 H	1	UNK0	0.000	
38	   H	-0.114	1.365	1.222	 H	1	UNK0	0.000	
39	   H	-0.919	3.696	0.830	 H	1	UNK0	0.000	
40	   H	1.168	2.776	1.339	 H	1	UNK0	0.000	
41	   H	1.224	4.327	0.453	 H	1	UNK0	0.000	
42	   H	1.739	1.456	-0.517	 H	1	UNK0	0.000	
43	   H	2.849	2.836	-0.496	 H	1	UNK0	0.000	
44	   H	0.817	4.909	-1.612	 H	1	UNK0	0.000	
45	   H	0.117	4.197	-3.062	 H	1	UNK0	0.000	
46	   H	-1.376	4.575	-1.138	 H	1	UNK0	0.000	
47	   H	-1.442	2.874	-1.754	 H	1	UNK0	0.000	
48	   H	0.921	2.358	-3.958	 H	1	UNK0	0.000	
49	   H	0.697	1.125	-2.611	 H	1	UNK0	0.000	
50	   H	3.063	1.002	-2.255	 H	1	UNK0	0.000	
51	   H	2.558	0.561	-3.980	 H	1	UNK0	0.000	
52	   H	3.663	2.327	-4.668	 H	1	UNK0	0.000	
@<TRIPOS>BOND
1 1 2 1
2 2 3 2
3 2 7 1
4 3 4 1
5 4 5 2
6 5 6 1
7 5 8 1
8 6 7 2
9 8 9 2
10 8 28 1
11 9 10 1
12 10 11 1
13 11 12 2
14 11 16 1
15 12 13 1
16 12 28 1
17 13 14 2
18 14 15 1
19 15 16 2
20 15 27 1
21 16 17 1
22 17 18 1
23 18 19 1
24 18 23 1
25 19 20 1
26 20 21 1
27 21 22 1
28 21 24 1
29 22 23 1
30 24 25 1
31 25 26 1
32 28 29 2
33 3 30 1
34 4 31 1
35 6 32 1
36 7 33 1
37 9 34 1
38 13 35 1
39 14 36 1
40 17 37 1
41 17 38 1
42 18 39 1
43 19 40 1
44 19 41 1
45 20 42 1
46 20 43 1
47 22 44 1
48 22 45 1
49 23 46 1
50 23 47 1
51 24 48 1
52 24 49 1
53 25 50 1
54 25 51 1
55 26 52 1
@<TRIPOS>SUBSTRUCTURE
1	UNK0	1	GROUP	1 ****	UNK
