# created with PyMOL 2.3.2
@<TRIPOS>MOLECULE
1367
51 54 1                 
SMALL
USER_CHARGES
@<TRIPOS>ATOM
1	  Br	7.465	2.809	4.578	Br	1	UNK0	0.000	
2	   C	6.065	2.109	3.493	C.2	1	UNK0	0.000	
3	   C	6.053	0.765	3.177	C.2	1	UNK0	0.000	
4	   C	5.029	0.285	2.392	C.2	1	UNK0	0.000	
5	   C	4.010	1.069	1.901	C.2	1	UNK0	0.000	
6	   C	4.050	2.410	2.236	C.2	1	UNK0	0.000	
7	   C	5.064	2.929	3.022	C.2	1	UNK0	0.000	
8	   C	2.912	0.591	1.070	C.2	1	UNK0	0.000	
9	   C	1.592	0.938	1.334	C.2	1	UNK0	0.000	
10	   O	0.571	0.530	0.623	O.3	1	UNK0	0.000	
11	   C	0.719	-0.249	-0.406	C.2	1	UNK0	0.000	
12	   C	1.984	-0.639	-0.737	C.2	1	UNK0	0.000	
13	   C	2.144	-1.467	-1.832	C.2	1	UNK0	0.000	
14	   C	1.047	-1.877	-2.555	C.2	1	UNK0	0.000	
15	   C	-0.236	-1.449	-2.176	C.2	1	UNK0	0.000	
16	   C	-0.443	-0.627	-1.098	C.2	1	UNK0	0.000	
17	   C	-1.751	-0.128	-0.615	C.3	1	UNK0	0.000	
18	   N	-2.908	-0.507	-1.301	N.4	1	UNK0	0.000	
19	   C	-3.354	-1.794	-0.801	C.3	1	UNK0	0.000	
20	   C	-4.108	-1.710	0.502	C.3	1	UNK0	0.000	
21	   N	-4.023	-0.454	1.168	N.3	1	UNK0	0.000	
22	   C	-4.301	0.678	0.368	C.3	1	UNK0	0.000	
23	   C	-4.045	0.387	-1.069	C.3	1	UNK0	0.000	
24	   C	-4.540	-0.486	2.481	C.3	1	UNK0	0.000	
25	   C	-3.764	-1.289	3.471	C.3	1	UNK0	0.000	
26	   O	-1.261	-1.923	-2.976	O.2	1	UNK0	0.000	
27	   C	3.101	-0.235	-0.018	C.2	1	UNK0	0.000	
28	   O	4.253	-0.588	-0.316	O.2	1	UNK0	0.000	
29	   H	6.850	0.129	3.556	 H	1	UNK0	0.000	
30	   H	5.030	-0.766	2.151	 H	1	UNK0	0.000	
31	   H	3.270	3.064	1.871	 H	1	UNK0	0.000	
32	   H	5.103	3.971	3.287	 H	1	UNK0	0.000	
33	   H	1.426	1.598	2.198	 H	1	UNK0	0.000	
34	   H	3.162	-1.767	-2.078	 H	1	UNK0	0.000	
35	   H	1.188	-2.521	-3.406	 H	1	UNK0	0.000	
36	   H	-1.777	-0.431	0.483	 H	1	UNK0	0.000	
37	   H	-1.675	1.005	-0.521	 H	1	UNK0	0.000	
38	   H	-2.814	-0.543	-2.329	 H	1	UNK0	0.000	
39	   H	-3.951	-2.276	-1.597	 H	1	UNK0	0.000	
40	   H	-2.442	-2.401	-0.604	 H	1	UNK0	0.000	
41	   H	-5.197	-1.868	0.245	 H	1	UNK0	0.000	
42	   H	-3.845	-2.571	1.150	 H	1	UNK0	0.000	
43	   H	-3.780	1.607	0.634	 H	1	UNK0	0.000	
44	   H	-5.399	0.913	0.476	 H	1	UNK0	0.000	
45	   H	-3.946	1.335	-1.613	 H	1	UNK0	0.000	
46	   H	-4.931	-0.141	-1.484	 H	1	UNK0	0.000	
47	   H	-5.604	-0.803	2.503	 H	1	UNK0	0.000	
48	   H	-4.552	0.574	2.872	 H	1	UNK0	0.000	
49	   H	-3.222	-2.153	3.046	 H	1	UNK0	0.000	
50	   H	-4.471	-1.702	4.222	 H	1	UNK0	0.000	
51	   H	-3.065	-0.637	4.072	 H	1	UNK0	0.000	
@<TRIPOS>BOND
1 1 2 1
2 2 3 2
3 2 7 1
4 3 4 1
5 4 5 2
6 5 6 1
7 5 8 1
8 6 7 2
9 8 9 2
10 8 27 1
11 9 10 1
12 10 11 1
13 11 12 2
14 11 16 1
15 12 13 1
16 12 27 1
17 13 14 2
18 14 15 1
19 15 16 2
20 15 26 1
21 16 17 1
22 17 18 1
23 18 19 1
24 18 23 1
25 19 20 1
26 20 21 1
27 21 22 1
28 21 24 1
29 22 23 1
30 24 25 1
31 27 28 2
32 3 29 1
33 4 30 1
34 6 31 1
35 7 32 1
36 9 33 1
37 13 34 1
38 14 35 1
39 17 36 1
40 17 37 1
41 18 38 1
42 19 39 1
43 19 40 1
44 20 41 1
45 20 42 1
46 22 43 1
47 22 44 1
48 23 45 1
49 23 46 1
50 24 47 1
51 24 48 1
52 25 49 1
53 25 50 1
54 25 51 1
@<TRIPOS>SUBSTRUCTURE
1	UNK0	1	GROUP	1 ****	UNK
