# created with PyMOL 2.3.2
@<TRIPOS>MOLECULE
1368
48 51 1                 
SMALL
USER_CHARGES
@<TRIPOS>ATOM
1	  Br	8.248	0.344	3.307	Br	1	UNK0	0.000	
2	   C	6.674	0.528	2.201	C.2	1	UNK0	0.000	
3	   C	5.920	1.671	2.260	C.2	1	UNK0	0.000	
4	   C	4.785	1.800	1.470	C.2	1	UNK0	0.000	
5	   C	4.415	0.784	0.638	C.2	1	UNK0	0.000	
6	   C	5.161	-0.379	0.567	C.2	1	UNK0	0.000	
7	   C	6.291	-0.478	1.360	C.2	1	UNK0	0.000	
8	   C	3.177	0.841	-0.136	C.2	1	UNK0	0.000	
9	   C	2.038	1.173	0.525	C.2	1	UNK0	0.000	
10	   O	0.850	1.171	0.002	O.3	1	UNK0	0.000	
11	   C	0.746	0.817	-1.256	C.2	1	UNK0	0.000	
12	   C	1.845	0.464	-2.030	C.2	1	UNK0	0.000	
13	   C	1.611	0.080	-3.321	C.2	1	UNK0	0.000	
14	   C	0.329	0.045	-3.841	C.2	1	UNK0	0.000	
15	   C	-0.779	0.406	-3.023	C.2	1	UNK0	0.000	
16	   C	-0.558	0.788	-1.750	C.2	1	UNK0	0.000	
17	   C	-1.616	1.367	-0.843	C.3	1	UNK0	0.000	
18	   N	-2.154	0.308	-0.054	N.4	1	UNK0	0.000	
19	   C	-3.106	-0.600	-0.527	C.3	1	UNK0	0.000	
20	   C	-3.661	-1.333	0.747	C.3	1	UNK0	0.000	
21	   N	-4.537	-0.366	1.368	N.3	1	UNK0	0.000	
22	   C	-3.748	0.764	1.814	C.3	1	UNK0	0.000	
23	   C	-2.358	0.795	1.324	C.3	1	UNK0	0.000	
24	   C	-5.530	0.119	0.420	C.3	1	UNK0	0.000	
25	   O	-2.065	0.359	-3.557	O.2	1	UNK0	0.000	
26	   C	3.108	0.474	-1.473	C.2	1	UNK0	0.000	
27	   O	4.131	0.176	-2.119	O.2	1	UNK0	0.000	
28	   H	6.232	2.468	2.944	 H	1	UNK0	0.000	
29	   H	4.248	2.728	1.579	 H	1	UNK0	0.000	
30	   H	4.841	-1.167	-0.094	 H	1	UNK0	0.000	
31	   H	6.918	-1.380	1.329	 H	1	UNK0	0.000	
32	   H	2.106	1.475	1.595	 H	1	UNK0	0.000	
33	   H	2.470	-0.181	-3.932	 H	1	UNK0	0.000	
34	   H	0.118	-0.234	-4.861	 H	1	UNK0	0.000	
35	   H	-2.419	1.841	-1.490	 H	1	UNK0	0.000	
36	   H	-1.132	2.119	-0.204	 H	1	UNK0	0.000	
37	   H	-1.265	-0.340	0.123	 H	1	UNK0	0.000	
38	   H	-2.641	-1.474	-1.076	 H	1	UNK0	0.000	
39	   H	-3.978	-0.228	-1.048	 H	1	UNK0	0.000	
40	   H	-4.134	-2.241	0.423	 H	1	UNK0	0.000	
41	   H	-2.828	-1.503	1.454	 H	1	UNK0	0.000	
42	   H	-3.684	0.724	2.942	 H	1	UNK0	0.000	
43	   H	-4.228	1.743	1.610	 H	1	UNK0	0.000	
44	   H	-1.710	0.260	2.041	 H	1	UNK0	0.000	
45	   H	-2.007	1.859	1.355	 H	1	UNK0	0.000	
46	   H	-5.169	1.044	-0.082	 H	1	UNK0	0.000	
47	   H	-6.425	0.460	1.008	 H	1	UNK0	0.000	
48	   H	-5.846	-0.700	-0.229	 H	1	UNK0	0.000	
@<TRIPOS>BOND
1 1 2 1
2 2 3 2
3 2 7 1
4 3 4 1
5 4 5 2
6 5 6 1
7 5 8 1
8 6 7 2
9 8 9 2
10 8 26 1
11 9 10 1
12 10 11 1
13 11 12 2
14 11 16 1
15 12 13 1
16 12 26 1
17 13 14 2
18 14 15 1
19 15 16 2
20 15 25 1
21 16 17 1
22 17 18 1
23 18 19 1
24 18 23 1
25 19 20 1
26 20 21 1
27 21 22 1
28 21 24 1
29 22 23 1
30 26 27 2
31 3 28 1
32 4 29 1
33 6 30 1
34 7 31 1
35 9 32 1
36 13 33 1
37 14 34 1
38 17 35 1
39 17 36 1
40 18 37 1
41 19 38 1
42 19 39 1
43 20 40 1
44 20 41 1
45 22 42 1
46 22 43 1
47 23 44 1
48 23 45 1
49 24 46 1
50 24 47 1
51 24 48 1
@<TRIPOS>SUBSTRUCTURE
1	UNK0	1	GROUP	1 ****	UNK
