# created with PyMOL 2.3.2
@<TRIPOS>MOLECULE
1369
41 44 1                 
SMALL
USER_CHARGES
@<TRIPOS>ATOM
1	  Br	-3.297	5.754	-1.709	Br	1	UNK0	0.000	
2	   C	-1.540	5.119	-1.287	C.2	1	UNK0	0.000	
3	   C	-0.462	5.397	-2.090	C.2	1	UNK0	0.000	
4	   C	0.797	4.931	-1.770	C.2	1	UNK0	0.000	
5	   C	0.963	4.178	-0.627	C.2	1	UNK0	0.000	
6	   C	-0.137	3.901	0.183	C.2	1	UNK0	0.000	
7	   C	-1.400	4.356	-0.120	C.2	1	UNK0	0.000	
8	   C	-2.563	4.103	0.748	C.3	1	UNK0	0.000	
9	   O	-2.292	3.279	1.842	O.3	1	UNK0	0.000	
10	   C	-1.914	1.952	1.736	C.2	1	UNK0	0.000	
11	   C	-1.635	1.198	2.884	C.2	1	UNK0	0.000	
12	   C	-1.259	-0.125	2.836	C.2	1	UNK0	0.000	
13	   C	-1.141	-0.775	1.627	C.2	1	UNK0	0.000	
14	   C	-1.413	-0.049	0.487	C.2	1	UNK0	0.000	
15	   C	-1.794	1.293	0.533	C.2	1	UNK0	0.000	
16	   C	-0.742	-2.183	1.560	C.2	1	UNK0	0.000	
17	   N	-0.580	-2.961	0.477	N.2	1	UNK0	0.000	
18	   N	-0.208	-4.181	0.878	N.pl3	1	UNK0	0.000	
19	   N	-0.135	-4.182	2.201	N.2	1	UNK0	0.000	
20	   N	-0.460	-2.968	2.612	N.2	1	UNK0	0.000	
21	   C	0.079	-5.343	0.063	C.3	1	UNK0	0.000	
22	   C	1.513	-5.372	-0.299	C.2	1	UNK0	0.000	
23	   O	1.951	-6.299	-0.999	O.2	1	UNK0	0.000	
24	   N	2.362	-4.342	0.160	N.pl3	1	UNK0	0.000	
25	   O	2.302	3.849	-0.553	O.3	1	UNK0	0.000	
26	   C	3.054	4.629	-1.466	C.3	1	UNK0	0.000	
27	   O	2.053	5.044	-2.370	O.3	1	UNK0	0.000	
28	   H	-0.582	5.998	-3.005	 H	1	UNK0	0.000	
29	   H	0.071	3.317	1.074	 H	1	UNK0	0.000	
30	   H	-3.068	5.039	1.068	 H	1	UNK0	0.000	
31	   H	-3.313	3.568	0.116	 H	1	UNK0	0.000	
32	   H	-1.738	1.743	3.822	 H	1	UNK0	0.000	
33	   H	-1.051	-0.679	3.741	 H	1	UNK0	0.000	
34	   H	-1.319	-0.562	-0.454	 H	1	UNK0	0.000	
35	   H	-2.004	1.818	-0.396	 H	1	UNK0	0.000	
36	   H	-0.177	-6.257	0.635	 H	1	UNK0	0.000	
37	   H	-0.571	-5.293	-0.835	 H	1	UNK0	0.000	
38	   H	2.198	-3.830	1.071	 H	1	UNK0	0.000	
39	   H	3.190	-4.059	-0.406	 H	1	UNK0	0.000	
40	   H	3.497	5.475	-0.907	 H	1	UNK0	0.000	
41	   H	3.842	4.014	-1.931	 H	1	UNK0	0.000	
@<TRIPOS>BOND
1 1 2 1
2 2 3 2
3 2 7 1
4 3 4 1
5 4 5 2
6 4 27 1
7 5 6 1
8 5 25 1
9 6 7 2
10 7 8 1
11 8 9 1
12 9 10 1
13 10 11 2
14 10 15 1
15 11 12 1
16 12 13 2
17 13 14 1
18 13 16 1
19 14 15 2
20 16 17 2
21 16 20 1
22 17 18 1
23 18 19 1
24 18 21 1
25 19 20 2
26 21 22 1
27 22 23 2
28 22 24 1
29 25 26 1
30 26 27 1
31 3 28 1
32 6 29 1
33 8 30 1
34 8 31 1
35 11 32 1
36 12 33 1
37 14 34 1
38 15 35 1
39 21 36 1
40 21 37 1
41 24 38 1
42 24 39 1
43 26 40 1
44 26 41 1
@<TRIPOS>SUBSTRUCTURE
1	UNK0	1	GROUP	1 ****	UNK
