# created with PyMOL 2.3.2
@<TRIPOS>MOLECULE
1370
53 56 1                 
SMALL
USER_CHARGES
@<TRIPOS>ATOM
1	  Br	-6.077	0.555	0.112	Br	1	UNK0	0.000	
2	   C	-4.255	0.438	0.757	C.2	1	UNK0	0.000	
3	   C	-3.472	-0.644	0.455	C.2	1	UNK0	0.000	
4	   C	-2.184	-0.701	0.927	C.2	1	UNK0	0.000	
5	   C	-1.666	0.340	1.711	C.2	1	UNK0	0.000	
6	   C	-2.454	1.421	2.011	C.2	1	UNK0	0.000	
7	   C	-3.753	1.462	1.529	C.2	1	UNK0	0.000	
8	   C	-4.600	2.626	1.866	C.3	1	UNK0	0.000	
9	   O	-0.361	0.163	2.115	O.3	1	UNK0	0.000	
10	   C	0.635	-0.371	1.275	C.3	1	UNK0	0.000	
11	   C	0.149	-1.392	0.282	C.3	1	UNK0	0.000	
12	   C	-1.267	-1.827	0.689	C.3	1	UNK0	0.000	
13	   O	-1.115	-2.488	1.910	O.3	1	UNK0	0.000	
14	   N	0.218	-0.963	-1.041	N.3	1	UNK0	0.000	
15	   C	-0.287	-1.870	-2.038	C.3	1	UNK0	0.000	
16	   C	-1.412	-1.235	-2.828	C.3	1	UNK0	0.000	
17	   O	-0.844	-0.205	-3.580	O.3	1	UNK0	0.000	
18	   C	0.022	0.579	-2.839	C.3	1	UNK0	0.000	
19	   C	-0.207	0.371	-1.335	C.3	1	UNK0	0.000	
20	   C	1.007	-2.617	0.500	C.3	1	UNK0	0.000	
21	   N	2.369	-2.356	0.339	N.3	1	UNK0	0.000	
22	   C	3.201	-3.505	0.776	C.3	1	UNK0	0.000	
23	   C	4.522	-2.822	1.178	C.3	1	UNK0	0.000	
24	   O	5.092	-2.230	0.040	O.3	1	UNK0	0.000	
25	   C	4.284	-1.215	-0.449	C.3	1	UNK0	0.000	
26	   C	2.924	-1.844	-0.849	C.3	1	UNK0	0.000	
27	   H	-3.875	-1.430	-0.146	 H	1	UNK0	0.000	
28	   H	-2.021	2.214	2.629	 H	1	UNK0	0.000	
29	   H	-4.124	3.280	2.627	 H	1	UNK0	0.000	
30	   H	-5.617	2.345	2.211	 H	1	UNK0	0.000	
31	   H	-4.688	3.233	0.946	 H	1	UNK0	0.000	
32	   H	1.390	-0.819	1.993	 H	1	UNK0	0.000	
33	   H	1.191	0.473	0.823	 H	1	UNK0	0.000	
34	   H	-1.668	-2.564	-0.012	 H	1	UNK0	0.000	
35	   H	-1.600	-3.351	1.922	 H	1	UNK0	0.000	
36	   H	-0.617	-2.840	-1.685	 H	1	UNK0	0.000	
37	   H	0.558	-1.990	-2.784	 H	1	UNK0	0.000	
38	   H	-1.785	-1.969	-3.572	 H	1	UNK0	0.000	
39	   H	-2.255	-0.904	-2.222	 H	1	UNK0	0.000	
40	   H	1.066	0.255	-3.029	 H	1	UNK0	0.000	
41	   H	-0.093	1.648	-3.103	 H	1	UNK0	0.000	
42	   H	-1.284	0.549	-1.171	 H	1	UNK0	0.000	
43	   H	0.335	1.179	-0.852	 H	1	UNK0	0.000	
44	   H	0.722	-3.443	-0.198	 H	1	UNK0	0.000	
45	   H	0.830	-3.016	1.535	 H	1	UNK0	0.000	
46	   H	2.731	-3.898	1.674	 H	1	UNK0	0.000	
47	   H	3.416	-4.187	-0.039	 H	1	UNK0	0.000	
48	   H	5.245	-3.521	1.614	 H	1	UNK0	0.000	
49	   H	4.307	-1.969	1.888	 H	1	UNK0	0.000	
50	   H	4.759	-0.769	-1.340	 H	1	UNK0	0.000	
51	   H	4.026	-0.471	0.330	 H	1	UNK0	0.000	
52	   H	2.372	-1.096	-1.385	 H	1	UNK0	0.000	
53	   H	3.248	-2.673	-1.558	 H	1	UNK0	0.000	
@<TRIPOS>BOND
1 1 2 1
2 2 3 2
3 2 7 1
4 3 4 1
5 4 5 2
6 4 12 1
7 5 6 1
8 5 9 1
9 6 7 2
10 7 8 1
11 9 10 1
12 10 11 1
13 11 12 1
14 11 14 1
15 11 20 1
16 12 13 1
17 14 15 1
18 14 19 1
19 15 16 1
20 16 17 1
21 17 18 1
22 18 19 1
23 20 21 1
24 21 22 1
25 21 26 1
26 22 23 1
27 23 24 1
28 24 25 1
29 25 26 1
30 3 27 1
31 6 28 1
32 8 29 1
33 8 30 1
34 8 31 1
35 10 32 1
36 10 33 1
37 12 34 1
38 13 35 1
39 15 36 1
40 15 37 1
41 16 38 1
42 16 39 1
43 18 40 1
44 18 41 1
45 19 42 1
46 19 43 1
47 20 44 1
48 20 45 1
49 22 46 1
50 22 47 1
51 23 48 1
52 23 49 1
53 25 50 1
54 25 51 1
55 26 52 1
56 26 53 1
@<TRIPOS>SUBSTRUCTURE
1	UNK0	1	GROUP	1 ****	UNK
