# created with PyMOL 2.3.2
@<TRIPOS>MOLECULE
1371
50 53 1                 
SMALL
USER_CHARGES
@<TRIPOS>ATOM
1	  Cl	-0.535	-5.847	-1.106	Cl	1	UNK0	0.000	
2	   C	0.023	-4.260	-0.613	C.2	1	UNK0	0.000	
3	   C	-0.420	-3.146	-1.291	C.2	1	UNK0	0.000	
4	   C	0.014	-1.895	-0.907	C.2	1	UNK0	0.000	
5	   C	0.893	-1.713	0.148	C.2	1	UNK0	0.000	
6	   C	1.321	-2.832	0.807	C.2	1	UNK0	0.000	
7	   C	0.894	-4.090	0.435	C.2	1	UNK0	0.000	
8	   C	1.379	-0.399	0.564	C.3	1	UNK0	0.000	
9	   N	1.188	0.605	-0.441	N.pl3	1	UNK0	0.000	
10	   C	2.054	0.781	-1.624	C.3	1	UNK0	0.000	
11	   C	2.154	2.288	-1.849	C.3	1	UNK0	0.000	
12	   C	1.066	2.841	-2.685	C.3	1	UNK0	0.000	
13	   C	-0.329	2.513	-2.314	C.3	1	UNK0	0.000	
14	   C	-0.583	2.182	-0.902	C.2	1	UNK0	0.000	
15	   C	0.041	1.372	-0.071	C.2	1	UNK0	0.000	
16	   N	-0.294	1.135	1.282	N.4	1	UNK0	0.000	
17	   C	0.691	0.194	1.760	C.3	1	UNK0	0.000	
18	   C	-1.616	0.745	1.538	C.2	1	UNK0	0.000	
19	   C	-2.555	0.505	0.571	C.2	1	UNK0	0.000	
20	   C	-3.871	0.166	0.818	C.2	1	UNK0	0.000	
21	   C	-4.303	0.056	2.143	C.2	1	UNK0	0.000	
22	   C	-3.385	0.290	3.123	C.2	1	UNK0	0.000	
23	   C	-2.079	0.625	2.862	C.2	1	UNK0	0.000	
24	   O	-5.642	-0.283	2.409	O.3	1	UNK0	0.000	
25	   C	-6.019	-0.373	3.768	C.3	1	UNK0	0.000	
26	   O	2.770	-0.554	0.827	O.3	1	UNK0	0.000	
27	   H	-1.108	-3.321	-2.115	 H	1	UNK0	0.000	
28	   H	-0.343	-1.038	-1.443	 H	1	UNK0	0.000	
29	   H	2.010	-2.762	1.628	 H	1	UNK0	0.000	
30	   H	1.262	-4.958	0.978	 H	1	UNK0	0.000	
31	   H	1.631	0.290	-2.490	 H	1	UNK0	0.000	
32	   H	3.080	0.422	-1.391	 H	1	UNK0	0.000	
33	   H	2.234	2.796	-0.856	 H	1	UNK0	0.000	
34	   H	3.113	2.470	-2.362	 H	1	UNK0	0.000	
35	   H	1.285	2.553	-3.756	 H	1	UNK0	0.000	
36	   H	1.173	3.954	-2.682	 H	1	UNK0	0.000	
37	   H	-0.619	1.582	-2.894	 H	1	UNK0	0.000	
38	   H	-1.046	3.277	-2.688	 H	1	UNK0	0.000	
39	   H	-1.417	2.700	-0.471	 H	1	UNK0	0.000	
40	   H	-0.153	2.058	1.777	 H	1	UNK0	0.000	
41	   H	0.313	-0.543	2.490	 H	1	UNK0	0.000	
42	   H	1.495	0.758	2.325	 H	1	UNK0	0.000	
43	   H	-2.310	0.546	-0.507	 H	1	UNK0	0.000	
44	   H	-4.581	-0.012	0.023	 H	1	UNK0	0.000	
45	   H	-3.752	0.190	4.154	 H	1	UNK0	0.000	
46	   H	-1.413	0.794	3.662	 H	1	UNK0	0.000	
47	   H	-5.467	-1.202	4.297	 H	1	UNK0	0.000	
48	   H	-7.122	-0.512	3.883	 H	1	UNK0	0.000	
49	   H	-5.739	0.566	4.305	 H	1	UNK0	0.000	
50	   H	2.897	-0.366	1.774	 H	1	UNK0	0.000	
@<TRIPOS>BOND
1 1 2 1
2 2 3 2
3 2 7 1
4 3 4 1
5 4 5 2
6 5 6 1
7 5 8 1
8 6 7 2
9 8 9 1
10 8 17 1
11 8 26 1
12 9 10 1
13 9 15 1
14 10 11 1
15 11 12 1
16 12 13 1
17 13 14 1
18 14 15 2
19 15 16 1
20 16 17 1
21 16 18 1
22 18 19 2
23 18 23 1
24 19 20 1
25 20 21 2
26 21 22 1
27 21 24 1
28 22 23 2
29 24 25 1
30 3 27 1
31 4 28 1
32 6 29 1
33 7 30 1
34 10 31 1
35 10 32 1
36 11 33 1
37 11 34 1
38 12 35 1
39 12 36 1
40 13 37 1
41 13 38 1
42 14 39 1
43 16 40 1
44 17 41 1
45 17 42 1
46 19 43 1
47 20 44 1
48 22 45 1
49 23 46 1
50 25 47 1
51 25 48 1
52 25 49 1
53 26 50 1
@<TRIPOS>SUBSTRUCTURE
1	UNK0	1	GROUP	1 ****	UNK
