# created with PyMOL 2.3.2
@<TRIPOS>MOLECULE
1376
56 59 1                 
SMALL
USER_CHARGES
@<TRIPOS>ATOM
1	  Br	4.259	-0.683	-6.084	Br	1	UNK0	0.000	
2	   C	3.438	-0.900	-4.385	C.2	1	UNK0	0.000	
3	   C	4.216	-1.258	-3.303	C.2	1	UNK0	0.000	
4	   C	3.622	-1.407	-2.088	C.2	1	UNK0	0.000	
5	   C	2.251	-1.218	-1.857	C.2	1	UNK0	0.000	
6	   C	1.520	-0.869	-2.940	C.2	1	UNK0	0.000	
7	   C	2.078	-0.707	-4.189	C.2	1	UNK0	0.000	
8	   C	1.756	-1.434	-0.500	C.3	1	UNK0	0.000	
9	   N	1.137	-0.310	0.153	N.pl3	1	UNK0	0.000	
10	   C	0.354	-0.898	1.212	C.2	1	UNK0	0.000	
11	   O	-0.016	-0.317	2.279	O.2	1	UNK0	0.000	
12	   C	0.060	-2.268	0.855	C.2	1	UNK0	0.000	
13	   O	-0.604	-3.138	1.510	O.2	1	UNK0	0.000	
14	   C	0.689	-2.474	-0.440	C.2	1	UNK0	0.000	
15	   C	0.399	-3.430	-1.330	C.2	1	UNK0	0.000	
16	   O	1.190	-3.503	-2.493	O.2	1	UNK0	0.000	
17	   C	-0.693	-4.354	-1.109	C.2	1	UNK0	0.000	
18	   C	-0.483	-5.700	-1.276	C.2	1	UNK0	0.000	
19	   C	-1.514	-6.603	-1.103	C.2	1	UNK0	0.000	
20	   C	-2.783	-6.170	-0.757	C.2	1	UNK0	0.000	
21	   C	-2.970	-4.805	-0.594	C.2	1	UNK0	0.000	
22	   C	-1.935	-3.887	-0.766	C.2	1	UNK0	0.000	
23	  Cl	-4.107	-7.312	-0.538	Cl	1	UNK0	0.000	
24	   C	1.235	1.115	-0.046	C.3	1	UNK0	0.000	
25	   C	0.241	1.782	-0.894	C.3	1	UNK0	0.000	
26	   C	-1.190	1.696	-0.476	C.3	1	UNK0	0.000	
27	   N	-1.473	2.307	0.824	N.4	1	UNK0	0.000	
28	   C	-1.680	3.724	0.698	C.3	1	UNK0	0.000	
29	   C	-2.713	4.350	1.539	C.3	1	UNK0	0.000	
30	   O	-3.544	3.524	2.247	O.3	1	UNK0	0.000	
31	   C	-3.806	2.321	1.643	C.3	1	UNK0	0.000	
32	   C	-2.500	1.593	1.491	C.3	1	UNK0	0.000	
33	   H	5.296	-1.425	-3.398	 H	1	UNK0	0.000	
34	   H	4.263	-1.693	-1.245	 H	1	UNK0	0.000	
35	   H	0.447	-0.725	-2.816	 H	1	UNK0	0.000	
36	   H	1.477	-0.427	-5.052	 H	1	UNK0	0.000	
37	   H	2.564	-1.811	0.161	 H	1	UNK0	0.000	
38	   H	0.485	-6.082	-1.546	 H	1	UNK0	0.000	
39	   H	-1.359	-7.680	-1.234	 H	1	UNK0	0.000	
40	   H	-3.969	-4.496	-0.322	 H	1	UNK0	0.000	
41	   H	-2.179	-2.844	-0.630	 H	1	UNK0	0.000	
42	   H	1.308	1.571	0.990	 H	1	UNK0	0.000	
43	   H	2.285	1.275	-0.442	 H	1	UNK0	0.000	
44	   H	0.299	1.436	-1.935	 H	1	UNK0	0.000	
45	   H	0.575	2.866	-0.965	 H	1	UNK0	0.000	
46	   H	-1.541	0.666	-0.474	 H	1	UNK0	0.000	
47	   H	-1.856	2.261	-1.192	 H	1	UNK0	0.000	
48	   H	-0.596	2.191	1.375	 H	1	UNK0	0.000	
49	   H	-0.720	4.296	0.805	 H	1	UNK0	0.000	
50	   H	-1.963	3.900	-0.384	 H	1	UNK0	0.000	
51	   H	-3.389	5.039	0.947	 H	1	UNK0	0.000	
52	   H	-2.240	5.051	2.290	 H	1	UNK0	0.000	
53	   H	-4.412	1.716	2.383	 H	1	UNK0	0.000	
54	   H	-4.413	2.371	0.742	 H	1	UNK0	0.000	
55	   H	-2.728	0.640	0.965	 H	1	UNK0	0.000	
56	   H	-2.204	1.297	2.536	 H	1	UNK0	0.000	
@<TRIPOS>BOND
1 1 2 1
2 2 3 2
3 2 7 1
4 3 4 1
5 4 5 2
6 5 6 1
7 5 8 1
8 6 7 2
9 8 9 1
10 8 14 1
11 9 10 1
12 9 24 1
13 10 11 2
14 10 12 1
15 12 13 2
16 12 14 1
17 14 15 2
18 15 16 1
19 15 17 1
20 17 18 2
21 17 22 1
22 18 19 1
23 19 20 2
24 20 21 1
25 20 23 1
26 21 22 2
27 24 25 1
28 25 26 1
29 26 27 1
30 27 28 1
31 27 32 1
32 28 29 1
33 29 30 1
34 30 31 1
35 31 32 1
36 3 33 1
37 4 34 1
38 6 35 1
39 7 36 1
40 8 37 1
41 18 38 1
42 19 39 1
43 21 40 1
44 22 41 1
45 24 42 1
46 24 43 1
47 25 44 1
48 25 45 1
49 26 46 1
50 26 47 1
51 27 48 1
52 28 49 1
53 28 50 1
54 29 51 1
55 29 52 1
56 31 53 1
57 31 54 1
58 32 55 1
59 32 56 1
@<TRIPOS>SUBSTRUCTURE
1	UNK0	1	GROUP	1 ****	UNK
