# created with PyMOL 2.3.2
@<TRIPOS>MOLECULE
1382
43 46 1                 
SMALL
USER_CHARGES
@<TRIPOS>ATOM
1	  Br	4.155	0.251	2.118	Br	1	UNK0	0.000	
2	   C	4.047	0.680	0.252	C.2	1	UNK0	0.000	
3	   C	3.286	1.706	-0.221	C.2	1	UNK0	0.000	
4	   C	3.313	1.972	-1.601	C.2	1	UNK0	0.000	
5	   C	4.082	1.214	-2.435	C.2	1	UNK0	0.000	
6	   C	4.844	0.175	-1.920	C.2	1	UNK0	0.000	
7	   C	4.834	-0.099	-0.587	C.2	1	UNK0	0.000	
8	   C	2.395	2.530	0.618	C.3	1	UNK0	0.000	
9	   N	1.081	1.953	0.831	N.pl3	1	UNK0	0.000	
10	   C	0.704	1.195	1.855	C.2	1	UNK0	0.000	
11	   C	-0.577	0.658	1.963	C.2	1	UNK0	0.000	
12	   C	-1.540	0.885	1.008	C.2	1	UNK0	0.000	
13	   C	-1.139	1.674	-0.050	C.2	1	UNK0	0.000	
14	   C	0.129	2.190	-0.134	C.2	1	UNK0	0.000	
15	   C	-2.922	0.340	1.060	C.3	1	UNK0	0.000	
16	   O	-3.797	1.364	0.753	O.3	1	UNK0	0.000	
17	   C	-2.990	-0.778	0.069	C.3	1	UNK0	0.000	
18	   C	-2.034	-1.893	0.336	C.3	1	UNK0	0.000	
19	   N	-2.620	-2.980	-0.458	N.pl3	1	UNK0	0.000	
20	   C	-3.954	-2.765	-0.628	C.2	1	UNK0	0.000	
21	   C	-4.446	-3.831	-1.387	C.2	1	UNK0	0.000	
22	   C	-3.392	-4.671	-1.660	C.2	1	UNK0	0.000	
23	   C	-2.278	-4.115	-1.072	C.2	1	UNK0	0.000	
24	   C	-4.282	-1.510	0.059	C.2	1	UNK0	0.000	
25	   O	-5.409	-1.230	0.489	O.2	1	UNK0	0.000	
26	   H	2.704	2.794	-1.976	 H	1	UNK0	0.000	
27	   H	4.118	1.403	-3.512	 H	1	UNK0	0.000	
28	   H	5.440	-0.404	-2.604	 H	1	UNK0	0.000	
29	   H	5.440	-0.922	-0.197	 H	1	UNK0	0.000	
30	   H	2.871	2.649	1.610	 H	1	UNK0	0.000	
31	   H	2.293	3.525	0.145	 H	1	UNK0	0.000	
32	   H	1.387	0.990	2.651	 H	1	UNK0	0.000	
33	   H	-0.855	0.039	2.816	 H	1	UNK0	0.000	
34	   H	-1.882	1.872	-0.824	 H	1	UNK0	0.000	
35	   H	0.433	2.813	-0.976	 H	1	UNK0	0.000	
36	   H	-3.106	-0.003	2.082	 H	1	UNK0	0.000	
37	   H	-3.799	1.587	-0.192	 H	1	UNK0	0.000	
38	   H	-2.831	-0.409	-0.964	 H	1	UNK0	0.000	
39	   H	-2.131	-2.235	1.391	 H	1	UNK0	0.000	
40	   H	-0.996	-1.692	0.061	 H	1	UNK0	0.000	
41	   H	-5.473	-3.977	-1.706	 H	1	UNK0	0.000	
42	   H	-3.425	-5.587	-2.226	 H	1	UNK0	0.000	
43	   H	-1.284	-4.549	-1.112	 H	1	UNK0	0.000	
@<TRIPOS>BOND
1 1 2 1
2 2 3 2
3 2 7 1
4 3 4 1
5 3 8 1
6 4 5 2
7 5 6 1
8 6 7 2
9 8 9 1
10 9 10 2
11 9 14 1
12 10 11 1
13 11 12 2
14 12 13 1
15 12 15 1
16 13 14 2
17 15 16 1
18 15 17 1
19 17 18 1
20 17 24 1
21 18 19 1
22 19 20 1
23 19 23 1
24 20 21 2
25 20 24 1
26 21 22 1
27 22 23 2
28 24 25 2
29 4 26 1
30 5 27 1
31 6 28 1
32 7 29 1
33 8 30 1
34 8 31 1
35 10 32 1
36 11 33 1
37 13 34 1
38 14 35 1
39 15 36 1
40 16 37 1
41 17 38 1
42 18 39 1
43 18 40 1
44 21 41 1
45 22 42 1
46 23 43 1
@<TRIPOS>SUBSTRUCTURE
1	UNK0	1	GROUP	1 ****	UNK
