# created with PyMOL 2.3.2
@<TRIPOS>MOLECULE
1383
40 43 1                 
SMALL
USER_CHARGES
@<TRIPOS>ATOM
1	  Br	-3.516	-3.106	4.049	Br	1	UNK0	0.000	
2	   C	-2.539	-2.335	2.601	C.2	1	UNK0	0.000	
3	   C	-2.322	-0.990	2.599	C.2	1	UNK0	0.000	
4	   C	-1.612	-0.336	1.571	C.2	1	UNK0	0.000	
5	   C	-1.166	-1.172	0.586	C.2	1	UNK0	0.000	
6	   C	-1.383	-2.552	0.580	C.2	1	UNK0	0.000	
7	   C	-2.073	-3.142	1.592	C.2	1	UNK0	0.000	
8	   C	-1.436	1.078	1.606	C.2	1	UNK0	0.000	
9	   O	-2.052	1.703	2.579	O.2	1	UNK0	0.000	
10	   C	-0.683	1.957	0.738	C.3	1	UNK0	0.000	
11	   N	0.319	1.423	-0.135	N.pl3	1	UNK0	0.000	
12	   C	0.307	1.416	-1.568	C.2	1	UNK0	0.000	
13	   C	1.451	0.860	-2.083	C.2	1	UNK0	0.000	
14	   C	1.642	0.756	-3.465	C.2	1	UNK0	0.000	
15	   C	0.668	1.218	-4.324	C.2	1	UNK0	0.000	
16	   C	-0.482	1.777	-3.809	C.2	1	UNK0	0.000	
17	   C	-0.678	1.884	-2.445	C.2	1	UNK0	0.000	
18	   N	2.249	0.485	-0.970	N.pl3	1	UNK0	0.000	
19	   C	3.559	-0.147	-0.978	C.3	1	UNK0	0.000	
20	   C	3.850	-0.831	0.337	C.3	1	UNK0	0.000	
21	   C	3.408	-0.053	1.531	C.3	1	UNK0	0.000	
22	   N	2.111	0.572	1.374	N.pl3	1	UNK0	0.000	
23	   C	1.576	0.820	0.229	C.cat	1	UNK0	0.000	
24	   H	-2.706	-0.378	3.417	 H	1	UNK0	0.000	
25	   H	-0.632	-0.809	-0.250	 H	1	UNK0	0.000	
26	   H	-1.003	-3.158	-0.229	 H	1	UNK0	0.000	
27	   H	-2.267	-4.216	1.630	 H	1	UNK0	0.000	
28	   H	-1.441	2.495	0.088	 H	1	UNK0	0.000	
29	   H	-0.244	2.820	1.332	 H	1	UNK0	0.000	
30	   H	2.553	0.314	-3.831	 H	1	UNK0	0.000	
31	   H	0.780	1.154	-5.412	 H	1	UNK0	0.000	
32	   H	-1.264	2.148	-4.461	 H	1	UNK0	0.000	
33	   H	-1.566	2.316	-2.013	 H	1	UNK0	0.000	
34	   H	4.301	0.630	-1.182	 H	1	UNK0	0.000	
35	   H	3.574	-0.901	-1.793	 H	1	UNK0	0.000	
36	   H	3.376	-1.837	0.298	 H	1	UNK0	0.000	
37	   H	4.939	-1.004	0.424	 H	1	UNK0	0.000	
38	   H	3.323	-0.789	2.383	 H	1	UNK0	0.000	
39	   H	4.169	0.709	1.819	 H	1	UNK0	0.000	
40	   H	1.579	0.836	2.248	 H	1	UNK0	0.000	
@<TRIPOS>BOND
1 1 2 1
2 2 3 2
3 2 7 1
4 3 4 1
5 4 5 2
6 4 8 1
7 5 6 1
8 6 7 2
9 8 9 2
10 8 10 1
11 10 11 1
12 11 12 1
13 11 23 1
14 12 13 1
15 12 17 2
16 13 14 2
17 13 18 1
18 14 15 1
19 15 16 2
20 16 17 1
21 18 19 1
22 18 23 1
23 19 20 1
24 20 21 1
25 21 22 1
26 22 23 2
27 3 24 1
28 5 25 1
29 6 26 1
30 7 27 1
31 10 28 1
32 10 29 1
33 14 30 1
34 15 31 1
35 16 32 1
36 17 33 1
37 19 34 1
38 19 35 1
39 20 36 1
40 20 37 1
41 21 38 1
42 21 39 1
43 22 40 1
@<TRIPOS>SUBSTRUCTURE
1	UNK0	1	GROUP	1 ****	UNK
