# created with PyMOL 2.3.2
@<TRIPOS>MOLECULE
1384
37 40 1                 
SMALL
USER_CHARGES
@<TRIPOS>ATOM
1	  Br	-3.473	-0.421	3.581	Br	1	UNK0	0.000	
2	   C	-2.196	0.866	2.998	C.2	1	UNK0	0.000	
3	   C	-1.732	0.801	1.683	C.2	1	UNK0	0.000	
4	   C	-0.806	1.696	1.190	C.2	1	UNK0	0.000	
5	   C	-0.340	2.688	2.067	C.2	1	UNK0	0.000	
6	   C	-0.805	2.742	3.360	C.2	1	UNK0	0.000	
7	   C	-1.730	1.850	3.853	C.2	1	UNK0	0.000	
8	   C	-0.309	1.663	-0.172	C.2	1	UNK0	0.000	
9	   O	0.623	2.522	-0.442	O.2	1	UNK0	0.000	
10	   C	-0.749	0.768	-1.260	C.3	1	UNK0	0.000	
11	   N	0.243	-0.271	-1.500	N.pl3	1	UNK0	0.000	
12	   C	1.202	-0.264	-2.578	C.2	1	UNK0	0.000	
13	   C	2.036	-1.355	-2.464	C.2	1	UNK0	0.000	
14	   C	3.046	-1.515	-3.406	C.2	1	UNK0	0.000	
15	   C	3.197	-0.596	-4.425	C.2	1	UNK0	0.000	
16	   C	2.370	0.485	-4.543	C.2	1	UNK0	0.000	
17	   C	1.365	0.627	-3.591	C.2	1	UNK0	0.000	
18	   N	1.666	-2.107	-1.327	N.pl3	1	UNK0	0.000	
19	   C	2.003	-3.288	-0.561	C.3	1	UNK0	0.000	
20	   C	0.980	-3.262	0.533	C.3	1	UNK0	0.000	
21	   N	0.173	-2.084	0.293	N.pl3	1	UNK0	0.000	
22	   C	0.548	-1.427	-0.733	C.cat	1	UNK0	0.000	
23	   H	-2.092	0.034	1.002	 H	1	UNK0	0.000	
24	   H	0.403	3.415	1.693	 H	1	UNK0	0.000	
25	   H	-0.429	3.515	4.030	 H	1	UNK0	0.000	
26	   H	-2.071	1.919	4.876	 H	1	UNK0	0.000	
27	   H	-0.996	1.325	-2.170	 H	1	UNK0	0.000	
28	   H	-1.707	0.274	-0.947	 H	1	UNK0	0.000	
29	   H	3.724	-2.360	-3.345	 H	1	UNK0	0.000	
30	   H	3.980	-0.710	-5.173	 H	1	UNK0	0.000	
31	   H	2.481	1.209	-5.344	 H	1	UNK0	0.000	
32	   H	0.700	1.477	-3.666	 H	1	UNK0	0.000	
33	   H	1.890	-4.220	-1.188	 H	1	UNK0	0.000	
34	   H	3.052	-3.197	-0.195	 H	1	UNK0	0.000	
35	   H	1.476	-3.181	1.509	 H	1	UNK0	0.000	
36	   H	0.329	-4.187	0.481	 H	1	UNK0	0.000	
37	   H	-0.621	-1.843	0.921	 H	1	UNK0	0.000	
@<TRIPOS>BOND
1 1 2 1
2 2 3 2
3 2 7 1
4 3 4 1
5 4 5 2
6 4 8 1
7 5 6 1
8 6 7 2
9 8 9 2
10 8 10 1
11 10 11 1
12 11 12 1
13 11 22 1
14 12 13 1
15 12 17 2
16 13 14 2
17 13 18 1
18 14 15 1
19 15 16 2
20 16 17 1
21 18 19 1
22 18 22 1
23 19 20 1
24 20 21 1
25 21 22 2
26 3 23 1
27 5 24 1
28 6 25 1
29 7 26 1
30 10 27 1
31 10 28 1
32 14 29 1
33 15 30 1
34 16 31 1
35 17 32 1
36 19 33 1
37 19 34 1
38 20 35 1
39 20 36 1
40 21 37 1
@<TRIPOS>SUBSTRUCTURE
1	UNK0	1	GROUP	1 ****	UNK
