# created with PyMOL 2.3.2
@<TRIPOS>MOLECULE
1385
55 58 1                 
SMALL
USER_CHARGES
@<TRIPOS>ATOM
1	  Br	-2.457	-8.207	-3.554	Br	1	UNK0	0.000	
2	   C	-1.852	-7.384	-1.950	C.2	1	UNK0	0.000	
3	   C	-0.685	-6.678	-1.843	C.2	1	UNK0	0.000	
4	   C	-0.301	-6.113	-0.652	C.2	1	UNK0	0.000	
5	   C	-1.063	-6.220	0.508	C.2	1	UNK0	0.000	
6	   C	-2.234	-6.936	0.367	C.2	1	UNK0	0.000	
7	   C	-2.634	-7.511	-0.822	C.2	1	UNK0	0.000	
8	   C	-0.650	-5.640	1.778	C.2	1	UNK0	0.000	
9	   O	-1.428	-5.807	2.766	O.2	1	UNK0	0.000	
10	   C	0.579	-4.890	2.012	C.3	1	UNK0	0.000	
11	   N	0.435	-3.462	2.106	N.pl3	1	UNK0	0.000	
12	   C	0.514	-2.631	1.057	C.2	1	UNK0	0.000	
13	   C	0.381	-1.245	1.218	C.2	1	UNK0	0.000	
14	   N	0.422	-0.215	0.378	N.2	1	UNK0	0.000	
15	   C	0.241	0.977	1.040	C.2	1	UNK0	0.000	
16	   N	0.088	0.655	2.300	N.pl3	1	UNK0	0.000	
17	   C	0.168	-0.706	2.456	C.2	1	UNK0	0.000	
18	   C	0.088	-1.570	3.527	C.2	1	UNK0	0.000	
19	   C	0.222	-2.935	3.342	C.2	1	UNK0	0.000	
20	   C	-0.161	1.506	3.445	C.3	1	UNK0	0.000	
21	   C	0.217	2.277	0.382	C.2	1	UNK0	0.000	
22	   C	0.193	2.305	-1.026	C.2	1	UNK0	0.000	
23	   C	0.209	3.464	-1.757	C.2	1	UNK0	0.000	
24	   C	0.252	4.690	-1.117	C.2	1	UNK0	0.000	
25	   C	0.277	4.703	0.269	C.2	1	UNK0	0.000	
26	   C	0.259	3.491	0.985	C.2	1	UNK0	0.000	
27	   O	0.320	5.864	0.950	O.3	1	UNK0	0.000	
28	   C	0.347	6.160	2.295	C.3	1	UNK0	0.000	
29	   O	0.269	5.872	-1.839	O.3	1	UNK0	0.000	
30	   C	1.538	6.407	-2.224	C.3	1	UNK0	0.000	
31	   O	0.181	3.433	-3.152	O.3	1	UNK0	0.000	
32	   C	0.133	2.171	-3.781	C.3	1	UNK0	0.000	
33	   H	-0.061	-6.578	-2.745	 H	1	UNK0	0.000	
34	   H	0.645	-5.558	-0.631	 H	1	UNK0	0.000	
35	   H	-2.854	-7.041	1.244	 H	1	UNK0	0.000	
36	   H	-3.563	-8.063	-0.882	 H	1	UNK0	0.000	
37	   H	1.046	-5.249	2.953	 H	1	UNK0	0.000	
38	   H	1.355	-5.136	1.225	 H	1	UNK0	0.000	
39	   H	0.683	-3.036	0.069	 H	1	UNK0	0.000	
40	   H	-0.081	-1.160	4.519	 H	1	UNK0	0.000	
41	   H	0.159	-3.615	4.184	 H	1	UNK0	0.000	
42	   H	-0.379	0.871	4.360	 H	1	UNK0	0.000	
43	   H	-1.000	2.211	3.294	 H	1	UNK0	0.000	
44	   H	0.767	2.054	3.677	 H	1	UNK0	0.000	
45	   H	0.159	1.357	-1.545	 H	1	UNK0	0.000	
46	   H	0.295	3.534	2.061	 H	1	UNK0	0.000	
47	   H	-0.719	6.294	2.650	 H	1	UNK0	0.000	
48	   H	0.846	7.121	2.545	 H	1	UNK0	0.000	
49	   H	0.769	5.311	2.862	 H	1	UNK0	0.000	
50	   H	2.209	6.584	-1.384	 H	1	UNK0	0.000	
51	   H	1.398	7.389	-2.753	 H	1	UNK0	0.000	
52	   H	2.050	5.688	-2.909	 H	1	UNK0	0.000	
53	   H	1.040	1.576	-3.550	 H	1	UNK0	0.000	
54	   H	-0.731	1.614	-3.345	 H	1	UNK0	0.000	
55	   H	0.050	2.253	-4.884	 H	1	UNK0	0.000	
@<TRIPOS>BOND
1 1 2 1
2 2 3 2
3 2 7 1
4 3 4 1
5 4 5 2
6 5 6 1
7 5 8 1
8 6 7 2
9 8 9 2
10 8 10 1
11 10 11 1
12 11 12 2
13 11 19 1
14 12 13 1
15 13 14 1
16 13 17 2
17 14 15 2
18 15 16 1
19 15 21 1
20 16 17 1
21 16 20 1
22 17 18 1
23 18 19 2
24 21 22 2
25 21 26 1
26 22 23 1
27 23 24 2
28 23 31 1
29 24 25 1
30 24 29 1
31 25 26 2
32 25 27 1
33 27 28 1
34 29 30 1
35 31 32 1
36 3 33 1
37 4 34 1
38 6 35 1
39 7 36 1
40 10 37 1
41 10 38 1
42 12 39 1
43 18 40 1
44 19 41 1
45 20 42 1
46 20 43 1
47 20 44 1
48 22 45 1
49 26 46 1
50 28 47 1
51 28 48 1
52 28 49 1
53 30 50 1
54 30 51 1
55 30 52 1
56 32 53 1
57 32 54 1
58 32 55 1
@<TRIPOS>SUBSTRUCTURE
1	UNK0	1	GROUP	1 ****	UNK
