# created with PyMOL 2.3.2
@<TRIPOS>MOLECULE
1386
55 58 1                 
SMALL
USER_CHARGES
@<TRIPOS>ATOM
1	  Cl	4.626	-2.131	7.472	Cl	1	UNK0	0.000	
2	   C	4.414	-2.012	5.718	C.2	1	UNK0	0.000	
3	   C	4.118	-0.791	5.159	C.2	1	UNK0	0.000	
4	   C	3.944	-0.656	3.791	C.2	1	UNK0	0.000	
5	   N	3.657	0.383	2.993	N.2	1	UNK0	0.000	
6	   C	3.599	-0.050	1.685	C.2	1	UNK0	0.000	
7	   N	3.858	-1.352	1.734	N.pl3	1	UNK0	0.000	
8	   C	4.078	-1.781	3.011	C.2	1	UNK0	0.000	
9	   C	4.374	-3.010	3.562	C.2	1	UNK0	0.000	
10	   C	4.544	-3.132	4.920	C.2	1	UNK0	0.000	
11	   C	3.964	-2.275	0.618	C.3	1	UNK0	0.000	
12	   C	3.362	0.839	0.519	C.3	1	UNK0	0.000	
13	   C	1.975	1.247	0.257	C.3	1	UNK0	0.000	
14	   C	0.990	0.198	-0.029	C.2	1	UNK0	0.000	
15	   O	1.311	-1.002	-0.185	O.2	1	UNK0	0.000	
16	   N	-0.402	0.566	-0.136	N.pl3	1	UNK0	0.000	
17	   C	-1.372	-0.457	-0.417	C.3	1	UNK0	0.000	
18	   C	-1.918	-0.188	-1.804	C.3	1	UNK0	0.000	
19	   C	-1.968	1.255	-2.155	C.3	1	UNK0	0.000	
20	   C	-1.935	2.197	-1.008	C.3	1	UNK0	0.000	
21	   C	-0.893	1.907	0.022	C.3	1	UNK0	0.000	
22	   O	-0.957	1.632	-3.053	O.3	1	UNK0	0.000	
23	   C	-3.284	1.495	-2.907	C.3	1	UNK0	0.000	
24	   N	-3.192	-0.856	-1.914	N.pl3	1	UNK0	0.000	
25	   C	-4.187	-0.566	-1.053	C.2	1	UNK0	0.000	
26	   C	-5.418	-1.179	-1.121	C.2	1	UNK0	0.000	
27	   C	-5.629	-2.117	-2.105	C.2	1	UNK0	0.000	
28	   O	-6.747	-2.720	-2.221	O.2	1	UNK0	0.000	
29	   N	-4.620	-2.386	-2.948	N.pl3	1	UNK0	0.000	
30	   C	-3.436	-1.778	-2.861	C.2	1	UNK0	0.000	
31	   O	-2.518	-2.068	-3.681	O.2	1	UNK0	0.000	
32	   H	4.005	0.116	5.745	 H	1	UNK0	0.000	
33	   H	4.468	-3.856	2.913	 H	1	UNK0	0.000	
34	   H	4.778	-4.081	5.387	 H	1	UNK0	0.000	
35	   H	3.947	-1.775	-0.356	 H	1	UNK0	0.000	
36	   H	4.859	-2.925	0.690	 H	1	UNK0	0.000	
37	   H	3.087	-2.969	0.702	 H	1	UNK0	0.000	
38	   H	3.849	0.363	-0.372	 H	1	UNK0	0.000	
39	   H	4.024	1.739	0.718	 H	1	UNK0	0.000	
40	   H	1.585	1.980	1.019	 H	1	UNK0	0.000	
41	   H	2.005	1.881	-0.693	 H	1	UNK0	0.000	
42	   H	-2.184	-0.496	0.341	 H	1	UNK0	0.000	
43	   H	-0.891	-1.457	-0.388	 H	1	UNK0	0.000	
44	   H	-1.215	-0.691	-2.520	 H	1	UNK0	0.000	
45	   H	-1.703	3.221	-1.423	 H	1	UNK0	0.000	
46	   H	-2.965	2.315	-0.572	 H	1	UNK0	0.000	
47	   H	-1.411	1.945	1.025	 H	1	UNK0	0.000	
48	   H	-0.091	2.665	0.072	 H	1	UNK0	0.000	
49	   H	-0.200	0.974	-2.957	 H	1	UNK0	0.000	
50	   H	-3.138	2.447	-3.473	 H	1	UNK0	0.000	
51	   H	-3.427	0.709	-3.684	 H	1	UNK0	0.000	
52	   H	-4.132	1.614	-2.230	 H	1	UNK0	0.000	
53	   H	-4.021	0.181	-0.269	 H	1	UNK0	0.000	
54	   H	-6.214	-0.945	-0.430	 H	1	UNK0	0.000	
55	   H	-4.740	-3.105	-3.723	 H	1	UNK0	0.000	
@<TRIPOS>BOND
1 1 2 1
2 2 3 2
3 2 10 1
4 3 4 1
5 4 5 1
6 4 8 2
7 5 6 2
8 6 7 1
9 6 12 1
10 7 8 1
11 7 11 1
12 8 9 1
13 9 10 2
14 12 13 1
15 13 14 1
16 14 15 2
17 14 16 1
18 16 17 1
19 16 21 1
20 17 18 1
21 18 19 1
22 18 24 1
23 19 20 1
24 19 22 1
25 19 23 1
26 20 21 1
27 24 25 1
28 24 30 1
29 25 26 2
30 26 27 1
31 27 28 2
32 27 29 1
33 29 30 1
34 30 31 2
35 3 32 1
36 9 33 1
37 10 34 1
38 11 35 1
39 11 36 1
40 11 37 1
41 12 38 1
42 12 39 1
43 13 40 1
44 13 41 1
45 17 42 1
46 17 43 1
47 18 44 1
48 20 45 1
49 20 46 1
50 21 47 1
51 21 48 1
52 22 49 1
53 23 50 1
54 23 51 1
55 23 52 1
56 25 53 1
57 26 54 1
58 29 55 1
@<TRIPOS>SUBSTRUCTURE
1	UNK0	1	GROUP	1 ****	UNK
