# created with PyMOL 2.3.2
@<TRIPOS>MOLECULE
1387
50 53 1                 
SMALL
USER_CHARGES
@<TRIPOS>ATOM
1	  Br	7.818	-0.338	4.019	Br	1	UNK0	0.000	
2	   C	7.220	0.507	2.414	C.2	1	UNK0	0.000	
3	   C	5.928	0.951	2.258	C.2	1	UNK0	0.000	
4	   C	5.458	1.565	1.118	C.2	1	UNK0	0.000	
5	   C	6.330	1.750	0.059	C.2	1	UNK0	0.000	
6	   C	7.644	1.302	0.208	C.2	1	UNK0	0.000	
7	   C	8.079	0.698	1.349	C.2	1	UNK0	0.000	
8	   O	5.931	2.357	-1.115	O.2	1	UNK0	0.000	
9	   C	4.071	2.011	1.026	C.2	1	UNK0	0.000	
10	   N	3.220	1.872	1.958	N.2	1	UNK0	0.000	
11	   N	1.890	2.283	1.911	N.pl3	1	UNK0	0.000	
12	   C	0.950	1.626	1.030	C.2	1	UNK0	0.000	
13	   O	1.449	0.694	0.352	O.2	1	UNK0	0.000	
14	   C	-0.414	2.080	1.012	C.2	1	UNK0	0.000	
15	   N	-0.738	3.309	1.544	N.2	1	UNK0	0.000	
16	   N	-2.012	3.502	1.358	N.2	1	UNK0	0.000	
17	   N	-2.543	2.435	0.719	N.pl3	1	UNK0	0.000	
18	   C	-1.545	1.524	0.495	C.2	1	UNK0	0.000	
19	   C	-1.721	0.195	-0.027	C.2	1	UNK0	0.000	
20	   C	-0.983	-0.918	0.306	C.2	1	UNK0	0.000	
21	   C	-1.135	-2.155	-0.316	C.2	1	UNK0	0.000	
22	   C	-2.048	-2.345	-1.317	C.2	1	UNK0	0.000	
23	   C	-2.806	-1.242	-1.672	C.2	1	UNK0	0.000	
24	   C	-2.651	-0.020	-1.056	C.2	1	UNK0	0.000	
25	   O	-2.237	-3.551	-1.967	O.3	1	UNK0	0.000	
26	   C	-1.499	-4.705	-1.668	C.3	1	UNK0	0.000	
27	   C	-0.018	-4.526	-1.911	C.3	1	UNK0	0.000	
28	   C	-3.898	2.284	0.378	C.2	1	UNK0	0.000	
29	   N	-4.738	1.349	0.823	N.2	1	UNK0	0.000	
30	   O	-5.932	1.551	0.288	O.3	1	UNK0	0.000	
31	   N	-5.884	2.586	-0.486	N.2	1	UNK0	0.000	
32	   C	-4.618	3.086	-0.463	C.2	1	UNK0	0.000	
33	   N	-4.224	4.218	-1.200	N.4	1	UNK0	0.000	
34	   H	5.244	0.810	3.078	 H	1	UNK0	0.000	
35	   H	8.313	1.451	-0.621	 H	1	UNK0	0.000	
36	   H	9.110	0.352	1.454	 H	1	UNK0	0.000	
37	   H	3.747	2.487	0.113	 H	1	UNK0	0.000	
38	   H	1.548	3.065	2.504	 H	1	UNK0	0.000	
39	   H	-0.277	-0.873	1.122	 H	1	UNK0	0.000	
40	   H	-0.518	-2.998	0.003	 H	1	UNK0	0.000	
41	   H	-3.541	-1.377	-2.470	 H	1	UNK0	0.000	
42	   H	-3.256	0.790	-1.401	 H	1	UNK0	0.000	
43	   H	-1.831	-5.590	-2.224	 H	1	UNK0	0.000	
44	   H	-1.645	-4.915	-0.570	 H	1	UNK0	0.000	
45	   H	0.157	-3.490	-2.217	 H	1	UNK0	0.000	
46	   H	0.590	-4.820	-1.037	 H	1	UNK0	0.000	
47	   H	0.302	-5.155	-2.787	 H	1	UNK0	0.000	
48	   H	-4.305	3.957	-2.223	 H	1	UNK0	0.000	
49	   H	-3.244	4.484	-1.034	 H	1	UNK0	0.000	
50	   H	-4.821	5.055	-1.055	 H	1	UNK0	0.000	
@<TRIPOS>BOND
1 1 2 1
2 2 3 2
3 2 7 1
4 3 4 1
5 4 5 2
6 4 9 1
7 5 6 1
8 5 8 1
9 6 7 2
10 9 10 2
11 10 11 1
12 11 12 1
13 12 13 2
14 12 14 1
15 14 15 1
16 14 18 2
17 15 16 2
18 16 17 1
19 17 18 1
20 17 28 1
21 18 19 1
22 19 20 2
23 19 24 1
24 20 21 1
25 21 22 2
26 22 23 1
27 22 25 1
28 23 24 2
29 25 26 1
30 26 27 1
31 28 29 2
32 28 32 1
33 29 30 1
34 30 31 1
35 31 32 2
36 32 33 1
37 3 34 1
38 6 35 1
39 7 36 1
40 9 37 1
41 11 38 1
42 20 39 1
43 21 40 1
44 23 41 1
45 24 42 1
46 26 43 1
47 26 44 1
48 27 45 1
49 27 46 1
50 27 47 1
51 33 48 1
52 33 49 1
53 33 50 1
@<TRIPOS>SUBSTRUCTURE
1	UNK0	1	GROUP	1 ****	UNK
