# created with PyMOL 2.3.2
@<TRIPOS>MOLECULE
1389
56 59 1                 
SMALL
USER_CHARGES
@<TRIPOS>ATOM
1	  Br	-4.594	-4.151	-1.863	Br	1	UNK0	0.000	
2	   C	-3.437	-2.745	-2.406	C.2	1	UNK0	0.000	
3	   C	-2.355	-2.328	-1.643	C.2	1	UNK0	0.000	
4	   C	-1.524	-1.306	-2.042	C.2	1	UNK0	0.000	
5	   C	-1.789	-0.693	-3.230	C.2	1	UNK0	0.000	
6	   C	-2.878	-1.106	-4.010	C.2	1	UNK0	0.000	
7	   C	-3.708	-2.128	-3.609	C.2	1	UNK0	0.000	
8	   C	-0.378	-0.900	-1.190	C.3	1	UNK0	0.000	
9	   N	0.800	-0.642	-2.002	N.pl3	1	UNK0	0.000	
10	   C	0.795	0.767	-2.312	C.2	1	UNK0	0.000	
11	   O	1.450	1.297	-3.243	O.2	1	UNK0	0.000	
12	   C	-0.088	1.407	-1.360	C.2	1	UNK0	0.000	
13	   O	-0.387	2.639	-1.271	O.2	1	UNK0	0.000	
14	   C	-0.608	0.371	-0.478	C.2	1	UNK0	0.000	
15	   C	-1.193	0.582	0.692	C.2	1	UNK0	0.000	
16	   O	-1.658	-0.591	1.323	O.2	1	UNK0	0.000	
17	   C	-1.361	1.885	1.314	C.2	1	UNK0	0.000	
18	   C	-0.370	2.824	1.475	C.2	1	UNK0	0.000	
19	   C	-0.597	4.061	2.044	C.2	1	UNK0	0.000	
20	   C	-1.854	4.409	2.484	C.2	1	UNK0	0.000	
21	   C	-2.862	3.478	2.331	C.2	1	UNK0	0.000	
22	   C	-2.625	2.243	1.760	C.2	1	UNK0	0.000	
23	  Cl	-2.170	5.986	3.215	Cl	1	UNK0	0.000	
24	   C	1.714	-1.628	-2.481	C.3	1	UNK0	0.000	
25	   C	2.997	-1.823	-1.783	C.3	1	UNK0	0.000	
26	   C	3.016	-2.216	-0.353	C.3	1	UNK0	0.000	
27	   N	2.503	-1.298	0.607	N.4	1	UNK0	0.000	
28	   C	1.729	-1.983	1.611	C.3	1	UNK0	0.000	
29	   C	2.539	-2.372	2.830	C.3	1	UNK0	0.000	
30	   O	2.973	-1.227	3.502	O.3	1	UNK0	0.000	
31	   C	3.056	-0.140	2.630	C.3	1	UNK0	0.000	
32	   C	3.635	-0.651	1.340	C.3	1	UNK0	0.000	
33	   H	-2.166	-2.827	-0.708	 H	1	UNK0	0.000	
34	   H	-1.171	0.104	-3.580	 H	1	UNK0	0.000	
35	   H	-3.090	-0.629	-4.946	 H	1	UNK0	0.000	
36	   H	-4.558	-2.453	-4.214	 H	1	UNK0	0.000	
37	   H	-0.127	-1.740	-0.510	 H	1	UNK0	0.000	
38	   H	0.635	2.589	1.165	 H	1	UNK0	0.000	
39	   H	0.186	4.798	2.168	 H	1	UNK0	0.000	
40	   H	-3.844	3.770	2.684	 H	1	UNK0	0.000	
41	   H	-3.428	1.517	1.646	 H	1	UNK0	0.000	
42	   H	1.940	-1.337	-3.561	 H	1	UNK0	0.000	
43	   H	1.147	-2.625	-2.531	 H	1	UNK0	0.000	
44	   H	3.678	-0.900	-1.924	 H	1	UNK0	0.000	
45	   H	3.605	-2.636	-2.330	 H	1	UNK0	0.000	
46	   H	4.059	-2.478	-0.017	 H	1	UNK0	0.000	
47	   H	2.445	-3.196	-0.210	 H	1	UNK0	0.000	
48	   H	2.019	-0.509	0.186	 H	1	UNK0	0.000	
49	   H	1.281	-2.904	1.182	 H	1	UNK0	0.000	
50	   H	0.899	-1.338	1.949	 H	1	UNK0	0.000	
51	   H	3.378	-3.024	2.516	 H	1	UNK0	0.000	
52	   H	1.895	-2.947	3.497	 H	1	UNK0	0.000	
53	   H	2.037	0.257	2.489	 H	1	UNK0	0.000	
54	   H	3.697	0.634	3.105	 H	1	UNK0	0.000	
55	   H	4.396	-1.437	1.524	 H	1	UNK0	0.000	
56	   H	4.009	0.187	0.722	 H	1	UNK0	0.000	
@<TRIPOS>BOND
1 1 2 1
2 2 3 2
3 2 7 1
4 3 4 1
5 4 5 2
6 4 8 1
7 5 6 1
8 6 7 2
9 8 9 1
10 8 14 1
11 9 10 1
12 9 24 1
13 10 11 2
14 10 12 1
15 12 13 2
16 12 14 1
17 14 15 2
18 15 16 1
19 15 17 1
20 17 18 2
21 17 22 1
22 18 19 1
23 19 20 2
24 20 21 1
25 20 23 1
26 21 22 2
27 24 25 1
28 25 26 1
29 26 27 1
30 27 28 1
31 27 32 1
32 28 29 1
33 29 30 1
34 30 31 1
35 31 32 1
36 3 33 1
37 5 34 1
38 6 35 1
39 7 36 1
40 8 37 1
41 18 38 1
42 19 39 1
43 21 40 1
44 22 41 1
45 24 42 1
46 24 43 1
47 25 44 1
48 25 45 1
49 26 46 1
50 26 47 1
51 27 48 1
52 28 49 1
53 28 50 1
54 29 51 1
55 29 52 1
56 31 53 1
57 31 54 1
58 32 55 1
59 32 56 1
@<TRIPOS>SUBSTRUCTURE
1	UNK0	1	GROUP	1 ****	UNK
