# created with PyMOL 2.3.2
@<TRIPOS>MOLECULE
1391
56 59 1                 
SMALL
USER_CHARGES
@<TRIPOS>ATOM
1	  Br	-2.303	-7.501	0.418	Br	1	UNK0	0.000	
2	   C	-1.257	-5.951	0.004	C.2	1	UNK0	0.000	
3	   C	-0.111	-5.642	0.704	C.2	1	UNK0	0.000	
4	   C	0.619	-4.531	0.392	C.2	1	UNK0	0.000	
5	   C	0.250	-3.656	-0.641	C.2	1	UNK0	0.000	
6	   C	-0.873	-3.964	-1.324	C.2	1	UNK0	0.000	
7	   C	-1.623	-5.098	-1.009	C.2	1	UNK0	0.000	
8	   C	1.088	-2.545	-0.881	C.3	1	UNK0	0.000	
9	   N	1.334	-1.889	-2.092	N.pl3	1	UNK0	0.000	
10	   C	2.459	-0.986	-1.772	C.2	1	UNK0	0.000	
11	   O	3.366	-0.592	-2.556	O.2	1	UNK0	0.000	
12	   C	2.273	-0.662	-0.354	C.2	1	UNK0	0.000	
13	   O	2.982	0.093	0.379	O.2	1	UNK0	0.000	
14	   C	1.065	-1.397	0.068	C.2	1	UNK0	0.000	
15	   C	0.203	-1.059	1.000	C.2	1	UNK0	0.000	
16	   O	-0.929	-1.833	1.226	O.2	1	UNK0	0.000	
17	   C	0.369	0.111	1.848	C.2	1	UNK0	0.000	
18	   C	1.418	0.358	2.677	C.2	1	UNK0	0.000	
19	   C	1.477	1.540	3.402	C.2	1	UNK0	0.000	
20	   C	0.475	2.477	3.292	C.2	1	UNK0	0.000	
21	   C	-0.603	2.265	2.465	C.2	1	UNK0	0.000	
22	   C	-0.640	1.076	1.750	C.2	1	UNK0	0.000	
23	   C	0.504	3.760	4.056	C.3	1	UNK0	0.000	
24	   C	0.835	-1.901	-3.459	C.3	1	UNK0	0.000	
25	   C	-0.103	-0.767	-3.780	C.3	1	UNK0	0.000	
26	   N	-1.251	-0.710	-2.936	N.4	1	UNK0	0.000	
27	   C	-2.406	-1.258	-3.622	C.3	1	UNK0	0.000	
28	   C	-3.585	-1.220	-2.686	C.3	1	UNK0	0.000	
29	   O	-3.917	0.135	-2.525	O.3	1	UNK0	0.000	
30	   C	-2.862	0.753	-1.895	C.3	1	UNK0	0.000	
31	   C	-1.589	0.708	-2.700	C.3	1	UNK0	0.000	
32	   H	0.169	-6.327	1.507	 H	1	UNK0	0.000	
33	   H	1.528	-4.326	0.981	 H	1	UNK0	0.000	
34	   H	-1.289	-3.402	-2.151	 H	1	UNK0	0.000	
35	   H	-2.531	-5.358	-1.551	 H	1	UNK0	0.000	
36	   H	2.173	-2.988	-0.632	 H	1	UNK0	0.000	
37	   H	2.198	-0.397	2.791	 H	1	UNK0	0.000	
38	   H	2.318	1.724	4.057	 H	1	UNK0	0.000	
39	   H	-1.413	2.997	2.363	 H	1	UNK0	0.000	
40	   H	-1.473	0.862	1.083	 H	1	UNK0	0.000	
41	   H	-0.302	3.810	4.814	 H	1	UNK0	0.000	
42	   H	1.490	3.853	4.590	 H	1	UNK0	0.000	
43	   H	0.434	4.635	3.378	 H	1	UNK0	0.000	
44	   H	1.717	-1.750	-4.148	 H	1	UNK0	0.000	
45	   H	0.329	-2.829	-3.706	 H	1	UNK0	0.000	
46	   H	0.449	0.222	-3.645	 H	1	UNK0	0.000	
47	   H	-0.404	-0.812	-4.865	 H	1	UNK0	0.000	
48	   H	-1.110	-1.166	-2.023	 H	1	UNK0	0.000	
49	   H	-2.286	-2.277	-3.990	 H	1	UNK0	0.000	
50	   H	-2.620	-0.627	-4.514	 H	1	UNK0	0.000	
51	   H	-3.349	-1.671	-1.714	 H	1	UNK0	0.000	
52	   H	-4.454	-1.745	-3.124	 H	1	UNK0	0.000	
53	   H	-3.147	1.831	-1.765	 H	1	UNK0	0.000	
54	   H	-2.698	0.313	-0.906	 H	1	UNK0	0.000	
55	   H	-1.737	1.155	-3.698	 H	1	UNK0	0.000	
56	   H	-0.806	1.236	-2.149	 H	1	UNK0	0.000	
@<TRIPOS>BOND
1 1 2 1
2 2 3 2
3 2 7 1
4 3 4 1
5 4 5 2
6 5 6 1
7 5 8 1
8 6 7 2
9 8 9 1
10 8 14 1
11 9 10 1
12 9 24 1
13 10 11 2
14 10 12 1
15 12 13 2
16 12 14 1
17 14 15 2
18 15 16 1
19 15 17 1
20 17 18 2
21 17 22 1
22 18 19 1
23 19 20 2
24 20 21 1
25 20 23 1
26 21 22 2
27 24 25 1
28 25 26 1
29 26 27 1
30 26 31 1
31 27 28 1
32 28 29 1
33 29 30 1
34 30 31 1
35 3 32 1
36 4 33 1
37 6 34 1
38 7 35 1
39 8 36 1
40 18 37 1
41 19 38 1
42 21 39 1
43 22 40 1
44 23 41 1
45 23 42 1
46 23 43 1
47 24 44 1
48 24 45 1
49 25 46 1
50 25 47 1
51 26 48 1
52 27 49 1
53 27 50 1
54 28 51 1
55 28 52 1
56 30 53 1
57 30 54 1
58 31 55 1
59 31 56 1
@<TRIPOS>SUBSTRUCTURE
1	UNK0	1	GROUP	1 ****	UNK
