# created with PyMOL 2.3.2
@<TRIPOS>MOLECULE
1397
38 41 1                 
SMALL
USER_CHARGES
@<TRIPOS>ATOM
1	  Br	3.562	-7.864	-0.335	Br	1	UNK0	0.000	
2	   C	2.496	-6.288	-0.534	C.2	1	UNK0	0.000	
3	   C	3.060	-5.115	-0.982	C.2	1	UNK0	0.000	
4	   N	2.303	-4.034	-1.113	N.2	1	UNK0	0.000	
5	   C	0.982	-3.976	-0.838	C.2	1	UNK0	0.000	
6	   N	0.429	-5.143	-0.393	N.2	1	UNK0	0.000	
7	   C	1.149	-6.269	-0.242	C.2	1	UNK0	0.000	
8	   N	0.203	-2.823	-0.983	N.pl3	1	UNK0	0.000	
9	   C	-1.172	-2.470	-0.777	C.3	1	UNK0	0.000	
10	   C	-0.637	-1.122	-0.336	C.3	1	UNK0	0.000	
11	   C	0.399	-1.464	-1.401	C.3	1	UNK0	0.000	
12	   C	-1.503	0.057	-0.650	C.3	1	UNK0	0.000	
13	   N	-0.840	1.237	-0.161	N.pl3	1	UNK0	0.000	
14	   N	-1.072	1.689	1.138	N.pl3	1	UNK0	0.000	
15	   C	-0.441	2.848	1.665	C.2	1	UNK0	0.000	
16	   C	-0.696	3.232	2.901	C.2	1	UNK0	0.000	
17	   C	-1.331	3.160	4.232	C.3	1	UNK0	0.000	
18	   C	-0.407	4.255	3.981	C.3	1	UNK0	0.000	
19	   C	0.483	3.612	0.850	C.2	1	UNK0	0.000	
20	   C	0.718	3.202	-0.386	C.2	1	UNK0	0.000	
21	   C	0.068	1.998	-0.943	C.2	1	UNK0	0.000	
22	   O	0.309	1.629	-2.123	O.2	1	UNK0	0.000	
23	   H	4.121	-5.145	-1.208	 H	1	UNK0	0.000	
24	   H	0.721	-7.200	0.109	 H	1	UNK0	0.000	
25	   H	-1.762	-2.311	-1.724	 H	1	UNK0	0.000	
26	   H	-1.717	-3.032	-0.001	 H	1	UNK0	0.000	
27	   H	-0.230	-1.181	0.678	 H	1	UNK0	0.000	
28	   H	0.013	-1.215	-2.413	 H	1	UNK0	0.000	
29	   H	1.401	-1.036	-1.228	 H	1	UNK0	0.000	
30	   H	-2.494	-0.050	-0.154	 H	1	UNK0	0.000	
31	   H	-1.673	0.177	-1.719	 H	1	UNK0	0.000	
32	   H	-1.750	1.124	1.728	 H	1	UNK0	0.000	
33	   H	-2.413	3.423	4.316	 H	1	UNK0	0.000	
34	   H	-1.034	2.373	4.944	 H	1	UNK0	0.000	
35	   H	-0.824	5.279	3.808	 H	1	UNK0	0.000	
36	   H	0.638	4.232	4.367	 H	1	UNK0	0.000	
37	   H	0.984	4.518	1.244	 H	1	UNK0	0.000	
38	   H	1.408	3.781	-0.980	 H	1	UNK0	0.000	
@<TRIPOS>BOND
1 1 2 1
2 2 3 2
3 2 7 1
4 3 4 1
5 4 5 2
6 5 6 1
7 5 8 1
8 6 7 2
9 8 9 1
10 8 11 1
11 9 10 1
12 10 11 1
13 10 12 1
14 12 13 1
15 13 14 1
16 13 21 1
17 14 15 1
18 15 16 2
19 15 19 1
20 16 17 1
21 16 18 1
22 17 18 1
23 19 20 2
24 20 21 1
25 21 22 2
26 3 23 1
27 7 24 1
28 9 25 1
29 9 26 1
30 10 27 1
31 11 28 1
32 11 29 1
33 12 30 1
34 12 31 1
35 14 32 1
36 17 33 1
37 17 34 1
38 18 35 1
39 18 36 1
40 19 37 1
41 20 38 1
@<TRIPOS>SUBSTRUCTURE
1	UNK0	1	GROUP	1 ****	UNK
