# created with PyMOL 2.3.2
@<TRIPOS>MOLECULE
1398
52 55 1                 
SMALL
USER_CHARGES
@<TRIPOS>ATOM
1	  Cl	3.091	0.076	-0.263	Cl	1	UNK0	0.000	
2	   C	2.343	-1.499	-0.147	C.2	1	UNK0	0.000	
3	   C	1.848	-2.069	-1.360	C.2	1	UNK0	0.000	
4	   C	1.267	-3.274	-1.226	C.2	1	UNK0	0.000	
5	   C	1.169	-3.909	0.025	C.2	1	UNK0	0.000	
6	   C	1.671	-3.314	1.179	C.2	1	UNK0	0.000	
7	   C	2.260	-2.094	1.071	C.2	1	UNK0	0.000	
8	  Cl	0.610	-4.066	-2.624	Cl	1	UNK0	0.000	
9	   C	2.039	-1.225	-2.545	C.2	1	UNK0	0.000	
10	   C	1.361	-0.088	-2.629	C.2	1	UNK0	0.000	
11	   O	0.466	0.258	-1.619	O.3	1	UNK0	0.000	
12	   C	-0.104	1.495	-1.891	C.2	1	UNK0	0.000	
13	   C	0.368	2.019	-3.055	C.2	1	UNK0	0.000	
14	   C	-0.080	3.259	-3.418	C.2	1	UNK0	0.000	
15	   C	-0.990	3.921	-2.598	C.2	1	UNK0	0.000	
16	   C	-1.471	3.368	-1.426	C.2	1	UNK0	0.000	
17	   C	-1.044	2.115	-1.027	C.2	1	UNK0	0.000	
18	   C	-1.705	1.199	-0.158	C.3	1	UNK0	0.000	
19	   N	-1.732	0.886	1.172	N.4	1	UNK0	0.000	
20	   C	-1.504	-0.660	1.158	C.3	1	UNK0	0.000	
21	   C	-2.220	-1.188	2.320	C.3	1	UNK0	0.000	
22	   N	-1.746	-0.431	3.495	N.3	1	UNK0	0.000	
23	   C	-0.539	0.267	3.173	C.3	1	UNK0	0.000	
24	   C	-0.719	1.303	2.078	C.3	1	UNK0	0.000	
25	   C	-1.694	-1.357	4.562	C.3	1	UNK0	0.000	
26	   C	-0.606	-2.402	4.547	C.3	1	UNK0	0.000	
27	   O	0.645	-1.774	4.597	O.3	1	UNK0	0.000	
28	   O	-2.375	4.061	-0.640	O.2	1	UNK0	0.000	
29	   C	1.323	1.013	-3.571	C.2	1	UNK0	0.000	
30	   O	1.990	1.060	-4.610	O.2	1	UNK0	0.000	
31	   H	0.728	-4.868	0.141	 H	1	UNK0	0.000	
32	   H	1.579	-3.824	2.122	 H	1	UNK0	0.000	
33	   H	2.686	-1.569	1.969	 H	1	UNK0	0.000	
34	   H	2.686	-1.479	-3.322	 H	1	UNK0	0.000	
35	   H	0.295	3.650	-4.340	 H	1	UNK0	0.000	
36	   H	-1.321	4.903	-2.911	 H	1	UNK0	0.000	
37	   H	-1.926	0.224	-0.772	 H	1	UNK0	0.000	
38	   H	-2.914	1.577	-0.323	 H	1	UNK0	0.000	
39	   H	-2.638	0.996	1.651	 H	1	UNK0	0.000	
40	   H	-0.431	-0.819	1.225	 H	1	UNK0	0.000	
41	   H	-1.911	-1.030	0.178	 H	1	UNK0	0.000	
42	   H	-2.025	-2.281	2.489	 H	1	UNK0	0.000	
43	   H	-3.312	-0.970	2.239	 H	1	UNK0	0.000	
44	   H	0.318	-0.418	2.921	 H	1	UNK0	0.000	
45	   H	-0.206	0.742	4.144	 H	1	UNK0	0.000	
46	   H	0.246	1.262	1.474	 H	1	UNK0	0.000	
47	   H	-0.841	2.315	2.515	 H	1	UNK0	0.000	
48	   H	-1.847	-0.907	5.559	 H	1	UNK0	0.000	
49	   H	-2.659	-1.985	4.436	 H	1	UNK0	0.000	
50	   H	-0.676	-3.126	3.720	 H	1	UNK0	0.000	
51	   H	-0.648	-3.040	5.489	 H	1	UNK0	0.000	
52	   H	0.638	-1.163	5.394	 H	1	UNK0	0.000	
@<TRIPOS>BOND
1 1 2 1
2 2 3 2
3 2 7 1
4 3 4 1
5 3 9 1
6 4 5 2
7 4 8 1
8 5 6 1
9 6 7 2
10 9 10 2
11 10 11 1
12 10 29 1
13 11 12 1
14 12 13 2
15 12 17 1
16 13 14 1
17 13 29 1
18 14 15 2
19 15 16 1
20 16 17 2
21 16 28 1
22 17 18 1
23 18 19 1
24 19 20 1
25 19 24 1
26 20 21 1
27 21 22 1
28 22 23 1
29 22 25 1
30 23 24 1
31 25 26 1
32 26 27 1
33 29 30 2
34 5 31 1
35 6 32 1
36 7 33 1
37 9 34 1
38 14 35 1
39 15 36 1
40 18 37 1
41 18 38 1
42 19 39 1
43 20 40 1
44 20 41 1
45 21 42 1
46 21 43 1
47 23 44 1
48 23 45 1
49 24 46 1
50 24 47 1
51 25 48 1
52 25 49 1
53 26 50 1
54 26 51 1
55 27 52 1
@<TRIPOS>SUBSTRUCTURE
1	UNK0	1	GROUP	1 ****	UNK
