# created with PyMOL 2.3.2
@<TRIPOS>MOLECULE
1399
29 32 1                 
SMALL
USER_CHARGES
@<TRIPOS>ATOM
1	  Cl	2.811	1.949	-1.773	Cl	1	UNK0	0.000	
2	   C	2.817	2.222	-0.044	C.2	1	UNK0	0.000	
3	   C	1.874	1.571	0.717	C.2	1	UNK0	0.000	
4	   C	1.854	1.770	2.102	C.2	1	UNK0	0.000	
5	   C	2.742	2.591	2.734	C.2	1	UNK0	0.000	
6	   C	3.683	3.239	1.957	C.2	1	UNK0	0.000	
7	   C	3.724	3.059	0.580	C.2	1	UNK0	0.000	
8	  Cl	4.848	4.306	2.715	Cl	1	UNK0	0.000	
9	   N	0.942	0.712	0.072	N.pl3	1	UNK0	0.000	
10	   N	0.071	1.003	-0.870	N.pl3	1	UNK0	0.000	
11	   C	-0.632	-0.139	-1.204	C.2	1	UNK0	0.000	
12	   C	-0.156	-1.146	-0.423	C.2	1	UNK0	0.000	
13	   N	0.818	-0.569	0.349	N.2	1	UNK0	0.000	
14	   C	-0.704	-2.495	-0.453	C.2	1	UNK0	0.000	
15	   N	-0.439	-3.664	0.119	N.2	1	UNK0	0.000	
16	   O	-1.275	-4.551	-0.365	O.3	1	UNK0	0.000	
17	   N	-2.082	-4.032	-1.227	N.pl3	1	UNK0	0.000	
18	   C	-1.747	-2.705	-1.312	C.2	1	UNK0	0.000	
19	   C	-2.384	-1.653	-2.103	C.3	1	UNK0	0.000	
20	   C	-1.658	-0.384	-2.215	C.3	1	UNK0	0.000	
21	   O	-3.058	-4.701	-1.899	O.2	1	UNK0	0.000	
22	   O	-0.148	2.222	-1.462	O.2	1	UNK0	0.000	
23	   H	1.110	1.257	2.704	 H	1	UNK0	0.000	
24	   H	2.715	2.739	3.822	 H	1	UNK0	0.000	
25	   H	4.468	3.568	-0.042	 H	1	UNK0	0.000	
26	   H	-2.691	-2.069	-3.117	 H	1	UNK0	0.000	
27	   H	-3.407	-1.377	-1.640	 H	1	UNK0	0.000	
28	   H	-2.352	0.510	-2.315	 H	1	UNK0	0.000	
29	   H	-1.068	-0.447	-3.203	 H	1	UNK0	0.000	
@<TRIPOS>BOND
1 1 2 1
2 2 3 2
3 2 7 1
4 3 4 1
5 3 9 1
6 4 5 2
7 5 6 1
8 6 7 2
9 6 8 1
10 9 10 1
11 9 13 1
12 10 11 2
13 10 22 1
14 11 12 1
15 11 20 1
16 12 13 2
17 12 14 1
18 14 15 2
19 14 18 1
20 15 16 1
21 16 17 1
22 17 18 2
23 17 21 1
24 18 19 1
25 19 20 1
26 4 23 1
27 5 24 1
28 7 25 1
29 19 26 1
30 19 27 1
31 20 28 1
32 20 29 1
@<TRIPOS>SUBSTRUCTURE
1	UNK0	1	GROUP	1 ****	UNK
