# created with PyMOL 2.3.2
@<TRIPOS>MOLECULE
1400
48 51 1                 
SMALL
USER_CHARGES
@<TRIPOS>ATOM
1	  Cl	-5.458	1.093	2.474	Cl	1	UNK0	0.000	
2	   C	-5.380	1.058	0.749	C.2	1	UNK0	0.000	
3	   C	-4.411	0.302	0.129	C.2	1	UNK0	0.000	
4	   N	-4.453	0.343	-1.236	N.2	1	UNK0	0.000	
5	   C	-5.348	1.050	-1.935	C.2	1	UNK0	0.000	
6	   C	-6.320	1.808	-1.325	C.2	1	UNK0	0.000	
7	   C	-6.326	1.805	0.050	C.2	1	UNK0	0.000	
8	   N	-3.422	-0.463	0.775	N.pl3	1	UNK0	0.000	
9	   C	-2.502	-1.330	0.009	C.3	1	UNK0	0.000	
10	   C	-1.188	-0.771	0.508	C.3	1	UNK0	0.000	
11	   N	-0.090	-1.667	0.312	N.pl3	1	UNK0	0.000	
12	   C	-0.201	-2.640	1.341	C.2	1	UNK0	0.000	
13	   O	0.414	-3.745	1.311	O.co2	1	UNK0	0.000	
14	   O	-1.075	-2.144	2.319	O.3	1	UNK0	0.000	
15	   C	-1.471	-0.818	2.017	C.3	1	UNK0	0.000	
16	   C	-3.000	-0.660	2.118	C.3	1	UNK0	0.000	
17	   C	0.909	-1.575	-0.726	C.3	1	UNK0	0.000	
18	   C	2.052	-0.732	-0.203	C.3	1	UNK0	0.000	
19	   C	3.149	-0.587	-1.235	C.3	1	UNK0	0.000	
20	   N	4.246	0.197	-0.785	N.3	1	UNK0	0.000	
21	   C	3.949	1.602	-0.598	C.3	1	UNK0	0.000	
22	   C	5.171	2.189	0.122	C.3	1	UNK0	0.000	
23	   O	6.307	1.471	-0.181	O.3	1	UNK0	0.000	
24	   C	6.321	0.198	0.379	C.3	1	UNK0	0.000	
25	   C	4.872	-0.279	0.413	C.3	1	UNK0	0.000	
26	   H	-5.320	1.033	-3.014	 H	1	UNK0	0.000	
27	   H	-7.052	2.388	-1.886	 H	1	UNK0	0.000	
28	   H	-7.079	2.393	0.563	 H	1	UNK0	0.000	
29	   H	-2.631	-1.248	-1.065	 H	1	UNK0	0.000	
30	   H	-2.694	-2.350	0.394	 H	1	UNK0	0.000	
31	   H	-1.066	0.233	0.125	 H	1	UNK0	0.000	
32	   H	-0.935	-0.050	2.570	 H	1	UNK0	0.000	
33	   H	-3.268	0.080	2.859	 H	1	UNK0	0.000	
34	   H	-3.400	-1.658	2.446	 H	1	UNK0	0.000	
35	   H	0.453	-1.079	-1.613	 H	1	UNK0	0.000	
36	   H	1.291	-2.542	-1.063	 H	1	UNK0	0.000	
37	   H	1.616	0.256	0.045	 H	1	UNK0	0.000	
38	   H	2.488	-1.199	0.680	 H	1	UNK0	0.000	
39	   H	3.492	-1.555	-1.601	 H	1	UNK0	0.000	
40	   H	2.690	-0.062	-2.108	 H	1	UNK0	0.000	
41	   H	3.041	1.715	0.051	 H	1	UNK0	0.000	
42	   H	3.786	2.097	-1.561	 H	1	UNK0	0.000	
43	   H	5.352	3.238	-0.169	 H	1	UNK0	0.000	
44	   H	5.023	2.147	1.229	 H	1	UNK0	0.000	
45	   H	6.745	0.263	1.381	 H	1	UNK0	0.000	
46	   H	6.852	-0.530	-0.281	 H	1	UNK0	0.000	
47	   H	4.436	0.191	1.337	 H	1	UNK0	0.000	
48	   H	4.802	-1.378	0.545	 H	1	UNK0	0.000	
@<TRIPOS>BOND
1 1 2 1
2 2 3 2
3 2 7 1
4 3 4 1
5 3 8 1
6 4 5 2
7 5 6 1
8 6 7 2
9 8 9 1
10 8 16 1
11 9 10 1
12 10 11 1
13 10 15 1
14 11 12 1
15 11 17 1
16 12 13 2
17 12 14 1
18 14 15 1
19 15 16 1
20 17 18 1
21 18 19 1
22 19 20 1
23 20 21 1
24 20 25 1
25 21 22 1
26 22 23 1
27 23 24 1
28 24 25 1
29 5 26 1
30 6 27 1
31 7 28 1
32 9 29 1
33 9 30 1
34 10 31 1
35 15 32 1
36 16 33 1
37 16 34 1
38 17 35 1
39 17 36 1
40 18 37 1
41 18 38 1
42 19 39 1
43 19 40 1
44 21 41 1
45 21 42 1
46 22 43 1
47 22 44 1
48 24 45 1
49 24 46 1
50 25 47 1
51 25 48 1
@<TRIPOS>SUBSTRUCTURE
1	UNK0	1	GROUP	1 ****	UNK
