# created with PyMOL 2.3.2
@<TRIPOS>MOLECULE
1401
65 69 1                 
SMALL
USER_CHARGES
@<TRIPOS>ATOM
1	  Cl	-4.051	3.760	3.908	Cl	1	UNK0	0.000	
2	   C	-3.510	2.085	4.041	C.2	1	UNK0	0.000	
3	   C	-4.186	1.164	4.797	C.2	1	UNK0	0.000	
4	   C	-3.720	-0.140	4.865	C.2	1	UNK0	0.000	
5	   C	-2.583	-0.540	4.186	C.2	1	UNK0	0.000	
6	   C	-1.939	0.427	3.439	C.2	1	UNK0	0.000	
7	   C	-2.365	1.734	3.342	C.2	1	UNK0	0.000	
8	   C	-2.110	-1.918	4.275	C.2	1	UNK0	0.000	
9	   N	-1.072	-2.521	3.664	N.pl3	1	UNK0	0.000	
10	   C	-1.040	-3.820	4.052	C.2	1	UNK0	0.000	
11	   N	-2.062	-4.000	4.900	N.2	1	UNK0	0.000	
12	   N	-2.700	-2.867	5.032	N.2	1	UNK0	0.000	
13	   C	-0.075	-4.692	3.573	C.2	1	UNK0	0.000	
14	   C	0.841	-4.129	2.676	C.2	1	UNK0	0.000	
15	   C	0.785	-2.809	2.300	C.2	1	UNK0	0.000	
16	   N	-0.189	-2.028	2.816	N.2	1	UNK0	0.000	
17	   N	1.732	-2.302	1.371	N.pl3	1	UNK0	0.000	
18	   C	1.789	-0.848	1.205	C.3	1	UNK0	0.000	
19	   C	2.929	-0.424	0.323	C.3	1	UNK0	0.000	
20	   C	3.036	-1.217	-0.946	C.3	1	UNK0	0.000	
21	   C	2.429	-2.574	-0.873	C.3	1	UNK0	0.000	
22	   C	2.625	-3.075	0.572	C.3	1	UNK0	0.000	
23	   C	2.558	-0.523	-2.151	C.2	1	UNK0	0.000	
24	   O	3.326	-0.481	-3.163	O.2	1	UNK0	0.000	
25	   N	1.302	0.103	-2.268	N.pl3	1	UNK0	0.000	
26	   C	0.924	0.752	-3.487	C.3	1	UNK0	0.000	
27	   C	-0.438	1.395	-3.456	C.3	1	UNK0	0.000	
28	   N	-0.497	2.421	-2.425	N.3	1	UNK0	0.000	
29	   C	0.351	3.536	-2.772	C.3	1	UNK0	0.000	
30	   C	0.094	4.702	-1.884	C.3	1	UNK0	0.000	
31	   N	-0.855	4.421	-0.837	N.3	1	UNK0	0.000	
32	   C	-2.102	4.045	-1.470	C.3	1	UNK0	0.000	
33	   C	-1.864	2.813	-2.281	C.3	1	UNK0	0.000	
34	   C	-0.427	3.423	0.090	C.3	1	UNK0	0.000	
35	   H	-5.068	1.497	5.316	 H	1	UNK0	0.000	
36	   H	-4.273	-0.859	5.470	 H	1	UNK0	0.000	
37	   H	-1.036	0.177	2.880	 H	1	UNK0	0.000	
38	   H	-1.848	2.473	2.754	 H	1	UNK0	0.000	
39	   H	-0.030	-5.720	3.864	 H	1	UNK0	0.000	
40	   H	1.624	-4.790	2.275	 H	1	UNK0	0.000	
41	   H	0.840	-0.426	0.871	 H	1	UNK0	0.000	
42	   H	1.986	-0.449	2.229	 H	1	UNK0	0.000	
43	   H	2.756	0.635	0.042	 H	1	UNK0	0.000	
44	   H	3.862	-0.443	0.922	 H	1	UNK0	0.000	
45	   H	4.147	-1.388	-1.086	 H	1	UNK0	0.000	
46	   H	1.354	-2.480	-1.094	 H	1	UNK0	0.000	
47	   H	2.938	-3.295	-1.544	 H	1	UNK0	0.000	
48	   H	3.681	-2.752	0.819	 H	1	UNK0	0.000	
49	   H	2.529	-4.157	0.620	 H	1	UNK0	0.000	
50	   H	0.652	0.094	-1.469	 H	1	UNK0	0.000	
51	   H	0.909	-0.044	-4.288	 H	1	UNK0	0.000	
52	   H	1.715	1.463	-3.781	 H	1	UNK0	0.000	
53	   H	-1.207	0.639	-3.210	 H	1	UNK0	0.000	
54	   H	-0.656	1.839	-4.427	 H	1	UNK0	0.000	
55	   H	0.249	3.769	-3.852	 H	1	UNK0	0.000	
56	   H	1.399	3.208	-2.623	 H	1	UNK0	0.000	
57	   H	1.037	5.143	-1.467	 H	1	UNK0	0.000	
58	   H	-0.367	5.508	-2.519	 H	1	UNK0	0.000	
59	   H	-2.839	3.860	-0.637	 H	1	UNK0	0.000	
60	   H	-2.526	4.890	-2.056	 H	1	UNK0	0.000	
61	   H	-2.306	2.874	-3.320	 H	1	UNK0	0.000	
62	   H	-2.403	1.951	-1.786	 H	1	UNK0	0.000	
63	   H	-0.052	3.884	1.035	 H	1	UNK0	0.000	
64	   H	-1.231	2.717	0.391	 H	1	UNK0	0.000	
65	   H	0.456	2.820	-0.275	 H	1	UNK0	0.000	
@<TRIPOS>BOND
1 1 2 1
2 2 3 2
3 2 7 1
4 3 4 1
5 4 5 2
6 5 6 1
7 5 8 1
8 6 7 2
9 8 9 1
10 8 12 2
11 9 10 1
12 9 16 1
13 10 11 2
14 10 13 1
15 11 12 1
16 13 14 2
17 14 15 1
18 15 16 2
19 15 17 1
20 17 18 1
21 17 22 1
22 18 19 1
23 19 20 1
24 20 21 1
25 20 23 1
26 21 22 1
27 23 24 2
28 23 25 1
29 25 26 1
30 26 27 1
31 27 28 1
32 28 29 1
33 28 33 1
34 29 30 1
35 30 31 1
36 31 32 1
37 31 34 1
38 32 33 1
39 3 35 1
40 4 36 1
41 6 37 1
42 7 38 1
43 13 39 1
44 14 40 1
45 18 41 1
46 18 42 1
47 19 43 1
48 19 44 1
49 20 45 1
50 21 46 1
51 21 47 1
52 22 48 1
53 22 49 1
54 25 50 1
55 26 51 1
56 26 52 1
57 27 53 1
58 27 54 1
59 29 55 1
60 29 56 1
61 30 57 1
62 30 58 1
63 32 59 1
64 32 60 1
65 33 61 1
66 33 62 1
67 34 63 1
68 34 64 1
69 34 65 1
@<TRIPOS>SUBSTRUCTURE
1	UNK0	1	GROUP	1 ****	UNK
