# created with PyMOL 2.3.2
@<TRIPOS>MOLECULE
1405
36 39 1                 
SMALL
USER_CHARGES
@<TRIPOS>ATOM
1	  Br	-3.116	4.734	0.099	Br	1	UNK0	0.000	
2	   C	-1.934	3.212	0.072	C.2	1	UNK0	0.000	
3	   C	-2.402	1.959	-0.224	C.2	1	UNK0	0.000	
4	   C	-1.537	0.885	-0.238	C.2	1	UNK0	0.000	
5	   C	-0.221	1.125	0.051	C.2	1	UNK0	0.000	
6	   C	0.259	2.415	0.355	C.2	1	UNK0	0.000	
7	   C	-0.614	3.470	0.364	C.2	1	UNK0	0.000	
8	   N	0.543	-0.076	-0.003	N.pl3	1	UNK0	0.000	
9	   C	-0.324	-1.123	-0.340	C.2	1	UNK0	0.000	
10	   O	0.016	-2.338	-0.476	O.2	1	UNK0	0.000	
11	   C	-1.711	-0.563	-0.510	C.3	1	UNK0	0.000	
12	   C	-2.089	-0.845	-1.890	C.2	1	UNK0	0.000	
13	   C	-3.135	-1.664	-2.182	C.2	1	UNK0	0.000	
14	   N	-3.221	-1.716	-3.544	N.2	1	UNK0	0.000	
15	   N	-2.281	-0.972	-4.088	N.pl3	1	UNK0	0.000	
16	   C	-1.563	-0.419	-3.113	C.2	1	UNK0	0.000	
17	   C	-0.389	0.504	-3.209	C.3	1	UNK0	0.000	
18	   O	-3.911	-2.283	-1.196	O.3	1	UNK0	0.000	
19	   C	-3.547	-2.012	0.119	C.2	1	UNK0	0.000	
20	   C	-2.553	-1.235	0.462	C.2	1	UNK0	0.000	
21	   C	-2.312	-1.061	1.905	C.1	1	UNK0	0.000	
22	   N	-2.103	-0.909	3.044	N.1	1	UNK0	0.000	
23	   N	-4.318	-2.628	1.189	N.pl3	1	UNK0	0.000	
24	   C	1.986	-0.208	0.249	C.3	1	UNK0	0.000	
25	   H	-3.442	1.788	-0.450	 H	1	UNK0	0.000	
26	   H	1.300	2.601	0.583	 H	1	UNK0	0.000	
27	   H	-0.267	4.488	0.598	 H	1	UNK0	0.000	
28	   H	-2.085	-0.807	-5.109	 H	1	UNK0	0.000	
29	   H	-0.207	0.659	-4.304	 H	1	UNK0	0.000	
30	   H	-0.635	1.520	-2.814	 H	1	UNK0	0.000	
31	   H	0.525	0.076	-2.799	 H	1	UNK0	0.000	
32	   H	-3.977	-3.564	1.486	 H	1	UNK0	0.000	
33	   H	-5.129	-2.190	1.621	 H	1	UNK0	0.000	
34	   H	2.109	-0.900	1.105	 H	1	UNK0	0.000	
35	   H	2.385	-0.735	-0.649	 H	1	UNK0	0.000	
36	   H	2.461	0.763	0.386	 H	1	UNK0	0.000	
@<TRIPOS>BOND
1 1 2 1
2 2 3 2
3 2 7 1
4 3 4 1
5 4 5 2
6 4 11 1
7 5 6 1
8 5 8 1
9 6 7 2
10 8 9 1
11 8 24 1
12 9 10 2
13 9 11 1
14 11 12 1
15 11 20 1
16 12 13 1
17 12 16 2
18 13 14 2
19 13 18 1
20 14 15 1
21 15 16 1
22 16 17 1
23 18 19 1
24 19 20 2
25 19 23 1
26 20 21 1
27 21 22 3
28 3 25 1
29 6 26 1
30 7 27 1
31 15 28 1
32 17 29 1
33 17 30 1
34 17 31 1
35 23 32 1
36 23 33 1
37 24 34 1
38 24 35 1
39 24 36 1
@<TRIPOS>SUBSTRUCTURE
1	UNK0	1	GROUP	1 ****	UNK
