# created with PyMOL 2.3.2
@<TRIPOS>MOLECULE
1411
45 47 1                 
SMALL
USER_CHARGES
@<TRIPOS>ATOM
1	  Br	-0.214	-3.690	-0.924	Br	1	UNK0	0.000	
2	   C	0.196	-1.945	-0.278	C.2	1	UNK0	0.000	
3	   C	0.238	-0.847	-1.110	C.2	1	UNK0	0.000	
4	   N	0.527	0.387	-0.661	N.2	1	UNK0	0.000	
5	   C	0.783	0.554	0.645	C.2	1	UNK0	0.000	
6	   C	0.761	-0.491	1.541	C.2	1	UNK0	0.000	
7	   C	0.464	-1.738	1.057	C.2	1	UNK0	0.000	
8	   C	1.041	-0.293	2.958	C.2	1	UNK0	0.000	
9	   O	1.010	-1.275	3.739	O.co2	1	UNK0	0.000	
10	   O	1.337	0.989	3.397	O.co2	1	UNK0	0.000	
11	   N	1.892	1.904	0.806	N.4	1	UNK0	0.000	
12	   C	0.805	2.803	0.376	C.3	1	UNK0	0.000	
13	   C	0.818	2.887	-1.115	C.3	1	UNK0	0.000	
14	   C	0.577	1.518	-1.692	C.3	1	UNK0	0.000	
15	   C	0.751	0.412	-0.736	C.2	1	UNK0	0.000	
16	   C	1.388	0.595	0.471	C.2	1	UNK0	0.000	
17	   N	1.513	-0.448	1.289	N.2	1	UNK0	0.000	
18	   C	1.049	-1.683	1.002	C.2	1	UNK0	0.000	
19	   C	0.406	-1.903	-0.198	C.2	1	UNK0	0.000	
20	   C	0.253	-0.853	-1.076	C.2	1	UNK0	0.000	
21	   N	-0.411	-1.084	-2.313	N.pl3	1	UNK0	0.000	
22	   C	-0.075	-3.179	-0.498	C.2	1	UNK0	0.000	
23	   C	0.067	-4.242	0.366	C.2	1	UNK0	0.000	
24	   C	0.712	-4.016	1.565	C.2	1	UNK0	0.000	
25	   C	1.190	-2.749	1.864	C.2	1	UNK0	0.000	
26	   C	2.006	2.075	2.240	C.3	1	UNK0	0.000	
27	   H	0.023	-1.026	-2.170	 H	1	UNK0	0.000	
28	   H	1.014	1.549	0.997	 H	1	UNK0	0.000	
29	   H	0.426	-2.614	1.695	 H	1	UNK0	0.000	
30	   H	2.768	2.125	0.304	 H	1	UNK0	0.000	
31	   H	0.939	3.816	0.794	 H	1	UNK0	0.000	
32	   H	-0.135	2.321	0.729	 H	1	UNK0	0.000	
33	   H	0.058	3.625	-1.453	 H	1	UNK0	0.000	
34	   H	1.834	3.282	-1.412	 H	1	UNK0	0.000	
35	   H	-0.450	1.536	-2.133	 H	1	UNK0	0.000	
36	   H	1.262	1.421	-2.573	 H	1	UNK0	0.000	
37	   H	-1.437	-1.271	-2.270	 H	1	UNK0	0.000	
38	   H	0.044	-1.080	-3.237	 H	1	UNK0	0.000	
39	   H	-0.576	-3.354	-1.431	 H	1	UNK0	0.000	
40	   H	-0.322	-5.220	0.093	 H	1	UNK0	0.000	
41	   H	0.816	-4.861	2.232	 H	1	UNK0	0.000	
42	   H	1.692	-2.606	2.815	 H	1	UNK0	0.000	
43	   H	1.099	1.643	2.709	 H	1	UNK0	0.000	
44	   H	2.941	1.572	2.601	 H	1	UNK0	0.000	
45	   H	2.035	3.167	2.428	 H	1	UNK0	0.000	
@<TRIPOS>BOND
1 1 2 1
2 2 3 2
3 2 7 1
4 3 4 1
5 4 5 2
6 5 6 1
7 6 7 2
8 6 8 1
9 8 9 2
10 8 10 1
11 11 12 1
12 11 16 1
13 11 26 1
14 12 13 1
15 13 14 1
16 14 15 1
17 15 16 2
18 15 20 1
19 16 17 1
20 17 18 2
21 18 19 1
22 18 25 1
23 19 20 2
24 19 22 1
25 20 21 1
26 22 23 2
27 23 24 1
28 24 25 2
29 3 27 1
30 5 28 1
31 7 29 1
32 11 30 1
33 12 31 1
34 12 32 1
35 13 33 1
36 13 34 1
37 14 35 1
38 14 36 1
39 21 37 1
40 21 38 1
41 22 39 1
42 23 40 1
43 24 41 1
44 25 42 1
45 26 43 1
46 26 44 1
47 26 45 1
@<TRIPOS>SUBSTRUCTURE
1	UNK0	1	GROUP	1 ****	UNK
