# created with PyMOL 2.3.2
@<TRIPOS>MOLECULE
1412
40 43 1                 
SMALL
USER_CHARGES
@<TRIPOS>ATOM
1	  Br	-1.452	2.572	7.972	Br	1	UNK0	0.000	
2	   C	-1.484	2.290	6.087	C.2	1	UNK0	0.000	
3	   O	-1.913	1.214	5.507	O.3	1	UNK0	0.000	
4	   C	-1.812	1.305	4.169	C.2	1	UNK0	0.000	
5	   C	-1.280	2.530	3.907	C.2	1	UNK0	0.000	
6	   C	-1.066	3.168	5.138	C.2	1	UNK0	0.000	
7	   C	-2.224	0.235	3.279	C.2	1	UNK0	0.000	
8	   O	-2.673	-0.811	3.899	O.2	1	UNK0	0.000	
9	   N	-2.187	0.220	1.875	N.pl3	1	UNK0	0.000	
10	   C	-1.722	1.334	1.117	C.3	1	UNK0	0.000	
11	   C	-1.868	0.958	-0.377	C.3	1	UNK0	0.000	
12	   N	-1.155	-0.274	-0.542	N.pl3	1	UNK0	0.000	
13	   C	-1.689	-1.433	0.134	C.3	1	UNK0	0.000	
14	   C	-2.645	-1.019	1.233	C.3	1	UNK0	0.000	
15	   C	0.017	-0.393	-1.319	C.2	1	UNK0	0.000	
16	   N	0.580	0.685	-1.931	N.2	1	UNK0	0.000	
17	   N	1.671	0.605	-2.664	N.2	1	UNK0	0.000	
18	   C	2.343	-0.541	-2.886	C.2	1	UNK0	0.000	
19	   C	1.801	-1.655	-2.280	C.2	1	UNK0	0.000	
20	   C	0.661	-1.600	-1.509	C.2	1	UNK0	0.000	
21	   N	3.522	-0.591	-3.685	N.pl3	1	UNK0	0.000	
22	   N	4.648	-1.183	-3.360	N.2	1	UNK0	0.000	
23	   C	5.576	-1.064	-4.306	C.2	1	UNK0	0.000	
24	   C	5.011	-0.335	-5.335	C.2	1	UNK0	0.000	
25	   C	3.723	-0.058	-4.905	C.2	1	UNK0	0.000	
26	   H	-1.028	3.011	2.976	 H	1	UNK0	0.000	
27	   H	-0.646	4.174	5.266	 H	1	UNK0	0.000	
28	   H	-0.657	1.556	1.253	 H	1	UNK0	0.000	
29	   H	-2.309	2.263	1.297	 H	1	UNK0	0.000	
30	   H	-2.949	0.783	-0.603	 H	1	UNK0	0.000	
31	   H	-1.510	1.779	-1.013	 H	1	UNK0	0.000	
32	   H	-0.907	-2.090	0.578	 H	1	UNK0	0.000	
33	   H	-2.240	-2.053	-0.601	 H	1	UNK0	0.000	
34	   H	-3.663	-0.852	0.859	 H	1	UNK0	0.000	
35	   H	-2.670	-1.799	2.004	 H	1	UNK0	0.000	
36	   H	2.306	-2.605	-2.428	 H	1	UNK0	0.000	
37	   H	0.242	-2.486	-1.037	 H	1	UNK0	0.000	
38	   H	6.596	-1.431	-4.352	 H	1	UNK0	0.000	
39	   H	5.488	-0.045	-6.279	 H	1	UNK0	0.000	
40	   H	2.971	0.505	-5.459	 H	1	UNK0	0.000	
@<TRIPOS>BOND
1 1 2 1
2 2 3 1
3 2 6 2
4 3 4 1
5 4 5 2
6 4 7 1
7 5 6 1
8 7 8 2
9 7 9 1
10 9 10 1
11 9 14 1
12 10 11 1
13 11 12 1
14 12 13 1
15 12 15 1
16 13 14 1
17 15 16 2
18 15 20 1
19 16 17 1
20 17 18 2
21 18 19 1
22 18 21 1
23 19 20 2
24 21 22 1
25 21 25 1
26 22 23 2
27 23 24 1
28 24 25 2
29 5 26 1
30 6 27 1
31 10 28 1
32 10 29 1
33 11 30 1
34 11 31 1
35 13 32 1
36 13 33 1
37 14 34 1
38 14 35 1
39 19 36 1
40 20 37 1
41 23 38 1
42 24 39 1
43 25 40 1
@<TRIPOS>SUBSTRUCTURE
1	UNK0	1	GROUP	1 ****	UNK
