# created with PyMOL 2.3.2
@<TRIPOS>MOLECULE
1413
38 41 1                 
SMALL
USER_CHARGES
@<TRIPOS>ATOM
1	  Br	-1.349	3.324	-4.193	Br	1	UNK0	0.000	
2	   C	-1.001	2.654	-2.456	C.2	1	UNK0	0.000	
3	   C	-0.259	3.400	-1.605	C.2	1	UNK0	0.000	
4	   N	0.325	4.606	-1.748	N.pl3	1	UNK0	0.000	
5	   N	0.918	4.829	-0.579	N.2	1	UNK0	0.000	
6	   N	0.737	3.850	0.263	N.2	1	UNK0	0.000	
7	   C	-0.017	2.898	-0.346	C.2	1	UNK0	0.000	
8	   C	-0.520	1.660	0.040	C.2	1	UNK0	0.000	
9	   N	-1.257	0.915	-0.801	N.pl3	1	UNK0	0.000	
10	   C	-1.488	1.418	-2.033	C.2	1	UNK0	0.000	
11	   C	-1.804	-0.383	-0.442	C.3	1	UNK0	0.000	
12	   C	-0.925	-1.509	-0.743	C.2	1	UNK0	0.000	
13	   O	-0.987	-1.971	-1.923	O.2	1	UNK0	0.000	
14	   C	0.010	-2.148	0.178	C.2	1	UNK0	0.000	
15	   C	0.779	-3.184	-0.272	C.2	1	UNK0	0.000	
16	   C	1.661	-3.807	0.572	C.2	1	UNK0	0.000	
17	   C	1.809	-3.422	1.892	C.2	1	UNK0	0.000	
18	   C	1.010	-2.364	2.319	C.2	1	UNK0	0.000	
19	   C	0.129	-1.739	1.480	C.2	1	UNK0	0.000	
20	   C	2.690	-4.033	2.760	C.2	1	UNK0	0.000	
21	   C	3.449	-5.074	2.270	C.2	1	UNK0	0.000	
22	   C	3.310	-5.467	0.955	C.2	1	UNK0	0.000	
23	   C	2.430	-4.853	0.094	C.2	1	UNK0	0.000	
24	   C	0.364	5.508	-2.836	C.3	1	UNK0	0.000	
25	   H	-0.304	1.318	1.024	 H	1	UNK0	0.000	
26	   H	-2.078	0.837	-2.725	 H	1	UNK0	0.000	
27	   H	-2.051	-0.415	0.653	 H	1	UNK0	0.000	
28	   H	-2.760	-0.518	-0.981	 H	1	UNK0	0.000	
29	   H	0.725	-3.552	-1.304	 H	1	UNK0	0.000	
30	   H	1.131	-2.062	3.370	 H	1	UNK0	0.000	
31	   H	-0.485	-0.912	1.851	 H	1	UNK0	0.000	
32	   H	2.759	-3.686	3.782	 H	1	UNK0	0.000	
33	   H	4.154	-5.572	2.941	 H	1	UNK0	0.000	
34	   H	3.915	-6.287	0.587	 H	1	UNK0	0.000	
35	   H	2.327	-5.172	-0.948	 H	1	UNK0	0.000	
36	   H	1.155	6.265	-2.655	 H	1	UNK0	0.000	
37	   H	-0.596	6.106	-2.879	 H	1	UNK0	0.000	
38	   H	0.528	5.121	-3.829	 H	1	UNK0	0.000	
@<TRIPOS>BOND
1 1 2 1
2 2 3 2
3 2 10 1
4 3 4 1
5 3 7 1
6 4 5 1
7 4 24 1
8 5 6 2
9 6 7 1
10 7 8 2
11 8 9 1
12 9 10 2
13 9 11 1
14 11 12 1
15 12 13 2
16 12 14 1
17 14 15 2
18 14 19 1
19 15 16 1
20 16 17 2
21 16 23 1
22 17 18 1
23 17 20 1
24 18 19 2
25 20 21 2
26 21 22 1
27 22 23 2
28 8 25 1
29 10 26 1
30 11 27 1
31 11 28 1
32 15 29 1
33 18 30 1
34 19 31 1
35 20 32 1
36 21 33 1
37 22 34 1
38 23 35 1
39 24 36 1
40 24 37 1
41 24 38 1
@<TRIPOS>SUBSTRUCTURE
1	UNK0	1	GROUP	1 ****	UNK
