# created with PyMOL 2.3.2
@<TRIPOS>MOLECULE
1414
55 58 1                 
SMALL
USER_CHARGES
@<TRIPOS>ATOM
1	  Br	2.870	-4.781	1.764	Br	1	UNK0	0.000	
2	   C	2.378	-3.117	0.953	C.2	1	UNK0	0.000	
3	   C	1.117	-2.913	0.428	C.2	1	UNK0	0.000	
4	   C	0.768	-1.715	-0.154	C.2	1	UNK0	0.000	
5	   C	1.737	-0.734	-0.188	C.2	1	UNK0	0.000	
6	   C	2.999	-0.932	0.335	C.2	1	UNK0	0.000	
7	   C	3.344	-2.133	0.917	C.2	1	UNK0	0.000	
8	   C	4.710	-2.336	1.479	C.3	1	UNK0	0.000	
9	   O	1.360	0.469	-0.782	O.3	1	UNK0	0.000	
10	   C	0.237	0.624	-1.583	C.3	1	UNK0	0.000	
11	   C	-0.929	-0.237	-1.232	C.3	1	UNK0	0.000	
12	   C	-0.591	-1.580	-0.688	C.3	1	UNK0	0.000	
13	   O	-1.476	-1.938	0.358	O.3	1	UNK0	0.000	
14	   N	-1.642	-0.462	-2.494	N.4	1	UNK0	0.000	
15	   C	-1.915	0.737	-3.209	C.3	1	UNK0	0.000	
16	   C	-2.305	0.308	-4.632	C.3	1	UNK0	0.000	
17	   O	-3.480	-0.414	-4.511	O.3	1	UNK0	0.000	
18	   C	-3.346	-1.556	-3.730	C.3	1	UNK0	0.000	
19	   C	-2.856	-1.199	-2.319	C.3	1	UNK0	0.000	
20	   C	-1.909	0.454	-0.306	C.3	1	UNK0	0.000	
21	   N	-1.341	0.853	0.945	N.4	1	UNK0	0.000	
22	   C	-0.894	2.234	0.944	C.3	1	UNK0	0.000	
23	   C	-1.309	2.963	2.213	C.3	1	UNK0	0.000	
24	   O	-2.685	3.053	2.343	O.3	1	UNK0	0.000	
25	   C	-3.317	1.923	1.833	C.3	1	UNK0	0.000	
26	   C	-2.355	0.766	2.009	C.3	1	UNK0	0.000	
27	   H	0.383	-3.724	0.479	 H	1	UNK0	0.000	
28	   H	3.741	-0.147	0.297	 H	1	UNK0	0.000	
29	   H	5.427	-2.617	0.676	 H	1	UNK0	0.000	
30	   H	5.096	-1.424	1.962	 H	1	UNK0	0.000	
31	   H	4.670	-3.193	2.184	 H	1	UNK0	0.000	
32	   H	-0.052	1.699	-1.568	 H	1	UNK0	0.000	
33	   H	0.567	0.439	-2.649	 H	1	UNK0	0.000	
34	   H	-0.734	-2.403	-1.449	 H	1	UNK0	0.000	
35	   H	-1.009	-2.074	1.208	 H	1	UNK0	0.000	
36	   H	-0.998	-1.048	-3.072	 H	1	UNK0	0.000	
37	   H	-1.086	1.433	-3.315	 H	1	UNK0	0.000	
38	   H	-2.845	1.232	-2.807	 H	1	UNK0	0.000	
39	   H	-2.499	1.211	-5.207	 H	1	UNK0	0.000	
40	   H	-1.459	-0.298	-5.001	 H	1	UNK0	0.000	
41	   H	-4.322	-2.060	-3.706	 H	1	UNK0	0.000	
42	   H	-2.535	-2.162	-4.185	 H	1	UNK0	0.000	
43	   H	-3.681	-0.609	-1.872	 H	1	UNK0	0.000	
44	   H	-2.731	-2.158	-1.782	 H	1	UNK0	0.000	
45	   H	-2.400	1.325	-0.767	 H	1	UNK0	0.000	
46	   H	-2.732	-0.289	-0.097	 H	1	UNK0	0.000	
47	   H	-0.549	0.281	1.275	 H	1	UNK0	0.000	
48	   H	-1.401	2.765	0.108	 H	1	UNK0	0.000	
49	   H	0.210	2.327	0.887	 H	1	UNK0	0.000	
50	   H	-0.797	2.584	3.109	 H	1	UNK0	0.000	
51	   H	-0.941	4.017	2.077	 H	1	UNK0	0.000	
52	   H	-3.519	2.125	0.759	 H	1	UNK0	0.000	
53	   H	-4.246	1.772	2.407	 H	1	UNK0	0.000	
54	   H	-1.841	0.836	2.990	 H	1	UNK0	0.000	
55	   H	-2.869	-0.218	1.989	 H	1	UNK0	0.000	
@<TRIPOS>BOND
1 1 2 1
2 2 3 2
3 2 7 1
4 3 4 1
5 4 5 2
6 4 12 1
7 5 6 1
8 5 9 1
9 6 7 2
10 7 8 1
11 9 10 1
12 10 11 1
13 11 12 1
14 11 14 1
15 11 20 1
16 12 13 1
17 14 15 1
18 14 19 1
19 15 16 1
20 16 17 1
21 17 18 1
22 18 19 1
23 20 21 1
24 21 22 1
25 21 26 1
26 22 23 1
27 23 24 1
28 24 25 1
29 25 26 1
30 3 27 1
31 6 28 1
32 8 29 1
33 8 30 1
34 8 31 1
35 10 32 1
36 10 33 1
37 12 34 1
38 13 35 1
39 14 36 1
40 15 37 1
41 15 38 1
42 16 39 1
43 16 40 1
44 18 41 1
45 18 42 1
46 19 43 1
47 19 44 1
48 20 45 1
49 20 46 1
50 21 47 1
51 22 48 1
52 22 49 1
53 23 50 1
54 23 51 1
55 25 52 1
56 25 53 1
57 26 54 1
58 26 55 1
@<TRIPOS>SUBSTRUCTURE
1	UNK0	1	GROUP	1 ****	UNK
