# created with PyMOL 2.3.2
@<TRIPOS>MOLECULE
1416
29 32 1                 
SMALL
USER_CHARGES
@<TRIPOS>ATOM
1	   F	-1.174	1.539	-2.188	 F	1	UNK0	0.000	
2	   C	-0.694	0.314	-2.441	C.2	1	UNK0	0.000	
3	   C	0.286	-0.195	-1.614	C.2	1	UNK0	0.000	
4	   C	0.716	-1.466	-1.946	C.2	1	UNK0	0.000	
5	   C	0.187	-2.168	-3.042	C.2	1	UNK0	0.000	
6	   C	-0.789	-1.626	-3.840	C.2	1	UNK0	0.000	
7	   C	-1.228	-0.362	-3.523	C.2	1	UNK0	0.000	
8	  Cl	-1.459	-2.498	-5.215	Cl	1	UNK0	0.000	
9	   N	0.812	0.503	-0.497	N.pl3	1	UNK0	0.000	
10	   C	1.669	-0.066	0.521	C.2	1	UNK0	0.000	
11	   O	2.455	-1.029	0.450	O.2	1	UNK0	0.000	
12	   C	1.452	0.733	1.758	C.3	1	UNK0	0.000	
13	   C	0.551	-0.120	2.643	C.3	1	UNK0	0.000	
14	   O	-0.565	-0.195	1.768	O.3	1	UNK0	0.000	
15	   C	-0.838	1.200	1.764	C.3	1	UNK0	0.000	
16	   C	0.468	1.837	1.361	C.3	1	UNK0	0.000	
17	   C	0.597	1.869	-0.139	C.2	1	UNK0	0.000	
18	   O	0.535	2.832	-0.907	O.2	1	UNK0	0.000	
19	   C	-1.015	1.401	3.232	C.2	1	UNK0	0.000	
20	   C	-0.036	0.631	3.766	C.2	1	UNK0	0.000	
21	   H	1.488	-1.940	-1.344	 H	1	UNK0	0.000	
22	   H	0.549	-3.158	-3.267	 H	1	UNK0	0.000	
23	   H	-1.996	0.061	-4.153	 H	1	UNK0	0.000	
24	   H	2.348	1.098	2.243	 H	1	UNK0	0.000	
25	   H	0.968	-1.090	2.866	 H	1	UNK0	0.000	
26	   H	-1.687	1.463	1.165	 H	1	UNK0	0.000	
27	   H	0.671	2.792	1.827	 H	1	UNK0	0.000	
28	   H	-1.730	2.001	3.768	 H	1	UNK0	0.000	
29	   H	0.191	0.642	4.828	 H	1	UNK0	0.000	
@<TRIPOS>BOND
1 1 2 1
2 2 3 2
3 2 7 1
4 3 4 1
5 3 9 1
6 4 5 2
7 5 6 1
8 6 7 2
9 6 8 1
10 9 10 1
11 9 17 1
12 10 11 2
13 10 12 1
14 12 13 1
15 12 16 1
16 13 14 1
17 13 20 1
18 14 15 1
19 15 16 1
20 15 19 1
21 16 17 1
22 17 18 2
23 19 20 2
24 4 21 1
25 5 22 1
26 7 23 1
27 12 24 1
28 13 25 1
29 15 26 1
30 16 27 1
31 19 28 1
32 20 29 1
@<TRIPOS>SUBSTRUCTURE
1	UNK0	1	GROUP	1 ****	UNK
