# created with PyMOL 2.3.2
@<TRIPOS>MOLECULE
1417
60 63 1                 
SMALL
USER_CHARGES
@<TRIPOS>ATOM
1	  Br	5.231	-2.919	-4.599	Br	1	UNK0	0.000	
2	   C	4.047	-2.243	-3.246	C.2	1	UNK0	0.000	
3	   C	2.723	-1.984	-3.519	C.2	1	UNK0	0.000	
4	   C	1.875	-1.497	-2.542	C.2	1	UNK0	0.000	
5	   C	2.309	-1.250	-1.262	C.2	1	UNK0	0.000	
6	   C	3.634	-1.511	-0.990	C.2	1	UNK0	0.000	
7	   C	4.505	-2.001	-1.957	C.2	1	UNK0	0.000	
8	   C	1.397	-0.730	-0.233	C.3	1	UNK0	0.000	
9	   N	0.117	-1.374	-0.169	N.pl3	1	UNK0	0.000	
10	   C	-0.752	-0.646	-1.040	C.2	1	UNK0	0.000	
11	   O	-1.851	-1.084	-1.508	O.2	1	UNK0	0.000	
12	   C	-0.177	0.668	-1.299	C.2	1	UNK0	0.000	
13	   O	-0.629	1.596	-2.013	O.2	1	UNK0	0.000	
14	   C	1.072	0.715	-0.553	C.2	1	UNK0	0.000	
15	   C	1.818	1.763	-0.234	C.2	1	UNK0	0.000	
16	   O	3.026	1.606	0.454	O.2	1	UNK0	0.000	
17	   C	1.380	3.103	-0.595	C.2	1	UNK0	0.000	
18	   C	0.121	3.596	-0.300	C.2	1	UNK0	0.000	
19	   C	-0.268	4.871	-0.692	C.2	1	UNK0	0.000	
20	   C	0.583	5.707	-1.395	C.2	1	UNK0	0.000	
21	   C	1.840	5.221	-1.691	C.2	1	UNK0	0.000	
22	   C	2.217	3.964	-1.302	C.2	1	UNK0	0.000	
23	   O	0.171	6.978	-1.777	O.3	1	UNK0	0.000	
24	   C	1.089	7.777	-2.494	C.3	1	UNK0	0.000	
25	   C	-0.276	-2.535	0.603	C.3	1	UNK0	0.000	
26	   C	-0.796	-2.149	1.961	C.3	1	UNK0	0.000	
27	   C	-2.002	-1.254	1.771	C.3	1	UNK0	0.000	
28	   N	-2.561	-0.844	3.047	N.4	1	UNK0	0.000	
29	   C	-3.470	0.272	2.885	C.3	1	UNK0	0.000	
30	   C	-4.727	-0.157	2.189	C.3	1	UNK0	0.000	
31	   O	-5.331	-1.243	2.769	O.3	1	UNK0	0.000	
32	   C	-4.698	-1.744	3.880	C.3	1	UNK0	0.000	
33	   C	-3.228	-1.955	3.705	C.3	1	UNK0	0.000	
34	   H	2.366	-2.171	-4.516	 H	1	UNK0	0.000	
35	   H	0.843	-1.301	-2.780	 H	1	UNK0	0.000	
36	   H	4.066	-1.346	-0.003	 H	1	UNK0	0.000	
37	   H	5.547	-2.209	-1.759	 H	1	UNK0	0.000	
38	   H	1.915	-0.718	0.762	 H	1	UNK0	0.000	
39	   H	-0.560	2.969	0.264	 H	1	UNK0	0.000	
40	   H	-1.246	5.238	-0.455	 H	1	UNK0	0.000	
41	   H	2.514	5.878	-2.245	 H	1	UNK0	0.000	
42	   H	3.200	3.595	-1.539	 H	1	UNK0	0.000	
43	   H	0.593	8.736	-2.826	 H	1	UNK0	0.000	
44	   H	1.354	7.202	-3.430	 H	1	UNK0	0.000	
45	   H	2.029	7.971	-1.974	 H	1	UNK0	0.000	
46	   H	0.582	-3.247	0.668	 H	1	UNK0	0.000	
47	   H	-1.049	-3.069	0.008	 H	1	UNK0	0.000	
48	   H	-0.003	-1.552	2.471	 H	1	UNK0	0.000	
49	   H	-1.035	-3.033	2.573	 H	1	UNK0	0.000	
50	   H	-1.631	-0.321	1.262	 H	1	UNK0	0.000	
51	   H	-2.750	-1.675	1.084	 H	1	UNK0	0.000	
52	   H	-1.749	-0.485	3.619	 H	1	UNK0	0.000	
53	   H	-2.951	1.024	2.252	 H	1	UNK0	0.000	
54	   H	-3.675	0.670	3.908	 H	1	UNK0	0.000	
55	   H	-5.412	0.740	2.155	 H	1	UNK0	0.000	
56	   H	-4.468	-0.414	1.135	 H	1	UNK0	0.000	
57	   H	-4.836	-1.106	4.799	 H	1	UNK0	0.000	
58	   H	-5.153	-2.733	4.107	 H	1	UNK0	0.000	
59	   H	-2.785	-2.042	4.733	 H	1	UNK0	0.000	
60	   H	-2.993	-2.872	3.124	 H	1	UNK0	0.000	
@<TRIPOS>BOND
1 1 2 1
2 2 3 2
3 2 7 1
4 3 4 1
5 4 5 2
6 5 6 1
7 5 8 1
8 6 7 2
9 8 9 1
10 8 14 1
11 9 10 1
12 9 25 1
13 10 11 2
14 10 12 1
15 12 13 2
16 12 14 1
17 14 15 2
18 15 16 1
19 15 17 1
20 17 18 2
21 17 22 1
22 18 19 1
23 19 20 2
24 20 21 1
25 20 23 1
26 21 22 2
27 23 24 1
28 25 26 1
29 26 27 1
30 27 28 1
31 28 29 1
32 28 33 1
33 29 30 1
34 30 31 1
35 31 32 1
36 32 33 1
37 3 34 1
38 4 35 1
39 6 36 1
40 7 37 1
41 8 38 1
42 18 39 1
43 19 40 1
44 21 41 1
45 22 42 1
46 24 43 1
47 24 44 1
48 24 45 1
49 25 46 1
50 25 47 1
51 26 48 1
52 26 49 1
53 27 50 1
54 27 51 1
55 28 52 1
56 29 53 1
57 29 54 1
58 30 55 1
59 30 56 1
60 32 57 1
61 32 58 1
62 33 59 1
63 33 60 1
@<TRIPOS>SUBSTRUCTURE
1	UNK0	1	GROUP	1 ****	UNK
