# created with PyMOL 2.3.2
@<TRIPOS>MOLECULE
1418
57 60 1                 
SMALL
USER_CHARGES
@<TRIPOS>ATOM
1	  Br	2.082	5.262	4.959	Br	1	UNK0	0.000	
2	   C	1.947	3.938	3.573	C.2	1	UNK0	0.000	
3	   C	2.866	2.908	3.488	C.2	1	UNK0	0.000	
4	   C	2.755	1.955	2.477	C.2	1	UNK0	0.000	
5	   C	1.750	1.994	1.540	C.2	1	UNK0	0.000	
6	   C	0.845	3.028	1.643	C.2	1	UNK0	0.000	
7	   C	0.945	3.974	2.636	C.2	1	UNK0	0.000	
8	   C	1.658	0.980	0.466	C.3	1	UNK0	0.000	
9	   N	2.065	-0.347	0.964	N.pl3	1	UNK0	0.000	
10	   C	0.971	-0.776	1.767	C.2	1	UNK0	0.000	
11	   O	1.067	-1.610	2.713	O.2	1	UNK0	0.000	
12	   C	-0.240	-0.101	1.312	C.2	1	UNK0	0.000	
13	   O	-1.392	-0.233	1.774	O.2	1	UNK0	0.000	
14	   C	0.189	0.744	0.213	C.2	1	UNK0	0.000	
15	   C	-0.518	1.178	-0.799	C.2	1	UNK0	0.000	
16	   O	0.062	1.943	-1.801	O.2	1	UNK0	0.000	
17	   C	-1.934	0.888	-0.922	C.2	1	UNK0	0.000	
18	   N	-2.996	1.286	-0.192	N.pl3	1	UNK0	0.000	
19	   C	-4.127	0.734	-0.655	C.2	1	UNK0	0.000	
20	   N	-3.765	-0.033	-1.706	N.2	1	UNK0	0.000	
21	   C	-2.463	0.026	-1.907	C.2	1	UNK0	0.000	
22	   C	-1.626	-0.651	-2.949	C.3	1	UNK0	0.000	
23	   C	-5.381	0.987	-0.098	C.2	1	UNK0	0.000	
24	   C	-5.497	1.839	0.976	C.2	1	UNK0	0.000	
25	   C	-4.327	2.398	1.436	C.2	1	UNK0	0.000	
26	   C	-3.105	2.129	0.867	C.2	1	UNK0	0.000	
27	   C	3.309	-1.017	0.690	C.3	1	UNK0	0.000	
28	   C	3.422	-1.878	-0.506	C.3	1	UNK0	0.000	
29	   C	2.556	-3.064	-0.666	C.3	1	UNK0	0.000	
30	   N	1.145	-2.856	-0.790	N.4	1	UNK0	0.000	
31	   C	0.739	-3.460	-2.091	C.3	1	UNK0	0.000	
32	   C	0.441	-3.645	0.200	C.3	1	UNK0	0.000	
33	   H	3.675	2.860	4.227	 H	1	UNK0	0.000	
34	   H	3.483	1.163	2.435	 H	1	UNK0	0.000	
35	   H	0.059	3.072	0.904	 H	1	UNK0	0.000	
36	   H	0.222	4.762	2.681	 H	1	UNK0	0.000	
37	   H	2.187	1.258	-0.448	 H	1	UNK0	0.000	
38	   H	-0.657	-0.966	-2.546	 H	1	UNK0	0.000	
39	   H	-1.481	0.040	-3.832	 H	1	UNK0	0.000	
40	   H	-2.157	-1.545	-3.335	 H	1	UNK0	0.000	
41	   H	-6.272	0.522	-0.498	 H	1	UNK0	0.000	
42	   H	-6.464	2.051	1.426	 H	1	UNK0	0.000	
43	   H	-4.421	3.075	2.288	 H	1	UNK0	0.000	
44	   H	-2.198	2.568	1.234	 H	1	UNK0	0.000	
45	   H	3.664	-1.586	1.599	 H	1	UNK0	0.000	
46	   H	4.076	-0.179	0.558	 H	1	UNK0	0.000	
47	   H	4.502	-2.115	-0.749	 H	1	UNK0	0.000	
48	   H	3.145	-1.187	-1.388	 H	1	UNK0	0.000	
49	   H	2.762	-3.840	0.136	 H	1	UNK0	0.000	
50	   H	2.898	-3.618	-1.599	 H	1	UNK0	0.000	
51	   H	0.816	-1.891	-0.768	 H	1	UNK0	0.000	
52	   H	-0.342	-3.347	-2.246	 H	1	UNK0	0.000	
53	   H	1.326	-2.993	-2.907	 H	1	UNK0	0.000	
54	   H	0.951	-4.542	-1.967	 H	1	UNK0	0.000	
55	   H	1.074	-3.836	1.097	 H	1	UNK0	0.000	
56	   H	-0.425	-3.050	0.552	 H	1	UNK0	0.000	
57	   H	0.022	-4.583	-0.208	 H	1	UNK0	0.000	
@<TRIPOS>BOND
1 1 2 1
2 2 3 2
3 2 7 1
4 3 4 1
5 4 5 2
6 5 6 1
7 5 8 1
8 6 7 2
9 8 9 1
10 8 14 1
11 9 10 1
12 9 27 1
13 10 11 2
14 10 12 1
15 12 13 2
16 12 14 1
17 14 15 2
18 15 16 1
19 15 17 1
20 17 18 1
21 17 21 2
22 18 19 1
23 18 26 1
24 19 20 2
25 19 23 1
26 20 21 1
27 21 22 1
28 23 24 2
29 24 25 1
30 25 26 2
31 27 28 1
32 28 29 1
33 29 30 1
34 30 31 1
35 30 32 1
36 3 33 1
37 4 34 1
38 6 35 1
39 7 36 1
40 8 37 1
41 22 38 1
42 22 39 1
43 22 40 1
44 23 41 1
45 24 42 1
46 25 43 1
47 26 44 1
48 27 45 1
49 27 46 1
50 28 47 1
51 28 48 1
52 29 49 1
53 29 50 1
54 30 51 1
55 31 52 1
56 31 53 1
57 31 54 1
58 32 55 1
59 32 56 1
60 32 57 1
@<TRIPOS>SUBSTRUCTURE
1	UNK0	1	GROUP	1 ****	UNK
