# created with PyMOL 2.3.2
@<TRIPOS>MOLECULE
1420
52 56 1                 
SMALL
USER_CHARGES
@<TRIPOS>ATOM
1	  Br	-0.122	-6.187	3.902	Br	1	UNK0	0.000	
2	   C	0.267	-4.421	3.308	C.2	1	UNK0	0.000	
3	   C	-0.775	-3.528	3.160	C.2	1	UNK0	0.000	
4	   C	-0.515	-2.257	2.731	C.2	1	UNK0	0.000	
5	   C	0.763	-1.806	2.430	C.2	1	UNK0	0.000	
6	   C	1.787	-2.695	2.580	C.2	1	UNK0	0.000	
7	   C	1.530	-3.968	3.008	C.2	1	UNK0	0.000	
8	   C	0.923	-0.450	2.013	C.3	1	UNK0	0.000	
9	   N	1.600	-0.005	0.865	N.4	1	UNK0	0.000	
10	   C	1.348	1.386	0.935	C.2	1	UNK0	0.000	
11	   C	2.227	2.356	0.757	C.2	1	UNK0	0.000	
12	   C	1.895	3.824	0.846	C.3	1	UNK0	0.000	
13	   C	0.835	4.193	-0.128	C.3	1	UNK0	0.000	
14	   C	-0.464	3.533	-0.078	C.3	1	UNK0	0.000	
15	   C	-0.821	2.708	1.119	C.3	1	UNK0	0.000	
16	   N	-0.031	1.511	1.273	N.pl3	1	UNK0	0.000	
17	   C	-0.454	0.220	1.802	C.3	1	UNK0	0.000	
18	   C	1.291	-0.518	-0.387	C.2	1	UNK0	0.000	
19	   C	0.563	-1.660	-0.673	C.2	1	UNK0	0.000	
20	   C	0.213	-2.045	-1.965	C.2	1	UNK0	0.000	
21	   C	0.599	-1.263	-3.019	C.2	1	UNK0	0.000	
22	   C	1.343	-0.087	-2.792	C.2	1	UNK0	0.000	
23	   C	1.672	0.261	-1.507	C.2	1	UNK0	0.000	
24	   O	0.256	-1.624	-4.313	O.3	1	UNK0	0.000	
25	   C	-0.627	-2.703	-4.494	C.3	1	UNK0	0.000	
26	   C	-0.224	-3.812	-3.493	C.3	1	UNK0	0.000	
27	   O	-0.516	-3.209	-2.203	O.3	1	UNK0	0.000	
28	   O	1.515	0.262	3.104	O.3	1	UNK0	0.000	
29	   H	-1.798	-3.860	3.390	 H	1	UNK0	0.000	
30	   H	-1.398	-1.597	2.647	 H	1	UNK0	0.000	
31	   H	2.810	-2.417	2.361	 H	1	UNK0	0.000	
32	   H	2.338	-4.715	3.141	 H	1	UNK0	0.000	
33	   H	2.680	-0.136	1.001	 H	1	UNK0	0.000	
34	   H	3.214	2.062	0.553	 H	1	UNK0	0.000	
35	   H	1.523	4.070	1.878	 H	1	UNK0	0.000	
36	   H	2.796	4.418	0.635	 H	1	UNK0	0.000	
37	   H	0.725	5.319	-0.066	 H	1	UNK0	0.000	
38	   H	1.297	4.068	-1.156	 H	1	UNK0	0.000	
39	   H	-1.297	4.270	-0.218	 H	1	UNK0	0.000	
40	   H	-0.568	2.838	-0.964	 H	1	UNK0	0.000	
41	   H	-0.779	3.323	2.065	 H	1	UNK0	0.000	
42	   H	-1.868	2.382	1.005	 H	1	UNK0	0.000	
43	   H	-1.061	-0.355	1.095	 H	1	UNK0	0.000	
44	   H	-0.853	0.370	2.800	 H	1	UNK0	0.000	
45	   H	0.256	-2.294	0.122	 H	1	UNK0	0.000	
46	   H	1.641	0.504	-3.623	 H	1	UNK0	0.000	
47	   H	2.240	1.176	-1.393	 H	1	UNK0	0.000	
48	   H	-0.534	-3.066	-5.528	 H	1	UNK0	0.000	
49	   H	-1.694	-2.470	-4.212	 H	1	UNK0	0.000	
50	   H	0.868	-3.956	-3.577	 H	1	UNK0	0.000	
51	   H	-0.800	-4.714	-3.688	 H	1	UNK0	0.000	
52	   H	1.924	-0.385	3.717	 H	1	UNK0	0.000	
@<TRIPOS>BOND
1 1 2 1
2 2 3 2
3 2 7 1
4 3 4 1
5 4 5 2
6 5 6 1
7 5 8 1
8 6 7 2
9 8 9 1
10 8 17 1
11 8 28 1
12 9 10 1
13 9 18 1
14 10 11 2
15 10 16 1
16 11 12 1
17 12 13 1
18 13 14 1
19 14 15 1
20 15 16 1
21 16 17 1
22 18 19 2
23 18 23 1
24 19 20 1
25 20 21 2
26 20 27 1
27 21 22 1
28 21 24 1
29 22 23 2
30 24 25 1
31 25 26 1
32 26 27 1
33 3 29 1
34 4 30 1
35 6 31 1
36 7 32 1
37 9 33 1
38 11 34 1
39 12 35 1
40 12 36 1
41 13 37 1
42 13 38 1
43 14 39 1
44 14 40 1
45 15 41 1
46 15 42 1
47 17 43 1
48 17 44 1
49 19 45 1
50 22 46 1
51 23 47 1
52 25 48 1
53 25 49 1
54 26 50 1
55 26 51 1
56 28 52 1
@<TRIPOS>SUBSTRUCTURE
1	UNK0	1	GROUP	1 ****	UNK
