# created with PyMOL 2.3.2
@<TRIPOS>MOLECULE
1421
47 50 1                 
SMALL
USER_CHARGES
@<TRIPOS>ATOM
1	  Cl	-3.845	-4.554	3.759	Cl	1	UNK0	0.000	
2	   C	-3.147	-3.494	2.516	C.2	1	UNK0	0.000	
3	   C	-2.356	-4.081	1.554	C.2	1	UNK0	0.000	
4	   C	-1.840	-3.187	0.595	C.2	1	UNK0	0.000	
5	   C	-2.107	-1.848	0.634	C.2	1	UNK0	0.000	
6	   C	-2.888	-1.284	1.601	C.2	1	UNK0	0.000	
7	   C	-3.405	-2.140	2.541	C.2	1	UNK0	0.000	
8	   C	-3.035	0.214	1.740	C.2	1	UNK0	0.000	
9	   O	-3.853	0.502	2.634	O.2	1	UNK0	0.000	
10	   N	-2.313	1.000	0.939	N.pl3	1	UNK0	0.000	
11	   C	-1.578	1.802	0.123	C.2	1	UNK0	0.000	
12	   C	-2.069	2.811	-0.710	C.2	1	UNK0	0.000	
13	   N	-1.276	3.542	-1.479	N.2	1	UNK0	0.000	
14	   C	0.060	3.386	-1.528	C.2	1	UNK0	0.000	
15	   C	0.601	2.401	-0.720	C.2	1	UNK0	0.000	
16	   C	-0.175	1.636	0.076	C.2	1	UNK0	0.000	
17	   N	0.870	4.187	-2.374	N.pl3	1	UNK0	0.000	
18	   C	0.335	5.412	-2.884	C.3	1	UNK0	0.000	
19	   C	1.295	6.551	-2.776	C.3	1	UNK0	0.000	
20	   N	2.641	6.140	-3.042	N.pl3	1	UNK0	0.000	
21	   C	2.991	4.810	-3.347	C.2	1	UNK0	0.000	
22	   O	3.933	4.530	-4.102	O.2	1	UNK0	0.000	
23	   C	2.188	3.733	-2.727	C.3	1	UNK0	0.000	
24	   O	-1.548	-1.046	-0.376	O.3	1	UNK0	0.000	
25	   C	-0.740	-1.609	-1.390	C.3	1	UNK0	0.000	
26	   N	-1.975	-5.437	1.531	N.pl3	1	UNK0	0.000	
27	   N	-2.313	-6.387	2.358	N.2	1	UNK0	0.000	
28	   N	-1.700	-7.514	2.022	N.2	1	UNK0	0.000	
29	   N	-0.967	-7.299	0.978	N.2	1	UNK0	0.000	
30	   C	-1.116	-5.989	0.635	C.2	1	UNK0	0.000	
31	   H	-1.227	-3.593	-0.175	 H	1	UNK0	0.000	
32	   H	-4.015	-1.706	3.303	 H	1	UNK0	0.000	
33	   H	-2.742	2.141	1.588	 H	1	UNK0	0.000	
34	   H	-3.165	2.935	-0.666	 H	1	UNK0	0.000	
35	   H	1.694	2.275	-0.754	 H	1	UNK0	0.000	
36	   H	0.234	0.863	0.711	 H	1	UNK0	0.000	
37	   H	-0.645	5.663	-2.381	 H	1	UNK0	0.000	
38	   H	0.143	5.282	-3.993	 H	1	UNK0	0.000	
39	   H	0.969	7.346	-3.518	 H	1	UNK0	0.000	
40	   H	1.296	7.076	-1.812	 H	1	UNK0	0.000	
41	   H	3.417	6.885	-3.010	 H	1	UNK0	0.000	
42	   H	2.133	2.838	-3.410	 H	1	UNK0	0.000	
43	   H	2.787	3.382	-1.862	 H	1	UNK0	0.000	
44	   H	-1.101	-2.535	-1.821	 H	1	UNK0	0.000	
45	   H	0.296	-1.578	-1.042	 H	1	UNK0	0.000	
46	   H	-0.770	-0.862	-2.247	 H	1	UNK0	0.000	
47	   H	-0.664	-5.458	-0.174	 H	1	UNK0	0.000	
@<TRIPOS>BOND
1 1 2 1
2 2 3 2
3 2 7 1
4 3 4 1
5 3 26 1
6 4 5 2
7 5 6 1
8 5 24 1
9 6 7 2
10 6 8 1
11 8 9 2
12 8 10 1
13 10 11 1
14 11 12 2
15 11 16 1
16 12 13 1
17 13 14 2
18 14 15 1
19 14 17 1
20 15 16 2
21 17 18 1
22 17 23 1
23 18 19 1
24 19 20 1
25 20 21 1
26 21 22 2
27 21 23 1
28 24 25 1
29 26 27 1
30 26 30 1
31 27 28 2
32 28 29 1
33 29 30 2
34 4 31 1
35 7 32 1
36 10 33 1
37 12 34 1
38 15 35 1
39 16 36 1
40 18 37 1
41 18 38 1
42 19 39 1
43 19 40 1
44 20 41 1
45 23 42 1
46 23 43 1
47 25 44 1
48 25 45 1
49 25 46 1
50 30 47 1
@<TRIPOS>SUBSTRUCTURE
1	UNK0	1	GROUP	1 ****	UNK
