# created with PyMOL 2.3.2
@<TRIPOS>MOLECULE
1426
56 59 1                 
SMALL
USER_CHARGES
@<TRIPOS>ATOM
1	  Cl	-7.971	-1.711	4.649	Cl	1	UNK0	0.000	
2	   C	-6.600	-1.317	3.598	C.2	1	UNK0	0.000	
3	   C	-5.475	-0.705	4.104	C.2	1	UNK0	0.000	
4	   C	-4.408	-0.403	3.278	C.2	1	UNK0	0.000	
5	   C	-4.412	-0.691	1.935	C.2	1	UNK0	0.000	
6	   C	-5.542	-1.303	1.441	C.2	1	UNK0	0.000	
7	   C	-6.623	-1.613	2.257	C.2	1	UNK0	0.000	
8	   N	-3.336	-0.402	1.034	N.pl3	1	UNK0	0.000	
9	   N	-3.184	0.677	0.282	N.2	1	UNK0	0.000	
10	   N	-2.075	0.599	-0.420	N.2	1	UNK0	0.000	
11	   C	-1.425	-0.554	-0.165	C.2	1	UNK0	0.000	
12	   C	-2.266	-1.167	0.772	C.2	1	UNK0	0.000	
13	   C	-2.015	-2.484	1.393	C.3	1	UNK0	0.000	
14	   C	-0.177	-1.089	-0.681	C.2	1	UNK0	0.000	
15	   O	0.156	-2.242	-0.227	O.2	1	UNK0	0.000	
16	   N	0.684	-0.475	-1.616	N.pl3	1	UNK0	0.000	
17	   C	0.387	0.822	-2.146	C.3	1	UNK0	0.000	
18	   C	1.316	1.895	-1.708	C.3	1	UNK0	0.000	
19	   C	2.533	1.903	-2.560	C.3	1	UNK0	0.000	
20	   C	3.096	0.658	-3.056	C.3	1	UNK0	0.000	
21	   C	3.097	-0.567	-2.247	C.3	1	UNK0	0.000	
22	   C	1.835	-1.273	-1.993	C.3	1	UNK0	0.000	
23	   O	2.556	0.358	-4.332	O.3	1	UNK0	0.000	
24	   O	2.395	2.785	-3.663	O.3	1	UNK0	0.000	
25	   N	1.591	2.128	-0.386	N.3	1	UNK0	0.000	
26	   C	0.444	2.548	0.376	C.3	1	UNK0	0.000	
27	   C	0.876	3.535	1.468	C.3	1	UNK0	0.000	
28	   O	2.102	3.132	1.997	O.3	1	UNK0	0.000	
29	   C	2.355	1.788	1.901	C.3	1	UNK0	0.000	
30	   C	2.429	1.361	0.427	C.3	1	UNK0	0.000	
31	   H	-5.448	-0.464	5.177	 H	1	UNK0	0.000	
32	   H	-3.565	0.068	3.711	 H	1	UNK0	0.000	
33	   H	-5.563	-1.539	0.374	 H	1	UNK0	0.000	
34	   H	-7.503	-2.089	1.876	 H	1	UNK0	0.000	
35	   H	-1.092	-2.530	1.991	 H	1	UNK0	0.000	
36	   H	-2.916	-2.861	1.907	 H	1	UNK0	0.000	
37	   H	-1.840	-3.200	0.540	 H	1	UNK0	0.000	
38	   H	-0.684	1.112	-2.116	 H	1	UNK0	0.000	
39	   H	0.563	0.726	-3.271	 H	1	UNK0	0.000	
40	   H	0.751	2.877	-2.055	 H	1	UNK0	0.000	
41	   H	3.341	2.422	-1.948	 H	1	UNK0	0.000	
42	   H	4.199	0.848	-3.313	 H	1	UNK0	0.000	
43	   H	3.756	-0.464	-1.330	 H	1	UNK0	0.000	
44	   H	3.732	-1.313	-2.850	 H	1	UNK0	0.000	
45	   H	2.011	-1.991	-1.152	 H	1	UNK0	0.000	
46	   H	1.512	-1.944	-2.843	 H	1	UNK0	0.000	
47	   H	2.371	1.219	-4.825	 H	1	UNK0	0.000	
48	   H	1.449	2.983	-3.822	 H	1	UNK0	0.000	
49	   H	0.021	1.683	0.972	 H	1	UNK0	0.000	
50	   H	-0.375	2.982	-0.184	 H	1	UNK0	0.000	
51	   H	0.127	3.456	2.274	 H	1	UNK0	0.000	
52	   H	0.865	4.569	1.104	 H	1	UNK0	0.000	
53	   H	3.344	1.575	2.342	 H	1	UNK0	0.000	
54	   H	1.609	1.168	2.442	 H	1	UNK0	0.000	
55	   H	3.484	1.513	0.124	 H	1	UNK0	0.000	
56	   H	2.271	0.254	0.389	 H	1	UNK0	0.000	
@<TRIPOS>BOND
1 1 2 1
2 2 3 2
3 2 7 1
4 3 4 1
5 4 5 2
6 5 6 1
7 5 8 1
8 6 7 2
9 8 9 1
10 8 12 1
11 9 10 2
12 10 11 1
13 11 12 2
14 11 14 1
15 12 13 1
16 14 15 2
17 14 16 1
18 16 17 1
19 16 22 1
20 17 18 1
21 18 19 1
22 18 25 1
23 19 20 1
24 19 24 1
25 20 21 1
26 20 23 1
27 21 22 1
28 25 26 1
29 25 30 1
30 26 27 1
31 27 28 1
32 28 29 1
33 29 30 1
34 3 31 1
35 4 32 1
36 6 33 1
37 7 34 1
38 13 35 1
39 13 36 1
40 13 37 1
41 17 38 1
42 17 39 1
43 18 40 1
44 19 41 1
45 20 42 1
46 21 43 1
47 21 44 1
48 22 45 1
49 22 46 1
50 23 47 1
51 24 48 1
52 26 49 1
53 26 50 1
54 27 51 1
55 27 52 1
56 29 53 1
57 29 54 1
58 30 55 1
59 30 56 1
@<TRIPOS>SUBSTRUCTURE
1	UNK0	1	GROUP	1 ****	UNK
