# created with PyMOL 2.3.2
@<TRIPOS>MOLECULE
1427
36 39 1                 
SMALL
USER_CHARGES
@<TRIPOS>ATOM
1	  Cl	-1.403	5.159	-7.100	Cl	1	UNK0	0.000	
2	   C	-0.570	4.114	-5.950	C.2	1	UNK0	0.000	
3	   C	-1.237	3.540	-4.890	C.2	1	UNK0	0.000	
4	   C	-0.566	2.711	-3.983	C.2	1	UNK0	0.000	
5	   C	0.781	2.447	-4.124	C.2	1	UNK0	0.000	
6	   C	1.443	3.024	-5.185	C.2	1	UNK0	0.000	
7	   C	0.782	3.842	-6.082	C.2	1	UNK0	0.000	
8	   N	1.481	1.607	-3.211	N.pl3	1	UNK0	0.000	
9	   N	2.603	0.935	-3.446	N.2	1	UNK0	0.000	
10	   N	2.972	0.257	-2.370	N.2	1	UNK0	0.000	
11	   C	2.069	0.495	-1.416	C.2	1	UNK0	0.000	
12	   N	1.168	1.323	-1.953	N.2	1	UNK0	0.000	
13	   C	2.047	-0.038	-0.029	C.2	1	UNK0	0.000	
14	   O	2.971	-0.791	0.294	O.2	1	UNK0	0.000	
15	   N	1.023	0.310	0.848	N.pl3	1	UNK0	0.000	
16	   C	0.840	-0.097	2.193	C.2	1	UNK0	0.000	
17	   C	-0.269	0.371	2.918	C.2	1	UNK0	0.000	
18	   C	-0.484	0.003	4.223	C.2	1	UNK0	0.000	
19	   C	0.365	-0.842	4.902	C.2	1	UNK0	0.000	
20	   C	1.452	-1.306	4.204	C.2	1	UNK0	0.000	
21	   C	1.683	-0.939	2.876	C.2	1	UNK0	0.000	
22	   N	0.116	-1.205	6.254	N.pl3	1	UNK0	0.000	
23	   N	-0.629	-0.550	7.136	N.2	1	UNK0	0.000	
24	   N	-0.628	-1.187	8.294	N.2	1	UNK0	0.000	
25	   N	0.117	-2.266	8.184	N.2	1	UNK0	0.000	
26	   C	0.579	-2.278	6.920	C.2	1	UNK0	0.000	
27	   H	-2.302	3.736	-4.761	 H	1	UNK0	0.000	
28	   H	-1.094	2.255	-3.142	 H	1	UNK0	0.000	
29	   H	2.507	2.795	-5.268	 H	1	UNK0	0.000	
30	   H	1.333	4.277	-6.902	 H	1	UNK0	0.000	
31	   H	0.276	0.968	0.463	 H	1	UNK0	0.000	
32	   H	-0.949	1.035	2.405	 H	1	UNK0	0.000	
33	   H	-1.353	0.371	4.785	 H	1	UNK0	0.000	
34	   H	2.136	-1.972	4.713	 H	1	UNK0	0.000	
35	   H	2.565	-1.339	2.370	 H	1	UNK0	0.000	
36	   H	1.225	-3.032	6.496	 H	1	UNK0	0.000	
@<TRIPOS>BOND
1 1 2 1
2 2 3 2
3 2 7 1
4 3 4 1
5 4 5 2
6 5 6 1
7 5 8 1
8 6 7 2
9 8 9 1
10 8 12 1
11 9 10 2
12 10 11 1
13 11 12 2
14 11 13 1
15 13 14 2
16 13 15 1
17 15 16 1
18 16 17 2
19 16 21 1
20 17 18 1
21 18 19 2
22 19 20 1
23 19 22 1
24 20 21 2
25 22 23 1
26 22 26 1
27 23 24 2
28 24 25 1
29 25 26 2
30 3 27 1
31 4 28 1
32 6 29 1
33 7 30 1
34 15 31 1
35 17 32 1
36 18 33 1
37 20 34 1
38 21 35 1
39 26 36 1
@<TRIPOS>SUBSTRUCTURE
1	UNK0	1	GROUP	1 ****	UNK
