# created with PyMOL 2.3.2
@<TRIPOS>MOLECULE
1429
49 52 1                 
SMALL
USER_CHARGES
@<TRIPOS>ATOM
1	  Cl	-0.453	-5.366	0.056	Cl	1	UNK0	0.000	
2	   C	-0.673	-4.191	-1.231	C.2	1	UNK0	0.000	
3	   C	-0.694	-2.858	-0.927	C.2	1	UNK0	0.000	
4	   C	-0.860	-1.840	-1.855	C.2	1	UNK0	0.000	
5	   C	-1.012	-2.270	-3.177	C.2	1	UNK0	0.000	
6	   C	-0.993	-3.614	-3.507	C.2	1	UNK0	0.000	
7	   C	-0.825	-4.574	-2.541	C.2	1	UNK0	0.000	
8	   N	-1.193	-1.137	-4.008	N.pl3	1	UNK0	0.000	
9	   C	-1.155	0.013	-3.186	C.2	1	UNK0	0.000	
10	   O	-1.306	1.211	-3.552	O.2	1	UNK0	0.000	
11	   C	-0.901	-0.384	-1.760	C.3	1	UNK0	0.000	
12	   N	-1.987	0.110	-0.947	N.3	1	UNK0	0.000	
13	   C	-1.663	1.450	-0.583	C.3	1	UNK0	0.000	
14	   C	-0.164	1.512	-0.471	C.3	1	UNK0	0.000	
15	   C	0.317	0.281	-1.220	C.3	1	UNK0	0.000	
16	   C	1.110	-0.481	-0.263	C.2	1	UNK0	0.000	
17	   O	1.827	-1.477	-0.524	O.2	1	UNK0	0.000	
18	   N	0.965	0.063	1.042	N.pl3	1	UNK0	0.000	
19	   C	0.348	1.357	0.898	C.2	1	UNK0	0.000	
20	   O	0.271	2.209	1.818	O.2	1	UNK0	0.000	
21	   C	1.345	-0.517	2.314	C.3	1	UNK0	0.000	
22	   C	0.641	-1.828	2.595	C.3	1	UNK0	0.000	
23	   C	2.857	-0.688	2.367	C.3	1	UNK0	0.000	
24	   C	0.981	0.416	3.451	C.3	1	UNK0	0.000	
25	   C	-2.251	1.857	0.754	C.3	1	UNK0	0.000	
26	   C	-3.720	1.771	0.763	C.2	1	UNK0	0.000	
27	   O	-4.273	0.670	0.940	O.2	1	UNK0	0.000	
28	   N	-4.501	2.926	0.573	N.pl3	1	UNK0	0.000	
29	   H	-0.582	-2.577	0.090	 H	1	UNK0	0.000	
30	   H	-1.110	-3.962	-4.534	 H	1	UNK0	0.000	
31	   H	-0.805	-5.639	-2.762	 H	1	UNK0	0.000	
32	   H	-1.331	-1.183	-5.053	 H	1	UNK0	0.000	
33	   H	-2.180	-0.474	-0.113	 H	1	UNK0	0.000	
34	   H	-2.017	2.201	-1.333	 H	1	UNK0	0.000	
35	   H	0.188	2.446	-0.959	 H	1	UNK0	0.000	
36	   H	0.922	0.604	-2.114	 H	1	UNK0	0.000	
37	   H	1.085	-2.686	2.098	 H	1	UNK0	0.000	
38	   H	-0.436	-1.673	2.305	 H	1	UNK0	0.000	
39	   H	0.657	-2.020	3.693	 H	1	UNK0	0.000	
40	   H	3.182	-1.645	1.910	 H	1	UNK0	0.000	
41	   H	3.152	-0.652	3.432	 H	1	UNK0	0.000	
42	   H	3.294	0.192	1.860	 H	1	UNK0	0.000	
43	   H	-0.094	0.639	3.508	 H	1	UNK0	0.000	
44	   H	1.227	-0.156	4.394	 H	1	UNK0	0.000	
45	   H	1.640	1.303	3.480	 H	1	UNK0	0.000	
46	   H	-1.969	2.916	0.924	 H	1	UNK0	0.000	
47	   H	-1.819	1.204	1.546	 H	1	UNK0	0.000	
48	   H	-4.424	3.767	1.185	 H	1	UNK0	0.000	
49	   H	-5.183	2.944	-0.211	 H	1	UNK0	0.000	
@<TRIPOS>BOND
1 1 2 1
2 2 3 2
3 2 7 1
4 3 4 1
5 4 5 2
6 4 11 1
7 5 6 1
8 5 8 1
9 6 7 2
10 8 9 1
11 9 10 2
12 9 11 1
13 11 12 1
14 11 15 1
15 12 13 1
16 13 14 1
17 13 25 1
18 14 15 1
19 14 19 1
20 15 16 1
21 16 17 2
22 16 18 1
23 18 19 1
24 18 21 1
25 19 20 2
26 21 22 1
27 21 23 1
28 21 24 1
29 25 26 1
30 26 27 2
31 26 28 1
32 3 29 1
33 6 30 1
34 7 31 1
35 8 32 1
36 12 33 1
37 13 34 1
38 14 35 1
39 15 36 1
40 22 37 1
41 22 38 1
42 22 39 1
43 23 40 1
44 23 41 1
45 23 42 1
46 24 43 1
47 24 44 1
48 24 45 1
49 25 46 1
50 25 47 1
51 28 48 1
52 28 49 1
@<TRIPOS>SUBSTRUCTURE
1	UNK0	1	GROUP	1 ****	UNK
