# created with PyMOL 2.3.2
@<TRIPOS>MOLECULE
1430
44 47 1                 
SMALL
USER_CHARGES
@<TRIPOS>ATOM
1	  Cl	-4.169	-4.689	-2.962	Cl	1	UNK0	0.000	
2	   C	-4.243	-3.006	-2.529	C.2	1	UNK0	0.000	
3	   C	-3.160	-2.446	-1.922	C.2	1	UNK0	0.000	
4	   C	-3.202	-1.101	-1.579	C.2	1	UNK0	0.000	
5	   C	-4.299	-0.336	-1.829	C.2	1	UNK0	0.000	
6	   C	-5.420	-0.891	-2.448	C.2	1	UNK0	0.000	
7	   C	-5.361	-2.231	-2.791	C.2	1	UNK0	0.000	
8	   O	-4.286	0.950	-1.480	O.3	1	UNK0	0.000	
9	   C	-3.210	1.512	-0.887	C.2	1	UNK0	0.000	
10	   O	-3.324	2.710	-0.609	O.co2	1	UNK0	0.000	
11	   C	-2.089	0.812	-0.610	C.2	1	UNK0	0.000	
12	   C	-2.108	-0.567	-0.983	C.2	1	UNK0	0.000	
13	   C	-0.800	1.276	-0.086	C.2	1	UNK0	0.000	
14	   C	-0.024	2.171	-0.755	C.2	1	UNK0	0.000	
15	   C	1.249	2.378	-0.331	C.2	1	UNK0	0.000	
16	   O	1.935	3.211	-0.966	O.co2	1	UNK0	0.000	
17	   O	1.793	1.767	0.686	O.3	1	UNK0	0.000	
18	   C	1.072	0.885	1.360	C.2	1	UNK0	0.000	
19	   C	-0.231	0.616	1.008	C.2	1	UNK0	0.000	
20	   C	-0.997	-0.296	1.713	C.2	1	UNK0	0.000	
21	   C	-0.415	-0.927	2.780	C.2	1	UNK0	0.000	
22	   C	0.894	-0.666	3.127	C.2	1	UNK0	0.000	
23	   C	1.676	0.219	2.453	C.2	1	UNK0	0.000	
24	   C	3.090	0.527	2.757	C.3	1	UNK0	0.000	
25	   N	3.925	-0.577	2.458	N.4	1	UNK0	0.000	
26	   C	3.354	-1.707	1.810	C.3	1	UNK0	0.000	
27	   C	4.939	-0.972	3.428	C.3	1	UNK0	0.000	
28	   O	1.453	-1.333	4.237	O.2	1	UNK0	0.000	
29	   H	-2.298	-3.040	-1.722	 H	1	UNK0	0.000	
30	   H	-6.266	-0.262	-2.652	 H	1	UNK0	0.000	
31	   H	-6.214	-2.655	-3.296	 H	1	UNK0	0.000	
32	   H	-1.228	-1.166	-0.763	 H	1	UNK0	0.000	
33	   H	-0.461	2.708	-1.616	 H	1	UNK0	0.000	
34	   H	-2.030	-0.478	1.423	 H	1	UNK0	0.000	
35	   H	-0.981	-1.616	3.344	 H	1	UNK0	0.000	
36	   H	3.480	1.480	2.402	 H	1	UNK0	0.000	
37	   H	3.108	0.635	3.899	 H	1	UNK0	0.000	
38	   H	4.586	-0.136	1.649	 H	1	UNK0	0.000	
39	   H	3.480	-1.608	0.679	 H	1	UNK0	0.000	
40	   H	2.298	-1.939	1.939	 H	1	UNK0	0.000	
41	   H	3.899	-2.650	2.114	 H	1	UNK0	0.000	
42	   H	4.596	-1.528	4.290	 H	1	UNK0	0.000	
43	   H	5.615	-0.116	3.694	 H	1	UNK0	0.000	
44	   H	5.634	-1.661	2.798	 H	1	UNK0	0.000	
@<TRIPOS>BOND
1 1 2 1
2 2 3 2
3 2 7 1
4 3 4 1
5 4 5 2
6 4 12 1
7 5 6 1
8 5 8 1
9 6 7 2
10 8 9 1
11 9 10 2
12 9 11 1
13 11 12 2
14 11 13 1
15 13 14 2
16 13 19 1
17 14 15 1
18 15 16 2
19 15 17 1
20 17 18 1
21 18 19 2
22 18 23 1
23 19 20 1
24 20 21 2
25 21 22 1
26 22 23 2
27 22 28 1
28 23 24 1
29 24 25 1
30 25 26 1
31 25 27 1
32 3 29 1
33 6 30 1
34 7 31 1
35 12 32 1
36 14 33 1
37 20 34 1
38 21 35 1
39 24 36 1
40 24 37 1
41 25 38 1
42 26 39 1
43 26 40 1
44 26 41 1
45 27 42 1
46 27 43 1
47 27 44 1
@<TRIPOS>SUBSTRUCTURE
1	UNK0	1	GROUP	1 ****	UNK
