# created with PyMOL 2.3.2
@<TRIPOS>MOLECULE
1431
58 61 1                 
SMALL
USER_CHARGES
@<TRIPOS>ATOM
1	  Cl	-3.803	2.786	-6.228	Cl	1	UNK0	0.000	
2	   C	-3.196	1.621	-5.054	C.2	1	UNK0	0.000	
3	   C	-3.983	1.246	-3.994	C.2	1	UNK0	0.000	
4	   C	-3.475	0.314	-3.068	C.2	1	UNK0	0.000	
5	   C	-2.226	-0.225	-3.193	C.2	1	UNK0	0.000	
6	   C	-1.469	0.186	-4.282	C.2	1	UNK0	0.000	
7	   C	-1.931	1.092	-5.205	C.2	1	UNK0	0.000	
8	   C	-1.672	-1.204	-2.241	C.3	1	UNK0	0.000	
9	   N	-1.013	-0.622	-1.091	N.pl3	1	UNK0	0.000	
10	   C	-1.539	-0.383	0.147	C.2	1	UNK0	0.000	
11	   C	-0.589	0.223	0.954	C.2	1	UNK0	0.000	
12	   N	0.508	0.349	0.207	N.2	1	UNK0	0.000	
13	   C	0.255	-0.153	-1.004	C.2	1	UNK0	0.000	
14	   C	1.246	-0.181	-2.095	C.3	1	UNK0	0.000	
15	   N	2.580	0.069	-1.671	N.3	1	UNK0	0.000	
16	   C	3.162	-0.784	-0.733	C.3	1	UNK0	0.000	
17	   C	3.662	-0.155	0.531	C.3	1	UNK0	0.000	
18	   N	3.725	1.266	0.510	N.3	1	UNK0	0.000	
19	   C	3.996	1.858	-0.768	C.3	1	UNK0	0.000	
20	   C	3.117	1.342	-1.878	C.3	1	UNK0	0.000	
21	   C	4.690	1.809	1.447	C.3	1	UNK0	0.000	
22	   C	4.287	1.603	2.887	C.3	1	UNK0	0.000	
23	   O	4.144	0.283	3.234	O.3	1	UNK0	0.000	
24	   N	-0.806	0.576	2.239	N.pl3	1	UNK0	0.000	
25	   C	-2.023	0.312	2.744	C.2	1	UNK0	0.000	
26	   O	-2.301	0.609	3.926	O.2	1	UNK0	0.000	
27	   N	-2.984	-0.281	1.996	N.pl3	1	UNK0	0.000	
28	   C	-2.765	-0.636	0.700	C.2	1	UNK0	0.000	
29	   O	-3.668	-1.181	0.045	O.2	1	UNK0	0.000	
30	   C	-4.302	-0.568	2.542	C.3	1	UNK0	0.000	
31	   C	0.201	1.212	3.065	C.3	1	UNK0	0.000	
32	   H	-4.996	1.643	-3.836	 H	1	UNK0	0.000	
33	   H	-4.114	0.031	-2.245	 H	1	UNK0	0.000	
34	   H	-0.486	-0.231	-4.408	 H	1	UNK0	0.000	
35	   H	-1.358	1.427	-6.061	 H	1	UNK0	0.000	
36	   H	-0.851	-1.762	-2.784	 H	1	UNK0	0.000	
37	   H	-2.458	-1.921	-1.905	 H	1	UNK0	0.000	
38	   H	0.973	0.675	-2.783	 H	1	UNK0	0.000	
39	   H	1.222	-1.093	-2.718	 H	1	UNK0	0.000	
40	   H	2.456	-1.625	-0.507	 H	1	UNK0	0.000	
41	   H	4.054	-1.296	-1.203	 H	1	UNK0	0.000	
42	   H	4.668	-0.546	0.831	 H	1	UNK0	0.000	
43	   H	2.976	-0.484	1.365	 H	1	UNK0	0.000	
44	   H	5.082	1.817	-1.043	 H	1	UNK0	0.000	
45	   H	3.770	2.959	-0.673	 H	1	UNK0	0.000	
46	   H	2.299	2.056	-2.123	 H	1	UNK0	0.000	
47	   H	3.767	1.313	-2.803	 H	1	UNK0	0.000	
48	   H	4.679	2.924	1.281	 H	1	UNK0	0.000	
49	   H	5.720	1.491	1.255	 H	1	UNK0	0.000	
50	   H	3.344	2.132	3.132	 H	1	UNK0	0.000	
51	   H	5.074	2.137	3.496	 H	1	UNK0	0.000	
52	   H	3.588	0.199	4.041	 H	1	UNK0	0.000	
53	   H	-4.421	-0.094	3.533	 H	1	UNK0	0.000	
54	   H	-4.317	-1.686	2.696	 H	1	UNK0	0.000	
55	   H	-5.110	-0.357	1.834	 H	1	UNK0	0.000	
56	   H	0.274	0.757	4.075	 H	1	UNK0	0.000	
57	   H	1.210	1.155	2.604	 H	1	UNK0	0.000	
58	   H	-0.040	2.311	3.124	 H	1	UNK0	0.000	
@<TRIPOS>BOND
1 1 2 1
2 2 3 2
3 2 7 1
4 3 4 1
5 4 5 2
6 5 6 1
7 5 8 1
8 6 7 2
9 8 9 1
10 9 10 1
11 9 13 1
12 10 11 2
13 10 28 1
14 11 12 1
15 11 24 1
16 12 13 2
17 13 14 1
18 14 15 1
19 15 16 1
20 15 20 1
21 16 17 1
22 17 18 1
23 18 19 1
24 18 21 1
25 19 20 1
26 21 22 1
27 22 23 1
28 24 25 1
29 24 31 1
30 25 26 2
31 25 27 1
32 27 28 1
33 27 30 1
34 28 29 2
35 3 32 1
36 4 33 1
37 6 34 1
38 7 35 1
39 8 36 1
40 8 37 1
41 14 38 1
42 14 39 1
43 16 40 1
44 16 41 1
45 17 42 1
46 17 43 1
47 19 44 1
48 19 45 1
49 20 46 1
50 20 47 1
51 21 48 1
52 21 49 1
53 22 50 1
54 22 51 1
55 23 52 1
56 30 53 1
57 30 54 1
58 30 55 1
59 31 56 1
60 31 57 1
61 31 58 1
@<TRIPOS>SUBSTRUCTURE
1	UNK0	1	GROUP	1 ****	UNK
