# created with PyMOL 2.3.2
@<TRIPOS>MOLECULE
1441
39 42 1                 
SMALL
USER_CHARGES
@<TRIPOS>ATOM
1	  Cl	3.680	-0.924	4.060	Cl	1	UNK0	0.000	
2	   C	2.711	-1.762	2.867	C.2	1	UNK0	0.000	
3	   C	2.267	-1.076	1.731	C.2	1	UNK0	0.000	
4	   C	1.512	-1.730	0.800	C.2	1	UNK0	0.000	
5	   C	1.172	-3.052	0.945	C.2	1	UNK0	0.000	
6	   C	1.614	-3.720	2.068	C.2	1	UNK0	0.000	
7	   C	2.380	-3.075	3.022	C.2	1	UNK0	0.000	
8	   C	2.676	0.357	1.603	C.3	1	UNK0	0.000	
9	   N	2.167	1.015	0.451	N.pl3	1	UNK0	0.000	
10	   C	0.806	1.260	0.210	C.2	1	UNK0	0.000	
11	   O	-0.030	0.883	1.070	O.2	1	UNK0	0.000	
12	   C	0.306	1.944	-1.011	C.3	1	UNK0	0.000	
13	   N	-1.145	2.052	-0.974	N.pl3	1	UNK0	0.000	
14	   C	-1.963	1.107	-1.445	C.2	1	UNK0	0.000	
15	   C	-3.356	1.250	-1.408	C.2	1	UNK0	0.000	
16	   N	-4.175	0.287	-1.884	N.2	1	UNK0	0.000	
17	   C	-3.635	-0.830	-2.401	C.2	1	UNK0	0.000	
18	   C	-2.288	-1.049	-2.475	C.2	1	UNK0	0.000	
19	   C	-1.444	-0.054	-1.983	C.2	1	UNK0	0.000	
20	   N	-3.918	2.354	-0.892	N.pl3	1	UNK0	0.000	
21	   C	-3.101	3.309	-0.415	C.2	1	UNK0	0.000	
22	   N	-3.908	4.287	0.036	N.2	1	UNK0	0.000	
23	   N	-5.183	3.960	-0.151	N.2	1	UNK0	0.000	
24	   C	-5.212	2.748	-0.733	C.2	1	UNK0	0.000	
25	   C	-1.732	3.168	-0.452	C.2	1	UNK0	0.000	
26	   O	-0.947	4.051	-0.010	O.2	1	UNK0	0.000	
27	   H	1.184	-1.204	-0.077	 H	1	UNK0	0.000	
28	   H	0.562	-3.545	0.174	 H	1	UNK0	0.000	
29	   H	1.330	-4.762	2.156	 H	1	UNK0	0.000	
30	   H	2.697	-3.653	3.881	 H	1	UNK0	0.000	
31	   H	2.332	0.881	2.518	 H	1	UNK0	0.000	
32	   H	3.787	0.359	1.570	 H	1	UNK0	0.000	
33	   H	2.839	1.358	-0.301	 H	1	UNK0	0.000	
34	   H	0.712	1.429	-1.877	 H	1	UNK0	0.000	
35	   H	0.754	2.995	-0.930	 H	1	UNK0	0.000	
36	   H	-4.282	-1.625	-2.794	 H	1	UNK0	0.000	
37	   H	-1.825	-1.934	-2.885	 H	1	UNK0	0.000	
38	   H	-0.366	-0.185	-2.015	 H	1	UNK0	0.000	
39	   H	-6.101	2.177	-1.027	 H	1	UNK0	0.000	
@<TRIPOS>BOND
1 1 2 1
2 2 3 2
3 2 7 1
4 3 4 1
5 3 8 1
6 4 5 2
7 5 6 1
8 6 7 2
9 8 9 1
10 9 10 1
11 10 11 2
12 10 12 1
13 12 13 1
14 13 14 1
15 13 25 1
16 14 15 1
17 14 19 2
18 15 16 2
19 15 20 1
20 16 17 1
21 17 18 2
22 18 19 1
23 20 21 1
24 20 24 1
25 21 22 2
26 21 25 1
27 22 23 1
28 23 24 2
29 25 26 2
30 4 27 1
31 5 28 1
32 6 29 1
33 7 30 1
34 8 31 1
35 8 32 1
36 9 33 1
37 12 34 1
38 12 35 1
39 17 36 1
40 18 37 1
41 19 38 1
42 24 39 1
@<TRIPOS>SUBSTRUCTURE
1	UNK0	1	GROUP	1 ****	UNK
