# created with PyMOL 2.3.2
@<TRIPOS>MOLECULE
1442
47 50 1                 
SMALL
USER_CHARGES
@<TRIPOS>ATOM
1	  Cl	0.612	3.140	2.199	Cl	1	UNK0	0.000	
2	   C	-0.456	2.003	3.006	C.2	1	UNK0	0.000	
3	   C	-0.831	0.864	2.315	C.2	1	UNK0	0.000	
4	   C	-1.668	-0.038	2.956	C.2	1	UNK0	0.000	
5	   C	-2.079	0.233	4.230	C.2	1	UNK0	0.000	
6	   C	-1.693	1.388	4.921	C.2	1	UNK0	0.000	
7	   C	-0.862	2.282	4.266	C.2	1	UNK0	0.000	
8	   C	-0.216	0.558	1.036	C.3	1	UNK0	0.000	
9	   N	-1.250	0.449	0.023	N.pl3	1	UNK0	0.000	
10	   C	-1.928	1.600	-0.449	C.2	1	UNK0	0.000	
11	   O	-1.707	2.699	0.091	O.2	1	UNK0	0.000	
12	   C	-2.893	1.505	-1.627	C.3	1	UNK0	0.000	
13	   N	-2.700	0.112	-2.135	N.pl3	1	UNK0	0.000	
14	   N	-1.407	-0.250	-2.259	N.2	1	UNK0	0.000	
15	   C	-1.017	-1.568	-2.359	C.2	1	UNK0	0.000	
16	   N	-1.990	-2.458	-2.337	N.pl3	1	UNK0	0.000	
17	   C	-1.389	-3.788	-2.367	C.3	1	UNK0	0.000	
18	   C	0.041	-3.552	-1.965	C.3	1	UNK0	0.000	
19	   N	0.279	-2.155	-2.285	N.pl3	1	UNK0	0.000	
20	   C	1.540	-1.512	-2.402	C.2	1	UNK0	0.000	
21	   C	1.630	-0.217	-2.777	C.2	1	UNK0	0.000	
22	   C	2.890	0.382	-2.807	C.2	1	UNK0	0.000	
23	   C	4.013	-0.326	-2.475	C.2	1	UNK0	0.000	
24	   C	3.926	-1.661	-2.101	C.2	1	UNK0	0.000	
25	   C	2.696	-2.229	-2.064	C.2	1	UNK0	0.000	
26	   C	-3.291	-2.143	-2.229	C.2	1	UNK0	0.000	
27	   O	-4.216	-2.964	-2.228	O.2	1	UNK0	0.000	
28	   C	-3.644	-0.788	-2.118	C.2	1	UNK0	0.000	
29	   O	-4.863	-0.448	-2.010	O.2	1	UNK0	0.000	
30	   H	-1.966	-0.965	2.459	 H	1	UNK0	0.000	
31	   H	-2.727	-0.491	4.746	 H	1	UNK0	0.000	
32	   H	-2.038	1.592	5.913	 H	1	UNK0	0.000	
33	   H	-0.593	3.235	4.767	 H	1	UNK0	0.000	
34	   H	0.659	1.182	0.696	 H	1	UNK0	0.000	
35	   H	0.241	-0.484	1.140	 H	1	UNK0	0.000	
36	   H	-1.531	-0.497	-0.234	 H	1	UNK0	0.000	
37	   H	-3.953	1.574	-1.265	 H	1	UNK0	0.000	
38	   H	-2.558	2.240	-2.345	 H	1	UNK0	0.000	
39	   H	-1.852	-4.417	-1.521	 H	1	UNK0	0.000	
40	   H	-1.550	-4.346	-3.276	 H	1	UNK0	0.000	
41	   H	0.124	-3.587	-0.827	 H	1	UNK0	0.000	
42	   H	0.786	-4.236	-2.396	 H	1	UNK0	0.000	
43	   H	0.751	0.399	-3.057	 H	1	UNK0	0.000	
44	   H	2.906	1.449	-3.105	 H	1	UNK0	0.000	
45	   H	4.957	0.220	-2.520	 H	1	UNK0	0.000	
46	   H	4.878	-2.162	-1.861	 H	1	UNK0	0.000	
47	   H	2.660	-3.276	-1.741	 H	1	UNK0	0.000	
@<TRIPOS>BOND
1 1 2 1
2 2 3 2
3 2 7 1
4 3 4 1
5 3 8 1
6 4 5 2
7 5 6 1
8 6 7 2
9 8 9 1
10 9 10 1
11 10 11 2
12 10 12 1
13 12 13 1
14 13 14 1
15 13 28 1
16 14 15 2
17 15 16 1
18 15 19 1
19 16 17 1
20 16 26 1
21 17 18 1
22 18 19 1
23 19 20 1
24 20 21 2
25 20 25 1
26 21 22 1
27 22 23 2
28 23 24 1
29 24 25 2
30 26 27 2
31 26 28 1
32 28 29 2
33 4 30 1
34 5 31 1
35 6 32 1
36 7 33 1
37 8 34 1
38 8 35 1
39 9 36 1
40 12 37 1
41 12 38 1
42 17 39 1
43 17 40 1
44 18 41 1
45 18 42 1
46 21 43 1
47 22 44 1
48 23 45 1
49 24 46 1
50 25 47 1
@<TRIPOS>SUBSTRUCTURE
1	UNK0	1	GROUP	1 ****	UNK
