# created with PyMOL 2.3.2
@<TRIPOS>MOLECULE
1443
47 50 1                 
SMALL
USER_CHARGES
@<TRIPOS>ATOM
1	  Cl	-2.642	-1.940	-4.655	Cl	1	UNK0	0.000	
2	   C	-2.999	-1.112	-3.164	C.2	1	UNK0	0.000	
3	   C	-2.178	-0.036	-2.737	C.2	1	UNK0	0.000	
4	   C	-2.499	0.577	-1.562	C.2	1	UNK0	0.000	
5	   C	-3.604	0.165	-0.802	C.2	1	UNK0	0.000	
6	   C	-4.401	-0.879	-1.217	C.2	1	UNK0	0.000	
7	   C	-4.074	-1.516	-2.420	C.2	1	UNK0	0.000	
8	   C	-1.031	0.226	-3.609	C.3	1	UNK0	0.000	
9	   N	-0.282	1.383	-3.549	N.pl3	1	UNK0	0.000	
10	   C	0.461	2.513	-3.500	C.2	1	UNK0	0.000	
11	   O	1.422	2.935	-4.095	O.2	1	UNK0	0.000	
12	   C	0.091	3.585	-2.405	C.3	1	UNK0	0.000	
13	   N	0.418	2.857	-1.151	N.pl3	1	UNK0	0.000	
14	   N	1.013	1.691	-1.136	N.2	1	UNK0	0.000	
15	   C	1.128	1.170	0.107	C.2	1	UNK0	0.000	
16	   N	0.553	2.089	0.886	N.pl3	1	UNK0	0.000	
17	   C	0.442	1.856	2.204	C.2	1	UNK0	0.000	
18	   C	0.915	0.677	2.724	C.2	1	UNK0	0.000	
19	   N	1.468	-0.228	1.910	N.2	1	UNK0	0.000	
20	   C	1.612	-0.048	0.567	C.2	1	UNK0	0.000	
21	   N	2.171	-1.012	-0.284	N.pl3	1	UNK0	0.000	
22	   C	1.915	-2.414	-0.098	C.3	1	UNK0	0.000	
23	   C	3.309	-2.929	0.387	C.3	1	UNK0	0.000	
24	   O	4.203	-2.601	-0.582	O.3	1	UNK0	0.000	
25	   C	4.425	-1.278	-0.839	C.3	1	UNK0	0.000	
26	   C	3.065	-0.684	-1.353	C.3	1	UNK0	0.000	
27	   C	0.116	3.114	0.095	C.2	1	UNK0	0.000	
28	   O	-0.457	4.163	0.533	O.2	1	UNK0	0.000	
29	   H	-1.897	1.376	-1.169	 H	1	UNK0	0.000	
30	   H	-3.822	0.657	0.127	 H	1	UNK0	0.000	
31	   H	-5.260	-1.190	-0.661	 H	1	UNK0	0.000	
32	   H	-4.699	-2.300	-2.784	 H	1	UNK0	0.000	
33	   H	-1.045	-0.402	-4.542	 H	1	UNK0	0.000	
34	   H	-0.212	-0.524	-3.014	 H	1	UNK0	0.000	
35	   H	0.213	1.119	-4.819	 H	1	UNK0	0.000	
36	   H	0.753	4.422	-2.581	 H	1	UNK0	0.000	
37	   H	-0.959	3.765	-2.531	 H	1	UNK0	0.000	
38	   H	-0.054	2.611	2.864	 H	1	UNK0	0.000	
39	   H	0.796	0.493	3.772	 H	1	UNK0	0.000	
40	   H	1.799	-2.848	-1.150	 H	1	UNK0	0.000	
41	   H	1.106	-2.664	0.567	 H	1	UNK0	0.000	
42	   H	3.215	-4.012	0.472	 H	1	UNK0	0.000	
43	   H	3.492	-2.498	1.367	 H	1	UNK0	0.000	
44	   H	5.177	-1.145	-1.613	 H	1	UNK0	0.000	
45	   H	4.602	-0.656	0.088	 H	1	UNK0	0.000	
46	   H	2.782	-1.316	-2.211	 H	1	UNK0	0.000	
47	   H	3.147	0.342	-1.659	 H	1	UNK0	0.000	
@<TRIPOS>BOND
1 1 2 1
2 2 3 2
3 2 7 1
4 3 4 1
5 3 8 1
6 4 5 2
7 5 6 1
8 6 7 2
9 8 9 1
10 9 10 1
11 10 11 2
12 10 12 1
13 12 13 1
14 13 14 1
15 13 27 1
16 14 15 2
17 15 16 1
18 15 20 1
19 16 17 1
20 16 27 1
21 17 18 2
22 18 19 1
23 19 20 2
24 20 21 1
25 21 22 1
26 21 26 1
27 22 23 1
28 23 24 1
29 24 25 1
30 25 26 1
31 27 28 2
32 4 29 1
33 5 30 1
34 6 31 1
35 7 32 1
36 8 33 1
37 8 34 1
38 9 35 1
39 12 36 1
40 12 37 1
41 17 38 1
42 18 39 1
43 22 40 1
44 22 41 1
45 23 42 1
46 23 43 1
47 25 44 1
48 25 45 1
49 26 46 1
50 26 47 1
@<TRIPOS>SUBSTRUCTURE
1	UNK0	1	GROUP	1 ****	UNK
