# created with PyMOL 2.3.2
@<TRIPOS>MOLECULE
1444
51 54 1                 
SMALL
USER_CHARGES
@<TRIPOS>ATOM
1	  Cl	-1.018	-5.949	3.182	Cl	1	UNK0	0.000	
2	   C	-0.390	-4.544	4.012	C.2	1	UNK0	0.000	
3	   C	-1.029	-3.345	3.894	C.2	1	UNK0	0.000	
4	   C	-0.491	-2.272	4.569	C.2	1	UNK0	0.000	
5	   C	0.641	-2.382	5.335	C.2	1	UNK0	0.000	
6	   C	1.279	-3.599	5.447	C.2	1	UNK0	0.000	
7	   C	0.747	-4.676	4.775	C.2	1	UNK0	0.000	
8	   C	-2.250	-3.140	3.093	C.3	1	UNK0	0.000	
9	   N	-2.030	-3.084	1.690	N.pl3	1	UNK0	0.000	
10	   N	-2.038	-4.108	0.846	N.2	1	UNK0	0.000	
11	   C	-1.793	-3.714	-0.392	C.2	1	UNK0	0.000	
12	   C	-1.615	-2.324	-0.329	C.2	1	UNK0	0.000	
13	   C	-1.766	-1.943	0.985	C.2	1	UNK0	0.000	
14	   N	-1.724	-0.647	1.485	N.pl3	1	UNK0	0.000	
15	   C	-1.383	0.596	1.056	C.2	1	UNK0	0.000	
16	   O	-1.727	1.487	2.045	O.2	1	UNK0	0.000	
17	   C	-0.787	1.306	-0.064	C.3	1	UNK0	0.000	
18	   N	-0.245	0.731	-1.219	N.pl3	1	UNK0	0.000	
19	   C	0.983	-0.108	-1.203	C.3	1	UNK0	0.000	
20	   C	1.395	-0.206	-2.657	C.3	1	UNK0	0.000	
21	   C	0.324	-0.948	-3.412	C.3	1	UNK0	0.000	
22	   C	-0.925	-0.095	-3.479	C.3	1	UNK0	0.000	
23	   C	-0.830	1.023	-2.496	C.2	1	UNK0	0.000	
24	   C	-1.188	2.260	-2.848	C.2	1	UNK0	0.000	
25	   N	-1.784	2.530	-4.128	N.pl3	1	UNK0	0.000	
26	   N	-1.999	3.914	-4.259	N.pl3	1	UNK0	0.000	
27	   C	-1.549	4.539	-3.078	C.2	1	UNK0	0.000	
28	   O	-1.551	5.752	-2.768	O.2	1	UNK0	0.000	
29	   N	-1.051	3.495	-2.222	N.pl3	1	UNK0	0.000	
30	   H	-0.965	-1.306	4.502	 H	1	UNK0	0.000	
31	   H	1.042	-1.525	5.853	 H	1	UNK0	0.000	
32	   H	2.173	-3.681	6.053	 H	1	UNK0	0.000	
33	   H	1.246	-5.625	4.864	 H	1	UNK0	0.000	
34	   H	-2.832	-2.278	3.508	 H	1	UNK0	0.000	
35	   H	-2.911	-4.031	3.318	 H	1	UNK0	0.000	
36	   H	-1.727	-4.284	-1.316	 H	1	UNK0	0.000	
37	   H	-1.412	-1.713	-1.184	 H	1	UNK0	0.000	
38	   H	-2.172	-0.627	2.516	 H	1	UNK0	0.000	
39	   H	-1.688	1.984	-0.382	 H	1	UNK0	0.000	
40	   H	-0.013	2.077	0.346	 H	1	UNK0	0.000	
41	   H	1.804	0.478	-0.724	 H	1	UNK0	0.000	
42	   H	0.849	-1.093	-0.813	 H	1	UNK0	0.000	
43	   H	2.362	-0.785	-2.729	 H	1	UNK0	0.000	
44	   H	1.565	0.792	-3.109	 H	1	UNK0	0.000	
45	   H	0.676	-1.183	-4.448	 H	1	UNK0	0.000	
46	   H	0.135	-1.903	-2.898	 H	1	UNK0	0.000	
47	   H	-1.100	0.266	-4.519	 H	1	UNK0	0.000	
48	   H	-1.794	-0.710	-3.229	 H	1	UNK0	0.000	
49	   H	-2.060	1.899	-4.905	 H	1	UNK0	0.000	
50	   H	-2.418	4.427	-5.074	 H	1	UNK0	0.000	
51	   H	-0.633	3.662	-1.292	 H	1	UNK0	0.000	
@<TRIPOS>BOND
1 1 2 1
2 2 3 2
3 2 7 1
4 3 4 1
5 3 8 1
6 4 5 2
7 5 6 1
8 6 7 2
9 8 9 1
10 9 10 1
11 9 13 1
12 10 11 2
13 11 12 1
14 12 13 2
15 13 14 1
16 14 15 1
17 15 16 2
18 15 17 1
19 17 18 1
20 18 19 1
21 18 23 1
22 19 20 1
23 20 21 1
24 21 22 1
25 22 23 1
26 23 24 2
27 24 25 1
28 24 29 1
29 25 26 1
30 26 27 1
31 27 28 2
32 27 29 1
33 4 30 1
34 5 31 1
35 6 32 1
36 7 33 1
37 8 34 1
38 8 35 1
39 11 36 1
40 12 37 1
41 14 38 1
42 17 39 1
43 17 40 1
44 19 41 1
45 19 42 1
46 20 43 1
47 20 44 1
48 21 45 1
49 21 46 1
50 22 47 1
51 22 48 1
52 25 49 1
53 26 50 1
54 29 51 1
@<TRIPOS>SUBSTRUCTURE
1	UNK0	1	GROUP	1 ****	UNK
