# created with PyMOL 2.3.2
@<TRIPOS>MOLECULE
1445
44 47 1                 
SMALL
USER_CHARGES
@<TRIPOS>ATOM
1	  Cl	0.187	3.146	-4.539	Cl	1	UNK0	0.000	
2	   C	0.607	4.465	-3.483	C.2	1	UNK0	0.000	
3	   C	1.663	4.354	-2.629	C.2	1	UNK0	0.000	
4	   C	1.956	5.470	-1.834	C.2	1	UNK0	0.000	
5	   C	1.219	6.630	-1.902	C.2	1	UNK0	0.000	
6	   C	0.156	6.726	-2.767	C.2	1	UNK0	0.000	
7	   C	-0.151	5.647	-3.557	C.2	1	UNK0	0.000	
8	   C	2.455	3.123	-2.495	C.3	1	UNK0	0.000	
9	   N	1.810	2.226	-1.582	N.pl3	1	UNK0	0.000	
10	   N	2.083	2.260	-0.259	N.2	1	UNK0	0.000	
11	   N	1.376	1.342	0.357	N.2	1	UNK0	0.000	
12	   C	0.613	0.669	-0.515	C.2	1	UNK0	0.000	
13	   C	0.911	1.256	-1.753	C.2	1	UNK0	0.000	
14	   C	-0.315	-0.422	-0.288	C.2	1	UNK0	0.000	
15	   O	-0.929	-0.874	-1.334	O.2	1	UNK0	0.000	
16	   N	-0.612	-1.031	0.928	N.pl3	1	UNK0	0.000	
17	   C	-1.588	-2.132	0.986	C.3	1	UNK0	0.000	
18	   C	-0.851	-3.369	1.430	C.3	1	UNK0	0.000	
19	   N	0.357	-3.144	2.106	N.3	1	UNK0	0.000	
20	   C	0.620	-1.929	2.732	C.3	1	UNK0	0.000	
21	   C	-0.037	-0.689	2.188	C.3	1	UNK0	0.000	
22	   C	1.455	-3.750	1.403	C.3	1	UNK0	0.000	
23	   C	0.974	-3.997	-0.022	C.3	1	UNK0	0.000	
24	   C	-0.521	-4.160	0.165	C.3	1	UNK0	0.000	
25	   H	2.808	5.359	-1.153	 H	1	UNK0	0.000	
26	   H	1.450	7.483	-1.286	 H	1	UNK0	0.000	
27	   H	-0.445	7.648	-2.835	 H	1	UNK0	0.000	
28	   H	-0.989	5.737	-4.232	 H	1	UNK0	0.000	
29	   H	2.604	2.656	-3.507	 H	1	UNK0	0.000	
30	   H	3.486	3.362	-2.109	 H	1	UNK0	0.000	
31	   H	0.461	0.932	-2.683	 H	1	UNK0	0.000	
32	   H	-2.304	-1.846	1.784	 H	1	UNK0	0.000	
33	   H	-2.154	-2.253	0.062	 H	1	UNK0	0.000	
34	   H	-1.521	-3.999	2.041	 H	1	UNK0	0.000	
35	   H	0.387	-1.995	3.814	 H	1	UNK0	0.000	
36	   H	1.735	-1.740	2.700	 H	1	UNK0	0.000	
37	   H	0.657	0.162	2.163	 H	1	UNK0	0.000	
38	   H	-0.902	-0.422	2.871	 H	1	UNK0	0.000	
39	   H	1.779	-4.702	1.881	 H	1	UNK0	0.000	
40	   H	2.350	-3.094	1.357	 H	1	UNK0	0.000	
41	   H	1.374	-4.950	-0.422	 H	1	UNK0	0.000	
42	   H	1.222	-3.144	-0.694	 H	1	UNK0	0.000	
43	   H	-0.827	-5.211	0.231	 H	1	UNK0	0.000	
44	   H	-1.007	-3.725	-0.734	 H	1	UNK0	0.000	
@<TRIPOS>BOND
1 1 2 1
2 2 3 2
3 2 7 1
4 3 4 1
5 3 8 1
6 4 5 2
7 5 6 1
8 6 7 2
9 8 9 1
10 9 10 1
11 9 13 1
12 10 11 2
13 11 12 1
14 12 13 2
15 12 14 1
16 14 15 2
17 14 16 1
18 16 17 1
19 16 21 1
20 17 18 1
21 18 19 1
22 18 24 1
23 19 20 1
24 19 22 1
25 20 21 1
26 22 23 1
27 23 24 1
28 4 25 1
29 5 26 1
30 6 27 1
31 7 28 1
32 8 29 1
33 8 30 1
34 13 31 1
35 17 32 1
36 17 33 1
37 18 34 1
38 20 35 1
39 20 36 1
40 21 37 1
41 21 38 1
42 22 39 1
43 22 40 1
44 23 41 1
45 23 42 1
46 24 43 1
47 24 44 1
@<TRIPOS>SUBSTRUCTURE
1	UNK0	1	GROUP	1 ****	UNK
