# created with PyMOL 2.3.2
@<TRIPOS>MOLECULE
1446
42 45 1                 
SMALL
USER_CHARGES
@<TRIPOS>ATOM
1	  Cl	-1.783	-3.676	-3.923	Cl	1	UNK0	0.000	
2	   C	-0.476	-3.355	-2.829	C.2	1	UNK0	0.000	
3	   C	0.459	-2.317	-2.917	C.2	1	UNK0	0.000	
4	   N	1.327	-2.356	-1.898	N.pl3	1	UNK0	0.000	
5	   N	0.957	-3.418	-1.144	N.2	1	UNK0	0.000	
6	   C	-0.102	-4.032	-1.661	C.2	1	UNK0	0.000	
7	   C	2.450	-1.542	-1.573	C.3	1	UNK0	0.000	
8	   C	2.929	-0.719	-2.762	C.3	1	UNK0	0.000	
9	   O	1.824	0.018	-3.169	O.3	1	UNK0	0.000	
10	   C	1.792	1.020	-2.256	C.3	1	UNK0	0.000	
11	   C	1.514	0.689	-0.835	C.3	1	UNK0	0.000	
12	   C	2.311	-0.580	-0.444	C.3	1	UNK0	0.000	
13	   O	3.584	-0.146	-0.094	O.3	1	UNK0	0.000	
14	   N	0.147	0.508	-0.451	N.3	1	UNK0	0.000	
15	   C	-0.715	1.597	-0.788	C.3	1	UNK0	0.000	
16	   C	-2.020	1.570	-0.095	C.2	1	UNK0	0.000	
17	   C	-2.908	0.546	-0.115	C.2	1	UNK0	0.000	
18	   C	-4.132	0.661	0.520	C.2	1	UNK0	0.000	
19	   C	-4.468	1.817	1.185	C.2	1	UNK0	0.000	
20	   C	-3.559	2.854	1.198	C.2	1	UNK0	0.000	
21	   C	-2.339	2.760	0.573	C.2	1	UNK0	0.000	
22	   O	-2.559	-0.636	-0.793	O.3	1	UNK0	0.000	
23	   C	3.294	1.428	-2.283	C.3	1	UNK0	0.000	
24	   O	3.869	0.178	-2.245	O.3	1	UNK0	0.000	
25	   H	0.439	-1.608	-3.716	 H	1	UNK0	0.000	
26	   H	-0.663	-4.911	-1.344	 H	1	UNK0	0.000	
27	   H	3.351	-2.179	-1.318	 H	1	UNK0	0.000	
28	   H	3.380	-1.307	-3.558	 H	1	UNK0	0.000	
29	   H	1.175	1.899	-2.564	 H	1	UNK0	0.000	
30	   H	1.941	1.504	-0.180	 H	1	UNK0	0.000	
31	   H	1.872	-1.030	0.473	 H	1	UNK0	0.000	
32	   H	3.452	0.497	0.672	 H	1	UNK0	0.000	
33	   H	-0.211	-0.364	-0.876	 H	1	UNK0	0.000	
34	   H	-0.156	2.525	-0.548	 H	1	UNK0	0.000	
35	   H	-0.909	1.668	-1.884	 H	1	UNK0	0.000	
36	   H	-4.801	-0.180	0.465	 H	1	UNK0	0.000	
37	   H	-5.424	1.927	1.699	 H	1	UNK0	0.000	
38	   H	-3.802	3.799	1.718	 H	1	UNK0	0.000	
39	   H	-1.664	3.609	0.598	 H	1	UNK0	0.000	
40	   H	-3.218	-1.402	-0.753	 H	1	UNK0	0.000	
41	   H	3.481	2.054	-1.369	 H	1	UNK0	0.000	
42	   H	3.560	1.939	-3.225	 H	1	UNK0	0.000	
@<TRIPOS>BOND
1 1 2 1
2 2 3 2
3 2 6 1
4 3 4 1
5 4 5 1
6 4 7 1
7 5 6 2
8 7 8 1
9 7 12 1
10 8 9 1
11 8 24 1
12 9 10 1
13 10 11 1
14 10 23 1
15 11 12 1
16 11 14 1
17 12 13 1
18 14 15 1
19 15 16 1
20 16 17 2
21 16 21 1
22 17 18 1
23 17 22 1
24 18 19 2
25 19 20 1
26 20 21 2
27 23 24 1
28 3 25 1
29 6 26 1
30 7 27 1
31 8 28 1
32 10 29 1
33 11 30 1
34 12 31 1
35 13 32 1
36 14 33 1
37 15 34 1
38 15 35 1
39 18 36 1
40 19 37 1
41 20 38 1
42 21 39 1
43 22 40 1
44 23 41 1
45 23 42 1
@<TRIPOS>SUBSTRUCTURE
1	UNK0	1	GROUP	1 ****	UNK
