# created with PyMOL 2.3.2
@<TRIPOS>MOLECULE
1448
60 63 1                 
SMALL
USER_CHARGES
@<TRIPOS>ATOM
1	  Br	-4.058	-3.114	2.258	Br	1	UNK0	0.000	
2	   C	-3.790	-1.219	2.239	C.2	1	UNK0	0.000	
3	   C	-2.652	-0.730	1.579	C.2	1	UNK0	0.000	
4	   C	-2.476	0.616	1.574	C.2	1	UNK0	0.000	
5	   C	-3.377	1.490	2.195	C.2	1	UNK0	0.000	
6	   C	-4.485	0.986	2.836	C.2	1	UNK0	0.000	
7	   C	-4.683	-0.378	2.852	C.2	1	UNK0	0.000	
8	  Br	-5.778	2.076	3.713	Br	1	UNK0	0.000	
9	  Br	-1.000	1.398	0.705	Br	1	UNK0	0.000	
10	   O	-1.806	-1.604	0.991	O.3	1	UNK0	0.000	
11	   C	-0.707	-2.268	1.611	C.3	1	UNK0	0.000	
12	   C	-0.069	-3.198	0.669	C.3	1	UNK0	0.000	
13	   O	-1.088	-4.051	0.209	O.3	1	UNK0	0.000	
14	   C	1.028	-2.875	-0.228	C.3	1	UNK0	0.000	
15	   N	0.955	-1.823	-1.178	N.pl3	1	UNK0	0.000	
16	   C	0.395	-1.906	-2.414	C.2	1	UNK0	0.000	
17	   C	0.508	-0.698	-3.049	C.2	1	UNK0	0.000	
18	   N	1.132	0.087	-2.195	N.2	1	UNK0	0.000	
19	   C	1.425	-0.569	-1.039	C.2	1	UNK0	0.000	
20	   N	2.209	0.035	0.006	N.pl3	1	UNK0	0.000	
21	   C	2.787	-0.600	1.127	C.3	1	UNK0	0.000	
22	   C	3.609	0.467	1.901	C.3	1	UNK0	0.000	
23	   N	2.628	1.446	2.328	N.4	1	UNK0	0.000	
24	   C	2.420	2.261	1.116	C.3	1	UNK0	0.000	
25	   C	2.476	1.473	-0.131	C.3	1	UNK0	0.000	
26	   C	3.137	2.283	3.396	C.3	1	UNK0	0.000	
27	   C	2.597	1.773	4.714	C.3	1	UNK0	0.000	
28	   O	3.017	0.450	4.899	O.3	1	UNK0	0.000	
29	   N	0.058	-0.447	-4.317	N.pl3	1	UNK0	0.000	
30	   C	-0.524	-1.468	-4.958	C.2	1	UNK0	0.000	
31	   O	-0.939	-1.233	-6.128	O.2	1	UNK0	0.000	
32	   N	-0.656	-2.677	-4.379	N.2	1	UNK0	0.000	
33	   C	-0.220	-2.937	-3.136	C.2	1	UNK0	0.000	
34	   O	-0.362	-4.183	-2.570	O.2	1	UNK0	0.000	
35	   C	0.224	0.882	-4.889	C.3	1	UNK0	0.000	
36	   H	-3.214	2.549	2.177	 H	1	UNK0	0.000	
37	   H	-5.555	-0.819	3.352	 H	1	UNK0	0.000	
38	   H	-1.239	-2.927	2.382	 H	1	UNK0	0.000	
39	   H	-0.077	-1.635	2.220	 H	1	UNK0	0.000	
40	   H	0.454	-3.992	1.432	 H	1	UNK0	0.000	
41	   H	-0.761	-4.952	0.036	 H	1	UNK0	0.000	
42	   H	2.043	-2.902	0.293	 H	1	UNK0	0.000	
43	   H	1.161	-3.859	-0.836	 H	1	UNK0	0.000	
44	   H	3.588	-1.339	0.866	 H	1	UNK0	0.000	
45	   H	2.075	-0.945	1.883	 H	1	UNK0	0.000	
46	   H	4.358	0.928	1.230	 H	1	UNK0	0.000	
47	   H	4.084	0.047	2.788	 H	1	UNK0	0.000	
48	   H	1.696	1.037	2.552	 H	1	UNK0	0.000	
49	   H	1.594	2.969	1.224	 H	1	UNK0	0.000	
50	   H	3.347	2.921	1.110	 H	1	UNK0	0.000	
51	   H	1.751	1.896	-0.851	 H	1	UNK0	0.000	
52	   H	3.467	1.516	-0.645	 H	1	UNK0	0.000	
53	   H	2.781	3.341	3.286	 H	1	UNK0	0.000	
54	   H	4.241	2.248	3.467	 H	1	UNK0	0.000	
55	   H	3.018	2.352	5.565	 H	1	UNK0	0.000	
56	   H	1.471	1.786	4.737	 H	1	UNK0	0.000	
57	   H	2.234	-0.162	4.974	 H	1	UNK0	0.000	
58	   H	-0.798	1.357	-4.815	 H	1	UNK0	0.000	
59	   H	0.851	1.482	-4.202	 H	1	UNK0	0.000	
60	   H	0.554	0.890	-5.925	 H	1	UNK0	0.000	
@<TRIPOS>BOND
1 1 2 1
2 2 3 2
3 2 7 1
4 3 4 1
5 3 10 1
6 4 5 2
7 4 9 1
8 5 6 1
9 6 7 2
10 6 8 1
11 10 11 1
12 11 12 1
13 12 13 1
14 12 14 1
15 14 15 1
16 15 16 1
17 15 19 1
18 16 17 2
19 16 33 1
20 17 18 1
21 17 29 1
22 18 19 2
23 19 20 1
24 20 21 1
25 20 25 1
26 21 22 1
27 22 23 1
28 23 24 1
29 23 26 1
30 24 25 1
31 26 27 1
32 27 28 1
33 29 30 1
34 29 35 1
35 30 31 2
36 30 32 1
37 32 33 2
38 33 34 1
39 5 36 1
40 7 37 1
41 11 38 1
42 11 39 1
43 12 40 1
44 13 41 1
45 14 42 1
46 14 43 1
47 21 44 1
48 21 45 1
49 22 46 1
50 22 47 1
51 23 48 1
52 24 49 1
53 24 50 1
54 25 51 1
55 25 52 1
56 26 53 1
57 26 54 1
58 27 55 1
59 27 56 1
60 28 57 1
61 35 58 1
62 35 59 1
63 35 60 1
@<TRIPOS>SUBSTRUCTURE
1	UNK0	1	GROUP	1 ****	UNK
