# created with PyMOL 2.3.2
@<TRIPOS>MOLECULE
1449
56 59 1                 
SMALL
USER_CHARGES
@<TRIPOS>ATOM
1	  Br	-4.824	1.070	-6.007	Br	1	UNK0	0.000	
2	   C	-4.208	0.775	-4.214	C.2	1	UNK0	0.000	
3	   C	-4.540	-0.361	-3.542	C.2	1	UNK0	0.000	
4	   C	-4.076	-0.575	-2.237	C.2	1	UNK0	0.000	
5	   C	-3.288	0.396	-1.687	C.2	1	UNK0	0.000	
6	   C	-2.941	1.561	-2.354	C.2	1	UNK0	0.000	
7	   C	-3.414	1.739	-3.632	C.2	1	UNK0	0.000	
8	   C	-2.139	2.614	-1.709	C.2	1	UNK0	0.000	
9	   N	-1.718	2.465	-0.581	N.2	1	UNK0	0.000	
10	   N	-1.068	2.922	0.401	N.pl3	1	UNK0	0.000	
11	   C	-0.363	3.430	1.474	C.2	1	UNK0	0.000	
12	   O	-0.575	4.547	2.053	O.2	1	UNK0	0.000	
13	   C	0.764	2.676	2.086	C.2	1	UNK0	0.000	
14	   N	1.284	3.029	3.287	N.2	1	UNK0	0.000	
15	   N	2.251	2.209	3.557	N.2	1	UNK0	0.000	
16	   N	2.361	1.321	2.527	N.pl3	1	UNK0	0.000	
17	   C	1.447	1.594	1.600	C.2	1	UNK0	0.000	
18	   C	1.163	0.953	0.337	C.3	1	UNK0	0.000	
19	   N	1.920	-0.147	-0.118	N.4	1	UNK0	0.000	
20	   C	1.191	-1.405	-0.062	C.3	1	UNK0	0.000	
21	   C	0.449	-1.721	-1.310	C.3	1	UNK0	0.000	
22	   O	1.202	-1.644	-2.471	O.3	1	UNK0	0.000	
23	   C	1.576	-0.287	-2.572	C.3	1	UNK0	0.000	
24	   C	2.503	-0.021	-1.442	C.3	1	UNK0	0.000	
25	   C	3.377	0.339	2.654	C.2	1	UNK0	0.000	
26	   N	3.158	-0.938	2.987	N.2	1	UNK0	0.000	
27	   O	4.301	-1.541	3.006	O.3	1	UNK0	0.000	
28	   N	5.263	-0.728	2.706	N.2	1	UNK0	0.000	
29	   C	4.740	0.507	2.466	C.2	1	UNK0	0.000	
30	   N	5.411	1.693	2.147	N.pl3	1	UNK0	0.000	
31	   O	-4.465	-1.736	-1.654	O.3	1	UNK0	0.000	
32	   C	-4.160	-2.276	-0.416	C.3	1	UNK0	0.000	
33	   C	-2.686	-2.565	-0.374	C.3	1	UNK0	0.000	
34	   O	-5.339	-1.307	-4.157	O.2	1	UNK0	0.000	
35	   H	-2.905	0.253	-0.668	 H	1	UNK0	0.000	
36	   H	-3.169	2.632	-4.187	 H	1	UNK0	0.000	
37	   H	-1.906	3.539	-2.231	 H	1	UNK0	0.000	
38	   H	-1.913	4.001	0.458	 H	1	UNK0	0.000	
39	   H	1.119	1.707	-0.509	 H	1	UNK0	0.000	
40	   H	0.070	0.573	0.314	 H	1	UNK0	0.000	
41	   H	2.744	-0.259	0.499	 H	1	UNK0	0.000	
42	   H	1.896	-2.226	0.154	 H	1	UNK0	0.000	
43	   H	0.442	-1.389	0.767	 H	1	UNK0	0.000	
44	   H	-0.424	-1.061	-1.488	 H	1	UNK0	0.000	
45	   H	0.128	-2.802	-1.229	 H	1	UNK0	0.000	
46	   H	0.674	0.300	-2.629	 H	1	UNK0	0.000	
47	   H	2.140	-0.115	-3.513	 H	1	UNK0	0.000	
48	   H	3.247	-0.880	-1.482	 H	1	UNK0	0.000	
49	   H	3.132	0.867	-1.517	 H	1	UNK0	0.000	
50	   H	6.423	1.718	1.986	 H	1	UNK0	0.000	
51	   H	4.888	2.585	2.070	 H	1	UNK0	0.000	
52	   H	-4.806	-3.128	-0.132	 H	1	UNK0	0.000	
53	   H	-4.347	-1.496	0.375	 H	1	UNK0	0.000	
54	   H	-2.510	-3.613	-0.005	 H	1	UNK0	0.000	
55	   H	-2.093	-1.836	0.200	 H	1	UNK0	0.000	
56	   H	-2.307	-2.553	-1.434	 H	1	UNK0	0.000	
@<TRIPOS>BOND
1 1 2 1
2 2 3 2
3 2 7 1
4 3 4 1
5 3 34 1
6 4 5 2
7 4 31 1
8 5 6 1
9 6 7 2
10 6 8 1
11 8 9 2
12 9 10 1
13 10 11 1
14 11 12 2
15 11 13 1
16 13 14 1
17 13 17 2
18 14 15 2
19 15 16 1
20 16 17 1
21 16 25 1
22 17 18 1
23 18 19 1
24 19 20 1
25 19 24 1
26 20 21 1
27 21 22 1
28 22 23 1
29 23 24 1
30 25 26 2
31 25 29 1
32 26 27 1
33 27 28 1
34 28 29 2
35 29 30 1
36 31 32 1
37 32 33 1
38 5 35 1
39 7 36 1
40 8 37 1
41 10 38 1
42 18 39 1
43 18 40 1
44 19 41 1
45 20 42 1
46 20 43 1
47 21 44 1
48 21 45 1
49 23 46 1
50 23 47 1
51 24 48 1
52 24 49 1
53 30 50 1
54 30 51 1
55 32 52 1
56 32 53 1
57 33 54 1
58 33 55 1
59 33 56 1
@<TRIPOS>SUBSTRUCTURE
1	UNK0	1	GROUP	1 ****	UNK
