# created with PyMOL 2.3.2
@<TRIPOS>MOLECULE
1450
56 59 1                 
SMALL
USER_CHARGES
@<TRIPOS>ATOM
1	  Br	8.676	-0.094	-0.178	Br	1	UNK0	0.000	
2	   C	7.040	0.593	-0.873	C.2	1	UNK0	0.000	
3	   C	6.958	1.122	-2.156	C.2	1	UNK0	0.000	
4	   C	5.780	1.620	-2.664	C.2	1	UNK0	0.000	
5	   C	4.671	1.579	-1.853	C.2	1	UNK0	0.000	
6	   C	4.716	1.059	-0.569	C.2	1	UNK0	0.000	
7	   C	5.916	0.571	-0.101	C.2	1	UNK0	0.000	
8	   C	3.560	1.002	0.311	C.2	1	UNK0	0.000	
9	   N	3.634	0.514	1.494	N.2	1	UNK0	0.000	
10	   N	2.597	0.421	2.389	N.pl3	1	UNK0	0.000	
11	   C	1.280	0.030	2.059	C.2	1	UNK0	0.000	
12	   O	1.011	-0.257	0.876	O.2	1	UNK0	0.000	
13	   C	0.227	-0.047	3.063	C.2	1	UNK0	0.000	
14	   N	0.296	0.213	4.375	N.2	1	UNK0	0.000	
15	   N	-0.879	0.023	4.923	N.2	1	UNK0	0.000	
16	   N	-1.775	-0.371	4.000	N.pl3	1	UNK0	0.000	
17	   C	-1.112	-0.421	2.841	C.2	1	UNK0	0.000	
18	   C	-1.610	-0.761	1.507	C.3	1	UNK0	0.000	
19	   N	-2.985	-1.181	1.410	N.3	1	UNK0	0.000	
20	   C	-3.246	-1.258	-0.033	C.3	1	UNK0	0.000	
21	   C	-2.408	-2.227	-0.768	C.3	1	UNK0	0.000	
22	   O	-2.090	-3.323	0.019	O.3	1	UNK0	0.000	
23	   C	-3.145	-3.565	0.872	C.3	1	UNK0	0.000	
24	   C	-3.125	-2.525	1.975	C.3	1	UNK0	0.000	
25	   C	-3.149	-0.633	4.305	C.2	1	UNK0	0.000	
26	   N	-3.675	-1.612	5.058	N.2	1	UNK0	0.000	
27	   O	-4.980	-1.482	5.082	O.3	1	UNK0	0.000	
28	   N	-5.350	-0.446	4.368	N.2	1	UNK0	0.000	
29	   C	-4.226	0.102	3.872	C.2	1	UNK0	0.000	
30	   N	-4.218	1.255	3.045	N.pl3	1	UNK0	0.000	
31	   O	5.773	2.128	-3.941	O.3	1	UNK0	0.000	
32	   C	4.688	2.670	-4.620	C.3	1	UNK0	0.000	
33	   C	3.533	1.741	-4.812	C.3	1	UNK0	0.000	
34	   O	8.114	1.138	-2.931	O.3	1	UNK0	0.000	
35	   H	3.738	1.964	-2.232	 H	1	UNK0	0.000	
36	   H	5.969	0.157	0.911	 H	1	UNK0	0.000	
37	   H	2.607	1.379	-0.034	 H	1	UNK0	0.000	
38	   H	2.809	0.662	3.400	 H	1	UNK0	0.000	
39	   H	-0.984	-1.587	1.075	 H	1	UNK0	0.000	
40	   H	-1.421	0.094	0.785	 H	1	UNK0	0.000	
41	   H	-4.305	-1.493	-0.145	 H	1	UNK0	0.000	
42	   H	-2.994	-0.226	-0.408	 H	1	UNK0	0.000	
43	   H	-1.421	-1.725	-0.993	 H	1	UNK0	0.000	
44	   H	-2.815	-2.521	-1.757	 H	1	UNK0	0.000	
45	   H	-3.080	-4.551	1.376	 H	1	UNK0	0.000	
46	   H	-4.086	-3.465	0.296	 H	1	UNK0	0.000	
47	   H	-2.269	-2.764	2.620	 H	1	UNK0	0.000	
48	   H	-4.101	-2.608	2.479	 H	1	UNK0	0.000	
49	   H	-4.332	1.230	2.011	 H	1	UNK0	0.000	
50	   H	-4.093	2.214	3.460	 H	1	UNK0	0.000	
51	   H	4.316	3.602	-4.122	 H	1	UNK0	0.000	
52	   H	5.047	2.980	-5.634	 H	1	UNK0	0.000	
53	   H	3.307	1.565	-5.901	 H	1	UNK0	0.000	
54	   H	2.589	2.090	-4.333	 H	1	UNK0	0.000	
55	   H	3.802	0.740	-4.407	 H	1	UNK0	0.000	
56	   H	8.085	1.517	-3.870	 H	1	UNK0	0.000	
@<TRIPOS>BOND
1 1 2 1
2 2 3 2
3 2 7 1
4 3 4 1
5 3 34 1
6 4 5 2
7 4 31 1
8 5 6 1
9 6 7 2
10 6 8 1
11 8 9 2
12 9 10 1
13 10 11 1
14 11 12 2
15 11 13 1
16 13 14 1
17 13 17 2
18 14 15 2
19 15 16 1
20 16 17 1
21 16 25 1
22 17 18 1
23 18 19 1
24 19 20 1
25 19 24 1
26 20 21 1
27 21 22 1
28 22 23 1
29 23 24 1
30 25 26 2
31 25 29 1
32 26 27 1
33 27 28 1
34 28 29 2
35 29 30 1
36 31 32 1
37 32 33 1
38 5 35 1
39 7 36 1
40 8 37 1
41 10 38 1
42 18 39 1
43 18 40 1
44 20 41 1
45 20 42 1
46 21 43 1
47 21 44 1
48 23 45 1
49 23 46 1
50 24 47 1
51 24 48 1
52 30 49 1
53 30 50 1
54 32 51 1
55 32 52 1
56 33 53 1
57 33 54 1
58 33 55 1
59 34 56 1
@<TRIPOS>SUBSTRUCTURE
1	UNK0	1	GROUP	1 ****	UNK
