# created with PyMOL 2.3.2
@<TRIPOS>MOLECULE
1451
50 53 1                 
SMALL
USER_CHARGES
@<TRIPOS>ATOM
1	  Br	-5.935	-6.953	-1.077	Br	1	UNK0	0.000	
2	   C	-4.537	-5.761	-1.604	C.2	1	UNK0	0.000	
3	   C	-3.451	-6.309	-2.257	C.2	1	UNK0	0.000	
4	   C	-2.438	-5.451	-2.635	C.2	1	UNK0	0.000	
5	   C	-2.513	-4.107	-2.369	C.2	1	UNK0	0.000	
6	   C	-3.577	-3.530	-1.723	C.2	1	UNK0	0.000	
7	   C	-4.596	-4.413	-1.347	C.2	1	UNK0	0.000	
8	   C	-3.706	-2.126	-1.401	C.2	1	UNK0	0.000	
9	   N	-2.985	-1.174	-1.556	N.2	1	UNK0	0.000	
10	   N	-2.219	-0.167	-1.721	N.pl3	1	UNK0	0.000	
11	   C	-1.350	0.341	-0.651	C.2	1	UNK0	0.000	
12	   O	-1.424	-0.299	0.414	O.2	1	UNK0	0.000	
13	   C	-0.521	1.491	-0.908	C.2	1	UNK0	0.000	
14	   N	-0.160	1.933	-2.161	N.2	1	UNK0	0.000	
15	   N	0.629	2.966	-2.030	N.2	1	UNK0	0.000	
16	   N	0.818	3.244	-0.746	N.pl3	1	UNK0	0.000	
17	   C	0.112	2.343	-0.037	C.2	1	UNK0	0.000	
18	   C	-0.058	2.422	1.431	C.2	1	UNK0	0.000	
19	   C	0.941	2.904	2.258	C.2	1	UNK0	0.000	
20	   C	0.757	3.088	3.636	C.2	1	UNK0	0.000	
21	   C	-0.444	2.789	4.221	C.2	1	UNK0	0.000	
22	   C	-1.452	2.308	3.418	C.2	1	UNK0	0.000	
23	   C	-1.251	2.131	2.037	C.2	1	UNK0	0.000	
24	   C	-0.686	2.965	5.682	C.3	1	UNK0	0.000	
25	   C	1.606	4.320	-0.231	C.2	1	UNK0	0.000	
26	   N	1.090	5.360	0.445	N.2	1	UNK0	0.000	
27	   O	2.047	6.179	0.763	O.3	1	UNK0	0.000	
28	   N	3.176	5.694	0.308	N.2	1	UNK0	0.000	
29	   C	2.962	4.537	-0.320	C.2	1	UNK0	0.000	
30	   N	3.918	3.695	-0.941	N.4	1	UNK0	0.000	
31	   O	-1.348	-5.994	-3.290	O.3	1	UNK0	0.000	
32	   C	-0.306	-5.124	-3.684	C.3	1	UNK0	0.000	
33	   O	-3.409	-7.675	-2.510	O.2	1	UNK0	0.000	
34	   H	-1.710	-3.415	-2.664	 H	1	UNK0	0.000	
35	   H	-5.459	-4.010	-0.834	 H	1	UNK0	0.000	
36	   H	-4.665	-1.776	-0.890	 H	1	UNK0	0.000	
37	   H	-2.122	0.419	-2.624	 H	1	UNK0	0.000	
38	   H	1.909	3.122	1.830	 H	1	UNK0	0.000	
39	   H	1.561	3.468	4.244	 H	1	UNK0	0.000	
40	   H	-2.399	2.073	3.872	 H	1	UNK0	0.000	
41	   H	-2.096	1.802	1.457	 H	1	UNK0	0.000	
42	   H	-0.554	1.993	6.224	 H	1	UNK0	0.000	
43	   H	-1.688	3.373	5.835	 H	1	UNK0	0.000	
44	   H	0.047	3.685	6.121	 H	1	UNK0	0.000	
45	   H	4.271	2.959	-0.263	 H	1	UNK0	0.000	
46	   H	3.480	3.265	-1.772	 H	1	UNK0	0.000	
47	   H	4.782	4.244	-1.204	 H	1	UNK0	0.000	
48	   H	0.408	-5.735	-4.294	 H	1	UNK0	0.000	
49	   H	-0.705	-4.269	-4.301	 H	1	UNK0	0.000	
50	   H	0.206	-4.652	-2.816	 H	1	UNK0	0.000	
@<TRIPOS>BOND
1 1 2 1
2 2 3 2
3 2 7 1
4 3 4 1
5 3 33 1
6 4 5 2
7 4 31 1
8 5 6 1
9 6 7 2
10 6 8 1
11 8 9 2
12 9 10 1
13 10 11 1
14 11 12 2
15 11 13 1
16 13 14 1
17 13 17 2
18 14 15 2
19 15 16 1
20 16 17 1
21 16 25 1
22 17 18 1
23 18 19 2
24 18 23 1
25 19 20 1
26 20 21 2
27 21 22 1
28 21 24 1
29 22 23 2
30 25 26 2
31 25 29 1
32 26 27 1
33 27 28 1
34 28 29 2
35 29 30 1
36 31 32 1
37 5 34 1
38 7 35 1
39 8 36 1
40 10 37 1
41 19 38 1
42 20 39 1
43 22 40 1
44 23 41 1
45 24 42 1
46 24 43 1
47 24 44 1
48 30 45 1
49 30 46 1
50 30 47 1
51 32 48 1
52 32 49 1
53 32 50 1
@<TRIPOS>SUBSTRUCTURE
1	UNK0	1	GROUP	1 ****	UNK
