# created with PyMOL 2.3.2
@<TRIPOS>MOLECULE
1457
46 49 1                 
SMALL
USER_CHARGES
@<TRIPOS>ATOM
1	  Br	0.672	-1.729	-4.616	Br	1	UNK0	0.000	
2	   C	1.245	-1.486	-2.802	C.2	1	UNK0	0.000	
3	   C	2.171	-2.388	-2.324	C.2	1	UNK0	0.000	
4	   C	2.591	-2.219	-1.009	C.2	1	UNK0	0.000	
5	   C	2.102	-1.198	-0.226	C.2	1	UNK0	0.000	
6	   C	1.173	-0.294	-0.707	C.2	1	UNK0	0.000	
7	   C	0.755	-0.463	-2.014	C.2	1	UNK0	0.000	
8	   C	0.626	0.809	0.085	C.3	1	UNK0	0.000	
9	   N	0.242	0.495	1.426	N.4	1	UNK0	0.000	
10	   C	-0.954	-0.260	1.576	C.3	1	UNK0	0.000	
11	   C	-1.721	-0.536	0.320	C.3	1	UNK0	0.000	
12	   C	-1.741	0.709	-0.486	C.2	1	UNK0	0.000	
13	   C	-2.675	1.416	-1.192	C.2	1	UNK0	0.000	
14	   C	-2.066	2.541	-1.753	C.2	1	UNK0	0.000	
15	   N	-0.780	2.478	-1.367	N.pl3	1	UNK0	0.000	
16	   C	-0.552	1.393	-0.608	C.2	1	UNK0	0.000	
17	   C	-2.808	3.427	-2.522	C.2	1	UNK0	0.000	
18	   C	-4.151	3.185	-2.727	C.2	1	UNK0	0.000	
19	   C	-4.752	2.073	-2.172	C.2	1	UNK0	0.000	
20	   C	-4.020	1.189	-1.407	C.2	1	UNK0	0.000	
21	   C	-1.893	0.442	2.506	C.2	1	UNK0	0.000	
22	   O	-2.875	-0.167	3.003	O.co2	1	UNK0	0.000	
23	   O	-1.725	1.774	2.856	O.co2	1	UNK0	0.000	
24	   O	3.534	-3.113	-0.478	O.3	1	UNK0	0.000	
25	   C	3.964	-2.952	0.846	C.3	1	UNK0	0.000	
26	   O	2.678	-3.425	-3.094	O.3	1	UNK0	0.000	
27	   C	2.053	-4.709	-3.131	C.3	1	UNK0	0.000	
28	   H	2.415	-1.048	0.798	 H	1	UNK0	0.000	
29	   H	0.017	0.220	-2.464	 H	1	UNK0	0.000	
30	   H	1.400	1.624	0.089	 H	1	UNK0	0.000	
31	   H	0.097	1.428	1.907	 H	1	UNK0	0.000	
32	   H	0.996	0.041	1.988	 H	1	UNK0	0.000	
33	   H	-0.739	-1.249	2.043	 H	1	UNK0	0.000	
34	   H	-1.350	-1.390	-0.264	 H	1	UNK0	0.000	
35	   H	-2.756	-0.817	0.637	 H	1	UNK0	0.000	
36	   H	-0.041	3.183	-1.623	 H	1	UNK0	0.000	
37	   H	-2.345	4.298	-2.959	 H	1	UNK0	0.000	
38	   H	-4.769	3.867	-3.332	 H	1	UNK0	0.000	
39	   H	-5.821	1.903	-2.350	 H	1	UNK0	0.000	
40	   H	-4.468	0.302	-0.956	 H	1	UNK0	0.000	
41	   H	4.633	-2.079	0.982	 H	1	UNK0	0.000	
42	   H	3.125	-2.810	1.567	 H	1	UNK0	0.000	
43	   H	4.497	-3.876	1.183	 H	1	UNK0	0.000	
44	   H	1.865	-5.119	-2.135	 H	1	UNK0	0.000	
45	   H	1.035	-4.541	-3.590	 H	1	UNK0	0.000	
46	   H	2.590	-5.362	-3.819	 H	1	UNK0	0.000	
@<TRIPOS>BOND
1 1 2 1
2 2 3 2
3 2 7 1
4 3 4 1
5 3 26 1
6 4 5 2
7 4 24 1
8 5 6 1
9 6 7 2
10 6 8 1
11 8 9 1
12 8 16 1
13 9 10 1
14 10 11 1
15 10 21 1
16 11 12 1
17 12 13 1
18 12 16 2
19 13 14 2
20 13 20 1
21 14 15 1
22 14 17 1
23 15 16 1
24 17 18 2
25 18 19 1
26 19 20 2
27 21 22 2
28 21 23 1
29 24 25 1
30 26 27 1
31 5 28 1
32 7 29 1
33 8 30 1
34 9 31 1
35 9 32 1
36 10 33 1
37 11 34 1
38 11 35 1
39 15 36 1
40 17 37 1
41 18 38 1
42 19 39 1
43 20 40 1
44 25 41 1
45 25 42 1
46 25 43 1
47 27 44 1
48 27 45 1
49 27 46 1
@<TRIPOS>SUBSTRUCTURE
1	UNK0	1	GROUP	1 ****	UNK
