# created with PyMOL 2.3.2
@<TRIPOS>MOLECULE
1458
43 46 1                 
SMALL
USER_CHARGES
@<TRIPOS>ATOM
1	  Br	1.929	-0.111	6.062	Br	1	UNK0	0.000	
2	   C	0.565	-0.352	4.764	C.2	1	UNK0	0.000	
3	   C	-0.744	-0.095	5.115	C.2	1	UNK0	0.000	
4	   C	-1.741	-0.268	4.177	C.2	1	UNK0	0.000	
5	   C	-1.401	-0.693	2.919	C.2	1	UNK0	0.000	
6	   C	-0.102	-0.960	2.534	C.2	1	UNK0	0.000	
7	   C	0.893	-0.785	3.474	C.2	1	UNK0	0.000	
8	   C	0.188	-1.411	1.169	C.3	1	UNK0	0.000	
9	   N	1.115	-2.522	1.133	N.4	1	UNK0	0.000	
10	   C	1.243	-3.064	-0.176	C.3	1	UNK0	0.000	
11	   C	1.125	-2.090	-1.294	C.3	1	UNK0	0.000	
12	   C	1.285	-0.683	-0.886	C.2	1	UNK0	0.000	
13	   C	1.823	0.417	-1.488	C.2	1	UNK0	0.000	
14	   C	1.669	1.448	-0.585	C.2	1	UNK0	0.000	
15	   N	1.057	0.986	0.530	N.pl3	1	UNK0	0.000	
16	   C	0.818	-0.316	0.356	C.2	1	UNK0	0.000	
17	   C	2.129	2.691	-0.936	C.2	1	UNK0	0.000	
18	   C	2.739	2.917	-2.175	C.2	1	UNK0	0.000	
19	   C	2.898	1.898	-3.086	C.2	1	UNK0	0.000	
20	   C	2.432	0.656	-2.719	C.2	1	UNK0	0.000	
21	   C	0.217	-4.152	-0.354	C.2	1	UNK0	0.000	
22	   O	0.414	-5.207	0.307	O.co2	1	UNK0	0.000	
23	   O	-0.861	-3.982	-1.192	O.co2	1	UNK0	0.000	
24	   O	-3.043	0.004	4.579	O.3	1	UNK0	0.000	
25	   C	-4.055	-0.181	3.596	C.3	1	UNK0	0.000	
26	   O	-1.015	0.335	6.418	O.3	1	UNK0	0.000	
27	   H	-2.191	-0.822	2.202	 H	1	UNK0	0.000	
28	   H	1.935	-0.984	3.215	 H	1	UNK0	0.000	
29	   H	-0.736	-1.723	0.654	 H	1	UNK0	0.000	
30	   H	2.006	-2.184	1.552	 H	1	UNK0	0.000	
31	   H	0.738	-3.253	1.788	 H	1	UNK0	0.000	
32	   H	2.230	-3.597	-0.234	 H	1	UNK0	0.000	
33	   H	0.090	-2.179	-1.727	 H	1	UNK0	0.000	
34	   H	1.883	-2.332	-2.095	 H	1	UNK0	0.000	
35	   H	0.800	1.522	1.395	 H	1	UNK0	0.000	
36	   H	2.007	3.507	-0.222	 H	1	UNK0	0.000	
37	   H	3.069	3.932	-2.362	 H	1	UNK0	0.000	
38	   H	3.375	2.125	-4.027	 H	1	UNK0	0.000	
39	   H	2.548	-0.157	-3.419	 H	1	UNK0	0.000	
40	   H	-4.080	-1.248	3.293	 H	1	UNK0	0.000	
41	   H	-5.060	0.055	3.994	 H	1	UNK0	0.000	
42	   H	-3.810	0.395	2.683	 H	1	UNK0	0.000	
43	   H	-1.947	0.539	6.736	 H	1	UNK0	0.000	
@<TRIPOS>BOND
1 1 2 1
2 2 3 2
3 2 7 1
4 3 4 1
5 3 26 1
6 4 5 2
7 4 24 1
8 5 6 1
9 6 7 2
10 6 8 1
11 8 9 1
12 8 16 1
13 9 10 1
14 10 11 1
15 10 21 1
16 11 12 1
17 12 13 1
18 12 16 2
19 13 14 2
20 13 20 1
21 14 15 1
22 14 17 1
23 15 16 1
24 17 18 2
25 18 19 1
26 19 20 2
27 21 22 2
28 21 23 1
29 24 25 1
30 5 27 1
31 7 28 1
32 8 29 1
33 9 30 1
34 9 31 1
35 10 32 1
36 11 33 1
37 11 34 1
38 15 35 1
39 17 36 1
40 18 37 1
41 19 38 1
42 20 39 1
43 25 40 1
44 25 41 1
45 25 42 1
46 26 43 1
@<TRIPOS>SUBSTRUCTURE
1	UNK0	1	GROUP	1 ****	UNK
