# created with PyMOL 2.3.2
@<TRIPOS>MOLECULE
1459
53 56 1                 
SMALL
USER_CHARGES
@<TRIPOS>ATOM
1	  Br	-5.344	-0.005	-3.996	Br	1	UNK0	0.000	
2	   C	-3.518	0.073	-4.498	C.2	1	UNK0	0.000	
3	   C	-2.534	-0.478	-3.694	C.2	1	UNK0	0.000	
4	   C	-1.211	-0.432	-4.034	C.2	1	UNK0	0.000	
5	   C	-0.875	0.194	-5.227	C.2	1	UNK0	0.000	
6	   C	-1.816	0.754	-6.055	C.2	1	UNK0	0.000	
7	   C	-3.141	0.689	-5.683	C.2	1	UNK0	0.000	
8	   N	-1.463	1.387	-7.275	N.pl3	1	UNK0	0.000	
9	   O	-0.273	1.444	-7.631	O.2	1	UNK0	0.000	
10	   O	-2.403	1.952	-8.099	O.2	1	UNK0	0.000	
11	   C	-0.189	-1.026	-3.188	C.2	1	UNK0	0.000	
12	   N	-0.422	-1.641	-2.085	N.2	1	UNK0	0.000	
13	   N	0.666	-2.179	-1.343	N.pl3	1	UNK0	0.000	
14	   C	0.841	-1.794	0.003	C.2	1	UNK0	0.000	
15	   N	0.558	-2.639	0.992	N.2	1	UNK0	0.000	
16	   C	0.726	-2.272	2.281	C.2	1	UNK0	0.000	
17	   N	1.182	-1.039	2.526	N.2	1	UNK0	0.000	
18	   C	1.486	-0.136	1.577	C.2	1	UNK0	0.000	
19	   N	1.299	-0.559	0.299	N.2	1	UNK0	0.000	
20	   N	1.927	1.166	1.862	N.pl3	1	UNK0	0.000	
21	   C	1.702	1.796	3.134	C.3	1	UNK0	0.000	
22	   C	1.187	3.214	2.964	C.3	1	UNK0	0.000	
23	   O	1.729	3.862	1.888	O.3	1	UNK0	0.000	
24	   C	1.750	3.175	0.698	C.3	1	UNK0	0.000	
25	   C	2.634	1.925	0.881	C.3	1	UNK0	0.000	
26	   N	0.406	-3.202	3.277	N.pl3	1	UNK0	0.000	
27	   C	1.154	-3.227	4.510	C.3	1	UNK0	0.000	
28	   C	0.129	-2.981	5.628	C.3	1	UNK0	0.000	
29	   O	-1.133	-2.862	5.082	O.3	1	UNK0	0.000	
30	   C	-1.566	-3.956	4.364	C.3	1	UNK0	0.000	
31	   C	-0.683	-4.120	3.119	C.3	1	UNK0	0.000	
32	   O	-2.907	-1.095	-2.504	O.3	1	UNK0	0.000	
33	   H	0.156	0.246	-5.522	 H	1	UNK0	0.000	
34	   H	-3.889	1.139	-6.350	 H	1	UNK0	0.000	
35	   H	0.866	-0.968	-3.468	 H	1	UNK0	0.000	
36	   H	1.297	-2.839	-1.824	 H	1	UNK0	0.000	
37	   H	2.672	1.856	3.660	 H	1	UNK0	0.000	
38	   H	0.954	1.253	3.758	 H	1	UNK0	0.000	
39	   H	1.472	3.754	3.886	 H	1	UNK0	0.000	
40	   H	0.085	3.168	2.970	 H	1	UNK0	0.000	
41	   H	0.774	2.801	0.348	 H	1	UNK0	0.000	
42	   H	2.236	3.791	-0.055	 H	1	UNK0	0.000	
43	   H	3.641	2.262	1.251	 H	1	UNK0	0.000	
44	   H	2.731	1.347	-0.050	 H	1	UNK0	0.000	
45	   H	1.951	-2.471	4.502	 H	1	UNK0	0.000	
46	   H	1.621	-4.238	4.664	 H	1	UNK0	0.000	
47	   H	0.404	-1.983	6.058	 H	1	UNK0	0.000	
48	   H	0.209	-3.769	6.407	 H	1	UNK0	0.000	
49	   H	-1.554	-4.884	4.984	 H	1	UNK0	0.000	
50	   H	-2.597	-3.740	4.006	 H	1	UNK0	0.000	
51	   H	-0.342	-5.180	3.114	 H	1	UNK0	0.000	
52	   H	-1.278	-3.929	2.197	 H	1	UNK0	0.000	
53	   H	-3.871	-1.143	-2.227	 H	1	UNK0	0.000	
@<TRIPOS>BOND
1 1 2 1
2 2 3 2
3 2 7 1
4 3 4 1
5 3 32 1
6 4 5 2
7 4 11 1
8 5 6 1
9 6 7 2
10 6 8 1
11 8 9 2
12 8 10 1
13 11 12 2
14 12 13 1
15 13 14 1
16 14 15 2
17 14 19 1
18 15 16 1
19 16 17 2
20 16 26 1
21 17 18 1
22 18 19 2
23 18 20 1
24 20 21 1
25 20 25 1
26 21 22 1
27 22 23 1
28 23 24 1
29 24 25 1
30 26 27 1
31 26 31 1
32 27 28 1
33 28 29 1
34 29 30 1
35 30 31 1
36 5 33 1
37 7 34 1
38 11 35 1
39 13 36 1
40 21 37 1
41 21 38 1
42 22 39 1
43 22 40 1
44 24 41 1
45 24 42 1
46 25 43 1
47 25 44 1
48 27 45 1
49 27 46 1
50 28 47 1
51 28 48 1
52 30 49 1
53 30 50 1
54 31 51 1
55 31 52 1
56 32 53 1
@<TRIPOS>SUBSTRUCTURE
1	UNK0	1	GROUP	1 ****	UNK
