# created with PyMOL 2.3.2
@<TRIPOS>MOLECULE
1460
46 49 1                 
SMALL
USER_CHARGES
@<TRIPOS>ATOM
1	  Br	-1.609	-4.627	-2.629	Br	1	UNK0	0.000	
2	   C	-2.212	-3.081	-1.705	C.2	1	UNK0	0.000	
3	   C	-3.454	-2.465	-2.010	C.2	1	UNK0	0.000	
4	   C	-3.935	-1.358	-1.334	C.2	1	UNK0	0.000	
5	   C	-3.169	-0.859	-0.310	C.2	1	UNK0	0.000	
6	   C	-1.963	-1.455	-0.005	C.2	1	UNK0	0.000	
7	   C	-1.485	-2.524	-0.684	C.2	1	UNK0	0.000	
8	   C	-0.065	-2.943	-0.424	C.3	1	UNK0	0.000	
9	   N	0.791	-1.786	-0.504	N.4	1	UNK0	0.000	
10	   C	2.146	-1.830	-0.097	C.3	1	UNK0	0.000	
11	   C	2.441	-0.955	1.102	C.3	1	UNK0	0.000	
12	   C	3.265	0.252	0.763	C.3	1	UNK0	0.000	
13	   N	2.539	1.513	0.757	N.pl3	1	UNK0	0.000	
14	   C	1.201	1.598	0.646	C.2	1	UNK0	0.000	
15	   C	0.583	2.793	0.600	C.2	1	UNK0	0.000	
16	   C	1.289	3.998	0.669	C.2	1	UNK0	0.000	
17	   C	2.658	3.916	0.791	C.2	1	UNK0	0.000	
18	   C	3.247	2.647	0.830	C.2	1	UNK0	0.000	
19	   O	4.508	2.647	0.932	O.2	1	UNK0	0.000	
20	   C	0.437	0.338	0.709	C.3	1	UNK0	0.000	
21	   C	0.280	-0.437	-0.532	C.3	1	UNK0	0.000	
22	   C	1.178	-0.487	1.774	C.3	1	UNK0	0.000	
23	   O	-5.161	-0.778	-1.722	O.3	1	UNK0	0.000	
24	   C	-5.461	0.475	-1.074	C.3	1	UNK0	0.000	
25	   O	-4.178	-3.034	-3.024	O.2	1	UNK0	0.000	
26	   H	-3.443	-0.023	0.285	 H	1	UNK0	0.000	
27	   H	-1.454	-1.145	0.931	 H	1	UNK0	0.000	
28	   H	0.154	-3.759	-1.115	 H	1	UNK0	0.000	
29	   H	-0.034	-3.411	0.616	 H	1	UNK0	0.000	
30	   H	0.948	-1.886	-1.660	 H	1	UNK0	0.000	
31	   H	2.726	-1.297	-0.957	 H	1	UNK0	0.000	
32	   H	2.563	-2.820	-0.104	 H	1	UNK0	0.000	
33	   H	2.967	-1.621	1.824	 H	1	UNK0	0.000	
34	   H	4.021	0.353	1.564	 H	1	UNK0	0.000	
35	   H	3.859	0.153	-0.179	 H	1	UNK0	0.000	
36	   H	-0.475	2.877	0.505	 H	1	UNK0	0.000	
37	   H	0.827	4.968	0.637	 H	1	UNK0	0.000	
38	   H	3.277	4.824	0.849	 H	1	UNK0	0.000	
39	   H	-0.554	0.583	1.163	 H	1	UNK0	0.000	
40	   H	-0.558	-0.323	-1.181	 H	1	UNK0	0.000	
41	   H	1.112	0.090	-1.225	 H	1	UNK0	0.000	
42	   H	1.491	0.217	2.556	 H	1	UNK0	0.000	
43	   H	0.578	-1.267	2.205	 H	1	UNK0	0.000	
44	   H	-5.143	1.207	-1.967	 H	1	UNK0	0.000	
45	   H	-6.492	0.639	-0.807	 H	1	UNK0	0.000	
46	   H	-4.728	0.741	-0.320	 H	1	UNK0	0.000	
@<TRIPOS>BOND
1 1 2 1
2 2 3 2
3 2 7 1
4 3 4 1
5 3 25 1
6 4 5 2
7 4 23 1
8 5 6 1
9 6 7 2
10 7 8 1
11 8 9 1
12 9 10 1
13 9 21 1
14 10 11 1
15 11 12 1
16 11 22 1
17 12 13 1
18 13 14 1
19 13 18 1
20 14 15 2
21 14 20 1
22 15 16 1
23 16 17 2
24 17 18 1
25 18 19 2
26 20 21 1
27 20 22 1
28 23 24 1
29 5 26 1
30 6 27 1
31 8 28 1
32 8 29 1
33 9 30 1
34 10 31 1
35 10 32 1
36 11 33 1
37 12 34 1
38 12 35 1
39 15 36 1
40 16 37 1
41 17 38 1
42 20 39 1
43 21 40 1
44 21 41 1
45 22 42 1
46 22 43 1
47 24 44 1
48 24 45 1
49 24 46 1
@<TRIPOS>SUBSTRUCTURE
1	UNK0	1	GROUP	1 ****	UNK
