# created with PyMOL 2.3.2
@<TRIPOS>MOLECULE
1461
61 64 1                 
SMALL
USER_CHARGES
@<TRIPOS>ATOM
1	  Cl	-3.277	-1.218	4.715	Cl	1	UNK0	0.000	
2	   C	-3.121	-0.366	3.183	C.2	1	UNK0	0.000	
3	   C	-2.713	-1.039	2.065	C.2	1	UNK0	0.000	
4	   C	-2.564	-0.453	0.828	C.2	1	UNK0	0.000	
5	   C	-2.861	0.914	0.770	C.2	1	UNK0	0.000	
6	   C	-3.273	1.612	1.886	C.2	1	UNK0	0.000	
7	   C	-3.401	0.960	3.096	C.2	1	UNK0	0.000	
8	   O	-2.733	1.567	-0.436	O.3	1	UNK0	0.000	
9	   C	-2.979	2.910	-0.696	C.3	1	UNK0	0.000	
10	   N	-2.138	-1.177	-0.317	N.pl3	1	UNK0	0.000	
11	   C	-0.942	-1.974	-0.394	C.3	1	UNK0	0.000	
12	   C	-0.774	-2.474	-1.774	C.3	1	UNK0	0.000	
13	   C	-1.824	-1.744	-2.570	C.3	1	UNK0	0.000	
14	   C	-2.803	-1.240	-1.567	C.2	1	UNK0	0.000	
15	   O	-3.990	-0.946	-1.858	O.2	1	UNK0	0.000	
16	   C	0.591	-2.283	-2.333	C.2	1	UNK0	0.000	
17	   O	1.224	-3.350	-2.653	O.2	1	UNK0	0.000	
18	   N	1.234	-1.065	-2.538	N.pl3	1	UNK0	0.000	
19	   C	0.725	0.258	-2.259	C.3	1	UNK0	0.000	
20	   C	1.805	1.165	-1.719	C.3	1	UNK0	0.000	
21	   N	2.946	0.491	-1.226	N.3	1	UNK0	0.000	
22	   C	3.506	-0.511	-2.071	C.3	1	UNK0	0.000	
23	   C	2.595	-1.067	-3.102	C.3	1	UNK0	0.000	
24	   C	2.970	0.190	0.162	C.3	1	UNK0	0.000	
25	   C	3.082	1.404	0.997	C.2	1	UNK0	0.000	
26	   O	3.141	2.516	0.422	O.2	1	UNK0	0.000	
27	   N	3.125	1.362	2.406	N.pl3	1	UNK0	0.000	
28	   C	3.055	0.067	3.061	C.3	1	UNK0	0.000	
29	   C	2.581	0.156	4.481	C.3	1	UNK0	0.000	
30	   O	2.820	1.365	5.087	O.3	1	UNK0	0.000	
31	   C	2.300	2.437	4.352	C.3	1	UNK0	0.000	
32	   C	3.237	2.599	3.147	C.3	1	UNK0	0.000	
33	   H	-2.493	-2.097	2.157	 H	1	UNK0	0.000	
34	   H	-3.513	2.661	1.893	 H	1	UNK0	0.000	
35	   H	-3.722	1.471	3.996	 H	1	UNK0	0.000	
36	   H	-3.005	3.584	0.160	 H	1	UNK0	0.000	
37	   H	-2.215	3.242	-1.451	 H	1	UNK0	0.000	
38	   H	-3.964	2.960	-1.246	 H	1	UNK0	0.000	
39	   H	-1.143	-2.849	0.305	 H	1	UNK0	0.000	
40	   H	-0.050	-1.435	0.007	 H	1	UNK0	0.000	
41	   H	-1.012	-3.585	-1.762	 H	1	UNK0	0.000	
42	   H	-2.398	-2.520	-3.160	 H	1	UNK0	0.000	
43	   H	-1.436	-0.963	-3.239	 H	1	UNK0	0.000	
44	   H	-0.181	0.266	-1.640	 H	1	UNK0	0.000	
45	   H	0.389	0.661	-3.261	 H	1	UNK0	0.000	
46	   H	1.359	1.756	-0.887	 H	1	UNK0	0.000	
47	   H	2.104	1.899	-2.493	 H	1	UNK0	0.000	
48	   H	4.379	-0.044	-2.609	 H	1	UNK0	0.000	
49	   H	3.958	-1.296	-1.418	 H	1	UNK0	0.000	
50	   H	2.888	-2.098	-3.383	 H	1	UNK0	0.000	
51	   H	2.565	-0.383	-3.989	 H	1	UNK0	0.000	
52	   H	2.049	-0.355	0.488	 H	1	UNK0	0.000	
53	   H	3.816	-0.527	0.336	 H	1	UNK0	0.000	
54	   H	4.014	-0.487	2.977	 H	1	UNK0	0.000	
55	   H	2.308	-0.538	2.502	 H	1	UNK0	0.000	
56	   H	3.136	-0.618	5.089	 H	1	UNK0	0.000	
57	   H	1.506	-0.079	4.569	 H	1	UNK0	0.000	
58	   H	1.260	2.233	3.998	 H	1	UNK0	0.000	
59	   H	2.269	3.355	4.953	 H	1	UNK0	0.000	
60	   H	4.254	2.724	3.595	 H	1	UNK0	0.000	
61	   H	2.959	3.466	2.542	 H	1	UNK0	0.000	
@<TRIPOS>BOND
1 1 2 1
2 2 3 2
3 2 7 1
4 3 4 1
5 4 5 2
6 4 10 1
7 5 6 1
8 5 8 1
9 6 7 2
10 8 9 1
11 10 11 1
12 10 14 1
13 11 12 1
14 12 13 1
15 12 16 1
16 13 14 1
17 14 15 2
18 16 17 2
19 16 18 1
20 18 19 1
21 18 23 1
22 19 20 1
23 20 21 1
24 21 22 1
25 21 24 1
26 22 23 1
27 24 25 1
28 25 26 2
29 25 27 1
30 27 28 1
31 27 32 1
32 28 29 1
33 29 30 1
34 30 31 1
35 31 32 1
36 3 33 1
37 6 34 1
38 7 35 1
39 9 36 1
40 9 37 1
41 9 38 1
42 11 39 1
43 11 40 1
44 12 41 1
45 13 42 1
46 13 43 1
47 19 44 1
48 19 45 1
49 20 46 1
50 20 47 1
51 22 48 1
52 22 49 1
53 23 50 1
54 23 51 1
55 24 52 1
56 24 53 1
57 28 54 1
58 28 55 1
59 29 56 1
60 29 57 1
61 31 58 1
62 31 59 1
63 32 60 1
64 32 61 1
@<TRIPOS>SUBSTRUCTURE
1	UNK0	1	GROUP	1 ****	UNK
