# created with PyMOL 2.3.2
@<TRIPOS>MOLECULE
1462
53 56 1                 
SMALL
USER_CHARGES
@<TRIPOS>ATOM
1	  Br	-5.431	3.196	0.885	Br	1	UNK0	0.000	
2	   C	-3.834	2.171	0.824	C.2	1	UNK0	0.000	
3	   C	-2.639	2.759	1.257	C.2	1	UNK0	0.000	
4	   C	-1.455	2.085	1.242	C.2	1	UNK0	0.000	
5	   C	-1.416	0.771	0.786	C.2	1	UNK0	0.000	
6	   C	-2.580	0.194	0.364	C.2	1	UNK0	0.000	
7	   C	-3.781	0.878	0.379	C.2	1	UNK0	0.000	
8	   C	-0.221	2.686	1.769	C.3	1	UNK0	0.000	
9	   C	-0.340	3.894	2.715	C.3	1	UNK0	0.000	
10	   C	0.001	2.505	3.233	C.3	1	UNK0	0.000	
11	   C	0.940	2.785	0.865	C.2	1	UNK0	0.000	
12	   O	2.033	3.123	1.495	O.2	1	UNK0	0.000	
13	   N	1.075	2.594	-0.489	N.pl3	1	UNK0	0.000	
14	   C	2.447	2.703	-1.059	C.3	1	UNK0	0.000	
15	   C	2.790	1.316	-1.550	C.3	1	UNK0	0.000	
16	   N	1.631	0.477	-1.717	N.pl3	1	UNK0	0.000	
17	   C	0.336	1.008	-2.113	C.3	1	UNK0	0.000	
18	   C	0.078	2.344	-1.504	C.3	1	UNK0	0.000	
19	   C	1.756	-0.910	-1.488	C.2	1	UNK0	0.000	
20	   O	2.857	-1.386	-1.147	O.2	1	UNK0	0.000	
21	   C	0.589	-1.814	-1.648	C.3	1	UNK0	0.000	
22	   N	0.867	-3.172	-1.385	N.3	1	UNK0	0.000	
23	   C	1.163	-3.533	-0.045	C.3	1	UNK0	0.000	
24	   C	2.175	-4.670	0.031	C.3	1	UNK0	0.000	
25	   O	3.237	-4.464	-0.823	O.3	1	UNK0	0.000	
26	   C	2.882	-4.388	-2.149	C.3	1	UNK0	0.000	
27	   C	1.482	-3.935	-2.407	C.3	1	UNK0	0.000	
28	   H	-2.694	3.778	1.599	 H	1	UNK0	0.000	
29	   H	-0.498	0.192	0.756	 H	1	UNK0	0.000	
30	   H	-2.622	-0.840	-0.008	 H	1	UNK0	0.000	
31	   H	-4.714	0.418	0.042	 H	1	UNK0	0.000	
32	   H	-1.325	4.305	2.932	 H	1	UNK0	0.000	
33	   H	0.493	4.634	2.721	 H	1	UNK0	0.000	
34	   H	0.993	2.392	3.662	 H	1	UNK0	0.000	
35	   H	-0.807	2.037	3.808	 H	1	UNK0	0.000	
36	   H	3.151	3.084	-0.306	 H	1	UNK0	0.000	
37	   H	2.355	3.357	-1.947	 H	1	UNK0	0.000	
38	   H	3.497	0.800	-0.881	 H	1	UNK0	0.000	
39	   H	3.274	1.389	-2.550	 H	1	UNK0	0.000	
40	   H	0.369	1.056	-3.244	 H	1	UNK0	0.000	
41	   H	-0.486	0.320	-1.862	 H	1	UNK0	0.000	
42	   H	-0.935	2.585	-1.212	 H	1	UNK0	0.000	
43	   H	0.285	3.097	-2.359	 H	1	UNK0	0.000	
44	   H	-0.200	-1.474	-0.944	 H	1	UNK0	0.000	
45	   H	0.172	-1.729	-2.677	 H	1	UNK0	0.000	
46	   H	1.524	-2.648	0.525	 H	1	UNK0	0.000	
47	   H	0.251	-3.892	0.476	 H	1	UNK0	0.000	
48	   H	1.703	-5.652	-0.097	 H	1	UNK0	0.000	
49	   H	2.585	-4.646	1.074	 H	1	UNK0	0.000	
50	   H	3.638	-3.713	-2.645	 H	1	UNK0	0.000	
51	   H	3.090	-5.397	-2.612	 H	1	UNK0	0.000	
52	   H	0.865	-4.872	-2.548	 H	1	UNK0	0.000	
53	   H	1.374	-3.388	-3.367	 H	1	UNK0	0.000	
@<TRIPOS>BOND
1 1 2 1
2 2 3 2
3 2 7 1
4 3 4 1
5 4 5 2
6 4 8 1
7 5 6 1
8 6 7 2
9 8 9 1
10 8 10 1
11 8 11 1
12 9 10 1
13 11 12 2
14 11 13 1
15 13 14 1
16 13 18 1
17 14 15 1
18 15 16 1
19 16 17 1
20 16 19 1
21 17 18 1
22 19 20 2
23 19 21 1
24 21 22 1
25 22 23 1
26 22 27 1
27 23 24 1
28 24 25 1
29 25 26 1
30 26 27 1
31 3 28 1
32 5 29 1
33 6 30 1
34 7 31 1
35 9 32 1
36 9 33 1
37 10 34 1
38 10 35 1
39 14 36 1
40 14 37 1
41 15 38 1
42 15 39 1
43 17 40 1
44 17 41 1
45 18 42 1
46 18 43 1
47 21 44 1
48 21 45 1
49 23 46 1
50 23 47 1
51 24 48 1
52 24 49 1
53 26 50 1
54 26 51 1
55 27 52 1
56 27 53 1
@<TRIPOS>SUBSTRUCTURE
1	UNK0	1	GROUP	1 ****	UNK
