# created with PyMOL 2.3.2
@<TRIPOS>MOLECULE
1463
49 52 1                 
SMALL
USER_CHARGES
@<TRIPOS>ATOM
1	  Br	-1.865	-3.540	5.736	Br	1	UNK0	0.000	
2	   C	-0.913	-3.260	4.093	C.2	1	UNK0	0.000	
3	   C	0.449	-3.071	4.186	C.2	1	UNK0	0.000	
4	   C	1.153	-2.866	3.018	C.2	1	UNK0	0.000	
5	   N	2.466	-2.650	2.764	N.2	1	UNK0	0.000	
6	   N	2.634	-2.509	1.467	N.pl3	1	UNK0	0.000	
7	   C	1.449	-2.624	0.801	C.2	1	UNK0	0.000	
8	   C	0.499	-2.852	1.788	C.2	1	UNK0	0.000	
9	   C	-0.863	-3.044	1.717	C.2	1	UNK0	0.000	
10	   C	-1.571	-3.249	2.882	C.2	1	UNK0	0.000	
11	   N	1.270	-2.519	-0.579	N.pl3	1	UNK0	0.000	
12	   C	0.107	-2.337	-1.405	C.3	1	UNK0	0.000	
13	   C	0.578	-1.573	-2.642	C.3	1	UNK0	0.000	
14	   C	2.019	-1.842	-2.756	C.3	1	UNK0	0.000	
15	   C	2.362	-2.569	-1.533	C.2	1	UNK0	0.000	
16	   O	3.459	-3.163	-1.327	O.2	1	UNK0	0.000	
17	   C	0.296	-0.125	-2.484	C.2	1	UNK0	0.000	
18	   O	0.064	0.532	-3.512	O.2	1	UNK0	0.000	
19	   N	0.292	0.472	-1.212	N.pl3	1	UNK0	0.000	
20	   C	0.013	1.870	-0.990	C.3	1	UNK0	0.000	
21	   C	-1.357	2.225	-1.502	C.3	1	UNK0	0.000	
22	   N	-2.339	1.419	-0.856	N.3	1	UNK0	0.000	
23	   C	-3.680	1.663	-1.367	C.3	1	UNK0	0.000	
24	   C	-4.767	0.992	-0.624	C.3	1	UNK0	0.000	
25	   O	-4.441	0.135	0.371	O.3	1	UNK0	0.000	
26	   C	-3.226	0.200	0.958	C.3	1	UNK0	0.000	
27	   C	-2.376	1.421	0.561	C.3	1	UNK0	0.000	
28	   H	0.972	-3.079	5.143	 H	1	UNK0	0.000	
29	   H	3.539	-2.330	0.948	 H	1	UNK0	0.000	
30	   H	-1.344	-3.038	0.748	 H	1	UNK0	0.000	
31	   H	-2.629	-3.396	2.821	 H	1	UNK0	0.000	
32	   H	-0.665	-1.659	-0.968	 H	1	UNK0	0.000	
33	   H	-0.376	-3.254	-1.747	 H	1	UNK0	0.000	
34	   H	0.073	-1.984	-3.553	 H	1	UNK0	0.000	
35	   H	2.285	-2.502	-3.632	 H	1	UNK0	0.000	
36	   H	2.614	-0.902	-2.896	 H	1	UNK0	0.000	
37	   H	0.501	-0.096	-0.340	 H	1	UNK0	0.000	
38	   H	0.072	2.174	0.071	 H	1	UNK0	0.000	
39	   H	0.808	2.450	-1.527	 H	1	UNK0	0.000	
40	   H	-1.394	2.060	-2.599	 H	1	UNK0	0.000	
41	   H	-1.536	3.320	-1.378	 H	1	UNK0	0.000	
42	   H	-3.614	1.387	-2.453	 H	1	UNK0	0.000	
43	   H	-3.864	2.767	-1.369	 H	1	UNK0	0.000	
44	   H	-5.557	1.745	-0.317	 H	1	UNK0	0.000	
45	   H	-5.328	0.371	-1.394	 H	1	UNK0	0.000	
46	   H	-3.220	0.068	2.068	 H	1	UNK0	0.000	
47	   H	-2.631	-0.689	0.583	 H	1	UNK0	0.000	
48	   H	-2.791	2.344	1.019	 H	1	UNK0	0.000	
49	   H	-1.375	1.186	0.971	 H	1	UNK0	0.000	
@<TRIPOS>BOND
1 1 2 1
2 2 3 2
3 2 10 1
4 3 4 1
5 4 5 2
6 4 8 1
7 5 6 1
8 6 7 1
9 7 8 2
10 7 11 1
11 8 9 1
12 9 10 2
13 11 12 1
14 11 15 1
15 12 13 1
16 13 14 1
17 13 17 1
18 14 15 1
19 15 16 2
20 17 18 2
21 17 19 1
22 19 20 1
23 20 21 1
24 21 22 1
25 22 23 1
26 22 27 1
27 23 24 1
28 24 25 1
29 25 26 1
30 26 27 1
31 3 28 1
32 6 29 1
33 9 30 1
34 10 31 1
35 12 32 1
36 12 33 1
37 13 34 1
38 14 35 1
39 14 36 1
40 19 37 1
41 20 38 1
42 20 39 1
43 21 40 1
44 21 41 1
45 23 42 1
46 23 43 1
47 24 44 1
48 24 45 1
49 26 46 1
50 26 47 1
51 27 48 1
52 27 49 1
@<TRIPOS>SUBSTRUCTURE
1	UNK0	1	GROUP	1 ****	UNK
