# created with PyMOL 2.3.2
@<TRIPOS>MOLECULE
1464
52 55 1                 
SMALL
USER_CHARGES
@<TRIPOS>ATOM
1	  Br	-7.545	-0.393	-0.009	Br	1	UNK0	0.000	
2	   C	-5.893	0.558	-0.076	C.2	1	UNK0	0.000	
3	   C	-5.350	0.976	-1.271	C.2	1	UNK0	0.000	
4	   N	-4.189	1.634	-1.210	N.2	1	UNK0	0.000	
5	   C	-3.553	1.893	-0.055	C.2	1	UNK0	0.000	
6	   N	-4.095	1.480	1.090	N.2	1	UNK0	0.000	
7	   C	-5.247	0.819	1.113	C.2	1	UNK0	0.000	
8	   N	-2.296	2.609	-0.064	N.pl3	1	UNK0	0.000	
9	   C	-1.746	3.052	-1.302	C.3	1	UNK0	0.000	
10	   C	-0.239	3.033	-1.336	C.3	1	UNK0	0.000	
11	   N	0.405	2.844	-0.110	N.3	1	UNK0	0.000	
12	   C	-0.233	3.159	1.094	C.3	1	UNK0	0.000	
13	   C	-1.676	2.823	1.223	C.3	1	UNK0	0.000	
14	   C	1.462	1.891	-0.066	C.3	1	UNK0	0.000	
15	   C	1.022	0.487	-0.239	C.2	1	UNK0	0.000	
16	   O	-0.205	0.281	-0.401	O.2	1	UNK0	0.000	
17	   N	1.924	-0.585	-0.228	N.pl3	1	UNK0	0.000	
18	   C	1.445	-1.951	-0.400	C.3	1	UNK0	0.000	
19	   C	2.563	-2.949	-0.376	C.3	1	UNK0	0.000	
20	   O	3.460	-2.757	0.649	O.3	1	UNK0	0.000	
21	   C	3.977	-1.515	0.775	C.3	1	UNK0	0.000	
22	   C	3.357	-0.446	-0.053	C.3	1	UNK0	0.000	
23	   C	1.940	-4.317	-0.184	C.3	1	UNK0	0.000	
24	   C	0.512	-4.385	-0.627	C.3	1	UNK0	0.000	
25	   C	-0.400	-3.439	0.121	C.3	1	UNK0	0.000	
26	   C	0.474	-2.350	0.706	C.3	1	UNK0	0.000	
27	   H	-5.876	0.759	-2.187	 H	1	UNK0	0.000	
28	   H	-5.700	0.474	2.069	 H	1	UNK0	0.000	
29	   H	-2.156	4.086	-1.500	 H	1	UNK0	0.000	
30	   H	-2.099	2.445	-2.162	 H	1	UNK0	0.000	
31	   H	0.145	2.263	-2.070	 H	1	UNK0	0.000	
32	   H	0.082	4.007	-1.778	 H	1	UNK0	0.000	
33	   H	-0.142	4.272	1.266	 H	1	UNK0	0.000	
34	   H	0.323	2.681	1.930	 H	1	UNK0	0.000	
35	   H	-2.256	3.620	1.732	 H	1	UNK0	0.000	
36	   H	-1.780	1.913	1.854	 H	1	UNK0	0.000	
37	   H	2.152	2.110	-0.915	 H	1	UNK0	0.000	
38	   H	2.038	2.028	0.867	 H	1	UNK0	0.000	
39	   H	0.920	-2.043	-1.367	 H	1	UNK0	0.000	
40	   H	3.142	-2.931	-1.336	 H	1	UNK0	0.000	
41	   H	5.069	-1.562	0.488	 H	1	UNK0	0.000	
42	   H	4.002	-1.204	1.853	 H	1	UNK0	0.000	
43	   H	3.538	0.530	0.442	 H	1	UNK0	0.000	
44	   H	3.875	-0.375	-1.041	 H	1	UNK0	0.000	
45	   H	2.499	-5.061	-0.794	 H	1	UNK0	0.000	
46	   H	2.029	-4.681	0.872	 H	1	UNK0	0.000	
47	   H	0.448	-4.246	-1.727	 H	1	UNK0	0.000	
48	   H	0.150	-5.408	-0.426	 H	1	UNK0	0.000	
49	   H	-1.054	-2.945	-0.658	 H	1	UNK0	0.000	
50	   H	-1.043	-3.931	0.858	 H	1	UNK0	0.000	
51	   H	1.053	-2.789	1.557	 H	1	UNK0	0.000	
52	   H	-0.079	-1.502	1.107	 H	1	UNK0	0.000	
@<TRIPOS>BOND
1 1 2 1
2 2 3 2
3 2 7 1
4 3 4 1
5 4 5 2
6 5 6 1
7 5 8 1
8 6 7 2
9 8 9 1
10 8 13 1
11 9 10 1
12 10 11 1
13 11 12 1
14 11 14 1
15 12 13 1
16 14 15 1
17 15 16 2
18 15 17 1
19 17 18 1
20 17 22 1
21 18 19 1
22 18 26 1
23 19 20 1
24 19 23 1
25 20 21 1
26 21 22 1
27 23 24 1
28 24 25 1
29 25 26 1
30 3 27 1
31 7 28 1
32 9 29 1
33 9 30 1
34 10 31 1
35 10 32 1
36 12 33 1
37 12 34 1
38 13 35 1
39 13 36 1
40 14 37 1
41 14 38 1
42 18 39 1
43 19 40 1
44 21 41 1
45 21 42 1
46 22 43 1
47 22 44 1
48 23 45 1
49 23 46 1
50 24 47 1
51 24 48 1
52 25 49 1
53 25 50 1
54 26 51 1
55 26 52 1
@<TRIPOS>SUBSTRUCTURE
1	UNK0	1	GROUP	1 ****	UNK
