# created with PyMOL 2.3.2
@<TRIPOS>MOLECULE
1465
36 38 1                 
SMALL
USER_CHARGES
@<TRIPOS>ATOM
1	  Br	2.924	-2.952	-2.921	Br	1	UNK0	0.000	
2	   C	2.264	-3.581	-1.244	C.2	1	UNK0	0.000	
3	   C	2.940	-4.558	-0.578	C.2	1	UNK0	0.000	
4	   N	2.464	-4.987	0.597	N.2	1	UNK0	0.000	
5	   C	1.337	-4.483	1.141	C.2	1	UNK0	0.000	
6	   C	0.640	-3.486	0.468	C.2	1	UNK0	0.000	
7	   C	1.103	-3.021	-0.742	C.2	1	UNK0	0.000	
8	   N	0.449	-2.005	-1.497	N.pl3	1	UNK0	0.000	
9	   C	0.783	-0.645	-1.533	C.3	1	UNK0	0.000	
10	   C	0.798	0.194	-0.337	C.3	1	UNK0	0.000	
11	   N	1.208	1.565	-0.728	N.3	1	UNK0	0.000	
12	   C	0.128	2.313	-1.289	C.3	1	UNK0	0.000	
13	   C	-1.037	2.494	-0.327	C.3	1	UNK0	0.000	
14	   N	-0.672	1.762	0.876	N.3	1	UNK0	0.000	
15	   C	-0.454	0.376	0.441	C.3	1	UNK0	0.000	
16	   C	0.510	2.353	1.417	C.3	1	UNK0	0.000	
17	   C	1.683	2.190	0.488	C.3	1	UNK0	0.000	
18	   N	-0.562	-2.983	1.043	N.pl3	1	UNK0	0.000	
19	   O	-1.515	-2.614	0.300	O.2	1	UNK0	0.000	
20	   O	-0.693	-2.919	2.393	O.2	1	UNK0	0.000	
21	   H	3.855	-4.962	-1.028	 H	1	UNK0	0.000	
22	   H	0.947	-4.816	2.076	 H	1	UNK0	0.000	
23	   H	-0.369	-2.376	-2.072	 H	1	UNK0	0.000	
24	   H	1.798	-0.555	-2.036	 H	1	UNK0	0.000	
25	   H	0.127	-0.124	-2.299	 H	1	UNK0	0.000	
26	   H	1.596	-0.140	0.361	 H	1	UNK0	0.000	
27	   H	0.539	3.332	-1.520	 H	1	UNK0	0.000	
28	   H	-0.251	1.925	-2.241	 H	1	UNK0	0.000	
29	   H	-1.165	3.546	-0.062	 H	1	UNK0	0.000	
30	   H	-1.970	2.028	-0.733	 H	1	UNK0	0.000	
31	   H	-1.377	0.104	-0.101	 H	1	UNK0	0.000	
32	   H	-0.467	-0.214	1.387	 H	1	UNK0	0.000	
33	   H	0.735	2.007	2.446	 H	1	UNK0	0.000	
34	   H	0.312	3.463	1.469	 H	1	UNK0	0.000	
35	   H	2.413	1.503	0.998	 H	1	UNK0	0.000	
36	   H	2.225	3.135	0.289	 H	1	UNK0	0.000	
@<TRIPOS>BOND
1 1 2 1
2 2 3 2
3 2 7 1
4 3 4 1
5 4 5 2
6 5 6 1
7 6 7 2
8 6 18 1
9 7 8 1
10 8 9 1
11 9 10 1
12 10 11 1
13 10 15 1
14 11 12 1
15 11 17 1
16 12 13 1
17 13 14 1
18 14 15 1
19 14 16 1
20 16 17 1
21 18 19 2
22 18 20 1
23 3 21 1
24 5 22 1
25 8 23 1
26 9 24 1
27 9 25 1
28 10 26 1
29 12 27 1
30 12 28 1
31 13 29 1
32 13 30 1
33 15 31 1
34 15 32 1
35 16 33 1
36 16 34 1
37 17 35 1
38 17 36 1
@<TRIPOS>SUBSTRUCTURE
1	UNK0	1	GROUP	1 ****	UNK
