# created with PyMOL 2.3.2
@<TRIPOS>MOLECULE
1471
54 57 1                 
SMALL
USER_CHARGES
@<TRIPOS>ATOM
1	  Cl	-1.849	-4.513	-4.502	Cl	1	UNK0	0.000	
2	   C	-2.853	-4.025	-3.133	C.2	1	UNK0	0.000	
3	   C	-2.316	-3.218	-2.154	C.2	1	UNK0	0.000	
4	   C	-3.116	-2.855	-1.105	C.2	1	UNK0	0.000	
5	   C	-4.436	-3.264	-0.992	C.2	1	UNK0	0.000	
6	   C	-4.944	-4.082	-2.007	C.2	1	UNK0	0.000	
7	   C	-4.160	-4.459	-3.069	C.2	1	UNK0	0.000	
8	   N	-0.983	-2.767	-2.208	N.pl3	1	UNK0	0.000	
9	   C	0.122	-3.689	-2.228	C.3	1	UNK0	0.000	
10	   C	1.214	-3.332	-1.251	C.3	1	UNK0	0.000	
11	   N	1.010	-1.973	-0.827	N.pl3	1	UNK0	0.000	
12	   C	0.667	-1.004	-1.836	C.3	1	UNK0	0.000	
13	   C	-0.781	-1.311	-2.243	C.3	1	UNK0	0.000	
14	   C	1.130	-1.547	0.514	C.2	1	UNK0	0.000	
15	   O	1.430	-2.360	1.437	O.2	1	UNK0	0.000	
16	   C	0.918	-0.164	0.910	C.2	1	UNK0	0.000	
17	   C	1.958	0.724	0.928	C.2	1	UNK0	0.000	
18	   N	1.841	2.039	1.288	N.pl3	1	UNK0	0.000	
19	   C	0.634	2.469	1.641	C.2	1	UNK0	0.000	
20	   C	-0.468	1.655	1.655	C.2	1	UNK0	0.000	
21	   C	-0.326	0.263	1.271	C.2	1	UNK0	0.000	
22	   N	-1.553	-0.280	1.380	N.2	1	UNK0	0.000	
23	   N	-2.417	0.634	1.788	N.pl3	1	UNK0	0.000	
24	   C	-1.807	1.813	1.966	C.2	1	UNK0	0.000	
25	   O	-2.293	2.921	2.348	O.2	1	UNK0	0.000	
26	   C	3.008	2.906	1.235	C.3	1	UNK0	0.000	
27	   C	3.872	2.897	2.416	C.3	1	UNK0	0.000	
28	   C	3.450	3.322	3.752	C.3	1	UNK0	0.000	
29	   O	3.112	4.593	4.024	O.3	1	UNK0	0.000	
30	   C	2.055	5.210	3.492	C.3	1	UNK0	0.000	
31	   H	-2.711	-2.227	-0.334	 H	1	UNK0	0.000	
32	   H	-5.036	-2.964	-0.160	 H	1	UNK0	0.000	
33	   H	-5.974	-4.387	-1.895	 H	1	UNK0	0.000	
34	   H	-4.570	-5.082	-3.829	 H	1	UNK0	0.000	
35	   H	0.558	-3.814	-3.241	 H	1	UNK0	0.000	
36	   H	-0.259	-4.689	-1.930	 H	1	UNK0	0.000	
37	   H	1.272	-4.042	-0.404	 H	1	UNK0	0.000	
38	   H	2.211	-3.371	-1.771	 H	1	UNK0	0.000	
39	   H	1.259	-1.165	-2.783	 H	1	UNK0	0.000	
40	   H	0.770	0.033	-1.491	 H	1	UNK0	0.000	
41	   H	-1.025	-0.896	-3.229	 H	1	UNK0	0.000	
42	   H	-1.432	-0.886	-1.451	 H	1	UNK0	0.000	
43	   H	2.982	0.427	0.645	 H	1	UNK0	0.000	
44	   H	0.451	3.503	1.916	 H	1	UNK0	0.000	
45	   H	-3.453	0.513	1.967	 H	1	UNK0	0.000	
46	   H	2.776	3.911	0.815	 H	1	UNK0	0.000	
47	   H	3.632	2.444	0.387	 H	1	UNK0	0.000	
48	   H	4.404	1.881	2.483	 H	1	UNK0	0.000	
49	   H	4.777	3.561	2.150	 H	1	UNK0	0.000	
50	   H	2.694	2.589	4.208	 H	1	UNK0	0.000	
51	   H	4.353	3.095	4.440	 H	1	UNK0	0.000	
52	   H	1.089	4.706	3.762	 H	1	UNK0	0.000	
53	   H	2.034	5.385	2.413	 H	1	UNK0	0.000	
54	   H	1.929	6.224	4.021	 H	1	UNK0	0.000	
@<TRIPOS>BOND
1 1 2 1
2 2 3 2
3 2 7 1
4 3 4 1
5 3 8 1
6 4 5 2
7 5 6 1
8 6 7 2
9 8 9 1
10 8 13 1
11 9 10 1
12 10 11 1
13 11 12 1
14 11 14 1
15 12 13 1
16 14 15 2
17 14 16 1
18 16 17 2
19 16 21 1
20 17 18 1
21 18 19 1
22 18 26 1
23 19 20 2
24 20 21 1
25 20 24 1
26 21 22 2
27 22 23 1
28 23 24 1
29 24 25 2
30 26 27 1
31 27 28 1
32 28 29 1
33 29 30 1
34 4 31 1
35 5 32 1
36 6 33 1
37 7 34 1
38 9 35 1
39 9 36 1
40 10 37 1
41 10 38 1
42 12 39 1
43 12 40 1
44 13 41 1
45 13 42 1
46 17 43 1
47 19 44 1
48 23 45 1
49 26 46 1
50 26 47 1
51 27 48 1
52 27 49 1
53 28 50 1
54 28 51 1
55 30 52 1
56 30 53 1
57 30 54 1
@<TRIPOS>SUBSTRUCTURE
1	UNK0	1	GROUP	1 ****	UNK
