# created with PyMOL 2.3.2
@<TRIPOS>MOLECULE
1472
41 44 1                 
SMALL
USER_CHARGES
@<TRIPOS>ATOM
1	  Cl	-2.194	-2.945	-4.079	Cl	1	UNK0	0.000	
2	   C	-3.073	-2.382	-2.671	C.2	1	UNK0	0.000	
3	   C	-2.471	-1.494	-1.772	C.2	1	UNK0	0.000	
4	   C	-3.103	-1.011	-0.649	C.2	1	UNK0	0.000	
5	   C	-4.413	-1.471	-0.452	C.2	1	UNK0	0.000	
6	   C	-5.008	-2.362	-1.357	C.2	1	UNK0	0.000	
7	   C	-4.354	-2.821	-2.462	C.2	1	UNK0	0.000	
8	   O	-5.157	-1.079	0.605	O.3	1	UNK0	0.000	
9	   C	-2.487	-0.174	0.365	C.2	1	UNK0	0.000	
10	   O	-2.886	-0.288	1.591	O.2	1	UNK0	0.000	
11	   N	-1.486	0.755	0.107	N.pl3	1	UNK0	0.000	
12	   C	-0.947	1.125	-1.155	C.3	1	UNK0	0.000	
13	   C	0.532	0.766	-1.242	C.3	1	UNK0	0.000	
14	   N	1.132	0.935	0.076	N.pl3	1	UNK0	0.000	
15	   C	0.501	1.869	0.981	C.3	1	UNK0	0.000	
16	   C	-0.878	1.401	1.318	C.3	1	UNK0	0.000	
17	   C	2.298	0.226	0.481	C.2	1	UNK0	0.000	
18	   N	2.779	0.374	1.742	N.2	1	UNK0	0.000	
19	   N	3.851	-0.240	2.202	N.pl3	1	UNK0	0.000	
20	   C	4.546	-1.080	1.400	C.2	1	UNK0	0.000	
21	   N	5.588	-1.581	2.085	N.2	1	UNK0	0.000	
22	   C	5.589	-1.081	3.332	C.2	1	UNK0	0.000	
23	   C	4.497	-0.242	3.397	C.2	1	UNK0	0.000	
24	   C	4.111	-1.275	0.107	C.2	1	UNK0	0.000	
25	   C	2.980	-0.618	-0.356	C.2	1	UNK0	0.000	
26	   H	-1.439	-1.213	-1.945	 H	1	UNK0	0.000	
27	   H	-6.026	-2.712	-1.191	 H	1	UNK0	0.000	
28	   H	-4.832	-3.516	-3.160	 H	1	UNK0	0.000	
29	   H	-5.034	-0.492	1.349	 H	1	UNK0	0.000	
30	   H	-0.942	2.292	-1.136	 H	1	UNK0	0.000	
31	   H	-1.464	0.882	-2.052	 H	1	UNK0	0.000	
32	   H	1.044	1.471	-1.921	 H	1	UNK0	0.000	
33	   H	0.703	-0.256	-1.580	 H	1	UNK0	0.000	
34	   H	1.079	1.924	1.927	 H	1	UNK0	0.000	
35	   H	0.460	2.870	0.502	 H	1	UNK0	0.000	
36	   H	-0.808	0.605	2.075	 H	1	UNK0	0.000	
37	   H	-1.576	2.215	1.570	 H	1	UNK0	0.000	
38	   H	6.309	-1.298	4.128	 H	1	UNK0	0.000	
39	   H	4.198	0.325	4.253	 H	1	UNK0	0.000	
40	   H	4.632	-1.934	-0.570	 H	1	UNK0	0.000	
41	   H	2.639	-0.772	-1.379	 H	1	UNK0	0.000	
@<TRIPOS>BOND
1 1 2 1
2 2 3 2
3 2 7 1
4 3 4 1
5 4 5 2
6 4 9 1
7 5 6 1
8 5 8 1
9 6 7 2
10 9 10 2
11 9 11 1
12 11 12 1
13 11 16 1
14 12 13 1
15 13 14 1
16 14 15 1
17 14 17 1
18 15 16 1
19 17 18 2
20 17 25 1
21 18 19 1
22 19 20 1
23 19 23 1
24 20 21 2
25 20 24 1
26 21 22 1
27 22 23 2
28 24 25 2
29 3 26 1
30 6 27 1
31 7 28 1
32 8 29 1
33 12 30 1
34 12 31 1
35 13 32 1
36 13 33 1
37 15 34 1
38 15 35 1
39 16 36 1
40 16 37 1
41 22 38 1
42 23 39 1
43 24 40 1
44 25 41 1
@<TRIPOS>SUBSTRUCTURE
1	UNK0	1	GROUP	1 ****	UNK
