# created with PyMOL 2.3.2
@<TRIPOS>MOLECULE
1473
48 50 1                 
SMALL
USER_CHARGES
@<TRIPOS>ATOM
1	  Cl	5.050	-2.204	0.622	Cl	1	UNK0	0.000	
2	   C	3.555	-2.419	-0.267	C.2	1	UNK0	0.000	
3	   C	2.719	-1.343	-0.558	C.2	1	UNK0	0.000	
4	   C	1.529	-1.452	-1.253	C.2	1	UNK0	0.000	
5	   C	1.138	-2.730	-1.697	C.2	1	UNK0	0.000	
6	   C	1.962	-3.783	-1.410	C.2	1	UNK0	0.000	
7	   C	3.145	-3.654	-0.713	C.2	1	UNK0	0.000	
8	   O	-0.049	-2.925	-2.407	O.3	1	UNK0	0.000	
9	   C	0.672	-0.357	-1.618	C.2	1	UNK0	0.000	
10	   O	-0.147	-0.592	-2.596	O.2	1	UNK0	0.000	
11	   N	0.552	0.951	-1.101	N.pl3	1	UNK0	0.000	
12	   C	1.283	1.421	0.021	C.3	1	UNK0	0.000	
13	   C	0.656	2.529	0.819	C.3	1	UNK0	0.000	
14	   N	-0.685	2.283	1.281	N.pl3	1	UNK0	0.000	
15	   C	-1.660	2.155	0.218	C.2	1	UNK0	0.000	
16	   O	-2.767	1.624	0.351	O.2	1	UNK0	0.000	
17	   C	-1.193	2.738	-1.085	C.3	1	UNK0	0.000	
18	   C	-0.372	1.815	-1.875	C.3	1	UNK0	0.000	
19	   C	-0.500	4.056	-0.779	C.3	1	UNK0	0.000	
20	   C	0.768	3.809	0.020	C.3	1	UNK0	0.000	
21	   C	-1.115	2.224	2.616	C.3	1	UNK0	0.000	
22	   C	-1.230	1.004	3.367	C.2	1	UNK0	0.000	
23	   O	-1.648	1.243	4.608	O.2	1	UNK0	0.000	
24	   N	-1.020	-0.336	3.128	N.pl3	1	UNK0	0.000	
25	   C	-0.575	-0.912	1.897	C.3	1	UNK0	0.000	
26	   C	-1.265	-1.308	4.227	C.3	1	UNK0	0.000	
27	   H	3.100	-0.394	-0.225	 H	1	UNK0	0.000	
28	   H	1.636	-4.769	-1.766	 H	1	UNK0	0.000	
29	   H	3.772	-4.518	-0.504	 H	1	UNK0	0.000	
30	   H	-0.288	-3.840	-2.701	 H	1	UNK0	0.000	
31	   H	2.271	1.791	-0.359	 H	1	UNK0	0.000	
32	   H	1.511	0.634	0.775	 H	1	UNK0	0.000	
33	   H	1.277	2.696	1.749	 H	1	UNK0	0.000	
34	   H	-2.098	3.001	-1.678	 H	1	UNK0	0.000	
35	   H	-1.056	1.158	-2.487	 H	1	UNK0	0.000	
36	   H	0.227	2.411	-2.616	 H	1	UNK0	0.000	
37	   H	-0.317	4.611	-1.698	 H	1	UNK0	0.000	
38	   H	-1.187	4.640	-0.137	 H	1	UNK0	0.000	
39	   H	0.988	4.650	0.703	 H	1	UNK0	0.000	
40	   H	1.607	3.707	-0.696	 H	1	UNK0	0.000	
41	   H	-0.368	2.883	3.206	 H	1	UNK0	0.000	
42	   H	-2.062	2.847	2.708	 H	1	UNK0	0.000	
43	   H	-1.063	-1.926	1.722	 H	1	UNK0	0.000	
44	   H	0.520	-1.175	1.940	 H	1	UNK0	0.000	
45	   H	-0.774	-0.354	0.988	 H	1	UNK0	0.000	
46	   H	-0.942	-0.784	5.145	 H	1	UNK0	0.000	
47	   H	-0.666	-2.226	4.077	 H	1	UNK0	0.000	
48	   H	-2.317	-1.577	4.296	 H	1	UNK0	0.000	
@<TRIPOS>BOND
1 1 2 1
2 2 3 2
3 2 7 1
4 3 4 1
5 4 5 2
6 4 9 1
7 5 6 1
8 5 8 1
9 6 7 2
10 9 10 2
11 9 11 1
12 11 12 1
13 11 18 1
14 12 13 1
15 13 14 1
16 13 20 1
17 14 15 1
18 14 21 1
19 15 16 2
20 15 17 1
21 17 18 1
22 17 19 1
23 19 20 1
24 21 22 1
25 22 23 2
26 22 24 1
27 24 25 1
28 24 26 1
29 3 27 1
30 6 28 1
31 7 29 1
32 8 30 1
33 12 31 1
34 12 32 1
35 13 33 1
36 17 34 1
37 18 35 1
38 18 36 1
39 19 37 1
40 19 38 1
41 20 39 1
42 20 40 1
43 21 41 1
44 21 42 1
45 25 43 1
46 25 44 1
47 25 45 1
48 26 46 1
49 26 47 1
50 26 48 1
@<TRIPOS>SUBSTRUCTURE
1	UNK0	1	GROUP	1 ****	UNK
