# created with PyMOL 2.3.2
@<TRIPOS>MOLECULE
1474
63 66 1                 
SMALL
USER_CHARGES
@<TRIPOS>ATOM
1	  Cl	5.269	1.540	2.339	Cl	1	UNK0	0.000	
2	   C	4.030	0.310	2.103	C.2	1	UNK0	0.000	
3	   C	2.710	0.583	2.337	C.2	1	UNK0	0.000	
4	   C	1.696	-0.368	2.161	C.2	1	UNK0	0.000	
5	   C	2.062	-1.599	1.742	C.2	1	UNK0	0.000	
6	   C	3.386	-1.901	1.499	C.2	1	UNK0	0.000	
7	   C	4.374	-0.964	1.673	C.2	1	UNK0	0.000	
8	   C	0.374	0.056	2.450	C.3	1	UNK0	0.000	
9	   N	-0.709	-0.694	2.914	N.pl3	1	UNK0	0.000	
10	   C	-1.714	0.356	3.244	C.2	1	UNK0	0.000	
11	   O	-2.594	0.298	4.136	O.2	1	UNK0	0.000	
12	   C	-1.437	1.437	2.302	C.2	1	UNK0	0.000	
13	   O	-2.009	2.567	2.151	O.2	1	UNK0	0.000	
14	   C	-0.305	0.969	1.495	C.2	1	UNK0	0.000	
15	   C	0.059	1.274	0.276	C.2	1	UNK0	0.000	
16	   O	1.225	0.733	-0.307	O.2	1	UNK0	0.000	
17	   C	-0.792	2.197	-0.467	C.2	1	UNK0	0.000	
18	   C	-0.166	3.236	-1.124	C.2	1	UNK0	0.000	
19	   C	-0.877	4.163	-1.883	C.2	1	UNK0	0.000	
20	   C	-2.244	4.048	-1.988	C.2	1	UNK0	0.000	
21	   C	-2.872	2.999	-1.324	C.2	1	UNK0	0.000	
22	   C	-2.159	2.085	-0.575	C.2	1	UNK0	0.000	
23	   O	-2.935	4.979	-2.746	O.3	1	UNK0	0.000	
24	   C	-2.323	5.935	-3.589	C.3	1	UNK0	0.000	
25	   C	-0.896	6.223	-3.247	C.3	1	UNK0	0.000	
26	   O	-0.251	5.205	-2.542	O.3	1	UNK0	0.000	
27	   C	-1.100	-2.061	3.182	C.3	1	UNK0	0.000	
28	   C	-1.984	-2.681	2.141	C.3	1	UNK0	0.000	
29	   C	-1.343	-2.732	0.801	C.3	1	UNK0	0.000	
30	   N	-2.266	-3.281	-0.202	N.4	1	UNK0	0.000	
31	   C	-2.514	-2.191	-1.155	C.3	1	UNK0	0.000	
32	   C	-1.312	-2.021	-2.053	C.3	1	UNK0	0.000	
33	   C	-1.740	-4.405	-0.910	C.3	1	UNK0	0.000	
34	   C	-1.872	-5.682	-0.115	C.3	1	UNK0	0.000	
35	   H	2.451	1.606	2.678	 H	1	UNK0	0.000	
36	   H	1.330	-2.420	1.582	 H	1	UNK0	0.000	
37	   H	3.675	-2.888	1.164	 H	1	UNK0	0.000	
38	   H	5.428	-1.142	1.499	 H	1	UNK0	0.000	
39	   H	0.551	0.806	3.366	 H	1	UNK0	0.000	
40	   H	0.908	3.348	-1.057	 H	1	UNK0	0.000	
41	   H	-3.938	2.945	-1.432	 H	1	UNK0	0.000	
42	   H	-2.669	1.271	-0.083	 H	1	UNK0	0.000	
43	   H	-2.966	6.840	-3.594	 H	1	UNK0	0.000	
44	   H	-2.330	5.514	-4.627	 H	1	UNK0	0.000	
45	   H	-0.876	7.173	-2.636	 H	1	UNK0	0.000	
46	   H	-0.340	6.504	-4.185	 H	1	UNK0	0.000	
47	   H	-0.223	-2.736	3.283	 H	1	UNK0	0.000	
48	   H	-1.703	-2.067	4.133	 H	1	UNK0	0.000	
49	   H	-2.148	-3.747	2.505	 H	1	UNK0	0.000	
50	   H	-2.998	-2.210	2.115	 H	1	UNK0	0.000	
51	   H	-0.486	-3.467	0.770	 H	1	UNK0	0.000	
52	   H	-0.951	-1.769	0.491	 H	1	UNK0	0.000	
53	   H	-3.127	-3.545	0.284	 H	1	UNK0	0.000	
54	   H	-2.674	-1.292	-0.536	 H	1	UNK0	0.000	
55	   H	-3.431	-2.403	-1.699	 H	1	UNK0	0.000	
56	   H	-1.429	-1.023	-2.566	 H	1	UNK0	0.000	
57	   H	-0.385	-1.966	-1.460	 H	1	UNK0	0.000	
58	   H	-1.244	-2.777	-2.833	 H	1	UNK0	0.000	
59	   H	-0.688	-4.276	-1.240	 H	1	UNK0	0.000	
60	   H	-2.351	-4.531	-1.832	 H	1	UNK0	0.000	
61	   H	-1.306	-5.625	0.846	 H	1	UNK0	0.000	
62	   H	-2.970	-5.832	0.080	 H	1	UNK0	0.000	
63	   H	-1.442	-6.514	-0.708	 H	1	UNK0	0.000	
@<TRIPOS>BOND
1 1 2 1
2 2 3 2
3 2 7 1
4 3 4 1
5 4 5 2
6 4 8 1
7 5 6 1
8 6 7 2
9 8 9 1
10 8 14 1
11 9 10 1
12 9 27 1
13 10 11 2
14 10 12 1
15 12 13 2
16 12 14 1
17 14 15 2
18 15 16 1
19 15 17 1
20 17 18 2
21 17 22 1
22 18 19 1
23 19 20 2
24 19 26 1
25 20 21 1
26 20 23 1
27 21 22 2
28 23 24 1
29 24 25 1
30 25 26 1
31 27 28 1
32 28 29 1
33 29 30 1
34 30 31 1
35 30 33 1
36 31 32 1
37 33 34 1
38 3 35 1
39 5 36 1
40 6 37 1
41 7 38 1
42 8 39 1
43 18 40 1
44 21 41 1
45 22 42 1
46 24 43 1
47 24 44 1
48 25 45 1
49 25 46 1
50 27 47 1
51 27 48 1
52 28 49 1
53 28 50 1
54 29 51 1
55 29 52 1
56 30 53 1
57 31 54 1
58 31 55 1
59 32 56 1
60 32 57 1
61 32 58 1
62 33 59 1
63 33 60 1
64 34 61 1
65 34 62 1
66 34 63 1
@<TRIPOS>SUBSTRUCTURE
1	UNK0	1	GROUP	1 ****	UNK
