# created with PyMOL 2.3.2
@<TRIPOS>MOLECULE
1475
47 50 1                 
SMALL
USER_CHARGES
@<TRIPOS>ATOM
1	  Cl	2.497	-3.628	4.828	Cl	1	UNK0	0.000	
2	   C	1.345	-2.349	4.541	C.2	1	UNK0	0.000	
3	   C	1.638	-1.331	3.631	C.2	1	UNK0	0.000	
4	   C	0.768	-0.291	3.360	C.2	1	UNK0	0.000	
5	   C	-0.426	-0.310	4.047	C.2	1	UNK0	0.000	
6	   C	-0.725	-1.324	4.957	C.2	1	UNK0	0.000	
7	   C	0.146	-2.350	5.216	C.2	1	UNK0	0.000	
8	   N	1.093	0.735	2.427	N.pl3	1	UNK0	0.000	
9	   C	2.345	0.928	1.780	C.2	1	UNK0	0.000	
10	   O	3.459	0.592	2.250	O.2	1	UNK0	0.000	
11	   C	2.091	1.597	0.461	C.3	1	UNK0	0.000	
12	   C	0.749	2.218	0.614	C.3	1	UNK0	0.000	
13	   C	0.227	1.773	1.946	C.2	1	UNK0	0.000	
14	   O	-0.782	2.251	2.490	O.2	1	UNK0	0.000	
15	   N	2.234	0.684	-0.645	N.4	1	UNK0	0.000	
16	   C	1.785	1.317	-1.840	C.3	1	UNK0	0.000	
17	   C	0.702	0.583	-2.588	C.3	1	UNK0	0.000	
18	   N	-0.176	-0.195	-1.803	N.pl3	1	UNK0	0.000	
19	   C	0.339	-0.932	-0.651	C.3	1	UNK0	0.000	
20	   C	1.756	-0.625	-0.408	C.3	1	UNK0	0.000	
21	   C	-1.562	-0.282	-2.093	C.2	1	UNK0	0.000	
22	   C	-2.223	0.730	-2.723	C.2	1	UNK0	0.000	
23	   C	-3.591	0.626	-3.029	C.2	1	UNK0	0.000	
24	   C	-4.299	-0.500	-2.702	C.2	1	UNK0	0.000	
25	   C	-3.629	-1.519	-2.066	C.2	1	UNK0	0.000	
26	   C	-2.292	-1.418	-1.767	C.2	1	UNK0	0.000	
27	   O	-5.666	-0.600	-3.010	O.2	1	UNK0	0.000	
28	   H	2.592	-1.353	3.107	 H	1	UNK0	0.000	
29	   H	-1.145	0.491	3.868	 H	1	UNK0	0.000	
30	   H	-1.667	-1.308	5.474	 H	1	UNK0	0.000	
31	   H	-0.082	-3.148	5.927	 H	1	UNK0	0.000	
32	   H	2.888	2.382	0.341	 H	1	UNK0	0.000	
33	   H	0.883	3.335	0.724	 H	1	UNK0	0.000	
34	   H	0.034	2.071	-0.189	 H	1	UNK0	0.000	
35	   H	3.294	0.575	-0.759	 H	1	UNK0	0.000	
36	   H	2.613	1.470	-2.598	 H	1	UNK0	0.000	
37	   H	1.417	2.350	-1.645	 H	1	UNK0	0.000	
38	   H	0.168	1.322	-3.203	 H	1	UNK0	0.000	
39	   H	1.185	-0.102	-3.359	 H	1	UNK0	0.000	
40	   H	0.240	-2.013	-0.923	 H	1	UNK0	0.000	
41	   H	-0.326	-0.802	0.240	 H	1	UNK0	0.000	
42	   H	2.388	-1.369	-0.979	 H	1	UNK0	0.000	
43	   H	1.995	-0.868	0.667	 H	1	UNK0	0.000	
44	   H	-1.711	1.647	-2.992	 H	1	UNK0	0.000	
45	   H	-4.060	1.463	-3.530	 H	1	UNK0	0.000	
46	   H	-4.166	-2.415	-1.801	 H	1	UNK0	0.000	
47	   H	-1.742	-2.216	-1.264	 H	1	UNK0	0.000	
@<TRIPOS>BOND
1 1 2 1
2 2 3 2
3 2 7 1
4 3 4 1
5 4 5 2
6 4 8 1
7 5 6 1
8 6 7 2
9 8 9 1
10 8 13 1
11 9 10 2
12 9 11 1
13 11 12 1
14 11 15 1
15 12 13 1
16 13 14 2
17 15 16 1
18 15 20 1
19 16 17 1
20 17 18 1
21 18 19 1
22 18 21 1
23 19 20 1
24 21 22 2
25 21 26 1
26 22 23 1
27 23 24 2
28 24 25 1
29 24 27 1
30 25 26 2
31 3 28 1
32 5 29 1
33 6 30 1
34 7 31 1
35 11 32 1
36 12 33 1
37 12 34 1
38 15 35 1
39 16 36 1
40 16 37 1
41 17 38 1
42 17 39 1
43 19 40 1
44 19 41 1
45 20 42 1
46 20 43 1
47 22 44 1
48 23 45 1
49 25 46 1
50 26 47 1
@<TRIPOS>SUBSTRUCTURE
1	UNK0	1	GROUP	1 ****	UNK
