# created with PyMOL 2.3.2
@<TRIPOS>MOLECULE
1476
47 50 1                 
SMALL
USER_CHARGES
@<TRIPOS>ATOM
1	  Br	1.886	1.287	3.180	Br	1	UNK0	0.000	
2	   C	0.556	-0.008	2.741	C.2	1	UNK0	0.000	
3	   C	0.925	-1.053	1.860	C.2	1	UNK0	0.000	
4	   N	0.016	-1.950	1.598	N.pl3	1	UNK0	0.000	
5	   C	-1.229	-1.897	2.109	C.2	1	UNK0	0.000	
6	   O	-2.097	-2.801	1.834	O.2	1	UNK0	0.000	
7	   N	-1.599	-0.921	2.922	N.pl3	1	UNK0	0.000	
8	   C	-0.711	0.020	3.244	C.2	1	UNK0	0.000	
9	   O	-1.009	0.970	4.024	O.2	1	UNK0	0.000	
10	   C	-2.970	-0.753	3.406	C.3	1	UNK0	0.000	
11	   C	0.357	-3.229	0.982	C.3	1	UNK0	0.000	
12	   C	2.273	-1.048	1.300	C.3	1	UNK0	0.000	
13	   N	2.428	-0.975	-0.102	N.3	1	UNK0	0.000	
14	   C	2.545	0.487	-0.465	C.3	1	UNK0	0.000	
15	   C	3.265	0.642	-1.740	C.3	1	UNK0	0.000	
16	   C	2.690	1.687	-2.644	C.3	1	UNK0	0.000	
17	   N	1.227	1.497	-2.556	N.pl3	1	UNK0	0.000	
18	   C	0.812	0.228	-2.462	C.2	1	UNK0	0.000	
19	   C	-0.564	0.089	-2.352	C.2	1	UNK0	0.000	
20	   C	-1.422	1.134	-2.344	C.2	1	UNK0	0.000	
21	   C	-0.986	2.427	-2.448	C.2	1	UNK0	0.000	
22	   C	0.417	2.562	-2.552	C.2	1	UNK0	0.000	
23	   O	0.826	3.757	-2.648	O.2	1	UNK0	0.000	
24	   C	1.653	-0.957	-2.462	C.3	1	UNK0	0.000	
25	   C	1.566	-1.592	-1.036	C.3	1	UNK0	0.000	
26	   C	3.154	-0.654	-2.581	C.3	1	UNK0	0.000	
27	   H	-2.992	-0.860	4.482	 H	1	UNK0	0.000	
28	   H	-3.322	0.293	3.150	 H	1	UNK0	0.000	
29	   H	-3.646	-1.443	2.843	 H	1	UNK0	0.000	
30	   H	1.431	-3.451	0.920	 H	1	UNK0	0.000	
31	   H	-0.234	-3.503	0.106	 H	1	UNK0	0.000	
32	   H	0.015	-4.020	1.755	 H	1	UNK0	0.000	
33	   H	2.814	-0.141	1.712	 H	1	UNK0	0.000	
34	   H	2.935	-1.879	1.715	 H	1	UNK0	0.000	
35	   H	3.148	0.886	0.371	 H	1	UNK0	0.000	
36	   H	1.550	0.883	-0.412	 H	1	UNK0	0.000	
37	   H	4.352	0.881	-1.617	 H	1	UNK0	0.000	
38	   H	3.019	2.697	-2.436	 H	1	UNK0	0.000	
39	   H	2.887	1.404	-3.729	 H	1	UNK0	0.000	
40	   H	-0.997	-0.903	-2.260	 H	1	UNK0	0.000	
41	   H	-2.523	1.026	-2.255	 H	1	UNK0	0.000	
42	   H	-1.659	3.257	-2.436	 H	1	UNK0	0.000	
43	   H	1.366	-1.719	-3.178	 H	1	UNK0	0.000	
44	   H	1.934	-2.636	-1.248	 H	1	UNK0	0.000	
45	   H	0.511	-1.487	-0.797	 H	1	UNK0	0.000	
46	   H	3.469	-0.474	-3.602	 H	1	UNK0	0.000	
47	   H	3.755	-1.404	-2.021	 H	1	UNK0	0.000	
@<TRIPOS>BOND
1 1 2 1
2 2 3 2
3 2 8 1
4 3 4 1
5 3 12 1
6 4 5 1
7 4 11 1
8 5 6 2
9 5 7 1
10 7 8 1
11 7 10 1
12 8 9 2
13 12 13 1
14 13 14 1
15 13 25 1
16 14 15 1
17 15 16 1
18 15 26 1
19 16 17 1
20 17 18 1
21 17 22 1
22 18 19 2
23 18 24 1
24 19 20 1
25 20 21 2
26 21 22 1
27 22 23 2
28 24 25 1
29 24 26 1
30 10 27 1
31 10 28 1
32 10 29 1
33 11 30 1
34 11 31 1
35 11 32 1
36 12 33 1
37 12 34 1
38 14 35 1
39 14 36 1
40 15 37 1
41 16 38 1
42 16 39 1
43 19 40 1
44 20 41 1
45 21 42 1
46 24 43 1
47 25 44 1
48 25 45 1
49 26 46 1
50 26 47 1
@<TRIPOS>SUBSTRUCTURE
1	UNK0	1	GROUP	1 ****	UNK
