# created with PyMOL 2.3.2
@<TRIPOS>MOLECULE
1479
30 33 1                 
SMALL
USER_CHARGES
@<TRIPOS>ATOM
1	  Br	-6.320	3.759	-0.030	Br	1	UNK0	0.000	
2	   C	-4.713	2.779	0.284	C.2	1	UNK0	0.000	
3	   C	-3.512	3.283	-0.154	C.2	1	UNK0	0.000	
4	   C	-2.349	2.594	0.062	C.2	1	UNK0	0.000	
5	   N	-1.081	2.869	-0.261	N.pl3	1	UNK0	0.000	
6	   N	-0.335	1.885	0.174	N.2	1	UNK0	0.000	
7	   C	-1.074	0.960	0.779	C.2	1	UNK0	0.000	
8	   C	-2.390	1.393	0.723	C.2	1	UNK0	0.000	
9	   C	-3.593	0.868	1.174	C.2	1	UNK0	0.000	
10	   C	-4.759	1.569	0.951	C.2	1	UNK0	0.000	
11	   N	-0.649	-0.264	1.398	N.pl3	1	UNK0	0.000	
12	   C	0.692	-0.664	1.422	C.2	1	UNK0	0.000	
13	   O	0.968	-1.764	2.023	O.2	1	UNK0	0.000	
14	   C	1.798	0.064	0.822	C.2	1	UNK0	0.000	
15	   C	1.889	0.329	-0.511	C.2	1	UNK0	0.000	
16	   N	2.923	1.019	-1.061	N.pl3	1	UNK0	0.000	
17	   N	3.216	1.386	-2.296	N.2	1	UNK0	0.000	
18	   N	4.347	2.051	-2.336	N.2	1	UNK0	0.000	
19	   N	4.792	2.112	-1.093	N.2	1	UNK0	0.000	
20	   C	3.913	1.469	-0.272	C.2	1	UNK0	0.000	
21	   C	3.873	1.230	1.084	C.2	1	UNK0	0.000	
22	   C	2.830	0.534	1.641	C.2	1	UNK0	0.000	
23	   H	-3.525	4.226	-0.667	 H	1	UNK0	0.000	
24	   H	-0.767	3.749	-0.783	 H	1	UNK0	0.000	
25	   H	-3.569	-0.075	1.684	 H	1	UNK0	0.000	
26	   H	-5.693	1.172	1.294	 H	1	UNK0	0.000	
27	   H	-1.390	-0.839	1.848	 H	1	UNK0	0.000	
28	   H	1.110	-0.025	-1.195	 H	1	UNK0	0.000	
29	   H	4.663	1.589	1.714	 H	1	UNK0	0.000	
30	   H	2.747	0.317	2.697	 H	1	UNK0	0.000	
@<TRIPOS>BOND
1 1 2 1
2 2 3 2
3 2 10 1
4 3 4 1
5 4 5 1
6 4 8 2
7 5 6 1
8 6 7 2
9 7 8 1
10 7 11 1
11 8 9 1
12 9 10 2
13 11 12 1
14 12 13 2
15 12 14 1
16 14 15 2
17 14 22 1
18 15 16 1
19 16 17 1
20 16 20 1
21 17 18 2
22 18 19 1
23 19 20 2
24 20 21 1
25 21 22 2
26 3 23 1
27 5 24 1
28 9 25 1
29 10 26 1
30 11 27 1
31 15 28 1
32 21 29 1
33 22 30 1
@<TRIPOS>SUBSTRUCTURE
1	UNK0	1	GROUP	1 ****	UNK
