# created with PyMOL 2.3.2
@<TRIPOS>MOLECULE
1480
39 42 1                 
SMALL
USER_CHARGES
@<TRIPOS>ATOM
1	  Br	-0.519	4.193	3.343	Br	1	UNK0	0.000	
2	   C	0.200	2.428	3.591	C.2	1	UNK0	0.000	
3	   C	-0.038	1.431	2.670	C.2	1	UNK0	0.000	
4	   C	0.475	0.179	2.853	C.2	1	UNK0	0.000	
5	   C	1.240	0.006	4.018	C.2	1	UNK0	0.000	
6	   O	1.433	0.976	4.848	O.3	1	UNK0	0.000	
7	   C	0.960	2.177	4.707	C.2	1	UNK0	0.000	
8	   O	1.176	3.107	5.555	O.co2	1	UNK0	0.000	
9	   C	0.269	-0.971	1.997	C.2	1	UNK0	0.000	
10	   O	1.022	-2.000	2.275	O.2	1	UNK0	0.000	
11	   N	-0.607	-1.122	0.941	N.pl3	1	UNK0	0.000	
12	   C	-0.516	-2.453	0.210	C.3	1	UNK0	0.000	
13	   C	-0.151	-2.083	-1.213	C.3	1	UNK0	0.000	
14	   C	1.246	-1.522	-1.181	C.3	1	UNK0	0.000	
15	   N	1.296	-0.090	-1.057	N.pl3	1	UNK0	0.000	
16	   C	0.213	0.710	-0.962	C.2	1	UNK0	0.000	
17	   C	0.407	2.054	-0.853	C.2	1	UNK0	0.000	
18	   C	1.660	2.628	-0.836	C.2	1	UNK0	0.000	
19	   C	2.742	1.805	-0.933	C.2	1	UNK0	0.000	
20	   C	2.536	0.458	-1.042	C.2	1	UNK0	0.000	
21	   O	3.573	-0.270	-1.129	O.2	1	UNK0	0.000	
22	   C	-1.158	0.159	-0.978	C.3	1	UNK0	0.000	
23	   C	-1.627	-0.306	0.386	C.3	1	UNK0	0.000	
24	   C	-1.095	-1.107	-1.833	C.3	1	UNK0	0.000	
25	   H	-0.600	1.661	1.807	 H	1	UNK0	0.000	
26	   H	1.682	-0.955	4.237	 H	1	UNK0	0.000	
27	   H	0.274	-3.066	0.638	 H	1	UNK0	0.000	
28	   H	-1.535	-2.859	0.241	 H	1	UNK0	0.000	
29	   H	-0.128	-3.014	-1.810	 H	1	UNK0	0.000	
30	   H	1.751	-1.774	-2.146	 H	1	UNK0	0.000	
31	   H	1.797	-1.990	-0.361	 H	1	UNK0	0.000	
32	   H	-0.448	2.738	-0.774	 H	1	UNK0	0.000	
33	   H	1.805	3.707	-0.749	 H	1	UNK0	0.000	
34	   H	3.752	2.224	-0.923	 H	1	UNK0	0.000	
35	   H	-1.906	0.859	-1.370	 H	1	UNK0	0.000	
36	   H	-2.078	0.478	0.952	 H	1	UNK0	0.000	
37	   H	-2.482	-1.047	0.112	 H	1	UNK0	0.000	
38	   H	-0.707	-0.804	-2.806	 H	1	UNK0	0.000	
39	   H	-2.122	-1.501	-1.868	 H	1	UNK0	0.000	
@<TRIPOS>BOND
1 1 2 1
2 2 3 2
3 2 7 1
4 3 4 1
5 4 5 2
6 4 9 1
7 5 6 1
8 6 7 1
9 7 8 2
10 9 10 2
11 9 11 1
12 11 12 1
13 11 23 1
14 12 13 1
15 13 14 1
16 13 24 1
17 14 15 1
18 15 16 1
19 15 20 1
20 16 17 2
21 16 22 1
22 17 18 1
23 18 19 2
24 19 20 1
25 20 21 2
26 22 23 1
27 22 24 1
28 3 25 1
29 5 26 1
30 12 27 1
31 12 28 1
32 13 29 1
33 14 30 1
34 14 31 1
35 17 32 1
36 18 33 1
37 19 34 1
38 22 35 1
39 23 36 1
40 23 37 1
41 24 38 1
42 24 39 1
@<TRIPOS>SUBSTRUCTURE
1	UNK0	1	GROUP	1 ****	UNK
