# created with PyMOL 2.3.2
@<TRIPOS>MOLECULE
1481
39 42 1                 
SMALL
USER_CHARGES
@<TRIPOS>ATOM
1	  Br	-0.055	-6.018	-5.289	Br	1	UNK0	0.000	
2	   C	-0.129	-5.227	-3.554	C.2	1	UNK0	0.000	
3	   C	0.137	-3.895	-3.392	C.2	1	UNK0	0.000	
4	   C	0.071	-3.352	-2.090	C.2	1	UNK0	0.000	
5	   C	-0.256	-4.174	-1.042	C.2	1	UNK0	0.000	
6	   O	-0.503	-5.465	-1.270	O.3	1	UNK0	0.000	
7	   C	-0.449	-5.990	-2.456	C.2	1	UNK0	0.000	
8	   O	-0.696	-7.234	-2.615	O.co2	1	UNK0	0.000	
9	   C	0.337	-1.956	-1.935	C.2	1	UNK0	0.000	
10	   O	0.554	-1.331	-3.075	O.2	1	UNK0	0.000	
11	   N	0.422	-1.093	-0.844	N.pl3	1	UNK0	0.000	
12	   C	0.709	0.323	-1.133	C.3	1	UNK0	0.000	
13	   C	1.709	0.942	-0.230	C.3	1	UNK0	0.000	
14	   C	1.125	2.268	0.300	C.3	1	UNK0	0.000	
15	   N	-0.216	1.883	0.770	N.pl3	1	UNK0	0.000	
16	   C	-0.431	0.668	1.309	C.2	1	UNK0	0.000	
17	   C	-1.712	0.354	1.733	C.2	1	UNK0	0.000	
18	   C	-2.737	1.254	1.610	C.2	1	UNK0	0.000	
19	   C	-2.478	2.489	1.053	C.2	1	UNK0	0.000	
20	   C	-1.205	2.763	0.647	C.2	1	UNK0	0.000	
21	   O	-0.988	3.901	0.139	O.2	1	UNK0	0.000	
22	   C	0.605	-0.348	1.481	C.3	1	UNK0	0.000	
23	   C	0.255	-1.524	0.519	C.3	1	UNK0	0.000	
24	   C	1.967	0.124	1.020	C.3	1	UNK0	0.000	
25	   H	0.397	-3.264	-4.258	 H	1	UNK0	0.000	
26	   H	-0.323	-3.816	-0.025	 H	1	UNK0	0.000	
27	   H	-0.258	0.846	-1.133	 H	1	UNK0	0.000	
28	   H	1.097	0.406	-2.170	 H	1	UNK0	0.000	
29	   H	2.667	1.188	-0.685	 H	1	UNK0	0.000	
30	   H	1.087	3.020	-0.488	 H	1	UNK0	0.000	
31	   H	1.671	2.598	1.193	 H	1	UNK0	0.000	
32	   H	-1.935	-0.604	2.170	 H	1	UNK0	0.000	
33	   H	-3.746	1.036	1.931	 H	1	UNK0	0.000	
34	   H	-3.273	3.224	0.942	 H	1	UNK0	0.000	
35	   H	0.627	-0.803	2.482	 H	1	UNK0	0.000	
36	   H	-0.760	-1.784	0.815	 H	1	UNK0	0.000	
37	   H	1.047	-2.266	0.785	 H	1	UNK0	0.000	
38	   H	2.366	0.815	1.814	 H	1	UNK0	0.000	
39	   H	2.660	-0.701	0.840	 H	1	UNK0	0.000	
@<TRIPOS>BOND
1 1 2 1
2 2 3 2
3 2 7 1
4 3 4 1
5 4 5 2
6 4 9 1
7 5 6 1
8 6 7 1
9 7 8 2
10 9 10 2
11 9 11 1
12 11 12 1
13 11 23 1
14 12 13 1
15 13 14 1
16 13 24 1
17 14 15 1
18 15 16 1
19 15 20 1
20 16 17 2
21 16 22 1
22 17 18 1
23 18 19 2
24 19 20 1
25 20 21 2
26 22 23 1
27 22 24 1
28 3 25 1
29 5 26 1
30 12 27 1
31 12 28 1
32 13 29 1
33 14 30 1
34 14 31 1
35 17 32 1
36 18 33 1
37 19 34 1
38 22 35 1
39 23 36 1
40 23 37 1
41 24 38 1
42 24 39 1
@<TRIPOS>SUBSTRUCTURE
1	UNK0	1	GROUP	1 ****	UNK
