# created with PyMOL 2.3.2
@<TRIPOS>MOLECULE
1486
56 59 1                 
SMALL
USER_CHARGES
@<TRIPOS>ATOM
1	  Br	6.869	-0.636	5.033	Br	1	UNK0	0.000	
2	   C	5.342	-0.689	3.863	C.2	1	UNK0	0.000	
3	   C	4.513	0.415	3.762	C.2	1	UNK0	0.000	
4	   C	3.407	0.383	2.918	C.2	1	UNK0	0.000	
5	   C	3.110	-0.732	2.169	C.2	1	UNK0	0.000	
6	   C	3.955	-1.812	2.294	C.2	1	UNK0	0.000	
7	   C	5.053	-1.808	3.119	C.2	1	UNK0	0.000	
8	   C	1.964	-0.780	1.287	C.2	1	UNK0	0.000	
9	   O	1.738	-1.827	0.624	O.2	1	UNK0	0.000	
10	   C	1.022	0.358	1.117	C.3	1	UNK0	0.000	
11	   N	-0.024	0.050	0.188	N.pl3	1	UNK0	0.000	
12	   N	-0.009	0.251	-1.110	N.2	1	UNK0	0.000	
13	   C	-1.160	-0.158	-1.664	C.2	1	UNK0	0.000	
14	   N	-1.924	-0.634	-0.670	N.pl3	1	UNK0	0.000	
15	   C	-1.206	-0.501	0.484	C.2	1	UNK0	0.000	
16	   C	-1.648	-0.890	1.822	C.3	1	UNK0	0.000	
17	   C	-2.001	-2.355	1.925	C.3	1	UNK0	0.000	
18	   C	-3.299	-2.675	1.217	C.3	1	UNK0	0.000	
19	   C	-3.188	-2.613	-0.275	C.3	1	UNK0	0.000	
20	   C	-3.258	-1.186	-0.800	C.3	1	UNK0	0.000	
21	   C	-1.546	-0.110	-3.081	C.3	1	UNK0	0.000	
22	   N	-0.577	0.560	-3.893	N.pl3	1	UNK0	0.000	
23	   C	-0.233	1.931	-3.718	C.2	1	UNK0	0.000	
24	   C	0.748	2.544	-4.464	C.2	1	UNK0	0.000	
25	   C	1.067	3.866	-4.290	C.2	1	UNK0	0.000	
26	   C	0.403	4.600	-3.358	C.2	1	UNK0	0.000	
27	   C	-0.579	3.990	-2.609	C.2	1	UNK0	0.000	
28	   C	-0.909	2.661	-2.776	C.2	1	UNK0	0.000	
29	   O	0.702	5.927	-3.161	O.3	1	UNK0	0.000	
30	   C	1.692	6.605	-3.894	C.3	1	UNK0	0.000	
31	   H	4.752	1.281	4.349	 H	1	UNK0	0.000	
32	   H	2.778	1.253	2.856	 H	1	UNK0	0.000	
33	   H	3.734	-2.712	1.704	 H	1	UNK0	0.000	
34	   H	5.674	-2.680	3.174	 H	1	UNK0	0.000	
35	   H	0.647	0.727	2.091	 H	1	UNK0	0.000	
36	   H	1.638	1.189	0.664	 H	1	UNK0	0.000	
37	   H	-0.868	-0.692	2.578	 H	1	UNK0	0.000	
38	   H	-2.559	-0.324	2.171	 H	1	UNK0	0.000	
39	   H	-1.206	-3.025	1.596	 H	1	UNK0	0.000	
40	   H	-2.175	-2.562	3.010	 H	1	UNK0	0.000	
41	   H	-4.135	-2.088	1.602	 H	1	UNK0	0.000	
42	   H	-3.529	-3.748	1.477	 H	1	UNK0	0.000	
43	   H	-2.261	-3.056	-0.636	 H	1	UNK0	0.000	
44	   H	-4.050	-3.196	-0.700	 H	1	UNK0	0.000	
45	   H	-4.021	-0.592	-0.274	 H	1	UNK0	0.000	
46	   H	-3.529	-1.221	-1.866	 H	1	UNK0	0.000	
47	   H	-2.528	0.426	-3.152	 H	1	UNK0	0.000	
48	   H	-1.719	-1.121	-3.485	 H	1	UNK0	0.000	
49	   H	-0.091	0.050	-4.645	 H	1	UNK0	0.000	
50	   H	1.252	1.906	-5.202	 H	1	UNK0	0.000	
51	   H	1.839	4.301	-4.896	 H	1	UNK0	0.000	
52	   H	-1.131	4.553	-1.852	 H	1	UNK0	0.000	
53	   H	-1.698	2.193	-2.170	 H	1	UNK0	0.000	
54	   H	1.946	7.560	-3.417	 H	1	UNK0	0.000	
55	   H	2.597	5.966	-3.936	 H	1	UNK0	0.000	
56	   H	1.370	6.794	-4.943	 H	1	UNK0	0.000	
@<TRIPOS>BOND
1 1 2 1
2 2 3 2
3 2 7 1
4 3 4 1
5 4 5 2
6 5 6 1
7 5 8 1
8 6 7 2
9 8 9 2
10 8 10 1
11 10 11 1
12 11 12 1
13 11 15 2
14 12 13 2
15 13 14 1
16 13 21 1
17 14 15 1
18 14 20 1
19 15 16 1
20 16 17 1
21 17 18 1
22 18 19 1
23 19 20 1
24 21 22 1
25 22 23 1
26 23 24 2
27 23 28 1
28 24 25 1
29 25 26 2
30 26 27 1
31 26 29 1
32 27 28 2
33 29 30 1
34 3 31 1
35 4 32 1
36 6 33 1
37 7 34 1
38 10 35 1
39 10 36 1
40 16 37 1
41 16 38 1
42 17 39 1
43 17 40 1
44 18 41 1
45 18 42 1
46 19 43 1
47 19 44 1
48 20 45 1
49 20 46 1
50 21 47 1
51 21 48 1
52 22 49 1
53 24 50 1
54 25 51 1
55 27 52 1
56 28 53 1
57 30 54 1
58 30 55 1
59 30 56 1
@<TRIPOS>SUBSTRUCTURE
1	UNK0	1	GROUP	1 ****	UNK
