# created with PyMOL 2.3.2
@<TRIPOS>MOLECULE
1488
52 55 1                 
SMALL
USER_CHARGES
@<TRIPOS>ATOM
1	  Cl	-1.493	-7.197	3.277	Cl	1	UNK0	0.000	
2	   C	-0.161	-6.077	3.554	C.2	1	UNK0	0.000	
3	   C	-0.110	-4.874	2.834	C.2	1	UNK0	0.000	
4	   C	0.925	-4.004	3.050	C.2	1	UNK0	0.000	
5	   C	1.922	-4.301	3.971	C.2	1	UNK0	0.000	
6	   C	1.878	-5.474	4.677	C.2	1	UNK0	0.000	
7	   C	0.824	-6.355	4.455	C.2	1	UNK0	0.000	
8	   C	-1.189	-4.608	1.883	C.3	1	UNK0	0.000	
9	   N	-1.091	-3.362	1.147	N.pl3	1	UNK0	0.000	
10	   C	-1.635	-2.119	1.587	C.2	1	UNK0	0.000	
11	   O	-2.245	-1.875	2.683	O.2	1	UNK0	0.000	
12	   N	-1.398	-1.135	0.596	N.pl3	1	UNK0	0.000	
13	   C	-0.499	-1.656	-0.372	C.3	1	UNK0	0.000	
14	   C	-0.518	-3.120	-0.118	C.2	1	UNK0	0.000	
15	   O	-0.084	-3.976	-0.924	O.2	1	UNK0	0.000	
16	   C	0.913	-1.224	-0.244	C.3	1	UNK0	0.000	
17	   C	1.227	0.220	-0.311	C.3	1	UNK0	0.000	
18	   C	0.711	1.027	0.804	C.2	1	UNK0	0.000	
19	   O	0.312	0.461	1.846	O.2	1	UNK0	0.000	
20	   N	0.641	2.453	0.754	N.pl3	1	UNK0	0.000	
21	   C	0.145	3.250	1.821	C.3	1	UNK0	0.000	
22	   C	0.134	4.719	1.611	C.3	1	UNK0	0.000	
23	   C	-0.687	5.198	0.476	C.2	1	UNK0	0.000	
24	   N	-0.361	5.453	-0.801	N.pl3	1	UNK0	0.000	
25	   C	-1.456	5.864	-1.485	C.2	1	UNK0	0.000	
26	   N	-2.461	5.856	-0.601	N.2	1	UNK0	0.000	
27	   N	-2.009	5.455	0.591	N.2	1	UNK0	0.000	
28	   C	-1.407	6.199	-2.820	C.2	1	UNK0	0.000	
29	   C	-0.200	6.115	-3.487	C.2	1	UNK0	0.000	
30	   C	0.921	5.699	-2.803	C.2	1	UNK0	0.000	
31	   C	0.805	5.378	-1.468	C.2	1	UNK0	0.000	
32	   H	1.006	-3.068	2.527	 H	1	UNK0	0.000	
33	   H	2.731	-3.619	4.138	 H	1	UNK0	0.000	
34	   H	2.650	-5.710	5.394	 H	1	UNK0	0.000	
35	   H	0.789	-7.291	5.018	 H	1	UNK0	0.000	
36	   H	-2.173	-4.583	2.418	 H	1	UNK0	0.000	
37	   H	-1.260	-5.464	1.176	 H	1	UNK0	0.000	
38	   H	-1.853	-0.171	0.579	 H	1	UNK0	0.000	
39	   H	-0.888	-1.457	-1.429	 H	1	UNK0	0.000	
40	   H	1.263	-1.575	0.775	 H	1	UNK0	0.000	
41	   H	1.517	-1.832	-0.964	 H	1	UNK0	0.000	
42	   H	0.945	0.669	-1.308	 H	1	UNK0	0.000	
43	   H	2.340	0.308	-0.303	 H	1	UNK0	0.000	
44	   H	0.980	2.896	-0.118	 H	1	UNK0	0.000	
45	   H	-0.916	2.966	2.106	 H	1	UNK0	0.000	
46	   H	0.707	3.068	2.783	 H	1	UNK0	0.000	
47	   H	1.188	5.070	1.409	 H	1	UNK0	0.000	
48	   H	-0.184	5.288	2.508	 H	1	UNK0	0.000	
49	   H	-2.260	6.529	-3.396	 H	1	UNK0	0.000	
50	   H	-0.117	6.370	-4.542	 H	1	UNK0	0.000	
51	   H	1.886	5.614	-3.267	 H	1	UNK0	0.000	
52	   H	1.694	5.045	-0.912	 H	1	UNK0	0.000	
@<TRIPOS>BOND
1 1 2 1
2 2 3 2
3 2 7 1
4 3 4 1
5 3 8 1
6 4 5 2
7 5 6 1
8 6 7 2
9 8 9 1
10 9 10 1
11 9 14 1
12 10 11 2
13 10 12 1
14 12 13 1
15 13 14 1
16 13 16 1
17 14 15 2
18 16 17 1
19 17 18 1
20 18 19 2
21 18 20 1
22 20 21 1
23 21 22 1
24 22 23 1
25 23 24 1
26 23 27 2
27 24 25 1
28 24 31 1
29 25 26 2
30 25 28 1
31 26 27 1
32 28 29 2
33 29 30 1
34 30 31 2
35 4 32 1
36 5 33 1
37 6 34 1
38 7 35 1
39 8 36 1
40 8 37 1
41 12 38 1
42 13 39 1
43 16 40 1
44 16 41 1
45 17 42 1
46 17 43 1
47 20 44 1
48 21 45 1
49 21 46 1
50 22 47 1
51 22 48 1
52 28 49 1
53 29 50 1
54 30 51 1
55 31 52 1
@<TRIPOS>SUBSTRUCTURE
1	UNK0	1	GROUP	1 ****	UNK
