# created with PyMOL 2.3.2
@<TRIPOS>MOLECULE
1489
51 54 1                 
SMALL
USER_CHARGES
@<TRIPOS>ATOM
1	  Cl	4.315	-1.111	0.363	Cl	1	UNK0	0.000	
2	   C	4.046	-2.303	1.633	C.2	1	UNK0	0.000	
3	   C	2.899	-2.243	2.437	C.2	1	UNK0	0.000	
4	   C	2.773	-3.197	3.388	C.2	1	UNK0	0.000	
5	   C	3.725	-4.207	3.582	C.2	1	UNK0	0.000	
6	   C	4.844	-4.237	2.772	C.2	1	UNK0	0.000	
7	   C	4.999	-3.284	1.801	C.2	1	UNK0	0.000	
8	   C	1.978	-1.129	2.149	C.3	1	UNK0	0.000	
9	   N	0.791	-1.088	2.956	N.3	1	UNK0	0.000	
10	   C	0.002	0.101	2.709	C.3	1	UNK0	0.000	
11	   C	-0.371	0.235	1.221	C.3	1	UNK0	0.000	
12	   N	-0.963	-0.986	0.857	N.3	1	UNK0	0.000	
13	   C	-1.327	-1.854	1.910	C.3	1	UNK0	0.000	
14	   C	-0.068	-2.224	2.685	C.3	1	UNK0	0.000	
15	   C	-0.919	-1.464	-0.445	C.3	1	UNK0	0.000	
16	   C	-1.673	-0.805	-1.498	C.2	1	UNK0	0.000	
17	   O	-1.557	-1.324	-2.671	O.2	1	UNK0	0.000	
18	   N	-2.513	0.320	-1.414	N.pl3	1	UNK0	0.000	
19	   N	-3.193	0.859	-2.510	N.2	1	UNK0	0.000	
20	   C	-2.787	1.915	-3.133	C.2	1	UNK0	0.000	
21	   C	-1.603	2.717	-2.837	C.2	1	UNK0	0.000	
22	   C	-1.530	3.761	-3.740	C.2	1	UNK0	0.000	
23	   C	-0.512	4.691	-3.707	C.2	1	UNK0	0.000	
24	   C	0.476	4.592	-2.750	C.2	1	UNK0	0.000	
25	   C	0.430	3.564	-1.839	C.2	1	UNK0	0.000	
26	   C	-0.609	2.639	-1.894	C.2	1	UNK0	0.000	
27	   N	-2.639	3.694	-4.649	N.pl3	1	UNK0	0.000	
28	   C	-3.417	2.559	-4.281	C.2	1	UNK0	0.000	
29	   O	-4.483	2.132	-4.820	O.2	1	UNK0	0.000	
30	   H	1.915	-3.178	4.028	 H	1	UNK0	0.000	
31	   H	3.560	-4.935	4.359	 H	1	UNK0	0.000	
32	   H	5.602	-5.009	2.898	 H	1	UNK0	0.000	
33	   H	5.869	-3.302	1.167	 H	1	UNK0	0.000	
34	   H	2.599	-0.192	2.286	 H	1	UNK0	0.000	
35	   H	1.725	-1.237	1.051	 H	1	UNK0	0.000	
36	   H	0.538	1.024	3.016	 H	1	UNK0	0.000	
37	   H	-0.935	0.029	3.280	 H	1	UNK0	0.000	
38	   H	-0.974	1.156	1.078	 H	1	UNK0	0.000	
39	   H	0.581	0.377	0.674	 H	1	UNK0	0.000	
40	   H	-1.683	-2.813	1.454	 H	1	UNK0	0.000	
41	   H	-2.105	-1.486	2.598	 H	1	UNK0	0.000	
42	   H	0.517	-2.995	2.129	 H	1	UNK0	0.000	
43	   H	-0.343	-2.664	3.671	 H	1	UNK0	0.000	
44	   H	-1.228	-2.562	-0.434	 H	1	UNK0	0.000	
45	   H	0.182	-1.554	-0.723	 H	1	UNK0	0.000	
46	   H	-2.658	0.780	-0.499	 H	1	UNK0	0.000	
47	   H	-0.459	5.498	-4.407	 H	1	UNK0	0.000	
48	   H	1.298	5.306	-2.689	 H	1	UNK0	0.000	
49	   H	1.199	3.483	-1.090	 H	1	UNK0	0.000	
50	   H	-0.653	1.829	-1.182	 H	1	UNK0	0.000	
51	   H	-2.850	4.351	-5.442	 H	1	UNK0	0.000	
@<TRIPOS>BOND
1 1 2 1
2 2 3 2
3 2 7 1
4 3 4 1
5 3 8 1
6 4 5 2
7 5 6 1
8 6 7 2
9 8 9 1
10 9 10 1
11 9 14 1
12 10 11 1
13 11 12 1
14 12 13 1
15 12 15 1
16 13 14 1
17 15 16 1
18 16 17 2
19 16 18 1
20 18 19 1
21 19 20 2
22 20 21 1
23 20 28 1
24 21 22 1
25 21 26 2
26 22 23 2
27 22 27 1
28 23 24 1
29 24 25 2
30 25 26 1
31 27 28 1
32 28 29 2
33 4 30 1
34 5 31 1
35 6 32 1
36 7 33 1
37 8 34 1
38 8 35 1
39 10 36 1
40 10 37 1
41 11 38 1
42 11 39 1
43 13 40 1
44 13 41 1
45 14 42 1
46 14 43 1
47 15 44 1
48 15 45 1
49 18 46 1
50 23 47 1
51 24 48 1
52 25 49 1
53 26 50 1
54 27 51 1
@<TRIPOS>SUBSTRUCTURE
1	UNK0	1	GROUP	1 ****	UNK
