# created with PyMOL 2.3.2
@<TRIPOS>MOLECULE
1490
47 50 1                 
SMALL
USER_CHARGES
@<TRIPOS>ATOM
1	  Cl	-4.307	1.004	-1.632	Cl	1	UNK0	0.000	
2	   C	-3.765	2.603	-2.059	C.2	1	UNK0	0.000	
3	   C	-2.425	2.873	-2.039	C.2	1	UNK0	0.000	
4	   C	-1.999	4.137	-2.376	C.2	1	UNK0	0.000	
5	   C	-2.921	5.117	-2.731	C.2	1	UNK0	0.000	
6	   C	-4.266	4.830	-2.746	C.2	1	UNK0	0.000	
7	   C	-4.711	3.565	-2.411	C.2	1	UNK0	0.000	
8	   C	-1.490	1.820	-1.668	C.2	1	UNK0	0.000	
9	   N	-0.214	2.017	-1.627	N.2	1	UNK0	0.000	
10	   N	0.740	1.064	-1.285	N.pl3	1	UNK0	0.000	
11	   C	1.187	1.016	0.066	C.2	1	UNK0	0.000	
12	   N	1.214	-0.044	0.877	N.pl3	1	UNK0	0.000	
13	   C	1.731	0.424	2.053	C.2	1	UNK0	0.000	
14	   N	1.990	-0.200	3.235	N.2	1	UNK0	0.000	
15	   C	2.508	0.503	4.252	C.2	1	UNK0	0.000	
16	   N	2.789	1.831	4.149	N.2	1	UNK0	0.000	
17	   C	2.554	2.495	3.006	C.2	1	UNK0	0.000	
18	   C	2.018	1.760	1.959	C.2	1	UNK0	0.000	
19	   N	1.678	2.118	0.725	N.2	1	UNK0	0.000	
20	   N	2.834	3.875	2.872	N.pl3	1	UNK0	0.000	
21	   C	0.797	-1.408	0.657	C.3	1	UNK0	0.000	
22	   O	0.833	-2.116	1.852	O.3	1	UNK0	0.000	
23	   C	1.423	-3.328	1.666	C.3	1	UNK0	0.000	
24	   C	1.620	-3.557	0.206	C.3	1	UNK0	0.000	
25	   C	1.632	-2.116	-0.333	C.3	1	UNK0	0.000	
26	   O	0.988	-2.188	-1.574	O.3	1	UNK0	0.000	
27	   O	0.472	-4.192	-0.290	O.3	1	UNK0	0.000	
28	   C	2.719	-3.510	2.449	C.3	1	UNK0	0.000	
29	   O	3.684	-2.588	2.109	O.3	1	UNK0	0.000	
30	   H	-0.954	4.370	-2.364	 H	1	UNK0	0.000	
31	   H	-2.609	6.112	-2.996	 H	1	UNK0	0.000	
32	   H	-4.990	5.609	-3.028	 H	1	UNK0	0.000	
33	   H	-5.768	3.338	-2.423	 H	1	UNK0	0.000	
34	   H	-1.834	0.836	-1.415	 H	1	UNK0	0.000	
35	   H	1.090	0.438	-2.030	 H	1	UNK0	0.000	
36	   H	2.704	-0.015	5.176	 H	1	UNK0	0.000	
37	   H	3.760	4.203	2.536	 H	1	UNK0	0.000	
38	   H	2.122	4.597	3.108	 H	1	UNK0	0.000	
39	   H	-0.283	-1.467	0.323	 H	1	UNK0	0.000	
40	   H	0.733	-4.128	2.066	 H	1	UNK0	0.000	
41	   H	2.535	-4.088	-0.063	 H	1	UNK0	0.000	
42	   H	2.646	-1.735	-0.470	 H	1	UNK0	0.000	
43	   H	0.053	-2.480	-1.505	 H	1	UNK0	0.000	
44	   H	-0.316	-4.030	0.321	 H	1	UNK0	0.000	
45	   H	3.052	-4.563	2.278	 H	1	UNK0	0.000	
46	   H	2.464	-3.433	3.521	 H	1	UNK0	0.000	
47	   H	4.340	-3.009	1.486	 H	1	UNK0	0.000	
@<TRIPOS>BOND
1 1 2 1
2 2 3 2
3 2 7 1
4 3 4 1
5 3 8 1
6 4 5 2
7 5 6 1
8 6 7 2
9 8 9 2
10 9 10 1
11 10 11 1
12 11 12 1
13 11 19 2
14 12 13 1
15 12 21 1
16 13 14 2
17 13 18 1
18 14 15 1
19 15 16 2
20 16 17 1
21 17 18 2
22 17 20 1
23 18 19 1
24 21 22 1
25 21 25 1
26 22 23 1
27 23 24 1
28 23 28 1
29 24 25 1
30 24 27 1
31 25 26 1
32 28 29 1
33 4 30 1
34 5 31 1
35 6 32 1
36 7 33 1
37 8 34 1
38 10 35 1
39 15 36 1
40 20 37 1
41 20 38 1
42 21 39 1
43 23 40 1
44 24 41 1
45 25 42 1
46 26 43 1
47 27 44 1
48 28 45 1
49 28 46 1
50 29 47 1
@<TRIPOS>SUBSTRUCTURE
1	UNK0	1	GROUP	1 ****	UNK
