# created with PyMOL 2.3.2
@<TRIPOS>MOLECULE
1492
42 45 1                 
SMALL
USER_CHARGES
@<TRIPOS>ATOM
1	  Cl	-2.629	-3.630	1.173	Cl	1	UNK0	0.000	
2	   C	-2.442	-2.359	2.356	C.2	1	UNK0	0.000	
3	   C	-1.249	-1.639	2.385	C.2	1	UNK0	0.000	
4	   C	-1.088	-0.636	3.313	C.2	1	UNK0	0.000	
5	   C	-2.151	-0.386	4.193	C.2	1	UNK0	0.000	
6	   C	-3.319	-1.096	4.157	C.2	1	UNK0	0.000	
7	   C	-3.477	-2.101	3.227	C.2	1	UNK0	0.000	
8	   C	0.143	0.124	3.457	C.2	1	UNK0	0.000	
9	   O	-0.000	1.187	4.196	O.2	1	UNK0	0.000	
10	   N	1.410	-0.104	2.943	N.pl3	1	UNK0	0.000	
11	   C	1.895	-1.203	2.171	C.3	1	UNK0	0.000	
12	   C	2.065	-0.778	0.698	C.3	1	UNK0	0.000	
13	   N	2.490	0.619	0.705	N.pl3	1	UNK0	0.000	
14	   C	3.216	1.084	1.861	C.3	1	UNK0	0.000	
15	   C	2.433	0.960	3.157	C.3	1	UNK0	0.000	
16	   C	2.216	1.505	-0.362	C.2	1	UNK0	0.000	
17	   N	2.631	2.781	-0.302	N.2	1	UNK0	0.000	
18	   C	2.397	3.658	-1.286	C.2	1	UNK0	0.000	
19	   N	1.727	3.268	-2.376	N.2	1	UNK0	0.000	
20	   C	1.264	2.005	-2.539	C.2	1	UNK0	0.000	
21	   C	1.528	1.130	-1.497	C.2	1	UNK0	0.000	
22	   N	0.557	1.618	-3.702	N.pl3	1	UNK0	0.000	
23	   N	-0.383	2.337	-4.284	N.2	1	UNK0	0.000	
24	   C	-0.851	1.672	-5.375	C.2	1	UNK0	0.000	
25	   N	-0.154	0.517	-5.430	N.2	1	UNK0	0.000	
26	   C	0.727	0.480	-4.387	C.2	1	UNK0	0.000	
27	   H	-0.484	-1.870	1.642	 H	1	UNK0	0.000	
28	   H	-2.020	0.419	4.937	 H	1	UNK0	0.000	
29	   H	-4.108	-0.864	4.856	 H	1	UNK0	0.000	
30	   H	-4.383	-2.691	3.161	 H	1	UNK0	0.000	
31	   H	1.493	-2.182	2.321	 H	1	UNK0	0.000	
32	   H	3.007	-1.307	2.506	 H	1	UNK0	0.000	
33	   H	2.887	-1.357	0.237	 H	1	UNK0	0.000	
34	   H	1.143	-0.956	0.156	 H	1	UNK0	0.000	
35	   H	3.519	2.143	1.777	 H	1	UNK0	0.000	
36	   H	4.175	0.503	1.920	 H	1	UNK0	0.000	
37	   H	3.098	0.594	3.947	 H	1	UNK0	0.000	
38	   H	1.877	1.873	3.391	 H	1	UNK0	0.000	
39	   H	2.746	4.670	-1.200	 H	1	UNK0	0.000	
40	   H	1.183	0.123	-1.579	 H	1	UNK0	0.000	
41	   H	-1.624	1.985	-6.071	 H	1	UNK0	0.000	
42	   H	1.421	-0.324	-4.172	 H	1	UNK0	0.000	
@<TRIPOS>BOND
1 1 2 1
2 2 3 2
3 2 7 1
4 3 4 1
5 4 5 2
6 4 8 1
7 5 6 1
8 6 7 2
9 8 9 2
10 8 10 1
11 10 11 1
12 10 15 1
13 11 12 1
14 12 13 1
15 13 14 1
16 13 16 1
17 14 15 1
18 16 17 2
19 16 21 1
20 17 18 1
21 18 19 2
22 19 20 1
23 20 21 2
24 20 22 1
25 22 23 1
26 22 26 1
27 23 24 2
28 24 25 1
29 25 26 2
30 3 27 1
31 5 28 1
32 6 29 1
33 7 30 1
34 11 31 1
35 11 32 1
36 12 33 1
37 12 34 1
38 14 35 1
39 14 36 1
40 15 37 1
41 15 38 1
42 18 39 1
43 21 40 1
44 24 41 1
45 26 42 1
@<TRIPOS>SUBSTRUCTURE
1	UNK0	1	GROUP	1 ****	UNK
