# created with PyMOL 2.3.2
@<TRIPOS>MOLECULE
1493
53 56 1                 
SMALL
USER_CHARGES
@<TRIPOS>ATOM
1	  Cl	-2.201	4.302	-4.345	Cl	1	UNK0	0.000	
2	   C	-2.951	3.248	-3.137	C.2	1	UNK0	0.000	
3	   C	-2.355	3.146	-1.885	C.2	1	UNK0	0.000	
4	   C	-2.912	2.344	-0.937	C.2	1	UNK0	0.000	
5	   C	-4.085	1.646	-1.283	C.2	1	UNK0	0.000	
6	   C	-4.690	1.730	-2.507	C.2	1	UNK0	0.000	
7	   C	-4.101	2.551	-3.444	C.2	1	UNK0	0.000	
8	   C	-2.364	2.234	0.396	C.2	1	UNK0	0.000	
9	   O	-2.903	1.280	1.099	O.2	1	UNK0	0.000	
10	   N	-1.383	2.950	1.052	N.pl3	1	UNK0	0.000	
11	   C	-1.015	2.506	2.440	C.3	1	UNK0	0.000	
12	   C	0.504	2.421	2.404	C.3	1	UNK0	0.000	
13	   N	1.054	2.432	1.073	N.pl3	1	UNK0	0.000	
14	   C	0.716	3.585	0.194	C.3	1	UNK0	0.000	
15	   C	-0.632	4.109	0.658	C.3	1	UNK0	0.000	
16	   C	1.891	1.405	0.574	C.2	1	UNK0	0.000	
17	   N	2.406	1.522	-0.693	N.2	1	UNK0	0.000	
18	   C	3.204	0.586	-1.222	C.2	1	UNK0	0.000	
19	   N	3.536	-0.527	-0.517	N.2	1	UNK0	0.000	
20	   C	3.069	-0.704	0.724	C.2	1	UNK0	0.000	
21	   C	2.248	0.272	1.254	C.2	1	UNK0	0.000	
22	   N	3.382	-1.842	1.511	N.pl3	1	UNK0	0.000	
23	   C	4.302	-2.875	1.020	C.3	1	UNK0	0.000	
24	   C	3.482	-4.134	0.860	C.3	1	UNK0	0.000	
25	   N	2.602	-4.361	1.976	N.3	1	UNK0	0.000	
26	   C	2.913	-3.552	3.122	C.3	1	UNK0	0.000	
27	   C	2.833	-2.072	2.829	C.3	1	UNK0	0.000	
28	   C	1.206	-4.313	1.609	C.3	1	UNK0	0.000	
29	   H	-1.438	3.708	-1.747	 H	1	UNK0	0.000	
30	   H	-4.554	0.990	-0.530	 H	1	UNK0	0.000	
31	   H	-5.589	1.192	-2.768	 H	1	UNK0	0.000	
32	   H	-4.543	2.652	-4.429	 H	1	UNK0	0.000	
33	   H	-1.508	1.574	2.700	 H	1	UNK0	0.000	
34	   H	-1.282	3.367	3.077	 H	1	UNK0	0.000	
35	   H	0.751	1.505	2.960	 H	1	UNK0	0.000	
36	   H	0.949	3.282	2.983	 H	1	UNK0	0.000	
37	   H	0.741	3.267	-0.844	 H	1	UNK0	0.000	
38	   H	1.519	4.323	0.364	 H	1	UNK0	0.000	
39	   H	-1.103	4.851	0.049	 H	1	UNK0	0.000	
40	   H	-0.386	4.686	1.628	 H	1	UNK0	0.000	
41	   H	3.590	0.725	-2.240	 H	1	UNK0	0.000	
42	   H	1.876	0.123	2.255	 H	1	UNK0	0.000	
43	   H	5.007	-3.067	1.865	 H	1	UNK0	0.000	
44	   H	4.782	-2.583	0.088	 H	1	UNK0	0.000	
45	   H	2.847	-4.087	-0.062	 H	1	UNK0	0.000	
46	   H	4.207	-4.986	0.820	 H	1	UNK0	0.000	
47	   H	2.234	-3.807	3.935	 H	1	UNK0	0.000	
48	   H	3.938	-3.786	3.447	 H	1	UNK0	0.000	
49	   H	1.769	-1.781	2.927	 H	1	UNK0	0.000	
50	   H	3.400	-1.488	3.581	 H	1	UNK0	0.000	
51	   H	1.081	-4.179	0.495	 H	1	UNK0	0.000	
52	   H	0.768	-5.306	1.839	 H	1	UNK0	0.000	
53	   H	0.626	-3.556	2.140	 H	1	UNK0	0.000	
@<TRIPOS>BOND
1 1 2 1
2 2 3 2
3 2 7 1
4 3 4 1
5 4 5 2
6 4 8 1
7 5 6 1
8 6 7 2
9 8 9 2
10 8 10 1
11 10 11 1
12 10 15 1
13 11 12 1
14 12 13 1
15 13 14 1
16 13 16 1
17 14 15 1
18 16 17 2
19 16 21 1
20 17 18 1
21 18 19 2
22 19 20 1
23 20 21 2
24 20 22 1
25 22 23 1
26 22 27 1
27 23 24 1
28 24 25 1
29 25 26 1
30 25 28 1
31 26 27 1
32 3 29 1
33 5 30 1
34 6 31 1
35 7 32 1
36 11 33 1
37 11 34 1
38 12 35 1
39 12 36 1
40 14 37 1
41 14 38 1
42 15 39 1
43 15 40 1
44 18 41 1
45 21 42 1
46 23 43 1
47 23 44 1
48 24 45 1
49 24 46 1
50 26 47 1
51 26 48 1
52 27 49 1
53 27 50 1
54 28 51 1
55 28 52 1
56 28 53 1
@<TRIPOS>SUBSTRUCTURE
1	UNK0	1	GROUP	1 ****	UNK
