# created with PyMOL 2.3.2
@<TRIPOS>MOLECULE
1494
49 52 1                 
SMALL
USER_CHARGES
@<TRIPOS>ATOM
1	  Cl	-1.842	6.577	2.149	Cl	1	UNK0	0.000	
2	   C	-2.659	5.057	2.565	C.2	1	UNK0	0.000	
3	   C	-1.908	3.914	2.717	C.2	1	UNK0	0.000	
4	   C	-2.499	2.724	3.038	C.2	1	UNK0	0.000	
5	   C	-3.890	2.725	3.200	C.2	1	UNK0	0.000	
6	   C	-4.663	3.848	3.054	C.2	1	UNK0	0.000	
7	   C	-4.019	5.017	2.733	C.2	1	UNK0	0.000	
8	   C	-1.766	1.495	3.272	C.2	1	UNK0	0.000	
9	   O	-2.574	0.448	3.302	O.2	1	UNK0	0.000	
10	   N	-0.415	1.263	3.461	N.pl3	1	UNK0	0.000	
11	   C	0.012	-0.156	3.599	C.3	1	UNK0	0.000	
12	   C	1.251	-0.238	2.687	C.3	1	UNK0	0.000	
13	   N	1.284	0.824	1.714	N.pl3	1	UNK0	0.000	
14	   C	1.412	2.189	2.273	C.3	1	UNK0	0.000	
15	   C	0.632	2.203	3.586	C.3	1	UNK0	0.000	
16	   C	1.199	0.633	0.313	C.2	1	UNK0	0.000	
17	   N	1.291	1.712	-0.521	N.2	1	UNK0	0.000	
18	   C	1.216	1.606	-1.852	C.2	1	UNK0	0.000	
19	   N	1.044	0.394	-2.393	N.2	1	UNK0	0.000	
20	   C	0.940	-0.752	-1.655	C.2	1	UNK0	0.000	
21	   C	1.024	-0.584	-0.283	C.2	1	UNK0	0.000	
22	   N	0.756	-1.977	-2.304	N.pl3	1	UNK0	0.000	
23	   C	0.746	-3.229	-1.613	C.3	1	UNK0	0.000	
24	   C	-0.666	-3.801	-1.815	C.3	1	UNK0	0.000	
25	   O	-1.372	-3.103	-2.773	O.3	1	UNK0	0.000	
26	   C	-0.673	-2.887	-3.954	C.3	1	UNK0	0.000	
27	   C	0.558	-1.998	-3.737	C.3	1	UNK0	0.000	
28	   H	-0.824	3.994	2.533	 H	1	UNK0	0.000	
29	   H	-4.440	1.808	3.458	 H	1	UNK0	0.000	
30	   H	-5.750	3.832	3.184	 H	1	UNK0	0.000	
31	   H	-4.596	5.939	2.607	 H	1	UNK0	0.000	
32	   H	-0.777	-0.834	3.285	 H	1	UNK0	0.000	
33	   H	0.357	-0.280	4.645	 H	1	UNK0	0.000	
34	   H	2.178	-0.117	3.323	 H	1	UNK0	0.000	
35	   H	1.217	-1.254	2.261	 H	1	UNK0	0.000	
36	   H	1.066	2.937	1.553	 H	1	UNK0	0.000	
37	   H	2.495	2.339	2.439	 H	1	UNK0	0.000	
38	   H	0.446	3.170	4.016	 H	1	UNK0	0.000	
39	   H	1.378	1.729	4.335	 H	1	UNK0	0.000	
40	   H	1.296	2.510	-2.471	 H	1	UNK0	0.000	
41	   H	0.942	-1.462	0.311	 H	1	UNK0	0.000	
42	   H	1.404	-3.923	-2.224	 H	1	UNK0	0.000	
43	   H	1.032	-3.225	-0.568	 H	1	UNK0	0.000	
44	   H	-0.615	-4.897	-2.054	 H	1	UNK0	0.000	
45	   H	-1.186	-3.687	-0.850	 H	1	UNK0	0.000	
46	   H	-0.425	-3.814	-4.477	 H	1	UNK0	0.000	
47	   H	-1.362	-2.307	-4.614	 H	1	UNK0	0.000	
48	   H	1.442	-2.478	-4.240	 H	1	UNK0	0.000	
49	   H	0.405	-0.990	-4.159	 H	1	UNK0	0.000	
@<TRIPOS>BOND
1 1 2 1
2 2 3 2
3 2 7 1
4 3 4 1
5 4 5 2
6 4 8 1
7 5 6 1
8 6 7 2
9 8 9 2
10 8 10 1
11 10 11 1
12 10 15 1
13 11 12 1
14 12 13 1
15 13 14 1
16 13 16 1
17 14 15 1
18 16 17 2
19 16 21 1
20 17 18 1
21 18 19 2
22 19 20 1
23 20 21 2
24 20 22 1
25 22 23 1
26 22 27 1
27 23 24 1
28 24 25 1
29 25 26 1
30 26 27 1
31 3 28 1
32 5 29 1
33 6 30 1
34 7 31 1
35 11 32 1
36 11 33 1
37 12 34 1
38 12 35 1
39 14 36 1
40 14 37 1
41 15 38 1
42 15 39 1
43 18 40 1
44 21 41 1
45 23 42 1
46 23 43 1
47 24 44 1
48 24 45 1
49 26 46 1
50 26 47 1
51 27 48 1
52 27 49 1
@<TRIPOS>SUBSTRUCTURE
1	UNK0	1	GROUP	1 ****	UNK
