# created with PyMOL 2.3.2
@<TRIPOS>MOLECULE
1495
54 58 1                 
SMALL
USER_CHARGES
@<TRIPOS>ATOM
1	  Cl	2.405	3.472	-2.087	Cl	1	UNK0	0.000	
2	   C	0.930	2.729	-2.646	C.2	1	UNK0	0.000	
3	   C	0.431	1.604	-2.042	C.2	1	UNK0	0.000	
4	   C	-0.749	0.986	-2.468	C.2	1	UNK0	0.000	
5	   C	-1.371	1.584	-3.533	C.2	1	UNK0	0.000	
6	   C	-0.872	2.737	-4.160	C.2	1	UNK0	0.000	
7	   C	0.290	3.325	-3.721	C.2	1	UNK0	0.000	
8	   N	-2.537	0.846	-3.878	N.pl3	1	UNK0	0.000	
9	   C	-2.645	-0.252	-3.000	C.2	1	UNK0	0.000	
10	   O	-3.568	-1.138	-3.058	O.2	1	UNK0	0.000	
11	   C	-1.526	-0.167	-2.047	C.3	1	UNK0	0.000	
12	   N	-0.749	-1.379	-2.211	N.3	1	UNK0	0.000	
13	   C	-0.757	-2.110	-0.989	C.3	1	UNK0	0.000	
14	   C	-1.816	-1.521	-0.115	C.3	1	UNK0	0.000	
15	   C	-2.081	-0.123	-0.670	C.3	1	UNK0	0.000	
16	   C	-1.458	0.783	0.279	C.2	1	UNK0	0.000	
17	   O	-1.235	2.016	0.152	O.2	1	UNK0	0.000	
18	   N	-1.099	0.058	1.472	N.pl3	1	UNK0	0.000	
19	   C	-1.277	-1.328	1.235	C.2	1	UNK0	0.000	
20	   O	-1.012	-2.230	2.057	O.2	1	UNK0	0.000	
21	   C	-0.627	0.652	2.712	C.3	1	UNK0	0.000	
22	   C	0.858	0.728	2.740	C.2	1	UNK0	0.000	
23	   C	1.606	0.266	1.687	C.2	1	UNK0	0.000	
24	   C	2.997	0.309	1.678	C.2	1	UNK0	0.000	
25	   C	3.675	0.840	2.775	C.2	1	UNK0	0.000	
26	   C	2.935	1.307	3.837	C.2	1	UNK0	0.000	
27	   C	1.547	1.249	3.814	C.2	1	UNK0	0.000	
28	   O	5.072	0.885	2.770	O.3	1	UNK0	0.000	
29	   C	5.799	0.394	1.662	C.3	1	UNK0	0.000	
30	   C	-0.877	-3.585	-1.224	C.3	1	UNK0	0.000	
31	   C	-2.101	-3.989	-1.942	C.2	1	UNK0	0.000	
32	   O	-3.250	-3.957	-1.438	O.2	1	UNK0	0.000	
33	   N	-2.007	-4.448	-3.296	N.pl3	1	UNK0	0.000	
34	   H	0.969	1.184	-1.220	 H	1	UNK0	0.000	
35	   H	-1.398	3.177	-4.999	 H	1	UNK0	0.000	
36	   H	0.685	4.218	-4.200	 H	1	UNK0	0.000	
37	   H	-3.222	1.067	-4.659	 H	1	UNK0	0.000	
38	   H	0.190	-1.228	-2.622	 H	1	UNK0	0.000	
39	   H	0.273	-1.964	-0.537	 H	1	UNK0	0.000	
40	   H	-2.739	-2.116	-0.121	 H	1	UNK0	0.000	
41	   H	-3.174	0.094	-0.689	 H	1	UNK0	0.000	
42	   H	-1.062	1.668	2.812	 H	1	UNK0	0.000	
43	   H	-0.993	0.059	3.572	 H	1	UNK0	0.000	
44	   H	1.150	-0.165	0.789	 H	1	UNK0	0.000	
45	   H	3.535	-0.071	0.816	 H	1	UNK0	0.000	
46	   H	3.480	1.715	4.680	 H	1	UNK0	0.000	
47	   H	0.986	1.621	4.657	 H	1	UNK0	0.000	
48	   H	6.864	0.221	1.944	 H	1	UNK0	0.000	
49	   H	5.745	1.077	0.786	 H	1	UNK0	0.000	
50	   H	5.433	-0.605	1.321	 H	1	UNK0	0.000	
51	   H	-0.875	-4.167	-0.266	 H	1	UNK0	0.000	
52	   H	0.014	-3.967	-1.777	 H	1	UNK0	0.000	
53	   H	-2.732	-4.249	-3.998	 H	1	UNK0	0.000	
54	   H	-1.142	-5.005	-3.529	 H	1	UNK0	0.000	
@<TRIPOS>BOND
1 1 2 1
2 2 3 2
3 2 7 1
4 3 4 1
5 4 5 2
6 4 11 1
7 5 6 1
8 5 8 1
9 6 7 2
10 8 9 1
11 9 10 2
12 9 11 1
13 11 12 1
14 11 15 1
15 12 13 1
16 13 14 1
17 13 30 1
18 14 15 1
19 14 19 1
20 15 16 1
21 16 17 2
22 16 18 1
23 18 19 1
24 18 21 1
25 19 20 2
26 21 22 1
27 22 23 2
28 22 27 1
29 23 24 1
30 24 25 2
31 25 26 1
32 25 28 1
33 26 27 2
34 28 29 1
35 30 31 1
36 31 32 2
37 31 33 1
38 3 34 1
39 6 35 1
40 7 36 1
41 8 37 1
42 12 38 1
43 13 39 1
44 14 40 1
45 15 41 1
46 21 42 1
47 21 43 1
48 23 44 1
49 24 45 1
50 26 46 1
51 27 47 1
52 29 48 1
53 29 49 1
54 29 50 1
55 30 51 1
56 30 52 1
57 33 53 1
58 33 54 1
@<TRIPOS>SUBSTRUCTURE
1	UNK0	1	GROUP	1 ****	UNK
