# created with PyMOL 2.3.2
@<TRIPOS>MOLECULE
1496
56 60 1                 
SMALL
USER_CHARGES
@<TRIPOS>ATOM
1	  Cl	5.709	3.185	3.377	Cl	1	UNK0	0.000	
2	   C	5.077	1.703	2.725	C.2	1	UNK0	0.000	
3	   C	3.808	1.708	2.186	C.2	1	UNK0	0.000	
4	   C	3.268	0.554	1.658	C.2	1	UNK0	0.000	
5	   C	4.030	-0.594	1.686	C.2	1	UNK0	0.000	
6	   C	5.320	-0.590	2.237	C.2	1	UNK0	0.000	
7	   C	5.858	0.562	2.763	C.2	1	UNK0	0.000	
8	   O	3.472	-1.739	1.153	O.3	1	UNK0	0.000	
9	   C	2.690	-1.636	-0.015	C.3	1	UNK0	0.000	
10	   C	1.753	-0.492	-0.033	C.3	1	UNK0	0.000	
11	   C	1.930	0.512	1.083	C.3	1	UNK0	0.000	
12	   O	1.497	1.740	0.587	O.3	1	UNK0	0.000	
13	   C	0.351	1.582	-0.148	C.3	1	UNK0	0.000	
14	   C	-0.476	0.386	0.260	C.3	1	UNK0	0.000	
15	   C	-1.234	0.498	1.519	C.3	1	UNK0	0.000	
16	   N	-2.504	0.502	0.826	N.pl3	1	UNK0	0.000	
17	   C	-1.799	0.368	-0.420	C.3	1	UNK0	0.000	
18	   C	-3.844	0.602	1.288	C.2	1	UNK0	0.000	
19	   O	-4.044	0.713	2.550	O.2	1	UNK0	0.000	
20	   C	-5.046	0.592	0.456	C.3	1	UNK0	0.000	
21	   N	-4.856	0.472	-0.947	N.pl3	1	UNK0	0.000	
22	   C	-4.701	1.615	-1.796	C.2	1	UNK0	0.000	
23	   O	-4.504	2.745	-1.324	O.2	1	UNK0	0.000	
24	   C	-4.779	1.438	-3.266	C.3	1	UNK0	0.000	
25	   O	-5.395	0.272	-3.653	O.3	1	UNK0	0.000	
26	   C	-4.817	-0.853	-3.082	C.3	1	UNK0	0.000	
27	   C	-4.813	-0.807	-1.611	C.2	1	UNK0	0.000	
28	   O	-4.773	-1.858	-0.952	O.2	1	UNK0	0.000	
29	   C	0.286	-0.914	0.041	C.3	1	UNK0	0.000	
30	   C	1.975	-2.949	-0.315	C.3	1	UNK0	0.000	
31	   C	3.673	-1.473	-1.185	C.3	1	UNK0	0.000	
32	   H	3.191	2.594	2.152	 H	1	UNK0	0.000	
33	   H	5.919	-1.504	2.256	 H	1	UNK0	0.000	
34	   H	6.854	0.577	3.191	 H	1	UNK0	0.000	
35	   H	1.835	0.046	-1.022	 H	1	UNK0	0.000	
36	   H	1.221	0.280	1.934	 H	1	UNK0	0.000	
37	   H	-0.297	2.480	0.053	 H	1	UNK0	0.000	
38	   H	0.505	1.576	-1.247	 H	1	UNK0	0.000	
39	   H	-1.178	-0.336	2.246	 H	1	UNK0	0.000	
40	   H	-1.095	1.510	1.995	 H	1	UNK0	0.000	
41	   H	-2.023	-0.612	-0.920	 H	1	UNK0	0.000	
42	   H	-1.929	1.205	-1.154	 H	1	UNK0	0.000	
43	   H	-5.741	-0.229	0.787	 H	1	UNK0	0.000	
44	   H	-5.607	1.559	0.627	 H	1	UNK0	0.000	
45	   H	-5.387	2.281	-3.688	 H	1	UNK0	0.000	
46	   H	-3.733	1.516	-3.684	 H	1	UNK0	0.000	
47	   H	-5.358	-1.734	-3.498	 H	1	UNK0	0.000	
48	   H	-3.771	-0.925	-3.483	 H	1	UNK0	0.000	
49	   H	-0.044	-1.425	-0.885	 H	1	UNK0	0.000	
50	   H	0.178	-1.547	0.951	 H	1	UNK0	0.000	
51	   H	1.233	-3.215	0.434	 H	1	UNK0	0.000	
52	   H	1.505	-2.821	-1.313	 H	1	UNK0	0.000	
53	   H	2.773	-3.711	-0.442	 H	1	UNK0	0.000	
54	   H	4.327	-0.602	-0.976	 H	1	UNK0	0.000	
55	   H	3.060	-1.282	-2.087	 H	1	UNK0	0.000	
56	   H	4.285	-2.370	-1.326	 H	1	UNK0	0.000	
@<TRIPOS>BOND
1 1 2 1
2 2 3 2
3 2 7 1
4 3 4 1
5 4 5 2
6 4 11 1
7 5 6 1
8 5 8 1
9 6 7 2
10 8 9 1
11 9 10 1
12 9 30 1
13 9 31 1
14 10 11 1
15 10 29 1
16 11 12 1
17 12 13 1
18 13 14 1
19 14 15 1
20 14 17 1
21 14 29 1
22 15 16 1
23 16 17 1
24 16 18 1
25 18 19 2
26 18 20 1
27 20 21 1
28 21 22 1
29 21 27 1
30 22 23 2
31 22 24 1
32 24 25 1
33 25 26 1
34 26 27 1
35 27 28 2
36 3 32 1
37 6 33 1
38 7 34 1
39 10 35 1
40 11 36 1
41 13 37 1
42 13 38 1
43 15 39 1
44 15 40 1
45 17 41 1
46 17 42 1
47 20 43 1
48 20 44 1
49 24 45 1
50 24 46 1
51 26 47 1
52 26 48 1
53 29 49 1
54 29 50 1
55 30 51 1
56 30 52 1
57 30 53 1
58 31 54 1
59 31 55 1
60 31 56 1
@<TRIPOS>SUBSTRUCTURE
1	UNK0	1	GROUP	1 ****	UNK
