# created with PyMOL 2.3.2
@<TRIPOS>MOLECULE
1501
33 36 1                 
SMALL
USER_CHARGES
@<TRIPOS>ATOM
1	  Cl	-0.693	2.194	-4.061	Cl	1	UNK0	0.000	
2	   C	0.098	0.654	-3.770	C.2	1	UNK0	0.000	
3	   N	1.018	0.465	-2.815	N.2	1	UNK0	0.000	
4	   N	1.590	-0.711	-2.658	N.pl3	1	UNK0	0.000	
5	   C	1.262	-1.749	-3.453	C.2	1	UNK0	0.000	
6	   N	2.033	-2.784	-3.065	N.2	1	UNK0	0.000	
7	   N	2.797	-2.388	-2.075	N.2	1	UNK0	0.000	
8	   C	2.542	-1.071	-1.787	C.2	1	UNK0	0.000	
9	   C	3.227	-0.371	-0.688	C.3	1	UNK0	0.000	
10	   C	2.791	-0.650	0.687	C.3	1	UNK0	0.000	
11	   C	1.379	-0.330	0.972	C.2	1	UNK0	0.000	
12	   N	0.380	0.169	0.238	N.2	1	UNK0	0.000	
13	   C	-0.757	0.289	0.937	C.2	1	UNK0	0.000	
14	   N	-0.418	-0.165	2.162	N.2	1	UNK0	0.000	
15	   O	0.813	-0.524	2.190	O.3	1	UNK0	0.000	
16	   C	-2.074	0.771	0.565	C.2	1	UNK0	0.000	
17	   C	-2.289	1.201	-0.726	C.2	1	UNK0	0.000	
18	   C	-3.530	1.673	-1.135	C.2	1	UNK0	0.000	
19	   N	-4.529	1.703	-0.240	N.2	1	UNK0	0.000	
20	   C	-4.389	1.300	1.032	C.2	1	UNK0	0.000	
21	   C	-3.141	0.829	1.429	C.2	1	UNK0	0.000	
22	   C	0.314	-1.596	-4.451	C.2	1	UNK0	0.000	
23	   C	-0.280	-0.377	-4.615	C.2	1	UNK0	0.000	
24	   H	4.348	-0.599	-0.715	 H	1	UNK0	0.000	
25	   H	3.243	0.754	-0.891	 H	1	UNK0	0.000	
26	   H	3.416	-0.124	1.461	 H	1	UNK0	0.000	
27	   H	2.926	-1.750	0.952	 H	1	UNK0	0.000	
28	   H	-1.473	1.163	-1.411	 H	1	UNK0	0.000	
29	   H	-3.729	2.015	-2.133	 H	1	UNK0	0.000	
30	   H	-5.226	1.344	1.715	 H	1	UNK0	0.000	
31	   H	-2.994	0.498	2.444	 H	1	UNK0	0.000	
32	   H	0.087	-2.463	-5.061	 H	1	UNK0	0.000	
33	   H	-1.016	-0.255	-5.390	 H	1	UNK0	0.000	
@<TRIPOS>BOND
1 1 2 1
2 2 3 2
3 2 23 1
4 3 4 1
5 4 5 1
6 4 8 1
7 5 6 2
8 5 22 1
9 6 7 1
10 7 8 2
11 8 9 1
12 9 10 1
13 10 11 1
14 11 12 2
15 11 15 1
16 12 13 1
17 13 14 2
18 13 16 1
19 14 15 1
20 16 17 2
21 16 21 1
22 17 18 1
23 18 19 2
24 19 20 1
25 20 21 2
26 22 23 2
27 9 24 1
28 9 25 1
29 10 26 1
30 10 27 1
31 17 28 1
32 18 29 1
33 20 30 1
34 21 31 1
35 22 32 1
36 23 33 1
@<TRIPOS>SUBSTRUCTURE
1	UNK0	1	GROUP	1 ****	UNK
