# created with PyMOL 2.3.2
@<TRIPOS>MOLECULE
1502
50 53 1                 
SMALL
USER_CHARGES
@<TRIPOS>ATOM
1	  Cl	-0.405	-3.294	-2.226	Cl	1	UNK0	0.000	
2	   C	0.647	-1.897	-2.133	C.2	1	UNK0	0.000	
3	   C	0.438	-0.872	-1.205	C.2	1	UNK0	0.000	
4	   C	1.337	0.159	-1.253	C.2	1	UNK0	0.000	
5	   C	2.386	0.223	-2.135	C.2	1	UNK0	0.000	
6	   C	2.585	-0.785	-3.042	C.2	1	UNK0	0.000	
7	   C	1.698	-1.845	-3.025	C.2	1	UNK0	0.000	
8	   N	-0.642	-0.934	-0.304	N.pl3	1	UNK0	0.000	
9	   C	-1.778	-0.052	-0.325	C.3	1	UNK0	0.000	
10	   C	-1.493	1.406	-0.157	C.3	1	UNK0	0.000	
11	   C	-2.806	2.010	0.448	C.3	1	UNK0	0.000	
12	   C	-3.969	1.333	-0.244	C.3	1	UNK0	0.000	
13	   N	-3.543	0.987	-1.592	N.4	1	UNK0	0.000	
14	   C	-2.620	-0.163	-1.590	C.3	1	UNK0	0.000	
15	   C	-2.804	2.158	-2.079	C.3	1	UNK0	0.000	
16	   C	-1.384	2.075	-1.494	C.3	1	UNK0	0.000	
17	   C	-0.612	-1.957	0.694	C.2	1	UNK0	0.000	
18	   O	-1.692	-1.962	1.437	O.2	1	UNK0	0.000	
19	   C	0.372	-2.958	1.007	C.3	1	UNK0	0.000	
20	   O	1.657	-2.903	0.543	O.3	1	UNK0	0.000	
21	   C	2.596	-1.928	0.881	C.2	1	UNK0	0.000	
22	   C	3.871	-1.939	0.358	C.2	1	UNK0	0.000	
23	   C	4.752	-0.932	0.747	C.2	1	UNK0	0.000	
24	   C	4.394	0.065	1.630	C.2	1	UNK0	0.000	
25	   C	3.112	0.066	2.149	C.2	1	UNK0	0.000	
26	   C	2.226	-0.930	1.771	C.2	1	UNK0	0.000	
27	  Cl	5.533	1.331	2.105	Cl	1	UNK0	0.000	
28	   H	1.237	0.985	-0.564	 H	1	UNK0	0.000	
29	   H	3.066	1.053	-2.135	 H	1	UNK0	0.000	
30	   H	3.421	-0.759	-3.761	 H	1	UNK0	0.000	
31	   H	1.850	-2.659	-3.748	 H	1	UNK0	0.000	
32	   H	-2.476	-0.326	0.555	 H	1	UNK0	0.000	
33	   H	-0.738	1.670	0.579	 H	1	UNK0	0.000	
34	   H	-2.810	1.924	1.532	 H	1	UNK0	0.000	
35	   H	-2.782	3.070	0.169	 H	1	UNK0	0.000	
36	   H	-4.795	2.070	-0.354	 H	1	UNK0	0.000	
37	   H	-4.335	0.474	0.337	 H	1	UNK0	0.000	
38	   H	-4.367	0.796	-2.156	 H	1	UNK0	0.000	
39	   H	-2.032	-0.099	-2.504	 H	1	UNK0	0.000	
40	   H	-3.230	-1.071	-1.562	 H	1	UNK0	0.000	
41	   H	-2.782	2.054	-3.188	 H	1	UNK0	0.000	
42	   H	-3.331	3.059	-1.758	 H	1	UNK0	0.000	
43	   H	-0.963	3.112	-1.394	 H	1	UNK0	0.000	
44	   H	-0.817	1.487	-2.228	 H	1	UNK0	0.000	
45	   H	0.451	-3.141	2.125	 H	1	UNK0	0.000	
46	   H	-0.051	-3.957	0.657	 H	1	UNK0	0.000	
47	   H	4.152	-2.719	-0.334	 H	1	UNK0	0.000	
48	   H	5.762	-0.918	0.349	 H	1	UNK0	0.000	
49	   H	2.778	0.828	2.848	 H	1	UNK0	0.000	
50	   H	1.215	-0.965	2.154	 H	1	UNK0	0.000	
@<TRIPOS>BOND
1 1 2 1
2 2 3 2
3 2 7 1
4 3 4 1
5 3 8 1
6 4 5 2
7 5 6 1
8 6 7 2
9 8 9 1
10 8 17 1
11 9 10 1
12 9 14 1
13 10 11 1
14 10 16 1
15 11 12 1
16 12 13 1
17 13 14 1
18 13 15 1
19 15 16 1
20 17 18 2
21 17 19 1
22 19 20 1
23 20 21 1
24 21 22 2
25 21 26 1
26 22 23 1
27 23 24 2
28 24 25 1
29 24 27 1
30 25 26 2
31 4 28 1
32 5 29 1
33 6 30 1
34 7 31 1
35 9 32 1
36 10 33 1
37 11 34 1
38 11 35 1
39 12 36 1
40 12 37 1
41 13 38 1
42 14 39 1
43 14 40 1
44 15 41 1
45 15 42 1
46 16 43 1
47 16 44 1
48 19 45 1
49 19 46 1
50 22 47 1
51 23 48 1
52 25 49 1
53 26 50 1
@<TRIPOS>SUBSTRUCTURE
1	UNK0	1	GROUP	1 ****	UNK
