# created with PyMOL 2.3.2
@<TRIPOS>MOLECULE
1503
53 56 1                 
SMALL
USER_CHARGES
@<TRIPOS>ATOM
1	   F	-1.667	2.396	1.840	 F	1	UNK0	0.000	
2	   C	-1.846	3.734	2.159	C.3	1	UNK0	0.000	
3	   C	-0.830	4.601	1.415	C.3	1	UNK0	0.000	
4	   N	-1.337	4.470	0.055	N.pl3	1	UNK0	0.000	
5	   C	-2.743	4.797	0.172	C.3	1	UNK0	0.000	
6	   C	-3.149	4.253	1.549	C.3	1	UNK0	0.000	
7	   C	-0.688	4.119	-1.129	C.2	1	UNK0	0.000	
8	   O	-1.328	4.066	-2.206	O.2	1	UNK0	0.000	
9	   C	0.771	3.786	-1.218	C.3	1	UNK0	0.000	
10	   C	0.815	2.255	-1.183	C.3	1	UNK0	0.000	
11	   O	0.113	1.731	-2.238	O.3	1	UNK0	0.000	
12	   C	0.505	0.411	-2.270	C.3	1	UNK0	0.000	
13	   C	1.998	0.396	-1.996	C.3	1	UNK0	0.000	
14	   O	2.230	-0.695	-1.165	O.3	1	UNK0	0.000	
15	   C	1.156	-0.773	-0.293	C.3	1	UNK0	0.000	
16	   C	-0.022	-0.413	-1.124	C.3	1	UNK0	0.000	
17	   O	-1.066	0.153	-0.443	O.3	1	UNK0	0.000	
18	   C	0.984	-2.122	0.326	C.3	1	UNK0	0.000	
19	   N	0.764	-3.180	-0.635	N.3	1	UNK0	0.000	
20	   C	0.614	-4.432	0.089	C.3	1	UNK0	0.000	
21	   C	0.388	-5.555	-0.851	C.2	1	UNK0	0.000	
22	   C	0.337	-5.372	-2.207	C.2	1	UNK0	0.000	
23	   N	0.130	-6.397	-3.063	N.2	1	UNK0	0.000	
24	   C	-0.032	-7.651	-2.563	C.2	1	UNK0	0.000	
25	   C	0.007	-7.909	-1.212	C.2	1	UNK0	0.000	
26	   C	0.222	-6.832	-0.357	C.2	1	UNK0	0.000	
27	  Cl	0.288	-7.063	1.376	Cl	1	UNK0	0.000	
28	   C	2.204	1.719	-1.309	C.3	1	UNK0	0.000	
29	   F	-1.807	3.940	3.515	 F	1	UNK0	0.000	
30	   H	0.163	4.200	1.558	 H	1	UNK0	0.000	
31	   H	-0.914	5.619	1.808	 H	1	UNK0	0.000	
32	   H	-2.925	5.890	0.123	 H	1	UNK0	0.000	
33	   H	-3.376	4.304	-0.563	 H	1	UNK0	0.000	
34	   H	-3.491	5.063	2.198	 H	1	UNK0	0.000	
35	   H	-3.914	3.470	1.473	 H	1	UNK0	0.000	
36	   H	1.302	4.190	-0.343	 H	1	UNK0	0.000	
37	   H	1.152	4.161	-2.184	 H	1	UNK0	0.000	
38	   H	0.363	1.985	-0.207	 H	1	UNK0	0.000	
39	   H	0.354	-0.066	-3.257	 H	1	UNK0	0.000	
40	   H	2.573	0.310	-2.937	 H	1	UNK0	0.000	
41	   H	1.370	-0.063	0.534	 H	1	UNK0	0.000	
42	   H	-0.410	-1.368	-1.581	 H	1	UNK0	0.000	
43	   H	-1.083	0.004	0.527	 H	1	UNK0	0.000	
44	   H	1.857	-2.334	0.988	 H	1	UNK0	0.000	
45	   H	0.097	-2.079	0.991	 H	1	UNK0	0.000	
46	   H	1.604	-3.283	-1.274	 H	1	UNK0	0.000	
47	   H	1.457	-4.615	0.787	 H	1	UNK0	0.000	
48	   H	-0.300	-4.346	0.747	 H	1	UNK0	0.000	
49	   H	0.465	-4.386	-2.608	 H	1	UNK0	0.000	
50	   H	-0.196	-8.466	-3.253	 H	1	UNK0	0.000	
51	   H	-0.122	-8.917	-0.788	 H	1	UNK0	0.000	
52	   H	2.686	1.521	-0.321	 H	1	UNK0	0.000	
53	   H	2.888	2.390	-1.875	 H	1	UNK0	0.000	
@<TRIPOS>BOND
1 1 2 1
2 2 3 1
3 2 6 1
4 2 29 1
5 3 4 1
6 4 5 1
7 4 7 1
8 5 6 1
9 7 8 2
10 7 9 1
11 9 10 1
12 10 11 1
13 10 28 1
14 11 12 1
15 12 13 1
16 12 16 1
17 13 14 1
18 13 28 1
19 14 15 1
20 15 16 1
21 15 18 1
22 16 17 1
23 18 19 1
24 19 20 1
25 20 21 1
26 21 22 2
27 21 26 1
28 22 23 1
29 23 24 2
30 24 25 1
31 25 26 2
32 26 27 1
33 3 30 1
34 3 31 1
35 5 32 1
36 5 33 1
37 6 34 1
38 6 35 1
39 9 36 1
40 9 37 1
41 10 38 1
42 12 39 1
43 13 40 1
44 15 41 1
45 16 42 1
46 17 43 1
47 18 44 1
48 18 45 1
49 19 46 1
50 20 47 1
51 20 48 1
52 22 49 1
53 24 50 1
54 25 51 1
55 28 52 1
56 28 53 1
@<TRIPOS>SUBSTRUCTURE
1	UNK0	1	GROUP	1 ****	UNK
