# created with PyMOL 2.3.2
@<TRIPOS>MOLECULE
1504
42 45 1                 
SMALL
USER_CHARGES
@<TRIPOS>ATOM
1	   F	-1.063	0.309	2.834	 F	1	UNK0	0.000	
2	   C	0.171	0.046	3.369	C.2	1	UNK0	0.000	
3	   C	0.868	-1.111	3.042	C.2	1	UNK0	0.000	
4	   C	2.108	-1.296	3.629	C.2	1	UNK0	0.000	
5	   C	2.655	-0.387	4.506	C.2	1	UNK0	0.000	
6	   C	1.942	0.752	4.813	C.2	1	UNK0	0.000	
7	   C	0.689	0.979	4.245	C.2	1	UNK0	0.000	
8	  Cl	3.052	-2.742	3.260	Cl	1	UNK0	0.000	
9	   C	0.298	-2.084	2.112	C.2	1	UNK0	0.000	
10	   O	-0.409	-2.996	2.615	O.2	1	UNK0	0.000	
11	   N	0.509	-2.032	0.719	N.pl3	1	UNK0	0.000	
12	   C	-0.091	-3.032	-0.141	C.3	1	UNK0	0.000	
13	   C	-0.994	-2.301	-1.107	C.3	1	UNK0	0.000	
14	   N	-0.367	-1.098	-1.638	N.pl3	1	UNK0	0.000	
15	   C	1.045	-0.942	-1.423	C.3	1	UNK0	0.000	
16	   C	1.304	-1.016	0.078	C.3	1	UNK0	0.000	
17	   C	-1.214	-0.181	-2.322	C.2	1	UNK0	0.000	
18	   N	-2.561	-0.404	-2.378	N.2	1	UNK0	0.000	
19	   N	-3.404	0.394	-2.993	N.2	1	UNK0	0.000	
20	   C	-3.050	1.520	-3.637	C.2	1	UNK0	0.000	
21	   C	-1.696	1.780	-3.603	C.2	1	UNK0	0.000	
22	   C	-0.778	0.957	-2.962	C.2	1	UNK0	0.000	
23	   N	-3.990	2.365	-4.294	N.pl3	1	UNK0	0.000	
24	   N	-3.843	3.094	-5.388	N.2	1	UNK0	0.000	
25	   C	-4.971	3.760	-5.692	C.2	1	UNK0	0.000	
26	   N	-5.873	3.436	-4.745	N.2	1	UNK0	0.000	
27	   C	-5.257	2.587	-3.903	C.2	1	UNK0	0.000	
28	   H	3.620	-0.509	4.978	 H	1	UNK0	0.000	
29	   H	2.297	1.518	5.494	 H	1	UNK0	0.000	
30	   H	0.109	1.875	4.477	 H	1	UNK0	0.000	
31	   H	-0.743	-3.736	0.433	 H	1	UNK0	0.000	
32	   H	0.707	-3.569	-0.688	 H	1	UNK0	0.000	
33	   H	-1.922	-2.043	-0.516	 H	1	UNK0	0.000	
34	   H	-1.356	-2.966	-1.922	 H	1	UNK0	0.000	
35	   H	1.347	0.074	-1.719	 H	1	UNK0	0.000	
36	   H	1.646	-1.709	-1.960	 H	1	UNK0	0.000	
37	   H	2.407	-1.225	0.191	 H	1	UNK0	0.000	
38	   H	1.147	-0.012	0.518	 H	1	UNK0	0.000	
39	   H	-1.342	2.688	-4.113	 H	1	UNK0	0.000	
40	   H	0.279	1.188	-2.956	 H	1	UNK0	0.000	
41	   H	-5.148	4.437	-6.536	 H	1	UNK0	0.000	
42	   H	-5.732	2.152	-3.036	 H	1	UNK0	0.000	
@<TRIPOS>BOND
1 1 2 1
2 2 3 2
3 2 7 1
4 3 4 1
5 3 9 1
6 4 5 2
7 4 8 1
8 5 6 1
9 6 7 2
10 9 10 2
11 9 11 1
12 11 12 1
13 11 16 1
14 12 13 1
15 13 14 1
16 14 15 1
17 14 17 1
18 15 16 1
19 17 18 2
20 17 22 1
21 18 19 1
22 19 20 2
23 20 21 1
24 20 23 1
25 21 22 2
26 23 24 1
27 23 27 1
28 24 25 2
29 25 26 1
30 26 27 2
31 5 28 1
32 6 29 1
33 7 30 1
34 12 31 1
35 12 32 1
36 13 33 1
37 13 34 1
38 15 35 1
39 15 36 1
40 16 37 1
41 16 38 1
42 21 39 1
43 22 40 1
44 25 41 1
45 27 42 1
@<TRIPOS>SUBSTRUCTURE
1	UNK0	1	GROUP	1 ****	UNK
