# created with PyMOL 2.3.2
@<TRIPOS>MOLECULE
1505
40 43 1                 
SMALL
USER_CHARGES
@<TRIPOS>ATOM
1	   F	-2.255	-6.063	-0.889	 F	1	UNK0	0.000	
2	   C	-2.095	-4.932	-0.164	C.2	1	UNK0	0.000	
3	   C	-1.086	-4.022	-0.404	C.2	1	UNK0	0.000	
4	   C	-0.970	-2.880	0.370	C.2	1	UNK0	0.000	
5	   C	-1.863	-2.644	1.385	C.2	1	UNK0	0.000	
6	   C	-2.894	-3.549	1.648	C.2	1	UNK0	0.000	
7	   C	-2.993	-4.688	0.862	C.2	1	UNK0	0.000	
8	  Cl	-4.309	-5.793	1.238	Cl	1	UNK0	0.000	
9	   N	-1.707	-1.523	2.107	N.pl3	1	UNK0	0.000	
10	   C	-0.735	-0.635	1.886	C.2	1	UNK0	0.000	
11	   C	0.210	-0.816	0.863	C.2	1	UNK0	0.000	
12	   C	0.054	-1.961	0.124	C.2	1	UNK0	0.000	
13	   O	0.850	-2.214	-0.812	O.2	1	UNK0	0.000	
14	   C	1.243	0.186	0.655	C.2	1	UNK0	0.000	
15	   O	1.308	1.101	1.519	O.2	1	UNK0	0.000	
16	   N	2.169	0.240	-0.404	N.pl3	1	UNK0	0.000	
17	   C	3.181	1.240	-0.590	C.3	1	UNK0	0.000	
18	   C	4.203	1.426	0.479	C.3	1	UNK0	0.000	
19	   C	3.211	2.543	0.119	C.3	1	UNK0	0.000	
20	   C	3.686	1.347	-2.010	C.2	1	UNK0	0.000	
21	   O	4.572	2.192	-2.285	O.2	1	UNK0	0.000	
22	   N	3.164	0.504	-3.023	N.pl3	1	UNK0	0.000	
23	   C	-2.680	-1.318	3.177	C.3	1	UNK0	0.000	
24	   C	-2.698	-2.125	4.397	C.3	1	UNK0	0.000	
25	   C	-2.008	-0.804	4.480	C.3	1	UNK0	0.000	
26	   H	-0.382	-4.204	-1.201	 H	1	UNK0	0.000	
27	   H	-3.584	-3.341	2.452	 H	1	UNK0	0.000	
28	   H	-0.665	0.258	2.511	 H	1	UNK0	0.000	
29	   H	2.156	-0.512	-1.164	 H	1	UNK0	0.000	
30	   H	3.952	0.928	1.449	 H	1	UNK0	0.000	
31	   H	5.243	1.545	0.160	 H	1	UNK0	0.000	
32	   H	3.694	3.427	-0.396	 H	1	UNK0	0.000	
33	   H	2.483	2.879	0.853	 H	1	UNK0	0.000	
34	   H	2.140	0.467	-3.184	 H	1	UNK0	0.000	
35	   H	3.763	-0.100	-3.636	 H	1	UNK0	0.000	
36	   H	-3.562	-0.709	2.885	 H	1	UNK0	0.000	
37	   H	-2.100	-3.058	4.482	 H	1	UNK0	0.000	
38	   H	-3.710	-2.239	4.885	 H	1	UNK0	0.000	
39	   H	-2.534	0.003	5.026	 H	1	UNK0	0.000	
40	   H	-0.897	-0.841	4.525	 H	1	UNK0	0.000	
@<TRIPOS>BOND
1 1 2 1
2 2 3 2
3 2 7 1
4 3 4 1
5 4 5 2
6 4 12 1
7 5 6 1
8 5 9 1
9 6 7 2
10 7 8 1
11 9 10 1
12 9 23 1
13 10 11 2
14 11 12 1
15 11 14 1
16 12 13 2
17 14 15 2
18 14 16 1
19 16 17 1
20 17 18 1
21 17 19 1
22 17 20 1
23 18 19 1
24 20 21 2
25 20 22 1
26 23 24 1
27 23 25 1
28 24 25 1
29 3 26 1
30 6 27 1
31 10 28 1
32 16 29 1
33 18 30 1
34 18 31 1
35 19 32 1
36 19 33 1
37 22 34 1
38 22 35 1
39 23 36 1
40 24 37 1
41 24 38 1
42 25 39 1
43 25 40 1
@<TRIPOS>SUBSTRUCTURE
1	UNK0	1	GROUP	1 ****	UNK
