# created with PyMOL 2.3.2
@<TRIPOS>MOLECULE
1506
51 54 1                 
SMALL
USER_CHARGES
@<TRIPOS>ATOM
1	  Cl	4.336	6.074	1.932	Cl	1	UNK0	0.000	
2	   C	3.457	4.556	2.017	C.2	1	UNK0	0.000	
3	   C	2.131	4.507	1.620	C.2	1	UNK0	0.000	
4	   C	1.451	3.314	1.689	C.2	1	UNK0	0.000	
5	   C	2.053	2.161	2.144	C.2	1	UNK0	0.000	
6	   C	3.365	2.234	2.532	C.2	1	UNK0	0.000	
7	   C	4.086	3.429	2.475	C.2	1	UNK0	0.000	
8	   C	1.274	0.902	2.208	C.2	1	UNK0	0.000	
9	   O	0.032	1.035	2.179	O.2	1	UNK0	0.000	
10	   N	1.877	-0.344	2.294	N.pl3	1	UNK0	0.000	
11	   C	1.331	-1.646	2.350	C.3	1	UNK0	0.000	
12	   C	0.580	-2.148	1.188	C.3	1	UNK0	0.000	
13	   N	-0.649	-1.584	0.790	N.pl3	1	UNK0	0.000	
14	   C	-1.264	-2.117	-0.400	C.2	1	UNK0	0.000	
15	   O	-0.696	-3.033	-1.015	O.2	1	UNK0	0.000	
16	   C	-2.557	-1.597	-0.904	C.3	1	UNK0	0.000	
17	   C	-2.863	-2.292	-2.212	C.3	1	UNK0	0.000	
18	   C	-1.899	-1.749	-3.243	C.3	1	UNK0	0.000	
19	   N	-2.319	-0.372	-3.486	N.pl3	1	UNK0	0.000	
20	   C	-2.838	0.413	-2.418	C.3	1	UNK0	0.000	
21	   C	-2.591	-0.121	-1.054	C.3	1	UNK0	0.000	
22	   C	-2.186	0.128	-4.802	C.2	1	UNK0	0.000	
23	   N	-1.716	-0.614	-5.823	N.2	1	UNK0	0.000	
24	   N	-1.584	-0.162	-7.056	N.pl3	1	UNK0	0.000	
25	   N	-1.147	-0.738	-8.171	N.2	1	UNK0	0.000	
26	   N	-1.193	0.102	-9.170	N.2	1	UNK0	0.000	
27	   N	-1.665	1.244	-8.717	N.2	1	UNK0	0.000	
28	   C	-1.911	1.089	-7.399	C.2	1	UNK0	0.000	
29	   C	-2.400	1.903	-6.393	C.2	1	UNK0	0.000	
30	   C	-2.539	1.432	-5.103	C.2	1	UNK0	0.000	
31	   H	1.651	5.418	1.259	 H	1	UNK0	0.000	
32	   H	0.407	3.252	1.381	 H	1	UNK0	0.000	
33	   H	3.902	1.390	2.898	 H	1	UNK0	0.000	
34	   H	5.118	3.489	2.780	 H	1	UNK0	0.000	
35	   H	2.986	-0.265	2.313	 H	1	UNK0	0.000	
36	   H	2.157	-2.382	2.607	 H	1	UNK0	0.000	
37	   H	0.637	-1.659	3.253	 H	1	UNK0	0.000	
38	   H	0.507	-3.293	1.250	 H	1	UNK0	0.000	
39	   H	1.268	-2.053	0.272	 H	1	UNK0	0.000	
40	   H	-1.184	-0.857	1.258	 H	1	UNK0	0.000	
41	   H	-3.382	-1.913	-0.213	 H	1	UNK0	0.000	
42	   H	-3.888	-1.977	-2.512	 H	1	UNK0	0.000	
43	   H	-2.810	-3.392	-2.122	 H	1	UNK0	0.000	
44	   H	-1.960	-2.325	-4.196	 H	1	UNK0	0.000	
45	   H	-0.857	-1.689	-2.898	 H	1	UNK0	0.000	
46	   H	-3.954	0.499	-2.552	 H	1	UNK0	0.000	
47	   H	-2.447	1.462	-2.448	 H	1	UNK0	0.000	
48	   H	-3.317	0.299	-0.297	 H	1	UNK0	0.000	
49	   H	-1.594	0.264	-0.682	 H	1	UNK0	0.000	
50	   H	-2.668	2.924	-6.661	 H	1	UNK0	0.000	
51	   H	-2.928	2.084	-4.321	 H	1	UNK0	0.000	
@<TRIPOS>BOND
1 1 2 1
2 2 3 2
3 2 7 1
4 3 4 1
5 4 5 2
6 5 6 1
7 5 8 1
8 6 7 2
9 8 9 2
10 8 10 1
11 10 11 1
12 11 12 1
13 12 13 1
14 13 14 1
15 14 15 2
16 14 16 1
17 16 17 1
18 16 21 1
19 17 18 1
20 18 19 1
21 19 20 1
22 19 22 1
23 20 21 1
24 22 23 2
25 22 30 1
26 23 24 1
27 24 25 1
28 24 28 1
29 25 26 2
30 26 27 1
31 27 28 2
32 28 29 1
33 29 30 2
34 3 31 1
35 4 32 1
36 6 33 1
37 7 34 1
38 10 35 1
39 11 36 1
40 11 37 1
41 12 38 1
42 12 39 1
43 13 40 1
44 16 41 1
45 17 42 1
46 17 43 1
47 18 44 1
48 18 45 1
49 20 46 1
50 20 47 1
51 21 48 1
52 21 49 1
53 29 50 1
54 30 51 1
@<TRIPOS>SUBSTRUCTURE
1	UNK0	1	GROUP	1 ****	UNK
