# created with PyMOL 2.3.2
@<TRIPOS>MOLECULE
1507
53 56 1                 
SMALL
USER_CHARGES
@<TRIPOS>ATOM
1	  Br	-4.889	4.731	-2.545	Br	1	UNK0	0.000	
2	   C	-3.499	3.407	-2.434	C.2	1	UNK0	0.000	
3	   C	-2.896	2.900	-3.562	C.2	1	UNK0	0.000	
4	   C	-1.905	1.959	-3.542	C.2	1	UNK0	0.000	
5	   C	-1.477	1.482	-2.317	C.2	1	UNK0	0.000	
6	   C	-2.063	1.973	-1.173	C.2	1	UNK0	0.000	
7	   C	-3.076	2.936	-1.208	C.2	1	UNK0	0.000	
8	   C	-0.405	0.500	-2.206	C.2	1	UNK0	0.000	
9	   C	-0.533	-0.567	-1.444	C.2	1	UNK0	0.000	
10	   C	0.436	-1.682	-1.190	C.3	1	UNK0	0.000	
11	   N	0.285	-1.892	0.204	N.pl3	1	UNK0	0.000	
12	   C	-1.161	-1.849	0.403	C.2	1	UNK0	0.000	
13	   O	-1.831	-2.425	1.299	O.2	1	UNK0	0.000	
14	   C	-1.688	-0.996	-0.656	C.2	1	UNK0	0.000	
15	   O	-2.889	-0.648	-0.910	O.2	1	UNK0	0.000	
16	   C	1.199	-2.166	1.296	C.3	1	UNK0	0.000	
17	   C	1.662	-1.017	2.104	C.3	1	UNK0	0.000	
18	   N	0.585	-0.291	2.786	N.4	1	UNK0	0.000	
19	   C	0.117	0.778	1.972	C.3	1	UNK0	0.000	
20	   C	0.336	2.157	2.488	C.3	1	UNK0	0.000	
21	   O	0.402	2.277	3.863	O.3	1	UNK0	0.000	
22	   C	1.509	1.485	4.245	C.3	1	UNK0	0.000	
23	   C	1.074	0.071	4.084	C.3	1	UNK0	0.000	
24	   C	1.703	-1.520	-1.821	C.2	1	UNK0	0.000	
25	   C	2.037	-2.337	-2.874	C.2	1	UNK0	0.000	
26	   C	3.232	-2.231	-3.544	C.2	1	UNK0	0.000	
27	   C	4.164	-1.273	-3.172	C.2	1	UNK0	0.000	
28	   C	3.810	-0.462	-2.112	C.2	1	UNK0	0.000	
29	   C	2.610	-0.575	-1.446	C.2	1	UNK0	0.000	
30	  Cl	5.686	-1.127	-4.015	Cl	1	UNK0	0.000	
31	   O	0.742	0.746	-2.940	O.2	1	UNK0	0.000	
32	   H	-3.243	3.282	-4.510	 H	1	UNK0	0.000	
33	   H	-1.422	1.550	-4.417	 H	1	UNK0	0.000	
34	   H	-1.755	1.649	-0.176	 H	1	UNK0	0.000	
35	   H	-3.516	3.299	-0.276	 H	1	UNK0	0.000	
36	   H	-0.092	-2.574	-1.668	 H	1	UNK0	0.000	
37	   H	0.703	-2.875	2.037	 H	1	UNK0	0.000	
38	   H	2.056	-2.814	0.936	 H	1	UNK0	0.000	
39	   H	2.253	-0.251	1.607	 H	1	UNK0	0.000	
40	   H	2.257	-1.487	2.962	 H	1	UNK0	0.000	
41	   H	-0.182	-1.020	2.917	 H	1	UNK0	0.000	
42	   H	0.535	0.679	0.926	 H	1	UNK0	0.000	
43	   H	-1.002	0.661	1.856	 H	1	UNK0	0.000	
44	   H	1.332	2.524	2.102	 H	1	UNK0	0.000	
45	   H	-0.412	2.891	2.136	 H	1	UNK0	0.000	
46	   H	2.413	1.737	3.673	 H	1	UNK0	0.000	
47	   H	1.722	1.696	5.303	 H	1	UNK0	0.000	
48	   H	1.912	-0.593	4.421	 H	1	UNK0	0.000	
49	   H	0.253	-0.103	4.835	 H	1	UNK0	0.000	
50	   H	1.337	-3.128	-3.226	 H	1	UNK0	0.000	
51	   H	3.489	-2.875	-4.371	 H	1	UNK0	0.000	
52	   H	4.558	0.285	-1.835	 H	1	UNK0	0.000	
53	   H	2.449	0.134	-0.640	 H	1	UNK0	0.000	
@<TRIPOS>BOND
1 1 2 1
2 2 3 2
3 2 7 1
4 3 4 1
5 4 5 2
6 5 6 1
7 5 8 1
8 6 7 2
9 8 9 2
10 8 31 1
11 9 10 1
12 9 14 1
13 10 11 1
14 10 24 1
15 11 12 1
16 11 16 1
17 12 13 2
18 12 14 1
19 14 15 2
20 16 17 1
21 17 18 1
22 18 19 1
23 18 23 1
24 19 20 1
25 20 21 1
26 21 22 1
27 22 23 1
28 24 25 2
29 24 29 1
30 25 26 1
31 26 27 2
32 27 28 1
33 27 30 1
34 28 29 2
35 3 32 1
36 4 33 1
37 6 34 1
38 7 35 1
39 10 36 1
40 16 37 1
41 16 38 1
42 17 39 1
43 17 40 1
44 18 41 1
45 19 42 1
46 19 43 1
47 20 44 1
48 20 45 1
49 22 46 1
50 22 47 1
51 23 48 1
52 23 49 1
53 25 50 1
54 26 51 1
55 28 52 1
56 29 53 1
@<TRIPOS>SUBSTRUCTURE
1	UNK0	1	GROUP	1 ****	UNK
