# created with PyMOL 2.3.2
@<TRIPOS>MOLECULE
1508
55 58 1                 
SMALL
USER_CHARGES
@<TRIPOS>ATOM
1	  Br	-3.101	-2.509	-7.086	Br	1	UNK0	0.000	
2	   C	-2.524	-2.106	-5.318	C.2	1	UNK0	0.000	
3	   C	-1.191	-1.826	-5.030	C.2	1	UNK0	0.000	
4	   C	-0.727	-1.530	-3.776	C.2	1	UNK0	0.000	
5	   C	-1.626	-1.499	-2.707	C.2	1	UNK0	0.000	
6	   C	-2.947	-1.774	-2.970	C.2	1	UNK0	0.000	
7	   C	-3.384	-2.068	-4.243	C.2	1	UNK0	0.000	
8	   C	-1.067	-1.217	-1.415	C.2	1	UNK0	0.000	
9	   C	-1.450	-0.250	-0.623	C.2	1	UNK0	0.000	
10	   C	-0.899	0.069	0.725	C.3	1	UNK0	0.000	
11	   N	-1.345	1.408	1.018	N.pl3	1	UNK0	0.000	
12	   C	-2.375	1.768	0.114	C.2	1	UNK0	0.000	
13	   O	-3.126	2.800	0.162	O.2	1	UNK0	0.000	
14	   C	-2.462	0.751	-0.922	C.2	1	UNK0	0.000	
15	   O	-3.285	0.774	-1.895	O.2	1	UNK0	0.000	
16	   C	-0.840	2.247	2.087	C.3	1	UNK0	0.000	
17	   C	0.256	3.162	1.744	C.3	1	UNK0	0.000	
18	   N	1.491	2.626	1.264	N.4	1	UNK0	0.000	
19	   C	2.065	1.624	2.118	C.3	1	UNK0	0.000	
20	   C	3.120	0.789	1.484	C.3	1	UNK0	0.000	
21	   O	2.807	0.337	0.234	O.3	1	UNK0	0.000	
22	   C	2.307	1.245	-0.646	C.3	1	UNK0	0.000	
23	   C	1.541	2.387	-0.136	C.3	1	UNK0	0.000	
24	   C	-1.581	-0.856	1.705	C.2	1	UNK0	0.000	
25	   C	-2.929	-0.757	1.976	C.2	1	UNK0	0.000	
26	   C	-3.568	-1.591	2.871	C.2	1	UNK0	0.000	
27	   C	-2.868	-2.578	3.543	C.2	1	UNK0	0.000	
28	   C	-1.520	-2.674	3.269	C.2	1	UNK0	0.000	
29	   C	-0.884	-1.839	2.374	C.2	1	UNK0	0.000	
30	   N	-3.493	-3.450	4.471	N.pl3	1	UNK0	0.000	
31	   O	-2.793	-4.305	5.035	O.2	1	UNK0	0.000	
32	   O	-4.825	-3.398	4.776	O.2	1	UNK0	0.000	
33	   O	-0.022	-2.037	-0.946	O.2	1	UNK0	0.000	
34	   H	-0.518	-1.862	-5.903	 H	1	UNK0	0.000	
35	   H	0.329	-1.322	-3.621	 H	1	UNK0	0.000	
36	   H	-3.671	-1.786	-2.145	 H	1	UNK0	0.000	
37	   H	-4.431	-2.282	-4.436	 H	1	UNK0	0.000	
38	   H	0.173	-0.097	0.786	 H	1	UNK0	0.000	
39	   H	-0.661	1.614	2.983	 H	1	UNK0	0.000	
40	   H	-1.713	2.894	2.408	 H	1	UNK0	0.000	
41	   H	0.472	3.829	2.638	 H	1	UNK0	0.000	
42	   H	-0.086	3.902	0.970	 H	1	UNK0	0.000	
43	   H	2.170	3.462	1.396	 H	1	UNK0	0.000	
44	   H	1.243	1.033	2.573	 H	1	UNK0	0.000	
45	   H	2.566	2.095	3.025	 H	1	UNK0	0.000	
46	   H	4.126	1.292	1.520	 H	1	UNK0	0.000	
47	   H	3.256	-0.129	2.130	 H	1	UNK0	0.000	
48	   H	1.735	0.663	-1.431	 H	1	UNK0	0.000	
49	   H	3.194	1.624	-1.241	 H	1	UNK0	0.000	
50	   H	0.468	2.267	-0.484	 H	1	UNK0	0.000	
51	   H	1.846	3.330	-0.700	 H	1	UNK0	0.000	
52	   H	-3.493	0.023	1.447	 H	1	UNK0	0.000	
53	   H	-4.629	-1.499	3.073	 H	1	UNK0	0.000	
54	   H	-0.963	-3.450	3.799	 H	1	UNK0	0.000	
55	   H	0.186	-1.931	2.171	 H	1	UNK0	0.000	
@<TRIPOS>BOND
1 1 2 1
2 2 3 2
3 2 7 1
4 3 4 1
5 4 5 2
6 5 6 1
7 5 8 1
8 6 7 2
9 8 9 2
10 8 33 1
11 9 10 1
12 9 14 1
13 10 11 1
14 10 24 1
15 11 12 1
16 11 16 1
17 12 13 2
18 12 14 1
19 14 15 2
20 16 17 1
21 17 18 1
22 18 19 1
23 18 23 1
24 19 20 1
25 20 21 1
26 21 22 1
27 22 23 1
28 24 25 2
29 24 29 1
30 25 26 1
31 26 27 2
32 27 28 1
33 27 30 1
34 28 29 2
35 30 31 2
36 30 32 1
37 3 34 1
38 4 35 1
39 6 36 1
40 7 37 1
41 10 38 1
42 16 39 1
43 16 40 1
44 17 41 1
45 17 42 1
46 18 43 1
47 19 44 1
48 19 45 1
49 20 46 1
50 20 47 1
51 22 48 1
52 22 49 1
53 23 50 1
54 23 51 1
55 25 52 1
56 26 53 1
57 28 54 1
58 29 55 1
@<TRIPOS>SUBSTRUCTURE
1	UNK0	1	GROUP	1 ****	UNK
