# created with PyMOL 2.3.2
@<TRIPOS>MOLECULE
1510
45 48 1                 
SMALL
USER_CHARGES
@<TRIPOS>ATOM
1	  Br	0.801	-1.620	-8.568	Br	1	UNK0	0.000	
2	   C	0.088	-1.006	-6.898	C.2	1	UNK0	0.000	
3	   C	-1.166	-1.375	-6.463	C.2	1	UNK0	0.000	
4	   C	-1.666	-0.924	-5.258	C.2	1	UNK0	0.000	
5	   C	-0.949	-0.087	-4.428	C.2	1	UNK0	0.000	
6	   C	0.306	0.278	-4.870	C.2	1	UNK0	0.000	
7	   C	0.811	-0.170	-6.074	C.2	1	UNK0	0.000	
8	   N	-1.497	0.358	-3.191	N.pl3	1	UNK0	0.000	
9	   C	-0.800	0.665	-2.086	C.2	1	UNK0	0.000	
10	   O	0.437	0.610	-1.960	O.2	1	UNK0	0.000	
11	   C	-1.655	1.067	-1.054	C.2	1	UNK0	0.000	
12	   C	-2.878	1.001	-1.546	C.2	1	UNK0	0.000	
13	   N	-3.728	1.384	-0.575	N.pl3	1	UNK0	0.000	
14	   N	-3.010	1.672	0.480	N.pl3	1	UNK0	0.000	
15	   N	-1.748	1.487	0.212	N.pl3	1	UNK0	0.000	
16	   C	-0.633	1.688	1.092	C.3	1	UNK0	0.000	
17	   C	-0.294	0.460	1.865	C.2	1	UNK0	0.000	
18	   O	-0.996	-0.539	1.654	O.2	1	UNK0	0.000	
19	   N	0.761	0.423	2.787	N.pl3	1	UNK0	0.000	
20	   C	1.221	-0.611	3.589	C.2	1	UNK0	0.000	
21	   C	2.309	-0.414	4.447	C.2	1	UNK0	0.000	
22	   C	2.776	-1.438	5.251	C.2	1	UNK0	0.000	
23	   C	2.191	-2.687	5.238	C.2	1	UNK0	0.000	
24	   C	1.122	-2.877	4.393	C.2	1	UNK0	0.000	
25	   C	0.639	-1.851	3.575	C.2	1	UNK0	0.000	
26	   O	2.891	0.845	4.454	O.3	1	UNK0	0.000	
27	   C	4.002	1.064	5.323	C.3	1	UNK0	0.000	
28	   C	-2.778	0.566	-2.858	C.2	1	UNK0	0.000	
29	   O	-3.763	0.398	-3.606	O.2	1	UNK0	0.000	
30	   H	-1.745	-2.030	-7.098	 H	1	UNK0	0.000	
31	   H	-2.664	-1.210	-4.900	 H	1	UNK0	0.000	
32	   H	0.890	0.935	-4.235	 H	1	UNK0	0.000	
33	   H	1.812	0.125	-6.420	 H	1	UNK0	0.000	
34	   H	-4.788	1.430	-0.683	 H	1	UNK0	0.000	
35	   H	-3.415	2.004	1.401	 H	1	UNK0	0.000	
36	   H	0.228	2.033	0.508	 H	1	UNK0	0.000	
37	   H	-0.885	2.506	1.807	 H	1	UNK0	0.000	
38	   H	1.293	1.358	2.878	 H	1	UNK0	0.000	
39	   H	3.617	-1.267	5.907	 H	1	UNK0	0.000	
40	   H	2.530	-3.503	5.850	 H	1	UNK0	0.000	
41	   H	0.605	-3.844	4.328	 H	1	UNK0	0.000	
42	   H	-0.216	-2.118	2.945	 H	1	UNK0	0.000	
43	   H	4.405	2.072	5.239	 H	1	UNK0	0.000	
44	   H	3.686	0.792	6.354	 H	1	UNK0	0.000	
45	   H	4.781	0.294	5.053	 H	1	UNK0	0.000	
@<TRIPOS>BOND
1 1 2 1
2 2 3 2
3 2 7 1
4 3 4 1
5 4 5 2
6 5 6 1
7 5 8 1
8 6 7 2
9 8 9 1
10 8 28 1
11 9 10 2
12 9 11 1
13 11 12 2
14 11 15 1
15 12 13 1
16 12 28 1
17 13 14 1
18 14 15 1
19 15 16 1
20 16 17 1
21 17 18 2
22 17 19 1
23 19 20 1
24 20 21 2
25 20 25 1
26 21 22 1
27 21 26 1
28 22 23 2
29 23 24 1
30 24 25 2
31 26 27 1
32 28 29 2
33 3 30 1
34 4 31 1
35 6 32 1
36 7 33 1
37 13 34 1
38 14 35 1
39 16 36 1
40 16 37 1
41 19 38 1
42 22 39 1
43 23 40 1
44 24 41 1
45 25 42 1
46 27 43 1
47 27 44 1
48 27 45 1
@<TRIPOS>SUBSTRUCTURE
1	UNK0	1	GROUP	1 ****	UNK
