# created with PyMOL 2.3.2
@<TRIPOS>MOLECULE
1517
52 55 1                 
SMALL
USER_CHARGES
@<TRIPOS>ATOM
1	  Cl	8.346	-0.663	0.866	Cl	1	UNK0	0.000	
2	   C	7.014	0.475	0.713	C.2	1	UNK0	0.000	
3	   C	5.881	0.337	1.511	C.2	1	UNK0	0.000	
4	   C	4.825	1.236	1.393	C.2	1	UNK0	0.000	
5	   C	4.889	2.269	0.490	C.2	1	UNK0	0.000	
6	   C	5.986	2.415	-0.292	C.2	1	UNK0	0.000	
7	   C	7.052	1.517	-0.184	C.2	1	UNK0	0.000	
8	   C	3.724	3.217	0.352	C.2	1	UNK0	0.000	
9	   O	4.051	4.352	0.023	O.2	1	UNK0	0.000	
10	   N	2.457	2.704	0.609	N.pl3	1	UNK0	0.000	
11	   C	1.232	2.208	0.857	C.3	1	UNK0	0.000	
12	   C	0.215	2.220	-0.286	C.3	1	UNK0	0.000	
13	   C	-1.051	1.557	0.178	C.2	1	UNK0	0.000	
14	   O	-1.272	1.689	1.435	O.2	1	UNK0	0.000	
15	   N	-1.921	0.858	-0.636	N.pl3	1	UNK0	0.000	
16	   C	-1.774	0.681	-2.066	C.3	1	UNK0	0.000	
17	   C	-2.155	-0.725	-2.459	C.3	1	UNK0	0.000	
18	   C	-1.997	-1.704	-1.334	C.3	1	UNK0	0.000	
19	   N	-2.478	-3.014	-1.852	N.3	1	UNK0	0.000	
20	   C	-2.580	-3.986	-0.834	C.3	1	UNK0	0.000	
21	   C	-1.422	-4.079	0.111	C.3	1	UNK0	0.000	
22	   C	-0.315	-3.136	-0.303	C.2	1	UNK0	0.000	
23	   N	1.013	-3.174	-0.123	N.2	1	UNK0	0.000	
24	   C	1.552	-2.089	-0.686	C.2	1	UNK0	0.000	
25	   N	0.555	-1.350	-1.231	N.pl3	1	UNK0	0.000	
26	   C	-0.578	-1.983	-1.001	C.2	1	UNK0	0.000	
27	   C	-2.833	-1.299	-0.160	C.3	1	UNK0	0.000	
28	   C	-3.084	0.168	-0.081	C.3	1	UNK0	0.000	
29	   H	5.873	-0.488	2.206	 H	1	UNK0	0.000	
30	   H	3.941	1.121	2.023	 H	1	UNK0	0.000	
31	   H	6.079	3.217	-1.027	 H	1	UNK0	0.000	
32	   H	7.917	1.665	-0.830	 H	1	UNK0	0.000	
33	   H	1.915	3.914	0.309	 H	1	UNK0	0.000	
34	   H	0.673	2.684	1.735	 H	1	UNK0	0.000	
35	   H	1.295	1.126	1.239	 H	1	UNK0	0.000	
36	   H	0.593	1.871	-1.227	 H	1	UNK0	0.000	
37	   H	-0.050	3.304	-0.413	 H	1	UNK0	0.000	
38	   H	-2.556	1.404	-2.508	 H	1	UNK0	0.000	
39	   H	-0.839	1.032	-2.487	 H	1	UNK0	0.000	
40	   H	-3.261	-0.728	-2.696	 H	1	UNK0	0.000	
41	   H	-1.580	-1.064	-3.358	 H	1	UNK0	0.000	
42	   H	-3.432	-2.905	-2.279	 H	1	UNK0	0.000	
43	   H	-2.684	-4.989	-1.358	 H	1	UNK0	0.000	
44	   H	-3.522	-3.928	-0.237	 H	1	UNK0	0.000	
45	   H	-0.972	-5.121	0.061	 H	1	UNK0	0.000	
46	   H	-1.690	-3.938	1.177	 H	1	UNK0	0.000	
47	   H	2.598	-1.827	-0.712	 H	1	UNK0	0.000	
48	   H	0.755	-0.445	-1.730	 H	1	UNK0	0.000	
49	   H	-3.830	-1.801	-0.269	 H	1	UNK0	0.000	
50	   H	-2.440	-1.710	0.802	 H	1	UNK0	0.000	
51	   H	-3.369	0.545	0.900	 H	1	UNK0	0.000	
52	   H	-3.926	0.452	-0.791	 H	1	UNK0	0.000	
@<TRIPOS>BOND
1 1 2 1
2 2 3 2
3 2 7 1
4 3 4 1
5 4 5 2
6 5 6 1
7 5 8 1
8 6 7 2
9 8 9 2
10 8 10 1
11 10 11 1
12 11 12 1
13 12 13 1
14 13 14 2
15 13 15 1
16 15 16 1
17 15 28 1
18 16 17 1
19 17 18 1
20 18 19 1
21 18 26 1
22 18 27 1
23 19 20 1
24 20 21 1
25 21 22 1
26 22 23 1
27 22 26 2
28 23 24 2
29 24 25 1
30 25 26 1
31 27 28 1
32 3 29 1
33 4 30 1
34 6 31 1
35 7 32 1
36 10 33 1
37 11 34 1
38 11 35 1
39 12 36 1
40 12 37 1
41 16 38 1
42 16 39 1
43 17 40 1
44 17 41 1
45 19 42 1
46 20 43 1
47 20 44 1
48 21 45 1
49 21 46 1
50 24 47 1
51 25 48 1
52 27 49 1
53 27 50 1
54 28 51 1
55 28 52 1
@<TRIPOS>SUBSTRUCTURE
1	UNK0	1	GROUP	1 ****	UNK
