# created with PyMOL 2.3.2
@<TRIPOS>MOLECULE
1519
49 52 1                 
SMALL
USER_CHARGES
@<TRIPOS>ATOM
1	  Cl	1.167	-4.659	-5.031	Cl	1	UNK0	0.000	
2	   C	-0.109	-3.909	-4.098	C.2	1	UNK0	0.000	
3	   C	-1.413	-4.183	-4.402	C.2	1	UNK0	0.000	
4	   C	-2.417	-3.596	-3.672	C.2	1	UNK0	0.000	
5	   C	-2.188	-2.717	-2.613	C.2	1	UNK0	0.000	
6	   C	-0.873	-2.446	-2.312	C.2	1	UNK0	0.000	
7	   C	0.147	-3.039	-3.051	C.2	1	UNK0	0.000	
8	   C	-3.285	-2.120	-1.870	C.2	1	UNK0	0.000	
9	   O	-4.466	-2.424	-2.248	O.2	1	UNK0	0.000	
10	   N	-3.101	-1.253	-0.790	N.pl3	1	UNK0	0.000	
11	   C	-4.174	-0.645	-0.034	C.3	1	UNK0	0.000	
12	   C	-4.090	0.860	-0.025	C.3	1	UNK0	0.000	
13	   N	-2.958	1.077	0.859	N.pl3	1	UNK0	0.000	
14	   C	-2.953	0.045	1.879	C.3	1	UNK0	0.000	
15	   C	-3.995	-0.955	1.450	C.3	1	UNK0	0.000	
16	   C	-1.604	-0.516	1.963	C.2	1	UNK0	0.000	
17	   O	-1.426	-1.748	2.096	O.2	1	UNK0	0.000	
18	   N	-0.477	0.365	1.890	N.pl3	1	UNK0	0.000	
19	   C	-0.572	1.727	1.472	C.3	1	UNK0	0.000	
20	   C	-1.915	2.040	0.924	C.2	1	UNK0	0.000	
21	   O	-2.147	3.215	0.494	O.2	1	UNK0	0.000	
22	   C	0.425	2.057	0.361	C.3	1	UNK0	0.000	
23	   C	1.814	1.836	0.792	C.2	1	UNK0	0.000	
24	   C	2.402	0.589	0.603	C.2	1	UNK0	0.000	
25	   C	3.704	0.340	0.994	C.2	1	UNK0	0.000	
26	   C	4.459	1.312	1.582	C.2	1	UNK0	0.000	
27	   C	3.896	2.557	1.780	C.2	1	UNK0	0.000	
28	   C	2.590	2.806	1.388	C.2	1	UNK0	0.000	
29	   O	5.786	1.066	1.983	O.3	1	UNK0	0.000	
30	   H	-1.658	-4.851	-5.205	 H	1	UNK0	0.000	
31	   H	-3.436	-3.811	-3.909	 H	1	UNK0	0.000	
32	   H	-0.592	-1.768	-1.499	 H	1	UNK0	0.000	
33	   H	1.185	-2.842	-2.835	 H	1	UNK0	0.000	
34	   H	-2.144	-1.004	-0.479	 H	1	UNK0	0.000	
35	   H	-5.177	-0.929	-0.401	 H	1	UNK0	0.000	
36	   H	-3.981	1.313	-1.006	 H	1	UNK0	0.000	
37	   H	-5.037	1.238	0.424	 H	1	UNK0	0.000	
38	   H	-3.206	0.463	2.884	 H	1	UNK0	0.000	
39	   H	-4.950	-0.672	1.952	 H	1	UNK0	0.000	
40	   H	-3.728	-1.994	1.634	 H	1	UNK0	0.000	
41	   H	0.465	-0.007	2.156	 H	1	UNK0	0.000	
42	   H	-0.392	2.370	2.363	 H	1	UNK0	0.000	
43	   H	0.215	3.106	0.057	 H	1	UNK0	0.000	
44	   H	0.154	1.427	-0.516	 H	1	UNK0	0.000	
45	   H	1.804	-0.173	0.140	 H	1	UNK0	0.000	
46	   H	4.167	-0.643	0.844	 H	1	UNK0	0.000	
47	   H	4.523	3.309	2.250	 H	1	UNK0	0.000	
48	   H	2.194	3.787	1.561	 H	1	UNK0	0.000	
49	   H	6.168	0.143	1.823	 H	1	UNK0	0.000	
@<TRIPOS>BOND
1 1 2 1
2 2 3 2
3 2 7 1
4 3 4 1
5 4 5 2
6 5 6 1
7 5 8 1
8 6 7 2
9 8 9 2
10 8 10 1
11 10 11 1
12 11 12 1
13 11 15 1
14 12 13 1
15 13 14 1
16 13 20 1
17 14 15 1
18 14 16 1
19 16 17 2
20 16 18 1
21 18 19 1
22 19 20 1
23 19 22 1
24 20 21 2
25 22 23 1
26 23 24 2
27 23 28 1
28 24 25 1
29 25 26 2
30 26 27 1
31 26 29 1
32 27 28 2
33 3 30 1
34 4 31 1
35 6 32 1
36 7 33 1
37 10 34 1
38 11 35 1
39 12 36 1
40 12 37 1
41 14 38 1
42 15 39 1
43 15 40 1
44 18 41 1
45 19 42 1
46 22 43 1
47 22 44 1
48 24 45 1
49 25 46 1
50 27 47 1
51 28 48 1
52 29 49 1
@<TRIPOS>SUBSTRUCTURE
1	UNK0	1	GROUP	1 ****	UNK
