# created with PyMOL 2.3.2
@<TRIPOS>MOLECULE
1520
49 52 1                 
SMALL
USER_CHARGES
@<TRIPOS>ATOM
1	  Cl	-1.198	6.243	-6.197	Cl	1	UNK0	0.000	
2	   C	-0.159	5.154	-5.324	C.2	1	UNK0	0.000	
3	   C	-0.557	4.606	-4.135	C.2	1	UNK0	0.000	
4	   C	0.255	3.732	-3.416	C.2	1	UNK0	0.000	
5	   C	1.487	3.405	-3.903	C.2	1	UNK0	0.000	
6	   C	1.919	3.950	-5.115	C.2	1	UNK0	0.000	
7	   C	1.094	4.804	-5.791	C.2	1	UNK0	0.000	
8	   C	2.394	2.503	-3.218	C.2	1	UNK0	0.000	
9	   O	3.551	2.280	-3.678	O.2	1	UNK0	0.000	
10	   N	2.019	1.847	-2.024	N.pl3	1	UNK0	0.000	
11	   C	2.948	0.939	-1.347	C.3	1	UNK0	0.000	
12	   C	2.325	-0.435	-1.180	C.3	1	UNK0	0.000	
13	   N	1.555	-0.307	0.042	N.pl3	1	UNK0	0.000	
14	   C	2.152	0.715	0.908	C.3	1	UNK0	0.000	
15	   C	3.134	1.474	0.054	C.3	1	UNK0	0.000	
16	   C	1.065	1.566	1.429	C.2	1	UNK0	0.000	
17	   O	1.239	2.811	1.362	O.2	1	UNK0	0.000	
18	   N	-0.083	0.946	1.963	N.pl3	1	UNK0	0.000	
19	   C	-0.346	-0.429	1.702	C.3	1	UNK0	0.000	
20	   C	0.391	-0.950	0.527	C.2	1	UNK0	0.000	
21	   O	0.002	-2.001	-0.092	O.2	1	UNK0	0.000	
22	   C	-0.182	-1.319	2.903	C.3	1	UNK0	0.000	
23	   C	-0.460	-2.721	2.598	C.2	1	UNK0	0.000	
24	   C	-1.727	-3.258	2.727	C.2	1	UNK0	0.000	
25	   C	-2.001	-4.572	2.445	C.2	1	UNK0	0.000	
26	   C	-0.964	-5.401	2.012	C.2	1	UNK0	0.000	
27	   C	0.300	-4.882	1.879	C.2	1	UNK0	0.000	
28	   C	0.575	-3.545	2.166	C.2	1	UNK0	0.000	
29	   O	-1.229	-6.732	1.724	O.3	1	UNK0	0.000	
30	   H	-1.523	4.845	-3.725	 H	1	UNK0	0.000	
31	   H	-0.123	3.346	-2.498	 H	1	UNK0	0.000	
32	   H	2.911	3.686	-5.505	 H	1	UNK0	0.000	
33	   H	1.427	5.239	-6.747	 H	1	UNK0	0.000	
34	   H	1.070	2.017	-1.632	 H	1	UNK0	0.000	
35	   H	3.892	0.896	-1.910	 H	1	UNK0	0.000	
36	   H	3.080	-1.237	-1.148	 H	1	UNK0	0.000	
37	   H	1.700	-0.607	-2.079	 H	1	UNK0	0.000	
38	   H	2.683	0.270	1.768	 H	1	UNK0	0.000	
39	   H	2.987	2.553	0.128	 H	1	UNK0	0.000	
40	   H	4.170	1.240	0.377	 H	1	UNK0	0.000	
41	   H	-0.730	1.504	2.545	 H	1	UNK0	0.000	
42	   H	-1.449	-0.480	1.446	 H	1	UNK0	0.000	
43	   H	0.847	-1.211	3.280	 H	1	UNK0	0.000	
44	   H	-0.886	-0.974	3.697	 H	1	UNK0	0.000	
45	   H	-2.495	-2.573	3.067	 H	1	UNK0	0.000	
46	   H	-3.014	-4.955	2.561	 H	1	UNK0	0.000	
47	   H	1.125	-5.498	1.546	 H	1	UNK0	0.000	
48	   H	1.587	-3.177	2.046	 H	1	UNK0	0.000	
49	   H	-1.504	-7.060	0.806	 H	1	UNK0	0.000	
@<TRIPOS>BOND
1 1 2 1
2 2 3 2
3 2 7 1
4 3 4 1
5 4 5 2
6 5 6 1
7 5 8 1
8 6 7 2
9 8 9 2
10 8 10 1
11 10 11 1
12 11 12 1
13 11 15 1
14 12 13 1
15 13 14 1
16 13 20 1
17 14 15 1
18 14 16 1
19 16 17 2
20 16 18 1
21 18 19 1
22 19 20 1
23 19 22 1
24 20 21 2
25 22 23 1
26 23 24 2
27 23 28 1
28 24 25 1
29 25 26 2
30 26 27 1
31 26 29 1
32 27 28 2
33 3 30 1
34 4 31 1
35 6 32 1
36 7 33 1
37 10 34 1
38 11 35 1
39 12 36 1
40 12 37 1
41 14 38 1
42 15 39 1
43 15 40 1
44 18 41 1
45 19 42 1
46 22 43 1
47 22 44 1
48 24 45 1
49 25 46 1
50 27 47 1
51 28 48 1
52 29 49 1
@<TRIPOS>SUBSTRUCTURE
1	UNK0	1	GROUP	1 ****	UNK
