# created with PyMOL 2.3.2
@<TRIPOS>MOLECULE
1521
41 44 1                 
SMALL
USER_CHARGES
@<TRIPOS>ATOM
1	  Cl	4.494	4.137	-0.277	Cl	1	UNK0	0.000	
2	   C	2.760	3.989	-0.081	C.2	1	UNK0	0.000	
3	   C	2.098	2.949	-0.687	C.2	1	UNK0	0.000	
4	   N	2.471	1.919	-1.465	N.pl3	1	UNK0	0.000	
5	   C	1.418	1.155	-1.812	C.2	1	UNK0	0.000	
6	   C	0.323	1.744	-1.216	C.2	1	UNK0	0.000	
7	   C	0.727	2.859	-0.514	C.2	1	UNK0	0.000	
8	   C	0.078	3.805	0.253	C.2	1	UNK0	0.000	
9	   C	0.716	4.853	0.869	C.2	1	UNK0	0.000	
10	   C	2.093	4.940	0.692	C.2	1	UNK0	0.000	
11	   C	-0.978	1.071	-1.454	C.3	1	UNK0	0.000	
12	   N	-0.743	-0.315	-1.118	N.3	1	UNK0	0.000	
13	   C	0.140	-0.994	-1.984	C.3	1	UNK0	0.000	
14	   C	1.149	-0.059	-2.611	C.3	1	UNK0	0.000	
15	   C	-1.856	-0.998	-0.611	C.3	1	UNK0	0.000	
16	   C	-1.561	-2.422	-0.250	C.3	1	UNK0	0.000	
17	   C	-0.636	-2.563	0.909	C.3	1	UNK0	0.000	
18	   N	-1.235	-3.353	1.929	N.3	1	UNK0	0.000	
19	   C	-2.560	-3.705	1.534	C.3	1	UNK0	0.000	
20	   C	-2.837	-3.073	0.212	C.3	1	UNK0	0.000	
21	   O	-1.122	-3.144	-1.367	O.3	1	UNK0	0.000	
22	   H	3.454	1.696	-1.789	 H	1	UNK0	0.000	
23	   H	-0.988	3.711	0.372	 H	1	UNK0	0.000	
24	   H	0.200	5.593	1.471	 H	1	UNK0	0.000	
25	   H	2.614	5.759	1.170	 H	1	UNK0	0.000	
26	   H	-1.187	1.195	-2.555	 H	1	UNK0	0.000	
27	   H	-1.787	1.441	-0.827	 H	1	UNK0	0.000	
28	   H	0.749	-1.760	-1.426	 H	1	UNK0	0.000	
29	   H	-0.376	-1.507	-2.837	 H	1	UNK0	0.000	
30	   H	2.111	-0.592	-2.770	 H	1	UNK0	0.000	
31	   H	0.818	0.247	-3.636	 H	1	UNK0	0.000	
32	   H	-2.761	-0.986	-1.250	 H	1	UNK0	0.000	
33	   H	-2.178	-0.491	0.347	 H	1	UNK0	0.000	
34	   H	0.388	-2.910	0.636	 H	1	UNK0	0.000	
35	   H	-0.480	-1.532	1.341	 H	1	UNK0	0.000	
36	   H	-0.665	-4.185	2.212	 H	1	UNK0	0.000	
37	   H	-2.700	-4.804	1.539	 H	1	UNK0	0.000	
38	   H	-3.317	-3.301	2.257	 H	1	UNK0	0.000	
39	   H	-3.152	-3.904	-0.479	 H	1	UNK0	0.000	
40	   H	-3.674	-2.337	0.246	 H	1	UNK0	0.000	
41	   H	-0.585	-3.899	-1.008	 H	1	UNK0	0.000	
@<TRIPOS>BOND
1 1 2 1
2 2 3 2
3 2 10 1
4 3 4 1
5 3 7 1
6 4 5 1
7 5 6 2
8 5 14 1
9 6 7 1
10 6 11 1
11 7 8 2
12 8 9 1
13 9 10 2
14 11 12 1
15 12 13 1
16 12 15 1
17 13 14 1
18 15 16 1
19 16 17 1
20 16 20 1
21 16 21 1
22 17 18 1
23 18 19 1
24 19 20 1
25 4 22 1
26 8 23 1
27 9 24 1
28 10 25 1
29 11 26 1
30 11 27 1
31 13 28 1
32 13 29 1
33 14 30 1
34 14 31 1
35 15 32 1
36 15 33 1
37 17 34 1
38 17 35 1
39 18 36 1
40 19 37 1
41 19 38 1
42 20 39 1
43 20 40 1
44 21 41 1
@<TRIPOS>SUBSTRUCTURE
1	UNK0	1	GROUP	1 ****	UNK
