# created with PyMOL 2.3.2
@<TRIPOS>MOLECULE
1522
63 66 1                 
SMALL
USER_CHARGES
@<TRIPOS>ATOM
1	  Br	-1.209	1.510	-6.553	Br	1	UNK0	0.000	
2	   C	-0.736	2.294	-4.881	C.2	1	UNK0	0.000	
3	   C	-0.453	1.469	-3.834	C.2	1	UNK0	0.000	
4	   C	-0.094	1.931	-2.562	C.2	1	UNK0	0.000	
5	   C	-0.042	3.304	-2.425	C.2	1	UNK0	0.000	
6	   C	-0.331	4.159	-3.495	C.2	1	UNK0	0.000	
7	   C	-0.677	3.661	-4.722	C.2	1	UNK0	0.000	
8	   C	0.197	0.986	-1.485	C.3	1	UNK0	0.000	
9	   N	1.368	1.282	-0.707	N.pl3	1	UNK0	0.000	
10	   C	0.991	2.227	0.291	C.2	1	UNK0	0.000	
11	   O	1.715	3.061	0.889	O.2	1	UNK0	0.000	
12	   C	-0.453	2.029	0.488	C.2	1	UNK0	0.000	
13	   O	-1.232	2.644	1.275	O.2	1	UNK0	0.000	
14	   C	-0.863	0.963	-0.412	C.2	1	UNK0	0.000	
15	   C	-1.920	0.184	-0.331	C.2	1	UNK0	0.000	
16	   O	-2.151	-0.770	-1.352	O.2	1	UNK0	0.000	
17	   C	-2.837	0.298	0.792	C.2	1	UNK0	0.000	
18	   C	-4.208	0.366	0.531	C.2	1	UNK0	0.000	
19	   C	-5.147	0.448	1.536	C.2	1	UNK0	0.000	
20	   C	-4.751	0.465	2.859	C.2	1	UNK0	0.000	
21	   C	-3.396	0.397	3.119	C.2	1	UNK0	0.000	
22	   C	-2.455	0.315	2.115	C.2	1	UNK0	0.000	
23	   O	-5.736	0.549	3.812	O.3	1	UNK0	0.000	
24	   C	-7.043	0.025	3.625	C.3	1	UNK0	0.000	
25	   C	-7.473	-0.008	2.197	C.3	1	UNK0	0.000	
26	   O	-6.514	0.517	1.299	O.3	1	UNK0	0.000	
27	   C	2.708	0.735	-0.886	C.3	1	UNK0	0.000	
28	   C	2.888	-0.529	-0.060	C.3	1	UNK0	0.000	
29	   C	4.268	-1.107	-0.240	C.3	1	UNK0	0.000	
30	   N	4.410	-2.279	0.562	N.4	1	UNK0	0.000	
31	   C	4.941	-1.990	1.885	C.3	1	UNK0	0.000	
32	   C	6.449	-1.770	1.809	C.3	1	UNK0	0.000	
33	   C	3.248	-3.095	0.705	C.3	1	UNK0	0.000	
34	   C	2.354	-2.749	1.849	C.3	1	UNK0	0.000	
35	   H	-0.503	0.395	-3.970	 H	1	UNK0	0.000	
36	   H	0.225	3.737	-1.482	 H	1	UNK0	0.000	
37	   H	-0.284	5.219	-3.368	 H	1	UNK0	0.000	
38	   H	-0.906	4.296	-5.571	 H	1	UNK0	0.000	
39	   H	0.199	-0.040	-1.901	 H	1	UNK0	0.000	
40	   H	-4.519	0.353	-0.497	 H	1	UNK0	0.000	
41	   H	-3.120	0.414	4.176	 H	1	UNK0	0.000	
42	   H	-1.418	0.247	2.401	 H	1	UNK0	0.000	
43	   H	-7.013	-1.025	4.040	 H	1	UNK0	0.000	
44	   H	-7.764	0.589	4.264	 H	1	UNK0	0.000	
45	   H	-8.401	0.591	2.064	 H	1	UNK0	0.000	
46	   H	-7.757	-1.051	1.913	 H	1	UNK0	0.000	
47	   H	2.869	0.470	-1.953	 H	1	UNK0	0.000	
48	   H	3.502	1.426	-0.599	 H	1	UNK0	0.000	
49	   H	2.734	-0.334	0.998	 H	1	UNK0	0.000	
50	   H	2.154	-1.287	-0.464	 H	1	UNK0	0.000	
51	   H	4.996	-0.347	0.120	 H	1	UNK0	0.000	
52	   H	4.449	-1.385	-1.298	 H	1	UNK0	0.000	
53	   H	5.159	-2.873	0.105	 H	1	UNK0	0.000	
54	   H	4.696	-2.854	2.529	 H	1	UNK0	0.000	
55	   H	4.528	-1.068	2.332	 H	1	UNK0	0.000	
56	   H	6.813	-1.113	2.628	 H	1	UNK0	0.000	
57	   H	6.651	-1.309	0.828	 H	1	UNK0	0.000	
58	   H	7.003	-2.744	1.883	 H	1	UNK0	0.000	
59	   H	2.651	-3.213	-0.231	 H	1	UNK0	0.000	
60	   H	3.636	-4.149	0.882	 H	1	UNK0	0.000	
61	   H	1.395	-2.261	1.560	 H	1	UNK0	0.000	
62	   H	2.095	-3.706	2.389	 H	1	UNK0	0.000	
63	   H	2.807	-2.105	2.605	 H	1	UNK0	0.000	
@<TRIPOS>BOND
1 1 2 1
2 2 3 2
3 2 7 1
4 3 4 1
5 4 5 2
6 4 8 1
7 5 6 1
8 6 7 2
9 8 9 1
10 8 14 1
11 9 10 1
12 9 27 1
13 10 11 2
14 10 12 1
15 12 13 2
16 12 14 1
17 14 15 2
18 15 16 1
19 15 17 1
20 17 18 2
21 17 22 1
22 18 19 1
23 19 20 2
24 19 26 1
25 20 21 1
26 20 23 1
27 21 22 2
28 23 24 1
29 24 25 1
30 25 26 1
31 27 28 1
32 28 29 1
33 29 30 1
34 30 31 1
35 30 33 1
36 31 32 1
37 33 34 1
38 3 35 1
39 5 36 1
40 6 37 1
41 7 38 1
42 8 39 1
43 18 40 1
44 21 41 1
45 22 42 1
46 24 43 1
47 24 44 1
48 25 45 1
49 25 46 1
50 27 47 1
51 27 48 1
52 28 49 1
53 28 50 1
54 29 51 1
55 29 52 1
56 30 53 1
57 31 54 1
58 31 55 1
59 32 56 1
60 32 57 1
61 32 58 1
62 33 59 1
63 33 60 1
64 34 61 1
65 34 62 1
66 34 63 1
@<TRIPOS>SUBSTRUCTURE
1	UNK0	1	GROUP	1 ****	UNK
