# created with PyMOL 2.3.2
@<TRIPOS>MOLECULE
1524
56 59 1                 
SMALL
USER_CHARGES
@<TRIPOS>ATOM
1	  Br	-0.441	-8.154	-2.792	Br	1	UNK0	0.000	
2	   C	-0.752	-6.356	-2.235	C.2	1	UNK0	0.000	
3	   C	-0.698	-5.991	-0.898	C.2	1	UNK0	0.000	
4	   C	-0.912	-4.701	-0.500	C.2	1	UNK0	0.000	
5	   C	-1.186	-3.784	-1.489	C.2	1	UNK0	0.000	
6	   C	-1.244	-4.126	-2.817	C.2	1	UNK0	0.000	
7	   C	-1.025	-5.434	-3.217	C.2	1	UNK0	0.000	
8	   N	-0.832	-4.325	0.870	N.pl3	1	UNK0	0.000	
9	   C	-1.219	-3.085	1.420	C.2	1	UNK0	0.000	
10	   O	-2.107	-2.293	1.068	O.2	1	UNK0	0.000	
11	   C	-0.316	-2.829	2.611	C.3	1	UNK0	0.000	
12	   C	0.419	-4.110	2.838	C.3	1	UNK0	0.000	
13	   C	-0.334	-5.085	1.973	C.2	1	UNK0	0.000	
14	   O	-0.512	-6.325	2.141	O.2	1	UNK0	0.000	
15	   N	0.408	-1.674	2.310	N.3	1	UNK0	0.000	
16	   C	1.777	-1.557	2.635	C.3	1	UNK0	0.000	
17	   C	2.397	-0.560	1.676	C.3	1	UNK0	0.000	
18	   C	1.540	0.721	1.542	C.3	1	UNK0	0.000	
19	   C	0.483	0.766	2.621	C.3	1	UNK0	0.000	
20	   C	-0.239	-0.500	2.888	C.3	1	UNK0	0.000	
21	   N	1.025	0.709	0.215	N.3	1	UNK0	0.000	
22	   C	-0.273	1.303	0.083	C.3	1	UNK0	0.000	
23	   C	-0.790	1.124	-1.329	C.3	1	UNK0	0.000	
24	   C	0.182	1.539	-2.392	C.3	1	UNK0	0.000	
25	   C	1.410	0.640	-2.181	C.3	1	UNK0	0.000	
26	   C	1.931	1.124	-0.799	C.3	1	UNK0	0.000	
27	   C	2.492	1.817	1.833	C.2	1	UNK0	0.000	
28	   O	3.133	2.356	0.914	O.2	1	UNK0	0.000	
29	   N	2.724	2.313	3.133	N.pl3	1	UNK0	0.000	
30	   H	-0.478	-6.760	-0.177	 H	1	UNK0	0.000	
31	   H	-1.363	-2.750	-1.176	 H	1	UNK0	0.000	
32	   H	-1.458	-3.375	-3.576	 H	1	UNK0	0.000	
33	   H	-1.082	-5.714	-4.270	 H	1	UNK0	0.000	
34	   H	-1.027	-2.725	3.483	 H	1	UNK0	0.000	
35	   H	1.438	-4.133	2.338	 H	1	UNK0	0.000	
36	   H	0.482	-4.425	3.879	 H	1	UNK0	0.000	
37	   H	2.413	-2.455	2.598	 H	1	UNK0	0.000	
38	   H	1.934	-1.111	3.662	 H	1	UNK0	0.000	
39	   H	3.405	-0.345	2.047	 H	1	UNK0	0.000	
40	   H	2.492	-1.085	0.694	 H	1	UNK0	0.000	
41	   H	1.016	1.151	3.546	 H	1	UNK0	0.000	
42	   H	-0.200	1.623	2.341	 H	1	UNK0	0.000	
43	   H	-1.336	-0.490	2.723	 H	1	UNK0	0.000	
44	   H	-0.155	-0.684	4.005	 H	1	UNK0	0.000	
45	   H	-0.970	0.698	0.711	 H	1	UNK0	0.000	
46	   H	-0.268	2.379	0.394	 H	1	UNK0	0.000	
47	   H	-0.970	0.027	-1.456	 H	1	UNK0	0.000	
48	   H	-1.785	1.611	-1.451	 H	1	UNK0	0.000	
49	   H	0.556	2.586	-2.222	 H	1	UNK0	0.000	
50	   H	-0.271	1.405	-3.371	 H	1	UNK0	0.000	
51	   H	2.141	0.958	-2.937	 H	1	UNK0	0.000	
52	   H	1.148	-0.413	-2.171	 H	1	UNK0	0.000	
53	   H	2.914	0.668	-0.698	 H	1	UNK0	0.000	
54	   H	1.963	2.245	-0.954	 H	1	UNK0	0.000	
55	   H	2.968	1.655	3.890	 H	1	UNK0	0.000	
56	   H	2.660	3.327	3.343	 H	1	UNK0	0.000	
@<TRIPOS>BOND
1 1 2 1
2 2 3 2
3 2 7 1
4 3 4 1
5 4 5 2
6 4 8 1
7 5 6 1
8 6 7 2
9 8 9 1
10 8 13 1
11 9 10 2
12 9 11 1
13 11 12 1
14 11 15 1
15 12 13 1
16 13 14 2
17 15 16 1
18 15 20 1
19 16 17 1
20 17 18 1
21 18 19 1
22 18 21 1
23 18 27 1
24 19 20 1
25 21 22 1
26 21 26 1
27 22 23 1
28 23 24 1
29 24 25 1
30 25 26 1
31 27 28 2
32 27 29 1
33 3 30 1
34 5 31 1
35 6 32 1
36 7 33 1
37 11 34 1
38 12 35 1
39 12 36 1
40 16 37 1
41 16 38 1
42 17 39 1
43 17 40 1
44 19 41 1
45 19 42 1
46 20 43 1
47 20 44 1
48 22 45 1
49 22 46 1
50 23 47 1
51 23 48 1
52 24 49 1
53 24 50 1
54 25 51 1
55 25 52 1
56 26 53 1
57 26 54 1
58 29 55 1
59 29 56 1
@<TRIPOS>SUBSTRUCTURE
1	UNK0	1	GROUP	1 ****	UNK
