# created with PyMOL 2.3.2
@<TRIPOS>MOLECULE
1531
46 49 1                 
SMALL
USER_CHARGES
@<TRIPOS>ATOM
1	  Cl	-1.440	-4.735	-6.083	Cl	1	UNK0	0.000	
2	   C	-1.221	-3.758	-4.656	C.2	1	UNK0	0.000	
3	   C	-0.064	-3.907	-3.926	C.2	1	UNK0	0.000	
4	   C	0.094	-3.131	-2.804	C.2	1	UNK0	0.000	
5	   C	-0.912	-2.223	-2.442	C.2	1	UNK0	0.000	
6	   C	-2.070	-2.045	-3.136	C.2	1	UNK0	0.000	
7	   C	-2.177	-2.872	-4.282	C.2	1	UNK0	0.000	
8	   C	-3.136	-1.135	-2.814	C.2	1	UNK0	0.000	
9	   O	-4.139	-1.162	-3.670	O.2	1	UNK0	0.000	
10	   C	-3.308	-0.200	-1.727	C.3	1	UNK0	0.000	
11	   N	-2.326	-0.054	-0.707	N.pl3	1	UNK0	0.000	
12	   C	-2.269	-0.758	0.467	C.2	1	UNK0	0.000	
13	   N	-1.226	-0.273	1.145	N.pl3	1	UNK0	0.000	
14	   C	-0.598	0.709	0.477	C.2	1	UNK0	0.000	
15	   C	-1.304	0.845	-0.705	C.2	1	UNK0	0.000	
16	   C	0.574	1.493	0.864	C.2	1	UNK0	0.000	
17	   C	1.256	1.348	2.045	C.2	1	UNK0	0.000	
18	   C	2.375	2.138	2.345	C.2	1	UNK0	0.000	
19	   C	2.844	3.096	1.474	C.2	1	UNK0	0.000	
20	   C	2.165	3.250	0.285	C.2	1	UNK0	0.000	
21	   C	1.065	2.471	-0.008	C.2	1	UNK0	0.000	
22	   O	3.950	3.885	1.758	O.3	1	UNK0	0.000	
23	   C	4.649	3.729	2.980	C.3	1	UNK0	0.000	
24	   C	-1.083	-0.968	2.420	C.3	1	UNK0	0.000	
25	   C	-2.129	-2.044	2.403	C.3	1	UNK0	0.000	
26	   C	-2.972	-1.842	1.195	C.3	1	UNK0	0.000	
27	  Cl	1.187	-5.040	-4.382	Cl	1	UNK0	0.000	
28	   H	0.990	-3.242	-2.233	 H	1	UNK0	0.000	
29	   H	-0.690	-1.674	-1.565	 H	1	UNK0	0.000	
30	   H	-3.063	-2.795	-4.889	 H	1	UNK0	0.000	
31	   H	-3.526	0.862	-2.140	 H	1	UNK0	0.000	
32	   H	-4.329	-0.387	-1.207	 H	1	UNK0	0.000	
33	   H	-1.098	1.544	-1.513	 H	1	UNK0	0.000	
34	   H	0.925	0.617	2.751	 H	1	UNK0	0.000	
35	   H	2.905	2.015	3.280	 H	1	UNK0	0.000	
36	   H	2.522	4.004	-0.417	 H	1	UNK0	0.000	
37	   H	0.531	2.597	-0.951	 H	1	UNK0	0.000	
38	   H	5.193	2.751	2.915	 H	1	UNK0	0.000	
39	   H	5.383	4.552	3.091	 H	1	UNK0	0.000	
40	   H	3.944	3.678	3.838	 H	1	UNK0	0.000	
41	   H	-0.099	-1.488	2.514	 H	1	UNK0	0.000	
42	   H	-1.213	-0.259	3.261	 H	1	UNK0	0.000	
43	   H	-1.693	-3.073	2.371	 H	1	UNK0	0.000	
44	   H	-2.714	-1.953	3.363	 H	1	UNK0	0.000	
45	   H	-3.075	-2.739	0.554	 H	1	UNK0	0.000	
46	   H	-4.008	-1.536	1.490	 H	1	UNK0	0.000	
@<TRIPOS>BOND
1 1 2 1
2 2 3 2
3 2 7 1
4 3 4 1
5 3 27 1
6 4 5 2
7 5 6 1
8 6 7 2
9 6 8 1
10 8 9 2
11 8 10 1
12 10 11 1
13 11 12 1
14 11 15 1
15 12 13 2
16 12 26 1
17 13 14 1
18 13 24 1
19 14 15 2
20 14 16 1
21 16 17 2
22 16 21 1
23 17 18 1
24 18 19 2
25 19 20 1
26 19 22 1
27 20 21 2
28 22 23 1
29 24 25 1
30 25 26 1
31 4 28 1
32 5 29 1
33 7 30 1
34 10 31 1
35 10 32 1
36 15 33 1
37 17 34 1
38 18 35 1
39 20 36 1
40 21 37 1
41 23 38 1
42 23 39 1
43 23 40 1
44 24 41 1
45 24 42 1
46 25 43 1
47 25 44 1
48 26 45 1
49 26 46 1
@<TRIPOS>SUBSTRUCTURE
1	UNK0	1	GROUP	1 ****	UNK
