# created with PyMOL 2.3.2
@<TRIPOS>MOLECULE
1532
49 52 1                 
SMALL
USER_CHARGES
@<TRIPOS>ATOM
1	  Cl	-6.182	-2.261	1.852	Cl	1	UNK0	0.000	
2	   C	-5.359	-1.077	0.845	C.2	1	UNK0	0.000	
3	   C	-5.945	0.143	0.683	C.2	1	UNK0	0.000	
4	   C	-5.336	1.083	-0.091	C.2	1	UNK0	0.000	
5	   C	-4.120	0.812	-0.720	C.2	1	UNK0	0.000	
6	   C	-3.523	-0.396	-0.570	C.2	1	UNK0	0.000	
7	   C	-4.172	-1.335	0.228	C.2	1	UNK0	0.000	
8	   C	-2.257	-0.715	-1.200	C.2	1	UNK0	0.000	
9	   O	-1.806	-1.900	-1.018	O.2	1	UNK0	0.000	
10	   C	-1.503	0.255	-2.015	C.3	1	UNK0	0.000	
11	   N	-0.176	0.440	-1.406	N.pl3	1	UNK0	0.000	
12	   C	0.869	-0.327	-1.746	C.2	1	UNK0	0.000	
13	   C	1.912	0.140	-0.981	C.2	1	UNK0	0.000	
14	   C	3.133	-0.478	-1.135	C.2	1	UNK0	0.000	
15	   C	3.317	-1.536	-2.028	C.2	1	UNK0	0.000	
16	   C	2.269	-2.000	-2.791	C.2	1	UNK0	0.000	
17	   C	1.059	-1.376	-2.629	C.2	1	UNK0	0.000	
18	   N	1.516	1.171	-0.184	N.pl3	1	UNK0	0.000	
19	   C	0.200	1.343	-0.471	C.cat	1	UNK0	0.000	
20	   N	-0.633	2.220	-0.028	N.pl3	1	UNK0	0.000	
21	   C	2.332	1.956	0.720	C.3	1	UNK0	0.000	
22	   C	2.654	1.376	2.001	C.2	1	UNK0	0.000	
23	   C	1.834	1.253	3.069	C.2	1	UNK0	0.000	
24	   C	2.298	0.654	4.253	C.2	1	UNK0	0.000	
25	   C	3.570	0.172	4.398	C.2	1	UNK0	0.000	
26	   C	4.411	0.293	3.322	C.2	1	UNK0	0.000	
27	   C	3.961	0.876	2.168	C.2	1	UNK0	0.000	
28	   C	0.473	1.734	3.090	C.3	1	UNK0	0.000	
29	  Cl	-7.486	0.533	1.460	Cl	1	UNK0	0.000	
30	   H	-5.807	2.055	-0.217	 H	1	UNK0	0.000	
31	   H	-3.706	1.616	-1.325	 H	1	UNK0	0.000	
32	   H	-3.728	-2.310	0.374	 H	1	UNK0	0.000	
33	   H	-1.990	1.205	-2.188	 H	1	UNK0	0.000	
34	   H	-1.360	-0.232	-3.023	 H	1	UNK0	0.000	
35	   H	3.962	-0.129	-0.553	 H	1	UNK0	0.000	
36	   H	4.320	-1.953	-2.071	 H	1	UNK0	0.000	
37	   H	2.435	-2.823	-3.478	 H	1	UNK0	0.000	
38	   H	0.204	-1.702	-3.204	 H	1	UNK0	0.000	
39	   H	-0.411	2.935	0.681	 H	1	UNK0	0.000	
40	   H	-1.632	2.260	-0.378	 H	1	UNK0	0.000	
41	   H	3.286	2.166	0.163	 H	1	UNK0	0.000	
42	   H	1.867	2.971	0.769	 H	1	UNK0	0.000	
43	   H	1.650	0.545	5.122	 H	1	UNK0	0.000	
44	   H	3.892	-0.284	5.322	 H	1	UNK0	0.000	
45	   H	5.416	-0.084	3.430	 H	1	UNK0	0.000	
46	   H	4.665	0.959	1.360	 H	1	UNK0	0.000	
47	   H	0.319	2.790	2.845	 H	1	UNK0	0.000	
48	   H	0.023	1.575	4.115	 H	1	UNK0	0.000	
49	   H	-0.160	1.121	2.427	 H	1	UNK0	0.000	
@<TRIPOS>BOND
1 1 2 1
2 2 3 2
3 2 7 1
4 3 4 1
5 3 29 1
6 4 5 2
7 5 6 1
8 6 7 2
9 6 8 1
10 8 9 2
11 8 10 1
12 10 11 1
13 11 12 1
14 11 19 1
15 12 13 1
16 12 17 2
17 13 14 2
18 13 18 1
19 14 15 1
20 15 16 2
21 16 17 1
22 18 19 1
23 18 21 1
24 19 20 2
25 21 22 1
26 22 23 2
27 22 27 1
28 23 24 1
29 23 28 1
30 24 25 2
31 25 26 1
32 26 27 2
33 4 30 1
34 5 31 1
35 7 32 1
36 10 33 1
37 10 34 1
38 14 35 1
39 15 36 1
40 16 37 1
41 17 38 1
42 20 39 1
43 20 40 1
44 21 41 1
45 21 42 1
46 24 43 1
47 25 44 1
48 26 45 1
49 27 46 1
50 28 47 1
51 28 48 1
52 28 49 1
@<TRIPOS>SUBSTRUCTURE
1	UNK0	1	GROUP	1 ****	UNK
