# created with PyMOL 2.3.2
@<TRIPOS>MOLECULE
1534
50 53 1                 
SMALL
USER_CHARGES
@<TRIPOS>ATOM
1	  Cl	-5.318	-3.408	3.289	Cl	1	UNK0	0.000	
2	   C	-3.675	-3.819	2.835	C.2	1	UNK0	0.000	
3	   C	-3.039	-4.862	3.476	C.2	1	UNK0	0.000	
4	   C	-1.757	-5.156	3.097	C.2	1	UNK0	0.000	
5	   C	-1.107	-4.431	2.096	C.2	1	UNK0	0.000	
6	   C	-1.722	-3.392	1.450	C.2	1	UNK0	0.000	
7	   C	-3.027	-3.102	1.844	C.2	1	UNK0	0.000	
8	   C	-1.062	-2.609	0.405	C.2	1	UNK0	0.000	
9	   N	0.185	-2.697	-0.077	N.pl3	1	UNK0	0.000	
10	   C	0.371	-1.781	-1.035	C.2	1	UNK0	0.000	
11	   N	-0.779	-1.045	-1.212	N.pl3	1	UNK0	0.000	
12	   C	-1.641	-1.578	-0.312	C.2	1	UNK0	0.000	
13	   C	-0.999	-0.006	-2.161	C.3	1	UNK0	0.000	
14	   C	-0.723	1.381	-1.883	C.2	1	UNK0	0.000	
15	   O	-0.982	2.199	-2.895	O.2	1	UNK0	0.000	
16	   C	-0.219	2.092	-0.734	C.2	1	UNK0	0.000	
17	   C	-0.052	3.491	-0.791	C.2	1	UNK0	0.000	
18	   C	0.417	4.254	0.247	C.2	1	UNK0	0.000	
19	   C	0.740	3.594	1.412	C.2	1	UNK0	0.000	
20	   C	0.585	2.228	1.492	C.2	1	UNK0	0.000	
21	   C	0.109	1.455	0.437	C.2	1	UNK0	0.000	
22	   O	1.218	4.353	2.477	O.3	1	UNK0	0.000	
23	   C	1.577	3.795	3.707	C.3	1	UNK0	0.000	
24	   O	0.567	5.633	0.147	O.3	1	UNK0	0.000	
25	   C	0.247	6.346	-1.031	C.3	1	UNK0	0.000	
26	   C	1.733	-1.837	-1.618	C.3	1	UNK0	0.000	
27	   C	2.500	-2.643	-0.619	C.3	1	UNK0	0.000	
28	   C	1.440	-3.442	0.082	C.3	1	UNK0	0.000	
29	  Cl	-3.904	-5.735	4.722	Cl	1	UNK0	0.000	
30	   H	-1.245	-5.963	3.583	 H	1	UNK0	0.000	
31	   H	-0.093	-4.694	1.815	 H	1	UNK0	0.000	
32	   H	-3.514	-2.281	1.331	 H	1	UNK0	0.000	
33	   H	-2.659	-1.226	-0.184	 H	1	UNK0	0.000	
34	   H	-0.452	-0.356	-3.109	 H	1	UNK0	0.000	
35	   H	-2.099	-0.084	-2.445	 H	1	UNK0	0.000	
36	   H	-0.302	4.032	-1.707	 H	1	UNK0	0.000	
37	   H	0.838	1.710	2.405	 H	1	UNK0	0.000	
38	   H	0.018	0.396	0.586	 H	1	UNK0	0.000	
39	   H	2.634	3.482	3.646	 H	1	UNK0	0.000	
40	   H	0.882	2.997	3.987	 H	1	UNK0	0.000	
41	   H	1.454	4.601	4.485	 H	1	UNK0	0.000	
42	   H	0.954	6.162	-1.858	 H	1	UNK0	0.000	
43	   H	-0.755	5.999	-1.421	 H	1	UNK0	0.000	
44	   H	0.104	7.425	-0.809	 H	1	UNK0	0.000	
45	   H	1.715	-2.345	-2.614	 H	1	UNK0	0.000	
46	   H	2.185	-0.829	-1.708	 H	1	UNK0	0.000	
47	   H	3.281	-3.280	-1.085	 H	1	UNK0	0.000	
48	   H	2.945	-1.918	0.104	 H	1	UNK0	0.000	
49	   H	1.354	-4.477	-0.247	 H	1	UNK0	0.000	
50	   H	1.764	-3.470	1.161	 H	1	UNK0	0.000	
@<TRIPOS>BOND
1 1 2 1
2 2 3 2
3 2 7 1
4 3 4 1
5 3 29 1
6 4 5 2
7 5 6 1
8 6 7 2
9 6 8 1
10 8 9 1
11 8 12 2
12 9 10 1
13 9 28 1
14 10 11 2
15 10 26 1
16 11 12 1
17 11 13 1
18 13 14 1
19 14 15 2
20 14 16 1
21 16 17 2
22 16 21 1
23 17 18 1
24 18 19 2
25 18 24 1
26 19 20 1
27 19 22 1
28 20 21 2
29 22 23 1
30 24 25 1
31 26 27 1
32 27 28 1
33 4 30 1
34 5 31 1
35 7 32 1
36 12 33 1
37 13 34 1
38 13 35 1
39 17 36 1
40 20 37 1
41 21 38 1
42 23 39 1
43 23 40 1
44 23 41 1
45 25 42 1
46 25 43 1
47 25 44 1
48 26 45 1
49 26 46 1
50 27 47 1
51 27 48 1
52 28 49 1
53 28 50 1
@<TRIPOS>SUBSTRUCTURE
1	UNK0	1	GROUP	1 ****	UNK
