# created with PyMOL 2.3.2
@<TRIPOS>MOLECULE
1537
54 56 1                 
SMALL
USER_CHARGES
@<TRIPOS>ATOM
1	  Cl	0.825	-1.533	0.458	Cl	1	UNK0	0.000	
2	   O	0.777	-2.836	1.546	 O	1	UNK0	0.000	
3	   O	0.907	-0.040	1.244	 O	1	UNK0	0.000	
4	   O	2.226	-1.699	-0.516	 O	1	UNK0	0.000	
5	   O	-0.510	-1.631	-0.601	O.3	1	UNK0	0.000	
6	  Cl	1.023	-5.332	5.981	Cl	1	UNK0	0.000	
7	   C	0.596	-4.061	4.853	C.2	1	UNK0	0.000	
8	   C	-0.077	-4.306	3.662	C.2	1	UNK0	0.000	
9	   C	-0.384	-3.286	2.776	C.2	1	UNK0	0.000	
10	   C	-0.018	-1.961	3.071	C.2	1	UNK0	0.000	
11	   C	0.645	-1.707	4.248	C.2	1	UNK0	0.000	
12	   C	0.949	-2.754	5.129	C.2	1	UNK0	0.000	
13	   C	-0.297	-0.857	2.163	C.2	1	UNK0	0.000	
14	   C	-0.203	-1.063	0.780	C.2	1	UNK0	0.000	
15	   O	-0.423	-0.132	-0.083	O.3	1	UNK0	0.000	
16	   C	-0.748	1.091	0.210	C.2	1	UNK0	0.000	
17	   C	-0.862	1.366	1.571	C.2	1	UNK0	0.000	
18	   C	-1.187	2.669	1.925	C.2	1	UNK0	0.000	
19	   C	-1.385	3.624	0.978	C.2	1	UNK0	0.000	
20	   C	-1.262	3.300	-0.378	C.2	1	UNK0	0.000	
21	   C	-0.934	1.995	-0.796	C.2	1	UNK0	0.000	
22	   C	-0.924	1.686	-2.221	C.3	1	UNK0	0.000	
23	   N	0.266	1.032	-2.738	N.3	1	UNK0	0.000	
24	   C	-0.169	-0.303	-3.103	C.3	1	UNK0	0.000	
25	   C	0.182	-0.646	-4.541	C.3	1	UNK0	0.000	
26	   N	1.561	-0.383	-4.783	N.3	1	UNK0	0.000	
27	   C	1.708	1.057	-4.757	C.3	1	UNK0	0.000	
28	   C	0.810	1.770	-3.817	C.3	1	UNK0	0.000	
29	   C	2.492	-1.056	-3.921	C.3	1	UNK0	0.000	
30	   O	-1.486	4.347	-1.220	O.3	1	UNK0	0.000	
31	   C	-0.643	0.415	2.544	C.2	1	UNK0	0.000	
32	   O	-0.761	0.714	3.745	O.2	1	UNK0	0.000	
33	   H	-1.284	-1.124	-0.280	 H	1	UNK0	0.000	
34	   H	-0.366	-5.337	3.434	 H	1	UNK0	0.000	
35	   H	-0.910	-3.468	1.836	 H	1	UNK0	0.000	
36	   H	0.933	-0.692	4.479	 H	1	UNK0	0.000	
37	   H	1.468	-2.473	6.047	 H	1	UNK0	0.000	
38	   H	0.077	-2.101	0.479	 H	1	UNK0	0.000	
39	   H	-1.272	2.907	2.981	 H	1	UNK0	0.000	
40	   H	-1.644	4.643	1.289	 H	1	UNK0	0.000	
41	   H	-1.091	2.628	-2.813	 H	1	UNK0	0.000	
42	   H	-1.862	1.087	-2.413	 H	1	UNK0	0.000	
43	   H	-1.296	-0.404	-3.066	 H	1	UNK0	0.000	
44	   H	0.251	-1.033	-2.421	 H	1	UNK0	0.000	
45	   H	-0.396	-0.044	-5.274	 H	1	UNK0	0.000	
46	   H	-0.033	-1.703	-4.707	 H	1	UNK0	0.000	
47	   H	1.378	1.380	-5.796	 H	1	UNK0	0.000	
48	   H	2.774	1.299	-4.711	 H	1	UNK0	0.000	
49	   H	1.393	2.613	-3.395	 H	1	UNK0	0.000	
50	   H	-0.051	2.278	-4.342	 H	1	UNK0	0.000	
51	   H	2.185	-1.190	-2.876	 H	1	UNK0	0.000	
52	   H	3.515	-0.566	-4.001	 H	1	UNK0	0.000	
53	   H	2.648	-2.095	-4.362	 H	1	UNK0	0.000	
54	   H	-1.459	4.378	-2.194	 H	1	UNK0	0.000	
@<TRIPOS>BOND
1 1 2 1
2 1 3 1
3 1 4 1
4 1 5 1
5 6 7 1
6 7 8 2
7 7 12 1
8 8 9 1
9 9 10 2
10 10 11 1
11 10 13 1
12 11 12 2
13 13 14 2
14 13 31 1
15 14 15 1
16 15 16 1
17 16 17 2
18 16 21 1
19 17 18 1
20 17 31 1
21 18 19 2
22 19 20 1
23 20 21 2
24 20 30 1
25 21 22 1
26 22 23 1
27 23 24 1
28 23 28 1
29 24 25 1
30 25 26 1
31 26 27 1
32 26 29 1
33 27 28 1
34 31 32 2
35 5 33 1
36 8 34 1
37 9 35 1
38 11 36 1
39 12 37 1
40 14 38 1
41 18 39 1
42 19 40 1
43 22 41 1
44 22 42 1
45 24 43 1
46 24 44 1
47 25 45 1
48 25 46 1
49 27 47 1
50 27 48 1
51 28 49 1
52 28 50 1
53 29 51 1
54 29 52 1
55 29 53 1
56 30 54 1
@<TRIPOS>SUBSTRUCTURE
1	UNK0	1	GROUP	1 ****	UNK
