# created with PyMOL 2.3.2
@<TRIPOS>MOLECULE
1538
47 50 1                 
SMALL
USER_CHARGES
@<TRIPOS>ATOM
1	  Cl	-2.114	-3.490	3.398	Cl	1	UNK0	0.000	
2	   C	-2.569	-3.224	1.731	C.2	1	UNK0	0.000	
3	   C	-1.904	-2.238	1.048	C.2	1	UNK0	0.000	
4	   C	-2.271	-2.024	-0.290	C.2	1	UNK0	0.000	
5	   C	-3.262	-2.793	-0.857	C.2	1	UNK0	0.000	
6	   C	-3.919	-3.790	-0.127	C.2	1	UNK0	0.000	
7	   C	-3.555	-3.990	1.172	C.2	1	UNK0	0.000	
8	   N	-1.622	-1.020	-1.032	N.pl3	1	UNK0	0.000	
9	   C	-1.887	-0.671	-2.338	C.2	1	UNK0	0.000	
10	   O	-2.768	-1.204	-3.093	O.2	1	UNK0	0.000	
11	   C	-1.146	0.412	-3.047	C.3	1	UNK0	0.000	
12	   N	-0.112	1.055	-2.323	N.pl3	1	UNK0	0.000	
13	   C	-0.479	2.147	-1.594	C.2	1	UNK0	0.000	
14	   N	0.404	2.859	-0.880	N.2	1	UNK0	0.000	
15	   C	1.694	2.534	-0.846	C.2	1	UNK0	0.000	
16	   N	2.768	3.070	-0.221	N.pl3	1	UNK0	0.000	
17	   N	3.814	2.330	-0.545	N.2	1	UNK0	0.000	
18	   C	3.452	1.327	-1.363	C.2	1	UNK0	0.000	
19	   C	2.077	1.423	-1.585	C.2	1	UNK0	0.000	
20	   C	1.172	0.696	-2.314	C.2	1	UNK0	0.000	
21	   O	1.528	-0.305	-2.977	O.2	1	UNK0	0.000	
22	   C	2.721	4.255	0.643	C.3	1	UNK0	0.000	
23	   N	-0.895	-1.461	1.653	N.pl3	1	UNK0	0.000	
24	   C	0.497	-1.838	1.656	C.3	1	UNK0	0.000	
25	   C	1.359	-0.614	1.580	C.3	1	UNK0	0.000	
26	   O	1.058	0.242	2.644	O.3	1	UNK0	0.000	
27	   C	-0.186	0.812	2.368	C.3	1	UNK0	0.000	
28	   C	-1.258	-0.237	2.331	C.3	1	UNK0	0.000	
29	   H	-3.583	-2.668	-1.895	 H	1	UNK0	0.000	
30	   H	-4.690	-4.361	-0.632	 H	1	UNK0	0.000	
31	   H	-4.055	-4.754	1.740	 H	1	UNK0	0.000	
32	   H	-0.856	-0.485	-0.530	 H	1	UNK0	0.000	
33	   H	-1.864	1.196	-3.424	 H	1	UNK0	0.000	
34	   H	-0.678	0.012	-3.993	 H	1	UNK0	0.000	
35	   H	-1.517	2.483	-1.566	 H	1	UNK0	0.000	
36	   H	4.059	0.549	-1.808	 H	1	UNK0	0.000	
37	   H	2.235	4.008	1.621	 H	1	UNK0	0.000	
38	   H	2.113	5.063	0.179	 H	1	UNK0	0.000	
39	   H	3.743	4.595	0.857	 H	1	UNK0	0.000	
40	   H	0.726	-2.345	2.619	 H	1	UNK0	0.000	
41	   H	0.752	-2.534	0.832	 H	1	UNK0	0.000	
42	   H	1.148	-0.030	0.665	 H	1	UNK0	0.000	
43	   H	2.436	-0.874	1.545	 H	1	UNK0	0.000	
44	   H	-0.187	1.372	1.413	 H	1	UNK0	0.000	
45	   H	-0.432	1.517	3.190	 H	1	UNK0	0.000	
46	   H	-2.172	0.167	1.843	 H	1	UNK0	0.000	
47	   H	-1.465	-0.480	3.417	 H	1	UNK0	0.000	
@<TRIPOS>BOND
1 1 2 1
2 2 3 2
3 2 7 1
4 3 4 1
5 3 23 1
6 4 5 2
7 4 8 1
8 5 6 1
9 6 7 2
10 8 9 1
11 9 10 2
12 9 11 1
13 11 12 1
14 12 13 1
15 12 20 1
16 13 14 2
17 14 15 1
18 15 16 1
19 15 19 2
20 16 17 1
21 16 22 1
22 17 18 2
23 18 19 1
24 19 20 1
25 20 21 2
26 23 24 1
27 23 28 1
28 24 25 1
29 25 26 1
30 26 27 1
31 27 28 1
32 5 29 1
33 6 30 1
34 7 31 1
35 8 32 1
36 11 33 1
37 11 34 1
38 13 35 1
39 18 36 1
40 22 37 1
41 22 38 1
42 22 39 1
43 24 40 1
44 24 41 1
45 25 42 1
46 25 43 1
47 27 44 1
48 27 45 1
49 28 46 1
50 28 47 1
@<TRIPOS>SUBSTRUCTURE
1	UNK0	1	GROUP	1 ****	UNK
