# created with PyMOL 2.3.2
@<TRIPOS>MOLECULE
1540
62 66 1                 
SMALL
USER_CHARGES
@<TRIPOS>ATOM
1	  Cl	-3.331	-1.673	5.238	Cl	1	UNK0	0.000	
2	   C	-2.960	-0.757	3.799	C.2	1	UNK0	0.000	
3	   C	-1.960	-1.167	2.950	C.2	1	UNK0	0.000	
4	   C	-1.643	-0.461	1.801	C.2	1	UNK0	0.000	
5	   C	-2.296	0.684	1.435	C.2	1	UNK0	0.000	
6	   C	-3.317	1.086	2.318	C.2	1	UNK0	0.000	
7	   C	-3.640	0.392	3.461	C.2	1	UNK0	0.000	
8	   C	-2.059	1.528	0.301	C.3	1	UNK0	0.000	
9	   N	-0.819	2.180	0.081	N.pl3	1	UNK0	0.000	
10	   C	-1.034	2.875	-1.197	C.2	1	UNK0	0.000	
11	   O	-0.505	3.945	-1.588	O.2	1	UNK0	0.000	
12	   C	-1.993	2.069	-1.934	C.2	1	UNK0	0.000	
13	   O	-2.504	2.226	-3.077	O.2	1	UNK0	0.000	
14	   C	-2.311	0.920	-1.053	C.2	1	UNK0	0.000	
15	   C	-2.756	-0.262	-1.400	C.2	1	UNK0	0.000	
16	   O	-3.086	-1.190	-0.391	O.2	1	UNK0	0.000	
17	   C	-2.903	-0.627	-2.810	C.2	1	UNK0	0.000	
18	   N	-1.998	-0.577	-3.789	N.pl3	1	UNK0	0.000	
19	   C	-2.583	-0.967	-4.930	C.2	1	UNK0	0.000	
20	   N	-3.862	-1.256	-4.635	N.2	1	UNK0	0.000	
21	   C	-4.093	-1.058	-3.335	C.2	1	UNK0	0.000	
22	   C	-5.391	-1.263	-2.592	C.3	1	UNK0	0.000	
23	   C	-1.883	-1.033	-6.143	C.2	1	UNK0	0.000	
24	   C	-0.554	-0.694	-6.187	C.2	1	UNK0	0.000	
25	   C	0.014	-0.300	-4.992	C.2	1	UNK0	0.000	
26	   C	-0.675	-0.238	-3.818	C.2	1	UNK0	0.000	
27	   C	0.412	2.388	0.770	C.3	1	UNK0	0.000	
28	   C	1.613	1.649	0.329	C.3	1	UNK0	0.000	
29	   C	1.601	0.170	0.322	C.3	1	UNK0	0.000	
30	   N	2.880	-0.389	-0.115	N.4	1	UNK0	0.000	
31	   C	2.750	-1.724	-0.607	C.3	1	UNK0	0.000	
32	   C	2.421	-2.741	0.436	C.3	1	UNK0	0.000	
33	   O	3.381	-2.708	1.427	O.3	1	UNK0	0.000	
34	   C	3.573	-1.463	1.979	C.3	1	UNK0	0.000	
35	   C	3.855	-0.395	0.960	C.3	1	UNK0	0.000	
36	   H	-1.420	-2.066	3.204	 H	1	UNK0	0.000	
37	   H	-0.871	-0.808	1.134	 H	1	UNK0	0.000	
38	   H	-3.893	1.999	2.095	 H	1	UNK0	0.000	
39	   H	-4.437	0.726	4.130	 H	1	UNK0	0.000	
40	   H	-2.829	2.390	0.320	 H	1	UNK0	0.000	
41	   H	-5.376	-2.201	-2.008	 H	1	UNK0	0.000	
42	   H	-5.424	-0.410	-1.856	 H	1	UNK0	0.000	
43	   H	-6.258	-1.140	-3.240	 H	1	UNK0	0.000	
44	   H	-2.428	-1.357	-7.026	 H	1	UNK0	0.000	
45	   H	-0.005	-0.743	-7.123	 H	1	UNK0	0.000	
46	   H	1.071	-0.028	-5.014	 H	1	UNK0	0.000	
47	   H	-0.208	0.063	-2.913	 H	1	UNK0	0.000	
48	   H	0.266	2.298	1.887	 H	1	UNK0	0.000	
49	   H	0.667	3.493	0.669	 H	1	UNK0	0.000	
50	   H	2.556	2.052	0.831	 H	1	UNK0	0.000	
51	   H	1.790	1.971	-0.757	 H	1	UNK0	0.000	
52	   H	0.783	-0.204	-0.336	 H	1	UNK0	0.000	
53	   H	1.414	-0.213	1.336	 H	1	UNK0	0.000	
54	   H	3.229	0.211	-0.882	 H	1	UNK0	0.000	
55	   H	3.738	-2.008	-1.046	 H	1	UNK0	0.000	
56	   H	2.020	-1.828	-1.431	 H	1	UNK0	0.000	
57	   H	2.513	-3.751	-0.055	 H	1	UNK0	0.000	
58	   H	1.391	-2.691	0.815	 H	1	UNK0	0.000	
59	   H	2.724	-1.218	2.645	 H	1	UNK0	0.000	
60	   H	4.496	-1.539	2.621	 H	1	UNK0	0.000	
61	   H	4.841	-0.613	0.502	 H	1	UNK0	0.000	
62	   H	3.870	0.580	1.504	 H	1	UNK0	0.000	
@<TRIPOS>BOND
1 1 2 1
2 2 3 2
3 2 7 1
4 3 4 1
5 4 5 2
6 5 6 1
7 5 8 1
8 6 7 2
9 8 9 1
10 8 14 1
11 9 10 1
12 9 27 1
13 10 11 2
14 10 12 1
15 12 13 2
16 12 14 1
17 14 15 2
18 15 16 1
19 15 17 1
20 17 18 1
21 17 21 2
22 18 19 1
23 18 26 1
24 19 20 2
25 19 23 1
26 20 21 1
27 21 22 1
28 23 24 2
29 24 25 1
30 25 26 2
31 27 28 1
32 28 29 1
33 29 30 1
34 30 31 1
35 30 35 1
36 31 32 1
37 32 33 1
38 33 34 1
39 34 35 1
40 3 36 1
41 4 37 1
42 6 38 1
43 7 39 1
44 8 40 1
45 22 41 1
46 22 42 1
47 22 43 1
48 23 44 1
49 24 45 1
50 25 46 1
51 26 47 1
52 27 48 1
53 27 49 1
54 28 50 1
55 28 51 1
56 29 52 1
57 29 53 1
58 30 54 1
59 31 55 1
60 31 56 1
61 32 57 1
62 32 58 1
63 34 59 1
64 34 60 1
65 35 61 1
66 35 62 1
@<TRIPOS>SUBSTRUCTURE
1	UNK0	1	GROUP	1 ****	UNK
