# created with PyMOL 2.3.2
@<TRIPOS>MOLECULE
1541
62 65 1                 
SMALL
USER_CHARGES
@<TRIPOS>ATOM
1	  Cl	2.907	-7.256	4.247	Cl	1	UNK0	0.000	
2	   C	1.934	-5.829	3.960	C.2	1	UNK0	0.000	
3	   C	2.216	-4.655	4.643	C.2	1	UNK0	0.000	
4	   C	1.439	-3.562	4.397	C.2	1	UNK0	0.000	
5	   C	0.375	-3.545	3.500	C.2	1	UNK0	0.000	
6	   C	0.107	-4.706	2.834	C.2	1	UNK0	0.000	
7	   C	0.885	-5.838	3.066	C.2	1	UNK0	0.000	
8	   N	-0.360	-2.355	3.333	N.pl3	1	UNK0	0.000	
9	   C	-1.402	-2.122	2.428	C.2	1	UNK0	0.000	
10	   O	-1.803	-2.984	1.641	O.2	1	UNK0	0.000	
11	   C	-2.075	-0.812	2.379	C.2	1	UNK0	0.000	
12	   N	-3.075	-0.439	1.573	N.2	1	UNK0	0.000	
13	   C	-3.398	0.835	1.851	C.2	1	UNK0	0.000	
14	   O	-2.609	1.238	2.815	O.3	1	UNK0	0.000	
15	   C	-1.787	0.278	3.172	C.2	1	UNK0	0.000	
16	   C	-4.451	1.651	1.201	C.3	1	UNK0	0.000	
17	   N	-3.917	2.391	0.111	N.3	1	UNK0	0.000	
18	   C	-2.872	3.310	0.433	C.3	1	UNK0	0.000	
19	   C	-2.499	4.152	-0.770	C.3	1	UNK0	0.000	
20	   N	-2.068	3.335	-1.900	N.3	1	UNK0	0.000	
21	   C	-3.111	2.408	-2.176	C.3	1	UNK0	0.000	
22	   C	-3.461	1.550	-0.960	C.3	1	UNK0	0.000	
23	   C	-0.772	2.782	-1.634	C.3	1	UNK0	0.000	
24	   C	-0.218	1.933	-2.726	C.3	1	UNK0	0.000	
25	   O	-0.965	0.800	-3.021	O.3	1	UNK0	0.000	
26	   C	1.265	1.691	-2.653	C.3	1	UNK0	0.000	
27	   N	1.694	0.784	-1.732	N.3	1	UNK0	0.000	
28	   C	1.663	0.962	-0.348	C.3	1	UNK0	0.000	
29	   C	0.720	-0.148	0.149	C.3	1	UNK0	0.000	
30	   O	1.390	-1.333	-0.018	O.3	1	UNK0	0.000	
31	   C	1.828	-1.614	-1.276	C.3	1	UNK0	0.000	
32	   C	2.212	-0.470	-2.137	C.3	1	UNK0	0.000	
33	   H	3.023	-4.584	5.355	 H	1	UNK0	0.000	
34	   H	1.665	-2.647	4.934	 H	1	UNK0	0.000	
35	   H	-0.687	-4.794	2.130	 H	1	UNK0	0.000	
36	   H	0.635	-6.730	2.516	 H	1	UNK0	0.000	
37	   H	-0.109	-1.529	3.958	 H	1	UNK0	0.000	
38	   H	-1.024	0.290	3.927	 H	1	UNK0	0.000	
39	   H	-5.292	0.999	0.845	 H	1	UNK0	0.000	
40	   H	-4.853	2.366	1.964	 H	1	UNK0	0.000	
41	   H	-3.236	3.970	1.243	 H	1	UNK0	0.000	
42	   H	-1.955	2.820	0.829	 H	1	UNK0	0.000	
43	   H	-3.387	4.742	-1.054	 H	1	UNK0	0.000	
44	   H	-1.691	4.869	-0.490	 H	1	UNK0	0.000	
45	   H	-3.025	1.804	-3.073	 H	1	UNK0	0.000	
46	   H	-4.048	3.032	-2.331	 H	1	UNK0	0.000	
47	   H	-2.540	1.003	-0.687	 H	1	UNK0	0.000	
48	   H	-4.255	0.821	-1.212	 H	1	UNK0	0.000	
49	   H	-0.768	2.175	-0.699	 H	1	UNK0	0.000	
50	   H	-0.082	3.630	-1.454	 H	1	UNK0	0.000	
51	   H	-0.331	2.560	-3.695	 H	1	UNK0	0.000	
52	   H	-0.534	0.371	-3.801	 H	1	UNK0	0.000	
53	   H	1.697	2.716	-2.407	 H	1	UNK0	0.000	
54	   H	1.660	1.514	-3.694	 H	1	UNK0	0.000	
55	   H	2.689	0.671	0.063	 H	1	UNK0	0.000	
56	   H	1.435	1.939	0.059	 H	1	UNK0	0.000	
57	   H	-0.162	-0.124	-0.524	 H	1	UNK0	0.000	
58	   H	0.435	-0.003	1.185	 H	1	UNK0	0.000	
59	   H	1.018	-2.228	-1.772	 H	1	UNK0	0.000	
60	   H	2.688	-2.312	-1.192	 H	1	UNK0	0.000	
61	   H	1.856	-0.657	-3.193	 H	1	UNK0	0.000	
62	   H	3.325	-0.380	-2.231	 H	1	UNK0	0.000	
@<TRIPOS>BOND
1 1 2 1
2 2 3 2
3 2 7 1
4 3 4 1
5 4 5 2
6 5 6 1
7 5 8 1
8 6 7 2
9 8 9 1
10 9 10 2
11 9 11 1
12 11 12 1
13 11 15 2
14 12 13 2
15 13 14 1
16 13 16 1
17 14 15 1
18 16 17 1
19 17 18 1
20 17 22 1
21 18 19 1
22 19 20 1
23 20 21 1
24 20 23 1
25 21 22 1
26 23 24 1
27 24 25 1
28 24 26 1
29 26 27 1
30 27 28 1
31 27 32 1
32 28 29 1
33 29 30 1
34 30 31 1
35 31 32 1
36 3 33 1
37 4 34 1
38 6 35 1
39 7 36 1
40 8 37 1
41 15 38 1
42 16 39 1
43 16 40 1
44 18 41 1
45 18 42 1
46 19 43 1
47 19 44 1
48 21 45 1
49 21 46 1
50 22 47 1
51 22 48 1
52 23 49 1
53 23 50 1
54 24 51 1
55 25 52 1
56 26 53 1
57 26 54 1
58 28 55 1
59 28 56 1
60 29 57 1
61 29 58 1
62 31 59 1
63 31 60 1
64 32 61 1
65 32 62 1
@<TRIPOS>SUBSTRUCTURE
1	UNK0	1	GROUP	1 ****	UNK
