# created with PyMOL 2.3.2
@<TRIPOS>MOLECULE
1546
47 49 1                 
SMALL
USER_CHARGES
@<TRIPOS>ATOM
1	  Cl	5.699	2.039	-2.331	Cl	1	UNK0	0.000	
2	   C	4.214	1.923	-1.414	C.2	1	UNK0	0.000	
3	   C	3.316	0.870	-1.602	C.2	1	UNK0	0.000	
4	   C	2.149	0.751	-0.903	C.2	1	UNK0	0.000	
5	   C	1.836	1.720	0.041	C.2	1	UNK0	0.000	
6	   C	2.729	2.767	0.228	C.2	1	UNK0	0.000	
7	   C	3.897	2.876	-0.479	C.2	1	UNK0	0.000	
8	   O	0.735	1.625	0.713	O.3	1	UNK0	0.000	
9	   C	-0.164	0.655	0.589	C.2	1	UNK0	0.000	
10	   C	0.074	-0.324	-0.313	C.2	1	UNK0	0.000	
11	   C	1.251	-0.272	-1.069	C.2	1	UNK0	0.000	
12	   O	1.495	-1.169	-1.912	O.2	1	UNK0	0.000	
13	   C	-1.328	0.768	1.461	C.2	1	UNK0	0.000	
14	   C	-2.373	-0.117	1.498	C.2	1	UNK0	0.000	
15	   C	-3.471	0.028	2.351	C.2	1	UNK0	0.000	
16	   C	-3.537	1.093	3.200	C.2	1	UNK0	0.000	
17	   C	-2.508	2.004	3.192	C.2	1	UNK0	0.000	
18	   C	-1.437	1.844	2.347	C.2	1	UNK0	0.000	
19	   C	-2.565	3.140	4.090	C.2	1	UNK0	0.000	
20	   O	-1.632	3.981	4.094	O.co2	1	UNK0	0.000	
21	   O	-3.623	3.353	4.966	O.co2	1	UNK0	0.000	
22	   C	-4.523	-1.024	2.268	C.3	1	UNK0	0.000	
23	   O	-4.716	-1.296	0.919	O.3	1	UNK0	0.000	
24	   C	-3.592	-1.851	0.325	C.3	1	UNK0	0.000	
25	   O	-2.401	-1.215	0.689	O.3	1	UNK0	0.000	
26	   N	-1.537	0.605	-0.103	N.4	1	UNK0	0.000	
27	   C	-1.403	-0.848	-0.244	C.3	1	UNK0	0.000	
28	   C	-1.267	-1.169	-1.706	C.3	1	UNK0	0.000	
29	   O	-2.437	-0.697	-2.335	O.3	1	UNK0	0.000	
30	   H	3.561	0.116	-2.338	 H	1	UNK0	0.000	
31	   H	2.456	3.514	0.977	 H	1	UNK0	0.000	
32	   H	4.545	3.728	-0.274	 H	1	UNK0	0.000	
33	   H	-0.611	-1.122	-0.452	 H	1	UNK0	0.000	
34	   H	-4.399	1.183	3.851	 H	1	UNK0	0.000	
35	   H	-0.638	2.580	2.363	 H	1	UNK0	0.000	
36	   H	-4.121	-1.910	2.812	 H	1	UNK0	0.000	
37	   H	-5.491	-0.676	2.673	 H	1	UNK0	0.000	
38	   H	-3.770	-1.863	-0.775	 H	1	UNK0	0.000	
39	   H	-3.530	-2.921	0.674	 H	1	UNK0	0.000	
40	   H	-1.885	0.775	0.851	 H	1	UNK0	0.000	
41	   H	-2.188	0.923	-0.834	 H	1	UNK0	0.000	
42	   H	-0.594	1.051	-0.183	 H	1	UNK0	0.000	
43	   H	-2.338	-1.276	0.173	 H	1	UNK0	0.000	
44	   H	-0.490	-1.200	0.270	 H	1	UNK0	0.000	
45	   H	-1.120	-2.239	-1.875	 H	1	UNK0	0.000	
46	   H	-0.377	-0.620	-2.088	 H	1	UNK0	0.000	
47	   H	-2.881	-1.451	-2.782	 H	1	UNK0	0.000	
@<TRIPOS>BOND
1 1 2 1
2 2 3 2
3 2 7 1
4 3 4 1
5 4 5 2
6 4 11 1
7 5 6 1
8 5 8 1
9 6 7 2
10 8 9 1
11 9 10 2
12 9 13 1
13 10 11 1
14 11 12 2
15 13 14 2
16 13 18 1
17 14 15 1
18 14 25 1
19 15 16 2
20 15 22 1
21 16 17 1
22 17 18 2
23 17 19 1
24 19 20 2
25 19 21 1
26 22 23 1
27 23 24 1
28 24 25 1
29 26 27 1
30 27 28 1
31 28 29 1
32 3 30 1
33 6 31 1
34 7 32 1
35 10 33 1
36 16 34 1
37 18 35 1
38 22 36 1
39 22 37 1
40 24 38 1
41 24 39 1
42 26 40 1
43 26 41 1
44 26 42 1
45 27 43 1
46 27 44 1
47 28 45 1
48 28 46 1
49 29 47 1
@<TRIPOS>SUBSTRUCTURE
1	UNK0	1	GROUP	1 ****	UNK
