# created with PyMOL 2.3.2
@<TRIPOS>MOLECULE
1547
41 44 1                 
SMALL
USER_CHARGES
@<TRIPOS>ATOM
1	  Cl	-6.930	3.222	2.800	Cl	1	UNK0	0.000	
2	   C	-5.582	2.146	2.517	C.2	1	UNK0	0.000	
3	   C	-4.343	2.618	2.097	C.2	1	UNK0	0.000	
4	   N	-3.315	1.802	1.880	N.pl3	1	UNK0	0.000	
5	   C	-3.396	0.472	2.051	C.2	1	UNK0	0.000	
6	   N	-2.317	-0.324	1.817	N.2	1	UNK0	0.000	
7	   C	-1.143	0.198	1.410	C.2	1	UNK0	0.000	
8	   C	-1.035	1.561	1.229	C.2	1	UNK0	0.000	
9	   C	-2.138	2.352	1.470	C.2	1	UNK0	0.000	
10	   O	-2.062	3.579	1.312	O.2	1	UNK0	0.000	
11	   C	0.064	-0.627	1.142	C.3	1	UNK0	0.000	
12	   N	0.216	-1.100	-0.137	N.3	1	UNK0	0.000	
13	   C	0.318	-0.265	-1.243	C.3	1	UNK0	0.000	
14	   C	-0.683	-0.889	-2.208	C.3	1	UNK0	0.000	
15	   C	-0.924	-2.296	-1.696	C.3	1	UNK0	0.000	
16	   C	-0.033	-2.431	-0.476	C.3	1	UNK0	0.000	
17	   C	1.660	-0.265	-1.937	C.3	1	UNK0	0.000	
18	   N	2.724	0.161	-1.032	N.pl3	1	UNK0	0.000	
19	   N	3.172	1.375	-0.812	N.2	1	UNK0	0.000	
20	   C	4.159	1.349	0.092	C.2	1	UNK0	0.000	
21	   N	4.327	0.064	0.444	N.2	1	UNK0	0.000	
22	   C	3.438	-0.662	-0.254	C.2	1	UNK0	0.000	
23	   C	-4.608	-0.030	2.467	C.2	1	UNK0	0.000	
24	   C	-5.704	0.778	2.704	C.2	1	UNK0	0.000	
25	   H	-4.253	3.682	1.953	 H	1	UNK0	0.000	
26	   H	-0.133	2.061	0.905	 H	1	UNK0	0.000	
27	   H	0.939	-0.026	1.465	 H	1	UNK0	0.000	
28	   H	0.041	-1.497	1.862	 H	1	UNK0	0.000	
29	   H	0.015	0.783	-1.119	 H	1	UNK0	0.000	
30	   H	-1.666	-0.343	-2.125	 H	1	UNK0	0.000	
31	   H	-0.313	-0.896	-3.238	 H	1	UNK0	0.000	
32	   H	-0.673	-3.049	-2.469	 H	1	UNK0	0.000	
33	   H	-1.983	-2.451	-1.379	 H	1	UNK0	0.000	
34	   H	0.889	-2.990	-0.802	 H	1	UNK0	0.000	
35	   H	-0.511	-3.009	0.335	 H	1	UNK0	0.000	
36	   H	1.884	-1.243	-2.410	 H	1	UNK0	0.000	
37	   H	1.635	0.486	-2.752	 H	1	UNK0	0.000	
38	   H	4.722	2.221	0.471	 H	1	UNK0	0.000	
39	   H	3.356	-1.753	-0.160	 H	1	UNK0	0.000	
40	   H	-4.683	-1.095	2.606	 H	1	UNK0	0.000	
41	   H	-6.665	0.360	3.036	 H	1	UNK0	0.000	
@<TRIPOS>BOND
1 1 2 1
2 2 3 2
3 2 24 1
4 3 4 1
5 4 5 1
6 4 9 1
7 5 6 2
8 5 23 1
9 6 7 1
10 7 8 2
11 7 11 1
12 8 9 1
13 9 10 2
14 11 12 1
15 12 13 1
16 12 16 1
17 13 14 1
18 13 17 1
19 14 15 1
20 15 16 1
21 17 18 1
22 18 19 1
23 18 22 1
24 19 20 2
25 20 21 1
26 21 22 2
27 23 24 2
28 3 25 1
29 8 26 1
30 11 27 1
31 11 28 1
32 13 29 1
33 14 30 1
34 14 31 1
35 15 32 1
36 15 33 1
37 16 34 1
38 16 35 1
39 17 36 1
40 17 37 1
41 20 38 1
42 22 39 1
43 23 40 1
44 24 41 1
@<TRIPOS>SUBSTRUCTURE
1	UNK0	1	GROUP	1 ****	UNK
