# created with PyMOL 2.3.2
@<TRIPOS>MOLECULE
1549
48 51 1                 
SMALL
USER_CHARGES
@<TRIPOS>ATOM
1	  Cl	-1.787	0.489	7.027	Cl	1	UNK0	0.000	
2	   C	-1.379	-0.241	5.477	C.2	1	UNK0	0.000	
3	   C	-2.303	-0.271	4.456	C.2	1	UNK0	0.000	
4	   C	-1.988	-0.842	3.241	C.2	1	UNK0	0.000	
5	   C	-0.749	-1.411	2.973	C.2	1	UNK0	0.000	
6	   C	0.164	-1.375	4.001	C.2	1	UNK0	0.000	
7	   C	-0.142	-0.797	5.242	C.2	1	UNK0	0.000	
8	   C	-0.450	-2.004	1.677	C.2	1	UNK0	0.000	
9	   N	0.662	-2.603	1.215	N.pl3	1	UNK0	0.000	
10	   C	0.493	-3.003	-0.045	C.2	1	UNK0	0.000	
11	   N	-0.766	-2.657	-0.422	N.pl3	1	UNK0	0.000	
12	   C	-1.348	-2.047	0.623	C.2	1	UNK0	0.000	
13	   C	-1.330	-2.921	-1.726	C.3	1	UNK0	0.000	
14	   C	-1.061	-1.780	-2.664	C.2	1	UNK0	0.000	
15	   O	-1.482	-1.846	-3.835	O.2	1	UNK0	0.000	
16	   N	-0.342	-0.647	-2.224	N.pl3	1	UNK0	0.000	
17	   C	-0.008	0.498	-2.968	C.2	1	UNK0	0.000	
18	   C	0.716	1.528	-2.356	C.2	1	UNK0	0.000	
19	   C	1.071	2.656	-3.014	C.2	1	UNK0	0.000	
20	   C	0.728	2.840	-4.335	C.2	1	UNK0	0.000	
21	   C	0.019	1.866	-4.987	C.2	1	UNK0	0.000	
22	   C	-0.331	0.715	-4.282	C.2	1	UNK0	0.000	
23	   O	1.084	1.385	-1.025	O.3	1	UNK0	0.000	
24	   C	1.815	2.388	-0.350	C.3	1	UNK0	0.000	
25	   C	1.721	-3.674	-0.587	C.3	1	UNK0	0.000	
26	   C	2.643	-3.716	0.578	C.3	1	UNK0	0.000	
27	   C	1.992	-2.939	1.698	C.3	1	UNK0	0.000	
28	   H	-3.282	0.171	4.649	 H	1	UNK0	0.000	
29	   H	-2.737	-0.850	2.457	 H	1	UNK0	0.000	
30	   H	1.147	-1.798	3.862	 H	1	UNK0	0.000	
31	   H	0.599	-0.785	6.031	 H	1	UNK0	0.000	
32	   H	-2.364	-1.647	0.648	 H	1	UNK0	0.000	
33	   H	-0.933	-3.862	-2.133	 H	1	UNK0	0.000	
34	   H	-2.425	-3.020	-1.650	 H	1	UNK0	0.000	
35	   H	-0.009	-0.660	-1.196	 H	1	UNK0	0.000	
36	   H	1.635	3.432	-2.495	 H	1	UNK0	0.000	
37	   H	1.024	3.753	-4.840	 H	1	UNK0	0.000	
38	   H	-0.243	2.021	-6.018	 H	1	UNK0	0.000	
39	   H	-0.887	-0.008	-4.855	 H	1	UNK0	0.000	
40	   H	1.197	3.272	-0.150	 H	1	UNK0	0.000	
41	   H	2.727	2.705	-0.933	 H	1	UNK0	0.000	
42	   H	2.192	1.936	0.594	 H	1	UNK0	0.000	
43	   H	2.165	-3.047	-1.411	 H	1	UNK0	0.000	
44	   H	1.490	-4.651	-1.032	 H	1	UNK0	0.000	
45	   H	2.896	-4.756	0.895	 H	1	UNK0	0.000	
46	   H	3.605	-3.176	0.332	 H	1	UNK0	0.000	
47	   H	2.561	-2.034	1.968	 H	1	UNK0	0.000	
48	   H	1.960	-3.618	2.592	 H	1	UNK0	0.000	
@<TRIPOS>BOND
1 1 2 1
2 2 3 2
3 2 7 1
4 3 4 1
5 4 5 2
6 5 6 1
7 5 8 1
8 6 7 2
9 8 9 1
10 8 12 2
11 9 10 1
12 9 27 1
13 10 11 2
14 10 25 1
15 11 12 1
16 11 13 1
17 13 14 1
18 14 15 2
19 14 16 1
20 16 17 1
21 17 18 2
22 17 22 1
23 18 19 1
24 18 23 1
25 19 20 2
26 20 21 1
27 21 22 2
28 23 24 1
29 25 26 1
30 26 27 1
31 3 28 1
32 4 29 1
33 6 30 1
34 7 31 1
35 12 32 1
36 13 33 1
37 13 34 1
38 16 35 1
39 19 36 1
40 20 37 1
41 21 38 1
42 22 39 1
43 24 40 1
44 24 41 1
45 24 42 1
46 25 43 1
47 25 44 1
48 26 45 1
49 26 46 1
50 27 47 1
51 27 48 1
@<TRIPOS>SUBSTRUCTURE
1	UNK0	1	GROUP	1 ****	UNK
