# created with PyMOL 2.3.2
@<TRIPOS>MOLECULE
1550
55 58 1                 
SMALL
USER_CHARGES
@<TRIPOS>ATOM
1	  Cl	-0.633	4.157	4.032	Cl	1	UNK0	0.000	
2	   C	0.608	3.952	2.814	C.2	1	UNK0	0.000	
3	   C	0.853	2.722	2.242	C.2	1	UNK0	0.000	
4	   C	1.825	2.542	1.282	C.2	1	UNK0	0.000	
5	   C	2.548	3.667	0.919	C.2	1	UNK0	0.000	
6	   N	3.498	3.501	-0.017	N.2	1	UNK0	0.000	
7	   C	3.737	2.299	-0.575	C.2	1	UNK0	0.000	
8	   C	3.040	1.164	-0.239	C.2	1	UNK0	0.000	
9	   C	2.052	1.292	0.721	C.2	1	UNK0	0.000	
10	   N	1.307	0.158	1.103	N.pl3	1	UNK0	0.000	
11	   C	0.093	-0.226	0.453	C.2	1	UNK0	0.000	
12	   C	-0.603	-1.342	0.862	C.2	1	UNK0	0.000	
13	   C	-1.794	-1.726	0.230	C.2	1	UNK0	0.000	
14	   C	-2.313	-1.005	-0.818	C.2	1	UNK0	0.000	
15	   C	-1.603	0.129	-1.229	C.2	1	UNK0	0.000	
16	   C	-0.433	0.493	-0.599	C.2	1	UNK0	0.000	
17	   N	-3.498	-1.341	-1.490	N.4	1	UNK0	0.000	
18	   C	-4.175	-2.508	-1.044	C.3	1	UNK0	0.000	
19	   C	-3.693	-3.816	-1.561	C.3	1	UNK0	0.000	
20	   O	-3.236	-3.832	-2.854	O.3	1	UNK0	0.000	
21	   C	-2.538	-2.690	-3.221	C.3	1	UNK0	0.000	
22	   C	-3.326	-1.432	-2.932	C.3	1	UNK0	0.000	
23	   C	3.309	-0.131	-0.851	C.2	1	UNK0	0.000	
24	   O	4.206	-0.246	-1.722	O.co2	1	UNK0	0.000	
25	   O	2.599	-1.263	-0.500	O.3	1	UNK0	0.000	
26	   C	2.853	-2.536	-1.092	C.3	1	UNK0	0.000	
27	   C	1.913	-3.525	-0.485	C.3	1	UNK0	0.000	
28	   C	2.328	4.902	1.468	C.2	1	UNK0	0.000	
29	   C	1.354	5.071	2.426	C.2	1	UNK0	0.000	
30	   C	3.116	6.109	1.067	C.3	1	UNK0	0.000	
31	   H	0.261	1.879	2.561	 H	1	UNK0	0.000	
32	   H	4.518	2.184	-1.339	 H	1	UNK0	0.000	
33	   H	1.657	-0.415	1.884	 H	1	UNK0	0.000	
34	   H	-0.226	-1.923	1.673	 H	1	UNK0	0.000	
35	   H	-2.328	-2.607	0.572	 H	1	UNK0	0.000	
36	   H	-2.010	0.712	-2.064	 H	1	UNK0	0.000	
37	   H	0.113	1.370	-0.919	 H	1	UNK0	0.000	
38	   H	-4.165	-0.531	-1.344	 H	1	UNK0	0.000	
39	   H	-5.246	-2.395	-1.407	 H	1	UNK0	0.000	
40	   H	-4.282	-2.582	0.056	 H	1	UNK0	0.000	
41	   H	-2.990	-4.361	-0.862	 H	1	UNK0	0.000	
42	   H	-4.589	-4.516	-1.562	 H	1	UNK0	0.000	
43	   H	-2.403	-2.734	-4.322	 H	1	UNK0	0.000	
44	   H	-1.523	-2.640	-2.780	 H	1	UNK0	0.000	
45	   H	-2.829	-0.581	-3.390	 H	1	UNK0	0.000	
46	   H	-4.351	-1.614	-3.348	 H	1	UNK0	0.000	
47	   H	2.726	-2.455	-2.184	 H	1	UNK0	0.000	
48	   H	3.895	-2.855	-0.898	 H	1	UNK0	0.000	
49	   H	2.444	-4.506	-0.344	 H	1	UNK0	0.000	
50	   H	1.021	-3.665	-1.114	 H	1	UNK0	0.000	
51	   H	1.572	-3.233	0.540	 H	1	UNK0	0.000	
52	   H	1.165	6.041	2.874	 H	1	UNK0	0.000	
53	   H	3.019	6.904	1.809	 H	1	UNK0	0.000	
54	   H	4.191	5.804	1.052	 H	1	UNK0	0.000	
55	   H	2.806	6.406	0.041	 H	1	UNK0	0.000	
@<TRIPOS>BOND
1 1 2 1
2 2 3 2
3 2 29 1
4 3 4 1
5 4 5 2
6 4 9 1
7 5 6 1
8 5 28 1
9 6 7 2
10 7 8 1
11 8 9 2
12 8 23 1
13 9 10 1
14 10 11 1
15 11 12 2
16 11 16 1
17 12 13 1
18 13 14 2
19 14 15 1
20 14 17 1
21 15 16 2
22 17 18 1
23 17 22 1
24 18 19 1
25 19 20 1
26 20 21 1
27 21 22 1
28 23 24 2
29 23 25 1
30 25 26 1
31 26 27 1
32 28 29 2
33 28 30 1
34 3 31 1
35 7 32 1
36 10 33 1
37 12 34 1
38 13 35 1
39 15 36 1
40 16 37 1
41 17 38 1
42 18 39 1
43 18 40 1
44 19 41 1
45 19 42 1
46 21 43 1
47 21 44 1
48 22 45 1
49 22 46 1
50 26 47 1
51 26 48 1
52 27 49 1
53 27 50 1
54 27 51 1
55 29 52 1
56 30 53 1
57 30 54 1
58 30 55 1
@<TRIPOS>SUBSTRUCTURE
1	UNK0	1	GROUP	1 ****	UNK
