# created with PyMOL 2.3.2
@<TRIPOS>MOLECULE
1551
45 47 1                 
SMALL
USER_CHARGES
@<TRIPOS>ATOM
1	  Cl	3.513	6.514	-2.375	Cl	1	UNK0	0.000	
2	   C	3.359	4.865	-1.786	C.2	1	UNK0	0.000	
3	   C	4.432	4.197	-1.229	C.2	1	UNK0	0.000	
4	   N	4.273	2.942	-0.792	N.2	1	UNK0	0.000	
5	   C	3.077	2.277	-0.872	C.2	1	UNK0	0.000	
6	   C	1.985	2.894	-1.417	C.2	1	UNK0	0.000	
7	   C	2.164	4.215	-1.873	C.2	1	UNK0	0.000	
8	   C	0.691	2.261	-1.582	C.2	1	UNK0	0.000	
9	   O	-0.237	3.104	-1.972	O.2	1	UNK0	0.000	
10	   N	0.230	0.963	-1.419	N.pl3	1	UNK0	0.000	
11	   C	0.947	-0.186	-1.050	C.3	1	UNK0	0.000	
12	   C	1.046	-0.493	0.410	C.3	1	UNK0	0.000	
13	   N	-0.287	-0.795	1.003	N.pl3	1	UNK0	0.000	
14	   C	-1.429	0.011	0.648	C.3	1	UNK0	0.000	
15	   C	-1.763	-0.347	-0.784	C.3	1	UNK0	0.000	
16	   C	-1.229	0.775	-1.657	C.3	1	UNK0	0.000	
17	   C	-1.111	-1.658	-1.190	C.3	1	UNK0	0.000	
18	   C	0.281	-1.414	-1.703	C.3	1	UNK0	0.000	
19	   C	-0.341	-1.863	1.901	C.2	1	UNK0	0.000	
20	   O	0.812	-2.428	2.124	O.2	1	UNK0	0.000	
21	   N	-1.406	-2.426	2.592	N.pl3	1	UNK0	0.000	
22	   C	-1.089	-3.561	3.506	C.3	1	UNK0	0.000	
23	   C	-2.796	-2.086	2.553	C.3	1	UNK0	0.000	
24	   O	5.643	4.867	-1.146	O.3	1	UNK0	0.000	
25	   H	3.037	1.274	-0.472	 H	1	UNK0	0.000	
26	   H	1.290	4.723	-2.315	 H	1	UNK0	0.000	
27	   H	1.969	-0.204	-1.517	 H	1	UNK0	0.000	
28	   H	1.506	0.308	1.021	 H	1	UNK0	0.000	
29	   H	1.651	-1.415	0.525	 H	1	UNK0	0.000	
30	   H	-1.055	1.094	0.693	 H	1	UNK0	0.000	
31	   H	-2.270	-0.008	1.326	 H	1	UNK0	0.000	
32	   H	-2.846	-0.443	-0.902	 H	1	UNK0	0.000	
33	   H	-1.460	0.592	-2.700	 H	1	UNK0	0.000	
34	   H	-1.701	1.722	-1.342	 H	1	UNK0	0.000	
35	   H	-1.712	-2.069	-2.023	 H	1	UNK0	0.000	
36	   H	-1.115	-2.340	-0.349	 H	1	UNK0	0.000	
37	   H	0.964	-2.263	-1.494	 H	1	UNK0	0.000	
38	   H	0.327	-1.226	-2.795	 H	1	UNK0	0.000	
39	   H	-1.596	-4.429	3.067	 H	1	UNK0	0.000	
40	   H	-1.611	-3.322	4.468	 H	1	UNK0	0.000	
41	   H	-0.016	-3.662	3.658	 H	1	UNK0	0.000	
42	   H	-3.412	-2.916	3.042	 H	1	UNK0	0.000	
43	   H	-3.224	-2.096	1.507	 H	1	UNK0	0.000	
44	   H	-3.081	-1.198	3.139	 H	1	UNK0	0.000	
45	   H	6.007	5.463	-1.870	 H	1	UNK0	0.000	
@<TRIPOS>BOND
1 1 2 1
2 2 3 2
3 2 7 1
4 3 4 1
5 3 24 1
6 4 5 2
7 5 6 1
8 6 7 2
9 6 8 1
10 8 9 2
11 8 10 1
12 10 11 1
13 10 16 1
14 11 12 1
15 11 18 1
16 12 13 1
17 13 14 1
18 13 19 1
19 14 15 1
20 15 16 1
21 15 17 1
22 17 18 1
23 19 20 2
24 19 21 1
25 21 22 1
26 21 23 1
27 5 25 1
28 7 26 1
29 11 27 1
30 12 28 1
31 12 29 1
32 14 30 1
33 14 31 1
34 15 32 1
35 16 33 1
36 16 34 1
37 17 35 1
38 17 36 1
39 18 37 1
40 18 38 1
41 22 39 1
42 22 40 1
43 22 41 1
44 23 42 1
45 23 43 1
46 23 44 1
47 24 45 1
@<TRIPOS>SUBSTRUCTURE
1	UNK0	1	GROUP	1 ****	UNK
