# created with PyMOL 2.3.2
@<TRIPOS>MOLECULE
1554
47 50 1                 
SMALL
USER_CHARGES
@<TRIPOS>ATOM
1	  Br	-5.274	1.394	2.648	Br	1	UNK0	0.000	
2	   C	-3.481	1.829	2.170	C.2	1	UNK0	0.000	
3	   C	-3.150	3.153	2.019	C.2	1	UNK0	0.000	
4	   C	-1.854	3.473	1.673	C.2	1	UNK0	0.000	
5	   C	-0.902	2.466	1.482	C.2	1	UNK0	0.000	
6	   C	-1.226	1.134	1.632	C.2	1	UNK0	0.000	
7	   C	-2.530	0.843	1.978	C.2	1	UNK0	0.000	
8	   C	-0.266	0.043	1.443	C.3	1	UNK0	0.000	
9	   N	-0.209	-0.456	0.090	N.4	1	UNK0	0.000	
10	   C	-1.506	-0.891	-0.380	C.3	1	UNK0	0.000	
11	   C	-1.437	-1.495	-1.740	C.3	1	UNK0	0.000	
12	   C	-0.767	-2.851	-1.771	C.3	1	UNK0	0.000	
13	   N	0.675	-2.732	-1.747	N.pl3	1	UNK0	0.000	
14	   C	1.336	-1.566	-1.908	C.2	1	UNK0	0.000	
15	   C	2.728	-1.514	-1.874	C.2	1	UNK0	0.000	
16	   C	3.454	-2.656	-1.674	C.2	1	UNK0	0.000	
17	   C	2.776	-3.843	-1.511	C.2	1	UNK0	0.000	
18	   C	1.394	-3.852	-1.551	C.2	1	UNK0	0.000	
19	   O	0.843	-4.980	-1.393	O.2	1	UNK0	0.000	
20	   C	0.632	-0.277	-2.131	C.3	1	UNK0	0.000	
21	   C	0.346	0.468	-0.845	C.3	1	UNK0	0.000	
22	   C	-0.722	-0.623	-2.744	C.3	1	UNK0	0.000	
23	   O	-1.552	4.820	1.529	O.3	1	UNK0	0.000	
24	   C	-0.287	5.304	1.183	C.3	1	UNK0	0.000	
25	   O	-4.105	4.170	2.211	O.3	1	UNK0	0.000	
26	   H	0.089	2.750	1.216	 H	1	UNK0	0.000	
27	   H	-2.844	-0.183	2.110	 H	1	UNK0	0.000	
28	   H	-0.458	-0.837	2.102	 H	1	UNK0	0.000	
29	   H	0.784	0.370	1.696	 H	1	UNK0	0.000	
30	   H	0.408	-1.302	0.123	 H	1	UNK0	0.000	
31	   H	-1.934	-1.669	0.305	 H	1	UNK0	0.000	
32	   H	-2.163	0.000	-0.437	 H	1	UNK0	0.000	
33	   H	-2.473	-1.644	-2.123	 H	1	UNK0	0.000	
34	   H	-1.038	-3.370	-2.714	 H	1	UNK0	0.000	
35	   H	-1.168	-3.424	-0.915	 H	1	UNK0	0.000	
36	   H	3.244	-0.569	-2.005	 H	1	UNK0	0.000	
37	   H	4.535	-2.596	-1.651	 H	1	UNK0	0.000	
38	   H	3.360	-4.735	-1.355	 H	1	UNK0	0.000	
39	   H	1.204	0.375	-2.846	 H	1	UNK0	0.000	
40	   H	1.293	0.926	-0.522	 H	1	UNK0	0.000	
41	   H	-0.400	1.268	-1.125	 H	1	UNK0	0.000	
42	   H	-0.550	-1.263	-3.655	 H	1	UNK0	0.000	
43	   H	-1.283	0.258	-3.049	 H	1	UNK0	0.000	
44	   H	0.475	4.950	1.907	 H	1	UNK0	0.000	
45	   H	-0.029	5.018	0.163	 H	1	UNK0	0.000	
46	   H	-0.346	6.423	1.200	 H	1	UNK0	0.000	
47	   H	-3.854	5.141	2.098	 H	1	UNK0	0.000	
@<TRIPOS>BOND
1 1 2 1
2 2 3 2
3 2 7 1
4 3 4 1
5 3 25 1
6 4 5 2
7 4 23 1
8 5 6 1
9 6 7 2
10 6 8 1
11 8 9 1
12 9 10 1
13 9 21 1
14 10 11 1
15 11 12 1
16 11 22 1
17 12 13 1
18 13 14 1
19 13 18 1
20 14 15 2
21 14 20 1
22 15 16 1
23 16 17 2
24 17 18 1
25 18 19 2
26 20 21 1
27 20 22 1
28 23 24 1
29 5 26 1
30 7 27 1
31 8 28 1
32 8 29 1
33 9 30 1
34 10 31 1
35 10 32 1
36 11 33 1
37 12 34 1
38 12 35 1
39 15 36 1
40 16 37 1
41 17 38 1
42 20 39 1
43 21 40 1
44 21 41 1
45 22 42 1
46 22 43 1
47 24 44 1
48 24 45 1
49 24 46 1
50 25 47 1
@<TRIPOS>SUBSTRUCTURE
1	UNK0	1	GROUP	1 ****	UNK
