# created with PyMOL 2.3.2
@<TRIPOS>MOLECULE
1555
53 56 1                 
SMALL
USER_CHARGES
@<TRIPOS>ATOM
1	  Br	-2.165	7.185	-2.474	Br	1	UNK0	0.000	
2	   C	-1.074	5.776	-3.143	C.2	1	UNK0	0.000	
3	   C	-0.811	5.680	-4.494	C.2	1	UNK0	0.000	
4	   C	-0.020	4.661	-4.987	C.2	1	UNK0	0.000	
5	   C	0.484	3.759	-4.068	C.2	1	UNK0	0.000	
6	   C	0.240	3.829	-2.720	C.2	1	UNK0	0.000	
7	   C	-0.553	4.857	-2.255	C.2	1	UNK0	0.000	
8	   C	0.807	2.834	-1.785	C.2	1	UNK0	0.000	
9	   N	1.535	1.895	-2.237	N.2	1	UNK0	0.000	
10	   N	2.128	0.896	-1.453	N.pl3	1	UNK0	0.000	
11	   C	1.387	-0.118	-0.815	C.2	1	UNK0	0.000	
12	   O	0.112	-0.072	-0.996	O.2	1	UNK0	0.000	
13	   C	1.896	-1.186	0.008	C.2	1	UNK0	0.000	
14	   N	3.186	-1.434	0.335	N.pl3	1	UNK0	0.000	
15	   N	3.141	-2.531	1.114	N.2	1	UNK0	0.000	
16	   N	1.914	-2.960	1.278	N.2	1	UNK0	0.000	
17	   C	1.098	-2.147	0.602	C.2	1	UNK0	0.000	
18	   C	-0.373	-2.267	0.516	C.3	1	UNK0	0.000	
19	   N	-0.853	-3.406	1.274	N.3	1	UNK0	0.000	
20	   C	-0.501	-3.282	2.675	C.3	1	UNK0	0.000	
21	   C	-1.616	-3.832	3.553	C.3	1	UNK0	0.000	
22	   O	-2.690	-2.976	3.485	O.3	1	UNK0	0.000	
23	   C	-3.011	-2.647	2.183	C.3	1	UNK0	0.000	
24	   C	-2.286	-3.526	1.183	C.3	1	UNK0	0.000	
25	   C	4.373	-0.736	-0.025	C.2	1	UNK0	0.000	
26	   N	5.123	-0.938	-1.117	N.2	1	UNK0	0.000	
27	   O	6.151	-0.116	-1.098	O.3	1	UNK0	0.000	
28	   N	6.077	0.606	-0.025	N.2	1	UNK0	0.000	
29	   C	4.989	0.263	0.682	C.2	1	UNK0	0.000	
30	   N	4.608	0.860	1.917	N.pl3	1	UNK0	0.000	
31	   O	0.240	4.572	-6.351	O.3	1	UNK0	0.000	
32	   C	1.052	3.520	-6.836	C.3	1	UNK0	0.000	
33	   O	-1.345	6.613	-5.360	O.3	1	UNK0	0.000	
34	   H	1.110	2.945	-4.422	 H	1	UNK0	0.000	
35	   H	-0.741	4.908	-1.206	 H	1	UNK0	0.000	
36	   H	0.617	2.890	-0.742	 H	1	UNK0	0.000	
37	   H	3.155	0.945	-1.369	 H	1	UNK0	0.000	
38	   H	-0.862	-1.368	0.973	 H	1	UNK0	0.000	
39	   H	-0.747	-2.308	-0.524	 H	1	UNK0	0.000	
40	   H	0.435	-3.825	2.930	 H	1	UNK0	0.000	
41	   H	-0.417	-2.202	2.927	 H	1	UNK0	0.000	
42	   H	-1.949	-4.834	3.211	 H	1	UNK0	0.000	
43	   H	-1.237	-3.846	4.590	 H	1	UNK0	0.000	
44	   H	-2.868	-1.568	1.965	 H	1	UNK0	0.000	
45	   H	-4.101	-2.847	2.033	 H	1	UNK0	0.000	
46	   H	-2.568	-3.137	0.163	 H	1	UNK0	0.000	
47	   H	-2.653	-4.564	1.304	 H	1	UNK0	0.000	
48	   H	4.352	0.321	2.770	 H	1	UNK0	0.000	
49	   H	4.580	1.901	1.984	 H	1	UNK0	0.000	
50	   H	0.637	2.578	-6.372	 H	1	UNK0	0.000	
51	   H	2.099	3.595	-6.469	 H	1	UNK0	0.000	
52	   H	0.971	3.379	-7.917	 H	1	UNK0	0.000	
53	   H	-1.926	7.367	-5.021	 H	1	UNK0	0.000	
@<TRIPOS>BOND
1 1 2 1
2 2 3 2
3 2 7 1
4 3 4 1
5 3 33 1
6 4 5 2
7 4 31 1
8 5 6 1
9 6 7 2
10 6 8 1
11 8 9 2
12 9 10 1
13 10 11 1
14 11 12 2
15 11 13 1
16 13 14 1
17 13 17 2
18 14 15 1
19 14 25 1
20 15 16 2
21 16 17 1
22 17 18 1
23 18 19 1
24 19 20 1
25 19 24 1
26 20 21 1
27 21 22 1
28 22 23 1
29 23 24 1
30 25 26 2
31 25 29 1
32 26 27 1
33 27 28 1
34 28 29 2
35 29 30 1
36 31 32 1
37 5 34 1
38 7 35 1
39 8 36 1
40 10 37 1
41 18 38 1
42 18 39 1
43 20 40 1
44 20 41 1
45 21 42 1
46 21 43 1
47 23 44 1
48 23 45 1
49 24 46 1
50 24 47 1
51 30 48 1
52 30 49 1
53 32 50 1
54 32 51 1
55 32 52 1
56 33 53 1
@<TRIPOS>SUBSTRUCTURE
1	UNK0	1	GROUP	1 ****	UNK
