# created with PyMOL 2.3.2
@<TRIPOS>MOLECULE
1561
36 39 1                 
SMALL
USER_CHARGES
@<TRIPOS>ATOM
1	  Br	-0.737	0.248	-3.632	Br	1	UNK0	0.000	
2	   C	-1.741	0.794	-2.133	C.2	1	UNK0	0.000	
3	   C	-1.215	0.762	-0.853	C.2	1	UNK0	0.000	
4	   C	-2.069	1.192	0.155	C.2	1	UNK0	0.000	
5	   C	-3.351	1.626	-0.071	C.2	1	UNK0	0.000	
6	   C	-3.849	1.649	-1.335	C.2	1	UNK0	0.000	
7	   C	-3.046	1.235	-2.364	C.2	1	UNK0	0.000	
8	   N	0.106	0.320	-0.582	N.pl3	1	UNK0	0.000	
9	   C	0.916	-0.616	-1.385	C.3	1	UNK0	0.000	
10	   C	1.798	-1.183	-0.373	C.3	1	UNK0	0.000	
11	   O	1.286	-2.273	0.351	O.3	1	UNK0	0.000	
12	   C	2.349	-2.334	1.291	C.3	1	UNK0	0.000	
13	   C	2.129	-0.955	1.928	C.3	1	UNK0	0.000	
14	   C	2.051	-0.107	0.697	C.3	1	UNK0	0.000	
15	   C	0.869	0.726	0.548	C.2	1	UNK0	0.000	
16	   O	0.547	1.673	1.295	O.2	1	UNK0	0.000	
17	   C	0.785	-1.046	2.582	C.2	1	UNK0	0.000	
18	   O	0.615	-0.877	3.798	O.co2	1	UNK0	0.000	
19	   O	-0.318	-1.334	1.788	O.3	1	UNK0	0.000	
20	   C	-1.605	-1.423	2.411	C.3	1	UNK0	0.000	
21	   C	3.525	-2.341	0.372	C.2	1	UNK0	0.000	
22	   C	3.109	-1.705	-0.746	C.2	1	UNK0	0.000	
23	   H	-1.733	1.198	1.182	 H	1	UNK0	0.000	
24	   H	-3.982	1.952	0.746	 H	1	UNK0	0.000	
25	   H	-4.865	1.990	-1.531	 H	1	UNK0	0.000	
26	   H	-3.446	1.255	-3.367	 H	1	UNK0	0.000	
27	   H	0.211	-1.378	-1.770	 H	1	UNK0	0.000	
28	   H	1.429	-0.120	-2.216	 H	1	UNK0	0.000	
29	   H	2.284	-3.152	1.973	 H	1	UNK0	0.000	
30	   H	2.916	-0.692	2.625	 H	1	UNK0	0.000	
31	   H	2.994	0.434	0.480	 H	1	UNK0	0.000	
32	   H	-2.401	-1.521	1.657	 H	1	UNK0	0.000	
33	   H	-1.816	-0.532	3.036	 H	1	UNK0	0.000	
34	   H	-1.655	-2.346	3.042	 H	1	UNK0	0.000	
35	   H	4.499	-2.772	0.579	 H	1	UNK0	0.000	
36	   H	3.666	-1.636	-1.667	 H	1	UNK0	0.000	
@<TRIPOS>BOND
1 1 2 1
2 2 3 2
3 2 7 1
4 3 4 1
5 3 8 1
6 4 5 2
7 5 6 1
8 6 7 2
9 8 9 1
10 8 15 1
11 9 10 1
12 10 11 1
13 10 14 1
14 10 22 1
15 11 12 1
16 12 13 1
17 12 21 1
18 13 14 1
19 13 17 1
20 14 15 1
21 15 16 2
22 17 18 2
23 17 19 1
24 19 20 1
25 21 22 2
26 4 23 1
27 5 24 1
28 6 25 1
29 7 26 1
30 9 27 1
31 9 28 1
32 12 29 1
33 13 30 1
34 14 31 1
35 20 32 1
36 20 33 1
37 20 34 1
38 21 35 1
39 22 36 1
@<TRIPOS>SUBSTRUCTURE
1	UNK0	1	GROUP	1 ****	UNK
