# created with PyMOL 2.3.2
@<TRIPOS>MOLECULE
1562
48 51 1                 
SMALL
USER_CHARGES
@<TRIPOS>ATOM
1	  Br	-3.166	-0.580	4.778	Br	1	UNK0	0.000	
2	   C	-2.881	-2.479	4.467	C.2	1	UNK0	0.000	
3	   C	-1.738	-2.855	3.806	C.2	1	UNK0	0.000	
4	   C	-1.484	-4.237	3.738	C.2	1	UNK0	0.000	
5	   C	-2.363	-5.130	4.309	C.2	1	UNK0	0.000	
6	   C	-3.528	-4.717	4.974	C.2	1	UNK0	0.000	
7	   C	-3.775	-3.374	5.044	C.2	1	UNK0	0.000	
8	   O	-0.842	-1.999	3.216	O.3	1	UNK0	0.000	
9	   C	-1.026	-1.365	2.004	C.2	1	UNK0	0.000	
10	   C	0.100	-0.956	1.281	C.2	1	UNK0	0.000	
11	   O	-0.043	-0.366	0.151	O.3	1	UNK0	0.000	
12	   C	-1.193	-0.110	-0.388	C.2	1	UNK0	0.000	
13	   C	-2.346	-0.467	0.222	C.2	1	UNK0	0.000	
14	   C	-3.608	-0.189	-0.315	C.2	1	UNK0	0.000	
15	   C	-3.640	0.476	-1.519	C.2	1	UNK0	0.000	
16	   C	-2.442	0.845	-2.154	C.2	1	UNK0	0.000	
17	   C	-1.244	0.568	-1.615	C.2	1	UNK0	0.000	
18	   C	0.057	0.849	-2.198	C.3	1	UNK0	0.000	
19	   N	0.328	2.316	-2.190	N.4	1	UNK0	0.000	
20	   C	1.613	2.428	-2.790	C.3	1	UNK0	0.000	
21	   C	2.670	2.302	-1.683	C.3	1	UNK0	0.000	
22	   O	2.594	3.546	-1.034	O.3	1	UNK0	0.000	
23	   C	1.422	3.608	-0.335	C.3	1	UNK0	0.000	
24	   C	0.314	2.750	-0.800	C.3	1	UNK0	0.000	
25	   O	-2.615	1.506	-3.365	O.2	1	UNK0	0.000	
26	   C	-2.253	-1.122	1.459	C.2	1	UNK0	0.000	
27	   O	-3.351	-1.446	1.974	O.2	1	UNK0	0.000	
28	   C	1.461	-1.220	1.850	C.3	1	UNK0	0.000	
29	   H	-0.555	-4.558	3.214	 H	1	UNK0	0.000	
30	   H	-2.165	-6.198	4.264	 H	1	UNK0	0.000	
31	   H	-4.190	-5.453	5.406	 H	1	UNK0	0.000	
32	   H	-4.666	-2.992	5.516	 H	1	UNK0	0.000	
33	   H	-4.468	-0.500	0.257	 H	1	UNK0	0.000	
34	   H	-4.608	0.675	-1.976	 H	1	UNK0	0.000	
35	   H	0.888	0.270	-1.805	 H	1	UNK0	0.000	
36	   H	0.049	0.649	-3.332	 H	1	UNK0	0.000	
37	   H	-0.400	2.755	-2.734	 H	1	UNK0	0.000	
38	   H	1.816	1.638	-3.545	 H	1	UNK0	0.000	
39	   H	1.787	3.409	-3.245	 H	1	UNK0	0.000	
40	   H	2.390	1.479	-0.997	 H	1	UNK0	0.000	
41	   H	3.682	2.161	-2.103	 H	1	UNK0	0.000	
42	   H	1.117	4.665	-0.172	 H	1	UNK0	0.000	
43	   H	1.731	3.296	0.732	 H	1	UNK0	0.000	
44	   H	-0.654	3.249	-0.606	 H	1	UNK0	0.000	
45	   H	0.301	1.872	-0.085	 H	1	UNK0	0.000	
46	   H	1.512	-2.215	2.273	 H	1	UNK0	0.000	
47	   H	1.694	-0.454	2.633	 H	1	UNK0	0.000	
48	   H	2.204	-1.111	1.007	 H	1	UNK0	0.000	
@<TRIPOS>BOND
1 1 2 1
2 2 3 2
3 2 7 1
4 3 4 1
5 3 8 1
6 4 5 2
7 5 6 1
8 6 7 2
9 8 9 1
10 9 10 2
11 9 26 1
12 10 11 1
13 10 28 1
14 11 12 1
15 12 13 2
16 12 17 1
17 13 14 1
18 13 26 1
19 14 15 2
20 15 16 1
21 16 17 2
22 16 25 1
23 17 18 1
24 18 19 1
25 19 20 1
26 19 24 1
27 20 21 1
28 21 22 1
29 22 23 1
30 23 24 1
31 26 27 2
32 4 29 1
33 5 30 1
34 6 31 1
35 7 32 1
36 14 33 1
37 15 34 1
38 18 35 1
39 18 36 1
40 19 37 1
41 20 38 1
42 20 39 1
43 21 40 1
44 21 41 1
45 23 42 1
46 23 43 1
47 24 44 1
48 24 45 1
49 28 46 1
50 28 47 1
51 28 48 1
@<TRIPOS>SUBSTRUCTURE
1	UNK0	1	GROUP	1 ****	UNK
