# created with PyMOL 2.3.2
@<TRIPOS>MOLECULE
1563
53 56 1                 
SMALL
USER_CHARGES
@<TRIPOS>ATOM
1	  Br	-5.556	-1.859	4.980	Br	1	UNK0	0.000	
2	   C	-4.475	-2.382	3.468	C.2	1	UNK0	0.000	
3	   C	-3.498	-1.609	2.939	C.2	1	UNK0	0.000	
4	   C	-2.752	-2.065	1.846	C.2	1	UNK0	0.000	
5	   C	-2.979	-3.298	1.279	C.2	1	UNK0	0.000	
6	   C	-3.969	-4.064	1.823	C.2	1	UNK0	0.000	
7	   C	-4.747	-3.641	2.926	C.2	1	UNK0	0.000	
8	   O	-3.226	-0.323	3.517	O.3	1	UNK0	0.000	
9	   C	-2.291	0.425	2.751	C.2	1	UNK0	0.000	
10	   C	-1.002	0.025	2.864	C.2	1	UNK0	0.000	
11	   O	-0.037	0.615	2.185	O.3	1	UNK0	0.000	
12	   C	-0.324	1.626	1.379	C.2	1	UNK0	0.000	
13	   C	-1.592	2.075	1.248	C.2	1	UNK0	0.000	
14	   C	-1.833	3.118	0.373	C.2	1	UNK0	0.000	
15	   C	-0.793	3.677	-0.330	C.2	1	UNK0	0.000	
16	   C	0.481	3.191	-0.168	C.2	1	UNK0	0.000	
17	   C	0.755	2.172	0.657	C.2	1	UNK0	0.000	
18	   C	2.073	1.474	0.851	C.3	1	UNK0	0.000	
19	   N	2.608	0.984	-0.408	N.4	1	UNK0	0.000	
20	   C	1.817	0.988	-1.567	C.3	1	UNK0	0.000	
21	   C	0.548	0.137	-1.516	C.3	1	UNK0	0.000	
22	   N	0.972	-1.250	-1.633	N.3	1	UNK0	0.000	
23	   C	2.328	-1.374	-1.265	C.3	1	UNK0	0.000	
24	   C	2.835	-0.488	-0.183	C.3	1	UNK0	0.000	
25	   C	0.586	-1.773	-2.908	C.3	1	UNK0	0.000	
26	   C	-0.914	-1.980	-2.959	C.3	1	UNK0	0.000	
27	   O	-1.305	-2.918	-2.022	O.3	1	UNK0	0.000	
28	   O	1.515	3.814	-0.884	O.2	1	UNK0	0.000	
29	   C	-2.659	1.466	1.960	C.2	1	UNK0	0.000	
30	   O	-3.818	1.843	1.868	O.2	1	UNK0	0.000	
31	   H	-1.995	-1.452	1.399	 H	1	UNK0	0.000	
32	   H	-2.386	-3.634	0.449	 H	1	UNK0	0.000	
33	   H	-4.171	-5.047	1.450	 H	1	UNK0	0.000	
34	   H	-5.529	-4.320	3.300	 H	1	UNK0	0.000	
35	   H	-0.737	-0.806	3.536	 H	1	UNK0	0.000	
36	   H	-2.881	3.482	0.275	 H	1	UNK0	0.000	
37	   H	-1.073	4.491	-0.969	 H	1	UNK0	0.000	
38	   H	2.007	0.717	1.584	 H	1	UNK0	0.000	
39	   H	2.793	2.248	1.276	 H	1	UNK0	0.000	
40	   H	3.564	1.391	-0.555	 H	1	UNK0	0.000	
41	   H	1.661	1.884	-2.156	 H	1	UNK0	0.000	
42	   H	2.480	0.376	-2.335	 H	1	UNK0	0.000	
43	   H	-0.052	0.199	-0.627	 H	1	UNK0	0.000	
44	   H	-0.065	0.437	-2.397	 H	1	UNK0	0.000	
45	   H	2.404	-2.432	-0.800	 H	1	UNK0	0.000	
46	   H	3.069	-1.457	-2.099	 H	1	UNK0	0.000	
47	   H	3.888	-0.679	-0.023	 H	1	UNK0	0.000	
48	   H	2.308	-0.761	0.781	 H	1	UNK0	0.000	
49	   H	1.084	-2.710	-3.077	 H	1	UNK0	0.000	
50	   H	0.811	-1.057	-3.764	 H	1	UNK0	0.000	
51	   H	-1.264	-2.256	-3.952	 H	1	UNK0	0.000	
52	   H	-1.473	-1.022	-2.645	 H	1	UNK0	0.000	
53	   H	-2.294	-2.843	-1.821	 H	1	UNK0	0.000	
@<TRIPOS>BOND
1 1 2 1
2 2 3 2
3 2 7 1
4 3 4 1
5 3 8 1
6 4 5 2
7 5 6 1
8 6 7 2
9 8 9 1
10 9 10 2
11 9 29 1
12 10 11 1
13 11 12 1
14 12 13 2
15 12 17 1
16 13 14 1
17 13 29 1
18 14 15 2
19 15 16 1
20 16 17 2
21 16 28 1
22 17 18 1
23 18 19 1
24 19 20 1
25 19 24 1
26 20 21 1
27 21 22 1
28 22 23 1
29 22 25 1
30 23 24 1
31 25 26 1
32 26 27 1
33 29 30 2
34 4 31 1
35 5 32 1
36 6 33 1
37 7 34 1
38 10 35 1
39 14 36 1
40 15 37 1
41 18 38 1
42 18 39 1
43 19 40 1
44 20 41 1
45 20 42 1
46 21 43 1
47 21 44 1
48 23 45 1
49 23 46 1
50 24 47 1
51 24 48 1
52 25 49 1
53 25 50 1
54 26 51 1
55 26 52 1
56 27 53 1
@<TRIPOS>SUBSTRUCTURE
1	UNK0	1	GROUP	1 ****	UNK
