# created with PyMOL 2.3.2
@<TRIPOS>MOLECULE
1564
59 62 1                 
SMALL
USER_CHARGES
@<TRIPOS>ATOM
1	  Br	2.219	-4.778	-3.332	Br	1	UNK0	0.000	
2	   C	1.974	-3.101	-4.178	C.2	1	UNK0	0.000	
3	   C	1.304	-2.109	-3.497	C.2	1	UNK0	0.000	
4	   C	1.106	-0.866	-4.088	C.2	1	UNK0	0.000	
5	   C	1.585	-0.638	-5.359	C.2	1	UNK0	0.000	
6	   N	1.270	0.628	-5.704	N.pl3	1	UNK0	0.000	
7	   C	0.612	1.198	-4.696	C.2	1	UNK0	0.000	
8	   C	0.477	0.282	-3.627	C.2	1	UNK0	0.000	
9	   O	-0.104	0.522	-2.519	O.3	1	UNK0	0.000	
10	   C	-0.696	0.765	-1.389	C.3	1	UNK0	0.000	
11	   O	-2.074	1.063	-1.424	O.3	1	UNK0	0.000	
12	   C	-2.685	0.655	-0.220	C.3	1	UNK0	0.000	
13	   C	-2.016	1.302	0.971	C.3	1	UNK0	0.000	
14	   C	-1.120	2.392	0.439	C.3	1	UNK0	0.000	
15	   C	-0.116	1.939	-0.564	C.3	1	UNK0	0.000	
16	   O	1.099	1.567	0.000	O.3	1	UNK0	0.000	
17	   O	-1.883	3.482	-0.034	O.3	1	UNK0	0.000	
18	   O	-1.320	0.436	1.766	O.3	1	UNK0	0.000	
19	   C	-1.708	0.440	3.095	C.3	1	UNK0	0.000	
20	   O	-0.656	0.870	3.865	O.3	1	UNK0	0.000	
21	   C	0.323	-0.059	4.094	C.3	1	UNK0	0.000	
22	   C	0.200	-1.310	3.283	C.3	1	UNK0	0.000	
23	   C	-1.150	-1.944	3.536	C.3	1	UNK0	0.000	
24	   C	-2.200	-0.879	3.593	C.3	1	UNK0	0.000	
25	   O	-2.568	-0.715	4.931	O.3	1	UNK0	0.000	
26	   O	-1.421	-2.910	2.570	O.3	1	UNK0	0.000	
27	   O	1.167	-2.217	3.755	O.3	1	UNK0	0.000	
28	   C	1.722	0.486	3.900	C.3	1	UNK0	0.000	
29	   O	2.015	1.538	4.733	O.3	1	UNK0	0.000	
30	   C	-4.130	1.109	-0.228	C.3	1	UNK0	0.000	
31	   O	-4.831	0.551	-1.304	O.3	1	UNK0	0.000	
32	   C	2.267	-1.637	-6.061	C.2	1	UNK0	0.000	
33	   C	2.453	-2.850	-5.467	C.2	1	UNK0	0.000	
34	  Cl	0.716	-2.449	-1.888	Cl	1	UNK0	0.000	
35	   H	1.537	1.028	-6.640	 H	1	UNK0	0.000	
36	   H	0.244	2.213	-4.714	 H	1	UNK0	0.000	
37	   H	-0.665	-0.146	-0.705	 H	1	UNK0	0.000	
38	   H	-2.690	-0.449	-0.127	 H	1	UNK0	0.000	
39	   H	-2.765	1.824	1.633	 H	1	UNK0	0.000	
40	   H	-0.580	2.806	1.340	 H	1	UNK0	0.000	
41	   H	0.056	2.760	-1.291	 H	1	UNK0	0.000	
42	   H	1.727	2.326	-0.095	 H	1	UNK0	0.000	
43	   H	-1.873	3.516	-1.023	 H	1	UNK0	0.000	
44	   H	-2.536	1.188	3.202	 H	1	UNK0	0.000	
45	   H	0.249	-0.356	5.180	 H	1	UNK0	0.000	
46	   H	0.412	-1.154	2.221	 H	1	UNK0	0.000	
47	   H	-1.057	-2.505	4.507	 H	1	UNK0	0.000	
48	   H	-3.105	-1.231	3.055	 H	1	UNK0	0.000	
49	   H	-3.304	-0.075	5.053	 H	1	UNK0	0.000	
50	   H	-0.717	-3.594	2.654	 H	1	UNK0	0.000	
51	   H	1.256	-2.993	3.128	 H	1	UNK0	0.000	
52	   H	2.415	-0.361	4.163	 H	1	UNK0	0.000	
53	   H	1.909	0.696	2.827	 H	1	UNK0	0.000	
54	   H	2.161	1.232	5.649	 H	1	UNK0	0.000	
55	   H	-4.240	2.201	-0.303	 H	1	UNK0	0.000	
56	   H	-4.662	0.780	0.685	 H	1	UNK0	0.000	
57	   H	-4.461	-0.368	-1.483	 H	1	UNK0	0.000	
58	   H	2.635	-1.444	-7.051	 H	1	UNK0	0.000	
59	   H	2.979	-3.643	-5.991	 H	1	UNK0	0.000	
@<TRIPOS>BOND
1 1 2 1
2 2 3 2
3 2 33 1
4 3 4 1
5 3 34 1
6 4 5 2
7 4 8 1
8 5 6 1
9 5 32 1
10 6 7 1
11 7 8 2
12 8 9 1
13 9 10 1
14 10 11 1
15 10 15 1
16 11 12 1
17 12 13 1
18 12 30 1
19 13 14 1
20 13 18 1
21 14 15 1
22 14 17 1
23 15 16 1
24 18 19 1
25 19 20 1
26 19 24 1
27 20 21 1
28 21 22 1
29 21 28 1
30 22 23 1
31 22 27 1
32 23 24 1
33 23 26 1
34 24 25 1
35 28 29 1
36 30 31 1
37 32 33 2
38 6 35 1
39 7 36 1
40 10 37 1
41 12 38 1
42 13 39 1
43 14 40 1
44 15 41 1
45 16 42 1
46 17 43 1
47 19 44 1
48 21 45 1
49 22 46 1
50 23 47 1
51 24 48 1
52 25 49 1
53 26 50 1
54 27 51 1
55 28 52 1
56 28 53 1
57 29 54 1
58 30 55 1
59 30 56 1
60 31 57 1
61 32 58 1
62 33 59 1
@<TRIPOS>SUBSTRUCTURE
1	UNK0	1	GROUP	1 ****	UNK
