# created with PyMOL 2.3.2
@<TRIPOS>MOLECULE
1565
63 66 1                 
SMALL
USER_CHARGES
@<TRIPOS>ATOM
1	  Br	-1.898	5.473	-2.543	Br	1	UNK0	0.000	
2	   C	-2.080	3.621	-2.951	C.2	1	UNK0	0.000	
3	   C	-1.390	2.666	-2.213	C.2	1	UNK0	0.000	
4	   C	-1.512	1.324	-2.494	C.2	1	UNK0	0.000	
5	   C	-2.334	0.935	-3.528	C.2	1	UNK0	0.000	
6	   C	-3.022	1.879	-4.264	C.2	1	UNK0	0.000	
7	   C	-2.907	3.225	-3.990	C.2	1	UNK0	0.000	
8	   C	-0.790	0.295	-1.725	C.3	1	UNK0	0.000	
9	   N	0.597	0.636	-1.477	N.pl3	1	UNK0	0.000	
10	   C	0.734	1.310	-0.245	C.2	1	UNK0	0.000	
11	   O	1.662	2.030	0.205	O.2	1	UNK0	0.000	
12	   C	-0.506	1.012	0.515	C.2	1	UNK0	0.000	
13	   O	-0.732	1.444	1.663	O.2	1	UNK0	0.000	
14	   C	-1.329	0.163	-0.327	C.2	1	UNK0	0.000	
15	   C	-2.309	-0.602	0.080	C.2	1	UNK0	0.000	
16	   O	-2.969	-1.424	-0.850	O.2	1	UNK0	0.000	
17	   C	-2.746	-0.631	1.450	C.2	1	UNK0	0.000	
18	   C	-2.697	-1.872	2.102	C.2	1	UNK0	0.000	
19	   C	-3.131	-2.001	3.392	C.2	1	UNK0	0.000	
20	   C	-3.635	-0.923	4.109	C.2	1	UNK0	0.000	
21	   C	-3.674	0.270	3.457	C.2	1	UNK0	0.000	
22	   C	-3.241	0.418	2.155	C.2	1	UNK0	0.000	
23	   O	-4.052	-1.136	5.407	O.3	1	UNK0	0.000	
24	   C	-4.575	-0.072	6.188	C.3	1	UNK0	0.000	
25	   C	-3.072	-3.334	4.073	C.3	1	UNK0	0.000	
26	   C	1.732	0.329	-2.362	C.3	1	UNK0	0.000	
27	   C	2.293	-1.024	-2.022	C.3	1	UNK0	0.000	
28	   C	2.802	-1.165	-0.628	C.3	1	UNK0	0.000	
29	   N	3.885	-0.260	-0.310	N.4	1	UNK0	0.000	
30	   C	3.986	-0.021	1.116	C.3	1	UNK0	0.000	
31	   C	5.286	-0.552	1.657	C.3	1	UNK0	0.000	
32	   O	6.332	0.139	1.012	O.3	1	UNK0	0.000	
33	   C	6.336	-0.144	-0.352	C.3	1	UNK0	0.000	
34	   C	5.116	-0.868	-0.824	C.3	1	UNK0	0.000	
35	   H	-0.753	2.977	-1.412	 H	1	UNK0	0.000	
36	   H	-2.472	-0.107	-3.799	 H	1	UNK0	0.000	
37	   H	-3.664	1.560	-5.072	 H	1	UNK0	0.000	
38	   H	-3.444	3.963	-4.567	 H	1	UNK0	0.000	
39	   H	-0.775	-0.688	-2.244	 H	1	UNK0	0.000	
40	   H	-2.304	-2.747	1.562	 H	1	UNK0	0.000	
41	   H	-4.062	1.138	3.984	 H	1	UNK0	0.000	
42	   H	-3.319	1.395	1.652	 H	1	UNK0	0.000	
43	   H	-5.071	-0.431	7.097	 H	1	UNK0	0.000	
44	   H	-5.273	0.574	5.601	 H	1	UNK0	0.000	
45	   H	-3.751	0.618	6.521	 H	1	UNK0	0.000	
46	   H	-3.672	-4.021	3.425	 H	1	UNK0	0.000	
47	   H	-3.552	-3.287	5.047	 H	1	UNK0	0.000	
48	   H	-2.027	-3.703	4.170	 H	1	UNK0	0.000	
49	   H	2.509	1.108	-2.278	 H	1	UNK0	0.000	
50	   H	1.328	0.266	-3.409	 H	1	UNK0	0.000	
51	   H	1.518	-1.828	-2.157	 H	1	UNK0	0.000	
52	   H	3.149	-1.279	-2.704	 H	1	UNK0	0.000	
53	   H	3.126	-2.232	-0.509	 H	1	UNK0	0.000	
54	   H	2.021	-1.014	0.143	 H	1	UNK0	0.000	
55	   H	3.814	0.658	-0.797	 H	1	UNK0	0.000	
56	   H	3.164	-0.522	1.668	 H	1	UNK0	0.000	
57	   H	3.993	1.088	1.331	 H	1	UNK0	0.000	
58	   H	5.390	-0.340	2.723	 H	1	UNK0	0.000	
59	   H	5.393	-1.644	1.490	 H	1	UNK0	0.000	
60	   H	6.428	0.792	-0.942	 H	1	UNK0	0.000	
61	   H	7.215	-0.803	-0.562	 H	1	UNK0	0.000	
62	   H	5.060	-0.693	-1.939	 H	1	UNK0	0.000	
63	   H	5.136	-1.959	-0.658	 H	1	UNK0	0.000	
@<TRIPOS>BOND
1 1 2 1
2 2 3 2
3 2 7 1
4 3 4 1
5 4 5 2
6 4 8 1
7 5 6 1
8 6 7 2
9 8 9 1
10 8 14 1
11 9 10 1
12 9 26 1
13 10 11 2
14 10 12 1
15 12 13 2
16 12 14 1
17 14 15 2
18 15 16 1
19 15 17 1
20 17 18 2
21 17 22 1
22 18 19 1
23 19 20 2
24 19 25 1
25 20 21 1
26 20 23 1
27 21 22 2
28 23 24 1
29 26 27 1
30 27 28 1
31 28 29 1
32 29 30 1
33 29 34 1
34 30 31 1
35 31 32 1
36 32 33 1
37 33 34 1
38 3 35 1
39 5 36 1
40 6 37 1
41 7 38 1
42 8 39 1
43 18 40 1
44 21 41 1
45 22 42 1
46 24 43 1
47 24 44 1
48 24 45 1
49 25 46 1
50 25 47 1
51 25 48 1
52 26 49 1
53 26 50 1
54 27 51 1
55 27 52 1
56 28 53 1
57 28 54 1
58 29 55 1
59 30 56 1
60 30 57 1
61 31 58 1
62 31 59 1
63 33 60 1
64 33 61 1
65 34 62 1
66 34 63 1
@<TRIPOS>SUBSTRUCTURE
1	UNK0	1	GROUP	1 ****	UNK
