# created with PyMOL 2.3.2
@<TRIPOS>MOLECULE
1566
46 49 1                 
SMALL
USER_CHARGES
@<TRIPOS>ATOM
1	  Cl	1.370	-6.764	-0.184	Cl	1	UNK0	0.000	
2	   C	0.205	-5.744	-0.978	C.2	1	UNK0	0.000	
3	   C	0.305	-4.374	-0.963	C.2	1	UNK0	0.000	
4	   C	-0.608	-3.551	-1.586	C.2	1	UNK0	0.000	
5	   C	-1.653	-4.155	-2.242	C.2	1	UNK0	0.000	
6	   C	-1.805	-5.543	-2.290	C.2	1	UNK0	0.000	
7	   C	-0.849	-6.319	-1.641	C.2	1	UNK0	0.000	
8	   N	-0.481	-2.159	-1.561	N.pl3	1	UNK0	0.000	
9	   C	-1.519	-1.325	-2.087	C.3	1	UNK0	0.000	
10	   C	-1.591	0.046	-1.463	C.3	1	UNK0	0.000	
11	   N	-0.334	0.607	-1.102	N.3	1	UNK0	0.000	
12	   C	0.806	-0.132	-1.485	C.3	1	UNK0	0.000	
13	   C	0.703	-1.564	-1.010	C.3	1	UNK0	0.000	
14	   C	-0.252	2.014	-1.111	C.3	1	UNK0	0.000	
15	   C	1.045	2.617	-0.729	C.3	1	UNK0	0.000	
16	   O	0.941	4.028	-0.795	O.3	1	UNK0	0.000	
17	   C	2.003	4.457	-0.002	C.3	1	UNK0	0.000	
18	   C	1.758	3.663	1.259	C.3	1	UNK0	0.000	
19	   C	2.804	3.738	2.313	C.3	1	UNK0	0.000	
20	   N	1.731	3.917	3.300	N.3	1	UNK0	0.000	
21	   C	0.775	4.227	2.224	C.3	1	UNK0	0.000	
22	   C	1.454	2.298	0.694	C.3	1	UNK0	0.000	
23	   H	1.132	-3.902	-0.441	 H	1	UNK0	0.000	
24	   H	-2.423	-3.606	-2.764	 H	1	UNK0	0.000	
25	   H	-2.624	-6.020	-2.804	 H	1	UNK0	0.000	
26	   H	-0.962	-7.407	-1.674	 H	1	UNK0	0.000	
27	   H	-2.539	-1.774	-1.938	 H	1	UNK0	0.000	
28	   H	-1.436	-1.186	-3.196	 H	1	UNK0	0.000	
29	   H	-2.229	-0.013	-0.575	 H	1	UNK0	0.000	
30	   H	-2.092	0.723	-2.186	 H	1	UNK0	0.000	
31	   H	1.726	0.359	-1.189	 H	1	UNK0	0.000	
32	   H	0.826	-0.191	-2.614	 H	1	UNK0	0.000	
33	   H	1.584	-2.159	-1.355	 H	1	UNK0	0.000	
34	   H	0.633	-1.638	0.091	 H	1	UNK0	0.000	
35	   H	-1.027	2.412	-0.394	 H	1	UNK0	0.000	
36	   H	-0.561	2.402	-2.103	 H	1	UNK0	0.000	
37	   H	1.893	2.372	-1.382	 H	1	UNK0	0.000	
38	   H	2.952	4.063	-0.448	 H	1	UNK0	0.000	
39	   H	2.003	5.535	0.144	 H	1	UNK0	0.000	
40	   H	3.354	4.719	2.238	 H	1	UNK0	0.000	
41	   H	3.435	2.857	2.478	 H	1	UNK0	0.000	
42	   H	1.482	2.987	3.718	 H	1	UNK0	0.000	
43	   H	0.601	5.303	2.100	 H	1	UNK0	0.000	
44	   H	-0.191	3.652	2.331	 H	1	UNK0	0.000	
45	   H	2.351	1.629	0.741	 H	1	UNK0	0.000	
46	   H	0.641	1.842	1.267	 H	1	UNK0	0.000	
@<TRIPOS>BOND
1 1 2 1
2 2 3 2
3 2 7 1
4 3 4 1
5 4 5 2
6 4 8 1
7 5 6 1
8 6 7 2
9 8 9 1
10 8 13 1
11 9 10 1
12 10 11 1
13 11 12 1
14 11 14 1
15 12 13 1
16 14 15 1
17 15 16 1
18 15 22 1
19 16 17 1
20 17 18 1
21 18 19 1
22 18 21 1
23 18 22 1
24 19 20 1
25 20 21 1
26 3 23 1
27 5 24 1
28 6 25 1
29 7 26 1
30 9 27 1
31 9 28 1
32 10 29 1
33 10 30 1
34 12 31 1
35 12 32 1
36 13 33 1
37 13 34 1
38 14 35 1
39 14 36 1
40 15 37 1
41 17 38 1
42 17 39 1
43 19 40 1
44 19 41 1
45 20 42 1
46 21 43 1
47 21 44 1
48 22 45 1
49 22 46 1
@<TRIPOS>SUBSTRUCTURE
1	UNK0	1	GROUP	1 ****	UNK
