# created with PyMOL 2.3.2
@<TRIPOS>MOLECULE
1568
52 56 1                 
SMALL
USER_CHARGES
@<TRIPOS>ATOM
1	  Br	7.869	-1.305	-1.775	Br	1	UNK0	0.000	
2	   C	6.137	-0.828	-1.151	C.2	1	UNK0	0.000	
3	   C	5.229	-1.830	-0.890	C.2	1	UNK0	0.000	
4	   C	3.970	-1.541	-0.439	C.2	1	UNK0	0.000	
5	   C	3.568	-0.252	-0.233	C.2	1	UNK0	0.000	
6	   C	4.455	0.765	-0.486	C.2	1	UNK0	0.000	
7	   C	5.743	0.474	-0.947	C.2	1	UNK0	0.000	
8	   N	2.229	0.025	0.245	N.pl3	1	UNK0	0.000	
9	   C	1.173	-0.052	-0.575	C.2	1	UNK0	0.000	
10	   C	-0.144	0.192	-0.219	C.2	1	UNK0	0.000	
11	   C	-0.294	0.539	1.111	C.2	1	UNK0	0.000	
12	   O	-1.380	0.806	1.678	O.2	1	UNK0	0.000	
13	   N	0.784	0.620	1.957	N.pl3	1	UNK0	0.000	
14	   C	2.025	0.366	1.525	C.2	1	UNK0	0.000	
15	   O	3.040	0.431	2.273	O.2	1	UNK0	0.000	
16	   C	-1.297	0.115	-1.046	C.3	1	UNK0	0.000	
17	   N	-1.402	-0.857	-2.084	N.4	1	UNK0	0.000	
18	   C	-1.128	-2.213	-1.640	C.3	1	UNK0	0.000	
19	   C	-1.266	-2.373	-0.131	C.3	1	UNK0	0.000	
20	   C	-2.413	-1.535	0.312	C.2	1	UNK0	0.000	
21	   C	-2.476	-0.240	-0.160	C.2	1	UNK0	0.000	
22	   C	-3.488	0.623	0.130	C.2	1	UNK0	0.000	
23	   C	-4.502	0.128	0.960	C.2	1	UNK0	0.000	
24	   C	-4.455	-1.160	1.442	C.2	1	UNK0	0.000	
25	   C	-3.423	-2.008	1.132	C.2	1	UNK0	0.000	
26	   O	-5.588	-1.389	2.243	O.3	1	UNK0	0.000	
27	   C	-6.234	-0.139	2.425	C.3	1	UNK0	0.000	
28	   O	-5.645	0.709	1.445	O.3	1	UNK0	0.000	
29	   O	-3.500	1.887	-0.370	O.3	1	UNK0	0.000	
30	   C	-2.994	3.068	0.132	C.3	1	UNK0	0.000	
31	   C	-0.915	-0.516	-3.375	C.3	1	UNK0	0.000	
32	   O	1.408	-0.399	-1.866	O.2	1	UNK0	0.000	
33	   H	5.543	-2.877	-1.054	 H	1	UNK0	0.000	
34	   H	3.285	-2.342	-0.245	 H	1	UNK0	0.000	
35	   H	4.175	1.788	-0.335	 H	1	UNK0	0.000	
36	   H	6.458	1.244	-1.153	 H	1	UNK0	0.000	
37	   H	0.650	0.886	2.967	 H	1	UNK0	0.000	
38	   H	-1.540	1.095	-1.485	 H	1	UNK0	0.000	
39	   H	-2.472	-0.879	-2.235	 H	1	UNK0	0.000	
40	   H	-0.170	-2.623	-2.019	 H	1	UNK0	0.000	
41	   H	-1.892	-2.941	-2.058	 H	1	UNK0	0.000	
42	   H	-1.603	-3.436	0.083	 H	1	UNK0	0.000	
43	   H	-0.353	-2.253	0.431	 H	1	UNK0	0.000	
44	   H	-3.362	-3.033	1.501	 H	1	UNK0	0.000	
45	   H	-6.012	0.213	3.460	 H	1	UNK0	0.000	
46	   H	-7.336	-0.216	2.299	 H	1	UNK0	0.000	
47	   H	-2.847	3.100	1.225	 H	1	UNK0	0.000	
48	   H	-1.973	3.240	-0.319	 H	1	UNK0	0.000	
49	   H	-3.614	3.935	-0.162	 H	1	UNK0	0.000	
50	   H	-0.209	-1.273	-3.828	 H	1	UNK0	0.000	
51	   H	-1.730	-0.511	-4.179	 H	1	UNK0	0.000	
52	   H	-0.531	0.533	-3.477	 H	1	UNK0	0.000	
@<TRIPOS>BOND
1 1 2 1
2 2 3 2
3 2 7 1
4 3 4 1
5 4 5 2
6 5 6 1
7 5 8 1
8 6 7 2
9 8 9 1
10 8 14 1
11 9 10 2
12 9 32 1
13 10 11 1
14 10 16 1
15 11 12 2
16 11 13 1
17 13 14 1
18 14 15 2
19 16 17 1
20 16 21 1
21 17 18 1
22 17 31 1
23 18 19 1
24 19 20 1
25 20 21 2
26 20 25 1
27 21 22 1
28 22 23 2
29 22 29 1
30 23 24 1
31 23 28 1
32 24 25 2
33 24 26 1
34 26 27 1
35 27 28 1
36 29 30 1
37 3 33 1
38 4 34 1
39 6 35 1
40 7 36 1
41 13 37 1
42 16 38 1
43 17 39 1
44 18 40 1
45 18 41 1
46 19 42 1
47 19 43 1
48 25 44 1
49 27 45 1
50 27 46 1
51 30 47 1
52 30 48 1
53 30 49 1
54 31 50 1
55 31 51 1
56 31 52 1
@<TRIPOS>SUBSTRUCTURE
1	UNK0	1	GROUP	1 ****	UNK
