# created with PyMOL 2.3.2
@<TRIPOS>MOLECULE
1570
35 38 1                 
SMALL
USER_CHARGES
@<TRIPOS>ATOM
1	  Br	5.020	-3.601	2.243	Br	1	UNK0	0.000	
2	   C	3.409	-2.932	1.463	C.2	1	UNK0	0.000	
3	   C	3.069	-3.198	0.154	C.2	1	UNK0	0.000	
4	   C	1.892	-2.684	-0.344	C.2	1	UNK0	0.000	
5	   N	1.304	-2.782	-1.536	N.2	1	UNK0	0.000	
6	   N	0.169	-2.136	-1.571	N.pl3	1	UNK0	0.000	
7	   C	-0.090	-1.536	-0.351	C.2	1	UNK0	0.000	
8	   C	1.010	-1.897	0.408	C.2	1	UNK0	0.000	
9	   C	1.361	-1.646	1.699	C.2	1	UNK0	0.000	
10	   C	2.540	-2.157	2.211	C.2	1	UNK0	0.000	
11	   C	-1.273	-0.779	-0.041	C.2	1	UNK0	0.000	
12	   O	-2.182	-0.830	-1.007	O.2	1	UNK0	0.000	
13	   N	-1.644	-0.004	1.066	N.pl3	1	UNK0	0.000	
14	   C	-2.963	0.715	1.263	C.3	1	UNK0	0.000	
15	   C	-2.346	1.667	2.215	C.3	1	UNK0	0.000	
16	   C	-1.292	0.567	2.326	C.3	1	UNK0	0.000	
17	   N	-1.841	2.900	1.660	N.pl3	1	UNK0	0.000	
18	   N	-1.240	3.872	2.312	N.2	1	UNK0	0.000	
19	   N	-0.912	4.850	1.479	N.2	1	UNK0	0.000	
20	   C	-1.308	4.507	0.262	C.2	1	UNK0	0.000	
21	   C	-1.905	3.255	0.373	C.2	1	UNK0	0.000	
22	   C	-0.722	-2.034	-2.709	C.3	1	UNK0	0.000	
23	   H	3.750	-3.804	-0.423	 H	1	UNK0	0.000	
24	   H	0.698	-1.069	2.306	 H	1	UNK0	0.000	
25	   H	2.781	-1.926	3.256	 H	1	UNK0	0.000	
26	   H	-3.639	-0.017	1.740	 H	1	UNK0	0.000	
27	   H	-3.377	1.105	0.336	 H	1	UNK0	0.000	
28	   H	-2.926	1.778	3.158	 H	1	UNK0	0.000	
29	   H	-1.519	-0.112	3.169	 H	1	UNK0	0.000	
30	   H	-0.268	1.007	2.427	 H	1	UNK0	0.000	
31	   H	-1.222	5.035	-0.679	 H	1	UNK0	0.000	
32	   H	-2.334	2.699	-0.457	 H	1	UNK0	0.000	
33	   H	-0.229	-2.483	-3.598	 H	1	UNK0	0.000	
34	   H	-0.881	-0.957	-2.938	 H	1	UNK0	0.000	
35	   H	-1.699	-2.516	-2.546	 H	1	UNK0	0.000	
@<TRIPOS>BOND
1 1 2 1
2 2 3 2
3 2 10 1
4 3 4 1
5 4 5 2
6 4 8 1
7 5 6 1
8 6 7 1
9 6 22 1
10 7 8 2
11 7 11 1
12 8 9 1
13 9 10 2
14 11 12 2
15 11 13 1
16 13 14 1
17 13 16 1
18 14 15 1
19 15 16 1
20 15 17 1
21 17 18 1
22 17 21 1
23 18 19 2
24 19 20 1
25 20 21 2
26 3 23 1
27 9 24 1
28 10 25 1
29 14 26 1
30 14 27 1
31 15 28 1
32 16 29 1
33 16 30 1
34 20 31 1
35 21 32 1
36 22 33 1
37 22 34 1
38 22 35 1
@<TRIPOS>SUBSTRUCTURE
1	UNK0	1	GROUP	1 ****	UNK
