# created with PyMOL 2.3.2
@<TRIPOS>MOLECULE
1571
46 49 1                 
SMALL
USER_CHARGES
@<TRIPOS>ATOM
1	  Br	5.004	2.524	-3.888	Br	1	UNK0	0.000	
2	   C	3.470	1.430	-3.483	C.2	1	UNK0	0.000	
3	   C	2.396	1.372	-4.339	C.2	1	UNK0	0.000	
4	   N	1.315	0.621	-4.086	N.pl3	1	UNK0	0.000	
5	   C	1.236	-0.127	-2.956	C.2	1	UNK0	0.000	
6	   N	0.183	-0.892	-2.659	N.2	1	UNK0	0.000	
7	   C	-0.889	-0.975	-3.471	C.2	1	UNK0	0.000	
8	   C	-0.845	-0.228	-4.630	C.2	1	UNK0	0.000	
9	   C	0.250	0.559	-4.926	C.2	1	UNK0	0.000	
10	   O	0.331	1.257	-5.975	O.2	1	UNK0	0.000	
11	   C	-2.072	-1.815	-3.168	C.3	1	UNK0	0.000	
12	   O	-3.065	-1.122	-2.465	O.3	1	UNK0	0.000	
13	   C	-2.909	-0.534	-1.231	C.2	1	UNK0	0.000	
14	   O	-1.763	-0.642	-0.709	O.co2	1	UNK0	0.000	
15	   C	-4.009	0.189	-0.538	C.3	1	UNK0	0.000	
16	   N	-3.570	0.724	0.752	N.pl3	1	UNK0	0.000	
17	   C	-3.624	0.076	2.020	C.2	1	UNK0	0.000	
18	   O	-3.892	-1.134	2.226	O.2	1	UNK0	0.000	
19	   C	-3.306	1.084	3.058	C.3	1	UNK0	0.000	
20	   C	-2.359	1.977	2.291	C.3	1	UNK0	0.000	
21	   C	-0.976	1.375	2.136	C.3	1	UNK0	0.000	
22	   C	-0.791	0.109	2.930	C.3	1	UNK0	0.000	
23	   C	-1.301	0.270	4.334	C.3	1	UNK0	0.000	
24	   C	-2.765	0.532	4.313	C.3	1	UNK0	0.000	
25	   C	-3.014	2.010	0.963	C.2	1	UNK0	0.000	
26	   O	-3.079	2.987	0.153	O.2	1	UNK0	0.000	
27	   C	2.306	-0.095	-2.064	C.2	1	UNK0	0.000	
28	   C	3.412	0.682	-2.335	C.2	1	UNK0	0.000	
29	   H	2.436	1.957	-5.241	 H	1	UNK0	0.000	
30	   H	-1.664	-0.229	-5.352	 H	1	UNK0	0.000	
31	   H	-2.493	-2.143	-4.139	 H	1	UNK0	0.000	
32	   H	-1.702	-2.675	-2.554	 H	1	UNK0	0.000	
33	   H	-4.407	1.028	-1.128	 H	1	UNK0	0.000	
34	   H	-4.832	-0.533	-0.384	 H	1	UNK0	0.000	
35	   H	-4.221	1.675	3.242	 H	1	UNK0	0.000	
36	   H	-2.301	2.993	2.747	 H	1	UNK0	0.000	
37	   H	-0.185	2.102	2.463	 H	1	UNK0	0.000	
38	   H	-0.734	1.149	1.086	 H	1	UNK0	0.000	
39	   H	0.319	-0.056	3.026	 H	1	UNK0	0.000	
40	   H	-1.176	-0.791	2.435	 H	1	UNK0	0.000	
41	   H	-0.713	1.094	4.804	 H	1	UNK0	0.000	
42	   H	-1.031	-0.659	4.894	 H	1	UNK0	0.000	
43	   H	-2.986	1.269	5.140	 H	1	UNK0	0.000	
44	   H	-3.353	-0.373	4.587	 H	1	UNK0	0.000	
45	   H	2.252	-0.683	-1.170	 H	1	UNK0	0.000	
46	   H	4.247	0.716	-1.655	 H	1	UNK0	0.000	
@<TRIPOS>BOND
1 1 2 1
2 2 3 2
3 2 28 1
4 3 4 1
5 4 5 1
6 4 9 1
7 5 6 2
8 5 27 1
9 6 7 1
10 7 8 2
11 7 11 1
12 8 9 1
13 9 10 2
14 11 12 1
15 12 13 1
16 13 14 2
17 13 15 1
18 15 16 1
19 16 17 1
20 16 25 1
21 17 18 2
22 17 19 1
23 19 20 1
24 19 24 1
25 20 21 1
26 20 25 1
27 21 22 1
28 22 23 1
29 23 24 1
30 25 26 2
31 27 28 2
32 3 29 1
33 8 30 1
34 11 31 1
35 11 32 1
36 15 33 1
37 15 34 1
38 19 35 1
39 20 36 1
40 21 37 1
41 21 38 1
42 22 39 1
43 22 40 1
44 23 41 1
45 23 42 1
46 24 43 1
47 24 44 1
48 27 45 1
49 28 46 1
@<TRIPOS>SUBSTRUCTURE
1	UNK0	1	GROUP	1 ****	UNK
