# created with PyMOL 2.3.2
@<TRIPOS>MOLECULE
1577
49 52 1                 
SMALL
USER_CHARGES
@<TRIPOS>ATOM
1	  Cl	4.211	1.346	-1.942	Cl	1	UNK0	0.000	
2	   C	3.945	2.606	-0.769	C.2	1	UNK0	0.000	
3	   C	3.469	2.290	0.474	C.2	1	UNK0	0.000	
4	   C	3.275	3.403	1.319	C.2	1	UNK0	0.000	
5	   C	3.538	4.690	0.934	C.2	1	UNK0	0.000	
6	   C	4.015	4.980	-0.316	C.2	1	UNK0	0.000	
7	   C	4.218	3.925	-1.169	C.2	1	UNK0	0.000	
8	   N	3.209	0.991	0.941	N.pl3	1	UNK0	0.000	
9	   C	2.335	0.878	2.134	C.3	1	UNK0	0.000	
10	   C	1.648	-0.458	2.190	C.3	1	UNK0	0.000	
11	   N	1.322	-0.843	0.834	N.pl3	1	UNK0	0.000	
12	   C	2.437	-1.009	-0.081	C.3	1	UNK0	0.000	
13	   C	3.672	-0.272	0.480	C.3	1	UNK0	0.000	
14	   C	-0.030	-1.031	0.489	C.2	1	UNK0	0.000	
15	   O	-0.927	-0.865	1.345	O.2	1	UNK0	0.000	
16	   C	-0.472	-1.426	-0.875	C.3	1	UNK0	0.000	
17	   N	-1.912	-1.550	-0.960	N.pl3	1	UNK0	0.000	
18	   C	-2.815	-0.525	-1.301	C.2	1	UNK0	0.000	
19	   O	-2.469	0.596	-1.752	O.2	1	UNK0	0.000	
20	   C	-4.211	-0.918	-1.069	C.3	1	UNK0	0.000	
21	   C	-4.140	-2.403	-0.966	C.3	1	UNK0	0.000	
22	   C	-4.689	-3.139	-2.147	C.3	1	UNK0	0.000	
23	   C	-4.467	-2.442	-3.439	C.2	1	UNK0	0.000	
24	   C	-4.655	-1.124	-3.497	C.2	1	UNK0	0.000	
25	   C	-5.078	-0.459	-2.232	C.3	1	UNK0	0.000	
26	   C	-2.704	-2.717	-0.719	C.2	1	UNK0	0.000	
27	   O	-2.191	-3.803	-0.357	O.2	1	UNK0	0.000	
28	   H	2.898	3.153	2.316	 H	1	UNK0	0.000	
29	   H	3.369	5.495	1.623	 H	1	UNK0	0.000	
30	   H	4.232	6.001	-0.645	 H	1	UNK0	0.000	
31	   H	4.597	4.138	-2.169	 H	1	UNK0	0.000	
32	   H	1.553	1.669	2.121	 H	1	UNK0	0.000	
33	   H	2.973	0.968	3.034	 H	1	UNK0	0.000	
34	   H	2.324	-1.188	2.684	 H	1	UNK0	0.000	
35	   H	0.741	-0.338	2.808	 H	1	UNK0	0.000	
36	   H	2.205	-0.694	-1.101	 H	1	UNK0	0.000	
37	   H	2.723	-2.083	-0.075	 H	1	UNK0	0.000	
38	   H	4.055	-0.886	1.370	 H	1	UNK0	0.000	
39	   H	4.456	-0.327	-0.244	 H	1	UNK0	0.000	
40	   H	0.041	-2.382	-1.108	 H	1	UNK0	0.000	
41	   H	-0.087	-0.648	-1.580	 H	1	UNK0	0.000	
42	   H	-4.588	-0.412	-0.169	 H	1	UNK0	0.000	
43	   H	-4.752	-2.704	-0.073	 H	1	UNK0	0.000	
44	   H	-5.799	-3.279	-2.044	 H	1	UNK0	0.000	
45	   H	-4.229	-4.146	-2.229	 H	1	UNK0	0.000	
46	   H	-4.160	-2.963	-4.335	 H	1	UNK0	0.000	
47	   H	-4.499	-0.595	-4.431	 H	1	UNK0	0.000	
48	   H	-4.894	0.628	-2.371	 H	1	UNK0	0.000	
49	   H	-6.131	-0.609	-1.992	 H	1	UNK0	0.000	
@<TRIPOS>BOND
1 1 2 1
2 2 3 2
3 2 7 1
4 3 4 1
5 3 8 1
6 4 5 2
7 5 6 1
8 6 7 2
9 8 9 1
10 8 13 1
11 9 10 1
12 10 11 1
13 11 12 1
14 11 14 1
15 12 13 1
16 14 15 2
17 14 16 1
18 16 17 1
19 17 18 1
20 17 26 1
21 18 19 2
22 18 20 1
23 20 21 1
24 20 25 1
25 21 22 1
26 21 26 1
27 22 23 1
28 23 24 2
29 24 25 1
30 26 27 2
31 4 28 1
32 5 29 1
33 6 30 1
34 7 31 1
35 9 32 1
36 9 33 1
37 10 34 1
38 10 35 1
39 12 36 1
40 12 37 1
41 13 38 1
42 13 39 1
43 16 40 1
44 16 41 1
45 20 42 1
46 21 43 1
47 22 44 1
48 22 45 1
49 23 46 1
50 24 47 1
51 25 48 1
52 25 49 1
@<TRIPOS>SUBSTRUCTURE
1	UNK0	1	GROUP	1 ****	UNK
