# created with PyMOL 2.3.2
@<TRIPOS>MOLECULE
1578
50 53 1                 
SMALL
USER_CHARGES
@<TRIPOS>ATOM
1	  Cl	-0.183	4.917	1.410	Cl	1	UNK0	0.000	
2	   C	0.624	3.660	2.332	C.2	1	UNK0	0.000	
3	   C	-0.099	2.592	2.826	C.2	1	UNK0	0.000	
4	   C	0.512	1.596	3.549	C.2	1	UNK0	0.000	
5	   C	1.853	1.625	3.806	C.2	1	UNK0	0.000	
6	   C	2.581	2.709	3.304	C.2	1	UNK0	0.000	
7	   C	1.968	3.713	2.575	C.2	1	UNK0	0.000	
8	   N	-0.276	0.518	4.016	N.pl3	1	UNK0	0.000	
9	   C	-0.790	0.535	5.359	C.2	1	UNK0	0.000	
10	   O	-0.481	1.543	6.067	O.2	1	UNK0	0.000	
11	   N	-1.601	-0.508	5.883	N.pl3	1	UNK0	0.000	
12	   C	-1.949	-1.642	5.086	C.2	1	UNK0	0.000	
13	   O	-2.670	-2.555	5.570	O.2	1	UNK0	0.000	
14	   C	-1.434	-1.675	3.719	C.2	1	UNK0	0.000	
15	   C	-1.761	-2.731	2.958	C.2	1	UNK0	0.000	
16	   N	-1.289	-2.811	1.629	N.pl3	1	UNK0	0.000	
17	   N	-1.999	-2.461	0.486	N.pl3	1	UNK0	0.000	
18	   C	-1.398	-1.845	-0.653	C.2	1	UNK0	0.000	
19	   N	-1.446	-0.542	-0.940	N.pl3	1	UNK0	0.000	
20	   C	-0.733	-0.379	-2.074	C.2	1	UNK0	0.000	
21	   C	-0.229	-1.607	-2.503	C.2	1	UNK0	0.000	
22	   N	-0.656	-2.489	-1.610	N.2	1	UNK0	0.000	
23	   N	0.531	-1.729	-3.619	N.pl3	1	UNK0	0.000	
24	   C	0.781	-0.595	-4.306	C.2	1	UNK0	0.000	
25	   O	1.492	-0.692	-5.355	O.2	1	UNK0	0.000	
26	   N	0.324	0.596	-3.935	N.pl3	1	UNK0	0.000	
27	   C	-0.428	0.730	-2.835	C.2	1	UNK0	0.000	
28	   O	-0.878	1.839	-2.455	O.2	1	UNK0	0.000	
29	   C	0.615	1.789	-4.695	C.3	1	UNK0	0.000	
30	   C	1.016	-3.032	-3.994	C.3	1	UNK0	0.000	
31	   C	-2.096	0.528	-0.256	C.3	1	UNK0	0.000	
32	   C	-0.610	-0.597	3.215	C.2	1	UNK0	0.000	
33	   O	-0.161	-0.618	2.045	O.2	1	UNK0	0.000	
34	   H	-1.180	2.575	2.615	 H	1	UNK0	0.000	
35	   H	2.387	0.875	4.365	 H	1	UNK0	0.000	
36	   H	3.641	2.742	3.499	 H	1	UNK0	0.000	
37	   H	2.529	4.570	2.173	 H	1	UNK0	0.000	
38	   H	-1.970	-0.476	6.869	 H	1	UNK0	0.000	
39	   H	-2.393	-3.525	3.374	 H	1	UNK0	0.000	
40	   H	-0.308	-3.173	1.507	 H	1	UNK0	0.000	
41	   H	-3.015	-2.650	0.454	 H	1	UNK0	0.000	
42	   H	0.109	2.671	-4.317	 H	1	UNK0	0.000	
43	   H	0.375	1.562	-5.754	 H	1	UNK0	0.000	
44	   H	1.736	1.912	-4.669	 H	1	UNK0	0.000	
45	   H	1.828	-2.931	-4.759	 H	1	UNK0	0.000	
46	   H	0.213	-3.634	-4.514	 H	1	UNK0	0.000	
47	   H	1.433	-3.617	-3.155	 H	1	UNK0	0.000	
48	   H	-1.362	1.281	0.084	 H	1	UNK0	0.000	
49	   H	-2.835	1.084	-0.879	 H	1	UNK0	0.000	
50	   H	-2.653	0.192	0.642	 H	1	UNK0	0.000	
@<TRIPOS>BOND
1 1 2 1
2 2 3 2
3 2 7 1
4 3 4 1
5 4 5 2
6 4 8 1
7 5 6 1
8 6 7 2
9 8 9 1
10 8 32 1
11 9 10 2
12 9 11 1
13 11 12 1
14 12 13 2
15 12 14 1
16 14 15 2
17 14 32 1
18 15 16 1
19 16 17 1
20 17 18 1
21 18 19 1
22 18 22 2
23 19 20 1
24 19 31 1
25 20 21 2
26 20 27 1
27 21 22 1
28 21 23 1
29 23 24 1
30 23 30 1
31 24 25 2
32 24 26 1
33 26 27 1
34 26 29 1
35 27 28 2
36 32 33 2
37 3 34 1
38 5 35 1
39 6 36 1
40 7 37 1
41 11 38 1
42 15 39 1
43 16 40 1
44 17 41 1
45 29 42 1
46 29 43 1
47 29 44 1
48 30 45 1
49 30 46 1
50 30 47 1
51 31 48 1
52 31 49 1
53 31 50 1
@<TRIPOS>SUBSTRUCTURE
1	UNK0	1	GROUP	1 ****	UNK
