# created with PyMOL 2.3.2
@<TRIPOS>MOLECULE
1579
64 68 1                 
SMALL
USER_CHARGES
@<TRIPOS>ATOM
1	  Cl	7.052	1.186	-5.430	Cl	1	UNK0	0.000	
2	   C	6.248	0.268	-4.184	C.2	1	UNK0	0.000	
3	   C	4.920	0.495	-3.936	C.2	1	UNK0	0.000	
4	   C	4.200	-0.192	-2.964	C.2	1	UNK0	0.000	
5	   C	4.959	-1.138	-2.262	C.2	1	UNK0	0.000	
6	   C	6.287	-1.372	-2.503	C.2	1	UNK0	0.000	
7	   C	6.959	-0.664	-3.479	C.2	1	UNK0	0.000	
8	   N	2.849	0.021	-2.672	N.pl3	1	UNK0	0.000	
9	   C	2.058	-0.871	-1.866	C.3	1	UNK0	0.000	
10	   C	1.609	-0.113	-0.620	C.3	1	UNK0	0.000	
11	   N	1.757	1.246	-0.681	N.3	1	UNK0	0.000	
12	   C	1.690	1.937	-1.919	C.3	1	UNK0	0.000	
13	   C	2.136	1.174	-3.139	C.3	1	UNK0	0.000	
14	   C	1.939	2.076	0.443	C.3	1	UNK0	0.000	
15	   C	0.836	2.336	1.359	C.2	1	UNK0	0.000	
16	   C	0.425	3.626	1.486	C.2	1	UNK0	0.000	
17	   O	-0.600	3.909	2.332	O.3	1	UNK0	0.000	
18	   C	-1.304	3.037	3.108	C.2	1	UNK0	0.000	
19	   O	-2.164	3.418	3.909	O.co2	1	UNK0	0.000	
20	   C	-1.014	1.582	2.975	C.3	1	UNK0	0.000	
21	   C	0.182	1.318	2.168	C.2	1	UNK0	0.000	
22	   O	0.647	0.152	2.197	O.2	1	UNK0	0.000	
23	   C	-2.236	0.804	2.718	C.3	1	UNK0	0.000	
24	   N	-3.006	1.100	1.555	N.3	1	UNK0	0.000	
25	   C	-4.210	0.371	1.609	C.3	1	UNK0	0.000	
26	   C	-4.609	-0.512	0.507	C.3	1	UNK0	0.000	
27	   N	-3.736	-0.511	-0.633	N.pl3	1	UNK0	0.000	
28	   C	-2.983	0.668	-0.892	C.3	1	UNK0	0.000	
29	   C	-2.265	1.095	0.359	C.3	1	UNK0	0.000	
30	   C	-3.656	-1.648	-1.469	C.2	1	UNK0	0.000	
31	   N	-4.723	-2.153	-2.111	N.2	1	UNK0	0.000	
32	   C	-4.650	-3.250	-2.866	C.2	1	UNK0	0.000	
33	   C	-3.464	-3.935	-3.031	C.2	1	UNK0	0.000	
34	   C	-2.343	-3.421	-2.368	C.2	1	UNK0	0.000	
35	   N	-2.472	-2.312	-1.620	N.2	1	UNK0	0.000	
36	   H	4.372	1.249	-4.528	 H	1	UNK0	0.000	
37	   H	4.432	-1.700	-1.483	 H	1	UNK0	0.000	
38	   H	6.811	-2.106	-1.931	 H	1	UNK0	0.000	
39	   H	8.030	-0.854	-3.676	 H	1	UNK0	0.000	
40	   H	2.469	-1.850	-1.661	 H	1	UNK0	0.000	
41	   H	1.127	-1.069	-2.477	 H	1	UNK0	0.000	
42	   H	2.247	-0.547	0.188	 H	1	UNK0	0.000	
43	   H	0.578	-0.441	-0.435	 H	1	UNK0	0.000	
44	   H	0.637	2.276	-2.106	 H	1	UNK0	0.000	
45	   H	2.303	2.861	-1.855	 H	1	UNK0	0.000	
46	   H	2.659	1.844	-3.809	 H	1	UNK0	0.000	
47	   H	1.230	0.814	-3.725	 H	1	UNK0	0.000	
48	   H	2.368	3.059	0.064	 H	1	UNK0	0.000	
49	   H	2.829	1.683	1.040	 H	1	UNK0	0.000	
50	   H	0.953	4.362	0.890	 H	1	UNK0	0.000	
51	   H	-0.710	1.295	4.053	 H	1	UNK0	0.000	
52	   H	-2.929	0.984	3.596	 H	1	UNK0	0.000	
53	   H	-1.996	-0.286	2.816	 H	1	UNK0	0.000	
54	   H	-5.036	1.139	1.757	 H	1	UNK0	0.000	
55	   H	-4.264	-0.224	2.566	 H	1	UNK0	0.000	
56	   H	-4.715	-1.584	0.842	 H	1	UNK0	0.000	
57	   H	-5.643	-0.273	0.138	 H	1	UNK0	0.000	
58	   H	-2.240	0.493	-1.680	 H	1	UNK0	0.000	
59	   H	-3.654	1.497	-1.246	 H	1	UNK0	0.000	
60	   H	-1.924	2.143	0.174	 H	1	UNK0	0.000	
61	   H	-1.334	0.496	0.399	 H	1	UNK0	0.000	
62	   H	-5.512	-3.667	-3.399	 H	1	UNK0	0.000	
63	   H	-3.367	-4.834	-3.635	 H	1	UNK0	0.000	
64	   H	-1.421	-3.961	-2.498	 H	1	UNK0	0.000	
@<TRIPOS>BOND
1 1 2 1
2 2 3 2
3 2 7 1
4 3 4 1
5 4 5 2
6 4 8 1
7 5 6 1
8 6 7 2
9 8 9 1
10 8 13 1
11 9 10 1
12 10 11 1
13 11 12 1
14 11 14 1
15 12 13 1
16 14 15 1
17 15 16 2
18 15 21 1
19 16 17 1
20 17 18 1
21 18 19 2
22 18 20 1
23 20 21 1
24 20 23 1
25 21 22 2
26 23 24 1
27 24 25 1
28 24 29 1
29 25 26 1
30 26 27 1
31 27 28 1
32 27 30 1
33 28 29 1
34 30 31 2
35 30 35 1
36 31 32 1
37 32 33 2
38 33 34 1
39 34 35 2
40 3 36 1
41 5 37 1
42 6 38 1
43 7 39 1
44 9 40 1
45 9 41 1
46 10 42 1
47 10 43 1
48 12 44 1
49 12 45 1
50 13 46 1
51 13 47 1
52 14 48 1
53 14 49 1
54 16 50 1
55 20 51 1
56 23 52 1
57 23 53 1
58 25 54 1
59 25 55 1
60 26 56 1
61 26 57 1
62 28 58 1
63 28 59 1
64 29 60 1
65 29 61 1
66 32 62 1
67 33 63 1
68 34 64 1
@<TRIPOS>SUBSTRUCTURE
1	UNK0	1	GROUP	1 ****	UNK
