# created with PyMOL 2.3.2
@<TRIPOS>MOLECULE
1580
55 58 1                 
SMALL
USER_CHARGES
@<TRIPOS>ATOM
1	  Cl	5.038	-0.682	0.725	Cl	1	UNK0	0.000	
2	   C	3.646	-1.729	0.436	C.2	1	UNK0	0.000	
3	   C	2.759	-1.318	-0.537	C.2	1	UNK0	0.000	
4	   C	1.640	-2.056	-0.841	C.2	1	UNK0	0.000	
5	   C	1.455	-3.248	-0.105	C.2	1	UNK0	0.000	
6	   C	2.328	-3.667	0.862	C.2	1	UNK0	0.000	
7	   C	3.437	-2.896	1.135	C.2	1	UNK0	0.000	
8	   N	0.689	-1.719	-1.826	N.pl3	1	UNK0	0.000	
9	   C	-0.579	-2.428	-1.894	C.3	1	UNK0	0.000	
10	   C	-1.601	-1.575	-2.670	C.3	1	UNK0	0.000	
11	   N	-1.441	-0.248	-2.219	N.3	1	UNK0	0.000	
12	   C	-0.211	0.284	-2.751	C.3	1	UNK0	0.000	
13	   C	0.930	-0.701	-2.794	C.3	1	UNK0	0.000	
14	   C	-2.465	0.671	-2.491	C.3	1	UNK0	0.000	
15	   C	-3.773	0.558	-1.814	C.3	1	UNK0	0.000	
16	   C	-4.609	1.679	-2.347	C.2	1	UNK0	0.000	
17	   O	-5.561	1.455	-3.073	O.co2	1	UNK0	0.000	
18	   O	-4.223	2.932	-1.961	O.3	1	UNK0	0.000	
19	   C	-3.577	3.223	-0.778	C.2	1	UNK0	0.000	
20	   C	-3.316	2.158	0.057	C.2	1	UNK0	0.000	
21	   C	-3.730	0.848	-0.349	C.2	1	UNK0	0.000	
22	   O	-4.048	-0.026	0.442	O.2	1	UNK0	0.000	
23	   C	-2.620	2.480	1.306	C.3	1	UNK0	0.000	
24	   N	-1.352	1.855	1.465	N.3	1	UNK0	0.000	
25	   C	-0.606	2.749	2.432	C.3	1	UNK0	0.000	
26	   C	0.613	1.971	2.832	C.3	1	UNK0	0.000	
27	   O	0.933	0.977	1.940	O.3	1	UNK0	0.000	
28	   C	-0.009	-0.052	1.883	C.3	1	UNK0	0.000	
29	   C	-1.360	0.605	2.212	C.3	1	UNK0	0.000	
30	   H	2.948	-0.384	-1.077	 H	1	UNK0	0.000	
31	   H	0.591	-3.875	-0.298	 H	1	UNK0	0.000	
32	   H	2.180	-4.583	1.422	 H	1	UNK0	0.000	
33	   H	4.163	-3.168	1.879	 H	1	UNK0	0.000	
34	   H	-0.377	-3.363	-2.439	 H	1	UNK0	0.000	
35	   H	-0.953	-2.674	-0.898	 H	1	UNK0	0.000	
36	   H	-1.334	-1.684	-3.767	 H	1	UNK0	0.000	
37	   H	-2.561	-2.058	-2.535	 H	1	UNK0	0.000	
38	   H	0.098	1.240	-2.277	 H	1	UNK0	0.000	
39	   H	-0.423	0.565	-3.824	 H	1	UNK0	0.000	
40	   H	1.911	-0.201	-2.740	 H	1	UNK0	0.000	
41	   H	0.957	-1.229	-3.796	 H	1	UNK0	0.000	
42	   H	-2.655	0.622	-3.607	 H	1	UNK0	0.000	
43	   H	-2.043	1.709	-2.350	 H	1	UNK0	0.000	
44	   H	-4.280	-0.382	-2.070	 H	1	UNK0	0.000	
45	   H	-3.294	4.220	-0.524	 H	1	UNK0	0.000	
46	   H	-3.312	2.138	2.144	 H	1	UNK0	0.000	
47	   H	-2.512	3.585	1.455	 H	1	UNK0	0.000	
48	   H	-0.349	3.628	1.835	 H	1	UNK0	0.000	
49	   H	-1.306	2.963	3.249	 H	1	UNK0	0.000	
50	   H	0.510	1.619	3.883	 H	1	UNK0	0.000	
51	   H	1.501	2.674	2.831	 H	1	UNK0	0.000	
52	   H	-0.043	-0.404	0.838	 H	1	UNK0	0.000	
53	   H	0.198	-0.875	2.589	 H	1	UNK0	0.000	
54	   H	-1.283	0.803	3.324	 H	1	UNK0	0.000	
55	   H	-2.174	-0.061	2.074	 H	1	UNK0	0.000	
@<TRIPOS>BOND
1 1 2 1
2 2 3 2
3 2 7 1
4 3 4 1
5 4 5 2
6 4 8 1
7 5 6 1
8 6 7 2
9 8 9 1
10 8 13 1
11 9 10 1
12 10 11 1
13 11 12 1
14 11 14 1
15 12 13 1
16 14 15 1
17 15 16 1
18 15 21 1
19 16 17 2
20 16 18 1
21 18 19 1
22 19 20 2
23 20 21 1
24 20 23 1
25 21 22 2
26 23 24 1
27 24 25 1
28 24 29 1
29 25 26 1
30 26 27 1
31 27 28 1
32 28 29 1
33 3 30 1
34 5 31 1
35 6 32 1
36 7 33 1
37 9 34 1
38 9 35 1
39 10 36 1
40 10 37 1
41 12 38 1
42 12 39 1
43 13 40 1
44 13 41 1
45 14 42 1
46 14 43 1
47 15 44 1
48 19 45 1
49 23 46 1
50 23 47 1
51 25 48 1
52 25 49 1
53 26 50 1
54 26 51 1
55 28 52 1
56 28 53 1
57 29 54 1
58 29 55 1
@<TRIPOS>SUBSTRUCTURE
1	UNK0	1	GROUP	1 ****	UNK
