# created with PyMOL 2.3.2
@<TRIPOS>MOLECULE
1582
55 58 1                 
SMALL
USER_CHARGES
@<TRIPOS>ATOM
1	   S	1.701	2.920	-1.986	S.O2	1	UNK0	0.000	
2	   O	3.087	3.485	-1.706	O.2	1	UNK0	0.000	
3	   O	0.942	4.020	-2.689	O.2	1	UNK0	0.000	
4	   N	1.809	1.509	-2.905	N.3	1	UNK0	0.000	
5	   C	1.136	1.469	-4.148	C.3	1	UNK0	0.000	
6	   C	1.531	0.277	-5.000	C.3	1	UNK0	0.000	
7	   N	1.479	-0.953	-4.238	N.3	1	UNK0	0.000	
8	   C	0.835	-0.681	-2.965	C.3	1	UNK0	0.000	
9	   C	1.730	0.276	-2.215	C.3	1	UNK0	0.000	
10	   C	0.867	-2.031	-4.958	C.3	1	UNK0	0.000	
11	   C	0.866	-3.258	-4.070	C.3	1	UNK0	0.000	
12	   C	0.913	2.714	-0.430	C.2	1	UNK0	0.000	
13	   C	1.633	2.930	0.754	C.2	1	UNK0	0.000	
14	   C	1.033	2.758	1.976	C.2	1	UNK0	0.000	
15	   C	-0.282	2.373	2.118	C.2	1	UNK0	0.000	
16	   C	-1.004	2.157	0.970	C.2	1	UNK0	0.000	
17	   C	-0.399	2.330	-0.280	C.2	1	UNK0	0.000	
18	  Cl	-1.379	2.056	-1.685	Cl	1	UNK0	0.000	
19	   N	-0.916	2.191	3.378	N.pl3	1	UNK0	0.000	
20	   C	-0.114	2.429	4.532	C.2	1	UNK0	0.000	
21	   O	-0.637	2.497	5.674	O.2	1	UNK0	0.000	
22	   C	1.374	2.606	4.417	C.3	1	UNK0	0.000	
23	   O	1.772	2.979	3.134	O.3	1	UNK0	0.000	
24	   C	-2.270	1.795	3.558	C.3	1	UNK0	0.000	
25	   C	-2.323	0.303	3.614	C.2	1	UNK0	0.000	
26	   N	-2.223	-0.505	4.695	N.2	1	UNK0	0.000	
27	   O	-2.322	-1.758	4.288	O.3	1	UNK0	0.000	
28	   C	-2.482	-1.810	3.001	C.2	1	UNK0	0.000	
29	   N	-2.483	-0.538	2.577	N.2	1	UNK0	0.000	
30	   C	-2.640	-2.966	2.083	C.3	1	UNK0	0.000	
31	   C	-1.240	-3.386	1.618	C.3	1	UNK0	0.000	
32	   H	0.052	1.580	-4.157	 H	1	UNK0	0.000	
33	   H	1.517	2.358	-4.743	 H	1	UNK0	0.000	
34	   H	2.525	0.470	-5.442	 H	1	UNK0	0.000	
35	   H	0.799	0.208	-5.818	 H	1	UNK0	0.000	
36	   H	-0.139	-0.211	-3.203	 H	1	UNK0	0.000	
37	   H	0.659	-1.612	-2.389	 H	1	UNK0	0.000	
38	   H	1.457	0.359	-1.145	 H	1	UNK0	0.000	
39	   H	2.756	-0.178	-2.214	 H	1	UNK0	0.000	
40	   H	1.509	-2.246	-5.839	 H	1	UNK0	0.000	
41	   H	-0.156	-1.750	-5.226	 H	1	UNK0	0.000	
42	   H	0.812	-4.206	-4.668	 H	1	UNK0	0.000	
43	   H	-0.018	-3.275	-3.396	 H	1	UNK0	0.000	
44	   H	1.758	-3.333	-3.435	 H	1	UNK0	0.000	
45	   H	2.659	3.230	0.627	 H	1	UNK0	0.000	
46	   H	-2.032	1.855	1.068	 H	1	UNK0	0.000	
47	   H	1.805	1.600	4.631	 H	1	UNK0	0.000	
48	   H	1.725	3.301	5.207	 H	1	UNK0	0.000	
49	   H	-2.995	2.110	2.832	 H	1	UNK0	0.000	
50	   H	-2.649	2.128	4.567	 H	1	UNK0	0.000	
51	   H	-3.217	-2.720	1.189	 H	1	UNK0	0.000	
52	   H	-3.033	-3.814	2.674	 H	1	UNK0	0.000	
53	   H	-0.503	-3.254	2.437	 H	1	UNK0	0.000	
54	   H	-0.937	-2.854	0.704	 H	1	UNK0	0.000	
55	   H	-1.296	-4.460	1.389	 H	1	UNK0	0.000	
@<TRIPOS>BOND
1 1 2 2
2 1 3 2
3 1 4 1
4 1 12 1
5 4 5 1
6 4 9 1
7 5 6 1
8 6 7 1
9 7 8 1
10 7 10 1
11 8 9 1
12 10 11 1
13 12 13 2
14 12 17 1
15 13 14 1
16 14 15 2
17 14 23 1
18 15 16 1
19 15 19 1
20 16 17 2
21 17 18 1
22 19 20 1
23 19 24 1
24 20 21 2
25 20 22 1
26 22 23 1
27 24 25 1
28 25 26 2
29 25 29 1
30 26 27 1
31 27 28 1
32 28 29 2
33 28 30 1
34 30 31 1
35 5 32 1
36 5 33 1
37 6 34 1
38 6 35 1
39 8 36 1
40 8 37 1
41 9 38 1
42 9 39 1
43 10 40 1
44 10 41 1
45 11 42 1
46 11 43 1
47 11 44 1
48 13 45 1
49 16 46 1
50 22 47 1
51 22 48 1
52 24 49 1
53 24 50 1
54 30 51 1
55 30 52 1
56 31 53 1
57 31 54 1
58 31 55 1
@<TRIPOS>SUBSTRUCTURE
1	UNK0	1	GROUP	1 ****	UNK
