# created with PyMOL 2.3.2
@<TRIPOS>MOLECULE
1583
40 43 1                 
SMALL
USER_CHARGES
@<TRIPOS>ATOM
1	  Cl	4.848	-3.476	-2.216	Cl	1	UNK0	0.000	
2	   C	5.025	-2.250	-0.976	C.2	1	UNK0	0.000	
3	   C	3.851	-1.784	-0.375	C.2	1	UNK0	0.000	
4	   N	3.893	-0.839	0.589	N.pl3	1	UNK0	0.000	
5	   C	5.115	-0.373	0.940	C.2	1	UNK0	0.000	
6	   N	4.868	0.542	1.911	N.2	1	UNK0	0.000	
7	   N	3.580	0.621	2.130	N.2	1	UNK0	0.000	
8	   C	2.914	-0.254	1.297	C.2	1	UNK0	0.000	
9	   N	1.503	-0.394	1.268	N.pl3	1	UNK0	0.000	
10	   C	0.741	0.336	2.311	C.3	1	UNK0	0.000	
11	   C	-0.271	1.261	1.720	C.3	1	UNK0	0.000	
12	   N	-0.715	0.698	0.453	N.pl3	1	UNK0	0.000	
13	   C	-0.740	-0.770	0.386	C.3	1	UNK0	0.000	
14	   C	0.751	-1.162	0.304	C.3	1	UNK0	0.000	
15	   C	-1.096	1.513	-0.637	C.2	1	UNK0	0.000	
16	   O	-1.044	2.761	-0.471	O.2	1	UNK0	0.000	
17	   C	-1.540	0.975	-1.927	C.3	1	UNK0	0.000	
18	   C	-1.898	2.060	-2.933	C.3	1	UNK0	0.000	
19	   C	-3.323	1.970	-2.407	C.3	1	UNK0	0.000	
20	   C	-2.990	0.548	-1.949	C.3	1	UNK0	0.000	
21	   C	6.298	-0.801	0.377	C.2	1	UNK0	0.000	
22	   C	6.258	-1.763	-0.605	C.2	1	UNK0	0.000	
23	   H	2.894	-2.184	-0.676	 H	1	UNK0	0.000	
24	   H	0.264	-0.414	2.986	 H	1	UNK0	0.000	
25	   H	1.432	0.913	2.947	 H	1	UNK0	0.000	
26	   H	-1.141	1.341	2.426	 H	1	UNK0	0.000	
27	   H	0.151	2.282	1.532	 H	1	UNK0	0.000	
28	   H	-1.311	-1.152	-0.467	 H	1	UNK0	0.000	
29	   H	-1.082	-1.176	1.358	 H	1	UNK0	0.000	
30	   H	0.856	-2.250	0.399	 H	1	UNK0	0.000	
31	   H	1.047	-0.852	-0.716	 H	1	UNK0	0.000	
32	   H	-0.849	0.220	-2.389	 H	1	UNK0	0.000	
33	   H	-1.838	1.731	-3.978	 H	1	UNK0	0.000	
34	   H	-1.391	3.010	-2.719	 H	1	UNK0	0.000	
35	   H	-3.481	2.643	-1.551	 H	1	UNK0	0.000	
36	   H	-4.114	2.009	-3.180	 H	1	UNK0	0.000	
37	   H	-3.203	-0.160	-2.800	 H	1	UNK0	0.000	
38	   H	-3.431	0.261	-0.985	 H	1	UNK0	0.000	
39	   H	7.267	-0.421	0.665	 H	1	UNK0	0.000	
40	   H	7.160	-2.130	-1.075	 H	1	UNK0	0.000	
@<TRIPOS>BOND
1 1 2 1
2 2 3 2
3 2 22 1
4 3 4 1
5 4 5 1
6 4 8 1
7 5 6 2
8 5 21 1
9 6 7 1
10 7 8 2
11 8 9 1
12 9 10 1
13 9 14 1
14 10 11 1
15 11 12 1
16 12 13 1
17 12 15 1
18 13 14 1
19 15 16 2
20 15 17 1
21 17 18 1
22 17 20 1
23 18 19 1
24 19 20 1
25 21 22 2
26 3 23 1
27 10 24 1
28 10 25 1
29 11 26 1
30 11 27 1
31 13 28 1
32 13 29 1
33 14 30 1
34 14 31 1
35 17 32 1
36 18 33 1
37 18 34 1
38 19 35 1
39 19 36 1
40 20 37 1
41 20 38 1
42 21 39 1
43 22 40 1
@<TRIPOS>SUBSTRUCTURE
1	UNK0	1	GROUP	1 ****	UNK
