# created with PyMOL 2.3.2
@<TRIPOS>MOLECULE
1584
48 51 1                 
SMALL
USER_CHARGES
@<TRIPOS>ATOM
1	  Br	-0.429	3.030	5.232	Br	1	UNK0	0.000	
2	   C	-1.265	2.841	3.522	C.2	1	UNK0	0.000	
3	   C	-1.193	1.663	2.813	C.2	1	UNK0	0.000	
4	   C	-1.758	1.444	1.591	C.2	1	UNK0	0.000	
5	   C	-2.457	2.557	1.073	C.2	1	UNK0	0.000	
6	   C	-2.536	3.740	1.771	C.2	1	UNK0	0.000	
7	   C	-1.946	3.906	3.002	C.2	1	UNK0	0.000	
8	   O	-3.068	2.437	-0.165	O.3	1	UNK0	0.000	
9	   C	-3.786	3.460	-0.784	C.3	1	UNK0	0.000	
10	   C	-1.724	0.279	0.766	C.2	1	UNK0	0.000	
11	   N	-0.803	-0.503	0.235	N.pl3	1	UNK0	0.000	
12	   C	-1.398	-1.487	-0.470	C.2	1	UNK0	0.000	
13	   N	-2.720	-1.286	-0.365	N.2	1	UNK0	0.000	
14	   N	-2.949	-0.241	0.365	N.2	1	UNK0	0.000	
15	   N	-0.484	-2.310	-1.034	N.pl3	1	UNK0	0.000	
16	   C	0.726	-1.830	-0.679	C.2	1	UNK0	0.000	
17	   C	0.514	-0.693	0.115	C.2	1	UNK0	0.000	
18	   N	1.596	-0.053	0.556	N.pl3	1	UNK0	0.000	
19	   C	2.835	-0.528	0.228	C.2	1	UNK0	0.000	
20	   O	3.837	0.114	0.675	O.2	1	UNK0	0.000	
21	   N	3.059	-1.606	-0.517	N.pl3	1	UNK0	0.000	
22	   C	2.003	-2.270	-0.981	C.2	1	UNK0	0.000	
23	   O	2.148	-3.295	-1.693	O.2	1	UNK0	0.000	
24	   C	4.429	-2.046	-0.817	C.3	1	UNK0	0.000	
25	   C	1.515	1.175	1.308	C.3	1	UNK0	0.000	
26	   C	-0.791	-3.475	-1.782	C.3	1	UNK0	0.000	
27	   C	-1.112	-3.338	-3.206	C.3	1	UNK0	0.000	
28	   O	-0.296	-2.830	-4.116	O.3	1	UNK0	0.000	
29	   C	0.122	-1.551	-4.144	C.3	1	UNK0	0.000	
30	   H	-0.659	0.809	3.247	 H	1	UNK0	0.000	
31	   H	-3.073	4.610	1.383	 H	1	UNK0	0.000	
32	   H	-1.992	4.820	3.571	 H	1	UNK0	0.000	
33	   H	-3.836	3.223	-1.880	 H	1	UNK0	0.000	
34	   H	-3.373	4.461	-0.629	 H	1	UNK0	0.000	
35	   H	-4.858	3.372	-0.440	 H	1	UNK0	0.000	
36	   H	4.359	-2.912	-1.509	 H	1	UNK0	0.000	
37	   H	5.035	-1.227	-1.217	 H	1	UNK0	0.000	
38	   H	4.898	-2.408	0.132	 H	1	UNK0	0.000	
39	   H	1.489	0.987	2.377	 H	1	UNK0	0.000	
40	   H	2.542	1.688	1.145	 H	1	UNK0	0.000	
41	   H	0.846	1.915	0.877	 H	1	UNK0	0.000	
42	   H	0.024	-4.238	-1.590	 H	1	UNK0	0.000	
43	   H	-1.675	-3.968	-1.247	 H	1	UNK0	0.000	
44	   H	-2.147	-2.810	-3.253	 H	1	UNK0	0.000	
45	   H	-1.409	-4.386	-3.588	 H	1	UNK0	0.000	
46	   H	0.781	-1.445	-5.078	 H	1	UNK0	0.000	
47	   H	-0.700	-0.818	-4.336	 H	1	UNK0	0.000	
48	   H	0.790	-1.230	-3.345	 H	1	UNK0	0.000	
@<TRIPOS>BOND
1 1 2 1
2 2 3 2
3 2 7 1
4 3 4 1
5 4 5 2
6 4 10 1
7 5 6 1
8 5 8 1
9 6 7 2
10 8 9 1
11 10 11 1
12 10 14 2
13 11 12 1
14 11 17 1
15 12 13 2
16 12 15 1
17 13 14 1
18 15 16 1
19 15 26 1
20 16 17 2
21 16 22 1
22 17 18 1
23 18 19 1
24 18 25 1
25 19 20 2
26 19 21 1
27 21 22 1
28 21 24 1
29 22 23 2
30 26 27 1
31 27 28 1
32 28 29 1
33 3 30 1
34 6 31 1
35 7 32 1
36 9 33 1
37 9 34 1
38 9 35 1
39 24 36 1
40 24 37 1
41 24 38 1
42 25 39 1
43 25 40 1
44 25 41 1
45 26 42 1
46 26 43 1
47 27 44 1
48 27 45 1
49 29 46 1
50 29 47 1
51 29 48 1
@<TRIPOS>SUBSTRUCTURE
1	UNK0	1	GROUP	1 ****	UNK
