# created with PyMOL 2.3.2
@<TRIPOS>MOLECULE
1585
62 65 1                 
SMALL
USER_CHARGES
@<TRIPOS>ATOM
1	  Cl	3.424	4.353	-5.846	Cl	1	UNK0	0.000	
2	   C	3.329	3.355	-4.421	C.2	1	UNK0	0.000	
3	   C	3.940	3.789	-3.266	C.2	1	UNK0	0.000	
4	   C	3.876	3.020	-2.139	C.2	1	UNK0	0.000	
5	   C	3.207	1.789	-2.100	C.2	1	UNK0	0.000	
6	   C	2.609	1.388	-3.272	C.2	1	UNK0	0.000	
7	   C	2.669	2.153	-4.406	C.2	1	UNK0	0.000	
8	   O	3.203	1.122	-0.969	O.3	1	UNK0	0.000	
9	   C	2.837	0.072	-0.267	C.3	1	UNK0	0.000	
10	   C	1.373	-0.233	0.013	C.3	1	UNK0	0.000	
11	   O	0.701	-0.396	-1.156	O.3	1	UNK0	0.000	
12	   C	-0.101	0.683	-1.454	C.3	1	UNK0	0.000	
13	   C	-1.291	0.785	-0.480	C.3	1	UNK0	0.000	
14	   N	-0.685	0.942	0.820	N.pl3	1	UNK0	0.000	
15	   C	0.760	0.841	0.857	C.3	1	UNK0	0.000	
16	   C	-1.453	1.180	1.969	C.2	1	UNK0	0.000	
17	   O	-0.757	1.316	3.044	O.2	1	UNK0	0.000	
18	   C	-2.880	1.286	2.087	C.2	1	UNK0	0.000	
19	   N	-3.498	1.544	3.279	N.pl3	1	UNK0	0.000	
20	   N	-4.798	1.578	3.108	N.2	1	UNK0	0.000	
21	   C	-5.093	1.349	1.830	C.2	1	UNK0	0.000	
22	   C	-3.892	1.164	1.179	C.2	1	UNK0	0.000	
23	   C	-2.845	1.758	4.582	C.3	1	UNK0	0.000	
24	   C	1.412	-1.508	0.850	C.3	1	UNK0	0.000	
25	   C	0.115	-2.031	1.254	C.2	1	UNK0	0.000	
26	   O	-0.394	-1.767	2.372	O.2	1	UNK0	0.000	
27	   N	-0.625	-2.870	0.382	N.pl3	1	UNK0	0.000	
28	   C	-0.120	-3.242	-0.927	C.3	1	UNK0	0.000	
29	   C	-0.500	-4.714	-1.139	C.3	1	UNK0	0.000	
30	   O	-0.693	-5.336	0.100	O.3	1	UNK0	0.000	
31	   C	-1.888	-4.897	0.683	C.3	1	UNK0	0.000	
32	   C	-1.928	-3.387	0.778	C.3	1	UNK0	0.000	
33	   C	4.671	5.107	-3.260	C.3	1	UNK0	0.000	
34	   H	4.376	3.405	-1.245	 H	1	UNK0	0.000	
35	   H	2.074	0.443	-3.334	 H	1	UNK0	0.000	
36	   H	2.190	1.809	-5.304	 H	1	UNK0	0.000	
37	   H	3.322	-0.017	0.762	 H	1	UNK0	0.000	
38	   H	3.227	-0.875	-0.767	 H	1	UNK0	0.000	
39	   H	-0.574	0.578	-2.456	 H	1	UNK0	0.000	
40	   H	0.405	1.668	-1.380	 H	1	UNK0	0.000	
41	   H	-1.869	1.707	-0.730	 H	1	UNK0	0.000	
42	   H	-1.895	-0.099	-0.626	 H	1	UNK0	0.000	
43	   H	1.178	1.825	0.494	 H	1	UNK0	0.000	
44	   H	1.083	0.793	1.919	 H	1	UNK0	0.000	
45	   H	-6.080	1.313	1.373	 H	1	UNK0	0.000	
46	   H	-3.822	0.959	0.151	 H	1	UNK0	0.000	
47	   H	-3.596	1.913	5.372	 H	1	UNK0	0.000	
48	   H	-2.117	2.589	4.514	 H	1	UNK0	0.000	
49	   H	-2.251	0.815	4.760	 H	1	UNK0	0.000	
50	   H	2.002	-1.194	1.768	 H	1	UNK0	0.000	
51	   H	2.101	-2.273	0.386	 H	1	UNK0	0.000	
52	   H	0.960	-3.119	-1.049	 H	1	UNK0	0.000	
53	   H	-0.680	-2.693	-1.719	 H	1	UNK0	0.000	
54	   H	0.314	-5.272	-1.642	 H	1	UNK0	0.000	
55	   H	-1.397	-4.824	-1.755	 H	1	UNK0	0.000	
56	   H	-1.927	-5.328	1.706	 H	1	UNK0	0.000	
57	   H	-2.757	-5.210	0.058	 H	1	UNK0	0.000	
58	   H	-2.671	-2.930	0.099	 H	1	UNK0	0.000	
59	   H	-2.159	-3.084	1.812	 H	1	UNK0	0.000	
60	   H	5.754	4.926	-3.380	 H	1	UNK0	0.000	
61	   H	4.437	5.650	-2.340	 H	1	UNK0	0.000	
62	   H	4.329	5.691	-4.118	 H	1	UNK0	0.000	
@<TRIPOS>BOND
1 1 2 1
2 2 3 2
3 2 7 1
4 3 4 1
5 3 33 1
6 4 5 2
7 5 6 1
8 5 8 1
9 6 7 2
10 8 9 1
11 9 10 1
12 10 11 1
13 10 15 1
14 10 24 1
15 11 12 1
16 12 13 1
17 13 14 1
18 14 15 1
19 14 16 1
20 16 17 2
21 16 18 1
22 18 19 1
23 18 22 2
24 19 20 1
25 19 23 1
26 20 21 2
27 21 22 1
28 24 25 1
29 25 26 2
30 25 27 1
31 27 28 1
32 27 32 1
33 28 29 1
34 29 30 1
35 30 31 1
36 31 32 1
37 4 34 1
38 6 35 1
39 7 36 1
40 9 37 1
41 9 38 1
42 12 39 1
43 12 40 1
44 13 41 1
45 13 42 1
46 15 43 1
47 15 44 1
48 21 45 1
49 22 46 1
50 23 47 1
51 23 48 1
52 23 49 1
53 24 50 1
54 24 51 1
55 28 52 1
56 28 53 1
57 29 54 1
58 29 55 1
59 31 56 1
60 31 57 1
61 32 58 1
62 32 59 1
63 33 60 1
64 33 61 1
65 33 62 1
@<TRIPOS>SUBSTRUCTURE
1	UNK0	1	GROUP	1 ****	UNK
