# created with PyMOL 2.3.2
@<TRIPOS>MOLECULE
1592
40 43 1                 
SMALL
USER_CHARGES
@<TRIPOS>ATOM
1	  Cl	1.689	-4.546	5.572	Cl	1	UNK0	0.000	
2	   C	1.757	-3.428	4.236	C.2	1	UNK0	0.000	
3	   C	1.235	-3.762	3.007	C.2	1	UNK0	0.000	
4	   N	1.268	-2.925	1.950	N.pl3	1	UNK0	0.000	
5	   C	1.834	-1.713	2.101	C.2	1	UNK0	0.000	
6	   N	1.751	-1.064	0.928	N.2	1	UNK0	0.000	
7	   C	1.135	-1.848	0.024	C.2	1	UNK0	0.000	
8	   C	0.833	-3.027	0.684	C.2	1	UNK0	0.000	
9	   C	0.825	-1.574	-1.364	C.2	1	UNK0	0.000	
10	   O	0.243	-2.442	-2.047	O.2	1	UNK0	0.000	
11	   N	1.175	-0.316	-1.975	N.pl3	1	UNK0	0.000	
12	   C	0.818	-0.172	-3.345	C.3	1	UNK0	0.000	
13	   C	0.106	1.064	-3.738	C.3	1	UNK0	0.000	
14	   C	-0.364	1.964	-2.659	C.3	1	UNK0	0.000	
15	   O	-1.110	3.015	-3.298	O.3	1	UNK0	0.000	
16	   C	-2.357	3.133	-2.737	C.2	1	UNK0	0.000	
17	   O	-3.098	4.135	-2.818	O.co2	1	UNK0	0.000	
18	   N	-2.638	1.926	-2.064	N.pl3	1	UNK0	0.000	
19	   C	-1.362	1.307	-1.739	C.3	1	UNK0	0.000	
20	   C	0.715	2.639	-1.873	C.3	1	UNK0	0.000	
21	   C	2.033	1.901	-1.924	C.3	1	UNK0	0.000	
22	   C	1.844	0.635	-1.118	C.3	1	UNK0	0.000	
23	   N	2.346	-1.370	3.284	N.2	1	UNK0	0.000	
24	   C	2.334	-2.175	4.365	C.2	1	UNK0	0.000	
25	   H	0.779	-4.727	2.873	 H	1	UNK0	0.000	
26	   H	0.336	-3.898	0.282	 H	1	UNK0	0.000	
27	   H	0.286	-1.101	-3.696	 H	1	UNK0	0.000	
28	   H	1.789	-0.192	-3.927	 H	1	UNK0	0.000	
29	   H	0.682	1.689	-4.485	 H	1	UNK0	0.000	
30	   H	-0.812	0.759	-4.325	 H	1	UNK0	0.000	
31	   H	-3.563	1.506	-1.818	 H	1	UNK0	0.000	
32	   H	-1.387	0.212	-1.927	 H	1	UNK0	0.000	
33	   H	-1.139	1.556	-0.682	 H	1	UNK0	0.000	
34	   H	0.904	3.678	-2.216	 H	1	UNK0	0.000	
35	   H	0.378	2.720	-0.812	 H	1	UNK0	0.000	
36	   H	2.201	1.587	-2.979	 H	1	UNK0	0.000	
37	   H	2.875	2.504	-1.588	 H	1	UNK0	0.000	
38	   H	2.812	0.251	-0.737	 H	1	UNK0	0.000	
39	   H	1.121	0.861	-0.285	 H	1	UNK0	0.000	
40	   H	2.757	-1.854	5.292	 H	1	UNK0	0.000	
@<TRIPOS>BOND
1 1 2 1
2 2 3 2
3 2 24 1
4 3 4 1
5 4 5 1
6 4 8 1
7 5 6 2
8 5 23 1
9 6 7 1
10 7 8 2
11 7 9 1
12 9 10 2
13 9 11 1
14 11 12 1
15 11 22 1
16 12 13 1
17 13 14 1
18 14 15 1
19 14 19 1
20 14 20 1
21 15 16 1
22 16 17 2
23 16 18 1
24 18 19 1
25 20 21 1
26 21 22 1
27 23 24 2
28 3 25 1
29 8 26 1
30 12 27 1
31 12 28 1
32 13 29 1
33 13 30 1
34 18 31 1
35 19 32 1
36 19 33 1
37 20 34 1
38 20 35 1
39 21 36 1
40 21 37 1
41 22 38 1
42 22 39 1
43 24 40 1
@<TRIPOS>SUBSTRUCTURE
1	UNK0	1	GROUP	1 ****	UNK
