# created with PyMOL 2.3.2
@<TRIPOS>MOLECULE
1593
43 46 1                 
SMALL
USER_CHARGES
@<TRIPOS>ATOM
1	  Cl	-1.435	-1.427	-7.905	Cl	1	UNK0	0.000	
2	   C	-1.073	-0.883	-6.288	C.2	1	UNK0	0.000	
3	   C	-2.098	-0.745	-5.378	C.2	1	UNK0	0.000	
4	   N	-1.873	-0.326	-4.107	N.pl3	1	UNK0	0.000	
5	   C	-0.613	-0.029	-3.697	C.2	1	UNK0	0.000	
6	   N	-0.683	0.356	-2.405	N.2	1	UNK0	0.000	
7	   C	-1.950	0.315	-1.973	C.2	1	UNK0	0.000	
8	   C	-2.691	-0.115	-3.050	C.2	1	UNK0	0.000	
9	   C	-2.376	0.665	-0.636	C.2	1	UNK0	0.000	
10	   O	-3.606	0.575	-0.389	O.2	1	UNK0	0.000	
11	   N	-1.513	1.099	0.406	N.pl3	1	UNK0	0.000	
12	   C	-2.104	1.419	1.691	C.3	1	UNK0	0.000	
13	   C	-1.401	2.659	2.278	C.3	1	UNK0	0.000	
14	   C	0.004	2.207	2.459	C.2	1	UNK0	0.000	
15	   C	0.577	1.516	1.430	C.2	1	UNK0	0.000	
16	   N	1.869	1.116	1.652	N.2	1	UNK0	0.000	
17	   C	2.523	1.382	2.796	C.2	1	UNK0	0.000	
18	   N	1.905	2.077	3.794	N.2	1	UNK0	0.000	
19	   C	0.643	2.503	3.653	C.2	1	UNK0	0.000	
20	   O	0.030	3.209	4.680	O.3	1	UNK0	0.000	
21	   N	3.861	0.932	2.950	N.pl3	1	UNK0	0.000	
22	   C	4.586	1.203	4.168	C.3	1	UNK0	0.000	
23	   C	4.524	0.198	1.898	C.3	1	UNK0	0.000	
24	   C	-0.097	1.209	0.155	C.3	1	UNK0	0.000	
25	   C	0.408	-0.170	-4.614	C.2	1	UNK0	0.000	
26	   C	0.221	-0.591	-5.911	C.2	1	UNK0	0.000	
27	   H	-3.127	-0.976	-5.673	 H	1	UNK0	0.000	
28	   H	-3.761	-0.266	-3.063	 H	1	UNK0	0.000	
29	   H	-3.183	1.589	1.602	 H	1	UNK0	0.000	
30	   H	-1.931	0.616	2.438	 H	1	UNK0	0.000	
31	   H	-1.869	2.883	3.254	 H	1	UNK0	0.000	
32	   H	-1.441	3.506	1.564	 H	1	UNK0	0.000	
33	   H	-0.494	2.635	5.358	 H	1	UNK0	0.000	
34	   H	5.452	1.901	3.998	 H	1	UNK0	0.000	
35	   H	3.940	1.618	4.961	 H	1	UNK0	0.000	
36	   H	4.972	0.221	4.530	 H	1	UNK0	0.000	
37	   H	4.452	0.797	0.952	 H	1	UNK0	0.000	
38	   H	3.926	-0.740	1.716	 H	1	UNK0	0.000	
39	   H	5.561	-0.010	2.162	 H	1	UNK0	0.000	
40	   H	0.057	2.015	-0.606	 H	1	UNK0	0.000	
41	   H	0.263	0.237	-0.259	 H	1	UNK0	0.000	
42	   H	1.414	0.063	-4.303	 H	1	UNK0	0.000	
43	   H	1.019	-0.703	-6.632	 H	1	UNK0	0.000	
@<TRIPOS>BOND
1 1 2 1
2 2 3 2
3 2 26 1
4 3 4 1
5 4 5 1
6 4 8 1
7 5 6 2
8 5 25 1
9 6 7 1
10 7 8 2
11 7 9 1
12 9 10 2
13 9 11 1
14 11 12 1
15 11 24 1
16 12 13 1
17 13 14 1
18 14 15 2
19 14 19 1
20 15 16 1
21 15 24 1
22 16 17 2
23 17 18 1
24 17 21 1
25 18 19 2
26 19 20 1
27 21 22 1
28 21 23 1
29 25 26 2
30 3 27 1
31 8 28 1
32 12 29 1
33 12 30 1
34 13 31 1
35 13 32 1
36 20 33 1
37 22 34 1
38 22 35 1
39 22 36 1
40 23 37 1
41 23 38 1
42 23 39 1
43 24 40 1
44 24 41 1
45 25 42 1
46 26 43 1
@<TRIPOS>SUBSTRUCTURE
1	UNK0	1	GROUP	1 ****	UNK
