# created with PyMOL 2.3.2
@<TRIPOS>MOLECULE
1595
40 44 1                 
SMALL
USER_CHARGES
@<TRIPOS>ATOM
1	  Cl	7.146	1.099	-3.527	Cl	1	UNK0	0.000	
2	   C	5.806	1.028	-2.403	C.2	1	UNK0	0.000	
3	   C	5.472	-0.144	-1.748	C.2	1	UNK0	0.000	
4	   N	4.439	-0.178	-0.888	N.pl3	1	UNK0	0.000	
5	   C	3.700	0.914	-0.635	C.2	1	UNK0	0.000	
6	   N	2.740	0.615	0.251	N.2	1	UNK0	0.000	
7	   C	2.821	-0.679	0.604	C.2	1	UNK0	0.000	
8	   C	3.918	-1.146	-0.146	C.2	1	UNK0	0.000	
9	   C	2.028	-1.476	1.514	C.2	1	UNK0	0.000	
10	   O	2.332	-2.690	1.657	O.2	1	UNK0	0.000	
11	   N	0.947	-0.980	2.242	N.pl3	1	UNK0	0.000	
12	   C	0.420	0.366	2.243	C.3	1	UNK0	0.000	
13	   C	-0.961	0.312	1.655	C.3	1	UNK0	0.000	
14	   O	-1.557	1.561	1.678	O.3	1	UNK0	0.000	
15	   C	-2.914	1.588	1.559	C.3	1	UNK0	0.000	
16	   C	-3.542	0.352	1.046	C.2	1	UNK0	0.000	
17	   N	-3.003	-0.809	1.460	N.pl3	1	UNK0	0.000	
18	   N	-3.699	-1.773	0.900	N.2	1	UNK0	0.000	
19	   N	-4.669	-1.259	0.140	N.2	1	UNK0	0.000	
20	   C	-4.613	0.083	0.198	C.2	1	UNK0	0.000	
21	   C	-1.869	-0.663	2.353	C.3	1	UNK0	0.000	
22	   C	-1.240	-1.960	2.698	C.3	1	UNK0	0.000	
23	   C	0.179	-1.872	3.153	C.3	1	UNK0	0.000	
24	   C	4.009	2.101	-1.274	C.2	1	UNK0	0.000	
25	   C	5.059	2.140	-2.149	C.2	1	UNK0	0.000	
26	   H	6.071	-1.015	-1.958	 H	1	UNK0	0.000	
27	   H	4.281	-2.158	-0.117	 H	1	UNK0	0.000	
28	   H	0.339	0.659	3.321	 H	1	UNK0	0.000	
29	   H	1.005	1.073	1.665	 H	1	UNK0	0.000	
30	   H	-0.858	0.022	0.578	 H	1	UNK0	0.000	
31	   H	-3.406	1.785	2.557	 H	1	UNK0	0.000	
32	   H	-3.217	2.477	0.941	 H	1	UNK0	0.000	
33	   H	-5.219	0.839	-0.273	 H	1	UNK0	0.000	
34	   H	-2.260	-0.148	3.265	 H	1	UNK0	0.000	
35	   H	-1.828	-2.424	3.524	 H	1	UNK0	0.000	
36	   H	-1.292	-2.706	1.859	 H	1	UNK0	0.000	
37	   H	0.630	-2.867	3.157	 H	1	UNK0	0.000	
38	   H	0.294	-1.435	4.167	 H	1	UNK0	0.000	
39	   H	3.435	2.992	-1.091	 H	1	UNK0	0.000	
40	   H	5.314	3.055	-2.656	 H	1	UNK0	0.000	
@<TRIPOS>BOND
1 1 2 1
2 2 3 2
3 2 25 1
4 3 4 1
5 4 5 1
6 4 8 1
7 5 6 2
8 5 24 1
9 6 7 1
10 7 8 2
11 7 9 1
12 9 10 2
13 9 11 1
14 11 12 1
15 11 23 1
16 12 13 1
17 13 14 1
18 13 21 1
19 14 15 1
20 15 16 1
21 16 17 1
22 16 20 2
23 17 18 1
24 17 21 1
25 18 19 2
26 19 20 1
27 21 22 1
28 22 23 1
29 24 25 2
30 3 26 1
31 8 27 1
32 12 28 1
33 12 29 1
34 13 30 1
35 15 31 1
36 15 32 1
37 20 33 1
38 21 34 1
39 22 35 1
40 22 36 1
41 23 37 1
42 23 38 1
43 24 39 1
44 25 40 1
@<TRIPOS>SUBSTRUCTURE
1	UNK0	1	GROUP	1 ****	UNK
