# created with PyMOL 2.3.2
@<TRIPOS>MOLECULE
1596
43 46 1                 
SMALL
USER_CHARGES
@<TRIPOS>ATOM
1	  Cl	0.918	6.348	-1.553	Cl	1	UNK0	0.000	
2	   C	-0.213	5.038	-1.292	C.2	1	UNK0	0.000	
3	   C	-0.089	3.831	-1.940	C.2	1	UNK0	0.000	
4	   N	-0.938	2.807	-1.764	N.pl3	1	UNK0	0.000	
5	   C	-1.986	2.937	-0.907	C.2	1	UNK0	0.000	
6	   N	-2.671	1.775	-0.919	N.2	1	UNK0	0.000	
7	   C	-2.093	0.894	-1.763	C.2	1	UNK0	0.000	
8	   C	-1.003	1.562	-2.285	C.2	1	UNK0	0.000	
9	   C	-2.563	-0.501	-2.045	C.3	1	UNK0	0.000	
10	   N	-1.944	-1.390	-1.078	N.3	1	UNK0	0.000	
11	   C	-2.351	-2.753	-1.284	C.3	1	UNK0	0.000	
12	   C	-1.230	-3.730	-1.245	C.3	1	UNK0	0.000	
13	   N	-0.405	-3.439	-0.093	N.3	1	UNK0	0.000	
14	   C	0.268	-2.192	-0.337	C.3	1	UNK0	0.000	
15	   C	-0.526	-1.192	-1.121	C.3	1	UNK0	0.000	
16	   C	-1.151	-3.463	1.138	C.3	1	UNK0	0.000	
17	   C	-0.316	-3.216	2.324	C.2	1	UNK0	0.000	
18	   N	1.024	-3.173	2.448	N.2	1	UNK0	0.000	
19	   C	1.389	-2.916	3.717	C.2	1	UNK0	0.000	
20	   N	0.219	-2.804	4.370	N.2	1	UNK0	0.000	
21	   O	-0.770	-2.981	3.549	O.3	1	UNK0	0.000	
22	   C	2.759	-2.783	4.288	C.3	1	UNK0	0.000	
23	   C	-2.124	4.141	-0.251	C.2	1	UNK0	0.000	
24	   C	-1.266	5.207	-0.414	C.2	1	UNK0	0.000	
25	   H	0.733	3.707	-2.623	 H	1	UNK0	0.000	
26	   H	-0.325	1.119	-3.005	 H	1	UNK0	0.000	
27	   H	-3.669	-0.498	-1.983	 H	1	UNK0	0.000	
28	   H	-2.269	-0.733	-3.086	 H	1	UNK0	0.000	
29	   H	-2.825	-2.799	-2.304	 H	1	UNK0	0.000	
30	   H	-3.149	-2.992	-0.559	 H	1	UNK0	0.000	
31	   H	-1.613	-4.751	-1.278	 H	1	UNK0	0.000	
32	   H	-0.594	-3.565	-2.149	 H	1	UNK0	0.000	
33	   H	0.638	-1.757	0.611	 H	1	UNK0	0.000	
34	   H	1.179	-2.427	-0.936	 H	1	UNK0	0.000	
35	   H	-0.223	-1.149	-2.187	 H	1	UNK0	0.000	
36	   H	-0.313	-0.188	-0.696	 H	1	UNK0	0.000	
37	   H	-1.597	-4.474	1.240	 H	1	UNK0	0.000	
38	   H	-2.021	-2.750	1.116	 H	1	UNK0	0.000	
39	   H	2.740	-1.990	5.053	 H	1	UNK0	0.000	
40	   H	3.022	-3.777	4.707	 H	1	UNK0	0.000	
41	   H	3.498	-2.483	3.528	 H	1	UNK0	0.000	
42	   H	-2.948	4.262	0.432	 H	1	UNK0	0.000	
43	   H	-1.410	6.152	0.129	 H	1	UNK0	0.000	
@<TRIPOS>BOND
1 1 2 1
2 2 3 2
3 2 24 1
4 3 4 1
5 4 5 1
6 4 8 1
7 5 6 2
8 5 23 1
9 6 7 1
10 7 8 2
11 7 9 1
12 9 10 1
13 10 11 1
14 10 15 1
15 11 12 1
16 12 13 1
17 13 14 1
18 13 16 1
19 14 15 1
20 16 17 1
21 17 18 2
22 17 21 1
23 18 19 1
24 19 20 2
25 19 22 1
26 20 21 1
27 23 24 2
28 3 25 1
29 8 26 1
30 9 27 1
31 9 28 1
32 11 29 1
33 11 30 1
34 12 31 1
35 12 32 1
36 14 33 1
37 14 34 1
38 15 35 1
39 15 36 1
40 16 37 1
41 16 38 1
42 22 39 1
43 22 40 1
44 22 41 1
45 23 42 1
46 24 43 1
@<TRIPOS>SUBSTRUCTURE
1	UNK0	1	GROUP	1 ****	UNK
