# created with PyMOL 2.3.2
@<TRIPOS>MOLECULE
1597
39 42 1                 
SMALL
USER_CHARGES
@<TRIPOS>ATOM
1	  Cl	2.081	2.490	6.872	Cl	1	UNK0	0.000	
2	   C	2.320	1.907	5.234	C.2	1	UNK0	0.000	
3	   C	1.293	1.525	4.420	C.2	1	UNK0	0.000	
4	   N	1.474	1.073	3.149	N.pl3	1	UNK0	0.000	
5	   C	2.732	1.003	2.681	C.2	1	UNK0	0.000	
6	   N	2.925	0.554	1.416	N.2	1	UNK0	0.000	
7	   C	1.898	0.184	0.633	C.2	1	UNK0	0.000	
8	   C	0.603	0.243	1.082	C.2	1	UNK0	0.000	
9	   C	-0.577	-0.184	0.250	C.3	1	UNK0	0.000	
10	   N	-0.313	-0.129	-1.151	N.pl3	1	UNK0	0.000	
11	   C	1.028	0.269	-1.651	C.3	1	UNK0	0.000	
12	   C	2.130	-0.287	-0.775	C.3	1	UNK0	0.000	
13	   C	-1.237	-0.424	-2.143	C.2	1	UNK0	0.000	
14	   O	-0.733	-0.289	-3.357	O.2	1	UNK0	0.000	
15	   C	-2.604	-0.838	-2.117	C.2	1	UNK0	0.000	
16	   C	-3.358	-1.052	-1.072	C.2	1	UNK0	0.000	
17	   C	-4.769	-1.479	-1.035	C.3	1	UNK0	0.000	
18	   C	-5.381	-1.682	-2.349	C.2	1	UNK0	0.000	
19	   O	-6.605	-2.054	-2.460	O.2	1	UNK0	0.000	
20	   N	-4.599	-1.461	-3.504	N.pl3	1	UNK0	0.000	
21	   N	-3.280	-1.060	-3.395	N.pl3	1	UNK0	0.000	
22	   C	0.432	0.706	2.378	C.2	1	UNK0	0.000	
23	   O	-0.737	0.774	2.823	O.2	1	UNK0	0.000	
24	   C	3.787	1.381	3.477	C.2	1	UNK0	0.000	
25	   C	3.620	1.844	4.776	C.2	1	UNK0	0.000	
26	   H	0.273	1.574	4.776	 H	1	UNK0	0.000	
27	   H	-0.910	-1.180	0.606	 H	1	UNK0	0.000	
28	   H	-1.419	0.540	0.463	 H	1	UNK0	0.000	
29	   H	1.029	1.357	-1.686	 H	1	UNK0	0.000	
30	   H	1.129	-0.132	-2.670	 H	1	UNK0	0.000	
31	   H	2.134	-1.388	-0.836	 H	1	UNK0	0.000	
32	   H	3.097	0.094	-1.138	 H	1	UNK0	0.000	
33	   H	-2.916	-0.906	-0.089	 H	1	UNK0	0.000	
34	   H	-4.869	-2.446	-0.457	 H	1	UNK0	0.000	
35	   H	-5.314	-0.670	-0.463	 H	1	UNK0	0.000	
36	   H	-5.059	-1.612	-4.440	 H	1	UNK0	0.000	
37	   H	-2.717	-0.901	-4.263	 H	1	UNK0	0.000	
38	   H	4.806	1.328	3.109	 H	1	UNK0	0.000	
39	   H	4.471	2.132	5.371	 H	1	UNK0	0.000	
@<TRIPOS>BOND
1 1 2 1
2 2 3 2
3 2 25 1
4 3 4 1
5 4 5 1
6 4 22 1
7 5 6 2
8 5 24 1
9 6 7 1
10 7 8 2
11 7 12 1
12 8 9 1
13 8 22 1
14 9 10 1
15 10 11 1
16 10 13 1
17 11 12 1
18 13 14 2
19 13 15 1
20 15 16 2
21 15 21 1
22 16 17 1
23 17 18 1
24 18 19 2
25 18 20 1
26 20 21 1
27 22 23 2
28 24 25 2
29 3 26 1
30 9 27 1
31 9 28 1
32 11 29 1
33 11 30 1
34 12 31 1
35 12 32 1
36 16 33 1
37 17 34 1
38 17 35 1
39 20 36 1
40 21 37 1
41 24 38 1
42 25 39 1
@<TRIPOS>SUBSTRUCTURE
1	UNK0	1	GROUP	1 ****	UNK
