# created with PyMOL 2.3.2
@<TRIPOS>MOLECULE
1598
51 54 1                 
SMALL
USER_CHARGES
@<TRIPOS>ATOM
1	  Cl	1.518	-5.431	1.968	Cl	1	UNK0	0.000	
2	   C	0.454	-4.588	0.870	C.2	1	UNK0	0.000	
3	   C	0.739	-3.356	0.333	C.2	1	UNK0	0.000	
4	   C	-0.183	-2.792	-0.523	C.2	1	UNK0	0.000	
5	   C	-1.368	-3.418	-0.853	C.2	1	UNK0	0.000	
6	   C	-1.665	-4.657	-0.319	C.2	1	UNK0	0.000	
7	   C	-0.746	-5.220	0.536	C.2	1	UNK0	0.000	
8	   C	2.010	-2.691	0.689	C.3	1	UNK0	0.000	
9	   N	2.191	-1.413	0.066	N.pl3	1	UNK0	0.000	
10	   C	1.765	-0.138	0.624	C.3	1	UNK0	0.000	
11	   C	2.611	0.899	-0.059	C.3	1	UNK0	0.000	
12	   C	3.134	0.270	-1.328	C.3	1	UNK0	0.000	
13	   C	2.815	-1.167	-1.195	C.2	1	UNK0	0.000	
14	   O	3.055	-2.051	-2.062	O.2	1	UNK0	0.000	
15	   C	1.962	2.191	-0.272	C.2	1	UNK0	0.000	
16	   O	2.490	3.194	0.331	O.2	1	UNK0	0.000	
17	   N	0.822	2.421	-1.074	N.pl3	1	UNK0	0.000	
18	   C	0.305	3.781	-1.179	C.3	1	UNK0	0.000	
19	   C	-0.996	3.810	-1.931	C.3	1	UNK0	0.000	
20	   N	-1.873	2.714	-1.574	N.pl3	1	UNK0	0.000	
21	   C	-1.334	1.434	-1.291	C.3	1	UNK0	0.000	
22	   C	0.114	1.435	-1.814	C.3	1	UNK0	0.000	
23	   C	-3.257	2.960	-1.496	C.2	1	UNK0	0.000	
24	   O	-3.604	4.195	-1.758	O.2	1	UNK0	0.000	
25	   C	-4.361	2.078	-1.173	C.3	1	UNK0	0.000	
26	   C	-4.309	0.817	-0.444	C.3	1	UNK0	0.000	
27	   C	-4.614	0.777	-1.912	C.3	1	UNK0	0.000	
28	   H	-0.000	-1.810	-0.978	 H	1	UNK0	0.000	
29	   H	-2.096	-2.967	-1.532	 H	1	UNK0	0.000	
30	   H	-2.603	-5.155	-0.577	 H	1	UNK0	0.000	
31	   H	-0.994	-6.197	0.949	 H	1	UNK0	0.000	
32	   H	2.897	-3.336	0.454	 H	1	UNK0	0.000	
33	   H	2.042	-2.569	1.805	 H	1	UNK0	0.000	
34	   H	0.686	0.032	0.591	 H	1	UNK0	0.000	
35	   H	2.014	-0.215	1.725	 H	1	UNK0	0.000	
36	   H	3.508	1.030	0.593	 H	1	UNK0	0.000	
37	   H	2.773	0.735	-2.246	 H	1	UNK0	0.000	
38	   H	4.261	0.324	-1.393	 H	1	UNK0	0.000	
39	   H	1.045	4.432	-1.673	 H	1	UNK0	0.000	
40	   H	0.163	4.153	-0.150	 H	1	UNK0	0.000	
41	   H	-0.780	3.879	-3.015	 H	1	UNK0	0.000	
42	   H	-1.512	4.749	-1.651	 H	1	UNK0	0.000	
43	   H	-1.860	0.567	-1.748	 H	1	UNK0	0.000	
44	   H	-1.204	1.261	-0.177	 H	1	UNK0	0.000	
45	   H	0.454	0.410	-1.754	 H	1	UNK0	0.000	
46	   H	0.032	1.760	-2.893	 H	1	UNK0	0.000	
47	   H	-5.358	2.648	-1.111	 H	1	UNK0	0.000	
48	   H	-3.398	0.369	-0.021	 H	1	UNK0	0.000	
49	   H	-5.176	0.641	0.276	 H	1	UNK0	0.000	
50	   H	-5.684	0.471	-2.120	 H	1	UNK0	0.000	
51	   H	-3.935	0.391	-2.656	 H	1	UNK0	0.000	
@<TRIPOS>BOND
1 1 2 1
2 2 3 2
3 2 7 1
4 3 4 1
5 3 8 1
6 4 5 2
7 5 6 1
8 6 7 2
9 8 9 1
10 9 10 1
11 9 13 1
12 10 11 1
13 11 12 1
14 11 15 1
15 12 13 1
16 13 14 2
17 15 16 2
18 15 17 1
19 17 18 1
20 17 22 1
21 18 19 1
22 19 20 1
23 20 21 1
24 20 23 1
25 21 22 1
26 23 24 2
27 23 25 1
28 25 26 1
29 25 27 1
30 26 27 1
31 4 28 1
32 5 29 1
33 6 30 1
34 7 31 1
35 8 32 1
36 8 33 1
37 10 34 1
38 10 35 1
39 11 36 1
40 12 37 1
41 12 38 1
42 18 39 1
43 18 40 1
44 19 41 1
45 19 42 1
46 21 43 1
47 21 44 1
48 22 45 1
49 22 46 1
50 25 47 1
51 26 48 1
52 26 49 1
53 27 50 1
54 27 51 1
@<TRIPOS>SUBSTRUCTURE
1	UNK0	1	GROUP	1 ****	UNK
