# created with PyMOL 2.3.2
@<TRIPOS>MOLECULE
1600
57 60 1                 
SMALL
USER_CHARGES
@<TRIPOS>ATOM
1	  Br	-1.170	-5.389	-4.227	Br	1	UNK0	0.000	
2	   C	-0.866	-4.263	-2.715	C.2	1	UNK0	0.000	
3	   C	-1.542	-3.060	-2.573	C.2	1	UNK0	0.000	
4	   C	-1.319	-2.254	-1.481	C.2	1	UNK0	0.000	
5	   C	-0.440	-2.577	-0.491	C.2	1	UNK0	0.000	
6	   C	0.233	-3.802	-0.661	C.2	1	UNK0	0.000	
7	   C	0.022	-4.617	-1.744	C.2	1	UNK0	0.000	
8	   C	-0.149	-1.818	0.701	C.3	1	UNK0	0.000	
9	   N	-1.243	-1.488	1.573	N.pl3	1	UNK0	0.000	
10	   C	-0.718	-0.444	2.441	C.2	1	UNK0	0.000	
11	   O	-1.093	-0.165	3.613	O.2	1	UNK0	0.000	
12	   C	0.331	0.222	1.692	C.2	1	UNK0	0.000	
13	   O	1.071	1.187	2.038	O.2	1	UNK0	0.000	
14	   C	0.400	-0.443	0.396	C.2	1	UNK0	0.000	
15	   C	0.881	0.038	-0.727	C.2	1	UNK0	0.000	
16	   O	0.931	-0.795	-1.857	O.2	1	UNK0	0.000	
17	   C	1.353	1.406	-0.825	C.2	1	UNK0	0.000	
18	   N	2.563	1.770	-1.295	N.pl3	1	UNK0	0.000	
19	   C	2.662	3.129	-1.294	C.2	1	UNK0	0.000	
20	   N	1.479	3.573	-0.810	N.2	1	UNK0	0.000	
21	   C	0.665	2.535	-0.518	C.2	1	UNK0	0.000	
22	   C	-0.708	2.760	0.003	C.3	1	UNK0	0.000	
23	   C	3.814	3.743	-1.734	C.2	1	UNK0	0.000	
24	   C	4.860	2.964	-2.174	C.2	1	UNK0	0.000	
25	   C	4.787	1.586	-2.187	C.2	1	UNK0	0.000	
26	   C	3.614	1.020	-1.737	C.2	1	UNK0	0.000	
27	   C	3.956	5.209	-1.748	C.3	1	UNK0	0.000	
28	   C	-2.574	-2.014	1.715	C.3	1	UNK0	0.000	
29	   C	-3.657	-1.309	0.977	C.3	1	UNK0	0.000	
30	   N	-3.783	0.090	1.356	N.4	1	UNK0	0.000	
31	   C	-4.361	0.873	0.273	C.3	1	UNK0	0.000	
32	   C	-4.661	0.258	2.499	C.3	1	UNK0	0.000	
33	   H	-2.242	-2.792	-3.348	 H	1	UNK0	0.000	
34	   H	-1.847	-1.320	-1.411	 H	1	UNK0	0.000	
35	   H	0.946	-4.106	0.100	 H	1	UNK0	0.000	
36	   H	0.567	-5.547	-1.822	 H	1	UNK0	0.000	
37	   H	0.627	-2.312	1.325	 H	1	UNK0	0.000	
38	   H	-1.325	1.865	-0.033	 H	1	UNK0	0.000	
39	   H	-0.599	3.152	1.038	 H	1	UNK0	0.000	
40	   H	-1.251	3.555	-0.581	 H	1	UNK0	0.000	
41	   H	5.791	3.425	-2.531	 H	1	UNK0	0.000	
42	   H	5.577	0.934	-2.521	 H	1	UNK0	0.000	
43	   H	3.503	-0.047	-1.724	 H	1	UNK0	0.000	
44	   H	5.049	5.479	-1.802	 H	1	UNK0	0.000	
45	   H	3.507	5.676	-2.647	 H	1	UNK0	0.000	
46	   H	3.572	5.687	-0.826	 H	1	UNK0	0.000	
47	   H	-2.821	-2.136	2.813	 H	1	UNK0	0.000	
48	   H	-2.513	-3.091	1.368	 H	1	UNK0	0.000	
49	   H	-4.628	-1.770	1.383	 H	1	UNK0	0.000	
50	   H	-3.731	-1.497	-0.097	 H	1	UNK0	0.000	
51	   H	-2.847	0.433	1.586	 H	1	UNK0	0.000	
52	   H	-5.434	1.101	0.449	 H	1	UNK0	0.000	
53	   H	-4.284	0.323	-0.700	 H	1	UNK0	0.000	
54	   H	-3.749	1.794	0.169	 H	1	UNK0	0.000	
55	   H	-4.778	-0.730	3.028	 H	1	UNK0	0.000	
56	   H	-4.270	0.989	3.222	 H	1	UNK0	0.000	
57	   H	-5.693	0.584	2.175	 H	1	UNK0	0.000	
@<TRIPOS>BOND
1 1 2 1
2 2 3 2
3 2 7 1
4 3 4 1
5 4 5 2
6 5 6 1
7 5 8 1
8 6 7 2
9 8 9 1
10 8 14 1
11 9 10 1
12 9 28 1
13 10 11 2
14 10 12 1
15 12 13 2
16 12 14 1
17 14 15 2
18 15 16 1
19 15 17 1
20 17 18 1
21 17 21 2
22 18 19 1
23 18 26 1
24 19 20 2
25 19 23 1
26 20 21 1
27 21 22 1
28 23 24 2
29 23 27 1
30 24 25 1
31 25 26 2
32 28 29 1
33 29 30 1
34 30 31 1
35 30 32 1
36 3 33 1
37 4 34 1
38 6 35 1
39 7 36 1
40 8 37 1
41 22 38 1
42 22 39 1
43 22 40 1
44 24 41 1
45 25 42 1
46 26 43 1
47 27 44 1
48 27 45 1
49 27 46 1
50 28 47 1
51 28 48 1
52 29 49 1
53 29 50 1
54 30 51 1
55 31 52 1
56 31 53 1
57 31 54 1
58 32 55 1
59 32 56 1
60 32 57 1
@<TRIPOS>SUBSTRUCTURE
1	UNK0	1	GROUP	1 ****	UNK
