# created with PyMOL 2.3.2
@<TRIPOS>MOLECULE
1601
40 43 1                 
SMALL
USER_CHARGES
@<TRIPOS>ATOM
1	  Cl	6.118	-0.757	3.171	Cl	1	UNK0	0.000	
2	   C	5.454	0.089	1.787	C.2	1	UNK0	0.000	
3	   C	4.131	-0.020	1.424	C.2	1	UNK0	0.000	
4	   C	3.582	0.645	0.325	C.2	1	UNK0	0.000	
5	   C	4.374	1.452	-0.448	C.2	1	UNK0	0.000	
6	   C	5.725	1.551	-0.061	C.2	1	UNK0	0.000	
7	   C	6.261	0.898	1.017	C.2	1	UNK0	0.000	
8	   C	3.890	2.173	-1.599	C.2	1	UNK0	0.000	
9	   O	4.831	2.886	-2.181	O.2	1	UNK0	0.000	
10	   C	2.625	2.293	-2.252	C.3	1	UNK0	0.000	
11	   N	1.464	1.595	-1.788	N.pl3	1	UNK0	0.000	
12	   C	1.159	0.342	-2.246	C.2	1	UNK0	0.000	
13	   C	0.045	-0.356	-1.858	C.2	1	UNK0	0.000	
14	   C	-0.858	0.189	-0.954	C.2	1	UNK0	0.000	
15	   C	-0.551	1.446	-0.495	C.2	1	UNK0	0.000	
16	   C	0.586	2.120	-0.911	C.2	1	UNK0	0.000	
17	   C	-2.046	-0.540	-0.533	C.2	1	UNK0	0.000	
18	   N	-3.037	-0.232	0.310	N.pl3	1	UNK0	0.000	
19	   C	-3.929	-1.226	0.386	C.2	1	UNK0	0.000	
20	   N	-3.473	-2.193	-0.445	N.2	1	UNK0	0.000	
21	   N	-2.349	-1.792	-0.999	N.2	1	UNK0	0.000	
22	   C	-5.036	-0.893	1.320	C.3	1	UNK0	0.000	
23	   C	-4.685	0.434	1.888	C.3	1	UNK0	0.000	
24	   C	-3.437	0.876	1.180	C.3	1	UNK0	0.000	
25	   H	3.486	-0.652	2.021	 H	1	UNK0	0.000	
26	   H	2.536	0.480	0.145	 H	1	UNK0	0.000	
27	   H	6.412	2.168	-0.621	 H	1	UNK0	0.000	
28	   H	7.309	0.993	1.292	 H	1	UNK0	0.000	
29	   H	2.296	3.374	-2.347	 H	1	UNK0	0.000	
30	   H	2.715	1.984	-3.351	 H	1	UNK0	0.000	
31	   H	1.885	-0.071	-2.959	 H	1	UNK0	0.000	
32	   H	-0.173	-1.345	-2.236	 H	1	UNK0	0.000	
33	   H	-1.240	1.919	0.223	 H	1	UNK0	0.000	
34	   H	0.784	3.118	-0.516	 H	1	UNK0	0.000	
35	   H	-6.015	-0.860	0.795	 H	1	UNK0	0.000	
36	   H	-5.067	-1.635	2.166	 H	1	UNK0	0.000	
37	   H	-5.462	1.219	1.737	 H	1	UNK0	0.000	
38	   H	-4.519	0.408	2.999	 H	1	UNK0	0.000	
39	   H	-3.578	1.752	0.548	 H	1	UNK0	0.000	
40	   H	-2.648	1.121	1.937	 H	1	UNK0	0.000	
@<TRIPOS>BOND
1 1 2 1
2 2 3 2
3 2 7 1
4 3 4 1
5 4 5 2
6 5 6 1
7 5 8 1
8 6 7 2
9 8 9 2
10 8 10 1
11 10 11 1
12 11 12 2
13 11 16 1
14 12 13 1
15 13 14 2
16 14 15 1
17 14 17 1
18 15 16 2
19 17 18 1
20 17 21 2
21 18 19 1
22 18 24 1
23 19 20 2
24 19 22 1
25 20 21 1
26 22 23 1
27 23 24 1
28 3 25 1
29 4 26 1
30 6 27 1
31 7 28 1
32 10 29 1
33 10 30 1
34 12 31 1
35 13 32 1
36 15 33 1
37 16 34 1
38 22 35 1
39 22 36 1
40 23 37 1
41 23 38 1
42 24 39 1
43 24 40 1
@<TRIPOS>SUBSTRUCTURE
1	UNK0	1	GROUP	1 ****	UNK
