# created with PyMOL 2.3.2
@<TRIPOS>MOLECULE
1606
52 55 1                 
SMALL
USER_CHARGES
@<TRIPOS>ATOM
1	  Cl	1.530	-1.007	-2.516	Cl	1	UNK0	0.000	
2	   C	-0.084	-1.650	-2.854	C.2	1	UNK0	0.000	
3	   C	-1.182	-0.984	-2.290	C.2	1	UNK0	0.000	
4	   C	-2.420	-1.489	-2.558	C.2	1	UNK0	0.000	
5	   C	-2.563	-2.619	-3.359	C.2	1	UNK0	0.000	
6	   C	-1.493	-3.281	-3.917	C.2	1	UNK0	0.000	
7	   C	-0.249	-2.764	-3.641	C.2	1	UNK0	0.000	
8	   C	-0.911	0.207	-1.473	C.3	1	UNK0	0.000	
9	   N	-2.020	0.844	-0.895	N.3	1	UNK0	0.000	
10	   C	-2.790	0.165	0.069	C.3	1	UNK0	0.000	
11	   C	-2.656	0.663	1.479	C.3	1	UNK0	0.000	
12	   C	-2.133	2.035	1.625	C.3	1	UNK0	0.000	
13	   C	-2.499	2.854	0.431	C.3	1	UNK0	0.000	
14	   C	-1.968	2.255	-0.835	C.3	1	UNK0	0.000	
15	   N	-0.696	2.076	1.897	N.pl3	1	UNK0	0.000	
16	   N	-0.060	3.191	2.214	N.2	1	UNK0	0.000	
17	   N	1.209	2.948	2.404	N.2	1	UNK0	0.000	
18	   C	1.446	1.628	2.211	C.2	1	UNK0	0.000	
19	   C	0.208	1.108	1.890	C.2	1	UNK0	0.000	
20	   C	2.746	0.916	2.322	C.3	1	UNK0	0.000	
21	   N	2.982	0.415	3.654	N.3	1	UNK0	0.000	
22	   C	4.276	-0.255	3.633	C.3	1	UNK0	0.000	
23	   C	4.342	-1.371	2.640	C.3	1	UNK0	0.000	
24	   N	3.085	-2.108	2.566	N.pl3	1	UNK0	0.000	
25	   C	1.971	-1.779	3.362	C.2	1	UNK0	0.000	
26	   O	1.013	-2.564	3.448	O.2	1	UNK0	0.000	
27	   C	1.947	-0.497	4.095	C.3	1	UNK0	0.000	
28	   H	-3.290	-0.993	-2.147	 H	1	UNK0	0.000	
29	   H	-3.566	-2.993	-3.550	 H	1	UNK0	0.000	
30	   H	-1.625	-4.157	-4.536	 H	1	UNK0	0.000	
31	   H	0.636	-3.237	-4.050	 H	1	UNK0	0.000	
32	   H	-0.427	0.952	-2.174	 H	1	UNK0	0.000	
33	   H	-0.099	-0.039	-0.754	 H	1	UNK0	0.000	
34	   H	-2.513	-0.905	0.081	 H	1	UNK0	0.000	
35	   H	-3.860	0.216	-0.214	 H	1	UNK0	0.000	
36	   H	-3.642	0.598	1.985	 H	1	UNK0	0.000	
37	   H	-1.994	-0.026	2.084	 H	1	UNK0	0.000	
38	   H	-2.632	2.518	2.512	 H	1	UNK0	0.000	
39	   H	-2.090	3.904	0.494	 H	1	UNK0	0.000	
40	   H	-3.599	2.886	0.361	 H	1	UNK0	0.000	
41	   H	-0.920	2.595	-0.967	 H	1	UNK0	0.000	
42	   H	-2.548	2.679	-1.681	 H	1	UNK0	0.000	
43	   H	0.016	0.082	1.670	 H	1	UNK0	0.000	
44	   H	3.568	1.612	2.071	 H	1	UNK0	0.000	
45	   H	2.750	0.070	1.619	 H	1	UNK0	0.000	
46	   H	4.582	-0.554	4.655	 H	1	UNK0	0.000	
47	   H	5.015	0.535	3.320	 H	1	UNK0	0.000	
48	   H	5.142	-2.074	2.979	 H	1	UNK0	0.000	
49	   H	4.653	-1.032	1.625	 H	1	UNK0	0.000	
50	   H	3.036	-2.895	1.898	 H	1	UNK0	0.000	
51	   H	2.142	-0.724	5.164	 H	1	UNK0	0.000	
52	   H	0.984	0.025	4.045	 H	1	UNK0	0.000	
@<TRIPOS>BOND
1 1 2 1
2 2 3 2
3 2 7 1
4 3 4 1
5 3 8 1
6 4 5 2
7 5 6 1
8 6 7 2
9 8 9 1
10 9 10 1
11 9 14 1
12 10 11 1
13 11 12 1
14 12 13 1
15 12 15 1
16 13 14 1
17 15 16 1
18 15 19 1
19 16 17 2
20 17 18 1
21 18 19 2
22 18 20 1
23 20 21 1
24 21 22 1
25 21 27 1
26 22 23 1
27 23 24 1
28 24 25 1
29 25 26 2
30 25 27 1
31 4 28 1
32 5 29 1
33 6 30 1
34 7 31 1
35 8 32 1
36 8 33 1
37 10 34 1
38 10 35 1
39 11 36 1
40 11 37 1
41 12 38 1
42 13 39 1
43 13 40 1
44 14 41 1
45 14 42 1
46 19 43 1
47 20 44 1
48 20 45 1
49 22 46 1
50 22 47 1
51 23 48 1
52 23 49 1
53 24 50 1
54 27 51 1
55 27 52 1
@<TRIPOS>SUBSTRUCTURE
1	UNK0	1	GROUP	1 ****	UNK
