# created with PyMOL 2.3.2
@<TRIPOS>MOLECULE
1607
42 45 1                 
SMALL
USER_CHARGES
@<TRIPOS>ATOM
1	  Cl	-0.879	0.704	6.298	Cl	1	UNK0	0.000	
2	   C	-2.014	0.008	5.142	C.2	1	UNK0	0.000	
3	   C	-3.261	-0.392	5.574	C.2	1	UNK0	0.000	
4	   C	-4.156	-0.937	4.679	C.2	1	UNK0	0.000	
5	   C	-3.782	-1.070	3.368	C.2	1	UNK0	0.000	
6	   C	-2.540	-0.683	2.887	C.2	1	UNK0	0.000	
7	   C	-1.668	-0.144	3.796	C.2	1	UNK0	0.000	
8	   C	-2.157	-0.827	1.508	C.2	1	UNK0	0.000	
9	   O	-3.018	-1.333	0.724	O.2	1	UNK0	0.000	
10	   N	-0.909	-0.450	0.971	N.pl3	1	UNK0	0.000	
11	   C	-0.567	-0.614	-0.426	C.3	1	UNK0	0.000	
12	   C	0.704	-1.410	-0.609	C.3	1	UNK0	0.000	
13	   N	1.485	-0.715	-1.606	N.pl3	1	UNK0	0.000	
14	   C	0.635	0.231	-2.240	C.3	1	UNK0	0.000	
15	   C	-0.236	0.704	-1.094	C.3	1	UNK0	0.000	
16	   C	1.355	1.333	-2.910	C.2	1	UNK0	0.000	
17	   O	0.654	2.285	-3.354	O.2	1	UNK0	0.000	
18	   N	2.754	1.369	-3.073	N.pl3	1	UNK0	0.000	
19	   C	3.527	0.197	-2.823	C.3	1	UNK0	0.000	
20	   C	4.729	0.782	-2.069	C.3	1	UNK0	0.000	
21	   C	5.031	1.994	-2.926	C.3	1	UNK0	0.000	
22	   C	3.669	2.409	-3.468	C.3	1	UNK0	0.000	
23	   C	2.837	-0.824	-2.006	C.2	1	UNK0	0.000	
24	   O	3.494	-1.831	-1.658	O.2	1	UNK0	0.000	
25	  Cl	-5.730	-1.447	5.199	Cl	1	UNK0	0.000	
26	   H	-3.525	-0.274	6.613	 H	1	UNK0	0.000	
27	   H	-4.465	-1.498	2.628	 H	1	UNK0	0.000	
28	   H	-0.663	0.202	3.557	 H	1	UNK0	0.000	
29	   H	-0.200	-0.034	1.610	 H	1	UNK0	0.000	
30	   H	-1.418	-1.065	-0.976	 H	1	UNK0	0.000	
31	   H	0.432	-2.425	-0.979	 H	1	UNK0	0.000	
32	   H	1.231	-1.494	0.363	 H	1	UNK0	0.000	
33	   H	-0.071	-0.228	-2.990	 H	1	UNK0	0.000	
34	   H	0.373	1.313	-0.394	 H	1	UNK0	0.000	
35	   H	-1.136	1.242	-1.448	 H	1	UNK0	0.000	
36	   H	3.950	-0.222	-3.770	 H	1	UNK0	0.000	
37	   H	5.565	0.066	-2.044	 H	1	UNK0	0.000	
38	   H	4.406	1.129	-1.065	 H	1	UNK0	0.000	
39	   H	5.647	1.663	-3.786	 H	1	UNK0	0.000	
40	   H	5.501	2.810	-2.341	 H	1	UNK0	0.000	
41	   H	3.435	3.389	-3.048	 H	1	UNK0	0.000	
42	   H	3.707	2.522	-4.579	 H	1	UNK0	0.000	
@<TRIPOS>BOND
1 1 2 1
2 2 3 2
3 2 7 1
4 3 4 1
5 4 5 2
6 4 25 1
7 5 6 1
8 6 7 2
9 6 8 1
10 8 9 2
11 8 10 1
12 10 11 1
13 11 12 1
14 11 15 1
15 12 13 1
16 13 14 1
17 13 23 1
18 14 15 1
19 14 16 1
20 16 17 2
21 16 18 1
22 18 19 1
23 18 22 1
24 19 20 1
25 19 23 1
26 20 21 1
27 21 22 1
28 23 24 2
29 3 26 1
30 5 27 1
31 7 28 1
32 10 29 1
33 11 30 1
34 12 31 1
35 12 32 1
36 14 33 1
37 15 34 1
38 15 35 1
39 19 36 1
40 20 37 1
41 20 38 1
42 21 39 1
43 21 40 1
44 22 41 1
45 22 42 1
@<TRIPOS>SUBSTRUCTURE
1	UNK0	1	GROUP	1 ****	UNK
