# created with PyMOL 2.3.2
@<TRIPOS>MOLECULE
1608
43 46 1                 
SMALL
USER_CHARGES
@<TRIPOS>ATOM
1	  Cl	-4.617	4.554	1.033	Cl	1	UNK0	0.000	
2	   C	-3.609	3.177	0.559	C.2	1	UNK0	0.000	
3	   C	-2.265	3.217	0.789	C.2	1	UNK0	0.000	
4	   C	-1.415	2.142	0.426	C.2	1	UNK0	0.000	
5	   C	-2.052	1.085	-0.160	C.2	1	UNK0	0.000	
6	   C	-3.432	1.033	-0.401	C.2	1	UNK0	0.000	
7	   C	-4.223	2.098	-0.035	C.2	1	UNK0	0.000	
8	   C	-0.018	2.220	0.718	C.2	1	UNK0	0.000	
9	   O	0.312	3.265	1.452	O.2	1	UNK0	0.000	
10	   N	1.076	1.401	0.377	N.pl3	1	UNK0	0.000	
11	   C	2.383	1.801	0.914	C.3	1	UNK0	0.000	
12	   C	3.413	0.747	0.997	C.3	1	UNK0	0.000	
13	   N	3.168	-0.472	0.310	N.3	1	UNK0	0.000	
14	   C	2.372	-0.280	-0.847	C.3	1	UNK0	0.000	
15	   C	0.972	0.268	-0.467	C.3	1	UNK0	0.000	
16	   C	2.967	-1.620	1.099	C.3	1	UNK0	0.000	
17	   C	1.814	-1.571	2.027	C.2	1	UNK0	0.000	
18	   N	0.808	-2.425	2.023	N.pl3	1	UNK0	0.000	
19	   N	-0.012	-2.033	2.997	N.2	1	UNK0	0.000	
20	   N	0.475	-0.975	3.580	N.2	1	UNK0	0.000	
21	   N	1.608	-0.673	2.992	N.2	1	UNK0	0.000	
22	   C	0.506	-3.575	1.214	C.3	1	UNK0	0.000	
23	   C	-0.928	-3.515	0.641	C.3	1	UNK0	0.000	
24	   C	0.301	-3.571	-0.222	C.3	1	UNK0	0.000	
25	   H	-1.806	4.087	1.257	 H	1	UNK0	0.000	
26	   H	-1.516	0.215	-0.458	 H	1	UNK0	0.000	
27	   H	-3.878	0.162	-0.871	 H	1	UNK0	0.000	
28	   H	-5.289	2.142	-0.183	 H	1	UNK0	0.000	
29	   H	2.154	2.215	1.956	 H	1	UNK0	0.000	
30	   H	2.677	2.718	0.324	 H	1	UNK0	0.000	
31	   H	4.348	1.177	0.509	 H	1	UNK0	0.000	
32	   H	3.725	0.591	2.050	 H	1	UNK0	0.000	
33	   H	2.276	-1.164	-1.478	 H	1	UNK0	0.000	
34	   H	2.821	0.525	-1.462	 H	1	UNK0	0.000	
35	   H	0.438	0.484	-1.433	 H	1	UNK0	0.000	
36	   H	0.482	-0.563	0.021	 H	1	UNK0	0.000	
37	   H	2.975	-2.529	0.492	 H	1	UNK0	0.000	
38	   H	3.875	-1.721	1.770	 H	1	UNK0	0.000	
39	   H	0.706	-4.559	1.727	 H	1	UNK0	0.000	
40	   H	-1.580	-4.379	0.782	 H	1	UNK0	0.000	
41	   H	-1.436	-2.531	0.627	 H	1	UNK0	0.000	
42	   H	0.502	-2.755	-0.909	 H	1	UNK0	0.000	
43	   H	0.414	-4.571	-0.737	 H	1	UNK0	0.000	
@<TRIPOS>BOND
1 1 2 1
2 2 3 2
3 2 7 1
4 3 4 1
5 4 5 2
6 4 8 1
7 5 6 1
8 6 7 2
9 8 9 2
10 8 10 1
11 10 11 1
12 10 15 1
13 11 12 1
14 12 13 1
15 13 14 1
16 13 16 1
17 14 15 1
18 16 17 1
19 17 18 1
20 17 21 2
21 18 19 1
22 18 22 1
23 19 20 2
24 20 21 1
25 22 23 1
26 22 24 1
27 23 24 1
28 3 25 1
29 5 26 1
30 6 27 1
31 7 28 1
32 11 29 1
33 11 30 1
34 12 31 1
35 12 32 1
36 14 33 1
37 14 34 1
38 15 35 1
39 15 36 1
40 16 37 1
41 16 38 1
42 22 39 1
43 23 40 1
44 23 41 1
45 24 42 1
46 24 43 1
@<TRIPOS>SUBSTRUCTURE
1	UNK0	1	GROUP	1 ****	UNK
