# created with PyMOL 2.3.2
@<TRIPOS>MOLECULE
1610
47 50 1                 
SMALL
USER_CHARGES
@<TRIPOS>ATOM
1	  Cl	-2.383	-5.937	-2.979	Cl	1	UNK0	0.000	
2	   C	-0.985	-5.297	-2.152	C.2	1	UNK0	0.000	
3	   C	-0.370	-4.135	-2.606	C.2	1	UNK0	0.000	
4	   C	0.740	-3.655	-1.925	C.2	1	UNK0	0.000	
5	   C	1.185	-4.351	-0.825	C.2	1	UNK0	0.000	
6	   C	0.584	-5.505	-0.364	C.2	1	UNK0	0.000	
7	   C	-0.519	-5.981	-1.042	C.2	1	UNK0	0.000	
8	   C	1.437	-2.401	-2.381	C.3	1	UNK0	0.000	
9	   C	0.767	-1.262	-1.659	C.2	1	UNK0	0.000	
10	   N	1.101	-0.741	-0.470	N.2	1	UNK0	0.000	
11	   N	0.282	0.251	-0.159	N.pl3	1	UNK0	0.000	
12	   C	-0.600	0.389	-1.147	C.2	1	UNK0	0.000	
13	   N	-0.297	-0.556	-2.083	N.2	1	UNK0	0.000	
14	   C	-1.725	1.345	-1.298	C.3	1	UNK0	0.000	
15	   N	-1.315	2.569	-1.967	N.pl3	1	UNK0	0.000	
16	   N	-1.344	2.776	-3.279	N.2	1	UNK0	0.000	
17	   N	-0.912	3.975	-3.566	N.2	1	UNK0	0.000	
18	   N	-0.598	4.554	-2.426	N.2	1	UNK0	0.000	
19	   C	-0.842	3.697	-1.430	C.2	1	UNK0	0.000	
20	   C	0.324	1.058	1.045	C.3	1	UNK0	0.000	
21	   C	1.338	2.145	0.937	C.3	1	UNK0	0.000	
22	   C	2.553	1.938	1.800	C.3	1	UNK0	0.000	
23	   N	2.240	1.688	3.180	N.3	1	UNK0	0.000	
24	   C	0.931	1.145	3.395	C.3	1	UNK0	0.000	
25	   C	0.616	0.183	2.270	C.3	1	UNK0	0.000	
26	   C	3.216	0.747	3.697	C.3	1	UNK0	0.000	
27	   H	-0.732	-3.599	-3.473	 H	1	UNK0	0.000	
28	   H	2.064	-3.936	-0.317	 H	1	UNK0	0.000	
29	   H	0.996	-6.003	0.518	 H	1	UNK0	0.000	
30	   H	-1.008	-6.901	-0.685	 H	1	UNK0	0.000	
31	   H	1.367	-2.284	-3.473	 H	1	UNK0	0.000	
32	   H	2.479	-2.432	-2.036	 H	1	UNK0	0.000	
33	   H	-2.516	0.878	-1.916	 H	1	UNK0	0.000	
34	   H	-2.194	1.562	-0.314	 H	1	UNK0	0.000	
35	   H	-0.680	3.899	-0.398	 H	1	UNK0	0.000	
36	   H	-0.679	1.511	1.251	 H	1	UNK0	0.000	
37	   H	0.904	3.141	1.238	 H	1	UNK0	0.000	
38	   H	1.697	2.241	-0.109	 H	1	UNK0	0.000	
39	   H	3.133	2.901	1.766	 H	1	UNK0	0.000	
40	   H	3.209	1.170	1.347	 H	1	UNK0	0.000	
41	   H	0.166	1.957	3.370	 H	1	UNK0	0.000	
42	   H	0.938	0.637	4.382	 H	1	UNK0	0.000	
43	   H	-0.278	-0.435	2.509	 H	1	UNK0	0.000	
44	   H	1.472	-0.502	2.063	 H	1	UNK0	0.000	
45	   H	3.255	0.799	4.820	 H	1	UNK0	0.000	
46	   H	4.248	0.964	3.311	 H	1	UNK0	0.000	
47	   H	3.007	-0.298	3.393	 H	1	UNK0	0.000	
@<TRIPOS>BOND
1 1 2 1
2 2 3 2
3 2 7 1
4 3 4 1
5 4 5 2
6 4 8 1
7 5 6 1
8 6 7 2
9 8 9 1
10 9 10 2
11 9 13 1
12 10 11 1
13 11 12 1
14 11 20 1
15 12 13 2
16 12 14 1
17 14 15 1
18 15 16 1
19 15 19 1
20 16 17 2
21 17 18 1
22 18 19 2
23 20 21 1
24 20 25 1
25 21 22 1
26 22 23 1
27 23 24 1
28 23 26 1
29 24 25 1
30 3 27 1
31 5 28 1
32 6 29 1
33 7 30 1
34 8 31 1
35 8 32 1
36 14 33 1
37 14 34 1
38 19 35 1
39 20 36 1
40 21 37 1
41 21 38 1
42 22 39 1
43 22 40 1
44 24 41 1
45 24 42 1
46 25 43 1
47 25 44 1
48 26 45 1
49 26 46 1
50 26 47 1
@<TRIPOS>SUBSTRUCTURE
1	UNK0	1	GROUP	1 ****	UNK
