# created with PyMOL 2.3.2
@<TRIPOS>MOLECULE
1611
55 58 1                 
SMALL
USER_CHARGES
@<TRIPOS>ATOM
1	  Cl	7.170	2.617	3.518	Cl	1	UNK0	0.000	
2	   C	5.487	3.079	3.806	C.2	1	UNK0	0.000	
3	   C	4.625	3.279	2.747	C.2	1	UNK0	0.000	
4	   C	3.315	3.633	2.959	C.2	1	UNK0	0.000	
5	   C	2.856	3.797	4.238	C.2	1	UNK0	0.000	
6	   C	3.690	3.601	5.301	C.2	1	UNK0	0.000	
7	   C	5.020	3.239	5.119	C.2	1	UNK0	0.000	
8	   C	2.399	3.712	1.778	C.3	1	UNK0	0.000	
9	   N	2.832	2.807	0.744	N.3	1	UNK0	0.000	
10	   C	1.866	1.793	0.473	C.3	1	UNK0	0.000	
11	   C	0.591	2.024	-0.079	C.3	1	UNK0	0.000	
12	   O	0.438	2.473	-1.351	O.3	1	UNK0	0.000	
13	   C	-0.952	2.446	-1.578	C.3	1	UNK0	0.000	
14	   C	-1.551	1.384	-0.675	C.3	1	UNK0	0.000	
15	   C	-0.364	0.820	0.043	C.3	1	UNK0	0.000	
16	   N	0.254	-0.330	-0.311	N.3	1	UNK0	0.000	
17	   C	0.778	-0.698	-1.536	C.3	1	UNK0	0.000	
18	   C	0.352	-2.127	-1.949	C.3	1	UNK0	0.000	
19	   C	-0.152	-2.917	-0.811	C.2	1	UNK0	0.000	
20	   C	-0.009	-2.506	0.500	C.2	1	UNK0	0.000	
21	   C	-0.500	-3.322	1.498	C.2	1	UNK0	0.000	
22	   C	-1.129	-4.538	1.218	C.2	1	UNK0	0.000	
23	   C	-1.257	-4.922	-0.097	C.2	1	UNK0	0.000	
24	   C	-0.778	-4.126	-1.094	C.2	1	UNK0	0.000	
25	   C	0.682	-1.220	0.744	C.3	1	UNK0	0.000	
26	   O	-2.445	0.549	-1.221	O.3	1	UNK0	0.000	
27	   C	-1.361	2.296	-3.013	C.3	1	UNK0	0.000	
28	   O	-2.776	2.324	-3.018	O.3	1	UNK0	0.000	
29	   H	5.017	3.146	1.712	 H	1	UNK0	0.000	
30	   H	1.827	4.076	4.401	 H	1	UNK0	0.000	
31	   H	3.335	3.716	6.348	 H	1	UNK0	0.000	
32	   H	5.718	3.066	5.950	 H	1	UNK0	0.000	
33	   H	2.621	4.755	1.369	 H	1	UNK0	0.000	
34	   H	1.341	3.708	2.016	 H	1	UNK0	0.000	
35	   H	3.079	3.359	-0.105	 H	1	UNK0	0.000	
36	   H	2.453	1.007	-0.117	 H	1	UNK0	0.000	
37	   H	1.748	1.223	1.477	 H	1	UNK0	0.000	
38	   H	0.084	2.846	0.592	 H	1	UNK0	0.000	
39	   H	-1.291	3.481	-1.289	 H	1	UNK0	0.000	
40	   H	-2.156	1.981	0.089	 H	1	UNK0	0.000	
41	   H	-0.642	0.766	1.133	 H	1	UNK0	0.000	
42	   H	1.904	-0.823	-1.406	 H	1	UNK0	0.000	
43	   H	0.705	0.018	-2.371	 H	1	UNK0	0.000	
44	   H	-0.394	-2.058	-2.789	 H	1	UNK0	0.000	
45	   H	1.218	-2.701	-2.387	 H	1	UNK0	0.000	
46	   H	-0.415	-3.049	2.539	 H	1	UNK0	0.000	
47	   H	-1.521	-5.177	1.996	 H	1	UNK0	0.000	
48	   H	-1.753	-5.871	-0.339	 H	1	UNK0	0.000	
49	   H	-0.910	-4.488	-2.109	 H	1	UNK0	0.000	
50	   H	0.472	-0.877	1.749	 H	1	UNK0	0.000	
51	   H	1.778	-1.386	0.536	 H	1	UNK0	0.000	
52	   H	-3.352	0.512	-0.806	 H	1	UNK0	0.000	
53	   H	-1.014	1.334	-3.483	 H	1	UNK0	0.000	
54	   H	-0.957	3.125	-3.619	 H	1	UNK0	0.000	
55	   H	-3.034	3.264	-2.751	 H	1	UNK0	0.000	
@<TRIPOS>BOND
1 1 2 1
2 2 3 2
3 2 7 1
4 3 4 1
5 4 5 2
6 4 8 1
7 5 6 1
8 6 7 2
9 8 9 1
10 9 10 1
11 10 11 1
12 11 12 1
13 11 15 1
14 12 13 1
15 13 14 1
16 13 27 1
17 14 15 1
18 14 26 1
19 15 16 1
20 16 17 1
21 16 25 1
22 17 18 1
23 18 19 1
24 19 20 2
25 19 24 1
26 20 21 1
27 20 25 1
28 21 22 2
29 22 23 1
30 23 24 2
31 27 28 1
32 3 29 1
33 5 30 1
34 6 31 1
35 7 32 1
36 8 33 1
37 8 34 1
38 9 35 1
39 10 36 1
40 10 37 1
41 11 38 1
42 13 39 1
43 14 40 1
44 15 41 1
45 17 42 1
46 17 43 1
47 18 44 1
48 18 45 1
49 21 46 1
50 22 47 1
51 23 48 1
52 24 49 1
53 25 50 1
54 25 51 1
55 26 52 1
56 27 53 1
57 27 54 1
58 28 55 1
@<TRIPOS>SUBSTRUCTURE
1	UNK0	1	GROUP	1 ****	UNK
