# created with PyMOL 2.3.2
@<TRIPOS>MOLECULE
1613
52 55 1                 
SMALL
USER_CHARGES
@<TRIPOS>ATOM
1	  Cl	-1.632	-2.098	-6.064	Cl	1	UNK0	0.000	
2	   C	-0.405	-1.755	-4.866	C.2	1	UNK0	0.000	
3	   C	-0.751	-1.325	-3.606	C.2	1	UNK0	0.000	
4	   C	0.272	-1.065	-2.686	C.2	1	UNK0	0.000	
5	   C	1.593	-1.227	-3.009	C.2	1	UNK0	0.000	
6	   C	1.908	-1.669	-4.311	C.2	1	UNK0	0.000	
7	   C	0.915	-1.926	-5.220	C.2	1	UNK0	0.000	
8	   C	2.652	-0.956	-2.071	C.2	1	UNK0	0.000	
9	   O	3.850	-1.206	-2.592	O.2	1	UNK0	0.000	
10	   C	2.683	-0.477	-0.704	C.3	1	UNK0	0.000	
11	   N	1.508	-0.127	0.015	N.pl3	1	UNK0	0.000	
12	   C	0.873	1.063	0.084	C.2	1	UNK0	0.000	
13	   N	-0.186	0.982	0.932	N.pl3	1	UNK0	0.000	
14	   C	-0.235	-0.243	1.410	C.2	1	UNK0	0.000	
15	   C	0.816	-0.956	0.848	C.2	1	UNK0	0.000	
16	   C	-1.203	-0.854	2.338	C.2	1	UNK0	0.000	
17	   C	-1.207	-2.246	2.484	C.2	1	UNK0	0.000	
18	   C	-2.039	-2.908	3.357	C.2	1	UNK0	0.000	
19	   C	-2.934	-2.234	4.155	C.2	1	UNK0	0.000	
20	   C	-2.940	-0.870	4.023	C.2	1	UNK0	0.000	
21	   C	-2.088	-0.188	3.129	C.2	1	UNK0	0.000	
22	   O	-3.777	-2.896	5.038	O.3	1	UNK0	0.000	
23	   C	-3.718	-4.308	5.124	C.3	1	UNK0	0.000	
24	   C	-1.116	2.086	1.201	C.3	1	UNK0	0.000	
25	   C	-1.048	3.115	0.079	C.3	1	UNK0	0.000	
26	   C	0.072	4.072	0.191	C.3	1	UNK0	0.000	
27	   C	1.431	3.423	0.244	C.3	1	UNK0	0.000	
28	   C	1.381	2.226	-0.715	C.3	1	UNK0	0.000	
29	   H	-1.792	-1.186	-3.315	 H	1	UNK0	0.000	
30	   H	-0.072	-0.739	-1.726	 H	1	UNK0	0.000	
31	   H	2.960	-1.809	-4.604	 H	1	UNK0	0.000	
32	   H	1.213	-2.268	-6.219	 H	1	UNK0	0.000	
33	   H	3.232	-1.300	-0.108	 H	1	UNK0	0.000	
34	   H	3.397	0.398	-0.639	 H	1	UNK0	0.000	
35	   H	1.073	-1.996	1.023	 H	1	UNK0	0.000	
36	   H	-0.513	-2.811	1.860	 H	1	UNK0	0.000	
37	   H	-2.013	-3.995	3.441	 H	1	UNK0	0.000	
38	   H	-3.625	-0.295	4.628	 H	1	UNK0	0.000	
39	   H	-2.147	0.880	3.117	 H	1	UNK0	0.000	
40	   H	-4.256	-4.668	6.024	 H	1	UNK0	0.000	
41	   H	-2.658	-4.658	5.259	 H	1	UNK0	0.000	
42	   H	-4.075	-4.805	4.196	 H	1	UNK0	0.000	
43	   H	-0.964	2.533	2.172	 H	1	UNK0	0.000	
44	   H	-2.134	1.659	1.093	 H	1	UNK0	0.000	
45	   H	-1.037	2.584	-0.865	 H	1	UNK0	0.000	
46	   H	-2.000	3.698	0.151	 H	1	UNK0	0.000	
47	   H	0.083	4.768	-0.670	 H	1	UNK0	0.000	
48	   H	-0.023	4.719	1.097	 H	1	UNK0	0.000	
49	   H	2.177	4.163	-0.083	 H	1	UNK0	0.000	
50	   H	1.636	3.030	1.259	 H	1	UNK0	0.000	
51	   H	0.801	2.422	-1.617	 H	1	UNK0	0.000	
52	   H	2.443	2.082	-1.019	 H	1	UNK0	0.000	
@<TRIPOS>BOND
1 1 2 1
2 2 3 2
3 2 7 1
4 3 4 1
5 4 5 2
6 5 6 1
7 5 8 1
8 6 7 2
9 8 9 2
10 8 10 1
11 10 11 1
12 11 12 1
13 11 15 1
14 12 13 2
15 12 28 1
16 13 14 1
17 13 24 1
18 14 15 2
19 14 16 1
20 16 17 2
21 16 21 1
22 17 18 1
23 18 19 2
24 19 20 1
25 19 22 1
26 20 21 2
27 22 23 1
28 24 25 1
29 25 26 1
30 26 27 1
31 27 28 1
32 3 29 1
33 4 30 1
34 6 31 1
35 7 32 1
36 10 33 1
37 10 34 1
38 15 35 1
39 17 36 1
40 18 37 1
41 20 38 1
42 21 39 1
43 23 40 1
44 23 41 1
45 23 42 1
46 24 43 1
47 24 44 1
48 25 45 1
49 25 46 1
50 26 47 1
51 26 48 1
52 27 49 1
53 27 50 1
54 28 51 1
55 28 52 1
@<TRIPOS>SUBSTRUCTURE
1	UNK0	1	GROUP	1 ****	UNK
