# created with PyMOL 2.3.2
@<TRIPOS>MOLECULE
1615
46 49 1                 
SMALL
USER_CHARGES
@<TRIPOS>ATOM
1	  Cl	1.002	2.758	-6.199	Cl	1	UNK0	0.000	
2	   C	0.363	1.296	-5.455	C.2	1	UNK0	0.000	
3	   C	0.289	0.139	-6.190	C.2	1	UNK0	0.000	
4	   C	-0.203	-1.033	-5.652	C.2	1	UNK0	0.000	
5	   C	-0.620	-1.005	-4.340	C.2	1	UNK0	0.000	
6	   C	-0.568	0.121	-3.562	C.2	1	UNK0	0.000	
7	   C	-0.066	1.278	-4.147	C.2	1	UNK0	0.000	
8	   C	-1.016	0.166	-2.158	C.2	1	UNK0	0.000	
9	   N	-1.553	-0.789	-1.379	N.pl3	1	UNK0	0.000	
10	   C	-1.793	-0.296	-0.153	C.2	1	UNK0	0.000	
11	   N	-1.410	1.008	-0.120	N.pl3	1	UNK0	0.000	
12	   C	-0.936	1.287	-1.348	C.2	1	UNK0	0.000	
13	   C	-1.471	1.938	0.991	C.3	1	UNK0	0.000	
14	   C	-0.255	1.987	1.804	C.2	1	UNK0	0.000	
15	   O	0.666	2.785	1.419	O.2	1	UNK0	0.000	
16	   C	0.010	1.214	3.009	C.2	1	UNK0	0.000	
17	   C	1.224	1.345	3.673	C.2	1	UNK0	0.000	
18	   C	1.526	0.636	4.816	C.2	1	UNK0	0.000	
19	   C	0.612	-0.256	5.361	C.2	1	UNK0	0.000	
20	   C	-0.593	-0.390	4.709	C.2	1	UNK0	0.000	
21	   C	-0.891	0.329	3.557	C.2	1	UNK0	0.000	
22	   O	0.903	-0.977	6.510	O.3	1	UNK0	0.000	
23	   C	-0.011	-1.889	7.080	C.3	1	UNK0	0.000	
24	   C	-2.366	-1.341	0.715	C.3	1	UNK0	0.000	
25	   C	-2.711	-2.456	-0.210	C.3	1	UNK0	0.000	
26	   C	-1.967	-2.171	-1.471	C.3	1	UNK0	0.000	
27	  Cl	0.836	0.156	-7.863	Cl	1	UNK0	0.000	
28	   H	-0.248	-1.929	-6.260	 H	1	UNK0	0.000	
29	   H	-0.998	-1.915	-3.901	 H	1	UNK0	0.000	
30	   H	-0.005	2.190	-3.573	 H	1	UNK0	0.000	
31	   H	-0.542	2.268	-1.663	 H	1	UNK0	0.000	
32	   H	-1.627	2.965	0.558	 H	1	UNK0	0.000	
33	   H	-2.378	1.752	1.605	 H	1	UNK0	0.000	
34	   H	1.960	2.043	3.262	 H	1	UNK0	0.000	
35	   H	2.468	0.732	5.338	 H	1	UNK0	0.000	
36	   H	-1.309	-1.092	5.141	 H	1	UNK0	0.000	
37	   H	-1.835	0.206	3.076	 H	1	UNK0	0.000	
38	   H	0.544	-2.560	7.776	 H	1	UNK0	0.000	
39	   H	-0.516	-2.532	6.335	 H	1	UNK0	0.000	
40	   H	-0.802	-1.409	7.676	 H	1	UNK0	0.000	
41	   H	-3.278	-0.992	1.250	 H	1	UNK0	0.000	
42	   H	-1.613	-1.746	1.438	 H	1	UNK0	0.000	
43	   H	-2.478	-3.462	0.215	 H	1	UNK0	0.000	
44	   H	-3.816	-2.384	-0.426	 H	1	UNK0	0.000	
45	   H	-1.054	-2.793	-1.514	 H	1	UNK0	0.000	
46	   H	-2.616	-2.374	-2.363	 H	1	UNK0	0.000	
@<TRIPOS>BOND
1 1 2 1
2 2 3 2
3 2 7 1
4 3 4 1
5 3 27 1
6 4 5 2
7 5 6 1
8 6 7 2
9 6 8 1
10 8 9 1
11 8 12 2
12 9 10 1
13 9 26 1
14 10 11 2
15 10 24 1
16 11 12 1
17 11 13 1
18 13 14 1
19 14 15 2
20 14 16 1
21 16 17 2
22 16 21 1
23 17 18 1
24 18 19 2
25 19 20 1
26 19 22 1
27 20 21 2
28 22 23 1
29 24 25 1
30 25 26 1
31 4 28 1
32 5 29 1
33 7 30 1
34 12 31 1
35 13 32 1
36 13 33 1
37 17 34 1
38 18 35 1
39 20 36 1
40 21 37 1
41 23 38 1
42 23 39 1
43 23 40 1
44 24 41 1
45 24 42 1
46 25 43 1
47 25 44 1
48 26 45 1
49 26 46 1
@<TRIPOS>SUBSTRUCTURE
1	UNK0	1	GROUP	1 ****	UNK
