# created with PyMOL 2.3.2
@<TRIPOS>MOLECULE
1616
39 42 1                 
SMALL
USER_CHARGES
@<TRIPOS>ATOM
1	  Cl	0.120	-1.223	-6.163	Cl	1	UNK0	0.000	
2	   C	-0.854	-0.589	-4.838	C.2	1	UNK0	0.000	
3	   C	-0.476	-0.769	-3.526	C.2	1	UNK0	0.000	
4	   C	-1.228	-0.277	-2.451	C.2	1	UNK0	0.000	
5	   C	-2.391	0.414	-2.703	C.2	1	UNK0	0.000	
6	   C	-2.743	0.578	-4.053	C.2	1	UNK0	0.000	
7	   C	-2.014	0.101	-5.105	C.2	1	UNK0	0.000	
8	   C	-3.255	0.975	-1.709	C.2	1	UNK0	0.000	
9	   O	-4.314	1.578	-2.221	O.2	1	UNK0	0.000	
10	   C	-3.247	1.039	-0.269	C.3	1	UNK0	0.000	
11	   N	-2.160	0.445	0.423	N.pl3	1	UNK0	0.000	
12	   C	-1.022	1.137	0.731	C.2	1	UNK0	0.000	
13	   C	0.008	0.577	1.444	C.2	1	UNK0	0.000	
14	   N	1.220	1.037	1.873	N.2	1	UNK0	0.000	
15	   N	1.827	0.074	2.523	N.2	1	UNK0	0.000	
16	   N	1.095	-1.019	2.562	N.pl3	1	UNK0	0.000	
17	   C	-0.038	-0.724	1.896	C.2	1	UNK0	0.000	
18	   C	-1.180	-1.430	1.591	C.2	1	UNK0	0.000	
19	   C	-2.194	-0.844	0.877	C.2	1	UNK0	0.000	
20	   C	1.415	-2.278	3.179	C.2	1	UNK0	0.000	
21	   C	1.656	-2.404	4.518	C.2	1	UNK0	0.000	
22	   C	1.963	-3.652	5.068	C.2	1	UNK0	0.000	
23	   C	2.028	-4.780	4.271	C.2	1	UNK0	0.000	
24	   C	1.784	-4.641	2.924	C.2	1	UNK0	0.000	
25	   C	1.484	-3.418	2.394	C.2	1	UNK0	0.000	
26	   H	0.432	-1.308	-3.293	 H	1	UNK0	0.000	
27	   H	-0.866	-0.462	-1.461	 H	1	UNK0	0.000	
28	   H	-3.654	1.117	-4.334	 H	1	UNK0	0.000	
29	   H	-2.322	0.250	-6.131	 H	1	UNK0	0.000	
30	   H	-3.204	2.149	-0.004	 H	1	UNK0	0.000	
31	   H	-4.244	0.651	0.116	 H	1	UNK0	0.000	
32	   H	-0.975	2.153	0.384	 H	1	UNK0	0.000	
33	   H	-1.231	-2.456	1.940	 H	1	UNK0	0.000	
34	   H	-3.099	-1.391	0.630	 H	1	UNK0	0.000	
35	   H	1.611	-1.531	5.168	 H	1	UNK0	0.000	
36	   H	2.158	-3.771	6.129	 H	1	UNK0	0.000	
37	   H	2.270	-5.761	4.704	 H	1	UNK0	0.000	
38	   H	1.819	-5.487	2.243	 H	1	UNK0	0.000	
39	   H	1.291	-3.302	1.333	 H	1	UNK0	0.000	
@<TRIPOS>BOND
1 1 2 1
2 2 3 2
3 2 7 1
4 3 4 1
5 4 5 2
6 5 6 1
7 5 8 1
8 6 7 2
9 8 9 2
10 8 10 1
11 10 11 1
12 11 12 2
13 11 19 1
14 12 13 1
15 13 14 1
16 13 17 2
17 14 15 2
18 15 16 1
19 16 17 1
20 16 20 1
21 17 18 1
22 18 19 2
23 20 21 2
24 20 25 1
25 21 22 1
26 22 23 2
27 23 24 1
28 24 25 2
29 3 26 1
30 4 27 1
31 6 28 1
32 7 29 1
33 10 30 1
34 10 31 1
35 12 32 1
36 18 33 1
37 19 34 1
38 21 35 1
39 22 36 1
40 23 37 1
41 24 38 1
42 25 39 1
@<TRIPOS>SUBSTRUCTURE
1	UNK0	1	GROUP	1 ****	UNK
