# created with PyMOL 2.3.2
@<TRIPOS>MOLECULE
1621
44 46 1                 
SMALL
USER_CHARGES
@<TRIPOS>ATOM
1	  Cl	-0.833	-1.443	3.747	Cl	1	UNK0	0.000	
2	   C	-2.204	-2.326	3.115	C.2	1	UNK0	0.000	
3	   C	-2.375	-2.501	1.748	C.2	1	UNK0	0.000	
4	   C	-3.470	-3.205	1.286	C.2	1	UNK0	0.000	
5	   C	-4.422	-3.754	2.121	C.2	1	UNK0	0.000	
6	   C	-4.236	-3.570	3.484	C.2	1	UNK0	0.000	
7	   C	-3.138	-2.865	3.956	C.2	1	UNK0	0.000	
8	  Cl	-5.800	-4.640	1.531	Cl	1	UNK0	0.000	
9	   C	-1.412	-1.949	0.825	C.2	1	UNK0	0.000	
10	   O	-1.561	-0.778	0.368	O.2	1	UNK0	0.000	
11	   N	-0.267	-2.659	0.376	N.pl3	1	UNK0	0.000	
12	   C	0.699	-2.122	-0.543	C.3	1	UNK0	0.000	
13	   C	1.352	-0.896	-0.040	C.2	1	UNK0	0.000	
14	   O	0.983	-0.500	1.094	O.2	1	UNK0	0.000	
15	   N	2.335	-0.176	-0.750	N.pl3	1	UNK0	0.000	
16	   C	2.861	1.006	-0.090	C.3	1	UNK0	0.000	
17	   C	2.543	2.192	-0.964	C.3	1	UNK0	0.000	
18	   N	1.215	2.040	-1.545	N.pl3	1	UNK0	0.000	
19	   C	1.101	1.094	-2.608	C.2	1	UNK0	0.000	
20	   O	0.022	0.802	-3.167	O.2	1	UNK0	0.000	
21	   C	2.355	0.435	-3.051	C.3	1	UNK0	0.000	
22	   C	2.762	-0.620	-2.043	C.3	1	UNK0	0.000	
23	   C	3.483	1.423	-3.165	C.3	1	UNK0	0.000	
24	   C	3.537	2.418	-2.056	C.3	1	UNK0	0.000	
25	   C	0.066	2.774	-1.110	C.3	1	UNK0	0.000	
26	   H	-3.641	-3.364	0.215	 H	1	UNK0	0.000	
27	   H	-4.952	-3.981	4.167	 H	1	UNK0	0.000	
28	   H	-2.978	-2.712	5.025	 H	1	UNK0	0.000	
29	   H	-0.128	-3.619	0.738	 H	1	UNK0	0.000	
30	   H	0.207	-1.983	-1.523	 H	1	UNK0	0.000	
31	   H	1.483	-2.886	-0.710	 H	1	UNK0	0.000	
32	   H	3.947	0.914	0.101	 H	1	UNK0	0.000	
33	   H	2.325	1.152	0.892	 H	1	UNK0	0.000	
34	   H	2.525	3.094	-0.324	 H	1	UNK0	0.000	
35	   H	2.221	-0.076	-4.025	 H	1	UNK0	0.000	
36	   H	3.875	-0.686	-2.045	 H	1	UNK0	0.000	
37	   H	2.398	-1.627	-2.315	 H	1	UNK0	0.000	
38	   H	3.328	1.967	-4.136	 H	1	UNK0	0.000	
39	   H	4.437	0.870	-3.283	 H	1	UNK0	0.000	
40	   H	4.570	2.461	-1.602	 H	1	UNK0	0.000	
41	   H	3.366	3.459	-2.446	 H	1	UNK0	0.000	
42	   H	-0.696	2.808	-1.915	 H	1	UNK0	0.000	
43	   H	0.361	3.827	-0.890	 H	1	UNK0	0.000	
44	   H	-0.338	2.338	-0.167	 H	1	UNK0	0.000	
@<TRIPOS>BOND
1 1 2 1
2 2 3 2
3 2 7 1
4 3 4 1
5 3 9 1
6 4 5 2
7 5 6 1
8 5 8 1
9 6 7 2
10 9 10 2
11 9 11 1
12 11 12 1
13 12 13 1
14 13 14 2
15 13 15 1
16 15 16 1
17 15 22 1
18 16 17 1
19 17 18 1
20 17 24 1
21 18 19 1
22 18 25 1
23 19 20 2
24 19 21 1
25 21 22 1
26 21 23 1
27 23 24 1
28 4 26 1
29 6 27 1
30 7 28 1
31 11 29 1
32 12 30 1
33 12 31 1
34 16 32 1
35 16 33 1
36 17 34 1
37 21 35 1
38 22 36 1
39 22 37 1
40 23 38 1
41 23 39 1
42 24 40 1
43 24 41 1
44 25 42 1
45 25 43 1
46 25 44 1
@<TRIPOS>SUBSTRUCTURE
1	UNK0	1	GROUP	1 ****	UNK
