# created with PyMOL 2.3.2
@<TRIPOS>MOLECULE
1623
66 69 1                 
SMALL
USER_CHARGES
@<TRIPOS>ATOM
1	  Cl	2.465	-6.450	4.499	Cl	1	UNK0	0.000	
2	   C	1.849	-5.376	3.243	C.2	1	UNK0	0.000	
3	   C	2.586	-4.282	2.837	C.2	1	UNK0	0.000	
4	   C	2.126	-3.422	1.852	C.2	1	UNK0	0.000	
5	   C	0.899	-3.634	1.239	C.2	1	UNK0	0.000	
6	   C	0.169	-4.717	1.641	C.2	1	UNK0	0.000	
7	   C	0.634	-5.588	2.637	C.2	1	UNK0	0.000	
8	   C	0.376	-2.733	0.186	C.3	1	UNK0	0.000	
9	   N	-1.039	-2.486	0.497	N.pl3	1	UNK0	0.000	
10	   C	-1.042	-1.631	1.630	C.2	1	UNK0	0.000	
11	   O	-1.932	-1.538	2.510	O.2	1	UNK0	0.000	
12	   C	0.206	-0.875	1.568	C.2	1	UNK0	0.000	
13	   O	0.669	0.007	2.343	O.2	1	UNK0	0.000	
14	   C	0.900	-1.348	0.352	C.2	1	UNK0	0.000	
15	   C	1.778	-0.682	-0.354	C.2	1	UNK0	0.000	
16	   O	2.353	-1.328	-1.455	O.2	1	UNK0	0.000	
17	   C	2.177	0.695	-0.053	C.2	1	UNK0	0.000	
18	   C	1.308	1.715	0.226	C.2	1	UNK0	0.000	
19	   C	1.673	3.014	0.532	C.2	1	UNK0	0.000	
20	   C	3.006	3.326	0.563	C.2	1	UNK0	0.000	
21	   C	3.933	2.295	0.278	C.2	1	UNK0	0.000	
22	   C	3.533	1.026	-0.019	C.2	1	UNK0	0.000	
23	   O	3.509	4.526	0.841	O.3	1	UNK0	0.000	
24	   C	3.209	5.787	1.168	C.3	1	UNK0	0.000	
25	   C	3.873	6.117	2.521	C.3	1	UNK0	0.000	
26	   C	3.826	6.828	0.207	C.3	1	UNK0	0.000	
27	   C	0.617	4.047	0.820	C.3	1	UNK0	0.000	
28	   C	-2.181	-3.012	-0.219	C.3	1	UNK0	0.000	
29	   C	-2.544	-2.037	-1.310	C.3	1	UNK0	0.000	
30	   N	-3.671	-2.455	-2.094	N.4	1	UNK0	0.000	
31	   C	-4.746	-3.009	-1.332	C.3	1	UNK0	0.000	
32	   C	-6.055	-2.575	-1.971	C.3	1	UNK0	0.000	
33	   O	-6.281	-1.224	-1.849	O.3	1	UNK0	0.000	
34	   C	-5.143	-0.488	-2.162	C.3	1	UNK0	0.000	
35	   C	-4.153	-1.354	-2.897	C.3	1	UNK0	0.000	
36	   H	3.547	-4.088	3.294	 H	1	UNK0	0.000	
37	   H	2.683	-2.556	1.514	 H	1	UNK0	0.000	
38	   H	-0.795	-4.936	1.202	 H	1	UNK0	0.000	
39	   H	0.055	-6.445	2.956	 H	1	UNK0	0.000	
40	   H	0.528	-3.148	-0.806	 H	1	UNK0	0.000	
41	   H	0.243	1.505	0.193	 H	1	UNK0	0.000	
42	   H	4.990	2.511	0.295	 H	1	UNK0	0.000	
43	   H	4.240	0.234	-0.238	 H	1	UNK0	0.000	
44	   H	2.141	6.022	1.321	 H	1	UNK0	0.000	
45	   H	4.983	6.101	2.388	 H	1	UNK0	0.000	
46	   H	3.516	7.108	2.888	 H	1	UNK0	0.000	
47	   H	3.582	5.374	3.291	 H	1	UNK0	0.000	
48	   H	3.149	7.699	0.236	 H	1	UNK0	0.000	
49	   H	4.845	7.083	0.518	 H	1	UNK0	0.000	
50	   H	3.813	6.432	-0.835	 H	1	UNK0	0.000	
51	   H	0.658	4.340	1.880	 H	1	UNK0	0.000	
52	   H	-0.387	3.520	0.690	 H	1	UNK0	0.000	
53	   H	0.583	4.851	0.088	 H	1	UNK0	0.000	
54	   H	-1.932	-4.016	-0.670	 H	1	UNK0	0.000	
55	   H	-2.979	-3.191	0.503	 H	1	UNK0	0.000	
56	   H	-1.665	-1.948	-1.981	 H	1	UNK0	0.000	
57	   H	-2.726	-1.026	-0.895	 H	1	UNK0	0.000	
58	   H	-3.378	-3.205	-2.791	 H	1	UNK0	0.000	
59	   H	-4.751	-4.136	-1.385	 H	1	UNK0	0.000	
60	   H	-4.786	-2.660	-0.280	 H	1	UNK0	0.000	
61	   H	-6.078	-2.915	-3.022	 H	1	UNK0	0.000	
62	   H	-6.858	-3.113	-1.410	 H	1	UNK0	0.000	
63	   H	-5.456	0.317	-2.850	 H	1	UNK0	0.000	
64	   H	-4.708	0.000	-1.268	 H	1	UNK0	0.000	
65	   H	-4.645	-1.699	-3.831	 H	1	UNK0	0.000	
66	   H	-3.314	-0.701	-3.225	 H	1	UNK0	0.000	
@<TRIPOS>BOND
1 1 2 1
2 2 3 2
3 2 7 1
4 3 4 1
5 4 5 2
6 5 6 1
7 5 8 1
8 6 7 2
9 8 9 1
10 8 14 1
11 9 10 1
12 9 28 1
13 10 11 2
14 10 12 1
15 12 13 2
16 12 14 1
17 14 15 2
18 15 16 1
19 15 17 1
20 17 18 2
21 17 22 1
22 18 19 1
23 19 20 2
24 19 27 1
25 20 21 1
26 20 23 1
27 21 22 2
28 23 24 1
29 24 25 1
30 24 26 1
31 28 29 1
32 29 30 1
33 30 31 1
34 30 35 1
35 31 32 1
36 32 33 1
37 33 34 1
38 34 35 1
39 3 36 1
40 4 37 1
41 6 38 1
42 7 39 1
43 8 40 1
44 18 41 1
45 21 42 1
46 22 43 1
47 24 44 1
48 25 45 1
49 25 46 1
50 25 47 1
51 26 48 1
52 26 49 1
53 26 50 1
54 27 51 1
55 27 52 1
56 27 53 1
57 28 54 1
58 28 55 1
59 29 56 1
60 29 57 1
61 30 58 1
62 31 59 1
63 31 60 1
64 32 61 1
65 32 62 1
66 34 63 1
67 34 64 1
68 35 65 1
69 35 66 1
@<TRIPOS>SUBSTRUCTURE
1	UNK0	1	GROUP	1 ****	UNK
