# created with PyMOL 2.3.2
@<TRIPOS>MOLECULE
1624
53 56 1                 
SMALL
USER_CHARGES
@<TRIPOS>ATOM
1	  Cl	2.121	-1.543	5.040	Cl	1	UNK0	0.000	
2	   C	1.849	-0.874	3.455	C.2	1	UNK0	0.000	
3	   C	0.645	-0.340	3.102	C.2	1	UNK0	0.000	
4	   C	0.481	0.179	1.826	C.2	1	UNK0	0.000	
5	   C	1.466	0.185	0.891	C.2	1	UNK0	0.000	
6	   C	2.696	-0.362	1.256	C.2	1	UNK0	0.000	
7	   C	2.883	-0.883	2.516	C.2	1	UNK0	0.000	
8	   C	1.286	0.724	-0.451	C.3	1	UNK0	0.000	
9	   N	0.092	0.123	-1.073	N.pl3	1	UNK0	0.000	
10	   C	-1.040	0.898	-0.701	C.2	1	UNK0	0.000	
11	   O	-2.222	0.548	-0.709	O.2	1	UNK0	0.000	
12	   C	-0.545	2.228	-0.295	C.2	1	UNK0	0.000	
13	   O	-1.224	3.224	0.114	O.2	1	UNK0	0.000	
14	   C	0.899	2.173	-0.454	C.2	1	UNK0	0.000	
15	   C	1.670	3.228	-0.545	C.2	1	UNK0	0.000	
16	   O	3.043	3.026	-0.649	O.2	1	UNK0	0.000	
17	   C	1.223	4.617	-0.552	C.2	1	UNK0	0.000	
18	   C	1.890	5.480	0.310	C.2	1	UNK0	0.000	
19	   C	1.542	6.801	0.338	C.2	1	UNK0	0.000	
20	   C	0.539	7.296	-0.473	C.2	1	UNK0	0.000	
21	   C	-0.119	6.436	-1.326	C.2	1	UNK0	0.000	
22	   C	0.242	5.104	-1.346	C.2	1	UNK0	0.000	
23	  Cl	0.132	8.979	-0.402	Cl	1	UNK0	0.000	
24	   C	0.188	-1.047	-1.908	C.3	1	UNK0	0.000	
25	   C	0.095	-2.350	-1.210	C.3	1	UNK0	0.000	
26	   N	-1.095	-2.670	-0.513	N.4	1	UNK0	0.000	
27	   C	-0.936	-2.743	0.924	C.3	1	UNK0	0.000	
28	   C	-1.376	-4.060	1.517	C.3	1	UNK0	0.000	
29	   O	-2.610	-4.493	1.106	O.3	1	UNK0	0.000	
30	   C	-2.799	-4.413	-0.261	C.3	1	UNK0	0.000	
31	   C	-1.508	-4.030	-0.919	C.3	1	UNK0	0.000	
32	   H	-0.153	-0.336	3.833	 H	1	UNK0	0.000	
33	   H	-0.482	0.590	1.601	 H	1	UNK0	0.000	
34	   H	3.489	-0.364	0.523	 H	1	UNK0	0.000	
35	   H	3.816	-1.313	2.835	 H	1	UNK0	0.000	
36	   H	2.164	0.552	-1.114	 H	1	UNK0	0.000	
37	   H	2.692	5.099	0.963	 H	1	UNK0	0.000	
38	   H	2.091	7.442	1.029	 H	1	UNK0	0.000	
39	   H	-0.899	6.852	-1.949	 H	1	UNK0	0.000	
40	   H	-0.280	4.441	-2.044	 H	1	UNK0	0.000	
41	   H	1.209	-1.013	-2.401	 H	1	UNK0	0.000	
42	   H	-0.502	-0.976	-2.787	 H	1	UNK0	0.000	
43	   H	0.336	-3.193	-1.933	 H	1	UNK0	0.000	
44	   H	0.938	-2.471	-0.451	 H	1	UNK0	0.000	
45	   H	-1.901	-2.080	-0.777	 H	1	UNK0	0.000	
46	   H	-1.505	-1.909	1.377	 H	1	UNK0	0.000	
47	   H	0.123	-2.618	1.233	 H	1	UNK0	0.000	
48	   H	-1.413	-3.887	2.626	 H	1	UNK0	0.000	
49	   H	-0.577	-4.823	1.378	 H	1	UNK0	0.000	
50	   H	-3.138	-5.362	-0.701	 H	1	UNK0	0.000	
51	   H	-3.545	-3.625	-0.500	 H	1	UNK0	0.000	
52	   H	-0.680	-4.706	-0.651	 H	1	UNK0	0.000	
53	   H	-1.620	-4.077	-2.028	 H	1	UNK0	0.000	
@<TRIPOS>BOND
1 1 2 1
2 2 3 2
3 2 7 1
4 3 4 1
5 4 5 2
6 5 6 1
7 5 8 1
8 6 7 2
9 8 9 1
10 8 14 1
11 9 10 1
12 9 24 1
13 10 11 2
14 10 12 1
15 12 13 2
16 12 14 1
17 14 15 2
18 15 16 1
19 15 17 1
20 17 18 2
21 17 22 1
22 18 19 1
23 19 20 2
24 20 21 1
25 20 23 1
26 21 22 2
27 24 25 1
28 25 26 1
29 26 27 1
30 26 31 1
31 27 28 1
32 28 29 1
33 29 30 1
34 30 31 1
35 3 32 1
36 4 33 1
37 6 34 1
38 7 35 1
39 8 36 1
40 18 37 1
41 19 38 1
42 21 39 1
43 22 40 1
44 24 41 1
45 24 42 1
46 25 43 1
47 25 44 1
48 26 45 1
49 27 46 1
50 27 47 1
51 28 48 1
52 28 49 1
53 30 50 1
54 30 51 1
55 31 52 1
56 31 53 1
@<TRIPOS>SUBSTRUCTURE
1	UNK0	1	GROUP	1 ****	UNK
