# created with PyMOL 2.3.2
@<TRIPOS>MOLECULE
1625
63 66 1                 
SMALL
USER_CHARGES
@<TRIPOS>ATOM
1	  Cl	-2.689	-5.528	-2.329	Cl	1	UNK0	0.000	
2	   C	-1.585	-4.174	-2.208	C.2	1	UNK0	0.000	
3	   C	-0.370	-4.209	-2.859	C.2	1	UNK0	0.000	
4	   C	0.497	-3.153	-2.768	C.2	1	UNK0	0.000	
5	   C	0.218	-1.993	-2.028	C.2	1	UNK0	0.000	
6	   C	-0.994	-1.975	-1.387	C.2	1	UNK0	0.000	
7	   C	-1.871	-3.045	-1.480	C.2	1	UNK0	0.000	
8	   C	1.227	-0.932	-1.968	C.3	1	UNK0	0.000	
9	   N	0.857	0.358	-2.444	N.pl3	1	UNK0	0.000	
10	   C	1.637	1.313	-1.688	C.2	1	UNK0	0.000	
11	   O	1.811	2.517	-2.027	O.2	1	UNK0	0.000	
12	   C	2.165	0.660	-0.507	C.2	1	UNK0	0.000	
13	   O	2.893	1.168	0.403	O.2	1	UNK0	0.000	
14	   C	1.695	-0.703	-0.565	C.2	1	UNK0	0.000	
15	   C	1.646	-1.585	0.437	C.2	1	UNK0	0.000	
16	   O	1.096	-2.836	0.134	O.2	1	UNK0	0.000	
17	   C	2.141	-1.274	1.770	C.2	1	UNK0	0.000	
18	   C	1.291	-1.328	2.871	C.2	1	UNK0	0.000	
19	   C	1.710	-1.090	4.165	C.2	1	UNK0	0.000	
20	   C	3.018	-0.777	4.443	C.2	1	UNK0	0.000	
21	   C	3.879	-0.723	3.332	C.2	1	UNK0	0.000	
22	   C	3.456	-0.962	2.048	C.2	1	UNK0	0.000	
23	   O	3.512	-0.522	5.695	O.3	1	UNK0	0.000	
24	   C	2.856	-0.487	6.910	C.3	1	UNK0	0.000	
25	   C	1.815	0.573	7.083	C.3	1	UNK0	0.000	
26	   C	1.239	0.402	8.491	C.3	1	UNK0	0.000	
27	   C	-0.051	0.762	-3.533	C.3	1	UNK0	0.000	
28	   C	-1.419	1.137	-3.090	C.3	1	UNK0	0.000	
29	   N	-2.267	1.537	-4.203	N.4	1	UNK0	0.000	
30	   C	-2.153	2.944	-4.505	C.3	1	UNK0	0.000	
31	   C	-3.031	3.798	-3.611	C.3	1	UNK0	0.000	
32	   O	-3.372	3.142	-2.435	O.3	1	UNK0	0.000	
33	   C	-4.156	2.035	-2.703	C.3	1	UNK0	0.000	
34	   C	-3.631	1.206	-3.842	C.3	1	UNK0	0.000	
35	   H	-0.148	-5.108	-3.436	 H	1	UNK0	0.000	
36	   H	1.446	-3.226	-3.300	 H	1	UNK0	0.000	
37	   H	-1.234	-1.090	-0.796	 H	1	UNK0	0.000	
38	   H	-2.820	-2.975	-0.950	 H	1	UNK0	0.000	
39	   H	2.148	-1.297	-2.504	 H	1	UNK0	0.000	
40	   H	0.259	-1.573	2.664	 H	1	UNK0	0.000	
41	   H	1.001	-1.168	4.998	 H	1	UNK0	0.000	
42	   H	4.921	-0.475	3.548	 H	1	UNK0	0.000	
43	   H	4.166	-0.939	1.216	 H	1	UNK0	0.000	
44	   H	2.355	-1.467	7.163	 H	1	UNK0	0.000	
45	   H	3.630	-0.275	7.716	 H	1	UNK0	0.000	
46	   H	2.351	1.575	7.112	 H	1	UNK0	0.000	
47	   H	0.977	0.587	6.412	 H	1	UNK0	0.000	
48	   H	1.080	1.396	8.969	 H	1	UNK0	0.000	
49	   H	1.902	-0.179	9.144	 H	1	UNK0	0.000	
50	   H	0.237	-0.084	8.448	 H	1	UNK0	0.000	
51	   H	0.416	1.510	-4.178	 H	1	UNK0	0.000	
52	   H	-0.141	-0.175	-4.160	 H	1	UNK0	0.000	
53	   H	-1.942	0.410	-2.466	 H	1	UNK0	0.000	
54	   H	-1.296	2.047	-2.425	 H	1	UNK0	0.000	
55	   H	-2.042	0.966	-5.049	 H	1	UNK0	0.000	
56	   H	-2.560	3.082	-5.547	 H	1	UNK0	0.000	
57	   H	-1.091	3.264	-4.432	 H	1	UNK0	0.000	
58	   H	-3.963	4.119	-4.109	 H	1	UNK0	0.000	
59	   H	-2.480	4.714	-3.329	 H	1	UNK0	0.000	
60	   H	-4.230	1.452	-1.745	 H	1	UNK0	0.000	
61	   H	-5.198	2.402	-2.910	 H	1	UNK0	0.000	
62	   H	-4.329	1.297	-4.707	 H	1	UNK0	0.000	
63	   H	-3.640	0.132	-3.517	 H	1	UNK0	0.000	
@<TRIPOS>BOND
1 1 2 1
2 2 3 2
3 2 7 1
4 3 4 1
5 4 5 2
6 5 6 1
7 5 8 1
8 6 7 2
9 8 9 1
10 8 14 1
11 9 10 1
12 9 27 1
13 10 11 2
14 10 12 1
15 12 13 2
16 12 14 1
17 14 15 2
18 15 16 1
19 15 17 1
20 17 18 2
21 17 22 1
22 18 19 1
23 19 20 2
24 20 21 1
25 20 23 1
26 21 22 2
27 23 24 1
28 24 25 1
29 25 26 1
30 27 28 1
31 28 29 1
32 29 30 1
33 29 34 1
34 30 31 1
35 31 32 1
36 32 33 1
37 33 34 1
38 3 35 1
39 4 36 1
40 6 37 1
41 7 38 1
42 8 39 1
43 18 40 1
44 19 41 1
45 21 42 1
46 22 43 1
47 24 44 1
48 24 45 1
49 25 46 1
50 25 47 1
51 26 48 1
52 26 49 1
53 26 50 1
54 27 51 1
55 27 52 1
56 28 53 1
57 28 54 1
58 29 55 1
59 30 56 1
60 30 57 1
61 31 58 1
62 31 59 1
63 33 60 1
64 33 61 1
65 34 62 1
66 34 63 1
@<TRIPOS>SUBSTRUCTURE
1	UNK0	1	GROUP	1 ****	UNK
