# created with PyMOL 2.3.2
@<TRIPOS>MOLECULE
1626
62 66 1                 
SMALL
USER_CHARGES
@<TRIPOS>ATOM
1	  Cl	4.598	3.657	-3.264	Cl	1	UNK0	0.000	
2	   C	3.903	2.397	-2.232	C.2	1	UNK0	0.000	
3	   C	3.874	2.577	-0.869	C.2	1	UNK0	0.000	
4	   C	3.337	1.606	-0.071	C.2	1	UNK0	0.000	
5	   C	2.818	0.433	-0.618	C.2	1	UNK0	0.000	
6	   C	2.858	0.278	-1.967	C.2	1	UNK0	0.000	
7	   C	3.402	1.257	-2.811	C.2	1	UNK0	0.000	
8	   C	2.286	-0.533	0.265	C.3	1	UNK0	0.000	
9	   N	2.300	-1.934	0.111	N.pl3	1	UNK0	0.000	
10	   C	1.837	-2.411	1.435	C.2	1	UNK0	0.000	
11	   O	2.125	-3.489	2.004	O.2	1	UNK0	0.000	
12	   C	0.965	-1.350	1.936	C.2	1	UNK0	0.000	
13	   O	0.320	-1.278	3.024	O.2	1	UNK0	0.000	
14	   C	0.962	-0.318	0.898	C.2	1	UNK0	0.000	
15	   C	0.040	0.586	0.646	C.2	1	UNK0	0.000	
16	   O	0.299	1.513	-0.361	O.2	1	UNK0	0.000	
17	   C	-1.183	0.567	1.414	C.2	1	UNK0	0.000	
18	   N	-1.603	1.691	2.070	N.pl3	1	UNK0	0.000	
19	   C	-2.772	1.359	2.646	C.2	1	UNK0	0.000	
20	   N	-3.072	0.079	2.362	N.2	1	UNK0	0.000	
21	   C	-2.098	-0.445	1.592	C.2	1	UNK0	0.000	
22	   C	-2.050	-1.835	1.019	C.3	1	UNK0	0.000	
23	   C	-3.411	2.352	3.385	C.2	1	UNK0	0.000	
24	   C	-2.912	3.604	3.541	C.2	1	UNK0	0.000	
25	   C	-1.711	3.905	2.934	C.2	1	UNK0	0.000	
26	   C	-1.084	2.925	2.207	C.2	1	UNK0	0.000	
27	   C	-4.708	1.968	4.019	C.3	1	UNK0	0.000	
28	   C	2.665	-2.921	-0.865	C.3	1	UNK0	0.000	
29	   C	1.553	-3.571	-1.623	C.3	1	UNK0	0.000	
30	   N	0.710	-2.723	-2.365	N.4	1	UNK0	0.000	
31	   C	-0.677	-3.231	-2.412	C.3	1	UNK0	0.000	
32	   C	-1.498	-2.112	-2.993	C.3	1	UNK0	0.000	
33	   O	-0.730	-1.054	-3.461	O.3	1	UNK0	0.000	
34	   C	0.229	-1.529	-4.369	C.3	1	UNK0	0.000	
35	   C	1.068	-2.628	-3.792	C.3	1	UNK0	0.000	
36	   H	4.281	3.501	-0.412	 H	1	UNK0	0.000	
37	   H	3.315	1.754	1.032	 H	1	UNK0	0.000	
38	   H	2.500	-0.581	-2.514	 H	1	UNK0	0.000	
39	   H	3.444	1.155	-3.884	 H	1	UNK0	0.000	
40	   H	2.988	-0.409	1.220	 H	1	UNK0	0.000	
41	   H	-3.053	-2.137	0.647	 H	1	UNK0	0.000	
42	   H	-1.299	-1.822	0.222	 H	1	UNK0	0.000	
43	   H	-1.826	-2.512	1.865	 H	1	UNK0	0.000	
44	   H	-3.418	4.365	4.117	 H	1	UNK0	0.000	
45	   H	-1.289	4.913	3.047	 H	1	UNK0	0.000	
46	   H	-0.148	3.165	1.736	 H	1	UNK0	0.000	
47	   H	-5.200	1.135	3.507	 H	1	UNK0	0.000	
48	   H	-5.385	2.863	4.078	 H	1	UNK0	0.000	
49	   H	-4.463	1.722	5.085	 H	1	UNK0	0.000	
50	   H	3.389	-2.560	-1.627	 H	1	UNK0	0.000	
51	   H	3.274	-3.706	-0.305	 H	1	UNK0	0.000	
52	   H	0.986	-4.303	-0.978	 H	1	UNK0	0.000	
53	   H	2.064	-4.252	-2.388	 H	1	UNK0	0.000	
54	   H	0.631	-1.761	-2.008	 H	1	UNK0	0.000	
55	   H	-0.987	-3.520	-1.402	 H	1	UNK0	0.000	
56	   H	-0.691	-4.110	-3.100	 H	1	UNK0	0.000	
57	   H	-2.173	-1.705	-2.195	 H	1	UNK0	0.000	
58	   H	-2.173	-2.471	-3.802	 H	1	UNK0	0.000	
59	   H	0.862	-0.650	-4.661	 H	1	UNK0	0.000	
60	   H	-0.308	-1.818	-5.299	 H	1	UNK0	0.000	
61	   H	2.127	-2.439	-3.945	 H	1	UNK0	0.000	
62	   H	0.753	-3.576	-4.313	 H	1	UNK0	0.000	
@<TRIPOS>BOND
1 1 2 1
2 2 3 2
3 2 7 1
4 3 4 1
5 4 5 2
6 5 6 1
7 5 8 1
8 6 7 2
9 8 9 1
10 8 14 1
11 9 10 1
12 9 28 1
13 10 11 2
14 10 12 1
15 12 13 2
16 12 14 1
17 14 15 2
18 15 16 1
19 15 17 1
20 17 18 1
21 17 21 2
22 18 19 1
23 18 26 1
24 19 20 2
25 19 23 1
26 20 21 1
27 21 22 1
28 23 24 2
29 23 27 1
30 24 25 1
31 25 26 2
32 28 29 1
33 29 30 1
34 30 31 1
35 30 35 1
36 31 32 1
37 32 33 1
38 33 34 1
39 34 35 1
40 3 36 1
41 4 37 1
42 6 38 1
43 7 39 1
44 8 40 1
45 22 41 1
46 22 42 1
47 22 43 1
48 24 44 1
49 25 45 1
50 26 46 1
51 27 47 1
52 27 48 1
53 27 49 1
54 28 50 1
55 28 51 1
56 29 52 1
57 29 53 1
58 30 54 1
59 31 55 1
60 31 56 1
61 32 57 1
62 32 58 1
63 34 59 1
64 34 60 1
65 35 61 1
66 35 62 1
@<TRIPOS>SUBSTRUCTURE
1	UNK0	1	GROUP	1 ****	UNK
