# created with PyMOL 2.3.2
@<TRIPOS>MOLECULE
1627
63 66 1                 
SMALL
USER_CHARGES
@<TRIPOS>ATOM
1	  Cl	5.051	-0.025	5.047	Cl	1	UNK0	0.000	
2	   C	3.983	0.424	3.747	C.2	1	UNK0	0.000	
3	   C	3.250	-0.491	3.026	C.2	1	UNK0	0.000	
4	   C	2.407	-0.123	1.996	C.2	1	UNK0	0.000	
5	   C	2.237	1.189	1.611	C.2	1	UNK0	0.000	
6	   C	2.996	2.099	2.363	C.2	1	UNK0	0.000	
7	   C	3.835	1.745	3.386	C.2	1	UNK0	0.000	
8	   C	1.395	1.652	0.556	C.3	1	UNK0	0.000	
9	   N	1.544	1.319	-0.797	N.pl3	1	UNK0	0.000	
10	   C	0.403	2.049	-1.415	C.2	1	UNK0	0.000	
11	   O	0.361	2.491	-2.598	O.2	1	UNK0	0.000	
12	   C	-0.636	2.152	-0.412	C.2	1	UNK0	0.000	
13	   O	-1.792	2.700	-0.506	O.2	1	UNK0	0.000	
14	   C	-0.073	1.477	0.776	C.2	1	UNK0	0.000	
15	   C	-0.770	0.960	1.755	C.2	1	UNK0	0.000	
16	   O	-0.084	0.452	2.861	O.2	1	UNK0	0.000	
17	   C	-2.236	0.900	1.708	C.2	1	UNK0	0.000	
18	   N	-3.044	0.364	0.767	N.pl3	1	UNK0	0.000	
19	   C	-4.326	0.591	1.139	C.2	1	UNK0	0.000	
20	   N	-4.313	1.262	2.306	N.2	1	UNK0	0.000	
21	   C	-3.043	1.475	2.696	C.2	1	UNK0	0.000	
22	   C	-2.549	2.169	3.912	C.3	1	UNK0	0.000	
23	   C	-5.338	0.126	0.340	C.2	1	UNK0	0.000	
24	   C	-5.055	-0.564	-0.825	C.2	1	UNK0	0.000	
25	   C	-3.751	-0.794	-1.200	C.2	1	UNK0	0.000	
26	   C	-2.758	-0.315	-0.379	C.2	1	UNK0	0.000	
27	   C	2.417	0.640	-1.717	C.3	1	UNK0	0.000	
28	   C	2.056	-0.683	-2.234	C.3	1	UNK0	0.000	
29	   C	2.001	-1.907	-1.475	C.3	1	UNK0	0.000	
30	   N	3.144	-2.556	-0.954	N.4	1	UNK0	0.000	
31	   C	2.965	-3.237	0.302	C.3	1	UNK0	0.000	
32	   C	1.507	-3.706	0.449	C.3	1	UNK0	0.000	
33	   C	4.429	-2.008	-1.063	C.3	1	UNK0	0.000	
34	   C	5.082	-1.406	0.128	C.3	1	UNK0	0.000	
35	   H	3.344	-1.552	3.288	 H	1	UNK0	0.000	
36	   H	1.827	-0.848	1.441	 H	1	UNK0	0.000	
37	   H	2.917	3.141	2.122	 H	1	UNK0	0.000	
38	   H	4.411	2.484	3.951	 H	1	UNK0	0.000	
39	   H	1.472	2.816	0.573	 H	1	UNK0	0.000	
40	   H	-3.295	2.080	4.732	 H	1	UNK0	0.000	
41	   H	-2.342	3.248	3.701	 H	1	UNK0	0.000	
42	   H	-1.613	1.705	4.301	 H	1	UNK0	0.000	
43	   H	-6.380	0.293	0.612	 H	1	UNK0	0.000	
44	   H	-5.846	-0.937	-1.466	 H	1	UNK0	0.000	
45	   H	-3.492	-1.333	-2.108	 H	1	UNK0	0.000	
46	   H	-1.706	-0.476	-0.620	 H	1	UNK0	0.000	
47	   H	3.449	0.542	-1.251	 H	1	UNK0	0.000	
48	   H	2.580	1.324	-2.599	 H	1	UNK0	0.000	
49	   H	2.604	-0.805	-3.240	 H	1	UNK0	0.000	
50	   H	0.992	-0.510	-2.691	 H	1	UNK0	0.000	
51	   H	1.292	-1.734	-0.602	 H	1	UNK0	0.000	
52	   H	1.349	-2.654	-2.070	 H	1	UNK0	0.000	
53	   H	3.206	-3.448	-1.641	 H	1	UNK0	0.000	
54	   H	3.280	-2.688	1.183	 H	1	UNK0	0.000	
55	   H	3.527	-4.227	0.222	 H	1	UNK0	0.000	
56	   H	1.475	-4.672	1.033	 H	1	UNK0	0.000	
57	   H	1.061	-3.953	-0.532	 H	1	UNK0	0.000	
58	   H	0.891	-3.001	1.007	 H	1	UNK0	0.000	
59	   H	5.147	-2.878	-1.311	 H	1	UNK0	0.000	
60	   H	4.600	-1.367	-1.959	 H	1	UNK0	0.000	
61	   H	6.177	-1.257	-0.176	 H	1	UNK0	0.000	
62	   H	4.760	-0.431	0.459	 H	1	UNK0	0.000	
63	   H	5.165	-2.084	0.997	 H	1	UNK0	0.000	
@<TRIPOS>BOND
1 1 2 1
2 2 3 2
3 2 7 1
4 3 4 1
5 4 5 2
6 5 6 1
7 5 8 1
8 6 7 2
9 8 9 1
10 8 14 1
11 9 10 1
12 9 27 1
13 10 11 2
14 10 12 1
15 12 13 2
16 12 14 1
17 14 15 2
18 15 16 1
19 15 17 1
20 17 18 1
21 17 21 2
22 18 19 1
23 18 26 1
24 19 20 2
25 19 23 1
26 20 21 1
27 21 22 1
28 23 24 2
29 24 25 1
30 25 26 2
31 27 28 1
32 28 29 1
33 29 30 1
34 30 31 1
35 30 33 1
36 31 32 1
37 33 34 1
38 3 35 1
39 4 36 1
40 6 37 1
41 7 38 1
42 8 39 1
43 22 40 1
44 22 41 1
45 22 42 1
46 23 43 1
47 24 44 1
48 25 45 1
49 26 46 1
50 27 47 1
51 27 48 1
52 28 49 1
53 28 50 1
54 29 51 1
55 29 52 1
56 30 53 1
57 31 54 1
58 31 55 1
59 32 56 1
60 32 57 1
61 32 58 1
62 33 59 1
63 33 60 1
64 34 61 1
65 34 62 1
66 34 63 1
@<TRIPOS>SUBSTRUCTURE
1	UNK0	1	GROUP	1 ****	UNK
