# created with PyMOL 2.3.2
@<TRIPOS>MOLECULE
1628
43 46 1                 
SMALL
USER_CHARGES
@<TRIPOS>ATOM
1	   S	-0.366	0.545	3.449	S.O2	1	UNK0	0.000	
2	   O	0.741	1.270	4.157	O.2	1	UNK0	0.000	
3	   O	-1.446	0.156	4.440	O.2	1	UNK0	0.000	
4	   N	0.271	-0.850	2.656	N.3	1	UNK0	0.000	
5	   C	-0.759	-1.584	1.964	C.3	1	UNK0	0.000	
6	   C	-0.169	-2.762	1.305	C.2	1	UNK0	0.000	
7	   N	0.327	-2.763	0.030	N.pl3	1	UNK0	0.000	
8	   C	0.788	-3.985	-0.263	C.2	1	UNK0	0.000	
9	   N	0.581	-4.749	0.826	N.2	1	UNK0	0.000	
10	   N	0.010	-4.010	1.757	N.2	1	UNK0	0.000	
11	   C	1.339	-4.216	-1.513	C.2	1	UNK0	0.000	
12	   C	1.393	-3.173	-2.414	C.2	1	UNK0	0.000	
13	   C	0.915	-1.909	-2.105	C.2	1	UNK0	0.000	
14	   N	0.393	-1.783	-0.855	N.2	1	UNK0	0.000	
15	   N	0.969	-0.851	-3.016	N.pl3	1	UNK0	0.000	
16	   C	0.501	0.490	-2.843	C.3	1	UNK0	0.000	
17	   C	1.638	1.293	-3.447	C.3	1	UNK0	0.000	
18	   C	2.480	0.306	-4.229	C.3	1	UNK0	0.000	
19	   C	1.512	-0.887	-4.332	C.3	1	UNK0	0.000	
20	   C	-1.072	1.655	2.297	C.2	1	UNK0	0.000	
21	   C	-0.299	2.204	1.288	C.2	1	UNK0	0.000	
22	   C	-0.828	3.081	0.366	C.2	1	UNK0	0.000	
23	   C	-2.154	3.451	0.409	C.2	1	UNK0	0.000	
24	   C	-2.915	2.899	1.416	C.2	1	UNK0	0.000	
25	   C	-2.401	2.020	2.346	C.2	1	UNK0	0.000	
26	  Cl	1.403	1.751	1.206	Cl	1	UNK0	0.000	
27	   H	0.702	-1.478	3.363	 H	1	UNK0	0.000	
28	   H	-1.232	-0.917	1.219	 H	1	UNK0	0.000	
29	   H	-1.536	-1.883	2.694	 H	1	UNK0	0.000	
30	   H	1.704	-5.210	-1.726	 H	1	UNK0	0.000	
31	   H	1.836	-3.393	-3.395	 H	1	UNK0	0.000	
32	   H	-0.389	0.675	-3.481	 H	1	UNK0	0.000	
33	   H	0.323	0.762	-1.784	 H	1	UNK0	0.000	
34	   H	2.269	1.770	-2.652	 H	1	UNK0	0.000	
35	   H	1.245	2.095	-4.113	 H	1	UNK0	0.000	
36	   H	2.774	0.662	-5.211	 H	1	UNK0	0.000	
37	   H	3.329	-0.063	-3.608	 H	1	UNK0	0.000	
38	   H	0.789	-0.575	-5.119	 H	1	UNK0	0.000	
39	   H	2.059	-1.805	-4.607	 H	1	UNK0	0.000	
40	   H	-0.188	3.481	-0.398	 H	1	UNK0	0.000	
41	   H	-2.631	4.130	-0.280	 H	1	UNK0	0.000	
42	   H	-3.957	3.171	1.473	 H	1	UNK0	0.000	
43	   H	-3.058	1.611	3.129	 H	1	UNK0	0.000	
@<TRIPOS>BOND
1 1 2 2
2 1 3 2
3 1 4 1
4 1 20 1
5 4 5 1
6 5 6 1
7 6 7 1
8 6 10 2
9 7 8 1
10 7 14 1
11 8 9 2
12 8 11 1
13 9 10 1
14 11 12 2
15 12 13 1
16 13 14 2
17 13 15 1
18 15 16 1
19 15 19 1
20 16 17 1
21 17 18 1
22 18 19 1
23 20 21 2
24 20 25 1
25 21 22 1
26 21 26 1
27 22 23 2
28 23 24 1
29 24 25 2
30 4 27 1
31 5 28 1
32 5 29 1
33 11 30 1
34 12 31 1
35 16 32 1
36 16 33 1
37 17 34 1
38 17 35 1
39 18 36 1
40 18 37 1
41 19 38 1
42 19 39 1
43 22 40 1
44 23 41 1
45 24 42 1
46 25 43 1
@<TRIPOS>SUBSTRUCTURE
1	UNK0	1	GROUP	1 ****	UNK
