# created with PyMOL 2.3.2
@<TRIPOS>MOLECULE
1629
47 51 1                 
SMALL
USER_CHARGES
@<TRIPOS>ATOM
1	  Br	-8.765	1.780	-0.214	Br	1	UNK0	0.000	
2	   C	-7.134	0.933	-0.748	C.2	1	UNK0	0.000	
3	   C	-6.853	0.738	-2.089	C.2	1	UNK0	0.000	
4	   C	-5.681	0.128	-2.505	C.2	1	UNK0	0.000	
5	   C	-4.747	-0.308	-1.582	C.2	1	UNK0	0.000	
6	   C	-5.055	-0.099	-0.252	C.2	1	UNK0	0.000	
7	   C	-6.207	0.501	0.182	C.2	1	UNK0	0.000	
8	   N	-3.526	-0.942	-1.985	N.pl3	1	UNK0	0.000	
9	   C	-2.383	-0.349	-2.372	C.2	1	UNK0	0.000	
10	   O	-2.184	0.885	-2.449	O.2	1	UNK0	0.000	
11	   C	-1.411	-1.292	-2.691	C.2	1	UNK0	0.000	
12	   C	-1.991	-2.463	-2.487	C.2	1	UNK0	0.000	
13	   N	-1.046	-3.397	-2.796	N.pl3	1	UNK0	0.000	
14	   N	0.057	-2.765	-3.170	N.pl3	1	UNK0	0.000	
15	   N	-0.135	-1.458	-3.116	N.pl3	1	UNK0	0.000	
16	   C	0.797	-0.396	-3.436	C.3	1	UNK0	0.000	
17	   C	1.589	0.004	-2.210	C.2	1	UNK0	0.000	
18	   O	2.426	0.918	-2.380	O.2	1	UNK0	0.000	
19	   N	1.399	-0.602	-0.981	N.pl3	1	UNK0	0.000	
20	   C	2.061	-0.320	0.220	C.2	1	UNK0	0.000	
21	   C	2.880	0.762	0.375	C.2	1	UNK0	0.000	
22	   C	3.554	1.051	1.554	C.2	1	UNK0	0.000	
23	   C	3.384	0.198	2.622	C.2	1	UNK0	0.000	
24	   C	2.555	-0.912	2.493	C.2	1	UNK0	0.000	
25	   C	1.905	-1.173	1.324	C.2	1	UNK0	0.000	
26	   O	4.062	0.497	3.795	O.3	1	UNK0	0.000	
27	   C	4.423	1.874	3.972	C.3	1	UNK0	0.000	
28	   C	5.188	2.397	2.774	C.3	1	UNK0	0.000	
29	   O	4.372	2.177	1.628	O.3	1	UNK0	0.000	
30	   C	-3.288	-2.264	-2.055	C.2	1	UNK0	0.000	
31	   O	-4.073	-3.207	-1.784	O.2	1	UNK0	0.000	
32	   H	-7.574	1.074	-2.826	 H	1	UNK0	0.000	
33	   H	-5.437	-0.037	-3.547	 H	1	UNK0	0.000	
34	   H	-4.343	-0.430	0.491	 H	1	UNK0	0.000	
35	   H	-6.457	0.669	1.219	 H	1	UNK0	0.000	
36	   H	-1.184	-4.444	-2.742	 H	1	UNK0	0.000	
37	   H	0.976	-3.186	-3.475	 H	1	UNK0	0.000	
38	   H	0.292	0.457	-3.889	 H	1	UNK0	0.000	
39	   H	1.536	-0.789	-4.157	 H	1	UNK0	0.000	
40	   H	0.659	-1.375	-0.949	 H	1	UNK0	0.000	
41	   H	3.053	1.482	-0.424	 H	1	UNK0	0.000	
42	   H	2.448	-1.558	3.358	 H	1	UNK0	0.000	
43	   H	1.254	-2.034	1.201	 H	1	UNK0	0.000	
44	   H	3.508	2.489	4.066	 H	1	UNK0	0.000	
45	   H	5.096	1.978	4.859	 H	1	UNK0	0.000	
46	   H	6.187	1.948	2.672	 H	1	UNK0	0.000	
47	   H	5.249	3.498	2.897	 H	1	UNK0	0.000	
@<TRIPOS>BOND
1 1 2 1
2 2 3 2
3 2 7 1
4 3 4 1
5 4 5 2
6 5 6 1
7 5 8 1
8 6 7 2
9 8 9 1
10 8 30 1
11 9 10 2
12 9 11 1
13 11 12 2
14 11 15 1
15 12 13 1
16 12 30 1
17 13 14 1
18 14 15 1
19 15 16 1
20 16 17 1
21 17 18 2
22 17 19 1
23 19 20 1
24 20 21 2
25 20 25 1
26 21 22 1
27 22 23 2
28 22 29 1
29 23 24 1
30 23 26 1
31 24 25 2
32 26 27 1
33 27 28 1
34 28 29 1
35 30 31 2
36 3 32 1
37 4 33 1
38 6 34 1
39 7 35 1
40 13 36 1
41 14 37 1
42 16 38 1
43 16 39 1
44 19 40 1
45 21 41 1
46 24 42 1
47 25 43 1
48 27 44 1
49 27 45 1
50 28 46 1
51 28 47 1
@<TRIPOS>SUBSTRUCTURE
1	UNK0	1	GROUP	1 ****	UNK
