# created with PyMOL 2.3.2
@<TRIPOS>MOLECULE
1631
42 45 1                 
SMALL
USER_CHARGES
@<TRIPOS>ATOM
1	  Cl	3.351	4.897	0.028	Cl	1	UNK0	0.000	
2	   C	2.968	3.259	-0.454	C.2	1	UNK0	0.000	
3	   C	1.690	2.756	-0.394	C.2	1	UNK0	0.000	
4	   C	1.357	1.460	-0.767	C.2	1	UNK0	0.000	
5	   C	2.395	0.653	-1.222	C.2	1	UNK0	0.000	
6	   C	3.684	1.131	-1.292	C.2	1	UNK0	0.000	
7	   C	3.966	2.426	-0.910	C.2	1	UNK0	0.000	
8	   C	-0.038	0.959	-0.685	C.3	1	UNK0	0.000	
9	   N	-0.461	0.229	-1.846	N.pl3	1	UNK0	0.000	
10	   C	-0.311	-1.172	-1.640	C.2	1	UNK0	0.000	
11	   O	-0.319	-2.083	-2.518	O.2	1	UNK0	0.000	
12	   C	-0.139	-1.394	-0.189	C.2	1	UNK0	0.000	
13	   O	0.024	-2.510	0.354	O.2	1	UNK0	0.000	
14	   C	-0.200	-0.065	0.405	C.2	1	UNK0	0.000	
15	   C	-0.338	0.156	1.695	C.2	1	UNK0	0.000	
16	   O	-0.328	1.501	2.118	O.2	1	UNK0	0.000	
17	   C	-0.503	-0.888	2.697	C.2	1	UNK0	0.000	
18	   C	0.312	-0.886	3.838	C.2	1	UNK0	0.000	
19	   C	0.159	-1.844	4.816	C.2	1	UNK0	0.000	
20	   C	-0.790	-2.841	4.729	C.2	1	UNK0	0.000	
21	   C	-1.601	-2.860	3.617	C.2	1	UNK0	0.000	
22	   C	-1.444	-1.889	2.627	C.2	1	UNK0	0.000	
23	   C	-0.956	0.803	-3.037	C.cat	1	UNK0	0.000	
24	   N	-2.258	1.193	-3.013	N.pl3	1	UNK0	0.000	
25	   C	-2.843	1.749	-4.073	C.2	1	UNK0	0.000	
26	   C	-2.090	1.926	-5.211	C.2	1	UNK0	0.000	
27	   C	-0.771	1.524	-5.212	C.2	1	UNK0	0.000	
28	   N	-0.189	0.962	-4.138	N.2	1	UNK0	0.000	
29	   H	0.926	3.428	-0.030	 H	1	UNK0	0.000	
30	   H	2.151	-0.364	-1.515	 H	1	UNK0	0.000	
31	   H	4.503	0.490	-1.652	 H	1	UNK0	0.000	
32	   H	4.981	2.792	-0.970	 H	1	UNK0	0.000	
33	   H	-0.686	1.843	-0.503	 H	1	UNK0	0.000	
34	   H	1.057	-0.097	3.901	 H	1	UNK0	0.000	
35	   H	0.811	-1.803	5.678	 H	1	UNK0	0.000	
36	   H	-0.929	-3.601	5.485	 H	1	UNK0	0.000	
37	   H	-2.362	-3.644	3.524	 H	1	UNK0	0.000	
38	   H	-2.123	-1.927	1.770	 H	1	UNK0	0.000	
39	   H	-2.843	1.064	-2.142	 H	1	UNK0	0.000	
40	   H	-3.883	2.043	-4.013	 H	1	UNK0	0.000	
41	   H	-2.555	2.377	-6.078	 H	1	UNK0	0.000	
42	   H	-0.222	1.686	-6.129	 H	1	UNK0	0.000	
@<TRIPOS>BOND
1 1 2 1
2 2 3 2
3 2 7 1
4 3 4 1
5 4 5 2
6 4 8 1
7 5 6 1
8 6 7 2
9 8 9 1
10 8 14 1
11 9 10 1
12 9 23 1
13 10 11 2
14 10 12 1
15 12 13 2
16 12 14 1
17 14 15 2
18 15 16 1
19 15 17 1
20 17 18 2
21 17 22 1
22 18 19 1
23 19 20 2
24 20 21 1
25 21 22 2
26 23 24 2
27 23 28 1
28 24 25 1
29 25 26 2
30 26 27 1
31 27 28 2
32 3 29 1
33 5 30 1
34 6 31 1
35 7 32 1
36 8 33 1
37 18 34 1
38 19 35 1
39 20 36 1
40 21 37 1
41 22 38 1
42 24 39 1
43 25 40 1
44 26 41 1
45 27 42 1
@<TRIPOS>SUBSTRUCTURE
1	UNK0	1	GROUP	1 ****	UNK
