# created with PyMOL 2.3.2
@<TRIPOS>MOLECULE
1636
34 37 1                 
SMALL
USER_CHARGES
@<TRIPOS>ATOM
1	   S	3.013	1.926	-6.741	S.3	1	UNK0	0.000	
2	   O	4.402	2.104	-6.204	O.2	1	UNK0	0.000	
3	   O	3.018	0.674	-7.603	O.2	1	UNK0	0.000	
4	   O	2.614	3.251	-7.691	 O	1	UNK0	0.000	
5	   C	1.901	1.745	-5.403	C.2	1	UNK0	0.000	
6	   O	1.885	0.850	-4.462	O.3	1	UNK0	0.000	
7	   C	0.899	1.027	-3.623	C.2	1	UNK0	0.000	
8	   C	0.209	2.131	-4.050	C.2	1	UNK0	0.000	
9	   C	0.838	2.595	-5.181	C.2	1	UNK0	0.000	
10	   C	0.637	0.169	-2.466	C.2	1	UNK0	0.000	
11	   N	-0.347	0.373	-1.659	N.2	1	UNK0	0.000	
12	   N	-0.610	-0.445	-0.542	N.pl3	1	UNK0	0.000	
13	   C	-0.245	-1.740	-0.502	C.2	1	UNK0	0.000	
14	   N	-0.484	-2.548	0.560	N.2	1	UNK0	0.000	
15	   C	-1.114	-2.100	1.662	C.2	1	UNK0	0.000	
16	   C	-1.471	-2.708	2.854	C.2	1	UNK0	0.000	
17	   C	-2.092	-1.714	3.579	C.2	1	UNK0	0.000	
18	   N	-2.099	-0.576	2.846	N.pl3	1	UNK0	0.000	
19	   C	-1.503	-0.775	1.655	C.2	1	UNK0	0.000	
20	   C	-1.243	0.030	0.550	C.2	1	UNK0	0.000	
21	   O	-1.601	1.228	0.557	O.2	1	UNK0	0.000	
22	   C	-2.566	-2.041	4.848	C.2	1	UNK0	0.000	
23	   C	-2.412	-3.318	5.347	C.2	1	UNK0	0.000	
24	   C	-1.792	-4.319	4.627	C.2	1	UNK0	0.000	
25	   C	-1.323	-3.990	3.369	C.2	1	UNK0	0.000	
26	  Cl	-1.606	-5.940	5.283	Cl	1	UNK0	0.000	
27	   H	-0.682	2.556	-3.566	 H	1	UNK0	0.000	
28	   H	0.571	3.453	-5.790	 H	1	UNK0	0.000	
29	   H	1.271	-0.678	-2.245	 H	1	UNK0	0.000	
30	   H	0.268	-2.198	-1.340	 H	1	UNK0	0.000	
31	   H	-2.514	0.315	3.181	 H	1	UNK0	0.000	
32	   H	-3.049	-1.236	5.387	 H	1	UNK0	0.000	
33	   H	-2.798	-3.539	6.347	 H	1	UNK0	0.000	
34	   H	-0.836	-4.718	2.767	 H	1	UNK0	0.000	
@<TRIPOS>BOND
1 1 2 2
2 1 3 2
3 1 4 1
4 1 5 1
5 5 6 1
6 5 9 2
7 6 7 1
8 7 8 2
9 7 10 1
10 8 9 1
11 10 11 2
12 11 12 1
13 12 13 1
14 12 20 1
15 13 14 2
16 14 15 1
17 15 16 1
18 15 19 2
19 16 17 2
20 16 25 1
21 17 18 1
22 17 22 1
23 18 19 1
24 19 20 1
25 20 21 2
26 22 23 2
27 23 24 1
28 24 25 2
29 24 26 1
30 8 27 1
31 9 28 1
32 10 29 1
33 13 30 1
34 18 31 1
35 22 32 1
36 23 33 1
37 25 34 1
@<TRIPOS>SUBSTRUCTURE
1	UNK0	1	GROUP	1 ****	UNK
