# created with PyMOL 2.3.2
@<TRIPOS>MOLECULE
1638
63 66 1                 
SMALL
USER_CHARGES
@<TRIPOS>ATOM
1	   S	-0.122	-3.594	2.683	S.O2	1	UNK0	0.000	
2	   O	0.697	-4.825	2.897	O.2	1	UNK0	0.000	
3	   O	-0.506	-2.940	3.986	O.2	1	UNK0	0.000	
4	   C	0.736	-2.401	1.730	C.2	1	UNK0	0.000	
5	   C	1.145	-2.672	0.431	C.2	1	UNK0	0.000	
6	   N	1.811	-1.721	-0.278	N.2	1	UNK0	0.000	
7	   C	2.098	-0.512	0.223	C.2	1	UNK0	0.000	
8	   N	1.704	-0.243	1.480	N.2	1	UNK0	0.000	
9	   C	1.044	-1.150	2.220	C.2	1	UNK0	0.000	
10	   N	2.800	0.482	-0.520	N.pl3	1	UNK0	0.000	
11	   C	3.272	0.248	-1.863	C.3	1	UNK0	0.000	
12	   C	2.807	1.264	-2.869	C.3	1	UNK0	0.000	
13	   C	2.469	2.598	-2.224	C.3	1	UNK0	0.000	
14	   C	3.473	2.700	-1.063	C.3	1	UNK0	0.000	
15	   C	3.078	1.788	0.050	C.3	1	UNK0	0.000	
16	   N	1.184	2.701	-1.720	N.3	1	UNK0	0.000	
17	   C	0.045	2.595	-2.546	C.3	1	UNK0	0.000	
18	   C	-1.072	1.958	-1.702	C.3	1	UNK0	0.000	
19	   C	-0.766	2.224	-0.253	C.3	1	UNK0	0.000	
20	   C	-0.217	3.609	-0.023	C.3	1	UNK0	0.000	
21	   C	0.998	3.866	-0.899	C.3	1	UNK0	0.000	
22	   C	2.847	3.668	-3.175	C.2	1	UNK0	0.000	
23	   O	4.015	3.699	-3.691	O.2	1	UNK0	0.000	
24	   N	1.979	4.693	-3.567	N.pl3	1	UNK0	0.000	
25	   N	0.842	-3.943	-0.090	N.pl3	1	UNK0	0.000	
26	   C	-1.617	-3.994	1.824	C.2	1	UNK0	0.000	
27	   C	-2.547	-3.009	1.561	C.2	1	UNK0	0.000	
28	   C	-3.697	-3.366	0.889	C.2	1	UNK0	0.000	
29	   C	-3.928	-4.676	0.482	C.2	1	UNK0	0.000	
30	   C	-2.975	-5.631	0.763	C.2	1	UNK0	0.000	
31	   C	-1.814	-5.305	1.434	C.2	1	UNK0	0.000	
32	  Cl	-3.252	-7.302	0.253	Cl	1	UNK0	0.000	
33	   O	-2.286	-1.733	1.977	O.3	1	UNK0	0.000	
34	   C	-3.126	-0.629	1.787	C.3	1	UNK0	0.000	
35	   H	0.721	-0.931	3.249	 H	1	UNK0	0.000	
36	   H	4.401	0.240	-1.779	 H	1	UNK0	0.000	
37	   H	3.033	-0.787	-2.210	 H	1	UNK0	0.000	
38	   H	3.680	1.461	-3.530	 H	1	UNK0	0.000	
39	   H	2.003	0.902	-3.531	 H	1	UNK0	0.000	
40	   H	3.720	3.725	-0.793	 H	1	UNK0	0.000	
41	   H	4.449	2.274	-1.464	 H	1	UNK0	0.000	
42	   H	2.237	2.120	0.672	 H	1	UNK0	0.000	
43	   H	3.968	1.606	0.732	 H	1	UNK0	0.000	
44	   H	-0.380	3.618	-2.781	 H	1	UNK0	0.000	
45	   H	0.122	2.000	-3.444	 H	1	UNK0	0.000	
46	   H	-2.070	2.358	-1.994	 H	1	UNK0	0.000	
47	   H	-1.048	0.844	-1.891	 H	1	UNK0	0.000	
48	   H	0.013	1.495	0.100	 H	1	UNK0	0.000	
49	   H	-1.676	2.139	0.388	 H	1	UNK0	0.000	
50	   H	0.054	3.674	1.062	 H	1	UNK0	0.000	
51	   H	-1.026	4.344	-0.170	 H	1	UNK0	0.000	
52	   H	1.853	4.227	-0.347	 H	1	UNK0	0.000	
53	   H	0.655	4.690	-1.599	 H	1	UNK0	0.000	
54	   H	2.133	5.658	-3.165	 H	1	UNK0	0.000	
55	   H	1.183	4.615	-4.231	 H	1	UNK0	0.000	
56	   H	0.274	-4.094	-0.949	 H	1	UNK0	0.000	
57	   H	1.199	-4.789	0.400	 H	1	UNK0	0.000	
58	   H	-4.456	-2.621	0.662	 H	1	UNK0	0.000	
59	   H	-4.837	-4.906	-0.038	 H	1	UNK0	0.000	
60	   H	-1.063	-6.081	1.649	 H	1	UNK0	0.000	
61	   H	-3.949	-0.669	2.520	 H	1	UNK0	0.000	
62	   H	-2.541	0.298	2.027	 H	1	UNK0	0.000	
63	   H	-3.478	-0.503	0.750	 H	1	UNK0	0.000	
@<TRIPOS>BOND
1 1 2 2
2 1 3 2
3 1 4 1
4 1 26 1
5 4 5 2
6 4 9 1
7 5 6 1
8 5 25 1
9 6 7 2
10 7 8 1
11 7 10 1
12 8 9 2
13 10 11 1
14 10 15 1
15 11 12 1
16 12 13 1
17 13 14 1
18 13 16 1
19 13 22 1
20 14 15 1
21 16 17 1
22 16 21 1
23 17 18 1
24 18 19 1
25 19 20 1
26 20 21 1
27 22 23 2
28 22 24 1
29 26 27 2
30 26 31 1
31 27 28 1
32 27 33 1
33 28 29 2
34 29 30 1
35 30 31 2
36 30 32 1
37 33 34 1
38 9 35 1
39 11 36 1
40 11 37 1
41 12 38 1
42 12 39 1
43 14 40 1
44 14 41 1
45 15 42 1
46 15 43 1
47 17 44 1
48 17 45 1
49 18 46 1
50 18 47 1
51 19 48 1
52 19 49 1
53 20 50 1
54 20 51 1
55 21 52 1
56 21 53 1
57 24 54 1
58 24 55 1
59 25 56 1
60 25 57 1
61 28 58 1
62 29 59 1
63 31 60 1
64 34 61 1
65 34 62 1
66 34 63 1
@<TRIPOS>SUBSTRUCTURE
1	UNK0	1	GROUP	1 ****	UNK
