# created with PyMOL 2.3.2
@<TRIPOS>MOLECULE
1639
63 66 1                 
SMALL
USER_CHARGES
@<TRIPOS>ATOM
1	   S	3.766	1.807	-1.877	S.O2	1	UNK0	0.000	
2	   O	4.357	0.873	-2.896	O.2	1	UNK0	0.000	
3	   O	4.857	2.228	-0.966	O.2	1	UNK0	0.000	
4	   C	2.478	0.979	-1.032	C.2	1	UNK0	0.000	
5	   C	1.401	0.437	-1.691	C.2	1	UNK0	0.000	
6	   N	0.424	-0.195	-0.990	N.2	1	UNK0	0.000	
7	   C	0.434	-0.336	0.345	C.2	1	UNK0	0.000	
8	   N	1.502	0.203	0.984	N.2	1	UNK0	0.000	
9	   C	2.499	0.839	0.354	C.2	1	UNK0	0.000	
10	   N	-0.598	-1.002	1.054	N.pl3	1	UNK0	0.000	
11	   C	-0.553	-1.130	2.487	C.3	1	UNK0	0.000	
12	   C	-0.593	-2.578	2.871	C.3	1	UNK0	0.000	
13	   C	-1.577	-3.401	2.070	C.3	1	UNK0	0.000	
14	   C	-2.484	-2.422	1.356	C.3	1	UNK0	0.000	
15	   C	-1.715	-1.569	0.347	C.3	1	UNK0	0.000	
16	   N	-2.384	-4.250	2.847	N.3	1	UNK0	0.000	
17	   C	-1.800	-5.273	3.608	C.3	1	UNK0	0.000	
18	   C	-1.820	-4.969	5.061	C.3	1	UNK0	0.000	
19	   C	-2.803	-3.947	5.482	C.3	1	UNK0	0.000	
20	   C	-3.984	-3.728	4.620	C.3	1	UNK0	0.000	
21	   C	-3.717	-3.962	3.143	C.3	1	UNK0	0.000	
22	   C	-0.873	-4.194	1.027	C.2	1	UNK0	0.000	
23	   O	-1.193	-5.408	0.876	O.2	1	UNK0	0.000	
24	   N	0.143	-3.720	0.169	N.pl3	1	UNK0	0.000	
25	   N	1.331	0.550	-3.109	N.pl3	1	UNK0	0.000	
26	   C	3.080	3.181	-2.712	C.2	1	UNK0	0.000	
27	   C	2.843	4.386	-2.047	C.2	1	UNK0	0.000	
28	   C	2.313	5.478	-2.702	C.2	1	UNK0	0.000	
29	   C	1.989	5.442	-4.043	C.2	1	UNK0	0.000	
30	   C	2.222	4.254	-4.702	C.2	1	UNK0	0.000	
31	   C	2.754	3.155	-4.049	C.2	1	UNK0	0.000	
32	   O	1.453	6.545	-4.701	O.3	1	UNK0	0.000	
33	   C	1.132	6.465	-6.087	C.3	1	UNK0	0.000	
34	  Cl	2.014	6.998	-1.862	Cl	1	UNK0	0.000	
35	   H	3.351	1.266	0.886	 H	1	UNK0	0.000	
36	   H	-1.321	-0.518	2.996	 H	1	UNK0	0.000	
37	   H	0.432	-0.728	2.867	 H	1	UNK0	0.000	
38	   H	0.430	-2.993	2.644	 H	1	UNK0	0.000	
39	   H	-0.716	-2.644	3.947	 H	1	UNK0	0.000	
40	   H	-3.280	-2.931	0.780	 H	1	UNK0	0.000	
41	   H	-2.983	-1.742	2.094	 H	1	UNK0	0.000	
42	   H	-2.431	-0.779	0.002	 H	1	UNK0	0.000	
43	   H	-1.478	-2.162	-0.531	 H	1	UNK0	0.000	
44	   H	-2.397	-6.214	3.436	 H	1	UNK0	0.000	
45	   H	-0.775	-5.535	3.282	 H	1	UNK0	0.000	
46	   H	-1.912	-5.937	5.610	 H	1	UNK0	0.000	
47	   H	-0.805	-4.596	5.333	 H	1	UNK0	0.000	
48	   H	-3.180	-4.264	6.502	 H	1	UNK0	0.000	
49	   H	-2.304	-2.959	5.710	 H	1	UNK0	0.000	
50	   H	-4.854	-4.301	4.996	 H	1	UNK0	0.000	
51	   H	-4.292	-2.648	4.704	 H	1	UNK0	0.000	
52	   H	-4.243	-3.216	2.525	 H	1	UNK0	0.000	
53	   H	-4.301	-4.917	2.920	 H	1	UNK0	0.000	
54	   H	1.001	-3.190	0.485	 H	1	UNK0	0.000	
55	   H	0.133	-3.863	-0.887	 H	1	UNK0	0.000	
56	   H	1.996	0.128	-3.768	 H	1	UNK0	0.000	
57	   H	0.540	1.107	-3.494	 H	1	UNK0	0.000	
58	   H	3.092	4.431	-0.995	 H	1	UNK0	0.000	
59	   H	1.971	4.206	-5.765	 H	1	UNK0	0.000	
60	   H	2.938	2.228	-4.590	 H	1	UNK0	0.000	
61	   H	0.666	7.378	-6.454	 H	1	UNK0	0.000	
62	   H	2.031	6.192	-6.699	 H	1	UNK0	0.000	
63	   H	0.405	5.625	-6.282	 H	1	UNK0	0.000	
@<TRIPOS>BOND
1 1 2 2
2 1 3 2
3 1 4 1
4 1 26 1
5 4 5 2
6 4 9 1
7 5 6 1
8 5 25 1
9 6 7 2
10 7 8 1
11 7 10 1
12 8 9 2
13 10 11 1
14 10 15 1
15 11 12 1
16 12 13 1
17 13 14 1
18 13 16 1
19 13 22 1
20 14 15 1
21 16 17 1
22 16 21 1
23 17 18 1
24 18 19 1
25 19 20 1
26 20 21 1
27 22 23 2
28 22 24 1
29 26 27 2
30 26 31 1
31 27 28 1
32 28 29 2
33 28 34 1
34 29 30 1
35 29 32 1
36 30 31 2
37 32 33 1
38 9 35 1
39 11 36 1
40 11 37 1
41 12 38 1
42 12 39 1
43 14 40 1
44 14 41 1
45 15 42 1
46 15 43 1
47 17 44 1
48 17 45 1
49 18 46 1
50 18 47 1
51 19 48 1
52 19 49 1
53 20 50 1
54 20 51 1
55 21 52 1
56 21 53 1
57 24 54 1
58 24 55 1
59 25 56 1
60 25 57 1
61 27 58 1
62 30 59 1
63 31 60 1
64 33 61 1
65 33 62 1
66 33 63 1
@<TRIPOS>SUBSTRUCTURE
1	UNK0	1	GROUP	1 ****	UNK
