# created with PyMOL 2.3.2
@<TRIPOS>MOLECULE
1640
58 61 1                 
SMALL
USER_CHARGES
@<TRIPOS>ATOM
1	   S	2.820	-1.646	-2.276	S.O2	1	UNK0	0.000	
2	   O	3.693	-2.513	-1.352	O.2	1	UNK0	0.000	
3	   O	3.794	-1.370	-3.454	O.2	1	UNK0	0.000	
4	   N	1.558	-2.572	-2.793	N.3	1	UNK0	0.000	
5	   C	0.591	-2.202	-3.718	C.3	1	UNK0	0.000	
6	   C	-0.740	-1.804	-3.248	C.2	1	UNK0	0.000	
7	   O	-1.620	-1.408	-4.091	O.2	1	UNK0	0.000	
8	   N	-1.147	-1.834	-1.880	N.pl3	1	UNK0	0.000	
9	   C	-2.483	-1.441	-1.554	C.3	1	UNK0	0.000	
10	   C	-2.964	-1.491	-0.181	C.3	1	UNK0	0.000	
11	   N	-2.443	-0.760	0.871	N.3	1	UNK0	0.000	
12	   C	-1.207	-0.980	1.454	C.3	1	UNK0	0.000	
13	   C	-0.406	0.289	1.720	C.3	1	UNK0	0.000	
14	   C	-1.232	1.099	2.669	C.2	1	UNK0	0.000	
15	   C	-2.572	1.167	2.344	C.2	1	UNK0	0.000	
16	   C	-3.395	1.892	3.189	C.2	1	UNK0	0.000	
17	   C	-2.856	2.505	4.297	C.2	1	UNK0	0.000	
18	   C	-1.513	2.416	4.589	C.2	1	UNK0	0.000	
19	   C	-0.650	1.691	3.758	C.2	1	UNK0	0.000	
20	   C	-3.078	0.499	1.137	C.3	1	UNK0	0.000	
21	   C	1.895	-3.978	-2.892	C.3	1	UNK0	0.000	
22	   C	2.566	-0.162	-1.438	C.2	1	UNK0	0.000	
23	   C	2.879	-0.055	-0.068	C.2	1	UNK0	0.000	
24	   C	2.686	1.102	0.619	C.2	1	UNK0	0.000	
25	   C	2.173	2.218	-0.011	C.2	1	UNK0	0.000	
26	   C	1.865	2.135	-1.330	C.2	1	UNK0	0.000	
27	   C	2.059	0.951	-2.051	C.2	1	UNK0	0.000	
28	  Cl	1.675	1.006	-3.786	Cl	1	UNK0	0.000	
29	   N	1.956	3.457	0.688	N.pl3	1	UNK0	0.000	
30	   C	2.296	3.478	2.059	C.2	1	UNK0	0.000	
31	   O	1.877	4.403	2.777	O.2	1	UNK0	0.000	
32	   C	3.139	2.418	2.647	C.3	1	UNK0	0.000	
33	   O	3.002	1.186	1.965	O.3	1	UNK0	0.000	
34	   H	0.912	-1.521	-4.534	 H	1	UNK0	0.000	
35	   H	0.327	-3.157	-4.389	 H	1	UNK0	0.000	
36	   H	-0.449	-2.149	-1.195	 H	1	UNK0	0.000	
37	   H	-3.138	-2.170	-2.155	 H	1	UNK0	0.000	
38	   H	-2.719	-0.466	-2.081	 H	1	UNK0	0.000	
39	   H	-2.935	-2.598	0.140	 H	1	UNK0	0.000	
40	   H	-4.093	-1.280	-0.199	 H	1	UNK0	0.000	
41	   H	-1.407	-1.389	2.509	 H	1	UNK0	0.000	
42	   H	-0.553	-1.724	1.012	 H	1	UNK0	0.000	
43	   H	0.532	0.019	2.226	 H	1	UNK0	0.000	
44	   H	-0.182	0.812	0.792	 H	1	UNK0	0.000	
45	   H	-4.451	1.943	2.930	 H	1	UNK0	0.000	
46	   H	-3.512	3.077	4.962	 H	1	UNK0	0.000	
47	   H	-1.117	2.904	5.461	 H	1	UNK0	0.000	
48	   H	0.413	1.612	3.977	 H	1	UNK0	0.000	
49	   H	-4.178	0.306	1.178	 H	1	UNK0	0.000	
50	   H	-2.899	1.154	0.236	 H	1	UNK0	0.000	
51	   H	1.610	-4.561	-1.998	 H	1	UNK0	0.000	
52	   H	2.995	-4.111	-3.109	 H	1	UNK0	0.000	
53	   H	1.387	-4.450	-3.782	 H	1	UNK0	0.000	
54	   H	3.276	-0.939	0.397	 H	1	UNK0	0.000	
55	   H	1.454	3.008	-1.857	 H	1	UNK0	0.000	
56	   H	1.565	4.266	0.157	 H	1	UNK0	0.000	
57	   H	4.186	2.786	2.610	 H	1	UNK0	0.000	
58	   H	2.865	2.320	3.714	 H	1	UNK0	0.000	
@<TRIPOS>BOND
1 1 2 2
2 1 3 2
3 1 4 1
4 1 22 1
5 4 5 1
6 4 21 1
7 5 6 1
8 6 7 2
9 6 8 1
10 8 9 1
11 9 10 1
12 10 11 1
13 11 12 1
14 11 20 1
15 12 13 1
16 13 14 1
17 14 15 2
18 14 19 1
19 15 16 1
20 15 20 1
21 16 17 2
22 17 18 1
23 18 19 2
24 22 23 2
25 22 27 1
26 23 24 1
27 24 25 2
28 24 33 1
29 25 26 1
30 25 29 1
31 26 27 2
32 27 28 1
33 29 30 1
34 30 31 2
35 30 32 1
36 32 33 1
37 5 34 1
38 5 35 1
39 8 36 1
40 9 37 1
41 9 38 1
42 10 39 1
43 10 40 1
44 12 41 1
45 12 42 1
46 13 43 1
47 13 44 1
48 16 45 1
49 17 46 1
50 18 47 1
51 19 48 1
52 20 49 1
53 20 50 1
54 21 51 1
55 21 52 1
56 21 53 1
57 23 54 1
58 26 55 1
59 29 56 1
60 32 57 1
61 32 58 1
@<TRIPOS>SUBSTRUCTURE
1	UNK0	1	GROUP	1 ****	UNK
