# created with PyMOL 2.3.2
@<TRIPOS>MOLECULE
1641
40 43 1                 
SMALL
USER_CHARGES
@<TRIPOS>ATOM
1	   S	0.130	3.911	0.177	S.O2	1	UNK0	0.000	
2	   O	-1.334	3.748	0.295	O.2	1	UNK0	0.000	
3	   O	0.413	4.942	-0.864	O.2	1	UNK0	0.000	
4	   N	0.949	2.420	-0.168	N.3	1	UNK0	0.000	
5	   C	0.636	1.477	0.887	C.3	1	UNK0	0.000	
6	   C	1.294	0.171	0.674	C.2	1	UNK0	0.000	
7	   N	0.806	-0.895	-0.003	N.pl3	1	UNK0	0.000	
8	   C	1.724	-1.903	0.033	C.2	1	UNK0	0.000	
9	   N	2.753	-1.413	0.738	N.2	1	UNK0	0.000	
10	   N	2.511	-0.177	1.127	N.2	1	UNK0	0.000	
11	   C	1.466	-3.103	-0.587	C.2	1	UNK0	0.000	
12	   C	0.268	-3.271	-1.243	C.2	1	UNK0	0.000	
13	   C	-0.651	-2.237	-1.268	C.2	1	UNK0	0.000	
14	   N	-0.319	-1.110	-0.643	N.2	1	UNK0	0.000	
15	   N	-1.899	-2.373	-1.935	N.pl3	1	UNK0	0.000	
16	   C	-2.917	-1.342	-2.010	C.3	1	UNK0	0.000	
17	   C	-4.167	-2.141	-1.647	C.3	1	UNK0	0.000	
18	   C	-3.918	-3.465	-2.293	C.3	1	UNK0	0.000	
19	   C	-2.432	-3.502	-2.659	C.3	1	UNK0	0.000	
20	   C	0.732	4.540	1.723	C.2	1	UNK0	0.000	
21	   S	2.320	4.981	2.163	S.3	1	UNK0	0.000	
22	   C	2.032	5.466	3.770	C.2	1	UNK0	0.000	
23	   C	0.693	5.269	3.921	C.2	1	UNK0	0.000	
24	   C	0.011	4.789	2.864	C.2	1	UNK0	0.000	
25	  Cl	3.180	6.081	4.973	Cl	1	UNK0	0.000	
26	   H	0.737	2.086	-1.112	 H	1	UNK0	0.000	
27	   H	-0.477	1.383	0.910	 H	1	UNK0	0.000	
28	   H	0.952	1.899	1.840	 H	1	UNK0	0.000	
29	   H	2.187	-3.890	-0.557	 H	1	UNK0	0.000	
30	   H	0.057	-4.231	-1.739	 H	1	UNK0	0.000	
31	   H	-2.746	-0.510	-1.313	 H	1	UNK0	0.000	
32	   H	-2.997	-0.919	-3.031	 H	1	UNK0	0.000	
33	   H	-5.028	-1.593	-2.034	 H	1	UNK0	0.000	
34	   H	-4.155	-2.201	-0.524	 H	1	UNK0	0.000	
35	   H	-4.564	-3.579	-3.178	 H	1	UNK0	0.000	
36	   H	-4.106	-4.272	-1.541	 H	1	UNK0	0.000	
37	   H	-2.289	-3.364	-3.751	 H	1	UNK0	0.000	
38	   H	-1.978	-4.465	-2.328	 H	1	UNK0	0.000	
39	   H	0.209	5.503	4.888	 H	1	UNK0	0.000	
40	   H	-1.093	4.588	2.872	 H	1	UNK0	0.000	
@<TRIPOS>BOND
1 1 2 2
2 1 3 2
3 1 4 1
4 1 20 1
5 4 5 1
6 5 6 1
7 6 7 1
8 6 10 2
9 7 8 1
10 7 14 1
11 8 9 2
12 8 11 1
13 9 10 1
14 11 12 2
15 12 13 1
16 13 14 2
17 13 15 1
18 15 16 1
19 15 19 1
20 16 17 1
21 17 18 1
22 18 19 1
23 20 21 1
24 20 24 2
25 21 22 1
26 22 23 2
27 22 25 1
28 23 24 1
29 4 26 1
30 5 27 1
31 5 28 1
32 11 29 1
33 12 30 1
34 16 31 1
35 16 32 1
36 17 33 1
37 17 34 1
38 18 35 1
39 18 36 1
40 19 37 1
41 19 38 1
42 23 39 1
43 24 40 1
@<TRIPOS>SUBSTRUCTURE
1	UNK0	1	GROUP	1 ****	UNK
