# created with PyMOL 2.3.2
@<TRIPOS>MOLECULE
1642
52 55 1                 
SMALL
USER_CHARGES
@<TRIPOS>ATOM
1	   S	3.306	-1.882	-1.123	S.O2	1	UNK0	0.000	
2	   O	2.144	-1.822	-2.069	O.2	1	UNK0	0.000	
3	   O	4.399	-2.583	-1.975	O.2	1	UNK0	0.000	
4	   N	3.967	-0.419	-0.651	N.3	1	UNK0	0.000	
5	   C	3.309	0.437	0.240	C.3	1	UNK0	0.000	
6	   C	3.708	0.018	1.647	C.3	1	UNK0	0.000	
7	   C	5.143	-0.411	1.402	C.3	1	UNK0	0.000	
8	   C	5.299	-0.664	-0.072	C.3	1	UNK0	0.000	
9	   O	5.505	-1.544	2.122	O.3	1	UNK0	0.000	
10	   C	1.878	0.666	0.064	C.2	1	UNK0	0.000	
11	   O	1.298	0.217	-0.942	O.2	1	UNK0	0.000	
12	   N	1.107	1.412	1.041	N.pl3	1	UNK0	0.000	
13	   N	-0.260	1.598	0.817	N.2	1	UNK0	0.000	
14	   C	-0.751	2.497	0.063	C.2	1	UNK0	0.000	
15	   C	-2.179	2.688	-0.168	C.2	1	UNK0	0.000	
16	   C	-2.772	3.639	-0.970	C.2	1	UNK0	0.000	
17	   N	-4.119	3.507	-0.935	N.pl3	1	UNK0	0.000	
18	   N	-4.380	2.500	-0.132	N.2	1	UNK0	0.000	
19	   C	-3.232	1.968	0.360	C.2	1	UNK0	0.000	
20	   C	-5.091	4.299	-1.629	C.2	1	UNK0	0.000	
21	   C	-5.421	5.552	-1.154	C.2	1	UNK0	0.000	
22	   C	-6.361	6.342	-1.808	C.2	1	UNK0	0.000	
23	   C	-6.990	5.892	-2.950	C.2	1	UNK0	0.000	
24	   C	-6.669	4.642	-3.435	C.2	1	UNK0	0.000	
25	   C	-5.726	3.860	-2.772	C.2	1	UNK0	0.000	
26	   C	3.021	-3.024	0.189	C.2	1	UNK0	0.000	
27	   C	1.825	-3.020	0.865	C.2	1	UNK0	0.000	
28	   C	1.582	-3.898	1.882	C.2	1	UNK0	0.000	
29	   C	2.554	-4.830	2.260	C.2	1	UNK0	0.000	
30	   C	3.744	-4.814	1.567	C.2	1	UNK0	0.000	
31	   C	3.982	-3.929	0.547	C.2	1	UNK0	0.000	
32	  Cl	2.277	-5.972	3.561	Cl	1	UNK0	0.000	
33	   H	3.797	1.484	0.156	 H	1	UNK0	0.000	
34	   H	3.074	-0.737	2.095	 H	1	UNK0	0.000	
35	   H	3.744	0.888	2.339	 H	1	UNK0	0.000	
36	   H	5.846	0.433	1.661	 H	1	UNK0	0.000	
37	   H	5.655	-1.684	-0.296	 H	1	UNK0	0.000	
38	   H	6.046	0.030	-0.550	 H	1	UNK0	0.000	
39	   H	6.441	-1.431	2.486	 H	1	UNK0	0.000	
40	   H	1.604	1.782	1.878	 H	1	UNK0	0.000	
41	   H	-0.055	3.158	-0.436	 H	1	UNK0	0.000	
42	   H	-2.265	4.399	-1.559	 H	1	UNK0	0.000	
43	   H	-3.183	1.131	1.040	 H	1	UNK0	0.000	
44	   H	-4.942	5.944	-0.249	 H	1	UNK0	0.000	
45	   H	-6.636	7.327	-1.455	 H	1	UNK0	0.000	
46	   H	-7.727	6.511	-3.462	 H	1	UNK0	0.000	
47	   H	-7.175	4.311	-4.332	 H	1	UNK0	0.000	
48	   H	-5.484	2.871	-3.171	 H	1	UNK0	0.000	
49	   H	1.045	-2.303	0.593	 H	1	UNK0	0.000	
50	   H	0.656	-3.937	2.449	 H	1	UNK0	0.000	
51	   H	4.516	-5.535	1.848	 H	1	UNK0	0.000	
52	   H	4.934	-3.927	-0.003	 H	1	UNK0	0.000	
@<TRIPOS>BOND
1 1 2 2
2 1 3 2
3 1 4 1
4 1 26 1
5 4 5 1
6 4 8 1
7 5 6 1
8 5 10 1
9 6 7 1
10 7 8 1
11 7 9 1
12 10 11 2
13 10 12 1
14 12 13 1
15 13 14 2
16 14 15 1
17 15 16 2
18 15 19 1
19 16 17 1
20 17 18 1
21 17 20 1
22 18 19 2
23 20 21 2
24 20 25 1
25 21 22 1
26 22 23 2
27 23 24 1
28 24 25 2
29 26 27 2
30 26 31 1
31 27 28 1
32 28 29 2
33 29 30 1
34 29 32 1
35 30 31 2
36 5 33 1
37 6 34 1
38 6 35 1
39 7 36 1
40 8 37 1
41 8 38 1
42 9 39 1
43 12 40 1
44 14 41 1
45 16 42 1
46 19 43 1
47 21 44 1
48 22 45 1
49 23 46 1
50 24 47 1
51 25 48 1
52 27 49 1
53 28 50 1
54 30 51 1
55 31 52 1
@<TRIPOS>SUBSTRUCTURE
1	UNK0	1	GROUP	1 ****	UNK
