# created with PyMOL 2.3.2
@<TRIPOS>MOLECULE
1643
58 61 1                 
SMALL
USER_CHARGES
@<TRIPOS>ATOM
1	  Cl	7.882	2.328	1.795	Cl	1	UNK0	0.000	
2	   C	6.192	2.531	1.396	C.2	1	UNK0	0.000	
3	   C	5.237	2.701	2.372	C.2	1	UNK0	0.000	
4	   C	3.879	2.865	2.089	C.2	1	UNK0	0.000	
5	   C	3.464	2.859	0.791	C.2	1	UNK0	0.000	
6	   C	4.398	2.691	-0.212	C.2	1	UNK0	0.000	
7	   C	5.735	2.531	0.090	C.2	1	UNK0	0.000	
8	   N	2.076	3.026	0.507	N.pl3	1	UNK0	0.000	
9	   C	1.041	2.766	1.499	C.3	1	UNK0	0.000	
10	   N	1.550	3.214	2.809	N.pl3	1	UNK0	0.000	
11	   C	2.906	3.047	3.149	C.2	1	UNK0	0.000	
12	   O	3.319	3.049	4.344	O.2	1	UNK0	0.000	
13	   C	0.811	1.303	1.645	C.3	1	UNK0	0.000	
14	   C	-0.432	0.752	1.051	C.3	1	UNK0	0.000	
15	   N	-0.526	1.104	-0.340	N.pl3	1	UNK0	0.000	
16	   C	-0.752	2.390	-0.883	C.2	1	UNK0	0.000	
17	   O	-1.217	2.468	-2.039	O.2	1	UNK0	0.000	
18	   C	-0.509	3.739	-0.255	C.3	1	UNK0	0.000	
19	   C	-0.140	3.608	1.199	C.3	1	UNK0	0.000	
20	   C	-0.383	0.044	-1.303	C.3	1	UNK0	0.000	
21	   C	-1.693	-0.591	-1.618	C.2	1	UNK0	0.000	
22	   O	-2.707	-0.146	-1.027	O.2	1	UNK0	0.000	
23	   N	-1.829	-1.646	-2.531	N.pl3	1	UNK0	0.000	
24	   C	-0.699	-2.176	-3.231	C.3	1	UNK0	0.000	
25	   C	-0.692	-3.684	-3.276	C.3	1	UNK0	0.000	
26	   N	-1.948	-4.296	-3.178	N.3	1	UNK0	0.000	
27	   C	-2.958	-3.716	-2.388	C.3	1	UNK0	0.000	
28	   C	-3.120	-2.244	-2.794	C.3	1	UNK0	0.000	
29	   C	-2.273	-5.367	-4.031	C.3	1	UNK0	0.000	
30	   C	-1.489	-6.635	-3.767	C.3	1	UNK0	0.000	
31	   H	5.506	2.714	3.424	 H	1	UNK0	0.000	
32	   H	4.048	2.690	-1.229	 H	1	UNK0	0.000	
33	   H	6.485	2.398	-0.678	 H	1	UNK0	0.000	
34	   H	1.800	3.343	-0.442	 H	1	UNK0	0.000	
35	   H	0.883	3.649	3.469	 H	1	UNK0	0.000	
36	   H	0.829	0.951	2.718	 H	1	UNK0	0.000	
37	   H	1.681	0.765	1.181	 H	1	UNK0	0.000	
38	   H	-1.352	1.002	1.621	 H	1	UNK0	0.000	
39	   H	-0.352	-0.373	1.139	 H	1	UNK0	0.000	
40	   H	-1.534	4.221	-0.251	 H	1	UNK0	0.000	
41	   H	0.138	4.381	-0.850	 H	1	UNK0	0.000	
42	   H	-1.036	3.373	1.814	 H	1	UNK0	0.000	
43	   H	0.132	4.660	1.520	 H	1	UNK0	0.000	
44	   H	0.091	0.476	-2.208	 H	1	UNK0	0.000	
45	   H	0.325	-0.711	-0.907	 H	1	UNK0	0.000	
46	   H	0.228	-1.817	-2.740	 H	1	UNK0	0.000	
47	   H	-0.713	-1.728	-4.251	 H	1	UNK0	0.000	
48	   H	-0.038	-4.036	-2.432	 H	1	UNK0	0.000	
49	   H	-0.177	-4.024	-4.198	 H	1	UNK0	0.000	
50	   H	-3.904	-4.269	-2.568	 H	1	UNK0	0.000	
51	   H	-2.741	-3.793	-1.305	 H	1	UNK0	0.000	
52	   H	-3.325	-2.266	-3.902	 H	1	UNK0	0.000	
53	   H	-3.939	-1.757	-2.253	 H	1	UNK0	0.000	
54	   H	-3.354	-5.631	-3.847	 H	1	UNK0	0.000	
55	   H	-2.216	-5.138	-5.121	 H	1	UNK0	0.000	
56	   H	-0.529	-6.660	-4.318	 H	1	UNK0	0.000	
57	   H	-1.357	-6.821	-2.679	 H	1	UNK0	0.000	
58	   H	-2.097	-7.477	-4.157	 H	1	UNK0	0.000	
@<TRIPOS>BOND
1 1 2 1
2 2 3 2
3 2 7 1
4 3 4 1
5 4 5 2
6 4 11 1
7 5 6 1
8 5 8 1
9 6 7 2
10 8 9 1
11 9 10 1
12 9 13 1
13 9 19 1
14 10 11 1
15 11 12 2
16 13 14 1
17 14 15 1
18 15 16 1
19 15 20 1
20 16 17 2
21 16 18 1
22 18 19 1
23 20 21 1
24 21 22 2
25 21 23 1
26 23 24 1
27 23 28 1
28 24 25 1
29 25 26 1
30 26 27 1
31 26 29 1
32 27 28 1
33 29 30 1
34 3 31 1
35 6 32 1
36 7 33 1
37 8 34 1
38 10 35 1
39 13 36 1
40 13 37 1
41 14 38 1
42 14 39 1
43 18 40 1
44 18 41 1
45 19 42 1
46 19 43 1
47 20 44 1
48 20 45 1
49 24 46 1
50 24 47 1
51 25 48 1
52 25 49 1
53 27 50 1
54 27 51 1
55 28 52 1
56 28 53 1
57 29 54 1
58 29 55 1
59 30 56 1
60 30 57 1
61 30 58 1
@<TRIPOS>SUBSTRUCTURE
1	UNK0	1	GROUP	1 ****	UNK
