# created with PyMOL 2.3.2
@<TRIPOS>MOLECULE
1644
48 51 1                 
SMALL
USER_CHARGES
@<TRIPOS>ATOM
1	  Cl	0.083	6.070	2.043	Cl	1	UNK0	0.000	
2	   C	0.900	4.522	2.080	C.2	1	UNK0	0.000	
3	   C	0.235	3.353	1.748	C.2	1	UNK0	0.000	
4	   C	0.869	2.128	1.774	C.2	1	UNK0	0.000	
5	   C	2.192	2.099	2.144	C.2	1	UNK0	0.000	
6	   C	2.873	3.277	2.482	C.2	1	UNK0	0.000	
7	   C	2.229	4.490	2.449	C.2	1	UNK0	0.000	
8	   N	0.183	0.993	1.394	N.pl3	1	UNK0	0.000	
9	   C	0.539	-0.366	1.454	C.2	1	UNK0	0.000	
10	   O	1.635	-0.704	1.915	O.2	1	UNK0	0.000	
11	   C	-0.362	-1.460	0.980	C.3	1	UNK0	0.000	
12	   N	0.193	-2.139	-0.179	N.pl3	1	UNK0	0.000	
13	   N	0.969	-3.214	-0.015	N.pl3	1	UNK0	0.000	
14	   C	1.495	-3.871	-1.069	C.2	1	UNK0	0.000	
15	   O	2.213	-4.872	-0.838	O.2	1	UNK0	0.000	
16	   C	1.264	-3.474	-2.370	C.2	1	UNK0	0.000	
17	   C	0.466	-2.368	-2.561	C.2	1	UNK0	0.000	
18	   C	0.230	-1.958	-3.849	C.2	1	UNK0	0.000	
19	   C	0.743	-2.585	-4.962	C.2	1	UNK0	0.000	
20	   C	1.538	-3.689	-4.747	C.2	1	UNK0	0.000	
21	   C	1.809	-4.148	-3.457	C.2	1	UNK0	0.000	
22	   C	-0.037	-1.747	-1.442	C.2	1	UNK0	0.000	
23	   O	-0.764	-0.738	-1.623	O.2	1	UNK0	0.000	
24	   N	-1.112	3.435	1.398	N.pl3	1	UNK0	0.000	
25	   C	-1.649	3.581	0.081	C.3	1	UNK0	0.000	
26	   C	-3.141	3.303	0.156	C.3	1	UNK0	0.000	
27	   O	-3.412	2.163	0.904	O.3	1	UNK0	0.000	
28	   C	-3.050	2.294	2.230	C.3	1	UNK0	0.000	
29	   C	-2.077	3.406	2.499	C.3	1	UNK0	0.000	
30	   H	2.739	1.196	2.183	 H	1	UNK0	0.000	
31	   H	3.912	3.271	2.774	 H	1	UNK0	0.000	
32	   H	2.770	5.388	2.714	 H	1	UNK0	0.000	
33	   H	-0.793	1.149	0.955	 H	1	UNK0	0.000	
34	   H	-1.350	-1.072	0.682	 H	1	UNK0	0.000	
35	   H	-0.502	-2.189	1.779	 H	1	UNK0	0.000	
36	   H	1.155	-3.530	0.973	 H	1	UNK0	0.000	
37	   H	-0.397	-1.089	-3.997	 H	1	UNK0	0.000	
38	   H	0.572	-2.277	-5.983	 H	1	UNK0	0.000	
39	   H	1.990	-4.254	-5.551	 H	1	UNK0	0.000	
40	   H	2.432	-5.015	-3.292	 H	1	UNK0	0.000	
41	   H	-1.135	2.981	-0.685	 H	1	UNK0	0.000	
42	   H	-1.539	4.647	-0.209	 H	1	UNK0	0.000	
43	   H	-3.705	4.163	0.533	 H	1	UNK0	0.000	
44	   H	-3.482	3.101	-0.879	 H	1	UNK0	0.000	
45	   H	-3.945	2.366	2.903	 H	1	UNK0	0.000	
46	   H	-2.552	1.341	2.532	 H	1	UNK0	0.000	
47	   H	-1.589	3.183	3.479	 H	1	UNK0	0.000	
48	   H	-2.581	4.408	2.580	 H	1	UNK0	0.000	
@<TRIPOS>BOND
1 1 2 1
2 2 3 2
3 2 7 1
4 3 4 1
5 3 24 1
6 4 5 2
7 4 8 1
8 5 6 1
9 6 7 2
10 8 9 1
11 9 10 2
12 9 11 1
13 11 12 1
14 12 13 1
15 12 22 1
16 13 14 1
17 14 15 2
18 14 16 1
19 16 17 2
20 16 21 1
21 17 18 1
22 17 22 1
23 18 19 2
24 19 20 1
25 20 21 2
26 22 23 2
27 24 25 1
28 24 29 1
29 25 26 1
30 26 27 1
31 27 28 1
32 28 29 1
33 5 30 1
34 6 31 1
35 7 32 1
36 8 33 1
37 11 34 1
38 11 35 1
39 13 36 1
40 18 37 1
41 19 38 1
42 20 39 1
43 21 40 1
44 25 41 1
45 25 42 1
46 26 43 1
47 26 44 1
48 28 45 1
49 28 46 1
50 29 47 1
51 29 48 1
@<TRIPOS>SUBSTRUCTURE
1	UNK0	1	GROUP	1 ****	UNK
