# created with PyMOL 2.3.2
@<TRIPOS>MOLECULE
1645
52 55 1                 
SMALL
USER_CHARGES
@<TRIPOS>ATOM
1	  Cl	2.769	2.845	4.301	Cl	1	UNK0	0.000	
2	   C	1.138	3.195	3.784	C.2	1	UNK0	0.000	
3	   C	0.719	2.866	2.520	C.2	1	UNK0	0.000	
4	   C	-0.596	3.143	2.090	C.2	1	UNK0	0.000	
5	   C	-1.449	3.751	2.967	C.2	1	UNK0	0.000	
6	   C	-1.025	4.078	4.232	C.2	1	UNK0	0.000	
7	   C	0.268	3.806	4.656	C.2	1	UNK0	0.000	
8	   N	-0.939	2.766	0.771	N.pl3	1	UNK0	0.000	
9	   C	-2.193	2.977	0.194	C.2	1	UNK0	0.000	
10	   O	-3.140	3.512	0.758	O.2	1	UNK0	0.000	
11	   C	-2.421	2.524	-1.219	C.3	1	UNK0	0.000	
12	   N	-2.960	1.197	-1.288	N.pl3	1	UNK0	0.000	
13	   N	-4.237	0.891	-1.277	N.pl3	1	UNK0	0.000	
14	   N	-4.348	-0.419	-1.350	N.pl3	1	UNK0	0.000	
15	   C	-3.121	-0.956	-1.409	C.2	1	UNK0	0.000	
16	   C	-2.269	0.056	-1.370	C.2	1	UNK0	0.000	
17	   C	-1.007	-0.527	-1.434	C.2	1	UNK0	0.000	
18	   O	0.081	0.104	-1.423	O.2	1	UNK0	0.000	
19	   N	-1.084	-1.865	-1.510	N.pl3	1	UNK0	0.000	
20	   C	-2.396	-2.152	-1.496	C.2	1	UNK0	0.000	
21	   O	-2.916	-3.283	-1.549	O.2	1	UNK0	0.000	
22	   C	0.017	-2.774	-1.589	C.2	1	UNK0	0.000	
23	   C	0.031	-3.934	-0.841	C.2	1	UNK0	0.000	
24	   C	1.085	-4.828	-0.901	C.2	1	UNK0	0.000	
25	   C	2.173	-4.595	-1.718	C.2	1	UNK0	0.000	
26	   C	2.172	-3.441	-2.470	C.2	1	UNK0	0.000	
27	   C	1.106	-2.544	-2.404	C.2	1	UNK0	0.000	
28	   O	3.237	-5.492	-1.783	O.3	1	UNK0	0.000	
29	   C	4.368	-5.290	-2.606	C.3	1	UNK0	0.000	
30	   O	1.085	-5.980	-0.150	O.3	1	UNK0	0.000	
31	   C	0.054	-6.368	0.733	C.3	1	UNK0	0.000	
32	   C	1.659	2.213	1.598	C.3	1	UNK0	0.000	
33	   H	-2.445	3.985	2.709	 H	1	UNK0	0.000	
34	   H	-1.679	4.565	4.961	 H	1	UNK0	0.000	
35	   H	0.595	4.067	5.652	 H	1	UNK0	0.000	
36	   H	-0.165	2.290	0.200	 H	1	UNK0	0.000	
37	   H	-3.102	3.263	-1.730	 H	1	UNK0	0.000	
38	   H	-1.451	2.605	-1.736	 H	1	UNK0	0.000	
39	   H	-5.066	1.563	-1.219	 H	1	UNK0	0.000	
40	   H	-5.248	-0.983	-1.362	 H	1	UNK0	0.000	
41	   H	-0.833	-4.113	-0.198	 H	1	UNK0	0.000	
42	   H	3.027	-3.243	-3.120	 H	1	UNK0	0.000	
43	   H	1.125	-1.650	-3.000	 H	1	UNK0	0.000	
44	   H	4.071	-4.911	-3.617	 H	1	UNK0	0.000	
45	   H	4.893	-6.254	-2.771	 H	1	UNK0	0.000	
46	   H	5.120	-4.610	-2.149	 H	1	UNK0	0.000	
47	   H	0.258	-5.916	1.730	 H	1	UNK0	0.000	
48	   H	0.034	-7.484	0.799	 H	1	UNK0	0.000	
49	   H	-0.949	-6.086	0.336	 H	1	UNK0	0.000	
50	   H	1.823	2.801	0.664	 H	1	UNK0	0.000	
51	   H	2.628	1.980	2.077	 H	1	UNK0	0.000	
52	   H	1.232	1.229	1.263	 H	1	UNK0	0.000	
@<TRIPOS>BOND
1 1 2 1
2 2 3 2
3 2 7 1
4 3 4 1
5 3 32 1
6 4 5 2
7 4 8 1
8 5 6 1
9 6 7 2
10 8 9 1
11 9 10 2
12 9 11 1
13 11 12 1
14 12 13 1
15 12 16 1
16 13 14 1
17 14 15 1
18 15 16 2
19 15 20 1
20 16 17 1
21 17 18 2
22 17 19 1
23 19 20 1
24 19 22 1
25 20 21 2
26 22 23 2
27 22 27 1
28 23 24 1
29 24 25 2
30 24 30 1
31 25 26 1
32 25 28 1
33 26 27 2
34 28 29 1
35 30 31 1
36 5 33 1
37 6 34 1
38 7 35 1
39 8 36 1
40 11 37 1
41 11 38 1
42 13 39 1
43 14 40 1
44 23 41 1
45 26 42 1
46 27 43 1
47 29 44 1
48 29 45 1
49 29 46 1
50 31 47 1
51 31 48 1
52 31 49 1
53 32 50 1
54 32 51 1
55 32 52 1
@<TRIPOS>SUBSTRUCTURE
1	UNK0	1	GROUP	1 ****	UNK
