# created with PyMOL 2.3.2
@<TRIPOS>MOLECULE
1646
47 50 1                 
SMALL
USER_CHARGES
@<TRIPOS>ATOM
1	  Cl	-0.960	-3.115	-5.838	Cl	1	UNK0	0.000	
2	   C	-1.722	-2.752	-4.280	C.2	1	UNK0	0.000	
3	   C	-1.038	-2.085	-3.303	C.2	1	UNK0	0.000	
4	   C	-1.679	-1.818	-2.084	C.2	1	UNK0	0.000	
5	   C	-2.969	-2.246	-1.942	C.2	1	UNK0	0.000	
6	   C	-3.663	-2.932	-2.958	C.2	1	UNK0	0.000	
7	   C	-3.031	-3.189	-4.144	C.2	1	UNK0	0.000	
8	   N	-0.927	-1.134	-1.122	N.pl3	1	UNK0	0.000	
9	   C	-1.415	-0.783	0.153	C.2	1	UNK0	0.000	
10	   O	-2.553	-1.029	0.587	O.2	1	UNK0	0.000	
11	   N	-0.541	-0.087	1.035	N.pl3	1	UNK0	0.000	
12	   C	-0.992	0.285	2.329	C.3	1	UNK0	0.000	
13	   C	-0.868	1.787	2.580	C.3	1	UNK0	0.000	
14	   N	0.527	1.944	2.921	N.pl3	1	UNK0	0.000	
15	   C	0.988	0.724	3.557	C.3	1	UNK0	0.000	
16	   C	-0.137	-0.241	3.451	C.3	1	UNK0	0.000	
17	   C	2.268	0.270	2.947	C.2	1	UNK0	0.000	
18	   O	2.410	-0.940	2.626	O.2	1	UNK0	0.000	
19	   N	3.273	1.242	2.758	N.pl3	1	UNK0	0.000	
20	   C	2.964	2.640	2.883	C.3	1	UNK0	0.000	
21	   C	3.744	3.234	1.705	C.3	1	UNK0	0.000	
22	   C	4.808	2.218	1.357	C.3	1	UNK0	0.000	
23	   C	4.682	1.164	2.436	C.3	1	UNK0	0.000	
24	   C	1.524	2.961	2.774	C.2	1	UNK0	0.000	
25	   O	1.172	4.121	2.553	O.2	1	UNK0	0.000	
26	   C	0.358	-1.671	-3.574	C.3	1	UNK0	0.000	
27	   H	-3.492	-2.055	-1.014	 H	1	UNK0	0.000	
28	   H	-4.675	-3.226	-2.749	 H	1	UNK0	0.000	
29	   H	-3.538	-3.711	-4.935	 H	1	UNK0	0.000	
30	   H	0.072	-0.868	-1.382	 H	1	UNK0	0.000	
31	   H	0.416	0.136	0.709	 H	1	UNK0	0.000	
32	   H	-2.035	-0.014	2.549	 H	1	UNK0	0.000	
33	   H	-1.052	2.305	1.623	 H	1	UNK0	0.000	
34	   H	-1.561	2.123	3.349	 H	1	UNK0	0.000	
35	   H	1.171	0.932	4.644	 H	1	UNK0	0.000	
36	   H	-0.726	-0.324	4.405	 H	1	UNK0	0.000	
37	   H	0.259	-1.267	3.175	 H	1	UNK0	0.000	
38	   H	3.399	3.067	3.830	 H	1	UNK0	0.000	
39	   H	4.232	4.177	1.965	 H	1	UNK0	0.000	
40	   H	3.004	3.332	0.873	 H	1	UNK0	0.000	
41	   H	4.597	1.703	0.392	 H	1	UNK0	0.000	
42	   H	5.826	2.659	1.371	 H	1	UNK0	0.000	
43	   H	4.973	0.160	2.068	 H	1	UNK0	0.000	
44	   H	5.270	1.455	3.347	 H	1	UNK0	0.000	
45	   H	0.444	-0.583	-3.364	 H	1	UNK0	0.000	
46	   H	0.613	-1.823	-4.630	 H	1	UNK0	0.000	
47	   H	1.096	-2.252	-2.979	 H	1	UNK0	0.000	
@<TRIPOS>BOND
1 1 2 1
2 2 3 2
3 2 7 1
4 3 4 1
5 3 26 1
6 4 5 2
7 4 8 1
8 5 6 1
9 6 7 2
10 8 9 1
11 9 10 2
12 9 11 1
13 11 12 1
14 12 13 1
15 12 16 1
16 13 14 1
17 14 15 1
18 14 24 1
19 15 16 1
20 15 17 1
21 17 18 2
22 17 19 1
23 19 20 1
24 19 23 1
25 20 21 1
26 20 24 1
27 21 22 1
28 22 23 1
29 24 25 2
30 5 27 1
31 6 28 1
32 7 29 1
33 8 30 1
34 11 31 1
35 12 32 1
36 13 33 1
37 13 34 1
38 15 35 1
39 16 36 1
40 16 37 1
41 20 38 1
42 21 39 1
43 21 40 1
44 22 41 1
45 22 42 1
46 23 43 1
47 23 44 1
48 26 45 1
49 26 46 1
50 26 47 1
@<TRIPOS>SUBSTRUCTURE
1	UNK0	1	GROUP	1 ****	UNK
