# created with PyMOL 2.3.2
@<TRIPOS>MOLECULE
1652
41 44 1                 
SMALL
USER_CHARGES
@<TRIPOS>ATOM
1	  Cl	3.904	2.905	2.135	Cl	1	UNK0	0.000	
2	   C	3.245	1.778	0.940	C.2	1	UNK0	0.000	
3	   C	2.087	1.075	1.215	C.2	1	UNK0	0.000	
4	   C	1.578	0.198	0.279	C.2	1	UNK0	0.000	
5	   C	2.171	-0.017	-0.931	C.2	1	UNK0	0.000	
6	   C	3.345	0.706	-1.187	C.2	1	UNK0	0.000	
7	   C	3.878	1.591	-0.271	C.2	1	UNK0	0.000	
8	   N	1.456	-0.954	-1.696	N.pl3	1	UNK0	0.000	
9	   C	0.348	-1.360	-0.939	C.2	1	UNK0	0.000	
10	   O	-0.532	-2.188	-1.276	O.2	1	UNK0	0.000	
11	   C	0.349	-0.659	0.364	C.3	1	UNK0	0.000	
12	   C	-0.860	0.198	0.385	C.2	1	UNK0	0.000	
13	   C	-1.750	0.134	1.309	C.2	1	UNK0	0.000	
14	   N	-1.646	-0.793	2.424	N.pl3	1	UNK0	0.000	
15	   C	-0.502	-1.618	2.424	C.2	1	UNK0	0.000	
16	   C	0.415	-1.569	1.493	C.2	1	UNK0	0.000	
17	   C	1.558	-2.497	1.628	C.1	1	UNK0	0.000	
18	   N	2.455	-3.211	1.715	N.1	1	UNK0	0.000	
19	   N	-0.337	-2.565	3.508	N.pl3	1	UNK0	0.000	
20	   C	-2.816	1.129	1.013	C.3	1	UNK0	0.000	
21	   O	-2.434	1.747	-0.156	O.3	1	UNK0	0.000	
22	   C	-1.258	1.245	-0.610	C.2	1	UNK0	0.000	
23	   O	-0.577	1.537	-1.637	O.co2	1	UNK0	0.000	
24	   C	-2.859	2.202	2.097	C.3	1	UNK0	0.000	
25	   C	-4.164	0.432	0.913	C.3	1	UNK0	0.000	
26	   C	1.858	-1.382	-3.041	C.3	1	UNK0	0.000	
27	   H	1.625	1.253	2.176	 H	1	UNK0	0.000	
28	   H	3.826	0.548	-2.140	 H	1	UNK0	0.000	
29	   H	4.789	2.144	-0.488	 H	1	UNK0	0.000	
30	   H	-2.392	-0.808	3.149	 H	1	UNK0	0.000	
31	   H	-0.207	-2.183	4.454	 H	1	UNK0	0.000	
32	   H	-0.359	-3.572	3.276	 H	1	UNK0	0.000	
33	   H	-3.216	1.811	3.053	 H	1	UNK0	0.000	
34	   H	-1.833	2.625	2.146	 H	1	UNK0	0.000	
35	   H	-3.504	3.016	1.676	 H	1	UNK0	0.000	
36	   H	-3.973	-0.643	0.815	 H	1	UNK0	0.000	
37	   H	-4.663	0.836	0.013	 H	1	UNK0	0.000	
38	   H	-4.691	0.635	1.854	 H	1	UNK0	0.000	
39	   H	1.175	-2.140	-3.449	 H	1	UNK0	0.000	
40	   H	2.908	-1.686	-3.043	 H	1	UNK0	0.000	
41	   H	1.752	-0.482	-3.693	 H	1	UNK0	0.000	
@<TRIPOS>BOND
1 1 2 1
2 2 3 2
3 2 7 1
4 3 4 1
5 4 5 2
6 4 11 1
7 5 6 1
8 5 8 1
9 6 7 2
10 8 9 1
11 8 26 1
12 9 10 2
13 9 11 1
14 11 12 1
15 11 16 1
16 12 13 2
17 12 22 1
18 13 14 1
19 13 20 1
20 14 15 1
21 15 16 2
22 15 19 1
23 16 17 1
24 17 18 3
25 20 21 1
26 20 24 1
27 20 25 1
28 21 22 1
29 22 23 2
30 3 27 1
31 6 28 1
32 7 29 1
33 14 30 1
34 19 31 1
35 19 32 1
36 24 33 1
37 24 34 1
38 24 35 1
39 25 36 1
40 25 37 1
41 25 38 1
42 26 39 1
43 26 40 1
44 26 41 1
@<TRIPOS>SUBSTRUCTURE
1	UNK0	1	GROUP	1 ****	UNK
