# created with PyMOL 2.3.2
@<TRIPOS>MOLECULE
1653
54 58 1                 
SMALL
USER_CHARGES
@<TRIPOS>ATOM
1	  Cl	3.864	-1.758	4.090	Cl	1	UNK0	0.000	
2	   C	2.395	-0.831	4.367	C.2	1	UNK0	0.000	
3	   C	1.451	-0.832	3.351	C.2	1	UNK0	0.000	
4	   C	0.259	-0.147	3.510	C.2	1	UNK0	0.000	
5	   C	0.045	0.518	4.697	C.2	1	UNK0	0.000	
6	   C	1.019	0.516	5.708	C.2	1	UNK0	0.000	
7	   C	2.212	-0.162	5.558	C.2	1	UNK0	0.000	
8	   N	-1.324	0.963	4.769	N.pl3	1	UNK0	0.000	
9	   C	-1.952	0.533	3.566	C.2	1	UNK0	0.000	
10	   O	-3.195	0.442	3.409	O.2	1	UNK0	0.000	
11	   C	-0.833	0.240	2.628	C.3	1	UNK0	0.000	
12	   N	-0.459	1.665	2.213	N.3	1	UNK0	0.000	
13	   C	0.435	1.493	1.171	C.3	1	UNK0	0.000	
14	   C	-0.236	0.371	0.371	C.3	1	UNK0	0.000	
15	   C	-1.102	-0.377	1.379	C.3	1	UNK0	0.000	
16	   C	-0.804	-1.781	1.069	C.2	1	UNK0	0.000	
17	   O	-1.426	-2.768	1.612	O.2	1	UNK0	0.000	
18	   N	0.204	-1.925	0.136	N.pl3	1	UNK0	0.000	
19	   C	0.815	-0.596	0.027	C.2	1	UNK0	0.000	
20	   O	2.022	-0.332	-0.300	O.2	1	UNK0	0.000	
21	   C	0.818	-2.954	-0.655	C.3	1	UNK0	0.000	
22	   C	0.205	-3.228	-1.960	C.2	1	UNK0	0.000	
23	   C	0.149	-2.318	-3.001	C.2	1	UNK0	0.000	
24	   C	-0.245	-2.670	-4.269	C.2	1	UNK0	0.000	
25	   C	-0.615	-3.980	-4.557	C.2	1	UNK0	0.000	
26	   C	-0.574	-4.889	-3.539	C.2	1	UNK0	0.000	
27	   C	-0.170	-4.515	-2.272	C.2	1	UNK0	0.000	
28	   O	0.488	-0.999	-2.745	O.3	1	UNK0	0.000	
29	   C	0.407	-0.022	-3.766	C.3	1	UNK0	0.000	
30	   C	0.656	2.644	0.247	C.3	1	UNK0	0.000	
31	   C	-0.525	3.106	-0.489	C.2	1	UNK0	0.000	
32	   O	-1.654	2.732	-0.145	O.2	1	UNK0	0.000	
33	   N	-0.424	3.990	-1.625	N.pl3	1	UNK0	0.000	
34	   H	1.617	-1.380	2.464	 H	1	UNK0	0.000	
35	   H	0.859	1.056	6.623	 H	1	UNK0	0.000	
36	   H	2.999	-0.176	6.295	 H	1	UNK0	0.000	
37	   H	-1.699	1.492	5.566	 H	1	UNK0	0.000	
38	   H	-1.365	2.114	2.009	 H	1	UNK0	0.000	
39	   H	1.419	1.117	1.576	 H	1	UNK0	0.000	
40	   H	-0.752	0.703	-0.516	 H	1	UNK0	0.000	
41	   H	-2.181	-0.221	1.078	 H	1	UNK0	0.000	
42	   H	0.742	-3.935	-0.048	 H	1	UNK0	0.000	
43	   H	1.935	-2.854	-0.737	 H	1	UNK0	0.000	
44	   H	-0.278	-1.924	-5.040	 H	1	UNK0	0.000	
45	   H	-0.903	-4.320	-5.535	 H	1	UNK0	0.000	
46	   H	-0.864	-5.913	-3.742	 H	1	UNK0	0.000	
47	   H	-0.135	-5.303	-1.514	 H	1	UNK0	0.000	
48	   H	-0.592	-0.056	-4.279	 H	1	UNK0	0.000	
49	   H	1.251	-0.148	-4.453	 H	1	UNK0	0.000	
50	   H	0.481	1.008	-3.330	 H	1	UNK0	0.000	
51	   H	1.037	3.500	0.871	 H	1	UNK0	0.000	
52	   H	1.526	2.437	-0.452	 H	1	UNK0	0.000	
53	   H	-0.930	3.734	-2.530	 H	1	UNK0	0.000	
54	   H	0.123	4.876	-1.617	 H	1	UNK0	0.000	
@<TRIPOS>BOND
1 1 2 1
2 2 3 2
3 2 7 1
4 3 4 1
5 4 5 2
6 4 11 1
7 5 6 1
8 5 8 1
9 6 7 2
10 8 9 1
11 9 10 2
12 9 11 1
13 11 12 1
14 11 15 1
15 12 13 1
16 13 14 1
17 13 30 1
18 14 15 1
19 14 19 1
20 15 16 1
21 16 17 2
22 16 18 1
23 18 19 1
24 18 21 1
25 19 20 2
26 21 22 1
27 22 23 2
28 22 27 1
29 23 24 1
30 23 28 1
31 24 25 2
32 25 26 1
33 26 27 2
34 28 29 1
35 30 31 1
36 31 32 2
37 31 33 1
38 3 34 1
39 6 35 1
40 7 36 1
41 8 37 1
42 12 38 1
43 13 39 1
44 14 40 1
45 15 41 1
46 21 42 1
47 21 43 1
48 24 44 1
49 25 45 1
50 26 46 1
51 27 47 1
52 29 48 1
53 29 49 1
54 29 50 1
55 30 51 1
56 30 52 1
57 33 53 1
58 33 54 1
@<TRIPOS>SUBSTRUCTURE
1	UNK0	1	GROUP	1 ****	UNK
