# created with PyMOL 2.3.2
@<TRIPOS>MOLECULE
1654
54 58 1                 
SMALL
USER_CHARGES
@<TRIPOS>ATOM
1	  Cl	-0.489	-1.674	-3.540	Cl	1	UNK0	0.000	
2	   C	-0.021	-2.460	-2.050	C.2	1	UNK0	0.000	
3	   C	0.572	-1.730	-1.046	C.2	1	UNK0	0.000	
4	   C	0.967	-2.291	0.157	C.2	1	UNK0	0.000	
5	   C	0.742	-3.633	0.317	C.2	1	UNK0	0.000	
6	   C	0.139	-4.395	-0.696	C.2	1	UNK0	0.000	
7	   C	-0.243	-3.813	-1.879	C.2	1	UNK0	0.000	
8	   N	1.203	-4.041	1.595	N.pl3	1	UNK0	0.000	
9	   C	1.736	-2.915	2.263	C.2	1	UNK0	0.000	
10	   O	2.233	-2.920	3.434	O.2	1	UNK0	0.000	
11	   C	1.602	-1.760	1.346	C.3	1	UNK0	0.000	
12	   N	2.934	-1.258	1.069	N.3	1	UNK0	0.000	
13	   C	2.805	0.172	0.905	C.3	1	UNK0	0.000	
14	   C	1.747	0.612	1.881	C.3	1	UNK0	0.000	
15	   C	0.894	-0.607	1.985	C.3	1	UNK0	0.000	
16	   C	-0.426	-0.292	1.459	C.2	1	UNK0	0.000	
17	   O	-1.383	-1.082	1.333	O.2	1	UNK0	0.000	
18	   N	-0.436	1.079	1.111	N.pl3	1	UNK0	0.000	
19	   C	0.845	1.649	1.377	C.2	1	UNK0	0.000	
20	   O	1.201	2.856	1.220	O.2	1	UNK0	0.000	
21	   C	-1.521	1.871	0.575	C.3	1	UNK0	0.000	
22	   C	-1.592	1.842	-0.911	C.2	1	UNK0	0.000	
23	   C	-2.532	1.074	-1.580	C.2	1	UNK0	0.000	
24	   C	-2.599	1.041	-2.957	C.2	1	UNK0	0.000	
25	   C	-1.725	1.776	-3.734	C.2	1	UNK0	0.000	
26	   C	-0.790	2.538	-3.062	C.2	1	UNK0	0.000	
27	   C	-0.721	2.575	-1.684	C.2	1	UNK0	0.000	
28	   O	-1.804	1.733	-5.133	O.3	1	UNK0	0.000	
29	   C	-0.918	2.476	-5.943	C.3	1	UNK0	0.000	
30	   C	4.159	0.767	1.225	C.3	1	UNK0	0.000	
31	   O	5.132	0.270	0.361	O.3	1	UNK0	0.000	
32	   C	4.198	2.259	1.189	C.3	1	UNK0	0.000	
33	   H	0.738	-0.689	-1.187	 H	1	UNK0	0.000	
34	   H	-0.032	-5.456	-0.556	 H	1	UNK0	0.000	
35	   H	-0.715	-4.408	-2.671	 H	1	UNK0	0.000	
36	   H	1.160	-5.007	1.987	 H	1	UNK0	0.000	
37	   H	3.505	-1.430	1.937	 H	1	UNK0	0.000	
38	   H	2.570	0.441	-0.141	 H	1	UNK0	0.000	
39	   H	2.173	0.959	2.843	 H	1	UNK0	0.000	
40	   H	0.798	-0.850	3.085	 H	1	UNK0	0.000	
41	   H	-1.409	2.957	0.854	 H	1	UNK0	0.000	
42	   H	-2.509	1.565	0.968	 H	1	UNK0	0.000	
43	   H	-3.232	0.486	-0.973	 H	1	UNK0	0.000	
44	   H	-3.334	0.438	-3.467	 H	1	UNK0	0.000	
45	   H	-0.092	3.122	-3.679	 H	1	UNK0	0.000	
46	   H	0.047	3.202	-1.253	 H	1	UNK0	0.000	
47	   H	-1.240	2.484	-7.007	 H	1	UNK0	0.000	
48	   H	0.095	2.019	-5.948	 H	1	UNK0	0.000	
49	   H	-0.779	3.513	-5.553	 H	1	UNK0	0.000	
50	   H	4.499	0.461	2.257	 H	1	UNK0	0.000	
51	   H	4.722	-0.472	-0.189	 H	1	UNK0	0.000	
52	   H	3.802	2.720	2.131	 H	1	UNK0	0.000	
53	   H	5.293	2.538	1.188	 H	1	UNK0	0.000	
54	   H	3.771	2.682	0.275	 H	1	UNK0	0.000	
@<TRIPOS>BOND
1 1 2 1
2 2 3 2
3 2 7 1
4 3 4 1
5 4 5 2
6 4 11 1
7 5 6 1
8 5 8 1
9 6 7 2
10 8 9 1
11 9 10 2
12 9 11 1
13 11 12 1
14 11 15 1
15 12 13 1
16 13 14 1
17 13 30 1
18 14 15 1
19 14 19 1
20 15 16 1
21 16 17 2
22 16 18 1
23 18 19 1
24 18 21 1
25 19 20 2
26 21 22 1
27 22 23 2
28 22 27 1
29 23 24 1
30 24 25 2
31 25 26 1
32 25 28 1
33 26 27 2
34 28 29 1
35 30 31 1
36 30 32 1
37 3 33 1
38 6 34 1
39 7 35 1
40 8 36 1
41 12 37 1
42 13 38 1
43 14 39 1
44 15 40 1
45 21 41 1
46 21 42 1
47 23 43 1
48 24 44 1
49 26 45 1
50 27 46 1
51 29 47 1
52 29 48 1
53 29 49 1
54 30 50 1
55 31 51 1
56 32 52 1
57 32 53 1
58 32 54 1
@<TRIPOS>SUBSTRUCTURE
1	UNK0	1	GROUP	1 ****	UNK
