# created with PyMOL 2.3.2
@<TRIPOS>MOLECULE
1655
43 46 1                 
SMALL
USER_CHARGES
@<TRIPOS>ATOM
1	  Cl	6.520	-1.397	3.999	Cl	1	UNK0	0.000	
2	   C	5.353	-0.265	3.386	C.2	1	UNK0	0.000	
3	   C	4.812	-0.388	2.141	C.2	1	UNK0	0.000	
4	   C	3.892	0.483	1.625	C.2	1	UNK0	0.000	
5	   C	3.504	1.535	2.420	C.2	1	UNK0	0.000	
6	   C	4.039	1.692	3.700	C.2	1	UNK0	0.000	
7	   C	4.964	0.800	4.195	C.2	1	UNK0	0.000	
8	   N	2.565	2.312	1.728	N.pl3	1	UNK0	0.000	
9	   C	2.238	1.735	0.438	C.3	1	UNK0	0.000	
10	   C	3.163	0.565	0.319	C.3	1	UNK0	0.000	
11	   C	0.820	1.377	0.415	C.2	1	UNK0	0.000	
12	   O	0.089	1.574	1.432	O.2	1	UNK0	0.000	
13	   N	0.193	0.800	-0.722	N.pl3	1	UNK0	0.000	
14	   C	0.945	0.552	-1.912	C.3	1	UNK0	0.000	
15	   C	0.866	-0.877	-2.380	C.3	1	UNK0	0.000	
16	   C	-0.397	-1.531	-1.948	C.2	1	UNK0	0.000	
17	   N	-0.814	-2.777	-2.209	N.2	1	UNK0	0.000	
18	   N	-1.992	-2.988	-1.650	N.pl3	1	UNK0	0.000	
19	   C	-2.376	-1.873	-1.005	C.2	1	UNK0	0.000	
20	   C	-1.367	-0.957	-1.195	C.2	1	UNK0	0.000	
21	   C	-1.213	0.438	-0.733	C.3	1	UNK0	0.000	
22	   C	-3.623	-1.726	-0.269	C.2	1	UNK0	0.000	
23	   O	-3.852	-0.629	0.284	O.2	1	UNK0	0.000	
24	   N	-4.589	-2.750	-0.142	N.pl3	1	UNK0	0.000	
25	   C	-5.823	-2.593	0.591	C.3	1	UNK0	0.000	
26	   H	5.128	-1.233	1.514	 H	1	UNK0	0.000	
27	   H	3.752	2.507	4.343	 H	1	UNK0	0.000	
28	   H	5.402	0.883	5.177	 H	1	UNK0	0.000	
29	   H	2.144	3.186	2.068	 H	1	UNK0	0.000	
30	   H	2.422	2.521	-0.320	 H	1	UNK0	0.000	
31	   H	2.649	-0.393	0.100	 H	1	UNK0	0.000	
32	   H	3.946	0.820	-0.433	 H	1	UNK0	0.000	
33	   H	2.005	0.860	-1.835	 H	1	UNK0	0.000	
34	   H	0.522	1.184	-2.747	 H	1	UNK0	0.000	
35	   H	0.902	-0.912	-3.485	 H	1	UNK0	0.000	
36	   H	1.750	-1.438	-2.014	 H	1	UNK0	0.000	
37	   H	-2.494	-3.900	-1.734	 H	1	UNK0	0.000	
38	   H	-1.714	1.083	-1.503	 H	1	UNK0	0.000	
39	   H	-1.694	0.612	0.240	 H	1	UNK0	0.000	
40	   H	-4.402	-3.681	-0.607	 H	1	UNK0	0.000	
41	   H	-5.585	-2.725	1.681	 H	1	UNK0	0.000	
42	   H	-6.150	-1.516	0.513	 H	1	UNK0	0.000	
43	   H	-6.607	-3.277	0.252	 H	1	UNK0	0.000	
@<TRIPOS>BOND
1 1 2 1
2 2 3 2
3 2 7 1
4 3 4 1
5 4 5 2
6 4 10 1
7 5 6 1
8 5 8 1
9 6 7 2
10 8 9 1
11 9 10 1
12 9 11 1
13 11 12 2
14 11 13 1
15 13 14 1
16 13 21 1
17 14 15 1
18 15 16 1
19 16 17 2
20 16 20 1
21 17 18 1
22 18 19 1
23 19 20 2
24 19 22 1
25 20 21 1
26 22 23 2
27 22 24 1
28 24 25 1
29 3 26 1
30 6 27 1
31 7 28 1
32 8 29 1
33 9 30 1
34 10 31 1
35 10 32 1
36 14 33 1
37 14 34 1
38 15 35 1
39 15 36 1
40 18 37 1
41 21 38 1
42 21 39 1
43 24 40 1
44 25 41 1
45 25 42 1
46 25 43 1
@<TRIPOS>SUBSTRUCTURE
1	UNK0	1	GROUP	1 ****	UNK
