# created with PyMOL 2.3.2
@<TRIPOS>MOLECULE
1656
54 57 1                 
SMALL
USER_CHARGES
@<TRIPOS>ATOM
1	  Cl	1.761	-1.719	-6.711	Cl	1	UNK0	0.000	
2	   C	1.941	-0.926	-5.161	C.2	1	UNK0	0.000	
3	   C	2.349	0.384	-5.131	C.2	1	UNK0	0.000	
4	   C	2.490	1.002	-3.916	C.2	1	UNK0	0.000	
5	   C	2.224	0.314	-2.731	C.2	1	UNK0	0.000	
6	   C	1.807	-1.021	-2.752	C.2	1	UNK0	0.000	
7	   C	1.673	-1.623	-4.000	C.2	1	UNK0	0.000	
8	   N	2.375	0.962	-1.474	N.pl3	1	UNK0	0.000	
9	   C	2.151	2.395	-1.443	C.3	1	UNK0	0.000	
10	   N	3.031	2.943	-2.475	N.pl3	1	UNK0	0.000	
11	   C	2.915	2.387	-3.774	C.2	1	UNK0	0.000	
12	   O	3.174	3.068	-4.822	O.2	1	UNK0	0.000	
13	   C	2.484	2.936	-0.092	C.3	1	UNK0	0.000	
14	   C	1.895	2.170	1.063	C.3	1	UNK0	0.000	
15	   N	0.452	2.286	1.104	N.pl3	1	UNK0	0.000	
16	   C	-0.329	3.162	0.304	C.2	1	UNK0	0.000	
17	   O	-1.453	3.479	0.784	O.2	1	UNK0	0.000	
18	   C	0.053	3.726	-1.022	C.3	1	UNK0	0.000	
19	   C	0.742	2.727	-1.886	C.3	1	UNK0	0.000	
20	   C	-0.278	1.449	2.034	C.3	1	UNK0	0.000	
21	   C	-0.627	0.166	1.340	C.2	1	UNK0	0.000	
22	   O	-0.293	-0.050	0.146	O.2	1	UNK0	0.000	
23	   N	-1.348	-0.862	1.998	N.pl3	1	UNK0	0.000	
24	   C	-1.772	-0.687	3.390	C.3	1	UNK0	0.000	
25	   C	-3.298	-0.723	3.354	C.3	1	UNK0	0.000	
26	   C	-3.724	-2.058	2.840	C.3	1	UNK0	0.000	
27	   C	-3.169	-2.420	1.505	C.3	1	UNK0	0.000	
28	   C	-1.698	-2.101	1.366	C.3	1	UNK0	0.000	
29	   O	-3.829	-0.558	4.630	O.3	1	UNK0	0.000	
30	   H	2.568	0.961	-6.017	 H	1	UNK0	0.000	
31	   H	1.600	-1.559	-1.832	 H	1	UNK0	0.000	
32	   H	1.352	-2.660	-4.064	 H	1	UNK0	0.000	
33	   H	2.636	0.392	-0.646	 H	1	UNK0	0.000	
34	   H	3.717	3.700	-2.309	 H	1	UNK0	0.000	
35	   H	3.602	2.860	0.028	 H	1	UNK0	0.000	
36	   H	2.238	4.001	0.004	 H	1	UNK0	0.000	
37	   H	2.259	2.724	1.984	 H	1	UNK0	0.000	
38	   H	2.252	1.151	1.182	 H	1	UNK0	0.000	
39	   H	-0.925	3.961	-1.532	 H	1	UNK0	0.000	
40	   H	0.572	4.696	-0.942	 H	1	UNK0	0.000	
41	   H	0.691	3.083	-2.933	 H	1	UNK0	0.000	
42	   H	0.162	1.784	-1.850	 H	1	UNK0	0.000	
43	   H	0.458	1.155	2.833	 H	1	UNK0	0.000	
44	   H	-1.186	1.905	2.426	 H	1	UNK0	0.000	
45	   H	-1.370	-1.527	4.003	 H	1	UNK0	0.000	
46	   H	-1.400	0.279	3.768	 H	1	UNK0	0.000	
47	   H	-3.617	0.054	2.650	 H	1	UNK0	0.000	
48	   H	-3.554	-2.866	3.609	 H	1	UNK0	0.000	
49	   H	-4.848	-2.022	2.732	 H	1	UNK0	0.000	
50	   H	-3.777	-1.978	0.692	 H	1	UNK0	0.000	
51	   H	-3.254	-3.536	1.392	 H	1	UNK0	0.000	
52	   H	-1.470	-2.115	0.283	 H	1	UNK0	0.000	
53	   H	-1.077	-2.928	1.808	 H	1	UNK0	0.000	
54	   H	-3.357	-1.228	5.216	 H	1	UNK0	0.000	
@<TRIPOS>BOND
1 1 2 1
2 2 3 2
3 2 7 1
4 3 4 1
5 4 5 2
6 4 11 1
7 5 6 1
8 5 8 1
9 6 7 2
10 8 9 1
11 9 10 1
12 9 13 1
13 9 19 1
14 10 11 1
15 11 12 2
16 13 14 1
17 14 15 1
18 15 16 1
19 15 20 1
20 16 17 2
21 16 18 1
22 18 19 1
23 20 21 1
24 21 22 2
25 21 23 1
26 23 24 1
27 23 28 1
28 24 25 1
29 25 26 1
30 25 29 1
31 26 27 1
32 27 28 1
33 3 30 1
34 6 31 1
35 7 32 1
36 8 33 1
37 10 34 1
38 13 35 1
39 13 36 1
40 14 37 1
41 14 38 1
42 18 39 1
43 18 40 1
44 19 41 1
45 19 42 1
46 20 43 1
47 20 44 1
48 24 45 1
49 24 46 1
50 25 47 1
51 26 48 1
52 26 49 1
53 27 50 1
54 27 51 1
55 28 52 1
56 28 53 1
57 29 54 1
@<TRIPOS>SUBSTRUCTURE
1	UNK0	1	GROUP	1 ****	UNK
