# created with PyMOL 2.3.2
@<TRIPOS>MOLECULE
1658
39 42 1                 
SMALL
USER_CHARGES
@<TRIPOS>ATOM
1	  Cl	-1.747	5.005	3.923	Cl	1	UNK0	0.000	
2	   C	-2.304	3.421	3.490	C.2	1	UNK0	0.000	
3	   N	-3.561	3.000	3.182	N.2	1	UNK0	0.000	
4	   N	-3.529	1.706	2.913	N.pl3	1	UNK0	0.000	
5	   C	-2.265	1.262	3.039	C.2	1	UNK0	0.000	
6	   N	-1.536	2.330	3.392	N.2	1	UNK0	0.000	
7	   C	-1.752	-0.095	2.846	C.3	1	UNK0	0.000	
8	   C	-1.309	-0.451	1.478	C.3	1	UNK0	0.000	
9	   C	-0.197	0.382	0.941	C.2	1	UNK0	0.000	
10	   O	0.253	1.256	1.762	O.2	1	UNK0	0.000	
11	   N	0.319	0.229	-0.351	N.pl3	1	UNK0	0.000	
12	   C	-0.117	-0.716	-1.337	C.3	1	UNK0	0.000	
13	   C	1.166	-1.258	-1.844	C.3	1	UNK0	0.000	
14	   C	2.160	-0.107	-1.633	C.3	1	UNK0	0.000	
15	   C	2.672	0.148	-3.000	C.3	1	UNK0	0.000	
16	   C	2.754	-1.314	-3.509	C.3	1	UNK0	0.000	
17	   C	1.245	-1.591	-3.288	C.3	1	UNK0	0.000	
18	   C	0.703	-0.511	-4.201	C.3	1	UNK0	0.000	
19	   C	1.627	0.652	-3.973	C.3	1	UNK0	0.000	
20	   C	1.379	0.964	-0.976	C.3	1	UNK0	0.000	
21	   H	-4.389	1.145	2.644	 H	1	UNK0	0.000	
22	   H	-2.578	-0.817	3.116	 H	1	UNK0	0.000	
23	   H	-0.928	-0.358	3.549	 H	1	UNK0	0.000	
24	   H	-2.183	-0.290	0.786	 H	1	UNK0	0.000	
25	   H	-1.085	-1.518	1.435	 H	1	UNK0	0.000	
26	   H	-0.692	-0.116	-2.099	 H	1	UNK0	0.000	
27	   H	-0.785	-1.498	-0.919	 H	1	UNK0	0.000	
28	   H	1.446	-2.140	-1.259	 H	1	UNK0	0.000	
29	   H	2.993	-0.409	-0.993	 H	1	UNK0	0.000	
30	   H	3.630	0.650	-3.076	 H	1	UNK0	0.000	
31	   H	3.366	-1.928	-2.845	 H	1	UNK0	0.000	
32	   H	3.007	-1.351	-4.568	 H	1	UNK0	0.000	
33	   H	0.975	-2.599	-3.573	 H	1	UNK0	0.000	
34	   H	-0.352	-0.303	-4.093	 H	1	UNK0	0.000	
35	   H	0.869	-0.901	-5.247	 H	1	UNK0	0.000	
36	   H	1.143	1.577	-3.684	 H	1	UNK0	0.000	
37	   H	2.198	0.887	-4.921	 H	1	UNK0	0.000	
38	   H	1.958	1.551	-0.227	 H	1	UNK0	0.000	
39	   H	0.907	1.689	-1.668	 H	1	UNK0	0.000	
@<TRIPOS>BOND
1 1 2 1
2 2 3 2
3 2 6 1
4 3 4 1
5 4 5 1
6 5 6 2
7 5 7 1
8 7 8 1
9 8 9 1
10 9 10 2
11 9 11 1
12 11 12 1
13 11 20 1
14 12 13 1
15 13 14 1
16 13 17 1
17 14 15 1
18 14 20 1
19 15 16 1
20 15 19 1
21 16 17 1
22 17 18 1
23 18 19 1
24 4 21 1
25 7 22 1
26 7 23 1
27 8 24 1
28 8 25 1
29 12 26 1
30 12 27 1
31 13 28 1
32 14 29 1
33 15 30 1
34 16 31 1
35 16 32 1
36 17 33 1
37 18 34 1
38 18 35 1
39 19 36 1
40 19 37 1
41 20 38 1
42 20 39 1
@<TRIPOS>SUBSTRUCTURE
1	UNK0	1	GROUP	1 ****	UNK
