# created with PyMOL 2.3.2
@<TRIPOS>MOLECULE
1659
48 51 1                 
SMALL
USER_CHARGES
@<TRIPOS>ATOM
1	  Cl	-1.603	1.571	-5.296	Cl	1	UNK0	0.000	
2	   C	-2.765	1.291	-4.010	C.2	1	UNK0	0.000	
3	   C	-2.438	1.480	-2.680	C.2	1	UNK0	0.000	
4	   C	-3.407	1.239	-1.728	C.2	1	UNK0	0.000	
5	   C	-4.658	0.820	-2.138	C.2	1	UNK0	0.000	
6	   C	-4.993	0.627	-3.463	C.2	1	UNK0	0.000	
7	   C	-4.024	0.870	-4.401	C.2	1	UNK0	0.000	
8	   C	-3.121	1.425	-0.262	C.3	1	UNK0	0.000	
9	   C	-1.112	1.921	-2.310	C.2	1	UNK0	0.000	
10	   O	-0.942	3.185	-2.238	O.2	1	UNK0	0.000	
11	   N	-0.030	1.070	-2.032	N.pl3	1	UNK0	0.000	
12	   C	-0.177	-0.369	-2.101	C.3	1	UNK0	0.000	
13	   C	1.138	-1.078	-1.853	C.3	1	UNK0	0.000	
14	   N	1.693	-0.533	-0.617	N.pl3	1	UNK0	0.000	
15	   N	2.170	-1.092	0.484	N.2	1	UNK0	0.000	
16	   C	2.575	-0.141	1.363	C.2	1	UNK0	0.000	
17	   C	2.312	1.051	0.722	C.2	1	UNK0	0.000	
18	   C	1.761	0.807	-0.517	C.2	1	UNK0	0.000	
19	   C	1.266	1.602	-1.668	C.3	1	UNK0	0.000	
20	   C	3.154	-0.319	2.681	C.2	1	UNK0	0.000	
21	   O	3.466	0.691	3.348	O.2	1	UNK0	0.000	
22	   N	3.379	-1.601	3.241	N.pl3	1	UNK0	0.000	
23	   C	3.021	-2.806	2.478	C.3	1	UNK0	0.000	
24	   C	3.266	-3.987	3.398	C.3	1	UNK0	0.000	
25	   O	4.598	-4.010	3.744	O.3	1	UNK0	0.000	
26	   C	5.050	-2.860	4.376	C.3	1	UNK0	0.000	
27	   C	3.948	-1.820	4.537	C.3	1	UNK0	0.000	
28	   H	-5.393	0.641	-1.340	 H	1	UNK0	0.000	
29	   H	-5.997	0.297	-3.694	 H	1	UNK0	0.000	
30	   H	-4.275	0.723	-5.439	 H	1	UNK0	0.000	
31	   H	-2.052	1.428	-0.054	 H	1	UNK0	0.000	
32	   H	-3.660	2.326	0.117	 H	1	UNK0	0.000	
33	   H	-3.560	0.545	0.255	 H	1	UNK0	0.000	
34	   H	-0.486	-0.655	-3.148	 H	1	UNK0	0.000	
35	   H	-0.905	-0.762	-1.362	 H	1	UNK0	0.000	
36	   H	1.865	-0.847	-2.665	 H	1	UNK0	0.000	
37	   H	0.950	-2.155	-1.776	 H	1	UNK0	0.000	
38	   H	2.497	2.064	1.102	 H	1	UNK0	0.000	
39	   H	1.249	2.682	-1.474	 H	1	UNK0	0.000	
40	   H	1.964	1.375	-2.520	 H	1	UNK0	0.000	
41	   H	3.644	-2.933	1.588	 H	1	UNK0	0.000	
42	   H	1.966	-2.754	2.172	 H	1	UNK0	0.000	
43	   H	2.573	-3.982	4.246	 H	1	UNK0	0.000	
44	   H	3.069	-4.931	2.837	 H	1	UNK0	0.000	
45	   H	5.883	-2.452	3.746	 H	1	UNK0	0.000	
46	   H	5.510	-3.138	5.337	 H	1	UNK0	0.000	
47	   H	4.381	-0.906	4.974	 H	1	UNK0	0.000	
48	   H	3.170	-2.274	5.184	 H	1	UNK0	0.000	
@<TRIPOS>BOND
1 1 2 1
2 2 3 2
3 2 7 1
4 3 4 1
5 3 9 1
6 4 5 2
7 4 8 1
8 5 6 1
9 6 7 2
10 9 10 2
11 9 11 1
12 11 12 1
13 11 19 1
14 12 13 1
15 13 14 1
16 14 15 1
17 14 18 1
18 15 16 2
19 16 17 1
20 16 20 1
21 17 18 2
22 18 19 1
23 20 21 2
24 20 22 1
25 22 23 1
26 22 27 1
27 23 24 1
28 24 25 1
29 25 26 1
30 26 27 1
31 5 28 1
32 6 29 1
33 7 30 1
34 8 31 1
35 8 32 1
36 8 33 1
37 12 34 1
38 12 35 1
39 13 36 1
40 13 37 1
41 17 38 1
42 19 39 1
43 19 40 1
44 23 41 1
45 23 42 1
46 24 43 1
47 24 44 1
48 26 45 1
49 26 46 1
50 27 47 1
51 27 48 1
@<TRIPOS>SUBSTRUCTURE
1	UNK0	1	GROUP	1 ****	UNK
