# created with PyMOL 2.3.2
@<TRIPOS>MOLECULE
1660
52 55 1                 
SMALL
USER_CHARGES
@<TRIPOS>ATOM
1	  Cl	-0.551	7.863	-6.667	Cl	1	UNK0	0.000	
2	   C	-0.969	6.372	-5.886	C.2	1	UNK0	0.000	
3	   C	-0.117	5.297	-5.773	C.2	1	UNK0	0.000	
4	   C	-0.468	4.119	-5.143	C.2	1	UNK0	0.000	
5	   C	-1.714	3.972	-4.591	C.2	1	UNK0	0.000	
6	   C	-2.562	5.060	-4.712	C.2	1	UNK0	0.000	
7	   C	-2.231	6.243	-5.336	C.2	1	UNK0	0.000	
8	   N	-2.170	2.823	-3.895	N.pl3	1	UNK0	0.000	
9	   N	-3.397	2.386	-3.805	N.2	1	UNK0	0.000	
10	   C	-3.497	1.282	-3.057	C.2	1	UNK0	0.000	
11	   C	-2.214	0.977	-2.623	C.2	1	UNK0	0.000	
12	   C	-1.409	1.970	-3.172	C.2	1	UNK0	0.000	
13	   N	-0.104	1.892	-2.898	N.2	1	UNK0	0.000	
14	   C	0.402	0.903	-2.129	C.2	1	UNK0	0.000	
15	   N	-0.349	-0.068	-1.586	N.pl3	1	UNK0	0.000	
16	   C	-1.682	-0.023	-1.843	C.2	1	UNK0	0.000	
17	   O	-2.425	-0.912	-1.357	O.2	1	UNK0	0.000	
18	   C	0.193	-1.135	-0.739	C.3	1	UNK0	0.000	
19	   C	0.291	-0.725	0.673	C.2	1	UNK0	0.000	
20	   O	0.706	0.474	0.853	O.2	1	UNK0	0.000	
21	   N	-0.017	-1.492	1.794	N.pl3	1	UNK0	0.000	
22	   C	0.191	-0.968	3.153	C.3	1	UNK0	0.000	
23	   C	1.284	-1.871	3.740	C.3	1	UNK0	0.000	
24	   N	0.921	-3.256	3.594	N.pl3	1	UNK0	0.000	
25	   C	-0.377	-3.550	3.016	C.3	1	UNK0	0.000	
26	   C	-0.581	-2.821	1.713	C.3	1	UNK0	0.000	
27	   C	1.802	-4.292	3.974	C.2	1	UNK0	0.000	
28	   O	2.958	-3.951	4.425	O.co2	1	UNK0	0.000	
29	   O	1.545	-5.643	3.912	O.3	1	UNK0	0.000	
30	   C	2.541	-6.603	4.314	C.3	1	UNK0	0.000	
31	   C	3.700	-6.440	3.347	C.3	1	UNK0	0.000	
32	   H	0.880	5.447	-6.222	 H	1	UNK0	0.000	
33	   H	0.228	3.303	-5.079	 H	1	UNK0	0.000	
34	   H	-3.572	4.964	-4.278	 H	1	UNK0	0.000	
35	   H	-2.977	7.032	-5.371	 H	1	UNK0	0.000	
36	   H	-4.341	0.675	-2.780	 H	1	UNK0	0.000	
37	   H	1.478	0.860	-1.916	 H	1	UNK0	0.000	
38	   H	1.247	-1.379	-1.079	 H	1	UNK0	0.000	
39	   H	-0.441	-2.023	-0.892	 H	1	UNK0	0.000	
40	   H	-0.734	-1.010	3.744	 H	1	UNK0	0.000	
41	   H	0.612	0.031	3.060	 H	1	UNK0	0.000	
42	   H	1.461	-1.540	4.774	 H	1	UNK0	0.000	
43	   H	2.238	-1.659	3.170	 H	1	UNK0	0.000	
44	   H	-1.132	-3.292	3.770	 H	1	UNK0	0.000	
45	   H	-0.407	-4.652	2.795	 H	1	UNK0	0.000	
46	   H	-1.702	-2.663	1.642	 H	1	UNK0	0.000	
47	   H	-0.231	-3.371	0.825	 H	1	UNK0	0.000	
48	   H	2.910	-6.321	5.351	 H	1	UNK0	0.000	
49	   H	2.199	-7.623	4.319	 H	1	UNK0	0.000	
50	   H	4.684	-6.410	3.821	 H	1	UNK0	0.000	
51	   H	3.589	-7.271	2.587	 H	1	UNK0	0.000	
52	   H	3.555	-5.509	2.786	 H	1	UNK0	0.000	
@<TRIPOS>BOND
1 1 2 1
2 2 3 2
3 2 7 1
4 3 4 1
5 4 5 2
6 5 6 1
7 5 8 1
8 6 7 2
9 8 9 1
10 8 12 1
11 9 10 2
12 10 11 1
13 11 12 2
14 11 16 1
15 12 13 1
16 13 14 2
17 14 15 1
18 15 16 1
19 15 18 1
20 16 17 2
21 18 19 1
22 19 20 2
23 19 21 1
24 21 22 1
25 21 26 1
26 22 23 1
27 23 24 1
28 24 25 1
29 24 27 1
30 25 26 1
31 27 28 2
32 27 29 1
33 29 30 1
34 30 31 1
35 3 32 1
36 4 33 1
37 6 34 1
38 7 35 1
39 10 36 1
40 14 37 1
41 18 38 1
42 18 39 1
43 22 40 1
44 22 41 1
45 23 42 1
46 23 43 1
47 25 44 1
48 25 45 1
49 26 46 1
50 26 47 1
51 30 48 1
52 30 49 1
53 31 50 1
54 31 51 1
55 31 52 1
@<TRIPOS>SUBSTRUCTURE
1	UNK0	1	GROUP	1 ****	UNK
