# created with PyMOL 2.3.2
@<TRIPOS>MOLECULE
1661
53 57 1                 
SMALL
USER_CHARGES
@<TRIPOS>ATOM
1	  Cl	4.385	-3.009	-0.854	Cl	1	UNK0	0.000	
2	   C	2.908	-2.690	0.050	C.2	1	UNK0	0.000	
3	   C	1.744	-2.228	-0.590	C.2	1	UNK0	0.000	
4	   C	0.585	-1.971	0.084	C.2	1	UNK0	0.000	
5	   C	0.586	-2.186	1.465	C.2	1	UNK0	0.000	
6	   C	1.716	-2.635	2.087	C.2	1	UNK0	0.000	
7	   C	2.889	-2.895	1.411	C.2	1	UNK0	0.000	
8	   C	-0.432	-1.487	-0.863	C.3	1	UNK0	0.000	
9	   N	-1.656	-2.249	-0.790	N.3	1	UNK0	0.000	
10	   C	-2.614	-1.387	-1.412	C.3	1	UNK0	0.000	
11	   C	-2.255	0.014	-0.979	C.3	1	UNK0	0.000	
12	   C	-0.807	-0.051	-0.612	C.3	1	UNK0	0.000	
13	   C	-0.674	0.366	0.801	C.2	1	UNK0	0.000	
14	   O	0.385	0.585	1.448	O.2	1	UNK0	0.000	
15	   N	-2.006	0.479	1.320	N.pl3	1	UNK0	0.000	
16	   C	-2.933	0.428	0.247	C.2	1	UNK0	0.000	
17	   O	-4.150	0.697	0.342	O.2	1	UNK0	0.000	
18	   C	-2.360	0.628	2.718	C.3	1	UNK0	0.000	
19	   C	-2.448	2.082	3.114	C.3	1	UNK0	0.000	
20	   C	-1.207	2.839	2.930	C.2	1	UNK0	0.000	
21	   C	-0.265	2.912	3.925	C.2	1	UNK0	0.000	
22	   C	0.910	3.622	3.785	C.2	1	UNK0	0.000	
23	   C	1.139	4.280	2.596	C.2	1	UNK0	0.000	
24	   C	0.213	4.219	1.595	C.2	1	UNK0	0.000	
25	   C	-0.970	3.499	1.747	C.2	1	UNK0	0.000	
26	   C	-4.044	-1.713	-1.078	C.3	1	UNK0	0.000	
27	   O	-4.852	-0.792	-1.754	O.3	1	UNK0	0.000	
28	   C	-4.429	-3.084	-1.524	C.3	1	UNK0	0.000	
29	   C	0.211	-1.554	-2.176	C.2	1	UNK0	0.000	
30	   O	-0.306	-1.285	-3.313	O.2	1	UNK0	0.000	
31	   N	1.541	-1.978	-1.984	N.pl3	1	UNK0	0.000	
32	   H	-0.346	-1.982	1.978	 H	1	UNK0	0.000	
33	   H	1.687	-2.791	3.148	 H	1	UNK0	0.000	
34	   H	3.782	-3.253	1.923	 H	1	UNK0	0.000	
35	   H	-1.538	-3.163	-1.275	 H	1	UNK0	0.000	
36	   H	-2.489	-1.449	-2.510	 H	1	UNK0	0.000	
37	   H	-2.393	0.724	-1.821	 H	1	UNK0	0.000	
38	   H	-0.231	0.632	-1.289	 H	1	UNK0	0.000	
39	   H	-3.405	0.221	2.856	 H	1	UNK0	0.000	
40	   H	-1.642	0.070	3.357	 H	1	UNK0	0.000	
41	   H	-3.296	2.544	2.544	 H	1	UNK0	0.000	
42	   H	-2.798	2.110	4.186	 H	1	UNK0	0.000	
43	   H	-0.443	2.402	4.845	 H	1	UNK0	0.000	
44	   H	1.652	3.688	4.550	 H	1	UNK0	0.000	
45	   H	2.061	4.850	2.458	 H	1	UNK0	0.000	
46	   H	0.413	4.738	0.684	 H	1	UNK0	0.000	
47	   H	-1.700	3.457	0.945	 H	1	UNK0	0.000	
48	   H	-4.269	-1.611	-0.010	 H	1	UNK0	0.000	
49	   H	-5.780	-1.113	-1.849	 H	1	UNK0	0.000	
50	   H	-4.640	-3.104	-2.619	 H	1	UNK0	0.000	
51	   H	-3.709	-3.868	-1.212	 H	1	UNK0	0.000	
52	   H	-5.399	-3.346	-1.025	 H	1	UNK0	0.000	
53	   H	2.290	-2.101	-2.728	 H	1	UNK0	0.000	
@<TRIPOS>BOND
1 1 2 1
2 2 3 2
3 2 7 1
4 3 4 1
5 3 31 1
6 4 5 2
7 4 8 1
8 5 6 1
9 6 7 2
10 8 9 1
11 8 12 1
12 8 29 1
13 9 10 1
14 10 11 1
15 10 26 1
16 11 12 1
17 11 16 1
18 12 13 1
19 13 14 2
20 13 15 1
21 15 16 1
22 15 18 1
23 16 17 2
24 18 19 1
25 19 20 1
26 20 21 2
27 20 25 1
28 21 22 1
29 22 23 2
30 23 24 1
31 24 25 2
32 26 27 1
33 26 28 1
34 29 30 2
35 29 31 1
36 5 32 1
37 6 33 1
38 7 34 1
39 9 35 1
40 10 36 1
41 11 37 1
42 12 38 1
43 18 39 1
44 18 40 1
45 19 41 1
46 19 42 1
47 21 43 1
48 22 44 1
49 23 45 1
50 24 46 1
51 25 47 1
52 26 48 1
53 27 49 1
54 28 50 1
55 28 51 1
56 28 52 1
57 31 53 1
@<TRIPOS>SUBSTRUCTURE
1	UNK0	1	GROUP	1 ****	UNK
