# created with PyMOL 2.3.2
@<TRIPOS>MOLECULE
1666
54 58 1                 
SMALL
USER_CHARGES
@<TRIPOS>ATOM
1	   S	-1.859	-2.186	-2.244	S.O2	1	UNK0	0.000	
2	   O	-3.112	-2.835	-2.818	O.2	1	UNK0	0.000	
3	   O	-0.724	-3.079	-2.747	O.2	1	UNK0	0.000	
4	   N	-1.680	-0.681	-2.967	N.3	1	UNK0	0.000	
5	   C	-2.688	0.303	-2.672	C.3	1	UNK0	0.000	
6	   C	-2.077	1.644	-2.336	C.3	1	UNK0	0.000	
7	   N	-1.094	1.492	-1.234	N.3	1	UNK0	0.000	
8	   C	-0.010	0.655	-1.728	C.3	1	UNK0	0.000	
9	   C	-0.371	-0.104	-2.993	C.3	1	UNK0	0.000	
10	   C	-0.607	2.838	-1.021	C.3	1	UNK0	0.000	
11	   C	0.226	3.089	0.163	C.3	1	UNK0	0.000	
12	   N	1.444	2.373	0.337	N.pl3	1	UNK0	0.000	
13	   C	2.761	2.654	-0.123	C.2	1	UNK0	0.000	
14	   O	3.042	3.335	-1.120	O.2	1	UNK0	0.000	
15	   C	3.734	1.999	0.784	C.3	1	UNK0	0.000	
16	   C	2.903	0.782	1.251	C.3	1	UNK0	0.000	
17	   C	3.352	-0.353	0.410	C.3	1	UNK0	0.000	
18	   C	3.910	0.364	-0.831	C.3	1	UNK0	0.000	
19	   C	4.793	1.315	-0.004	C.3	1	UNK0	0.000	
20	   C	5.429	0.308	0.910	C.2	1	UNK0	0.000	
21	   C	4.686	-0.797	0.973	C.2	1	UNK0	0.000	
22	   C	1.504	1.166	1.129	C.2	1	UNK0	0.000	
23	   O	0.543	0.535	1.636	O.2	1	UNK0	0.000	
24	   C	-1.834	-2.248	-0.528	C.2	1	UNK0	0.000	
25	   C	-0.682	-2.569	0.148	C.2	1	UNK0	0.000	
26	   C	-0.697	-2.599	1.531	C.2	1	UNK0	0.000	
27	   C	-1.833	-2.318	2.268	C.2	1	UNK0	0.000	
28	   C	-2.987	-1.996	1.585	C.2	1	UNK0	0.000	
29	   C	-2.971	-1.966	0.195	C.2	1	UNK0	0.000	
30	  Br	-1.856	-2.361	4.174	Br	1	UNK0	0.000	
31	   H	-3.280	0.459	-3.604	 H	1	UNK0	0.000	
32	   H	-3.369	-0.048	-1.898	 H	1	UNK0	0.000	
33	   H	-2.871	2.305	-1.946	 H	1	UNK0	0.000	
34	   H	-1.597	2.144	-3.197	 H	1	UNK0	0.000	
35	   H	0.190	-0.130	-0.980	 H	1	UNK0	0.000	
36	   H	0.870	1.304	-1.882	 H	1	UNK0	0.000	
37	   H	0.368	-0.863	-3.243	 H	1	UNK0	0.000	
38	   H	-0.366	0.642	-3.820	 H	1	UNK0	0.000	
39	   H	-1.500	3.537	-0.934	 H	1	UNK0	0.000	
40	   H	-0.129	3.207	-1.984	 H	1	UNK0	0.000	
41	   H	0.497	4.196	0.129	 H	1	UNK0	0.000	
42	   H	-0.440	3.010	1.068	 H	1	UNK0	0.000	
43	   H	4.064	2.623	1.609	 H	1	UNK0	0.000	
44	   H	3.185	0.540	2.316	 H	1	UNK0	0.000	
45	   H	2.666	-1.136	0.191	 H	1	UNK0	0.000	
46	   H	4.521	-0.297	-1.456	 H	1	UNK0	0.000	
47	   H	3.166	0.950	-1.362	 H	1	UNK0	0.000	
48	   H	5.471	1.904	-0.573	 H	1	UNK0	0.000	
49	   H	6.356	0.413	1.463	 H	1	UNK0	0.000	
50	   H	4.967	-1.768	1.335	 H	1	UNK0	0.000	
51	   H	0.254	-2.801	-0.385	 H	1	UNK0	0.000	
52	   H	0.218	-2.854	2.065	 H	1	UNK0	0.000	
53	   H	-3.866	-1.780	2.172	 H	1	UNK0	0.000	
54	   H	-3.916	-1.702	-0.258	 H	1	UNK0	0.000	
@<TRIPOS>BOND
1 1 2 2
2 1 3 2
3 1 4 1
4 1 24 1
5 4 5 1
6 4 9 1
7 5 6 1
8 6 7 1
9 7 8 1
10 7 10 1
11 8 9 1
12 10 11 1
13 11 12 1
14 12 13 1
15 12 22 1
16 13 14 2
17 13 15 1
18 15 16 1
19 15 19 1
20 16 17 1
21 16 22 1
22 17 18 1
23 17 21 1
24 18 19 1
25 19 20 1
26 20 21 2
27 22 23 2
28 24 25 2
29 24 29 1
30 25 26 1
31 26 27 2
32 27 28 1
33 27 30 1
34 28 29 2
35 5 31 1
36 5 32 1
37 6 33 1
38 6 34 1
39 8 35 1
40 8 36 1
41 9 37 1
42 9 38 1
43 10 39 1
44 10 40 1
45 11 41 1
46 11 42 1
47 15 43 1
48 16 44 1
49 17 45 1
50 18 46 1
51 18 47 1
52 19 48 1
53 20 49 1
54 21 50 1
55 25 51 1
56 26 52 1
57 28 53 1
58 29 54 1
@<TRIPOS>SUBSTRUCTURE
1	UNK0	1	GROUP	1 ****	UNK
