# created with PyMOL 2.3.2
@<TRIPOS>MOLECULE
1667
42 45 1                 
SMALL
USER_CHARGES
@<TRIPOS>ATOM
1	  Cl	-0.329	-2.354	2.938	Cl	1	UNK0	0.000	
2	   C	-0.990	-0.735	2.986	C.2	1	UNK0	0.000	
3	   C	-1.460	-0.169	1.811	C.2	1	UNK0	0.000	
4	   C	-1.974	1.099	1.862	C.2	1	UNK0	0.000	
5	   C	-2.020	1.794	3.067	C.2	1	UNK0	0.000	
6	   C	-1.541	1.201	4.229	C.2	1	UNK0	0.000	
7	   C	-1.020	-0.076	4.197	C.2	1	UNK0	0.000	
8	   N	-2.551	3.102	3.119	N.pl3	1	UNK0	0.000	
9	   N	-3.789	3.401	3.459	N.2	1	UNK0	0.000	
10	   C	-4.006	4.711	3.418	C.2	1	UNK0	0.000	
11	   C	-2.830	5.313	3.026	C.2	1	UNK0	0.000	
12	   C	-1.935	4.258	2.847	C.2	1	UNK0	0.000	
13	   C	-1.422	-0.877	0.539	C.2	1	UNK0	0.000	
14	   O	-2.422	-1.574	0.245	O.2	1	UNK0	0.000	
15	   N	-0.338	-0.817	-0.357	N.pl3	1	UNK0	0.000	
16	   C	0.862	-0.042	-0.111	C.3	1	UNK0	0.000	
17	   C	0.967	0.963	-1.248	C.3	1	UNK0	0.000	
18	   C	1.137	0.173	-2.496	C.2	1	UNK0	0.000	
19	   C	0.505	-0.982	-2.635	C.2	1	UNK0	0.000	
20	   N	0.671	-1.737	-3.833	N.pl3	1	UNK0	0.000	
21	   C	1.508	-1.291	-4.908	C.2	1	UNK0	0.000	
22	   C	1.648	-2.004	-6.007	C.2	1	UNK0	0.000	
23	   N	2.203	-0.041	-4.776	N.pl3	1	UNK0	0.000	
24	   C	1.995	0.671	-3.551	C.2	1	UNK0	0.000	
25	   O	2.572	1.763	-3.377	O.2	1	UNK0	0.000	
26	   C	-0.390	-1.554	-1.595	C.3	1	UNK0	0.000	
27	   H	-2.365	1.626	1.000	 H	1	UNK0	0.000	
28	   H	-1.574	1.742	5.184	 H	1	UNK0	0.000	
29	   H	-0.649	-0.523	5.121	 H	1	UNK0	0.000	
30	   H	-4.938	5.240	3.650	 H	1	UNK0	0.000	
31	   H	-2.653	6.372	2.890	 H	1	UNK0	0.000	
32	   H	-0.908	4.410	2.534	 H	1	UNK0	0.000	
33	   H	0.868	0.443	0.876	 H	1	UNK0	0.000	
34	   H	1.735	-0.717	-0.204	 H	1	UNK0	0.000	
35	   H	1.801	1.674	-1.086	 H	1	UNK0	0.000	
36	   H	-0.014	1.467	-1.319	 H	1	UNK0	0.000	
37	   H	0.187	-2.650	-3.975	 H	1	UNK0	0.000	
38	   H	1.125	-2.937	-6.098	 H	1	UNK0	0.000	
39	   H	2.274	-1.658	-6.798	 H	1	UNK0	0.000	
40	   H	2.819	0.311	-5.541	 H	1	UNK0	0.000	
41	   H	-0.082	-2.609	-1.340	 H	1	UNK0	0.000	
42	   H	-1.437	-1.643	-1.950	 H	1	UNK0	0.000	
@<TRIPOS>BOND
1 1 2 1
2 2 3 2
3 2 7 1
4 3 4 1
5 3 13 1
6 4 5 2
7 5 6 1
8 5 8 1
9 6 7 2
10 8 9 1
11 8 12 1
12 9 10 2
13 10 11 1
14 11 12 2
15 13 14 2
16 13 15 1
17 15 16 1
18 15 26 1
19 16 17 1
20 17 18 1
21 18 19 2
22 18 24 1
23 19 20 1
24 19 26 1
25 20 21 1
26 21 22 2
27 21 23 1
28 23 24 1
29 24 25 2
30 4 27 1
31 6 28 1
32 7 29 1
33 10 30 1
34 11 31 1
35 12 32 1
36 16 33 1
37 16 34 1
38 17 35 1
39 17 36 1
40 20 37 1
41 22 38 1
42 22 39 1
43 23 40 1
44 26 41 1
45 26 42 1
@<TRIPOS>SUBSTRUCTURE
1	UNK0	1	GROUP	1 ****	UNK
