# created with PyMOL 2.3.2
@<TRIPOS>MOLECULE
1669
50 53 1                 
SMALL
USER_CHARGES
@<TRIPOS>ATOM
1	  Br	0.392	6.076	4.947	Br	1	UNK0	0.000	
2	   C	0.154	4.212	4.649	C.2	1	UNK0	0.000	
3	   C	0.266	3.647	3.385	C.2	1	UNK0	0.000	
4	   C	0.094	2.305	3.168	C.2	1	UNK0	0.000	
5	   C	-0.199	1.489	4.236	C.2	1	UNK0	0.000	
6	   C	-0.311	2.041	5.487	C.2	1	UNK0	0.000	
7	   C	-0.139	3.399	5.722	C.2	1	UNK0	0.000	
8	   C	0.220	1.746	1.826	C.2	1	UNK0	0.000	
9	   O	0.066	0.518	1.601	O.2	1	UNK0	0.000	
10	   C	0.534	2.640	0.710	C.3	1	UNK0	0.000	
11	   N	0.601	1.998	-0.544	N.3	1	UNK0	0.000	
12	   C	-0.616	1.505	-1.073	C.3	1	UNK0	0.000	
13	   C	-0.514	0.736	-2.334	C.3	1	UNK0	0.000	
14	   N	0.454	-0.308	-2.226	N.pl3	1	UNK0	0.000	
15	   C	1.470	-0.198	-1.219	C.3	1	UNK0	0.000	
16	   C	1.765	1.223	-0.798	C.3	1	UNK0	0.000	
17	   C	0.460	-1.431	-3.095	C.2	1	UNK0	0.000	
18	   C	-0.397	-2.419	-2.845	C.2	1	UNK0	0.000	
19	   N	-1.389	-2.664	-1.864	N.pl3	1	UNK0	0.000	
20	   N	-1.933	-3.926	-2.195	N.pl3	1	UNK0	0.000	
21	   C	-1.278	-4.421	-3.347	C.2	1	UNK0	0.000	
22	   C	-0.359	-3.569	-3.775	C.2	1	UNK0	0.000	
23	   N	0.560	-3.574	-4.862	N.2	1	UNK0	0.000	
24	   C	1.368	-2.592	-5.060	C.2	1	UNK0	0.000	
25	   N	1.377	-1.471	-4.208	N.pl3	1	UNK0	0.000	
26	   C	-1.541	-5.714	-4.033	C.3	1	UNK0	0.000	
27	   C	-1.760	-1.806	-0.765	C.3	1	UNK0	0.000	
28	   H	0.497	4.341	2.590	 H	1	UNK0	0.000	
29	   H	-0.331	0.425	4.035	 H	1	UNK0	0.000	
30	   H	-0.541	1.418	6.339	 H	1	UNK0	0.000	
31	   H	-0.236	3.806	6.740	 H	1	UNK0	0.000	
32	   H	1.497	3.180	0.914	 H	1	UNK0	0.000	
33	   H	-0.225	3.475	0.637	 H	1	UNK0	0.000	
34	   H	-1.188	0.976	-0.289	 H	1	UNK0	0.000	
35	   H	-1.250	2.419	-1.302	 H	1	UNK0	0.000	
36	   H	-0.171	1.439	-3.141	 H	1	UNK0	0.000	
37	   H	-1.509	0.387	-2.674	 H	1	UNK0	0.000	
38	   H	1.374	-0.882	-0.369	 H	1	UNK0	0.000	
39	   H	2.421	-0.541	-1.738	 H	1	UNK0	0.000	
40	   H	2.364	1.165	0.135	 H	1	UNK0	0.000	
41	   H	2.392	1.766	-1.538	 H	1	UNK0	0.000	
42	   H	-2.694	-4.360	-1.632	 H	1	UNK0	0.000	
43	   H	2.059	-2.656	-5.923	 H	1	UNK0	0.000	
44	   H	2.007	-0.659	-4.326	 H	1	UNK0	0.000	
45	   H	-2.104	-6.381	-3.352	 H	1	UNK0	0.000	
46	   H	-0.636	-6.160	-4.452	 H	1	UNK0	0.000	
47	   H	-2.233	-5.492	-4.892	 H	1	UNK0	0.000	
48	   H	-0.932	-1.395	-0.195	 H	1	UNK0	0.000	
49	   H	-2.520	-1.073	-1.108	 H	1	UNK0	0.000	
50	   H	-2.295	-2.492	-0.029	 H	1	UNK0	0.000	
@<TRIPOS>BOND
1 1 2 1
2 2 3 2
3 2 7 1
4 3 4 1
5 4 5 2
6 4 8 1
7 5 6 1
8 6 7 2
9 8 9 2
10 8 10 1
11 10 11 1
12 11 12 1
13 11 16 1
14 12 13 1
15 13 14 1
16 14 15 1
17 14 17 1
18 15 16 1
19 17 18 2
20 17 25 1
21 18 19 1
22 18 22 1
23 19 20 1
24 19 27 1
25 20 21 1
26 21 22 2
27 21 26 1
28 22 23 1
29 23 24 2
30 24 25 1
31 3 28 1
32 5 29 1
33 6 30 1
34 7 31 1
35 10 32 1
36 10 33 1
37 12 34 1
38 12 35 1
39 13 36 1
40 13 37 1
41 15 38 1
42 15 39 1
43 16 40 1
44 16 41 1
45 20 42 1
46 24 43 1
47 25 44 1
48 26 45 1
49 26 46 1
50 26 47 1
51 27 48 1
52 27 49 1
53 27 50 1
@<TRIPOS>SUBSTRUCTURE
1	UNK0	1	GROUP	1 ****	UNK
