# created with PyMOL 2.3.2
@<TRIPOS>MOLECULE
1670
52 55 1                 
SMALL
USER_CHARGES
@<TRIPOS>ATOM
1	  Br	0.781	5.767	0.693	Br	1	UNK0	0.000	
2	   C	2.443	4.837	0.522	C.2	1	UNK0	0.000	
3	   C	2.526	3.668	-0.228	C.2	1	UNK0	0.000	
4	   C	3.711	2.974	-0.345	C.2	1	UNK0	0.000	
5	   C	4.818	3.459	0.297	C.2	1	UNK0	0.000	
6	   C	4.761	4.628	1.053	C.2	1	UNK0	0.000	
7	   C	3.568	5.319	1.165	C.2	1	UNK0	0.000	
8	   C	3.799	1.721	-1.156	C.2	1	UNK0	0.000	
9	   O	4.345	0.783	-0.515	O.2	1	UNK0	0.000	
10	   N	3.326	1.661	-2.448	N.pl3	1	UNK0	0.000	
11	   C	2.874	1.603	-3.685	C.3	1	UNK0	0.000	
12	   C	1.693	0.634	-3.940	C.3	1	UNK0	0.000	
13	   C	0.499	1.075	-3.228	C.2	1	UNK0	0.000	
14	   O	0.398	2.371	-3.141	O.2	1	UNK0	0.000	
15	   N	-0.544	0.343	-2.639	N.pl3	1	UNK0	0.000	
16	   C	-0.468	-1.086	-2.613	C.3	1	UNK0	0.000	
17	   C	-1.117	-1.695	-1.387	C.3	1	UNK0	0.000	
18	   C	-1.567	-0.628	-0.415	C.3	1	UNK0	0.000	
19	   N	-0.429	0.061	0.057	N.3	1	UNK0	0.000	
20	   C	0.278	-0.404	1.169	C.3	1	UNK0	0.000	
21	   C	-0.310	-1.453	2.033	C.3	1	UNK0	0.000	
22	   C	-1.765	-1.541	1.897	C.2	1	UNK0	0.000	
23	   N	-2.723	-1.957	2.757	N.2	1	UNK0	0.000	
24	   C	-3.908	-1.857	2.153	C.2	1	UNK0	0.000	
25	   N	-3.681	-1.371	0.900	N.pl3	1	UNK0	0.000	
26	   C	-2.373	-1.171	0.725	C.2	1	UNK0	0.000	
27	   C	-2.495	0.270	-1.199	C.3	1	UNK0	0.000	
28	   C	-1.663	1.108	-2.111	C.3	1	UNK0	0.000	
29	   H	1.651	3.293	-0.725	 H	1	UNK0	0.000	
30	   H	5.752	2.909	0.199	 H	1	UNK0	0.000	
31	   H	5.640	4.985	1.544	 H	1	UNK0	0.000	
32	   H	3.543	6.222	1.758	 H	1	UNK0	0.000	
33	   H	3.682	0.321	-2.504	 H	1	UNK0	0.000	
34	   H	2.528	2.612	-4.149	 H	1	UNK0	0.000	
35	   H	3.636	1.298	-4.470	 H	1	UNK0	0.000	
36	   H	1.551	0.672	-5.053	 H	1	UNK0	0.000	
37	   H	2.035	-0.359	-3.674	 H	1	UNK0	0.000	
38	   H	-0.858	-1.501	-3.558	 H	1	UNK0	0.000	
39	   H	0.628	-1.364	-2.598	 H	1	UNK0	0.000	
40	   H	-0.412	-2.395	-0.900	 H	1	UNK0	0.000	
41	   H	-1.977	-2.289	-1.747	 H	1	UNK0	0.000	
42	   H	-0.089	0.881	-0.411	 H	1	UNK0	0.000	
43	   H	0.538	0.507	1.802	 H	1	UNK0	0.000	
44	   H	1.277	-0.805	0.763	 H	1	UNK0	0.000	
45	   H	0.095	-2.455	1.735	 H	1	UNK0	0.000	
46	   H	-0.001	-1.223	3.090	 H	1	UNK0	0.000	
47	   H	-4.854	-2.114	2.592	 H	1	UNK0	0.000	
48	   H	-4.405	-1.168	0.144	 H	1	UNK0	0.000	
49	   H	-3.104	0.885	-0.493	 H	1	UNK0	0.000	
50	   H	-3.204	-0.351	-1.810	 H	1	UNK0	0.000	
51	   H	-2.327	1.456	-2.942	 H	1	UNK0	0.000	
52	   H	-1.318	2.001	-1.509	 H	1	UNK0	0.000	
@<TRIPOS>BOND
1 1 2 1
2 2 3 2
3 2 7 1
4 3 4 1
5 4 5 2
6 4 8 1
7 5 6 1
8 6 7 2
9 8 9 2
10 8 10 1
11 10 11 1
12 11 12 1
13 12 13 1
14 13 14 2
15 13 15 1
16 15 16 1
17 15 28 1
18 16 17 1
19 17 18 1
20 18 19 1
21 18 26 1
22 18 27 1
23 19 20 1
24 20 21 1
25 21 22 1
26 22 23 1
27 22 26 2
28 23 24 2
29 24 25 1
30 25 26 1
31 27 28 1
32 3 29 1
33 5 30 1
34 6 31 1
35 7 32 1
36 10 33 1
37 11 34 1
38 11 35 1
39 12 36 1
40 12 37 1
41 16 38 1
42 16 39 1
43 17 40 1
44 17 41 1
45 19 42 1
46 20 43 1
47 20 44 1
48 21 45 1
49 21 46 1
50 24 47 1
51 25 48 1
52 27 49 1
53 27 50 1
54 28 51 1
55 28 52 1
@<TRIPOS>SUBSTRUCTURE
1	UNK0	1	GROUP	1 ****	UNK
