# created with PyMOL 2.3.2
@<TRIPOS>MOLECULE
1672
62 66 1                 
SMALL
USER_CHARGES
@<TRIPOS>ATOM
1	  Br	-0.856	0.890	-6.671	Br	1	UNK0	0.000	
2	   C	-0.384	0.066	-5.007	C.2	1	UNK0	0.000	
3	   C	-0.104	0.825	-3.901	C.2	1	UNK0	0.000	
4	   C	0.249	0.271	-2.654	C.2	1	UNK0	0.000	
5	   C	0.282	-1.106	-2.660	C.2	1	UNK0	0.000	
6	   C	0.005	-1.889	-3.760	C.2	1	UNK0	0.000	
7	   C	-0.335	-1.301	-4.957	C.2	1	UNK0	0.000	
8	   C	0.512	1.143	-1.549	C.3	1	UNK0	0.000	
9	   N	1.722	1.044	-0.810	N.pl3	1	UNK0	0.000	
10	   C	1.538	2.017	0.271	C.2	1	UNK0	0.000	
11	   O	2.438	2.629	0.868	O.2	1	UNK0	0.000	
12	   C	0.086	2.112	0.495	C.2	1	UNK0	0.000	
13	   O	-0.523	2.820	1.329	O.2	1	UNK0	0.000	
14	   C	-0.516	1.193	-0.468	C.2	1	UNK0	0.000	
15	   C	-1.654	0.560	-0.345	C.2	1	UNK0	0.000	
16	   O	-2.007	-0.333	-1.380	O.2	1	UNK0	0.000	
17	   C	-2.548	0.747	0.788	C.2	1	UNK0	0.000	
18	   N	-3.312	1.783	1.163	N.pl3	1	UNK0	0.000	
19	   C	-3.929	1.494	2.312	C.2	1	UNK0	0.000	
20	   N	-3.545	0.241	2.672	N.2	1	UNK0	0.000	
21	   C	-2.697	-0.254	1.761	C.2	1	UNK0	0.000	
22	   C	-2.043	-1.593	1.777	C.3	1	UNK0	0.000	
23	   C	-4.800	2.394	2.922	C.2	1	UNK0	0.000	
24	   C	-5.004	3.603	2.286	C.2	1	UNK0	0.000	
25	   C	-4.351	3.870	1.097	C.2	1	UNK0	0.000	
26	   C	-3.495	2.967	0.515	C.2	1	UNK0	0.000	
27	   C	-5.456	2.020	4.199	C.3	1	UNK0	0.000	
28	   C	2.951	0.285	-0.962	C.3	1	UNK0	0.000	
29	   C	3.024	-0.972	-0.166	C.3	1	UNK0	0.000	
30	   N	4.268	-1.691	-0.358	N.4	1	UNK0	0.000	
31	   C	5.090	-1.654	0.831	C.3	1	UNK0	0.000	
32	   C	4.485	-2.566	1.903	C.3	1	UNK0	0.000	
33	   O	4.584	-3.866	1.395	O.3	1	UNK0	0.000	
34	   C	3.641	-3.937	0.349	C.3	1	UNK0	0.000	
35	   C	4.034	-3.049	-0.808	C.3	1	UNK0	0.000	
36	   H	-0.161	1.913	-4.008	 H	1	UNK0	0.000	
37	   H	0.523	-1.609	-1.760	 H	1	UNK0	0.000	
38	   H	0.043	-2.967	-3.725	 H	1	UNK0	0.000	
39	   H	-0.561	-1.864	-5.846	 H	1	UNK0	0.000	
40	   H	0.507	2.216	-1.947	 H	1	UNK0	0.000	
41	   H	-1.061	-1.493	2.282	 H	1	UNK0	0.000	
42	   H	-1.874	-1.893	0.736	 H	1	UNK0	0.000	
43	   H	-2.693	-2.326	2.318	 H	1	UNK0	0.000	
44	   H	-5.684	4.332	2.740	 H	1	UNK0	0.000	
45	   H	-4.505	4.813	0.593	 H	1	UNK0	0.000	
46	   H	-2.980	3.161	-0.410	 H	1	UNK0	0.000	
47	   H	-6.001	2.898	4.604	 H	1	UNK0	0.000	
48	   H	-4.674	1.702	4.935	 H	1	UNK0	0.000	
49	   H	-6.183	1.210	4.092	 H	1	UNK0	0.000	
50	   H	3.030	0.002	-2.037	 H	1	UNK0	0.000	
51	   H	3.834	0.953	-0.785	 H	1	UNK0	0.000	
52	   H	3.014	-0.634	0.921	 H	1	UNK0	0.000	
53	   H	2.221	-1.681	-0.250	 H	1	UNK0	0.000	
54	   H	4.820	-1.218	-1.115	 H	1	UNK0	0.000	
55	   H	5.021	-0.627	1.237	 H	1	UNK0	0.000	
56	   H	6.139	-1.876	0.636	 H	1	UNK0	0.000	
57	   H	4.999	-2.432	2.859	 H	1	UNK0	0.000	
58	   H	3.408	-2.340	1.967	 H	1	UNK0	0.000	
59	   H	2.693	-3.517	0.765	 H	1	UNK0	0.000	
60	   H	3.499	-4.957	-0.009	 H	1	UNK0	0.000	
61	   H	3.163	-3.016	-1.495	 H	1	UNK0	0.000	
62	   H	4.887	-3.450	-1.389	 H	1	UNK0	0.000	
@<TRIPOS>BOND
1 1 2 1
2 2 3 2
3 2 7 1
4 3 4 1
5 4 5 2
6 4 8 1
7 5 6 1
8 6 7 2
9 8 9 1
10 8 14 1
11 9 10 1
12 9 28 1
13 10 11 2
14 10 12 1
15 12 13 2
16 12 14 1
17 14 15 2
18 15 16 1
19 15 17 1
20 17 18 1
21 17 21 2
22 18 19 1
23 18 26 1
24 19 20 2
25 19 23 1
26 20 21 1
27 21 22 1
28 23 24 2
29 23 27 1
30 24 25 1
31 25 26 2
32 28 29 1
33 29 30 1
34 30 31 1
35 30 35 1
36 31 32 1
37 32 33 1
38 33 34 1
39 34 35 1
40 3 36 1
41 5 37 1
42 6 38 1
43 7 39 1
44 8 40 1
45 22 41 1
46 22 42 1
47 22 43 1
48 24 44 1
49 25 45 1
50 26 46 1
51 27 47 1
52 27 48 1
53 27 49 1
54 28 50 1
55 28 51 1
56 29 52 1
57 29 53 1
58 30 54 1
59 31 55 1
60 31 56 1
61 32 57 1
62 32 58 1
63 34 59 1
64 34 60 1
65 35 61 1
66 35 62 1
@<TRIPOS>SUBSTRUCTURE
1	UNK0	1	GROUP	1 ****	UNK
