# created with PyMOL 2.3.2
@<TRIPOS>MOLECULE
1674
34 37 1                 
SMALL
USER_CHARGES
@<TRIPOS>ATOM
1	  Br	-4.895	0.481	-4.295	Br	1	UNK0	0.000	
2	   C	-3.679	-0.009	-2.902	C.2	1	UNK0	0.000	
3	   C	-2.312	0.050	-3.076	C.2	1	UNK0	0.000	
4	   C	-1.457	-0.307	-2.060	C.2	1	UNK0	0.000	
5	   C	-1.865	-0.734	-0.835	C.2	1	UNK0	0.000	
6	   C	-3.271	-0.787	-0.681	C.2	1	UNK0	0.000	
7	   C	-4.137	-0.435	-1.686	C.2	1	UNK0	0.000	
8	   C	-1.080	-1.098	0.321	C.2	1	UNK0	0.000	
9	   N	-0.086	-0.574	1.021	N.pl3	1	UNK0	0.000	
10	   C	0.263	-1.416	2.042	C.2	1	UNK0	0.000	
11	   N	-0.566	-2.477	1.943	N.2	1	UNK0	0.000	
12	   N	-1.364	-2.322	0.951	N.2	1	UNK0	0.000	
13	   N	1.263	-0.896	2.755	N.pl3	1	UNK0	0.000	
14	   C	1.556	0.287	2.202	C.2	1	UNK0	0.000	
15	   C	0.723	0.519	1.115	C.2	1	UNK0	0.000	
16	   N	0.799	1.649	0.424	N.pl3	1	UNK0	0.000	
17	   C	1.740	2.564	0.822	C.2	1	UNK0	0.000	
18	   O	1.874	3.665	0.207	O.2	1	UNK0	0.000	
19	   N	2.559	2.353	1.866	N.pl3	1	UNK0	0.000	
20	   C	2.497	1.231	2.580	C.2	1	UNK0	0.000	
21	   O	3.256	1.003	3.572	O.2	1	UNK0	0.000	
22	   C	-0.073	2.050	-0.627	C.3	1	UNK0	0.000	
23	   C	1.884	-1.526	3.903	C.3	1	UNK0	0.000	
24	   H	-1.949	0.386	-4.035	 H	1	UNK0	0.000	
25	   H	-0.382	-0.267	-2.271	 H	1	UNK0	0.000	
26	   H	-3.655	-1.120	0.271	 H	1	UNK0	0.000	
27	   H	-5.220	-0.476	-1.566	 H	1	UNK0	0.000	
28	   H	3.266	3.067	2.143	 H	1	UNK0	0.000	
29	   H	-1.127	1.875	-0.382	 H	1	UNK0	0.000	
30	   H	0.277	1.837	-1.632	 H	1	UNK0	0.000	
31	   H	-0.055	3.216	-0.608	 H	1	UNK0	0.000	
32	   H	1.145	-2.206	4.381	 H	1	UNK0	0.000	
33	   H	2.222	-0.787	4.663	 H	1	UNK0	0.000	
34	   H	2.721	-2.182	3.570	 H	1	UNK0	0.000	
@<TRIPOS>BOND
1 1 2 1
2 2 3 2
3 2 7 1
4 3 4 1
5 4 5 2
6 5 6 1
7 5 8 1
8 6 7 2
9 8 9 1
10 8 12 2
11 9 10 1
12 9 15 1
13 10 11 2
14 10 13 1
15 11 12 1
16 13 14 1
17 13 23 1
18 14 15 2
19 14 20 1
20 15 16 1
21 16 17 1
22 16 22 1
23 17 18 2
24 17 19 1
25 19 20 1
26 20 21 2
27 3 24 1
28 4 25 1
29 6 26 1
30 7 27 1
31 19 28 1
32 22 29 1
33 22 30 1
34 22 31 1
35 23 32 1
36 23 33 1
37 23 34 1
@<TRIPOS>SUBSTRUCTURE
1	UNK0	1	GROUP	1 ****	UNK
