# created with PyMOL 2.3.2
@<TRIPOS>MOLECULE
1675
55 58 1                 
SMALL
USER_CHARGES
@<TRIPOS>ATOM
1	  Br	-2.549	8.350	3.369	Br	1	UNK0	0.000	
2	   C	-1.712	6.832	2.601	C.2	1	UNK0	0.000	
3	   C	-1.028	5.907	3.384	C.2	1	UNK0	0.000	
4	   C	-0.439	4.826	2.793	C.2	1	UNK0	0.000	
5	   C	-0.477	4.584	1.429	C.2	1	UNK0	0.000	
6	   C	-1.153	5.502	0.657	C.2	1	UNK0	0.000	
7	   C	-1.767	6.617	1.227	C.2	1	UNK0	0.000	
8	   C	0.168	3.418	0.839	C.2	1	UNK0	0.000	
9	   C	-0.399	2.145	0.873	C.2	1	UNK0	0.000	
10	   O	0.191	1.097	0.352	O.3	1	UNK0	0.000	
11	   C	1.357	1.118	-0.248	C.2	1	UNK0	0.000	
12	   C	1.972	2.342	-0.317	C.2	1	UNK0	0.000	
13	   C	3.202	2.371	-0.948	C.2	1	UNK0	0.000	
14	   C	3.772	1.240	-1.474	C.2	1	UNK0	0.000	
15	   C	3.136	0.009	-1.395	C.2	1	UNK0	0.000	
16	   C	1.922	-0.058	-0.780	C.2	1	UNK0	0.000	
17	   C	1.123	-1.253	-0.603	C.3	1	UNK0	0.000	
18	   N	1.532	-2.504	-1.042	N.4	1	UNK0	0.000	
19	   C	1.224	-2.910	-2.378	C.3	1	UNK0	0.000	
20	   C	-0.239	-3.129	-2.664	C.3	1	UNK0	0.000	
21	   N	-1.036	-3.471	-1.538	N.3	1	UNK0	0.000	
22	   C	-0.200	-4.224	-0.611	C.3	1	UNK0	0.000	
23	   C	0.977	-3.497	-0.091	C.3	1	UNK0	0.000	
24	   C	-2.107	-4.389	-1.898	C.3	1	UNK0	0.000	
25	   C	-3.104	-3.717	-2.773	C.3	1	UNK0	0.000	
26	   O	-2.502	-3.292	-3.939	O.3	1	UNK0	0.000	
27	   O	3.764	-1.120	-1.951	O.2	1	UNK0	0.000	
28	   C	1.397	3.483	0.214	C.2	1	UNK0	0.000	
29	   O	1.983	4.591	0.138	O.2	1	UNK0	0.000	
30	   C	-1.723	2.021	1.533	C.3	1	UNK0	0.000	
31	   H	-0.994	6.090	4.460	 H	1	UNK0	0.000	
32	   H	0.090	4.105	3.403	 H	1	UNK0	0.000	
33	   H	-1.227	5.385	-0.415	 H	1	UNK0	0.000	
34	   H	-2.305	7.356	0.636	 H	1	UNK0	0.000	
35	   H	3.697	3.352	-1.003	 H	1	UNK0	0.000	
36	   H	4.738	1.268	-1.966	 H	1	UNK0	0.000	
37	   H	0.094	-1.024	-1.048	 H	1	UNK0	0.000	
38	   H	0.895	-1.318	0.515	 H	1	UNK0	0.000	
39	   H	2.571	-2.666	-0.924	 H	1	UNK0	0.000	
40	   H	1.584	-2.199	-3.115	 H	1	UNK0	0.000	
41	   H	1.775	-3.879	-2.558	 H	1	UNK0	0.000	
42	   H	-0.313	-3.911	-3.449	 H	1	UNK0	0.000	
43	   H	-0.673	-2.194	-3.122	 H	1	UNK0	0.000	
44	   H	-0.889	-4.596	0.169	 H	1	UNK0	0.000	
45	   H	0.189	-5.106	-1.199	 H	1	UNK0	0.000	
46	   H	0.685	-2.977	0.852	 H	1	UNK0	0.000	
47	   H	1.765	-4.227	0.232	 H	1	UNK0	0.000	
48	   H	-2.614	-4.779	-0.970	 H	1	UNK0	0.000	
49	   H	-1.669	-5.275	-2.410	 H	1	UNK0	0.000	
50	   H	-3.918	-4.463	-3.025	 H	1	UNK0	0.000	
51	   H	-3.558	-2.856	-2.238	 H	1	UNK0	0.000	
52	   H	-2.801	-2.436	-4.286	 H	1	UNK0	0.000	
53	   H	-1.527	1.801	2.608	 H	1	UNK0	0.000	
54	   H	-2.292	1.135	1.143	 H	1	UNK0	0.000	
55	   H	-2.345	2.922	1.399	 H	1	UNK0	0.000	
@<TRIPOS>BOND
1 1 2 1
2 2 3 2
3 2 7 1
4 3 4 1
5 4 5 2
6 5 6 1
7 5 8 1
8 6 7 2
9 8 9 2
10 8 28 1
11 9 10 1
12 9 30 1
13 10 11 1
14 11 12 2
15 11 16 1
16 12 13 1
17 12 28 1
18 13 14 2
19 14 15 1
20 15 16 2
21 15 27 1
22 16 17 1
23 17 18 1
24 18 19 1
25 18 23 1
26 19 20 1
27 20 21 1
28 21 22 1
29 21 24 1
30 22 23 1
31 24 25 1
32 25 26 1
33 28 29 2
34 3 31 1
35 4 32 1
36 6 33 1
37 7 34 1
38 13 35 1
39 14 36 1
40 17 37 1
41 17 38 1
42 18 39 1
43 19 40 1
44 19 41 1
45 20 42 1
46 20 43 1
47 22 44 1
48 22 45 1
49 23 46 1
50 23 47 1
51 24 48 1
52 24 49 1
53 25 50 1
54 25 51 1
55 26 52 1
56 30 53 1
57 30 54 1
58 30 55 1
@<TRIPOS>SUBSTRUCTURE
1	UNK0	1	GROUP	1 ****	UNK
