# created with PyMOL 2.3.2
@<TRIPOS>MOLECULE
1676
37 40 1                 
SMALL
USER_CHARGES
@<TRIPOS>ATOM
1	  Br	1.866	-5.079	-4.981	Br	1	UNK0	0.000	
2	   C	0.564	-3.823	-4.363	C.2	1	UNK0	0.000	
3	   C	-0.732	-3.870	-4.830	C.2	1	UNK0	0.000	
4	   C	-1.684	-2.976	-4.398	C.2	1	UNK0	0.000	
5	   N	-2.997	-2.788	-4.674	N.2	1	UNK0	0.000	
6	   N	-3.410	-1.761	-3.954	N.2	1	UNK0	0.000	
7	   N	-2.447	-1.268	-3.226	N.pl3	1	UNK0	0.000	
8	   C	-1.338	-2.013	-3.482	C.2	1	UNK0	0.000	
9	   C	-0.038	-1.960	-3.010	C.2	1	UNK0	0.000	
10	   C	0.917	-2.865	-3.449	C.2	1	UNK0	0.000	
11	   C	0.303	-0.928	-2.037	C.2	1	UNK0	0.000	
12	   O	-0.220	0.197	-2.152	O.2	1	UNK0	0.000	
13	   N	1.206	-1.156	-0.968	N.pl3	1	UNK0	0.000	
14	   C	1.525	-0.116	-0.021	C.3	1	UNK0	0.000	
15	   C	0.261	0.318	0.670	C.2	1	UNK0	0.000	
16	   N	0.140	1.261	1.618	N.pl3	1	UNK0	0.000	
17	   C	-1.147	1.383	2.008	C.2	1	UNK0	0.000	
18	   N	-1.837	0.494	1.283	N.2	1	UNK0	0.000	
19	   N	-0.986	-0.153	0.472	N.2	1	UNK0	0.000	
20	   C	-1.425	2.399	3.060	C.3	1	UNK0	0.000	
21	   C	-0.827	3.702	2.510	C.3	1	UNK0	0.000	
22	   C	0.610	3.558	2.129	C.3	1	UNK0	0.000	
23	   C	1.094	2.131	2.269	C.3	1	UNK0	0.000	
24	   H	-1.010	-4.625	-5.550	 H	1	UNK0	0.000	
25	   H	-2.423	-0.473	-2.555	 H	1	UNK0	0.000	
26	   H	1.922	-2.781	-3.048	 H	1	UNK0	0.000	
27	   H	1.647	-2.084	-0.861	 H	1	UNK0	0.000	
28	   H	2.308	-0.405	0.679	 H	1	UNK0	0.000	
29	   H	1.880	0.766	-0.621	 H	1	UNK0	0.000	
30	   H	-0.959	2.114	4.011	 H	1	UNK0	0.000	
31	   H	-2.521	2.605	3.149	 H	1	UNK0	0.000	
32	   H	-1.413	3.921	1.596	 H	1	UNK0	0.000	
33	   H	-0.992	4.537	3.217	 H	1	UNK0	0.000	
34	   H	1.278	4.254	2.692	 H	1	UNK0	0.000	
35	   H	0.745	3.830	1.063	 H	1	UNK0	0.000	
36	   H	1.080	1.876	3.353	 H	1	UNK0	0.000	
37	   H	2.097	1.987	1.852	 H	1	UNK0	0.000	
@<TRIPOS>BOND
1 1 2 1
2 2 3 2
3 2 10 1
4 3 4 1
5 4 5 1
6 4 8 2
7 5 6 2
8 6 7 1
9 7 8 1
10 8 9 1
11 9 10 2
12 9 11 1
13 11 12 2
14 11 13 1
15 13 14 1
16 14 15 1
17 15 16 1
18 15 19 2
19 16 17 1
20 16 23 1
21 17 18 2
22 17 20 1
23 18 19 1
24 20 21 1
25 21 22 1
26 22 23 1
27 3 24 1
28 7 25 1
29 10 26 1
30 13 27 1
31 14 28 1
32 14 29 1
33 20 30 1
34 20 31 1
35 21 32 1
36 21 33 1
37 22 34 1
38 22 35 1
39 23 36 1
40 23 37 1
@<TRIPOS>SUBSTRUCTURE
1	UNK0	1	GROUP	1 ****	UNK
