# created with PyMOL 2.3.2
@<TRIPOS>MOLECULE
1681
63 66 1                 
SMALL
USER_CHARGES
@<TRIPOS>ATOM
1	  Cl	3.463	1.305	-2.467	Cl	1	UNK0	0.000	
2	   C	2.408	1.546	-3.835	C.2	1	UNK0	0.000	
3	   C	1.073	1.810	-3.677	C.2	1	UNK0	0.000	
4	   C	0.250	2.001	-4.799	C.2	1	UNK0	0.000	
5	   C	0.745	1.930	-6.079	C.2	1	UNK0	0.000	
6	   C	2.087	1.664	-6.220	C.2	1	UNK0	0.000	
7	   C	2.920	1.472	-5.142	C.2	1	UNK0	0.000	
8	  Cl	2.724	1.572	-7.861	Cl	1	UNK0	0.000	
9	   C	0.441	1.915	-2.336	C.3	1	UNK0	0.000	
10	   N	-0.989	1.646	-2.572	N.pl3	1	UNK0	0.000	
11	   C	-1.373	0.306	-2.908	C.2	1	UNK0	0.000	
12	   O	-2.409	0.103	-3.616	O.2	1	UNK0	0.000	
13	   N	-0.583	-0.779	-2.440	N.pl3	1	UNK0	0.000	
14	   C	0.554	-0.445	-1.664	C.2	1	UNK0	0.000	
15	   C	0.871	0.829	-1.396	C.2	1	UNK0	0.000	
16	   C	1.649	0.823	-0.169	C.2	1	UNK0	0.000	
17	   O	2.154	1.791	0.470	O.2	1	UNK0	0.000	
18	   N	1.800	-0.535	0.294	N.pl3	1	UNK0	0.000	
19	   C	1.544	-1.316	-0.937	C.3	1	UNK0	0.000	
20	   C	2.153	-1.065	1.557	C.3	1	UNK0	0.000	
21	   C	1.136	-1.360	2.532	C.2	1	UNK0	0.000	
22	   O	1.645	-1.839	3.654	O.2	1	UNK0	0.000	
23	   N	-0.243	-1.257	2.567	N.pl3	1	UNK0	0.000	
24	   C	-1.015	-1.646	3.764	C.3	1	UNK0	0.000	
25	   C	-1.881	-0.441	4.102	C.3	1	UNK0	0.000	
26	   N	-2.822	-0.255	3.055	N.3	1	UNK0	0.000	
27	   C	-2.505	-0.866	1.819	C.3	1	UNK0	0.000	
28	   C	-1.027	-0.786	1.469	C.3	1	UNK0	0.000	
29	   C	-3.646	0.863	3.061	C.3	1	UNK0	0.000	
30	   C	-3.016	2.187	2.837	C.3	1	UNK0	0.000	
31	   O	-2.054	2.553	3.757	O.3	1	UNK0	0.000	
32	   C	-1.600	3.830	3.351	C.3	1	UNK0	0.000	
33	   C	-0.923	-2.124	-2.754	C.3	1	UNK0	0.000	
34	   C	-1.834	-2.812	-1.793	C.3	1	UNK0	0.000	
35	   H	-0.807	2.210	-4.689	 H	1	UNK0	0.000	
36	   H	0.128	2.074	-6.961	 H	1	UNK0	0.000	
37	   H	3.976	1.262	-5.253	 H	1	UNK0	0.000	
38	   H	0.514	2.900	-1.879	 H	1	UNK0	0.000	
39	   H	-1.689	2.402	-2.497	 H	1	UNK0	0.000	
40	   H	2.451	-1.357	-1.555	 H	1	UNK0	0.000	
41	   H	1.100	-2.280	-0.688	 H	1	UNK0	0.000	
42	   H	2.941	-0.427	2.073	 H	1	UNK0	0.000	
43	   H	2.742	-2.033	1.388	 H	1	UNK0	0.000	
44	   H	-1.592	-2.554	3.592	 H	1	UNK0	0.000	
45	   H	-0.289	-1.812	4.568	 H	1	UNK0	0.000	
46	   H	-1.194	0.425	4.170	 H	1	UNK0	0.000	
47	   H	-2.411	-0.680	5.038	 H	1	UNK0	0.000	
48	   H	-2.841	-1.920	1.824	 H	1	UNK0	0.000	
49	   H	-3.052	-0.352	1.003	 H	1	UNK0	0.000	
50	   H	-0.730	0.225	1.187	 H	1	UNK0	0.000	
51	   H	-0.901	-1.441	0.560	 H	1	UNK0	0.000	
52	   H	-4.437	0.737	2.281	 H	1	UNK0	0.000	
53	   H	-4.222	0.897	4.026	 H	1	UNK0	0.000	
54	   H	-2.646	2.325	1.783	 H	1	UNK0	0.000	
55	   H	-3.835	2.962	2.924	 H	1	UNK0	0.000	
56	   H	-1.180	3.739	2.325	 H	1	UNK0	0.000	
57	   H	-0.819	4.223	4.004	 H	1	UNK0	0.000	
58	   H	-2.487	4.503	3.251	 H	1	UNK0	0.000	
59	   H	-1.415	-2.158	-3.763	 H	1	UNK0	0.000	
60	   H	-0.007	-2.751	-2.849	 H	1	UNK0	0.000	
61	   H	-2.354	-3.629	-2.337	 H	1	UNK0	0.000	
62	   H	-1.294	-3.303	-0.948	 H	1	UNK0	0.000	
63	   H	-2.625	-2.123	-1.425	 H	1	UNK0	0.000	
@<TRIPOS>BOND
1 1 2 1
2 2 3 2
3 2 7 1
4 3 4 1
5 3 9 1
6 4 5 2
7 5 6 1
8 6 7 2
9 6 8 1
10 9 10 1
11 9 15 1
12 10 11 1
13 11 12 2
14 11 13 1
15 13 14 1
16 13 33 1
17 14 15 2
18 14 19 1
19 15 16 1
20 16 17 2
21 16 18 1
22 18 19 1
23 18 20 1
24 20 21 1
25 21 22 2
26 21 23 1
27 23 24 1
28 23 28 1
29 24 25 1
30 25 26 1
31 26 27 1
32 26 29 1
33 27 28 1
34 29 30 1
35 30 31 1
36 31 32 1
37 33 34 1
38 4 35 1
39 5 36 1
40 7 37 1
41 9 38 1
42 10 39 1
43 19 40 1
44 19 41 1
45 20 42 1
46 20 43 1
47 24 44 1
48 24 45 1
49 25 46 1
50 25 47 1
51 27 48 1
52 27 49 1
53 28 50 1
54 28 51 1
55 29 52 1
56 29 53 1
57 30 54 1
58 30 55 1
59 32 56 1
60 32 57 1
61 32 58 1
62 33 59 1
63 33 60 1
64 34 61 1
65 34 62 1
66 34 63 1
@<TRIPOS>SUBSTRUCTURE
1	UNK0	1	GROUP	1 ****	UNK
