# created with PyMOL 2.3.2
@<TRIPOS>MOLECULE
1682
47 49 1                 
SMALL
USER_CHARGES
@<TRIPOS>ATOM
1	  Cl	-0.148	-7.203	0.632	Cl	1	UNK0	0.000	
2	   C	-0.271	-5.664	-0.192	C.2	1	UNK0	0.000	
3	   N	0.501	-5.231	-1.204	N.2	1	UNK0	0.000	
4	   O	0.115	-4.046	-1.557	O.3	1	UNK0	0.000	
5	   C	-0.890	-3.629	-0.840	C.2	1	UNK0	0.000	
6	   C	-1.166	-4.641	0.047	C.2	1	UNK0	0.000	
7	   C	-1.610	-2.340	-0.933	C.3	1	UNK0	0.000	
8	   C	-0.967	-1.292	-0.029	C.3	1	UNK0	0.000	
9	   C	-1.687	-0.002	-0.121	C.2	1	UNK0	0.000	
10	   O	-2.675	0.067	-0.923	O.2	1	UNK0	0.000	
11	   N	-1.359	1.144	0.609	N.pl3	1	UNK0	0.000	
12	   C	-0.280	1.271	1.562	C.3	1	UNK0	0.000	
13	   C	1.074	1.497	0.906	C.3	1	UNK0	0.000	
14	   N	0.998	2.274	-0.288	N.pl3	1	UNK0	0.000	
15	   C	-0.147	3.054	-0.722	C.3	1	UNK0	0.000	
16	   C	-1.080	3.474	0.349	C.3	1	UNK0	0.000	
17	   C	-2.151	2.376	0.444	C.3	1	UNK0	0.000	
18	   C	-0.484	3.729	1.690	C.3	1	UNK0	0.000	
19	   C	-0.571	2.449	2.500	C.3	1	UNK0	0.000	
20	   C	2.085	2.343	-1.178	C.2	1	UNK0	0.000	
21	   O	1.936	3.080	-2.259	O.2	1	UNK0	0.000	
22	   N	3.346	1.740	-1.110	N.pl3	1	UNK0	0.000	
23	   C	4.318	1.985	-2.208	C.3	1	UNK0	0.000	
24	   C	3.827	0.881	-0.068	C.3	1	UNK0	0.000	
25	   H	-1.928	-4.696	0.817	 H	1	UNK0	0.000	
26	   H	-2.656	-2.532	-0.619	 H	1	UNK0	0.000	
27	   H	-1.634	-2.013	-1.981	 H	1	UNK0	0.000	
28	   H	0.116	-1.215	-0.224	 H	1	UNK0	0.000	
29	   H	-1.072	-1.689	1.011	 H	1	UNK0	0.000	
30	   H	-0.208	0.394	2.198	 H	1	UNK0	0.000	
31	   H	1.478	0.481	0.750	 H	1	UNK0	0.000	
32	   H	1.653	2.081	1.665	 H	1	UNK0	0.000	
33	   H	0.251	3.960	-1.218	 H	1	UNK0	0.000	
34	   H	-0.713	2.479	-1.505	 H	1	UNK0	0.000	
35	   H	-1.621	4.392	0.015	 H	1	UNK0	0.000	
36	   H	-2.767	2.505	1.354	 H	1	UNK0	0.000	
37	   H	-2.730	2.322	-0.486	 H	1	UNK0	0.000	
38	   H	-1.066	4.514	2.203	 H	1	UNK0	0.000	
39	   H	0.588	4.041	1.601	 H	1	UNK0	0.000	
40	   H	0.223	2.471	3.264	 H	1	UNK0	0.000	
41	   H	-1.543	2.301	2.972	 H	1	UNK0	0.000	
42	   H	3.958	2.762	-2.883	 H	1	UNK0	0.000	
43	   H	5.327	2.155	-1.796	 H	1	UNK0	0.000	
44	   H	4.337	1.034	-2.782	 H	1	UNK0	0.000	
45	   H	4.957	0.753	-0.137	 H	1	UNK0	0.000	
46	   H	3.694	1.259	0.961	 H	1	UNK0	0.000	
47	   H	3.482	-0.188	-0.200	 H	1	UNK0	0.000	
@<TRIPOS>BOND
1 1 2 1
2 2 3 2
3 2 6 1
4 3 4 1
5 4 5 1
6 5 6 2
7 5 7 1
8 7 8 1
9 8 9 1
10 9 10 2
11 9 11 1
12 11 12 1
13 11 17 1
14 12 13 1
15 12 19 1
16 13 14 1
17 14 15 1
18 14 20 1
19 15 16 1
20 16 17 1
21 16 18 1
22 18 19 1
23 20 21 2
24 20 22 1
25 22 23 1
26 22 24 1
27 6 25 1
28 7 26 1
29 7 27 1
30 8 28 1
31 8 29 1
32 12 30 1
33 13 31 1
34 13 32 1
35 15 33 1
36 15 34 1
37 16 35 1
38 17 36 1
39 17 37 1
40 18 38 1
41 18 39 1
42 19 40 1
43 19 41 1
44 23 42 1
45 23 43 1
46 23 44 1
47 24 45 1
48 24 46 1
49 24 47 1
@<TRIPOS>SUBSTRUCTURE
1	UNK0	1	GROUP	1 ****	UNK
