# created with PyMOL 2.3.2
@<TRIPOS>MOLECULE
1683
57 60 1                 
SMALL
USER_CHARGES
@<TRIPOS>ATOM
1	  Cl	-4.764	-0.369	0.800	Cl	1	UNK0	0.000	
2	   C	-3.576	-0.465	-0.486	C.2	1	UNK0	0.000	
3	   C	-2.371	-1.135	-0.244	C.2	1	UNK0	0.000	
4	   C	-1.448	-1.212	-1.243	C.2	1	UNK0	0.000	
5	   C	-1.641	-0.651	-2.504	C.2	1	UNK0	0.000	
6	   C	-2.833	0.001	-2.711	C.2	1	UNK0	0.000	
7	   C	-3.802	0.104	-1.728	C.2	1	UNK0	0.000	
8	   C	-0.613	-0.746	-3.586	C.3	1	UNK0	0.000	
9	   O	-0.434	0.497	-4.124	O.3	1	UNK0	0.000	
10	   C	-0.043	0.600	-5.415	C.3	1	UNK0	0.000	
11	   C	0.640	-0.581	-6.016	C.3	1	UNK0	0.000	
12	   C	0.047	-1.898	-5.669	C.3	1	UNK0	0.000	
13	   C	-0.972	-1.810	-4.589	C.3	1	UNK0	0.000	
14	   O	-0.990	-3.038	-3.924	O.3	1	UNK0	0.000	
15	   O	-0.551	-2.521	-6.792	O.3	1	UNK0	0.000	
16	   O	1.998	-0.589	-5.642	O.3	1	UNK0	0.000	
17	   C	-1.160	1.074	-6.344	C.3	1	UNK0	0.000	
18	   O	-0.700	1.157	-7.657	O.3	1	UNK0	0.000	
19	   C	-2.208	-1.725	1.066	C.2	1	UNK0	0.000	
20	   O	-2.995	-2.630	1.474	O.2	1	UNK0	0.000	
21	   C	-1.146	-1.304	1.966	C.2	1	UNK0	0.000	
22	   C	-1.244	-1.600	3.333	C.2	1	UNK0	0.000	
23	   C	-0.257	-1.188	4.196	C.2	1	UNK0	0.000	
24	   C	0.864	-0.482	3.829	C.2	1	UNK0	0.000	
25	   C	0.959	-0.187	2.462	C.2	1	UNK0	0.000	
26	   C	-0.025	-0.598	1.598	C.2	1	UNK0	0.000	
27	   O	1.859	-0.062	4.686	O.3	1	UNK0	0.000	
28	   C	1.918	-0.256	6.062	C.3	1	UNK0	0.000	
29	   C	2.071	1.073	6.808	C.3	1	UNK0	0.000	
30	   O	3.373	1.411	6.516	O.3	1	UNK0	0.000	
31	   C	4.139	0.256	6.624	C.3	1	UNK0	0.000	
32	   C	3.234	-0.919	6.475	C.3	1	UNK0	0.000	
33	   H	-0.533	-1.734	-1.111	 H	1	UNK0	0.000	
34	   H	-3.060	0.465	-3.667	 H	1	UNK0	0.000	
35	   H	-4.748	0.620	-1.892	 H	1	UNK0	0.000	
36	   H	0.333	-1.054	-3.101	 H	1	UNK0	0.000	
37	   H	0.709	1.447	-5.447	 H	1	UNK0	0.000	
38	   H	0.633	-0.486	-7.125	 H	1	UNK0	0.000	
39	   H	0.841	-2.629	-5.353	 H	1	UNK0	0.000	
40	   H	-2.004	-1.636	-4.962	 H	1	UNK0	0.000	
41	   H	-1.908	-3.368	-3.752	 H	1	UNK0	0.000	
42	   H	-1.016	-3.331	-6.424	 H	1	UNK0	0.000	
43	   H	2.347	-1.531	-5.632	 H	1	UNK0	0.000	
44	   H	-1.486	2.119	-6.066	 H	1	UNK0	0.000	
45	   H	-2.056	0.444	-6.258	 H	1	UNK0	0.000	
46	   H	-1.484	1.402	-8.212	 H	1	UNK0	0.000	
47	   H	-2.109	-2.155	3.674	 H	1	UNK0	0.000	
48	   H	-0.367	-1.438	5.258	 H	1	UNK0	0.000	
49	   H	1.824	0.364	2.134	 H	1	UNK0	0.000	
50	   H	0.095	-0.324	0.540	 H	1	UNK0	0.000	
51	   H	1.060	-0.816	6.436	 H	1	UNK0	0.000	
52	   H	1.846	0.907	7.860	 H	1	UNK0	0.000	
53	   H	1.380	1.828	6.373	 H	1	UNK0	0.000	
54	   H	4.822	0.262	5.730	 H	1	UNK0	0.000	
55	   H	4.789	0.250	7.510	 H	1	UNK0	0.000	
56	   H	3.561	-1.665	5.722	 H	1	UNK0	0.000	
57	   H	3.065	-1.370	7.478	 H	1	UNK0	0.000	
@<TRIPOS>BOND
1 1 2 1
2 2 3 2
3 2 7 1
4 3 4 1
5 3 19 1
6 4 5 2
7 5 6 1
8 5 8 1
9 6 7 2
10 8 9 1
11 8 13 1
12 9 10 1
13 10 11 1
14 10 17 1
15 11 12 1
16 11 16 1
17 12 13 1
18 12 15 1
19 13 14 1
20 17 18 1
21 19 20 2
22 19 21 1
23 21 22 2
24 21 26 1
25 22 23 1
26 23 24 2
27 24 25 1
28 24 27 1
29 25 26 2
30 27 28 1
31 28 29 1
32 28 32 1
33 29 30 1
34 30 31 1
35 31 32 1
36 4 33 1
37 6 34 1
38 7 35 1
39 8 36 1
40 10 37 1
41 11 38 1
42 12 39 1
43 13 40 1
44 14 41 1
45 15 42 1
46 16 43 1
47 17 44 1
48 17 45 1
49 18 46 1
50 22 47 1
51 23 48 1
52 25 49 1
53 26 50 1
54 28 51 1
55 29 52 1
56 29 53 1
57 31 54 1
58 31 55 1
59 32 56 1
60 32 57 1
@<TRIPOS>SUBSTRUCTURE
1	UNK0	1	GROUP	1 ****	UNK
