# created with PyMOL 2.3.2
@<TRIPOS>MOLECULE
1684
55 58 1                 
SMALL
USER_CHARGES
@<TRIPOS>ATOM
1	  Cl	1.661	0.430	-3.570	Cl	1	UNK0	0.000	
2	   C	1.619	1.708	-2.367	C.2	1	UNK0	0.000	
3	   C	0.822	2.798	-2.679	C.2	1	UNK0	0.000	
4	   C	0.732	3.883	-1.864	C.2	1	UNK0	0.000	
5	   C	1.466	3.898	-0.676	C.2	1	UNK0	0.000	
6	   C	2.244	2.828	-0.379	C.2	1	UNK0	0.000	
7	   C	2.355	1.680	-1.210	C.2	1	UNK0	0.000	
8	   N	2.982	0.533	-0.781	N.pl3	1	UNK0	0.000	
9	   C	3.590	-0.574	-0.366	C.2	1	UNK0	0.000	
10	   O	4.800	-0.513	0.187	O.2	1	UNK0	0.000	
11	   C	3.108	-2.017	-0.399	C.3	1	UNK0	0.000	
12	   N	1.714	-2.164	-0.693	N.pl3	1	UNK0	0.000	
13	   C	1.262	-2.484	-1.891	C.2	1	UNK0	0.000	
14	   O	2.061	-2.717	-2.841	O.2	1	UNK0	0.000	
15	   N	-0.072	-2.572	-2.122	N.pl3	1	UNK0	0.000	
16	   C	-0.941	-2.330	-1.117	C.2	1	UNK0	0.000	
17	   C	-0.550	-1.993	0.152	C.2	1	UNK0	0.000	
18	   C	0.830	-1.917	0.333	C.2	1	UNK0	0.000	
19	   O	1.363	-1.627	1.414	O.2	1	UNK0	0.000	
20	   N	-1.416	-1.736	1.228	N.pl3	1	UNK0	0.000	
21	   C	-0.808	-1.383	2.533	C.3	1	UNK0	0.000	
22	   C	-1.864	-1.252	3.617	C.3	1	UNK0	0.000	
23	   C	-2.996	-0.334	3.257	C.3	1	UNK0	0.000	
24	   C	-3.246	-0.356	1.752	C.3	1	UNK0	0.000	
25	   C	-2.828	-1.754	1.291	C.3	1	UNK0	0.000	
26	   N	-2.300	-2.423	-1.437	N.pl3	1	UNK0	0.000	
27	   C	-0.589	-2.937	-3.420	C.3	1	UNK0	0.000	
28	   O	1.300	5.050	0.089	O.3	1	UNK0	0.000	
29	   C	-0.000	5.621	0.258	C.3	1	UNK0	0.000	
30	   C	-0.750	5.603	-1.035	C.3	1	UNK0	0.000	
31	   O	-0.041	5.008	-2.106	O.3	1	UNK0	0.000	
32	   H	0.255	2.796	-3.609	 H	1	UNK0	0.000	
33	   H	2.805	2.861	0.551	 H	1	UNK0	0.000	
34	   H	4.088	1.294	-0.509	 H	1	UNK0	0.000	
35	   H	3.760	-2.504	-1.165	 H	1	UNK0	0.000	
36	   H	3.308	-2.413	0.630	 H	1	UNK0	0.000	
37	   H	-0.220	-0.466	2.440	 H	1	UNK0	0.000	
38	   H	-0.157	-2.205	2.885	 H	1	UNK0	0.000	
39	   H	-2.156	-2.245	3.972	 H	1	UNK0	0.000	
40	   H	-1.320	-0.762	4.476	 H	1	UNK0	0.000	
41	   H	-3.919	-0.743	3.758	 H	1	UNK0	0.000	
42	   H	-2.834	0.674	3.649	 H	1	UNK0	0.000	
43	   H	-2.518	0.374	1.339	 H	1	UNK0	0.000	
44	   H	-4.275	-0.104	1.536	 H	1	UNK0	0.000	
45	   H	-3.428	-2.138	0.497	 H	1	UNK0	0.000	
46	   H	-3.083	-2.427	2.182	 H	1	UNK0	0.000	
47	   H	-2.768	-3.348	-1.415	 H	1	UNK0	0.000	
48	   H	-2.880	-1.602	-1.713	 H	1	UNK0	0.000	
49	   H	-1.191	-3.871	-3.391	 H	1	UNK0	0.000	
50	   H	0.207	-3.029	-4.165	 H	1	UNK0	0.000	
51	   H	-1.328	-2.151	-3.764	 H	1	UNK0	0.000	
52	   H	0.084	6.679	0.622	 H	1	UNK0	0.000	
53	   H	-0.547	4.990	0.982	 H	1	UNK0	0.000	
54	   H	-1.691	4.985	-0.929	 H	1	UNK0	0.000	
55	   H	-1.088	6.629	-1.299	 H	1	UNK0	0.000	
@<TRIPOS>BOND
1 1 2 1
2 2 3 2
3 2 7 1
4 3 4 1
5 4 5 2
6 4 31 1
7 5 6 1
8 5 28 1
9 6 7 2
10 7 8 1
11 8 9 1
12 9 10 2
13 9 11 1
14 11 12 1
15 12 13 1
16 12 18 1
17 13 14 2
18 13 15 1
19 15 16 1
20 15 27 1
21 16 17 2
22 16 26 1
23 17 18 1
24 17 20 1
25 18 19 2
26 20 21 1
27 20 25 1
28 21 22 1
29 22 23 1
30 23 24 1
31 24 25 1
32 28 29 1
33 29 30 1
34 30 31 1
35 3 32 1
36 6 33 1
37 8 34 1
38 11 35 1
39 11 36 1
40 21 37 1
41 21 38 1
42 22 39 1
43 22 40 1
44 23 41 1
45 23 42 1
46 24 43 1
47 24 44 1
48 25 45 1
49 25 46 1
50 26 47 1
51 26 48 1
52 27 49 1
53 27 50 1
54 27 51 1
55 29 52 1
56 29 53 1
57 30 54 1
58 30 55 1
@<TRIPOS>SUBSTRUCTURE
1	UNK0	1	GROUP	1 ****	UNK
