# created with PyMOL 2.3.2
@<TRIPOS>MOLECULE
1685
46 49 1                 
SMALL
USER_CHARGES
@<TRIPOS>ATOM
1	  Cl	0.369	6.283	4.242	Cl	1	UNK0	0.000	
2	   C	-0.605	4.992	3.547	C.2	1	UNK0	0.000	
3	   C	-0.625	3.721	4.119	C.2	1	UNK0	0.000	
4	   C	-1.382	2.704	3.584	C.2	1	UNK0	0.000	
5	   N	-1.581	1.429	3.919	N.2	1	UNK0	0.000	
6	   C	-2.443	0.847	3.039	C.2	1	UNK0	0.000	
7	   N	-2.758	1.814	2.162	N.pl3	1	UNK0	0.000	
8	   C	-2.132	2.964	2.458	C.2	1	UNK0	0.000	
9	   C	-2.125	4.220	1.876	C.2	1	UNK0	0.000	
10	   C	-1.361	5.245	2.416	C.2	1	UNK0	0.000	
11	   C	-2.911	-0.582	3.086	C.3	1	UNK0	0.000	
12	   N	-2.061	-1.423	2.302	N.3	1	UNK0	0.000	
13	   C	-0.722	-1.340	2.810	C.3	1	UNK0	0.000	
14	   C	0.136	-2.301	2.070	C.3	1	UNK0	0.000	
15	   N	0.193	-2.031	0.639	N.3	1	UNK0	0.000	
16	   C	-1.158	-2.022	0.087	C.3	1	UNK0	0.000	
17	   C	-2.065	-1.144	0.912	C.3	1	UNK0	0.000	
18	   C	0.884	-0.808	0.397	C.3	1	UNK0	0.000	
19	   C	1.282	-0.500	-0.960	C.2	1	UNK0	0.000	
20	   O	1.848	0.636	-1.161	O.2	1	UNK0	0.000	
21	   N	1.125	-1.304	-2.097	N.pl3	1	UNK0	0.000	
22	   C	1.551	-0.908	-3.424	C.3	1	UNK0	0.000	
23	   C	0.817	-1.397	-4.621	C.3	1	UNK0	0.000	
24	   C	2.230	-1.896	-4.305	C.3	1	UNK0	0.000	
25	   H	-0.010	3.585	5.005	 H	1	UNK0	0.000	
26	   H	-3.413	1.669	1.353	 H	1	UNK0	0.000	
27	   H	-2.718	4.437	0.981	 H	1	UNK0	0.000	
28	   H	-1.352	6.232	1.962	 H	1	UNK0	0.000	
29	   H	-3.980	-0.659	2.813	 H	1	UNK0	0.000	
30	   H	-2.835	-0.915	4.147	 H	1	UNK0	0.000	
31	   H	-0.744	-1.631	3.888	 H	1	UNK0	0.000	
32	   H	-0.329	-0.317	2.671	 H	1	UNK0	0.000	
33	   H	-0.211	-3.365	2.192	 H	1	UNK0	0.000	
34	   H	1.179	-2.271	2.452	 H	1	UNK0	0.000	
35	   H	-1.233	-1.728	-0.953	 H	1	UNK0	0.000	
36	   H	-1.541	-3.059	0.191	 H	1	UNK0	0.000	
37	   H	-3.126	-1.253	0.542	 H	1	UNK0	0.000	
38	   H	-1.815	-0.078	0.738	 H	1	UNK0	0.000	
39	   H	1.750	-0.778	1.104	 H	1	UNK0	0.000	
40	   H	0.215	0.027	0.769	 H	1	UNK0	0.000	
41	   H	0.703	-2.244	-2.014	 H	1	UNK0	0.000	
42	   H	2.006	0.112	-3.453	 H	1	UNK0	0.000	
43	   H	0.021	-2.141	-4.505	 H	1	UNK0	0.000	
44	   H	0.711	-0.712	-5.495	 H	1	UNK0	0.000	
45	   H	2.361	-2.947	-3.987	 H	1	UNK0	0.000	
46	   H	3.051	-1.550	-4.979	 H	1	UNK0	0.000	
@<TRIPOS>BOND
1 1 2 1
2 2 3 2
3 2 10 1
4 3 4 1
5 4 5 1
6 4 8 2
7 5 6 2
8 6 7 1
9 6 11 1
10 7 8 1
11 8 9 1
12 9 10 2
13 11 12 1
14 12 13 1
15 12 17 1
16 13 14 1
17 14 15 1
18 15 16 1
19 15 18 1
20 16 17 1
21 18 19 1
22 19 20 2
23 19 21 1
24 21 22 1
25 22 23 1
26 22 24 1
27 23 24 1
28 3 25 1
29 7 26 1
30 9 27 1
31 10 28 1
32 11 29 1
33 11 30 1
34 13 31 1
35 13 32 1
36 14 33 1
37 14 34 1
38 16 35 1
39 16 36 1
40 17 37 1
41 17 38 1
42 18 39 1
43 18 40 1
44 21 41 1
45 22 42 1
46 23 43 1
47 23 44 1
48 24 45 1
49 24 46 1
@<TRIPOS>SUBSTRUCTURE
1	UNK0	1	GROUP	1 ****	UNK
