# created with PyMOL 2.3.2
@<TRIPOS>MOLECULE
1686
49 52 1                 
SMALL
USER_CHARGES
@<TRIPOS>ATOM
1	  Cl	5.997	0.089	5.270	Cl	1	UNK0	0.000	
2	   C	4.645	0.183	4.133	C.2	1	UNK0	0.000	
3	   C	3.935	1.351	3.956	C.2	1	UNK0	0.000	
4	   C	2.882	1.404	3.062	C.2	1	UNK0	0.000	
5	   N	2.179	2.563	2.896	N.2	1	UNK0	0.000	
6	   C	1.153	2.621	2.033	C.2	1	UNK0	0.000	
7	   C	0.766	1.531	1.287	C.2	1	UNK0	0.000	
8	   C	1.452	0.330	1.423	C.2	1	UNK0	0.000	
9	   C	2.509	0.294	2.321	C.2	1	UNK0	0.000	
10	   C	3.216	-0.878	2.494	C.2	1	UNK0	0.000	
11	   C	4.260	-0.911	3.387	C.2	1	UNK0	0.000	
12	   N	1.130	-0.818	0.691	N.pl3	1	UNK0	0.000	
13	   C	1.962	-1.473	-0.301	C.3	1	UNK0	0.000	
14	   C	1.287	-1.431	-1.678	C.3	1	UNK0	0.000	
15	   N	-0.145	-1.566	-1.600	N.3	1	UNK0	0.000	
16	   C	-0.543	-2.220	-0.430	C.3	1	UNK0	0.000	
17	   C	-0.168	-1.495	0.875	C.3	1	UNK0	0.000	
18	   C	-0.761	-0.400	-2.056	C.3	1	UNK0	0.000	
19	   C	-2.209	-0.310	-2.083	C.2	1	UNK0	0.000	
20	   O	-2.917	-1.265	-1.702	O.2	1	UNK0	0.000	
21	   N	-2.875	0.836	-2.532	N.pl3	1	UNK0	0.000	
22	   C	-2.113	1.970	-2.988	C.3	1	UNK0	0.000	
23	   C	-2.558	3.189	-2.211	C.3	1	UNK0	0.000	
24	   O	-3.742	3.027	-1.540	O.3	1	UNK0	0.000	
25	   C	-4.721	2.344	-2.254	C.3	1	UNK0	0.000	
26	   C	-4.310	0.918	-2.551	C.3	1	UNK0	0.000	
27	   H	4.211	2.224	4.524	 H	1	UNK0	0.000	
28	   H	0.596	3.556	1.907	 H	1	UNK0	0.000	
29	   H	-0.053	1.550	0.589	 H	1	UNK0	0.000	
30	   H	2.911	-1.733	1.915	 H	1	UNK0	0.000	
31	   H	4.802	-1.859	3.500	 H	1	UNK0	0.000	
32	   H	2.953	-1.036	-0.409	 H	1	UNK0	0.000	
33	   H	1.987	-2.584	-0.082	 H	1	UNK0	0.000	
34	   H	1.568	-0.500	-2.203	 H	1	UNK0	0.000	
35	   H	1.653	-2.276	-2.314	 H	1	UNK0	0.000	
36	   H	0.068	-3.177	-0.373	 H	1	UNK0	0.000	
37	   H	-1.571	-2.583	-0.361	 H	1	UNK0	0.000	
38	   H	0.011	-2.222	1.695	 H	1	UNK0	0.000	
39	   H	-0.948	-0.810	1.206	 H	1	UNK0	0.000	
40	   H	-0.354	0.530	-1.552	 H	1	UNK0	0.000	
41	   H	-0.416	-0.246	-3.128	 H	1	UNK0	0.000	
42	   H	-2.368	2.114	-4.075	 H	1	UNK0	0.000	
43	   H	-1.019	1.818	-2.974	 H	1	UNK0	0.000	
44	   H	-1.761	3.397	-1.452	 H	1	UNK0	0.000	
45	   H	-2.640	4.080	-2.857	 H	1	UNK0	0.000	
46	   H	-4.888	2.886	-3.194	 H	1	UNK0	0.000	
47	   H	-5.621	2.303	-1.605	 H	1	UNK0	0.000	
48	   H	-4.769	0.194	-1.866	 H	1	UNK0	0.000	
49	   H	-4.630	0.676	-3.606	 H	1	UNK0	0.000	
@<TRIPOS>BOND
1 1 2 1
2 2 3 2
3 2 11 1
4 3 4 1
5 4 5 2
6 4 9 1
7 5 6 1
8 6 7 2
9 7 8 1
10 8 9 2
11 8 12 1
12 9 10 1
13 10 11 2
14 12 13 1
15 12 17 1
16 13 14 1
17 14 15 1
18 15 16 1
19 15 18 1
20 16 17 1
21 18 19 1
22 19 20 2
23 19 21 1
24 21 22 1
25 21 26 1
26 22 23 1
27 23 24 1
28 24 25 1
29 25 26 1
30 3 27 1
31 6 28 1
32 7 29 1
33 10 30 1
34 11 31 1
35 13 32 1
36 13 33 1
37 14 34 1
38 14 35 1
39 16 36 1
40 16 37 1
41 17 38 1
42 17 39 1
43 18 40 1
44 18 41 1
45 22 42 1
46 22 43 1
47 23 44 1
48 23 45 1
49 25 46 1
50 25 47 1
51 26 48 1
52 26 49 1
@<TRIPOS>SUBSTRUCTURE
1	UNK0	1	GROUP	1 ****	UNK
