# created with PyMOL 2.3.2
@<TRIPOS>MOLECULE
1688
55 58 1                 
SMALL
USER_CHARGES
@<TRIPOS>ATOM
1	  Cl	1.956	-5.575	-5.331	Cl	1	UNK0	0.000	
2	   C	0.714	-4.672	-4.474	C.2	1	UNK0	0.000	
3	   C	0.730	-4.623	-3.099	C.2	1	UNK0	0.000	
4	   C	-0.252	-3.909	-2.430	C.2	1	UNK0	0.000	
5	   N	-0.457	-3.710	-1.122	N.pl3	1	UNK0	0.000	
6	   C	-1.538	-2.948	-0.938	C.2	1	UNK0	0.000	
7	   N	-2.014	-2.668	-2.166	N.2	1	UNK0	0.000	
8	   C	-1.244	-3.246	-3.110	C.2	1	UNK0	0.000	
9	   C	-1.250	-3.301	-4.485	C.2	1	UNK0	0.000	
10	   C	-0.280	-4.007	-5.148	C.2	1	UNK0	0.000	
11	   C	-2.135	-2.474	0.330	C.3	1	UNK0	0.000	
12	   C	-1.528	-1.120	0.734	C.3	1	UNK0	0.000	
13	   C	-2.105	-0.627	1.996	C.2	1	UNK0	0.000	
14	   O	-3.053	-1.363	2.462	O.2	1	UNK0	0.000	
15	   N	-1.762	0.511	2.726	N.pl3	1	UNK0	0.000	
16	   C	-0.727	1.459	2.445	C.3	1	UNK0	0.000	
17	   C	0.673	0.941	2.562	C.3	1	UNK0	0.000	
18	   C	1.295	1.123	1.205	C.3	1	UNK0	0.000	
19	   C	0.331	1.752	0.303	C.3	1	UNK0	0.000	
20	   C	-0.894	2.107	1.120	C.3	1	UNK0	0.000	
21	   N	2.566	1.762	1.345	N.3	1	UNK0	0.000	
22	   C	3.483	0.963	2.097	C.3	1	UNK0	0.000	
23	   C	4.256	-0.038	1.315	C.3	1	UNK0	0.000	
24	   N	4.087	0.022	-0.096	N.pl3	1	UNK0	0.000	
25	   C	3.606	1.192	-0.712	C.2	1	UNK0	0.000	
26	   O	3.567	1.261	-1.953	O.2	1	UNK0	0.000	
27	   C	3.164	2.297	0.178	C.3	1	UNK0	0.000	
28	   O	0.675	-0.401	2.961	O.3	1	UNK0	0.000	
29	   C	-2.572	0.771	3.944	C.3	1	UNK0	0.000	
30	   H	1.483	-5.125	-2.535	 H	1	UNK0	0.000	
31	   H	0.126	-4.084	-0.346	 H	1	UNK0	0.000	
32	   H	-2.027	-2.782	-5.011	 H	1	UNK0	0.000	
33	   H	-0.283	-4.052	-6.227	 H	1	UNK0	0.000	
34	   H	-3.236	-2.417	0.269	 H	1	UNK0	0.000	
35	   H	-1.899	-3.218	1.129	 H	1	UNK0	0.000	
36	   H	-1.841	-0.439	-0.119	 H	1	UNK0	0.000	
37	   H	-0.452	-1.184	0.672	 H	1	UNK0	0.000	
38	   H	-0.779	2.286	3.230	 H	1	UNK0	0.000	
39	   H	1.246	1.526	3.339	 H	1	UNK0	0.000	
40	   H	1.535	0.080	0.829	 H	1	UNK0	0.000	
41	   H	0.659	2.695	-0.179	 H	1	UNK0	0.000	
42	   H	0.004	1.015	-0.486	 H	1	UNK0	0.000	
43	   H	-0.993	3.229	1.222	 H	1	UNK0	0.000	
44	   H	-1.849	1.810	0.638	 H	1	UNK0	0.000	
45	   H	2.918	0.460	2.909	 H	1	UNK0	0.000	
46	   H	4.203	1.649	2.600	 H	1	UNK0	0.000	
47	   H	3.994	-1.067	1.654	 H	1	UNK0	0.000	
48	   H	5.364	0.052	1.518	 H	1	UNK0	0.000	
49	   H	4.340	-0.849	-0.649	 H	1	UNK0	0.000	
50	   H	2.637	3.068	-0.363	 H	1	UNK0	0.000	
51	   H	4.126	2.787	0.522	 H	1	UNK0	0.000	
52	   H	-0.112	-0.647	3.497	 H	1	UNK0	0.000	
53	   H	-1.890	1.117	4.737	 H	1	UNK0	0.000	
54	   H	-3.241	1.630	3.694	 H	1	UNK0	0.000	
55	   H	-3.137	-0.106	4.254	 H	1	UNK0	0.000	
@<TRIPOS>BOND
1 1 2 1
2 2 3 2
3 2 10 1
4 3 4 1
5 4 5 1
6 4 8 2
7 5 6 1
8 6 7 2
9 6 11 1
10 7 8 1
11 8 9 1
12 9 10 2
13 11 12 1
14 12 13 1
15 13 14 2
16 13 15 1
17 15 16 1
18 15 29 1
19 16 17 1
20 16 20 1
21 17 18 1
22 17 28 1
23 18 19 1
24 18 21 1
25 19 20 1
26 21 22 1
27 21 27 1
28 22 23 1
29 23 24 1
30 24 25 1
31 25 26 2
32 25 27 1
33 3 30 1
34 5 31 1
35 9 32 1
36 10 33 1
37 11 34 1
38 11 35 1
39 12 36 1
40 12 37 1
41 16 38 1
42 17 39 1
43 18 40 1
44 19 41 1
45 19 42 1
46 20 43 1
47 20 44 1
48 22 45 1
49 22 46 1
50 23 47 1
51 23 48 1
52 24 49 1
53 27 50 1
54 27 51 1
55 28 52 1
56 29 53 1
57 29 54 1
58 29 55 1
@<TRIPOS>SUBSTRUCTURE
1	UNK0	1	GROUP	1 ****	UNK
