# created with PyMOL 2.3.2
@<TRIPOS>MOLECULE
1690
55 58 1                 
SMALL
USER_CHARGES
@<TRIPOS>ATOM
1	  Cl	1.848	6.114	2.705	Cl	1	UNK0	0.000	
2	   C	2.150	4.401	2.526	C.2	1	UNK0	0.000	
3	   C	2.574	3.844	1.332	C.2	1	UNK0	0.000	
4	   C	2.809	2.496	1.201	C.2	1	UNK0	0.000	
5	   N	3.214	1.727	0.182	N.pl3	1	UNK0	0.000	
6	   C	3.293	0.424	0.568	C.2	1	UNK0	0.000	
7	   N	2.927	0.424	1.841	N.2	1	UNK0	0.000	
8	   C	2.624	1.653	2.269	C.2	1	UNK0	0.000	
9	   C	2.202	2.183	3.468	C.2	1	UNK0	0.000	
10	   C	1.966	3.546	3.598	C.2	1	UNK0	0.000	
11	   C	3.721	-0.692	-0.309	C.3	1	UNK0	0.000	
12	   C	2.518	-1.240	-1.021	C.3	1	UNK0	0.000	
13	   C	1.561	-1.769	-0.034	C.2	1	UNK0	0.000	
14	   O	1.876	-1.862	1.180	O.2	1	UNK0	0.000	
15	   N	0.271	-2.175	-0.489	N.pl3	1	UNK0	0.000	
16	   C	-0.160	-2.098	-1.867	C.3	1	UNK0	0.000	
17	   C	-1.646	-1.707	-1.942	C.3	1	UNK0	0.000	
18	   C	-1.942	-0.940	-0.699	C.3	1	UNK0	0.000	
19	   C	-1.956	-1.887	0.479	C.3	1	UNK0	0.000	
20	   C	-0.676	-2.697	0.473	C.3	1	UNK0	0.000	
21	   N	-3.072	-0.081	-0.748	N.pl3	1	UNK0	0.000	
22	   C	-4.090	-0.238	-1.607	C.2	1	UNK0	0.000	
23	   C	-5.180	0.623	-1.626	C.2	1	UNK0	0.000	
24	   C	-5.219	1.671	-0.736	C.2	1	UNK0	0.000	
25	   O	-6.214	2.461	-0.749	O.2	1	UNK0	0.000	
26	   N	-4.200	1.826	0.121	N.pl3	1	UNK0	0.000	
27	   C	-3.168	0.965	0.100	C.2	1	UNK0	0.000	
28	   O	-2.196	1.117	0.921	O.2	1	UNK0	0.000	
29	   C	-6.292	0.395	-2.612	C.3	1	UNK0	0.000	
30	   O	-1.759	-0.919	-3.097	O.3	1	UNK0	0.000	
31	   C	-2.421	-2.975	-2.114	C.3	1	UNK0	0.000	
32	   H	2.710	4.534	0.510	 H	1	UNK0	0.000	
33	   H	3.448	2.052	-0.796	 H	1	UNK0	0.000	
34	   H	2.063	1.508	4.293	 H	1	UNK0	0.000	
35	   H	1.636	3.922	4.554	 H	1	UNK0	0.000	
36	   H	4.124	-1.528	0.319	 H	1	UNK0	0.000	
37	   H	4.463	-0.363	-1.066	 H	1	UNK0	0.000	
38	   H	2.044	-0.435	-1.639	 H	1	UNK0	0.000	
39	   H	2.819	-2.010	-1.773	 H	1	UNK0	0.000	
40	   H	0.461	-1.424	-2.454	 H	1	UNK0	0.000	
41	   H	-0.011	-3.133	-2.296	 H	1	UNK0	0.000	
42	   H	-1.045	-0.272	-0.524	 H	1	UNK0	0.000	
43	   H	-1.946	-1.321	1.451	 H	1	UNK0	0.000	
44	   H	-2.851	-2.526	0.524	 H	1	UNK0	0.000	
45	   H	-0.215	-2.763	1.478	 H	1	UNK0	0.000	
46	   H	-0.938	-3.738	0.121	 H	1	UNK0	0.000	
47	   H	-4.038	-1.062	-2.291	 H	1	UNK0	0.000	
48	   H	-4.218	2.615	0.800	 H	1	UNK0	0.000	
49	   H	-6.714	1.412	-2.852	 H	1	UNK0	0.000	
50	   H	-5.817	0.034	-3.537	 H	1	UNK0	0.000	
51	   H	-7.068	-0.256	-2.203	 H	1	UNK0	0.000	
52	   H	-1.967	-1.520	-3.882	 H	1	UNK0	0.000	
53	   H	-1.763	-3.893	-2.125	 H	1	UNK0	0.000	
54	   H	-2.925	-3.014	-3.124	 H	1	UNK0	0.000	
55	   H	-3.204	-3.156	-1.381	 H	1	UNK0	0.000	
@<TRIPOS>BOND
1 1 2 1
2 2 3 2
3 2 10 1
4 3 4 1
5 4 5 1
6 4 8 2
7 5 6 1
8 6 7 2
9 6 11 1
10 7 8 1
11 8 9 1
12 9 10 2
13 11 12 1
14 12 13 1
15 13 14 2
16 13 15 1
17 15 16 1
18 15 20 1
19 16 17 1
20 17 18 1
21 17 30 1
22 17 31 1
23 18 19 1
24 18 21 1
25 19 20 1
26 21 22 1
27 21 27 1
28 22 23 2
29 23 24 1
30 23 29 1
31 24 25 2
32 24 26 1
33 26 27 1
34 27 28 2
35 3 32 1
36 5 33 1
37 9 34 1
38 10 35 1
39 11 36 1
40 11 37 1
41 12 38 1
42 12 39 1
43 16 40 1
44 16 41 1
45 18 42 1
46 19 43 1
47 19 44 1
48 20 45 1
49 20 46 1
50 22 47 1
51 26 48 1
52 29 49 1
53 29 50 1
54 29 51 1
55 30 52 1
56 31 53 1
57 31 54 1
58 31 55 1
@<TRIPOS>SUBSTRUCTURE
1	UNK0	1	GROUP	1 ****	UNK
