# created with PyMOL 2.3.2
@<TRIPOS>MOLECULE
1691
55 59 1                 
SMALL
USER_CHARGES
@<TRIPOS>ATOM
1	  Cl	7.077	6.885	-2.654	Cl	1	UNK0	0.000	
2	   C	5.980	5.520	-2.482	C.2	1	UNK0	0.000	
3	   C	4.668	5.592	-2.888	C.2	1	UNK0	0.000	
4	   C	3.830	4.487	-2.734	C.2	1	UNK0	0.000	
5	   N	2.539	4.260	-3.028	N.pl3	1	UNK0	0.000	
6	   C	2.180	3.011	-2.683	C.2	1	UNK0	0.000	
7	   N	3.271	2.448	-2.163	N.2	1	UNK0	0.000	
8	   C	4.302	3.318	-2.177	C.2	1	UNK0	0.000	
9	   C	5.617	3.247	-1.769	C.2	1	UNK0	0.000	
10	   C	6.444	4.359	-1.929	C.2	1	UNK0	0.000	
11	   C	0.808	2.436	-2.874	C.3	1	UNK0	0.000	
12	   C	0.797	1.012	-2.365	C.3	1	UNK0	0.000	
13	   C	-0.536	0.414	-2.537	C.2	1	UNK0	0.000	
14	   O	-1.449	1.092	-3.046	O.2	1	UNK0	0.000	
15	   N	-0.781	-0.908	-2.132	N.pl3	1	UNK0	0.000	
16	   C	-1.961	-1.712	-2.174	C.3	1	UNK0	0.000	
17	   C	-1.962	-2.467	-0.823	C.3	1	UNK0	0.000	
18	   C	-0.498	-2.660	-0.642	C.3	1	UNK0	0.000	
19	   C	0.248	-1.760	-1.568	C.3	1	UNK0	0.000	
20	   O	-0.075	-3.961	-0.912	O.3	1	UNK0	0.000	
21	   N	-2.579	-1.632	0.168	N.pl3	1	UNK0	0.000	
22	   C	-2.849	-1.929	1.450	C.2	1	UNK0	0.000	
23	   C	-3.457	-0.809	2.053	C.2	1	UNK0	0.000	
24	   N	-3.532	0.131	1.097	N.2	1	UNK0	0.000	
25	   C	-3.013	-0.343	-0.033	C.2	1	UNK0	0.000	
26	   C	-3.844	-0.831	3.374	C.2	1	UNK0	0.000	
27	   O	-4.385	0.186	3.885	O.2	1	UNK0	0.000	
28	   N	-3.621	-1.953	4.068	N.pl3	1	UNK0	0.000	
29	   C	-3.045	-3.008	3.490	C.2	1	UNK0	0.000	
30	   O	-2.843	-4.057	4.157	O.2	1	UNK0	0.000	
31	   N	-2.642	-3.041	2.183	N.pl3	1	UNK0	0.000	
32	   C	-2.032	-4.208	1.629	C.3	1	UNK0	0.000	
33	   C	-4.021	-2.007	5.476	C.3	1	UNK0	0.000	
34	   H	4.281	6.496	-3.326	 H	1	UNK0	0.000	
35	   H	1.917	4.989	-3.470	 H	1	UNK0	0.000	
36	   H	6.013	2.345	-1.330	 H	1	UNK0	0.000	
37	   H	7.484	4.309	-1.609	 H	1	UNK0	0.000	
38	   H	0.573	2.477	-3.953	 H	1	UNK0	0.000	
39	   H	0.052	3.039	-2.330	 H	1	UNK0	0.000	
40	   H	1.170	0.969	-1.332	 H	1	UNK0	0.000	
41	   H	1.571	0.468	-2.982	 H	1	UNK0	0.000	
42	   H	-1.773	-2.474	-2.992	 H	1	UNK0	0.000	
43	   H	-2.896	-1.233	-2.404	 H	1	UNK0	0.000	
44	   H	-2.539	-3.372	-1.101	 H	1	UNK0	0.000	
45	   H	-0.208	-2.330	0.399	 H	1	UNK0	0.000	
46	   H	1.044	-1.171	-1.067	 H	1	UNK0	0.000	
47	   H	0.730	-2.364	-2.392	 H	1	UNK0	0.000	
48	   H	-0.808	-4.511	-1.308	 H	1	UNK0	0.000	
49	   H	-2.930	0.164	-0.971	 H	1	UNK0	0.000	
50	   H	-0.924	-4.220	1.669	 H	1	UNK0	0.000	
51	   H	-2.270	-5.042	2.391	 H	1	UNK0	0.000	
52	   H	-2.487	-4.628	0.728	 H	1	UNK0	0.000	
53	   H	-3.120	-2.036	6.129	 H	1	UNK0	0.000	
54	   H	-4.640	-1.126	5.725	 H	1	UNK0	0.000	
55	   H	-4.570	-2.952	5.652	 H	1	UNK0	0.000	
@<TRIPOS>BOND
1 1 2 1
2 2 3 2
3 2 10 1
4 3 4 1
5 4 5 1
6 4 8 2
7 5 6 1
8 6 7 2
9 6 11 1
10 7 8 1
11 8 9 1
12 9 10 2
13 11 12 1
14 12 13 1
15 13 14 2
16 13 15 1
17 15 16 1
18 15 19 1
19 16 17 1
20 17 18 1
21 17 21 1
22 18 19 1
23 18 20 1
24 21 22 1
25 21 25 1
26 22 23 2
27 22 31 1
28 23 24 1
29 23 26 1
30 24 25 2
31 26 27 2
32 26 28 1
33 28 29 1
34 28 33 1
35 29 30 2
36 29 31 1
37 31 32 1
38 3 34 1
39 5 35 1
40 9 36 1
41 10 37 1
42 11 38 1
43 11 39 1
44 12 40 1
45 12 41 1
46 16 42 1
47 16 43 1
48 17 44 1
49 18 45 1
50 19 46 1
51 19 47 1
52 20 48 1
53 25 49 1
54 32 50 1
55 32 51 1
56 32 52 1
57 33 53 1
58 33 54 1
59 33 55 1
@<TRIPOS>SUBSTRUCTURE
1	UNK0	1	GROUP	1 ****	UNK
