# created with PyMOL 2.3.2
@<TRIPOS>MOLECULE
1696
39 42 1                 
SMALL
USER_CHARGES
@<TRIPOS>ATOM
1	  Cl	-1.426	-3.956	-2.160	Cl	1	UNK0	0.000	
2	   C	-1.339	-2.234	-2.440	C.2	1	UNK0	0.000	
3	   C	-2.167	-1.521	-3.309	C.2	1	UNK0	0.000	
4	   N	-1.769	-0.248	-3.226	N.pl3	1	UNK0	0.000	
5	   N	-0.779	-0.137	-2.385	N.2	1	UNK0	0.000	
6	   C	-0.453	-1.320	-1.857	C.2	1	UNK0	0.000	
7	   C	0.553	-1.714	-0.898	C.2	1	UNK0	0.000	
8	   O	0.643	-2.966	-0.559	O.2	1	UNK0	0.000	
9	   N	1.486	-0.889	-0.256	N.pl3	1	UNK0	0.000	
10	   C	2.435	-1.426	0.687	C.3	1	UNK0	0.000	
11	   C	2.954	-0.399	1.650	C.3	1	UNK0	0.000	
12	   C	1.942	0.694	1.893	C.2	1	UNK0	0.000	
13	   C	1.231	1.161	0.820	C.2	1	UNK0	0.000	
14	   C	1.537	0.520	-0.509	C.3	1	UNK0	0.000	
15	   C	0.300	2.151	0.970	C.2	1	UNK0	0.000	
16	   O	-0.342	2.567	-0.019	O.2	1	UNK0	0.000	
17	   N	0.120	2.642	2.229	N.pl3	1	UNK0	0.000	
18	   N	-0.691	3.579	2.661	N.pl3	1	UNK0	0.000	
19	   C	-0.556	3.766	3.994	C.2	1	UNK0	0.000	
20	   C	0.407	2.883	4.420	C.2	1	UNK0	0.000	
21	   C	0.823	2.179	3.281	C.2	1	UNK0	0.000	
22	   N	1.738	1.200	3.108	N.2	1	UNK0	0.000	
23	   C	-2.376	0.839	-3.980	C.3	1	UNK0	0.000	
24	   C	-1.650	0.985	-5.302	C.3	1	UNK0	0.000	
25	   H	-2.948	-1.932	-3.905	 H	1	UNK0	0.000	
26	   H	3.290	-1.855	0.107	 H	1	UNK0	0.000	
27	   H	2.000	-2.254	1.300	 H	1	UNK0	0.000	
28	   H	3.861	0.084	1.230	 H	1	UNK0	0.000	
29	   H	3.173	-0.845	2.625	 H	1	UNK0	0.000	
30	   H	0.912	0.910	-1.300	 H	1	UNK0	0.000	
31	   H	2.631	0.799	-0.675	 H	1	UNK0	0.000	
32	   H	-1.356	4.104	2.023	 H	1	UNK0	0.000	
33	   H	-1.122	4.493	4.597	 H	1	UNK0	0.000	
34	   H	0.780	2.744	5.416	 H	1	UNK0	0.000	
35	   H	-3.435	0.598	-4.208	 H	1	UNK0	0.000	
36	   H	-2.343	1.775	-3.408	 H	1	UNK0	0.000	
37	   H	-2.363	0.992	-6.154	 H	1	UNK0	0.000	
38	   H	-0.968	0.125	-5.447	 H	1	UNK0	0.000	
39	   H	-1.018	1.891	-5.268	 H	1	UNK0	0.000	
@<TRIPOS>BOND
1 1 2 1
2 2 3 2
3 2 6 1
4 3 4 1
5 4 5 1
6 4 23 1
7 5 6 2
8 6 7 1
9 7 8 2
10 7 9 1
11 9 10 1
12 9 14 1
13 10 11 1
14 11 12 1
15 12 13 2
16 12 22 1
17 13 14 1
18 13 15 1
19 15 16 2
20 15 17 1
21 17 18 1
22 17 21 1
23 18 19 1
24 19 20 2
25 20 21 1
26 21 22 2
27 23 24 1
28 3 25 1
29 10 26 1
30 10 27 1
31 11 28 1
32 11 29 1
33 14 30 1
34 14 31 1
35 18 32 1
36 19 33 1
37 20 34 1
38 23 35 1
39 23 36 1
40 24 37 1
41 24 38 1
42 24 39 1
@<TRIPOS>SUBSTRUCTURE
1	UNK0	1	GROUP	1 ****	UNK
