# created with PyMOL 2.3.2
@<TRIPOS>MOLECULE
1697
54 57 1                 
SMALL
USER_CHARGES
@<TRIPOS>ATOM
1	  Cl	2.016	-2.863	4.373	Cl	1	UNK0	0.000	
2	   C	2.320	-1.992	2.884	C.2	1	UNK0	0.000	
3	   C	2.540	-2.692	1.702	C.2	1	UNK0	0.000	
4	   C	2.747	-2.013	0.538	C.2	1	UNK0	0.000	
5	   C	2.730	-0.637	0.546	C.2	1	UNK0	0.000	
6	   C	2.500	0.095	1.735	C.2	1	UNK0	0.000	
7	   C	2.311	-0.601	2.879	C.2	1	UNK0	0.000	
8	   O	2.102	0.064	4.111	O.3	1	UNK0	0.000	
9	   C	2.415	1.581	1.620	C.3	1	UNK0	0.000	
10	   N	0.991	1.934	1.993	N.4	1	UNK0	0.000	
11	   C	0.209	0.761	1.871	C.3	1	UNK0	0.000	
12	   C	-1.170	0.815	1.260	C.3	1	UNK0	0.000	
13	   N	-2.149	1.514	1.973	N.4	1	UNK0	0.000	
14	   C	-1.894	1.676	3.380	C.3	1	UNK0	0.000	
15	   C	-3.233	2.047	4.035	C.3	1	UNK0	0.000	
16	   O	-4.178	2.414	3.085	O.3	1	UNK0	0.000	
17	   C	-3.584	3.410	2.274	C.3	1	UNK0	0.000	
18	   C	-2.667	2.685	1.310	C.3	1	UNK0	0.000	
19	   O	2.909	0.056	-0.542	O.3	1	UNK0	0.000	
20	   C	3.106	-0.560	-1.713	C.2	1	UNK0	0.000	
21	   O	3.284	0.117	-2.743	O.co2	1	UNK0	0.000	
22	   C	3.124	-1.923	-1.785	C.2	1	UNK0	0.000	
23	   C	2.945	-2.711	-0.653	C.2	1	UNK0	0.000	
24	   C	2.849	-4.193	-0.736	C.3	1	UNK0	0.000	
25	   C	2.319	-4.668	-2.075	C.3	1	UNK0	0.000	
26	   C	2.046	-3.587	-3.071	C.3	1	UNK0	0.000	
27	   C	3.263	-2.639	-3.080	C.3	1	UNK0	0.000	
28	   H	2.546	-3.743	1.740	 H	1	UNK0	0.000	
29	   H	2.178	1.097	4.069	 H	1	UNK0	0.000	
30	   H	2.735	1.963	0.679	 H	1	UNK0	0.000	
31	   H	3.038	1.995	2.446	 H	1	UNK0	0.000	
32	   H	1.005	2.537	2.769	 H	1	UNK0	0.000	
33	   H	0.756	2.566	1.119	 H	1	UNK0	0.000	
34	   H	0.069	0.233	2.853	 H	1	UNK0	0.000	
35	   H	0.737	0.045	1.212	 H	1	UNK0	0.000	
36	   H	-1.095	1.146	0.205	 H	1	UNK0	0.000	
37	   H	-1.449	-0.290	1.157	 H	1	UNK0	0.000	
38	   H	-3.026	0.853	1.984	 H	1	UNK0	0.000	
39	   H	-1.158	2.398	3.666	 H	1	UNK0	0.000	
40	   H	-1.655	0.678	3.780	 H	1	UNK0	0.000	
41	   H	-3.097	2.920	4.707	 H	1	UNK0	0.000	
42	   H	-3.652	1.212	4.631	 H	1	UNK0	0.000	
43	   H	-2.947	4.026	2.914	 H	1	UNK0	0.000	
44	   H	-4.362	3.969	1.718	 H	1	UNK0	0.000	
45	   H	-1.910	3.302	0.839	 H	1	UNK0	0.000	
46	   H	-3.309	2.302	0.455	 H	1	UNK0	0.000	
47	   H	3.774	-4.700	-0.475	 H	1	UNK0	0.000	
48	   H	2.068	-4.558	0.020	 H	1	UNK0	0.000	
49	   H	2.995	-5.425	-2.508	 H	1	UNK0	0.000	
50	   H	1.305	-5.178	-1.914	 H	1	UNK0	0.000	
51	   H	1.890	-4.025	-4.060	 H	1	UNK0	0.000	
52	   H	1.194	-2.947	-2.731	 H	1	UNK0	0.000	
53	   H	4.153	-3.277	-3.133	 H	1	UNK0	0.000	
54	   H	3.211	-1.943	-3.912	 H	1	UNK0	0.000	
@<TRIPOS>BOND
1 1 2 1
2 2 3 2
3 2 7 1
4 3 4 1
5 4 5 2
6 4 23 1
7 5 6 1
8 5 19 1
9 6 7 2
10 6 9 1
11 7 8 1
12 9 10 1
13 10 11 1
14 11 12 1
15 12 13 1
16 13 14 1
17 13 18 1
18 14 15 1
19 15 16 1
20 16 17 1
21 17 18 1
22 19 20 1
23 20 21 2
24 20 22 1
25 22 23 2
26 22 27 1
27 23 24 1
28 24 25 1
29 25 26 1
30 26 27 1
31 3 28 1
32 8 29 1
33 9 30 1
34 9 31 1
35 10 32 1
36 10 33 1
37 11 34 1
38 11 35 1
39 12 36 1
40 12 37 1
41 13 38 1
42 14 39 1
43 14 40 1
44 15 41 1
45 15 42 1
46 17 43 1
47 17 44 1
48 18 45 1
49 18 46 1
50 24 47 1
51 24 48 1
52 25 49 1
53 25 50 1
54 26 51 1
55 26 52 1
56 27 53 1
57 27 54 1
@<TRIPOS>SUBSTRUCTURE
1	UNK0	1	GROUP	1 ****	UNK
