# created with PyMOL 2.3.2
@<TRIPOS>MOLECULE
1698
48 51 1                 
SMALL
USER_CHARGES
@<TRIPOS>ATOM
1	  Cl	-0.994	1.159	3.935	Cl	1	UNK0	0.000	
2	   C	-0.097	-0.123	3.149	C.2	1	UNK0	0.000	
3	   C	1.039	0.152	2.382	C.2	1	UNK0	0.000	
4	   C	1.735	-0.865	1.770	C.2	1	UNK0	0.000	
5	   C	1.365	-2.166	1.875	C.2	1	UNK0	0.000	
6	   C	0.225	-2.434	2.646	C.2	1	UNK0	0.000	
7	   C	-0.493	-1.438	3.270	C.2	1	UNK0	0.000	
8	   O	1.979	-3.237	1.313	O.3	1	UNK0	0.000	
9	   C	3.092	-3.323	0.504	C.3	1	UNK0	0.000	
10	   C	2.988	-2.654	-0.791	C.2	1	UNK0	0.000	
11	   O	4.042	-2.667	-1.517	O.2	1	UNK0	0.000	
12	   N	1.844	-2.010	-1.303	N.pl3	1	UNK0	0.000	
13	   N	1.853	-1.403	-2.572	N.pl3	1	UNK0	0.000	
14	   C	1.125	-0.159	-2.585	C.3	1	UNK0	0.000	
15	   C	1.787	0.803	-1.648	C.3	1	UNK0	0.000	
16	   C	0.643	1.427	-0.940	C.2	1	UNK0	0.000	
17	   O	0.744	2.362	-0.104	O.2	1	UNK0	0.000	
18	   N	-0.594	0.841	-1.318	N.pl3	1	UNK0	0.000	
19	   C	-0.264	-0.328	-2.051	C.2	1	UNK0	0.000	
20	   O	-0.947	-1.359	-2.264	O.2	1	UNK0	0.000	
21	   C	-1.928	1.266	-1.067	C.2	1	UNK0	0.000	
22	   C	-2.365	2.539	-1.410	C.2	1	UNK0	0.000	
23	   C	-3.648	2.985	-1.186	C.2	1	UNK0	0.000	
24	   C	-4.581	2.152	-0.590	C.2	1	UNK0	0.000	
25	   C	-4.160	0.887	-0.246	C.2	1	UNK0	0.000	
26	   C	-2.867	0.447	-0.475	C.2	1	UNK0	0.000	
27	   O	-5.862	2.649	-0.386	O.3	1	UNK0	0.000	
28	   C	-6.010	4.033	-0.133	C.3	1	UNK0	0.000	
29	   C	-5.251	4.875	-1.105	C.3	1	UNK0	0.000	
30	   O	-4.082	4.253	-1.527	O.3	1	UNK0	0.000	
31	   H	1.324	1.173	2.304	 H	1	UNK0	0.000	
32	   H	2.606	-0.607	1.194	 H	1	UNK0	0.000	
33	   H	-0.134	-3.455	2.778	 H	1	UNK0	0.000	
34	   H	-1.377	-1.648	3.868	 H	1	UNK0	0.000	
35	   H	3.284	-4.417	0.267	 H	1	UNK0	0.000	
36	   H	4.039	-3.007	0.999	 H	1	UNK0	0.000	
37	   H	0.968	-1.980	-0.747	 H	1	UNK0	0.000	
38	   H	1.418	-2.050	-3.268	 H	1	UNK0	0.000	
39	   H	1.099	0.259	-3.605	 H	1	UNK0	0.000	
40	   H	2.264	1.637	-2.249	 H	1	UNK0	0.000	
41	   H	2.526	0.347	-0.987	 H	1	UNK0	0.000	
42	   H	-1.631	3.192	-1.876	 H	1	UNK0	0.000	
43	   H	-4.911	0.245	0.223	 H	1	UNK0	0.000	
44	   H	-2.592	-0.553	-0.185	 H	1	UNK0	0.000	
45	   H	-7.077	4.320	-0.041	 H	1	UNK0	0.000	
46	   H	-5.582	4.236	0.890	 H	1	UNK0	0.000	
47	   H	-5.886	5.057	-2.010	 H	1	UNK0	0.000	
48	   H	-4.984	5.842	-0.625	 H	1	UNK0	0.000	
@<TRIPOS>BOND
1 1 2 1
2 2 3 2
3 2 7 1
4 3 4 1
5 4 5 2
6 5 6 1
7 5 8 1
8 6 7 2
9 8 9 1
10 9 10 1
11 10 11 2
12 10 12 1
13 12 13 1
14 13 14 1
15 14 15 1
16 14 19 1
17 15 16 1
18 16 17 2
19 16 18 1
20 18 19 1
21 18 21 1
22 19 20 2
23 21 22 2
24 21 26 1
25 22 23 1
26 23 24 2
27 23 30 1
28 24 25 1
29 24 27 1
30 25 26 2
31 27 28 1
32 28 29 1
33 29 30 1
34 3 31 1
35 4 32 1
36 6 33 1
37 7 34 1
38 9 35 1
39 9 36 1
40 12 37 1
41 13 38 1
42 14 39 1
43 15 40 1
44 15 41 1
45 22 42 1
46 25 43 1
47 26 44 1
48 28 45 1
49 28 46 1
50 29 47 1
51 29 48 1
@<TRIPOS>SUBSTRUCTURE
1	UNK0	1	GROUP	1 ****	UNK
