# created with PyMOL 2.3.2
@<TRIPOS>MOLECULE
1700
43 46 1                 
SMALL
USER_CHARGES
@<TRIPOS>ATOM
1	  Cl	4.213	4.703	-3.062	Cl	1	UNK0	0.000	
2	   C	3.242	3.597	-2.095	C.2	1	UNK0	0.000	
3	   C	2.939	3.862	-0.777	C.2	1	UNK0	0.000	
4	   N	2.185	3.005	-0.023	N.pl3	1	UNK0	0.000	
5	   C	1.701	1.860	-0.530	C.2	1	UNK0	0.000	
6	   N	0.965	1.043	0.238	N.2	1	UNK0	0.000	
7	   C	0.676	1.307	1.516	C.2	1	UNK0	0.000	
8	   C	1.160	2.470	2.055	C.2	1	UNK0	0.000	
9	   C	1.912	3.302	1.265	C.2	1	UNK0	0.000	
10	   O	2.388	4.402	1.722	O.2	1	UNK0	0.000	
11	   C	-0.133	0.371	2.298	C.3	1	UNK0	0.000	
12	   N	-1.546	0.621	2.236	N.3	1	UNK0	0.000	
13	   C	-2.279	-0.333	3.024	C.3	1	UNK0	0.000	
14	   C	-3.331	-1.059	2.214	C.3	1	UNK0	0.000	
15	   N	-2.727	-1.623	0.986	N.pl3	1	UNK0	0.000	
16	   C	-2.047	-0.659	0.176	C.3	1	UNK0	0.000	
17	   C	-2.096	0.673	0.933	C.3	1	UNK0	0.000	
18	   C	-2.894	-2.974	0.728	C.2	1	UNK0	0.000	
19	   O	-3.627	-3.601	1.618	O.2	1	UNK0	0.000	
20	   C	-2.355	-3.724	-0.395	C.3	1	UNK0	0.000	
21	   C	-0.874	-3.730	-0.583	C.3	1	UNK0	0.000	
22	   C	-1.852	-3.215	-1.657	C.3	1	UNK0	0.000	
23	   C	1.992	1.572	-1.852	C.2	1	UNK0	0.000	
24	   C	2.750	2.423	-2.630	C.2	1	UNK0	0.000	
25	   H	3.319	4.786	-0.334	 H	1	UNK0	0.000	
26	   H	0.964	2.753	3.096	 H	1	UNK0	0.000	
27	   H	0.029	-0.668	1.917	 H	1	UNK0	0.000	
28	   H	0.175	0.351	3.363	 H	1	UNK0	0.000	
29	   H	-2.794	0.150	3.864	 H	1	UNK0	0.000	
30	   H	-1.577	-1.085	3.417	 H	1	UNK0	0.000	
31	   H	-3.649	-1.917	2.824	 H	1	UNK0	0.000	
32	   H	-4.216	-0.463	1.993	 H	1	UNK0	0.000	
33	   H	-1.042	-0.892	-0.145	 H	1	UNK0	0.000	
34	   H	-2.672	-0.439	-0.746	 H	1	UNK0	0.000	
35	   H	-3.165	0.947	0.995	 H	1	UNK0	0.000	
36	   H	-1.623	1.411	0.257	 H	1	UNK0	0.000	
37	   H	-2.773	-4.800	-0.418	 H	1	UNK0	0.000	
38	   H	-0.377	-4.702	-0.817	 H	1	UNK0	0.000	
39	   H	-0.209	-3.019	-0.081	 H	1	UNK0	0.000	
40	   H	-1.743	-2.178	-1.971	 H	1	UNK0	0.000	
41	   H	-1.936	-3.905	-2.555	 H	1	UNK0	0.000	
42	   H	1.581	0.632	-2.231	 H	1	UNK0	0.000	
43	   H	2.962	2.173	-3.660	 H	1	UNK0	0.000	
@<TRIPOS>BOND
1 1 2 1
2 2 3 2
3 2 24 1
4 3 4 1
5 4 5 1
6 4 9 1
7 5 6 2
8 5 23 1
9 6 7 1
10 7 8 2
11 7 11 1
12 8 9 1
13 9 10 2
14 11 12 1
15 12 13 1
16 12 17 1
17 13 14 1
18 14 15 1
19 15 16 1
20 15 18 1
21 16 17 1
22 18 19 2
23 18 20 1
24 20 21 1
25 20 22 1
26 21 22 1
27 23 24 2
28 3 25 1
29 8 26 1
30 11 27 1
31 11 28 1
32 13 29 1
33 13 30 1
34 14 31 1
35 14 32 1
36 16 33 1
37 16 34 1
38 17 35 1
39 17 36 1
40 20 37 1
41 21 38 1
42 21 39 1
43 22 40 1
44 22 41 1
45 23 42 1
46 24 43 1
@<TRIPOS>SUBSTRUCTURE
1	UNK0	1	GROUP	1 ****	UNK
