# created with PyMOL 2.3.2
@<TRIPOS>MOLECULE
1701
44 47 1                 
SMALL
USER_CHARGES
@<TRIPOS>ATOM
1	  Cl	-2.547	-0.099	5.847	Cl	1	UNK0	0.000	
2	   C	-1.546	-0.045	4.403	C.2	1	UNK0	0.000	
3	   C	-1.054	-1.228	3.862	C.2	1	UNK0	0.000	
4	   C	-0.275	-1.192	2.723	C.2	1	UNK0	0.000	
5	   C	0.006	-0.014	2.142	C.2	1	UNK0	0.000	
6	   C	-0.465	1.227	2.646	C.2	1	UNK0	0.000	
7	   C	-1.254	1.160	3.807	C.2	1	UNK0	0.000	
8	   N	-0.213	2.352	1.939	N.pl3	1	UNK0	0.000	
9	   C	0.039	3.471	1.240	C.2	1	UNK0	0.000	
10	   O	0.278	4.644	1.695	O.2	1	UNK0	0.000	
11	   C	0.049	3.433	-0.264	C.3	1	UNK0	0.000	
12	   N	0.124	2.106	-0.828	N.pl3	1	UNK0	0.000	
13	   C	-0.831	1.194	-1.086	C.2	1	UNK0	0.000	
14	   N	-0.296	0.138	-1.684	N.pl3	1	UNK0	0.000	
15	   C	1.015	0.336	-1.826	C.2	1	UNK0	0.000	
16	   C	1.289	1.576	-1.286	C.2	1	UNK0	0.000	
17	   C	2.046	-0.522	-2.435	C.2	1	UNK0	0.000	
18	   C	1.764	-1.747	-2.990	C.2	1	UNK0	0.000	
19	   C	2.757	-2.523	-3.567	C.2	1	UNK0	0.000	
20	   C	4.070	-2.113	-3.616	C.2	1	UNK0	0.000	
21	   C	4.361	-0.887	-3.063	C.2	1	UNK0	0.000	
22	   C	3.383	-0.104	-2.484	C.2	1	UNK0	0.000	
23	  Cl	5.280	-3.125	-4.363	Cl	1	UNK0	0.000	
24	   C	-1.315	-0.859	-1.976	C.3	1	UNK0	0.000	
25	   C	-2.588	-0.325	-1.386	C.3	1	UNK0	0.000	
26	   C	-2.301	1.032	-0.877	C.3	1	UNK0	0.000	
27	  Cl	-1.433	-2.757	4.618	Cl	1	UNK0	0.000	
28	   H	0.094	-2.151	2.338	 H	1	UNK0	0.000	
29	   H	0.611	0.053	1.256	 H	1	UNK0	0.000	
30	   H	-1.651	2.090	4.238	 H	1	UNK0	0.000	
31	   H	0.122	3.026	3.090	 H	1	UNK0	0.000	
32	   H	0.840	4.081	-0.687	 H	1	UNK0	0.000	
33	   H	-0.929	3.933	-0.552	 H	1	UNK0	0.000	
34	   H	2.248	2.072	-1.220	 H	1	UNK0	0.000	
35	   H	0.758	-2.098	-2.958	 H	1	UNK0	0.000	
36	   H	2.522	-3.499	-4.007	 H	1	UNK0	0.000	
37	   H	5.382	-0.541	-3.084	 H	1	UNK0	0.000	
38	   H	3.630	0.859	-2.052	 H	1	UNK0	0.000	
39	   H	-1.421	-1.004	-3.078	 H	1	UNK0	0.000	
40	   H	-1.080	-1.863	-1.534	 H	1	UNK0	0.000	
41	   H	-2.922	-0.995	-0.550	 H	1	UNK0	0.000	
42	   H	-3.427	-0.260	-2.103	 H	1	UNK0	0.000	
43	   H	-2.853	1.848	-1.365	 H	1	UNK0	0.000	
44	   H	-2.534	1.079	0.228	 H	1	UNK0	0.000	
@<TRIPOS>BOND
1 1 2 1
2 2 3 2
3 2 7 1
4 3 4 1
5 3 27 1
6 4 5 2
7 5 6 1
8 6 7 2
9 6 8 1
10 8 9 1
11 9 10 2
12 9 11 1
13 11 12 1
14 12 13 2
15 12 16 1
16 13 14 1
17 13 26 1
18 14 15 1
19 14 24 1
20 15 16 2
21 15 17 1
22 17 18 2
23 17 22 1
24 18 19 1
25 19 20 2
26 20 21 1
27 20 23 1
28 21 22 2
29 24 25 1
30 25 26 1
31 4 28 1
32 5 29 1
33 7 30 1
34 8 31 1
35 11 32 1
36 11 33 1
37 16 34 1
38 18 35 1
39 19 36 1
40 21 37 1
41 22 38 1
42 24 39 1
43 24 40 1
44 25 41 1
45 25 42 1
46 26 43 1
47 26 44 1
@<TRIPOS>SUBSTRUCTURE
1	UNK0	1	GROUP	1 ****	UNK
