# created with PyMOL 2.3.2
@<TRIPOS>MOLECULE
1702
50 54 1                 
SMALL
USER_CHARGES
@<TRIPOS>ATOM
1	  Cl	-2.713	4.211	-2.384	Cl	1	UNK0	0.000	
2	   C	-1.234	5.165	-2.460	C.2	1	UNK0	0.000	
3	   C	0.024	4.645	-2.441	C.2	1	UNK0	0.000	
4	   C	1.089	5.561	-2.510	C.2	1	UNK0	0.000	
5	   C	0.865	6.891	-2.593	C.2	1	UNK0	0.000	
6	   C	-0.423	7.415	-2.612	C.2	1	UNK0	0.000	
7	   C	-1.470	6.544	-2.545	C.2	1	UNK0	0.000	
8	   N	0.307	3.288	-2.358	N.4	1	UNK0	0.000	
9	   C	-0.790	2.412	-2.294	C.3	1	UNK0	0.000	
10	   C	-0.310	0.936	-2.197	C.3	1	UNK0	0.000	
11	   N	0.347	0.781	-0.939	N.pl3	1	UNK0	0.000	
12	   C	0.952	1.981	-0.357	C.3	1	UNK0	0.000	
13	   C	1.357	2.974	-1.407	C.3	1	UNK0	0.000	
14	   C	0.459	-0.437	-0.213	C.2	1	UNK0	0.000	
15	   N	1.649	-0.984	0.099	N.2	1	UNK0	0.000	
16	   C	1.768	-2.140	0.789	C.2	1	UNK0	0.000	
17	   N	0.680	-2.812	1.205	N.2	1	UNK0	0.000	
18	   C	-0.540	-2.322	0.927	C.2	1	UNK0	0.000	
19	   C	-0.662	-1.129	0.215	C.2	1	UNK0	0.000	
20	   O	-1.932	-0.899	0.093	O.3	1	UNK0	0.000	
21	   C	-2.659	-1.851	0.672	C.2	1	UNK0	0.000	
22	   C	-1.806	-2.787	1.222	C.2	1	UNK0	0.000	
23	   C	-2.326	-3.886	1.886	C.2	1	UNK0	0.000	
24	   C	-3.685	-4.085	2.022	C.2	1	UNK0	0.000	
25	   C	-4.510	-3.131	1.461	C.2	1	UNK0	0.000	
26	   C	-4.024	-2.015	0.788	C.2	1	UNK0	0.000	
27	   C	3.155	-2.652	1.077	C.3	1	UNK0	0.000	
28	   C	3.043	-3.941	1.851	C.3	1	UNK0	0.000	
29	   H	2.069	5.156	-2.496	 H	1	UNK0	0.000	
30	   H	1.693	7.598	-2.647	 H	1	UNK0	0.000	
31	   H	-0.598	8.497	-2.679	 H	1	UNK0	0.000	
32	   H	-2.473	6.942	-2.560	 H	1	UNK0	0.000	
33	   H	0.767	3.078	-3.320	 H	1	UNK0	0.000	
34	   H	-1.448	2.375	-3.181	 H	1	UNK0	0.000	
35	   H	-1.424	2.503	-1.392	 H	1	UNK0	0.000	
36	   H	-1.242	0.339	-2.240	 H	1	UNK0	0.000	
37	   H	0.382	0.748	-3.025	 H	1	UNK0	0.000	
38	   H	1.893	1.625	0.135	 H	1	UNK0	0.000	
39	   H	0.315	2.379	0.430	 H	1	UNK0	0.000	
40	   H	2.202	2.536	-1.961	 H	1	UNK0	0.000	
41	   H	1.692	3.898	-0.943	 H	1	UNK0	0.000	
42	   H	-1.646	-4.615	2.314	 H	1	UNK0	0.000	
43	   H	-4.121	-4.931	2.534	 H	1	UNK0	0.000	
44	   H	-5.604	-3.196	1.514	 H	1	UNK0	0.000	
45	   H	-4.684	-1.268	0.349	 H	1	UNK0	0.000	
46	   H	3.644	-2.871	0.102	 H	1	UNK0	0.000	
47	   H	3.765	-1.896	1.589	 H	1	UNK0	0.000	
48	   H	2.342	-4.610	1.327	 H	1	UNK0	0.000	
49	   H	2.714	-3.696	2.888	 H	1	UNK0	0.000	
50	   H	4.023	-4.439	1.910	 H	1	UNK0	0.000	
@<TRIPOS>BOND
1 1 2 1
2 2 3 2
3 2 7 1
4 3 4 1
5 3 8 1
6 4 5 2
7 5 6 1
8 6 7 2
9 8 9 1
10 8 13 1
11 9 10 1
12 10 11 1
13 11 12 1
14 11 14 1
15 12 13 1
16 14 15 2
17 14 19 1
18 15 16 1
19 16 17 2
20 16 27 1
21 17 18 1
22 18 19 2
23 18 22 1
24 19 20 1
25 20 21 1
26 21 22 2
27 21 26 1
28 22 23 1
29 23 24 2
30 24 25 1
31 25 26 2
32 27 28 1
33 4 29 1
34 5 30 1
35 6 31 1
36 7 32 1
37 8 33 1
38 9 34 1
39 9 35 1
40 10 36 1
41 10 37 1
42 12 38 1
43 12 39 1
44 13 40 1
45 13 41 1
46 23 42 1
47 24 43 1
48 25 44 1
49 26 45 1
50 27 46 1
51 27 47 1
52 28 48 1
53 28 49 1
54 28 50 1
@<TRIPOS>SUBSTRUCTURE
1	UNK0	1	GROUP	1 ****	UNK
