# created with PyMOL 2.3.2
@<TRIPOS>MOLECULE
1703
50 53 1                 
SMALL
USER_CHARGES
@<TRIPOS>ATOM
1	  Cl	-0.045	6.346	-3.831	Cl	1	UNK0	0.000	
2	   C	0.143	4.774	-3.041	C.2	1	UNK0	0.000	
3	   C	-0.658	3.706	-3.384	C.2	1	UNK0	0.000	
4	   C	-0.505	2.475	-2.759	C.2	1	UNK0	0.000	
5	   C	0.442	2.268	-1.781	C.2	1	UNK0	0.000	
6	   C	1.234	3.335	-1.448	C.2	1	UNK0	0.000	
7	   C	1.093	4.578	-2.065	C.2	1	UNK0	0.000	
8	   C	0.595	0.958	-1.135	C.2	1	UNK0	0.000	
9	   N	1.413	0.566	-0.175	N.pl3	1	UNK0	0.000	
10	   C	1.199	-0.724	0.098	C.2	1	UNK0	0.000	
11	   N	0.220	-1.171	-0.705	N.pl3	1	UNK0	0.000	
12	   C	-0.158	-0.148	-1.466	C.2	1	UNK0	0.000	
13	   C	-0.325	-2.547	-0.730	C.3	1	UNK0	0.000	
14	   C	-1.483	-2.610	0.250	C.2	1	UNK0	0.000	
15	   O	-2.081	-3.697	0.379	O.2	1	UNK0	0.000	
16	   N	-1.867	-1.481	0.988	N.pl3	1	UNK0	0.000	
17	   C	-2.908	-1.368	1.930	C.2	1	UNK0	0.000	
18	   C	-3.085	-0.128	2.544	C.2	1	UNK0	0.000	
19	   C	-4.091	0.014	3.462	C.2	1	UNK0	0.000	
20	   C	-4.931	-1.024	3.797	C.2	1	UNK0	0.000	
21	   C	-4.777	-2.256	3.205	C.2	1	UNK0	0.000	
22	   C	-3.749	-2.413	2.263	C.2	1	UNK0	0.000	
23	   C	-2.198	1.010	2.209	C.3	1	UNK0	0.000	
24	   C	-2.534	1.626	0.871	C.3	1	UNK0	0.000	
25	   C	2.093	-1.237	1.168	C.3	1	UNK0	0.000	
26	   C	2.665	-0.009	1.765	C.3	1	UNK0	0.000	
27	   C	2.468	1.044	0.703	C.3	1	UNK0	0.000	
28	   H	-1.401	3.884	-4.156	 H	1	UNK0	0.000	
29	   H	-1.168	1.657	-3.068	 H	1	UNK0	0.000	
30	   H	1.976	3.210	-0.703	 H	1	UNK0	0.000	
31	   H	1.737	5.399	-1.775	 H	1	UNK0	0.000	
32	   H	-0.944	-0.178	-2.235	 H	1	UNK0	0.000	
33	   H	0.438	-3.293	-0.510	 H	1	UNK0	0.000	
34	   H	-0.756	-2.688	-1.740	 H	1	UNK0	0.000	
35	   H	-1.280	-0.608	0.789	 H	1	UNK0	0.000	
36	   H	-4.264	0.959	3.963	 H	1	UNK0	0.000	
37	   H	-5.709	-0.890	4.516	 H	1	UNK0	0.000	
38	   H	-5.420	-3.092	3.447	 H	1	UNK0	0.000	
39	   H	-3.645	-3.385	1.811	 H	1	UNK0	0.000	
40	   H	-1.122	0.760	2.267	 H	1	UNK0	0.000	
41	   H	-2.327	1.846	2.957	 H	1	UNK0	0.000	
42	   H	-1.626	2.031	0.378	 H	1	UNK0	0.000	
43	   H	-3.226	2.510	1.001	 H	1	UNK0	0.000	
44	   H	-3.079	0.933	0.210	 H	1	UNK0	0.000	
45	   H	1.522	-1.870	1.888	 H	1	UNK0	0.000	
46	   H	2.915	-1.864	0.777	 H	1	UNK0	0.000	
47	   H	3.741	-0.108	2.049	 H	1	UNK0	0.000	
48	   H	2.057	0.243	2.681	 H	1	UNK0	0.000	
49	   H	2.190	1.959	1.270	 H	1	UNK0	0.000	
50	   H	3.422	1.148	0.150	 H	1	UNK0	0.000	
@<TRIPOS>BOND
1 1 2 1
2 2 3 2
3 2 7 1
4 3 4 1
5 4 5 2
6 5 6 1
7 5 8 1
8 6 7 2
9 8 9 1
10 8 12 2
11 9 10 1
12 9 27 1
13 10 11 2
14 10 25 1
15 11 12 1
16 11 13 1
17 13 14 1
18 14 15 2
19 14 16 1
20 16 17 1
21 17 18 2
22 17 22 1
23 18 19 1
24 18 23 1
25 19 20 2
26 20 21 1
27 21 22 2
28 23 24 1
29 25 26 1
30 26 27 1
31 3 28 1
32 4 29 1
33 6 30 1
34 7 31 1
35 12 32 1
36 13 33 1
37 13 34 1
38 16 35 1
39 19 36 1
40 20 37 1
41 21 38 1
42 22 39 1
43 23 40 1
44 23 41 1
45 24 42 1
46 24 43 1
47 24 44 1
48 25 45 1
49 25 46 1
50 26 47 1
51 26 48 1
52 27 49 1
53 27 50 1
@<TRIPOS>SUBSTRUCTURE
1	UNK0	1	GROUP	1 ****	UNK
