# created with PyMOL 2.3.2
@<TRIPOS>MOLECULE
1704
36 39 1                 
SMALL
USER_CHARGES
@<TRIPOS>ATOM
1	   F	-2.907	-4.826	1.169	 F	1	UNK0	0.000	
2	   C	-2.574	-3.537	1.414	C.2	1	UNK0	0.000	
3	   C	-2.470	-2.589	0.419	C.2	1	UNK0	0.000	
4	   C	-2.135	-1.294	0.677	C.2	1	UNK0	0.000	
5	   C	-1.897	-0.958	2.002	C.2	1	UNK0	0.000	
6	   C	-1.993	-1.886	3.015	C.2	1	UNK0	0.000	
7	   C	-2.334	-3.195	2.744	C.2	1	UNK0	0.000	
8	  Cl	-1.463	0.690	2.389	Cl	1	UNK0	0.000	
9	   C	-2.015	-0.264	-0.337	C.2	1	UNK0	0.000	
10	   O	-3.017	0.417	-0.638	O.2	1	UNK0	0.000	
11	   N	-0.780	-0.028	-0.982	N.pl3	1	UNK0	0.000	
12	   C	-0.640	0.999	-2.000	C.3	1	UNK0	0.000	
13	   C	0.790	1.046	-2.490	C.3	1	UNK0	0.000	
14	   C	1.710	1.057	-1.314	C.2	1	UNK0	0.000	
15	   C	1.488	0.088	-0.348	C.2	1	UNK0	0.000	
16	   N	2.277	0.038	0.738	N.2	1	UNK0	0.000	
17	   C	3.295	0.912	0.926	C.2	1	UNK0	0.000	
18	   N	3.505	1.850	-0.016	N.pl3	1	UNK0	0.000	
19	   N	4.532	2.567	0.388	N.pl3	1	UNK0	0.000	
20	   C	5.011	2.136	1.564	C.2	1	UNK0	0.000	
21	   C	4.223	1.064	1.930	C.2	1	UNK0	0.000	
22	   C	2.727	1.938	-1.135	C.2	1	UNK0	0.000	
23	   O	2.929	2.815	-2.007	O.2	1	UNK0	0.000	
24	   C	0.361	-0.843	-0.603	C.3	1	UNK0	0.000	
25	   H	-2.665	-2.898	-0.596	 H	1	UNK0	0.000	
26	   H	-1.801	-1.594	4.044	 H	1	UNK0	0.000	
27	   H	-2.420	-3.952	3.510	 H	1	UNK0	0.000	
28	   H	-1.297	0.767	-2.863	 H	1	UNK0	0.000	
29	   H	-0.948	1.995	-1.616	 H	1	UNK0	0.000	
30	   H	0.960	0.083	-3.037	 H	1	UNK0	0.000	
31	   H	1.000	1.921	-3.099	 H	1	UNK0	0.000	
32	   H	4.915	3.366	-0.150	 H	1	UNK0	0.000	
33	   H	5.852	2.534	2.138	 H	1	UNK0	0.000	
34	   H	4.317	0.469	2.821	 H	1	UNK0	0.000	
35	   H	0.582	-1.515	-1.468	 H	1	UNK0	0.000	
36	   H	0.186	-1.411	0.306	 H	1	UNK0	0.000	
@<TRIPOS>BOND
1 1 2 1
2 2 3 2
3 2 7 1
4 3 4 1
5 4 5 2
6 4 9 1
7 5 6 1
8 5 8 1
9 6 7 2
10 9 10 2
11 9 11 1
12 11 12 1
13 11 24 1
14 12 13 1
15 13 14 1
16 14 15 2
17 14 22 1
18 15 16 1
19 15 24 1
20 16 17 2
21 17 18 1
22 17 21 1
23 18 19 1
24 18 22 1
25 19 20 1
26 20 21 2
27 22 23 2
28 3 25 1
29 6 26 1
30 7 27 1
31 12 28 1
32 12 29 1
33 13 30 1
34 13 31 1
35 19 32 1
36 20 33 1
37 21 34 1
38 24 35 1
39 24 36 1
@<TRIPOS>SUBSTRUCTURE
1	UNK0	1	GROUP	1 ****	UNK
