# created with PyMOL 2.3.2
@<TRIPOS>MOLECULE
1705
40 43 1                 
SMALL
USER_CHARGES
@<TRIPOS>ATOM
1	   F	3.584	-3.678	0.104	 F	1	UNK0	0.000	
2	   C	2.710	-2.745	0.582	C.2	1	UNK0	0.000	
3	   C	2.413	-2.670	1.926	C.2	1	UNK0	0.000	
4	   C	1.540	-1.741	2.422	C.2	1	UNK0	0.000	
5	   C	0.912	-0.828	1.581	C.2	1	UNK0	0.000	
6	   C	1.197	-0.894	0.247	C.2	1	UNK0	0.000	
7	   C	2.080	-1.838	-0.228	C.2	1	UNK0	0.000	
8	   S	-0.194	0.288	2.289	S.O2	1	UNK0	0.000	
9	   O	-1.359	-0.490	2.901	O.2	1	UNK0	0.000	
10	   O	0.460	0.964	3.492	O.2	1	UNK0	0.000	
11	   N	-0.850	1.470	1.301	N.3	1	UNK0	0.000	
12	   C	0.092	2.357	0.756	C.3	1	UNK0	0.000	
13	   C	-0.452	2.995	-0.533	C.3	1	UNK0	0.000	
14	   N	-0.801	1.897	-1.372	N.pl3	1	UNK0	0.000	
15	   C	-1.877	1.057	-0.900	C.3	1	UNK0	0.000	
16	   C	-2.025	1.158	0.601	C.3	1	UNK0	0.000	
17	   C	-0.149	1.629	-2.582	C.2	1	UNK0	0.000	
18	   N	-0.560	0.605	-3.398	N.2	1	UNK0	0.000	
19	   N	0.018	0.308	-4.542	N.pl3	1	UNK0	0.000	
20	   C	1.062	0.977	-5.021	C.2	1	UNK0	0.000	
21	   N	1.404	0.420	-6.200	N.2	1	UNK0	0.000	
22	   N	0.580	-0.569	-6.431	N.2	1	UNK0	0.000	
23	   C	-0.291	-0.670	-5.429	C.2	1	UNK0	0.000	
24	   C	1.548	2.018	-4.279	C.2	1	UNK0	0.000	
25	   C	0.943	2.327	-3.084	C.2	1	UNK0	0.000	
26	  Cl	1.226	-1.724	4.156	Cl	1	UNK0	0.000	
27	   H	2.913	-3.393	2.583	 H	1	UNK0	0.000	
28	   H	0.733	-0.225	-0.465	 H	1	UNK0	0.000	
29	   H	2.307	-1.885	-1.307	 H	1	UNK0	0.000	
30	   H	0.410	3.172	1.463	 H	1	UNK0	0.000	
31	   H	1.031	1.842	0.499	 H	1	UNK0	0.000	
32	   H	0.251	3.727	-0.938	 H	1	UNK0	0.000	
33	   H	-1.382	3.541	-0.159	 H	1	UNK0	0.000	
34	   H	-2.812	1.424	-1.371	 H	1	UNK0	0.000	
35	   H	-1.757	-0.001	-1.233	 H	1	UNK0	0.000	
36	   H	-2.804	1.921	0.828	 H	1	UNK0	0.000	
37	   H	-2.439	0.188	0.944	 H	1	UNK0	0.000	
38	   H	-1.089	-1.410	-5.366	 H	1	UNK0	0.000	
39	   H	2.386	2.574	-4.638	 H	1	UNK0	0.000	
40	   H	1.332	3.159	-2.488	 H	1	UNK0	0.000	
@<TRIPOS>BOND
1 1 2 1
2 2 3 2
3 2 7 1
4 3 4 1
5 4 5 2
6 4 26 1
7 5 6 1
8 5 8 1
9 6 7 2
10 8 9 2
11 8 10 2
12 8 11 1
13 11 12 1
14 11 16 1
15 12 13 1
16 13 14 1
17 14 15 1
18 14 17 1
19 15 16 1
20 17 18 2
21 17 25 1
22 18 19 1
23 19 20 1
24 19 23 1
25 20 21 2
26 20 24 1
27 21 22 1
28 22 23 2
29 24 25 2
30 3 27 1
31 6 28 1
32 7 29 1
33 12 30 1
34 12 31 1
35 13 32 1
36 13 33 1
37 15 34 1
38 15 35 1
39 16 36 1
40 16 37 1
41 23 38 1
42 24 39 1
43 25 40 1
@<TRIPOS>SUBSTRUCTURE
1	UNK0	1	GROUP	1 ****	UNK
