# created with PyMOL 2.3.2
@<TRIPOS>MOLECULE
1706
30 33 1                 
SMALL
USER_CHARGES
@<TRIPOS>ATOM
1	   F	-1.203	-0.035	-5.519	 F	1	UNK0	0.000	
2	   C	-1.490	-0.033	-4.174	C.2	1	UNK0	0.000	
3	   C	-0.490	0.361	-3.276	C.2	1	UNK0	0.000	
4	   C	-0.754	0.370	-1.940	C.2	1	UNK0	0.000	
5	   C	-2.017	-0.012	-1.467	C.2	1	UNK0	0.000	
6	   C	-2.975	-0.392	-2.366	C.2	1	UNK0	0.000	
7	   C	-2.730	-0.409	-3.718	C.2	1	UNK0	0.000	
8	  Cl	-3.973	-0.901	-4.876	Cl	1	UNK0	0.000	
9	   C	0.464	0.824	-1.219	C.3	1	UNK0	0.000	
10	   N	0.879	-0.193	-0.305	N.pl3	1	UNK0	0.000	
11	   C	0.352	-0.257	1.002	C.2	1	UNK0	0.000	
12	   N	0.462	-1.372	1.770	N.2	1	UNK0	0.000	
13	   C	-0.019	-1.485	3.012	C.2	1	UNK0	0.000	
14	   C	-0.680	-0.403	3.583	C.2	1	UNK0	0.000	
15	   C	-0.834	0.757	2.877	C.2	1	UNK0	0.000	
16	   C	-0.313	0.803	1.602	C.2	1	UNK0	0.000	
17	   C	-0.425	2.000	0.763	C.2	1	UNK0	0.000	
18	   O	-1.031	3.002	1.275	O.2	1	UNK0	0.000	
19	   N	0.104	2.056	-0.539	N.pl3	1	UNK0	0.000	
20	   C	1.448	1.070	-2.279	C.2	1	UNK0	0.000	
21	   O	2.659	1.478	-2.135	O.2	1	UNK0	0.000	
22	   N	0.857	0.787	-3.521	N.pl3	1	UNK0	0.000	
23	   H	-2.203	0.005	-0.389	 H	1	UNK0	0.000	
24	   H	-3.954	-0.689	-2.014	 H	1	UNK0	0.000	
25	   H	1.586	-0.918	-0.580	 H	1	UNK0	0.000	
26	   H	0.078	-2.381	3.607	 H	1	UNK0	0.000	
27	   H	-1.077	-0.465	4.580	 H	1	UNK0	0.000	
28	   H	-1.336	1.642	3.253	 H	1	UNK0	0.000	
29	   H	0.217	3.001	-0.973	 H	1	UNK0	0.000	
30	   H	1.272	0.854	-4.488	 H	1	UNK0	0.000	
@<TRIPOS>BOND
1 1 2 1
2 2 3 2
3 2 7 1
4 3 4 1
5 3 22 1
6 4 5 2
7 4 9 1
8 5 6 1
9 6 7 2
10 7 8 1
11 9 10 1
12 9 19 1
13 9 20 1
14 10 11 1
15 11 12 2
16 11 16 1
17 12 13 1
18 13 14 2
19 14 15 1
20 15 16 2
21 16 17 1
22 17 18 2
23 17 19 1
24 20 21 2
25 20 22 1
26 5 23 1
27 6 24 1
28 10 25 1
29 13 26 1
30 14 27 1
31 15 28 1
32 19 29 1
33 22 30 1
@<TRIPOS>SUBSTRUCTURE
1	UNK0	1	GROUP	1 ****	UNK
