# created with PyMOL 2.3.2
@<TRIPOS>MOLECULE
1712
61 64 1                 
SMALL
USER_CHARGES
@<TRIPOS>ATOM
1	  Br	-0.991	6.862	-2.578	Br	1	UNK0	0.000	
2	   C	-0.973	4.977	-2.203	C.2	1	UNK0	0.000	
3	   C	-0.987	4.040	-3.225	C.2	1	UNK0	0.000	
4	   C	-0.973	2.685	-2.868	C.2	1	UNK0	0.000	
5	   C	-0.946	2.264	-1.553	C.2	1	UNK0	0.000	
6	   C	-0.935	3.248	-0.590	C.2	1	UNK0	0.000	
7	   C	-0.947	4.599	-0.878	C.2	1	UNK0	0.000	
8	   C	-0.961	0.834	-1.276	C.2	1	UNK0	0.000	
9	   C	-0.155	0.212	-0.447	C.2	1	UNK0	0.000	
10	   C	-0.066	-1.225	-0.069	C.3	1	UNK0	0.000	
11	   N	0.316	-1.135	1.321	N.pl3	1	UNK0	0.000	
12	   C	1.205	-0.036	1.437	C.2	1	UNK0	0.000	
13	   O	2.081	0.164	2.334	O.2	1	UNK0	0.000	
14	   C	0.920	0.841	0.311	C.2	1	UNK0	0.000	
15	   O	1.460	1.935	-0.002	O.2	1	UNK0	0.000	
16	   C	-0.135	-1.999	2.403	C.3	1	UNK0	0.000	
17	   C	-1.402	-1.502	2.983	C.3	1	UNK0	0.000	
18	   N	-1.373	-0.164	3.548	N.4	1	UNK0	0.000	
19	   C	-2.145	-0.212	4.771	C.3	1	UNK0	0.000	
20	   C	-2.885	1.046	5.057	C.3	1	UNK0	0.000	
21	   O	-3.807	1.199	3.993	O.3	1	UNK0	0.000	
22	   C	-3.053	1.579	2.915	C.3	1	UNK0	0.000	
23	   C	-1.867	0.756	2.587	C.3	1	UNK0	0.000	
24	   C	0.867	-1.996	-0.919	C.2	1	UNK0	0.000	
25	   C	0.381	-2.955	-1.821	C.2	1	UNK0	0.000	
26	   C	1.224	-3.677	-2.635	C.2	1	UNK0	0.000	
27	   C	2.598	-3.500	-2.615	C.2	1	UNK0	0.000	
28	   C	3.078	-2.559	-1.731	C.2	1	UNK0	0.000	
29	   C	2.230	-1.829	-0.907	C.2	1	UNK0	0.000	
30	   N	3.446	-4.249	-3.468	N.pl3	1	UNK0	0.000	
31	   C	2.990	-5.228	-4.423	C.3	1	UNK0	0.000	
32	   C	4.886	-4.000	-3.362	C.3	1	UNK0	0.000	
33	   O	-1.911	0.032	-1.941	O.2	1	UNK0	0.000	
34	   H	-1.007	4.361	-4.258	 H	1	UNK0	0.000	
35	   H	-0.983	1.963	-3.684	 H	1	UNK0	0.000	
36	   H	-0.935	2.964	0.449	 H	1	UNK0	0.000	
37	   H	-0.936	5.353	-0.082	 H	1	UNK0	0.000	
38	   H	-1.068	-1.718	-0.135	 H	1	UNK0	0.000	
39	   H	-0.347	-3.013	1.949	 H	1	UNK0	0.000	
40	   H	0.668	-2.181	3.141	 H	1	UNK0	0.000	
41	   H	-2.230	-1.491	2.215	 H	1	UNK0	0.000	
42	   H	-1.805	-2.213	3.763	 H	1	UNK0	0.000	
43	   H	-0.355	0.088	3.789	 H	1	UNK0	0.000	
44	   H	-2.907	-1.036	4.636	 H	1	UNK0	0.000	
45	   H	-1.498	-0.541	5.611	 H	1	UNK0	0.000	
46	   H	-2.228	1.933	4.994	 H	1	UNK0	0.000	
47	   H	-3.421	0.969	6.008	 H	1	UNK0	0.000	
48	   H	-3.740	1.586	2.006	 H	1	UNK0	0.000	
49	   H	-2.793	2.682	3.005	 H	1	UNK0	0.000	
50	   H	-1.046	1.504	2.323	 H	1	UNK0	0.000	
51	   H	-2.110	0.171	1.664	 H	1	UNK0	0.000	
52	   H	-0.692	-3.097	-1.838	 H	1	UNK0	0.000	
53	   H	0.833	-4.430	-3.336	 H	1	UNK0	0.000	
54	   H	4.150	-2.389	-1.684	 H	1	UNK0	0.000	
55	   H	2.644	-1.087	-0.215	 H	1	UNK0	0.000	
56	   H	2.865	-6.212	-3.922	 H	1	UNK0	0.000	
57	   H	2.015	-4.980	-4.880	 H	1	UNK0	0.000	
58	   H	3.780	-5.360	-5.196	 H	1	UNK0	0.000	
59	   H	5.243	-4.244	-2.328	 H	1	UNK0	0.000	
60	   H	5.138	-2.952	-3.634	 H	1	UNK0	0.000	
61	   H	5.469	-4.647	-4.048	 H	1	UNK0	0.000	
@<TRIPOS>BOND
1 1 2 1
2 2 3 2
3 2 7 1
4 3 4 1
5 4 5 2
6 5 6 1
7 5 8 1
8 6 7 2
9 8 9 2
10 8 33 1
11 9 10 1
12 9 14 1
13 10 11 1
14 10 24 1
15 11 12 1
16 11 16 1
17 12 13 2
18 12 14 1
19 14 15 2
20 16 17 1
21 17 18 1
22 18 19 1
23 18 23 1
24 19 20 1
25 20 21 1
26 21 22 1
27 22 23 1
28 24 25 2
29 24 29 1
30 25 26 1
31 26 27 2
32 27 28 1
33 27 30 1
34 28 29 2
35 30 31 1
36 30 32 1
37 3 34 1
38 4 35 1
39 6 36 1
40 7 37 1
41 10 38 1
42 16 39 1
43 16 40 1
44 17 41 1
45 17 42 1
46 18 43 1
47 19 44 1
48 19 45 1
49 20 46 1
50 20 47 1
51 22 48 1
52 22 49 1
53 23 50 1
54 23 51 1
55 25 52 1
56 26 53 1
57 28 54 1
58 29 55 1
59 31 56 1
60 31 57 1
61 31 58 1
62 32 59 1
63 32 60 1
64 32 61 1
@<TRIPOS>SUBSTRUCTURE
1	UNK0	1	GROUP	1 ****	UNK
