# created with PyMOL 2.3.2
@<TRIPOS>MOLECULE
1714
49 52 1                 
SMALL
USER_CHARGES
@<TRIPOS>ATOM
1	  Cl	-0.871	3.651	-5.386	Cl	1	UNK0	0.000	
2	   C	-1.498	3.088	-3.856	C.2	1	UNK0	0.000	
3	   C	-1.102	1.817	-3.413	C.2	1	UNK0	0.000	
4	   C	-1.588	1.351	-2.202	C.2	1	UNK0	0.000	
5	   C	-2.437	2.161	-1.494	C.2	1	UNK0	0.000	
6	   C	-2.836	3.430	-1.930	C.2	1	UNK0	0.000	
7	   C	-2.350	3.889	-3.134	C.2	1	UNK0	0.000	
8	   C	-2.944	1.665	-0.208	C.2	1	UNK0	0.000	
9	   N	-3.738	2.195	0.654	N.2	1	UNK0	0.000	
10	   C	-3.954	1.326	1.779	C.3	1	UNK0	0.000	
11	   C	-3.122	0.118	1.481	C.3	1	UNK0	0.000	
12	   N	-2.520	0.388	0.213	N.pl3	1	UNK0	0.000	
13	   C	-1.626	-0.430	-0.560	C.2	1	UNK0	0.000	
14	   N	-1.089	-1.648	-0.354	N.2	1	UNK0	0.000	
15	   N	-0.312	-1.958	-1.367	N.pl3	1	UNK0	0.000	
16	   C	-0.367	-0.915	-2.216	C.2	1	UNK0	0.000	
17	   O	0.250	-0.854	-3.299	O.2	1	UNK0	0.000	
18	   N	-1.187	0.056	-1.728	N.pl3	1	UNK0	0.000	
19	   C	0.475	-3.194	-1.541	C.3	1	UNK0	0.000	
20	   C	1.847	-2.964	-0.961	C.2	1	UNK0	0.000	
21	   O	2.769	-2.735	-1.783	O.2	1	UNK0	0.000	
22	   N	2.066	-3.006	0.436	N.pl3	1	UNK0	0.000	
23	   C	3.353	-2.785	1.019	C.3	1	UNK0	0.000	
24	   C	3.914	-1.411	0.681	C.3	1	UNK0	0.000	
25	   C	5.262	-1.250	1.344	C.3	1	UNK0	0.000	
26	   O	5.850	-0.033	1.084	O.3	1	UNK0	0.000	
27	   C	5.154	1.075	1.516	C.3	1	UNK0	0.000	
28	   C	4.948	1.126	2.993	C.3	1	UNK0	0.000	
29	   H	-0.445	1.205	-3.974	 H	1	UNK0	0.000	
30	   H	-3.506	4.050	-1.350	 H	1	UNK0	0.000	
31	   H	-2.643	4.884	-3.508	 H	1	UNK0	0.000	
32	   H	-3.580	1.776	2.731	 H	1	UNK0	0.000	
33	   H	-5.040	1.052	1.882	 H	1	UNK0	0.000	
34	   H	-2.376	-0.121	2.274	 H	1	UNK0	0.000	
35	   H	-3.829	-0.742	1.331	 H	1	UNK0	0.000	
36	   H	-0.019	-4.074	-1.127	 H	1	UNK0	0.000	
37	   H	0.585	-3.354	-2.629	 H	1	UNK0	0.000	
38	   H	1.255	-3.205	1.050	 H	1	UNK0	0.000	
39	   H	4.047	-3.587	0.704	 H	1	UNK0	0.000	
40	   H	3.297	-2.872	2.139	 H	1	UNK0	0.000	
41	   H	3.189	-0.632	0.898	 H	1	UNK0	0.000	
42	   H	4.064	-1.391	-0.441	 H	1	UNK0	0.000	
43	   H	5.165	-1.457	2.443	 H	1	UNK0	0.000	
44	   H	5.926	-2.043	0.947	 H	1	UNK0	0.000	
45	   H	4.189	1.225	0.945	 H	1	UNK0	0.000	
46	   H	5.774	1.968	1.233	 H	1	UNK0	0.000	
47	   H	5.405	0.285	3.553	 H	1	UNK0	0.000	
48	   H	3.888	1.151	3.293	 H	1	UNK0	0.000	
49	   H	5.409	2.048	3.457	 H	1	UNK0	0.000	
@<TRIPOS>BOND
1 1 2 1
2 2 3 2
3 2 7 1
4 3 4 1
5 4 5 2
6 4 18 1
7 5 6 1
8 5 8 1
9 6 7 2
10 8 9 2
11 8 12 1
12 9 10 1
13 10 11 1
14 11 12 1
15 12 13 1
16 13 14 2
17 13 18 1
18 14 15 1
19 15 16 1
20 15 19 1
21 16 17 2
22 16 18 1
23 19 20 1
24 20 21 2
25 20 22 1
26 22 23 1
27 23 24 1
28 24 25 1
29 25 26 1
30 26 27 1
31 27 28 1
32 3 29 1
33 6 30 1
34 7 31 1
35 10 32 1
36 10 33 1
37 11 34 1
38 11 35 1
39 19 36 1
40 19 37 1
41 22 38 1
42 23 39 1
43 23 40 1
44 24 41 1
45 24 42 1
46 25 43 1
47 25 44 1
48 27 45 1
49 27 46 1
50 28 47 1
51 28 48 1
52 28 49 1
@<TRIPOS>SUBSTRUCTURE
1	UNK0	1	GROUP	1 ****	UNK
