# created with PyMOL 2.3.2
@<TRIPOS>MOLECULE
1715
59 63 1                 
SMALL
USER_CHARGES
@<TRIPOS>ATOM
1	  Cl	6.395	-2.710	2.880	Cl	1	UNK0	0.000	
2	   C	4.670	-2.497	2.681	C.2	1	UNK0	0.000	
3	   C	4.162	-1.925	1.530	C.2	1	UNK0	0.000	
4	   C	2.794	-1.754	1.367	C.2	1	UNK0	0.000	
5	   C	1.912	-2.150	2.352	C.2	1	UNK0	0.000	
6	   C	2.458	-2.722	3.498	C.2	1	UNK0	0.000	
7	   C	3.811	-2.903	3.684	C.2	1	UNK0	0.000	
8	   O	0.620	-1.993	2.208	O.3	1	UNK0	0.000	
9	   C	0.071	-1.450	1.124	C.2	1	UNK0	0.000	
10	   C	0.873	-1.026	0.103	C.2	1	UNK0	0.000	
11	   C	0.045	-0.410	-0.938	C.3	1	UNK0	0.000	
12	   N	-1.320	-0.598	-0.549	N.pl3	1	UNK0	0.000	
13	   C	-1.310	-1.188	0.746	C.2	1	UNK0	0.000	
14	   O	-2.349	-1.433	1.429	O.2	1	UNK0	0.000	
15	   C	-2.534	-0.297	-1.332	C.3	1	UNK0	0.000	
16	   C	-3.101	1.051	-1.078	C.3	1	UNK0	0.000	
17	   N	-4.283	1.358	-1.822	N.3	1	UNK0	0.000	
18	   C	-4.684	2.734	-1.499	C.3	1	UNK0	0.000	
19	   C	-5.099	2.866	-0.056	C.3	1	UNK0	0.000	
20	   O	-6.158	2.013	0.181	O.3	1	UNK0	0.000	
21	   C	-5.870	0.676	-0.088	C.3	1	UNK0	0.000	
22	   C	-5.377	0.500	-1.511	C.3	1	UNK0	0.000	
23	   C	0.432	1.014	-1.158	C.2	1	UNK0	0.000	
24	   C	0.227	1.999	-0.246	C.2	1	UNK0	0.000	
25	   C	0.608	3.298	-0.508	C.2	1	UNK0	0.000	
26	   C	1.217	3.662	-1.711	C.2	1	UNK0	0.000	
27	   C	1.428	2.673	-2.636	C.2	1	UNK0	0.000	
28	   C	1.038	1.377	-2.352	C.2	1	UNK0	0.000	
29	   O	1.596	4.951	-1.976	O.3	1	UNK0	0.000	
30	   C	2.226	5.414	-3.140	C.3	1	UNK0	0.000	
31	   C	3.553	4.812	-3.375	C.2	1	UNK0	0.000	
32	   O	4.257	5.034	-4.372	O.2	1	UNK0	0.000	
33	   N	4.073	3.915	-2.398	N.pl3	1	UNK0	0.000	
34	   C	2.260	-1.186	0.233	C.2	1	UNK0	0.000	
35	   O	3.034	-0.823	-0.662	O.2	1	UNK0	0.000	
36	   H	4.832	-1.607	0.746	 H	1	UNK0	0.000	
37	   H	1.732	-3.023	4.254	 H	1	UNK0	0.000	
38	   H	4.192	-3.361	4.610	 H	1	UNK0	0.000	
39	   H	0.202	-0.972	-1.883	 H	1	UNK0	0.000	
40	   H	-2.191	-0.400	-2.404	 H	1	UNK0	0.000	
41	   H	-3.278	-1.089	-1.100	 H	1	UNK0	0.000	
42	   H	-2.387	1.882	-1.266	 H	1	UNK0	0.000	
43	   H	-3.379	1.072	0.018	 H	1	UNK0	0.000	
44	   H	-3.852	3.445	-1.671	 H	1	UNK0	0.000	
45	   H	-5.546	3.030	-2.117	 H	1	UNK0	0.000	
46	   H	-5.524	3.904	0.052	 H	1	UNK0	0.000	
47	   H	-4.261	2.763	0.665	 H	1	UNK0	0.000	
48	   H	-6.839	0.125	-0.028	 H	1	UNK0	0.000	
49	   H	-5.196	0.226	0.654	 H	1	UNK0	0.000	
50	   H	-6.237	0.746	-2.186	 H	1	UNK0	0.000	
51	   H	-5.111	-0.558	-1.644	 H	1	UNK0	0.000	
52	   H	-0.245	1.731	0.691	 H	1	UNK0	0.000	
53	   H	0.454	4.097	0.200	 H	1	UNK0	0.000	
54	   H	1.879	2.817	-3.609	 H	1	UNK0	0.000	
55	   H	1.199	0.589	-3.074	 H	1	UNK0	0.000	
56	   H	1.574	5.276	-4.044	 H	1	UNK0	0.000	
57	   H	2.311	6.530	-3.030	 H	1	UNK0	0.000	
58	   H	4.602	3.046	-2.649	 H	1	UNK0	0.000	
59	   H	3.923	4.132	-1.379	 H	1	UNK0	0.000	
@<TRIPOS>BOND
1 1 2 1
2 2 3 2
3 2 7 1
4 3 4 1
5 4 5 2
6 4 34 1
7 5 6 1
8 5 8 1
9 6 7 2
10 8 9 1
11 9 10 2
12 9 13 1
13 10 11 1
14 10 34 1
15 11 12 1
16 11 23 1
17 12 13 1
18 12 15 1
19 13 14 2
20 15 16 1
21 16 17 1
22 17 18 1
23 17 22 1
24 18 19 1
25 19 20 1
26 20 21 1
27 21 22 1
28 23 24 2
29 23 28 1
30 24 25 1
31 25 26 2
32 26 27 1
33 26 29 1
34 27 28 2
35 29 30 1
36 30 31 1
37 31 32 2
38 31 33 1
39 34 35 2
40 3 36 1
41 6 37 1
42 7 38 1
43 11 39 1
44 15 40 1
45 15 41 1
46 16 42 1
47 16 43 1
48 18 44 1
49 18 45 1
50 19 46 1
51 19 47 1
52 21 48 1
53 21 49 1
54 22 50 1
55 22 51 1
56 24 52 1
57 25 53 1
58 27 54 1
59 28 55 1
60 30 56 1
61 30 57 1
62 33 58 1
63 33 59 1
@<TRIPOS>SUBSTRUCTURE
1	UNK0	1	GROUP	1 ****	UNK
