# created with PyMOL 2.3.2
@<TRIPOS>MOLECULE
1716
40 43 1                 
SMALL
USER_CHARGES
@<TRIPOS>ATOM
1	  Cl	-4.725	1.517	1.989	Cl	1	UNK0	0.000	
2	   C	-3.142	1.629	1.217	C.2	1	UNK0	0.000	
3	   C	-3.017	2.291	-0.006	C.2	1	UNK0	0.000	
4	   C	-1.767	2.362	-0.583	C.2	1	UNK0	0.000	
5	   C	-0.652	1.804	0.004	C.2	1	UNK0	0.000	
6	   N	0.532	1.915	-0.622	N.2	1	UNK0	0.000	
7	   C	0.640	2.564	-1.815	C.2	1	UNK0	0.000	
8	   C	-0.458	3.134	-2.430	C.2	1	UNK0	0.000	
9	   C	-1.684	3.033	-1.807	C.2	1	UNK0	0.000	
10	   C	-0.764	1.150	1.207	C.2	1	UNK0	0.000	
11	   C	-2.016	1.074	1.796	C.2	1	UNK0	0.000	
12	   C	0.405	0.539	1.869	C.2	1	UNK0	0.000	
13	   O	1.092	1.194	2.668	O.2	1	UNK0	0.000	
14	   N	0.755	-0.821	1.591	N.pl3	1	UNK0	0.000	
15	   C	-0.009	-1.638	0.667	C.3	1	UNK0	0.000	
16	   C	0.933	-2.039	-0.453	C.3	1	UNK0	0.000	
17	   C	2.085	-2.805	0.136	C.3	1	UNK0	0.000	
18	   N	1.672	-4.071	0.705	N.pl3	1	UNK0	0.000	
19	   C	2.023	-5.105	-0.197	C.2	1	UNK0	0.000	
20	   O	1.663	-6.330	-0.102	O.2	1	UNK0	0.000	
21	   N	2.836	-4.546	-1.211	N.pl3	1	UNK0	0.000	
22	   C	3.004	-3.167	-0.961	C.2	1	UNK0	0.000	
23	   O	3.792	-2.417	-1.572	O.2	1	UNK0	0.000	
24	   C	2.811	-1.940	1.115	C.3	1	UNK0	0.000	
25	   C	1.896	-1.451	2.224	C.3	1	UNK0	0.000	
26	   H	-3.916	2.713	-0.430	 H	1	UNK0	0.000	
27	   H	1.592	2.654	-2.319	 H	1	UNK0	0.000	
28	   H	-0.350	3.645	-3.377	 H	1	UNK0	0.000	
29	   H	-2.538	3.480	-2.292	 H	1	UNK0	0.000	
30	   H	-2.103	0.560	2.742	 H	1	UNK0	0.000	
31	   H	-0.288	-2.587	1.212	 H	1	UNK0	0.000	
32	   H	-0.919	-1.151	0.318	 H	1	UNK0	0.000	
33	   H	1.356	-1.120	-0.915	 H	1	UNK0	0.000	
34	   H	0.423	-2.586	-1.262	 H	1	UNK0	0.000	
35	   H	1.199	-4.182	1.622	 H	1	UNK0	0.000	
36	   H	3.241	-5.109	-2.022	 H	1	UNK0	0.000	
37	   H	3.162	-1.039	0.576	 H	1	UNK0	0.000	
38	   H	3.691	-2.432	1.563	 H	1	UNK0	0.000	
39	   H	2.443	-0.787	2.893	 H	1	UNK0	0.000	
40	   H	1.553	-2.379	2.767	 H	1	UNK0	0.000	
@<TRIPOS>BOND
1 1 2 1
2 2 3 2
3 2 11 1
4 3 4 1
5 4 5 2
6 4 9 1
7 5 6 1
8 5 10 1
9 6 7 2
10 7 8 1
11 8 9 2
12 10 11 2
13 10 12 1
14 12 13 2
15 12 14 1
16 14 15 1
17 14 25 1
18 15 16 1
19 16 17 1
20 17 18 1
21 17 22 1
22 17 24 1
23 18 19 1
24 19 20 2
25 19 21 1
26 21 22 1
27 22 23 2
28 24 25 1
29 3 26 1
30 7 27 1
31 8 28 1
32 9 29 1
33 11 30 1
34 15 31 1
35 15 32 1
36 16 33 1
37 16 34 1
38 18 35 1
39 21 36 1
40 24 37 1
41 24 38 1
42 25 39 1
43 25 40 1
@<TRIPOS>SUBSTRUCTURE
1	UNK0	1	GROUP	1 ****	UNK
