# created with PyMOL 2.3.2
@<TRIPOS>MOLECULE
1717
56 60 1                 
SMALL
USER_CHARGES
@<TRIPOS>ATOM
1	  Cl	-2.591	2.069	-6.434	Cl	1	UNK0	0.000	
2	   C	-2.152	0.691	-5.447	C.2	1	UNK0	0.000	
3	   C	-1.502	0.873	-4.217	C.2	1	UNK0	0.000	
4	   C	-1.172	-0.219	-3.464	C.2	1	UNK0	0.000	
5	   C	-1.496	-1.466	-3.959	C.2	1	UNK0	0.000	
6	   C	-2.135	-1.678	-5.165	C.2	1	UNK0	0.000	
7	   C	-2.466	-0.565	-5.918	C.2	1	UNK0	0.000	
8	   C	-2.453	-3.051	-5.636	C.3	1	UNK0	0.000	
9	   C	-0.527	0.270	-2.193	C.3	1	UNK0	0.000	
10	   N	0.749	-0.324	-1.984	N.3	1	UNK0	0.000	
11	   C	0.539	-1.481	-1.187	C.3	1	UNK0	0.000	
12	   C	-0.838	-1.493	-0.661	C.3	1	UNK0	0.000	
13	   C	-1.421	-0.166	-1.093	C.3	1	UNK0	0.000	
14	   C	-1.430	0.593	0.146	C.2	1	UNK0	0.000	
15	   O	-1.277	1.846	0.383	O.2	1	UNK0	0.000	
16	   N	-1.658	-0.327	1.209	N.pl3	1	UNK0	0.000	
17	   C	-0.996	-1.537	0.798	C.2	1	UNK0	0.000	
18	   O	-0.595	-2.504	1.515	O.2	1	UNK0	0.000	
19	   C	-2.387	-0.172	2.454	C.3	1	UNK0	0.000	
20	   C	-1.932	0.993	3.289	C.3	1	UNK0	0.000	
21	   C	-2.925	2.102	3.042	C.3	1	UNK0	0.000	
22	   C	-4.016	1.541	2.170	C.3	1	UNK0	0.000	
23	   C	-3.844	0.062	2.291	C.3	1	UNK0	0.000	
24	   C	1.644	-1.742	-0.205	C.3	1	UNK0	0.000	
25	   C	1.910	-0.667	0.782	C.3	1	UNK0	0.000	
26	   C	3.044	-1.145	1.651	C.2	1	UNK0	0.000	
27	   O	3.598	-2.262	1.489	O.2	1	UNK0	0.000	
28	   N	3.549	-0.333	2.716	N.pl3	1	UNK0	0.000	
29	   C	-0.424	1.706	-2.394	C.2	1	UNK0	0.000	
30	   O	0.140	2.536	-1.644	O.2	1	UNK0	0.000	
31	   N	-1.063	2.069	-3.592	N.pl3	1	UNK0	0.000	
32	   H	-1.255	-2.368	-3.409	 H	1	UNK0	0.000	
33	   H	-2.971	-0.724	-6.872	 H	1	UNK0	0.000	
34	   H	-1.544	-3.594	-5.987	 H	1	UNK0	0.000	
35	   H	-3.272	-3.054	-6.382	 H	1	UNK0	0.000	
36	   H	-2.830	-3.642	-4.750	 H	1	UNK0	0.000	
37	   H	1.415	0.373	-1.598	 H	1	UNK0	0.000	
38	   H	0.610	-2.358	-1.914	 H	1	UNK0	0.000	
39	   H	-1.448	-2.346	-1.056	 H	1	UNK0	0.000	
40	   H	-2.485	-0.310	-1.424	 H	1	UNK0	0.000	
41	   H	-2.290	-1.144	3.024	 H	1	UNK0	0.000	
42	   H	-0.941	1.364	2.969	 H	1	UNK0	0.000	
43	   H	-1.860	0.726	4.364	 H	1	UNK0	0.000	
44	   H	-3.364	2.404	4.022	 H	1	UNK0	0.000	
45	   H	-2.446	3.007	2.603	 H	1	UNK0	0.000	
46	   H	-5.029	1.878	2.516	 H	1	UNK0	0.000	
47	   H	-3.873	1.824	1.096	 H	1	UNK0	0.000	
48	   H	-4.302	-0.502	1.452	 H	1	UNK0	0.000	
49	   H	-4.332	-0.229	3.267	 H	1	UNK0	0.000	
50	   H	1.477	-2.726	0.240	 H	1	UNK0	0.000	
51	   H	2.583	-1.849	-0.825	 H	1	UNK0	0.000	
52	   H	2.272	0.261	0.281	 H	1	UNK0	0.000	
53	   H	1.108	-0.375	1.447	 H	1	UNK0	0.000	
54	   H	2.882	-0.043	3.465	 H	1	UNK0	0.000	
55	   H	4.556	-0.063	2.706	 H	1	UNK0	0.000	
56	   H	-1.212	3.049	-3.994	 H	1	UNK0	0.000	
@<TRIPOS>BOND
1 1 2 1
2 2 3 2
3 2 7 1
4 3 4 1
5 3 31 1
6 4 5 2
7 4 9 1
8 5 6 1
9 6 7 2
10 6 8 1
11 9 10 1
12 9 13 1
13 9 29 1
14 10 11 1
15 11 12 1
16 11 24 1
17 12 13 1
18 12 17 1
19 13 14 1
20 14 15 2
21 14 16 1
22 16 17 1
23 16 19 1
24 17 18 2
25 19 20 1
26 19 23 1
27 20 21 1
28 21 22 1
29 22 23 1
30 24 25 1
31 25 26 1
32 26 27 2
33 26 28 1
34 29 30 2
35 29 31 1
36 5 32 1
37 7 33 1
38 8 34 1
39 8 35 1
40 8 36 1
41 10 37 1
42 11 38 1
43 12 39 1
44 13 40 1
45 19 41 1
46 20 42 1
47 20 43 1
48 21 44 1
49 21 45 1
50 22 46 1
51 22 47 1
52 23 48 1
53 23 49 1
54 24 50 1
55 24 51 1
56 25 52 1
57 25 53 1
58 28 54 1
59 28 55 1
60 31 56 1
@<TRIPOS>SUBSTRUCTURE
1	UNK0	1	GROUP	1 ****	UNK
