# created with PyMOL 2.3.2
@<TRIPOS>MOLECULE
1718
51 55 1                 
SMALL
USER_CHARGES
@<TRIPOS>ATOM
1	  Cl	-5.673	0.150	1.367	Cl	1	UNK0	0.000	
2	   C	-4.265	-0.534	2.147	C.2	1	UNK0	0.000	
3	   C	-3.019	-0.213	1.607	C.2	1	UNK0	0.000	
4	   C	-1.886	-0.732	2.193	C.2	1	UNK0	0.000	
5	   C	-2.044	-1.560	3.306	C.2	1	UNK0	0.000	
6	   C	-3.279	-1.872	3.832	C.2	1	UNK0	0.000	
7	   C	-4.413	-1.351	3.245	C.2	1	UNK0	0.000	
8	   C	-0.685	-0.286	1.487	C.3	1	UNK0	0.000	
9	   N	0.255	0.403	2.351	N.3	1	UNK0	0.000	
10	   C	1.540	0.304	1.672	C.3	1	UNK0	0.000	
11	   C	1.537	-1.018	0.955	C.3	1	UNK0	0.000	
12	   C	0.087	-1.423	0.856	C.3	1	UNK0	0.000	
13	   C	-0.203	-1.543	-0.595	C.2	1	UNK0	0.000	
14	   O	-1.375	-1.740	-1.021	O.2	1	UNK0	0.000	
15	   N	1.000	-1.404	-1.332	N.pl3	1	UNK0	0.000	
16	   C	1.949	-0.790	-0.473	C.2	1	UNK0	0.000	
17	   O	2.989	-0.144	-0.785	O.2	1	UNK0	0.000	
18	   C	1.216	-1.807	-2.674	C.3	1	UNK0	0.000	
19	   C	0.933	-0.818	-3.734	C.3	1	UNK0	0.000	
20	   O	1.672	0.353	-3.664	O.3	1	UNK0	0.000	
21	   C	1.261	0.998	-4.831	C.3	1	UNK0	0.000	
22	   C	-0.264	0.834	-4.851	C.3	1	UNK0	0.000	
23	   C	-0.461	-0.324	-3.858	C.3	1	UNK0	0.000	
24	   C	2.638	0.400	2.690	C.3	1	UNK0	0.000	
25	   C	2.493	1.727	3.369	C.2	1	UNK0	0.000	
26	   O	3.333	1.995	4.266	O.2	1	UNK0	0.000	
27	   N	1.469	2.649	3.034	N.pl3	1	UNK0	0.000	
28	   C	-1.188	0.574	0.404	C.2	1	UNK0	0.000	
29	   O	-0.497	1.202	-0.479	O.2	1	UNK0	0.000	
30	   N	-2.601	0.589	0.510	N.pl3	1	UNK0	0.000	
31	   H	-1.186	-1.997	3.808	 H	1	UNK0	0.000	
32	   H	-3.398	-2.514	4.695	 H	1	UNK0	0.000	
33	   H	-5.375	-1.607	3.672	 H	1	UNK0	0.000	
34	   H	0.293	-0.021	3.305	 H	1	UNK0	0.000	
35	   H	1.579	1.139	0.953	 H	1	UNK0	0.000	
36	   H	2.169	-1.755	1.454	 H	1	UNK0	0.000	
37	   H	-0.083	-2.362	1.380	 H	1	UNK0	0.000	
38	   H	2.291	-2.128	-2.820	 H	1	UNK0	0.000	
39	   H	0.645	-2.743	-2.949	 H	1	UNK0	0.000	
40	   H	1.203	-1.291	-4.710	 H	1	UNK0	0.000	
41	   H	1.653	0.514	-5.739	 H	1	UNK0	0.000	
42	   H	1.557	2.059	-4.854	 H	1	UNK0	0.000	
43	   H	-0.713	1.762	-4.508	 H	1	UNK0	0.000	
44	   H	-0.615	0.501	-5.856	 H	1	UNK0	0.000	
45	   H	-0.901	0.127	-2.970	 H	1	UNK0	0.000	
46	   H	-1.151	-1.070	-4.317	 H	1	UNK0	0.000	
47	   H	3.602	0.356	2.137	 H	1	UNK0	0.000	
48	   H	2.565	-0.427	3.405	 H	1	UNK0	0.000	
49	   H	1.555	3.171	2.140	 H	1	UNK0	0.000	
50	   H	0.636	2.836	3.626	 H	1	UNK0	0.000	
51	   H	-3.259	1.115	-0.127	 H	1	UNK0	0.000	
@<TRIPOS>BOND
1 1 2 1
2 2 3 2
3 2 7 1
4 3 4 1
5 3 30 1
6 4 5 2
7 4 8 1
8 5 6 1
9 6 7 2
10 8 9 1
11 8 12 1
12 8 28 1
13 9 10 1
14 10 11 1
15 10 24 1
16 11 12 1
17 11 16 1
18 12 13 1
19 13 14 2
20 13 15 1
21 15 16 1
22 15 18 1
23 16 17 2
24 18 19 1
25 19 20 1
26 19 23 1
27 20 21 1
28 21 22 1
29 22 23 1
30 24 25 1
31 25 26 2
32 25 27 1
33 28 29 2
34 28 30 1
35 5 31 1
36 6 32 1
37 7 33 1
38 9 34 1
39 10 35 1
40 11 36 1
41 12 37 1
42 18 38 1
43 18 39 1
44 19 40 1
45 21 41 1
46 21 42 1
47 22 43 1
48 22 44 1
49 23 45 1
50 23 46 1
51 24 47 1
52 24 48 1
53 27 49 1
54 27 50 1
55 30 51 1
@<TRIPOS>SUBSTRUCTURE
1	UNK0	1	GROUP	1 ****	UNK
