# created with PyMOL 2.3.2
@<TRIPOS>MOLECULE
1719
43 46 1                 
SMALL
USER_CHARGES
@<TRIPOS>ATOM
1	  Cl	-4.584	-2.434	0.180	Cl	1	UNK0	0.000	
2	   C	-3.290	-3.365	-0.489	C.2	1	UNK0	0.000	
3	   C	-2.087	-2.763	-0.749	C.2	1	UNK0	0.000	
4	   C	-1.050	-3.487	-1.279	C.2	1	UNK0	0.000	
5	   N	-0.023	-2.638	-1.419	N.pl3	1	UNK0	0.000	
6	   N	-0.386	-1.456	-1.005	N.2	1	UNK0	0.000	
7	   C	-1.659	-1.471	-0.576	C.2	1	UNK0	0.000	
8	   C	-2.423	-0.322	-0.034	C.3	1	UNK0	0.000	
9	   N	-1.632	0.884	-0.006	N.pl3	1	UNK0	0.000	
10	   C	-0.430	1.017	0.718	C.2	1	UNK0	0.000	
11	   O	-0.022	0.032	1.377	O.2	1	UNK0	0.000	
12	   C	0.381	2.254	0.747	C.3	1	UNK0	0.000	
13	   C	1.598	2.098	1.597	C.3	1	UNK0	0.000	
14	   N	1.761	3.347	2.321	N.pl3	1	UNK0	0.000	
15	   C	0.570	4.124	2.207	C.2	1	UNK0	0.000	
16	   O	0.447	5.272	2.702	O.2	1	UNK0	0.000	
17	   C	-0.431	3.351	1.435	C.3	1	UNK0	0.000	
18	   C	2.939	3.726	3.034	C.3	1	UNK0	0.000	
19	   C	2.892	4.687	4.160	C.3	1	UNK0	0.000	
20	   C	3.342	5.189	2.797	C.3	1	UNK0	0.000	
21	   C	1.290	-3.003	-1.954	C.3	1	UNK0	0.000	
22	   C	-1.194	-4.831	-1.561	C.2	1	UNK0	0.000	
23	   C	-2.410	-5.426	-1.295	C.2	1	UNK0	0.000	
24	   C	-3.464	-4.707	-0.760	C.2	1	UNK0	0.000	
25	   H	-2.884	-0.549	0.949	 H	1	UNK0	0.000	
26	   H	-3.267	-0.151	-0.732	 H	1	UNK0	0.000	
27	   H	-1.944	1.721	-0.543	 H	1	UNK0	0.000	
28	   H	0.600	2.641	-0.269	 H	1	UNK0	0.000	
29	   H	1.495	1.291	2.346	 H	1	UNK0	0.000	
30	   H	2.516	1.887	1.017	 H	1	UNK0	0.000	
31	   H	-0.954	3.979	0.681	 H	1	UNK0	0.000	
32	   H	-1.209	2.888	2.090	 H	1	UNK0	0.000	
33	   H	3.783	3.004	3.027	 H	1	UNK0	0.000	
34	   H	1.910	5.064	4.513	 H	1	UNK0	0.000	
35	   H	3.681	4.601	4.929	 H	1	UNK0	0.000	
36	   H	4.445	5.369	2.689	 H	1	UNK0	0.000	
37	   H	2.661	5.839	2.225	 H	1	UNK0	0.000	
38	   H	1.136	-3.759	-2.754	 H	1	UNK0	0.000	
39	   H	1.716	-2.080	-2.398	 H	1	UNK0	0.000	
40	   H	1.912	-3.377	-1.130	 H	1	UNK0	0.000	
41	   H	-0.348	-5.361	-1.979	 H	1	UNK0	0.000	
42	   H	-2.493	-6.484	-1.527	 H	1	UNK0	0.000	
43	   H	-4.393	-5.228	-0.573	 H	1	UNK0	0.000	
@<TRIPOS>BOND
1 1 2 1
2 2 3 2
3 2 24 1
4 3 4 1
5 3 7 1
6 4 5 1
7 4 22 2
8 5 6 1
9 5 21 1
10 6 7 2
11 7 8 1
12 8 9 1
13 9 10 1
14 10 11 2
15 10 12 1
16 12 13 1
17 12 17 1
18 13 14 1
19 14 15 1
20 14 18 1
21 15 16 2
22 15 17 1
23 18 19 1
24 18 20 1
25 19 20 1
26 22 23 1
27 23 24 2
28 8 25 1
29 8 26 1
30 9 27 1
31 12 28 1
32 13 29 1
33 13 30 1
34 17 31 1
35 17 32 1
36 18 33 1
37 19 34 1
38 19 35 1
39 20 36 1
40 20 37 1
41 21 38 1
42 21 39 1
43 21 40 1
44 22 41 1
45 23 42 1
46 24 43 1
@<TRIPOS>SUBSTRUCTURE
1	UNK0	1	GROUP	1 ****	UNK
