# created with PyMOL 2.3.2
@<TRIPOS>MOLECULE
1720
57 60 1                 
SMALL
USER_CHARGES
@<TRIPOS>ATOM
1	  Cl	-1.575	2.932	3.481	Cl	1	UNK0	0.000	
2	   C	0.142	2.538	3.359	C.2	1	UNK0	0.000	
3	   N	1.134	3.315	3.802	N.pl3	1	UNK0	0.000	
4	   N	2.238	2.669	3.648	N.2	1	UNK0	0.000	
5	   C	2.046	1.432	3.086	C.2	1	UNK0	0.000	
6	   C	0.703	1.333	2.882	C.2	1	UNK0	0.000	
7	   C	-0.173	0.290	2.282	C.3	1	UNK0	0.000	
8	   N	-0.015	0.227	0.860	N.3	1	UNK0	0.000	
9	   C	1.082	-0.229	0.158	C.3	1	UNK0	0.000	
10	   C	0.909	0.192	-1.344	C.3	1	UNK0	0.000	
11	   C	-0.527	0.403	-1.599	C.3	1	UNK0	0.000	
12	   C	-0.834	1.733	-0.817	C.3	1	UNK0	0.000	
13	   C	-0.051	1.701	0.445	C.3	1	UNK0	0.000	
14	   N	-0.935	0.798	-2.900	N.3	1	UNK0	0.000	
15	   C	-0.586	0.004	-4.015	C.3	1	UNK0	0.000	
16	   C	-1.075	-1.404	-3.975	C.3	1	UNK0	0.000	
17	   N	-1.893	-1.676	-2.819	N.pl3	1	UNK0	0.000	
18	   C	-2.876	-0.652	-2.450	C.3	1	UNK0	0.000	
19	   C	-2.420	0.730	-2.853	C.3	1	UNK0	0.000	
20	   C	-1.773	-2.861	-2.033	C.2	1	UNK0	0.000	
21	   N	-2.831	-3.325	-1.325	N.2	1	UNK0	0.000	
22	   C	-2.712	-4.424	-0.579	C.2	1	UNK0	0.000	
23	   C	-1.540	-5.112	-0.493	C.2	1	UNK0	0.000	
24	   C	-0.433	-4.670	-1.198	C.2	1	UNK0	0.000	
25	   C	-0.576	-3.520	-1.980	C.2	1	UNK0	0.000	
26	   O	1.537	-0.798	-2.050	O.3	1	UNK0	0.000	
27	   C	3.075	0.387	2.954	C.3	1	UNK0	0.000	
28	   C	0.915	4.699	4.250	C.3	1	UNK0	0.000	
29	   H	-1.198	0.402	2.584	 H	1	UNK0	0.000	
30	   H	0.183	-0.697	2.712	 H	1	UNK0	0.000	
31	   H	1.233	-1.315	0.232	 H	1	UNK0	0.000	
32	   H	2.048	0.235	0.449	 H	1	UNK0	0.000	
33	   H	1.430	1.196	-1.392	 H	1	UNK0	0.000	
34	   H	-1.139	-0.319	-1.074	 H	1	UNK0	0.000	
35	   H	-1.916	1.802	-0.657	 H	1	UNK0	0.000	
36	   H	-0.431	2.591	-1.439	 H	1	UNK0	0.000	
37	   H	-0.597	2.277	1.163	 H	1	UNK0	0.000	
38	   H	0.983	2.056	0.374	 H	1	UNK0	0.000	
39	   H	0.510	0.069	-4.275	 H	1	UNK0	0.000	
40	   H	-1.056	0.496	-4.906	 H	1	UNK0	0.000	
41	   H	-0.253	-2.135	-4.086	 H	1	UNK0	0.000	
42	   H	-1.747	-1.645	-4.854	 H	1	UNK0	0.000	
43	   H	-3.109	-0.702	-1.346	 H	1	UNK0	0.000	
44	   H	-3.813	-0.964	-2.950	 H	1	UNK0	0.000	
45	   H	-2.864	1.550	-2.310	 H	1	UNK0	0.000	
46	   H	-2.747	0.851	-3.925	 H	1	UNK0	0.000	
47	   H	-3.588	-4.772	-0.021	 H	1	UNK0	0.000	
48	   H	-1.461	-6.009	0.111	 H	1	UNK0	0.000	
49	   H	0.520	-5.191	-1.139	 H	1	UNK0	0.000	
50	   H	0.308	-3.211	-2.501	 H	1	UNK0	0.000	
51	   H	2.289	-0.378	-2.545	 H	1	UNK0	0.000	
52	   H	2.766	-0.553	3.539	 H	1	UNK0	0.000	
53	   H	3.390	0.050	2.001	 H	1	UNK0	0.000	
54	   H	3.950	0.735	3.596	 H	1	UNK0	0.000	
55	   H	1.289	5.301	3.348	 H	1	UNK0	0.000	
56	   H	-0.164	4.937	4.263	 H	1	UNK0	0.000	
57	   H	1.515	5.010	5.078	 H	1	UNK0	0.000	
@<TRIPOS>BOND
1 1 2 1
2 2 3 1
3 2 6 2
4 3 4 1
5 3 28 1
6 4 5 2
7 5 6 1
8 5 27 1
9 6 7 1
10 7 8 1
11 8 9 1
12 8 13 1
13 9 10 1
14 10 11 1
15 10 26 1
16 11 12 1
17 11 14 1
18 12 13 1
19 14 15 1
20 14 19 1
21 15 16 1
22 16 17 1
23 17 18 1
24 17 20 1
25 18 19 1
26 20 21 2
27 20 25 1
28 21 22 1
29 22 23 2
30 23 24 1
31 24 25 2
32 7 29 1
33 7 30 1
34 9 31 1
35 9 32 1
36 10 33 1
37 11 34 1
38 12 35 1
39 12 36 1
40 13 37 1
41 13 38 1
42 15 39 1
43 15 40 1
44 16 41 1
45 16 42 1
46 18 43 1
47 18 44 1
48 19 45 1
49 19 46 1
50 22 47 1
51 23 48 1
52 24 49 1
53 25 50 1
54 26 51 1
55 27 52 1
56 27 53 1
57 27 54 1
58 28 55 1
59 28 56 1
60 28 57 1
@<TRIPOS>SUBSTRUCTURE
1	UNK0	1	GROUP	1 ****	UNK
